drugbank_target|P37330 Malate synthase G (DB04343)
 OpenBabel12092119503D

  0  0  0     0  0            999 V3000
M  V30 BEGIN CTAB
M  V30 COUNTS 11267 11375 0 0 0
M  V30 BEGIN ATOM
M  V30 1 H -0.908 1.98254 -0.117106 0
M  V30 2 N 0 1.576 0 0
M  V30 3 C 0.933 2.03868 1.02534 0
M  V30 4 C 1.911 0.928543 1.3348 0
M  V30 5 O 3.095 1.19667 1.45644 0
M  V30 6 C 0.222 2.43627 2.35294 0
M  V30 7 C -0.732 3.65373 2.2001 0
M  V30 8 S 0.101 5.13292 1.52614 0
M  V30 9 C 1.257 5.56322 2.86805 0
M  V30 10 H 1.49 2.90518 0.631377 0
M  V30 11 H -0.977 1.52953 0.210867 0
M  V30 12 H 0.981 2.67203 3.11629 0
M  V30 13 H -0.358 1.57376 2.7183 0
M  V30 14 H -1.165 3.90944 3.18086 0
M  V30 15 H -1.563 3.418 1.51819 0
M  V30 16 H 0.729 5.58782 3.83104 0
M  V30 17 H 1.672 6.56266 2.65933 0
M  V30 18 H 2.08 4.83886 2.90714 0
M  V30 19 N 1.4781 -0.272755 1.55222 0
M  V30 20 C 2.7031 -1.02683 1.80197 0
M  V30 21 C 3.1281 -1.79142 0.573551 0
M  V30 22 O 2.4861 -1.74917 -0.476849 0
M  V30 23 C 2.5341 -1.9609 3.02624 0
M  V30 24 O 1.6381 -3.04863 2.77727 0
M  V30 25 H 0.9791 -0.293557 0.595584 0
M  V30 26 H 3.5091 -0.30159 2.02365 0
M  V30 27 H 3.5191 -2.38039 3.31363 0
M  V30 28 H 2.1941 -1.39851 3.91682 0
M  V30 29 H 0.7711 -2.67228 2.60084 0
M  V30 30 N 2.9562 -1.48159 -0.537278 0
M  V30 31 C 3.8882 -1.58218 -1.65831 0
M  V30 32 C 4.9012 -0.466948 -1.5596 0
M  V30 33 O 6.0902 -0.73747 -1.62553 0
M  V30 34 C 3.1902 -1.48906 -3.04434 0
M  V30 35 C 2.3632 -2.75343 -3.3986 0
M  V30 36 C 1.4222 -2.59588 -4.57712 0
M  V30 37 O 0.4482 -3.33457 -4.61297 0
M  V30 38 N 1.6502 -1.68724 -5.55439 0
M  V30 39 H 4.4152 -2.54891 -1.57641 0
M  V30 40 H 1.9762 -1.4479 -0.724386 0
M  V30 41 H 3.9682 -1.36072 -3.81139 0
M  V30 42 H 2.5382 -0.602368 -3.06741 0
M  V30 43 H 1.7582 -3.02795 -2.52406 0
M  V30 44 H 3.0462 -3.5924 -3.60311 0
M  V30 45 H 2.4442 -1.07898 -5.55315 0
M  V30 46 H 1.0012 -1.61832 -6.3139 0
M  V30 47 N 4.4343 0.785586 -1.36625 0
M  V30 48 C 5.6623 1.57448 -1.3423 0
M  V30 49 C 6.0773 1.88649 0.0755653 0
M  V30 50 O 5.4343 1.50414 1.03354 0
M  V30 51 C 5.4853 2.89316 -2.16745 0
M  V30 52 O 5.2063 2.59459 -3.53005 0
M  V30 53 C 6.7073 3.83606 -2.22174 0
M  V30 54 H 3.9273 0.488226 -0.4603 0
M  V30 55 H 6.4713 0.974733 -1.79775 0
M  V30 56 H 4.6263 3.4575 -1.74745 0
M  V30 57 H 5.0403 3.43804 -3.96105 0
M  V30 58 H 6.5143 4.73181 -2.8426 0
M  V30 59 H 6.9913 4.21734 -1.22627 0
M  V30 60 H 7.5973 3.33104 -2.64427 0
M  V30 61 N 5.9124 1.20967 1.01018 0
M  V30 62 C 7.1614 1.01796 1.74128 0
M  V30 63 C 7.4744 -0.449691 1.90361 0
M  V30 64 O 8.6804 -0.76068 2.60626 0
M  V30 65 C 7.1364 1.7727 3.13215 0
M  V30 66 C 6.7444 3.28171 3.04972 0
M  V30 67 C 8.4884 1.66489 3.90489 0
M  V30 68 C 6.3954 3.96156 4.39107 0
M  V30 69 H 5.3254 0.377276 0.652824 0
M  V30 70 H 7.9764 1.44651 1.12909 0
M  V30 71 H 6.3584 1.27205 3.75013 0
M  V30 72 H 7.5324 3.85499 2.52443 0
M  V30 73 H 5.8474 3.39437 2.41188 0
M  V30 74 H 8.4444 2.14617 4.89738 0
M  V30 75 H 8.7874 0.6222 4.11624 0
M  V30 76 H 9.3204 2.14003 3.35332 0
M  V30 77 H 6.0594 5.00604 4.23174 0
M  V30 78 H 5.5794 3.43617 4.91617 0
M  V30 79 H 7.2584 4.00774 5.07926 0
M  V30 80 N 7.3905 -1.2043 1.01659 0
M  V30 81 C 8.6185 -1.93777 0.725132 0
M  V30 82 C 9.0335 -1.74772 -0.714166 0
M  V30 83 O 8.3905 -1.06169 -1.4844 0
M  V30 84 C 8.4415 -3.45876 1.05129 0
M  V30 85 O 8.1625 -3.6426 2.43406 0
M  V30 86 C 9.6635 -4.36368 0.780891 0
M  V30 87 H 6.8835 -0.615901 0.266284 0
M  V30 88 H 9.4275 -1.52922 1.35776 0
M  V30 89 H 7.5825 -3.8461 0.464065 0
M  V30 90 H 7.9965 -4.58246 2.55169 0
M  V30 91 H 9.4705 -5.41743 1.05918 0
M  V30 92 H 9.9475 -4.38275 -0.284937 0
M  V30 93 H 10.5535 -4.03296 1.35027 0
M  V30 94 N 8.8686 -0.792821 -1.36206 0
M  V30 95 C 9.8006 -0.151469 -2.28699 0
M  V30 96 C 10.8136 0.641262 -1.49638 0
M  V30 97 O 12.0026 0.475885 -1.72039 0
M  V30 98 C 9.1026 0.808424 -3.29117 0
M  V30 99 C 8.2756 0.0650202 -4.37352 0
M  V30 100 C 7.3346 0.941358 -5.17711 0
M  V30 101 O 6.3606 0.397352 -5.67811 0
M  V30 102 N 7.5626 2.2652 -5.3448 0
M  V30 103 H 10.3276 -0.945982 -2.84379 0
M  V30 104 H 7.8886 -0.647032 -1.48409 0
M  V30 105 H 9.8806 1.3986 -3.79765 0
M  V30 106 H 8.4506 1.5038 -2.74052 0
M  V30 107 H 7.6706 -0.706255 -3.87822 0
M  V30 108 H 8.9586 -0.447847 -5.06825 0
M  V30 109 H 8.3566 2.73128 -4.95396 0
M  V30 110 H 6.9136 2.80493 -5.88359 0
M  V30 111 N 10.3467 1.47872 -0.545128 0
M  V30 112 C 11.5717 2.07391 -0.0190611 0
M  V30 113 C 11.9967 1.39688 1.25971 0
M  V30 114 O 11.3547 0.467816 1.7516 0
M  V30 115 C 11.4027 3.60188 0.172335 0
M  V30 116 O 10.5067 3.9339 1.23766 0
M  V30 117 H 9.8477 0.662411 -0.0459059 0
M  V30 118 H 12.3777 1.90066 -0.757365 0
M  V30 119 H 12.3877 4.06129 0.390305 0
M  V30 120 H 11.0627 4.08865 -0.761725 0
M  V30 121 H 9.6397 3.5921 1.00114 0
M  V30 122 N 11.8248 0.280983 1.55075 0
M  V30 123 C 13.2408 -0.0729964 1.59433 0
M  V30 124 C 13.4408 -1.5411 1.29817 0
M  V30 125 O 12.4968 -2.29086 1.06187 0
M  V30 126 C 13.8098 0.306921 2.9913 0
M  V30 127 C 15.3578 0.254023 3.11968 0
M  V30 128 C 15.8328 0.608467 4.5394 0
M  V30 129 N 17.3238 0.560241 4.59799 0
M  V30 130 C 18.0588 0.80722 5.6769 0
M  V30 131 N 17.5548 1.11912 6.83701 0
M  V30 132 N 19.3478 0.735623 5.57266 0
M  V30 133 H 11.4988 1.238 1.7259 0
M  V30 134 H 13.7618 0.500547 0.805082 0
M  V30 135 H 13.4678 1.32816 3.25657 0
M  V30 136 H 13.3418 -0.349363 3.75579 0
M  V30 137 H 15.7288 -0.75794 2.852 0
M  V30 138 H 15.8098 0.944649 2.37718 0
M  V30 139 H 15.4538 1.61814 4.81434 0
M  V30 140 H 15.3838 -0.104013 5.26497 0
M  V30 141 H 17.8748 0.329288 3.76463 0
M  V30 142 H 18.1878 1.29409 7.61888 0
M  V30 143 H 16.5328 1.15695 6.85303 0
M  V30 144 H 19.7238 0.491752 4.6551 0
M  V30 145 H 19.8968 0.931482 6.4127 0
M  V30 146 N 13.3029 -1.57598 0.00835791 0
M  V30 147 C 14.2329 -2.1198 -0.979113 0
M  V30 148 C 15.2139 -1.03091 -1.35301 0
M  V30 149 O 16.3989 -1.30818 -1.43528 0
M  V30 150 C 13.5289 -2.62995 -2.26828 0
M  V30 151 C 12.4829 -3.76485 -2.03576 0
M  V30 152 C 11.8089 -4.13846 -3.38579 0
M  V30 153 C 13.1089 -5.0342 -1.39161 0
M  V30 154 H 14.8029 -2.94738 -0.526281 0
M  V30 155 H 12.3489 -1.41783 -0.251704 0
M  V30 156 H 14.3019 -2.99669 -2.96271 0
M  V30 157 H 13.0259 -1.7737 -2.7424 0
M  V30 158 H 11.6849 -3.40217 -1.36557 0
M  V30 159 H 11.3329 -3.25232 -3.83709 0
M  V30 160 H 11.0329 -4.90312 -3.23834 0
M  V30 161 H 12.5569 -4.53086 -4.09323 0
M  V30 162 H 13.9709 -5.37812 -1.98573 0
M  V30 163 H 12.3679 -5.84746 -1.34878 0
M  V30 164 H 13.4379 -4.83548 -0.361868 0
M  V30 165 N 14.781 0.264519 -1.55364 0
M  V30 166 C 16.197 0.61215 -1.47394 0
M  V30 167 C 16.397 1.89134 -0.695018 0
M  V30 168 O 15.453 2.51563 -0.217275 0
M  V30 169 C 16.766 0.731235 -2.91674 0
M  V30 170 C 18.314 0.82473 -3.01939 0
M  V30 171 C 18.789 0.975522 -4.4749 0
M  V30 172 N 20.28 1.04083 -4.51354 0
M  V30 173 C 21.015 1.17646 -5.61201 0
M  V30 174 N 20.511 1.27874 -6.80896 0
M  V30 175 N 22.304 1.20823 -5.48961 0
M  V30 176 H 14.455 -0.575456 -2.04456 0
M  V30 177 H 16.718 -0.196099 -0.927496 0
M  V30 178 H 16.424 -0.138392 -3.51428 0
M  V30 179 H 16.298 1.60883 -3.41169 0
M  V30 180 H 18.685 1.68482 -2.42276 0
M  V30 181 H 18.766 -0.0776479 -2.55682 0
M  V30 182 H 18.41 0.120058 -5.07758 0
M  V30 183 H 18.34 1.89268 -4.91412 0
M  V30 184 H 20.831 0.973846 -3.65136 0
M  V30 185 H 21.144 1.38081 -7.60364 0
M  V30 186 H 19.489 1.24863 -6.83692 0
M  V30 187 H 22.68 1.12469 -4.54388 0
M  V30 188 H 22.853 1.31049 -6.3461 0
M  V30 189 N 16.2591 1.48442 0.529413 0
M  V30 190 C 17.5081 1.55742 1.28169 0
M  V30 191 C 17.8211 0.236511 1.94165 0
M  V30 192 O 19.0271 0.187761 2.7085 0
M  V30 193 C 17.4831 2.74667 2.32564 0
M  V30 194 C 17.0911 4.13402 1.72636 0
M  V30 195 C 18.8351 2.9128 3.08798 0
M  V30 196 C 16.7421 5.23587 2.74975 0
M  V30 197 H 15.6721 0.579796 0.48203 0
M  V30 198 H 18.3231 1.74776 0.559056 0
M  V30 199 H 16.7051 2.49067 3.07866 0
M  V30 200 H 17.8791 4.49022 1.03519 0
M  V30 201 H 16.1941 4.0191 1.08892 0
M  V30 202 H 18.7911 3.70767 3.85274 0
M  V30 203 H 19.1341 2.00757 3.64695 0
M  V30 204 H 19.6671 3.16782 2.40611 0
M  V30 205 H 16.4061 6.16076 2.23897 0
M  V30 206 H 15.9261 4.92454 3.42417 0
M  V30 207 H 17.6051 5.51724 3.37949 0
M  V30 208 N 17.7372 -0.778329 1.37039 0
M  V30 209 C 19.0142 -1.52551 1.22424 0
M  V30 210 C 19.3942 -2.10288 -0.184964 0
M  V30 211 O 18.7422 -1.94953 -1.19187 0
M  V30 212 C 18.9522 -2.61164 2.31504 0
M  V30 213 C 20.3002 -3.28746 2.68721 0
M  V30 214 O 21.3242 -2.71455 2.30631 0
M  V30 215 O 20.1832 -4.3231 3.3432 0
M  V30 216 H 17.2772 -0.675343 0.477326 0
M  V30 217 H 19.8232 -0.815859 1.48801 0
M  V30 218 H 18.5952 -2.16574 3.25901 0
M  V30 219 H 18.2182 -3.39737 2.06554 0
M  V30 220 N 19.2153 -1.21501 -1.00376 0
M  V30 221 C 20.1783 -0.976927 -2.07337 0
M  V30 222 C 21.1783 0.0525322 -1.60714 0
M  V30 223 O 22.3683 -0.184869 -1.73216 0
M  V30 224 C 19.5003 -0.473423 -3.37597 0
M  V30 225 H 20.6933 -1.92587 -2.29892 0
M  V30 226 H 18.2463 -1.03217 -1.17371 0
M  V30 227 H 18.9813 0.480379 -3.20722 0
M  V30 228 H 18.7663 -1.216 -3.72768 0
M  V30 229 H 20.2563 -0.32675 -4.1632 0
M  V30 230 N 20.6934 1.19889 -1.02296 0
M  V30 231 C 21.6414 2.24938 -0.592081 0
M  V30 232 C 22.6354 1.65257 0.372357 0
M  V30 233 O 23.8414 1.78371 0.241583 0
M  V30 234 H 20.2164 0.731787 -0.173182 0
M  V30 235 H 22.1874 2.58603 -1.48885 0
M  V30 236 C 20.9364 3.47668 0.047351 0
M  V30 237 H 20.2594 3.93875 -0.685772 0
M  V30 238 H 21.6994 4.22852 0.311862 0
M  V30 239 C 20.1584 3.11136 1.29212 0
M  V30 240 O 20.6884 3.2325 2.38479 0
M  V30 241 N 18.8944 2.65625 1.17863 0
M  V30 242 H 18.4414 2.55968 0.289493 0
M  V30 243 H 18.3994 2.41553 2.01245 0
M  V30 244 N 22.1715 0.800033 1.35784 0
M  V30 245 C 23.4185 0.377342 1.98953 0
M  V30 246 C 23.7465 -1.05378 1.6348 0
M  V30 247 O 23.0015 -1.74459 0.886707 0
M  V30 248 C 23.3005 0.500276 3.53881 0
M  V30 249 C 22.9665 1.89375 4.09204 0
M  V30 250 C 21.6285 2.27499 4.24025 0
M  V30 251 C 23.9805 2.8057 4.39238 0
M  V30 252 C 21.3085 3.562 4.66195 0
M  V30 253 C 23.6605 4.0871 4.82844 0
M  V30 254 C 22.3245 4.46843 4.95871 0
M  V30 255 H 21.5945 0.138079 0.728021 0
M  V30 256 H 24.2415 1.01955 1.62103 0
M  V30 257 H 22.5465 -0.225405 3.91151 0
M  V30 258 H 24.2435 0.154097 4.00704 0
M  V30 259 H 20.8335 1.58753 3.98115 0
M  V30 260 H 25.0175 2.52367 4.27346 0
M  V30 261 H 20.2735 3.85602 4.74469 0
M  V30 262 H 24.4475 4.79481 5.05046 0
M  V30 263 H 22.0745 5.46623 5.28306 0
M  V30 264 N 23.6496 -1.47581 0.552962 0
M  V30 265 C 24.5966 -2.29957 -0.197108 0
M  V30 266 C 25.5666 -1.38799 -0.912359 0
M  V30 267 O 26.7516 -1.67761 -0.908888 0
M  V30 268 C 23.8916 -3.22672 -1.22379 0
M  V30 269 C 23.0046 -4.28919 -0.515038 0
M  V30 270 C 22.1396 -5.0879 -1.52664 0
M  V30 271 C 21.1786 -6.06815 -0.802631 0
M  V30 272 N 20.3156 -6.7966 -1.76086 0
M  V30 273 H 25.1556 -2.93578 0.511486 0
M  V30 274 H 22.6926 -1.4471 0.264067 0
M  V30 275 H 24.6506 -3.74845 -1.83159 0
M  V30 276 H 23.2806 -2.60925 -1.90047 0
M  V30 277 H 22.3326 -3.79835 0.207192 0
M  V30 278 H 23.6446 -4.98773 0.0523425 0
M  V30 279 H 22.7986 -5.65091 -2.20809 0
M  V30 280 H 21.5376 -4.38828 -2.12794 0
M  V30 281 H 20.5426 -5.49695 -0.107238 0
M  V30 282 H 21.7676 -6.78784 -0.207135 0
M  V30 283 H 19.7136 -6.12432 -2.35081 0
M  V30 284 H 19.6306 -7.45669 -1.24552 0
M  V30 285 H 20.8986 -7.40538 -2.43359 0
M  V30 286 N 25.1277 -0.289203 -1.54924 0
M  V30 287 C 26.5437 0.0645403 -1.59469 0
M  V30 288 C 26.7437 1.53419 -1.30632 0
M  V30 289 O 25.7997 2.2852 -1.074 0
M  V30 290 C 27.1127 -0.32278 -2.98963 0
M  V30 291 C 28.6607 -0.270564 -3.11828 0
M  V30 292 C 29.1357 -0.632532 -4.53611 0
M  V30 293 N 30.6267 -0.584617 -4.59496 0
M  V30 294 C 31.3617 -0.837314 -5.67254 0
M  V30 295 N 30.8577 -1.15536 -6.83098 0
M  V30 296 N 32.6507 -0.765166 -5.56868 0
M  V30 297 H 24.8017 -1.24714 -1.71931 0
M  V30 298 H 27.0647 -0.504809 -0.802416 0
M  V30 299 H 26.7707 -1.34541 -3.24948 0
M  V30 300 H 26.6447 0.32944 -3.75759 0
M  V30 301 H 29.0317 0.742805 -2.85598 0
M  V30 302 H 29.1127 -0.957242 -2.37214 0
M  V30 303 H 28.7567 -1.64365 -4.80569 0
M  V30 304 H 28.6867 0.07609 -5.26545 0
M  V30 305 H 31.1777 -0.349248 -3.76283 0
M  V30 306 H 31.4907 -1.33447 -7.61191 0
M  V30 307 H 29.8357 -1.19328 -6.84679 0
M  V30 308 H 33.0267 -0.516432 -4.65243 0
M  V30 309 H 33.1997 -0.965477 -6.40767 0
M  V30 310 N 26.6058 1.57591 -0.0167156 0
M  V30 311 C 27.8528 1.91283 0.664597 0
M  V30 312 C 28.1808 0.891949 1.72842 0
M  V30 313 O 27.4358 -0.100931 1.9544 0
M  V30 314 C 27.7348 3.3172 1.33029 0
M  V30 315 C 27.4008 4.4914 0.398047 0
M  V30 316 C 26.0628 4.80992 0.141421 0
M  V30 317 C 28.4148 5.20634 -0.242825 0
M  V30 318 C 25.7428 5.81703 -0.764092 0
M  V30 319 C 28.0948 6.22311 -1.13632 0
M  V30 320 C 26.7588 6.52611 -1.40196 0
M  V30 321 H 26.0288 0.699956 0.243193 0
M  V30 322 H 28.6758 1.9135 -0.0758267 0
M  V30 323 H 26.9808 3.27856 2.14517 0
M  V30 324 H 28.6778 3.55055 1.86379 0
M  V30 325 H 25.2678 4.24262 0.608238 0
M  V30 326 H 29.4518 4.96267 -0.0576019 0
M  V30 327 H 24.7078 6.03532 -0.977732 0
M  V30 328 H 28.8818 6.76834 -1.63917 0
M  V30 329 H 26.5088 7.30467 -2.10529 0
M  V30 330 N 28.0839 -0.256276 1.55502 0
M  V30 331 C 29.3299 -0.987079 1.77157 0
M  V30 332 C 29.6629 -1.85327 0.580315 0
M  V30 333 O 28.9379 -1.89874 -0.421686 0
M  V30 334 C 29.2209 -1.85553 3.08613 0
M  V30 335 C 29.0739 -1.01816 4.38125 0
M  V30 336 C 30.3929 -2.8397 3.36228 0
M  V30 337 H 27.5119 -0.357428 0.644526 0
M  V30 338 H 30.1539 -0.258239 1.88237 0
M  V30 339 H 28.3039 -2.47695 2.99298 0
M  V30 340 H 29.9759 -0.416159 4.59419 0
M  V30 341 H 28.2189 -0.322178 4.32602 0
M  V30 342 H 28.8899 -1.65939 5.26468 0
M  V30 343 H 31.3659 -2.31964 3.45445 0
M  V30 344 H 30.2419 -3.41864 4.29442 0
M  V30 345 H 30.5029 -3.59955 2.56681 0
M  V30 346 N 29.562 -1.4872 -0.521534 0
M  V30 347 C 30.839 -1.4766 -1.2828 0
M  V30 348 C 31.219 -0.19292 -2.10217 0
M  V30 349 O 30.567 0.825193 -2.13079 0
M  V30 350 C 30.777 -2.74358 -2.15705 0
M  V30 351 C 32.125 -3.23028 -2.75569 0
M  V30 352 O 33.149 -2.75333 -2.25987 0
M  V30 353 O 32.008 -4.0604 -3.65778 0
M  V30 354 H 29.102 -0.590085 -0.579421 0
M  V30 355 H 31.648 -1.60963 -0.537492 0
M  V30 356 H 30.42 -3.59292 -1.54999 0
M  V30 357 H 30.043 -2.63816 -2.97467 0
M  V30 358 N 31.0401 0.771051 -1.3745 0
M  V30 359 C 31.9501 1.91538 -1.35464 0
M  V30 360 C 32.9661 1.72134 -0.254123 0
M  V30 361 O 34.1421 1.95358 -0.489626 0
M  V30 362 C 31.2071 3.26671 -1.16134 0
M  V30 363 C 30.2681 3.58723 -2.35831 0
M  V30 364 C 29.5011 4.87409 -2.17413 0
M  V30 365 O 29.7241 5.58506 -1.15876 0
M  V30 366 O 28.6581 5.18539 -3.05615 0
M  V30 367 H 32.4841 1.96165 -2.31847 0
M  V30 368 H 30.0691 0.9139 -1.18187 0
M  V30 369 H 31.9511 4.07499 -1.07345 0
M  V30 370 H 30.6261 3.22894 -0.228251 0
M  V30 371 H 29.5331 2.78127 -2.50192 0
M  V30 372 H 30.8661 3.67243 -3.27709 0
M  V30 373 N 32.5182 1.22032 0.997298 0
M  V30 374 C 33.4282 1.00271 2.12092 0
M  V30 375 C 34.4442 -0.047621 1.73935 0
M  V30 376 O 35.6202 0.144136 2.00884 0
M  V30 377 C 32.6852 0.578449 3.4184 0
M  V30 378 C 31.7462 1.70189 3.94125 0
M  V30 379 C 30.9792 1.29778 5.17681 0
M  V30 380 O 31.2022 0.174676 5.70132 0
M  V30 381 O 30.1362 2.11261 5.63607 0
M  V30 382 H 33.9622 1.94398 2.3333 0
M  V30 383 H 31.5472 1.00587 1.10465 0
M  V30 384 H 33.4292 0.351998 4.19927 0
M  V30 385 H 32.1042 -0.334019 3.21972 0
M  V30 386 H 31.0112 1.98282 3.1723 0
M  V30 387 H 32.3442 2.59206 4.18417 0
M  V30 388 N 33.9963 -1.19345 1.0293 0
M  V30 389 C 35.2423 -1.89318 0.727083 0
M  V30 390 C 35.5753 -1.79446 -0.742483 0
M  V30 391 O 34.8503 -1.1871 -1.54072 0
M  V30 392 C 35.1333 -3.40238 1.17942 0
M  V30 393 C 34.9863 -3.58979 2.71024 0
M  V30 394 C 36.3053 -4.33479 0.760548 0
M  V30 395 H 33.4243 -0.687475 0.265606 0
M  V30 396 H 36.0663 -1.40477 1.2793 0
M  V30 397 H 34.2163 -3.81964 0.709608 0
M  V30 398 H 35.8883 -3.26421 3.25955 0
M  V30 399 H 34.1313 -3.02018 3.11396 0
M  V30 400 H 34.8023 -4.64823 2.9773 0
M  V30 401 H 37.2783 -3.99469 1.16464 0
M  V30 402 H 36.1543 -5.37664 1.10493 0
M  V30 403 H 36.4153 -4.40813 -0.337063 0
M  V30 404 N 35.4744 -0.807222 -1.35358 0
M  V30 405 C 36.4044 -0.232509 -2.3234 0
M  V30 406 C 37.3854 0.642386 -1.57504 0
M  V30 407 O 38.5704 0.572526 -1.85569 0
M  V30 408 C 35.7004 0.619238 -3.41735 0
M  V30 409 C 34.6544 -0.157215 -4.27711 0
M  V30 410 C 33.9804 0.816273 -5.28433 0
M  V30 411 C 35.2804 -1.35656 -5.04376 0
M  V30 412 H 36.9744 -1.04276 -2.80654 0
M  V30 413 H 34.5204 -0.50288 -1.34934 0
M  V30 414 H 36.4734 1.03137 -4.08584 0
M  V30 415 H 35.1974 1.46239 -2.92031 0
M  V30 416 H 33.8564 -0.550525 -3.62443 0
M  V30 417 H 33.5044 1.65494 -4.74996 0
M  V30 418 H 33.2044 0.301067 -5.86828 0
M  V30 419 H 34.7284 1.22659 -5.98153 0
M  V30 420 H 36.1424 -1.01927 -5.64166 0
M  V30 421 H 34.5394 -1.8063 -5.7227 0
M  V30 422 H 35.6094 -2.14288 -4.34981 0
M  V30 423 N 36.9525 1.47285 -0.560781 0
M  V30 424 C 38.3635 1.86258 -0.128343 0
M  V30 425 C 38.7145 1.46699 1.30284 0
M  V30 426 O 37.8395 0.871698 1.98067 0
M  V30 427 C 38.4345 3.38044 -0.22614 0
M  V30 428 C 36.9935 3.76096 0.151283 0
M  V30 429 C 36.1405 2.71335 -0.572084 0
M  V30 430 H 39.0915 1.38752 -0.770297 0
M  V30 431 H 39.1125 3.76441 0.554322 0
M  V30 432 H 38.6245 3.66806 -1.26788 0
M  V30 433 H 36.7255 3.52951 1.19399 0
M  V30 434 H 36.8385 4.78641 -0.209765 0
M  V30 435 H 35.2025 2.54696 -0.0147653 0
M  V30 436 H 35.9855 3.02938 -1.61504 0
M  V30 437 N 38.4306 0.297415 1.54768 0
M  V30 438 C 39.6786 -0.312295 1.99673 0
M  V30 439 C 39.9996 -1.54686 1.18732 0
M  V30 440 O 39.2696 -1.93854 0.282382 0
M  V30 441 H 37.8496 -0.118381 0.73756 0
M  V30 442 H 40.5116 0.407915 1.90583 0
M  V30 443 H 39.6076 -0.586813 3.06534 0
M  V30 444 N 39.9087 -1.5758 0.0250728 0
M  V30 445 C 41.1367 -1.9593 -0.664747 0
M  V30 446 C 41.5517 -0.901352 -1.65895 0
M  V30 447 O 40.9087 0.117255 -1.82123 0
M  V30 448 C 40.9597 -3.34342 -1.37468 0
M  V30 449 O 40.6807 -4.36079 -0.420324 0
M  V30 450 C 42.1817 -3.873 -2.1567 0
M  V30 451 H 39.4017 -0.645405 -0.183557 0
M  V30 452 H 41.9457 -2.04329 0.0836372 0
M  V30 453 H 40.1007 -3.27175 -2.0745 0
M  V30 454 H 40.5147 -5.16297 -0.923991 0
M  V30 455 H 41.9887 -4.86504 -2.60803 0
M  V30 456 H 42.4657 -3.21331 -2.99405 0
M  V30 457 H 43.0717 -3.97723 -1.50654 0
M  V30 458 N 41.3868 0.248026 -1.55636 0
M  V30 459 C 42.6348 0.974295 -1.77065 0
M  V30 460 C 42.9558 1.85897 -0.588849 0
M  V30 461 O 42.2258 1.91868 0.395407 0
M  V30 462 H 40.8058 0.362733 -0.653019 0
M  V30 463 H 43.4678 0.266244 -1.93073 0
M  V30 464 H 42.5638 1.59667 -2.68166 0
M  V30 465 N 42.8649 1.48995 0.513639 0
M  V30 466 C 43.7949 1.67636 1.62544 0
M  V30 467 C 44.7759 0.525087 1.61793 0
M  V30 468 O 45.9609 0.759502 1.78732 0
M  V30 469 C 43.0909 1.73114 3.01079 0
M  V30 470 C 42.0449 2.87905 3.16693 0
M  V30 471 C 41.3709 2.78486 4.56453 0
M  V30 472 C 42.6709 4.29005 2.97913 0
M  V30 473 H 44.3649 2.60716 1.47198 0
M  V30 474 H 41.9109 1.25465 0.706714 0
M  V30 475 H 43.8639 1.84742 3.78746 0
M  V30 476 H 42.5879 0.766241 3.17484 0
M  V30 477 H 41.2469 2.75859 2.41448 0
M  V30 478 H 40.8949 1.7993 4.69717 0
M  V30 479 H 40.5949 3.55523 4.67843 0
M  V30 480 H 42.1189 2.92104 5.36197 0
M  V30 481 H 43.5329 4.41798 3.65359 0
M  V30 482 H 41.9299 5.07166 3.20785 0
M  V30 483 H 42.9999 4.44329 1.94165 0
M  V30 484 N 44.343 -0.763751 1.37857 0
M  V30 485 C 45.62 -1.51244 1.24035 0
M  V30 486 C 46 -2.10472 -0.162649 0
M  V30 487 O 45.348 -1.96206 -1.17112 0
M  V30 488 C 45.558 -2.58694 2.34261 0
M  V30 489 C 46.906 -3.25878 2.72193 0
M  V30 490 O 47.93 -2.68993 2.33497 0
M  V30 491 O 46.789 -4.2874 3.38887 0
M  V30 492 H 43.883 -0.670243 0.484462 0
M  V30 493 H 46.429 -0.800031 1.49658 0
M  V30 494 H 45.201 -2.13105 3.2818 0
M  V30 495 H 44.824 -3.37527 2.10146 0
M  V30 496 N 45.8211 -1.22559 -0.990812 0
M  V30 497 C 46.7841 -0.998863 -2.0629 0
M  V30 498 C 47.7841 0.0354834 -1.60761 0
M  V30 499 O 48.9741 -0.203231 -1.7301 0
M  V30 500 C 46.1061 -0.509203 -3.37076 0
M  V30 501 H 47.2991 -1.95014 -2.27837 0
M  V30 502 H 44.8521 -1.04456 -1.16269 0
M  V30 503 H 45.5871 0.446335 -3.21214 0
M  V30 504 H 45.3721 -1.25547 -3.71457 0
M  V30 505 H 46.8621 -0.370888 -4.1595 0
M  V30 506 N 47.2992 1.18797 -1.03562 0
M  V30 507 C 48.2622 2.20464 -0.626769 0
M  V30 508 C 49.2622 1.57721 0.313173 0
M  V30 509 O 50.4522 1.73917 0.0992615 0
M  V30 510 C 47.5842 3.40802 0.0818498 0
M  V30 511 H 48.7772 2.58149 -1.5264 0
M  V30 512 H 46.3302 1.32593 -0.827578 0
M  V30 513 H 47.0652 3.08642 0.995518 0
M  V30 514 H 46.8502 3.8758 -0.593652 0
M  V30 515 H 48.3402 4.16092 0.354584 0
M  V30 516 N 48.7773 0.814389 1.34928 0
M  V30 517 C 49.7403 0.235759 2.27984 0
M  V30 518 C 50.7403 -0.581412 1.49921 0
M  V30 519 O 51.9303 -0.398758 1.69575 0
M  V30 520 C 49.0623 -0.670433 3.34242 0
M  V30 521 H 50.2553 1.05659 2.80671 0
M  V30 522 H 47.8083 0.585614 1.44915 0
M  V30 523 H 48.5433 -1.51466 2.86755 0
M  V30 524 H 48.3283 -0.0860822 3.92005 0
M  V30 525 H 49.8183 -1.06935 4.03676 0
M  V30 526 N 50.2554 -1.46986 0.568584 0
M  V30 527 C 51.5024 -2.02441 0.0487986 0
M  V30 528 C 51.8304 -1.44169 -1.30559 0
M  V30 529 O 51.0854 -0.591213 -1.86556 0
M  V30 530 C 51.3844 -3.57306 -0.081836 0
M  V30 531 C 51.0504 -4.34552 1.20313 0
M  V30 532 C 49.7124 -4.55376 1.5552 0
M  V30 533 C 52.0644 -4.79016 2.05411 0
M  V30 534 C 49.3924 -5.17913 2.7565 0
M  V30 535 C 51.7444 -5.42879 3.24754 0
M  V30 536 C 50.4084 -5.61933 3.60261 0
M  V30 537 H 49.6784 -0.740785 0.0178567 0
M  V30 538 H 52.3254 -1.76525 0.742384 0
M  V30 539 H 50.6304 -3.8228 -0.858463 0
M  V30 540 H 52.3274 -3.97876 -0.499546 0
M  V30 541 H 48.9174 -4.18631 0.919014 0
M  V30 542 H 53.1014 -4.62696 1.79516 0
M  V30 543 H 48.3574 -5.30858 3.03315 0
M  V30 544 H 52.5314 -5.76293 3.90973 0
M  V30 545 H 50.1584 -6.10161 4.53439 0
M  V30 546 N 51.7335 -0.305618 -1.54608 0
M  V30 547 C 52.9795 0.295595 -2.01241 0
M  V30 548 C 53.3345 1.51171 -1.19018 0
M  V30 549 O 52.6275 1.89832 -0.259684 0
M  V30 550 C 52.8215 0.698983 -3.50498 0
M  V30 551 C 52.6505 -0.476491 -4.47168 0
M  V30 552 C 51.4205 -0.969963 -4.95903 0
M  V30 553 C 53.6185 -1.32294 -4.96994 0
M  V30 554 N 51.6005 -2.11172 -5.76437 0
M  V30 555 C 52.9715 -2.31212 -5.75275 0
M  V30 556 C 55.0265 -1.35278 -4.7917 0
M  V30 557 C 53.7295 -3.32896 -6.37631 0
M  V30 558 C 55.7555 -2.35823 -5.42348 0
M  V30 559 C 55.1175 -3.33469 -6.20466 0
M  V30 560 H 51.2165 0.0724992 -0.778632 0
M  V30 561 H 53.8005 -0.436583 -1.89742 0
M  V30 562 H 51.9715 1.40032 -3.62278 0
M  V30 563 H 53.7035 1.28013 -3.8392 0
M  V30 564 H 50.4585 -0.544178 -4.70463 0
M  V30 565 H 50.8825 -2.68714 -6.21387 0
M  V30 566 H 55.5245 -0.61157 -4.18354 0
M  V30 567 H 53.2425 -4.07933 -6.97579 0
M  V30 568 H 56.8285 -2.38911 -5.30484 0
M  V30 569 H 55.7085 -4.09996 -6.68485 0
M  V30 570 N 53.2116 1.57565 -0.0334293 0
M  V30 571 C 54.6276 1.56297 0.322997 0
M  V30 572 C 54.8276 1.03945 1.7262 0
M  V30 573 O 53.8836 0.688109 2.42943 0
M  V30 574 C 55.1966 3.00232 0.167664 0
M  V30 575 C 56.7446 3.12078 0.240107 0
M  V30 576 C 57.2196 4.57859 0.113513 0
M  V30 577 N 58.7106 4.62887 0.170359 0
M  V30 578 C 59.4456 5.73319 0.0962517 0
M  V30 579 N 58.9416 6.92794 -0.0291881 0
M  V30 580 N 60.7346 5.61898 0.150551 0
M  V30 581 H 52.8856 1.89923 -0.950956 0
M  V30 582 H 55.1486 0.873824 -0.367608 0
M  V30 583 H 54.8546 3.42501 -0.799102 0
M  V30 584 H 54.7286 3.654 0.936083 0
M  V30 585 H 57.1156 2.69718 1.19733 0
M  V30 586 H 57.1966 2.49623 -0.558763 0
M  V30 587 H 56.8406 5.009 -0.840314 0
M  V30 588 H 56.7706 5.18299 0.931302 0
M  V30 589 H 59.2616 3.76954 0.26728 0
M  V30 590 H 59.5746 7.7276 -0.0789252 0
M  V30 591 H 57.9196 6.94971 -0.0640299 0
M  V30 592 H 61.1106 4.67448 0.246981 0
M  V30 593 H 61.2836 6.47938 0.0893365 0
M  V30 594 N 54.6897 -0.239769 1.55765 0
M  V30 595 C 55.6377 -1.31668 1.91745 0
M  V30 596 C 56.6317 -1.49462 0.797338 0
M  V30 597 O 57.8377 -1.50852 0.982021 0
M  V30 598 H 54.2127 -0.441048 0.609082 0
M  V30 599 H 56.1837 -0.985923 2.81642 0
M  V30 600 C 54.9327 -2.66368 2.2348 0
M  V30 601 H 54.2557 -2.53478 3.09175 0
M  V30 602 H 55.6957 -3.40578 2.52553 0
M  V30 603 C 54.1547 -3.20002 1.05359 0
M  V30 604 O 54.6847 -4.00538 0.305261 0
M  V30 605 N 52.8907 -2.78126 0.842292 0
M  V30 606 H 52.4377 -2.12742 1.45253 0
M  V30 607 H 52.3957 -3.14354 0.053652 0
M  V30 608 N 56.1678 -1.49265 -0.50573 0
M  V30 609 C 57.4148 -1.58513 -1.26015 0
M  V30 610 C 57.7428 -0.26972 -1.92621 0
M  V30 611 O 56.9978 0.741997 -1.81088 0
M  V30 612 C 57.2968 -2.69008 -2.35308 0
M  V30 613 C 56.9628 -4.10662 -1.86192 0
M  V30 614 C 55.6248 -4.49212 -1.72516 0
M  V30 615 C 57.9768 -4.99336 -1.49375 0
M  V30 616 C 55.3048 -5.74214 -1.20394 0
M  V30 617 C 57.6568 -6.24852 -0.987072 0
M  V30 618 C 56.3208 -6.62236 -0.836669 0
M  V30 619 H 55.5908 -0.580041 -0.461122 0
M  V30 620 H 58.2378 -1.83078 -0.561665 0
M  V30 621 H 56.5428 -2.38396 -3.10926 0
M  V30 622 H 58.2398 -2.73373 -2.93374 0
M  V30 623 H 54.8298 -3.8023 -1.97795 0
M  V30 624 H 59.0138 -4.70212 -1.5879 0
M  V30 625 H 54.2698 -6.01883 -1.07458 0
M  V30 626 H 58.4438 -6.92944 -0.692983 0
M  V30 627 H 56.0708 -7.58979 -0.430607 0
M  V30 628 N 57.6459 0.756429 -1.3826 0
M  V30 629 C 58.9229 1.50584 -1.24835 0
M  V30 630 C 59.3029 2.10556 0.151485 0
M  V30 631 O 58.6509 1.96825 1.1607 0
M  V30 632 C 58.8609 2.57448 -2.3563 0
M  V30 633 C 60.2089 3.24429 -2.73917 0
M  V30 634 O 61.2329 2.67751 -2.34921 0
M  V30 635 O 60.0919 4.26937 -3.41156 0
M  V30 636 H 57.1859 0.667664 -0.48801 0
M  V30 637 H 59.7319 0.792083 -1.5008 0
M  V30 638 H 58.5039 2.11362 -3.29305 0
M  V30 639 H 58.1269 3.36408 -2.11933 0
M  V30 640 N 59.124 1.23083 0.984299 0
M  V30 641 C 60.034 1.02515 2.11016 0
M  V30 642 C 61.05 -0.0291702 1.73976 0
M  V30 643 O 62.226 0.165434 2.00719 0
M  V30 644 C 59.291 0.614673 3.41208 0
M  V30 645 C 58.352 1.74359 3.92297 0
M  V30 646 C 57.585 1.35261 5.16275 0
M  V30 647 O 57.808 0.235136 5.69915 0
M  V30 648 O 56.742 2.17227 5.61334 0
M  V30 649 H 60.568 1.96862 2.31255 0
M  V30 650 H 58.153 1.01753 1.09392 0
M  V30 651 H 60.035 0.396518 4.1953 0
M  V30 652 H 58.71 -0.299851 3.22308 0
M  V30 653 H 57.617 2.01635 3.1511 0
M  V30 654 H 58.95 2.63629 4.15645 0
M  V30 655 N 60.6021 -1.18246 1.0419 0
M  V30 656 C 61.8511 -1.87588 0.741194 0
M  V30 657 C 62.1641 -1.81303 -0.734066 0
M  V30 658 O 63.3701 -2.46019 -1.14834 0
M  V30 659 C 61.8261 -3.36538 1.27555 0
M  V30 660 C 61.4341 -3.51349 2.77953 0
M  V30 661 C 63.1781 -4.11273 1.05143 0
M  V30 662 C 61.0851 -4.94265 3.2474 0
M  V30 663 H 60.0151 -0.702622 0.273565 0
M  V30 664 H 62.6661 -1.33601 1.25789 0
M  V30 665 H 61.0481 -3.9 0.686703 0
M  V30 666 H 62.2221 -3.08153 3.42605 0
M  V30 667 H 60.5371 -2.90022 2.98791 0
M  V30 668 H 63.1341 -5.16689 1.37611 0
M  V30 669 H 63.4771 -4.16298 -0.0112774 0
M  V30 670 H 64.0101 -3.63987 1.60495 0
M  V30 671 H 60.7491 -4.94408 4.30396 0
M  V30 672 H 60.2691 -5.38172 2.64823 0
M  V30 673 H 61.9481 -5.62987 3.18834 0
M  V30 674 N 62.0802 -0.821533 -1.34494 0
M  V30 675 C 63.3262 -0.409552 -1.98622 0
M  V30 676 C 63.6592 1.0244 -1.64984 0
M  V30 677 O 62.9342 1.71325 -0.920758 0
M  V30 678 C 63.2172 -0.610458 -3.54888 0
M  V30 679 C 63.0702 -2.09043 -3.98273 0
M  V30 680 C 64.3892 -0.0455379 -4.40076 0
M  V30 681 H 61.5082 -0.15028 -0.721516 0
M  V30 682 H 64.1502 -1.03384 -1.59411 0
M  V30 683 H 62.3002 -0.079044 -3.8842 0
M  V30 684 H 63.9722 -2.68537 -3.75081 0
M  V30 685 H 62.2152 -2.58139 -3.48635 0
M  V30 686 H 62.8862 -2.18182 -5.07051 0
M  V30 687 H 65.3622 -0.499557 -4.1309 0
M  V30 688 H 64.2382 -0.215922 -5.48475 0
M  V30 689 H 64.4992 1.04939 -4.29465 0
M  V30 690 N 63.5583 1.46682 -0.576371 0
M  V30 691 C 64.5083 2.27278 0.181288 0
M  V30 692 C 65.4923 1.35497 0.867721 0
M  V30 693 O 66.6843 1.59717 0.762863 0
M  V30 694 C 63.8133 3.21703 1.19841 0
M  V30 695 C 62.8993 4.20969 0.51442 0
M  V30 696 N 63.2903 5.03999 -0.426407 0
M  V30 697 C 61.5883 4.39373 0.765963 0
M  V30 698 C 62.2893 5.75812 -0.825565 0
M  V30 699 N 61.2653 5.43315 -0.176116 0
M  V30 700 H 65.0673 2.88863 -0.541785 0
M  V30 701 H 62.5813 1.57455 -0.397697 0
M  V30 702 H 64.5783 3.78145 1.75533 0
M  V30 703 H 63.2383 2.61677 1.92238 0
M  V30 704 H 64.2493 5.11659 -0.8016 0
M  V30 705 H 60.9263 3.90502 1.47698 0
M  V30 706 H 62.3163 6.52577 -1.59976 0
M  V30 707 N 65.0364 0.313813 1.54444 0
M  V30 708 C 66.3134 -0.345447 1.92525 0
M  V30 709 C 66.6934 -1.70667 1.24242 0
M  V30 710 O 66.0414 -2.25273 0.382654 0
M  V30 711 C 66.2514 -0.44737 3.46121 0
M  V30 712 C 67.5994 -0.712238 4.18584 0
M  V30 713 O 68.6234 -0.530678 3.52225 0
M  V30 714 O 67.4824 -1.06183 5.36085 0
M  V30 715 H 64.5764 -0.195407 0.803583 0
M  V30 716 H 67.1224 0.362813 1.65776 0
M  V30 717 H 65.8944 0.509043 3.87975 0
M  V30 718 H 65.5174 -1.20359 3.78945 0
M  V30 719 N 66.5145 -1.57545 0.0417849 0
M  V30 720 C 67.4445 -2.14009 -0.933929 0
M  V30 721 C 68.4255 -1.05938 -1.33083 0
M  V30 722 O 69.6105 -1.33833 -1.40721 0
M  V30 723 C 66.7405 -2.67747 -2.21199 0
M  V30 724 C 65.6945 -3.80718 -1.95544 0
M  V30 725 C 65.0205 -4.20935 -3.29724 0
M  V30 726 C 66.3205 -5.06258 -1.28452 0
M  V30 727 H 68.0145 -2.95788 -0.463645 0
M  V30 728 H 65.5605 -1.42285 -0.221573 0
M  V30 729 H 67.5135 -3.05886 -2.89848 0
M  V30 730 H 66.2375 -1.83147 -2.70416 0
M  V30 731 H 64.8965 -3.43037 -1.2931 0
M  V30 732 H 64.5445 -3.33298 -3.76724 0
M  V30 733 H 64.2445 -4.9707 -3.13361 0
M  V30 734 H 65.7685 -4.61666 -3.9962 0
M  V30 735 H 67.1825 -5.41903 -1.8712 0
M  V30 736 H 65.5795 -5.87475 -1.22445 0
M  V30 737 H 66.6495 -4.84207 -0.259219 0
M  V30 738 N 67.9926 0.231505 -1.5589 0
M  V30 739 C 68.9556 1.27028 -1.90779 0
M  V30 740 C 69.9556 1.40308 -0.785507 0
M  V30 741 O 71.1456 1.38744 -1.05336 0
M  V30 742 C 68.2776 2.64566 -2.14983 0
M  V30 743 H 69.4706 0.973017 -2.83677 0
M  V30 744 H 67.0236 0.471486 -1.49019 0
M  V30 745 H 67.7586 2.99406 -1.24604 0
M  V30 746 H 67.5436 2.56305 -2.96732 0
M  V30 747 H 69.0336 3.39543 -2.43105 0
M  V30 748 N 69.4707 1.49531 0.497807 0
M  V30 749 C 70.8817 1.52344 1.07927 0
M  V30 750 C 71.2327 0.311469 1.93712 0
M  V30 751 O 70.3577 -0.578405 2.08527 0
M  V30 752 C 70.9527 2.76062 1.96405 0
M  V30 753 C 69.5117 2.81643 2.49709 0
M  V30 754 C 68.6587 2.46299 1.27404 0
M  V30 755 H 71.6097 1.56182 0.281576 0
M  V30 756 H 71.6307 2.56405 2.81135 0
M  V30 757 H 71.1427 3.64254 1.33943 0
M  V30 758 H 69.2437 1.97739 3.15801 0
M  V30 759 H 69.3567 3.83891 2.86643 0
M  V30 760 H 67.7207 1.98148 1.60029 0
M  V30 761 H 68.5037 3.36769 0.66645 0
M  V30 762 N 70.9488 -0.749086 1.3866 0
M  V30 763 C 71.8588 -1.89358 1.38494 0
M  V30 764 C 72.8748 -1.71708 0.281476 0
M  V30 765 O 74.0508 -1.94554 0.520643 0
M  V30 766 C 71.1158 -3.24782 1.21316 0
M  V30 767 C 70.1768 -3.54926 2.41508 0
M  V30 768 C 69.4098 -4.83888 2.2514 0
M  V30 769 O 69.6328 -5.56592 1.24746 0
M  V30 770 O 68.5668 -5.13612 3.13826 0
M  V30 771 H 72.3928 -1.92452 2.34938 0
M  V30 772 H 69.9778 -0.894981 1.19626 0
M  V30 773 H 71.8598 -4.05739 1.13814 0
M  V30 774 H 70.5348 -3.2249 0.279592 0
M  V30 775 H 69.4418 -2.74112 2.54585 0
M  V30 776 H 70.7748 -3.61983 3.3351 0
M  V30 777 N 72.4269 -1.23603 -0.977757 0
M  V30 778 C 73.3749 -1.01704 -2.09187 0
M  V30 779 C 74.3689 0.0448214 -1.69341 0
M  V30 780 O 75.5749 -0.108902 -1.7967 0
M  V30 781 H 71.9499 -0.311803 -0.684312 0
M  V30 782 H 73.9209 -1.96207 -2.24823 0
M  V30 783 C 72.6699 -0.627746 -3.41986 0
M  V30 784 H 71.9929 -1.43656 -3.73099 0
M  V30 785 H 73.4329 -0.514053 -4.20872 0
M  V30 786 C 71.8919 0.664238 -3.30287 0
M  V30 787 O 72.4219 1.71268 -3.6336 0
M  V30 788 N 70.6279 0.641156 -2.83439 0
M  V30 789 H 70.1749 -0.212376 -2.56723 0
M  V30 790 H 70.1329 1.50583 -2.75993 0
M  V30 791 N 73.905 1.17692 -1.04816 0
M  V30 792 C 75.321 1.39863 -0.768794 0
M  V30 793 C 75.521 1.91118 0.638451 0
M  V30 794 O 74.577 2.10036 1.40146 0
M  V30 795 C 75.89 2.39274 -1.82122 0
M  V30 796 C 77.438 2.52987 -1.843 0
M  V30 797 C 77.913 3.55669 -2.88555 0
M  V30 798 N 79.404 3.63183 -2.87493 0
M  V30 799 C 80.139 4.42381 -3.64811 0
M  V30 800 N 79.635 5.25125 -4.51903 0
M  V30 801 N 81.428 4.37217 -3.53267 0
M  V30 802 H 73.579 0.82752 -1.95617 0
M  V30 803 H 75.842 0.426123 -0.846831 0
M  V30 804 H 75.548 2.08678 -2.83102 0
M  V30 805 H 75.422 3.38725 -1.65967 0
M  V30 806 H 77.809 2.82896 -0.839869 0
M  V30 807 H 77.89 1.53623 -2.04532 0
M  V30 808 H 77.534 3.26499 -3.89051 0
M  V30 809 H 77.464 4.54728 -2.65575 0
M  V30 810 H 79.955 3.04103 -2.24343 0
M  V30 811 H 80.268 5.82728 -5.07591 0
M  V30 812 H 78.613 5.24519 -4.55966 0
M  V30 813 H 81.804 3.71626 -2.84625 0
M  V30 814 H 81.977 4.98696 -4.13771 0
M  V30 815 N 75.3831 0.828654 1.34056 0
M  V30 816 C 76.3151 0.212052 2.28217 0
M  V30 817 C 77.3281 -0.601362 1.51286 0
M  V30 818 O 78.5171 -0.430104 1.73241 0
M  V30 819 C 75.6171 -0.72088 3.31144 0
M  V30 820 C 74.7901 0.0509587 4.3737 0
M  V30 821 C 73.8491 -0.803766 5.20025 0
M  V30 822 O 72.8751 -0.246667 5.68665 0
M  V30 823 N 74.0771 -2.1227 5.40298 0
M  V30 824 H 76.8421 1.02105 2.81771 0
M  V30 825 H 74.4031 0.686153 1.46641 0
M  V30 826 H 76.3951 -1.29742 3.8334 0
M  V30 827 H 74.9651 -1.43061 2.77943 0
M  V30 828 H 74.1851 0.808831 3.85813 0
M  V30 829 H 75.4731 0.582065 5.0546 0
M  V30 830 H 74.8711 -2.59898 5.02464 0
M  V30 831 H 73.4281 -2.64796 5.95589 0
M  V30 832 N 76.8612 -1.46375 0.584142 0
M  V30 833 C 77.7912 -2.33103 -0.136037 0
M  V30 834 C 78.7722 -1.45431 -0.882255 0
M  V30 835 O 79.9572 -1.74246 -0.857434 0
M  V30 836 C 77.0872 -3.27731 -1.14933 0
M  V30 837 C 76.0412 -4.24855 -0.517862 0
M  V30 838 C 75.3672 -5.09001 -1.63773 0
M  V30 839 C 76.6672 -5.19439 0.545886 0
M  V30 840 H 78.3612 -2.93568 0.588086 0
M  V30 841 H 75.9072 -1.41166 0.284259 0
M  V30 842 H 77.8602 -3.87261 -1.66153 0
M  V30 843 H 76.5842 -2.65377 -1.90375 0
M  V30 844 H 75.2432 -3.6659 -0.0267361 0
M  V30 845 H 74.8912 -4.43031 -2.38185 0
M  V30 846 H 74.5912 -5.74777 -1.22085 0
M  V30 847 H 76.1152 -5.71396 -2.15266 0
M  V30 848 H 77.5292 -5.73177 0.118704 0
M  V30 849 H 75.9262 -5.93566 0.88317 0
M  V30 850 H 76.9962 -4.63285 1.43162 0
M  V30 851 N 78.3393 -0.321999 -1.54275 0
M  V30 852 C 79.2693 0.537411 -2.27231 0
M  V30 853 C 80.2503 1.12064 -1.27968 0
M  V30 854 O 81.4353 1.14606 -1.56777 0
M  V30 855 C 78.5653 1.69919 -3.02894 0
M  V30 856 C 77.5193 1.24534 -4.09482 0
M  V30 857 C 76.8453 2.49394 -4.72977 0
M  V30 858 C 78.1453 0.361335 -5.21049 0
M  V30 859 H 79.8393 -0.0711406 -2.99315 0
M  V30 860 H 77.3853 -0.0356555 -1.43956 0
M  V30 861 H 79.3383 2.30668 -3.52662 0
M  V30 862 H 78.0623 2.33431 -2.28424 0
M  V30 863 H 76.7213 0.660782 -3.60596 0
M  V30 864 H 76.3693 3.11265 -3.95124 0
M  V30 865 H 76.0693 2.19718 -5.44975 0
M  V30 866 H 77.5933 3.10908 -5.25517 0
M  V30 867 H 79.0073 0.875072 -5.66582 0
M  V30 868 H 77.4043 0.157428 -5.99893 0
M  V30 869 H 78.4743 -0.60822 -4.8107 0
M  V30 870 N 79.8174 1.5752 -0.0501392 0
M  V30 871 C 80.7804 2.1037 0.909786 0
M  V30 872 C 81.7804 1.02308 1.24056 0
M  V30 873 O 82.9704 1.28385 1.17741 0
M  V30 874 C 80.1024 2.58708 2.21998 0
M  V30 875 H 81.2954 2.96479 0.451665 0
M  V30 876 H 78.8484 1.55038 0.198248 0
M  V30 877 H 79.5834 1.75989 2.72394 0
M  V30 878 H 79.3684 3.37675 1.99295 0
M  V30 879 H 80.8584 2.99747 2.9076 0
M  V30 880 N 81.2955 -0.223234 1.56011 0
M  V30 881 C 82.2055 -1.29766 1.95443 0
M  V30 882 C 83.2215 -1.51373 0.858028 0
M  V30 883 O 84.3975 -1.64536 1.16146 0
M  V30 884 C 81.4625 -2.62772 2.26167 0
M  V30 885 C 80.5235 -2.49482 3.49367 0
M  V30 886 C 79.7565 -3.76145 3.78616 0
M  V30 887 O 79.9795 -4.79087 3.09568 0
M  V30 888 O 78.9135 -3.73358 4.72109 0
M  V30 889 H 82.7395 -0.99309 2.87004 0
M  V30 890 H 80.3245 -0.425958 1.43199 0
M  V30 891 H 82.2065 -3.41327 2.47131 0
M  V30 892 H 80.8815 -2.92913 1.37781 0
M  V30 893 H 79.7885 -1.69133 3.33684 0
M  V30 894 H 81.1215 -2.2428 4.38131 0
M  V30 895 N 82.7736 -1.49793 -0.48987 0
M  V30 896 C 84.1896 -1.36803 -0.822022 0
M  V30 897 C 84.3896 -0.409652 -1.97292 0
M  V30 898 O 83.4456 0.154614 -2.52026 0
M  V30 899 C 84.7586 -2.77768 -1.15175 0
M  V30 900 C 86.3066 -2.86549 -1.25931 0
M  V30 901 C 86.7816 -4.28306 -1.62228 0
M  V30 902 N 88.2726 -4.31169 -1.69256 0
M  V30 903 C 89.0076 -5.37832 -1.98807 0
M  V30 904 N 88.5036 -6.54726 -2.26507 0
M  V30 905 N 90.2966 -5.25258 -2.00152 0
M  V30 906 H 82.4476 -2.10691 0.268881 0
M  V30 907 H 84.7106 -0.946241 0.057728 0
M  V30 908 H 84.4166 -3.49648 -0.379335 0
M  V30 909 H 84.2906 -3.13836 -2.09253 0
M  V30 910 H 86.6776 -2.14899 -2.02243 0
M  V30 911 H 86.7586 -2.54049 -0.298776 0
M  V30 912 H 86.4026 -5.00486 -0.864622 0
M  V30 913 H 86.3326 -4.58279 -2.594 0
M  V30 914 H 88.8236 -3.4687 -1.49965 0
M  V30 915 H 89.1366 -7.31833 -2.48276 0
M  V30 916 H 87.4816 -6.57933 -2.23939 0
M  V30 917 H 90.6726 -4.32938 -1.77996 0
M  V30 918 H 90.8456 -6.08476 -2.22848 0
M  V30 919 N 84.2517 0.741722 -1.39055 0
M  V30 920 C 85.5287 1.49252 -1.26425 0
M  V30 921 C 85.9087 2.10705 0.129144 0
M  V30 922 O 85.2567 1.98045 1.13976 0
M  V30 923 C 85.4667 2.54934 -2.38347 0
M  V30 924 C 86.8147 3.21506 -2.77343 0
M  V30 925 O 87.8387 2.65245 -2.37747 0
M  V30 926 O 86.6977 4.23294 -3.45665 0
M  V30 927 H 83.7917 0.662451 -0.495064 0
M  V30 928 H 86.3377 0.776121 -1.50912 0
M  V30 929 H 85.1097 2.07857 -3.31529 0
M  V30 930 H 84.7327 3.34141 -2.15489 0
M  V30 931 N 85.7298 1.2412 0.971189 0
M  V30 932 C 87.1458 1.00584 1.23916 0
M  V30 933 C 87.3458 -0.287481 1.99439 0
M  V30 934 O 86.4018 -1.00454 2.31658 0
M  V30 935 C 87.7148 2.21864 2.0297 0
M  V30 936 C 89.2628 2.26452 2.16076 0
M  V30 937 C 89.7378 3.47343 2.98524 0
M  V30 938 N 91.2288 3.47639 3.06107 0
M  V30 939 C 91.9638 4.37837 3.70251 0
M  V30 940 N 91.4598 5.38286 4.36142 0
M  V30 941 N 93.2528 4.25558 3.67228 0
M  V30 942 H 85.4038 2.07236 0.465499 0
M  V30 943 H 87.6668 0.909236 0.268315 0
M  V30 944 H 87.3728 3.15771 1.54861 0
M  V30 945 H 87.2468 2.23698 3.03709 0
M  V30 946 H 89.6338 1.33078 2.6339 0
M  V30 947 H 89.7148 2.28645 1.14696 0
M  V30 948 H 89.3588 4.41029 2.51905 0
M  V30 949 H 89.2888 3.42393 4.00093 0
M  V30 950 H 91.7798 2.74966 2.59233 0
M  V30 951 H 92.0928 6.03352 4.82894 0
M  V30 952 H 90.4378 5.42176 4.34822 0
M  V30 953 H 93.6288 3.46322 3.14927 0
M  V30 954 H 93.8018 4.96054 4.16935 0
M  V30 955 N 87.2079 -1.17134 1.05439 0
M  V30 956 C 88.4569 -1.86791 0.761049 0
M  V30 957 C 88.7699 -1.82072 -0.714795 0
M  V30 958 O 89.9759 -2.47223 -1.12218 0
M  V30 959 C 88.4319 -3.35166 1.31117 0
M  V30 960 C 88.0399 -3.48381 2.81664 0
M  V30 961 C 89.7839 -4.10134 1.09499 0
M  V30 962 C 87.6909 -4.90793 3.29964 0
M  V30 963 H 86.6209 -0.699681 0.281002 0
M  V30 964 H 89.2719 -1.3226 1.27199 0
M  V30 965 H 87.6539 -3.8925 0.72803 0
M  V30 966 H 88.8279 -3.04502 3.45855 0
M  V30 967 H 87.1429 -2.86836 3.01851 0
M  V30 968 H 89.7399 -5.152 1.43084 0
M  V30 969 H 90.0829 -4.16287 0.0328772 0
M  V30 970 H 90.6159 -3.62264 1.64346 0
M  V30 971 H 87.3549 -4.89816 4.35616 0
M  V30 972 H 86.8749 -5.35333 2.70516 0
M  V30 973 H 88.5539 -5.59573 3.24787 0
M  V30 974 N 88.686 -0.835752 -1.33615 0
M  V30 975 C 89.618 -0.224151 -2.28101 0
M  V30 976 C 90.631 0.593331 -1.51603 0
M  V30 977 O 91.82 0.420911 -1.73466 0
M  V30 978 C 88.92 0.703309 -3.31522 0
M  V30 979 C 88.093 -0.0741528 -4.37337 0
M  V30 980 C 87.152 0.776176 -5.20444 0
M  V30 981 O 86.178 0.216506 -5.68788 0
M  V30 982 N 87.38 2.09401 -5.41416 0
M  V30 983 H 90.145 -1.03598 -2.81225 0
M  V30 984 H 87.706 -0.69392 -1.46275 0
M  V30 985 H 89.698 1.27707 -3.84022 0
M  V30 986 H 88.268 1.41585 -2.78698 0
M  V30 987 H 87.488 -0.82928 -3.85378 0
M  V30 988 H 88.776 -0.608863 -5.05144 0
M  V30 989 H 88.174 2.57229 -5.03835 0
M  V30 990 H 86.731 2.61633 -5.96985 0
M  V30 991 N 90.1641 1.46063 -0.591896 0
M  V30 992 C 91.1271 2.28854 0.125973 0
M  V30 993 C 92.1271 1.38903 0.810107 0
M  V30 994 O 93.3171 1.61186 0.66066 0
M  V30 995 C 90.4491 3.19526 1.1881 0
M  V30 996 H 91.6421 2.93802 -0.601717 0
M  V30 997 H 89.1951 1.52325 -0.350254 0
M  V30 998 H 89.9301 2.59345 1.94707 0
M  V30 999 H 89.7151 3.85766 0.701936 0
M  V30 1000 H 91.2051 3.81817 1.69132 0
M  V30 1001 N 91.6422 0.330177 1.54103 0
M  V30 1002 C 92.6052 -0.520144 2.2322 0
M  V30 1003 C 93.6052 -1.03828 1.22786 0
M  V30 1004 O 94.7952 -0.929652 1.4732 0
M  V30 1005 C 91.9272 -1.72317 2.94142 0
M  V30 1006 H 93.1202 0.0841605 2.99782 0
M  V30 1007 H 90.6732 0.0813433 1.56088 0
M  V30 1008 H 91.4082 -2.36653 2.21734 0
M  V30 1009 H 91.1932 -1.35898 3.67796 0
M  V30 1010 H 92.6832 -2.3266 3.46784 0
M  V30 1011 N 93.1203 -1.57491 0.0584922 0
M  V30 1012 C 94.0503 -2.14988 -0.911178 0
M  V30 1013 C 95.0313 -1.07343 -1.31952 0
M  V30 1014 O 96.2163 -1.35318 -1.39294 0
M  V30 1015 C 93.3463 -2.70078 -2.18347 0
M  V30 1016 C 92.3003 -3.82771 -1.91495 0
M  V30 1017 C 91.6263 -4.24408 -3.25241 0
M  V30 1018 C 92.9263 -5.07592 -1.23075 0
M  V30 1019 H 94.6203 -2.96263 -0.432246 0
M  V30 1020 H 92.1663 -1.42512 -0.206469 0
M  V30 1021 H 94.1193 -3.08943 -2.86587 0
M  V30 1022 H 92.8433 -1.86005 -2.68458 0
M  V30 1023 H 91.5023 -3.44389 -1.25664 0
M  V30 1024 H 91.1503 -3.37275 -3.73168 0
M  V30 1025 H 90.8503 -5.00366 -3.08071 0
M  V30 1026 H 92.3743 -4.65879 -3.94701 0
M  V30 1027 H 93.7883 -5.43857 -1.81362 0
M  V30 1028 H 92.1853 -5.88741 -1.16207 0
M  V30 1029 H 93.2553 -4.84454 -0.207847 0
M  V30 1030 N 94.5984 0.214957 -1.56127 0
M  V30 1031 C 95.8754 0.963093 -1.70247 0
M  V30 1032 C 96.2554 2.02166 -0.60764 0
M  V30 1033 O 95.6034 2.25244 0.384385 0
M  V30 1034 C 95.8134 1.56756 -3.11815 0
M  V30 1035 C 97.1614 2.0573 -3.7143 0
M  V30 1036 O 98.1854 1.66637 -3.14818 0
M  V30 1037 O 97.0444 2.77603 -4.70743 0
M  V30 1038 H 94.1384 0.450321 -0.693643 0
M  V30 1039 H 96.6844 0.206219 -1.68442 0
M  V30 1040 H 95.4564 0.803533 -3.82961 0
M  V30 1041 H 95.0794 2.3898 -3.17765 0
M  V30 1042 N 96.0765 1.50051 0.48192 0
M  V30 1043 C 96.9865 1.7089 1.60728 0
M  V30 1044 C 98.0025 0.591788 1.63627 0
M  V30 1045 O 99.1785 0.868817 1.81696 0
M  V30 1046 C 96.2435 1.78855 2.97005 0
M  V30 1047 C 95.3045 3.02537 3.04581 0
M  V30 1048 C 94.5375 3.10112 4.34357 0
M  V30 1049 O 94.7605 2.24765 5.24249 0
M  V30 1050 O 93.6945 4.02747 4.47301 0
M  V30 1051 H 97.5205 2.66264 1.46072 0
M  V30 1052 H 95.1055 1.34018 0.660264 0
M  V30 1053 H 96.9875 1.86336 3.77964 0
M  V30 1054 H 95.6625 0.866628 3.11883 0
M  V30 1055 H 94.5695 3.00563 2.22739 0
M  V30 1056 H 95.9025 3.94272 2.94636 0
M  V30 1057 N 97.5546 -0.734337 1.39446 0
M  V30 1058 C 98.8006 -1.49505 1.37913 0
M  V30 1059 C 99.1556 -1.92384 -0.0248416 0
M  V30 1060 O 98.4486 -1.6395 -0.991506 0
M  V30 1061 C 98.6426 -2.74711 2.28623 0
M  V30 1062 C 98.4716 -2.44075 3.777 0
M  V30 1063 C 97.2416 -2.36338 4.46623 0
M  V30 1064 C 99.4396 -2.09574 4.69663 0
M  V30 1065 N 97.4216 -1.9818 5.81032 0
M  V30 1066 C 98.7926 -1.81865 5.92727 0
M  V30 1067 C 100.848 -1.96048 4.57678 0
M  V30 1068 C 99.5506 -1.41992 7.05146 0
M  V30 1069 C 101.577 -1.57579 5.7002 0
M  V30 1070 C 100.939 -1.30754 6.92158 0
M  V30 1071 H 97.0376 -0.545896 0.55993 0
M  V30 1072 H 99.6216 -0.853373 1.75002 0
M  V30 1073 H 97.7926 -3.36657 1.93692 0
M  V30 1074 H 99.5246 -3.40916 2.18078 0
M  V30 1075 H 96.2796 -2.53456 4.00071 0
M  V30 1076 H 96.7036 -1.81691 6.52163 0
M  V30 1077 H 101.346 -2.15455 3.63784 0
M  V30 1078 H 99.0636 -1.21327 7.9894 0
M  V30 1079 H 102.65 -1.47718 5.62735 0
M  V30 1080 H 101.53 -1.01432 7.77612 0
M  V30 1081 N 99.0327 -1.24633 -0.964593 0
M  V30 1082 C 99.9827 -1.00841 -2.04487 0
M  V30 1083 C 100.967 0.0512468 -1.60818 0
M  V30 1084 O 102.159 -0.162865 -1.76249 0
M  V30 1085 C 99.2877 -0.618474 -3.37683 0
M  V30 1086 C 98.3737 -1.71437 -3.87905 0
M  V30 1087 N 98.7647 -2.9477 -4.11029 0
M  V30 1088 C 97.0627 -1.5926 -4.16596 0
M  V30 1089 C 97.7637 -3.65834 -4.52261 0
M  V30 1090 N 96.7397 -2.9341 -4.57615 0
M  V30 1091 H 100.542 -1.94487 -2.20345 0
M  V30 1092 H 98.0557 -1.14805 -1.14863 0
M  V30 1093 H 100.053 -0.429247 -4.14684 0
M  V30 1094 H 98.7127 0.310766 -3.23209 0
M  V30 1095 H 99.7237 -3.30917 -3.9839 0
M  V30 1096 H 96.4007 -0.731606 -4.1104 0
M  V30 1097 H 97.7907 -4.71646 -4.78539 0
M  V30 1098 N 100.511 1.16574 -1.06058 0
M  V30 1099 C 101.927 1.3904 -0.783585 0
M  V30 1100 C 102.127 1.91784 0.618145 0
M  V30 1101 O 101.183 2.11511 1.37911 0
M  V30 1102 C 102.496 2.37329 -1.84649 0
M  V30 1103 C 104.044 2.51018 -1.86973 0
M  V30 1104 C 104.519 3.52588 -2.92311 0
M  V30 1105 N 106.01 3.60113 -2.91329 0
M  V30 1106 C 106.745 4.38486 -3.69482 0
M  V30 1107 N 106.241 5.20302 -4.57447 0
M  V30 1108 N 108.034 4.33446 -3.57885 0
M  V30 1109 H 100.185 0.806725 -1.96483 0
M  V30 1110 H 102.448 0.417117 -0.851303 0
M  V30 1111 H 102.154 2.05663 -2.85299 0
M  V30 1112 H 102.028 3.36946 -1.6955 0
M  V30 1113 H 104.415 2.81989 -0.869827 0
M  V30 1114 H 104.496 1.51445 -2.0615 0
M  V30 1115 H 104.14 3.22354 -3.92492 0
M  V30 1116 H 104.07 4.51886 -2.70383 0
M  V30 1117 H 106.561 3.01707 -2.27555 0
M  V30 1118 H 106.874 5.77311 -5.13743 0
M  V30 1119 H 105.219 5.19653 -4.61503 0
M  V30 1120 H 108.41 3.68586 -2.88551 0
M  V30 1121 H 108.583 4.94279 -4.19037 0
M  V30 1122 N 101.989 0.842826 1.3317 0
M  V30 1123 C 103.214 0.453129 2.02389 0
M  V30 1124 C 103.639 -0.939105 1.6298 0
M  V30 1125 O 102.997 -1.61472 0.8244 0
M  V30 1126 C 103.045 0.586094 3.55805 0
M  V30 1127 O 102.149 -0.386029 4.10589 0
M  V30 1128 H 101.49 0.183664 0.638094 0
M  V30 1129 H 104.02 1.13875 1.69981 0
M  V30 1130 H 104.03 0.469209 4.05293 0
M  V30 1131 H 102.705 1.6014 3.83833 0
M  V30 1132 H 101.282 -0.226371 3.72212 0
M  V30 1133 N 103.467 -1.45747 0.599634 0
M  V30 1134 C 104.415 -2.322 -0.136426 0
M  V30 1135 C 105.409 -1.45497 -0.867583 0
M  V30 1136 O 106.615 -1.62027 -0.78405 0
M  V30 1137 H 102.99 -0.749368 -0.0628588 0
M  V30 1138 H 104.961 -2.92072 0.611281 0
M  V30 1139 C 103.71 -3.28974 -1.12567 0
M  V30 1140 H 103.033 -3.9568 -0.572484 0
M  V30 1141 H 104.473 -3.92212 -1.61077 0
M  V30 1142 C 102.932 -2.55561 -2.19523 0
M  V30 1143 O 103.462 -2.33111 -3.27143 0
M  V30 1144 N 101.668 -2.15832 -1.94589 0
M  V30 1145 H 101.215 -2.3429 -1.07078 0
M  V30 1146 H 101.173 -1.67034 -2.66359 0
M  V30 1147 N 104.945 -0.338344 -1.53925 0
M  V30 1148 C 106.356 0.146651 -1.86123 0
M  V30 1149 C 106.707 1.5042 -1.2597 0
M  V30 1150 O 105.832 2.08723 -0.571294 0
M  V30 1151 C 106.427 0.272879 -3.37699 0
M  V30 1152 C 104.986 0.702103 -3.69794 0
M  V30 1153 C 104.133 -0.167304 -2.76795 0
M  V30 1154 H 107.084 -0.558123 -1.48562 0
M  V30 1155 H 107.105 1.10128 -3.64214 0
M  V30 1156 H 106.617 -0.715307 -3.81451 0
M  V30 1157 H 104.718 1.6995 -3.31584 0
M  V30 1158 H 104.831 0.495604 -4.7653 0
M  V30 1159 H 103.195 0.359527 -2.5215 0
M  V30 1160 H 103.978 -1.15253 -3.23375 0
M  V30 1161 N 106.423 1.57458 -0.0668435 0
M  V30 1162 C 107.671 1.92919 0.602214 0
M  V30 1163 C 107.992 0.947215 1.70449 0
M  V30 1164 O 107.262 -0.00544117 1.95899 0
M  V30 1165 H 105.842 0.71217 0.22544 0
M  V30 1166 H 108.504 1.94508 -0.123535 0
M  V30 1167 H 107.6 2.94589 1.03073 0
M  V30 1168 N 107.901 -0.206675 1.56239 0
M  V30 1169 C 109.312 -0.772383 1.69974 0
M  V30 1170 C 109.663 -1.84353 0.671436 0
M  V30 1171 O 108.788 -2.15695 -0.174491 0
M  V30 1172 C 109.383 -1.40779 3.08167 0
M  V30 1173 C 107.942 -1.92072 3.23706 0
M  V30 1174 C 107.089 -0.786347 2.65917 0
M  V30 1175 H 110.04 0.0182223 1.5869 0
M  V30 1176 H 110.061 -2.27696 3.04852 0
M  V30 1177 H 109.573 -0.627958 3.82986 0
M  V30 1178 H 107.674 -2.7281 2.53782 0
M  V30 1179 H 107.787 -2.09046 4.31087 0
M  V30 1180 H 106.151 -1.1976 2.24788 0
M  V30 1181 H 106.934 -0.0189416 3.43295 0
M  V30 1182 N 109.379 -1.50304 -0.473955 0
M  V30 1183 C 110.625 -1.61389 -1.22806 0
M  V30 1184 C 110.958 -0.311955 -1.91678 0
M  V30 1185 O 110.233 0.686384 -1.81986 0
M  V30 1186 C 110.516 -2.79219 -2.27396 0
M  V30 1187 C 110.369 -4.19286 -1.62848 0
M  V30 1188 C 111.688 -2.92614 -3.28732 0
M  V30 1189 H 108.807 -0.587399 -0.445119 0
M  V30 1190 H 111.449 -1.82681 -0.522265 0
M  V30 1191 H 109.599 -2.61195 -2.87592 0
M  V30 1192 H 111.271 -4.48892 -1.06271 0
M  V30 1193 H 109.514 -4.23677 -0.931693 0
M  V30 1194 H 110.185 -4.97655 -2.38838 0
M  V30 1195 H 112.661 -3.09105 -2.78556 0
M  V30 1196 H 111.537 -3.76688 -3.99246 0
M  V30 1197 H 111.798 -2.03107 -3.92683 0
M  V30 1198 N 110.857 0.726932 -1.39834 0
M  V30 1199 C 111.804 1.841 -1.39197 0
M  V30 1200 C 112.774 1.642 -0.250502 0
M  V30 1201 O 113.959 1.85494 -0.446846 0
M  V30 1202 C 111.099 3.21697 -1.24919 0
M  V30 1203 C 110.212 3.53247 -2.48678 0
M  V30 1204 C 109.347 4.80289 -2.26928 0
M  V30 1205 C 108.386 5.04707 -3.4632 0
M  V30 1206 N 107.523 6.22956 -3.23836 0
M  V30 1207 H 112.363 1.83979 -2.34427 0
M  V30 1208 H 109.9 0.898876 -1.16442 0
M  V30 1209 H 111.858 4.01137 -1.1465 0
M  V30 1210 H 110.488 3.21076 -0.333153 0
M  V30 1211 H 109.54 2.68447 -2.69519 0
M  V30 1212 H 110.852 3.67205 -3.37582 0
M  V30 1213 H 110.006 5.67725 -2.13947 0
M  V30 1214 H 108.745 4.68519 -1.35431 0
M  V30 1215 H 107.75 4.1573 -3.5979 0
M  V30 1216 H 108.975 5.18357 -4.38729 0
M  V30 1217 H 106.921 6.12459 -2.35011 0
M  V30 1218 H 106.838 6.37539 -4.063 0
M  V30 1219 H 108.106 7.1321 -3.14566 0
M  V30 1220 N 112.336 1.25143 0.95797 0
M  V30 1221 C 113.613 1.00472 1.67823 0
M  V30 1222 C 113.993 -0.470056 2.058 0
M  V30 1223 O 113.341 -1.44663 1.76875 0
M  V30 1224 C 113.551 1.9372 2.90299 0
M  V30 1225 C 114.899 2.21371 3.62326 0
M  V30 1226 O 115.923 1.91451 3.00375 0
M  V30 1227 O 114.782 2.72231 4.7387 0
M  V30 1228 H 111.876 0.380752 0.734137 0
M  V30 1229 H 114.422 1.36283 1.01119 0
M  V30 1230 H 113.194 2.93316 2.59001 0
M  V30 1231 H 112.817 1.58286 3.64735 0
M  V30 1232 N 113.814 -1.1601 1.06675 0
M  V30 1233 C 114.761 -2.20525 0.680967 0
M  V30 1234 C 115.731 -1.62904 -0.324283 0
M  V30 1235 O 116.916 -1.89615 -0.212294 0
M  V30 1236 C 114.056 -3.45013 0.0776551 0
M  V30 1237 C 113.169 -4.16863 1.13355 0
M  V30 1238 C 112.304 -5.2888 0.49597 0
M  V30 1239 C 111.343 -5.92537 1.53513 0
M  V30 1240 N 110.48 -6.96038 0.920631 0
M  V30 1241 H 115.32 -2.52876 1.57663 0
M  V30 1242 H 112.857 -1.24199 0.788223 0
M  V30 1243 H 114.815 -4.16193 -0.289704 0
M  V30 1244 H 113.445 -3.132 -0.781393 0
M  V30 1245 H 112.497 -3.44248 1.61857 0
M  V30 1246 H 113.809 -4.60294 1.92174 0
M  V30 1247 H 112.963 -6.06653 0.0758604 0
M  V30 1248 H 111.702 -4.86622 -0.324062 0
M  V30 1249 H 110.707 -5.13482 1.9651 0
M  V30 1250 H 111.932 -6.36873 2.35733 0
M  V30 1251 H 109.878 -6.55888 0.12138 0
M  V30 1252 H 109.795 -7.3786 1.64616 0
M  V30 1253 H 111.063 -7.77725 0.525795 0
M  V30 1254 N 115.292 -0.849877 -1.32721 0
M  V30 1255 C 116.255 -0.296122 -2.27279 0
M  V30 1256 C 117.255 0.541458 -1.5141 0
M  V30 1257 O 118.445 0.353658 -1.70572 0
M  V30 1258 C 115.577 0.581579 -3.35902 0
M  V30 1259 H 116.77 -1.13064 -2.77771 0
M  V30 1260 H 114.323 -0.62383 -1.43311 0
M  V30 1261 H 115.058 1.43809 -2.9067 0
M  V30 1262 H 114.843 -0.0178814 -3.92096 0
M  V30 1263 H 116.333 0.961951 -4.0637 0
M  V30 1264 N 116.77 1.45427 -0.607355 0
M  V30 1265 C 117.733 2.28974 0.101693 0
M  V30 1266 C 118.733 1.39754 0.795329 0
M  V30 1267 O 119.923 1.61878 0.643527 0
M  V30 1268 C 117.055 3.20768 1.15414 0
M  V30 1269 H 118.248 2.93147 -0.632844 0
M  V30 1270 H 115.801 1.51945 -0.366391 0
M  V30 1271 H 116.536 2.61395 1.91945 0
M  V30 1272 H 116.321 3.86489 0.66098 0
M  V30 1273 H 117.811 3.83589 1.65073 0
M  V30 1274 N 118.248 0.346503 1.53744 0
M  V30 1275 C 119.478 -0.250047 2.05081 0
M  V30 1276 C 119.886 -1.44529 1.22098 0
M  V30 1277 O 119.229 -1.81992 0.249917 0
M  V30 1278 C 119.291 -0.725934 3.52094 0
M  V30 1279 C 118.955 0.350053 4.55657 0
M  V30 1280 C 119.952 1.19372 5.0601 0
M  V30 1281 C 117.637 0.504827 4.99757 0
M  V30 1282 C 119.631 2.17768 5.99046 0
M  V30 1283 C 117.318 1.49218 5.92602 0
M  V30 1284 C 118.316 2.32706 6.42135 0
M  V30 1285 O 118.004 3.2976 7.33153 0
M  V30 1286 H 117.736 -0.0515469 0.674032 0
M  V30 1287 H 120.29 0.497559 1.99282 0
M  V30 1288 H 118.52 -1.52483 3.55367 0
M  V30 1289 H 120.209 -1.24336 3.86388 0
M  V30 1290 H 120.975 1.08525 4.72702 0
M  V30 1291 H 116.854 -0.135178 4.60802 0
M  V30 1292 H 120.398 2.82971 6.37631 0
M  V30 1293 H 116.295 1.6012 6.25325 0
M  V30 1294 H 117.063 3.25265 7.51096 0
M  V30 1295 N 119.726 -1.57421 0.075193 0
M  V30 1296 C 120.673 -2.12915 -0.890843 0
M  V30 1297 C 121.643 -1.04252 -1.29309 0
M  V30 1298 O 122.828 -1.31933 -1.37834 0
M  V30 1299 C 119.968 -2.69795 -2.15186 0
M  V30 1300 C 119.081 -3.92624 -1.80194 0
M  V30 1301 C 118.216 -4.37736 -3.00933 0
M  V30 1302 C 117.255 -5.53205 -2.61974 0
M  V30 1303 N 116.392 -5.9326 -3.75483 0
M  V30 1304 H 121.232 -2.95156 -0.410735 0
M  V30 1305 H 118.769 -1.45854 -0.191086 0
M  V30 1306 H 120.727 -3.00883 -2.89008 0
M  V30 1307 H 119.357 -1.90313 -2.60731 0
M  V30 1308 H 118.409 -3.67977 -0.964218 0
M  V30 1309 H 119.721 -4.76482 -1.47534 0
M  V30 1310 H 118.875 -4.70503 -3.8303 0
M  V30 1311 H 117.614 -3.52739 -3.36789 0
M  V30 1312 H 116.619 -5.20086 -1.783 0
M  V30 1313 H 117.844 -6.39936 -2.27284 0
M  V30 1314 H 115.79 -5.11212 -4.11094 0
M  V30 1315 H 115.707 -6.71865 -3.46602 0
M  V30 1316 H 116.975 -6.30651 -4.58148 0
M  V30 1317 N 121.204 0.198386 -1.56346 0
M  V30 1318 C 122.429 0.939682 -1.84891 0
M  V30 1319 C 122.854 1.76202 -0.658369 0
M  V30 1320 O 122.212 1.76993 0.392851 0
M  V30 1321 C 122.26 1.81428 -3.11635 0
M  V30 1322 O 121.364 2.91265 -2.91956 0
M  V30 1323 H 120.705 0.264807 -0.608912 0
M  V30 1324 H 123.235 0.204695 -2.03573 0
M  V30 1325 H 123.245 2.21958 -3.42343 0
M  V30 1326 H 121.92 1.21004 -3.97908 0
M  V30 1327 H 120.497 2.54514 -2.72538 0
M  V30 1328 N 122.682 1.50554 0.465978 0
M  V30 1329 C 123.929 1.61798 1.21768 0
M  V30 1330 C 124.257 0.320696 1.91838 0
M  V30 1331 O 123.512 -0.693724 1.82992 0
M  V30 1332 C 123.811 2.75152 2.28093 0
M  V30 1333 C 123.477 4.15454 1.75239 0
M  V30 1334 C 122.139 4.53628 1.60546 0
M  V30 1335 C 124.491 5.03121 1.36083 0
M  V30 1336 C 121.819 5.77204 1.05128 0
M  V30 1337 C 124.171 6.27249 0.821056 0
M  V30 1338 C 122.835 6.64221 0.660795 0
M  V30 1339 H 122.105 0.592063 0.445582 0
M  V30 1340 H 124.752 1.84503 0.512927 0
M  V30 1341 H 123.057 2.46556 3.04496 0
M  V30 1342 H 124.754 2.81055 2.86023 0
M  V30 1343 H 121.344 3.85341 1.87644 0
M  V30 1344 H 125.528 4.74257 1.46267 0
M  V30 1345 H 120.784 6.0452 0.91462 0
M  V30 1346 H 124.958 6.94537 0.509018 0
M  V30 1347 H 122.585 7.59854 0.229226 0
M  V30 1348 N 124.16 -0.719506 1.40217 0
M  V30 1349 C 125.09 -1.8465 1.42922 0
M  V30 1350 C 126.071 -1.67599 0.29062 0
M  V30 1351 O 127.256 -1.87688 0.498677 0
M  V30 1352 C 124.386 -3.22565 1.28722 0
M  V30 1353 C 123.34 -3.54281 2.40144 0
M  V30 1354 C 122.666 -4.91298 2.11023 0
M  V30 1355 C 123.966 -3.55676 3.82481 0
M  V30 1356 H 125.66 -1.82644 2.37237 0
M  V30 1357 H 123.206 -0.877305 1.1419 0
M  V30 1358 H 125.159 -4.01095 1.29232 0
M  V30 1359 H 123.883 -3.25137 0.308811 0
M  V30 1360 H 122.542 -2.78088 2.38877 0
M  V30 1361 H 122.19 -4.90468 1.11582 0
M  V30 1362 H 121.89 -5.13485 2.8567 0
M  V30 1363 H 123.414 -5.72166 2.13209 0
M  V30 1364 H 124.828 -4.24254 3.85592 0
M  V30 1365 H 123.225 -3.89388 4.56614 0
M  V30 1366 H 124.295 -2.55144 4.12346 0
M  V30 1367 N 125.638 -1.25649 -0.95132 0
M  V30 1368 C 127.054 -1.02542 -1.223 0
M  V30 1369 C 127.254 0.255715 -1.99871 0
M  V30 1370 O 126.31 0.967558 -2.33226 0
M  V30 1371 C 127.623 -2.25065 -1.99415 0
M  V30 1372 C 129.171 -2.29861 -2.12446 0
M  V30 1373 C 129.646 -3.52048 -2.92961 0
M  V30 1374 N 131.137 -3.52465 -3.00538 0
M  V30 1375 C 131.872 -4.43672 -3.63239 0
M  V30 1376 N 131.368 -5.45157 -4.27523 0
M  V30 1377 N 133.161 -4.31346 -3.60412 0
M  V30 1378 H 125.312 -2.07951 -0.432471 0
M  V30 1379 H 127.575 -0.91339 -0.253816 0
M  V30 1380 H 127.281 -3.18194 -1.49817 0
M  V30 1381 H 127.155 -2.28502 -3.00111 0
M  V30 1382 H 129.542 -1.37252 -2.61239 0
M  V30 1383 H 129.623 -2.3044 -1.11044 0
M  V30 1384 H 129.267 -4.44981 -2.44856 0
M  V30 1385 H 129.197 -3.48715 -3.94596 0
M  V30 1386 H 131.688 -2.79056 -2.54826 0
M  V30 1387 H 132.001 -6.10958 -4.73234 0
M  V30 1388 H 130.346 -5.49025 -4.26141 0
M  V30 1389 H 133.537 -3.51288 -3.09377 0
M  V30 1390 H 133.71 -5.02624 -4.0899 0
M  V30 1391 N 127.117 1.15442 -1.07289 0
M  V30 1392 C 128.027 2.23786 -0.704057 0
M  V30 1393 C 129.043 1.7166 0.284413 0
M  V30 1394 O 130.219 2.00972 0.131205 0
M  V30 1395 C 127.284 3.46535 -0.106792 0
M  V30 1396 C 126.345 4.13654 -1.14842 0
M  V30 1397 C 125.578 5.30544 -0.57956 0
M  V30 1398 O 125.801 5.67187 0.604585 0
M  V30 1399 O 124.735 5.87154 -1.32414 0
M  V30 1400 H 128.561 2.57664 -1.60757 0
M  V30 1401 H 126.146 1.23152 -0.845803 0
M  V30 1402 H 128.028 4.20804 0.224048 0
M  V30 1403 H 126.703 3.14407 0.770049 0
M  V30 1404 H 125.61 3.4131 -1.5316 0
M  V30 1405 H 126.943 4.49861 -1.99714 0
M  V30 1406 N 128.595 0.856903 1.32268 0
M  V30 1407 C 129.525 0.31858 2.31316 0
M  V30 1408 C 130.506 -0.583487 1.59779 0
M  V30 1409 O 131.691 -0.503259 1.87566 0
M  V30 1410 C 128.821 -0.491979 3.43798 0
M  V30 1411 C 127.775 0.315849 4.26833 0
M  V30 1412 C 127.101 -0.619586 5.31098 0
M  V30 1413 C 128.401 1.54282 4.98993 0
M  V30 1414 H 130.095 1.14621 2.76591 0
M  V30 1415 H 127.641 0.552613 1.32974 0
M  V30 1416 H 129.594 -0.879012 4.1213 0
M  V30 1417 H 128.318 -1.35299 2.97257 0
M  V30 1418 H 126.977 0.684664 3.6015 0
M  V30 1419 H 126.625 -1.47751 4.8081 0
M  V30 1420 H 126.325 -0.0830621 5.87541 0
M  V30 1421 H 127.849 -1.00375 6.02293 0
M  V30 1422 H 129.263 1.22796 5.59995 0
M  V30 1423 H 127.66 2.01745 5.65172 0
M  V30 1424 H 128.73 2.30285 4.26728 0
M  V30 1425 N 130.073 -1.45103 0.615059 0
M  V30 1426 C 131.321 -2.01784 0.112955 0
M  V30 1427 C 131.642 -1.48504 -1.26378 0
M  V30 1428 O 130.912 -0.682245 -1.83636 0
M  V30 1429 H 129.492 -0.745993 0.0387668 0
M  V30 1430 H 132.154 -1.77808 0.798141 0
M  V30 1431 H 131.25 -3.12025 0.0684069 0
M  V30 1432 N 131.551 -0.354651 -1.53558 0
M  V30 1433 C 132.781 0.239167 -2.05211 0
M  V30 1434 C 133.189 1.43879 -1.22863 0
M  V30 1435 O 132.532 1.81857 -0.259565 0
M  V30 1436 C 132.594 0.707251 -3.52474 0
M  V30 1437 C 132.258 -0.374212 -4.55465 0
M  V30 1438 C 133.255 -1.22054 -5.0537 0
M  V30 1439 C 130.94 -0.531323 -4.99482 0
M  V30 1440 C 132.934 -2.20942 -5.97882 0
M  V30 1441 C 130.621 -1.52358 -5.91802 0
M  V30 1442 C 131.619 -2.36108 -6.40892 0
M  V30 1443 O 131.307 -3.33643 -7.31394 0
M  V30 1444 H 131.039 0.0479716 -0.674296 0
M  V30 1445 H 133.593 -0.508121 -1.99016 0
M  V30 1446 H 131.823 1.50596 -3.56171 0
M  V30 1447 H 133.512 1.22285 -3.87042 0
M  V30 1448 H 134.278 -1.1103 -4.7212 0
M  V30 1449 H 130.157 0.110738 -4.60867 0
M  V30 1450 H 133.701 -2.86348 -6.36121 0
M  V30 1451 H 129.598 -1.63434 -6.24467 0
M  V30 1452 H 130.366 -3.29244 -7.4936 0
M  V30 1453 N 133.029 1.57378 -0.0835403 0
M  V30 1454 C 133.959 2.1641 0.87686 0
M  V30 1455 C 134.94 1.09429 1.30228 0
M  V30 1456 O 136.125 1.37516 1.37124 0
M  V30 1457 C 133.255 2.73517 2.14022 0
M  V30 1458 C 132.209 3.85769 1.85381 0
M  V30 1459 C 131.535 4.29529 3.18448 0
M  V30 1460 C 132.835 5.09486 1.14984 0
M  V30 1461 H 134.529 2.96914 0.385059 0
M  V30 1462 H 132.075 1.42823 0.18377 0
M  V30 1463 H 134.028 3.13463 2.81636 0
M  V30 1464 H 132.752 1.90252 2.65465 0
M  V30 1465 H 131.411 3.46345 1.20169 0
M  V30 1466 H 131.059 3.43169 3.67755 0
M  V30 1467 H 130.759 5.05204 3.00071 0
M  V30 1468 H 132.283 4.72099 3.8724 0
M  V30 1469 H 133.697 5.46674 1.72687 0
M  V30 1470 H 132.094 5.90515 1.06826 0
M  V30 1471 H 133.164 4.84724 0.130749 0
M  V30 1472 N 134.507 -0.190092 1.56449 0
M  V30 1473 C 135.753 -0.911052 1.81184 0
M  V30 1474 C 136.086 -1.82699 0.658396 0
M  V30 1475 O 135.361 -1.91491 -0.340775 0
M  V30 1476 C 135.644 -1.72297 3.16205 0
M  V30 1477 C 135.497 -0.831419 4.42049 0
M  V30 1478 C 136.816 -2.69454 3.47969 0
M  V30 1479 H 133.935 -0.32977 0.659106 0
M  V30 1480 H 136.577 -0.178169 1.89163 0
M  V30 1481 H 134.727 -2.34778 3.09534 0
M  V30 1482 H 136.399 -0.220929 4.60771 0
M  V30 1483 H 134.642 -0.138406 4.33579 0
M  V30 1484 H 135.313 -1.43461 5.33032 0
M  V30 1485 H 137.789 -2.17104 3.54972 0
M  V30 1486 H 136.665 -3.23342 4.43555 0
M  V30 1487 H 136.926 -3.48744 2.71717 0
M  V30 1488 N 135.985 -1.50799 -0.457987 0
M  V30 1489 C 137.396 -1.55152 -1.0385 0
M  V30 1490 C 137.747 -0.362719 -1.92818 0
M  V30 1491 O 136.872 0.522915 -2.09987 0
M  V30 1492 C 137.467 -2.81173 -1.89017 0
M  V30 1493 C 136.026 -2.88164 -2.42154 0
M  V30 1494 C 135.173 -2.49591 -1.20829 0
M  V30 1495 H 138.124 -1.56874 -0.240068 0
M  V30 1496 H 138.145 -2.63769 -2.74238 0
M  V30 1497 H 137.657 -3.67677 -1.24238 0
M  V30 1498 H 135.758 -2.06042 -3.10447 0
M  V30 1499 H 135.871 -3.91356 -2.76364 0
M  V30 1500 H 134.235 -2.02322 -1.54719 0
M  V30 1501 H 135.018 -3.38418 -0.576927 0
M  V30 1502 N 137.463 0.71206 -1.40597 0
M  V30 1503 C 138.395 1.83704 -1.37061 0
M  V30 1504 C 139.408 1.60453 -0.275426 0
M  V30 1505 O 140.597 1.70262 -0.53602 0
M  V30 1506 C 137.697 3.20172 -1.11099 0
M  V30 1507 C 136.87 3.7059 -2.3234 0
M  V30 1508 C 135.929 4.85681 -2.02485 0
M  V30 1509 O 134.955 4.9815 -2.75382 0
M  V30 1510 N 136.157 5.71735 -1.00497 0
M  V30 1511 H 138.922 1.87235 -2.34016 0
M  V30 1512 H 136.483 0.893739 -1.34996 0
M  V30 1513 H 138.475 3.94768 -0.891064 0
M  V30 1514 H 137.045 3.11767 -0.227989 0
M  V30 1515 H 136.265 2.87085 -2.7014 0
M  V30 1516 H 137.553 4.01011 -3.13157 0
M  V30 1517 H 136.951 5.64275 -0.401298 0
M  V30 1518 H 135.508 6.463 -0.844942 0
M  V30 1519 N 138.941 1.26152 0.944643 0
M  V30 1520 C 140.352 1.10454 1.50522 0
M  V30 1521 C 140.703 -0.31635 1.93633 0
M  V30 1522 O 139.828 -1.20746 1.79581 0
M  V30 1523 C 140.423 1.99891 2.73549 0
M  V30 1524 C 138.982 1.88348 3.25886 0
M  V30 1525 C 138.129 1.93447 1.9868 0
M  V30 1526 H 141.08 1.39292 0.760489 0
M  V30 1527 H 141.101 1.54477 3.47732 0
M  V30 1528 H 140.613 3.03297 2.42141 0
M  V30 1529 H 138.714 0.878636 3.62092 0
M  V30 1530 H 138.827 2.73696 3.93227 0
M  V30 1531 H 137.191 1.37456 2.14425 0
M  V30 1532 H 137.974 2.98476 1.69607 0
M  V30 1533 N 140.419 -1.14872 1.07899 0
M  V30 1534 C 141.329 -2.2341 0.715915 0
M  V30 1535 C 142.345 -1.71808 -0.275306 0
M  V30 1536 O 143.521 -2.01039 -0.120545 0
M  V30 1537 C 140.586 -3.46474 0.125168 0
M  V30 1538 C 139.647 -4.13039 1.17034 0
M  V30 1539 C 138.88 -5.30229 0.607688 0
M  V30 1540 O 139.103 -5.675 -0.574497 0
M  V30 1541 O 138.037 -5.86444 1.35526 0
M  V30 1542 H 141.863 -2.56808 1.62121 0
M  V30 1543 H 139.448 -1.22702 0.852322 0
M  V30 1544 H 141.33 -4.20917 -0.201729 0
M  V30 1545 H 140.005 -3.14811 -0.753364 0
M  V30 1546 H 138.912 -3.40493 1.54968 0
M  V30 1547 H 140.245 -4.48796 2.02097 0
M  V30 1548 N 141.898 -0.863906 -1.31812 0
M  V30 1549 C 143.314 -0.555004 -1.49639 0
M  V30 1550 C 143.514 0.912266 -1.79666 0
M  V30 1551 O 142.57 1.69479 -1.87171 0
M  V30 1552 C 143.883 -1.44998 -2.63431 0
M  V30 1553 C 145.431 -1.45138 -2.77316 0
M  V30 1554 C 145.906 -2.33179 -3.94197 0
M  V30 1555 N 147.397 -2.31025 -4.01474 0
M  V30 1556 C 148.132 -2.95871 -4.9117 0
M  V30 1557 N 147.628 -3.69863 -5.8581 0
M  V30 1558 N 149.421 -2.85211 -4.84367 0
M  V30 1559 H 141.572 -1.81339 -1.10589 0
M  V30 1560 H 143.835 -0.77505 -0.545895 0
M  V30 1561 H 143.541 -2.49377 -2.48 0
M  V30 1562 H 143.415 -1.14409 -3.59431 0
M  V30 1563 H 145.802 -0.415201 -2.92164 0
M  V30 1564 H 145.883 -1.79747 -1.82001 0
M  V30 1565 H 145.527 -3.3687 -3.80107 0
M  V30 1566 H 145.457 -1.95897 -4.88807 0
M  V30 1567 H 147.948 -1.77238 -3.33759 0
M  V30 1568 H 148.261 -4.16486 -6.50968 0
M  V30 1569 H 146.606 -3.73971 -5.85808 0
M  V30 1570 H 149.797 -2.26948 -4.09405 0
M  V30 1571 H 149.97 -3.36027 -5.54066 0
M  V30 1572 N 143.376 1.44774 -0.622745 0
M  V30 1573 C 144.622 2.0242 -0.124083 0
M  V30 1574 C 144.955 1.4881 1.24777 0
M  V30 1575 O 144.23 0.668799 1.8264 0
M  V30 1576 C 144.513 3.59957 -0.101619 0
M  V30 1577 C 144.366 4.23867 -1.50521 0
M  V30 1578 C 145.685 4.36284 0.578272 0
M  V30 1579 H 142.804 0.735528 -0.0465645 0
M  V30 1580 H 145.446 1.72447 -0.797617 0
M  V30 1581 H 143.596 3.85623 0.471934 0
M  V30 1582 H 145.268 4.09336 -2.12701 0
M  V30 1583 H 143.511 3.81684 -2.06154 0
M  V30 1584 H 144.182 5.32843 -1.4416 0
M  V30 1585 H 146.658 4.16001 0.0906057 0
M  V30 1586 H 145.534 5.46004 0.563149 0
M  V30 1587 H 145.795 4.10271 1.64713 0
M  V30 1588 N 144.854 0.36279 1.53368 0
M  V30 1589 C 146.082 -0.228613 2.05633 0
M  V30 1590 C 146.497 -1.42676 1.23649 0
M  V30 1591 O 145.854 -1.80394 0.27647 0
M  V30 1592 C 145.905 -0.624845 3.56059 0
M  V30 1593 O 145.626 0.525675 4.34935 0
M  V30 1594 C 147.127 -1.27493 4.24571 0
M  V30 1595 H 144.347 -0.0407183 0.669763 0
M  V30 1596 H 146.891 0.520352 1.97769 0
M  V30 1597 H 145.046 -1.32373 3.64083 0
M  V30 1598 H 145.46 0.205969 5.24095 0
M  V30 1599 H 146.934 -1.50277 5.31151 0
M  V30 1600 H 147.411 -2.23439 3.78116 0
M  V30 1601 H 148.017 -0.617558 4.20792 0
M  V30 1602 N 146.332 -1.57332 0.0918853 0
M  V30 1603 C 147.578 -1.94524 -0.573425 0
M  V30 1604 C 147.911 -0.973578 -1.68033 0
M  V30 1605 O 147.186 -0.00609226 -1.94499 0
M  V30 1606 C 147.469 -3.41858 -1.13161 0
M  V30 1607 C 147.322 -4.4979 -0.0299747 0
M  V30 1608 C 148.641 -3.90435 -2.03098 0
M  V30 1609 H 145.76 -0.70734 -0.206975 0
M  V30 1610 H 148.402 -1.89309 0.161942 0
M  V30 1611 H 146.552 -3.46433 -1.7583 0
M  V30 1612 H 148.224 -4.57327 0.604112 0
M  V30 1613 H 146.467 -4.291 0.636833 0
M  V30 1614 H 147.138 -5.50069 -0.461287 0
M  V30 1615 H 149.614 -3.87992 -1.50338 0
M  V30 1616 H 148.49 -4.94097 -2.39081 0
M  V30 1617 H 148.751 -3.29541 -2.94712 0
M  V30 1618 N 147.81 0.181792 -1.56548 0
M  V30 1619 C 148.72 1.24538 -1.98815 0
M  V30 1620 C 149.736 1.49045 -0.897861 0
M  V30 1621 O 150.912 1.61399 -1.20467 0
M  V30 1622 C 147.977 2.56683 -2.33055 0
M  V30 1623 C 147.038 2.40131 -3.55859 0
M  V30 1624 C 146.271 3.65975 -3.88456 0
M  V30 1625 O 146.494 4.70711 -3.22161 0
M  V30 1626 O 145.428 3.6071 -4.81842 0
M  V30 1627 H 149.254 0.916647 -2.89536 0
M  V30 1628 H 146.839 0.387842 -1.44278 0
M  V30 1629 H 148.721 3.34655 -2.56094 0
M  V30 1630 H 147.396 2.89157 -1.45498 0
M  V30 1631 H 146.303 1.60226 -3.38051 0
M  V30 1632 H 147.636 2.12585 -4.43924 0
M  V30 1633 N 149.288 1.51039 0.449983 0
M  V30 1634 C 150.516 1.66869 1.2232 0
M  V30 1635 C 150.931 0.360727 1.85322 0
M  V30 1636 O 150.288 -0.659531 1.70166 0
M  V30 1637 C 150.339 2.77524 2.31652 0
M  V30 1638 O 150.06 4.03252 1.7123 0
M  V30 1639 C 151.561 3.04512 3.2216 0
M  V30 1640 H 148.781 0.560326 0.369155 0
M  V30 1641 H 151.325 1.97385 0.534719 0
M  V30 1642 H 149.48 2.49642 2.96239 0
M  V30 1643 H 149.894 4.64609 2.43389 0
M  V30 1644 H 151.368 3.85551 3.95038 0
M  V30 1645 H 151.845 2.16415 3.8218 0
M  V30 1646 H 152.451 3.34005 2.63288 0
M  V30 1647 N 150.766 -0.704594 1.40972 0
M  V30 1648 C 151.994 -1.49354 1.43182 0
M  V30 1649 C 152.409 -1.88768 0.0345508 0
M  V30 1650 O 151.766 -1.56184 -0.944081 0
M  V30 1651 C 151.817 -2.76187 2.33244 0
M  V30 1652 O 151.538 -2.38436 3.67532 0
M  V30 1653 C 153.039 -3.7 2.44162 0
M  V30 1654 H 150.259 -0.460559 0.487982 0
M  V30 1655 H 152.803 -0.868261 1.85153 0
M  V30 1656 H 150.958 -3.34974 1.94606 0
M  V30 1657 H 151.372 -3.20126 4.15475 0
M  V30 1658 H 152.846 -4.55803 3.11364 0
M  V30 1659 H 153.323 -4.13867 1.47006 0
M  V30 1660 H 153.929 -3.17121 2.83398 0
M  V30 1661 N 152.244 -1.26651 -0.937939 0
M  V30 1662 C 153.492 -1.12165 -1.68118 0
M  V30 1663 C 153.813 0.334983 -1.92101 0
M  V30 1664 O 153.083 1.23583 -1.52 0
M  V30 1665 H 151.663 -0.412093 -0.623048 0
M  V30 1666 H 154.325 -1.59027 -1.12678 0
M  V30 1667 H 153.421 -1.64289 -2.6536 0
M  V30 1668 N 153.722 1.14298 -1.08507 0
M  V30 1669 C 154.971 1.84708 -0.810305 0
M  V30 1670 C 155.284 1.83903 0.666271 0
M  V30 1671 O 156.49 2.50112 1.05624 0
M  V30 1672 C 154.946 3.31572 -1.39957 0
M  V30 1673 C 154.554 3.40791 -2.90801 0
M  V30 1674 C 156.298 4.07087 -1.20334 0
M  V30 1675 C 154.205 4.81872 -3.4286 0
M  V30 1676 H 153.135 0.691985 -0.299454 0
M  V30 1677 H 155.786 1.28841 -1.30661 0
M  V30 1678 H 154.168 3.87183 -0.830976 0
M  V30 1679 H 155.342 2.95225 -3.53806 0
M  V30 1680 H 153.657 2.78732 -3.0935 0
M  V30 1681 H 156.254 5.11225 -1.56693 0
M  V30 1682 H 156.597 4.16054 -0.143237 0
M  V30 1683 H 157.13 3.57779 -1.73893 0
M  V30 1684 H 153.869 4.78094 -4.48449 0
M  V30 1685 H 153.389 5.27972 -2.84615 0
M  V30 1686 H 155.068 5.50765 -3.39509 0
M  V30 1687 N 155.201 0.870884 1.31352 0
M  V30 1688 C 156.478 0.402907 1.91405 0
M  V30 1689 C 156.858 -1.11512 1.79244 0
M  V30 1690 O 156.206 -1.94411 1.2007 0
M  V30 1691 C 156.416 0.885301 3.37585 0
M  V30 1692 C 157.764 0.911971 4.14691 0
M  V30 1693 O 158.788 0.831016 3.46371 0
M  V30 1694 O 157.647 1.02927 5.3672 0
M  V30 1695 H 154.741 0.120698 0.818145 0
M  V30 1696 H 157.287 0.958857 1.40014 0
M  V30 1697 H 156.059 1.92889 3.40455 0
M  V30 1698 H 155.682 0.307714 3.96407 0
M  V30 1699 N 156.679 -1.44442 0.630414 0
M  V30 1700 C 157.904 -2.06927 0.139944 0
M  V30 1701 C 158.329 -1.46795 -1.17613 0
M  V30 1702 O 157.687 -0.569144 -1.72135 0
M  V30 1703 C 157.735 -3.6058 0.0379581 0
M  V30 1704 O 156.839 -3.99937 -1.0062 0
M  V30 1705 H 156.18 -0.658608 0.0844483 0
M  V30 1706 H 158.71 -1.85327 0.866891 0
M  V30 1707 H 158.72 -4.07714 -0.152856 0
M  V30 1708 H 157.395 -4.03728 0.998809 0
M  V30 1709 H 155.972 -3.64436 -0.79001 0
M  V30 1710 N 158.157 -0.370918 -1.53173 0
M  V30 1711 C 159.067 0.480823 -2.2962 0
M  V30 1712 C 160.083 1.08789 -1.35798 0
M  V30 1713 O 161.259 1.09768 -1.68858 0
M  V30 1714 C 158.324 1.60227 -3.07454 0
M  V30 1715 C 157.385 1.0222 -4.16953 0
M  V30 1716 C 156.618 2.0902 -4.91066 0
M  V30 1717 O 156.841 3.30222 -4.65091 0
M  V30 1718 O 155.775 1.71778 -5.76867 0
M  V30 1719 H 159.601 -0.141421 -3.03371 0
M  V30 1720 H 157.186 -0.135146 -1.48787 0
M  V30 1721 H 159.068 2.25417 -3.56041 0
M  V30 1722 H 157.743 2.20982 -2.36535 0
M  V30 1723 H 156.65 0.334064 -3.72605 0
M  V30 1724 H 157.983 0.459131 -4.90054 0
M  V30 1725 N 159.635 1.57281 -0.100228 0
M  V30 1726 C 160.884 1.93713 0.561984 0
M  V30 1727 C 161.197 0.984492 1.69018 0
M  V30 1728 O 162.403 1.24273 2.41389 0
M  V30 1729 C 160.859 3.4421 1.05106 0
M  V30 1730 C 160.467 4.47975 -0.0476628 0
M  V30 1731 C 162.211 3.89595 1.68571 0
M  V30 1732 C 160.118 5.89631 0.457055 0
M  V30 1733 H 159.048 0.723082 0.2137 0
M  V30 1734 H 161.699 1.82644 -0.177057 0
M  V30 1735 H 160.081 3.50449 1.84395 0
M  V30 1736 H 161.255 4.53385 -0.823333 0
M  V30 1737 H 159.57 4.1223 -0.587816 0
M  V30 1738 H 162.167 4.92832 2.07414 0
M  V30 1739 H 162.51 3.28526 2.55688 0
M  V30 1740 H 163.043 3.86078 0.958562 0
M  V30 1741 H 159.782 6.54411 -0.377616 0
M  V30 1742 H 159.302 5.87681 1.19962 0
M  V30 1743 H 160.981 6.40363 0.92437 0
M  V30 1744 N 161.113 -0.173488 1.56642 0
M  V30 1745 C 162.341 -0.906095 1.86004 0
M  V30 1746 C 162.756 -1.75921 0.685355 0
M  V30 1747 O 162.113 -1.79198 -0.345578 0
M  V30 1748 C 162.164 -1.78462 3.14378 0
M  V30 1749 O 161.885 -0.965914 4.27319 0
M  V30 1750 C 163.386 -2.62707 3.57071 0
M  V30 1751 H 160.606 -0.263341 0.617165 0
M  V30 1752 H 163.15 -0.174236 2.03756 0
M  V30 1753 H 161.305 -2.46984 2.98459 0
M  V30 1754 H 161.719 -1.56655 5.00559 0
M  V30 1755 H 163.193 -3.19969 4.49804 0
M  V30 1756 H 163.67 -3.37472 2.81086 0
M  V30 1757 H 164.276 -1.99521 3.75595 0
M  V30 1758 N 162.591 -1.51276 -0.441967 0
M  V30 1759 C 163.816 -1.67799 -1.21895 0
M  V30 1760 C 164.241 -0.372864 -1.84367 0
M  V30 1761 O 163.599 0.666501 -1.68604 0
M  V30 1762 C 163.647 -2.79199 -2.28211 0
M  V30 1763 O 162.751 -2.42479 -3.33583 0
M  V30 1764 H 162.092 -0.559649 -0.357336 0
M  V30 1765 H 164.622 -1.97815 -0.522522 0
M  V30 1766 H 164.632 -3.03146 -2.73069 0
M  V30 1767 H 163.307 -3.73906 -1.82118 0
M  V30 1768 H 161.884 -2.29087 -2.94234 0
M  V30 1769 N 164.069 0.697108 -1.41344 0
M  V30 1770 C 165.001 1.8224 -1.39001 0
M  V30 1771 C 166.014 1.60152 -0.292428 0
M  V30 1772 O 167.203 1.69684 -0.554048 0
M  V30 1773 C 164.303 3.18976 -1.14489 0
M  V30 1774 C 163.476 3.68105 -2.36258 0
M  V30 1775 C 162.535 4.83506 -2.07625 0
M  V30 1776 O 161.561 4.95201 -2.8065 0
M  V30 1777 N 162.763 5.70637 -1.06555 0
M  V30 1778 H 165.528 1.84742 -2.35988 0
M  V30 1779 H 163.089 0.87937 -1.35936 0
M  V30 1780 H 165.081 3.93801 -0.932885 0
M  V30 1781 H 163.651 3.11508 -0.261043 0
M  V30 1782 H 162.871 2.84204 -2.7317 0
M  V30 1783 H 164.159 3.97667 -3.17393 0
M  V30 1784 H 163.557 5.63817 -0.461125 0
M  V30 1785 H 162.114 6.45368 -0.913444 0
M  V30 1786 N 165.547 1.27147 0.931209 0
M  V30 1787 C 166.51 1.09615 2.01289 0
M  V30 1788 C 167.51 0.0412581 1.60747 0
M  V30 1789 O 168.7 0.285545 1.71844 0
M  V30 1790 C 165.832 0.669447 3.34262 0
M  V30 1791 H 167.025 2.05662 2.18273 0
M  V30 1792 H 164.578 1.09885 1.11153 0
M  V30 1793 H 165.313 -0.292572 3.22978 0
M  V30 1794 H 165.098 1.43127 3.65044 0
M  V30 1795 H 166.588 0.568921 4.13706 0
M  V30 1796 N 167.025 -1.13721 1.09112 0
M  V30 1797 C 168.273 -1.84559 0.823562 0
M  V30 1798 C 168.594 -1.83754 -0.652658 0
M  V30 1799 O 167.864 -1.29102 -1.47342 0
M  V30 1800 H 166.444 -0.683376 0.301673 0
M  V30 1801 H 169.106 -1.37771 1.37859 0
M  V30 1802 H 168.202 -2.8917 1.17419 0
M  V30 1803 N 168.503 -0.877838 -1.30888 0
M  V30 1804 C 169.914 -0.544193 -1.78593 0
M  V30 1805 C 170.265 0.939301 -1.72254 0
M  V30 1806 O 169.39 1.7337 -1.29505 0
M  V30 1807 C 169.985 -0.98105 -3.24285 0
M  V30 1808 C 168.544 -0.698935 -3.69854 0
M  V30 1809 C 167.691 -1.168 -2.51502 0
M  V30 1810 H 170.642 -1.06278 -1.17859 0
M  V30 1811 H 170.663 -0.307009 -3.79259 0
M  V30 1812 H 170.175 -2.06079 -3.28866 0
M  V30 1813 H 168.276 0.369112 -3.70767 0
M  V30 1814 H 168.389 -1.28148 -4.61644 0
M  V30 1815 H 166.753 -0.587535 -2.47831 0
M  V30 1816 H 167.536 -2.25533 -2.58824 0
M  V30 1817 N 169.982 1.44106 -0.638065 0
M  V30 1818 C 170.914 2.28976 0.101205 0
M  V30 1819 C 171.927 1.4167 0.802088 0
M  V30 1820 O 173.116 1.65755 0.662375 0
M  V30 1821 C 170.216 3.18217 1.16581 0
M  V30 1822 C 169.389 4.33978 0.546066 0
M  V30 1823 C 168.448 5.04202 1.50554 0
M  V30 1824 O 167.474 5.59986 1.01999 0
M  V30 1825 N 168.676 5.06296 2.8398 0
M  V30 1826 H 171.441 2.93064 -0.627186 0
M  V30 1827 H 169.002 1.54629 -0.479731 0
M  V30 1828 H 170.994 3.62061 1.80815 0
M  V30 1829 H 169.564 2.55833 1.79634 0
M  V30 1830 H 168.784 3.93239 -0.275046 0
M  V30 1831 H 170.072 5.08675 0.112793 0
M  V30 1832 H 169.47 4.62319 3.26002 0
M  V30 1833 H 168.027 5.53907 3.43556 0
M  V30 1834 N 171.46 0.379036 1.52974 0
M  V30 1835 C 172.39 -0.452706 2.29069 0
M  V30 1836 C 173.371 -1.07237 1.32039 0
M  V30 1837 O 174.556 -1.08708 1.60923 0
M  V30 1838 C 171.686 -1.5856 3.08992 0
M  V30 1839 C 170.64 -1.0925 4.13822 0
M  V30 1840 C 169.966 -2.31668 4.81907 0
M  V30 1841 C 171.266 -0.167702 5.22031 0
M  V30 1842 H 172.96 0.182181 2.98845 0
M  V30 1843 H 170.506 0.0890592 1.43724 0
M  V30 1844 H 172.459 -2.1742 3.6098 0
M  V30 1845 H 171.183 -2.24792 2.36931 0
M  V30 1846 H 169.842 -0.526494 3.628 0
M  V30 1847 H 169.49 -2.96386 4.06404 0
M  V30 1848 H 169.19 -1.9934 5.52754 0
M  V30 1849 H 170.714 -2.91189 5.36695 0
M  V30 1850 H 172.128 -0.664186 5.6944 0
M  V30 1851 H 170.525 0.0653265 6.00064 0
M  V30 1852 H 171.595 0.786347 4.78482 0
M  V30 1853 N 172.938 -1.57226 0.108567 0
M  V30 1854 C 174.184 -1.95121 -0.552761 0
M  V30 1855 C 174.517 -0.991345 -1.66991 0
M  V30 1856 O 173.792 -0.0267211 -1.94482 0
M  V30 1857 C 174.075 -3.43039 -1.09528 0
M  V30 1858 C 173.928 -4.49797 0.0177332 0
M  V30 1859 C 175.247 -3.92567 -1.98945 0
M  V30 1860 H 172.366 -0.709496 -0.199461 0
M  V30 1861 H 175.008 -1.89126 0.182011 0
M  V30 1862 H 173.158 -3.48279 -1.72146 0
M  V30 1863 H 174.83 -4.56661 0.652584 0
M  V30 1864 H 173.073 -4.284 0.682309 0
M  V30 1865 H 173.744 -5.50528 -0.402919 0
M  V30 1866 H 176.22 -3.89565 -1.46214 0
M  V30 1867 H 175.096 -4.96605 -2.33827 0
M  V30 1868 H 175.357 -3.32648 -2.91201 0
M  V30 1869 N 174.416 0.165178 -1.56732 0
M  V30 1870 C 175.662 0.882112 -1.82611 0
M  V30 1871 C 175.995 1.81628 -0.687378 0
M  V30 1872 O 175.27 1.92009 0.310267 0
M  V30 1873 C 175.553 1.67245 -3.18906 0
M  V30 1874 C 175.406 0.760987 -4.43316 0
M  V30 1875 C 176.725 2.63884 -3.52212 0
M  V30 1876 H 173.844 0.319242 -0.664269 0
M  V30 1877 H 176.486 0.148052 -1.89422 0
M  V30 1878 H 174.636 2.29824 -3.1323 0
M  V30 1879 H 176.308 0.147596 -4.61064 0
M  V30 1880 H 174.551 0.0694102 -4.33744 0
M  V30 1881 H 175.222 1.34962 -5.35247 0
M  V30 1882 H 177.698 2.11429 -3.58381 0
M  V30 1883 H 176.574 3.16245 -4.48643 0
M  V30 1884 H 176.835 3.44377 -2.77231 0
M  V30 1885 N 175.894 1.51508 0.433938 0
M  V30 1886 C 177.305 1.56784 1.01369 0
M  V30 1887 C 177.656 0.393349 1.92217 0
M  V30 1888 O 176.781 -0.489441 2.10792 0
M  V30 1889 C 177.376 2.84144 1.8452 0
M  V30 1890 C 175.935 2.9198 2.37539 0
M  V30 1891 C 175.082 2.51482 1.16843 0
M  V30 1892 H 178.033 1.57236 0.215081 0
M  V30 1893 H 178.054 2.68098 2.70007 0
M  V30 1894 H 177.566 3.69607 1.18373 0
M  V30 1895 H 175.667 2.10955 3.0713 0
M  V30 1896 H 175.78 3.95704 2.70103 0
M  V30 1897 H 174.144 2.04758 1.51481 0
M  V30 1898 H 174.927 3.39293 0.523015 0
M  V30 1899 N 177.372 -0.689602 1.41712 0
M  V30 1900 C 178.335 -1.78521 1.43746 0
M  V30 1901 C 179.335 -1.57436 0.327191 0
M  V30 1902 O 180.525 -1.64 0.587348 0
M  V30 1903 C 177.657 -3.16971 1.25467 0
M  V30 1904 H 178.85 -1.78108 2.41283 0
M  V30 1905 H 176.403 -0.89781 1.27942 0
M  V30 1906 H 177.138 -3.23019 0.287948 0
M  V30 1907 H 176.923 -3.33678 2.05917 0
M  V30 1908 H 178.413 -3.96935 1.2974 0
M  V30 1909 N 178.85 -1.27639 -0.924453 0
M  V30 1910 C 179.783 -1.04966 -2.02626 0
M  V30 1911 C 180.761 0.0309505 -1.62571 0
M  V30 1912 O 181.945 -0.114846 -1.8815 0
M  V30 1913 C 179.072 -0.59292 -3.3347 0
M  V30 1914 C 178.118 -1.66858 -3.92506 0
M  V30 1915 S 178.951 -3.2619 -4.24689 0
M  V30 1916 C 180.107 -2.82325 -5.58609 0
M  V30 1917 H 180.34 -1.98252 -2.21547 0
M  V30 1918 H 177.873 -1.11506 -1.06798 0
M  V30 1919 H 179.831 -0.336086 -4.09122 0
M  V30 1920 H 178.492 0.319939 -3.12466 0
M  V30 1921 H 177.685 -1.30038 -4.86935 0
M  V30 1922 H 177.287 -1.87766 -3.2345 0
M  V30 1923 H 179.579 -2.2783 -6.38044 0
M  V30 1924 H 180.522 -3.75511 -6.00331 0
M  V30 1925 H 180.93 -2.21367 -5.19285 0
M  V30 1926 N 180.328 1.1314 -1.09713 0
M  V30 1927 C 181.276 2.20717 -0.733934 0
M  V30 1928 C 182.27 1.6729 0.266506 0
M  V30 1929 O 183.476 1.79547 0.127656 0
M  V30 1930 H 179.851 0.719292 -0.21937 0
M  V30 1931 H 181.822 2.48611 -1.6503 0
M  V30 1932 C 180.571 3.47265 -0.173849 0
M  V30 1933 H 179.894 3.88716 -0.934873 0
M  V30 1934 H 181.334 4.23979 0.0423126 0
M  V30 1935 C 179.793 3.18724 1.09164 0
M  V30 1936 O 180.323 3.37762 2.17439 0
M  V30 1937 N 178.529 2.72583 1.00732 0
M  V30 1938 H 178.076 2.57291 0.126121 0
M  V30 1939 H 178.034 2.53862 1.85476 0
M  V30 1940 N 181.806 0.884767 1.30421 0
M  V30 1941 C 182.769 0.356277 2.26414 0
M  V30 1942 C 183.769 -0.501124 1.52792 0
M  V30 1943 O 184.959 -0.30831 1.7145 0
M  V30 1944 C 182.091 -0.492316 3.37326 0
M  V30 1945 H 183.284 1.20389 2.74675 0
M  V30 1946 H 180.837 0.661607 1.41607 0
M  V30 1947 H 181.572 -1.36052 2.94381 0
M  V30 1948 H 181.357 0.121832 3.91911 0
M  V30 1949 H 182.847 -0.853871 4.08777 0
M  V30 1950 N 183.284 -1.43765 0.645699 0
M  V30 1951 C 184.7 -1.56509 0.312591 0
M  V30 1952 C 184.9 -1.6307 -1.18365 0
M  V30 1953 O 183.956 -1.58167 -1.96824 0
M  V30 1954 C 185.269 -2.82968 1.01733 0
M  V30 1955 C 186.817 -2.96701 0.996865 0
M  V30 1956 C 187.292 -4.25982 1.68236 0
M  V30 1957 N 188.783 -4.32829 1.64964 0
M  V30 1958 C 189.518 -5.31613 2.14885 0
M  V30 1959 N 189.014 -6.36718 2.73061 0
M  V30 1960 N 190.807 -5.23217 2.05428 0
M  V30 1961 H 182.958 -1.3775 1.61675 0
M  V30 1962 H 185.221 -0.661067 0.679481 0
M  V30 1963 H 184.927 -2.84156 2.0724 0
M  V30 1964 H 184.801 -3.72957 0.564177 0
M  V30 1965 H 187.188 -2.95058 -0.0497719 0
M  V30 1966 H 187.269 -2.08022 1.48865 0
M  V30 1967 H 186.913 -4.28386 2.72852 0
M  V30 1968 H 186.843 -5.13545 1.16529 0
M  V30 1969 H 189.334 -3.57493 1.22503 0
M  V30 1970 H 189.647 -7.08401 3.08848 0
M  V30 1971 H 187.992 -6.37362 2.77118 0
M  V30 1972 H 191.183 -4.40019 1.59689 0
M  V30 1973 H 191.356 -6.00045 2.44643 0
M  V30 1974 N 184.763 -0.387143 -1.52771 0
M  V30 1975 C 185.993 0.195585 -2.05672 0
M  V30 1976 C 186.401 1.41241 -1.25887 0
M  V30 1977 O 185.744 1.81265 -0.298081 0
M  V30 1978 C 185.806 0.632327 -3.53895 0
M  V30 1979 C 185.47 -0.470739 -4.54569 0
M  V30 1980 C 186.467 -1.32746 -5.02667 0
M  V30 1981 C 184.152 -0.637151 -4.98243 0
M  V30 1982 C 186.146 -2.33574 -5.93061 0
M  V30 1983 C 183.833 -1.64877 -5.88438 0
M  V30 1984 C 184.831 -2.49649 -6.35739 0
M  V30 1985 O 184.519 -3.49082 -7.24153 0
M  V30 1986 H 184.251 0.033658 -0.675162 0
M  V30 1987 H 186.805 -0.550221 -1.97893 0
M  V30 1988 H 185.035 1.43008 -3.59285 0
M  V30 1989 H 186.724 1.14048 -3.89548 0
M  V30 1990 H 187.49 -1.21019 -4.69659 0
M  V30 1991 H 183.369 0.0129567 -4.60998 0
M  V30 1992 H 186.913 -2.99777 -6.29904 0
M  V30 1993 H 182.81 -1.76643 -6.2086 0
M  V30 1994 H 183.578 -3.45065 -7.42208 0
M  V30 1995 N 186.241 1.57166 -0.116904 0
M  V30 1996 C 187.204 2.14039 0.819742 0
M  V30 1997 C 188.204 1.07477 1.19605 0
M  V30 1998 O 189.394 1.33263 1.1219 0
M  V30 1999 C 186.526 2.67891 2.10826 0
M  V30 2000 H 187.719 2.98128 0.325511 0
M  V30 2001 H 185.272 1.55739 0.132312 0
M  V30 2002 H 186.007 1.87384 2.64685 0
M  V30 2003 H 185.792 3.45823 1.84793 0
M  V30 2004 H 187.282 3.11809 2.77785 0
M  V30 2005 N 187.719 -0.156864 1.56817 0
M  V30 2006 C 188.649 -1.19589 2.00551 0
M  V30 2007 C 189.63 -1.4536 0.883426 0
M  V30 2008 O 190.815 -1.56449 1.15054 0
M  V30 2009 C 187.945 -2.53143 2.37773 0
M  V30 2010 C 186.899 -2.41913 3.53075 0
M  V30 2011 C 186.225 -3.80088 3.76081 0
M  V30 2012 C 187.525 -1.91157 4.86062 0
M  V30 2013 H 189.219 -0.832293 2.87599 0
M  V30 2014 H 186.765 -0.398918 1.38364 0
M  V30 2015 H 188.718 -3.26047 2.66967 0
M  V30 2016 H 187.442 -2.91319 1.4765 0
M  V30 2017 H 186.101 -1.71462 3.24031 0
M  V30 2018 H 185.749 -4.15683 2.83225 0
M  V30 2019 H 185.449 -3.73439 4.53671 0
M  V30 2020 H 186.973 -4.54556 4.0769 0
M  V30 2021 H 188.387 -2.53846 5.14038 0
M  V30 2022 H 186.784 -1.95422 5.67389 0
M  V30 2023 H 187.854 -0.866673 4.77092 0
M  V30 2024 N 189.197 -1.51736 -0.425897 0
M  V30 2025 C 190.145 -1.74464 -1.53834 0
M  V30 2026 C 191.139 -0.611241 -1.57988 0
M  V30 2027 O 192.345 -0.792899 -1.61596 0
M  V30 2028 H 188.72 -0.551437 -0.511293 0
M  V30 2029 H 190.691 -2.67694 -1.31843 0
M  V30 2030 C 189.44 -1.8972 -2.91379 0
M  V30 2031 H 188.763 -2.76344 -2.88919 0
M  V30 2032 H 190.203 -2.09629 -3.68553 0
M  V30 2033 C 188.662 -0.65992 -3.30374 0
M  V30 2034 O 189.192 0.180083 -4.01296 0
M  V30 2035 N 187.398 -0.500677 -2.86254 0
M  V30 2036 H 186.945 -1.18532 -2.28709 0
M  V30 2037 H 186.903 0.325903 -3.12706 0
M  V30 2038 N 190.675 0.682077 -1.42076 0
M  V30 2039 C 191.638 1.77756 -1.44691 0
M  V30 2040 C 192.638 1.5726 -0.335535 0
M  V30 2041 O 193.828 1.63686 -0.596037 0
M  V30 2042 C 190.96 3.16301 -1.27146 0
M  V30 2043 H 192.153 1.76826 -2.42224 0
M  V30 2044 H 189.706 0.891012 -1.28416 0
M  V30 2045 H 190.441 3.22862 -0.305075 0
M  V30 2046 H 190.226 3.32581 -2.07683 0
M  V30 2047 H 191.716 3.96241 -1.31843 0
M  V30 2048 N 192.153 1.28127 0.917671 0
M  V30 2049 C 193.116 1.11744 2.00115 0
M  V30 2050 C 194.116 0.0583052 1.60694 0
M  V30 2051 O 195.306 0.303755 1.71531 0
M  V30 2052 C 192.438 0.704862 3.33533 0
M  V30 2053 H 193.631 2.07966 2.16079 0
M  V30 2054 H 191.184 1.11058 1.09981 0
M  V30 2055 H 191.919 -0.258299 3.2327 0
M  V30 2056 H 191.704 1.4699 3.63505 0
M  V30 2057 H 193.194 0.612768 4.1308 0
M  V30 2058 N 193.631 -1.12557 1.10312 0
M  V30 2059 C 194.579 -2.20325 0.745629 0
M  V30 2060 C 195.573 -1.67429 -0.25763 0
M  V30 2061 O 196.779 -1.79612 -0.118132 0
M  V30 2062 H 193.154 -0.718118 0.223182 0
M  V30 2063 H 195.125 -2.47733 1.66346 0
M  V30 2064 C 193.874 -3.47168 0.192262 0
M  V30 2065 H 193.197 -3.88215 0.955475 0
M  V30 2066 H 194.637 -4.23995 -0.0198274 0
M  V30 2067 C 193.096 -3.19298 -1.07472 0
M  V30 2068 O 193.626 -3.3891 -2.15645 0
M  V30 2069 N 191.832 -2.73113 -0.992847 0
M  V30 2070 H 191.379 -2.57354 -0.112474 0
M  V30 2071 H 191.337 -2.54842 -1.84127 0
M  V30 2072 N 195.109 -0.891671 -1.2995 0
M  V30 2073 C 196.072 -0.36828 -2.26222 0
M  V30 2074 C 197.072 0.493014 -1.53056 0
M  V30 2075 O 198.262 0.299213 -1.71611 0
M  V30 2076 C 195.394 0.47442 -3.37583 0
M  V30 2077 H 196.587 -1.21844 -2.74033 0
M  V30 2078 H 194.14 -0.669107 -1.41254 0
M  V30 2079 H 194.875 1.34489 -2.95099 0
M  V30 2080 H 194.66 -0.142615 -3.91841 0
M  V30 2081 H 196.15 0.83218 -4.09224 0
M  V30 2082 N 196.587 1.43421 -0.653314 0
M  V30 2083 C 198.003 1.56341 -0.320886 0
M  V30 2084 C 198.203 1.63696 1.17499 0
M  V30 2085 O 197.259 1.59208 1.95982 0
M  V30 2086 C 198.572 2.82424 -1.03233 0
M  V30 2087 C 200.12 2.96168 -1.01259 0
M  V30 2088 C 200.595 4.25084 -1.70492 0
M  V30 2089 N 202.086 4.31948 -1.67257 0
M  V30 2090 C 202.821 5.30466 -2.17701 0
M  V30 2091 N 202.317 6.35261 -2.76434 0
M  V30 2092 N 204.11 5.2212 -2.082 0
M  V30 2093 H 196.261 1.3689 -1.62403 0
M  V30 2094 H 198.524 0.657455 -0.682977 0
M  V30 2095 H 198.23 2.83053 -2.08744 0
M  V30 2096 H 198.104 3.72653 -0.583948 0
M  V30 2097 H 200.491 2.9508 0.0341235 0
M  V30 2098 H 200.572 2.07229 -1.49966 0
M  V30 2099 H 200.216 4.26932 -2.7512 0
M  V30 2100 H 200.146 5.1292 -1.19251 0
M  V30 2101 H 202.637 3.56838 -1.24398 0
M  V30 2102 H 202.95 7.06754 -3.12601 0
M  V30 2103 H 201.295 6.35884 -2.80495 0
M  V30 2104 H 204.486 4.39166 -1.62021 0
M  V30 2105 H 204.659 5.98739 -2.47822 0
M  V30 2106 N 198.065 0.39524 1.52563 0
M  V30 2107 C 199.311 -0.177763 2.02622 0
M  V30 2108 C 199.666 -1.43974 1.27629 0
M  V30 2109 O 198.959 -1.87995 0.36992 0
M  V30 2110 C 199.153 -0.493444 3.53977 0
M  V30 2111 C 198.982 0.736392 4.4363 0
M  V30 2112 C 197.752 1.25744 4.89404 0
M  V30 2113 C 199.95 1.61046 4.88435 0
M  V30 2114 N 197.932 2.44421 5.63145 0
M  V30 2115 C 199.303 2.64359 5.60816 0
M  V30 2116 C 201.358 1.62985 4.70468 0
M  V30 2117 C 200.061 3.69505 6.17137 0
M  V30 2118 C 202.087 2.67042 5.27677 0
M  V30 2119 C 201.449 3.69077 5.99968 0
M  V30 2120 H 197.548 -0.0269794 0.781534 0
M  V30 2121 H 200.132 0.546466 1.86874 0
M  V30 2122 H 198.303 -1.18672 3.69826 0
M  V30 2123 H 200.035 -1.05412 3.90731 0
M  V30 2124 H 196.79 0.817546 4.6649 0
M  V30 2125 H 197.214 3.04485 6.04663 0
M  V30 2126 H 201.856 0.854442 4.14076 0
M  V30 2127 H 199.574 4.4791 6.72608 0
M  V30 2128 H 203.16 2.69433 5.15652 0
M  V30 2129 H 202.04 4.48273 6.43444 0
M  V30 2130 N 199.544 -1.57102 0.125237 0
M  V30 2131 C 200.792 -1.95021 -0.530198 0
M  V30 2132 C 201.113 -1.00982 -1.66816 0
M  V30 2133 O 200.383 -0.0672693 -1.95784 0
M  V30 2134 H 198.963 -0.720046 -0.198853 0
M  V30 2135 H 201.625 -1.93916 0.19564 0
M  V30 2136 H 200.721 -2.98211 -0.920681 0
M  V30 2137 N 201.022 0.148545 -1.56898 0
M  V30 2138 C 202.247 0.880385 -1.87787 0
M  V30 2139 C 202.672 1.74018 -0.714093 0
M  V30 2140 O 202.03 1.78153 0.336343 0
M  V30 2141 C 202.078 1.71422 -3.17249 0
M  V30 2142 O 201.182 2.8183 -3.01074 0
M  V30 2143 H 200.523 0.245301 -0.617028 0
M  V30 2144 H 203.053 0.139826 -2.04122 0
M  V30 2145 H 203.063 2.10954 -3.49231 0
M  V30 2146 H 201.738 1.08284 -4.01556 0
M  V30 2147 H 200.315 2.45715 -2.80497 0
M  V30 2148 N 202.5 1.5196 0.417844 0
M  V30 2149 C 203.43 1.77634 1.51554 0
M  V30 2150 C 204.411 0.626918 1.58126 0
M  V30 2151 O 205.596 0.871632 1.7354 0
M  V30 2152 C 202.726 1.91911 2.8946 0
M  V30 2153 C 201.68 3.07463 2.97743 0
M  V30 2154 C 201.006 3.06951 4.37819 0
M  V30 2155 C 202.306 4.47082 2.70027 0
M  V30 2156 H 204 2.6955 1.3032 0
M  V30 2157 H 201.546 1.29706 0.625492 0
M  V30 2158 H 203.499 2.08455 3.6623 0
M  V30 2159 H 202.223 0.966598 3.11969 0
M  V30 2160 H 200.882 2.90656 2.23416 0
M  V30 2161 H 200.53 2.09438 4.57323 0
M  V30 2162 H 200.23 3.84556 4.44286 0
M  V30 2163 H 201.754 3.25613 5.16535 0
M  V30 2164 H 203.168 4.6414 3.36522 0
M  V30 2165 H 201.565 5.2654 2.87881 0
M  V30 2166 H 202.635 4.55777 1.65514 0
M  V30 2167 N 203.978 -0.674533 1.42435 0
M  V30 2168 C 205.208 -1.46071 1.46105 0
M  V30 2169 C 205.616 -1.89067 0.0709605 0
M  V30 2170 O 204.959 -1.58731 -0.924677 0
M  V30 2171 C 205.021 -2.74145 2.32561 0
M  V30 2172 C 204.685 -2.53224 3.8043 0
M  V30 2173 C 205.682 -2.17809 4.72075 0
M  V30 2174 C 203.367 -2.6821 4.24698 0
M  V30 2175 C 205.361 -1.97648 6.05982 0
M  V30 2176 C 203.048 -2.47665 5.58664 0
M  V30 2177 C 204.046 -2.12437 6.49122 0
M  V30 2178 O 203.734 -1.9209 7.80613 0
M  V30 2179 H 203.466 -0.455959 0.499076 0
M  V30 2180 H 206.02 -0.836193 1.87609 0
M  V30 2181 H 204.25 -3.3908 1.85908 0
M  V30 2182 H 205.939 -3.36028 2.27683 0
M  V30 2183 H 206.705 -2.05826 4.39159 0
M  V30 2184 H 202.584 -2.94609 3.54579 0
M  V30 2185 H 206.128 -1.70075 6.7655 0
M  V30 2186 H 202.025 -2.59244 5.91154 0
M  V30 2187 H 202.793 -2.06686 7.91974 0
M  V30 2188 N 205.456 -1.28612 -0.910864 0
M  V30 2189 C 206.733 -1.06632 -1.63979 0
M  V30 2190 C 207.113 0.393351 -2.07403 0
M  V30 2191 O 206.461 1.37999 -1.82122 0
M  V30 2192 C 206.671 -2.0436 -2.8291 0
M  V30 2193 C 208.019 -2.34666 -3.5386 0
M  V30 2194 O 209.043 -2.02467 -2.93062 0
M  V30 2195 O 207.902 -2.89631 -4.63439 0
M  V30 2196 H 204.996 -0.407737 -0.7195 0
M  V30 2197 H 207.542 -1.39942 -0.959914 0
M  V30 2198 H 206.314 -3.02727 -2.47936 0
M  V30 2199 H 205.937 -1.71714 -3.58609 0
M  V30 2200 N 206.934 1.1197 -1.10907 0
M  V30 2201 C 207.897 2.16031 -0.765707 0
M  V30 2202 C 208.897 1.59393 0.212235 0
M  V30 2203 O 210.087 1.74196 -0.0115441 0
M  V30 2204 C 207.219 3.40632 -0.135053 0
M  V30 2205 H 208.412 2.47919 -1.68748 0
M  V30 2206 H 205.965 1.27061 -0.910226 0
M  V30 2207 H 206.7 3.14348 0.797218 0
M  V30 2208 H 206.485 3.8302 -0.838937 0
M  V30 2209 H 207.975 4.17505 0.0892469 0
M  V30 2210 N 208.412 0.89855 1.29475 0
M  V30 2211 C 209.342 0.39201 2.30186 0
M  V30 2212 C 210.323 -0.532359 1.61555 0
M  V30 2213 O 211.508 -0.443331 1.89072 0
M  V30 2214 C 208.638 -0.382353 3.45189 0
M  V30 2215 C 207.592 0.451483 4.25612 0
M  V30 2216 C 206.918 -0.450307 5.328 0
M  V30 2217 C 208.218 1.70079 4.93832 0
M  V30 2218 H 209.912 1.23362 2.72804 0
M  V30 2219 H 207.458 0.594638 1.31149 0
M  V30 2220 H 209.411 -0.747451 4.14718 0
M  V30 2221 H 208.135 -1.25774 3.01411 0
M  V30 2222 H 206.794 0.798897 3.57789 0
M  V30 2223 H 206.442 -1.32379 4.85268 0
M  V30 2224 H 206.142 0.103902 5.87508 0
M  V30 2225 H 207.666 -0.811623 6.05182 0
M  V30 2226 H 209.08 1.40549 5.55805 0
M  V30 2227 H 207.477 2.19623 5.58467 0
M  V30 2228 H 208.547 2.43744 4.19186 0
M  V30 2229 N 209.89 -1.43072 0.660911 0
M  V30 2230 C 211.12 -2.05769 0.185153 0
M  V30 2231 C 211.528 -1.49668 -1.15742 0
M  V30 2232 O 210.871 -0.625649 -1.72717 0
M  V30 2233 C 210.933 -3.59489 0.0278237 0
M  V30 2234 C 210.597 -4.38212 1.2969 0
M  V30 2235 C 211.594 -4.69772 2.22734 0
M  V30 2236 C 209.279 -4.7809 1.54063 0
M  V30 2237 C 211.273 -5.40129 3.38437 0
M  V30 2238 C 208.96 -5.4819 2.70058 0
M  V30 2239 C 209.958 -5.79132 3.62071 0
M  V30 2240 O 209.646 -6.47798 4.76039 0
M  V30 2241 H 209.378 -0.669873 0.0908086 0
M  V30 2242 H 211.932 -1.84436 0.90402 0
M  V30 2243 H 210.162 -3.79426 -0.746489 0
M  V30 2244 H 211.851 -4.03862 -0.406275 0
M  V30 2245 H 212.617 -4.39476 2.05149 0
M  V30 2246 H 208.496 -4.53408 0.833215 0
M  V30 2247 H 212.04 -5.64198 4.10277 0
M  V30 2248 H 207.937 -5.77902 2.87574 0
M  V30 2249 H 208.705 -6.66283 4.75404 0
M  V30 2250 N 211.368 -0.403325 -1.52352 0
M  V30 2251 C 212.616 0.174003 -2.0135 0
M  V30 2252 C 212.937 1.46139 -1.29106 0
M  V30 2253 O 212.207 1.91448 -0.415253 0
M  V30 2254 H 210.787 0.0672911 -0.743963 0
M  V30 2255 H 213.449 -0.538235 -1.87321 0
M  V30 2256 H 212.545 0.374254 -3.09848 0
M  V30 2257 N 212.846 1.57033 -0.133567 0
M  V30 2258 C 214.071 2.00475 0.531477 0
M  V30 2259 C 214.496 1.01291 1.58499 0
M  V30 2260 O 213.854 -0.0133279 1.81295 0
M  V30 2261 C 213.902 3.42729 1.12113 0
M  V30 2262 O 213.006 3.46498 2.23636 0
M  V30 2263 H 212.347 0.650876 0.131362 0
M  V30 2264 H 214.877 2.03344 -0.22634 0
M  V30 2265 H 214.887 3.81246 1.4531 0
M  V30 2266 H 213.562 4.14428 0.349557 0
M  V30 2267 H 212.139 3.19811 1.91769 0
M  V30 2268 N 214.325 -0.140222 1.56975 0
M  V30 2269 C 215.602 -0.880769 1.74648 0
M  V30 2270 C 215.982 -1.99036 0.703404 0
M  V30 2271 O 215.33 -2.26821 -0.27648 0
M  V30 2272 C 215.54 -1.417 3.18939 0
M  V30 2273 C 216.888 -1.87774 3.80823 0
M  V30 2274 O 217.912 -1.51427 3.2241 0
M  V30 2275 O 216.771 -2.54827 4.83452 0
M  V30 2276 H 213.865 -0.416713 0.714338 0
M  V30 2277 H 216.411 -0.125618 1.69234 0
M  V30 2278 H 215.183 -0.619902 3.86359 0
M  V30 2279 H 214.806 -2.23546 3.28805 0
M  V30 2280 N 215.803 -1.52179 -0.40978 0
M  V30 2281 C 217.052 -1.65434 -1.15388 0
M  V30 2282 C 217.365 -0.390056 -1.91671 0
M  V30 2283 O 218.571 -0.402399 -2.68501 0
M  V30 2284 C 217.027 -2.92279 -2.10003 0
M  V30 2285 C 216.635 -4.25813 -1.39239 0
M  V30 2286 C 218.379 -3.14897 -2.84675 0
M  V30 2287 C 216.286 -5.43782 -2.32498 0
M  V30 2288 H 215.216 -0.616267 -0.434432 0
M  V30 2289 H 217.867 -1.78666 -0.418401 0
M  V30 2290 H 216.249 -2.72744 -2.871 0
M  V30 2291 H 217.423 -4.55828 -0.675099 0
M  V30 2292 H 215.738 -4.09292 -0.766097 0
M  V30 2293 H 218.335 -4.0021 -3.54593 0
M  V30 2294 H 218.678 -2.29103 -3.47588 0
M  V30 2295 H 219.211 -3.34901 -2.14677 0
M  V30 2296 H 215.95 -6.3192 -1.74233 0
M  V30 2297 H 215.47 -5.18106 -3.02201 0
M  V30 2298 H 217.149 -5.76834 -2.93038 0
M  V30 2299 N 217.281 0.66697 -1.42791 0
M  V30 2300 C 218.53 1.42278 -1.42968 0
M  V30 2301 C 218.843 1.9553 -0.0524489 0
M  V30 2302 O 220.049 2.71414 0.068363 0
M  V30 2303 C 218.505 2.57418 -2.51524 0
M  V30 2304 C 218.113 2.10832 -3.9529 0
M  V30 2305 C 219.857 3.34878 -2.60877 0
M  V30 2306 C 217.764 3.23101 -4.95338 0
M  V30 2307 H 216.694 0.534533 -0.531781 0
M  V30 2308 H 219.345 0.721302 -1.68729 0
M  V30 2309 H 217.727 3.29971 -2.18941 0
M  V30 2310 H 218.901 1.4538 -4.37266 0
M  V30 2311 H 217.216 1.46289 -3.89857 0
M  V30 2312 H 219.813 4.18505 -3.32802 0
M  V30 2313 H 220.156 3.81993 -1.6549 0
M  V30 2314 H 220.689 2.69398 -2.92693 0
M  V30 2315 H 217.428 2.80969 -5.9223 0
M  V30 2316 H 216.948 3.87309 -4.57987 0
M  V30 2317 H 218.627 3.88447 -5.17415 0
M  V30 2318 N 218.759 1.29093 0.90403 0
M  V30 2319 C 220.17 1.15186 1.46932 0
M  V30 2320 C 220.521 -0.254587 1.94541 0
M  V30 2321 O 219.646 -1.14972 1.83332 0
M  V30 2322 C 220.241 2.08492 2.67051 0
M  V30 2323 C 218.8 1.98621 3.19729 0
M  V30 2324 C 217.947 1.9967 1.92425 0
M  V30 2325 H 220.898 1.41641 0.715789 0
M  V30 2326 H 220.919 1.65461 3.42641 0
M  V30 2327 H 220.431 3.10847 2.3237 0
M  V30 2328 H 218.532 0.993389 3.59114 0
M  V30 2329 H 218.645 2.86068 3.8432 0
M  V30 2330 H 217.009 1.44208 2.09943 0
M  V30 2331 H 217.792 3.03721 1.60026 0
M  V30 2332 N 220.237 -1.11381 1.11499 0
M  V30 2333 C 221.169 -2.17207 0.731704 0
M  V30 2334 C 222.182 -1.61066 -0.236957 0
M  V30 2335 O 223.371 -1.78489 -0.0197591 0
M  V30 2336 C 220.471 -3.38846 0.0607624 0
M  V30 2337 C 219.644 -4.24451 1.0564 0
M  V30 2338 C 218.703 -5.24562 0.4149 0
M  V30 2339 O 217.729 -5.59071 1.069 0
M  V30 2340 N 218.931 -5.74651 -0.821943 0
M  V30 2341 H 221.696 -2.50699 1.64225 0
M  V30 2342 H 219.257 -1.26908 1.00529 0
M  V30 2343 H 221.249 -4.02911 -0.380139 0
M  V30 2344 H 219.819 -3.03411 -0.752376 0
M  V30 2345 H 219.039 -3.56833 1.67524 0
M  V30 2346 H 220.327 -4.78486 1.72998 0
M  V30 2347 H 219.725 -5.48797 -1.37252 0
M  V30 2348 H 218.282 -6.40549 -1.20582 0
M  V30 2349 N 221.715 -0.905404 -1.28997 0
M  V30 2350 C 222.625 -0.392246 -2.31298 0
M  V30 2351 C 223.641 0.515889 -1.66176 0
M  V30 2352 O 224.817 0.404093 -1.97304 0
M  V30 2353 C 221.882 0.36686 -3.44754 0
M  V30 2354 C 220.943 -0.573485 -4.25452 0
M  V30 2355 C 220.176 0.149488 -5.33491 0
M  V30 2356 O 220.399 1.37255 -5.5364 0
M  V30 2357 O 219.333 -0.510919 -5.99728 0
M  V30 2358 H 223.159 -1.2411 -2.77183 0
M  V30 2359 H 220.744 -0.669926 -1.33538 0
M  V30 2360 H 222.626 0.795907 -4.13816 0
M  V30 2361 H 221.301 1.19169 -3.00966 0
M  V30 2362 H 220.208 -1.05176 -3.59011 0
M  V30 2363 H 221.541 -1.36489 -4.72897 0
M  V30 2364 N 223.193 1.4272 -0.668489 0
M  V30 2365 C 224.441 2.01226 -0.187769 0
M  V30 2366 C 224.762 1.53092 1.2078 0
M  V30 2367 O 224.032 0.74993 1.80977 0
M  V30 2368 H 222.612 0.744041 -0.0664272 0
M  V30 2369 H 225.274 1.74723 -0.863583 0
M  V30 2370 H 224.37 3.11556 -0.184166 0
M  V30 2371 N 224.671 0.411399 1.52136 0
M  V30 2372 C 225.634 -0.401089 2.25663 0
M  V30 2373 C 226.634 -0.971732 1.28117 0
M  V30 2374 O 227.824 -0.850254 1.52041 0
M  V30 2375 C 224.956 -1.56483 3.02863 0
M  V30 2376 H 226.149 0.24295 2.98914 0
M  V30 2377 H 223.702 0.163968 1.55438 0
M  V30 2378 H 224.437 -2.24567 2.33967 0
M  V30 2379 H 224.222 -1.16211 3.74483 0
M  V30 2380 H 225.712 -2.13951 3.58629 0
M  V30 2381 N 226.149 -1.5696 0.141893 0
M  V30 2382 C 227.082 -2.12271 -0.837627 0
M  V30 2383 C 228.06 -1.04495 -1.24578 0
M  V30 2384 O 229.244 -1.32293 -1.34278 0
M  V30 2385 C 226.371 -2.63822 -2.12404 0
M  V30 2386 C 225.417 -3.83698 -1.86221 0
M  V30 2387 S 226.25 -5.24948 -1.05781 0
M  V30 2388 C 227.406 -5.79884 -2.35552 0
M  V30 2389 H 227.639 -2.95023 -0.367249 0
M  V30 2390 H 225.172 -1.54231 -0.0723014 0
M  V30 2391 H 227.13 -2.94175 -2.86307 0
M  V30 2392 H 225.791 -1.8121 -2.56557 0
M  V30 2393 H 224.984 -4.17995 -2.81596 0
M  V30 2394 H 224.586 -3.5408 -1.20429 0
M  V30 2395 H 226.878 -5.91005 -3.31239 0
M  V30 2396 H 227.821 -6.77544 -2.05767 0
M  V30 2397 H 228.229 -5.08095 -2.45967 0
M  V30 2398 N 227.627 0.131896 -1.57047 0
M  V30 2399 C 228.873 0.843179 -1.84441 0
M  V30 2400 C 229.206 1.80129 -0.725749 0
M  V30 2401 O 228.481 1.92624 0.269469 0
M  V30 2402 C 228.764 1.60442 -3.22382 0
M  V30 2403 C 228.617 0.666782 -4.4483 0
M  V30 2404 C 229.936 2.56354 -3.5773 0
M  V30 2405 H 227.055 0.305081 -0.670891 0
M  V30 2406 H 229.697 0.107839 -1.89694 0
M  V30 2407 H 227.847 2.23128 -3.18035 0
M  V30 2408 H 229.519 0.0497646 -4.61273 0
M  V30 2409 H 227.762 -0.022609 -4.33794 0
M  V30 2410 H 228.433 1.23579 -5.37989 0
M  V30 2411 H 230.909 2.0378 -3.62785 0
M  V30 2412 H 229.785 3.06657 -4.5525 0
M  V30 2413 H 230.046 3.38419 -2.84473 0
M  V30 2414 N 229.106 1.52395 0.401703 0
M  V30 2415 C 230.331 1.70972 1.17403 0
M  V30 2416 C 230.756 0.421615 1.83314 0
M  V30 2417 O 230.114 -0.621564 1.70312 0
M  V30 2418 C 230.162 2.85151 2.20728 0
M  V30 2419 O 229.266 2.51238 3.27037 0
M  V30 2420 H 228.607 0.568927 0.342372 0
M  V30 2421 H 231.137 1.99131 0.469891 0
M  V30 2422 H 231.147 3.10279 2.64936 0
M  V30 2423 H 229.822 3.78603 1.7214 0
M  V30 2424 H 228.399 2.36808 2.88057 0
M  V30 2425 N 230.584 -0.659388 1.43143 0
M  V30 2426 C 231.832 -1.41654 1.44147 0
M  V30 2427 C 232.153 -1.94893 0.0645739 0
M  V30 2428 O 231.423 -1.74044 -0.899198 0
M  V30 2429 H 230.003 -0.525708 0.530697 0
M  V30 2430 H 232.665 -0.778097 1.78694 0
M  V30 2431 H 231.761 -2.26195 2.1504 0
M  V30 2432 N 232.062 -1.29571 -0.897171 0
M  V30 2433 C 233.292 -1.20408 -1.67886 0
M  V30 2434 C 233.7 0.237429 -1.87704 0
M  V30 2435 O 233.043 1.17048 -1.41582 0
M  V30 2436 C 233.105 -1.84887 -3.08314 0
M  V30 2437 C 232.769 -3.34189 -3.11716 0
M  V30 2438 C 233.766 -4.30374 -2.91675 0
M  V30 2439 C 231.451 -3.75431 -3.33701 0
M  V30 2440 C 233.445 -5.65776 -2.93557 0
M  V30 2441 C 231.132 -5.10955 -3.35214 0
M  V30 2442 C 232.13 -6.05938 -3.15164 0
M  V30 2443 O 231.818 -7.38987 -3.1647 0
M  V30 2444 H 231.55 -0.418289 -0.531046 0
M  V30 2445 H 234.104 -1.71514 -1.13014 0
M  V30 2446 H 232.334 -1.28295 -3.64798 0
M  V30 2447 H 234.023 -1.70011 -3.6858 0
M  V30 2448 H 234.789 -3.99844 -2.74499 0
M  V30 2449 H 230.668 -3.01953 -3.48347 0
M  V30 2450 H 234.212 -6.39889 -2.77826 0
M  V30 2451 H 230.109 -5.4113 -3.51922 0
M  V30 2452 H 230.877 -7.47823 -3.3272 0
M  V30 2453 N 233.54 1.10788 -1.12088 0
M  V30 2454 C 234.817 1.79136 -0.785476 0
M  V30 2455 C 235.197 1.98246 0.725377 0
M  V30 2456 O 234.545 1.57258 1.65778 0
M  V30 2457 C 234.755 3.12375 -1.55636 0
M  V30 2458 C 236.103 3.8731 -1.74001 0
M  V30 2459 O 237.127 3.22085 -1.52117 0
M  V30 2460 O 235.986 5.04369 -2.10415 0
M  V30 2461 H 233.08 0.776226 -0.285311 0
M  V30 2462 H 235.626 1.1747 -1.2247 0
M  V30 2463 H 234.398 2.93863 -2.5838 0
M  V30 2464 H 234.021 3.81758 -1.11114 0
M  V30 2465 N 235.018 0.912232 1.28515 0
M  V30 2466 C 236.429 0.591352 1.77087 0
M  V30 2467 C 236.78 -0.8933 1.74684 0
M  V30 2468 O 235.905 -1.69876 1.34056 0
M  V30 2469 C 236.5 1.06668 3.2157 0
M  V30 2470 C 235.059 0.79675 3.67871 0
M  V30 2471 C 234.206 1.23427 2.48316 0
M  V30 2472 H 237.157 1.09365 1.15 0
M  V30 2473 H 237.178 0.407455 3.78312 0
M  V30 2474 H 236.69 2.14726 3.23287 0
M  V30 2475 H 234.791 -0.270679 3.71616 0
M  V30 2476 H 234.904 1.40343 4.58084 0
M  V30 2477 H 233.268 0.653036 2.46186 0
M  V30 2478 H 234.051 2.32316 2.52753 0
M  V30 2479 N 236.496 -1.42363 0.676048 0
M  V30 2480 C 237.428 -2.29164 -0.0404605 0
M  V30 2481 C 238.441 -1.43747 -0.764245 0
M  V30 2482 O 239.63 -1.67453 -0.618195 0
M  V30 2483 C 236.73 -3.21196 -1.08103 0
M  V30 2484 C 235.903 -4.35273 -0.430812 0
M  V30 2485 C 234.962 -5.08017 -1.37133 0
M  V30 2486 O 233.988 -5.62494 -0.87116 0
M  V30 2487 N 235.19 -5.13647 -2.70456 0
M  V30 2488 H 237.955 -2.91298 0.704667 0
M  V30 2489 H 235.516 -1.53303 0.520559 0
M  V30 2490 H 237.508 -3.66728 -1.71152 0
M  V30 2491 H 236.078 -2.60505 -1.72788 0
M  V30 2492 H 235.298 -3.92372 0.379209 0
M  V30 2493 H 236.586 -5.08795 0.0221132 0
M  V30 2494 H 235.984 -4.708 -3.1363 0
M  V30 2495 H 234.541 -5.62821 -3.28749 0
M  V30 2496 N 237.974 -0.419461 -1.51915 0
M  V30 2497 C 239.39 -0.0708431 -1.59443 0
M  V30 2498 C 239.59 1.41796 -1.43164 0
M  V30 2499 O 238.646 2.18596 -1.26381 0
M  V30 2500 C 239.959 -0.574991 -2.95151 0
M  V30 2501 C 241.507 -0.533867 -3.08413 0
M  V30 2502 C 241.982 -1.01469 -4.46618 0
M  V30 2503 N 243.473 -0.971939 -4.52888 0
M  V30 2504 C 244.208 -1.31505 -5.58116 0
M  V30 2505 N 243.704 -1.73014 -6.70849 0
M  V30 2506 N 245.497 -1.23436 -5.48379 0
M  V30 2507 H 237.648 -1.38836 -1.60743 0
M  V30 2508 H 239.911 -0.570998 -0.756747 0
M  V30 2509 H 239.617 -1.61597 -3.12377 0
M  V30 2510 H 239.491 0.00979777 -3.77199 0
M  V30 2511 H 241.878 0.498086 -2.90866 0
M  V30 2512 H 241.959 -1.15484 -2.28248 0
M  V30 2513 H 241.603 -2.04502 -4.6491 0
M  V30 2514 H 241.533 -0.370433 -5.25295 0
M  V30 2515 H 244.024 -0.666893 -3.71969 0
M  V30 2516 H 244.337 -1.97479 -7.47143 0
M  V30 2517 H 242.682 -1.76926 -6.72103 0
M  V30 2518 H 245.873 -0.908869 -4.59192 0
M  V30 2519 H 246.046 -1.50506 -6.30279 0
M  V30 2520 N 239.452 1.56882 -0.150215 0
M  V30 2521 C 240.7 1.9584 0.499105 0
M  V30 2522 C 241.021 1.03623 1.65188 0
M  V30 2523 O 240.291 0.0984084 1.95653 0
M  V30 2524 H 238.871 0.723119 0.187373 0
M  V30 2525 H 241.533 1.9358 -0.226466 0
M  V30 2526 H 240.629 2.99638 0.873122 0
M  V30 2527 N 240.93 -0.123565 1.57115 0
M  V30 2528 C 241.84 -1.17074 2.033 0
M  V30 2529 C 242.856 -1.4561 0.952559 0
M  V30 2530 O 244.032 -1.56817 1.26374 0
M  V30 2531 C 241.097 -2.47857 2.42421 0
M  V30 2532 C 240.158 -2.26758 3.64526 0
M  V30 2533 C 239.391 -3.51305 4.01771 0
M  V30 2534 O 239.614 -4.5843 3.39409 0
M  V30 2535 O 238.548 -3.42578 4.94898 0
M  V30 2536 H 242.374 -0.808555 2.92739 0
M  V30 2537 H 239.959 -0.334027 1.45618 0
M  V30 2538 H 241.841 -3.2492 2.68338 0
M  V30 2539 H 240.516 -2.83558 1.5613 0
M  V30 2540 H 239.423 -1.47569 3.43765 0
M  V30 2541 H 240.756 -1.95963 4.51508 0
M  V30 2542 N 242.408 -1.52605 -0.393616 0
M  V30 2543 C 243.34 -1.73303 -1.49995 0
M  V30 2544 C 244.353 -0.613473 -1.50799 0
M  V30 2545 O 245.542 -0.889049 -1.54784 0
M  V30 2546 C 242.642 -1.77245 -2.88855 0
M  V30 2547 C 241.815 -3.06483 -3.12069 0
M  V30 2548 C 240.874 -3.02033 -4.30886 0
M  V30 2549 O 239.9 -3.75907 -4.27414 0
M  V30 2550 N 241.102 -2.20897 -5.36828 0
M  V30 2551 H 243.867 -2.68756 -1.32629 0
M  V30 2552 H 241.428 -1.51036 -0.583083 0
M  V30 2553 H 243.42 -1.7178 -3.66434 0
M  V30 2554 H 241.99 -0.891993 -2.99603 0
M  V30 2555 H 241.21 -3.25474 -2.22396 0
M  V30 2556 H 242.498 -3.91947 -3.2443 0
M  V30 2557 H 241.896 -1.60336 -5.42502 0
M  V30 2558 H 240.453 -2.21275 -6.13091 0
M  V30 2559 N 243.887 0.651787 -1.4349 0
M  V30 2560 C 245.133 1.41376 -1.45398 0
M  V30 2561 C 245.466 1.94041 -0.0784823 0
M  V30 2562 O 244.741 1.72379 0.900878 0
M  V30 2563 C 245.024 2.59414 -2.49752 0
M  V30 2564 C 244.877 2.12232 -3.96582 0
M  V30 2565 C 246.196 3.61626 -2.50827 0
M  V30 2566 H 243.315 0.512719 -0.529422 0
M  V30 2567 H 245.957 0.738796 -1.75048 0
M  V30 2568 H 244.107 3.16997 -2.246 0
M  V30 2569 H 245.779 1.59639 -4.32797 0
M  V30 2570 H 244.022 1.43592 -4.09346 0
M  V30 2571 H 244.693 2.9712 -4.65214 0
M  V30 2572 H 247.169 3.13805 -2.7325 0
M  V30 2573 H 246.045 4.41766 -3.25783 0
M  V30 2574 H 246.306 4.14314 -1.5426 0
M  V30 2575 N 245.365 1.30045 0.890287 0
M  V30 2576 C 246.614 1.17929 1.63633 0
M  V30 2577 C 246.927 -0.266204 1.9378 0
M  V30 2578 O 248.133 -0.508804 2.6669 0
M  V30 2579 C 246.589 2.06317 2.94892 0
M  V30 2580 C 246.197 3.55745 2.72305 0
M  V30 2581 C 247.941 2.0295 3.72843 0
M  V30 2582 C 245.848 4.36205 3.99348 0
M  V30 2583 H 244.778 0.437782 0.613892 0
M  V30 2584 H 247.429 1.54754 0.986075 0
M  V30 2585 H 245.811 1.6237 3.61182 0
M  V30 2586 H 246.985 4.07805 2.1455 0
M  V30 2587 H 245.3 3.6088 2.07737 0
M  V30 2588 H 247.897 2.60319 4.67053 0
M  V30 2589 H 248.24 1.0117 4.0382 0
M  V30 2590 H 248.773 2.4499 3.13408 0
M  V30 2591 H 245.512 5.38659 3.73533 0
M  V30 2592 H 245.032 3.8891 4.56628 0
M  V30 2593 H 246.711 4.47362 4.67415 0
M  V30 2594 N 246.843 -1.10192 1.12674 0
M  V30 2595 C 247.806 -2.14786 0.799979 0
M  V30 2596 C 248.806 -1.59711 -0.18685 0
M  V30 2597 O 249.996 -1.74156 0.0392558 0
M  V30 2598 C 247.128 -3.40374 0.189228 0
M  V30 2599 H 248.321 -2.45203 1.72671 0
M  V30 2600 H 245.874 -1.25597 0.930326 0
M  V30 2601 H 246.609 -3.15577 -0.747107 0
M  V30 2602 H 246.394 -3.81637 0.899766 0
M  V30 2603 H 247.884 -4.17594 -0.0228143 0
M  V30 2604 N 248.321 -0.919034 -1.28029 0
M  V30 2605 C 249.567 -0.565221 -1.95389 0
M  V30 2606 C 249.922 0.882325 -1.70976 0
M  V30 2607 O 249.215 1.61988 -1.02325 0
M  V30 2608 C 249.409 -0.816855 -3.4794 0
M  V30 2609 C 249.238 -2.28731 -3.87185 0
M  V30 2610 C 248.008 -2.93841 -4.11079 0
M  V30 2611 C 250.206 -3.26415 -3.97439 0
M  V30 2612 N 248.188 -4.31129 -4.37037 0
M  V30 2613 C 249.559 -4.48884 -4.27672 0
M  V30 2614 C 251.614 -3.21742 -3.79982 0
M  V30 2615 C 250.317 -5.67268 -4.42266 0
M  V30 2616 C 252.343 -4.39431 -3.95796 0
M  V30 2617 C 251.705 -5.60675 -4.26407 0
M  V30 2618 H 247.804 -0.256797 -0.738633 0
M  V30 2619 H 250.388 -1.18386 -1.54573 0
M  V30 2620 H 248.559 -0.227445 -3.87733 0
M  V30 2621 H 250.291 -0.426542 -4.02446 0
M  V30 2622 H 247.046 -2.44547 -4.05578 0
M  V30 2623 H 247.47 -5.02127 -4.5409 0
M  V30 2624 H 252.112 -2.29079 -3.55363 0
M  V30 2625 H 249.83 -6.60406 -4.65714 0
M  V30 2626 H 253.416 -4.37323 -3.83719 0
M  V30 2627 H 252.296 -6.50223 -4.38383 0
M  V30 2628 N 249.799 1.42003 -0.683588 0
M  V30 2629 C 251.045 2.01712 -0.209825 0
M  V30 2630 C 251.378 1.53968 1.18353 0
M  V30 2631 O 250.653 0.745661 1.79639 0
M  V30 2632 C 250.936 3.59202 -0.254197 0
M  V30 2633 C 250.789 4.17102 -1.68363 0
M  V30 2634 C 252.108 4.38344 0.392709 0
M  V30 2635 H 249.227 0.732891 -0.0777189 0
M  V30 2636 H 251.869 1.68909 -0.87004 0
M  V30 2637 H 250.019 3.87278 0.307954 0
M  V30 2638 H 251.691 3.99946 -2.29871 0
M  V30 2639 H 249.934 3.72597 -2.22157 0
M  V30 2640 H 250.605 5.26249 -1.6663 0
M  V30 2641 H 253.081 4.16011 -0.0859162 0
M  V30 2642 H 251.957 5.47901 0.331063 0
M  V30 2643 H 252.218 4.16887 1.47164 0
M  V30 2644 N 251.277 0.427512 1.51691 0
M  V30 2645 C 252.693 0.0792977 1.59403 0
M  V30 2646 C 252.893 -1.41035 1.43914 0
M  V30 2647 O 251.949 -2.17922 1.27539 0
M  V30 2648 C 253.262 0.590636 2.94842 0
M  V30 2649 C 254.81 0.550215 3.08126 0
M  V30 2650 C 255.285 1.03836 4.46074 0
M  V30 2651 N 256.776 0.995943 4.52366 0
M  V30 2652 C 257.511 1.34463 5.57411 0
M  V30 2653 N 257.007 1.76569 6.69922 0
M  V30 2654 N 258.8 1.26343 5.47717 0
M  V30 2655 H 250.951 1.39687 1.60004 0
M  V30 2656 H 253.214 0.575003 0.753708 0
M  V30 2657 H 252.92 1.63251 3.11516 0
M  V30 2658 H 252.794 0.0102061 3.77199 0
M  V30 2659 H 255.181 -0.482654 2.91126 0
M  V30 2660 H 255.262 1.16693 2.27632 0
M  V30 2661 H 254.906 2.06965 4.63819 0
M  V30 2662 H 254.836 0.398286 5.25092 0
M  V30 2663 H 257.327 0.68661 3.7161 0
M  V30 2664 H 257.64 2.01438 7.46085 0
M  V30 2665 H 255.985 1.80488 6.71155 0
M  V30 2666 H 259.176 0.933209 4.58703 0
M  V30 2667 H 259.349 1.53846 6.29472 0
M  V30 2668 N 252.755 -1.56801 0.158532 0
M  V30 2669 C 254.171 -1.5837 -0.197774 0
M  V30 2670 C 254.371 -1.17334 -1.63814 0
M  V30 2671 O 253.427 -0.878988 -2.36707 0
M  V30 2672 C 254.74 -3.00615 0.0714459 0
M  V30 2673 C 256.288 -3.12999 0.00864533 0
M  V30 2674 C 256.763 -4.57313 0.250685 0
M  V30 2675 N 258.254 -4.62777 0.198014 0
M  V30 2676 C 258.989 -5.72271 0.359642 0
M  V30 2677 N 258.485 -6.90371 0.579625 0
M  V30 2678 N 260.278 -5.61318 0.296438 0
M  V30 2679 H 252.429 -1.81765 1.09887 0
M  V30 2680 H 254.692 -0.841849 0.435884 0
M  V30 2681 H 254.398 -3.35068 1.06874 0
M  V30 2682 H 254.272 -3.71683 -0.642757 0
M  V30 2683 H 256.659 -2.7838 -0.979217 0
M  V30 2684 H 256.74 -2.44393 0.755359 0
M  V30 2685 H 256.384 -4.92639 1.2357 0
M  V30 2686 H 256.314 -5.24061 -0.516489 0
M  V30 2687 H 258.805 -3.77885 0.0331115 0
M  V30 2688 H 259.118 -7.69689 0.69275 0
M  V30 2689 H 257.463 -6.92264 0.616087 0
M  V30 2690 H 260.654 -4.67932 0.125258 0
M  V30 2691 H 260.827 -6.46599 0.425831 0
M  V30 2692 N 254.233 0.115231 -1.57178 0
M  V30 2693 C 255.48 0.822351 -1.8505 0
M  V30 2694 C 255.808 1.79701 -0.744168 0
M  V30 2695 O 255.063 1.93909 0.26414 0
M  V30 2696 C 255.362 1.60324 -3.19423 0
M  V30 2697 C 255.028 0.772536 -4.44233 0
M  V30 2698 C 253.69 0.543468 -4.78121 0
M  V30 2699 C 256.042 0.193746 -5.2084 0
M  V30 2700 C 253.37 -0.274583 -5.86057 0
M  V30 2701 C 255.722 -0.611517 -6.29637 0
M  V30 2702 C 254.386 -0.850867 -6.62055 0
M  V30 2703 H 253.656 0.30092 -0.677147 0
M  V30 2704 H 256.303 0.0845802 -1.91313 0
M  V30 2705 H 254.608 2.41203 -3.08753 0
M  V30 2706 H 256.305 2.1544 -3.38211 0
M  V30 2707 H 252.895 0.96117 -4.17683 0
M  V30 2708 H 257.079 0.357926 -4.95008 0
M  V30 2709 H 252.335 -0.469206 -6.09597 0
M  V30 2710 H 256.509 -1.06697 -6.88178 0
M  V30 2711 H 254.136 -1.48657 -7.45523 0
M  V30 2712 N 255.711 1.52812 0.385517 0
M  V30 2713 C 256.641 1.80808 1.47752 0
M  V30 2714 C 257.622 0.660318 1.5676 0
M  V30 2715 O 258.807 0.908246 1.71652 0
M  V30 2716 C 255.937 1.98008 2.85324 0
M  V30 2717 C 254.891 3.13709 2.91154 0
M  V30 2718 C 254.217 3.16169 4.31209 0
M  V30 2719 C 255.517 4.52709 2.60483 0
M  V30 2720 H 257.211 2.72253 1.24573 0
M  V30 2721 H 254.757 1.31003 0.597839 0
M  V30 2722 H 256.71 2.16176 3.61726 0
M  V30 2723 H 255.434 1.03255 3.09848 0
M  V30 2724 H 254.093 2.95329 2.17201 0
M  V30 2725 H 253.741 2.19092 4.52778 0
M  V30 2726 H 253.441 3.93894 4.36029 0
M  V30 2727 H 254.965 3.36496 5.09512 0
M  V30 2728 H 256.379 4.71173 3.26602 0
M  V30 2729 H 254.776 5.32528 2.76648 0
M  V30 2730 H 255.846 4.59186 1.55809 0
M  V30 2731 N 257.189 -0.644168 1.43834 0
M  V30 2732 C 258.466 -1.40188 1.36406 0
M  V30 2733 C 258.846 -2.11094 0.0163124 0
M  V30 2734 O 258.194 -2.05426 -1.00062 0
M  V30 2735 C 258.404 -2.3791 2.55343 0
M  V30 2736 C 259.752 -3.01637 2.98832 0
M  V30 2737 O 260.776 -2.48237 2.55455 0
M  V30 2738 O 259.635 -3.98477 3.74003 0
M  V30 2739 H 256.729 -0.626773 0.539523 0
M  V30 2740 H 259.275 -0.670317 1.559 0
M  V30 2741 H 258.047 -1.84525 3.4506 0
M  V30 2742 H 257.67 -3.18503 2.37995 0
M  V30 2743 N 258.668 -1.30515 -0.883378 0
M  V30 2744 C 259.578 -1.18959 -2.02203 0
M  V30 2745 C 260.594 -0.109172 -1.73657 0
M  V30 2746 O 261.77 -0.324413 -1.9877 0
M  V30 2747 C 258.835 -0.883871 -3.35244 0
M  V30 2748 C 257.896 -2.04982 -3.77201 0
M  V30 2749 C 257.129 -1.75859 -5.03894 0
M  V30 2750 O 257.352 -0.687276 -5.66244 0
M  V30 2751 O 256.286 -2.61146 -5.42297 0
M  V30 2752 H 260.112 -2.14616 -2.1488 0
M  V30 2753 H 257.697 -1.10124 -1.0096 0
M  V30 2754 H 259.579 -0.728644 -4.15053 0
M  V30 2755 H 258.254 0.0427798 -3.23672 0
M  V30 2756 H 257.161 -2.26038 -2.9809 0
M  V30 2757 H 258.494 -2.95825 -3.93381 0
M  V30 2758 N 260.146 1.09593 -1.13257 0
M  V30 2759 C 261.371 1.8604 -0.916732 0
M  V30 2760 C 261.796 1.80504 0.529146 0
M  V30 2761 O 261.154 1.18127 1.37534 0
M  V30 2762 C 261.202 3.32017 -1.40703 0
M  V30 2763 O 260.306 4.08141 -0.591153 0
M  V30 2764 H 259.647 0.576943 -0.328683 0
M  V30 2765 H 262.177 1.38405 -1.50682 0
M  V30 2766 H 262.187 3.82865 -1.4099 0
M  V30 2767 H 260.862 3.35361 -2.45979 0
M  V30 2768 H 259.439 3.67084 -0.656005 0
M  V30 2769 N 261.624 0.925811 1.2754 0
M  V30 2770 C 262.554 0.440748 2.29303 0
M  V30 2771 C 263.535 -0.497971 1.62648 0
M  V30 2772 O 264.72 -0.403126 1.8997 0
M  V30 2773 C 261.85 -0.309048 3.45922 0
M  V30 2774 C 260.804 0.54166 4.24559 0
M  V30 2775 C 260.13 -0.337191 5.33636 0
M  V30 2776 C 261.43 1.80516 4.90114 0
M  V30 2777 H 263.124 1.29121 2.70126 0
M  V30 2778 H 260.67 0.622323 1.29858 0
M  V30 2779 H 262.623 -0.659315 4.1621 0
M  V30 2780 H 261.347 -1.19352 3.04011 0
M  V30 2781 H 260.006 0.874609 3.56014 0
M  V30 2782 H 259.654 -1.22056 4.87966 0
M  V30 2783 H 259.354 0.228497 5.87156 0
M  V30 2784 H 260.878 -0.683072 6.06767 0
M  V30 2785 H 262.292 1.52307 5.52698 0
M  V30 2786 H 260.689 2.3142 5.53683 0
M  V30 2787 H 261.759 2.52581 4.13921 0
M  V30 2788 N 263.102 -1.41638 0.69111 0
M  V30 2789 C 264.513 -1.84346 0.295517 0
M  V30 2790 C 264.864 -1.57833 -1.16547 0
M  V30 2791 O 263.989 -1.04648 -1.89414 0
M  V30 2792 C 264.584 -3.34636 0.529575 0
M  V30 2793 C 263.143 -3.7593 0.187944 0
M  V30 2794 C 262.29 -2.65082 0.814052 0
M  V30 2795 H 265.241 -1.31253 0.892092 0
M  V30 2796 H 265.262 -3.79903 -0.213148 0
M  V30 2797 H 264.774 -3.53901 1.59297 0
M  V30 2798 H 262.875 -3.62268 -0.871367 0
M  V30 2799 H 262.988 -4.74808 0.63985 0
M  V30 2800 H 261.352 -2.53528 0.244017 0
M  V30 2801 H 262.135 -2.87167 1.88123 0
M  V30 2802 N 264.58 -0.43555 -1.51462 0
M  V30 2803 C 265.51 0.367376 -2.30592 0
M  V30 2804 C 266.491 1.02263 -1.35928 0
M  V30 2805 O 267.676 1.02661 -1.64847 0
M  V30 2806 C 264.806 1.46983 -3.14664 0
M  V30 2807 C 263.76 0.938161 -4.17591 0
M  V30 2808 C 263.086 2.13622 -4.90173 0
M  V30 2809 C 264.386 -0.0261621 -5.22293 0
M  V30 2810 H 266.08 -0.292969 -2.97963 0
M  V30 2811 H 263.626 -0.14234 -1.43295 0
M  V30 2812 H 265.579 2.03873 -3.688 0
M  V30 2813 H 264.303 2.15843 -2.4511 0
M  V30 2814 H 262.962 0.391481 -3.64504 0
M  V30 2815 H 262.61 2.81098 -4.17124 0
M  V30 2816 H 262.31 1.78688 -5.59772 0
M  V30 2817 H 263.834 2.7107 -5.47132 0
M  V30 2818 H 265.248 0.452384 -5.71512 0
M  V30 2819 H 263.645 -0.287992 -5.99409 0
M  V30 2820 H 264.715 -0.963391 -4.75233 0
M  V30 2821 N 266.058 1.56714 -0.166846 0
M  V30 2822 C 266.968 2.21331 0.777791 0
M  V30 2823 C 267.984 1.20358 1.25658 0
M  V30 2824 O 269.16 1.53005 1.30964 0
M  V30 2825 C 266.225 2.83787 1.99163 0
M  V30 2826 C 265.286 3.99947 1.56016 0
M  V30 2827 C 264.519 4.59415 2.71613 0
M  V30 2828 O 264.742 4.17769 3.88362 0
M  V30 2829 O 263.676 5.49359 2.45945 0
M  V30 2830 H 267.502 3.02605 0.257636 0
M  V30 2831 H 265.087 1.49275 0.0611393 0
M  V30 2832 H 266.969 3.23405 2.70161 0
M  V30 2833 H 265.644 2.05513 2.50092 0
M  V30 2834 H 264.551 3.65007 0.819809 0
M  V30 2835 H 265.884 4.79801 1.09782 0
M  V30 2836 N 267.536 -0.106894 1.57237 0
M  V30 2837 C 268.484 -1.14944 2.02215 0
M  V30 2838 C 269.478 -1.42167 0.92114 0
M  V30 2839 O 270.684 -1.41987 1.10634 0
M  V30 2840 H 267.059 -0.387841 0.64427 0
M  V30 2841 H 269.03 -0.743683 2.88984 0
M  V30 2842 C 267.779 -2.4647 2.4525 0
M  V30 2843 H 267.102 -2.26363 3.29545 0
M  V30 2844 H 268.542 -3.17948 2.80508 0
M  V30 2845 C 267.001 -3.09921 1.321 0
M  V30 2846 O 267.531 -3.9651 0.643622 0
M  V30 2847 N 265.737 -2.69986 1.07497 0
M  V30 2848 H 265.284 -1.99667 1.62761 0
M  V30 2849 H 265.242 -3.12769 0.319876 0
M  V30 2850 N 269.014 -1.53014 -0.377408 0
M  V30 2851 C 270.262 -1.6829 -1.11906 0
M  V30 2852 C 270.583 -0.431206 -1.90173 0
M  V30 2853 O 269.853 0.554595 -1.87886 0
M  V30 2854 H 268.433 -0.620371 -0.416112 0
M  V30 2855 H 271.095 -1.90167 -0.426893 0
M  V30 2856 H 270.191 -2.53862 -1.8155 0
M  V30 2857 N 270.492 0.636531 -1.44174 0
M  V30 2858 C 271.717 1.42847 -1.50364 0
M  V30 2859 C 272.142 1.87665 -0.127867 0
M  V30 2860 O 271.5 1.58408 0.88185 0
M  V30 2861 C 271.548 2.62854 -2.4686 0
M  V30 2862 O 270.652 3.62501 -1.9664 0
M  V30 2863 H 269.993 0.427642 -0.507955 0
M  V30 2864 H 272.523 0.777422 -1.89255 0
M  V30 2865 H 272.533 3.10465 -2.64718 0
M  V30 2866 H 271.208 2.29578 -3.46795 0
M  V30 2867 H 269.785 3.21735 -1.88523 0
M  V30 2868 N 271.97 1.30982 0.876444 0
M  V30 2869 C 273.2 1.23063 1.65949 0
M  V30 2870 C 273.608 -0.207537 1.88058 0
M  V30 2871 O 272.951 -1.14781 1.43426 0
M  V30 2872 C 273.013 1.89768 3.05333 0
M  V30 2873 C 272.677 3.39106 3.0636 0
M  V30 2874 C 273.674 4.3496 2.84791 0
M  V30 2875 C 271.359 3.80693 3.27686 0
M  V30 2876 C 273.353 5.70375 2.84519 0
M  V30 2877 C 271.04 5.16223 3.27043 0
M  V30 2878 C 272.038 6.10875 3.05485 0
M  V30 2879 O 271.726 7.43928 3.04674 0
M  V30 2880 H 271.458 0.426685 0.524324 0
M  V30 2881 H 274.012 1.7329 1.10271 0
M  V30 2882 H 272.242 1.34082 3.6271 0
M  V30 2883 H 273.931 1.75853 3.65829 0
M  V30 2884 H 274.697 4.0416 2.68103 0
M  V30 2885 H 270.576 3.07457 3.43499 0
M  V30 2886 H 274.12 6.44228 2.67611 0
M  V30 2887 H 270.017 5.4666 3.43269 0
M  V30 2888 H 270.785 7.53022 3.2078 0
M  V30 2889 N 273.449 -1.08991 1.13837 0
M  V30 2890 C 274.381 -2.15606 0.777612 0
M  V30 2891 C 275.394 -1.61533 -0.202739 0
M  V30 2892 O 276.583 -1.78491 0.0181055 0
M  V30 2893 C 273.683 -3.3864 0.132623 0
M  V30 2894 C 272.856 -4.22115 1.1462 0
M  V30 2895 C 271.915 -5.23564 0.526074 0
M  V30 2896 O 270.941 -5.56678 1.18735 0
M  V30 2897 N 272.143 -5.76266 -0.699866 0
M  V30 2898 H 274.908 -2.47159 1.69506 0
M  V30 2899 H 272.469 -1.24747 1.03198 0
M  V30 2900 H 274.461 -4.03626 -0.29459 0
M  V30 2901 H 273.031 -3.04938 -0.687849 0
M  V30 2902 H 272.251 -3.53199 1.75055 0
M  V30 2903 H 273.539 -4.74709 1.83109 0
M  V30 2904 H 272.937 -5.51585 -1.25581 0
M  V30 2905 H 271.494 -6.42963 -1.06968 0
M  V30 2906 N 274.927 -0.932562 -1.27047 0
M  V30 2907 C 276.204 -0.49377 -1.89265 0
M  V30 2908 C 276.584 1.02833 -1.8436 0
M  V30 2909 O 275.932 1.88461 -1.29209 0
M  V30 2910 C 276.142 -1.04536 -3.32976 0
M  V30 2911 C 277.49 -1.10879 -4.09867 0
M  V30 2912 O 278.514 -0.995327 -3.42011 0
M  V30 2913 O 277.373 -1.28417 -5.31198 0
M  V30 2914 H 274.467 -0.159596 -0.811454 0
M  V30 2915 H 277.013 -1.02457 -1.3528 0
M  V30 2916 H 275.785 -2.08913 -3.30864 0
M  V30 2917 H 275.408 -0.496494 -3.94488 0
M  V30 2918 N 276.405 1.4127 -0.698611 0
M  V30 2919 C 277.651 2.01478 -0.231207 0
M  V30 2920 C 277.984 1.55215 1.16713 0
M  V30 2921 O 277.259 0.764672 1.78838 0
M  V30 2922 C 277.542 3.58912 -0.292281 0
M  V30 2923 C 277.395 4.15293 -1.72778 0
M  V30 2924 C 278.714 4.38736 0.346194 0
M  V30 2925 H 275.833 0.732025 -0.0854878 0
M  V30 2926 H 278.475 1.67977 -0.887906 0
M  V30 2927 H 276.625 3.87582 0.26686 0
M  V30 2928 H 278.297 3.97486 -2.341 0
M  V30 2929 H 276.54 3.7022 -2.26096 0
M  V30 2930 H 277.211 5.24452 -1.72202 0
M  V30 2931 H 279.687 4.15897 -0.130035 0
M  V30 2932 H 278.563 5.48221 0.272932 0
M  V30 2933 H 278.824 4.18425 1.42734 0
M  V30 2934 N 277.883 0.443576 1.51229 0
M  V30 2935 C 279.129 -0.120975 2.02439 0
M  V30 2936 C 279.462 -1.41815 1.32674 0
M  V30 2937 O 278.737 -1.89373 0.443622 0
M  V30 2938 C 279.02 -0.333291 3.58554 0
M  V30 2939 C 278.873 0.982968 4.38928 0
M  V30 2940 C 280.192 -1.10028 4.26124 0
M  V30 2941 H 277.311 -0.0424923 0.735774 0
M  V30 2942 H 279.953 0.583794 1.80809 0
M  V30 2943 H 278.103 -0.933614 3.77115 0
M  V30 2944 H 279.775 1.61775 4.32003 0
M  V30 2945 H 278.018 1.58611 4.03763 0
M  V30 2946 H 278.689 0.788379 5.46341 0
M  V30 2947 H 281.165 -0.591711 4.11871 0
M  V30 2948 H 280.041 -1.21761 5.35225 0
M  V30 2949 H 280.302 -2.12996 3.87408 0
M  V30 2950 N 279.361 -1.56624 0.175154 0
M  V30 2951 C 280.324 -2.16934 -0.739738 0
M  V30 2952 C 281.324 -1.11842 -1.15533 0
M  V30 2953 O 282.514 -1.37335 -1.07167 0
M  V30 2954 C 279.646 -2.75531 -2.00738 0
M  V30 2955 H 280.839 -2.99131 -0.214639 0
M  V30 2956 H 278.392 -1.56123 -0.0744197 0
M  V30 2957 H 279.127 -1.97078 -2.57548 0
M  V30 2958 H 278.912 -3.52444 -1.71831 0
M  V30 2959 H 280.402 -3.21904 -2.66021 0
M  V30 2960 N 280.839 0.0985539 -1.57292 0
M  V30 2961 C 282.086 0.802678 -1.85912 0
M  V30 2962 C 282.414 1.78901 -0.763186 0
M  V30 2963 O 281.669 1.94178 0.243559 0
M  V30 2964 C 281.968 1.56927 -3.21105 0
M  V30 2965 C 281.634 0.725376 -4.45027 0
M  V30 2966 C 280.296 0.492726 -4.78671 0
M  V30 2967 C 282.648 0.138493 -5.21016 0
M  V30 2968 C 279.976 -0.336727 -5.85733 0
M  V30 2969 C 282.328 -0.678264 -6.28953 0
M  V30 2970 C 280.992 -0.921039 -6.61115 0
M  V30 2971 H 280.262 0.293721 -0.680301 0
M  V30 2972 H 282.909 0.0642841 -1.91392 0
M  V30 2973 H 281.214 2.37914 -3.11294 0
M  V30 2974 H 282.911 2.11841 -3.40477 0
M  V30 2975 H 279.501 0.916815 -4.18679 0
M  V30 2976 H 283.685 0.305404 -4.95359 0
M  V30 2977 H 278.941 -0.533836 -6.09065 0
M  V30 2978 H 283.115 -1.1399 -6.87007 0
M  V30 2979 H 280.742 -1.56556 -7.43905 0
M  V30 2980 N 282.317 1.53212 0.369288 0
M  V30 2981 C 283.264 1.79388 1.45219 0
M  V30 2982 C 284.234 0.638059 1.53356 0
M  V30 2983 O 285.419 0.879852 1.69302 0
M  V30 2984 C 282.559 1.98623 2.82211 0
M  V30 2985 C 281.672 3.26337 2.8307 0
M  V30 2986 C 280.807 3.35779 4.11614 0
M  V30 2987 C 279.846 4.5754 4.06601 0
M  V30 2988 N 278.983 4.64155 5.26787 0
M  V30 2989 H 283.823 2.71794 1.22198 0
M  V30 2990 H 281.36 1.34642 0.592444 0
M  V30 2991 H 283.318 2.07761 3.61789 0
M  V30 2992 H 281.948 1.09558 3.03639 0
M  V30 2993 H 281 3.26171 1.95747 0
M  V30 2994 H 282.312 4.15988 2.75237 0
M  V30 2995 H 281.466 3.44208 4.99606 0
M  V30 2996 H 280.205 2.44137 4.22195 0
M  V30 2997 H 279.21 4.49215 3.16996 0
M  V30 2998 H 280.435 5.50519 3.97625 0
M  V30 2999 H 278.381 3.75413 5.3796 0
M  V30 3000 H 278.298 5.47706 5.21109 0
M  V30 3001 H 279.566 4.76863 6.16621 0
M  V30 3002 N 283.795 -0.628877 1.44509 0
M  V30 3003 C 285.041 -1.39045 1.47629 0
M  V30 3004 C 285.374 -1.93892 0.109343 0
M  V30 3005 O 284.649 -1.7379 -0.87334 0
M  V30 3006 C 284.932 -2.55408 2.53848 0
M  V30 3007 C 284.785 -2.05896 3.99909 0
M  V30 3008 C 286.104 -3.5759 2.56549 0
M  V30 3009 H 283.223 -0.504232 0.537512 0
M  V30 3010 H 285.865 -0.710854 1.76201 0
M  V30 3011 H 284.015 -3.13384 2.29615 0
M  V30 3012 H 285.687 -1.52734 4.35282 0
M  V30 3013 H 283.93 -1.37061 4.11578 0
M  V30 3014 H 284.601 -2.89681 4.69882 0
M  V30 3015 H 287.077 -3.09419 2.78207 0
M  V30 3016 H 285.953 -4.36527 3.32769 0
M  V30 3017 H 286.214 -4.11808 1.60832 0
M  V30 3018 N 285.273 -1.31445 -0.869486 0
M  V30 3019 C 286.519 -1.21337 -1.62496 0
M  V30 3020 C 286.852 0.227872 -1.92858 0
M  V30 3021 O 286.127 1.16094 -1.56053 0
M  V30 3022 C 286.41 -2.05814 -2.95487 0
M  V30 3023 C 286.263 -3.5824 -2.72 0
M  V30 3024 C 287.582 -1.9079 -3.96594 0
M  V30 3025 H 284.701 -0.442135 -0.589649 0
M  V30 3026 H 287.343 -1.6124 -1.00507 0
M  V30 3027 H 285.493 -1.71913 -3.48394 0
M  V30 3028 H 287.165 -4.0228 -2.25762 0
M  V30 3029 H 285.408 -3.81647 -2.06224 0
M  V30 3030 H 286.079 -4.12657 -3.66631 0
M  V30 3031 H 288.555 -2.20459 -3.52898 0
M  V30 3032 H 287.431 -2.52199 -4.87531 0
M  V30 3033 H 287.692 -0.871341 -4.33428 0
M  V30 3034 N 286.751 1.08385 -1.14413 0
M  V30 3035 C 288.028 1.77429 -0.823297 0
M  V30 3036 C 288.408 1.9974 0.683163 0
M  V30 3037 O 287.756 1.60739 1.62405 0
M  V30 3038 C 287.966 3.09004 -1.62227 0
M  V30 3039 C 289.314 3.83532 -1.82177 0
M  V30 3040 O 290.338 3.18786 -1.58915 0
M  V30 3041 O 289.197 4.99792 -2.21067 0
M  V30 3042 H 286.291 0.769999 -0.301712 0
M  V30 3043 H 288.837 1.14846 -1.24934 0
M  V30 3044 H 287.609 2.88316 -2.64555 0
M  V30 3045 H 287.232 3.79316 -1.19187 0
M  V30 3046 N 288.23 0.939286 1.26551 0
M  V30 3047 C 289.177 0.446088 2.26448 0
M  V30 3048 C 290.147 -0.493234 1.58608 0
M  V30 3049 O 291.332 -0.409857 1.86346 0
M  V30 3050 C 288.472 -0.284375 3.43926 0
M  V30 3051 C 287.585 0.690399 4.26448 0
M  V30 3052 C 286.72 -0.0610712 5.31165 0
M  V30 3053 C 285.759 0.905649 6.05363 0
M  V30 3054 N 284.896 0.186055 7.01853 0
M  V30 3055 H 289.736 1.30291 2.68008 0
M  V30 3056 H 287.273 0.65371 1.31776 0
M  V30 3057 H 289.231 -0.724313 4.10864 0
M  V30 3058 H 287.861 -1.10535 3.03285 0
M  V30 3059 H 286.913 1.24885 3.59316 0
M  V30 3060 H 288.225 1.42873 4.779 0
M  V30 3061 H 287.379 -0.56038 6.04106 0
M  V30 3062 H 286.118 -0.832297 4.80546 0
M  V30 3063 H 285.123 1.4161 5.3125 0
M  V30 3064 H 286.348 1.67685 6.58072 0
M  V30 3065 H 284.294 -0.566714 6.53548 0
M  V30 3066 H 284.211 0.863752 7.51049 0
M  V30 3067 H 285.479 -0.292221 7.78952 0
M  V30 3068 N 289.708 -1.40897 0.706093 0
M  V30 3069 C 290.64 -2.29199 0.00815776 0
M  V30 3070 C 291.653 -1.45336 -0.733582 0
M  V30 3071 O 292.842 -1.68727 -0.582537 0
M  V30 3072 C 289.942 -3.23417 -1.01265 0
M  V30 3073 C 289.115 -4.36089 -0.338387 0
M  V30 3074 C 288.174 -5.10811 -1.26326 0
M  V30 3075 O 287.2 -5.64215 -0.751651 0
M  V30 3076 N 288.402 -5.19269 -2.595 0
M  V30 3077 H 291.167 -2.89738 0.766297 0
M  V30 3078 H 288.728 -1.52164 0.55296 0
M  V30 3079 H 290.72 -3.70276 -1.63334 0
M  V30 3080 H 289.29 -2.64112 -1.67223 0
M  V30 3081 H 288.51 -3.91479 0.462352 0
M  V30 3082 H 289.798 -5.08634 0.130031 0
M  V30 3083 H 289.196 -4.77347 -3.03573 0
M  V30 3084 H 287.753 -5.69667 -3.16737 0
M  V30 3085 N 291.186 -0.45159 -1.50991 0
M  V30 3086 C 292.116 0.342898 -2.30969 0
M  V30 3087 C 293.097 1.00815 -1.37005 0
M  V30 3088 O 294.282 1.00907 -1.65926 0
M  V30 3089 C 291.412 1.43637 -3.16205 0
M  V30 3090 C 290.366 0.893818 -4.18563 0
M  V30 3091 C 289.692 2.08411 -4.92411 0
M  V30 3092 C 290.992 -0.0815568 -5.22236 0
M  V30 3093 H 292.686 -0.324556 -2.97636 0
M  V30 3094 H 290.232 -0.157531 -1.43136 0
M  V30 3095 H 292.185 1.9995 -3.70942 0
M  V30 3096 H 290.909 2.13232 -2.47386 0
M  V30 3097 H 289.568 0.352798 -3.64898 0
M  V30 3098 H 289.216 2.76658 -4.20082 0
M  V30 3099 H 288.916 1.72741 -5.61636 0
M  V30 3100 H 290.44 2.65251 -5.49976 0
M  V30 3101 H 291.854 0.391742 -5.7196 0
M  V30 3102 H 290.251 -0.351551 -5.99069 0
M  V30 3103 H 291.321 -1.01374 -4.74185 0
M  V30 3104 N 292.664 1.56529 -0.183458 0
M  V30 3105 C 294.08 1.58664 0.172554 0
M  V30 3106 C 294.28 1.19925 1.61926 0
M  V30 3107 O 293.336 0.916534 2.35278 0
M  V30 3108 C 294.649 3.00463 -0.119262 0
M  V30 3109 C 296.197 3.12945 -0.0584396 0
M  V30 3110 C 296.672 4.56857 -0.323408 0
M  V30 3111 N 298.163 4.62403 -0.271612 0
M  V30 3112 C 298.898 5.71626 -0.450639 0
M  V30 3113 N 298.394 6.89362 -0.689384 0
M  V30 3114 N 300.187 5.60775 -0.385701 0
M  V30 3115 H 292.338 1.79994 -1.12765 0
M  V30 3116 H 294.601 0.834808 -0.449222 0
M  V30 3117 H 294.307 3.33326 -1.12192 0
M  V30 3118 H 294.181 3.72659 0.583544 0
M  V30 3119 H 296.568 2.79902 0.934805 0
M  V30 3120 H 296.649 2.4316 -0.794144 0
M  V30 3121 H 296.293 4.9061 -1.31392 0
M  V30 3122 H 296.223 5.24816 0.43305 0
M  V30 3123 H 298.714 3.77785 -0.0932256 0
M  V30 3124 H 299.027 7.68489 -0.815113 0
M  V30 3125 H 297.372 6.91196 -0.726142 0
M  V30 3126 H 300.563 4.67674 -0.199687 0
M  V30 3127 H 300.736 6.4584 -0.528646 0
M  V30 3128 N 294.142 -0.090211 1.57342 0
M  V30 3129 C 295.391 -0.791531 1.8552 0
M  V30 3130 C 295.704 -1.79659 0.773441 0
M  V30 3131 O 296.91 -2.54616 0.942497 0
M  V30 3132 C 295.366 -1.45856 3.2902 0
M  V30 3133 C 294.974 -0.493017 4.45279 0
M  V30 3134 C 296.718 -2.14332 3.66418 0
M  V30 3135 C 294.625 -1.16491 5.79814 0
M  V30 3136 H 293.555 -0.299356 0.692027 0
M  V30 3137 H 296.206 -0.0445343 1.83446 0
M  V30 3138 H 294.588 -2.25318 3.2565 0
M  V30 3139 H 295.762 0.270464 4.60006 0
M  V30 3140 H 294.077 0.0863061 4.16311 0
M  V30 3141 H 296.674 -2.65344 4.64216 0
M  V30 3142 H 297.017 -2.93447 2.95287 0
M  V30 3143 H 297.55 -1.41724 3.71698 0
M  V30 3144 H 294.289 -0.41447 6.54188 0
M  V30 3145 H 293.809 -1.8997 5.68921 0
M  V30 3146 H 295.488 -1.69001 6.24538 0
M  V30 3147 N 295.62 -1.53406 -0.361157 0
M  V30 3148 C 296.552 -1.76446 -1.46286 0
M  V30 3149 C 297.565 -0.645322 -1.49464 0
M  V30 3150 O 298.754 -0.921681 -1.52864 0
M  V30 3151 C 295.854 -1.83332 -2.85031 0
M  V30 3152 C 295.027 -3.13033 -3.05498 0
M  V30 3153 C 294.086 -3.11104 -4.24383 0
M  V30 3154 O 293.112 -3.84888 -4.19344 0
M  V30 3155 N 294.314 -2.32234 -5.32022 0
M  V30 3156 H 297.079 -2.71508 -1.26899 0
M  V30 3157 H 294.64 -1.52238 -0.550915 0
M  V30 3158 H 296.632 -1.79514 -3.62708 0
M  V30 3159 H 295.202 -0.955342 -2.97644 0
M  V30 3160 H 294.422 -3.30119 -2.15442 0
M  V30 3161 H 295.71 -3.9874 -3.16044 0
M  V30 3162 H 295.108 -1.71807 -5.38979 0
M  V30 3163 H 293.665 -2.3423 -6.08259 0
M  V30 3164 N 297.098 0.621204 -1.44841 0
M  V30 3165 C 298.028 1.74366 -1.55303 0
M  V30 3166 C 299.009 1.65199 -0.405385 0
M  V30 3167 O 300.194 1.83807 -0.626787 0
M  V30 3168 C 297.324 3.12931 -1.50637 0
M  V30 3169 C 296.278 3.36896 -2.63979 0
M  V30 3170 C 295.604 4.75594 -2.44366 0
M  V30 3171 C 296.904 3.28483 -4.06074 0
M  V30 3172 H 298.598 1.65867 -2.49256 0
M  V30 3173 H 296.144 0.796558 -1.19962 0
M  V30 3174 H 298.097 3.9124 -1.56555 0
M  V30 3175 H 296.821 3.22237 -0.532057 0
M  V30 3176 H 295.48 2.60972 -2.57467 0
M  V30 3177 H 295.128 4.81616 -1.45105 0
M  V30 3178 H 294.828 4.92586 -3.20364 0
M  V30 3179 H 296.352 5.5612 -2.52117 0
M  V30 3180 H 297.766 3.96684 -4.13902 0
M  V30 3181 H 296.163 3.57008 -4.82354 0
M  V30 3182 H 297.233 2.26133 -4.28943 0
M  V30 3183 N 298.576 1.31904 0.862503 0
M  V30 3184 C 299.523 1.20182 1.9704 0
M  V30 3185 C 300.493 0.0858247 1.65878 0
M  V30 3186 O 301.678 0.26 1.8902 0
M  V30 3187 C 298.818 0.922797 3.32533 0
M  V30 3188 C 297.931 2.12284 3.76244 0
M  V30 3189 C 297.066 1.77996 5.00491 0
M  V30 3190 C 296.105 2.94366 5.36671 0
M  V30 3191 N 295.242 2.60223 6.52095 0
M  V30 3192 H 300.082 2.14951 2.06398 0
M  V30 3193 H 297.619 1.06917 1.01031 0
M  V30 3194 H 299.577 0.741548 4.10557 0
M  V30 3195 H 298.207 0.0119227 3.22798 0
M  V30 3196 H 297.259 2.41461 2.9394 0
M  V30 3197 H 298.571 2.99357 3.98982 0
M  V30 3198 H 297.725 1.56377 5.862 0
M  V30 3199 H 296.464 0.881252 4.79672 0
M  V30 3200 H 295.469 3.16625 4.49476 0
M  V30 3201 H 296.694 3.84957 5.59451 0
M  V30 3202 H 294.64 1.72884 6.32809 0
M  V30 3203 H 294.557 3.40827 6.74814 0
M  V30 3204 H 295.825 2.42016 7.40978 0
M  V30 3205 N 300.054 -1.07777 1.14986 0
M  V30 3206 C 301.002 -2.16964 0.838406 0
M  V30 3207 C 301.996 -1.68372 -0.186386 0
M  V30 3208 O 303.202 -1.79951 -0.0418465 0
M  V30 3209 H 299.577 -0.708006 0.253439 0
M  V30 3210 H 301.548 -2.40454 1.76704 0
M  V30 3211 C 300.297 -3.4604 0.339335 0
M  V30 3212 H 299.62 -3.83813 1.11927 0
M  V30 3213 H 301.06 -4.23698 0.160021 0
M  V30 3214 C 299.519 -3.23569 -0.938325 0
M  V30 3215 O 300.049 -3.47752 -2.01077 0
M  V30 3216 N 298.255 -2.77079 -0.876117 0
M  V30 3217 H 297.802 -2.576 -0.00322037 0
M  V30 3218 H 297.76 -2.62422 -1.73153 0
M  V30 3219 N 301.532 -0.945985 -1.26051 0
M  V30 3220 C 302.78 -0.594941 -1.93145 0
M  V30 3221 C 303.101 0.86953 -1.7454 0
M  V30 3222 O 302.371 1.61838 -1.10387 0
M  V30 3223 H 300.951 -0.217044 -0.714773 0
M  V30 3224 H 303.613 -1.20235 -1.53393 0
M  V30 3225 H 302.709 -0.816835 -3.01221 0
M  V30 3226 N 303.011 1.40521 -0.713556 0
M  V30 3227 C 303.958 2.30723 -0.059684 0
M  V30 3228 C 304.928 1.48079 0.752448 0
M  V30 3229 O 306.113 1.76823 0.71681 0
M  V30 3230 C 303.253 3.34274 0.857594 0
M  V30 3231 C 302.366 4.31986 0.0351536 0
M  V30 3232 C 301.501 5.22605 0.951724 0
M  V30 3233 C 300.54 6.11976 0.123253 0
M  V30 3234 N 299.677 6.9502 0.99459 0
M  V30 3235 H 304.517 2.86074 -0.834596 0
M  V30 3236 H 302.054 1.40879 -0.42326 0
M  V30 3237 H 304.012 3.92879 1.40364 0
M  V30 3238 H 302.642 2.8043 1.59871 0
M  V30 3239 H 301.694 3.7518 -0.628052 0
M  V30 3240 H 303.006 4.95101 -0.606347 0
M  V30 3241 H 302.16 5.86131 1.56638 0
M  V30 3242 H 300.899 4.59759 1.62705 0
M  V30 3243 H 299.904 5.47482 -0.50435 0
M  V30 3244 H 301.129 6.76881 -0.548539 0
M  V30 3245 H 299.075 6.34764 1.6556 0
M  V30 3246 H 298.992 7.54892 0.40908 0
M  V30 3247 H 300.26 7.62997 1.59549 0
M  V30 3248 N 304.489 0.459591 1.5075 0
M  V30 3249 C 305.399 -0.34613 2.32033 0
M  V30 3250 C 306.415 -1.00686 1.41909 0
M  V30 3251 O 307.591 -0.997361 1.7497 0
M  V30 3252 C 304.656 -1.42029 3.16273 0
M  V30 3253 C 303.717 -0.777362 4.22203 0
M  V30 3254 C 302.95 -1.80034 5.02418 0
M  V30 3255 O 303.173 -3.02544 4.83553 0
M  V30 3256 O 302.107 -1.37853 5.85901 0
M  V30 3257 H 305.933 0.318054 3.0203 0
M  V30 3258 H 303.518 0.221663 1.47746 0
M  V30 3259 H 305.4 -2.04275 3.68578 0
M  V30 3260 H 304.075 -2.06815 2.49016 0
M  V30 3261 H 302.982 -0.116256 3.73919 0
M  V30 3262 H 304.315 -0.172634 4.91897 0
M  V30 3263 N 305.967 -1.56429 0.191757 0
M  V30 3264 C 307.195 -2.01867 -0.453586 0
M  V30 3265 C 307.61 -1.07191 -1.5542 0
M  V30 3266 O 306.967 -0.0762108 -1.82341 0
M  V30 3267 C 307.018 -3.47017 -1.013 0
M  V30 3268 O 306.739 -4.38078 0.0437005 0
M  V30 3269 C 308.24 -4.07956 -1.73456 0
M  V30 3270 H 305.46 -0.661211 -0.114199 0
M  V30 3271 H 308.004 -2.02295 0.299483 0
M  V30 3272 H 306.159 -3.47298 -1.71647 0
M  V30 3273 H 306.573 -5.23178 -0.372212 0
M  V30 3274 H 308.047 -5.1138 -2.07833 0
M  V30 3275 H 308.524 -3.51222 -2.63704 0
M  V30 3276 H 309.13 -4.11437 -1.07702 0
M  V30 3277 N 307.445 0.0818655 -1.57387 0
M  V30 3278 C 308.673 0.796108 -1.9097 0
M  V30 3279 C 309.088 1.71626 -0.786757 0
M  V30 3280 O 308.445 1.80908 0.240513 0
M  V30 3281 C 308.496 1.59829 -3.24248 0
M  V30 3282 O 308.217 0.715131 -4.32224 0
M  V30 3283 C 309.718 2.41442 -3.7178 0
M  V30 3284 H 306.938 0.22691 -0.631469 0
M  V30 3285 H 309.482 0.0551439 -2.04426 0
M  V30 3286 H 307.637 2.29163 -3.12351 0
M  V30 3287 H 308.051 1.27205 -5.08841 0
M  V30 3288 H 309.525 2.932 -4.67694 0
M  V30 3289 H 310.002 3.2051 -3.00283 0
M  V30 3290 H 310.608 1.77283 -3.86589 0
M  V30 3291 N 308.923 1.53595 0.353017 0
M  V30 3292 C 309.853 1.83902 1.43883 0
M  V30 3293 C 310.834 0.693421 1.55324 0
M  V30 3294 O 312.019 0.944452 1.69687 0
M  V30 3295 C 309.149 2.04016 2.8106 0
M  V30 3296 C 308.103 3.19814 2.84434 0
M  V30 3297 C 307.429 3.25244 4.24406 0
M  V30 3298 C 308.729 4.58133 2.50822 0
M  V30 3299 H 310.423 2.74835 1.1877 0
M  V30 3300 H 307.969 1.32242 0.569917 0
M  V30 3301 H 309.922 2.238 3.57059 0
M  V30 3302 H 308.646 1.09804 3.07588 0
M  V30 3303 H 307.305 2.9987 2.10887 0
M  V30 3304 H 306.953 2.28646 4.48029 0
M  V30 3305 H 306.653 4.03054 4.27576 0
M  V30 3306 H 308.177 3.47228 5.0226 0
M  V30 3307 H 309.591 4.77995 3.16534 0
M  V30 3308 H 307.988 5.38276 2.6529 0
M  V30 3309 H 309.058 4.62387 1.46034 0
M  V30 3310 N 310.401 -0.613514 1.45168 0
M  V30 3311 C 311.817 -0.933629 1.29443 0
M  V30 3312 C 312.017 -2.00028 0.243101 0
M  V30 3313 O 311.073 -2.49848 -0.364992 0
M  V30 3314 C 312.386 -1.38018 2.67155 0
M  V30 3315 C 313.934 -1.49471 2.75004 0
M  V30 3316 C 314.409 -1.97503 4.13227 0
M  V30 3317 N 315.9 -2.04746 4.15491 0
M  V30 3318 C 316.635 -2.43121 5.19307 0
M  V30 3319 N 316.131 -2.80506 6.33473 0
M  V30 3320 N 317.924 -2.43408 5.06664 0
M  V30 3321 H 310.075 0.0916097 2.12202 0
M  V30 3322 H 312.338 -0.0216655 0.947752 0
M  V30 3323 H 312.044 -0.670625 3.45247 0
M  V30 3324 H 311.918 -2.34784 2.95222 0
M  V30 3325 H 314.305 -2.19519 1.9722 0
M  V30 3326 H 314.386 -0.510342 2.50657 0
M  V30 3327 H 314.03 -1.28045 4.91495 0
M  V30 3328 H 313.96 -2.96843 4.34962 0
M  V30 3329 H 316.451 -1.78468 3.33103 0
M  V30 3330 H 316.764 -3.08652 7.08487 0
M  V30 3331 H 315.109 -2.78216 6.36884 0
M  V30 3332 H 318.3 -2.13604 4.16523 0
M  V30 3333 H 318.473 -2.72989 5.87691 0
M  V30 3334 N 311.879 -1.3236 -0.855495 0
M  V30 3335 C 313.107 -1.2587 -1.64208 0
M  V30 3336 C 313.522 0.173457 -1.88002 0
M  V30 3337 O 312.879 1.11027 -1.44842 0
M  V30 3338 C 312.93 -2.01424 -3.00184 0
M  V30 3339 O 312.651 -3.39051 -2.77445 0
M  V30 3340 C 314.152 -2.01948 -3.94629 0
M  V30 3341 H 311.372 -0.434318 -0.511477 0
M  V30 3342 H 313.916 -1.74469 -1.0668 0
M  V30 3343 H 312.071 -1.56549 -3.5436 0
M  V30 3344 H 312.485 -3.77711 -3.63916 0
M  V30 3345 H 313.959 -2.59297 -4.87308 0
M  V30 3346 H 314.436 -1.00554 -4.27534 0
M  V30 3347 H 315.042 -2.46767 -3.4639 0
M  V30 3348 N 313.357 1.07166 -1.15556 0
M  V30 3349 C 314.768 1.6127 -0.940693 0
M  V30 3350 C 315.119 1.89251 0.517551 0
M  V30 3351 O 314.244 1.65937 1.38903 0
M  V30 3352 C 314.839 2.92993 -1.7012 0
M  V30 3353 C 313.398 3.43832 -1.53156 0
M  V30 3354 C 312.545 2.1786 -1.71558 0
M  V30 3355 H 315.496 0.90229 -1.30554 0
M  V30 3356 H 315.517 3.62007 -1.17181 0
M  V30 3357 H 315.029 2.72596 -2.76248 0
M  V30 3358 H 313.13 3.69307 -0.494294 0
M  V30 3359 H 313.243 4.19747 -2.30975 0
M  V30 3360 H 311.607 2.2765 -1.14225 0
M  V30 3361 H 312.39 1.99956 -2.79056 0
M  V30 3362 N 314.835 0.952656 1.25548 0
M  V30 3363 C 315.798 0.475794 2.24207 0
M  V30 3364 C 316.798 -0.419428 1.55234 0
M  V30 3365 O 317.988 -0.216994 1.72843 0
M  V30 3366 C 315.12 -0.312814 3.39462 0
M  V30 3367 H 316.313 1.34779 2.67908 0
M  V30 3368 H 313.866 0.735739 1.37901 0
M  V30 3369 H 314.601 -1.20257 3.01179 0
M  V30 3370 H 314.386 0.329404 3.90714 0
M  V30 3371 H 315.876 -0.635986 4.12729 0
M  V30 3372 N 316.313 -1.40141 0.720998 0
M  V30 3373 C 317.245 -2.29177 0.0324669 0
M  V30 3374 C 318.258 -1.46105 -0.718126 0
M  V30 3375 O 319.447 -1.69335 -0.564608 0
M  V30 3376 C 316.547 -3.24473 -0.978292 0
M  V30 3377 C 315.72 -4.36423 -0.292115 0
M  V30 3378 C 314.779 -5.12122 -1.20901 0
M  V30 3379 O 313.805 -5.64981 -0.691766 0
M  V30 3380 N 315.007 -5.21992 -2.53978 0
M  V30 3381 H 317.772 -2.88909 0.796984 0
M  V30 3382 H 315.333 -1.51569 0.569068 0
M  V30 3383 H 317.325 -3.71987 -1.59398 0
M  V30 3384 H 315.895 -2.65871 -1.64413 0
M  V30 3385 H 315.115 -3.90967 0.503847 0
M  V30 3386 H 316.403 -5.08467 0.183971 0
M  V30 3387 H 315.801 -4.8054 -2.98493 0
M  V30 3388 H 314.358 -5.72995 -3.10677 0
M  V30 3389 N 317.792 -0.46758 -1.50504 0
M  V30 3390 C 319.039 0.0886219 -2.02306 0
M  V30 3391 C 319.367 1.40037 -1.34981 0
M  V30 3392 O 318.622 1.90136 -0.463318 0
M  V30 3393 C 318.921 0.323995 -3.55928 0
M  V30 3394 C 318.587 -0.905618 -4.41712 0
M  V30 3395 C 317.249 -1.24275 -4.64875 0
M  V30 3396 C 319.601 -1.72448 -4.91845 0
M  V30 3397 C 316.929 -2.39888 -5.35417 0
M  V30 3398 C 319.281 -2.87185 -5.63656 0
M  V30 3399 C 317.945 -3.21317 -5.85074 0
M  V30 3400 H 317.215 0.0324291 -0.74029 0
M  V30 3401 H 319.862 -0.620945 -1.81153 0
M  V30 3402 H 318.167 1.11577 -3.75577 0
M  V30 3403 H 319.864 0.76826 -3.93572 0
M  V30 3404 H 316.454 -0.632956 -4.239 0
M  V30 3405 H 320.638 -1.4772 -4.73806 0
M  V30 3406 H 315.894 -2.66611 -5.50208 0
M  V30 3407 H 320.068 -3.50985 -6.01484 0
M  V30 3408 H 317.695 -4.1101 -6.39511 0
M  V30 3409 N 319.27 1.56325 -0.20005 0
M  V30 3410 C 320.516 1.98012 0.438059 0
M  V30 3411 C 320.849 1.08702 1.60927 0
M  V30 3412 O 320.124 0.140064 1.93995 0
M  V30 3413 C 320.407 3.48841 0.893419 0
M  V30 3414 C 320.26 4.48928 -0.279947 0
M  V30 3415 C 321.579 4.03498 1.75719 0
M  V30 3416 H 318.698 0.719918 0.157757 0
M  V30 3417 H 321.34 1.87743 -0.291968 0
M  V30 3418 H 319.49 3.57723 1.51547 0
M  V30 3419 H 321.162 4.52079 -0.91772 0
M  V30 3420 H 319.405 4.23694 -0.930919 0
M  V30 3421 H 320.076 5.5194 0.0812601 0
M  V30 3422 H 322.552 3.97427 1.23253 0
M  V30 3423 H 321.428 5.09393 2.04476 0
M  V30 3424 H 321.689 3.4906 2.71311 0
M  V30 3425 N 320.748 -0.0735177 1.57428 0
M  V30 3426 C 321.996 -0.771472 1.86796 0
M  V30 3427 C 322.317 -1.78201 0.791804 0
M  V30 3428 O 321.587 -1.95074 -0.179718 0
M  V30 3429 H 320.167 -0.28791 0.689287 0
M  V30 3430 H 322.829 -0.0500161 1.94836 0
M  V30 3431 H 321.925 -1.28874 2.8425 0
M  V30 3432 N 322.226 -1.5378 -0.344866 0
M  V30 3433 C 323.456 -1.74646 -1.10374 0
M  V30 3434 C 323.864 -0.48491 -1.8288 0
M  V30 3435 O 323.207 0.553062 -1.75177 0
M  V30 3436 C 323.269 -2.87145 -2.16306 0
M  V30 3437 C 322.933 -4.26795 -1.63386 0
M  V30 3438 C 323.93 -5.08412 -1.08688 0
M  V30 3439 C 321.615 -4.73276 -1.68272 0
M  V30 3440 C 323.609 -6.34609 -0.595792 0
M  V30 3441 C 321.296 -5.99446 -1.18776 0
M  V30 3442 C 322.294 -6.79946 -0.645215 0
M  V30 3443 O 321.982 -8.03745 -0.157626 0
M  V30 3444 H 321.714 -0.587112 -0.335075 0
M  V30 3445 H 324.268 -2.01403 -0.403252 0
M  V30 3446 H 322.498 -2.55909 -2.89909 0
M  V30 3447 H 324.187 -2.95992 -2.77747 0
M  V30 3448 H 324.953 -4.73666 -1.04236 0
M  V30 3449 H 320.832 -4.10677 -2.09442 0
M  V30 3450 H 324.376 -6.97389 -0.171654 0
M  V30 3451 H 320.273 -6.33687 -1.22928 0
M  V30 3452 H 321.041 -8.18038 -0.275037 0
M  V30 3453 N 323.704 0.605807 -1.45491 0
M  V30 3454 C 325.12 0.926751 -1.29936 0
M  V30 3455 C 325.32 1.99896 -0.253706 0
M  V30 3456 O 324.376 2.50038 0.351737 0
M  V30 3457 C 325.689 1.36599 -2.67883 0
M  V30 3458 C 327.237 1.4801 -2.75793 0
M  V30 3459 C 327.712 1.95309 -4.14268 0
M  V30 3460 N 329.203 2.0254 -4.16571 0
M  V30 3461 C 329.938 2.40363 -5.20589 0
M  V30 3462 N 329.434 2.77143 -6.34952 0
M  V30 3463 N 331.227 2.40718 -5.07948 0
M  V30 3464 H 323.378 -0.102862 -2.12151 0
M  V30 3465 H 325.641 0.016639 -0.947854 0
M  V30 3466 H 325.347 0.652306 -3.45598 0
M  V30 3467 H 325.221 2.33215 -2.96463 0
M  V30 3468 H 327.608 2.1847 -1.98381 0
M  V30 3469 H 327.689 0.497041 -2.50925 0
M  V30 3470 H 327.333 1.25436 -4.92167 0
M  V30 3471 H 327.263 2.94532 -4.3653 0
M  V30 3472 H 329.754 1.76699 -3.34045 0
M  V30 3473 H 330.067 3.0489 -7.10114 0
M  V30 3474 H 328.412 2.74834 -6.3835 0
M  V30 3475 H 331.603 2.11392 -4.1765 0
M  V30 3476 H 331.776 2.69869 -5.89131 0
M  V30 3477 N 325.182 1.32811 0.848464 0
M  V30 3478 C 326.43 1.23479 1.59991 0
M  V30 3479 C 326.751 -0.201853 1.93952 0
M  V30 3480 O 326.021 -1.12818 1.60153 0
M  V30 3481 H 324.601 0.454034 0.593179 0
M  V30 3482 H 327.263 1.66412 1.01455 0
M  V30 3483 H 326.359 1.82178 2.53412 0
M  V30 3484 N 326.66 -1.06551 1.16123 0
M  V30 3485 C 327.937 -1.76097 0.85142 0
M  V30 3486 C 328.317 -2.00802 -0.6513 0
M  V30 3487 O 327.665 -1.63302 -1.59827 0
M  V30 3488 C 327.875 -3.06384 1.67122 0
M  V30 3489 C 329.223 -3.80585 1.88255 0
M  V30 3490 O 330.247 -3.16218 1.63966 0
M  V30 3491 O 329.106 -4.96212 2.2899 0
M  V30 3492 H 326.2 -0.765102 0.313923 0
M  V30 3493 H 328.746 -1.12844 1.26745 0
M  V30 3494 H 327.518 -2.84071 2.69108 0
M  V30 3495 H 327.141 -3.77371 1.25206 0
M  V30 3496 N 328.138 -0.959301 -1.25041 0
M  V30 3497 C 329.101 -0.487677 -2.23952 0
M  V30 3498 C 330.101 0.41119 -1.55454 0
M  V30 3499 O 331.291 0.207825 -1.72956 0
M  V30 3500 C 328.423 0.294807 -3.39623 0
M  V30 3501 H 329.616 -1.36198 -2.67189 0
M  V30 3502 H 327.169 -0.743042 -1.37508 0
M  V30 3503 H 327.904 1.18658 -3.01813 0
M  V30 3504 H 327.689 -0.35012 -3.90534 0
M  V30 3505 H 329.179 0.614089 -4.1306 0
M  V30 3506 N 329.616 1.39756 -0.72842 0
M  V30 3507 C 330.579 2.29012 -0.0927297 0
M  V30 3508 C 331.579 1.45992 0.674025 0
M  V30 3509 O 332.769 1.66749 0.50402 0
M  V30 3510 C 329.901 3.29396 0.878137 0
M  V30 3511 H 331.094 2.86729 -0.879011 0
M  V30 3512 H 328.647 1.48293 -0.493847 0
M  V30 3513 H 329.382 2.76722 1.69101 0
M  V30 3514 H 329.167 3.907 0.331051 0
M  V30 3515 H 330.657 3.96199 1.3197 0
M  V30 3516 N 331.094 0.475555 1.50254 0
M  V30 3517 C 332.057 -0.305016 2.27161 0
M  V30 3518 C 333.057 -0.916519 1.32123 0
M  V30 3519 O 334.247 -0.785003 1.5551 0
M  V30 3520 C 331.379 -1.43496 3.09227 0
M  V30 3521 H 332.572 0.369511 2.97615 0
M  V30 3522 H 330.125 0.229747 1.54602 0
M  V30 3523 H 330.86 -2.14441 2.43281 0
M  V30 3524 H 330.645 -1.00223 3.79075 0
M  V30 3525 H 332.135 -1.98548 3.67381 0
M  V30 3526 N 332.573 -1.56217 0.208337 0
M  V30 3527 C 333.984 -1.84243 -0.301904 0
M  V30 3528 C 334.335 -1.12939 -1.60434 0
M  V30 3529 O 333.46 -0.39461 -2.12772 0
M  V30 3530 C 334.055 -3.34231 -0.554543 0
M  V30 3531 C 332.614 -3.62621 -1.00912 0
M  V30 3532 C 331.761 -2.77224 -0.064933 0
M  V30 3533 H 334.712 -1.52712 0.431833 0
M  V30 3534 H 334.733 -3.5372 -1.40223 0
M  V30 3535 H 334.245 -3.86099 0.393561 0
M  V30 3536 H 332.346 -3.16197 -1.97104 0
M  V30 3537 H 332.459 -4.7071 -0.892674 0
M  V30 3538 H 330.823 -2.48256 -0.56929 0
M  V30 3539 H 331.606 -3.31887 0.877851 0
M  V30 3540 N 334.051 0.0651679 -1.57465 0
M  V30 3541 C 335.279 0.775808 -1.91804 0
M  V30 3542 C 335.694 1.70782 -0.804916 0
M  V30 3543 O 335.051 1.81153 0.221311 0
M  V30 3544 C 335.102 1.56381 -3.25925 0
M  V30 3545 O 334.823 0.669248 -4.32958 0
M  V30 3546 C 336.324 2.37485 -3.7432 0
M  V30 3547 H 333.544 0.2202 -0.63384 0
M  V30 3548 H 336.088 0.0334587 -2.04473 0
M  V30 3549 H 334.243 2.25837 -3.14764 0
M  V30 3550 H 334.657 1.21801 -5.10162 0
M  V30 3551 H 336.131 2.88223 -4.70778 0
M  V30 3552 H 336.608 3.17307 -3.03666 0
M  V30 3553 H 337.214 1.73173 -3.88447 0
M  V30 3554 N 335.529 1.53961 0.336706 0
M  V30 3555 C 336.769 1.73254 1.08454 0
M  V30 3556 C 337.133 0.488937 1.8567 0
M  V30 3557 O 338.334 0.559001 2.62923 0
M  V30 3558 C 336.605 2.96519 1.99528 0
M  V30 3559 S 338.164 3.36655 2.81441 0
M  V30 3560 H 334.982 0.609353 0.366347 0
M  V30 3561 H 337.584 1.92117 0.362124 0
M  V30 3562 H 336.288 3.85193 1.41614 0
M  V30 3563 H 335.819 2.80142 2.76196 0
M  V30 3564 H 337.834 2.90925 4.01967 0
M  V30 3565 N 337.007 -0.598083 1.45811 0
M  V30 3566 C 338.256 -1.35295 1.49594 0
M  V30 3567 C 338.569 -1.95057 0.145679 0
M  V30 3568 O 339.775 -2.71431 0.0612099 0
M  V30 3569 C 338.231 -2.45124 2.63519 0
M  V30 3570 C 337.839 -1.91732 4.04899 0
M  V30 3571 C 339.583 -3.2205 2.76558 0
M  V30 3572 C 337.49 -2.991 5.1019 0
M  V30 3573 H 336.42 -0.508552 0.556679 0
M  V30 3574 H 339.071 -0.639977 1.71978 0
M  V30 3575 H 337.453 -3.19149 2.34435 0
M  V30 3576 H 338.627 -1.24352 4.43704 0
M  V30 3577 H 336.942 -1.27522 3.96393 0
M  V30 3578 H 339.539 -4.0215 3.52391 0
M  V30 3579 H 339.882 -3.73663 1.83526 0
M  V30 3580 H 340.415 -2.55127 3.05213 0
M  V30 3581 H 337.154 -2.52393 6.04961 0
M  V30 3582 H 336.674 -3.65017 4.75944 0
M  V30 3583 H 338.353 -3.63318 5.35359 0
M  V30 3584 N 338.485 -1.33259 -0.841409 0
M  V30 3585 C 339.415 -1.25926 -1.96634 0
M  V30 3586 C 340.396 -0.140349 -1.6952 0
M  V30 3587 O 341.581 -0.329707 -1.91381 0
M  V30 3588 C 338.711 -0.99512 -3.32738 0
M  V30 3589 C 337.665 -2.0767 -3.74242 0
M  V30 3590 C 336.991 -1.66474 -5.08125 0
M  V30 3591 C 338.291 -3.49318 -3.88297 0
M  V30 3592 H 339.985 -2.20046 -2.03027 0
M  V30 3593 H 337.531 -1.05931 -0.975425 0
M  V30 3594 H 339.484 -0.930323 -4.11002 0
M  V30 3595 H 338.208 -0.0183004 -3.26595 0
M  V30 3596 H 336.867 -2.13187 -2.98239 0
M  V30 3597 H 336.515 -0.675012 -4.9845 0
M  V30 3598 H 336.215 -2.3885 -5.36865 0
M  V30 3599 H 337.739 -1.61455 -5.88867 0
M  V30 3600 H 339.153 -3.46316 -4.56879 0
M  V30 3601 H 337.55 -4.20158 -4.28471 0
M  V30 3602 H 338.62 -3.8801 -2.9082 0
M  V30 3603 N 339.963 1.05934 -1.16686 0
M  V30 3604 C 340.893 2.1546 -0.899949 0
M  V30 3605 C 341.874 1.69391 0.155154 0
M  V30 3606 O 343.059 1.94199 0.00648693 0
M  V30 3607 C 340.189 3.44939 -0.404241 0
M  V30 3608 C 339.143 4.04536 -1.39767 0
M  V30 3609 C 338.469 5.29268 -0.760216 0
M  V30 3610 C 339.769 4.42893 -2.76845 0
M  V30 3611 H 341.463 2.38046 -1.81588 0
M  V30 3612 H 339.009 1.14404 -0.874514 0
M  V30 3613 H 340.962 4.20901 -0.204971 0
M  V30 3614 H 339.686 3.21983 0.547206 0
M  V30 3615 H 338.345 3.30635 -1.58355 0
M  V30 3616 H 337.993 5.02611 0.197831 0
M  V30 3617 H 337.693 5.70101 -1.42332 0
M  V30 3618 H 339.217 6.07924 -0.57105 0
M  V30 3619 H 340.631 5.09921 -2.62019 0
M  V30 3620 H 339.028 4.94721 -3.39663 0
M  V30 3621 H 340.098 3.53584 -3.31823 0
M  V30 3622 N 341.441 0.965919 1.2453 0
M  V30 3623 C 342.388 0.49402 2.25451 0
M  V30 3624 C 343.358 -0.45948 1.59618 0
M  V30 3625 O 344.543 -0.370238 1.87173 0
M  V30 3626 C 341.683 -0.211359 3.44452 0
M  V30 3627 C 340.796 0.7807 4.24887 0
M  V30 3628 C 339.931 0.0516105 5.31175 0
M  V30 3629 C 338.97 1.03385 6.03306 0
M  V30 3630 N 338.107 0.334887 7.01301 0
M  V30 3631 H 342.947 1.35946 2.65184 0
M  V30 3632 H 340.484 0.681515 1.3036 0
M  V30 3633 H 342.442 -0.637 4.12308 0
M  V30 3634 H 341.072 -1.04077 3.05562 0
M  V30 3635 H 340.124 1.32479 3.56586 0
M  V30 3636 H 341.436 1.52978 4.74762 0
M  V30 3637 H 340.59 -0.432114 6.05159 0
M  V30 3638 H 339.329 -0.730179 4.82203 0
M  V30 3639 H 338.334 1.52847 5.28127 0
M  V30 3640 H 339.559 1.81606 6.54367 0
M  V30 3641 H 337.505 -0.427959 6.54603 0
M  V30 3642 H 337.422 1.02287 7.49048 0
M  V30 3643 H 338.69 -0.126928 7.79397 0
M  V30 3644 N 342.919 -1.39368 0.735821 0
M  V30 3645 C 343.867 -2.32443 0.0855131 0
M  V30 3646 C 344.861 -1.53104 -0.724954 0
M  V30 3647 O 346.067 -1.68762 -0.626047 0
M  V30 3648 H 342.442 -0.751948 0.00885257 0
M  V30 3649 H 344.413 -2.84916 0.886883 0
M  V30 3650 C 343.162 -3.38206 -0.806983 0
M  V30 3651 H 342.485 -3.99335 -0.19274 0
M  V30 3652 H 343.925 -4.05779 -1.2296 0
M  V30 3653 C 342.384 -2.75321 -1.94165 0
M  V30 3654 O 342.914 -2.63231 -3.03435 0
M  V30 3655 N 341.12 -2.33396 -1.73132 0
M  V30 3656 H 340.667 -2.4343 -0.842596 0
M  V30 3657 H 340.625 -1.91661 -2.49225 0
M  V30 3658 N 344.397 -0.483516 -1.5 0
M  V30 3659 C 345.345 0.318061 -2.30415 0
M  V30 3660 C 346.339 0.978988 -1.38247 0
M  V30 3661 O 347.545 0.908673 -1.55381 0
M  V30 3662 H 343.92 0.121419 -0.742133 0
M  V30 3663 H 345.891 -0.380403 -2.95965 0
M  V30 3664 C 344.64 1.38013 -3.19136 0
M  V30 3665 H 343.963 0.880952 -3.89973 0
M  V30 3666 H 345.403 1.91332 -3.78375 0
M  V30 3667 C 343.862 2.38884 -2.37563 0
M  V30 3668 O 344.392 3.44412 -2.06744 0
M  V30 3669 N 342.598 2.10912 -1.99911 0
M  V30 3670 H 342.145 1.25118 -2.25174 0
M  V30 3671 H 342.103 2.78635 -1.45636 0
M  V30 3672 N 345.875 1.56104 -0.216619 0
M  V30 3673 C 347.123 1.97781 0.415593 0
M  V30 3674 C 347.444 1.10536 1.60645 0
M  V30 3675 O 346.714 0.181303 1.95059 0
M  V30 3676 H 345.294 0.730415 0.156534 0
M  V30 3677 H 347.956 1.92445 -0.308366 0
M  V30 3678 H 347.052 3.03072 0.74525 0
M  V30 3679 N 347.353 -0.0568162 1.57498 0
M  V30 3680 C 348.283 -1.06593 2.0775 0
M  V30 3681 C 349.264 -1.39448 0.974082 0
M  V30 3682 O 350.449 -1.48815 1.24771 0
M  V30 3683 C 347.579 -2.37509 2.5339 0
M  V30 3684 C 346.533 -2.1897 3.67745 0
M  V30 3685 C 345.859 -3.55402 3.99492 0
M  V30 3686 C 347.159 -1.59859 4.97235 0
M  V30 3687 H 348.853 -0.647706 2.9231 0
M  V30 3688 H 346.399 -0.310116 1.40621 0
M  V30 3689 H 348.352 -3.08409 2.87162 0
M  V30 3690 H 347.076 -2.8134 1.65878 0
M  V30 3691 H 345.735 -1.50508 3.3428 0
M  V30 3692 H 345.383 -3.9683 3.09088 0
M  V30 3693 H 345.083 -3.43831 4.76502 0
M  V30 3694 H 346.607 -4.27708 4.35773 0
M  V30 3695 H 348.021 -2.20642 5.29141 0
M  V30 3696 H 346.418 -1.58942 5.78669 0
M  V30 3697 H 347.488 -0.561506 4.81638 0
M  V30 3698 N 348.832 -1.54138 -0.328536 0
M  V30 3699 C 349.782 -1.79557 -1.4051 0
M  V30 3700 C 350.766 -0.651373 -1.47126 0
M  V30 3701 O 351.958 -0.911226 -1.51742 0
M  V30 3702 C 349.087 -2.02196 -2.77438 0
M  V30 3703 C 348.173 -3.22724 -2.75155 0
M  V30 3704 N 348.564 -4.43881 -2.42494 0
M  V30 3705 C 346.862 -3.24196 -3.06289 0
M  V30 3706 C 347.563 -5.25797 -2.48822 0
M  V30 3707 N 346.539 -4.62862 -2.8506 0
M  V30 3708 H 350.341 -2.70814 -1.1418 0
M  V30 3709 H 347.855 -1.53265 -0.536991 0
M  V30 3710 H 349.852 -2.18546 -3.55026 0
M  V30 3711 H 348.512 -1.12191 -3.04702 0
M  V30 3712 H 349.523 -4.70969 -2.15428 0
M  V30 3713 H 346.2 -2.44208 -3.38627 0
M  V30 3714 H 347.59 -6.32535 -2.26603 0
M  V30 3715 N 350.31 0.590341 -1.46126 0
M  V30 3716 C 351.559 1.34499 -1.50309 0
M  V30 3717 C 351.872 1.94977 -0.156021 0
M  V30 3718 O 353.078 2.71395 -0.0756037 0
M  V30 3719 C 351.534 2.43723 -2.64815 0
M  V30 3720 C 351.142 1.89582 -4.0591 0
M  V30 3721 C 352.886 3.20579 -2.78262 0
M  V30 3722 C 350.793 2.9639 -5.11769 0
M  V30 3723 H 349.723 0.505593 -0.559368 0
M  V30 3724 H 352.374 0.630848 -1.72315 0
M  V30 3725 H 350.756 3.17902 -2.36124 0
M  V30 3726 H 351.93 1.21997 -4.44357 0
M  V30 3727 H 350.245 1.25418 -3.97063 0
M  V30 3728 H 352.842 4.00276 -3.54519 0
M  V30 3729 H 353.185 3.72684 -1.85505 0
M  V30 3730 H 353.718 2.53505 -3.06562 0
M  V30 3731 H 350.457 2.49181 -6.06291 0
M  V30 3732 H 349.977 3.62487 -4.77873 0
M  V30 3733 H 351.656 3.60474 -5.37278 0
M  V30 3734 N 351.788 1.33704 0.83433 0
M  V30 3735 C 352.698 1.26382 1.97648 0
M  V30 3736 C 353.714 0.173548 1.73132 0
M  V30 3737 O 354.89 0.397962 1.97429 0
M  V30 3738 C 351.955 1.00769 3.31733 0
M  V30 3739 C 351.016 2.1884 3.69334 0
M  V30 3740 C 350.249 1.9444 4.9702 0
M  V30 3741 O 350.472 0.896961 5.63303 0
M  V30 3742 O 349.406 2.81093 5.32231 0
M  V30 3743 H 353.232 2.22444 2.06767 0
M  V30 3744 H 350.817 1.13795 0.968037 0
M  V30 3745 H 352.699 0.882186 4.12062 0
M  V30 3746 H 351.374 0.0773783 3.23608 0
M  V30 3747 H 350.281 2.36946 2.89495 0
M  V30 3748 H 351.614 3.10221 3.82131 0
M  V30 3749 N 353.266 -1.05314 1.17247 0
M  V30 3750 C 354.196 -2.1498 0.911362 0
M  V30 3751 C 355.177 -1.69471 -0.146169 0
M  V30 3752 O 356.362 -1.942 0.003812 0
M  V30 3753 C 353.492 -3.4472 0.422528 0
M  V30 3754 C 352.446 -4.03789 1.4191 0
M  V30 3755 C 351.772 -5.28858 0.788274 0
M  V30 3756 C 353.072 -4.41418 2.7919 0
M  V30 3757 H 354.766 -2.3708 1.82848 0
M  V30 3758 H 352.312 -1.13938 0.880569 0
M  V30 3759 H 354.265 -4.20787 0.227289 0
M  V30 3760 H 352.989 -3.22269 -0.530123 0
M  V30 3761 H 351.648 -3.2979 1.60106 0
M  V30 3762 H 351.296 -5.02709 -0.171173 0
M  V30 3763 H 350.996 -5.69338 1.45353 0
M  V30 3764 H 352.52 -6.07612 0.603282 0
M  V30 3765 H 353.934 -5.08524 2.64719 0
M  V30 3766 H 352.331 -4.92913 3.42282 0
M  V30 3767 H 353.401 -3.51819 3.33693 0
M  V30 3768 N 354.744 -0.972509 -1.24016 0
M  V30 3769 C 355.676 -0.464375 -2.24446 0
M  V30 3770 C 356.689 0.4295 -1.57032 0
M  V30 3771 O 357.878 0.234902 -1.76948 0
M  V30 3772 C 354.978 0.348385 -3.37105 0
M  V30 3773 C 354.151 -0.53673 -4.34094 0
M  V30 3774 C 353.21 0.220838 -5.25736 0
M  V30 3775 O 352.236 -0.386867 -5.67884 0
M  V30 3776 N 353.438 1.50907 -5.60542 0
M  V30 3777 H 356.203 -1.32788 -2.68677 0
M  V30 3778 H 353.764 -0.844877 -1.38107 0
M  V30 3779 H 355.756 0.863341 -3.95384 0
M  V30 3780 H 354.326 1.11285 -2.92121 0
M  V30 3781 H 353.546 -1.23261 -3.74433 0
M  V30 3782 H 354.834 -1.14022 -4.95859 0
M  V30 3783 H 354.232 2.02444 -5.28236 0
M  V30 3784 H 352.789 1.96962 -6.21329 0
M  V30 3785 N 356.222 1.38976 -0.743202 0
M  V30 3786 C 357.471 1.99581 -0.291592 0
M  V30 3787 C 357.784 1.59656 1.13001 0
M  V30 3788 O 358.99 2.13157 1.68156 0
M  V30 3789 C 357.446 3.56813 -0.470391 0
M  V30 3790 C 357.054 4.05695 -1.90041 0
M  V30 3791 C 358.798 4.24423 -0.0809709 0
M  V30 3792 C 356.705 5.5553 -2.02832 0
M  V30 3793 H 355.635 0.746615 -0.105272 0
M  V30 3794 H 358.286 1.58872 -0.918258 0
M  V30 3795 H 356.668 3.95359 0.225299 0
M  V30 3796 H 357.842 3.78464 -2.62872 0
M  V30 3797 H 356.157 3.50775 -2.24379 0
M  V30 3798 H 358.754 5.34474 -0.155445 0
M  V30 3799 H 359.097 4.04962 0.96497 0
M  V30 3800 H 359.63 3.9108 -0.728124 0
M  V30 3801 H 356.369 5.79881 -3.05643 0
M  V30 3802 H 355.889 5.84537 -1.34448 0
M  V30 3803 H 357.568 6.21069 -1.81335 0
M  V30 3804 N 357.7 0.491464 1.49741 0
M  V30 3805 C 358.977 -0.118984 1.95238 0
M  V30 3806 C 359.357 -1.55044 1.43264 0
M  V30 3807 O 358.705 -2.19287 0.642287 0
M  V30 3808 C 358.915 -0.0414187 3.48975 0
M  V30 3809 C 360.263 -0.220133 4.24029 0
M  V30 3810 O 361.287 -0.117055 3.56008 0
M  V30 3811 O 360.146 -0.430567 5.44801 0
M  V30 3812 H 357.24 -0.100536 0.820866 0
M  V30 3813 H 359.786 0.553322 1.60426 0
M  V30 3814 H 358.558 0.957214 3.79412 0
M  V30 3815 H 358.181 -0.754292 3.9038 0
M  V30 3816 N 359.178 -1.55987 0.224894 0
M  V30 3817 C 360.141 -2.19178 -0.670348 0
M  V30 3818 C 361.141 -1.15461 -1.11917 0
M  V30 3819 O 362.331 -1.40675 -1.02743 0
M  V30 3820 C 359.463 -2.81777 -1.9187 0
M  V30 3821 H 360.656 -2.99662 -0.119364 0
M  V30 3822 H 358.209 -1.5628 -0.0247128 0
M  V30 3823 H 358.944 -2.05172 -2.51147 0
M  V30 3824 H 358.729 -3.57732 -1.60531 0
M  V30 3825 H 360.219 -3.30205 -2.55645 0
M  V30 3826 N 360.656 0.0484629 -1.57525 0
M  V30 3827 C 361.604 1.07359 -2.06341 0
M  V30 3828 C 362.598 1.3865 -0.973269 0
M  V30 3829 O 363.804 1.37783 -1.15827 0
M  V30 3830 H 360.179 0.363662 -0.65822 0
M  V30 3831 H 362.15 0.635916 -2.91545 0
M  V30 3832 C 360.899 2.37198 -2.54229 0
M  V30 3833 H 360.222 2.13977 -3.37719 0
M  V30 3834 H 361.662 3.07319 -2.92115 0
M  V30 3835 C 360.121 3.04805 -1.43511 0
M  V30 3836 O 360.651 3.93848 -0.79034 0
M  V30 3837 N 358.857 2.65811 -1.17444 0
M  V30 3838 H 358.404 1.93488 -1.70059 0
M  V30 3839 H 358.362 3.11366 -0.435737 0
M  V30 3840 N 362.134 1.5431 0.320358 0
M  V30 3841 C 363.382 1.72327 1.05583 0
M  V30 3842 C 363.703 0.50149 1.88441 0
M  V30 3843 O 362.973 -0.48448 1.89815 0
M  V30 3844 H 361.553 0.635387 0.3928 0
M  V30 3845 H 364.215 1.91621 0.356019 0
M  V30 3846 H 363.311 2.60426 1.72003 0
M  V30 3847 N 363.613 -0.582584 1.46437 0
M  V30 3848 C 365.029 -0.905962 1.31394 0
M  V30 3849 C 365.229 -1.99468 0.285476 0
M  V30 3850 O 364.285 -2.50566 -0.311914 0
M  V30 3851 C 365.598 -1.3232 2.70022 0
M  V30 3852 C 367.146 -1.43604 2.78113 0
M  V30 3853 C 367.621 -1.88694 4.17323 0
M  V30 3854 N 369.112 -1.95887 4.19741 0
M  V30 3855 C 369.847 -2.32051 5.24347 0
M  V30 3856 N 369.343 -2.67006 6.39281 0
M  V30 3857 N 371.136 -2.32606 5.11713 0
M  V30 3858 H 363.287 0.1366 2.1196 0
M  V30 3859 H 365.55 -0.00155736 0.947999 0
M  V30 3860 H 365.256 -0.597242 3.46592 0
M  V30 3861 H 365.13 -2.28469 3.00136 0
M  V30 3862 H 367.517 -2.15286 2.01832 0
M  V30 3863 H 367.598 -0.457059 2.51684 0
M  V30 3864 H 367.242 -1.1759 4.941 0
M  V30 3865 H 367.172 -2.8755 4.4116 0
M  V30 3866 H 369.663 -1.71362 3.36814 0
M  V30 3867 H 369.976 -2.93554 7.14875 0
M  V30 3868 H 368.321 -2.64644 6.42642 0
M  V30 3869 H 371.512 -2.04721 4.2096 0
M  V30 3870 H 371.685 -2.60462 5.93349 0
M  V30 3871 N 365.091 -1.34144 -0.827227 0
M  V30 3872 C 366.34 -1.25602 -1.5782 0
M  V30 3873 C 366.653 0.173445 -1.94829 0
M  V30 3874 O 367.859 0.380984 -2.68814 0
M  V30 3875 C 366.315 -2.20151 -2.84713 0
M  V30 3876 C 365.923 -3.68331 -2.55021 0
M  V30 3877 C 367.667 -2.20508 -3.62735 0
M  V30 3878 C 365.574 -4.54762 -3.78082 0
M  V30 3879 H 364.504 -0.466573 -0.592306 0
M  V30 3880 H 367.155 -1.59283 -0.911116 0
M  V30 3881 H 365.537 -1.79417 -3.53023 0
M  V30 3882 H 366.711 -4.17577 -1.94849 0
M  V30 3883 H 365.026 -3.7038 -1.90283 0
M  V30 3884 H 367.623 -2.82306 -4.54101 0
M  V30 3885 H 367.966 -1.20322 -3.98533 0
M  V30 3886 H 368.499 -2.59664 -3.01362 0
M  V30 3887 H 365.238 -5.55867 -3.47407 0
M  V30 3888 H 364.758 -4.10254 -4.37552 0
M  V30 3889 H 366.437 -4.69153 -4.45538 0
M  V30 3890 N 366.569 1.04691 -1.17803 0
M  V30 3891 C 367.817 1.7743 -0.967617 0
M  V30 3892 C 368.138 1.88359 0.504574 0
M  V30 3893 O 367.408 1.40402 1.36617 0
M  V30 3894 H 365.988 0.657242 -0.355024 0
M  V30 3895 H 368.65 1.2638 -1.48371 0
M  V30 3896 H 367.746 2.78924 -1.40027 0
M  V30 3897 N 368.047 0.979072 1.23499 0
M  V30 3898 C 368.994 0.517904 2.24914 0
M  V30 3899 C 369.964 -0.442525 1.60097 0
M  V30 3900 O 371.149 -0.350365 1.87556 0
M  V30 3901 C 368.289 -0.174813 3.44657 0
M  V30 3902 C 367.402 0.825721 4.24035 0
M  V30 3903 C 366.537 0.107946 5.3109 0
M  V30 3904 C 365.576 1.09778 6.02175 0
M  V30 3905 N 364.713 0.40925 7.00906 0
M  V30 3906 H 369.553 1.38751 2.63727 0
M  V30 3907 H 367.09 0.695303 1.2963 0
M  V30 3908 H 369.048 -0.593233 4.12961 0
M  V30 3909 H 367.678 -1.0083 3.06648 0
M  V30 3910 H 366.73 1.36253 3.55161 0
M  V30 3911 H 368.042 1.58005 4.73113 0
M  V30 3912 H 367.196 -0.367904 6.05583 0
M  V30 3913 H 365.935 -0.678994 4.8295 0
M  V30 3914 H 364.94 1.5844 5.26476 0
M  V30 3915 H 366.165 1.88536 6.52404 0
M  V30 3916 H 364.111 -0.358506 6.5502 0
M  V30 3917 H 364.028 1.10226 7.47921 0
M  V30 3918 H 365.296 -0.0442557 7.79487 0
M  V30 3919 N 369.525 -1.3858 0.750561 0
M  V30 3920 C 370.802 -1.94231 0.231009 0
M  V30 3921 C 371.182 -1.68611 -1.27018 0
M  V30 3922 O 370.53 -1.02296 -2.04323 0
M  V30 3923 C 370.74 -3.44123 0.581428 0
M  V30 3924 C 372.088 -4.2116 0.539389 0
M  V30 3925 O 373.112 -3.52391 0.519541 0
M  V30 3926 O 371.971 -5.43749 0.54765 0
M  V30 3927 H 369.065 -0.825639 0.0474263 0
M  V30 3928 H 371.611 -1.4799 0.830478 0
M  V30 3929 H 370.383 -3.56267 1.61833 0
M  V30 3930 H 370.006 -3.97573 -0.0462047 0
M  V30 3931 N 371.003 -0.499398 -1.49478 0
M  V30 3932 C 372.28 0.108629 -1.95298 0
M  V30 3933 C 372.66 1.54282 -1.44084 0
M  V30 3934 O 372.008 2.18944 -0.653908 0
M  V30 3935 C 372.218 0.0229111 -3.48992 0
M  V30 3936 C 373.566 0.197643 -4.2414 0
M  V30 3937 O 374.59 0.0981735 -3.56065 0
M  V30 3938 O 373.449 0.401669 -5.45022 0
M  V30 3939 H 370.543 0.096181 -0.821388 0
M  V30 3940 H 373.089 -0.561822 -1.6013 0
M  V30 3941 H 371.861 -0.977321 -3.78899 0
M  V30 3942 H 371.484 0.733579 -3.90774 0
M  V30 3943 N 372.481 1.55866 -0.233164 0
M  V30 3944 C 373.892 1.847 0.272554 0
M  V30 3945 C 374.243 1.15477 1.58617 0
M  V30 3946 O 373.368 0.42841 2.12117 0
M  V30 3947 C 373.963 3.35071 0.501299 0
M  V30 3948 C 372.522 3.6418 0.951304 0
M  V30 3949 C 371.669 2.77292 0.0208209 0
M  V30 3950 H 374.62 1.52005 -0.456074 0
M  V30 3951 H 374.641 3.55906 1.34577 0
M  V30 3952 H 374.153 3.85424 -0.454936 0
M  V30 3953 H 372.254 3.19293 1.92049 0
M  V30 3954 H 372.367 4.72071 0.817675 0
M  V30 3955 H 370.731 2.49131 0.529723 0
M  V30 3956 H 371.514 3.30448 -0.93054 0
M  V30 3957 N 373.959 -0.0401083 1.57549 0
M  V30 3958 C 374.922 -1.02871 2.04817 0
M  V30 3959 C 375.922 -1.29708 0.950388 0
M  V30 3960 O 377.112 -1.24897 1.21435 0
M  V30 3961 C 374.244 -2.36443 2.45576 0
M  V30 3962 H 375.437 -0.620631 2.93408 0
M  V30 3963 H 372.99 -0.286667 1.53649 0
M  V30 3964 H 373.725 -2.82021 1.60108 0
M  V30 3965 H 373.51 -2.18296 3.25713 0
M  V30 3966 H 375 -3.07441 2.82612 0
M  V30 3967 N 375.437 -1.54477 -0.31217 0
M  V30 3968 C 376.387 -1.81037 -1.38598 0
M  V30 3969 C 377.371 -0.666941 -1.46426 0
M  V30 3970 O 378.563 -0.927269 -1.50767 0
M  V30 3971 C 375.692 -2.05127 -2.75277 0
M  V30 3972 C 374.778 -3.25624 -2.71716 0
M  V30 3973 N 375.169 -4.46428 -2.37773 0
M  V30 3974 C 373.467 -3.27427 -3.02833 0
M  V30 3975 C 374.168 -5.28406 -2.43232 0
M  V30 3976 N 373.144 -4.6586 -2.80135 0
M  V30 3977 H 376.946 -2.7201 -1.11301 0
M  V30 3978 H 374.46 -1.53826 -0.520705 0
M  V30 3979 H 376.457 -2.22299 -3.52688 0
M  V30 3980 H 375.117 -1.15416 -3.03495 0
M  V30 3981 H 376.128 -4.73227 -2.1042 0
M  V30 3982 H 372.805 -2.47786 -3.36018 0
M  V30 3983 H 374.195 -6.34903 -2.19882 0
M  V30 3984 N 376.915 0.57481 -1.46744 0
M  V30 3985 C 378.164 1.32898 -1.51727 0
M  V30 3986 C 378.477 1.948 -0.176692 0
M  V30 3987 O 379.683 2.71299 -0.104385 0
M  V30 3988 C 378.139 2.40901 -2.67385 0
M  V30 3989 C 377.747 1.85266 -4.07898 0
M  V30 3990 C 379.491 3.17609 -2.81646 0
M  V30 3991 C 377.398 2.90945 -5.14883 0
M  V30 3992 H 376.328 0.499631 -0.564699 0
M  V30 3993 H 378.979 0.612536 -1.72975 0
M  V30 3994 H 377.361 3.15379 -2.39483 0
M  V30 3995 H 378.535 1.17278 -4.45626 0
M  V30 3996 H 376.85 1.21199 -3.98371 0
M  V30 3997 H 379.447 3.96493 -3.58744 0
M  V30 3998 H 379.79 3.70696 -1.89448 0
M  V30 3999 H 380.323 2.50239 -3.09233 0
M  V30 4000 H 377.062 2.42736 -6.089 0
M  V30 4001 H 376.582 3.57398 -4.81691 0
M  V30 4002 H 378.261 3.54755 -5.41071 0
M  V30 4003 N 378.394 1.34581 0.820102 0
M  V30 4004 C 379.342 1.26401 1.95258 0
M  V30 4005 C 380.336 0.161553 1.68628 0
M  V30 4006 O 381.542 0.326703 1.7701 0
M  V30 4007 H 377.917 0.392749 0.64129 0
M  V30 4008 H 379.888 2.22105 1.99279 0
M  V30 4009 C 378.637 1.03919 3.31807 0
M  V30 4010 H 377.96 1.87984 3.52848 0
M  V30 4011 H 379.4 1.02232 4.11491 0
M  V30 4012 C 377.859 -0.257433 3.35915 0
M  V30 4013 O 378.389 -1.25784 3.81499 0
M  V30 4014 N 376.595 -0.291524 2.89134 0
M  V30 4015 H 376.142 0.523161 2.52232 0
M  V30 4016 H 376.1 -1.15883 2.92264 0
M  V30 4017 N 379.872 -1.04064 1.18357 0
M  V30 4018 C 381.149 -1.74252 0.888581 0
M  V30 4019 C 381.529 -2.02138 -0.60856 0
M  V30 4020 O 380.877 -1.66656 -1.56327 0
M  V30 4021 C 381.087 -3.0277 1.73584 0
M  V30 4022 C 382.435 -3.76506 1.96286 0
M  V30 4023 O 383.459 -3.12668 1.70637 0
M  V30 4024 O 382.318 -4.91243 2.39464 0
M  V30 4025 H 379.412 -0.758271 0.330082 0
M  V30 4026 H 381.958 -1.1013 1.2911 0
M  V30 4027 H 380.73 -2.78299 2.75073 0
M  V30 4028 H 380.353 -3.74631 1.33183 0
M  V30 4029 N 381.35 -0.985608 -1.22978 0
M  V30 4030 C 382.596 -0.65836 -1.91816 0
M  V30 4031 C 382.929 0.806692 -1.76653 0
M  V30 4032 O 382.204 1.58252 -1.13078 0
M  V30 4033 C 382.487 -1.056 -3.44268 0
M  V30 4034 C 382.34 -2.57906 -3.68516 0
M  V30 4035 C 383.659 -0.603781 -4.35939 0
M  V30 4036 H 380.778 -0.24065 -0.696604 0
M  V30 4037 H 383.42 -1.22783 -1.44998 0
M  V30 4038 H 381.57 -0.571445 -3.84274 0
M  V30 4039 H 383.242 -3.13976 -3.3796 0
M  V30 4040 H 381.485 -3.00305 -3.13048 0
M  V30 4041 H 382.156 -2.80779 -4.75255 0
M  V30 4042 H 384.632 -1.01987 -4.03408 0
M  V30 4043 H 383.508 -0.910383 -5.41298 0
M  V30 4044 H 383.769 0.495761 -4.39312 0
M  V30 4045 N 382.828 1.3818 -0.7579 0
M  V30 4046 C 384.077 1.99261 -0.312744 0
M  V30 4047 C 384.39 1.60846 1.11301 0
M  V30 4048 O 385.596 2.14929 1.65885 0
M  V30 4049 C 384.052 3.56294 -0.50821 0
M  V30 4050 C 383.66 4.03657 -1.94333 0
M  V30 4051 C 385.404 4.24313 -0.125982 0
M  V30 4052 C 383.311 5.53347 -2.08712 0
M  V30 4053 H 382.241 0.745456 -0.113185 0
M  V30 4054 H 384.892 1.57889 -0.935056 0
M  V30 4055 H 383.274 3.95575 0.183353 0
M  V30 4056 H 384.448 3.75655 -2.66871 0
M  V30 4057 H 382.763 3.48376 -2.28086 0
M  V30 4058 H 385.36 5.34279 -0.212125 0
M  V30 4059 H 385.703 4.05962 0.921964 0
M  V30 4060 H 386.236 3.90285 -0.769563 0
M  V30 4061 H 382.975 5.76607 -3.11777 0
M  V30 4062 H 382.495 5.83078 -1.4064 0
M  V30 4063 H 384.174 6.19111 -1.87912 0
M  V30 4064 N 384.306 0.507319 1.49211 0
M  V30 4065 C 385.552 -0.0350047 2.0277 0
M  V30 4066 C 385.885 -1.3606 1.38569 0
M  V30 4067 O 385.16 -1.87321 0.523542 0
M  V30 4068 C 385.443 -0.180916 3.59645 0
M  V30 4069 C 385.296 1.16825 4.34364 0
M  V30 4070 C 386.615 -0.918558 4.30407 0
M  V30 4071 H 383.734 -0.0112473 0.736914 0
M  V30 4072 H 386.376 0.659956 1.7817 0
M  V30 4073 H 384.526 -0.772826 3.80736 0
M  V30 4074 H 386.198 1.79952 4.24753 0
M  V30 4075 H 384.441 1.75594 3.96673 0
M  V30 4076 H 385.112 1.01939 5.42506 0
M  V30 4077 H 387.588 -0.41649 4.1401 0
M  V30 4078 H 386.464 -0.989505 5.39907 0
M  V30 4079 H 386.725 -1.96373 3.96093 0
M  V30 4080 N 385.784 -1.5574 0.241426 0
M  V30 4081 C 386.694 -2.2479 -0.671305 0
M  V30 4082 C 387.71 -1.26217 -1.19772 0
M  V30 4083 O 388.886 -1.59079 -1.23514 0
M  V30 4084 C 385.951 -2.92966 -1.85396 0
M  V30 4085 C 385.012 -4.06935 -1.36756 0
M  V30 4086 C 384.245 -4.71851 -2.49384 0
M  V30 4087 O 384.468 -4.35823 -3.67987 0
M  V30 4088 O 383.402 -5.60467 -2.19454 0
M  V30 4089 H 387.228 -3.0349 -0.112966 0
M  V30 4090 H 384.813 -1.49397 0.0101513 0
M  V30 4091 H 386.695 -3.35927 -2.54423 0
M  V30 4092 H 385.37 -2.17211 -2.40002 0
M  V30 4093 H 384.277 -3.68503 -0.644726 0
M  V30 4094 H 385.61 -4.84492 -0.867647 0
M  V30 4095 N 387.262 0.0317525 -1.57568 0
M  V30 4096 C 388.225 1.01783 -2.0536 0
M  V30 4097 C 389.225 1.29203 -0.957253 0
M  V30 4098 O 390.415 1.24251 -1.22095 0
M  V30 4099 C 387.547 2.35137 -2.46827 0
M  V30 4100 H 388.74 0.605062 -2.93733 0
M  V30 4101 H 386.293 0.278514 -1.53799 0
M  V30 4102 H 387.028 2.81168 -1.61602 0
M  V30 4103 H 386.813 2.16566 -3.26866 0
M  V30 4104 H 388.303 3.05938 -2.84239 0
M  V30 4105 N 388.74 1.54641 0.303973 0
M  V30 4106 C 389.703 1.84646 1.35789 0
M  V30 4107 C 390.703 0.7192 1.4382 0
M  V30 4108 O 391.893 0.987491 1.43507 0
M  V30 4109 C 389.025 2.02407 2.74307 0
M  V30 4110 H 390.218 2.78829 1.10429 0
M  V30 4111 H 387.771 1.46658 0.540487 0
M  V30 4112 H 388.506 1.10502 3.04893 0
M  V30 4113 H 388.291 2.84453 2.69868 0
M  V30 4114 H 389.781 2.27002 3.50514 0
M  V30 4115 N 390.218 -0.567019 1.47046 0
M  V30 4116 C 391.467 -1.32091 1.5243 0
M  V30 4117 C 391.78 -1.94704 0.187021 0
M  V30 4118 O 392.986 -2.7124 0.118771 0
M  V30 4119 C 391.442 -2.39479 2.68659 0
M  V30 4120 C 391.05 -1.831 4.08874 0
M  V30 4121 C 392.794 -3.16111 2.83327 0
M  V30 4122 C 390.701 -2.8821 5.16419 0
M  V30 4123 H 389.631 -0.496629 0.56734 0
M  V30 4124 H 392.282 -0.603354 1.73297 0
M  V30 4125 H 390.664 -3.14105 2.41152 0
M  V30 4126 H 391.838 -1.14913 4.46242 0
M  V30 4127 H 390.153 -1.19085 3.99008 0
M  V30 4128 H 392.75 -3.94585 3.60842 0
M  V30 4129 H 393.093 -3.69686 1.91411 0
M  V30 4130 H 393.626 -2.48595 3.10556 0
M  V30 4131 H 390.365 -2.39504 6.10179 0
M  V30 4132 H 389.885 -3.54839 4.8358 0
M  V30 4133 H 391.564 -3.51881 5.42945 0
M  V30 4134 N 391.696 -1.35014 -0.812953 0
M  V30 4135 C 392.921 -1.31187 -1.60639 0
M  V30 4136 C 393.346 0.109382 -1.87782 0
M  V30 4137 O 392.704 1.07424 -1.46047 0
M  V30 4138 C 392.752 -2.11809 -2.91838 0
M  V30 4139 O 391.856 -1.49444 -3.8437 0
M  V30 4140 H 391.197 -0.450084 -0.488181 0
M  V30 4141 H 393.727 -1.77963 -1.00947 0
M  V30 4142 H 393.737 -2.23531 -3.41318 0
M  V30 4143 H 392.412 -3.15137 -2.71407 0
M  V30 4144 H 390.989 -1.46524 -3.42907 0
M  V30 4145 N 393.175 1.03435 -1.18907 0
M  V30 4146 C 394.403 1.80381 -1.01342 0
M  V30 4147 C 394.818 1.83649 0.438005 0
M  V30 4148 O 394.175 1.27655 1.30424 0
M  V30 4149 C 394.226 3.25689 -1.56873 0
M  V30 4150 O 393.947 3.22673 -2.96334 0
M  V30 4151 C 395.448 4.19255 -1.44014 0
M  V30 4152 H 392.668 0.56784 -0.35749 0
M  V30 4153 H 395.212 1.30317 -1.576 0
M  V30 4154 H 393.367 3.72962 -1.04777 0
M  V30 4155 H 393.781 4.13748 -3.22355 0
M  V30 4156 H 395.255 5.19123 -1.87657 0
M  V30 4157 H 395.732 4.37467 -0.389815 0
M  V30 4158 H 396.338 3.77851 -1.95214 0
M  V30 4159 N 394.653 0.992116 1.22453 0
M  V30 4160 C 395.902 0.662992 1.90492 0
M  V30 4161 C 396.215 -0.808407 1.78113 0
M  V30 4162 O 397.421 -1.24908 2.41061 0
M  V30 4163 C 395.877 1.1353 3.41524 0
M  V30 4164 C 395.485 2.63187 3.62542 0
M  V30 4165 C 397.229 0.880465 4.15269 0
M  V30 4166 C 395.136 3.04024 5.0727 0
M  V30 4167 H 394.066 0.244278 0.713333 0
M  V30 4168 H 396.717 1.20157 1.38688 0
M  V30 4169 H 395.099 0.52485 3.92506 0
M  V30 4170 H 396.273 3.2957 3.22056 0
M  V30 4171 H 394.588 2.86543 3.02129 0
M  V30 4172 H 397.185 1.16128 5.21937 0
M  V30 4173 H 397.528 -0.183408 4.15896 0
M  V30 4174 H 398.061 1.45307 3.70312 0
M  V30 4175 H 394.8 4.09584 5.11782 0
M  V30 4176 H 394.32 2.42343 5.48662 0
M  V30 4177 H 395.999 2.95282 5.75689 0
M  V30 4178 N 396.131 -1.37776 0.765217 0
M  V30 4179 C 397.061 -2.32945 0.160953 0
M  V30 4180 C 398.042 -1.55454 -0.690516 0
M  V30 4181 O 399.227 -1.83721 -0.629318 0
M  V30 4182 C 396.357 -3.39669 -0.724031 0
M  V30 4183 C 395.311 -4.27992 0.0256173 0
M  V30 4184 C 394.637 -5.25673 -0.978383 0
M  V30 4185 C 395.937 -5.08309 1.20082 0
M  V30 4186 H 397.631 -2.83728 0.955969 0
M  V30 4187 H 395.177 -1.36416 0.461149 0
M  V30 4188 H 397.13 -4.05219 -1.15652 0
M  V30 4189 H 395.854 -2.87396 -1.5515 0
M  V30 4190 H 394.513 -3.63964 0.438812 0
M  V30 4191 H 394.161 -4.69682 -1.80022 0
M  V30 4192 H 393.861 -5.85625 -0.481378 0
M  V30 4193 H 395.385 -5.94098 -1.40995 0
M  V30 4194 H 396.799 -5.67034 0.845307 0
M  V30 4195 H 395.196 -5.77554 1.62947 0
M  V30 4196 H 396.266 -4.41365 2.00811 0
M  V30 4197 N 397.609 -0.515225 -1.4894 0
M  V30 4198 C 398.886 0.0879088 -1.95402 0
M  V30 4199 C 399.266 1.52745 -1.45712 0
M  V30 4200 O 398.614 2.18238 -0.677093 0
M  V30 4201 C 398.824 -0.0141055 -3.48997 0
M  V30 4202 C 400.172 0.152646 -4.24326 0
M  V30 4203 O 401.196 0.0604025 -3.56149 0
M  V30 4204 O 400.055 0.34384 -5.45417 0
M  V30 4205 H 397.149 0.0874636 -0.822362 0
M  V30 4206 H 399.695 -0.578775 -1.59525 0
M  V30 4207 H 398.467 -1.01745 -3.77841 0
M  V30 4208 H 398.09 0.692091 -3.9153 0
M  V30 4209 N 399.087 1.5561 -0.249682 0
M  V30 4210 C 400.327 2.00916 0.37579 0
M  V30 4211 C 400.691 1.13409 1.54927 0
M  V30 4212 O 401.892 1.48183 2.24266 0
M  V30 4213 C 400.163 3.48949 0.772633 0
M  V30 4214 S 401.722 4.16261 1.38824 0
M  V30 4215 H 398.54 0.70112 0.118117 0
M  V30 4216 H 401.142 1.92052 -0.365567 0
M  V30 4217 H 399.846 4.103 -0.090683 0
M  V30 4218 H 399.377 3.61745 1.5461 0
M  V30 4219 H 401.392 4.17778 2.67724 0
M  V30 4220 N 400.565 -0.0233959 1.57583 0
M  V30 4221 C 401.475 -1.03907 2.10334 0
M  V30 4222 C 402.491 -1.39257 1.04323 0
M  V30 4223 O 403.667 -1.48462 1.36091 0
M  V30 4224 C 400.732 -2.31938 2.57693 0
M  V30 4225 C 399.793 -2.03117 3.78209 0
M  V30 4226 C 399.026 -3.25043 4.233 0
M  V30 4227 O 399.249 -4.35916 3.67876 0
M  V30 4228 O 398.183 -3.10411 5.15683 0
M  V30 4229 H 402.009 -0.620748 2.97288 0
M  V30 4230 H 399.594 -0.240743 1.47448 0
M  V30 4231 H 401.476 -3.07196 2.88458 0
M  V30 4232 H 400.151 -2.73055 1.73847 0
M  V30 4233 H 399.058 -1.25408 3.52454 0
M  V30 4234 H 400.391 -1.66852 4.63056 0
M  V30 4235 N 402.043 -1.548 -0.295768 0
M  V30 4236 C 403.32 -1.65014 -1.05023 0
M  V30 4237 C 403.7 -0.501805 -2.05049 0
M  V30 4238 O 403.048 0.500869 -2.22943 0
M  V30 4239 C 403.258 -3.03252 -1.72741 0
M  V30 4240 C 404.606 -3.60242 -2.24746 0
M  V30 4241 O 405.63 -3.05737 -1.82765 0
M  V30 4242 O 404.489 -4.55687 -3.01681 0
M  V30 4243 H 401.583 -0.669314 -0.485744 0
M  V30 4244 H 404.129 -1.67144 -0.293438 0
M  V30 4245 H 402.901 -3.7827 -1.00138 0
M  V30 4246 H 402.524 -3.04922 -2.55163 0
M  V30 4247 N 403.521 0.559213 -1.47345 0
M  V30 4248 C 404.746 1.34676 -1.57725 0
M  V30 4249 C 405.171 1.86723 -0.227164 0
M  V30 4250 O 404.529 1.6286 0.796642 0
M  V30 4251 C 404.577 2.49399 -2.60447 0
M  V30 4252 O 403.681 3.51567 -2.15578 0
M  V30 4253 H 403.022 0.400115 -0.52991 0
M  V30 4254 H 405.552 0.676009 -1.93109 0
M  V30 4255 H 405.562 2.95996 -2.80803 0
M  V30 4256 H 404.237 2.10873 -3.58477 0
M  V30 4257 H 402.814 3.11289 -2.05313 0
M  V30 4258 N 404.999 1.35443 0.805782 0
M  V30 4259 C 406.245 1.28952 1.56522 0
M  V30 4260 C 406.578 -0.135597 1.93726 0
M  V30 4261 O 405.853 -1.08516 1.61414 0
M  V30 4262 C 406.136 2.19678 2.85331 0
M  V30 4263 C 405.989 3.7081 2.54598 0
M  V30 4264 C 407.308 2.09495 3.8704 0
M  V30 4265 H 404.427 0.469764 0.567883 0
M  V30 4266 H 407.069 1.65851 0.927001 0
M  V30 4267 H 405.219 1.8834 3.39795 0
M  V30 4268 H 406.891 4.12593 2.06312 0
M  V30 4269 H 405.134 3.91051 1.8778 0
M  V30 4270 H 405.805 4.29679 3.46525 0
M  V30 4271 H 408.281 2.37045 3.41978 0
M  V30 4272 H 407.157 2.75173 4.74943 0
M  V30 4273 H 407.418 1.07714 4.28777 0
M  V30 4274 N 406.477 -1.02803 1.19454 0
M  V30 4275 C 407.44 -2.09264 0.934955 0
M  V30 4276 C 408.44 -1.60576 -0.0849015 0
M  V30 4277 O 409.63 -1.73554 0.149933 0
M  V30 4278 C 406.762 -3.38482 0.40531 0
M  V30 4279 H 407.955 -2.33726 1.87916 0
M  V30 4280 H 405.508 -1.19426 1.00832 0
M  V30 4281 H 406.243 -3.19689 -0.544899 0
M  V30 4282 H 406.028 -3.75142 1.14065 0
M  V30 4283 H 407.518 -4.16894 0.242806 0
M  V30 4284 N 407.956 -0.998596 -1.21925 0
M  V30 4285 C 408.919 -0.558679 -2.22287 0
M  V30 4286 C 409.919 0.361525 -1.56683 0
M  V30 4287 O 411.109 0.152695 -1.73529 0
M  V30 4288 C 408.241 0.18661 -3.40389 0
M  V30 4289 H 409.434 -1.4463 -2.62721 0
M  V30 4290 H 406.987 -0.786413 -1.35075 0
M  V30 4291 H 407.722 1.08996 -3.05435 0
M  V30 4292 H 407.507 -0.474188 -3.89222 0
M  V30 4293 H 408.997 0.482367 -4.14805 0
M  V30 4294 N 409.434 1.37368 -0.772513 0
M  V30 4295 C 410.68 1.99969 -0.337681 0
M  V30 4296 C 411.013 1.61184 1.08321 0
M  V30 4297 O 410.288 0.858395 1.74533 0
M  V30 4298 C 410.571 3.56858 -0.482121 0
M  V30 4299 C 410.424 4.0555 -1.94549 0
M  V30 4300 C 411.743 4.39955 0.113143 0
M  V30 4301 H 408.862 0.726464 -0.124171 0
M  V30 4302 H 411.504 1.63034 -0.975699 0
M  V30 4303 H 409.654 3.88452 0.0610361 0
M  V30 4304 H 411.326 3.84518 -2.54841 0
M  V30 4305 H 409.569 3.57715 -2.45403 0
M  V30 4306 H 410.24 5.14587 -1.9976 0
M  V30 4307 H 412.716 4.14623 -0.35031 0
M  V30 4308 H 411.592 5.48897 -0.0180514 0
M  V30 4309 H 411.853 4.25403 1.20354 0
M  V30 4310 N 410.912 0.523116 1.48665 0
M  V30 4311 C 412.189 -0.0775449 1.95446 0
M  V30 4312 C 412.569 -1.5197 1.4652 0
M  V30 4313 O 411.917 -2.17876 0.688657 0
M  V30 4314 C 412.127 0.0326135 3.48985 0
M  V30 4315 C 413.475 -0.130141 4.24401 0
M  V30 4316 O 414.499 -0.0415142 3.56176 0
M  V30 4317 O 413.358 -0.31491 5.45592 0
M  V30 4318 H 410.452 -0.0831012 0.822814 0
M  V30 4319 H 412.998 0.587227 1.59216 0
M  V30 4320 H 411.77 1.03748 3.77296 0
M  V30 4321 H 411.393 -0.671317 3.91892 0
M  V30 4322 N 412.39 -1.55475 0.257931 0
M  V30 4323 C 413.353 -2.20551 -0.623706 0
M  V30 4324 C 414.353 -1.17809 -1.09443 0
M  V30 4325 O 415.543 -1.42823 -0.997362 0
M  V30 4326 C 412.675 -2.85784 -1.8585 0
M  V30 4327 H 413.868 -2.99848 -0.0557743 0
M  V30 4328 H 411.421 -1.56298 0.0084422 0
M  V30 4329 H 412.156 -2.10453 -2.46739 0
M  V30 4330 H 411.941 -3.61057 -1.52907 0
M  V30 4331 H 413.431 -3.35553 -2.48584 0
M  V30 4332 N 413.868 0.0150385 -1.57593 0
M  V30 4333 C 414.778 1.02791 -2.10882 0
M  V30 4334 C 415.794 1.38702 -1.0506 0
M  V30 4335 O 416.97 1.47739 -1.36877 0
M  V30 4336 C 414.035 2.30568 -2.58919 0
M  V30 4337 C 413.096 2.01108 -3.79281 0
M  V30 4338 C 412.329 3.22794 -4.25018 0
M  V30 4339 O 412.552 4.33959 -3.70183 0
M  V30 4340 O 411.486 3.07672 -5.17322 0
M  V30 4341 H 415.312 0.604973 -2.97613 0
M  V30 4342 H 412.897 0.23292 -1.47573 0
M  V30 4343 H 414.779 3.05662 -2.90084 0
M  V30 4344 H 413.454 2.72129 -1.75293 0
M  V30 4345 H 412.361 1.23537 -3.53114 0
M  V30 4346 H 413.694 1.64394 -4.63935 0
M  V30 4347 N 415.346 1.54954 0.287554 0
M  V30 4348 C 416.623 1.65569 1.04146 0
M  V30 4349 C 417.003 0.512672 2.0478 0
M  V30 4350 O 416.351 -0.489038 2.23205 0
M  V30 4351 C 416.561 3.04163 1.71131 0
M  V30 4352 C 417.909 3.61429 2.22832 0
M  V30 4353 O 418.933 3.06702 1.81141 0
M  V30 4354 O 417.792 4.57281 2.9926 0
M  V30 4355 H 414.886 0.671881 0.482188 0
M  V30 4356 H 417.432 1.67297 0.28457 0
M  V30 4357 H 416.204 3.78796 0.981303 0
M  V30 4358 H 415.827 3.06271 2.53543 0
M  V30 4359 N 416.824 -0.551391 1.4764 0
M  V30 4360 C 417.771 -1.65796 1.60563 0
M  V30 4361 C 418.741 -1.59932 0.448428 0
M  V30 4362 O 419.926 -1.78679 0.669222 0
M  V30 4363 C 417.066 -3.04108 1.63133 0
M  V30 4364 C 416.179 -3.20365 2.89811 0
M  V30 4365 C 415.314 -4.49109 2.8368 0
M  V30 4366 C 414.353 -4.58819 4.05156 0
M  V30 4367 N 413.49 -5.78926 3.97227 0
M  V30 4368 H 418.33 -1.54088 2.5507 0
M  V30 4369 H 415.867 -0.75052 1.26513 0
M  V30 4370 H 417.825 -3.84207 1.62606 0
M  V30 4371 H 416.455 -3.14637 0.721341 0
M  V30 4372 H 415.507 -2.33659 3.00179 0
M  V30 4373 H 416.819 -3.23402 3.79753 0
M  V30 4374 H 415.973 -5.37475 2.81434 0
M  V30 4375 H 414.712 -4.4856 1.91431 0
M  V30 4376 H 413.717 -3.68864 4.077 0
M  V30 4377 H 414.942 -4.61124 4.98539 0
M  V30 4378 H 412.888 -5.79314 3.07785 0
M  V30 4379 H 412.805 -5.83367 4.80853 0
M  V30 4380 H 414.073 -6.69637 3.99007 0
M  V30 4381 N 418.302 -1.35869 -0.798587 0
M  V30 4382 C 419.551 -1.28921 -1.5512 0
M  V30 4383 C 419.864 0.13208 -1.95154 0
M  V30 4384 O 421.07 0.323879 -2.69561 0
M  V30 4385 C 419.526 -2.26141 -2.79979 0
M  V30 4386 C 419.134 -3.73658 -2.47151 0
M  V30 4387 C 420.878 -2.28152 -3.57976 0
M  V30 4388 C 418.785 -4.62679 -3.6835 0
M  V30 4389 H 417.715 -0.479031 -0.582276 0
M  V30 4390 H 420.366 -1.61179 -0.877125 0
M  V30 4391 H 418.748 -1.86865 -3.49138 0
M  V30 4392 H 419.922 -4.21616 -1.85947 0
M  V30 4393 H 418.237 -3.74333 -1.82383 0
M  V30 4394 H 420.834 -2.91875 -4.4801 0
M  V30 4395 H 421.177 -1.28748 -3.95891 0
M  V30 4396 H 421.71 -2.65998 -2.95787 0
M  V30 4397 H 418.449 -5.63111 -3.35538 0
M  V30 4398 H 417.969 -4.19442 -4.28752 0
M  V30 4399 H 419.648 -4.78498 -4.35487 0
M  V30 4400 N 419.78 1.02168 -1.19998 0
M  V30 4401 C 420.71 2.12488 -0.96804 0
M  V30 4402 C 421.691 1.69799 0.101185 0
M  V30 4403 O 422.876 1.94121 -0.0552993 0
M  V30 4404 C 420.006 3.43479 -0.513776 0
M  V30 4405 C 418.96 3.99884 -1.52566 0
M  V30 4406 C 418.286 5.26582 -0.928214 0
M  V30 4407 C 419.586 4.33861 -2.90795 0
M  V30 4408 H 421.28 2.32149 -1.89069 0
M  V30 4409 H 418.826 1.11564 -0.910468 0
M  V30 4410 H 420.779 4.20036 -0.338774 0
M  V30 4411 H 419.503 3.23561 0.444493 0
M  V30 4412 H 418.162 3.25429 -1.68794 0
M  V30 4413 H 417.81 5.02986 0.0378289 0
M  V30 4414 H 417.51 5.65284 -1.60397 0
M  V30 4415 H 419.034 6.05799 -0.764167 0
M  V30 4416 H 420.448 5.01327 -2.78109 0
M  V30 4417 H 418.845 4.83664 -3.55231 0
M  V30 4418 H 419.915 3.42848 -3.42904 0
M  V30 4419 N 421.258 1.00505 1.21394 0
M  V30 4420 C 422.188 0.585684 2.26035 0
M  V30 4421 C 423.169 -0.393525 1.65485 0
M  V30 4422 O 424.354 -0.281497 1.92149 0
M  V30 4423 C 421.484 -0.0884283 3.47187 0
M  V30 4424 C 420.438 0.810567 4.20254 0
M  V30 4425 C 419.764 0.00286382 5.347 0
M  V30 4426 C 421.064 2.1132 4.77641 0
M  V30 4427 H 422.758 1.46039 2.61368 0
M  V30 4428 H 420.304 0.703648 1.25638 0
M  V30 4429 H 422.257 -0.393286 4.19561 0
M  V30 4430 H 420.981 -0.997766 3.10986 0
M  V30 4431 H 419.64 1.09925 3.49731 0
M  V30 4432 H 419.288 -0.907765 4.94741 0
M  V30 4433 H 418.988 0.601444 5.84514 0
M  V30 4434 H 420.512 -0.295808 6.09883 0
M  V30 4435 H 421.926 1.87148 5.41893 0
M  V30 4436 H 420.323 2.66164 5.37845 0
M  V30 4437 H 421.393 2.78393 3.9702 0
M  V30 4438 N 422.737 -1.36956 0.779787 0
M  V30 4439 C 423.967 -2.03459 0.358877 0
M  V30 4440 C 424.375 -1.58939 -1.02641 0
M  V30 4441 O 423.718 -0.769777 -1.66794 0
M  V30 4442 C 423.78 -3.5796 0.332393 0
M  V30 4443 C 423.444 -4.25644 1.66362 0
M  V30 4444 C 424.441 -4.49205 2.61746 0
M  V30 4445 C 422.126 -4.63313 1.94027 0
M  V30 4446 C 424.12 -5.09503 3.82996 0
M  V30 4447 C 421.807 -5.2333 3.15546 0
M  V30 4448 C 422.805 -5.46363 4.0985 0
M  V30 4449 O 422.493 -6.05122 5.29228 0
M  V30 4450 H 422.225 -0.659767 0.147254 0
M  V30 4451 H 424.779 -1.76111 1.05708 0
M  V30 4452 H 423.009 -3.84388 -0.422237 0
M  V30 4453 H 424.698 -4.05852 -0.0625389 0
M  V30 4454 H 425.464 -4.20508 2.41657 0
M  V30 4455 H 421.343 -4.44715 1.21448 0
M  V30 4456 H 424.887 -5.27397 4.56617 0
M  V30 4457 H 420.784 -5.51451 3.35517 0
M  V30 4458 H 421.552 -6.23595 5.30161 0
M  V30 4459 N 424.215 -0.530993 -1.48385 0
M  V30 4460 C 425.631 -0.188919 -1.58478 0
M  V30 4461 C 425.831 1.30786 -1.53288 0
M  V30 4462 O 424.887 2.08619 -1.42248 0
M  V30 4463 C 426.2 -0.792343 -2.90073 0
M  V30 4464 C 427.748 -0.76117 -3.03604 0
M  V30 4465 C 428.223 -1.34319 -4.37861 0
M  V30 4466 N 429.714 -1.3052 -4.44431 0
M  V30 4467 C 430.449 -1.72543 -5.46824 0
M  V30 4468 N 429.945 -2.22299 -6.56167 0
M  V30 4469 N 431.738 -1.63773 -5.37712 0
M  V30 4470 H 423.889 -1.50377 -1.50002 0
M  V30 4471 H 426.152 -0.625559 -0.712306 0
M  V30 4472 H 425.858 -1.84323 -2.99529 0
M  V30 4473 H 425.732 -0.270026 -3.76232 0
M  V30 4474 H 428.119 0.280957 -2.93759 0
M  V30 4475 H 428.2 -1.32097 -2.19053 0
M  V30 4476 H 427.844 -2.38425 -4.4846 0
M  V30 4477 H 427.774 -0.759064 -5.21101 0
M  V30 4478 H 430.265 -0.940973 -3.65997 0
M  V30 4479 H 430.578 -2.52356 -7.30436 0
M  V30 4480 H 428.923 -2.26293 -6.57127 0
M  V30 4481 H 432.114 -1.24698 -4.51185 0
M  V30 4482 H 432.287 -1.96844 -6.17379 0
M  V30 4483 N 425.693 1.55336 -0.266172 0
M  V30 4484 C 426.641 2.23587 0.641228 0
M  V30 4485 C 427.635 1.22986 1.16494 0
M  V30 4486 O 428.841 1.40943 1.1196 0
M  V30 4487 H 425.216 0.717452 0.225315 0
M  V30 4488 H 427.187 2.9837 0.0426561 0
M  V30 4489 C 425.936 2.96369 1.81826 0
M  V30 4490 H 425.259 3.73563 1.42445 0
M  V30 4491 H 426.699 3.47459 2.42998 0
M  V30 4492 C 425.158 2.0133 2.70125 0
M  V30 4493 O 425.688 1.55875 3.70224 0
M  V30 4494 N 423.894 1.6802 2.37102 0
M  V30 4495 H 423.441 2.05181 1.55751 0
M  V30 4496 H 423.399 1.047 2.96454 0
M  V30 4497 N 427.171 -0.0066808 1.57599 0
M  V30 4498 C 428.101 -0.999296 2.11036 0
M  V30 4499 C 429.082 -1.36278 1.01795 0
M  V30 4500 O 430.267 -1.4477 1.29442 0
M  V30 4501 C 427.397 -2.29328 2.60818 0
M  V30 4502 C 426.351 -2.07159 3.74525 0
M  V30 4503 C 425.677 -3.42512 4.10596 0
M  V30 4504 C 426.977 -1.43959 5.02069 0
M  V30 4505 H 428.671 -0.554382 2.94223 0
M  V30 4506 H 426.217 -0.265221 1.41536 0
M  V30 4507 H 428.17 -2.99117 2.96828 0
M  V30 4508 H 426.894 -2.7592 1.74745 0
M  V30 4509 H 425.553 -1.39797 3.38899 0
M  V30 4510 H 425.201 -3.86795 3.21556 0
M  V30 4511 H 424.901 -3.28498 4.87199 0
M  V30 4512 H 426.425 -4.13628 4.4916 0
M  V30 4513 H 427.839 -2.03696 5.35893 0
M  V30 4514 H 426.236 -1.40452 5.83432 0
M  V30 4515 H 427.306 -0.407992 4.83181 0
M  V30 4516 N 428.649 -1.55105 -0.279332 0
M  V30 4517 C 429.579 -1.90557 -1.34945 0
M  V30 4518 C 430.56 -0.766738 -1.51839 0
M  V30 4519 O 431.745 -1.02434 -1.64988 0
M  V30 4520 C 428.875 -2.17193 -2.71006 0
M  V30 4521 C 427.829 -3.33021 -2.68851 0
M  V30 4522 C 427.155 -3.45123 -4.08405 0
M  V30 4523 C 428.455 -4.69578 -2.28678 0
M  V30 4524 H 430.149 -2.80188 -1.05522 0
M  V30 4525 H 427.695 -1.34811 -0.506173 0
M  V30 4526 H 429.648 -2.40581 -3.45975 0
M  V30 4527 H 428.372 -1.24355 -3.01999 0
M  V30 4528 H 427.031 -3.0959 -1.9634 0
M  V30 4529 H 426.679 -2.49762 -4.3661 0
M  V30 4530 H 426.379 -4.22995 -4.07859 0
M  V30 4531 H 427.903 -3.70796 -4.85121 0
M  V30 4532 H 429.317 -4.92553 -2.93368 0
M  V30 4533 H 427.714 -5.5032 -2.39306 0
M  V30 4534 H 428.784 -4.68828 -1.23807 0
M  V30 4535 N 430.127 0.543554 -1.4793 0
M  V30 4536 C 431.375 1.29752 -1.54948 0
M  V30 4537 C 431.696 1.93764 -0.219242 0
M  V30 4538 O 430.966 1.80639 0.75805 0
M  V30 4539 H 429.546 0.481874 -0.570795 0
M  V30 4540 H 432.208 0.633636 -1.84312 0
M  V30 4541 H 431.304 2.08392 -2.32334 0
M  V30 4542 N 431.605 1.3629 0.791371 0
M  V30 4543 C 432.535 1.33137 1.91825 0
M  V30 4544 C 433.516 0.203168 1.68882 0
M  V30 4545 O 434.701 0.400509 1.90025 0
M  V30 4546 C 431.831 1.11793 3.28816 0
M  V30 4547 C 430.785 2.21417 3.66277 0
M  V30 4548 C 430.111 1.85218 5.01596 0
M  V30 4549 C 431.411 3.63489 3.75064 0
M  V30 4550 H 433.105 2.2743 1.9472 0
M  V30 4551 H 430.651 1.09479 0.935437 0
M  V30 4552 H 432.604 1.08222 4.07266 0
M  V30 4553 H 431.328 0.139501 3.26302 0
M  V30 4554 H 429.987 2.2411 2.90121 0
M  V30 4555 H 429.635 0.859544 4.95602 0
M  V30 4556 H 429.335 2.58611 5.27631 0
M  V30 4557 H 430.859 1.832 5.82469 0
M  V30 4558 H 432.273 3.63034 4.43711 0
M  V30 4559 H 430.67 4.35771 4.12582 0
M  V30 4560 H 431.74 3.98536 2.76219 0
M  V30 4561 N 433.083 -1.0153 1.20538 0
M  V30 4562 C 434.016 -2.09759 0.898695 0
M  V30 4563 C 434.994 -1.61909 -0.149733 0
M  V30 4564 O 436.178 -1.88486 -0.0230293 0
M  V30 4565 C 433.305 -3.36913 0.347512 0
M  V30 4566 C 432.351 -4.03655 1.37713 0
M  V30 4567 S 433.184 -4.47402 2.94265 0
M  V30 4568 C 434.34 -5.77756 2.40726 0
M  V30 4569 H 434.573 -2.3545 1.81523 0
M  V30 4570 H 432.106 -1.14665 1.03399 0
M  V30 4571 H 434.064 -4.10484 0.0360518 0
M  V30 4572 H 432.725 -3.09291 -0.547546 0
M  V30 4573 H 431.918 -4.9514 0.940872 0
M  V30 4574 H 431.52 -3.36313 1.63614 0
M  V30 4575 H 433.812 -6.52994 1.80569 0
M  V30 4576 H 434.755 -6.2618 3.30612 0
M  V30 4577 H 435.163 -5.34081 1.82806 0
M  V30 4578 N 434.561 -1.01147 -1.20859 0
M  V30 4579 C 435.493 -0.535546 -2.22855 0
M  V30 4580 C 436.506 0.379323 -1.58319 0
M  V30 4581 O 437.695 0.178489 -1.77605 0
M  V30 4582 C 434.795 0.240962 -3.38042 0
M  V30 4583 C 433.968 -0.674562 -4.32167 0
M  V30 4584 C 433.027 0.053467 -5.26173 0
M  V30 4585 O 432.053 -0.567339 -5.66366 0
M  V30 4586 N 433.255 1.32997 -5.65059 0
M  V30 4587 H 436.02 -1.41268 -2.64317 0
M  V30 4588 H 433.581 -0.888386 -1.35349 0
M  V30 4589 H 435.573 0.737115 -3.97931 0
M  V30 4590 H 434.143 1.01935 -2.95513 0
M  V30 4591 H 433.363 -1.35111 -3.70322 0
M  V30 4592 H 434.651 -1.2974 -4.91981 0
M  V30 4593 H 434.049 1.85536 -5.34409 0
M  V30 4594 H 432.606 1.77095 -6.2728 0
M  V30 4595 N 436.039 1.36541 -0.78704 0
M  V30 4596 C 437.287 1.98911 -0.357633 0
M  V30 4597 C 437.608 1.62778 1.07371 0
M  V30 4598 O 436.878 0.900612 1.73971 0
M  V30 4599 H 435.458 0.735734 -0.129246 0
M  V30 4600 H 438.12 1.66776 -1.00855 0
M  V30 4601 H 437.216 3.08874 -0.447549 0
M  V30 4602 N 437.518 0.538854 1.48102 0
M  V30 4603 C 438.746 0.0123136 2.06896 0
M  V30 4604 C 439.161 -1.27312 1.39417 0
M  V30 4605 O 438.518 -1.75949 0.484582 0
M  V30 4606 C 438.569 -0.206118 3.60912 0
M  V30 4607 O 438.29 1.0284 4.25859 0
M  V30 4608 C 439.791 -0.772033 4.36526 0
M  V30 4609 H 437.011 0.0375239 0.66995 0
M  V30 4610 H 439.555 0.747032 1.90367 0
M  V30 4611 H 437.71 -0.89091 3.77017 0
M  V30 4612 H 438.124 0.814654 5.18135 0
M  V30 4613 H 439.598 -0.874251 5.45033 0
M  V30 4614 H 440.075 -1.77904 4.01555 0
M  V30 4615 H 440.681 -0.123526 4.25121 0
M  V30 4616 N 438.996 -1.55193 0.274407 0
M  V30 4617 C 439.926 -2.25471 -0.607032 0
M  V30 4618 C 440.907 -1.24461 -1.15946 0
M  V30 4619 O 442.092 -1.53179 -1.19373 0
M  V30 4620 C 439.222 -2.97526 -1.79153 0
M  V30 4621 C 438.176 -4.05459 -1.37067 0
M  V30 4622 C 437.502 -4.65084 -2.6382 0
M  V30 4623 C 438.802 -5.19691 -0.521389 0
M  V30 4624 H 440.496 -2.99393 -0.0209343 0
M  V30 4625 H 438.042 -1.43997 -0.00862866 0
M  V30 4626 H 439.995 -3.45402 -2.41404 0
M  V30 4627 H 438.719 -2.21138 -2.40344 0
M  V30 4628 H 437.378 -3.58393 -0.771355 0
M  V30 4629 H 437.026 -3.85365 -3.23268 0
M  V30 4630 H 436.726 -5.37961 -2.36372 0
M  V30 4631 H 438.25 -5.15708 -3.26921 0
M  V30 4632 H 439.664 -5.63623 -1.04889 0
M  V30 4633 H 438.061 -5.99126 -0.341825 0
M  V30 4634 H 439.131 -4.82713 0.46 0
M  V30 4635 N 440.474 -0.00167713 -1.576 0
M  V30 4636 C 441.406 1.0174 -2.05382 0
M  V30 4637 C 442.419 1.30595 -0.972052 0
M  V30 4638 O 443.608 1.27542 -1.24882 0
M  V30 4639 C 440.708 2.35174 -2.44022 0
M  V30 4640 C 439.881 2.25234 -3.74951 0
M  V30 4641 C 438.94 3.4137 -4.00441 0
M  V30 4642 O 437.966 3.19483 -4.71083 0
M  V30 4643 N 439.168 4.64275 -3.48467 0
M  V30 4644 H 441.933 0.609902 -2.93428 0
M  V30 4645 H 439.494 0.185672 -1.60832 0
M  V30 4646 H 441.486 3.11643 -2.58187 0
M  V30 4647 H 440.056 2.67659 -1.61485 0
M  V30 4648 H 439.276 1.33664 -3.70847 0
M  V30 4649 H 440.564 2.15767 -4.60784 0
M  V30 4650 H 439.962 4.84955 -2.91264 0
M  V30 4651 H 438.519 5.38005 -3.67959 0
M  V30 4652 N 441.952 1.55251 0.271103 0
M  V30 4653 C 442.862 1.9136 1.35714 0
M  V30 4654 C 443.878 0.811075 1.5394 0
M  V30 4655 O 445.054 1.11031 1.6803 0
M  V30 4656 C 442.119 2.1798 2.69603 0
M  V30 4657 C 441.18 3.4153 2.60107 0
M  V30 4658 C 440.413 3.66871 3.8761 0
M  V30 4659 O 440.636 2.94689 4.8838 0
M  V30 4660 O 439.57 4.60405 3.87699 0
M  V30 4661 H 443.396 2.83815 1.08088 0
M  V30 4662 H 440.981 1.41821 0.469792 0
M  V30 4663 H 442.863 2.36518 3.48765 0
M  V30 4664 H 441.538 1.28708 2.97012 0
M  V30 4665 H 440.445 3.28325 1.79314 0
M  V30 4666 H 441.778 4.31027 2.37647 0
M  V30 4667 N 443.43 -0.535701 1.48216 0
M  V30 4668 C 444.377 -1.64083 1.62312 0
M  V30 4669 C 445.347 -1.59448 0.465365 0
M  V30 4670 O 446.532 -1.77959 0.688135 0
M  V30 4671 C 443.672 -3.0236 1.66349 0
M  V30 4672 C 442.785 -3.17273 2.93193 0
M  V30 4673 C 441.92 -4.46075 2.88427 0
M  V30 4674 C 440.959 -4.54496 4.1 0
M  V30 4675 N 440.096 -5.7468 4.03345 0
M  V30 4676 H 444.936 -1.51374 2.5669 0
M  V30 4677 H 442.473 -0.737059 1.27302 0
M  V30 4678 H 444.431 -3.82461 1.66672 0
M  V30 4679 H 443.061 -3.13854 0.754672 0
M  V30 4680 H 442.113 -2.30462 3.02641 0
M  V30 4681 H 443.425 -3.19357 3.83162 0
M  V30 4682 H 442.579 -5.3446 2.87119 0
M  V30 4683 H 441.318 -4.46504 1.96177 0
M  V30 4684 H 440.323 -3.64519 4.11589 0
M  V30 4685 H 441.548 -4.5581 5.03402 0
M  V30 4686 H 439.494 -5.76017 3.13912 0
M  V30 4687 H 439.411 -5.78234 4.87013 0
M  V30 4688 H 440.679 -6.65367 4.06087 0
M  V30 4689 N 444.908 -1.36708 -0.784132 0
M  V30 4690 C 445.841 -1.25827 -1.90375 0
M  V30 4691 C 446.819 -0.141331 -1.61985 0
M  V30 4692 O 448.003 -0.313389 -1.85877 0
M  V30 4693 C 445.13 -0.942621 -3.25319 0
M  V30 4694 C 444.176 -2.07474 -3.72635 0
M  V30 4695 S 445.009 -3.69317 -3.8777 0
M  V30 4696 C 446.165 -3.39876 -5.25581 0
M  V30 4697 H 446.398 -2.20593 -1.99314 0
M  V30 4698 H 443.931 -1.22186 -0.943926 0
M  V30 4699 H 445.889 -0.767321 -4.03265 0
M  V30 4700 H 444.55 -0.0126566 -3.14097 0
M  V30 4701 H 443.743 -1.80858 -4.70432 0
M  V30 4702 H 443.345 -2.20953 -3.01754 0
M  V30 4703 H 445.637 -2.94097 -6.10339 0
M  V30 4704 H 446.58 -4.36956 -5.57203 0
M  V30 4705 H 446.988 -2.75098 -4.92931 0
M  V30 4706 N 446.386 1.0089 -1.21074 0
M  V30 4707 C 447.296 2.13039 -0.982425 0
M  V30 4708 C 448.312 1.73881 0.0642161 0
M  V30 4709 O 449.488 2.01012 -0.12496 0
M  V30 4710 C 446.553 3.42377 -0.545803 0
M  V30 4711 C 445.614 3.95731 -1.6642 0
M  V30 4712 C 444.847 5.18896 -1.24832 0
M  V30 4713 O 445.07 5.70273 -0.120265 0
M  V30 4714 O 444.004 5.65597 -2.05873 0
M  V30 4715 H 447.83 2.35175 -1.92163 0
M  V30 4716 H 445.415 1.1142 -0.995285 0
M  V30 4717 H 447.297 4.20244 -0.311912 0
M  V30 4718 H 445.972 3.21639 0.364727 0
M  V30 4719 H 444.879 3.19108 -1.95246 0
M  V30 4720 H 446.212 4.20872 -2.55201 0
M  V30 4721 N 447.864 1.01787 1.20321 0
M  V30 4722 C 448.811 0.589197 2.23153 0
M  V30 4723 C 449.781 -0.391367 1.61423 0
M  V30 4724 O 450.966 -0.290518 1.88575 0
M  V30 4725 C 448.106 -0.0650747 3.45039 0
M  V30 4726 C 447.219 0.960207 4.21194 0
M  V30 4727 C 446.354 0.276854 5.30478 0
M  V30 4728 C 445.393 1.2888 5.98378 0
M  V30 4729 N 444.53 0.632031 6.99249 0
M  V30 4730 H 449.37 1.47071 2.59179 0
M  V30 4731 H 446.907 0.736192 1.27352 0
M  V30 4732 H 448.865 -0.461552 4.14639 0
M  V30 4733 H 447.495 -0.910233 3.09701 0
M  V30 4734 H 446.547 1.47484 3.50646 0
M  V30 4735 H 447.859 1.72977 4.67847 0
M  V30 4736 H 447.013 -0.175056 6.06447 0
M  V30 4737 H 445.752 -0.525004 4.84866 0
M  V30 4738 H 444.757 1.75109 5.21169 0
M  V30 4739 H 445.982 2.09196 6.46076 0
M  V30 4740 H 443.928 -0.149935 6.55829 0
M  V30 4741 H 443.845 1.33964 7.44036 0
M  V30 4742 H 445.113 0.203755 7.79234 0
M  V30 4743 N 449.342 -1.36122 0.79427 0
M  V30 4744 C 450.29 -2.31871 0.184023 0
M  V30 4745 C 451.284 -1.56041 -0.659365 0
M  V30 4746 O 452.49 -1.71266 -0.553906 0
M  V30 4747 H 448.865 -0.750896 0.0407373 0
M  V30 4748 H 450.836 -2.80898 1.00693 0
M  V30 4749 C 449.585 -3.41324 -0.662813 0
M  V30 4750 H 448.908 -3.99793 -0.0231944 0
M  V30 4751 H 450.348 -4.10629 -1.05639 0
M  V30 4752 C 448.807 -2.83308 -1.82313 0
M  V30 4753 O 449.337 -2.75863 -2.91997 0
M  V30 4754 N 447.543 -2.40529 -1.63077 0
M  V30 4755 H 447.09 -2.46785 -0.738591 0
M  V30 4756 H 447.048 -2.02059 -2.40872 0
M  V30 4757 N 450.82 -0.546701 -1.47814 0
M  V30 4758 C 452.068 -0.0187037 -2.02091 0
M  V30 4759 C 452.389 1.33168 -1.42447 0
M  V30 4760 O 451.659 1.86619 -0.595839 0
M  V30 4761 H 450.239 -0.00392531 -0.74699 0
M  V30 4762 H 452.901 -0.714327 -1.81338 0
M  V30 4763 H 451.997 0.0772219 -3.12004 0
M  V30 4764 N 452.299 1.55045 -0.282633 0
M  V30 4765 C 453.715 1.59441 0.0712997 0
M  V30 4766 C 453.915 1.2998 1.53972 0
M  V30 4767 O 452.971 1.06431 2.28973 0
M  V30 4768 C 454.284 2.99097 -0.310104 0
M  V30 4769 C 455.832 3.1194 -0.257343 0
M  V30 4770 C 456.307 4.53875 -0.613297 0
M  V30 4771 N 457.798 4.5974 -0.565134 0
M  V30 4772 C 458.533 5.67603 -0.81326 0
M  V30 4773 N 458.029 6.83582 -1.1264 0
M  V30 4774 N 459.822 5.57187 -0.741553 0
M  V30 4775 H 451.973 1.72458 -1.23984 0
M  V30 4776 H 454.236 0.804549 -0.501403 0
M  V30 4777 H 453.942 3.25516 -1.33163 0
M  V30 4778 H 453.816 3.75616 0.345366 0
M  V30 4779 H 456.203 2.85281 0.754905 0
M  V30 4780 H 456.284 2.37618 -0.947178 0
M  V30 4781 H 455.928 4.81261 -1.62327 0
M  V30 4782 H 455.858 5.26508 0.09841 0
M  V30 4783 H 458.349 3.76427 -0.333294 0
M  V30 4784 H 458.662 7.6175 -1.30219 0
M  V30 4785 H 457.007 6.85179 -1.16425 0
M  V30 4786 H 460.198 4.65457 -0.496705 0
M  V30 4787 H 460.371 6.41171 -0.938306 0
M  V30 4788 N 453.777 0.010035 1.57597 0
M  V30 4789 C 454.709 -1.00649 2.05918 0
M  V30 4790 C 455.722 -1.30077 0.978964 0
M  V30 4791 O 456.911 -1.26878 1.25556 0
M  V30 4792 C 454.011 -2.33876 2.45265 0
M  V30 4793 C 453.184 -2.23242 3.7614 0
M  V30 4794 C 452.243 -3.39242 4.02245 0
M  V30 4795 O 451.269 -3.1698 4.72771 0
M  V30 4796 N 452.471 -4.6242 3.50924 0
M  V30 4797 H 455.236 -0.594333 2.93748 0
M  V30 4798 H 452.797 -0.17714 1.60928 0
M  V30 4799 H 454.789 -3.1027 2.59836 0
M  V30 4800 H 453.359 -2.66799 1.62902 0
M  V30 4801 H 452.579 -1.31696 3.71551 0
M  V30 4802 H 453.867 -2.13321 4.61922 0
M  V30 4803 H 453.265 -4.83404 2.93832 0
M  V30 4804 H 451.822 -5.36046 3.70807 0
M  V30 4805 N 455.255 -1.55392 -0.262866 0
M  V30 4806 C 456.504 -1.75679 -0.990943 0
M  V30 4807 C 456.817 -0.57097 -1.87081 0
M  V30 4808 O 458.023 -0.656486 -2.63444 0
M  V30 4809 C 456.479 -3.10964 -1.81188 0
M  V30 4810 C 456.087 -4.37146 -0.980188 0
M  V30 4811 C 457.831 -3.40597 -2.53365 0
M  V30 4812 C 455.738 -5.63466 -1.7961 0
M  V30 4813 H 454.668 -0.654868 -0.373716 0
M  V30 4814 H 457.319 -1.81841 -0.246203 0
M  V30 4815 H 455.701 -2.98867 -2.59797 0
M  V30 4816 H 456.875 -4.60187 -0.237558 0
M  V30 4817 H 455.19 -4.14731 -0.372497 0
M  V30 4818 H 457.787 -4.32186 -3.14833 0
M  V30 4819 H 458.13 -2.6119 -3.24169 0
M  V30 4820 H 458.663 -3.53838 -1.81779 0
M  V30 4821 H 455.402 -6.4565 -1.13209 0
M  V30 4822 H 454.922 -5.44552 -2.51443 0
M  V30 4823 H 456.601 -6.02139 -2.36723 0
M  V30 4824 N 456.733 0.527833 -1.48498 0
M  V30 4825 C 457.979 1.28545 -1.56857 0
M  V30 4826 C 458.312 1.92678 -0.242651 0
M  V30 4827 O 457.587 1.79394 0.751545 0
M  V30 4828 C 457.87 2.37314 -2.70839 0
M  V30 4829 C 457.723 1.77858 -4.13142 0
M  V30 4830 C 459.042 3.39068 -2.80573 0
M  V30 4831 H 456.161 0.466006 -0.570971 0
M  V30 4832 H 458.803 0.587784 -1.8068 0
M  V30 4833 H 456.953 2.96821 -2.50658 0
M  V30 4834 H 458.625 1.22385 -4.44769 0
M  V30 4835 H 456.868 1.08383 -4.20042 0
M  V30 4836 H 457.539 2.56624 -4.88721 0
M  V30 4837 H 460.015 2.89518 -2.98862 0
M  V30 4838 H 458.891 4.12566 -3.6205 0
M  V30 4839 H 459.152 3.9975 -1.88818 0
M  V30 4840 N 458.211 1.37122 0.776871 0
M  V30 4841 C 459.627 1.1781 1.07671 0
M  V30 4842 C 459.827 0.0107454 2.01497 0
M  V30 4843 O 458.883 -0.650756 2.4397 0
M  V30 4844 C 460.196 2.49451 1.67913 0
M  V30 4845 C 461.744 2.55927 1.80195 0
M  V30 4846 C 462.219 3.87686 2.43851 0
M  V30 4847 N 463.71 3.891 2.51307 0
M  V30 4848 C 464.445 4.87797 3.014 0
M  V30 4849 N 463.941 5.96888 3.51705 0
M  V30 4850 N 465.734 4.75205 3.00227 0
M  V30 4851 H 457.885 2.11843 0.153778 0
M  V30 4852 H 460.148 0.938927 0.130844 0
M  V30 4853 H 459.854 3.35207 1.06439 0
M  V30 4854 H 459.728 2.66169 2.67271 0
M  V30 4855 H 462.115 1.70582 2.40803 0
M  V30 4856 H 462.196 2.43097 0.796069 0
M  V30 4857 H 461.84 4.73444 1.83884 0
M  V30 4858 H 461.77 3.97817 3.45035 0
M  V30 4859 H 464.261 3.10293 2.157 0
M  V30 4860 H 464.574 6.68155 3.88316 0
M  V30 4861 H 462.919 6.0054 3.49824 0
M  V30 4862 H 466.11 3.89103 2.60224 0
M  V30 4863 H 466.283 5.52279 3.38957 0
M  V30 4864 N 459.689 -1.00246 1.21608 0
M  V30 4865 C 460.636 -2.09073 0.977613 0
M  V30 4866 C 461.606 -1.65815 -0.097297 0
M  V30 4867 O 462.791 -1.90734 0.0503445 0
M  V30 4868 C 459.931 -3.40671 0.551133 0
M  V30 4869 C 459.044 -3.97326 1.69576 0
M  V30 4870 C 458.179 -5.17043 1.2182 0
M  V30 4871 C 457.218 -5.65813 2.335 0
M  V30 4872 N 456.355 -6.76778 1.86859 0
M  V30 4873 H 461.195 -2.28806 1.90924 0
M  V30 4874 H 458.732 -1.12186 0.951452 0
M  V30 4875 H 460.69 -4.16225 0.285097 0
M  V30 4876 H 459.32 -3.20967 -0.343489 0
M  V30 4877 H 458.372 -3.18734 2.07637 0
M  V30 4878 H 459.684 -4.29511 2.53617 0
M  V30 4879 H 458.838 -5.99852 0.908975 0
M  V30 4880 H 457.577 -4.86458 0.347869 0
M  V30 4881 H 456.582 -4.81599 2.65222 0
M  V30 4882 H 457.807 -5.98427 3.21033 0
M  V30 4883 H 455.753 -6.47994 1.02174 0
M  V30 4884 H 455.67 -7.08231 2.64471 0
M  V30 4885 H 456.938 -7.63116 1.58978 0
M  V30 4886 N 461.167 -1.02423 -1.1978 0
M  V30 4887 C 462.097 -0.62157 -2.25075 0
M  V30 4888 C 463.078 0.367148 -1.6609 0
M  V30 4889 O 464.263 0.250892 -1.92573 0
M  V30 4890 C 461.393 0.0331826 -3.47284 0
M  V30 4891 C 460.347 -0.877323 -4.18912 0
M  V30 4892 C 459.673 -0.0879296 -5.34628 0
M  V30 4893 C 460.973 -2.18892 -4.74219 0
M  V30 4894 H 462.667 -1.50179 -2.59011 0
M  V30 4895 H 460.213 -0.723547 -1.24502 0
M  V30 4896 H 462.166 0.326488 -4.20133 0
M  V30 4897 H 460.89 0.948164 -3.12534 0
M  V30 4898 H 459.549 -1.15475 -3.47938 0
M  V30 4899 H 459.197 0.828941 -4.96123 0
M  V30 4900 H 458.897 -0.694359 -5.83483 0
M  V30 4901 H 460.421 0.198743 -6.10276 0
M  V30 4902 H 461.835 -1.95746 -5.38847 0
M  V30 4903 H 460.232 -2.74686 -5.33542 0
M  V30 4904 H 461.302 -2.84674 -3.92541 0
M  V30 4905 N 462.645 1.35699 -0.801477 0
M  V30 4906 C 463.593 2.3177 -0.196317 0
M  V30 4907 C 464.587 1.56388 0.651081 0
M  V30 4908 O 465.793 1.71557 0.544815 0
M  V30 4909 H 462.168 0.750669 -0.0447189 0
M  V30 4910 H 464.139 2.8036 -1.02181 0
M  V30 4911 C 462.888 3.41671 0.644702 0
M  V30 4912 H 462.211 3.998 0.0019921 0
M  V30 4913 H 463.651 4.11184 1.0346 0
M  V30 4914 C 462.11 2.84271 1.80808 0
M  V30 4915 O 462.64 2.77408 2.9053 0
M  V30 4916 N 460.846 2.41391 1.61799 0
M  V30 4917 H 460.393 2.47173 0.725493 0
M  V30 4918 H 460.351 2.03334 2.39797 0
M  V30 4919 N 464.123 0.554532 1.47522 0
M  V30 4920 C 465.4 -0.0360704 1.95567 0
M  V30 4921 C 465.78 -1.48828 1.49711 0
M  V30 4922 O 465.128 -2.16366 0.734717 0
M  V30 4923 C 465.338 0.106631 3.48837 0
M  V30 4924 C 466.686 -0.0400899 4.24581 0
M  V30 4925 O 467.71 0.0340453 3.56184 0
M  V30 4926 O 466.569 -0.199111 5.46137 0
M  V30 4927 H 463.663 -0.0656294 0.824392 0
M  V30 4928 H 466.209 0.620867 1.57935 0
M  V30 4929 H 464.981 1.11727 3.7501 0
M  V30 4930 H 464.604 -0.58804 3.93227 0
M  V30 4931 N 465.601 -1.54893 0.290851 0
M  V30 4932 C 466.878 -1.91991 -0.373989 0
M  V30 4933 C 467.258 -1.21694 -1.72493 0
M  V30 4934 O 466.606 -0.34917 -2.25816 0
M  V30 4935 C 466.816 -3.45419 -0.498703 0
M  V30 4936 C 468.164 -4.1748 -0.774298 0
M  V30 4937 O 469.188 -3.51398 -0.582908 0
M  V30 4938 O 468.047 -5.3445 -1.14129 0
M  V30 4939 H 465.141 -0.800593 -0.207315 0
M  V30 4940 H 467.687 -1.66297 0.338164 0
M  V30 4941 H 466.459 -3.88688 0.451392 0
M  V30 4942 H 466.082 -3.77117 -1.25972 0
M  V30 4943 N 467.08 -0.0183926 -1.57589 0
M  V30 4944 C 468.496 0.337897 -1.55982 0
M  V30 4945 C 468.696 1.73604 -1.02294 0
M  V30 4946 O 467.752 2.43589 -0.664895 0
M  V30 4947 C 469.065 0.196305 -3.00059 0
M  V30 4948 C 470.613 0.269875 -3.11834 0
M  V30 4949 C 471.088 0.157197 -4.5773 0
M  V30 4950 N 472.579 0.214521 -4.62703 0
M  V30 4951 C 473.314 0.150955 -5.73201 0
M  V30 4952 N 472.81 0.0369212 -6.9279 0
M  V30 4953 N 474.603 0.204162 -5.61729 0
M  V30 4954 H 466.754 -0.93279 -1.90821 0
M  V30 4955 H 469.017 -0.359253 -0.877292 0
M  V30 4956 H 468.723 -0.766383 -3.43248 0
M  V30 4957 H 468.597 0.970908 -3.6449 0
M  V30 4958 H 470.984 1.22302 -2.68563 0
M  V30 4959 H 471.065 -0.534918 -2.50144 0
M  V30 4960 H 470.709 -0.792479 -5.01679 0
M  V30 4961 H 470.639 0.980717 -5.17387 0
M  V30 4962 H 473.13 0.303238 -3.76681 0
M  V30 4963 H 473.443 -0.00518321 -7.728 0
M  V30 4964 H 471.788 0.0022886 -6.95 0
M  V30 4965 H 474.979 0.291575 -4.67191 0
M  V30 4966 H 475.152 0.15116 -6.47824 0
M  V30 4967 N 468.558 1.5553 0.254621 0
M  V30 4968 C 469.508 1.86057 1.31783 0
M  V30 4969 C 470.492 0.720827 1.4385 0
M  V30 4970 O 471.684 0.982586 1.47222 0
M  V30 4971 C 468.813 2.15203 2.67475 0
M  V30 4972 C 467.899 3.35484 2.59444 0
M  V30 4973 N 468.29 4.54945 2.2104 0
M  V30 4974 C 466.588 3.38441 2.90472 0
M  V30 4975 C 467.289 5.3707 2.23453 0
M  V30 4976 N 466.265 4.75936 2.62652 0
M  V30 4977 H 470.067 2.75953 1.01129 0
M  V30 4978 H 467.581 1.55653 0.463255 0
M  V30 4979 H 469.578 2.35235 3.44195 0
M  V30 4980 H 468.238 1.26601 2.99002 0
M  V30 4981 H 469.249 4.8071 1.92712 0
M  V30 4982 H 465.926 2.60087 3.2659 0
M  V30 4983 H 467.316 6.42626 1.96166 0
M  V30 4984 N 470.036 -0.519951 1.48776 0
M  V30 4985 C 471.266 -1.29783 1.60748 0
M  V30 4986 C 471.674 -1.87253 0.27072 0
M  V30 4987 O 471.017 -1.67628 -0.751438 0
M  V30 4988 C 471.079 -2.47984 2.60277 0
M  V30 4989 C 470.743 -2.11526 4.051 0
M  V30 4990 C 471.74 -1.66608 4.92481 0
M  V30 4991 C 469.425 -2.21742 4.50706 0
M  V30 4992 C 471.419 -1.32384 6.23501 0
M  V30 4993 C 469.106 -1.87129 5.81744 0
M  V30 4994 C 470.104 -1.42523 6.67964 0
M  V30 4995 O 469.792 -1.0837 7.96562 0
M  V30 4996 H 469.524 -0.400562 0.544542 0
M  V30 4997 H 472.078 -0.632879 1.95407 0
M  V30 4998 H 470.308 -3.17493 2.2076 0
M  V30 4999 H 471.997 -3.10036 2.61978 0
M  V30 5000 H 472.763 -1.58178 4.58481 0
M  V30 5001 H 468.642 -2.55415 3.83776 0
M  V30 5002 H 472.186 -0.974949 6.90754 0
M  V30 5003 H 468.083 -1.95204 6.15277 0
M  V30 5004 H 468.851 -1.21681 8.09405 0
M  V30 5005 N 471.514 -1.37532 -0.769588 0
M  V30 5006 C 472.742 -1.36059 -1.55871 0
M  V30 5007 C 473.157 0.053544 -1.88724 0
M  V30 5008 O 472.514 1.01591 -1.5161 0
M  V30 5009 C 472.565 -2.20107 -2.86767 0
M  V30 5010 O 472.286 -3.56009 -2.55321 0
M  V30 5011 C 473.787 -2.26636 -3.80987 0
M  V30 5012 H 471.007 -0.465967 -0.482821 0
M  V30 5013 H 473.551 -1.80901 -0.953686 0
M  V30 5014 H 471.706 -1.78768 -3.43687 0
M  V30 5015 H 472.12 -4.0009 -3.39158 0
M  V30 5016 H 473.594 -2.89763 -4.69831 0
M  V30 5017 H 474.071 -1.2754 -4.20274 0
M  V30 5018 H 474.677 -2.68296 -3.29996 0
M  V30 5019 N 472.992 0.995999 -1.22138 0
M  V30 5020 C 473.955 2.06711 -0.990109 0
M  V30 5021 C 474.955 1.60744 0.0422978 0
M  V30 5022 O 476.145 1.73095 -0.195895 0
M  V30 5023 C 473.277 3.37288 -0.49491 0
M  V30 5024 H 474.47 2.28661 -1.94047 0
M  V30 5025 H 472.023 1.16711 -1.03963 0
M  V30 5026 H 472.758 3.21022 0.459948 0
M  V30 5027 H 472.543 3.71986 -1.23971 0
M  V30 5028 H 474.033 4.16103 -0.353253 0
M  V30 5029 N 474.47 1.03057 1.19235 0
M  V30 5030 C 475.433 0.617418 2.20727 0
M  V30 5031 C 476.433 -0.319856 1.57587 0
M  V30 5032 O 477.623 -0.106633 1.73873 0
M  V30 5033 C 474.755 -0.096296 3.40764 0
M  V30 5034 H 475.948 1.51544 2.58794 0
M  V30 5035 H 473.501 0.821949 1.32942 0
M  V30 5036 H 474.236 -1.00859 3.08217 0
M  V30 5037 H 474.021 0.577217 3.87828 0
M  V30 5038 H 475.511 -0.372219 4.15938 0
M  V30 5039 N 475.948 -1.35272 0.808662 0
M  V30 5040 C 477.225 -1.93077 0.313181 0
M  V30 5041 C 477.605 -1.73847 -1.19752 0
M  V30 5042 O 476.953 -1.1087 -1.998 0
M  V30 5043 C 477.163 -3.41347 0.726859 0
M  V30 5044 C 478.511 -4.18493 0.717532 0
M  V30 5045 O 479.535 -3.4987 0.668535 0
M  V30 5046 O 478.394 -5.40937 0.777779 0
M  V30 5047 H 475.488 -0.822885 0.0824018 0
M  V30 5048 H 478.034 -1.44335 0.892499 0
M  V30 5049 H 476.806 -3.49082 1.76797 0
M  V30 5050 H 476.429 -3.97411 0.122461 0
M  V30 5051 N 477.426 -0.562348 -1.47226 0
M  V30 5052 C 478.674 -0.0401371 -2.0206 0
M  V30 5053 C 478.995 1.3165 -1.43852 0
M  V30 5054 O 478.265 1.85976 -0.615599 0
M  V30 5055 H 476.845 -0.0118479 -0.746906 0
M  V30 5056 H 479.507 -0.73352 -1.8057 0
M  V30 5057 H 478.603 0.0441254 -3.12069 0
M  V30 5058 N 478.904 1.54736 -0.299062 0
M  V30 5059 C 480.129 2.04975 0.316254 0
M  V30 5060 C 480.554 1.17501 1.46885 0
M  V30 5061 O 479.912 0.178678 1.80417 0
M  V30 5062 C 479.96 3.52672 0.751997 0
M  V30 5063 O 479.064 3.68226 1.85697 0
M  V30 5064 H 478.405 0.661126 0.0617175 0
M  V30 5065 H 480.935 1.99805 -0.440341 0
M  V30 5066 H 480.945 3.94488 1.04133 0
M  V30 5067 H 479.62 4.158 -0.0911482 0
M  V30 5068 H 478.197 3.38316 1.56834 0
M  V30 5069 N 480.382 0.0267497 1.57577 0
M  V30 5070 C 481.292 -0.971633 2.13533 0
M  V30 5071 C 482.308 -1.35868 1.08701 0
M  V30 5072 O 483.484 -1.44058 1.40746 0
M  V30 5073 C 480.549 -2.23622 2.64941 0
M  V30 5074 C 479.61 -1.90982 3.8448 0
M  V30 5075 C 478.843 -3.11411 4.33427 0
M  V30 5076 O 479.066 -4.23992 3.81558 0
M  V30 5077 O 478 -2.93848 5.25297 0
M  V30 5078 H 481.826 -0.525853 2.99113 0
M  V30 5079 H 479.411 -0.193712 1.48139 0
M  V30 5080 H 481.293 -2.97864 2.98086 0
M  V30 5081 H 479.968 -2.67386 1.82446 0
M  V30 5082 H 478.875 -1.14132 3.56265 0
M  V30 5083 H 480.208 -1.52036 4.6813 0
M  V30 5084 N 481.861 -1.55662 -0.24637 0
M  V30 5085 C 483.11 -1.7672 -0.972254 0
M  V30 5086 C 483.423 -0.59078 -1.86465 0
M  V30 5087 O 484.629 -0.684391 -2.62732 0
M  V30 5088 C 483.085 -3.12869 -1.7788 0
M  V30 5089 C 482.693 -4.38161 -0.933768 0
M  V30 5090 C 484.437 -3.43265 -2.49738 0
M  V30 5091 C 482.344 -5.6534 -1.73623 0
M  V30 5092 H 481.274 -0.658795 -0.366749 0
M  V30 5093 H 483.925 -1.82092 -0.226902 0
M  V30 5094 H 482.307 -3.01606 -2.56612 0
M  V30 5095 H 483.481 -4.60413 -0.188736 0
M  V30 5096 H 481.796 -4.15102 -0.328488 0
M  V30 5097 H 484.393 -4.35501 -3.10231 0
M  V30 5098 H 484.736 -2.64614 -3.2138 0
M  V30 5099 H 485.269 -3.55746 -1.78016 0
M  V30 5100 H 482.008 -6.46814 -1.06354 0
M  V30 5101 H 481.528 -5.47188 -2.45653 0
M  V30 5102 H 483.207 -6.04616 -2.30323 0
M  V30 5103 N 483.339 0.512053 -1.4905 0
M  V30 5104 C 484.564 1.2959 -1.6193 0
M  V30 5105 C 484.989 1.85906 -0.286454 0
M  V30 5106 O 484.347 1.65312 0.744426 0
M  V30 5107 C 484.395 2.40987 -2.68249 0
M  V30 5108 O 483.499 3.44531 -2.26654 0
M  V30 5109 H 482.84 0.383053 -0.542371 0
M  V30 5110 H 485.37 0.614231 -1.95162 0
M  V30 5111 H 485.38 2.86913 -2.90078 0
M  V30 5112 H 484.055 1.99361 -3.65004 0
M  V30 5113 H 482.632 3.046 -2.15112 0
M  V30 5114 N 484.817 1.37938 0.762283 0
M  V30 5115 C 485.747 1.37176 1.88958 0
M  V30 5116 C 486.728 0.238945 1.68413 0
M  V30 5117 O 487.913 0.440726 1.89133 0
M  V30 5118 C 485.043 1.18742 3.2637 0
M  V30 5119 C 483.997 2.29136 3.61498 0
M  V30 5120 C 483.323 1.95816 4.97554 0
M  V30 5121 C 484.623 3.71363 3.6727 0
M  V30 5122 H 486.317 2.31509 1.89853 0
M  V30 5123 H 483.863 1.11438 0.912005 0
M  V30 5124 H 485.816 1.16837 4.04879 0
M  V30 5125 H 484.54 0.208683 3.25933 0
M  V30 5126 H 483.199 2.30213 2.85303 0
M  V30 5127 H 482.847 0.964475 4.93667 0
M  V30 5128 H 482.547 2.69745 5.22026 0
M  V30 5129 H 484.071 1.95513 5.78452 0
M  V30 5130 H 485.485 3.72364 4.35911 0
M  V30 5131 H 483.882 4.44425 4.03245 0
M  V30 5132 H 484.952 4.04305 2.67704 0
M  V30 5133 N 486.295 -0.989507 1.22664 0
M  V30 5134 C 487.245 -2.06478 0.967005 0
M  V30 5135 C 488.229 -1.60682 -0.0836374 0
M  V30 5136 O 489.421 -1.76541 0.127322 0
M  V30 5137 C 486.55 -3.38861 0.550313 0
M  V30 5138 C 485.636 -3.9128 1.63587 0
M  V30 5139 N 486.027 -4.16884 2.86429 0
M  V30 5140 C 484.325 -4.1972 1.50834 0
M  V30 5141 C 485.026 -4.5954 3.56648 0
M  V30 5142 N 484.002 -4.63434 2.84131 0
M  V30 5143 H 487.804 -2.24219 1.90008 0
M  V30 5144 H 485.318 -1.17153 1.12467 0
M  V30 5145 H 487.315 -4.15465 0.345612 0
M  V30 5146 H 485.975 -3.22518 -0.375822 0
M  V30 5147 H 486.986 -4.04976 3.22823 0
M  V30 5148 H 483.663 -4.1243 0.648643 0
M  V30 5149 H 485.053 -4.87944 4.61909 0
M  V30 5150 N 487.773 -1.03688 -1.18687 0
M  V30 5151 C 489.021 -0.736572 -1.88199 0
M  V30 5152 C 489.342 0.737665 -1.80509 0
M  V30 5153 O 488.612 1.53204 -1.22088 0
M  V30 5154 H 487.192 -0.269466 -0.696704 0
M  V30 5155 H 489.854 -1.31282 -1.44052 0
M  V30 5156 H 488.95 -1.03802 -2.94332 0
M  V30 5157 N 489.251 1.34841 -0.815825 0
M  V30 5158 C 490.667 1.51543 -0.500697 0
M  V30 5159 C 490.867 1.76261 0.976444 0
M  V30 5160 O 489.923 1.8094 1.76117 0
M  V30 5161 C 491.236 2.68487 -1.35407 0
M  V30 5162 C 492.784 2.82368 -1.35046 0
M  V30 5163 C 493.259 4.02347 -2.18816 0
M  V30 5164 N 494.75 4.09542 -2.16402 0
M  V30 5165 C 495.485 5.01517 -2.77971 0
M  V30 5166 N 494.981 5.98763 -3.48503 0
M  V30 5167 N 496.774 4.94334 -2.67563 0
M  V30 5168 H 488.925 1.17055 -1.77234 0
M  V30 5169 H 491.188 0.573481 -0.754866 0
M  V30 5170 H 490.894 2.56829 -2.40274 0
M  V30 5171 H 490.768 3.63321 -1.01377 0
M  V30 5172 H 493.155 2.93471 -0.309604 0
M  V30 5173 H 493.236 1.88363 -1.73069 0
M  V30 5174 H 492.88 3.92004 -3.22948 0
M  V30 5175 H 492.81 4.95551 -1.78148 0
M  V30 5176 H 495.301 3.39932 -1.65091 0
M  V30 5177 H 495.614 6.6556 -3.92747 0
M  V30 5178 H 493.959 5.98909 -3.52609 0
M  V30 5179 H 497.15 4.1732 -2.12041 0
M  V30 5180 H 497.323 5.6582 -3.15834 0
M  V30 5181 N 490.729 0.570148 1.46925 0
M  V30 5182 C 491.954 0.0542592 2.07329 0
M  V30 5183 C 492.379 -1.23582 1.41806 0
M  V30 5184 O 491.737 -1.74341 0.497479 0
M  V30 5185 C 491.785 -0.111175 3.60429 0
M  V30 5186 O 490.889 -1.17071 3.95434 0
M  V30 5187 H 490.23 0.0571425 0.661537 0
M  V30 5188 H 492.76 0.789516 1.88753 0
M  V30 5189 H 492.77 -0.321315 4.06733 0
M  V30 5190 H 491.445 0.831012 4.07513 0
M  V30 5191 H 490.022 -0.940029 3.60857 0
M  V30 5192 N 492.207 -1.54576 0.307264 0
M  V30 5193 C 493.137 -2.26708 -0.55907 0
M  V30 5194 C 494.118 -1.26893 -1.1328 0
M  V30 5195 O 495.303 -1.55677 -1.16097 0
M  V30 5196 C 492.433 -3.01259 -1.72801 0
M  V30 5197 C 491.387 -4.08275 -1.28435 0
M  V30 5198 C 490.713 -4.70575 -2.53895 0
M  V30 5199 C 492.013 -5.2068 -0.411038 0
M  V30 5200 H 493.707 -2.9937 0.042576 0
M  V30 5201 H 491.253 -1.43983 0.0219173 0
M  V30 5202 H 493.206 -3.50444 -2.34023 0
M  V30 5203 H 491.93 -2.26187 -2.356 0
M  V30 5204 H 490.589 -3.59949 -0.695161 0
M  V30 5205 H 490.237 -3.92136 -3.15021 0
M  V30 5206 H 489.937 -5.42854 -2.24908 0
M  V30 5207 H 491.461 -5.22527 -3.15908 0
M  V30 5208 H 492.875 -5.65721 -0.929097 0
M  V30 5209 H 491.272 -5.99716 -0.214664 0
M  V30 5210 H 492.342 -4.81629 0.562287 0
M  V30 5211 N 493.685 -0.035106 -1.57561 0
M  V30 5212 C 494.615 0.942993 -2.13612 0
M  V30 5213 C 495.596 1.33531 -1.05373 0
M  V30 5214 O 496.781 1.41287 -1.33235 0
M  V30 5215 C 493.911 2.22332 -2.66807 0
M  V30 5216 C 492.865 1.97156 -3.79886 0
M  V30 5217 C 492.191 3.31506 -4.19533 0
M  V30 5218 C 493.491 1.30596 -5.05709 0
M  V30 5219 H 495.185 0.476179 -2.95589 0
M  V30 5220 H 492.731 0.227602 -1.4219 0
M  V30 5221 H 494.684 2.91142 -3.04654 0
M  V30 5222 H 493.408 2.7119 -1.81999 0
M  V30 5223 H 492.067 1.30763 -3.42486 0
M  V30 5224 H 491.715 3.78134 -3.31698 0
M  V30 5225 H 491.415 3.15465 -4.95738 0
M  V30 5226 H 492.939 4.01574 -4.59968 0
M  V30 5227 H 494.353 1.89416 -5.41105 0
M  V30 5228 H 492.75 1.24934 -5.86951 0
M  V30 5229 H 493.82 0.279742 -4.84092 0
M  V30 5230 N 495.163 1.55791 0.238111 0
M  V30 5231 C 496.41 1.78033 0.964907 0
M  V30 5232 C 496.738 0.600984 1.84982 0
M  V30 5233 O 495.993 -0.41536 1.91241 0
M  V30 5234 C 496.292 3.05869 1.84875 0
M  V30 5235 C 495.958 4.36808 1.11846 0
M  V30 5236 C 494.62 4.72388 0.916662 0
M  V30 5237 C 496.972 5.17717 0.60151 0
M  V30 5238 C 494.3 5.86406 0.185756 0
M  V30 5239 C 496.652 6.32494 -0.115972 0
M  V30 5240 C 495.316 6.66688 -0.329168 0
M  V30 5241 H 494.586 0.651469 0.353085 0
M  V30 5242 H 497.233 1.90061 0.234318 0
M  V30 5243 H 495.538 2.88891 2.64668 0
M  V30 5244 H 497.235 3.20278 2.41294 0
M  V30 5245 H 493.825 4.08862 1.28569 0
M  V30 5246 H 498.009 4.90678 0.744932 0
M  V30 5247 H 493.265 6.11399 0.0101886 0
M  V30 5248 H 497.439 6.94425 -0.524127 0
M  V30 5249 H 495.066 7.54884 -0.897474 0
M  V30 5250 N 496.642 -0.504142 1.49319 0
M  V30 5251 C 497.891 -1.25507 1.57895 0
M  V30 5252 C 498.204 -1.93735 0.269433 0
M  V30 5253 O 499.41 -2.70492 0.233706 0
M  V30 5254 C 497.866 -2.27869 2.78574 0
M  V30 5255 C 497.474 -1.65594 4.16272 0
M  V30 5256 C 499.218 -3.0381 2.96479 0
M  V30 5257 C 497.125 -2.66048 5.28178 0
M  V30 5258 H 496.055 -0.47212 0.587894 0
M  V30 5259 H 498.706 -0.52931 1.757 0
M  V30 5260 H 497.088 -3.03594 2.54257 0
M  V30 5261 H 498.262 -0.958826 4.50714 0
M  V30 5262 H 496.577 -1.02055 4.037 0
M  V30 5263 H 499.174 -3.78925 3.77253 0
M  V30 5264 H 499.517 -3.61235 2.06918 0
M  V30 5265 H 500.05 -2.352 3.20821 0
M  V30 5266 H 496.789 -2.13408 6.19788 0
M  V30 5267 H 496.309 -3.34009 4.98195 0
M  V30 5268 H 497.988 -3.28536 5.57381 0
M  V30 5269 N 498.12 -1.38341 -0.754957 0
M  V30 5270 C 499.536 -1.19508 -1.05783 0
M  V30 5271 C 499.736 -0.0428005 -2.01455 0
M  V30 5272 O 498.792 0.611861 -2.44975 0
M  V30 5273 C 500.105 -2.52091 -1.63923 0
M  V30 5274 C 501.653 -2.58762 -1.76101 0
M  V30 5275 C 502.128 -3.91517 -2.37652 0
M  V30 5276 N 503.619 -3.93049 -2.45085 0
M  V30 5277 C 504.354 -4.9253 -2.93602 0
M  V30 5278 N 503.85 -6.02408 -3.42165 0
M  V30 5279 N 505.643 -4.79921 -2.92629 0
M  V30 5280 H 497.794 -2.1206 -0.120056 0
M  V30 5281 H 500.057 -0.94089 -0.11589 0
M  V30 5282 H 499.763 -3.36858 -1.01093 0
M  V30 5283 H 499.637 -2.70388 -2.63003 0
M  V30 5284 H 502.024 -1.74391 -2.38058 0
M  V30 5285 H 502.105 -2.44333 -0.757294 0
M  V30 5286 H 501.749 -4.76309 -1.76329 0
M  V30 5287 H 501.679 -4.03256 -3.38662 0
M  V30 5288 H 504.17 -3.13685 -2.10736 0
M  V30 5289 H 504.483 -6.74248 -3.77637 0
M  V30 5290 H 502.828 -6.0603 -3.40225 0
M  V30 5291 H 506.019 -3.93194 -2.54001 0
M  V30 5292 H 506.192 -5.57601 -3.30128 0
M  V30 5293 N 499.598 0.982988 -1.23187 0
M  V30 5294 C 500.546 2.09616 -1.00817 0
M  V30 5295 C 501.54 1.6932 0.0519995 0
M  V30 5296 O 502.746 1.79715 -0.101284 0
M  V30 5297 H 499.121 0.685628 -0.308899 0
M  V30 5298 H 501.092 2.25652 -1.95253 0
M  V30 5299 C 499.841 3.42249 -0.613243 0
M  V30 5300 H 499.164 3.73705 -1.42073 0
M  V30 5301 H 500.604 4.21086 -0.496208 0
M  V30 5302 C 499.063 3.30002 0.678233 0
M  V30 5303 O 499.593 3.6263 1.72807 0
M  V30 5304 N 497.799 2.83164 0.653165 0
M  V30 5305 H 497.346 2.56811 -0.201492 0
M  V30 5306 H 497.304 2.75352 1.51752 0
M  V30 5307 N 501.076 1.04316 1.18135 0
M  V30 5308 C 502.322 0.749128 1.88457 0
M  V30 5309 C 502.655 -0.72149 1.803 0
M  V30 5310 O 501.93 -1.52676 1.205 0
M  V30 5311 C 502.213 1.21905 3.38838 0
M  V30 5312 C 502.066 2.75195 3.55792 0
M  V30 5313 C 503.385 0.811085 4.32561 0
M  V30 5314 H 500.504 0.273611 0.684329 0
M  V30 5315 H 503.146 1.29561 1.38975 0
M  V30 5316 H 501.296 0.754137 3.8111 0
M  V30 5317 H 502.968 3.29743 3.22595 0
M  V30 5318 H 501.211 3.14899 2.98364 0
M  V30 5319 H 501.882 3.03135 4.61317 0
M  V30 5320 H 504.358 1.21118 3.98082 0
M  V30 5321 H 503.234 1.16761 5.36338 0
M  V30 5322 H 503.495 -0.285596 4.41177 0
M  V30 5323 N 502.554 -1.34406 0.822964 0
M  V30 5324 C 503.802 -1.97892 0.410245 0
M  V30 5325 C 504.123 -1.65567 -1.03017 0
M  V30 5326 O 503.393 -0.94642 -1.71522 0
M  V30 5327 H 501.973 -0.732049 0.148707 0
M  V30 5328 H 504.635 -1.64043 1.05242 0
M  V30 5329 H 503.731 -3.07579 0.529284 0
M  V30 5330 N 504.032 -0.577932 -1.46621 0
M  V30 5331 C 504.982 0.178869 -2.27297 0
M  V30 5332 C 505.966 0.866279 -1.35589 0
M  V30 5333 O 507.158 0.761163 -1.59798 0
M  V30 5334 C 504.287 1.19499 -3.2183 0
M  V30 5335 C 503.373 0.50994 -4.21023 0
M  V30 5336 N 503.764 -0.43177 -5.03954 0
M  V30 5337 C 502.062 0.761287 -4.39455 0
M  V30 5338 C 502.763 -0.831693 -5.75724 0
M  V30 5339 N 501.739 -0.181897 -5.43296 0
M  V30 5340 H 505.541 -0.544859 -2.88805 0
M  V30 5341 H 503.055 -0.399373 -1.57413 0
M  V30 5342 H 505.052 1.75131 -3.78332 0
M  V30 5343 H 503.712 1.91959 -2.61881 0
M  V30 5344 H 504.723 -0.807045 -5.11573 0
M  V30 5345 H 501.4 1.47282 -3.90659 0
M  V30 5346 H 502.79 -1.6067 -6.52407 0
M  V30 5347 N 505.51 1.54411 -0.315457 0
M  V30 5348 C 506.44 2.27002 0.547039 0
M  V30 5349 C 507.421 1.27492 1.12605 0
M  V30 5350 O 508.606 1.5629 1.15269 0
M  V30 5351 C 505.736 3.02171 1.71201 0
M  V30 5352 C 504.69 4.0895 1.26268 0
M  V30 5353 C 504.016 4.71915 2.51396 0
M  V30 5354 C 505.316 5.20891 0.383419 0
M  V30 5355 H 507.01 2.99343 -0.0584517 0
M  V30 5356 H 504.556 1.4397 -0.0295527 0
M  V30 5357 H 506.509 3.51681 2.32161 0
M  V30 5358 H 505.233 2.27433 2.34397 0
M  V30 5359 H 503.892 3.60312 0.676062 0
M  V30 5360 H 503.54 3.93801 3.12937 0
M  V30 5361 H 503.24 5.44039 2.22026 0
M  V30 5362 H 504.764 5.24195 3.13133 0
M  V30 5363 H 506.178 5.66206 0.899082 0
M  V30 5364 H 504.575 5.99821 0.182857 0
M  V30 5365 H 505.645 4.81324 -0.587821 0
M  V30 5366 N 506.988 0.0434614 1.5754 0
M  V30 5367 C 507.921 -0.968729 2.06618 0
M  V30 5368 C 508.899 -1.30868 0.965 0
M  V30 5369 O 510.083 -1.42288 1.23638 0
M  V30 5370 C 507.21 -2.28486 2.50023 0
M  V30 5371 C 506.256 -2.09851 3.71302 0
M  V30 5372 S 507.089 -1.38401 5.17306 0
M  V30 5373 C 508.245 -2.71354 5.64019 0
M  V30 5374 H 508.478 -0.551021 2.92149 0
M  V30 5375 H 506.011 -0.168607 1.53477 0
M  V30 5376 H 507.969 -3.04142 2.75695 0
M  V30 5377 H 506.63 -2.67387 1.64812 0
M  V30 5378 H 505.823 -3.07184 3.99567 0
M  V30 5379 H 505.425 -1.42336 3.45856 0
M  V30 5380 H 507.717 -3.67549 5.69134 0
M  V30 5381 H 508.66 -2.47734 6.6335 0
M  V30 5382 H 509.068 -2.77259 4.91719 0
M  V30 5383 N 508.466 -1.55915 -0.229846 0
M  V30 5384 C 509.694 -1.82617 -0.972562 0
M  V30 5385 C 510.109 -0.621488 -1.78278 0
M  V30 5386 O 509.466 0.409956 -1.77836 0
M  V30 5387 C 509.517 -3.0774 -1.89679 0
M  V30 5388 O 509.238 -4.23559 -1.11934 0
M  V30 5389 C 510.739 -3.47368 -2.75409 0
M  V30 5390 H 507.959 -0.60727 -0.285419 0
M  V30 5391 H 510.503 -2.02996 -0.247579 0
M  V30 5392 H 508.658 -2.89361 -2.57583 0
M  V30 5393 H 509.072 -4.94586 -1.74599 0
M  V30 5394 H 510.546 -4.37977 -3.35977 0
M  V30 5395 H 511.023 -2.68737 -3.47386 0
M  V30 5396 H 511.629 -3.68158 -2.12931 0
M  V30 5397 N 509.944 0.496216 -1.49584 0
M  V30 5398 C 511.193 1.24668 -1.58558 0
M  V30 5399 C 511.506 1.9359 -0.279703 0
M  V30 5400 O 512.712 2.70365 -0.248048 0
M  V30 5401 C 511.168 2.26388 -2.79779 0
M  V30 5402 C 510.776 1.63384 -4.17145 0
M  V30 5403 C 512.52 3.02233 -2.98086 0
M  V30 5404 C 510.427 2.63243 -5.29582 0
M  V30 5405 H 509.357 0.468995 -0.590389 0
M  V30 5406 H 512.008 0.519985 -1.75978 0
M  V30 5407 H 510.39 3.02241 -2.55863 0
M  V30 5408 H 511.564 0.93491 -4.51216 0
M  V30 5409 H 509.879 0.999121 -4.04236 0
M  V30 5410 H 512.476 3.76919 -3.79257 0
M  V30 5411 H 512.819 3.60132 -2.08831 0
M  V30 5412 H 513.352 2.33495 -3.22063 0
M  V30 5413 H 510.091 2.10119 -6.20911 0
M  V30 5414 H 509.611 3.31363 -4.99959 0
M  V30 5415 H 511.29 3.25575 -5.59115 0
M  V30 5416 N 511.423 1.38739 0.74761 0
M  V30 5417 C 512.834 1.31507 1.32524 0
M  V30 5418 C 513.185 -0.0263963 1.96182 0
M  V30 5419 O 512.31 -0.92849 1.95469 0
M  V30 5420 C 512.905 2.38162 2.40966 0
M  V30 5421 C 511.464 2.34489 2.94434 0
M  V30 5422 C 510.611 2.20712 1.67873 0
M  V30 5423 H 513.562 1.4901 0.546043 0
M  V30 5424 H 513.583 2.04222 3.21051 0
M  V30 5425 H 513.095 3.35783 1.94605 0
M  V30 5426 H 511.196 1.40467 3.45108 0
M  V30 5427 H 511.309 3.28861 3.48407 0
M  V30 5428 H 509.673 1.67667 1.91729 0
M  V30 5429 H 510.456 3.20285 1.23582 0
M  V30 5430 N 512.901 -0.976442 1.23707 0
M  V30 5431 C 514.147 -1.72081 1.07312 0
M  V30 5432 C 514.48 -1.90275 -0.388476 0
M  V30 5433 O 513.755 -1.4579 -1.28746 0
M  V30 5434 C 514.038 -3.11675 1.80363 0
M  V30 5435 C 513.891 -3.01027 3.3422 0
M  V30 5436 C 515.21 -4.1117 1.5693 0
M  V30 5437 H 512.329 -0.624583 0.391236 0
M  V30 5438 H 514.971 -1.13649 1.52263 0
M  V30 5439 H 513.121 -3.61559 1.42153 0
M  V30 5440 H 514.793 -2.58637 3.81975 0
M  V30 5441 H 513.036 -2.3744 3.63049 0
M  V30 5442 H 513.707 -3.9988 3.80525 0
M  V30 5443 H 516.183 -3.7011 1.90151 0
M  V30 5444 H 515.059 -5.06928 2.10513 0
M  V30 5445 H 515.32 -4.392 0.505548 0
M  V30 5446 N 514.379 -1.04941 -1.1758 0
M  V30 5447 C 515.628 -0.753124 -1.87112 0
M  V30 5448 C 515.941 0.722507 -1.81767 0
M  V30 5449 O 517.147 1.13265 -2.46746 0
M  V30 5450 C 515.603 -1.29695 -3.35719 0
M  V30 5451 C 515.211 -2.80184 -3.49572 0
M  V30 5452 C 516.955 -1.07759 -4.10595 0
M  V30 5453 C 514.862 -3.2788 -4.92187 0
M  V30 5454 H 513.792 -0.278034 -0.700866 0
M  V30 5455 H 516.443 -1.26637 -1.32798 0
M  V30 5456 H 514.825 -0.711522 -3.89555 0
M  V30 5457 H 515.999 -3.44561 -3.05965 0
M  V30 5458 H 514.314 -3.00632 -2.88113 0
M  V30 5459 H 516.911 -1.40899 -5.15802 0
M  V30 5460 H 517.254 -0.0152302 -4.16297 0
M  V30 5461 H 517.787 -1.62809 -3.62957 0
M  V30 5462 H 514.526 -4.33535 -4.91658 0
M  V30 5463 H 514.046 -2.68245 -5.36475 0
M  V30 5464 H 515.725 -3.22412 -5.60945 0
M  V30 5465 N 515.857 1.33968 -0.830081 0
M  V30 5466 C 517.103 1.98773 -0.431394 0
M  V30 5467 C 517.458 1.64598 0.99626 0
M  V30 5468 O 516.751 0.911022 1.68555 0
M  V30 5469 C 516.945 3.52679 -0.57898 0
M  V30 5470 C 516.774 4.01807 -2.01943 0
M  V30 5471 C 515.544 4.30062 -2.65282 0
M  V30 5472 C 517.742 4.18663 -2.98707 0
M  V30 5473 N 515.724 4.65272 -4.00493 0
M  V30 5474 C 517.095 4.57133 -4.18843 0
M  V30 5475 C 519.15 4.00929 -2.95229 0
M  V30 5476 C 517.853 4.79723 -5.35965 0
M  V30 5477 C 519.879 4.2469 -4.11573 0
M  V30 5478 C 519.241 4.63454 -5.30462 0
M  V30 5479 H 515.34 0.75435 -0.206107 0
M  V30 5480 H 517.924 1.62247 -1.07629 0
M  V30 5481 H 516.095 3.88383 0.0360632 0
M  V30 5482 H 517.827 4.04412 -0.152596 0
M  V30 5483 H 514.582 4.21231 -2.16475 0
M  V30 5484 H 515.006 4.87101 -4.70172 0
M  V30 5485 H 519.648 3.70082 -2.04448 0
M  V30 5486 H 517.366 5.09434 -6.27297 0
M  V30 5487 H 520.952 4.12497 -4.10289 0
M  V30 5488 H 519.832 4.81476 -6.18992 0
M  V30 5489 N 517.335 0.585699 1.46312 0
M  V30 5490 C 518.612 0.00542031 1.95599 0
M  V30 5491 C 518.992 -1.45619 1.52834 0
M  V30 5492 O 518.34 -2.14759 0.780446 0
M  V30 5493 C 518.55 0.180601 3.48532 0
M  V30 5494 C 519.898 0.049979 4.24571 0
M  V30 5495 O 520.922 0.109589 3.56031 0
M  V30 5496 O 519.781 -0.0832226 5.46437 0
M  V30 5497 H 516.875 -0.0481281 0.825598 0
M  V30 5498 H 519.421 0.654227 1.56582 0
M  V30 5499 H 518.193 1.19657 3.72556 0
M  V30 5500 H 517.816 -0.504498 3.94386 0
M  V30 5501 N 518.813 -1.54241 0.323641 0
M  V30 5502 C 520.038 -2.05452 -0.283605 0
M  V30 5503 C 520.463 -1.19823 -1.44997 0
M  V30 5504 O 519.821 -0.207358 -1.8011 0
M  V30 5505 C 519.869 -3.53823 -0.695795 0
M  V30 5506 O 518.973 -3.71134 -1.79815 0
M  V30 5507 H 518.314 -0.662024 -0.0511917 0
M  V30 5508 H 520.844 -1.99079 0.472073 0
M  V30 5509 H 520.854 -3.96094 -0.978434 0
M  V30 5510 H 519.529 -4.15602 0.157287 0
M  V30 5511 H 518.106 -3.40768 -1.51431 0
M  V30 5512 N 520.291 -0.0518155 -1.57515 0
M  V30 5513 C 521.201 0.937539 -2.15052 0
M  V30 5514 C 522.217 1.34121 -1.10849 0
M  V30 5515 O 523.393 1.418 -1.4302 0
M  V30 5516 C 520.458 2.19379 -2.68466 0
M  V30 5517 C 519.519 1.84841 -3.87469 0
M  V30 5518 C 518.752 3.04477 -4.38326 0
M  V30 5519 O 518.975 4.17868 -3.88256 0
M  V30 5520 O 517.909 2.85453 -5.29906 0
M  V30 5521 H 521.735 0.478201 -2.99912 0
M  V30 5522 H 519.32 0.17012 -1.48428 0
M  V30 5523 H 521.202 2.93084 -3.02787 0
M  V30 5524 H 519.877 2.64449 -1.86677 0
M  V30 5525 H 518.784 1.08449 -3.58036 0
M  V30 5526 H 520.117 1.44569 -4.7049 0
M  V30 5527 N 521.769 1.56035 0.221574 0
M  V30 5528 C 523.017 1.78693 0.944102 0
M  V30 5529 C 523.338 0.620317 1.8487 0
M  V30 5530 O 522.608 -0.362784 1.92512 0
M  V30 5531 H 521.188 0.659082 0.351597 0
M  V30 5532 H 523.85 1.93497 0.233435 0
M  V30 5533 H 522.946 2.70837 1.55093 0
M  V30 5534 N 523.247 -0.488276 1.49845 0
M  V30 5535 C 524.195 -1.60917 1.67954 0
M  V30 5536 C 525.189 -1.6038 0.54539 0
M  V30 5537 O 526.395 -1.64736 0.7254 0
M  V30 5538 H 522.77 -0.533658 0.529824 0
M  V30 5539 H 524.741 -1.428 2.62013 0
M  V30 5540 C 523.49 -2.98975 1.77509 0
M  V30 5541 H 522.813 -3.00099 2.6416 0
M  V30 5542 H 524.253 -3.76906 1.9421 0
M  V30 5543 C 522.712 -3.3282 0.522745 0
M  V30 5544 O 523.242 -4.00208 -0.345866 0
M  V30 5545 N 521.448 -2.8808 0.381882 0
M  V30 5546 H 520.995 -2.33415 1.08974 0
M  V30 5547 H 520.953 -3.11091 -0.454929 0
M  V30 5548 N 524.725 -1.39134 -0.740242 0
M  V30 5549 C 525.635 -1.39697 -1.88473 0
M  V30 5550 C 526.651 -0.292403 -1.71526 0
M  V30 5551 O 527.827 -0.533021 -1.94219 0
M  V30 5552 C 524.892 -1.23382 -3.24003 0
M  V30 5553 C 523.953 -2.43763 -3.53381 0
M  V30 5554 C 523.186 -2.28216 -4.82445 0
M  V30 5555 O 523.409 -1.28288 -5.55786 0
M  V30 5556 O 522.343 -3.1709 -5.11603 0
M  V30 5557 H 526.169 -2.36159 -1.90952 0
M  V30 5558 H 523.754 -1.20194 -0.887346 0
M  V30 5559 H 525.636 -1.16395 -4.05006 0
M  V30 5560 H 524.311 -0.300121 -3.22306 0
M  V30 5561 H 523.218 -2.56325 -2.72485 0
M  V30 5562 H 524.551 -3.35808 -3.59852 0
M  V30 5563 N 526.204 0.969867 -1.24223 0
M  V30 5564 C 527.453 1.70687 -1.07466 0
M  V30 5565 C 527.766 1.91736 0.386861 0
M  V30 5566 O 528.972 2.62986 0.674581 0
M  V30 5567 C 527.428 3.07217 -1.87472 0
M  V30 5568 C 527.036 2.94018 -3.3802 0
M  V30 5569 C 528.78 3.84804 -1.79237 0
M  V30 5570 C 526.687 4.25844 -4.10379 0
M  V30 5571 H 525.617 0.640067 -0.398536 0
M  V30 5572 H 528.268 1.08092 -1.48285 0
M  V30 5573 H 526.65 3.70628 -1.39466 0
M  V30 5574 H 527.824 2.39632 -3.9359 0
M  V30 5575 H 526.139 2.29898 -3.47183 0
M  V30 5576 H 528.736 4.82417 -2.30603 0
M  V30 5577 H 529.079 4.09356 -0.757197 0
M  V30 5578 H 529.612 3.28115 -2.24912 0
M  V30 5579 H 526.351 4.06486 -5.14246 0
M  V30 5580 H 525.871 4.80054 -3.59594 0
M  V30 5581 H 527.55 4.94475 -4.17257 0
M  V30 5582 N 527.682 1.05563 1.17022 0
M  V30 5583 C 529.093 0.793475 1.69 0
M  V30 5584 C 529.444 -0.683882 1.83895 0
M  V30 5585 O 528.569 -1.53116 1.5292 0
M  V30 5586 C 529.164 1.43376 3.06967 0
M  V30 5587 C 527.723 1.21956 3.56095 0
M  V30 5588 C 526.87 1.51494 2.3226 0
M  V30 5589 H 529.821 1.22008 1.01487 0
M  V30 5590 H 529.842 0.845068 3.70997 0
M  V30 5591 H 529.354 2.50899 2.96093 0
M  V30 5592 H 527.455 0.163749 3.7224 0
M  V30 5593 H 527.568 1.92713 4.38633 0
M  V30 5594 H 525.932 0.935175 2.3691 0
M  V30 5595 H 526.715 2.60159 2.23992 0
M  V30 5596 N 529.16 -1.33526 0.837174 0
M  V30 5597 C 530.07 -2.33023 0.271568 0
M  V30 5598 C 531.086 -1.63272 -0.601514 0
M  V30 5599 O 532.262 -1.94939 -0.506038 0
M  V30 5600 C 529.327 -3.42382 -0.545448 0
M  V30 5601 C 528.388 -4.27857 0.351709 0
M  V30 5602 C 527.621 -5.31994 -0.426409 0
M  V30 5603 O 527.844 -5.45763 -1.65828 0
M  V30 5604 O 526.778 -6.01572 0.1987 0
M  V30 5605 H 530.604 -2.83256 1.09545 0
M  V30 5606 H 528.189 -1.36837 0.599655 0
M  V30 5607 H 530.071 -4.09122 -1.00979 0
M  V30 5608 H 528.746 -2.94369 -1.34641 0
M  V30 5609 H 527.653 -3.6399 0.863853 0
M  V30 5610 H 528.986 -4.79349 1.1174 0
M  V30 5611 N 530.638 -0.59345 -1.46 0
M  V30 5612 C 531.886 -0.082988 -2.0193 0
M  V30 5613 C 532.207 1.28569 -1.46612 0
M  V30 5614 O 531.477 1.84629 -0.654909 0
M  V30 5615 H 530.057 -0.0276882 -0.746487 0
M  V30 5616 H 532.719 -0.771657 -1.78973 0
M  V30 5617 H 531.815 -0.022079 -3.12092 0
M  V30 5618 N 532.116 1.54067 -0.331816 0
M  V30 5619 C 533.365 1.99895 0.269209 0
M  V30 5620 C 533.678 1.22371 1.52593 0
M  V30 5621 O 534.884 1.58618 2.20347 0
M  V30 5622 C 533.34 3.55972 0.530244 0
M  V30 5623 C 532.948 4.4234 -0.709901 0
M  V30 5624 C 534.692 4.10247 1.09077 0
M  V30 5625 C 532.599 5.89905 -0.420312 0
M  V30 5626 H 531.529 0.746741 0.104371 0
M  V30 5627 H 534.18 1.78014 -0.445324 0
M  V30 5628 H 532.562 3.73873 1.30518 0
M  V30 5629 H 533.736 4.36215 -1.48504 0
M  V30 5630 H 532.051 3.98997 -1.19123 0
M  V30 5631 H 534.648 5.18095 1.32219 0
M  V30 5632 H 534.991 3.62739 2.0427 0
M  V30 5633 H 535.524 3.96011 0.376824 0
M  V30 5634 H 532.263 6.41623 -1.34164 0
M  V30 5635 H 531.783 5.98962 0.316962 0
M  V30 5636 H 533.462 6.46991 -0.0331956 0
M  V30 5637 N 533.594 0.0601682 1.57485 0
M  V30 5638 C 534.524 -0.90889 2.15085 0
M  V30 5639 C 535.505 -1.31838 1.07484 0
M  V30 5640 O 536.69 -1.3915 1.35466 0
M  V30 5641 C 533.82 -2.18059 2.7031 0
M  V30 5642 C 532.774 -1.91088 3.82974 0
M  V30 5643 C 532.1 -3.24789 4.24754 0
M  V30 5644 C 533.4 -1.22535 5.07723 0
M  V30 5645 H 535.094 -0.429093 2.96309 0
M  V30 5646 H 532.64 -0.204952 1.42534 0
M  V30 5647 H 534.593 -2.86258 3.09248 0
M  V30 5648 H 533.317 -2.6826 1.8629 0
M  V30 5649 H 531.976 -1.25297 3.44523 0
M  V30 5650 H 531.624 -3.72809 3.37672 0
M  V30 5651 H 531.324 -3.07538 5.00694 0
M  V30 5652 H 532.848 -3.94205 4.66299 0
M  V30 5653 H 534.262 -1.80783 5.4405 0
M  V30 5654 H 532.659 -1.1558 5.88864 0
M  V30 5655 H 533.729 -0.202692 4.84476 0
M  V30 5656 N 535.072 -1.5615 -0.213296 0
M  V30 5657 C 536.349 -1.70349 -0.961281 0
M  V30 5658 C 536.729 -0.609791 -2.02101 0
M  V30 5659 O 536.077 0.381987 -2.25285 0
M  V30 5660 C 536.287 -3.11982 -1.56424 0
M  V30 5661 C 537.635 -3.71649 -2.05334 0
M  V30 5662 O 538.659 -3.14995 -1.66302 0
M  V30 5663 O 537.518 -4.71038 -2.77102 0
M  V30 5664 H 534.612 -0.694121 -0.449582 0
M  V30 5665 H 537.158 -1.68464 -0.204426 0
M  V30 5666 H 535.93 -3.83046 -0.799457 0
M  V30 5667 H 535.553 -3.18019 -2.38641 0
M  V30 5668 N 536.55 0.480323 -1.50102 0
M  V30 5669 C 537.798 1.23063 -1.60312 0
M  V30 5670 C 538.119 1.92659 -0.301226 0
M  V30 5671 O 537.389 1.83691 0.680753 0
M  V30 5672 H 535.969 0.457231 -0.590719 0
M  V30 5673 H 538.631 0.554893 -1.86834 0
M  V30 5674 H 537.727 1.9835 -2.40964 0
M  V30 5675 N 538.028 1.39524 0.732853 0
M  V30 5676 C 539.274 1.37068 1.49467 0
M  V30 5677 C 539.607 -0.0327166 1.94172 0
M  V30 5678 O 538.882 -0.998071 1.66939 0
M  V30 5679 C 539.165 2.34494 2.73285 0
M  V30 5680 C 539.018 3.83784 2.34585 0
M  V30 5681 C 540.337 2.29717 3.75391 0
M  V30 5682 H 537.456 0.499206 0.542183 0
M  V30 5683 H 540.098 1.70532 0.837783 0
M  V30 5684 H 538.248 2.06087 3.29333 0
M  V30 5685 H 539.92 4.22949 1.84151 0
M  V30 5686 H 538.163 4.00455 1.66787 0
M  V30 5687 H 538.834 4.47444 3.23262 0
M  V30 5688 H 541.31 2.54839 3.28932 0
M  V30 5689 H 540.186 2.99962 4.59689 0
M  V30 5690 H 540.447 1.30291 4.22465 0
M  V30 5691 N 539.506 -0.963266 1.24736 0
M  V30 5692 C 540.439 -2.05758 0.986852 0
M  V30 5693 C 541.417 -1.62398 -0.0809272 0
M  V30 5694 O 542.601 -1.88414 0.0569347 0
M  V30 5695 C 539.728 -3.35135 0.490095 0
M  V30 5696 C 538.774 -3.97451 1.54709 0
M  V30 5697 S 539.607 -4.34519 3.12976 0
M  V30 5698 C 540.763 -5.67026 2.65014 0
M  V30 5699 H 540.996 -2.27539 1.91346 0
M  V30 5700 H 538.529 -1.10176 1.08169 0
M  V30 5701 H 540.487 -4.09962 0.21012 0
M  V30 5702 H 539.148 -3.11335 -0.415873 0
M  V30 5703 H 538.341 -4.90704 1.15003 0
M  V30 5704 H 537.943 -3.29071 1.77731 0
M  V30 5705 H 540.235 -6.44748 2.08102 0
M  V30 5706 H 541.178 -6.11594 3.56873 0
M  V30 5707 H 541.586 -5.25847 2.05294 0
M  V30 5708 N 540.985 -1.06182 -1.16461 0
M  V30 5709 C 542.213 -0.798583 -1.90867 0
M  V30 5710 C 542.628 0.646921 -1.77371 0
M  V30 5711 O 541.985 1.44279 -1.11758 0
M  V30 5712 C 542.036 -1.18258 -3.4161 0
M  V30 5713 O 541.757 -2.57135 -3.54701 0
M  V30 5714 C 543.258 -0.946917 -4.33069 0
M  V30 5715 H 540.478 -0.289603 -0.605286 0
M  V30 5716 H 543.022 -1.41515 -1.47627 0
M  V30 5717 H 541.177 -0.610562 -3.82558 0
M  V30 5718 H 541.591 -2.72477 -4.4817 0
M  V30 5719 H 543.065 -1.26523 -5.37304 0
M  V30 5720 H 543.542 0.117406 -4.39043 0
M  V30 5721 H 544.148 -1.50326 -3.97847 0
M  V30 5722 N 542.463 1.3308 -0.844243 0
M  V30 5723 C 543.711 1.97215 -0.441676 0
M  V30 5724 C 544.032 1.67185 1.0037 0
M  V30 5725 O 543.302 0.973588 1.69994 0
M  V30 5726 H 541.882 0.72959 -0.160335 0
M  V30 5727 H 544.544 1.62348 -1.07838 0
M  V30 5728 H 543.64 3.06698 -0.57815 0
M  V30 5729 N 543.941 0.601185 1.45683 0
M  V30 5730 C 544.904 -0.111398 2.28929 0
M  V30 5731 C 545.904 -0.801246 1.39416 0
M  V30 5732 O 547.094 -0.650383 1.61603 0
M  V30 5733 C 544.226 -1.16773 3.20276 0
M  V30 5734 H 545.419 0.620412 2.93413 0
M  V30 5735 H 542.972 0.359946 1.52099 0
M  V30 5736 H 543.707 -1.93051 2.60579 0
M  V30 5737 H 543.492 -0.677358 3.86205 0
M  V30 5738 H 544.982 -1.66698 3.82886 0
M  V30 5739 N 545.419 -1.53889 0.339982 0
M  V30 5740 C 546.668 -2.00035 -0.258604 0
M  V30 5741 C 546.981 -1.23179 -1.51942 0
M  V30 5742 O 548.187 -1.59784 -2.19503 0
M  V30 5743 C 546.643 -3.56249 -0.511359 0
M  V30 5744 C 546.251 -4.41957 0.733349 0
M  V30 5745 C 547.995 -4.1082 -1.069 0
M  V30 5746 C 545.902 -5.89673 0.451591 0
M  V30 5747 H 544.832 -0.747284 -0.10041 0
M  V30 5748 H 547.483 -1.77776 0.454758 0
M  V30 5749 H 545.865 -3.7456 -1.28533 0
M  V30 5750 H 547.039 -4.35421 1.50815 0
M  V30 5751 H 545.354 -3.9836 1.21237 0
M  V30 5752 H 547.951 -5.18789 -1.2947 0
M  V30 5753 H 548.294 -3.63817 -2.02343 0
M  V30 5754 H 548.827 -3.96205 -0.355817 0
M  V30 5755 H 545.566 -6.40903 1.37565 0
M  V30 5756 H 545.086 -5.99122 -0.285193 0
M  V30 5757 H 546.765 -6.46965 0.0675067 0
M  V30 5758 N 546.897 -0.0685191 -1.57451 0
M  V30 5759 C 547.86 0.885173 -2.11417 0
M  V30 5760 C 548.86 1.22853 -1.03748 0
M  V30 5761 O 550.05 1.16235 -1.2975 0
M  V30 5762 C 547.182 2.18964 -2.61281 0
M  V30 5763 H 548.375 0.417034 -2.96986 0
M  V30 5764 H 545.928 0.18014 -1.55258 0
M  V30 5765 H 546.663 2.70321 -1.79156 0
M  V30 5766 H 546.448 1.9534 -3.39977 0
M  V30 5767 H 547.938 2.87242 -3.0312 0
M  V30 5768 N 548.375 1.56261 0.205012 0
M  V30 5769 C 549.305 1.96779 1.257 0
M  V30 5770 C 550.286 0.838309 1.48008 0
M  V30 5771 O 551.471 1.10189 1.59913 0
M  V30 5772 C 548.601 2.29876 2.60335 0
M  V30 5773 C 547.555 3.45469 2.52656 0
M  V30 5774 C 546.881 3.64215 3.91473 0
M  V30 5775 C 548.181 4.79954 2.06014 0
M  V30 5776 H 549.875 2.84904 0.920338 0
M  V30 5777 H 547.421 1.37072 0.441277 0
M  V30 5778 H 549.374 2.56814 3.34102 0
M  V30 5779 H 548.098 1.38622 2.95722 0
M  V30 5780 H 546.757 3.18605 1.81345 0
M  V30 5781 H 546.405 2.70309 4.24196 0
M  V30 5782 H 546.105 4.41973 3.87213 0
M  V30 5783 H 547.629 3.93519 4.66878 0
M  V30 5784 H 549.043 5.05989 2.69533 0
M  V30 5785 H 547.44 5.61111 2.12777 0
M  V30 5786 H 548.51 4.74201 1.01297 0
M  V30 5787 N 549.853 -0.472356 1.50355 0
M  V30 5788 C 551.083 -1.24603 1.64796 0
M  V30 5789 C 551.491 -1.86297 0.330156 0
M  V30 5790 O 550.834 -1.69934 -0.697728 0
M  V30 5791 C 550.896 -2.39578 2.68035 0
M  V30 5792 C 550.56 -1.98531 4.11624 0
M  V30 5793 C 551.557 -1.50856 4.97532 0
M  V30 5794 C 549.242 -2.0729 4.57532 0
M  V30 5795 C 551.236 -1.12481 6.27397 0
M  V30 5796 C 548.923 -1.68527 5.87403 0
M  V30 5797 C 549.921 -1.212 6.7216 0
M  V30 5798 O 549.609 -0.829728 7.99607 0
M  V30 5799 H 549.341 -0.383035 0.55701 0
M  V30 5800 H 551.895 -0.570392 1.97321 0
M  V30 5801 H 550.125 -3.10309 2.30749 0
M  V30 5802 H 551.814 -3.01544 2.71709 0
M  V30 5803 H 552.58 -1.43511 4.63281 0
M  V30 5804 H 548.459 -2.43076 3.91708 0
M  V30 5805 H 552.003 -0.754698 6.93506 0
M  V30 5806 H 547.9 -1.7553 6.21176 0
M  V30 5807 H 548.668 -0.958689 8.12866 0
M  V30 5808 N 551.331 -1.39911 -0.725443 0
M  V30 5809 C 552.608 -1.28158 -1.47766 0
M  V30 5810 C 552.988 0.104545 -2.10841 0
M  V30 5811 O 552.336 1.11657 -1.99361 0
M  V30 5812 C 552.546 -2.41306 -2.52135 0
M  V30 5813 C 553.894 -2.81076 -3.18247 0
M  V30 5814 O 554.918 -2.40827 -2.62452 0
M  V30 5815 O 553.777 -3.50581 -4.19231 0
M  V30 5816 H 550.871 -0.502761 -0.656628 0
M  V30 5817 H 553.417 -1.51808 -0.758456 0
M  V30 5818 H 552.189 -3.33932 -2.03974 0
M  V30 5819 H 551.812 -2.19374 -3.31603 0
M  V30 5820 N 552.809 0.956637 -1.25245 0
M  V30 5821 C 553.739 2.07058 -1.07931 0
M  V30 5822 C 554.72 1.70096 0.0110361 0
M  V30 5823 O 555.905 1.93555 -0.158121 0
M  V30 5824 C 553.035 3.40272 -0.695124 0
M  V30 5825 C 551.989 3.91235 -1.73549 0
M  V30 5826 C 551.315 5.20921 -1.20604 0
M  V30 5827 C 552.615 4.17837 -3.13385 0
M  V30 5828 H 554.309 2.218 -2.01109 0
M  V30 5829 H 551.855 1.06581 -0.968326 0
M  V30 5830 H 553.808 4.1765 -0.560949 0
M  V30 5831 H 552.532 3.25462 0.272355 0
M  V30 5832 H 551.191 3.16025 -1.85807 0
M  V30 5833 H 550.839 5.02479 -0.228846 0
M  V30 5834 H 550.539 5.55987 -1.90136 0
M  V30 5835 H 552.063 6.00897 -1.08421 0
M  V30 5836 H 553.477 4.8588 -3.04292 0
M  V30 5837 H 551.874 4.64154 -3.80369 0
M  V30 5838 H 552.944 3.2419 -3.60595 0
M  V30 5839 N 554.287 1.06798 1.15896 0
M  V30 5840 C 555.234 0.683314 2.20453 0
M  V30 5841 C 556.204 -0.32255 1.62938 0
M  V30 5842 O 557.389 -0.210276 1.89638 0
M  V30 5843 C 554.529 0.0813266 3.45004 0
M  V30 5844 C 553.642 1.13799 4.16742 0
M  V30 5845 C 552.777 0.501598 5.28826 0
M  V30 5846 C 551.816 1.54144 5.92373 0
M  V30 5847 N 550.953 0.928038 6.9594 0
M  V30 5848 H 555.793 1.57932 2.52708 0
M  V30 5849 H 553.33 0.789544 1.24115 0
M  V30 5850 H 555.288 -0.285274 4.16224 0
M  V30 5851 H 553.918 -0.77806 3.13283 0
M  V30 5852 H 552.97 1.62223 3.44075 0
M  V30 5853 H 554.282 1.92664 4.60089 0
M  V30 5854 H 553.436 0.0823162 6.06644 0
M  V30 5855 H 552.175 -0.318883 4.86656 0
M  V30 5856 H 551.18 1.97056 5.13273 0
M  V30 5857 H 552.405 2.3641 6.36621 0
M  V30 5858 H 550.351 0.12836 6.55874 0
M  V30 5859 H 550.268 1.65401 7.37685 0
M  V30 5860 H 551.536 0.534071 7.77668 0
M  V30 5861 N 555.766 -1.3263 0.851289 0
M  V30 5862 C 557.012 -1.9766 0.453694 0
M  V30 5863 C 557.345 -1.67225 -0.987396 0
M  V30 5864 O 556.62 -0.958693 -1.69232 0
M  V30 5865 C 556.903 -3.5344 0.68936 0
M  V30 5866 C 556.756 -3.93517 2.17862 0
M  V30 5867 C 558.075 -4.39866 0.143555 0
M  V30 5868 H 555.194 -0.717989 0.166314 0
M  V30 5869 H 557.836 -1.57068 1.06909 0
M  V30 5870 H 555.986 -3.88147 0.165546 0
M  V30 5871 H 557.658 -3.69006 2.76826 0
M  V30 5872 H 555.901 -3.42798 2.65841 0
M  V30 5873 H 556.572 -5.02065 2.29422 0
M  V30 5874 H 559.048 -4.11875 0.591451 0
M  V30 5875 H 557.924 -5.47858 0.338043 0
M  V30 5876 H 558.185 -4.31696 -0.953466 0
M  V30 5877 N 557.244 -0.608902 -1.45362 0
M  V30 5878 C 558.176 0.147318 -2.28726 0
M  V30 5879 C 559.189 0.830468 -1.40025 0
M  V30 5880 O 560.378 0.695636 -1.64387 0
M  V30 5881 C 557.478 1.22968 -3.15804 0
M  V30 5882 C 556.651 0.633391 -4.3279 0
M  V30 5883 C 555.71 1.60682 -5.01067 0
M  V30 5884 O 554.736 1.13261 -5.57818 0
M  V30 5885 N 555.938 2.94123 -5.00472 0
M  V30 5886 H 558.703 -0.568014 -2.94268 0
M  V30 5887 H 556.264 -0.448479 -1.55564 0
M  V30 5888 H 558.256 1.88072 -3.58345 0
M  V30 5889 H 556.826 1.84752 -2.52162 0
M  V30 5890 H 556.046 -0.195762 -3.93714 0
M  V30 5891 H 557.334 0.215255 -5.08344 0
M  V30 5892 H 556.732 3.3525 -4.55657 0
M  V30 5893 H 555.289 3.54646 -5.46872 0
M  V30 5894 N 558.722 1.53707 -0.348139 0
M  V30 5895 C 559.669 2.25173 0.506518 0
M  V30 5896 C 560.639 1.25174 1.09182 0
M  V30 5897 O 561.824 1.53917 1.12757 0
M  V30 5898 C 558.964 3.03141 1.64923 0
M  V30 5899 C 558.077 4.18002 1.0908 0
M  V30 5900 C 557.212 4.83447 2.20119 0
M  V30 5901 C 556.251 5.90369 1.61651 0
M  V30 5902 N 555.388 6.49575 2.66451 0
M  V30 5903 H 560.228 2.97799 -0.109452 0
M  V30 5904 H 557.765 1.46953 -0.0657866 0
M  V30 5905 H 559.723 3.46607 2.32205 0
M  V30 5906 H 558.353 2.32803 2.23612 0
M  V30 5907 H 557.405 3.79145 0.308783 0
M  V30 5908 H 558.717 4.94892 0.623178 0
M  V30 5909 H 557.871 5.30008 2.95257 0
M  V30 5910 H 556.61 4.05991 2.70227 0
M  V30 5911 H 555.615 5.43186 0.850209 0
M  V30 5912 H 556.84 6.69735 1.1239 0
M  V30 5913 H 554.786 5.74981 3.15805 0
M  V30 5914 H 554.703 7.21952 2.24325 0
M  V30 5915 H 555.971 7.00789 3.41344 0
M  V30 5916 N 560.2 0.0768682 1.57412 0
M  V30 5917 C 561.148 -0.906229 2.1422 0
M  V30 5918 C 562.142 -1.30477 1.08037 0
M  V30 5919 O 563.348 -1.28143 1.2641 0
M  V30 5920 H 559.723 -0.310207 0.685037 0
M  V30 5921 H 561.694 -0.402228 2.95677 0
M  V30 5922 C 560.443 -2.16245 2.72274 0
M  V30 5923 H 559.766 -1.86463 3.53655 0
M  V30 5924 H 561.206 -2.83134 3.15613 0
M  V30 5925 C 559.665 -2.92437 1.67279 0
M  V30 5926 O 560.195 -3.86322 1.10081 0
M  V30 5927 N 558.401 -2.55637 1.38195 0
M  V30 5928 H 557.948 -1.79363 1.84897 0
M  V30 5929 H 557.906 -3.06919 0.681787 0
M  V30 5930 N 561.678 -1.56367 -0.196722 0
M  V30 5931 C 562.903 -1.84991 -0.937714 0
M  V30 5932 C 563.328 -0.660244 -1.76132 0
M  V30 5933 O 562.686 0.390967 -1.77034 0
M  V30 5934 C 562.734 -3.11828 -1.81096 0
M  V30 5935 O 561.838 -2.92266 -2.90955 0
M  V30 5936 H 561.179 -0.609193 -0.264159 0
M  V30 5937 H 563.709 -2.03595 -0.202529 0
M  V30 5938 H 563.719 -3.42579 -2.21594 0
M  V30 5939 H 562.394 -3.98037 -1.2058 0
M  V30 5940 H 560.971 -2.72809 -2.54224 0
M  V30 5941 N 563.156 0.464375 -1.50603 0
M  V30 5942 C 564.572 0.798684 -1.38178 0
M  V30 5943 C 564.772 1.96568 -0.44308 0
M  V30 5944 O 563.828 2.52252 0.111814 0
M  V30 5945 C 565.141 1.10444 -2.79683 0
M  V30 5946 C 566.689 1.2105 -2.88645 0
M  V30 5947 C 567.164 1.54934 -4.30998 0
M  V30 5948 N 568.655 1.61913 -4.3398 0
M  V30 5949 C 569.39 1.8965 -5.41129 0
M  V30 5950 N 568.886 2.15361 -6.58477 0
M  V30 5951 N 570.679 1.91207 -5.28579 0
M  V30 5952 H 562.83 -0.304603 -2.10204 0
M  V30 5953 H 565.093 -0.0737804 -0.945125 0
M  V30 5954 H 564.799 0.319934 -3.50242 0
M  V30 5955 H 564.673 2.03896 -3.17342 0
M  V30 5956 H 567.06 1.98567 -2.18301 0
M  V30 5957 H 567.141 0.255613 -2.5452 0
M  V30 5958 H 566.785 0.779549 -5.01882 0
M  V30 5959 H 566.715 2.51584 -4.62615 0
M  V30 5960 H 569.206 1.44055 -3.49366 0
M  V30 5961 H 569.519 2.35818 -7.35941 0
M  V30 5962 H 567.864 2.1274 -6.6164 0
M  V30 5963 H 571.055 1.70622 -4.35897 0
M  V30 5964 H 571.228 2.12488 -6.12171 0
M  V30 5965 N 564.634 1.40294 0.718013 0
M  V30 5966 C 565.862 1.4175 1.50714 0
M  V30 5967 C 566.277 0.0165366 1.88793 0
M  V30 5968 O 565.634 -0.958942 1.55276 0
M  V30 5969 C 565.685 2.30598 2.784 0
M  V30 5970 O 565.406 3.6524 2.41932 0
M  V30 5971 C 566.907 2.4062 3.72313 0
M  V30 5972 H 564.127 0.483565 0.465194 0
M  V30 5973 H 566.671 1.84316 0.885889 0
M  V30 5974 H 564.826 1.91401 3.36815 0
M  V30 5975 H 565.24 4.12402 3.24076 0
M  V30 5976 H 566.714 3.07001 4.58753 0
M  V30 5977 H 567.191 1.4305 4.15251 0
M  V30 5978 H 567.797 2.80359 3.19811 0
M  V30 5979 N 566.112 -0.949982 1.2575 0
M  V30 5980 C 567.36 -1.6918 1.10555 0
M  V30 5981 C 567.681 -1.91773 -0.353298 0
M  V30 5982 O 566.951 -1.50814 -1.25027 0
M  V30 5983 H 565.531 -0.626952 0.406129 0
M  V30 5984 H 568.193 -1.1419 1.57945 0
M  V30 5985 H 567.289 -2.66915 1.61749 0
M  V30 5986 N 567.59 -1.07411 -1.15328 0
M  V30 5987 C 568.815 -0.818856 -1.90551 0
M  V30 5988 C 569.24 0.622194 -1.77512 0
M  V30 5989 O 568.598 1.43484 -1.10824 0
M  V30 5990 C 568.646 -1.23267 -3.38877 0
M  V30 5991 O 567.75 -0.378345 -4.10661 0
M  V30 5992 H 567.091 -0.29827 -0.593238 0
M  V30 5993 H 569.621 -1.43289 -1.46046 0
M  V30 5994 H 569.631 -1.20912 -3.89672 0
M  V30 5995 H 568.306 -2.28226 -3.47686 0
M  V30 5996 H 566.883 -0.464437 -3.69996 0
M  V30 5997 N 569.068 1.32177 -0.85831 0
M  V30 5998 C 570.314 1.97417 -0.46417 0
M  V30 5999 C 570.647 1.67746 0.978514 0
M  V30 6000 O 569.922 0.967654 1.68721 0
M  V30 6001 C 570.205 3.53069 -0.708094 0
M  V30 6002 C 570.058 3.92357 -2.19946 0
M  V30 6003 C 571.377 4.39783 -0.166881 0
M  V30 6004 H 568.496 0.717097 -0.17012 0
M  V30 6005 H 571.138 1.56499 -1.07741 0
M  V30 6006 H 569.288 3.88054 -0.186128 0
M  V30 6007 H 570.96 3.67533 -2.78779 0
M  V30 6008 H 569.203 3.41384 -2.67656 0
M  V30 6009 H 569.874 5.00841 -2.32082 0
M  V30 6010 H 572.35 4.11556 -0.613285 0
M  V30 6011 H 571.226 5.47671 -0.367093 0
M  V30 6012 H 571.487 4.32196 0.930559 0
M  V30 6013 N 570.547 0.616602 1.45037 0
M  V30 6014 C 571.777 0.121791 2.06241 0
M  V30 6015 C 572.185 -1.20289 1.46038 0
M  V30 6016 O 571.528 -1.7456 0.572242 0
M  V30 6017 C 571.59 -0.0827345 3.59405 0
M  V30 6018 C 571.254 1.16153 4.41993 0
M  V30 6019 C 572.251 2.08183 4.76399 0
M  V30 6020 C 569.936 1.39288 4.82601 0
M  V30 6021 C 571.93 3.21668 5.5028 0
M  V30 6022 C 569.617 2.53073 5.56235 0
M  V30 6023 C 570.615 3.44091 5.89992 0
M  V30 6024 O 570.303 4.55894 6.6213 0
M  V30 6025 H 570.035 0.0701667 0.672349 0
M  V30 6026 H 572.589 0.846877 1.87129 0
M  V30 6027 H 570.819 -0.862812 3.76952 0
M  V30 6028 H 572.508 -0.530273 4.02421 0
M  V30 6029 H 573.274 1.91538 4.45576 0
M  V30 6030 H 569.153 0.693396 4.55755 0
M  V30 6031 H 572.697 3.92733 5.76547 0
M  V30 6032 H 568.594 2.69667 5.86472 0
M  V30 6033 H 569.362 4.5469 6.80587 0
M  V30 6034 N 572.025 -1.5352 0.356285 0
M  V30 6035 C 573.274 -2.00298 -0.237373 0
M  V30 6036 C 573.587 -1.24784 -1.50627 0
M  V30 6037 O 574.793 -1.62103 -2.17795 0
M  V30 6038 C 573.249 -3.56771 -0.473545 0
M  V30 6039 C 572.857 -4.41154 0.780183 0
M  V30 6040 C 574.601 -4.1193 -1.02537 0
M  V30 6041 C 572.508 -5.89161 0.514108 0
M  V30 6042 H 571.438 -0.748307 -0.092478 0
M  V30 6043 H 574.089 -1.77283 0.473588 0
M  V30 6044 H 572.471 -3.75902 -1.24553 0
M  V30 6045 H 573.645 -4.33797 1.55425 0
M  V30 6046 H 571.96 -3.97052 1.25455 0
M  V30 6047 H 574.557 -5.20133 -1.2396 0
M  V30 6048 H 574.9 -3.65943 -1.98473 0
M  V30 6049 H 575.433 -3.96561 -0.313775 0
M  V30 6050 H 572.172 -6.39408 1.44355 0
M  V30 6051 H 571.692 -5.9939 -0.221632 0
M  V30 6052 H 573.371 -6.46857 0.136122 0
M  V30 6053 N 573.503 -0.0852151 -1.57369 0
M  V30 6054 C 574.749 0.581666 -1.94279 0
M  V30 6055 C 575.082 1.68444 -0.966446 0
M  V30 6056 O 574.357 1.945 0.00215277 0
M  V30 6057 C 574.64 1.14609 -3.41375 0
M  V30 6058 C 574.493 0.0490414 -4.49773 0
M  V30 6059 C 575.812 2.04751 -3.8957 0
M  V30 6060 H 572.931 0.209972 -0.706456 0
M  V30 6061 H 575.573 -0.153915 -1.89376 0
M  V30 6062 H 573.723 1.77297 -3.45685 0
M  V30 6063 H 575.395 -0.584721 -4.57579 0
M  V30 6064 H 573.638 -0.618638 -4.29366 0
M  V30 6065 H 574.309 0.484601 -5.49869 0
M  V30 6066 H 576.785 1.51981 -3.87351 0
M  V30 6067 H 575.661 2.41173 -4.93079 0
M  V30 6068 H 575.922 2.96107 -3.28288 0
M  V30 6069 N 574.981 1.5647 0.188427 0
M  V30 6070 C 575.928 1.95073 1.23349 0
M  V30 6071 C 576.898 0.812238 1.44886 0
M  V30 6072 O 578.083 1.07095 1.57909 0
M  V30 6073 C 575.223 2.30124 2.57171 0
M  V30 6074 C 574.336 3.57069 2.43157 0
M  V30 6075 C 573.471 3.81411 3.69729 0
M  V30 6076 C 572.51 5.0176 3.50575 0
M  V30 6077 N 571.647 5.22321 4.69175 0
M  V30 6078 H 576.487 2.84171 0.89728 0
M  V30 6079 H 574.024 1.40623 0.431683 0
M  V30 6080 H 575.982 2.48463 3.35145 0
M  V30 6081 H 574.612 1.44159 2.88822 0
M  V30 6082 H 573.664 3.4674 1.56447 0
M  V30 6083 H 574.976 4.452 2.24942 0
M  V30 6084 H 574.13 4.00026 4.56141 0
M  V30 6085 H 572.869 2.91624 3.90905 0
M  V30 6086 H 571.874 4.83061 2.62549 0
M  V30 6087 H 573.099 5.93063 3.30837 0
M  V30 6088 H 571.045 4.35483 4.90602 0
M  V30 6089 H 570.962 6.04643 4.53809 0
M  V30 6090 H 572.23 5.45401 5.56919 0
M  V30 6091 N 576.459 -0.456382 1.50847 0
M  V30 6092 C 577.87 -1.03685 1.55262 0
M  V30 6093 C 578.221 -1.92779 0.364771 0
M  V30 6094 O 577.346 -2.10043 -0.52068 0
M  V30 6095 C 577.941 -1.88718 2.81374 0
M  V30 6096 C 576.5 -2.41847 2.88422 0
M  V30 6097 C 575.647 -1.20564 2.49719 0
M  V30 6098 H 578.598 -0.238399 1.56899 0
M  V30 6099 H 578.619 -2.73957 2.6406 0
M  V30 6100 H 578.131 -1.23847 3.67809 0
M  V30 6101 H 576.232 -3.10228 2.06372 0
M  V30 6102 H 576.345 -2.75947 3.9165 0
M  V30 6103 H 574.709 -1.54504 2.02486 0
M  V30 6104 H 575.492 -0.573326 3.38479 0
M  V30 6105 N 577.937 -1.40673 -0.710563 0
M  V30 6106 C 578.884 -1.41336 -1.82463 0
M  V30 6107 C 579.854 -0.269648 -1.63897 0
M  V30 6108 O 581.039 -0.468463 -1.8496 0
M  V30 6109 C 578.179 -1.28665 -3.20218 0
M  V30 6110 C 577.292 -2.52784 -3.5032 0
M  V30 6111 C 576.427 -2.32517 -4.77608 0
M  V30 6112 C 575.466 -3.52187 -5.0063 0
M  V30 6113 N 574.603 -3.31084 -6.19135 0
M  V30 6114 H 579.443 -2.36558 -1.8123 0
M  V30 6115 H 576.98 -1.17483 -0.885226 0
M  V30 6116 H 578.938 -1.19324 -3.99772 0
M  V30 6117 H 577.568 -0.370602 -3.20666 0
M  V30 6118 H 576.62 -2.72634 -2.65283 0
M  V30 6119 H 577.932 -3.41845 -3.63241 0
M  V30 6120 H 577.086 -2.20558 -5.65189 0
M  V30 6121 H 575.825 -1.40889 -4.66906 0
M  V30 6122 H 574.83 -3.64617 -4.11502 0
M  V30 6123 H 576.055 -4.44749 -5.13201 0
M  V30 6124 H 574.001 -2.42143 -6.09674 0
M  V30 6125 H 573.918 -4.13713 -6.32754 0
M  V30 6126 H 575.186 -3.22868 -7.0949 0
M  V30 6127 N 579.415 0.9433 -1.26252 0
M  V30 6128 C 580.348 2.04162 -1.01946 0
M  V30 6129 C 581.326 1.62507 0.0550808 0
M  V30 6130 O 582.51 1.883 -0.0869025 0
M  V30 6131 C 579.637 3.34313 -0.54335 0
M  V30 6132 C 578.683 3.94939 -1.61013 0
M  V30 6133 S 579.516 4.29484 -3.19849 0
M  V30 6134 C 580.672 5.62738 -2.74001 0
M  V30 6135 H 580.905 2.24466 -1.94942 0
M  V30 6136 H 578.438 1.08441 -1.09909 0
M  V30 6137 H 580.396 4.09576 -0.275315 0
M  V30 6138 H 579.057 3.11957 0.36629 0
M  V30 6139 H 578.25 4.88812 -1.22795 0
M  V30 6140 H 577.852 3.26202 -1.82943 0
M  V30 6141 H 580.144 6.41356 -2.18333 0
M  V30 6142 H 581.087 6.05839 -3.66558 0
M  V30 6143 H 581.495 5.22514 -2.13634 0
M  V30 6144 N 580.893 1.08022 1.14757 0
M  V30 6145 C 581.843 0.676345 2.17737 0
M  V30 6146 C 582.827 -0.302018 1.5804 0
M  V30 6147 O 584.019 -0.11466 1.76628 0
M  V30 6148 C 581.148 0.082984 3.432 0
M  V30 6149 C 580.234 1.0869 4.09936 0
M  V30 6150 N 580.625 2.26891 4.52055 0
M  V30 6151 C 578.923 0.921768 4.36371 0
M  V30 6152 C 579.624 2.90636 5.0389 0
M  V30 6153 N 578.6 2.18266 4.97856 0
M  V30 6154 H 582.402 1.5765 2.4804 0
M  V30 6155 H 579.916 0.954374 1.31398 0
M  V30 6156 H 581.913 -0.224289 4.16296 0
M  V30 6157 H 580.573 -0.812206 3.14378 0
M  V30 6158 H 581.584 2.6457 4.45223 0
M  V30 6159 H 578.261 0.0800499 4.17423 0
M  V30 6160 H 579.651 3.9104 5.46386 0
M  V30 6161 N 582.371 -1.3172 0.865308 0
M  V30 6162 C 583.619 -1.96487 0.472995 0
M  V30 6163 C 583.94 -1.68761 -0.976975 0
M  V30 6164 O 583.21 -1.00051 -1.68424 0
M  V30 6165 H 581.79 -0.726947 0.171922 0
M  V30 6166 H 584.452 -1.60612 1.10407 0
M  V30 6167 H 583.548 -3.0574 0.62687 0
M  V30 6168 N 583.85 -0.624285 -1.44708 0
M  V30 6169 C 585.26 -0.2092 -1.85524 0
M  V30 6170 C 585.611 1.23783 -1.52225 0
M  V30 6171 O 584.736 1.94089 -0.956986 0
M  V30 6172 C 585.332 -0.372897 -3.36742 0
M  V30 6173 C 583.891 -0.012374 -3.76398 0
M  V30 6174 C 583.038 -0.68951 -2.68591 0
M  V30 6175 H 585.989 -0.829894 -1.35272 0
M  V30 6176 H 586.01 0.390134 -3.78495 0
M  V30 6177 H 585.522 -1.42615 -3.60947 0
M  V30 6178 H 583.623 1.03941 -3.57809 0
M  V30 6179 H 583.736 -0.417663 -4.77276 0
M  V30 6180 H 582.1 -0.125484 -2.54391 0
M  V30 6181 H 582.883 -1.74522 -2.9563 0
M  V30 6182 N 585.328 1.53329 -0.364422 0
M  V30 6183 C 586.26 2.23286 0.517293 0
M  V30 6184 C 587.273 1.24657 1.04711 0
M  V30 6185 O 588.462 1.50887 0.95369 0
M  V30 6186 C 585.562 2.91604 1.72685 0
M  V30 6187 C 584.735 4.1673 1.32873 0
M  V30 6188 C 583.794 4.68269 2.40022 0
M  V30 6189 O 582.82 5.31976 2.02461 0
M  V30 6190 N 584.022 4.45983 3.7159 0
M  V30 6191 H 586.787 2.99588 -0.0819391 0
M  V30 6192 H 584.348 1.60787 -0.189544 0
M  V30 6193 H 586.34 3.22992 2.4384 0
M  V30 6194 H 584.91 2.18763 2.23297 0
M  V30 6195 H 584.13 3.91657 0.447069 0
M  V30 6196 H 585.418 4.98078 1.03902 0
M  V30 6197 H 584.816 3.95077 4.04883 0
M  V30 6198 H 583.373 4.81924 4.38854 0
M  V30 6199 N 586.806 0.0935595 1.57322 0
M  V30 6200 C 587.716 -0.880192 2.17462 0
M  V30 6201 C 588.732 -1.31135 1.14366 0
M  V30 6202 O 589.908 -1.37958 1.46729 0
M  V30 6203 C 586.973 -2.12184 2.74188 0
M  V30 6204 C 586.034 -1.74503 3.92234 0
M  V30 6205 C 585.267 -2.92748 4.46245 0
M  V30 6206 O 585.49 -4.07427 3.99198 0
M  V30 6207 O 584.424 -2.71303 5.37288 0
M  V30 6208 H 588.25 -0.398516 3.01074 0
M  V30 6209 H 585.835 -0.130707 1.48827 0
M  V30 6210 H 587.717 -2.84953 3.10451 0
M  V30 6211 H 586.392 -2.59407 1.93623 0
M  V30 6212 H 585.299 -0.989186 3.60785 0
M  V30 6213 H 586.632 -1.32044 4.74157 0
M  V30 6214 N 588.284 -1.56567 -0.180126 0
M  V30 6215 C 589.53 -1.81761 -0.899497 0
M  V30 6216 C 589.863 -0.670015 -1.82276 0
M  V30 6217 O 589.138 0.328575 -1.91705 0
M  V30 6218 C 589.421 -3.17296 -1.7028 0
M  V30 6219 C 589.274 -4.4257 -0.803255 0
M  V30 6220 C 590.593 -3.49678 -2.67233 0
M  V30 6221 H 587.712 -0.661192 -0.325567 0
M  V30 6222 H 590.354 -1.89272 -0.16612 0
M  V30 6223 H 588.504 -3.11023 -2.32802 0
M  V30 6224 H 590.176 -4.60902 -0.191585 0
M  V30 6225 H 588.419 -4.33658 -0.110796 0
M  V30 6226 H 589.09 -5.33935 -1.40064 0
M  V30 6227 H 591.566 -3.56347 -2.14839 0
M  V30 6228 H 590.442 -4.45605 -3.20511 0
M  V30 6229 H 590.703 -2.73932 -3.47007 0
M  V30 6230 N 589.762 0.448376 -1.51087 0
M  V30 6231 C 590.725 1.52588 -1.71025 0
M  V30 6232 C 591.725 1.49958 -0.580442 0
M  V30 6233 O 592.915 1.52176 -0.847833 0
M  V30 6234 C 590.047 2.92163 -1.75652 0
M  V30 6235 H 591.24 1.36218 -2.67179 0
M  V30 6236 H 588.793 0.676313 -1.4091 0
M  V30 6237 H 589.528 3.13951 -0.812724 0
M  V30 6238 H 589.313 2.95478 -2.57751 0
M  V30 6239 H 590.803 3.70349 -1.92953 0
M  V30 6240 N 591.24 1.41047 0.703093 0
M  V30 6241 C 592.487 1.4 1.46309 0
M  V30 6242 C 592.815 0.00654574 1.94499 0
M  V30 6243 O 592.07 -0.980255 1.6938 0
M  V30 6244 C 592.369 2.34686 2.6955 0
M  V30 6245 C 592.035 3.81684 2.40058 0
M  V30 6246 C 590.697 4.21731 2.31725 0
M  V30 6247 C 593.049 4.74525 2.15581 0
M  V30 6248 C 590.377 5.52637 1.97001 0
M  V30 6249 C 592.729 6.05744 1.82366 0
M  V30 6250 C 591.393 6.44819 1.72524 0
M  V30 6251 H 590.663 0.512295 0.535382 0
M  V30 6252 H 593.31 1.73792 0.804275 0
M  V30 6253 H 591.615 1.94122 3.40329 0
M  V30 6254 H 593.312 2.31152 3.27673 0
M  V30 6255 H 589.902 3.49963 2.47435 0
M  V30 6256 H 594.086 4.44395 2.20968 0
M  V30 6257 H 589.342 5.81802 1.87928 0
M  V30 6258 H 593.516 6.77189 1.62444 0
M  V30 6259 H 591.143 7.46168 1.45385 0
M  V30 6260 N 592.718 -0.936591 1.26751 0
M  V30 6261 C 593.681 -2.01752 1.08761 0
M  V30 6262 C 594.681 -1.60763 0.0344435 0
M  V30 6263 O 595.871 -1.71963 0.278258 0
M  V30 6264 C 593.003 -3.34543 0.655271 0
M  V30 6265 H 594.196 -2.19143 2.04735 0
M  V30 6266 H 591.749 -1.11618 1.09413 0
M  V30 6267 H 592.484 -3.22851 -0.30626 0
M  V30 6268 H 592.269 -3.65647 1.41578 0
M  V30 6269 H 593.759 -4.13944 0.551378 0
M  V30 6270 N 594.196 -1.08629 -1.14182 0
M  V30 6271 C 595.144 -0.71284 -2.21408 0
M  V30 6272 C 596.138 0.282457 -1.67029 0
M  V30 6273 O 597.344 0.144783 -1.79417 0
M  V30 6274 H 593.719 -0.212497 -0.721352 0
M  V30 6275 H 595.69 -1.6265 -2.50175 0
M  V30 6276 C 594.439 -0.140704 -3.47415 0
M  V30 6277 H 593.762 -0.897739 -3.8959 0
M  V30 6278 H 595.202 0.0827677 -4.23919 0
M  V30 6279 C 593.661 1.122 -3.17668 0
M  V30 6280 O 594.191 2.20652 -3.35672 0
M  V30 6281 N 592.397 1.03328 -2.71609 0
M  V30 6282 H 591.944 0.150666 -2.57159 0
M  V30 6283 H 591.902 1.8789 -2.52081 0
M  V30 6284 N 595.674 1.31259 -0.872281 0
M  V30 6285 C 596.621 2.28459 -0.327857 0
M  V30 6286 C 597.591 1.55831 0.574957 0
M  V30 6287 O 598.776 1.83965 0.506101 0
M  V30 6288 C 595.916 3.41985 0.462644 0
M  V30 6289 C 595.029 4.29458 -0.467949 0
M  V30 6290 C 594.164 5.30131 0.336903 0
M  V30 6291 C 593.203 6.0925 -0.58997 0
M  V30 6292 N 592.34 7.01872 0.178775 0
M  V30 6293 H 597.18 2.74414 -1.16193 0
M  V30 6294 H 594.717 1.34994 -0.584376 0
M  V30 6295 H 596.675 4.06547 0.936759 0
M  V30 6296 H 595.305 2.97134 1.2614 0
M  V30 6297 H 594.357 3.65318 -1.06052 0
M  V30 6298 H 595.669 4.84677 -1.17856 0
M  V30 6299 H 594.823 6.0038 0.873427 0
M  V30 6300 H 593.562 4.75573 1.08079 0
M  V30 6301 H 592.567 5.37889 -1.13823 0
M  V30 6302 H 593.792 6.65894 -1.33275 0
M  V30 6303 H 591.738 6.49721 0.905435 0
M  V30 6304 H 591.655 7.54522 -0.472452 0
M  V30 6305 H 592.923 7.76382 0.696454 0
M  V30 6306 N 597.152 0.631951 1.44375 0
M  V30 6307 C 598.082 -0.0593243 2.33425 0
M  V30 6308 C 599.063 -0.833964 1.48253 0
M  V30 6309 O 600.248 -0.799682 1.76971 0
M  V30 6310 C 597.378 -1.04096 3.31333 0
M  V30 6311 C 596.332 -0.377899 4.26328 0
M  V30 6312 C 595.658 -1.4695 5.14111 0
M  V30 6313 C 596.958 0.716371 5.17364 0
M  V30 6314 H 598.652 0.684287 2.91475 0
M  V30 6315 H 596.198 0.330518 1.40156 0
M  V30 6316 H 598.151 -1.53331 3.92514 0
M  V30 6317 H 596.875 -1.81547 2.71493 0
M  V30 6318 H 595.534 0.0938054 3.6648 0
M  V30 6319 H 595.182 -2.2349 4.50623 0
M  V30 6320 H 594.882 -1.03121 5.78481 0
M  V30 6321 H 596.406 -1.96363 5.78164 0
M  V30 6322 H 597.82 0.307089 5.72477 0
M  V30 6323 H 596.217 1.07784 5.90341 0
M  V30 6324 H 597.287 1.58316 4.58327 0
M  V30 6325 N 598.631 -1.53133 0.372548 0
M  V30 6326 C 599.878 -2.01356 -0.214959 0
M  V30 6327 C 600.206 -1.2596 -1.48204 0
M  V30 6328 O 599.461 -0.343511 -1.92662 0
M  V30 6329 C 599.76 -3.53206 -0.545938 0
M  V30 6330 C 599.426 -4.46511 0.627624 0
M  V30 6331 C 598.088 -4.71737 0.949615 0
M  V30 6332 C 600.44 -5.01666 1.41353 0
M  V30 6333 C 597.768 -5.4937 2.05936 0
M  V30 6334 C 600.12 -5.80511 2.51375 0
M  V30 6335 C 598.784 -6.04022 2.84101 0
M  V30 6336 H 598.054 -0.736813 -0.078659 0
M  V30 6337 H 600.701 -1.84682 0.506447 0
M  V30 6338 H 599.006 -3.67864 -1.34845 0
M  V30 6339 H 600.703 -3.87997 -1.01287 0
M  V30 6340 H 597.293 -4.27029 0.366635 0
M  V30 6341 H 601.477 -4.82117 1.17802 0
M  V30 6342 H 596.733 -5.65803 2.31682 0
M  V30 6343 H 600.907 -6.22255 3.12684 0
M  V30 6344 H 598.534 -6.63962 3.70214 0
M  V30 6345 N 600.109 -0.101901 -1.5727 0
M  V30 6346 C 601.337 0.568392 -1.98939 0
M  V30 6347 C 601.752 1.61301 -0.981194 0
M  V30 6348 O 601.109 1.82478 0.0282869 0
M  V30 6349 C 601.16 1.20997 -3.40649 0
M  V30 6350 O 600.881 0.207129 -4.3761 0
M  V30 6351 C 602.382 1.96523 -3.97358 0
M  V30 6352 H 599.602 0.15186 -0.65359 0
M  V30 6353 H 602.146 -0.183198 -2.03678 0
M  V30 6354 H 600.301 1.91245 -3.36904 0
M  V30 6355 H 600.715 0.671071 -5.20189 0
M  V30 6356 H 602.189 2.36764 -4.98645 0
M  V30 6357 H 602.666 2.83376 -3.35552 0
M  V30 6358 H 603.272 1.31076 -4.04598 0
M  V30 6359 N 601.587 1.56661 0.17182 0
M  V30 6360 C 603.003 1.50768 0.52357 0
M  V30 6361 C 603.203 0.806072 1.84675 0
M  V30 6362 O 602.259 0.366233 2.4983 0
M  V30 6363 C 603.572 2.955 0.556793 0
M  V30 6364 C 605.12 3.06303 0.644029 0
M  V30 6365 C 605.595 4.52492 0.708148 0
M  V30 6366 N 607.086 4.56737 0.771051 0
M  V30 6367 C 607.821 5.67196 0.841229 0
M  V30 6368 N 607.317 6.87287 0.872272 0
M  V30 6369 N 609.11 5.55165 0.88021 0
M  V30 6370 H 601.261 2.00679 -0.695817 0
M  V30 6371 H 603.524 0.914219 -0.250814 0
M  V30 6372 H 603.23 3.49986 -0.346774 0
M  V30 6373 H 603.104 3.50119 1.40346 0
M  V30 6374 H 605.491 2.51851 1.53802 0
M  V30 6375 H 605.572 2.5477 -0.229297 0
M  V30 6376 H 605.216 5.07575 -0.181585 0
M  V30 6377 H 605.146 5.01781 1.59761 0
M  V30 6378 H 607.637 3.70274 0.755364 0
M  V30 6379 H 607.95 7.6722 0.92698 0
M  V30 6380 H 606.295 6.89898 0.840557 0
M  V30 6381 H 609.486 4.60263 0.852956 0
M  V30 6382 H 609.659 6.41271 0.931439 0
M  V30 6383 N 603.065 -0.440357 1.51323 0
M  V30 6384 C 604.314 -1.18697 1.63076 0
M  V30 6385 C 604.627 -1.92418 0.35136 0
M  V30 6386 O 605.833 -2.69258 0.348221 0
M  V30 6387 C 604.289 -2.15849 2.87988 0
M  V30 6388 C 603.897 -1.47789 4.22921 0
M  V30 6389 C 605.641 -2.90962 3.09098 0
M  V30 6390 C 603.548 -2.43407 5.38987 0
M  V30 6391 H 602.478 -0.44676 0.607389 0
M  V30 6392 H 605.129 -0.454313 1.77787 0
M  V30 6393 H 603.511 -2.92537 2.66905 0
M  V30 6394 H 604.685 -0.7668 4.54375 0
M  V30 6395 H 603 -0.848404 4.07665 0
M  V30 6396 H 605.597 -3.62584 3.92985 0
M  V30 6397 H 605.94 -3.52133 2.22053 0
M  V30 6398 H 606.473 -2.21381 3.30507 0
M  V30 6399 H 603.212 -1.86929 6.28282 0
M  V30 6400 H 602.732 -3.12579 5.11913 0
M  V30 6401 H 604.411 -3.046 5.70813 0
M  V30 6402 N 604.543 -1.41418 -0.695603 0
M  V30 6403 C 605.453 -1.45622 -1.83933 0
M  V30 6404 C 606.469 -0.346825 -1.70508 0
M  V30 6405 O 607.645 -0.59454 -1.92424 0
M  V30 6406 C 604.71 -1.33627 -3.19914 0
M  V30 6407 C 603.771 -2.54882 -3.45447 0
M  V30 6408 C 603.004 -2.43449 -4.7494 0
M  V30 6409 O 603.227 -1.45905 -5.51424 0
M  V30 6410 O 602.161 -3.33206 -5.01256 0
M  V30 6411 H 605.987 -2.42114 -1.83342 0
M  V30 6412 H 603.572 -1.22956 -0.848658 0
M  V30 6413 H 605.454 -1.29221 -4.01098 0
M  V30 6414 H 604.129 -0.402508 -3.21188 0
M  V30 6415 H 603.036 -2.64865 -2.64192 0
M  V30 6416 H 604.369 -3.47087 -3.48987 0
M  V30 6417 N 606.021 0.929856 -1.27246 0
M  V30 6418 C 607.249 1.71144 -1.16265 0
M  V30 6419 C 607.664 1.867 0.280786 0
M  V30 6420 O 607.021 1.38249 1.19136 0
M  V30 6421 C 607.072 3.11222 -1.83911 0
M  V30 6422 O 606.793 2.96398 -3.22614 0
M  V30 6423 C 608.294 4.05541 -1.79028 0
M  V30 6424 H 605.514 0.535499 -0.404328 0
M  V30 6425 H 608.058 1.16492 -1.68077 0
M  V30 6426 H 606.213 3.6274 -1.36009 0
M  V30 6427 H 606.627 3.8494 -3.56261 0
M  V30 6428 H 608.101 5.01351 -2.30978 0
M  V30 6429 H 608.578 4.32589 -0.759168 0
M  V30 6430 H 609.184 3.59947 -2.26535 0
M  V30 6431 N 607.499 1.09233 1.13605 0
M  V30 6432 C 608.432 0.6739 2.18023 0
M  V30 6433 C 609.41 -0.318603 1.59448 0
M  V30 6434 O 610.594 -0.220452 1.87206 0
M  V30 6435 C 607.721 -0.00751458 3.38699 0
M  V30 6436 C 606.767 0.946481 4.15865 0
M  V30 6437 S 607.6 2.45753 4.75779 0
M  V30 6438 C 608.756 1.78846 5.99804 0
M  V30 6439 H 608.989 1.55846 2.53178 0
M  V30 6440 H 606.522 0.908118 1.2487 0
M  V30 6441 H 608.48 -0.394368 4.08601 0
M  V30 6442 H 607.141 -0.868693 3.01849 0
M  V30 6443 H 606.334 0.416742 5.02274 0
M  V30 6444 H 605.936 1.27464 3.51609 0
M  V30 6445 H 608.228 1.11135 6.68323 0
M  V30 6446 H 609.171 2.63163 6.57382 0
M  V30 6447 H 609.579 1.25823 5.50299 0
M  V30 6448 N 608.977 -1.30795 0.87923 0
M  V30 6449 C 609.907 -2.30742 0.357796 0
M  V30 6450 C 610.888 -1.60747 -0.556283 0
M  V30 6451 O 612.073 -1.88393 -0.47135 0
M  V30 6452 C 609.203 -3.44583 -0.433555 0
M  V30 6453 C 608.157 -4.26235 0.388251 0
M  V30 6454 C 607.483 -5.32073 -0.529352 0
M  V30 6455 C 608.783 -4.96303 1.62729 0
M  V30 6456 H 610.477 -2.74605 1.19299 0
M  V30 6457 H 608.023 -1.32017 0.575104 0
M  V30 6458 H 609.976 -4.13563 -0.808934 0
M  V30 6459 H 608.7 -2.99511 -1.30234 0
M  V30 6460 H 607.359 -3.58936 0.745695 0
M  V30 6461 H 607.007 -4.83249 -1.39569 0
M  V30 6462 H 606.707 -5.87598 0.0166741 0
M  V30 6463 H 608.231 -6.0391 -0.901373 0
M  V30 6464 H 609.645 -5.5783 1.32283 0
M  V30 6465 H 608.042 -5.61666 2.11309 0
M  V30 6466 H 609.112 -4.22758 2.37494 0
M  V30 6467 N 610.455 -0.639598 -1.44038 0
M  V30 6468 C 611.703 -0.147188 -2.01563 0
M  V30 6469 C 612.024 1.2384 -1.50628 0
M  V30 6470 O 611.294 1.82452 -0.713316 0
M  V30 6471 H 609.874 -0.0514231 -0.745228 0
M  V30 6472 H 612.536 -0.828205 -1.76428 0
M  V30 6473 H 611.632 -0.121358 -3.11864 0
M  V30 6474 N 611.933 1.52934 -0.380664 0
M  V30 6475 C 612.866 2.22597 0.502564 0
M  V30 6476 C 613.844 1.22345 1.071 0
M  V30 6477 O 615.028 1.51302 1.12428 0
M  V30 6478 C 612.155 2.93246 1.69482 0
M  V30 6479 C 611.201 4.07696 1.25244 0
M  V30 6480 S 612.034 5.34957 0.241159 0
M  V30 6481 C 613.19 6.09124 1.4394 0
M  V30 6482 H 613.423 2.97167 -0.089029 0
M  V30 6483 H 610.956 1.53518 -0.164817 0
M  V30 6484 H 612.914 3.34562 2.37863 0
M  V30 6485 H 611.575 2.18373 2.2577 0
M  V30 6486 H 610.768 4.56199 2.1424 0
M  V30 6487 H 610.37 3.68349 0.647664 0
M  V30 6488 H 612.662 6.34771 2.36794 0
M  V30 6489 H 613.605 7.01068 0.995464 0
M  V30 6490 H 614.013 5.39777 1.65229 0
M  V30 6491 N 613.412 0.11024 1.57214 0
M  V30 6492 C 614.375 -0.828808 2.1369 0
M  V30 6493 C 615.375 -1.20059 1.06969 0
M  V30 6494 O 616.565 -1.12754 1.32786 0
M  V30 6495 C 613.697 -2.11959 2.66994 0
M  V30 6496 H 614.89 -0.338146 2.97988 0
M  V30 6497 H 612.443 -0.138913 1.55681 0
M  V30 6498 H 613.178 -2.65476 1.8626 0
M  V30 6499 H 612.963 -1.86258 3.45037 0
M  V30 6500 H 614.453 -2.79105 3.10629 0
M  V30 6501 N 614.89 -1.56749 -0.16351 0
M  V30 6502 C 616.301 -1.72039 -0.725216 0
M  V30 6503 C 616.652 -0.72202 -1.82432 0
M  V30 6504 O 615.777 0.114942 -2.16095 0
M  V30 6505 C 616.372 -3.11932 -1.32227 0
M  V30 6506 C 614.931 -3.28879 -1.83072 0
M  V30 6507 C 614.078 -2.67984 -0.712716 0
M  V30 6508 H 617.029 -1.58579 0.0619772 0
M  V30 6509 H 617.05 -3.11015 -2.19202 0
M  V30 6510 H 616.562 -3.84572 -0.522103 0
M  V30 6511 H 614.663 -2.61209 -2.65708 0
M  V30 6512 H 614.776 -4.36688 -1.97079 0
M  V30 6513 H 613.14 -2.28005 -1.13515 0
M  V30 6514 H 613.923 -3.43216 0.0757361 0
M  V30 6515 N 616.368 0.432326 -1.51554 0
M  V30 6516 C 617.316 1.54572 -1.73811 0
M  V30 6517 C 618.31 1.58246 -0.604539 0
M  V30 6518 O 619.516 1.6193 -0.786041 0
M  V30 6519 H 615.891 0.513626 -0.549265 0
M  V30 6520 H 617.862 1.32977 -2.67132 0
M  V30 6521 C 616.611 2.92181 -1.88483 0
M  V30 6522 H 615.934 2.90088 -2.75116 0
M  V30 6523 H 617.374 3.69439 -2.08065 0
M  V30 6524 C 615.833 3.3065 -0.645909 0
M  V30 6525 O 616.363 4.01216 0.197093 0
M  V30 6526 N 614.569 2.86464 -0.488538 0
M  V30 6527 H 614.116 2.29209 -1.17562 0
M  V30 6528 H 614.074 3.12565 0.339156 0
M  V30 6529 N 617.846 1.41785 0.688094 0
M  V30 6530 C 619.074 1.44915 1.47673 0
M  V30 6531 C 619.489 0.0565786 1.88715 0
M  V30 6532 O 618.846 -0.92579 1.57275 0
M  V30 6533 C 618.897 2.36452 2.73446 0
M  V30 6534 O 618.618 3.7029 2.34131 0
M  V30 6535 C 620.119 2.48463 3.67125 0
M  V30 6536 H 617.339 0.493324 0.454832 0
M  V30 6537 H 619.883 1.86153 0.846594 0
M  V30 6538 H 618.038 1.98502 3.3268 0
M  V30 6539 H 618.452 4.19183 3.15255 0
M  V30 6540 H 619.926 3.16662 4.52138 0
M  V30 6541 H 620.403 1.51826 4.12123 0
M  V30 6542 H 621.009 2.8708 3.13792 0
M  V30 6543 N 619.324 -0.923095 1.27737 0
M  V30 6544 C 620.254 -2.04124 1.13383 0
M  V30 6545 C 621.235 -1.70066 0.0340658 0
M  V30 6546 O 622.42 -1.93068 0.209383 0
M  V30 6547 C 619.55 -3.3831 0.785097 0
M  V30 6548 C 618.504 -3.86496 1.8386 0
M  V30 6549 C 617.83 -5.1754 1.34373 0
M  V30 6550 C 619.13 -4.09381 3.24353 0
M  V30 6551 H 620.824 -2.1639 2.06919 0
M  V30 6552 H 618.37 -1.03976 0.996243 0
M  V30 6553 H 620.323 -4.16016 0.671485 0
M  V30 6554 H 619.047 -3.2607 -0.185969 0
M  V30 6555 H 617.706 -3.10987 1.9412 0
M  V30 6556 H 617.354 -5.01696 0.361989 0
M  V30 6557 H 617.054 -5.50751 2.04811 0
M  V30 6558 H 618.578 -5.97811 1.24315 0
M  V30 6559 H 619.992 -4.77641 3.17067 0
M  V30 6560 H 618.389 -4.53906 3.92542 0
M  V30 6561 H 619.459 -3.14515 3.69064 0
M  V30 6562 N 620.802 -1.09834 -1.13024 0
M  V30 6563 C 621.749 -0.741522 -2.18564 0
M  V30 6564 C 622.719 0.279236 -1.63736 0
M  V30 6565 O 623.904 0.159923 -1.90129 0
M  V30 6566 C 621.044 -0.17277 -3.44667 0
M  V30 6567 C 620.157 -1.24808 -4.13578 0
M  V30 6568 C 619.292 -0.641631 -5.27311 0
M  V30 6569 C 618.331 -1.69795 -5.88078 0
M  V30 6570 N 617.468 -1.11223 -6.93234 0
M  V30 6571 H 622.308 -1.64576 -2.48432 0
M  V30 6572 H 619.845 -0.822174 -1.21978 0
M  V30 6573 H 621.803 0.17482 -4.16834 0
M  V30 6574 H 620.433 0.694725 -3.15235 0
M  V30 6575 H 619.485 -1.71288 -3.39653 0
M  V30 6576 H 620.797 -2.04795 -4.54819 0
M  V30 6577 H 619.951 -0.243128 -6.06213 0
M  V30 6578 H 618.69 0.189742 -4.87331 0
M  V30 6579 H 617.695 -2.10595 -5.07868 0
M  V30 6580 H 618.92 -2.53206 -6.3013 0
M  V30 6581 H 616.866 -0.302208 -6.55304 0
M  V30 6582 H 616.783 -1.84901 -7.3304 0
M  V30 6583 H 618.051 -0.740068 -7.75979 0
M  V30 6584 N 622.28 1.30327 -0.886154 0
M  V30 6585 C 623.213 2.26241 -0.298407 0
M  V30 6586 C 624.191 1.51839 0.581704 0
M  V30 6587 O 625.375 1.80851 0.531536 0
M  V30 6588 C 622.502 3.33768 0.575888 0
M  V30 6589 C 621.548 4.25852 -0.235057 0
M  V30 6590 S 622.381 5.10277 -1.62411 0
M  V30 6591 C 623.537 6.21313 -0.756368 0
M  V30 6592 H 623.77 2.75744 -1.11141 0
M  V30 6593 H 621.303 1.38341 -0.685651 0
M  V30 6594 H 623.261 3.96186 1.07458 0
M  V30 6595 H 621.922 2.82986 1.363 0
M  V30 6596 H 621.115 5.02143 0.432198 0
M  V30 6597 H 620.717 3.68015 -0.666409 0
M  V30 6598 H 623.009 6.77495 0.0261451 0
M  V30 6599 H 623.952 6.92226 -1.49093 0
M  V30 6600 H 624.36 5.63611 -0.316749 0
M  V30 6601 N 623.758 0.647228 1.43697 0
M  V30 6602 C 625.006 0.157876 2.01482 0
M  V30 6603 C 625.327 -1.23039 1.51282 0
M  V30 6604 O 624.597 -1.82071 0.722982 0
M  V30 6605 H 623.177 0.0553745 0.744945 0
M  V30 6606 H 625.839 0.83755 1.75986 0
M  V30 6607 H 624.935 0.137895 3.11795 0
M  V30 6608 N 625.236 -1.5273 0.388769 0
M  V30 6609 C 626.485 -2.00757 -0.194833 0
M  V30 6610 C 626.798 -1.27951 -1.47946 0
M  V30 6611 O 628.004 -1.66686 -2.14308 0
M  V30 6612 C 626.46 -3.57695 -0.397762 0
M  V30 6613 C 626.068 -4.394 0.873583 0
M  V30 6614 C 627.812 -4.14012 -0.937759 0
M  V30 6615 C 625.719 -5.87938 0.638962 0
M  V30 6616 H 624.649 -0.750101 -0.0765845 0
M  V30 6617 H 627.3 -1.76239 0.511086 0
M  V30 6618 H 625.682 -3.7846 -1.16552 0
M  V30 6619 H 626.856 -4.30403 1.64591 0
M  V30 6620 H 625.171 -3.94301 1.33849 0
M  V30 6621 H 627.768 -5.22645 -1.12899 0
M  V30 6622 H 628.111 -3.7007 -1.90666 0
M  V30 6623 H 628.644 -3.97137 -0.229588 0
M  V30 6624 H 625.383 -6.36202 1.57885 0
M  V30 6625 H 624.903 -5.99726 -0.094443 0
M  V30 6626 H 626.582 -6.46423 0.273299 0
M  V30 6627 N 626.714 -0.118576 -1.57153 0
M  V30 6628 C 627.647 0.869046 -2.11004 0
M  V30 6629 C 628.625 1.26115 -1.02634 0
M  V30 6630 O 629.809 1.36228 -1.30285 0
M  V30 6631 C 626.936 2.16297 -2.6064 0
M  V30 6632 C 625.982 1.91896 -3.80891 0
M  V30 6633 S 626.815 1.13562 -5.2332 0
M  V30 6634 C 627.971 2.44135 -5.76324 0
M  V30 6635 H 628.204 0.411005 -2.94445 0
M  V30 6636 H 625.737 0.0951891 -1.54106 0
M  V30 6637 H 627.695 2.90642 -2.89892 0
M  V30 6638 H 626.356 2.59219 -1.77382 0
M  V30 6639 H 625.549 2.8777 -4.13768 0
M  V30 6640 H 625.151 1.25672 -3.52253 0
M  V30 6641 H 627.443 3.39976 -5.86022 0
M  V30 6642 H 628.386 2.15803 -6.74414 0
M  V30 6643 H 628.794 2.53483 -5.04387 0
M  V30 6644 N 628.193 1.56834 0.155195 0
M  V30 6645 C 629.47 1.73799 0.897395 0
M  V30 6646 C 629.85 0.684379 1.99698 0
M  V30 6647 O 629.198 -0.298111 2.26547 0
M  V30 6648 C 629.408 3.17572 1.44737 0
M  V30 6649 C 630.756 3.79014 1.91399 0
M  V30 6650 O 631.78 3.20951 1.54496 0
M  V30 6651 O 630.639 4.80998 2.59429 0
M  V30 6652 H 627.733 0.710329 0.423511 0
M  V30 6653 H 630.279 1.69107 0.141761 0
M  V30 6654 H 629.051 3.85749 0.656741 0
M  V30 6655 H 628.674 3.26657 2.26674 0
M  V30 6656 N 629.671 -0.424282 1.51781 0
M  V30 6657 C 630.581 -1.54087 1.76902 0
M  V30 6658 C 631.597 -1.61249 0.653826 0
M  V30 6659 O 632.773 -1.78247 0.937552 0
M  V30 6660 C 629.838 -2.8996 1.90063 0
M  V30 6661 C 628.899 -2.92809 3.13945 0
M  V30 6662 C 628.132 -4.22201 3.26469 0
M  V30 6663 O 628.355 -5.15286 2.44616 0
M  V30 6664 O 627.289 -4.31599 4.1953 0
M  V30 6665 H 631.115 -1.358 2.71647 0
M  V30 6666 H 628.7 -0.608618 1.36441 0
M  V30 6667 H 630.582 -3.70575 2.0063 0
M  V30 6668 H 629.257 -3.08347 0.985067 0
M  V30 6669 H 628.164 -2.11102 3.08847 0
M  V30 6670 H 629.497 -2.79369 4.05233 0
M  V30 6671 N 631.149 -1.42148 -0.680565 0
M  V30 6672 C 632.059 -1.47565 -1.82378 0
M  V30 6673 C 633.075 -0.36489 -1.70131 0
M  V30 6674 O 634.251 -0.614916 -1.91783 0
M  V30 6675 C 631.316 -1.37013 -3.18478 0
M  V30 6676 C 630.377 -2.58532 -3.42724 0
M  V30 6677 C 629.61 -2.48473 -4.72331 0
M  V30 6678 O 629.833 -1.51745 -5.49845 0
M  V30 6679 O 628.767 -3.38503 -4.97694 0
M  V30 6680 H 632.593 -2.44045 -1.80764 0
M  V30 6681 H 630.178 -1.23849 -0.835569 0
M  V30 6682 H 632.06 -1.33468 -3.99705 0
M  V30 6683 H 630.735 -0.436552 -3.20743 0
M  V30 6684 H 629.642 -2.67652 -2.61368 0
M  V30 6685 H 630.975 -3.50769 -3.45286 0
M  V30 6686 N 632.627 0.916307 -1.28225 0
M  V30 6687 C 634.043 1.19425 -1.05876 0
M  V30 6688 C 634.243 2.005 0.2005 0
M  V30 6689 O 633.299 2.35806 0.902873 0
M  V30 6690 C 634.612 1.93133 -2.30478 0
M  V30 6691 C 636.16 2.06026 -2.35632 0
M  V30 6692 C 636.635 2.83141 -3.59994 0
M  V30 6693 N 638.126 2.90704 -3.60618 0
M  V30 6694 C 638.861 3.50865 -4.53521 0
M  V30 6695 N 638.357 4.12327 -5.56739 0
M  V30 6696 N 640.15 3.48379 -4.41122 0
M  V30 6697 H 632.301 0.37496 -2.09064 0
M  V30 6698 H 634.564 0.228531 -0.920042 0
M  V30 6699 H 634.27 1.40985 -3.22205 0
M  V30 6700 H 634.144 2.93696 -2.36691 0
M  V30 6701 H 636.531 2.57355 -1.44404 0
M  V30 6702 H 636.612 1.04647 -2.33415 0
M  V30 6703 H 636.256 2.32492 -4.51564 0
M  V30 6704 H 636.186 3.84829 -3.59464 0
M  V30 6705 H 638.677 2.47034 -2.85977 0
M  V30 6706 H 638.99 4.56205 -6.23776 0
M  V30 6707 H 637.335 4.10839 -5.60568 0
M  V30 6708 H 640.526 2.99572 -3.59686 0
M  V30 6709 H 640.699 3.94974 -5.13712 0
M  V30 6710 N 634.105 1.10431 1.1244 0
M  V30 6711 C 635.521 0.836096 1.35947 0
M  V30 6712 C 635.721 -0.544475 1.94004 0
M  V30 6713 O 634.777 -1.29735 2.16622 0
M  V30 6714 C 636.09 1.93575 2.30107 0
M  V30 6715 C 637.638 1.9642 2.43697 0
M  V30 6716 C 638.113 3.05559 3.41171 0
M  V30 6717 N 639.604 3.04865 3.48728 0
M  V30 6718 C 640.339 3.85954 4.24061 0
M  V30 6719 N 639.835 4.76977 5.02458 0
M  V30 6720 N 641.628 3.74172 4.19466 0
M  V30 6721 H 633.779 1.9942 0.731124 0
M  V30 6722 H 636.042 0.866607 0.384312 0
M  V30 6723 H 635.748 2.92943 1.94621 0
M  V30 6724 H 635.622 1.8229 3.30227 0
M  V30 6725 H 638.009 0.97685 2.78463 0
M  V30 6726 H 638.09 2.11782 1.43465 0
M  V30 6727 H 637.734 4.04513 3.07135 0
M  V30 6728 H 637.664 2.87438 4.41234 0
M  V30 6729 H 640.155 2.38908 2.92799 0
M  V30 6730 H 640.468 5.35409 5.57277 0
M  V30 6731 H 638.813 4.81006 5.01655 0
M  V30 6732 H 642.004 3.02412 3.57302 0
M  V30 6733 H 642.177 4.37602 4.77921 0
M  V30 6734 N 635.583 -1.29855 0.893053 0
M  V30 6735 C 636.811 -1.99976 0.530788 0
M  V30 6736 C 637.226 -1.66889 -0.882799 0
M  V30 6737 O 636.583 -0.910352 -1.58173 0
M  V30 6738 C 636.634 -3.54547 0.705587 0
M  V30 6739 O 636.355 -3.86458 2.06353 0
M  V30 6740 C 637.856 -4.41937 0.347387 0
M  V30 6741 H 635.076 -0.639129 0.204339 0
M  V30 6742 H 637.62 -1.65549 1.20057 0
M  V30 6743 H 635.775 -3.87311 0.0830685 0
M  V30 6744 H 636.189 -4.81146 2.08803 0
M  V30 6745 H 637.663 -5.4954 0.520557 0
M  V30 6746 H 638.14 -4.33339 -0.715139 0
M  V30 6747 H 638.746 -4.14633 0.946567 0
M  V30 6748 N 637.061 -0.65484 -1.43351 0
M  V30 6749 C 638.286 -0.175046 -2.0666 0
M  V30 6750 C 638.711 1.15104 -1.4877 0
M  V30 6751 O 638.069 1.71144 -0.598279 0
M  V30 6752 C 638.117 -0.0991544 -3.60464 0
M  V30 6753 O 637.221 0.938169 -4.01587 0
M  V30 6754 H 636.562 -0.0956148 -0.65708 0
M  V30 6755 H 639.092 -0.898222 -1.83829 0
M  V30 6756 H 639.102 0.083632 -4.07914 0
M  V30 6757 H 637.777 -1.06719 -4.01975 0
M  V30 6758 H 636.354 0.72804 -3.65724 0
M  V30 6759 N 638.539 1.52521 -0.396863 0
M  V30 6760 C 639.469 2.29582 0.425941 0
M  V30 6761 C 640.45 1.33281 1.05689 0
M  V30 6762 O 641.635 1.62181 1.06823 0
M  V30 6763 C 638.765 3.10821 1.54943 0
M  V30 6764 C 637.719 4.15069 1.04413 0
M  V30 6765 C 637.045 4.84578 2.26028 0
M  V30 6766 C 638.345 5.22191 0.106767 0
M  V30 6767 H 640.039 2.98612 -0.217045 0
M  V30 6768 H 637.585 1.43611 -0.105826 0
M  V30 6769 H 639.538 3.63492 2.13193 0
M  V30 6770 H 638.262 2.39538 2.22011 0
M  V30 6771 H 636.921 3.63389 0.484118 0
M  V30 6772 H 636.569 4.09835 2.91623 0
M  V30 6773 H 636.269 5.55043 1.92876 0
M  V30 6774 H 637.793 5.40056 2.84906 0
M  V30 6775 H 639.207 5.70176 0.597685 0
M  V30 6776 H 637.604 5.99947 -0.135352 0
M  V30 6777 H 638.674 4.77531 -0.842134 0
M  V30 6778 N 640.017 0.126909 1.57088 0
M  V30 6779 C 640.965 -0.837618 2.16995 0
M  V30 6780 C 641.959 -1.26974 1.12133 0
M  V30 6781 O 643.165 -1.24056 1.30423 0
M  V30 6782 H 639.54 -0.288256 0.694559 0
M  V30 6783 H 641.511 -0.307957 2.96807 0
M  V30 6784 C 640.26 -2.07474 2.79016 0
M  V30 6785 H 639.583 -1.75117 3.59408 0
M  V30 6786 H 641.023 -2.72949 3.24461 0
M  V30 6787 C 639.482 -2.86967 1.76498 0
M  V30 6788 O 640.012 -3.82625 1.22316 0
M  V30 6789 N 638.218 -2.51111 1.46258 0
M  V30 6790 H 637.765 -1.73389 1.90509 0
M  V30 6791 H 637.723 -3.04594 0.779085 0
M  V30 6792 N 641.495 -1.56914 -0.146875 0
M  V30 6793 C 642.425 -2.01308 -1.1831 0
M  V30 6794 C 643.406 -0.892664 -1.44795 0
M  V30 6795 O 644.591 -1.16048 -1.55713 0
M  V30 6796 C 641.721 -2.3938 -2.51624 0
M  V30 6797 C 640.675 -3.54608 -2.3966 0
M  V30 6798 C 640.001 -3.78493 -3.77686 0
M  V30 6799 C 641.301 -4.87269 -1.88058 0
M  V30 6800 H 642.995 -2.88123 -0.813964 0
M  V30 6801 H 640.541 -1.38615 -0.3901 0
M  V30 6802 H 642.494 -2.69037 -3.24341 0
M  V30 6803 H 641.218 -1.49502 -2.90373 0
M  V30 6804 H 639.877 -3.25116 -1.69396 0
M  V30 6805 H 639.525 -2.85866 -4.13871 0
M  V30 6806 H 639.225 -4.56039 -3.70543 0
M  V30 6807 H 640.749 -4.10576 -4.51951 0
M  V30 6808 H 642.163 -5.15644 -2.50568 0
M  V30 6809 H 640.56 -5.68622 -1.91805 0
M  V30 6810 H 641.63 -4.77634 -0.836277 0
M  V30 6811 N 642.974 0.416227 -1.52004 0
M  V30 6812 C 644.39 0.754319 -1.40649 0
M  V30 6813 C 644.59 1.95059 -0.505392 0
M  V30 6814 O 643.646 2.5248 0.0315057 0
M  V30 6815 C 644.959 1.0149 -2.83055 0
M  V30 6816 C 646.507 1.11805 -2.9235 0
M  V30 6817 C 646.982 1.41144 -4.35709 0
M  V30 6818 N 648.473 1.48024 -4.38911 0
M  V30 6819 C 649.208 1.72338 -5.46889 0
M  V30 6820 N 648.704 1.94303 -6.64995 0
M  V30 6821 N 650.497 1.74294 -5.34395 0
M  V30 6822 H 642.648 -0.371324 -2.09129 0
M  V30 6823 H 644.911 -0.103811 -0.942299 0
M  V30 6824 H 644.617 0.208345 -3.51082 0
M  V30 6825 H 644.491 1.93697 -3.23668 0
M  V30 6826 H 646.878 1.91521 -2.24508 0
M  V30 6827 H 646.959 0.17451 -2.55204 0
M  V30 6828 H 646.603 0.619484 -5.04108 0
M  V30 6829 H 646.533 2.36739 -4.70385 0
M  V30 6830 H 649.024 1.32868 -3.53772 0
M  V30 6831 H 649.337 2.12286 -7.43071 0
M  V30 6832 H 647.682 1.91582 -6.68073 0
M  V30 6833 H 650.873 1.56667 -4.41104 0
M  V30 6834 H 651.046 1.92904 -6.18621 0
M  V30 6835 N 644.452 1.42507 0.673017 0
M  V30 6836 C 645.677 1.4668 1.46627 0
M  V30 6837 C 646.102 0.080066 1.8793 0
M  V30 6838 O 645.46 -0.921879 1.56112 0
M  V30 6839 C 645.508 2.40091 2.69051 0
M  V30 6840 O 644.612 1.8735 3.67387 0
M  V30 6841 H 643.953 0.496908 0.44043 0
M  V30 6842 H 646.483 1.87215 0.825334 0
M  V30 6843 H 646.493 2.56731 3.17101 0
M  V30 6844 H 645.168 3.4084 2.3833 0
M  V30 6845 H 643.745 1.80274 3.26429 0
M  V30 6846 N 645.93 -0.909495 1.28709 0
M  V30 6847 C 647.17 -1.67344 1.17368 0
M  V30 6848 C 647.534 -1.90058 -0.272419 0
M  V30 6849 O 648.735 -2.63944 -0.508617 0
M  V30 6850 C 647.006 -2.99219 1.95455 0
M  V30 6851 S 648.565 -3.90295 2.00538 0
M  V30 6852 H 645.383 -0.57466 0.418672 0
M  V30 6853 H 647.985 -1.08144 1.62865 0
M  V30 6854 H 646.689 -2.80393 2.9968 0
M  V30 6855 H 646.22 -3.63464 1.50524 0
M  V30 6856 H 648.235 -4.83511 1.11496 0
M  V30 6857 N 647.408 -1.11026 -1.11852 0
M  V30 6858 C 648.657 -0.851249 -1.82857 0
M  V30 6859 C 648.97 0.62514 -1.85341 0
M  V30 6860 O 650.176 1.00026 -2.52403 0
M  V30 6861 C 648.632 -1.47309 -3.28372 0
M  V30 6862 C 648.24 -2.9832 -3.34229 0
M  V30 6863 C 649.984 -1.29373 -4.04306 0
M  V30 6864 C 647.891 -3.53509 -4.74115 0
M  V30 6865 H 646.821 -0.314794 -0.685143 0
M  V30 6866 H 649.472 -1.33499 -1.25898 0
M  V30 6867 H 647.854 -0.917017 -3.85236 0
M  V30 6868 H 649.028 -3.60295 -2.87271 0
M  V30 6869 H 647.343 -3.15482 -2.71772 0
M  V30 6870 H 649.94 -1.68042 -5.07608 0
M  V30 6871 H 650.283 -0.235879 -4.15631 0
M  V30 6872 H 650.816 -1.8182 -3.53817 0
M  V30 6873 H 647.555 -4.58987 -4.67986 0
M  V30 6874 H 647.075 -2.96305 -5.21501 0
M  V30 6875 H 648.754 -3.51693 -5.43066 0
M  V30 6876 N 648.886 1.2938 -0.899927 0
M  V30 6877 C 649.849 2.25983 -0.382677 0
M  V30 6878 C 650.849 1.53366 0.483259 0
M  V30 6879 O 652.039 1.71798 0.28828 0
M  V30 6880 C 649.171 3.37878 0.452915 0
M  V30 6881 H 650.364 2.73252 -1.23586 0
M  V30 6882 H 647.917 1.40825 -0.678088 0
M  V30 6883 H 648.652 2.95949 1.32608 0
M  V30 6884 H 648.437 3.91742 -0.167562 0
M  V30 6885 H 649.927 4.09746 0.806107 0
M  V30 6886 N 650.364 0.662433 1.43002 0
M  V30 6887 C 651.296 -0.062326 2.29115 0
M  V30 6888 C 652.309 -0.777926 1.43011 0
M  V30 6889 O 653.498 -0.634146 1.66856 0
M  V30 6890 C 650.598 -1.11163 3.2015 0
M  V30 6891 C 649.771 -0.472327 4.34842 0
M  V30 6892 C 648.83 -1.41974 5.06685 0
M  V30 6893 O 647.856 -0.924795 5.61637 0
M  V30 6894 N 649.058 -2.75345 5.11043 0
M  V30 6895 H 651.823 0.676838 2.91957 0
M  V30 6896 H 649.384 0.505907 1.53793 0
M  V30 6897 H 651.376 -1.74643 3.65078 0
M  V30 6898 H 649.946 -1.75266 2.58845 0
M  V30 6899 H 649.166 0.341751 3.92716 0
M  V30 6900 H 650.454 -0.0264381 5.08793 0
M  V30 6901 H 649.852 -3.18108 4.67786 0
M  V30 6902 H 648.409 -3.34105 5.59658 0
M  V30 6903 N 651.842 -1.52309 0.404946 0
M  V30 6904 C 652.805 -2.25491 -0.410651 0
M  V30 6905 C 653.805 -1.27704 -0.977154 0
M  V30 6906 O 654.995 -1.51679 -0.856691 0
M  V30 6907 C 652.127 -3.02197 -1.57765 0
M  V30 6908 H 653.32 -2.99015 0.230277 0
M  V30 6909 H 650.873 -1.55506 0.157377 0
M  V30 6910 H 651.608 -2.33013 -2.25556 0
M  V30 6911 H 651.393 -3.73987 -1.17797 0
M  V30 6912 H 652.883 -3.57719 -2.15469 0
M  V30 6913 N 653.32 -0.135238 -1.57019 0
M  V30 6914 C 654.736 0.221262 -1.58059 0
M  V30 6915 C 654.936 1.65538 -1.14889 0
M  V30 6916 O 653.992 2.37985 -0.843751 0
M  V30 6917 C 655.305 -0.0268114 -3.00688 0
M  V30 6918 C 656.853 0.0378206 -3.12977 0
M  V30 6919 C 657.328 -0.182769 -4.57635 0
M  V30 6920 N 658.819 -0.129292 -4.6302 0
M  V30 6921 C 659.554 -0.274648 -5.72742 0
M  V30 6922 N 659.05 -0.477075 -6.91155 0
M  V30 6923 N 660.843 -0.213077 -5.61696 0
M  V30 6924 H 652.994 -1.07177 -1.83376 0
M  V30 6925 H 655.257 -0.423338 -0.848227 0
M  V30 6926 H 654.963 -1.01889 -3.36618 0
M  V30 6927 H 654.837 0.697863 -3.70688 0
M  V30 6928 H 657.224 1.02043 -2.76896 0
M  V30 6929 H 657.305 -0.718996 -2.45487 0
M  V30 6930 H 656.949 -1.16243 -4.94419 0
M  V30 6931 H 656.879 0.59423 -5.23237 0
M  V30 6932 H 659.37 0.0229896 -3.77893 0
M  V30 6933 H 659.683 -0.578413 -7.70632 0
M  V30 6934 H 658.028 -0.513252 -6.93102 0
M  V30 6935 H 661.219 -0.0557796 -4.68067 0
M  V30 6936 H 661.392 -0.329796 -6.4716 0
M  V30 6937 N 654.798 1.5699 0.138552 0
M  V30 6938 C 655.746 1.99858 1.18994 0
M  V30 6939 C 656.74 0.89231 1.43994 0
M  V30 6940 O 657.946 1.0775 1.44187 0
M  V30 6941 H 654.321 0.636325 0.400743 0
M  V30 6942 H 656.292 2.87427 0.801755 0
M  V30 6943 C 655.041 2.40235 2.51361 0
M  V30 6944 H 654.364 3.24917 2.32957 0
M  V30 6945 H 655.804 2.74045 3.23535 0
M  V30 6946 C 654.263 1.25829 3.1252 0
M  V30 6947 O 654.793 0.563604 3.97727 0
M  V30 6948 N 652.999 1.02036 2.72097 0
M  V30 6949 H 652.546 1.58705 2.02905 0
M  V30 6950 H 652.504 0.256796 3.1335 0
M  V30 6951 N 656.276 -0.40816 1.52223 0
M  V30 6952 C 657.692 -0.74685 1.41047 0
M  V30 6953 C 657.892 -1.94788 0.51573 0
M  V30 6954 O 656.948 -2.52494 -0.0181156 0
M  V30 6955 C 658.261 -0.999878 2.83589 0
M  V30 6956 C 659.809 -1.10253 2.92939 0
M  V30 6957 C 660.284 -1.38832 4.36451 0
M  V30 6958 N 661.775 -1.45694 4.3969 0
M  V30 6959 C 662.51 -1.69435 5.47795 0
M  V30 6960 N 662.006 -1.90774 6.66016 0
M  V30 6961 N 663.799 -1.71458 5.35312 0
M  V30 6962 H 655.95 0.382409 2.08929 0
M  V30 6963 H 658.213 0.108807 0.941735 0
M  V30 6964 H 657.919 -0.189723 3.51188 0
M  V30 6965 H 657.793 -1.91978 3.24691 0
M  V30 6966 H 660.18 -1.90328 2.2552 0
M  V30 6967 H 660.261 -0.160973 2.55293 0
M  V30 6968 H 659.905 -0.592741 5.04429 0
M  V30 6969 H 659.835 -2.34241 4.71634 0
M  V30 6970 H 662.326 -1.3099 3.54472 0
M  V30 6971 H 662.639 -2.08342 7.44186 0
M  V30 6972 H 660.984 -1.88037 6.69079 0
M  V30 6973 H 664.175 -1.54326 4.41929 0
M  V30 6974 H 664.348 -1.89621 6.19635 0
M  V30 6975 N 657.755 -1.42862 -0.66545 0
M  V30 6976 C 659.001 -1.44043 -1.42757 0
M  V30 6977 C 659.334 -0.0599629 -1.94107 0
M  V30 6978 O 658.609 0.917286 -1.71511 0
M  V30 6979 C 658.892 -2.47266 -2.61786 0
M  V30 6980 C 658.745 -3.94539 -2.16007 0
M  V30 6981 C 660.064 -2.47365 -3.64003 0
M  V30 6982 H 657.183 -0.524506 -0.517748 0
M  V30 6983 H 659.825 -1.74335 -0.755466 0
M  V30 6984 H 657.975 -2.21565 -3.19126 0
M  V30 6985 H 659.647 -4.31254 -1.63762 0
M  V30 6986 H 657.89 -4.07957 -1.47491 0
M  V30 6987 H 658.561 -4.62357 -3.01546 0
M  V30 6988 H 661.037 -2.70243 -3.16399 0
M  V30 6989 H 659.913 -3.21552 -4.44854 0
M  V30 6990 H 660.174 -1.50299 -4.15767 0
M  V30 6991 N 659.233 0.902656 -1.29189 0
M  V30 6992 C 660.196 1.98797 -1.14071 0
M  V30 6993 C 661.196 1.60615 -0.0770549 0
M  V30 6994 O 662.386 1.71165 -0.323753 0
M  V30 6995 C 659.518 3.32688 -0.743739 0
M  V30 6996 H 660.711 2.13637 -2.10473 0
M  V30 6997 H 658.264 1.08678 -1.12334 0
M  V30 6998 H 658.999 3.23549 0.220554 0
M  V30 6999 H 658.784 3.61765 -1.51223 0
M  V30 7000 H 660.274 4.12337 -0.660935 0
M  V30 7001 N 660.711 1.11618 1.11262 0
M  V30 7002 C 661.958 0.86618 1.8304 0
M  V30 7003 C 662.286 -0.608149 1.84748 0
M  V30 7004 O 661.541 -1.46508 1.29745 0
M  V30 7005 C 661.84 1.37529 3.2988 0
M  V30 7006 C 661.506 2.86317 3.4833 0
M  V30 7007 C 660.168 3.26945 3.53073 0
M  V30 7008 C 662.52 3.82136 3.54431 0
M  V30 7009 C 659.848 4.62117 3.61475 0
M  V30 7010 C 662.2 5.17128 3.64365 0
M  V30 7011 C 660.864 5.57312 3.67369 0
M  V30 7012 H 660.134 0.316958 0.66979 0
M  V30 7013 H 662.781 1.3949 1.31205 0
M  V30 7014 H 661.086 0.766842 3.84222 0
M  V30 7015 H 662.783 1.15817 3.83911 0
M  V30 7016 H 659.373 2.53889 3.45309 0
M  V30 7017 H 663.557 3.51847 3.50025 0
M  V30 7018 H 658.813 4.92655 3.62079 0
M  V30 7019 H 662.987 5.91208 3.68029 0
M  V30 7020 H 660.614 6.62045 3.73632 0
M  V30 7021 N 662.189 -1.289 0.906776 0
M  V30 7022 C 663.438 -1.9455 0.532262 0
M  V30 7023 C 663.751 -1.72219 -0.927353 0
M  V30 7024 O 664.957 -2.32033 -1.40971 0
M  V30 7025 C 663.413 -3.48438 0.901041 0
M  V30 7026 C 663.021 -3.79558 2.37991 0
M  V30 7027 C 664.765 -4.20284 0.596777 0
M  V30 7028 C 662.672 -5.26723 2.68918 0
M  V30 7029 H 661.602 -0.728259 0.195333 0
M  V30 7030 H 664.253 -1.46519 1.10474 0
M  V30 7031 H 662.635 -3.95162 0.257419 0
M  V30 7032 H 663.809 -3.43668 3.06967 0
M  V30 7033 H 662.124 -3.20868 2.65391 0
M  V30 7034 H 664.721 -5.28612 0.8046 0
M  V30 7035 H 665.064 -4.13694 -0.465072 0
M  V30 7036 H 665.597 -3.79315 1.19855 0
M  V30 7037 H 662.336 -5.38384 3.73928 0
M  V30 7038 H 661.856 -5.63836 2.04571 0
M  V30 7039 H 663.535 -5.94391 2.55555 0
M  V30 7040 N 663.667 -0.670007 -1.42649 0
M  V30 7041 C 664.615 0.0230106 -2.32589 0
M  V30 7042 C 665.609 0.795585 -1.49555 0
M  V30 7043 O 666.815 0.70409 -1.65658 0
M  V30 7044 H 663.19 0.0262342 -0.751542 0
M  V30 7045 H 665.161 -0.753009 -2.88743 0
M  V30 7046 C 663.91 0.963872 -3.34073 0
M  V30 7047 H 663.233 0.378813 -3.98001 0
M  V30 7048 H 664.673 1.41755 -3.99602 0
M  V30 7049 C 663.132 2.06797 -2.65964 0
M  V30 7050 O 663.662 3.15383 -2.48789 0
M  V30 7051 N 661.868 1.83831 -2.25066 0
M  V30 7052 H 661.415 0.955235 -2.39234 0
M  V30 7053 H 661.373 2.57895 -1.79827 0
M  V30 7054 N 665.145 1.52092 -0.413018 0
M  V30 7055 C 666.373 2.06274 0.160881 0
M  V30 7056 C 666.788 1.28273 1.38533 0
M  V30 7057 O 666.145 0.33563 1.79387 0
M  V30 7058 C 666.196 3.57921 0.507443 0
M  V30 7059 O 665.917 4.32971 -0.668388 0
M  V30 7060 C 667.418 4.28533 1.13465 0
M  V30 7061 H 664.638 0.67074 0.0186759 0
M  V30 7062 H 667.182 1.95951 -0.585092 0
M  V30 7063 H 665.337 3.68238 1.20331 0
M  V30 7064 H 665.751 5.23135 -0.378169 0
M  V30 7065 H 667.225 5.35804 1.32732 0
M  V30 7066 H 667.702 3.85258 2.10886 0
M  V30 7067 H 668.308 4.22595 0.478876 0
M  V30 7068 N 666.623 0.143563 1.56945 0
M  V30 7069 C 667.871 -0.507402 1.95627 0
M  V30 7070 C 668.192 -1.65626 1.02922 0
M  V30 7071 O 667.462 -1.95693 0.0901136 0
M  V30 7072 H 666.042 -0.190436 0.722318 0
M  V30 7073 H 668.704 0.218257 1.93674 0
M  V30 7074 H 667.8 -0.885816 2.99265 0
M  V30 7075 N 668.101 -1.57061 -0.130224 0
M  V30 7076 C 669.348 -1.84257 -0.839972 0
M  V30 7077 C 669.676 -0.726986 -1.80403 0
M  V30 7078 O 668.931 0.282632 -1.93648 0
M  V30 7079 C 669.23 -3.17878 -1.63365 0
M  V30 7080 C 668.896 -4.43475 -0.814891 0
M  V30 7081 C 667.558 -4.77581 -0.589066 0
M  V30 7082 C 669.91 -5.20631 -0.243437 0
M  V30 7083 C 667.238 -5.86292 0.218648 0
M  V30 7084 C 669.59 -6.30192 0.551408 0
M  V30 7085 C 668.254 -6.62837 0.787653 0
M  V30 7086 H 667.524 -0.674245 -0.307367 0
M  V30 7087 H 670.171 -1.91224 -0.102832 0
M  V30 7088 H 668.476 -3.06437 -2.44138 0
M  V30 7089 H 670.173 -3.3614 -2.18658 0
M  V30 7090 H 666.763 -4.16747 -1.00098 0
M  V30 7091 H 670.947 -4.94644 -0.405145 0
M  V30 7092 H 666.203 -6.10017 0.411016 0
M  V30 7093 H 670.377 -6.89165 1.00126 0
M  V30 7094 H 668.004 -7.46908 1.41537 0
M  V30 7095 N 669.579 0.400081 -1.52437 0
M  V30 7096 C 670.509 1.4947 -1.7939 0
M  V30 7097 C 671.49 1.57383 -0.645329 0
M  V30 7098 O 672.675 1.72511 -0.891826 0
M  V30 7099 C 669.805 2.87201 -1.95276 0
M  V30 7100 C 668.759 2.94134 -3.10917 0
M  V30 7101 C 668.085 4.34207 -3.1204 0
M  V30 7102 C 669.385 2.64791 -4.50203 0
M  V30 7103 H 671.079 1.27165 -2.71052 0
M  V30 7104 H 668.625 0.610312 -1.30427 0
M  V30 7105 H 670.578 3.63772 -2.12715 0
M  V30 7106 H 669.302 3.10819 -1.00294 0
M  V30 7107 H 667.961 2.20009 -2.93243 0
M  V30 7108 H 667.609 4.54848 -2.14761 0
M  V30 7109 H 667.309 4.39768 -3.89715 0
M  V30 7110 H 668.833 5.127 -3.31619 0
M  V30 7111 H 670.247 3.31083 -4.68035 0
M  V30 7112 H 668.644 2.81717 -5.29864 0
M  V30 7113 H 669.714 1.60184 -4.57678 0
M  V30 7114 N 671.057 1.43213 0.657864 0
M  V30 7115 C 672.334 1.35063 1.41483 0
M  V30 7116 C 672.714 -0.0038314 2.111 0
M  V30 7117 O 672.062 -1.02018 2.04462 0
M  V30 7118 C 672.272 2.53061 2.40335 0
M  V30 7119 C 673.62 2.9594 3.04474 0
M  V30 7120 O 674.644 2.53074 2.50663 0
M  V30 7121 O 673.503 3.70184 4.02027 0
M  V30 7122 H 670.597 0.533517 0.631893 0
M  V30 7123 H 673.143 1.55253 0.685162 0
M  V30 7124 H 671.915 3.43283 1.87809 0
M  V30 7125 H 671.538 2.34945 3.20759 0
M  V30 7126 N 672.536 -0.895792 1.29666 0
M  V30 7127 C 673.952 -1.17726 1.07763 0
M  V30 7128 C 674.152 -2.00794 -0.168576 0
M  V30 7129 O 673.208 -2.37213 -0.865244 0
M  V30 7130 C 674.521 -1.89441 2.33522 0
M  V30 7131 C 676.069 -2.02251 2.3888 0
M  V30 7132 C 676.544 -2.77378 3.64452 0
M  V30 7133 N 678.035 -2.8493 3.65198 0
M  V30 7134 C 678.77 -3.43606 4.59045 0
M  V30 7135 N 678.266 -4.03417 5.63228 0
M  V30 7136 N 680.059 -3.41317 4.46608 0
M  V30 7137 H 672.21 -0.341652 2.09634 0
M  V30 7138 H 674.473 -0.213865 0.923561 0
M  V30 7139 H 674.179 -1.35842 3.24407 0
M  V30 7140 H 674.053 -2.89893 2.41334 0
M  V30 7141 H 676.44 -2.55025 1.4848 0
M  V30 7142 H 676.521 -1.0092 2.3505 0
M  V30 7143 H 676.165 -2.25279 4.55205 0
M  V30 7144 H 676.095 -3.79062 3.65541 0
M  V30 7145 H 678.586 -2.42453 2.89871 0
M  V30 7146 H 678.899 -4.46224 6.30955 0
M  V30 7147 H 677.244 -4.01868 5.67033 0
M  V30 7148 H 680.435 -2.93812 3.64407 0
M  V30 7149 H 680.608 -3.86751 5.1993 0
M  V30 7150 N 674.014 -1.12206 -1.10668 0
M  V30 7151 C 675.242 -0.898635 -1.86366 0
M  V30 7152 C 675.657 0.551991 -1.80551 0
M  V30 7153 O 675.014 1.38152 -1.19249 0
M  V30 7154 C 675.065 -1.36199 -3.34861 0
M  V30 7155 O 674.786 -2.75576 -3.40573 0
M  V30 7156 C 676.287 -1.17515 -4.2744 0
M  V30 7157 H 673.507 -0.321281 -0.589084 0
M  V30 7158 H 676.051 -1.49142 -1.39918 0
M  V30 7159 H 674.206 -0.81249 -3.78784 0
M  V30 7160 H 674.62 -2.95851 -4.33096 0
M  V30 7161 H 676.094 -1.54827 -5.29842 0
M  V30 7162 H 676.571 -0.115486 -4.39048 0
M  V30 7163 H 677.177 -1.71203 -3.89319 0
M  V30 7164 N 675.492 1.28418 -0.913599 0
M  V30 7165 C 676.74 1.94596 -0.545594 0
M  V30 7166 C 677.061 1.7227 0.913668 0
M  V30 7167 O 676.331 1.06233 1.64595 0
M  V30 7168 H 674.911 0.720065 -0.198783 0
M  V30 7169 H 677.573 1.56404 -1.16292 0
M  V30 7170 H 676.669 3.03202 -0.739911 0
M  V30 7171 N 676.97 0.677563 1.42291 0
M  V30 7172 C 678.247 0.129803 1.95169 0
M  V30 7173 C 678.627 -1.35605 1.61786 0
M  V30 7174 O 677.975 -2.09361 0.915444 0
M  V30 7175 C 678.185 0.401889 3.46678 0
M  V30 7176 C 679.533 0.319889 4.23393 0
M  V30 7177 O 680.557 0.33579 3.54614 0
M  V30 7178 O 679.416 0.264459 5.4586 0
M  V30 7179 H 676.51 0.00447433 0.826988 0
M  V30 7180 H 679.056 0.752483 1.52105 0
M  V30 7181 H 677.828 1.43108 3.64192 0
M  V30 7182 H 677.451 -0.252662 3.96796 0
M  V30 7183 N 678.448 -1.51871 0.421078 0
M  V30 7184 C 679.358 -2.31077 -0.405069 0
M  V30 7185 C 680.374 -1.39301 -1.04265 0
M  V30 7186 O 681.55 -1.72376 -1.04157 0
M  V30 7187 C 678.615 -3.12556 -1.50032 0
M  V30 7188 C 677.676 -4.20088 -0.884559 0
M  V30 7189 C 676.909 -4.97673 -1.92762 0
M  V30 7190 O 677.132 -4.75696 -3.14753 0
M  V30 7191 O 676.066 -5.82203 -1.52719 0
M  V30 7192 H 679.892 -3.02742 0.241086 0
M  V30 7193 H 677.477 -1.48263 0.183991 0
M  V30 7194 H 679.359 -3.6326 -2.13589 0
M  V30 7195 H 678.034 -2.43672 -2.13086 0
M  V30 7196 H 676.941 -3.73502 -0.211379 0
M  V30 7197 H 678.274 -4.91298 -0.297763 0
M  V30 7198 N 679.926 -0.151884 -1.56866 0
M  V30 7199 C 680.859 0.824094 -2.128 0
M  V30 7200 C 681.837 1.2391 -1.05286 0
M  V30 7201 O 683.021 1.33433 -1.33146 0
M  V30 7202 C 680.148 2.1072 -2.65169 0
M  V30 7203 C 679.194 1.83774 -3.84876 0
M  V30 7204 S 680.027 1.02436 -5.25611 0
M  V30 7205 C 681.183 2.31855 -5.81373 0
M  V30 7206 H 681.416 0.348456 -2.95251 0
M  V30 7207 H 678.949 0.0624794 -1.54274 0
M  V30 7208 H 680.907 2.84428 -2.95992 0
M  V30 7209 H 679.568 2.55398 -1.8284 0
M  V30 7210 H 678.761 2.78929 -4.19779 0
M  V30 7211 H 678.363 1.18172 -3.5484 0
M  V30 7212 H 680.655 3.27469 -5.93102 0
M  V30 7213 H 681.598 2.01449 -6.7884 0
M  V30 7214 H 682.006 2.42727 -5.09651 0
M  V30 7215 N 681.404 1.57128 0.121893 0
M  V30 7216 C 682.354 1.96556 1.15541 0
M  V30 7217 C 683.338 0.840147 1.37224 0
M  V30 7218 O 684.53 1.10382 1.38365 0
M  V30 7219 C 681.659 2.37097 2.48274 0
M  V30 7220 C 680.745 3.56265 2.30078 0
M  V30 7221 N 681.136 4.72041 1.81688 0
M  V30 7222 C 679.434 3.61841 2.60744 0
M  V30 7223 C 680.135 5.54075 1.77132 0
M  V30 7224 N 679.111 4.96483 2.21371 0
M  V30 7225 H 682.913 2.83531 0.77378 0
M  V30 7226 H 680.427 1.59019 0.329672 0
M  V30 7227 H 682.424 2.6356 3.2302 0
M  V30 7228 H 681.084 1.51486 2.87197 0
M  V30 7229 H 682.095 4.95313 1.51278 0
M  V30 7230 H 678.772 2.8683 3.03373 0
M  V30 7231 H 680.162 6.56939 1.40998 0
M  V30 7232 N 682.882 -0.391992 1.52647 0
M  V30 7233 C 684.107 -1.16312 1.71716 0
M  V30 7234 C 684.532 -1.83042 0.433279 0
M  V30 7235 O 683.89 -1.70705 -0.610707 0
M  V30 7236 C 683.938 -2.18908 2.86551 0
M  V30 7237 O 683.042 -3.2543 2.53316 0
M  V30 7238 H 682.383 -0.338743 0.571095 0
M  V30 7239 H 684.913 -0.457202 1.99426 0
M  V30 7240 H 684.923 -2.62954 3.1196 0
M  V30 7241 H 683.598 -1.69726 3.79692 0
M  V30 7242 H 682.175 -2.86543 2.38637 0
M  V30 7243 N 684.36 -1.4356 -0.65026 0
M  V30 7244 C 685.606 -1.45549 -1.41221 0
M  V30 7245 C 685.939 -0.0805472 -1.94033 0
M  V30 7246 O 685.214 0.899043 -1.72475 0
M  V30 7247 C 685.497 -2.50028 -2.59148 0
M  V30 7248 C 685.35 -3.96808 -2.1181 0
M  V30 7249 C 686.669 -2.51212 -3.61359 0
M  V30 7250 H 683.788 -0.529967 -0.512156 0
M  V30 7251 H 686.43 -1.75127 -0.736933 0
M  V30 7252 H 684.58 -2.24937 -3.16758 0
M  V30 7253 H 686.252 -4.32966 -1.59178 0
M  V30 7254 H 684.495 -4.09498 -1.43156 0
M  V30 7255 H 685.166 -4.6553 -2.96625 0
M  V30 7256 H 687.642 -2.73583 -3.13515 0
M  V30 7257 H 686.518 -3.26252 -4.41419 0
M  V30 7258 H 686.779 -1.54701 -4.1415 0
M  V30 7259 N 685.838 0.888903 -1.30139 0
M  V30 7260 C 686.771 1.99655 -1.10514 0
M  V30 7261 C 687.749 1.62594 -0.0138934 0
M  V30 7262 O 688.933 1.87762 -0.166689 0
M  V30 7263 C 686.06 3.31708 -0.684655 0
M  V30 7264 C 685.106 3.87755 -1.77619 0
M  V30 7265 S 685.939 4.15532 -3.37777 0
M  V30 7266 C 687.095 5.5061 -2.97622 0
M  V30 7267 H 687.328 2.15996 -2.04287 0
M  V30 7268 H 684.861 1.03682 -1.14409 0
M  V30 7269 H 686.819 4.08039 -0.448782 0
M  V30 7270 H 685.48 3.1323 0.233648 0
M  V30 7271 H 684.673 4.83164 -1.43417 0
M  V30 7272 H 684.275 3.18149 -1.96614 0
M  V30 7273 H 686.567 6.31518 -2.45338 0
M  V30 7274 H 687.51 5.89747 -3.91924 0
M  V30 7275 H 687.918 5.12983 -2.35603 0
M  V30 7276 N 687.317 1.12792 1.10072 0
M  V30 7277 C 688.227 0.812369 2.20086 0
M  V30 7278 C 689.243 -0.200349 1.72843 0
M  V30 7279 O 690.419 -0.0330262 2.01373 0
M  V30 7280 C 687.484 0.275685 3.45602 0
M  V30 7281 C 686.545 1.34881 4.07561 0
M  V30 7282 C 685.778 0.837639 5.27086 0
M  V30 7283 O 686.001 -0.327224 5.69461 0
M  V30 7284 O 684.935 1.60894 5.79997 0
M  V30 7285 H 688.761 1.73133 2.49517 0
M  V30 7286 H 686.346 0.904863 1.18881 0
M  V30 7287 H 688.228 -0.0185375 4.21396 0
M  V30 7288 H 686.903 -0.615783 3.17789 0
M  V30 7289 H 685.81 1.69625 3.33434 0
M  V30 7290 H 687.143 2.21418 4.39585 0
M  V30 7291 N 688.795 -1.27931 0.920396 0
M  V30 7292 C 689.758 -2.25345 0.41858 0
M  V30 7293 C 690.758 -1.54116 -0.458798 0
M  V30 7294 O 691.948 -1.72235 -0.260912 0
M  V30 7295 C 689.08 -3.38556 -0.399104 0
M  V30 7296 H 690.273 -2.71251 1.27918 0
M  V30 7297 H 687.826 -1.39728 0.700406 0
M  V30 7298 H 688.561 -2.98021 -1.27882 0
M  V30 7299 H 688.346 -3.91426 0.229863 0
M  V30 7300 H 689.836 -4.10976 -0.740817 0
M  V30 7301 N 690.273 -0.685099 -1.4193 0
M  V30 7302 C 691.521 -0.21124 -2.00993 0
M  V30 7303 C 691.842 1.18985 -1.54491 0
M  V30 7304 O 691.112 1.8009 -0.771 0
M  V30 7305 H 689.692 -0.0751059 -0.743215 0
M  V30 7306 H 692.354 -0.883915 -1.73704 0
M  V30 7307 H 691.45 -0.220513 -3.1132 0
M  V30 7308 N 691.751 1.51645 -0.429126 0
M  V30 7309 C 693.162 1.86665 0.0359003 0
M  V30 7310 C 693.513 1.34677 1.42676 0
M  V30 7311 O 692.638 0.694195 2.04963 0
M  V30 7312 C 693.233 3.38724 0.0719221 0
M  V30 7313 C 691.792 3.7331 0.481336 0
M  V30 7314 C 690.939 2.75313 -0.331329 0
M  V30 7315 H 693.89 1.44987 -0.645333 0
M  V30 7316 H 693.911 3.7011 0.883118 0
M  V30 7317 H 693.423 3.76532 -0.940495 0
M  V30 7318 H 691.524 3.41088 1.49966 0
M  V30 7319 H 691.637 4.78631 0.211837 0
M  V30 7320 H 690.001 2.53839 0.209204 0
M  V30 7321 H 690.784 3.15963 -1.34247 0
M  V30 7322 N 693.229 0.160201 1.56784 0
M  V30 7323 C 694.162 -0.812797 2.13234 0
M  V30 7324 C 695.14 -1.2335 1.05942 0
M  V30 7325 O 696.324 -1.32725 1.33852 0
M  V30 7326 C 693.451 -2.09311 2.66283 0
M  V30 7327 C 692.497 -1.8173 3.85845 0
M  V30 7328 S 693.33 -0.996473 5.26147 0
M  V30 7329 C 694.486 -2.28769 5.82594 0
M  V30 7330 H 694.719 -0.332794 2.95432 0
M  V30 7331 H 692.252 -0.0542971 1.54304 0
M  V30 7332 H 694.21 -2.82854 2.97496 0
M  V30 7333 H 692.871 -2.54425 1.84192 0
M  V30 7334 H 692.064 -2.76699 4.21253 0
M  V30 7335 H 691.666 -1.16289 3.55462 0
M  V30 7336 H 693.958 -3.24319 5.9483 0
M  V30 7337 H 694.901 -1.97846 6.79899 0
M  V30 7338 H 695.309 -2.40021 5.10931 0
M  V30 7339 N 694.707 -1.5719 -0.113559 0
M  V30 7340 C 695.637 -2.03772 -1.14013 0
M  V30 7341 C 696.618 -0.923176 -1.42869 0
M  V30 7342 O 697.803 -1.19325 -1.53216 0
M  V30 7343 C 694.933 -2.44663 -2.4649 0
M  V30 7344 C 693.887 -3.59612 -2.32085 0
M  V30 7345 C 693.213 -3.8642 -3.69573 0
M  V30 7346 C 694.513 -4.91149 -1.7768 0
M  V30 7347 H 696.207 -2.89785 -0.752665 0
M  V30 7348 H 693.753 -1.39412 -0.360609 0
M  V30 7349 H 695.706 -2.75857 -3.18561 0
M  V30 7350 H 694.43 -1.55628 -2.87137 0
M  V30 7351 H 693.089 -3.28636 -1.62461 0
M  V30 7352 H 692.737 -2.94581 -4.07715 0
M  V30 7353 H 692.437 -4.63797 -3.60786 0
M  V30 7354 H 693.961 -4.2007 -4.4314 0
M  V30 7355 H 695.375 -5.20843 -2.39574 0
M  V30 7356 H 693.772 -5.72562 -1.79701 0
M  V30 7357 H 694.842 -4.79301 -0.734776 0
M  V30 7358 N 696.185 0.383891 -1.52853 0
M  V30 7359 C 697.601 0.724316 -1.42218 0
M  V30 7360 C 697.801 1.93943 -0.546654 0
M  V30 7361 O 696.857 2.5249 -0.0220562 0
M  V30 7362 C 698.17 0.954635 -2.85144 0
M  V30 7363 C 699.718 1.05579 -2.94656 0
M  V30 7364 C 700.193 1.3187 -4.38605 0
M  V30 7365 N 701.684 1.38681 -4.41952 0
M  V30 7366 C 702.419 1.60699 -5.50421 0
M  V30 7367 N 701.915 1.80154 -6.68967 0
M  V30 7368 N 703.708 1.6292 -5.37972 0
M  V30 7369 H 695.859 -0.4156 -2.08294 0
M  V30 7370 H 698.122 -0.123776 -0.939885 0
M  V30 7371 H 697.828 0.133829 -3.51445 0
M  V30 7372 H 697.702 1.86788 -3.27704 0
M  V30 7373 H 700.089 1.86716 -2.2852 0
M  V30 7374 H 700.17 0.120338 -2.55517 0
M  V30 7375 H 699.814 0.512416 -5.05309 0
M  V30 7376 H 699.744 2.26708 -4.75301 0
M  V30 7377 H 702.235 1.25334 -3.56511 0
M  V30 7378 H 702.548 1.96476 -7.47407 0
M  V30 7379 H 700.893 1.77368 -6.71986 0
M  V30 7380 H 704.084 1.47276 -4.44328 0
M  V30 7381 H 704.257 1.79739 -6.22574 0
M  V30 7382 N 697.663 1.43903 0.642637 0
M  V30 7383 C 698.61 1.49881 1.75512 0
M  V30 7384 C 699.58 0.347538 1.62423 0
M  V30 7385 O 700.765 0.556177 1.82514 0
M  V30 7386 C 697.905 1.43797 3.13714 0
M  V30 7387 C 697.018 2.6921 3.37861 0
M  V30 7388 C 696.153 2.5504 4.6597 0
M  V30 7389 C 695.192 3.75671 4.83257 0
M  V30 7390 N 694.329 3.60247 6.02633 0
M  V30 7391 H 699.169 2.44935 1.69737 0
M  V30 7392 H 696.706 1.21572 0.828165 0
M  V30 7393 H 698.664 1.38262 3.93624 0
M  V30 7394 H 697.294 0.523173 3.18532 0
M  V30 7395 H 696.346 2.8498 2.51973 0
M  V30 7396 H 697.658 3.58786 3.46517 0
M  V30 7397 H 696.812 2.47273 5.54023 0
M  V30 7398 H 695.551 1.63006 4.59653 0
M  V30 7399 H 694.556 3.83836 3.93637 0
M  V30 7400 H 695.781 4.68728 4.91397 0
M  V30 7401 H 693.727 2.70955 5.97427 0
M  V30 7402 H 693.644 4.43431 6.12295 0
M  V30 7403 H 694.912 3.56351 6.93278 0
M  V30 7404 N 699.141 -0.881989 1.30609 0
M  V30 7405 C 700.089 -2.00942 1.17155 0
M  V30 7406 C 701.083 -1.69198 0.0827154 0
M  V30 7407 O 702.289 -1.78342 0.243775 0
M  V30 7408 H 698.664 -0.658913 0.362406 0
M  V30 7409 H 700.635 -2.09423 2.12567 0
M  V30 7410 C 699.384 -3.36294 0.883273 0
M  V30 7411 H 698.707 -3.61233 1.7132 0
M  V30 7412 H 700.147 -4.15812 0.829255 0
M  V30 7413 C 698.606 -3.34348 -0.413851 0
M  V30 7414 O 699.136 -3.75216 -1.43444 0
M  V30 7415 N 697.342 -2.87459 -0.426082 0
M  V30 7416 H 696.889 -2.54397 0.40493 0
M  V30 7417 H 696.847 -2.8654 -1.29391 0
M  V30 7418 N 700.619 -1.13374 -1.09472 0
M  V30 7419 C 701.551 -0.768466 -2.15933 0
M  V30 7420 C 702.564 0.209585 -1.61445 0
M  V30 7421 O 703.753 -0.010539 -1.78497 0
M  V30 7422 C 700.853 -0.118266 -3.38694 0
M  V30 7423 C 700.026 -1.12829 -4.22597 0
M  V30 7424 C 699.085 -0.503875 -5.23782 0
M  V30 7425 O 698.111 -1.16374 -5.57177 0
M  V30 7426 N 699.313 0.724288 -5.75964 0
M  V30 7427 H 702.078 -1.68457 -2.47876 0
M  V30 7428 H 699.639 -1.02668 -1.25183 0
M  V30 7429 H 701.631 0.311698 -4.03498 0
M  V30 7430 H 700.201 0.700769 -3.04644 0
M  V30 7431 H 699.421 -1.73556 -3.53938 0
M  V30 7432 H 700.709 -1.81095 -4.75481 0
M  V30 7433 H 700.107 1.27918 -5.51048 0
M  V30 7434 H 698.664 1.09692 -6.42504 0
M  V30 7435 N 702.098 1.27442 -0.927168 0
M  V30 7436 C 703.031 2.25177 -0.370232 0
M  V30 7437 C 704.009 1.53612 0.533103 0
M  V30 7438 O 705.193 1.8245 0.47373 0
M  V30 7439 C 702.32 3.35431 0.469411 0
M  V30 7440 C 701.366 4.24888 -0.370419 0
M  V30 7441 S 702.199 5.04852 -1.78562 0
M  V30 7442 C 703.355 6.18592 -0.953651 0
M  V30 7443 H 703.588 2.72069 -1.19858 0
M  V30 7444 H 701.121 1.36089 -0.729316 0
M  V30 7445 H 703.079 3.99404 0.947992 0
M  V30 7446 H 701.74 2.87179 1.27228 0
M  V30 7447 H 700.933 5.03264 0.272226 0
M  V30 7448 H 700.535 3.65709 -0.783153 0
M  V30 7449 H 702.827 6.77235 -0.189408 0
M  V30 7450 H 703.77 6.87132 -1.7104 0
M  V30 7451 H 704.178 5.62318 -0.495897 0
M  V30 7452 N 703.576 0.692616 1.41565 0
M  V30 7453 C 704.523 0.0254264 2.30786 0
M  V30 7454 C 705.493 -0.774347 1.46946 0
M  V30 7455 O 706.678 -0.742981 1.7574 0
M  V30 7456 C 703.818 -0.907123 3.32964 0
M  V30 7457 C 702.931 -0.0992784 4.31886 0
M  V30 7458 C 702.066 -1.0292 5.21134 0
M  V30 7459 C 701.105 -0.214088 6.11725 0
M  V30 7460 N 700.242 -1.09766 6.93467 0
M  V30 7461 H 705.082 0.792036 2.87282 0
M  V30 7462 H 702.619 0.4023 1.41492 0
M  V30 7463 H 704.577 -1.46181 3.90752 0
M  V30 7464 H 703.207 -1.64016 2.78026 0
M  V30 7465 H 702.259 0.572287 3.76071 0
M  V30 7466 H 703.571 0.532782 4.95946 0
M  V30 7467 H 702.725 -1.65321 5.83741 0
M  V30 7468 H 701.464 -1.69512 4.57293 0
M  V30 7469 H 700.469 0.42302 5.4817 0
M  V30 7470 H 701.694 0.447995 6.77621 0
M  V30 7471 H 699.64 -1.74965 6.32237 0
M  V30 7472 H 699.557 -0.521099 7.54202 0
M  V30 7473 H 700.825 -1.70858 7.60544 0
M  V30 7474 N 705.054 -1.51416 0.437162 0
M  V30 7475 C 706.279 -2.0699 -0.130424 0
M  V30 7476 C 706.704 -1.30249 -1.35709 0
M  V30 7477 O 706.062 -0.340388 -1.78076 0
M  V30 7478 C 706.11 -3.5801 -0.43142 0
M  V30 7479 O 705.214 -3.8345 -1.5179 0
M  V30 7480 H 704.555 -0.663997 -0.00194339 0
M  V30 7481 H 707.085 -1.95029 0.618445 0
M  V30 7482 H 707.095 -4.02261 -0.681926 0
M  V30 7483 H 705.77 -4.13291 0.465137 0
M  V30 7484 H 704.347 -3.51062 -1.25737 0
M  V30 7485 N 706.532 -0.168513 -1.56696 0
M  V30 7486 C 707.76 0.483503 -2.01171 0
M  V30 7487 C 708.175 1.56994 -1.04872 0
M  V30 7488 O 707.532 1.82434 -0.0491337 0
M  V30 7489 C 707.583 1.0644 -3.45475 0
M  V30 7490 O 707.304 0.0213375 -4.38095 0
M  V30 7491 C 708.805 1.79493 -4.05336 0
M  V30 7492 H 706.025 0.124002 -0.659443 0
M  V30 7493 H 708.569 -0.269419 -2.02717 0
M  V30 7494 H 706.724 1.76784 -3.44712 0
M  V30 7495 H 707.138 0.449837 -5.22567 0
M  V30 7496 H 708.612 2.15401 -5.08238 0
M  V30 7497 H 709.089 2.68889 -3.47269 0
M  V30 7498 H 709.695 1.13798 -4.09793 0
M  V30 7499 N 708.01 1.57248 0.105221 0
M  V30 7500 C 709.421 1.74612 0.660865 0
M  V30 7501 C 709.772 0.789231 1.79626 0
M  V30 7502 O 708.897 -0.0346611 2.16372 0
M  V30 7503 C 709.492 3.16624 1.20559 0
M  V30 7504 C 708.051 3.35447 1.7074 0
M  V30 7505 C 707.198 2.70445 0.612764 0
M  V30 7506 H 710.149 1.5824 -0.12079 0
M  V30 7507 H 710.17 3.18937 2.07508 0
M  V30 7508 H 709.682 3.86245 0.379012 0
M  V30 7509 H 707.783 2.7089 2.5583 0
M  V30 7510 H 707.896 4.43702 1.80736 0
M  V30 7511 H 706.26 2.32061 1.04975 0
M  V30 7512 H 707.043 3.42699 -0.203066 0
M  V30 7513 N 709.488 -0.375779 1.53054 0
M  V30 7514 C 710.734 -1.11767 1.6994 0
M  V30 7515 C 711.089 -1.87288 0.440574 0
M  V30 7516 O 710.382 -1.83045 -0.566146 0
M  V30 7517 C 710.576 -2.11356 2.88207 0
M  V30 7518 C 710.405 -1.45619 4.25471 0
M  V30 7519 C 709.175 -1.21464 4.90484 0
M  V30 7520 C 711.373 -0.899276 5.06377 0
M  V30 7521 N 709.355 -0.519705 6.11696 0
M  V30 7522 C 710.726 -0.333138 6.19104 0
M  V30 7523 C 712.781 -0.79697 4.9148 0
M  V30 7524 C 711.484 0.325316 7.18564 0
M  V30 7525 C 713.51 -0.152315 5.91204 0
M  V30 7526 C 712.872 0.402994 7.03246 0
M  V30 7527 H 708.971 -0.394489 0.675206 0
M  V30 7528 H 711.555 -0.40541 1.90432 0
M  V30 7529 H 709.726 -2.79905 2.69272 0
M  V30 7530 H 711.458 -2.78148 2.93966 0
M  V30 7531 H 708.213 -1.49319 4.49445 0
M  V30 7532 H 708.637 -0.187896 6.76739 0
M  V30 7533 H 713.279 -1.21208 4.05054 0
M  V30 7534 H 710.997 0.752399 8.0459 0
M  V30 7535 H 714.583 -0.074223 5.81753 0
M  V30 7536 H 713.463 0.89394 7.79088 0
M  V30 7537 N 710.966 -1.44241 -0.634997 0
M  V30 7538 C 712.215 -1.46102 -1.39058 0
M  V30 7539 C 712.528 -0.0959909 -1.95364 0
M  V30 7540 O 713.734 0.00788751 -2.71499 0
M  V30 7541 C 712.19 -2.57195 -2.51751 0
M  V30 7542 C 711.798 -3.99888 -2.01974 0
M  V30 7543 C 713.542 -2.68272 -3.28984 0
M  V30 7544 C 711.449 -5.02412 -3.11987 0
M  V30 7545 H 710.379 -0.543556 -0.522554 0
M  V30 7546 H 713.03 -1.70294 -0.683538 0
M  V30 7547 H 711.412 -2.26237 -3.25012 0
M  V30 7548 H 712.586 -4.40396 -1.35604 0
M  V30 7549 H 710.901 -3.93019 -1.37568 0
M  V30 7550 H 713.498 -3.42042 -4.10988 0
M  V30 7551 H 713.841 -1.73957 -3.78212 0
M  V30 7552 H 714.374 -2.98622 -2.62812 0
M  V30 7553 H 711.113 -5.98342 -2.67707 0
M  V30 7554 H 710.633 -4.66501 -3.77011 0
M  V30 7555 H 712.312 -5.25939 -3.76825 0
M  V30 7556 N 712.444 0.87505 -1.31075 0
M  V30 7557 C 713.391 1.98178 -1.18296 0
M  V30 7558 C 714.361 1.65952 -0.0699923 0
M  V30 7559 O 715.546 1.8926 -0.241951 0
M  V30 7560 C 712.686 3.33399 -0.891024 0
M  V30 7561 C 711.799 3.78253 -2.08684 0
M  V30 7562 C 710.934 5.02166 -1.73212 0
M  V30 7563 C 709.973 5.39455 -2.89231 0
M  V30 7564 N 709.11 6.54549 -2.53989 0
M  V30 7565 H 713.95 2.0844 -2.12971 0
M  V30 7566 H 711.487 1.02047 -1.05948 0
M  V30 7567 H 713.445 4.11246 -0.702338 0
M  V30 7568 H 712.075 3.22794 0.0188799 0
M  V30 7569 H 711.127 2.9623 -2.38646 0
M  V30 7570 H 712.439 4.01821 -2.95536 0
M  V30 7571 H 711.593 5.87666 -1.50777 0
M  V30 7572 H 710.332 4.80491 -0.83544 0
M  V30 7573 H 709.337 4.52477 -3.12321 0
M  V30 7574 H 710.562 5.63098 -3.79601 0
M  V30 7575 H 708.508 6.3443 -1.66838 0
M  V30 7576 H 708.425 6.78035 -3.34372 0
M  V30 7577 H 709.693 7.43254 -2.34934 0
M  V30 7578 N 713.922 1.13953 1.08869 0
M  V30 7579 C 714.885 0.824991 2.13838 0
M  V30 7580 C 715.885 -0.168198 1.59918 0
M  V30 7581 O 717.075 0.0595778 1.74098 0
M  V30 7582 C 714.207 0.228938 3.4013 0
M  V30 7583 H 715.4 1.75521 2.43171 0
M  V30 7584 H 712.953 0.94492 1.24503 0
M  V30 7585 H 713.688 -0.710227 3.16427 0
M  V30 7586 H 713.473 0.944243 3.80561 0
M  V30 7587 H 714.963 0.0259223 4.17592 0
M  V30 7588 N 715.4 -1.26948 0.933913 0
M  V30 7589 C 716.63 -1.97898 0.593279 0
M  V30 7590 C 717.038 -1.69806 -0.834412 0
M  V30 7591 O 716.381 -0.958704 -1.56699 0
M  V30 7592 C 716.443 -3.51657 0.746825 0
M  V30 7593 C 716.107 -4.03384 2.14779 0
M  V30 7594 C 717.104 -4.15682 3.12257 0
M  V30 7595 C 714.789 -4.37577 2.46641 0
M  V30 7596 C 716.783 -4.61455 4.39702 0
M  V30 7597 C 714.47 -4.8304 3.7432 0
M  V30 7598 C 715.468 -4.94939 4.70664 0
M  V30 7599 O 715.156 -5.39403 5.96071 0
M  V30 7600 H 714.888 -0.63814 0.223055 0
M  V30 7601 H 717.442 -1.62608 1.2549 0
M  V30 7602 H 715.672 -3.8669 0.0280889 0
M  V30 7603 H 717.361 -4.03821 0.410328 0
M  V30 7604 H 718.127 -3.89519 2.88964 0
M  V30 7605 H 714.006 -4.27554 1.72391 0
M  V30 7606 H 717.55 -4.70658 5.14905 0
M  V30 7607 H 713.447 -5.08646 3.97429 0
M  V30 7608 H 714.215 -5.57641 5.99148 0
M  V30 7609 N 716.879 -0.700114 -1.41195 0
M  V30 7610 C 717.789 -0.0382854 -2.34569 0
M  V30 7611 C 718.805 0.761036 -1.56474 0
M  V30 7612 O 719.981 0.697553 -1.88934 0
M  V30 7613 C 717.046 0.883522 -3.35253 0
M  V30 7614 C 716.107 0.0758957 -4.29233 0
M  V30 7615 C 715.34 0.9538 -5.25108 0
M  V30 7616 O 715.563 2.19326 -5.26547 0
M  V30 7617 O 714.497 0.401049 -6.00562 0
M  V30 7618 H 718.323 -0.808073 -2.92752 0
M  V30 7619 H 715.908 -0.460479 -1.42127 0
M  V30 7620 H 717.79 1.41199 -3.9704 0
M  V30 7621 H 716.465 1.63272 -2.79506 0
M  V30 7622 H 715.372 -0.497274 -3.7078 0
M  V30 7623 H 716.705 -0.634741 -4.8809 0
M  V30 7624 N 718.357 1.51182 -0.445186 0
M  V30 7625 C 719.773 1.59299 -0.0978954 0
M  V30 7626 C 719.973 1.4555 1.39346 0
M  V30 7627 O 719.029 1.30073 2.16419 0
M  V30 7628 C 720.342 2.94133 -0.625005 0
M  V30 7629 C 721.89 3.07463 -0.586137 0
M  V30 7630 C 722.365 4.44832 -1.09035 0
M  V30 7631 N 723.856 4.51173 -1.04867 0
M  V30 7632 C 724.591 5.55804 -1.40959 0
M  V30 7633 N 724.087 6.67816 -1.84375 0
M  V30 7634 N 725.88 5.46205 -1.32726 0
M  V30 7635 H 718.031 1.58363 -1.41544 0
M  V30 7636 H 720.294 0.746946 -0.58376 0
M  V30 7637 H 720 3.09589 -1.66876 0
M  V30 7638 H 719.874 3.77161 -0.0542262 0
M  V30 7639 H 722.261 2.9167 0.448646 0
M  V30 7640 H 722.342 2.26255 -1.19341 0
M  V30 7641 H 721.986 4.61372 -2.12364 0
M  V30 7642 H 721.916 5.24591 -0.459539 0
M  V30 7643 H 724.407 3.70783 -0.729932 0
M  V30 7644 H 724.72 7.43683 -2.10131 0
M  V30 7645 H 723.065 6.69003 -1.88308 0
M  V30 7646 H 726.256 4.57583 -0.986678 0
M  V30 7647 H 726.429 6.27634 -1.61182 0
M  V30 7648 N 719.835 0.176821 1.56605 0
M  V30 7649 C 720.783 -0.768159 2.1955 0
M  V30 7650 C 721.777 -1.23343 1.16116 0
M  V30 7651 O 722.983 -1.19844 1.34303 0
M  V30 7652 H 719.358 -0.266013 0.703378 0
M  V30 7653 H 721.329 -0.213374 2.97636 0
M  V30 7654 C 720.078 -1.98492 2.85475 0
M  V30 7655 H 719.401 -1.63595 3.64797 0
M  V30 7656 H 720.841 -2.62489 3.3298 0
M  V30 7657 C 719.3 -2.81207 1.85538 0
M  V30 7658 O 719.83 -3.7854 1.34427 0
M  V30 7659 N 718.036 -2.46331 1.54173 0
M  V30 7660 H 717.583 -1.67241 1.95929 0
M  V30 7661 H 717.541 -3.01961 0.875595 0
M  V30 7662 N 721.313 -1.57302 -0.09688 0
M  V30 7663 C 722.261 -2.02942 -1.13654 0
M  V30 7664 C 723.255 -0.930173 -1.41577 0
M  V30 7665 O 724.461 -1.11535 -1.41279 0
M  V30 7666 H 720.836 -0.646726 -0.383731 0
M  V30 7667 H 722.807 -2.89452 -0.725267 0
M  V30 7668 C 721.556 -2.46815 -2.44903 0
M  V30 7669 H 720.879 -3.30979 -2.24261 0
M  V30 7670 H 722.319 -2.82527 -3.16156 0
M  V30 7671 C 720.778 -1.34071 -3.09074 0
M  V30 7672 O 721.308 -0.668856 -3.96092 0
M  V30 7673 N 719.514 -1.09214 -2.69296 0
M  V30 7674 H 719.061 -1.64029 -1.98626 0
M  V30 7675 H 719.019 -0.339785 -3.12559 0
M  V30 7676 N 722.791 0.367657 -1.53252 0
M  V30 7677 C 724.037 1.11216 -1.69584 0
M  V30 7678 C 724.37 1.89026 -0.445269 0
M  V30 7679 O 723.645 1.86342 0.557404 0
M  V30 7680 C 723.928 2.07308 -2.94441 0
M  V30 7681 C 723.781 1.3312 -4.2965 0
M  V30 7682 C 725.1 3.07459 -3.14892 0
M  V30 7683 H 722.219 0.40294 -0.617096 0
M  V30 7684 H 724.861 0.393201 -1.85887 0
M  V30 7685 H 723.011 2.68617 -2.80673 0
M  V30 7686 H 724.683 0.746111 -4.55226 0
M  V30 7687 H 722.926 0.633051 -4.29156 0
M  V30 7688 H 723.597 2.03443 -5.13142 0
M  V30 7689 H 726.073 2.56252 -3.27832 0
M  V30 7690 H 724.949 3.71919 -4.03693 0
M  V30 7691 H 725.21 3.77514 -2.30077 0
M  V30 7692 N 724.269 1.44576 0.627338 0
M  V30 7693 C 725.199 1.54562 1.75022 0
M  V30 7694 C 726.18 0.398378 1.65369 0
M  V30 7695 O 727.365 0.61899 1.84071 0
M  V30 7696 C 724.495 1.49309 3.13567 0
M  V30 7697 C 723.449 2.62549 3.38012 0
M  V30 7698 C 722.775 2.42348 4.76625 0
M  V30 7699 C 724.075 4.04678 3.30202 0
M  V30 7700 H 725.769 2.4855 1.66922 0
M  V30 7701 H 723.315 1.19624 0.801636 0
M  V30 7702 H 725.268 1.54895 3.919 0
M  V30 7703 H 723.992 0.518392 3.2246 0
M  V30 7704 H 722.651 2.56358 2.62061 0
M  V30 7705 H 722.299 1.43062 4.82226 0
M  V30 7706 H 721.999 3.18273 4.93939 0
M  V30 7707 H 723.523 2.49758 5.57183 0
M  V30 7708 H 724.937 4.12217 3.98435 0
M  V30 7709 H 723.334 4.80836 3.5905 0
M  V30 7710 H 724.404 4.2798 2.27949 0
M  V30 7711 N 725.747 -0.868086 1.31537 0
M  V30 7712 C 726.972 -1.65926 1.24432 0
M  V30 7713 C 727.397 -1.87169 -0.186936 0
M  V30 7714 O 726.755 -1.4148 -1.13371 0
M  V30 7715 C 726.803 -3.00347 1.9956 0
M  V30 7716 O 725.907 -3.90221 1.33422 0
M  V30 7717 H 725.248 -0.506375 0.429512 0
M  V30 7718 H 727.778 -1.0822 1.73637 0
M  V30 7719 H 727.788 -3.50269 2.09226 0
M  V30 7720 H 726.463 -2.84205 3.03645 0
M  V30 7721 H 725.04 -3.48672 1.32219 0
M  V30 7722 N 727.225 -1.14528 -1.08264 0
M  V30 7723 C 728.473 -0.912599 -1.80322 0
M  V30 7724 C 728.794 0.562256 -1.86718 0
M  V30 7725 O 728.064 1.40869 -1.36135 0
M  V30 7726 H 726.644 -0.334645 -0.667849 0
M  V30 7727 H 729.306 -1.44415 -1.30883 0
M  V30 7728 H 728.402 -1.31384 -2.83098 0
M  V30 7729 N 728.703 1.26451 -0.940633 0
M  V30 7730 C 729.633 2.28773 -0.467479 0
M  V30 7731 C 730.614 1.63218 0.478955 0
M  V30 7732 O 731.799 1.90427 0.380929 0
M  V30 7733 C 728.929 3.46259 0.268656 0
M  V30 7734 C 727.883 4.23898 -0.591171 0
M  V30 7735 C 727.209 5.33993 0.274891 0
M  V30 7736 C 728.509 4.87974 -1.86223 0
M  V30 7737 H 730.203 2.68601 -1.32265 0
M  V30 7738 H 727.749 1.29123 -0.637436 0
M  V30 7739 H 729.702 4.16951 0.610696 0
M  V30 7740 H 728.426 3.05383 1.15796 0
M  V30 7741 H 727.085 3.54969 -0.916098 0
M  V30 7742 H 726.733 4.89358 1.16353 0
M  V30 7743 H 726.433 5.86849 -0.297006 0
M  V30 7744 H 727.957 6.07523 0.612213 0
M  V30 7745 H 729.371 5.50883 -1.58747 0
M  V30 7746 H 727.768 5.50945 -2.37866 0
M  V30 7747 H 728.838 4.10945 -2.57394 0
M  V30 7748 N 730.181 0.707592 1.40822 0
M  V30 7749 C 731.428 0.243671 2.01029 0
M  V30 7750 C 731.756 -1.16057 1.5608 0
M  V30 7751 O 731.011 -1.7999 0.768251 0
M  V30 7752 C 731.31 0.262892 3.56432 0
M  V30 7753 C 730.976 1.61632 4.20935 0
M  V30 7754 C 729.638 1.98682 4.38268 0
M  V30 7755 C 731.99 2.50619 4.5699 0
M  V30 7756 C 729.318 3.2428 4.88937 0
M  V30 7757 C 731.67 3.75562 5.09054 0
M  V30 7758 C 730.334 4.12739 5.24598 0
M  V30 7759 H 729.604 0.0891654 0.735616 0
M  V30 7760 H 732.251 0.909051 1.68548 0
M  V30 7761 H 730.556 -0.486052 3.88773 0
M  V30 7762 H 732.253 -0.113775 4.00839 0
M  V30 7763 H 728.843 1.31818 4.07826 0
M  V30 7764 H 733.027 2.23272 4.43242 0
M  V30 7765 H 728.283 3.53064 4.99155 0
M  V30 7766 H 732.457 4.44692 5.35931 0
M  V30 7767 H 730.084 5.10132 5.63622 0
M  V30 7768 N 731.66 -1.50943 0.453197 0
M  V30 7769 C 732.9 -2.0412 -0.106894 0
M  V30 7770 C 733.264 -1.32895 -1.38575 0
M  V30 7771 O 734.465 -1.76529 -2.02709 0
M  V30 7772 C 732.736 -3.561 -0.304565 0
M  V30 7773 S 734.295 -4.3096 -0.825784 0
M  V30 7774 H 731.113 -0.710581 -0.0243969 0
M  V30 7775 H 733.715 -1.85534 0.616239 0
M  V30 7776 H 732.419 -4.055 0.632277 0
M  V30 7777 H 731.95 -3.79009 -1.05433 0
M  V30 7778 H 733.965 -4.49503 -2.10147 0
M  V30 7779 N 733.138 -0.185124 -1.56509 0
M  V30 7780 C 734.386 0.455357 -1.96903 0
M  V30 7781 C 734.707 1.62839 -1.07277 0
M  V30 7782 O 733.977 1.95385 -0.141966 0
M  V30 7783 H 732.557 0.171218 -0.727113 0
M  V30 7784 H 735.219 -0.26953 -1.93027 0
M  V30 7785 H 734.315 0.80616 -3.01509 0
M  V30 7786 N 734.616 1.57351 0.0885366 0
M  V30 7787 C 735.546 2.05561 1.10757 0
M  V30 7788 C 736.527 0.945789 1.41382 0
M  V30 7789 O 737.712 1.21747 1.51299 0
M  V30 7790 C 734.842 2.48554 2.42566 0
M  V30 7791 C 733.796 3.63259 2.26334 0
M  V30 7792 C 733.122 3.9225 3.63378 0
M  V30 7793 C 734.422 4.93913 1.69844 0
M  V30 7794 H 736.116 2.90946 0.706468 0
M  V30 7795 H 733.662 1.39968 0.338385 0
M  V30 7796 H 735.615 2.8089 3.14132 0
M  V30 7797 H 734.339 1.60176 2.84625 0
M  V30 7798 H 732.998 3.31179 1.57213 0
M  V30 7799 H 732.646 3.0103 4.02976 0
M  V30 7800 H 732.346 4.69478 3.53362 0
M  V30 7801 H 733.87 4.27067 4.36401 0
M  V30 7802 H 735.284 5.24588 2.31258 0
M  V30 7803 H 733.681 5.75349 1.70569 0
M  V30 7804 H 734.751 4.80409 0.65843 0
M  V30 7805 N 736.094 -0.359525 1.53444 0
M  V30 7806 C 737.51 -0.701599 1.43352 0
M  V30 7807 C 737.71 -1.93049 0.577439 0
M  V30 7808 O 736.766 -2.52423 0.0622224 0
M  V30 7809 C 738.079 -0.90915 2.86627 0
M  V30 7810 C 739.627 -1.00878 2.96298 0
M  V30 7811 C 740.102 -1.24876 4.40647 0
M  V30 7812 N 741.593 -1.31632 4.44103 0
M  V30 7813 C 742.328 -1.51922 5.52908 0
M  V30 7814 N 741.824 -1.69489 6.71748 0
M  V30 7815 N 743.617 -1.54341 5.40496 0
M  V30 7816 H 735.768 0.448685 2.07607 0
M  V30 7817 H 738.031 0.138713 0.937797 0
M  V30 7818 H 737.737 -0.0778997 3.51614 0
M  V30 7819 H 737.611 -1.81551 3.30634 0
M  V30 7820 H 739.998 -1.83057 2.31461 0
M  V30 7821 H 740.079 -0.0796721 2.55676 0
M  V30 7822 H 739.723 -0.431961 5.0606 0
M  V30 7823 H 739.653 -2.19118 4.78848 0
M  V30 7824 H 742.144 -1.19646 3.5846 0
M  V30 7825 H 742.457 -1.84561 7.50438 0
M  V30 7826 H 740.802 -1.66655 6.74723 0
M  V30 7827 H 743.993 -1.40188 4.46615 0
M  V30 7828 H 744.166 -1.69812 6.25354 0
M  V30 7829 N 737.572 -1.44907 -0.619662 0
M  V30 7830 C 738.82 -1.47999 -1.37625 0
M  V30 7831 C 739.141 -0.118295 -1.94641 0
M  V30 7832 O 738.411 0.85086 -1.76457 0
M  V30 7833 H 736.991 -0.544993 -0.510873 0
M  V30 7834 H 739.653 -1.80772 -0.728522 0
M  V30 7835 H 738.749 -2.21196 -2.20179 0
M  V30 7836 N 739.05 0.861098 -1.31996 0
M  V30 7837 C 739.997 1.96912 -1.20392 0
M  V30 7838 C 740.967 1.65869 -0.0875899 0
M  V30 7839 O 742.152 1.88992 -0.262011 0
M  V30 7840 C 739.292 3.32435 -0.926335 0
M  V30 7841 C 738.405 3.76018 -2.12684 0
M  V30 7842 C 737.54 5.00301 -1.78529 0
M  V30 7843 C 736.579 5.36357 -2.94937 0
M  V30 7844 N 735.716 6.51818 -2.60917 0
M  V30 7845 H 740.556 2.06169 -2.1517 0
M  V30 7846 H 738.093 1.00917 -1.07024 0
M  V30 7847 H 740.051 4.10478 -0.745917 0
M  V30 7848 H 738.681 3.22796 -0.0153578 0
M  V30 7849 H 737.733 2.93683 -2.41774 0
M  V30 7850 H 739.045 3.98664 -2.99781 0
M  V30 7851 H 738.199 5.86034 -1.57001 0
M  V30 7852 H 736.938 4.79578 -0.886356 0
M  V30 7853 H 735.943 4.49139 -3.17103 0
M  V30 7854 H 737.168 5.59041 -3.85552 0
M  V30 7855 H 735.114 6.32624 -1.73558 0
M  V30 7856 H 735.031 6.7445 -3.41544 0
M  V30 7857 H 736.299 7.4072 -2.42804 0
M  V30 7858 N 740.528 1.15101 1.07655 0
M  V30 7859 C 741.491 0.847625 2.12951 0
M  V30 7860 C 742.491 -0.151227 1.60087 0
M  V30 7861 O 743.681 0.0780399 1.74025 0
M  V30 7862 C 740.813 0.265 3.39868 0
M  V30 7863 H 742.006 1.7809 2.41296 0
M  V30 7864 H 739.559 0.958072 1.23494 0
M  V30 7865 H 740.294 -0.676625 3.17163 0
M  V30 7866 H 740.079 0.984554 3.79538 0
M  V30 7867 H 741.569 0.0702121 4.17541 0
M  V30 7868 N 742.006 -1.2595 0.947325 0
M  V30 7869 C 742.938 -2.25336 0.41906 0
M  V30 7870 C 743.951 -1.56135 -0.461051 0
M  V30 7871 O 745.14 -1.76438 -0.270505 0
M  V30 7872 C 742.24 -3.36334 -0.416233 0
M  V30 7873 C 741.413 -4.35088 0.449162 0
M  V30 7874 C 740.472 -5.25185 -0.326716 0
M  V30 7875 O 739.498 -5.68548 0.272374 0
M  V30 7876 N 740.7 -5.57388 -1.6217 0
M  V30 7877 H 743.465 -2.71298 1.27348 0
M  V30 7878 H 741.026 -1.39781 0.81688 0
M  V30 7879 H 743.018 -3.93564 -0.942826 0
M  V30 7880 H 741.588 -2.89819 -1.17148 0
M  V30 7881 H 740.808 -3.76841 1.15692 0
M  V30 7882 H 742.096 -4.98056 1.04008 0
M  V30 7883 H 741.494 -5.2405 -2.13046 0
M  V30 7884 H 740.051 -6.17234 -2.0944 0
M  V30 7885 N 743.484 -0.715051 -1.40445 0
M  V30 7886 C 744.733 -0.251322 -2.00128 0
M  V30 7887 C 745.046 1.16194 -1.57347 0
M  V30 7888 O 746.252 1.72416 -2.09726 0
M  V30 7889 C 744.708 -0.398407 -3.57688 0
M  V30 7890 C 744.316 -1.81828 -4.09442 0
M  V30 7891 C 746.06 0.00455625 -4.245 0
M  V30 7892 C 743.967 -1.91598 -5.59503 0
M  V30 7893 H 742.897 -0.0902081 -0.748584 0
M  V30 7894 H 745.548 -0.886062 -1.6069 0
M  V30 7895 H 743.93 0.304908 -3.94824 0
M  V30 7896 H 745.104 -2.55193 -3.83684 0
M  V30 7897 H 743.419 -2.17266 -3.55225 0
M  V30 7898 H 746.016 -0.0477303 -5.34679 0
M  V30 7899 H 746.359 1.04636 -4.02935 0
M  V30 7900 H 746.892 -0.649184 -3.92467 0
M  V30 7901 H 743.631 -2.93898 -5.85922 0
M  V30 7902 H 743.151 -1.22644 -5.87127 0
M  V30 7903 H 744.83 -1.68785 -6.24596 0
M  V30 7904 N 744.962 1.50701 -0.461195 0
M  V30 7905 C 746.21 2.01867 0.0970051 0
M  V30 7906 C 746.531 1.34591 1.41104 0
M  V30 7907 O 745.801 0.488041 1.89723 0
M  V30 7908 H 744.381 0.74599 0.0388392 0
M  V30 7909 H 747.043 1.85129 -0.609357 0
M  V30 7910 H 746.139 3.11051 0.255688 0
M  V30 7911 N 746.441 0.193421 1.56409 0
M  V30 7912 C 747.388 -0.728124 2.19014 0
M  V30 7913 C 748.358 -1.21098 1.13686 0
M  V30 7914 O 749.543 -1.27517 1.4193 0
M  V30 7915 C 746.683 -1.94277 2.8522 0
M  V30 7916 C 745.796 -1.50143 4.05069 0
M  V30 7917 C 744.931 -2.67145 4.59137 0
M  V30 7918 C 743.97 -2.19609 5.71348 0
M  V30 7919 N 743.107 -3.29782 6.19829 0
M  V30 7920 H 747.947 -0.187499 2.9741 0
M  V30 7921 H 745.484 -0.0808064 1.46878 0
M  V30 7922 H 747.442 -2.65551 3.21774 0
M  V30 7923 H 746.072 -2.45673 2.09391 0
M  V30 7924 H 745.124 -0.684624 3.74189 0
M  V30 7925 H 746.436 -1.11266 4.86232 0
M  V30 7926 H 745.59 -3.46544 4.97988 0
M  V30 7927 H 744.329 -3.09295 3.77078 0
M  V30 7928 H 743.334 -1.38664 5.32027 0
M  V30 7929 H 744.559 -1.78492 6.55223 0
M  V30 7930 H 742.505 -3.71466 5.40693 0
M  V30 7931 H 742.422 -2.95069 6.96039 0
M  V30 7932 H 743.69 -4.094 6.63334 0
M  V30 7933 N 747.919 -1.57396 -0.0801906 0
M  V30 7934 C 749.167 -1.86467 -0.779384 0
M  V30 7935 C 749.488 -0.784243 -1.78535 0
M  V30 7936 O 748.758 0.187986 -1.94996 0
M  V30 7937 H 747.338 -0.68806 -0.29083 0
M  V30 7938 H 750 -1.94813 -0.0582749 0
M  V30 7939 H 749.096 -2.83701 -1.30078 0
M  V30 7940 N 749.397 0.351382 -1.53633 0
M  V30 7941 C 750.33 1.45407 -1.75875 0
M  V30 7942 C 751.308 1.50822 -0.607566 0
M  V30 7943 O 752.492 1.68658 -0.841818 0
M  V30 7944 C 749.619 2.8369 -1.85034 0
M  V30 7945 C 748.665 2.95935 -3.07123 0
M  V30 7946 S 749.498 2.63215 -4.66345 0
M  V30 7947 C 750.654 4.03622 -4.78373 0
M  V30 7948 H 750.887 1.26322 -2.69128 0
M  V30 7949 H 748.42 0.546581 -1.44402 0
M  V30 7950 H 750.378 3.6336 -1.90996 0
M  V30 7951 H 749.039 3.00076 -0.928074 0
M  V30 7952 H 748.232 3.97243 -3.10183 0
M  V30 7953 H 747.834 2.24205 -2.99346 0
M  V30 7954 H 750.126 4.98046 -4.593 0
M  V30 7955 H 751.069 4.05559 -5.80454 0
M  V30 7956 H 751.477 3.91282 -4.06889 0
M  V30 7957 N 750.875 1.45233 0.611969 0
M  V30 7958 C 752.121 1.50233 1.37119 0
M  V30 7959 C 752.476 0.140336 1.91888 0
M  V30 7960 O 751.769 -0.847161 1.71854 0
M  V30 7961 C 751.963 2.51353 2.54079 0
M  V30 7962 C 751.792 3.97251 2.10764 0
M  V30 7963 C 750.562 4.65256 1.97141 0
M  V30 7964 C 752.76 4.85914 1.68499 0
M  V30 7965 N 750.742 5.95895 1.4759 0
M  V30 7966 C 752.113 6.06147 1.30331 0
M  V30 7967 C 754.168 4.72813 1.56051 0
M  V30 7968 C 752.871 7.14729 0.809591 0
M  V30 7969 C 754.897 5.8144 1.08083 0
M  V30 7970 C 754.259 7.00825 0.708775 0
M  V30 7971 H 750.358 0.604708 0.495835 0
M  V30 7972 H 752.942 1.81679 0.700055 0
M  V30 7973 H 751.113 2.21866 3.18795 0
M  V30 7974 H 752.845 2.46528 3.20945 0
M  V30 7975 H 749.6 4.20345 2.18191 0
M  V30 7976 H 750.024 6.65349 1.25059 0
M  V30 7977 H 754.666 3.80931 1.83443 0
M  V30 7978 H 752.384 8.06404 0.523215 0
M  V30 7979 H 755.97 5.73335 0.988842 0
M  V30 7980 H 754.85 7.83448 0.343305 0
M  V30 7981 N 752.353 -0.854086 1.3245 0
M  V30 7982 C 753.316 -1.94427 1.21371 0
M  V30 7983 C 754.316 -1.60219 0.136613 0
M  V30 7984 O 755.506 -1.69846 0.387057 0
M  V30 7985 C 752.638 -3.29698 0.866701 0
M  V30 7986 H 753.831 -2.05679 2.18257 0
M  V30 7987 H 751.384 -1.04434 1.1629 0
M  V30 7988 H 752.119 -3.24145 -0.100319 0
M  V30 7989 H 751.904 -3.55903 1.64545 0
M  V30 7990 H 753.394 -4.09599 0.813515 0
M  V30 7991 N 753.831 -1.1567 -1.07043 0
M  V30 7992 C 754.764 -0.799867 -2.13723 0
M  V30 7993 C 755.742 0.225098 -1.61034 0
M  V30 7994 O 756.926 0.11093 -1.88173 0
M  V30 7995 C 754.053 -0.18997 -3.38167 0
M  V30 7996 C 753.099 -1.18733 -4.0964 0
M  V30 7997 S 753.932 -2.73074 -4.60642 0
M  V30 7998 C 755.088 -2.13512 -5.88356 0
M  V30 7999 H 755.321 -1.70342 -2.43661 0
M  V30 8000 H 752.854 -0.979377 -1.19363 0
M  V30 8001 H 754.812 0.155471 -4.10205 0
M  V30 8002 H 753.473 0.691229 -3.064 0
M  V30 8003 H 752.666 -0.708873 -4.9899 0
M  V30 8004 H 752.268 -1.47747 -3.43579 0
M  V30 8005 H 754.56 -1.49911 -6.60706 0
M  V30 8006 H 755.503 -3.01042 -6.40921 0
M  V30 8007 H 755.911 -1.57693 -5.42027 0
M  V30 8008 N 755.309 1.25446 -0.953992 0
M  V30 8009 C 756.72 1.75047 -0.649255 0
M  V30 8010 C 757.071 1.77527 0.835385 0
M  V30 8011 O 756.196 1.39569 1.65377 0
M  V30 8012 C 756.791 3.17889 -1.17183 0
M  V30 8013 C 755.35 3.65052 -0.917267 0
M  V30 8014 C 754.497 2.44124 -1.31525 0
M  V30 8015 H 757.448 1.11342 -1.13087 0
M  V30 8016 H 757.469 3.76768 -0.531616 0
M  V30 8017 H 756.981 3.16052 -2.25239 0
M  V30 8018 H 755.082 3.72305 0.148354 0
M  V30 8019 H 755.195 4.53222 -1.55328 0
M  V30 8020 H 753.559 2.43906 -0.733624 0
M  V30 8021 H 754.342 2.44979 -2.405 0
M  V30 8022 N 756.787 0.722489 1.40064 0
M  V30 8023 C 758.064 0.191829 1.94657 0
M  V30 8024 C 758.444 -1.30389 1.66018 0
M  V30 8025 O 757.792 -2.06342 0.981588 0
M  V30 8026 C 758.002 0.511978 3.45224 0
M  V30 8027 C 759.35 0.454426 4.22161 0
M  V30 8028 O 760.374 0.448438 3.53366 0
M  V30 8029 O 759.233 0.437986 5.44742 0
M  V30 8030 H 756.327 0.0307821 0.826427 0
M  V30 8031 H 758.873 0.800493 1.49634 0
M  V30 8032 H 757.645 1.54622 3.59455 0
M  V30 8033 H 757.268 -0.126296 3.97399 0
M  V30 8034 N 758.265 -1.50454 0.469181 0
M  V30 8035 C 759.195 -2.31353 -0.31592 0
M  V30 8036 C 760.176 -1.38172 -0.992094 0
M  V30 8037 O 761.361 -1.67093 -0.989633 0
M  V30 8038 C 758.491 -3.1786 -1.39937 0
M  V30 8039 C 757.445 -4.19578 -0.844909 0
M  V30 8040 C 756.771 -4.9481 -2.0265 0
M  V30 8041 C 758.071 -5.22106 0.142499 0
M  V30 8042 H 759.765 -2.97237 0.359269 0
M  V30 8043 H 757.311 -1.42942 0.174224 0
M  V30 8044 H 759.264 -3.7325 -1.95607 0
M  V30 8045 H 757.988 -2.49858 -2.1033 0
M  V30 8046 H 756.647 -3.65285 -0.310189 0
M  V30 8047 H 756.295 -4.23282 -2.71737 0
M  V30 8048 H 755.995 -5.63613 -1.66174 0
M  V30 8049 H 757.519 -5.53035 -2.58815 0
M  V30 8050 H 758.933 -5.72378 -0.324966 0
M  V30 8051 H 757.33 -5.98618 0.421441 0
M  V30 8052 H 758.4 -4.7297 1.06901 0
M  V30 8053 N 759.743 -0.201713 -1.56304 0
M  V30 8054 C 760.676 0.755976 -2.15314 0
M  V30 8055 C 761.654 1.20497 -1.09175 0
M  V30 8056 O 762.838 1.2913 -1.37323 0
M  V30 8057 C 759.965 2.02177 -2.71739 0
M  V30 8058 C 759.011 1.71436 -3.90528 0
M  V30 8059 S 759.844 0.856624 -5.28604 0
M  V30 8060 C 761 2.13242 -5.88455 0
M  V30 8061 H 761.233 0.254348 -2.9621 0
M  V30 8062 H 758.766 0.0133669 -1.54394 0
M  V30 8063 H 760.724 2.74867 -3.04891 0
M  V30 8064 H 759.385 2.49452 -1.90873 0
M  V30 8065 H 758.578 2.65433 -4.28441 0
M  V30 8066 H 758.18 1.06823 -3.5842 0
M  V30 8067 H 760.472 3.08435 -6.0322 0
M  V30 8068 H 761.415 1.7975 -6.84905 0
M  V30 8069 H 761.823 2.2639 -5.17115 0
M  V30 8070 N 761.222 1.57436 0.0718424 0
M  V30 8071 C 762.185 2.02703 1.06977 0
M  V30 8072 C 763.185 0.924062 1.31597 0
M  V30 8073 O 764.375 1.18894 1.27318 0
M  V30 8074 C 761.507 2.40763 2.41342 0
M  V30 8075 H 762.7 2.92098 0.679619 0
M  V30 8076 H 760.253 1.5304 0.317565 0
M  V30 8077 H 760.988 1.54394 2.8519 0
M  V30 8078 H 760.773 3.21249 2.24814 0
M  V30 8079 H 762.263 2.76361 3.13073 0
M  V30 8080 N 762.7 -0.34323 1.53817 0
M  V30 8081 C 763.977 -1.10047 1.61706 0
M  V30 8082 C 764.357 -2.06495 0.438514 0
M  V30 8083 O 763.705 -2.21297 -0.569188 0
M  V30 8084 C 763.915 -1.81985 2.97796 0
M  V30 8085 C 765.263 -2.35717 3.53161 0
M  V30 8086 O 766.287 -1.9208 2.99973 0
M  V30 8087 O 765.146 -3.15551 4.46195 0
M  V30 8088 H 762.24 -0.506096 0.654061 0
M  V30 8089 H 764.786 -0.344697 1.66162 0
M  V30 8090 H 763.558 -1.11722 3.75012 0
M  V30 8091 H 763.181 -2.64419 2.96931 0
M  V30 8092 N 764.178 -1.45556 -0.604258 0
M  V30 8093 C 765.111 -1.48975 -1.72863 0
M  V30 8094 C 766.089 -0.345803 -1.5888 0
M  V30 8095 O 767.273 -0.546796 -1.80395 0
M  V30 8096 C 764.4 -1.34794 -3.10722 0
M  V30 8097 C 763.446 -2.53096 -3.43285 0
M  V30 8098 S 764.279 -4.15551 -3.37754 0
M  V30 8099 C 765.435 -4.03842 -4.78187 0
M  V30 8100 H 765.668 -2.44108 -1.69701 0
M  V30 8101 H 763.201 -1.33179 -0.781194 0
M  V30 8102 H 765.159 -1.273 -3.90263 0
M  V30 8103 H 763.82 -0.411254 -3.11396 0
M  V30 8104 H 763.013 -2.39109 -4.4367 0
M  V30 8105 H 762.615 -2.57469 -2.71267 0
M  V30 8106 H 764.907 -3.69191 -5.6807 0
M  V30 8107 H 765.85 -5.0415 -4.97231 0
M  V30 8108 H 766.258 -3.35443 -4.54025 0
M  V30 8109 N 765.656 0.84705 -1.32902 0
M  V30 8110 C 766.886 1.63166 -1.26729 0
M  V30 8111 C 767.294 1.88474 0.165595 0
M  V30 8112 O 766.637 1.45947 1.11558 0
M  V30 8113 C 766.699 3.0103 -1.96522 0
M  V30 8114 C 766.363 2.9873 -3.45846 0
M  V30 8115 C 767.36 2.75032 -4.41196 0
M  V30 8116 C 765.045 3.19125 -3.87898 0
M  V30 8117 C 767.039 2.71743 -5.76571 0
M  V30 8118 C 764.726 3.15462 -5.2338 0
M  V30 8119 C 765.724 2.91801 -6.17528 0
M  V30 8120 O 765.412 2.88027 -7.5053 0
M  V30 8121 H 765.144 0.51469 -0.438258 0
M  V30 8122 H 767.698 1.06383 -1.75704 0
M  V30 8123 H 765.928 3.59634 -1.42128 0
M  V30 8124 H 767.617 3.61821 -1.83958 0
M  V30 8125 H 768.383 2.59034 -4.10032 0
M  V30 8126 H 764.262 3.36565 -3.15032 0
M  V30 8127 H 767.806 2.53194 -6.5003 0
M  V30 8128 H 763.703 3.31006 -5.54171 0
M  V30 8129 H 764.471 3.03927 -7.59981 0
M  V30 8130 N 767.134 1.16236 1.06428 0
M  V30 8131 C 768.359 0.967688 1.83441 0
M  V30 8132 C 768.784 -0.479167 1.81894 0
M  V30 8133 O 768.142 -1.34224 1.21875 0
M  V30 8134 C 768.19 1.49806 3.2801 0
M  V30 8135 O 767.294 0.703481 4.06356 0
M  V30 8136 H 766.635 0.344468 0.56766 0
M  V30 8137 H 769.165 1.54442 1.34197 0
M  V30 8138 H 769.175 1.51495 3.78831 0
M  V30 8139 H 767.85 2.55133 3.2845 0
M  V30 8140 H 766.427 0.756986 3.65136 0
M  V30 8141 N 768.612 -1.24939 0.960631 0
M  V30 8142 C 769.544 -2.24879 0.442937 0
M  V30 8143 C 770.557 -1.56615 -0.444464 0
M  V30 8144 O 771.746 -1.76715 -0.251776 0
M  V30 8145 C 768.846 -3.36757 -0.380537 0
M  V30 8146 C 768.019 -4.34587 0.495283 0
M  V30 8147 C 767.078 -5.25502 -0.270995 0
M  V30 8148 O 766.104 -5.68227 0.332661 0
M  V30 8149 N 767.306 -5.59077 -1.56249 0
M  V30 8150 H 770.071 -2.69932 1.30218 0
M  V30 8151 H 767.632 -1.38907 0.83166 0
M  V30 8152 H 769.624 -3.94542 -0.90103 0
M  V30 8153 H 768.194 -2.91045 -1.14067 0
M  V30 8154 H 767.414 -3.75593 1.19682 0
M  V30 8155 H 768.702 -4.96925 1.09285 0
M  V30 8156 H 768.1 -5.2628 -2.07476 0
M  V30 8157 H 766.657 -6.19421 -2.02882 0
M  V30 8158 N 770.09 -0.729906 -1.39679 0
M  V30 8159 C 771.037 -0.0866063 -2.30637 0
M  V30 8160 C 772.007 0.735115 -1.48947 0
M  V30 8161 O 773.192 0.696125 -1.77648 0
M  V30 8162 C 770.332 0.818524 -3.35252 0
M  V30 8163 C 769.445 -0.0152635 -4.31997 0
M  V30 8164 C 768.58 0.890669 -5.2368 0
M  V30 8165 C 767.619 0.0518246 -6.12078 0
M  V30 8166 N 766.756 0.913411 -6.96133 0
M  V30 8167 H 771.596 -0.867925 -2.85081 0
M  V30 8168 H 769.133 -0.439673 -1.40376 0
M  V30 8169 H 771.091 1.3577 -3.9449 0
M  V30 8170 H 769.721 1.56587 -2.82277 0
M  V30 8171 H 768.773 -0.671794 -3.74421 0
M  V30 8172 H 770.085 -0.664086 -4.9436 0
M  V30 8173 H 769.239 1.49787 -5.87919 0
M  V30 8174 H 767.978 1.57328 -4.61627 0
M  V30 8175 H 766.983 -0.568209 -5.46856 0
M  V30 8176 H 768.208 -0.627497 -6.76195 0
M  V30 8177 H 766.154 1.58141 -6.36653 0
M  V30 8178 H 766.071 0.320952 -7.55318 0
M  V30 8179 H 767.339 1.50633 -7.64807 0
M  V30 8180 N 771.568 1.50203 -0.477153 0
M  V30 8181 C 772.816 2.01959 0.0755889 0
M  V30 8182 C 773.137 1.3608 1.39668 0
M  V30 8183 O 772.407 0.508136 1.89195 0
M  V30 8184 H 770.987 0.74636 0.0309248 0
M  V30 8185 H 773.649 1.84473 -0.628959 0
M  V30 8186 H 772.745 3.11305 0.222683 0
M  V30 8187 N 773.046 0.209999 1.56195 0
M  V30 8188 C 774.323 -0.473214 1.89789 0
M  V30 8189 C 774.703 -1.78581 1.1257 0
M  V30 8190 O 774.051 -2.27325 0.231398 0
M  V30 8191 C 774.261 -0.677458 3.42362 0
M  V30 8192 C 775.609 -0.990114 4.12895 0
M  V30 8193 O 776.633 -0.764655 3.47896 0
M  V30 8194 O 775.492 -1.41737 5.278 0
M  V30 8195 H 772.586 -0.248622 0.788743 0
M  V30 8196 H 775.132 0.251324 1.67829 0
M  V30 8197 H 773.904 0.248878 3.90508 0
M  V30 8198 H 773.527 -1.45391 3.70064 0
M  V30 8199 N 774.524 -1.57472 -0.0634922 0
M  V30 8200 C 775.456 -2.00999 -1.10145 0
M  V30 8201 C 776.469 -0.917219 -1.34503 0
M  V30 8202 O 777.658 -1.19501 -1.32596 0
M  V30 8203 C 774.758 -2.34089 -2.45063 0
M  V30 8204 C 773.931 -3.65317 -2.40546 0
M  V30 8205 C 772.99 -3.85982 -3.57637 0
M  V30 8206 O 772.016 -4.5747 -3.38689 0
M  V30 8207 N 773.218 -3.28971 -4.78287 0
M  V30 8208 H 775.983 -2.90656 -0.730714 0
M  V30 8209 H 773.544 -1.59926 -0.252017 0
M  V30 8210 H 775.536 -2.4508 -3.22053 0
M  V30 8211 H 774.106 -1.50279 -2.74107 0
M  V30 8212 H 773.326 -3.65003 -1.48885 0
M  V30 8213 H 774.614 -4.51468 -2.34636 0
M  V30 8214 H 774.012 -2.70962 -4.96584 0
M  V30 8215 H 772.569 -3.45398 -5.5276 0
M  V30 8216 N 776.003 0.335068 -1.53997 0
M  V30 8217 C 776.933 1.41727 -1.85568 0
M  V30 8218 C 777.914 1.54505 -0.7115 0
M  V30 8219 O 779.099 1.68573 -0.964191 0
M  V30 8220 C 776.229 2.7866 -2.07282 0
M  V30 8221 C 775.183 2.80682 -3.23112 0
M  V30 8222 C 774.509 4.20581 -3.30175 0
M  V30 8223 C 775.809 2.45458 -4.61029 0
M  V30 8224 H 777.503 1.15555 -2.76202 0
M  V30 8225 H 775.049 0.554445 -1.32898 0
M  V30 8226 H 777.002 3.54423 -2.27952 0
M  V30 8227 H 775.726 3.06286 -1.13387 0
M  V30 8228 H 774.385 2.07373 -3.02311 0
M  V30 8229 H 774.033 4.4533 -2.33859 0
M  V30 8230 H 773.733 4.22843 -4.08016 0
M  V30 8231 H 775.257 4.98174 -3.53066 0
M  V30 8232 H 776.671 3.10934 -4.81656 0
M  V30 8233 H 775.068 2.5899 -5.41336 0
M  V30 8234 H 776.138 1.40628 -4.6406 0
M  V30 8235 N 777.481 1.45874 0.596531 0
M  V30 8236 C 778.897 1.30524 0.918459 0
M  V30 8237 C 779.097 0.266429 1.99731 0
M  V30 8238 O 778.153 -0.335809 2.50257 0
M  V30 8239 C 779.466 2.68747 1.3489 0
M  V30 8240 C 781.014 2.7673 1.46251 0
M  V30 8241 C 781.489 4.15504 1.92667 0
M  V30 8242 N 782.98 4.17853 1.99883 0
M  V30 8243 C 783.715 5.22109 2.37044 0
M  V30 8244 N 783.211 6.36704 2.73094 0
M  V30 8245 N 785.004 5.09471 2.37479 0
M  V30 8246 H 777.155 2.12081 -0.116368 0
M  V30 8247 H 779.418 0.947941 0.0106033 0
M  V30 8248 H 779.124 3.46006 0.630288 0
M  V30 8249 H 778.998 2.97942 2.31323 0
M  V30 8250 H 781.385 1.99768 2.17202 0
M  V30 8251 H 781.466 2.51236 0.481054 0
M  V30 8252 H 781.11 4.92956 1.223 0
M  V30 8253 H 781.04 4.38396 2.91747 0
M  V30 8254 H 783.531 3.35163 1.74568 0
M  V30 8255 H 783.844 7.12041 3.00362 0
M  V30 8256 H 782.189 6.40087 2.70764 0
M  V30 8257 H 785.38 4.18987 2.08728 0
M  V30 8258 H 785.553 5.90837 2.66112 0
M  V30 8259 N 778.959 -0.83999 1.33349 0
M  V30 8260 C 779.922 -1.93128 1.23426 0
M  V30 8261 C 780.922 -1.60065 0.153599 0
M  V30 8262 O 782.112 -1.69425 0.405049 0
M  V30 8263 C 779.244 -3.28761 0.901622 0
M  V30 8264 H 780.437 -2.03352 2.20427 0
M  V30 8265 H 777.99 -1.03194 1.17391 0
M  V30 8266 H 778.725 -3.24233 -0.0659337 0
M  V30 8267 H 778.51 -3.54138 1.68311 0
M  V30 8268 H 780 -4.08714 0.856913 0
M  V30 8269 N 780.437 -1.16799 -1.0581 0
M  V30 8270 C 781.685 -0.950642 -1.78346 0
M  V30 8271 C 782.006 0.522524 -1.87869 0
M  V30 8272 O 781.276 1.3795 -1.39092 0
M  V30 8273 H 779.856 -0.348736 -0.6606 0
M  V30 8274 H 782.518 -1.47158 -1.27791 0
M  V30 8275 H 781.614 -1.37359 -2.80248 0
M  V30 8276 N 781.915 1.24427 -0.967243 0
M  V30 8277 C 782.878 2.23637 -0.501927 0
M  V30 8278 C 783.878 1.55712 0.401283 0
M  V30 8279 O 785.068 1.73085 0.196808 0
M  V30 8280 C 782.2 3.39804 0.273176 0
M  V30 8281 H 783.393 2.66317 -1.37897 0
M  V30 8282 H 780.946 1.37033 -0.751783 0
M  V30 8283 H 781.681 3.02562 1.16733 0
M  V30 8284 H 781.466 3.90303 -0.37498 0
M  V30 8285 H 782.956 4.13443 0.587776 0
M  V30 8286 N 783.393 0.737304 1.3929 0
M  V30 8287 C 784.341 0.0879867 2.32434 0
M  V30 8288 C 785.335 -0.723324 1.53181 0
M  V30 8289 O 786.541 -0.624251 1.68829 0
M  V30 8290 H 782.916 0.00965277 0.751938 0
M  V30 8291 H 784.887 0.889915 2.84821 0
M  V30 8292 C 783.636 -0.803384 3.38291 0
M  V30 8293 H 782.959 -0.18849 3.99355 0
M  V30 8294 H 784.399 -1.22528 4.0591 0
M  V30 8295 C 782.858 -1.93872 2.75527 0
M  V30 8296 O 783.388 -3.03154 2.63553 0
M  V30 8297 N 781.594 -1.72883 2.3358 0
M  V30 8298 H 781.141 -0.840005 2.43519 0
M  V30 8299 H 781.099 -2.49021 1.91927 0
M  V30 8300 N 784.871 -1.49948 0.485112 0
M  V30 8301 C 786.099 -2.06806 -0.0622824 0
M  V30 8302 C 786.514 -1.34736 -1.32256 0
M  V30 8303 O 785.871 -0.420836 -1.77582 0
M  V30 8304 C 785.922 -3.59934 -0.336096 0
M  V30 8305 O 785.643 -4.29289 0.874203 0
M  V30 8306 C 787.144 -4.33459 -0.928903 0
M  V30 8307 H 784.364 -0.670867 0.0133472 0
M  V30 8308 H 786.908 -1.92937 0.677917 0
M  V30 8309 H 785.063 -3.7356 -1.02625 0
M  V30 8310 H 785.477 -5.20735 0.627332 0
M  V30 8311 H 786.951 -5.41527 -1.07017 0
M  V30 8312 H 787.428 -3.94881 -1.92265 0
M  V30 8313 H 788.034 -4.24399 -0.276705 0
M  V30 8314 N 786.349 -0.21828 -1.56081 0
M  V30 8315 C 787.312 0.679633 -2.18892 0
M  V30 8316 C 788.312 1.12405 -1.14986 0
M  V30 8317 O 789.502 1.03339 -1.40238 0
M  V30 8318 C 786.634 1.93063 -2.80962 0
M  V30 8319 H 787.827 0.132066 -2.99609 0
M  V30 8320 H 785.38 0.0313374 -1.56269 0
M  V30 8321 H 786.115 2.52015 -2.04106 0
M  V30 8322 H 785.9 1.62046 -3.57048 0
M  V30 8323 H 787.39 2.57043 -3.29118 0
M  V30 8324 N 787.827 1.57504 0.0551401 0
M  V30 8325 C 789.073 1.89191 0.74688 0
M  V30 8326 C 789.428 0.813936 1.74335 0
M  V30 8327 O 788.721 -0.180217 1.90751 0
M  V30 8328 C 788.915 3.25311 1.48013 0
M  V30 8329 C 788.744 4.46247 0.556176 0
M  V30 8330 C 787.514 5.04954 0.186891 0
M  V30 8331 C 789.712 5.14068 -0.154295 0
M  V30 8332 N 787.694 6.09411 -0.741041 0
M  V30 8333 C 789.065 6.12851 -0.938809 0
M  V30 8334 C 791.12 4.97396 -0.224007 0
M  V30 8335 C 789.823 6.96759 -1.78658 0
M  V30 8336 C 791.849 5.81845 -1.05881 0
M  V30 8337 C 791.211 6.80178 -1.83133 0
M  V30 8338 H 787.31 0.741562 0.248213 0
M  V30 8339 H 789.894 1.94698 0.00777734 0
M  V30 8340 H 788.065 3.20781 2.18985 0
M  V30 8341 H 789.797 3.44594 2.12219 0
M  V30 8342 H 786.552 4.70472 0.543415 0
M  V30 8343 H 786.976 6.66303 -1.19874 0
M  V30 8344 H 791.618 4.21274 0.358924 0
M  V30 8345 H 789.336 7.72245 -2.38042 0
M  V30 8346 H 792.922 5.70997 -1.11595 0
M  V30 8347 H 791.802 7.44389 -2.46687 0
M  V30 8348 N 789.305 -0.326896 1.54172 0
M  V30 8349 C 790.551 -1.06681 1.72473 0
M  V30 8350 C 790.884 -1.87779 0.49523 0
M  V30 8351 O 790.159 -1.87754 -0.507803 0
M  V30 8352 C 790.442 -1.99429 2.99834 0
M  V30 8353 C 790.295 -1.21682 4.33028 0
M  V30 8354 C 791.614 -2.99002 3.22933 0
M  V30 8355 H 788.733 -0.386438 0.627563 0
M  V30 8356 H 791.375 -0.343779 1.86864 0
M  V30 8357 H 789.525 -2.61081 2.87696 0
M  V30 8358 H 791.197 -0.625153 4.57044 0
M  V30 8359 H 789.44 -0.519045 4.30684 0
M  V30 8360 H 790.111 -1.89766 5.18356 0
M  V30 8361 H 792.587 -2.4747 3.34511 0
M  V30 8362 H 791.463 -3.61085 4.13412 0
M  V30 8363 H 791.724 -3.71281 2.40006 0
M  V30 8364 N 790.784 -1.46188 -0.588786 0
M  V30 8365 C 792.195 -1.45421 -1.17088 0
M  V30 8366 C 792.546 -0.191801 -1.9526 0
M  V30 8367 O 791.671 0.705497 -2.04577 0
M  V30 8368 C 792.266 -2.63467 -2.13004 0
M  V30 8369 C 790.825 -2.6576 -2.6655 0
M  V30 8370 C 789.972 -2.38002 -1.42304 0
M  V30 8371 H 792.923 -1.54156 -0.377052 0
M  V30 8372 H 792.944 -2.38638 -2.96365 0
M  V30 8373 H 792.456 -3.55331 -1.56081 0
M  V30 8374 H 790.557 -1.77952 -3.27359 0
M  V30 8375 H 790.67 -3.65545 -3.09699 0
M  V30 8376 H 789.034 -1.87936 -1.71907 0
M  V30 8377 H 789.817 -3.32035 -0.872209 0
M  V30 8378 N 792.262 0.832906 -1.33792 0
M  V30 8379 C 793.487 1.62568 -1.28788 0
M  V30 8380 C 793.912 1.87599 0.137246 0
M  V30 8381 O 793.27 1.44436 1.0958 0
M  V30 8382 C 793.318 2.9495 -2.07453 0
M  V30 8383 O 792.422 3.86546 -1.43722 0
M  V30 8384 H 791.763 0.494809 -0.442787 0
M  V30 8385 H 794.293 1.03578 -1.76445 0
M  V30 8386 H 794.303 3.44599 -2.1844 0
M  V30 8387 H 792.978 2.76055 -3.11073 0
M  V30 8388 H 791.555 3.45044 -1.41417 0
M  V30 8389 N 793.74 1.17359 1.05189 0
M  V30 8390 C 795.151 0.96793 1.5965 0
M  V30 8391 C 795.502 -0.485355 1.90102 0
M  V30 8392 O 794.627 -1.36066 1.6827 0
M  V30 8393 C 795.222 1.75068 2.90063 0
M  V30 8394 C 793.781 1.58969 3.41183 0
M  V30 8395 C 792.928 1.75231 2.14917 0
M  V30 8396 H 795.879 1.32067 0.880001 0
M  V30 8397 H 795.9 1.23308 3.59966 0
M  V30 8398 H 795.412 2.80835 2.67868 0
M  V30 8399 H 793.513 0.556906 3.68415 0
M  V30 8400 H 793.626 2.38067 4.15766 0
M  V30 8401 H 791.99 1.18073 2.25679 0
M  V30 8402 H 792.773 2.8241 1.95191 0
M  V30 8403 N 795.218 -1.23913 0.973828 0
M  V30 8404 C 796.446 -1.96195 0.656891 0
M  V30 8405 C 796.861 -1.72166 -0.774876 0
M  V30 8406 O 796.218 -1.0091 -1.52064 0
M  V30 8407 C 796.269 -3.49342 0.929638 0
M  V30 8408 O 795.99 -3.72553 2.30512 0
M  V30 8409 C 797.491 -4.38833 0.627739 0
M  V30 8410 H 794.711 -0.624841 0.244572 0
M  V30 8411 H 797.255 -1.57579 1.30343 0
M  V30 8412 H 795.41 -3.85999 0.329216 0
M  V30 8413 H 795.824 -4.66893 2.3898 0
M  V30 8414 H 797.298 -5.45117 0.868991 0
M  V30 8415 H 797.775 -4.37009 -0.438104 0
M  V30 8416 H 798.381 -4.07773 1.20834 0
M  V30 8417 N 796.696 -0.74468 -1.38897 0
M  V30 8418 C 797.659 -0.11945 -2.28889 0
M  V30 8419 C 798.659 0.656942 -1.46768 0
M  V30 8420 O 799.849 0.484525 -1.67326 0
M  V30 8421 C 796.981 0.839635 -3.30398 0
M  V30 8422 H 798.174 -0.912414 -2.85683 0
M  V30 8423 H 795.727 -0.511119 -1.47707 0
M  V30 8424 H 796.462 1.6586 -2.78677 0
M  V30 8425 H 796.247 0.285432 -3.9106 0
M  V30 8426 H 797.737 1.27337 -3.97712 0
M  V30 8427 N 798.174 1.49689 -0.493057 0
M  V30 8428 C 799.137 2.27502 0.278485 0
M  V30 8429 C 800.137 1.33184 0.901037 0
M  V30 8430 O 801.327 1.56415 0.766801 0
M  V30 8431 C 798.459 3.10881 1.39878 0
M  V30 8432 H 799.652 2.97163 -0.404219 0
M  V30 8433 H 797.205 1.54324 -0.247774 0
M  V30 8434 H 797.94 2.45767 2.11587 0
M  V30 8435 H 797.725 3.80219 0.957924 0
M  V30 8436 H 799.215 3.69673 1.94247 0
M  V30 8437 N 799.652 0.226554 1.55963 0
M  V30 8438 C 800.88 -0.408507 2.02827 0
M  V30 8439 C 801.295 -1.52994 1.10627 0
M  V30 8440 O 800.652 -1.82126 0.116809 0
M  V30 8441 C 800.703 -0.93545 3.49187 0
M  V30 8442 O 800.424 0.141273 4.37872 0
M  V30 8443 C 801.925 -1.64325 4.11719 0
M  V30 8444 H 799.145 -0.099442 0.66359 0
M  V30 8445 H 801.689 0.344471 2.01578 0
M  V30 8446 H 799.844 -1.63868 3.51036 0
M  V30 8447 H 800.258 -0.25558 5.23877 0
M  V30 8448 H 801.732 -1.9639 5.15883 0
M  V30 8449 H 802.209 -2.55815 3.57009 0
M  V30 8450 H 802.815 -0.9851 4.13734 0
M  V30 8451 N 801.13 -1.57531 -0.0467866 0
M  V30 8452 C 802.06 -2.08425 -1.05268 0
M  V30 8453 C 803.041 -0.982941 -1.38825 0
M  V30 8454 O 804.226 -1.25716 -1.48018 0
M  V30 8455 C 801.356 -2.54897 -2.35891 0
M  V30 8456 C 800.31 -3.69132 -2.16623 0
M  V30 8457 C 799.636 -4.01747 -3.52851 0
M  V30 8458 C 800.936 -4.98243 -1.56689 0
M  V30 8459 H 802.63 -2.92716 -0.62908 0
M  V30 8460 H 800.176 -1.40816 -0.301156 0
M  V30 8461 H 802.129 -2.8912 -3.06574 0
M  V30 8462 H 800.853 -1.67666 -2.80278 0
M  V30 8463 H 799.512 -3.35231 -1.48377 0
M  V30 8464 H 799.16 -3.11608 -3.94853 0
M  V30 8465 H 798.86 -4.78681 -3.4079 0
M  V30 8466 H 800.384 -4.38487 -4.24925 0
M  V30 8467 H 801.798 -5.30535 -2.17268 0
M  V30 8468 H 800.195 -5.79669 -1.55255 0
M  V30 8469 H 801.265 -4.81986 -0.530827 0
M  V30 8470 N 802.608 0.318715 -1.54344 0
M  V30 8471 C 803.558 1.39364 -1.80448 0
M  V30 8472 C 804.542 1.46708 -0.660728 0
M  V30 8473 O 805.734 1.51159 -0.920869 0
M  V30 8474 C 802.863 2.76144 -2.03959 0
M  V30 8475 C 801.949 2.73094 -3.24469 0
M  V30 8476 N 802.34 2.39663 -4.45416 0
M  V30 8477 C 800.638 3.04218 -3.2614 0
M  V30 8478 C 801.339 2.45469 -5.27371 0
M  V30 8479 N 800.315 2.82107 -4.64668 0
M  V30 8480 H 804.117 1.12453 -2.71535 0
M  V30 8481 H 801.631 0.527221 -1.53604 0
M  V30 8482 H 803.628 3.53627 -2.20802 0
M  V30 8483 H 802.288 3.03982 -1.14129 0
M  V30 8484 H 803.299 2.12424 -4.72331 0
M  V30 8485 H 799.976 3.37066 -2.4636 0
M  V30 8486 H 801.366 2.22571 -6.33965 0
M  V30 8487 N 804.086 1.46499 0.581025 0
M  V30 8488 C 805.049 1.5677 1.672 0
M  V30 8489 C 806.049 0.444716 1.54528 0
M  V30 8490 O 807.239 0.709074 1.59116 0
M  V30 8491 C 804.371 1.4896 3.06633 0
M  V30 8492 H 805.564 2.54 1.5945 0
M  V30 8493 H 803.117 1.34334 0.799003 0
M  V30 8494 H 803.852 0.530168 3.19937 0
M  V30 8495 H 803.637 2.30439 3.17239 0
M  V30 8496 H 805.127 1.59237 3.86048 0
M  V30 8497 N 805.565 -0.825799 1.34232 0
M  V30 8498 C 806.495 -1.95151 1.28212 0
M  V30 8499 C 807.476 -1.69345 0.160123 0
M  V30 8500 O 808.661 -1.90983 0.352019 0
M  V30 8501 C 805.791 -3.31554 1.03388 0
M  V30 8502 C 804.745 -3.71793 2.12023 0
M  V30 8503 C 804.071 -5.06147 1.72392 0
M  V30 8504 C 805.371 -3.84193 3.53826 0
M  V30 8505 H 807.065 -2.00445 2.22401 0
M  V30 8506 H 804.611 -0.962996 1.07063 0
M  V30 8507 H 806.564 -4.09889 0.978225 0
M  V30 8508 H 805.288 -3.26551 0.0564142 0
M  V30 8509 H 803.947 -2.95731 2.16654 0
M  V30 8510 H 803.595 -4.97628 0.733137 0
M  V30 8511 H 803.295 -5.34041 2.451 0
M  V30 8512 H 804.819 -5.86943 1.68317 0
M  V30 8513 H 806.233 -4.52806 3.51624 0
M  V30 8514 H 804.63 -4.23538 4.2513 0
M  V30 8515 H 805.7 -2.86272 3.91377 0
M  V30 8516 N 807.043 -1.17915 -1.04565 0
M  V30 8517 C 807.993 -0.869634 -2.10764 0
M  V30 8518 C 808.977 0.158502 -1.60117 0
M  V30 8519 O 810.169 -0.04483 -1.76943 0
M  V30 8520 C 807.298 -0.391642 -3.41059 0
M  V30 8521 C 806.384 -1.45156 -3.98485 0
M  V30 8522 N 806.775 -2.6667 -4.29792 0
M  V30 8523 C 805.073 -1.3109 -4.263 0
M  V30 8524 C 805.774 -3.34823 -4.75677 0
M  V30 8525 N 804.75 -2.62203 -4.76183 0
M  V30 8526 H 808.552 -1.79342 -2.32838 0
M  V30 8527 H 806.066 -1.0688 -1.22272 0
M  V30 8528 H 808.063 -0.151428 -4.16625 0
M  V30 8529 H 806.723 0.525862 -3.20413 0
M  V30 8530 H 807.734 -3.0358 -4.19594 0
M  V30 8531 H 804.411 -0.455545 -4.15007 0
M  V30 8532 H 805.801 -4.38645 -5.0896 0
M  V30 8533 N 808.521 1.23394 -0.980386 0
M  V30 8534 C 809.751 1.9556 -0.666319 0
M  V30 8535 C 810.159 1.72786 0.770815 0
M  V30 8536 O 809.502 1.0162 1.53033 0
M  V30 8537 C 809.564 3.48643 -0.876825 0
M  V30 8538 C 809.228 3.95135 -2.29602 0
M  V30 8539 C 810.225 4.03806 -3.2747 0
M  V30 8540 C 807.91 4.28122 -2.62711 0
M  V30 8541 C 809.904 4.44818 -4.56526 0
M  V30 8542 C 807.591 4.68814 -3.9199 0
M  V30 8543 C 808.589 4.77129 -4.88709 0
M  V30 8544 O 808.277 5.16908 -6.15679 0
M  V30 8545 H 808.009 0.629422 -0.246585 0
M  V30 8546 H 810.563 1.57839 -1.31438 0
M  V30 8547 H 808.793 3.86319 -0.171587 0
M  V30 8548 H 810.482 4.0202 -0.55992 0
M  V30 8549 H 811.248 3.78526 -3.03222 0
M  V30 8550 H 807.127 4.20861 -1.8814 0
M  V30 8551 H 810.671 4.51223 -5.32018 0
M  V30 8552 H 806.568 4.93545 -4.16033 0
M  V30 8553 H 807.336 5.3502 -6.19432 0
M  V30 8554 N 809.999 0.752036 1.385 0
M  V30 8555 C 810.949 0.0990189 2.27785 0
M  V30 8556 C 811.933 -0.694867 1.45122 0
M  V30 8557 O 813.125 -0.561077 1.67872 0
M  V30 8558 C 810.254 -0.794531 3.33979 0
M  V30 8559 C 809.34 0.00611984 4.241 0
M  V30 8560 N 809.731 1.04174 4.94956 0
M  V30 8561 C 808.029 -0.220934 4.45452 0
M  V30 8562 C 808.73 1.52601 5.61327 0
M  V30 8563 N 807.706 0.84159 5.37046 0
M  V30 8564 H 811.508 0.892208 2.8003 0
M  V30 8565 H 809.022 0.587934 1.51384 0
M  V30 8566 H 811.019 -1.27797 3.96829 0
M  V30 8567 H 809.679 -1.58669 2.83292 0
M  V30 8568 H 810.69 1.42349 4.97953 0
M  V30 8569 H 807.367 -0.986556 4.05676 0
M  V30 8570 H 808.757 2.38857 6.2801 0
M  V30 8571 N 811.477 -1.49425 0.500989 0
M  V30 8572 C 812.409 -2.27037 -0.314159 0
M  V30 8573 C 813.422 -1.33578 -0.930626 0
M  V30 8574 O 814.611 -1.58861 -0.813968 0
M  V30 8575 C 811.711 -3.05968 -1.45729 0
M  V30 8576 C 810.884 -4.27 -0.948135 0
M  V30 8577 C 809.943 -4.87977 -1.96888 0
M  V30 8578 O 808.969 -5.48044 -1.53743 0
M  V30 8579 N 810.171 -4.77627 -3.29928 0
M  V30 8580 H 812.936 -2.97634 0.351336 0
M  V30 8581 H 810.497 -1.58427 0.333536 0
M  V30 8582 H 812.489 -3.43634 -2.1377 0
M  V30 8583 H 811.059 -2.37978 -2.02695 0
M  V30 8584 H 810.279 -3.94091 -0.0926311 0
M  V30 8585 H 811.567 -5.0541 -0.586362 0
M  V30 8586 H 810.965 -4.29926 -3.67669 0
M  V30 8587 H 809.522 -5.19478 -3.93682 0
M  V30 8588 N 812.955 -0.234822 -1.55841 0
M  V30 8589 C 814.183 0.397745 -2.03041 0
M  V30 8590 C 814.598 1.52405 -1.11437 0
M  V30 8591 O 813.955 1.82061 -0.126466 0
M  V30 8592 C 814.006 0.916919 -3.49678 0
M  V30 8593 O 813.727 -0.164493 -4.37791 0
M  V30 8594 C 815.228 1.62139 -4.12584 0
M  V30 8595 H 812.448 0.0959214 -0.664108 0
M  V30 8596 H 814.992 -0.355156 -2.01392 0
M  V30 8597 H 813.147 1.62004 -3.519 0
M  V30 8598 H 813.561 0.227794 -5.24005 0
M  V30 8599 H 815.035 1.93651 -5.16917 0
M  V30 8600 H 815.512 2.53918 -3.58361 0
M  V30 8601 H 816.118 0.963145 -4.14251 0
M  V30 8602 N 814.433 1.57553 0.0384317 0
M  V30 8603 C 815.381 2.07021 1.06043 0
M  V30 8604 C 816.375 0.982078 1.38028 0
M  V30 8605 O 817.581 1.16702 1.37042 0
M  V30 8606 H 813.956 0.660522 0.359464 0
M  V30 8607 H 815.927 2.91944 0.617339 0
M  V30 8608 C 814.676 2.55734 2.35574 0
M  V30 8609 H 813.999 3.39074 2.11822 0
M  V30 8610 H 815.439 2.94066 3.05452 0
M  V30 8611 C 813.898 1.45449 3.03885 0
M  V30 8612 O 814.428 0.815402 3.93337 0
M  V30 8613 N 812.634 1.19134 2.65058 0
M  V30 8614 H 812.181 1.71288 1.92401 0
M  V30 8615 H 812.139 0.455554 3.11082 0
M  V30 8616 N 815.911 -0.310526 1.54511 0
M  V30 8617 C 817.157 -1.04846 1.73595 0
M  V30 8618 C 817.49 -1.87244 0.515118 0
M  V30 8619 O 816.765 -1.88282 -0.48786 0
M  V30 8620 C 817.048 -1.96237 3.01932 0
M  V30 8621 C 816.901 -1.17082 4.34295 0
M  V30 8622 C 818.22 -2.9556 3.26086 0
M  V30 8623 H 815.339 -0.37976 0.631626 0
M  V30 8624 H 817.981 -0.32394 1.87218 0
M  V30 8625 H 816.131 -2.58015 2.90449 0
M  V30 8626 H 817.803 -0.576643 4.57682 0
M  V30 8627 H 816.046 -0.473336 4.3121 0
M  V30 8628 H 816.717 -1.84257 5.20339 0
M  V30 8629 H 819.193 -2.43908 3.37117 0
M  V30 8630 H 818.069 -3.5668 4.17218 0
M  V30 8631 H 818.33 -3.68715 2.4393 0
M  V30 8632 N 817.389 -1.46805 -0.573248 0
M  V30 8633 C 818.321 -1.54127 -1.6964 0
M  V30 8634 C 819.334 -0.428778 -1.57052 0
M  V30 8635 O 820.523 -0.697612 -1.64303 0
M  V30 8636 C 817.623 -1.41438 -3.07975 0
M  V30 8637 C 816.796 -2.66974 -3.46474 0
M  V30 8638 C 815.855 -2.48349 -4.63906 0
M  V30 8639 O 814.881 -3.22109 -4.69292 0
M  V30 8640 N 816.083 -1.55129 -5.59388 0
M  V30 8641 H 818.848 -2.50971 -1.6381 0
M  V30 8642 H 816.409 -1.42981 -0.759479 0
M  V30 8643 H 818.401 -1.26737 -3.84343 0
M  V30 8644 H 816.971 -0.527388 -3.08119 0
M  V30 8645 H 816.191 -2.9655 -2.59715 0
M  V30 8646 H 817.479 -3.50347 -3.68964 0
M  V30 8647 H 816.877 -0.94324 -5.57781 0
M  V30 8648 H 815.434 -1.46387 -6.35149 0
M  V30 8649 N 818.867 0.818669 -1.34668 0
M  V30 8650 C 820.092 1.61193 -1.30505 0
M  V30 8651 C 820.517 1.87734 0.117341 0
M  V30 8652 O 819.875 1.45591 1.08042 0
M  V30 8653 C 819.923 2.92733 -2.1057 0
M  V30 8654 O 819.027 3.85 -1.47813 0
M  V30 8655 H 818.368 0.490085 -0.44801 0
M  V30 8656 H 820.898 1.01701 -1.77534 0
M  V30 8657 H 820.908 3.42262 -2.22082 0
M  V30 8658 H 819.583 2.7274 -3.13984 0
M  V30 8659 H 818.16 3.43525 -1.45069 0
M  V30 8660 N 820.346 1.18468 1.03938 0
M  V30 8661 C 821.592 0.982286 1.77423 0
M  V30 8662 C 821.925 -0.48679 1.88 0
M  V30 8663 O 821.2 -1.36146 1.38905 0
M  V30 8664 C 821.483 1.63929 3.20623 0
M  V30 8665 C 821.336 3.18132 3.17982 0
M  V30 8666 C 822.655 1.3536 4.18767 0
M  V30 8667 H 819.774 0.358264 0.644062 0
M  V30 8668 H 822.416 1.46154 1.21405 0
M  V30 8669 H 820.566 1.2318 3.68455 0
M  V30 8670 H 822.238 3.68024 2.78129 0
M  V30 8671 H 820.481 3.50225 2.55978 0
M  V30 8672 H 821.152 3.5924 4.19107 0
M  V30 8673 H 823.628 1.70669 3.79488 0
M  V30 8674 H 822.504 1.83896 5.17178 0
M  V30 8675 H 822.765 0.276722 4.41233 0
M  V30 8676 N 821.824 -1.22873 0.986916 0
M  V30 8677 C 822.756 -2.23889 0.490537 0
M  V30 8678 C 823.769 -1.57523 -0.411144 0
M  V30 8679 O 824.958 -1.7721 -0.214236 0
M  V30 8680 C 822.058 -3.37488 -0.30902 0
M  V30 8681 C 821.231 -4.33438 0.587354 0
M  V30 8682 C 820.29 -5.25958 -0.159467 0
M  V30 8683 O 819.316 -5.67394 0.453115 0
M  V30 8684 N 820.518 -5.62265 -1.44355 0
M  V30 8685 H 823.283 -2.67109 1.35914 0
M  V30 8686 H 820.844 -1.37111 0.860937 0
M  V30 8687 H 822.836 -3.96365 -0.817139 0
M  V30 8688 H 821.406 -2.934 -1.07868 0
M  V30 8689 H 820.626 -3.72969 1.27622 0
M  V30 8690 H 821.914 -4.94495 1.19801 0
M  V30 8691 H 821.312 -5.30562 -1.96266 0
M  V30 8692 H 819.869 -6.23585 -1.89698 0
M  V30 8693 N 823.302 -0.75937 -1.38099 0
M  V30 8694 C 824.265 -0.14372 -2.28749 0
M  V30 8695 C 825.265 0.641338 -1.47457 0
M  V30 8696 O 826.455 0.466751 -1.67831 0
M  V30 8697 C 823.587 0.804545 -3.3127 0
M  V30 8698 H 824.78 -0.942663 -2.847 0
M  V30 8699 H 822.333 -0.526757 -1.47156 0
M  V30 8700 H 823.068 1.62895 -2.80421 0
M  V30 8701 H 822.853 0.243939 -3.9134 0
M  V30 8702 H 824.343 1.23111 -3.99041 0
M  V30 8703 N 824.78 1.49157 -0.508906 0
M  V30 8704 C 825.728 2.30922 0.278906 0
M  V30 8705 C 826.722 1.39889 0.955382 0
M  V30 8706 O 827.928 1.56901 0.882169 0
M  V30 8707 H 824.303 0.744087 0.108805 0
M  V30 8708 H 826.274 2.95277 -0.430583 0
M  V30 8709 C 825.023 3.21432 1.32576 0
M  V30 8710 H 824.346 3.91413 0.814634 0
M  V30 8711 H 825.786 3.81568 1.84882 0
M  V30 8712 C 824.245 2.41583 2.34817 0
M  V30 8713 O 824.775 2.1256 3.40854 0
M  V30 8714 N 822.981 2.03462 2.07489 0
M  V30 8715 H 822.528 2.27265 1.21278 0
M  V30 8716 H 822.486 1.50345 2.76123 0
M  V30 8717 N 826.258 0.243083 1.55714 0
M  V30 8718 C 827.507 -0.383188 1.98027 0
M  V30 8719 C 827.82 -1.59347 1.13436 0
M  V30 8720 O 829.026 -2.29065 1.45745 0
M  V30 8721 C 827.482 -0.733135 3.52354 0
M  V30 8722 C 827.09 0.455539 4.45678 0
M  V30 8723 C 828.834 -1.32381 4.03331 0
M  V30 8724 C 826.741 0.0819591 5.91343 0
M  V30 8725 H 825.671 -0.146944 0.739543 0
M  V30 8726 H 828.322 0.342697 1.80272 0
M  V30 8727 H 826.704 -1.51704 3.65789 0
M  V30 8728 H 827.878 1.23291 4.44 0
M  V30 8729 H 826.193 0.960886 4.05162 0
M  V30 8730 H 828.79 -1.61658 5.09677 0
M  V30 8731 H 829.133 -2.24698 3.50452 0
M  V30 8732 H 829.666 -0.602885 3.93205 0
M  V30 8733 H 826.405 0.972171 6.48251 0
M  V30 8734 H 825.925 -0.659291 5.96166 0
M  V30 8735 H 827.604 -0.3372 6.46121 0
M  V30 8736 N 827.736 -1.57571 -0.0300757 0
M  V30 8737 C 828.699 -2.05468 -1.01565 0
M  V30 8738 C 829.699 -0.958628 -1.29101 0
M  V30 8739 O 830.889 -1.22228 -1.24121 0
M  V30 8740 C 828.021 -2.47077 -2.34874 0
M  V30 8741 H 829.214 -2.93797 -0.601936 0
M  V30 8742 H 826.767 -1.53828 -0.276878 0
M  V30 8743 H 827.502 -1.61901 -2.80996 0
M  V30 8744 H 827.287 -3.27097 -2.16218 0
M  V30 8745 H 828.777 -2.84564 -3.05635 0
M  V30 8746 N 829.214 0.302327 -1.54673 0
M  V30 8747 C 830.146 1.39443 -1.81902 0
M  V30 8748 C 831.159 1.46891 -0.701914 0
M  V30 8749 O 832.348 1.49233 -0.979369 0
M  V30 8750 C 829.448 2.77824 -1.9408 0
M  V30 8751 C 828.621 2.93324 -3.24468 0
M  V30 8752 C 827.68 4.12196 -3.27079 0
M  V30 8753 O 826.706 4.04344 -4.00617 0
M  V30 8754 N 827.908 5.22768 -2.52376 0
M  V30 8755 H 830.673 1.1644 -2.76155 0
M  V30 8756 H 828.234 0.492392 -1.54231 0
M  V30 8757 H 830.226 3.5559 -1.9323 0
M  V30 8758 H 828.796 2.9378 -1.06828 0
M  V30 8759 H 828.016 2.02682 -3.38103 0
M  V30 8760 H 829.304 3.0059 -4.10516 0
M  V30 8761 H 828.702 5.32027 -1.92259 0
M  V30 8762 H 827.259 5.98874 -2.57281 0
M  V30 8763 N 830.692 1.47107 0.565454 0
M  V30 8764 C 831.92 1.56909 1.3486 0
M  V30 8765 C 832.335 0.216312 1.87557 0
M  V30 8766 O 831.692 -0.789168 1.64555 0
M  V30 8767 C 831.743 2.58776 2.52423 0
M  V30 8768 O 831.464 3.888 2.01906 0
M  V30 8769 C 832.965 2.78683 3.44747 0
M  V30 8770 H 830.185 0.530096 0.411387 0
M  V30 8771 H 832.729 1.92658 0.685782 0
M  V30 8772 H 830.884 2.25983 3.1466 0
M  V30 8773 H 831.298 4.44393 2.78595 0
M  V30 8774 H 832.772 3.53842 4.23674 0
M  V30 8775 H 833.249 1.86208 3.97773 0
M  V30 8776 H 833.855 3.12641 2.88333 0
M  V30 8777 N 832.17 -0.811516 1.35101 0
M  V30 8778 C 833.08 -1.95475 1.29718 0
M  V30 8779 C 834.096 -1.72813 0.202909 0
M  V30 8780 O 835.272 -1.96725 0.431414 0
M  V30 8781 C 832.337 -3.29975 1.06385 0
M  V30 8782 C 831.398 -3.65566 2.25077 0
M  V30 8783 C 830.631 -4.93648 2.02848 0
M  V30 8784 O 830.854 -5.617 0.992442 0
M  V30 8785 O 829.788 -5.27384 2.90087 0
M  V30 8786 H 833.614 -2.02961 2.25921 0
M  V30 8787 H 831.199 -0.948583 1.15422 0
M  V30 8788 H 833.081 -4.10506 0.951999 0
M  V30 8789 H 831.756 -3.2343 0.132294 0
M  V30 8790 H 830.663 -2.85432 2.41825 0
M  V30 8791 H 831.996 -3.7681 3.16662 0
M  V30 8792 N 833.648 -1.19017 -1.03309 0
M  V30 8793 C 834.895 -0.990214 -1.76638 0
M  V30 8794 C 835.223 0.479435 -1.88498 0
M  V30 8795 O 834.478 1.37223 -1.39529 0
M  V30 8796 C 834.777 -1.59927 -3.19622 0
M  V30 8797 C 834.443 -3.09632 -3.27779 0
M  V30 8798 C 833.105 -3.50491 -3.29712 0
M  V30 8799 C 835.457 -4.05644 -3.27264 0
M  V30 8800 C 832.785 -4.85921 -3.28782 0
M  V30 8801 C 835.137 -5.41 -3.27875 0
M  V30 8802 C 833.801 -5.81295 -3.28104 0
M  V30 8803 H 833.071 -0.362345 -0.646364 0
M  V30 8804 H 835.718 -1.48197 -1.21284 0
M  V30 8805 H 834.023 -1.0297 -3.78027 0
M  V30 8806 H 835.72 -1.41989 -3.7502 0
M  V30 8807 H 832.31 -2.77073 -3.26999 0
M  V30 8808 H 836.494 -3.75124 -3.24955 0
M  V30 8809 H 831.75 -5.16427 -3.27281 0
M  V30 8810 H 835.924 -6.15157 -3.26428 0
M  V30 8811 H 833.551 -6.86211 -3.27138 0
M  V30 8812 N 835.127 1.22348 -0.993418 0
M  V30 8813 C 836.075 2.26315 -0.537052 0
M  V30 8814 C 837.069 1.643 0.412545 0
M  V30 8815 O 838.275 1.77729 0.285008 0
M  V30 8816 H 834.65 0.735792 -0.155286 0
M  V30 8817 H 836.621 2.62157 -1.42535 0
M  V30 8818 C 835.37 3.47449 0.132118 0
M  V30 8819 H 834.693 3.9543 -0.589519 0
M  V30 8820 H 836.133 4.21965 0.414884 0
M  V30 8821 C 834.592 3.07893 1.36761 0
M  V30 8822 O 835.122 3.17338 2.46291 0
M  V30 8823 N 833.328 2.62672 1.24305 0
M  V30 8824 H 832.875 2.55186 0.351826 0
M  V30 8825 H 832.833 2.36574 2.07076 0
M  V30 8826 N 836.605 0.766683 1.37694 0
M  V30 8827 C 837.568 0.155849 2.2867 0
M  V30 8828 C 838.568 -0.633509 1.47795 0
M  V30 8829 O 839.758 -0.457844 1.68076 0
M  V30 8830 C 836.89 -0.786965 3.31692 0
M  V30 8831 H 838.083 0.957748 2.84196 0
M  V30 8832 H 835.636 0.534554 1.46875 0
M  V30 8833 H 836.371 -1.61406 2.8128 0
M  V30 8834 H 836.156 -0.223182 3.91464 0
M  V30 8835 H 837.646 -1.20994 3.99688 0
M  V30 8836 N 838.083 -1.48885 0.516809 0
M  V30 8837 C 838.993 -2.33185 -0.257293 0
M  V30 8838 C 840.009 -1.4565 -0.951952 0
M  V30 8839 O 841.185 -1.78651 -0.929834 0
M  V30 8840 C 838.25 -3.21465 -1.29851 0
M  V30 8841 C 837.311 -4.24863 -0.615608 0
M  V30 8842 C 836.544 -5.08925 -1.60722 0
M  V30 8843 O 836.767 -4.9475 -2.83863 0
M  V30 8844 O 835.701 -5.90737 -1.15384 0
M  V30 8845 H 839.527 -3.00596 0.433131 0
M  V30 8846 H 837.112 -1.46792 0.277908 0
M  V30 8847 H 838.994 -3.76108 -1.90055 0
M  V30 8848 H 837.669 -2.5673 -1.97158 0
M  V30 8849 H 836.576 -3.74091 0.0265829 0
M  V30 8850 H 837.909 -4.92198 0.0152871 0
M  V30 8851 N 839.561 -0.251338 -1.55583 0
M  V30 8852 C 840.808 0.372169 -1.99051 0
M  V30 8853 C 841.136 1.57623 -1.13953 0
M  V30 8854 O 840.391 1.94762 -0.191398 0
M  V30 8855 C 840.69 0.821186 -3.47838 0
M  V30 8856 C 840.356 -0.275608 -4.50057 0
M  V30 8857 C 839.018 -0.57683 -4.7773 0
M  V30 8858 C 841.37 -1.01585 -5.11204 0
M  V30 8859 C 838.698 -1.62229 -5.63825 0
M  V30 8860 C 841.05 -2.05087 -5.98433 0
M  V30 8861 C 839.714 -2.35869 -6.24437 0
M  V30 8862 H 838.984 0.136186 -0.728378 0
M  V30 8863 H 841.631 -0.360089 -1.88084 0
M  V30 8864 H 839.936 1.63272 -3.56159 0
M  V30 8865 H 841.633 1.31396 -3.78861 0
M  V30 8866 H 838.223 -0.030697 -4.28589 0
M  V30 8867 H 842.407 -0.79639 -4.89869 0
M  V30 8868 H 837.663 -1.86607 -5.82226 0
M  V30 8869 H 841.837 -2.62934 -6.44855 0
M  V30 8870 H 839.464 -3.17017 -6.90944 0
M  V30 8871 N 841.039 1.57585 0.0217189 0
M  V30 8872 C 841.949 2.10444 1.03684 0
M  V30 8873 C 842.965 1.04472 1.39146 0
M  V30 8874 O 844.141 1.36249 1.48317 0
M  V30 8875 C 841.206 2.5794 2.31664 0
M  V30 8876 C 840.267 3.78425 2.02714 0
M  V30 8877 C 839.5 4.23646 3.24592 0
M  V30 8878 O 839.723 3.6834 4.35525 0
M  V30 8879 O 838.657 5.16013 3.09862 0
M  V30 8880 H 842.483 2.97354 0.617584 0
M  V30 8881 H 840.068 1.47473 0.239174 0
M  V30 8882 H 841.95 2.88785 3.06889 0
M  V30 8883 H 840.625 1.74138 2.7287 0
M  V30 8884 H 839.532 3.52587 1.25033 0
M  V30 8885 H 840.865 4.63234 1.66359 0
M  V30 8886 N 842.517 -0.29412 1.54831 0
M  V30 8887 C 843.928 -0.866651 1.65366 0
M  V30 8888 C 844.279 -1.87834 0.56681 0
M  V30 8889 O 843.404 -2.14374 -0.295389 0
M  V30 8890 C 843.999 -1.57869 2.99771 0
M  V30 8891 C 842.558 -2.09954 3.12404 0
M  V30 8892 C 841.705 -0.934492 2.6108 0
M  V30 8893 H 844.656 -0.0709551 1.58541 0
M  V30 8894 H 844.677 -2.44462 2.91579 0
M  V30 8895 H 844.189 -0.84212 3.78853 0
M  V30 8896 H 842.29 -2.86637 2.38055 0
M  V30 8897 H 842.403 -2.32934 4.18663 0
M  V30 8898 H 840.767 -1.32199 2.17705 0
M  V30 8899 H 841.55 -0.211768 3.42646 0
M  V30 8900 N 843.995 -1.47404 -0.557645 0
M  V30 8901 C 844.925 -1.62736 -1.67449 0
M  V30 8902 C 845.906 -0.476824 -1.6328 0
M  V30 8903 O 847.091 -0.706108 -1.80908 0
M  V30 8904 C 844.221 -1.641 -3.06086 0
M  V30 8905 C 843.175 -2.78377 -3.25101 0
M  V30 8906 C 842.501 -2.64812 -4.6452 0
M  V30 8907 C 843.801 -4.19971 -3.10518 0
M  V30 8908 H 845.495 -2.56232 -1.54873 0
M  V30 8909 H 843.041 -1.23312 -0.743649 0
M  V30 8910 H 844.994 -1.73417 -3.84063 0
M  V30 8911 H 843.718 -0.671652 -3.19619 0
M  V30 8912 H 842.377 -2.6857 -2.49531 0
M  V30 8913 H 842.025 -1.65906 -4.74852 0
M  V30 8914 H 841.725 -3.41477 -4.78191 0
M  V30 8915 H 843.249 -2.76057 -5.44633 0
M  V30 8916 H 844.663 -4.30757 -3.78313 0
M  V30 8917 H 843.06 -4.97419 -3.35699 0
M  V30 8918 H 844.13 -4.38369 -2.0727 0
M  V30 8919 N 845.473 0.80434 -1.35529 0
M  V30 8920 C 846.403 1.93086 -1.31301 0
M  V30 8921 C 847.384 1.69068 -0.187044 0
M  V30 8922 O 848.569 1.90399 -0.382359 0
M  V30 8923 C 845.699 3.29867 -1.0865 0
M  V30 8924 C 844.653 3.68373 -2.17911 0
M  V30 8925 C 843.979 5.0334 -1.80423 0
M  V30 8926 C 845.279 3.78516 -3.59893 0
M  V30 8927 H 846.973 1.96882 -2.25561 0
M  V30 8928 H 844.519 0.945841 -1.08581 0
M  V30 8929 H 846.472 4.08281 -1.04331 0
M  V30 8930 H 845.196 3.2642 -0.108359 0
M  V30 8931 H 843.855 2.92247 -2.21331 0
M  V30 8932 H 843.503 4.96399 -0.812213 0
M  V30 8933 H 843.203 5.30074 -2.53565 0
M  V30 8934 H 844.727 5.84191 -1.77633 0
M  V30 8935 H 846.141 4.47155 -3.58783 0
M  V30 8936 H 844.538 4.16721 -4.31814 0
M  V30 8937 H 845.608 2.8001 -3.95882 0
M  V30 8938 N 846.951 1.19563 1.02676 0
M  V30 8939 C 848.228 0.908857 1.73203 0
M  V30 8940 C 848.608 -0.584928 2.02834 0
M  V30 8941 O 847.956 -1.54372 1.68469 0
M  V30 8942 C 848.166 1.77105 3.00724 0
M  V30 8943 C 849.514 2.00667 3.7419 0
M  V30 8944 O 850.538 1.74274 3.10656 0
M  V30 8945 O 849.397 2.4518 4.88415 0
M  V30 8946 H 846.491 0.338909 0.754367 0
M  V30 8947 H 849.037 1.30387 1.08616 0
M  V30 8948 H 847.809 2.78303 2.7507 0
M  V30 8949 H 847.432 1.37546 3.73051 0
M  V30 8950 N 848.429 -1.21819 0.999893 0
M  V30 8951 C 849.706 -1.86318 0.595384 0
M  V30 8952 C 850.086 -1.8965 -0.927143 0
M  V30 8953 O 849.434 -1.3921 -1.81199 0
M  V30 8954 C 849.644 -3.26837 1.22387 0
M  V30 8955 C 850.992 -4.03272 1.32878 0
M  V30 8956 O 852.016 -3.36129 1.1788 0
M  V30 8957 O 850.875 -5.23477 1.56952 0
M  V30 8958 H 847.969 -0.801638 0.203238 0
M  V30 8959 H 850.515 -1.29542 1.09622 0
M  V30 8960 H 849.287 -3.19084 2.26497 0
M  V30 8961 H 848.91 -3.91226 0.709069 0
M  V30 8962 N 849.908 -0.773975 -1.37286 0
M  V30 8963 C 850.838 -0.175782 -2.32837 0
M  V30 8964 C 851.819 0.680603 -1.5589 0
M  V30 8965 O 853.004 0.617607 -1.84117 0
M  V30 8966 C 850.134 0.702388 -3.40123 0
M  V30 8967 C 849.088 -0.0528687 -4.27967 0
M  V30 8968 C 848.414 0.944891 -5.26285 0
M  V30 8969 C 849.714 -1.23316 -5.07534 0
M  V30 8970 H 851.408 -0.974016 -2.83114 0
M  V30 8971 H 848.954 -0.469826 -1.3612 0
M  V30 8972 H 850.907 1.13069 -4.05947 0
M  V30 8973 H 849.631 1.53316 -2.88378 0
M  V30 8974 H 848.29 -0.461978 -3.63678 0
M  V30 8975 H 847.938 1.77028 -4.70819 0
M  V30 8976 H 847.638 0.444079 -5.8592 0
M  V30 8977 H 849.162 1.37209 -5.94984 0
M  V30 8978 H 850.576 -0.881395 -5.66484 0
M  V30 8979 H 848.973 -1.66621 -5.76504 0
M  V30 8980 H 850.043 -2.03617 -4.40077 0
M  V30 8981 N 851.386 1.48609 -0.524698 0
M  V30 8982 C 852.316 2.32366 0.229837 0
M  V30 8983 C 853.297 1.41759 0.940129 0
M  V30 8984 O 854.482 1.7065 0.926936 0
M  V30 8985 C 851.612 3.22835 1.28043 0
M  V30 8986 C 850.566 4.22424 0.688603 0
M  V30 8987 C 849.892 5.0199 1.84146 0
M  V30 8988 C 851.192 5.21217 -0.336176 0
M  V30 8989 H 852.886 2.95698 -0.469339 0
M  V30 8990 H 850.432 1.42197 -0.227156 0
M  V30 8991 H 852.385 3.80253 1.8162 0
M  V30 8992 H 851.109 2.57492 2.00912 0
M  V30 8993 H 849.768 3.66185 0.174402 0
M  V30 8994 H 849.416 4.33076 2.5584 0
M  V30 8995 H 849.116 5.69392 1.45142 0
M  V30 8996 H 850.64 5.62259 2.38111 0
M  V30 8997 H 852.054 5.7319 0.112307 0
M  V30 8998 H 850.451 5.96642 -0.643324 0
M  V30 8999 H 851.521 4.68676 -1.24381 0
M  V30 9000 N 852.864 0.259585 1.55447 0
M  V30 9001 C 854.092 -0.365392 2.03648 0
M  V30 9002 C 854.507 -1.50613 1.13847 0
M  V30 9003 O 853.864 -1.81837 0.155414 0
M  V30 9004 C 853.915 -0.861172 3.51093 0
M  V30 9005 O 853.636 0.234121 4.37474 0
M  V30 9006 C 855.137 -1.55555 4.15111 0
M  V30 9007 H 852.357 -0.0853439 0.66555 0
M  V30 9008 H 854.901 0.387151 2.00802 0
M  V30 9009 H 853.056 -1.56385 3.54433 0
M  V30 9010 H 853.47 -0.1444 5.24301 0
M  V30 9011 H 854.944 -1.85403 5.19932 0
M  V30 9012 H 855.421 -2.48185 3.62355 0
M  V30 9013 H 856.027 -0.89712 4.15731 0
M  V30 9014 N 854.342 -1.57594 -0.0133615 0
M  V30 9015 C 855.591 -1.8916 -0.700103 0
M  V30 9016 C 855.904 -0.860147 -1.75673 0
M  V30 9017 O 857.11 -1.06556 -2.49716 0
M  V30 9018 C 855.566 -3.35742 -1.29635 0
M  V30 9019 C 855.174 -4.47154 -0.275249 0
M  V30 9020 C 856.918 -3.76436 -1.96205 0
M  V30 9021 C 854.825 -5.84805 -0.880726 0
M  V30 9022 H 853.755 -0.705805 -0.265247 0
M  V30 9023 H 856.406 -1.83445 0.044993 0
M  V30 9024 H 854.788 -3.36252 -2.09167 0
M  V30 9025 H 855.962 -4.58139 0.494506 0
M  V30 9026 H 854.277 -4.15394 0.289256 0
M  V30 9027 H 856.874 -4.76606 -2.42386 0
M  V30 9028 H 857.217 -3.09249 -2.78695 0
M  V30 9029 H 857.75 -3.78168 -1.23426 0
M  V30 9030 H 854.489 -6.55431 -0.0949013 0
M  V30 9031 H 854.009 -5.7751 -1.61995 0
M  V30 9032 H 855.688 -6.32038 -1.38338 0
M  V30 9033 N 855.82 0.285905 -1.54985 0
M  V30 9034 C 857.231 0.857869 -1.65824 0
M  V30 9035 C 857.582 1.87531 -0.576763 0
M  V30 9036 O 856.707 2.14528 0.284016 0
M  V30 9037 C 857.302 1.56277 -3.00604 0
M  V30 9038 C 855.861 2.08294 -3.13513 0
M  V30 9039 C 855.008 0.920633 -2.61571 0
M  V30 9040 H 857.959 0.0625463 -1.58577 0
M  V30 9041 H 857.98 2.42912 -2.92872 0
M  V30 9042 H 857.492 0.822017 -3.79295 0
M  V30 9043 H 855.593 2.8537 -2.39572 0
M  V30 9044 H 855.706 2.3071 -4.19892 0
M  V30 9045 H 854.07 1.31043 -2.18403 0
M  V30 9046 H 854.853 0.193594 -3.42754 0
M  V30 9047 N 857.298 1.47698 0.54982 0
M  V30 9048 C 858.544 1.54931 1.30859 0
M  V30 9049 C 858.877 0.214021 1.93017 0
M  V30 9050 O 858.152 -0.778093 1.78258 0
M  V30 9051 C 858.435 2.67286 2.41309 0
M  V30 9052 C 858.288 4.10457 1.83971 0
M  V30 9053 C 859.607 2.75509 3.43195 0
M  V30 9054 H 856.726 0.56399 0.474431 0
M  V30 9055 H 859.368 1.79787 0.614541 0
M  V30 9056 H 857.518 2.46224 3.0051 0
M  V30 9057 H 859.19 4.42903 1.28974 0
M  V30 9058 H 857.433 4.18387 1.14606 0
M  V30 9059 H 858.104 4.84857 2.63851 0
M  V30 9060 H 860.58 2.94531 2.93923 0
M  V30 9061 H 859.456 3.55886 4.17895 0
M  V30 9062 H 859.717 1.82863 4.02509 0
M  V30 9063 N 858.776 -0.797141 1.35954 0
M  V30 9064 C 859.739 -1.89104 1.29508 0
M  V30 9065 C 860.739 -1.59495 0.204444 0
M  V30 9066 O 861.929 -1.68051 0.458746 0
M  V30 9067 C 859.061 -3.25726 1.00576 0
M  V30 9068 H 860.254 -1.96237 2.26785 0
M  V30 9069 H 857.807 -0.994075 1.20614 0
M  V30 9070 H 858.542 -3.24279 0.0372519 0
M  V30 9071 H 858.327 -3.48604 1.79492 0
M  V30 9072 H 859.817 -4.0578 0.986508 0
M  V30 9073 N 860.254 -1.20106 -1.0204 0
M  V30 9074 C 861.164 -0.962051 -2.13967 0
M  V30 9075 C 862.18 0.0808053 -1.73812 0
M  V30 9076 O 863.356 -0.105774 -2.01122 0
M  V30 9077 C 860.421 -0.513108 -3.42882 0
M  V30 9078 C 859.482 -1.62636 -3.97301 0
M  V30 9079 C 858.715 -1.19875 -5.20063 0
M  V30 9080 O 858.938 -0.0658423 -5.70362 0
M  V30 9081 O 857.872 -2.00467 -5.67536 0
M  V30 9082 H 861.698 -1.8991 -2.36998 0
M  V30 9083 H 859.283 -0.984608 -1.12365 0
M  V30 9084 H 861.165 -0.271797 -4.20523 0
M  V30 9085 H 859.84 0.395402 -3.21276 0
M  V30 9086 H 858.747 -1.92192 -3.20957 0
M  V30 9087 H 860.08 -2.51174 -4.23288 0
M  V30 9088 N 861.732 1.21287 -1.00634 0
M  V30 9089 C 862.68 2.25733 -0.561026 0
M  V30 9090 C 863.674 1.64728 0.395095 0
M  V30 9091 O 864.88 1.78022 0.266141 0
M  V30 9092 H 861.255 0.734104 -0.163081 0
M  V30 9093 H 863.226 2.60631 -1.45307 0
M  V30 9094 C 861.975 3.47569 0.0952587 0
M  V30 9095 H 861.298 3.94782 -0.631427 0
M  V30 9096 H 862.738 4.22382 0.370105 0
M  V30 9097 C 861.197 3.09326 1.33488 0
M  V30 9098 O 861.727 3.19933 2.42912 0
M  V30 9099 N 859.933 2.63976 1.21512 0
M  V30 9100 H 859.48 2.55545 0.324741 0
M  V30 9101 H 859.438 2.38757 2.04555 0
M  V30 9102 N 863.21 0.781244 1.36873 0
M  V30 9103 C 864.173 0.180094 2.28491 0
M  V30 9104 C 865.173 -0.617798 1.48458 0
M  V30 9105 O 866.363 -0.439991 1.68552 0
M  V30 9106 C 863.495 -0.751741 3.32508 0
M  V30 9107 H 864.688 0.987837 2.83164 0
M  V30 9108 H 862.241 0.550102 1.463 0
M  V30 9109 H 862.976 -1.58413 2.82977 0
M  V30 9110 H 862.761 -0.181649 3.91679 0
M  V30 9111 H 864.251 -1.16748 4.00949 0
M  V30 9112 N 864.689 -1.48329 0.532571 0
M  V30 9113 C 865.637 -2.31336 -0.242133 0
M  V30 9114 C 866.631 -1.41391 -0.933006 0
M  V30 9115 O 867.837 -1.58284 -0.857096 0
M  V30 9116 H 864.212 -0.745724 -0.0969536 0
M  V30 9117 H 866.183 -2.94555 0.477504 0
M  V30 9118 C 864.932 -3.23501 -1.27446 0
M  V30 9119 H 864.255 -3.92659 -0.752261 0
M  V30 9120 H 865.695 -3.84461 -1.78789 0
M  V30 9121 C 864.154 -2.45288 -2.30944 0
M  V30 9122 O 864.684 -2.17955 -3.37429 0
M  V30 9123 N 862.89 -2.06737 -2.04226 0
M  V30 9124 H 862.437 -2.29166 -1.17647 0
M  V30 9125 H 862.395 -1.54719 -2.73696 0
M  V30 9126 N 866.167 -0.267825 -1.55308 0
M  V30 9127 C 867.413 0.34458 -2.0046 0
M  V30 9128 C 867.768 1.54028 -1.15296 0
M  V30 9129 O 867.061 1.90409 -0.213316 0
M  V30 9130 C 867.255 0.784247 -3.48689 0
M  V30 9131 C 867.084 -0.367304 -4.48197 0
M  V30 9132 C 865.854 -0.848746 -4.98121 0
M  V30 9133 C 868.052 -1.20136 -5.00072 0
M  V30 9134 N 866.034 -1.97052 -5.81415 0
M  V30 9135 C 867.405 -2.17115 -5.80742 0
M  V30 9136 C 869.46 -1.23553 -4.82327 0
M  V30 9137 C 868.163 -3.17248 -6.45559 0
M  V30 9138 C 870.189 -2.22527 -5.47938 0
M  V30 9139 C 869.551 -3.1824 -6.28413 0
M  V30 9140 H 865.65 0.091465 -0.776633 0
M  V30 9141 H 868.234 -0.390184 -1.9075 0
M  V30 9142 H 866.405 1.48825 -3.58756 0
M  V30 9143 H 868.137 1.37337 -3.80684 0
M  V30 9144 H 864.892 -0.429291 -4.7165 0
M  V30 9145 H 865.316 -2.53481 -6.27755 0
M  V30 9146 H 869.958 -0.50937 -4.1972 0
M  V30 9147 H 867.676 -3.90801 -7.07319 0
M  V30 9148 H 871.262 -2.25904 -5.36152 0
M  V30 9149 H 870.142 -3.93573 -6.78285 0
M  V30 9150 N 867.645 1.57599 0.00500368 0
M  V30 9151 C 868.87 1.95026 0.705663 0
M  V30 9152 C 869.295 0.869643 1.6679 0
M  V30 9153 O 868.653 -0.172659 1.80476 0
M  V30 9154 C 868.701 3.31545 1.4181 0
M  V30 9155 O 867.805 3.25495 2.53232 0
M  V30 9156 H 867.146 0.636808 0.188074 0
M  V30 9157 H 869.676 2.04547 -0.046696 0
M  V30 9158 H 869.686 3.66996 1.78265 0
M  V30 9159 H 868.361 4.09751 0.712543 0
M  V30 9160 H 866.938 3.01714 2.19142 0
M  V30 9161 N 869.123 -0.277682 1.55134 0
M  V30 9162 C 870.086 -1.32635 1.86924 0
M  V30 9163 C 871.086 -1.42578 0.743507 0
M  V30 9164 O 872.276 -1.4181 1.01171 0
M  V30 9165 C 869.408 -2.70832 2.07034 0
M  V30 9166 H 870.601 -1.0568 2.80663 0
M  V30 9167 H 868.154 -0.515517 1.47554 0
M  V30 9168 H 868.889 -3.02974 1.15661 0
M  V30 9169 H 868.674 -2.65001 2.88993 0
M  V30 9170 H 870.164 -3.46611 2.32918 0
M  V30 9171 N 870.601 -1.47988 -0.541979 0
M  V30 9172 C 871.533 -1.5769 -1.66332 0
M  V30 9173 C 872.546 -0.461994 -1.56107 0
M  V30 9174 O 873.735 -0.732306 -1.62787 0
M  V30 9175 C 870.835 -1.47939 -3.04905 0
M  V30 9176 C 870.008 -2.74263 -3.40733 0
M  V30 9177 C 869.067 -2.58133 -4.58534 0
M  V30 9178 O 868.093 -3.31991 -4.62354 0
M  V30 9179 N 869.295 -1.6696 -5.55972 0
M  V30 9180 H 872.06 -2.54389 -1.5845 0
M  V30 9181 H 869.621 -1.4456 -0.728979 0
M  V30 9182 H 871.613 -1.34861 -3.81569 0
M  V30 9183 H 870.183 -0.592626 -3.06931 0
M  V30 9184 H 869.403 -3.01992 -2.53366 0
M  V30 9185 H 870.691 -3.58094 -3.6145 0
M  V30 9186 H 870.089 -1.06134 -5.55655 0
M  V30 9187 H 868.646 -1.59826 -6.31901 0
M  V30 9188 N 872.079 0.78992 -1.36375 0
M  V30 9189 C 872.989 1.93386 -1.32812 0
M  V30 9190 C 874.005 1.72468 -0.230377 0
M  V30 9191 O 875.181 1.96014 -0.462657 0
M  V30 9192 C 872.246 3.2824 -1.11621 0
M  V30 9193 C 871.307 3.61939 -2.30865 0
M  V30 9194 C 870.54 4.90359 -2.10675 0
M  V30 9195 O 870.763 5.6005 -1.08168 0
M  V30 9196 O 869.697 5.22702 -2.9844 0
M  V30 9197 H 873.523 1.99342 -2.29121 0
M  V30 9198 H 871.108 0.9301 -1.16917 0
M  V30 9199 H 872.99 4.08939 -1.01719 0
M  V30 9200 H 871.665 3.23178 -0.183732 0
M  V30 9201 H 870.572 2.81549 -2.46335 0
M  V30 9202 H 871.905 3.71725 -3.22617 0
M  V30 9203 N 873.557 1.20646 1.01402 0
M  V30 9204 C 874.806 1.01242 1.7445 0
M  V30 9205 C 875.119 -0.455732 1.90217 0
M  V30 9206 O 876.325 -0.768951 2.60383 0
M  V30 9207 C 874.781 1.76275 3.13776 0
M  V30 9208 C 874.389 3.27201 3.06013 0
M  V30 9209 C 876.133 1.65248 3.91016 0
M  V30 9210 C 874.04 3.9476 4.40362 0
M  V30 9211 H 872.97 0.375202 0.654018 0
M  V30 9212 H 875.621 1.44292 1.13367 0
M  V30 9213 H 874.003 1.26013 3.75415 0
M  V30 9214 H 875.177 3.84695 2.53665 0
M  V30 9215 H 873.492 3.38669 2.42265 0
M  V30 9216 H 876.089 2.13061 4.90417 0
M  V30 9217 H 876.432 0.609128 4.1182 0
M  V30 9218 H 876.965 2.12937 3.3601 0
M  V30 9219 H 873.704 4.99258 4.24761 0
M  V30 9220 H 873.224 3.42054 4.92706 0
M  V30 9221 H 874.903 3.99159 5.09196 0
M  V30 9222 N 875.035 -1.20752 1.01276 0
M  V30 9223 C 875.967 -2.22798 0.537917 0
M  V30 9224 C 876.98 -1.5836 -0.377638 0
M  V30 9225 O 878.169 -1.77624 -0.176599 0
M  V30 9226 C 875.269 -3.38068 -0.237364 0
M  V30 9227 C 874.442 -4.32095 0.679161 0
M  V30 9228 C 873.501 -5.26178 -0.0478676 0
M  V30 9229 O 872.527 -5.66305 0.573366 0
M  V30 9230 N 873.729 -5.65201 -1.32396 0
M  V30 9231 H 876.494 -2.64166 1.4155 0
M  V30 9232 H 874.055 -1.35254 0.889826 0
M  V30 9233 H 876.047 -3.98009 -0.73288 0
M  V30 9234 H 874.617 -2.95622 -1.0162 0
M  V30 9235 H 873.837 -3.70179 1.35505 0
M  V30 9236 H 875.125 -4.91842 1.30263 0
M  V30 9237 H 874.523 -5.34606 -1.84968 0
M  V30 9238 H 873.08 -6.27468 -1.76428 0
M  V30 9239 N 876.513 -0.788492 -1.36457 0
M  V30 9240 C 877.445 -0.144208 -2.28746 0
M  V30 9241 C 878.458 0.646009 -1.49434 0
M  V30 9242 O 879.647 0.481344 -1.71888 0
M  V30 9243 C 876.747 0.818869 -3.28858 0
M  V30 9244 C 875.92 0.0789055 -4.37329 0
M  V30 9245 C 874.979 0.957791 -5.1741 0
M  V30 9246 O 874.005 0.415378 -5.67682 0
M  V30 9247 N 875.207 2.28216 -5.33758 0
M  V30 9248 H 877.972 -0.936949 -2.84678 0
M  V30 9249 H 875.533 -0.642317 -1.48613 0
M  V30 9250 H 877.525 1.41065 -3.79319 0
M  V30 9251 H 876.095 1.51249 -2.73573 0
M  V30 9252 H 875.315 -0.693939 -3.88044 0
M  V30 9253 H 876.603 -0.431753 -5.06965 0
M  V30 9254 H 876.001 2.747 -4.94527 0
M  V30 9255 H 874.558 2.8236 -5.87466 0
M  V30 9256 N 877.991 1.48044 -0.54043 0
M  V30 9257 C 878.901 2.33565 0.220163 0
M  V30 9258 C 879.917 1.47146 0.928659 0
M  V30 9259 O 881.093 1.80107 0.901295 0
M  V30 9260 C 878.158 3.2349 1.2472 0
M  V30 9261 C 877.219 4.25789 0.547938 0
M  V30 9262 C 876.452 5.11417 1.52605 0
M  V30 9263 O 876.675 4.99204 2.75956 0
M  V30 9264 O 875.609 5.92498 1.05972 0
M  V30 9265 H 879.435 2.99868 -0.480898 0
M  V30 9266 H 877.02 1.46332 -0.301226 0
M  V30 9267 H 878.902 3.79084 1.84047 0
M  V30 9268 H 877.577 2.59835 1.93048 0
M  V30 9269 H 876.484 3.74001 -0.0860941 0
M  V30 9270 H 877.817 4.92111 -0.0935896 0
M  V30 9271 N 879.47 0.276058 1.55163 0
M  V30 9272 C 880.4 -0.604633 2.25536 0
M  V30 9273 C 881.381 -1.15813 1.24585 0
M  V30 9274 O 882.566 -1.1921 1.53306 0
M  V30 9275 C 879.696 -1.78836 2.97716 0
M  V30 9276 C 878.65 -1.36635 4.05604 0
M  V30 9277 C 877.976 -2.63325 4.65364 0
M  V30 9278 C 879.276 -0.515858 5.19746 0
M  V30 9279 H 880.97 -0.0177483 2.99395 0
M  V30 9280 H 878.516 -0.00709627 1.43998 0
M  V30 9281 H 880.469 -2.41036 3.45658 0
M  V30 9282 H 879.193 -2.40109 2.21394 0
M  V30 9283 H 877.852 -0.767541 3.58475 0
M  V30 9284 H 877.5 -3.22858 3.85709 0
M  V30 9285 H 877.2 -2.358 5.38212 0
M  V30 9286 H 878.724 -3.26372 5.16056 0
M  V30 9287 H 880.138 -1.04289 5.63735 0
M  V30 9288 H 878.535 -0.335449 5.99162 0
M  V30 9289 H 879.605 0.465137 4.82664 0
M  V30 9290 N 880.948 -1.576 0.00335426 0
M  V30 9291 C 882.225 -1.81945 -0.718015 0
M  V30 9292 C 882.605 -0.881788 -1.91801 0
M  V30 9293 O 881.953 0.0687118 -2.28397 0
M  V30 9294 C 882.163 -3.30521 -1.12058 0
M  V30 9295 C 883.511 -3.96345 -1.52303 0
M  V30 9296 O 884.535 -3.34864 -1.21428 0
M  V30 9297 O 883.394 -5.04655 -2.09728 0
M  V30 9298 H 880.488 -0.749328 -0.34991 0
M  V30 9299 H 883.034 -1.69675 0.0290654 0
M  V30 9300 H 881.806 -3.90399 -0.265378 0
M  V30 9301 H 881.429 -3.47802 -1.92665 0
M  V30 9302 N 882.426 0.269451 -1.5528 0
M  V30 9303 C 883.374 1.35303 -1.89198 0
M  V30 9304 C 884.368 1.50956 -0.768671 0
M  V30 9305 O 885.574 1.52699 -0.953054 0
M  V30 9306 H 881.949 0.452591 -0.600554 0
M  V30 9307 H 883.92 1.03949 -2.79709 0
M  V30 9308 C 882.669 2.70585 -2.18356 0
M  V30 9309 H 881.992 2.59332 -3.04281 0
M  V30 9310 H 883.432 3.45335 -2.46007 0
M  V30 9311 C 881.891 3.21954 -0.992327 0
M  V30 9312 O 882.421 4.01048 -0.228769 0
M  V30 9313 N 880.627 2.79682 -0.789062 0
M  V30 9314 H 880.174 2.15475 -1.41167 0
M  V30 9315 H 880.132 3.14399 0.00634776 0
M  V30 9316 N 883.904 1.48273 0.534124 0
M  V30 9317 C 884.852 1.62926 1.66005 0
M  V30 9318 C 885.846 0.495814 1.61982 0
M  V30 9319 O 887.052 0.6744 1.66889 0
M  V30 9320 H 883.427 0.513163 0.549698 0
M  V30 9321 H 885.398 2.57498 1.50789 0
M  V30 9322 C 884.147 1.68231 3.04292 0
M  V30 9323 H 883.47 2.54807 3.0808 0
M  V30 9324 H 884.91 1.82528 3.827 0
M  V30 9325 C 883.369 0.420154 3.3427 0
M  V30 9326 O 883.899 -0.468769 3.98955 0
M  V30 9327 N 882.105 0.293115 2.89118 0
M  V30 9328 H 881.652 1.01745 2.36655 0
M  V30 9329 H 881.61 -0.550376 3.09545 0
M  V30 9330 N 885.382 -0.782676 1.36792 0
M  V30 9331 C 886.628 -1.54311 1.3159 0
M  V30 9332 C 886.961 -1.93928 -0.102696 0
M  V30 9333 O 886.236 -1.63233 -1.05761 0
M  V30 9334 C 886.519 -2.81561 2.24489 0
M  V30 9335 C 886.372 -2.48268 3.75078 0
M  V30 9336 C 887.691 -3.83428 2.16034 0
M  V30 9337 H 884.81 -0.559828 0.479335 0
M  V30 9338 H 887.452 -0.898717 1.67401 0
M  V30 9339 H 885.602 -3.36549 1.9408 0
M  V30 9340 H 887.274 -1.99279 4.16036 0
M  V30 9341 H 885.517 -1.81116 3.94182 0
M  V30 9342 H 886.188 -3.39183 4.35499 0
M  V30 9343 H 888.664 -3.37905 2.42815 0
M  V30 9344 H 887.54 -4.70204 2.83194 0
M  V30 9345 H 887.801 -4.26887 1.14976 0
M  V30 9346 N 886.86 -1.21182 -1.00761 0
M  V30 9347 C 887.792 -0.926523 -2.09638 0
M  V30 9348 C 888.805 0.0892511 -1.62555 0
M  V30 9349 O 889.994 -0.142915 -1.77927 0
M  V30 9350 C 887.094 -0.369175 -3.36883 0
M  V30 9351 C 886.267 -1.43866 -4.13063 0
M  V30 9352 C 885.326 -0.891015 -5.18601 0
M  V30 9353 O 884.352 -1.57384 -5.47009 0
M  V30 9354 N 885.554 0.295057 -5.7975 0
M  V30 9355 H 888.319 -1.8638 -2.34697 0
M  V30 9356 H 885.88 -1.11671 -1.17223 0
M  V30 9357 H 887.872 0.011534 -4.04698 0
M  V30 9358 H 886.442 0.472861 -3.09003 0
M  V30 9359 H 885.662 -1.99332 -3.40089 0
M  V30 9360 H 886.95 -2.15866 -4.60738 0
M  V30 9361 H 886.348 0.8669 -5.59018 0
M  V30 9362 H 884.905 0.617306 -6.4887 0
M  V30 9363 N 888.338 1.20213 -1.01915 0
M  V30 9364 C 889.586 1.89272 -0.708552 0
M  V30 9365 C 889.907 1.79394 0.76438 0
M  V30 9366 O 889.177 1.198 1.54999 0
M  V30 9367 H 887.757 0.700628 -0.259094 0
M  V30 9368 H 890.419 1.45985 -1.29129 0
M  V30 9369 H 889.515 2.95841 -0.994215 0
M  V30 9370 N 889.816 0.795718 1.36037 0
M  V30 9371 C 891.065 0.367575 1.98322 0
M  V30 9372 C 891.378 -1.06823 1.63854 0
M  V30 9373 O 892.584 -1.59895 2.19421 0
M  V30 9374 C 891.04 0.606272 3.54757 0
M  V30 9375 C 890.648 2.0539 3.98144 0
M  V30 9376 C 892.392 0.242947 4.23804 0
M  V30 9377 C 890.299 2.23893 5.47381 0
M  V30 9378 H 889.229 0.133699 0.742052 0
M  V30 9379 H 891.88 0.978242 1.5525 0
M  V30 9380 H 890.262 -0.0741957 3.9593 0
M  V30 9381 H 891.436 2.77129 3.68152 0
M  V30 9382 H 889.751 2.37607 3.41953 0
M  V30 9383 H 892.348 0.359382 5.33491 0
M  V30 9384 H 892.691 -0.809661 4.08351 0
M  V30 9385 H 893.224 0.876899 3.88015 0
M  V30 9386 H 889.963 3.27559 5.6779 0
M  V30 9387 H 889.483 1.56666 5.78978 0
M  V30 9388 H 891.162 2.04914 6.13693 0
M  V30 9389 N 891.294 -1.47756 0.548274 0
M  V30 9390 C 892.224 -2.32702 -0.19284 0
M  V30 9391 C 893.205 -1.43237 -0.917457 0
M  V30 9392 O 894.39 -1.72103 -0.89967 0
M  V30 9393 C 891.52 -3.24831 -1.22891 0
M  V30 9394 C 890.474 -4.23466 -0.621312 0
M  V30 9395 C 889.8 -5.04856 -1.76137 0
M  V30 9396 C 891.1 -5.20616 0.419055 0
M  V30 9397 H 892.794 -2.94914 0.516323 0
M  V30 9398 H 890.34 -1.41818 0.24975 0
M  V30 9399 H 892.293 -3.83094 -1.75547 0
M  V30 9400 H 891.017 -2.60656 -1.9679 0
M  V30 9401 H 889.676 -3.66416 -0.116123 0
M  V30 9402 H 889.324 -4.37091 -2.48918 0
M  V30 9403 H 889.024 -5.71629 -1.36065 0
M  V30 9404 H 890.548 -5.65976 -2.29136 0
M  V30 9405 H 891.962 -5.73296 -0.0211034 0
M  V30 9406 H 890.359 -5.95543 0.738163 0
M  V30 9407 H 891.429 -4.66638 1.31822 0
M  V30 9408 N 892.772 -0.284283 -1.55015 0
M  V30 9409 C 894.02 0.329212 -1.99401 0
M  V30 9410 C 894.341 1.55687 -1.17416 0
M  V30 9411 O 893.611 1.94087 -0.265937 0
M  V30 9412 H 892.191 0.12463 -0.73653 0
M  V30 9413 H 894.853 -0.391743 -1.90922 0
M  V30 9414 H 893.949 0.61278 -3.06025 0
M  V30 9415 N 894.251 1.57596 -0.0117121 0
M  V30 9416 C 895.481 1.95077 0.680346 0
M  V30 9417 C 895.889 0.885793 1.67184 0
M  V30 9418 O 895.232 -0.142723 1.83145 0
M  V30 9419 C 895.294 3.28611 1.45791 0
M  V30 9420 C 894.958 4.52682 0.626706 0
M  V30 9421 C 895.955 5.19821 -0.0906223 0
M  V30 9422 C 893.64 4.99064 0.569229 0
M  V30 9423 C 895.634 6.31649 -0.854289 0
M  V30 9424 C 893.321 6.10779 -0.198155 0
M  V30 9425 C 894.319 6.76929 -0.908636 0
M  V30 9426 O 894.007 7.86501 -1.66348 0
M  V30 9427 H 893.739 0.647663 0.193672 0
M  V30 9428 H 896.293 2.05305 -0.0624969 0
M  V30 9429 H 894.523 3.14824 2.2455 0
M  V30 9430 H 896.212 3.51119 2.03642 0
M  V30 9431 H 896.978 4.84968 -0.0554421 0
M  V30 9432 H 892.857 4.47393 1.11178 0
M  V30 9433 H 896.401 6.83215 -1.40937 0
M  V30 9434 H 892.298 6.45072 -0.235114 0
M  V30 9435 H 893.066 8.03078 -1.58141 0
M  V30 9436 N 895.729 -0.261212 1.5542 0
M  V30 9437 C 896.975 -0.992699 1.76843 0
M  V30 9438 C 897.308 -1.8551 0.574428 0
M  V30 9439 O 896.583 -1.89739 -0.427713 0
M  V30 9440 C 896.866 -1.86532 3.08022 0
M  V30 9441 C 896.719 -1.03206 4.378 0
M  V30 9442 C 898.038 -2.85036 3.35324 0
M  V30 9443 H 895.157 -0.359473 0.643388 0
M  V30 9444 H 897.799 -0.264214 1.88154 0
M  V30 9445 H 895.949 -2.48644 2.9851 0
M  V30 9446 H 897.621 -0.430743 4.59285 0
M  V30 9447 H 895.864 -0.335911 4.32497 0
M  V30 9448 H 896.535 -1.6761 5.25938 0
M  V30 9449 H 899.011 -2.3306 3.44706 0
M  V30 9450 H 897.887 -3.43226 4.28354 0
M  V30 9451 H 898.148 -3.60768 2.55537 0
M  V30 9452 N 897.207 -1.48554 -0.526253 0
M  V30 9453 C 898.453 -1.56994 -1.28378 0
M  V30 9454 C 898.786 -0.244701 -1.92652 0
M  V30 9455 O 898.061 0.749636 -1.79473 0
M  V30 9456 C 898.344 -2.71092 -2.37026 0
M  V30 9457 C 898.197 -4.13331 -1.77418 0
M  V30 9458 C 899.516 -2.80934 -3.38769 0
M  V30 9459 H 896.635 -0.571466 -0.465398 0
M  V30 9460 H 899.277 -1.80742 -0.585861 0
M  V30 9461 H 897.427 -2.50973 -2.96555 0
M  V30 9462 H 899.099 -4.44899 -1.21912 0
M  V30 9463 H 897.342 -4.20158 -1.07936 0
M  V30 9464 H 898.013 -4.88994 -2.56104 0
M  V30 9465 H 900.489 -2.9917 -2.892 0
M  V30 9466 H 899.365 -3.62489 -4.12181 0
M  V30 9467 H 899.626 -1.89244 -3.99549 0
M  V30 9468 N 898.685 0.775411 -1.37205 0
M  V30 9469 C 900.101 1.07546 -1.17924 0
M  V30 9470 C 900.301 2.01496 -0.0128897 0
M  V30 9471 O 899.357 2.44039 0.64816 0
M  V30 9472 C 900.67 1.67647 -2.49629 0
M  V30 9473 C 902.218 1.79923 -2.56119 0
M  V30 9474 C 902.693 2.43438 -3.87946 0
M  V30 9475 N 904.184 2.50893 -3.89368 0
M  V30 9476 C 904.919 3.00881 -4.88117 0
M  V30 9477 N 904.415 3.5107 -5.97262 0
M  V30 9478 N 906.208 2.99722 -4.75524 0
M  V30 9479 H 898.359 0.151524 -2.11859 0
M  V30 9480 H 900.622 0.129845 -0.939066 0
M  V30 9481 H 900.328 1.06082 -3.3532 0
M  V30 9482 H 900.202 2.66988 -2.66453 0
M  V30 9483 H 902.589 2.40621 -1.70838 0
M  V30 9484 H 902.67 0.793482 -2.43182 0
M  V30 9485 H 902.314 1.8338 -4.73639 0
M  V30 9486 H 902.244 3.44611 -3.98184 0
M  V30 9487 H 904.735 2.1537 -3.10522 0
M  V30 9488 H 905.048 3.87604 -6.68568 0
M  V30 9489 H 903.393 3.49184 -6.00912 0
M  V30 9490 H 906.584 2.5981 -3.8938 0
M  V30 9491 H 906.757 3.38369 -5.52639 0
M  V30 9492 N 900.163 1.21714 1.00117 0
M  V30 9493 C 901.409 1.04829 1.74306 0
M  V30 9494 C 901.764 -0.413387 1.87907 0
M  V30 9495 O 901.057 -1.30258 1.40512 0
M  V30 9496 C 901.251 1.68345 3.15269 0
M  V30 9497 C 901.08 3.20537 3.15414 0
M  V30 9498 C 899.85 3.896 3.21776 0
M  V30 9499 C 902.048 4.17576 3.00224 0
M  V30 9500 N 900.03 5.28949 3.11587 0
M  V30 9501 C 901.401 5.43701 2.97974 0
M  V30 9502 C 903.456 4.08575 2.84554 0
M  V30 9503 C 902.159 6.61861 2.8166 0
M  V30 9504 C 904.185 5.26375 2.69598 0
M  V30 9505 C 903.547 6.51414 2.68028 0
M  V30 9506 H 899.646 0.437964 0.647852 0
M  V30 9507 H 902.23 1.54128 1.18965 0
M  V30 9508 H 900.401 1.21607 3.68872 0
M  V30 9509 H 902.133 1.44629 3.77974 0
M  V30 9510 H 898.888 3.40548 3.29126 0
M  V30 9511 H 899.312 6.01945 3.09825 0
M  V30 9512 H 903.954 3.12696 2.84571 0
M  V30 9513 H 901.672 7.57896 2.8039 0
M  V30 9514 H 905.258 5.21235 2.58468 0
M  V30 9515 H 904.138 7.41033 2.56593 0
M  V30 9516 N 901.641 -1.19671 1.02551 0
M  V30 9517 C 902.887 -1.89548 0.721069 0
M  V30 9518 C 903.22 -1.79209 -0.748176 0
M  V30 9519 O 902.495 -1.1822 -1.54448 0
M  V30 9520 C 902.778 -3.4061 1.16861 0
M  V30 9521 C 902.631 -3.59838 2.69883 0
M  V30 9522 C 903.95 -4.33718 0.746782 0
M  V30 9523 H 901.069 -0.688315 0.263422 0
M  V30 9524 H 903.711 -1.40883 1.27483 0
M  V30 9525 H 901.861 -3.82188 0.697477 0
M  V30 9526 H 903.533 -3.27454 3.24917 0
M  V30 9527 H 901.776 -3.03005 3.10435 0
M  V30 9528 H 902.447 -4.65766 2.96253 0
M  V30 9529 H 904.923 -3.99837 1.15195 0
M  V30 9530 H 903.799 -5.38012 1.08786 0
M  V30 9531 H 904.06 -4.40704 -0.351057 0
M  V30 9532 N 903.119 -0.802921 -1.35613 0
M  V30 9533 C 904.029 -0.212177 -2.33639 0
M  V30 9534 C 905.045 0.642871 -1.61689 0
M  V30 9535 O 906.221 0.555485 -1.93588 0
M  V30 9536 C 903.286 0.632406 -3.40883 0
M  V30 9537 C 902.347 -0.242708 -4.28613 0
M  V30 9538 C 901.58 0.56166 -5.30736 0
M  V30 9539 O 901.803 1.79664 -5.41366 0
M  V30 9540 O 900.737 -0.0455387 -6.01883 0
M  V30 9541 H 904.563 -1.023 -2.85952 0
M  V30 9542 H 902.148 -0.564636 -1.38319 0
M  V30 9543 H 904.03 1.11358 -4.0642 0
M  V30 9544 H 902.705 1.42089 -2.90848 0
M  V30 9545 H 901.612 -0.77094 -3.6607 0
M  V30 9546 H 902.945 -0.995046 -4.82037 0
M  V30 9547 N 904.597 1.47463 -0.556102 0
M  V30 9548 C 905.529 2.28046 0.22968 0
M  V30 9549 C 906.542 1.3694 0.880409 0
M  V30 9550 O 907.731 1.61773 0.754447 0
M  V30 9551 C 904.831 3.11165 1.34273 0
M  V30 9552 C 904.004 4.30225 0.789004 0
M  V30 9553 C 903.063 4.94948 1.78641 0
M  V30 9554 O 902.089 5.53372 1.33297 0
M  V30 9555 N 903.291 4.89543 3.11974 0
M  V30 9556 H 906.056 2.96125 -0.461558 0
M  V30 9557 H 903.617 1.5708 -0.392105 0
M  V30 9558 H 905.609 3.51331 2.00869 0
M  V30 9559 H 904.179 2.45337 1.93722 0
M  V30 9560 H 903.399 3.94163 -0.0536971 0
M  V30 9561 H 904.687 5.07238 0.398378 0
M  V30 9562 H 904.085 4.43275 3.51459 0
M  V30 9563 H 902.642 5.33732 3.74131 0
M  V30 9564 N 906.075 0.2925 1.54862 0
M  V30 9565 C 907.323 -0.318633 1.99572 0
M  V30 9566 C 907.644 -1.55062 1.1824 0
M  V30 9567 O 906.914 -1.93943 0.276226 0
M  V30 9568 H 905.494 -0.120722 0.737181 0
M  V30 9569 H 908.156 0.401862 1.90712 0
M  V30 9570 H 907.252 -0.596542 3.06346 0
M  V30 9571 N 907.553 -1.57587 0.0200696 0
M  V30 9572 C 908.802 -1.90602 -0.659822 0
M  V30 9573 C 909.115 -0.897216 -1.73808 0
M  V30 9574 O 910.321 -1.11829 -2.47399 0
M  V30 9575 C 908.777 -3.38416 -1.22484 0
M  V30 9576 C 908.385 -4.47637 -0.180339 0
M  V30 9577 C 910.129 -3.80513 -1.88176 0
M  V30 9578 C 908.036 -5.86542 -0.756482 0
M  V30 9579 H 906.966 -0.711272 -0.250216 0
M  V30 9580 H 909.617 -1.83308 0.0838942 0
M  V30 9581 H 907.999 -3.40613 -2.01987 0
M  V30 9582 H 909.173 -4.56987 0.591573 0
M  V30 9583 H 907.488 -4.14687 0.377302 0
M  V30 9584 H 910.085 -4.8164 -2.32222 0
M  V30 9585 H 910.428 -3.15091 -2.72073 0
M  V30 9586 H 910.961 -3.80701 -1.15377 0
M  V30 9587 H 907.7 -6.55485 0.0441468 0
M  V30 9588 H 907.22 -5.80816 -1.49709 0
M  V30 9589 H 908.899 -6.3483 -1.249 0
M  V30 9590 N 909.032 0.252966 -1.55557 0
M  V30 9591 C 910.28 0.979912 -1.76754 0
M  V30 9592 C 910.601 1.86083 -0.582944 0
M  V30 9593 O 909.871 1.91742 0.401497 0
M  V30 9594 H 908.451 0.364805 -0.651864 0
M  V30 9595 H 911.113 0.272372 -1.92987 0
M  V30 9596 H 910.209 1.60518 -2.67657 0
M  V30 9597 N 910.51 1.48831 0.518367 0
M  V30 9598 C 911.75 1.59045 1.28391 0
M  V30 9599 C 912.114 0.263443 1.90184 0
M  V30 9600 O 913.315 0.24064 2.67721 0
M  V30 9601 C 911.586 2.70536 2.33548 0
M  V30 9602 S 913.145 3.00591 3.19673 0
M  V30 9603 H 909.963 0.561182 0.436573 0
M  V30 9604 H 912.565 1.86409 0.589222 0
M  V30 9605 H 911.269 3.65499 1.86652 0
M  V30 9606 H 910.8 2.4511 3.07708 0
M  V30 9607 H 912.815 2.40779 4.33866 0
M  V30 9608 N 911.988 -0.768124 1.37614 0
M  V30 9609 C 913.213 -1.56239 1.36397 0
M  V30 9610 C 913.638 -1.8804 -0.0475839 0
M  V30 9611 O 912.996 -1.495 -1.02564 0
M  V30 9612 C 913.044 -2.84716 2.21289 0
M  V30 9613 O 912.148 -3.79249 1.62001 0
M  V30 9614 H 911.489 -0.473119 0.465891 0
M  V30 9615 H 914.019 -0.950415 1.81186 0
M  V30 9616 H 914.029 -3.33784 2.34632 0
M  V30 9617 H 912.704 -2.60899 3.2389 0
M  V30 9618 H 911.281 -3.37904 1.57719 0
M  V30 9619 N 913.466 -1.22244 -0.994698 0
M  V30 9620 C 914.413 -0.990906 -2.08446 0
M  V30 9621 C 915.383 0.086737 -1.65873 0
M  V30 9622 O 916.568 -0.0624882 -1.90698 0
M  V30 9623 C 913.708 -0.572813 -3.40313 0
M  V30 9624 C 912.821 -1.72103 -3.96238 0
M  V30 9625 C 911.956 -1.2511 -5.16257 0
M  V30 9626 C 910.995 -2.37098 -5.64315 0
M  V30 9627 N 910.132 -1.91164 -6.75574 0
M  V30 9628 H 914.972 -1.92377 -2.27585 0
M  V30 9629 H 912.509 -0.958576 -1.11578 0
M  V30 9630 H 914.467 -0.311594 -4.16035 0
M  V30 9631 H 913.097 0.323044 -3.21179 0
M  V30 9632 H 912.149 -2.09662 -3.17405 0
M  V30 9633 H 913.461 -2.56347 -4.27888 0
M  V30 9634 H 912.615 -0.947152 -5.99261 0
M  V30 9635 H 911.354 -0.378836 -4.86226 0
M  V30 9636 H 910.359 -2.68283 -4.799 0
M  V30 9637 H 911.584 -3.24837 -5.96371 0
M  V30 9638 H 909.53 -1.06298 -6.47331 0
M  V30 9639 H 909.447 -2.68975 -7.06533 0
M  V30 9640 H 910.715 -1.63833 -7.62088 0
M  V30 9641 N 914.944 1.19125 -1.03184 0
M  V30 9642 C 916.19 1.89163 -0.731111 0
M  V30 9643 C 916.523 1.79604 0.738662 0
M  V30 9644 O 915.798 1.19037 1.53819 0
M  V30 9645 C 916.081 3.39986 -1.18666 0
M  V30 9646 C 915.934 3.58401 -2.71788 0
M  V30 9647 C 917.253 4.33316 -0.769772 0
M  V30 9648 H 914.372 0.686908 -0.267069 0
M  V30 9649 H 917.014 1.40205 -1.28229 0
M  V30 9650 H 915.164 3.81813 -0.717736 0
M  V30 9651 H 916.836 3.25727 -3.26649 0
M  V30 9652 H 915.079 3.01355 -3.12038 0
M  V30 9653 H 915.75 4.64189 -2.98719 0
M  V30 9654 H 918.226 3.9922 -1.17314 0
M  V30 9655 H 917.102 5.37427 -1.11637 0
M  V30 9656 H 917.363 4.40884 0.327681 0
M  V30 9657 N 916.422 0.810101 1.35185 0
M  V30 9658 C 917.833 0.452616 1.81131 0
M  V30 9659 C 918.184 -1.02573 1.67252 0
M  V30 9660 O 917.309 -1.79735 1.20516 0
M  V30 9661 C 917.904 0.814775 3.28857 0
M  V30 9662 C 916.463 0.509839 3.72931 0
M  V30 9663 C 915.61 1.03852 2.57119 0
M  V30 9664 H 918.561 1.00143 1.23114 0
M  V30 9665 H 918.582 0.113635 3.8033 0
M  V30 9666 H 918.094 1.89078 3.38926 0
M  V30 9667 H 916.195 -0.557289 3.68409 0
M  V30 9668 H 916.308 1.04493 4.67566 0
M  V30 9669 H 914.672 0.460671 2.50499 0
M  V30 9670 H 915.455 2.12071 2.69964 0
M  V30 9671 N 917.9 -1.47166 0.563914 0
M  V30 9672 C 919.177 -1.95586 -0.0236172 0
M  V30 9673 C 919.557 -1.50655 -1.47872 0
M  V30 9674 O 918.905 -0.748479 -2.15894 0
M  V30 9675 C 919.115 -3.48762 0.128841 0
M  V30 9676 C 920.463 -4.24598 -0.0130544 0
M  V30 9677 O 921.487 -3.56155 0.0567242 0
M  V30 9678 O 920.346 -5.46253 -0.164332 0
M  V30 9679 H 917.44 -0.824793 -0.0603789 0
M  V30 9680 H 919.986 -1.57536 0.63091 0
M  V30 9681 H 918.758 -3.74291 1.14113 0
M  V30 9682 H 918.381 -3.93594 -0.56299 0
M  V30 9683 N 919.378 -0.300708 -1.54705 0
M  V30 9684 C 920.627 0.309428 -1.99312 0
M  V30 9685 C 920.94 1.55027 -1.19272 0
M  V30 9686 O 922.146 2.23498 -1.54146 0
M  V30 9687 C 920.602 0.601856 -3.54832 0
M  V30 9688 C 920.21 -0.620636 -4.4368 0
M  V30 9689 C 921.954 1.1732 -4.07966 0
M  V30 9690 C 919.861 -0.301376 -5.90632 0
M  V30 9691 H 918.791 0.119395 -0.744487 0
M  V30 9692 H 921.442 -0.409368 -1.78875 0
M  V30 9693 H 919.824 1.38024 -3.71168 0
M  V30 9694 H 920.998 -1.39685 -4.39118 0
M  V30 9695 H 919.313 -1.1106 -4.01316 0
M  V30 9696 H 921.91 1.42631 -5.15326 0
M  V30 9697 H 922.253 2.11537 -3.5855 0
M  V30 9698 H 922.786 0.456534 -3.95172 0
M  V30 9699 H 919.525 -1.21209 -6.44196 0
M  V30 9700 H 919.045 0.437574 -5.98202 0
M  V30 9701 H 920.724 0.097164 -6.46927 0
M  V30 9702 N 920.856 1.57574 -0.0284266 0
M  V30 9703 C 921.806 2.06674 0.962804 0
M  V30 9704 C 922.79 0.967115 1.28591 0
M  V30 9705 O 923.982 1.23068 1.27214 0
M  V30 9706 C 921.111 2.59682 2.24545 0
M  V30 9707 C 920.197 3.76573 1.95073 0
M  V30 9708 N 920.588 4.8721 1.35869 0
M  V30 9709 C 918.886 3.85046 2.25068 0
M  V30 9710 C 919.587 5.68436 1.23514 0
M  V30 9711 N 918.563 5.15323 1.73041 0
M  V30 9712 H 922.365 2.89615 0.500013 0
M  V30 9713 H 919.879 1.61437 0.176604 0
M  V30 9714 H 921.876 2.93148 2.96428 0
M  V30 9715 H 920.536 1.7817 2.71451 0
M  V30 9716 H 921.547 5.07477 1.03379 0
M  V30 9717 H 918.224 3.14439 2.74653 0
M  V30 9718 H 919.614 6.67387 0.777403 0
M  V30 9719 N 922.334 -0.244713 1.55689 0
M  V30 9720 C 923.282 -1.32276 1.91326 0
M  V30 9721 C 924.276 -1.49714 0.792589 0
M  V30 9722 O 925.482 -1.51163 0.977227 0
M  V30 9723 H 921.857 -0.442979 0.607679 0
M  V30 9724 H 923.828 -0.99486 2.81327 0
M  V30 9725 C 922.577 -2.67077 2.22633 0
M  V30 9726 H 921.9 -2.54458 3.08368 0
M  V30 9727 H 923.34 -3.41378 2.5147 0
M  V30 9728 C 921.799 -3.20335 1.04342 0
M  V30 9729 O 922.329 -4.00633 0.292543 0
M  V30 9730 N 920.535 -2.78392 0.833457 0
M  V30 9731 H 920.082 -2.13202 1.44577 0
M  V30 9732 H 920.04 -3.1437 0.0436713 0
M  V30 9733 N 923.813 -1.49104 -0.510467 0
M  V30 9734 C 925.059 -1.58346 -1.26705 0
M  V30 9735 C 925.392 -0.265121 -1.92382 0
M  V30 9736 O 924.667 0.730558 -1.80258 0
M  V30 9737 C 924.95 -2.7359 -2.34137 0
M  V30 9738 C 924.803 -4.1519 -1.73024 0
M  V30 9739 C 926.122 -2.84511 -3.3577 0
M  V30 9740 H 923.241 -0.57637 -0.459311 0
M  V30 9741 H 925.883 -1.81353 -0.566658 0
M  V30 9742 H 924.033 -2.54105 -2.93876 0
M  V30 9743 H 925.705 -4.46167 -1.17186 0
M  V30 9744 H 923.948 -4.21279 -1.03473 0
M  V30 9745 H 924.619 -4.91683 -2.50903 0
M  V30 9746 H 927.095 -3.0222 -2.86011 0
M  V30 9747 H 925.971 -3.6684 -4.08313 0
M  V30 9748 H 926.232 -1.93471 -3.97519 0
M  V30 9749 N 925.291 0.760815 -1.38019 0
M  V30 9750 C 926.254 1.85604 -1.34476 0
M  V30 9751 C 927.254 1.58897 -0.24666 0
M  V30 9752 O 928.444 1.66776 -0.50314 0
M  V30 9753 C 925.576 3.22945 -1.09176 0
M  V30 9754 H 926.769 1.90155 -2.31908 0
M  V30 9755 H 924.322 0.961746 -1.23208 0
M  V30 9756 H 925.057 3.24066 -0.123216 0
M  V30 9757 H 924.842 3.43723 -1.88672 0
M  V30 9758 H 926.332 4.03022 -1.09375 0
M  V30 9759 N 926.769 1.22769 0.988202 0
M  V30 9760 C 927.699 1.02627 2.09738 0
M  V30 9761 C 928.68 -0.0543211 1.70013 0
M  V30 9762 O 929.865 0.108811 1.93895 0
M  V30 9763 C 926.995 0.608302 3.41931 0
M  V30 9764 C 925.949 1.63536 3.95525 0
M  V30 9765 C 925.275 1.07308 5.23822 0
M  V30 9766 C 926.575 3.02649 4.25677 0
M  V30 9767 H 928.269 1.954 2.26847 0
M  V30 9768 H 925.815 0.940888 1.09011 0
M  V30 9769 H 927.768 0.454478 4.18942 0
M  V30 9770 H 926.492 -0.355095 3.24664 0
M  V30 9771 H 925.151 1.77704 3.20651 0
M  V30 9772 H 924.799 0.100894 5.02899 0
M  V30 9773 H 924.499 1.75925 5.60646 0
M  V30 9774 H 926.023 0.930938 6.03462 0
M  V30 9775 H 927.437 2.91828 4.93467 0
M  V30 9776 H 925.834 3.68434 4.73684 0
M  V30 9777 H 926.904 3.52228 3.33262 0
M  V30 9778 N 928.247 -1.18576 1.03814 0
M  V30 9779 C 929.18 -2.20929 0.571463 0
M  V30 9780 C 930.158 -1.57788 -0.392636 0
M  V30 9781 O 931.342 -1.85974 -0.30754 0
M  V30 9782 C 928.469 -3.38295 -0.165504 0
M  V30 9783 C 927.515 -4.19828 0.751457 0
M  V30 9784 S 928.348 -4.86725 2.23291 0
M  V30 9785 C 929.504 -6.07494 1.50672 0
M  V30 9786 H 929.737 -2.60173 1.43866 0
M  V30 9787 H 927.27 -1.2897 0.84888 0
M  V30 9788 H 929.228 -4.06317 -0.584545 0
M  V30 9789 H 927.889 -2.97468 -1.00855 0
M  V30 9790 H 927.082 -5.03671 0.181986 0
M  V30 9791 H 926.684 -3.57172 1.10923 0
M  V30 9792 H 928.976 -6.72779 0.798377 0
M  V30 9793 H 929.919 -6.68942 2.3221 0
M  V30 9794 H 930.327 -5.55569 1.00016 0
M  V30 9795 N 929.725 -0.817259 -1.34754 0
M  V30 9796 C 930.635 -0.236946 -2.334 0
M  V30 9797 C 931.651 0.625685 -1.62361 0
M  V30 9798 O 932.827 0.534921 -1.94166 0
M  V30 9799 C 929.892 0.596215 -3.41535 0
M  V30 9800 C 928.953 -0.288154 -4.28332 0
M  V30 9801 C 928.186 0.505337 -5.31302 0
M  V30 9802 O 928.409 1.73912 -5.43241 0
M  V30 9803 O 927.343 -0.109374 -6.01801 0
M  V30 9804 H 931.169 -1.05327 -2.84851 0
M  V30 9805 H 928.754 -0.579275 -1.37713 0
M  V30 9806 H 930.636 1.07041 -4.07578 0
M  V30 9807 H 929.311 1.38997 -2.92338 0
M  V30 9808 H 928.218 -0.809724 -3.65232 0
M  V30 9809 H 929.551 -1.04612 -4.80955 0
M  V30 9810 N 931.203 1.46865 -0.571711 0
M  V30 9811 C 932.48 1.95596 0.0132445 0
M  V30 9812 C 932.86 1.51438 1.47071 0
M  V30 9813 O 932.208 0.759917 2.15494 0
M  V30 9814 C 932.418 3.48689 -0.147335 0
M  V30 9815 C 933.766 4.24599 -0.00946329 0
M  V30 9816 O 934.79 3.5612 -0.0756112 0
M  V30 9817 O 933.649 5.46332 0.135361 0
M  V30 9818 H 930.743 0.825102 0.0560039 0
M  V30 9819 H 933.289 1.57199 -0.639256 0
M  V30 9820 H 932.061 3.73681 -1.16096 0
M  V30 9821 H 931.684 3.93887 0.542109 0
M  V30 9822 N 932.681 0.308908 1.54543 0
M  V30 9823 C 934.097 -0.0442273 1.59539 0
M  V30 9824 C 934.297 -1.51743 1.32575 0
M  V30 9825 O 933.353 -2.27134 1.10302 0
M  V30 9826 C 934.666 0.360826 2.98527 0
M  V30 9827 C 936.214 0.310252 3.11459 0
M  V30 9828 C 936.689 0.690246 4.52769 0
M  V30 9829 N 938.18 0.643084 4.58714 0
M  V30 9830 C 938.915 0.909483 5.66141 0
M  V30 9831 N 938.411 1.24226 6.81572 0
M  V30 9832 N 940.204 0.836018 5.55848 0
M  V30 9833 H 932.355 1.26893 1.70329 0
M  V30 9834 H 934.618 0.514986 0.795923 0
M  V30 9835 H 934.324 1.38669 3.23209 0
M  V30 9836 H 934.198 -0.281563 3.76148 0
M  V30 9837 H 936.585 -0.706375 2.86521 0
M  V30 9838 H 936.666 0.987373 2.35976 0
M  V30 9839 H 936.31 1.70472 4.78437 0
M  V30 9840 H 936.24 -0.00903075 5.26599 0
M  V30 9841 H 938.731 0.397138 3.75807 0
M  V30 9842 H 939.044 1.4313 7.5943 0
M  V30 9843 H 937.389 1.28038 6.83104 0
M  V30 9844 H 940.58 0.575637 4.64547 0
M  V30 9845 H 940.753 1.047 6.39486 0
M  V30 9846 N 934.159 -1.57557 0.0367827 0
M  V30 9847 C 935.122 -2.09591 -0.927589 0
M  V30 9848 C 936.122 -1.01252 -1.24919 0
M  V30 9849 O 937.312 -1.27382 -1.18825 0
M  V30 9850 C 934.444 -2.56816 -2.24184 0
M  V30 9851 H 935.637 -2.96086 -0.476784 0
M  V30 9852 H 933.19 -1.54864 -0.211385 0
M  V30 9853 H 933.925 -1.73673 -2.73876 0
M  V30 9854 H 933.71 -3.35973 -2.0215 0
M  V30 9855 H 935.2 -2.97271 -2.93291 0
M  V30 9856 N 935.637 0.236453 -1.55816 0
M  V30 9857 C 936.865 0.980295 -1.82203 0
M  V30 9858 C 937.28 1.7854 -0.613926 0
M  V30 9859 O 936.637 1.77661 0.417491 0
M  V30 9860 C 936.688 1.90982 -3.06933 0
M  V30 9861 O 936.409 1.13728 -4.23081 0
M  V30 9862 C 937.91 2.76879 -3.46198 0
M  V30 9863 H 935.13 0.28799 -0.606055 0
M  V30 9864 H 937.674 0.256182 -2.02889 0
M  V30 9865 H 935.829 2.58808 -2.88266 0
M  V30 9866 H 936.243 1.76694 -4.93842 0
M  V30 9867 H 937.717 3.37831 -4.36548 0
M  V30 9868 H 938.194 3.48522 -2.67262 0
M  V30 9869 H 938.8 2.1449 -3.67252 0
M  V30 9870 N 937.115 1.49373 0.502552 0
M  V30 9871 C 938.045 1.68839 1.61294 0
M  V30 9872 C 939.026 0.537096 1.61398 0
M  V30 9873 O 940.211 0.772764 1.78163 0
M  V30 9874 C 937.341 1.75347 2.99784 0
M  V30 9875 C 936.295 2.90251 3.14545 0
M  V30 9876 C 935.621 2.8187 4.54371 0
M  V30 9877 C 936.921 4.31207 2.94717 0
M  V30 9878 H 938.615 2.61803 1.45257 0
M  V30 9879 H 936.161 1.25987 0.697371 0
M  V30 9880 H 938.114 1.87552 3.77362 0
M  V30 9881 H 936.838 0.789814 3.16906 0
M  V30 9882 H 935.497 2.77646 2.39392 0
M  V30 9883 H 935.145 1.83416 4.68367 0
M  V30 9884 H 934.845 3.5899 4.65188 0
M  V30 9885 H 936.369 2.96081 5.34012 0
M  V30 9886 H 937.783 4.44501 3.62065 0
M  V30 9887 H 936.18 5.09536 3.17007 0
M  V30 9888 H 937.25 4.45759 1.90857 0
M  V30 9889 N 938.594 -0.753485 1.38421 0
M  V30 9890 C 940.01 -1.05656 1.1962 0
M  V30 9891 C 940.21 -2.0145 0.0449443 0
M  V30 9892 O 939.266 -2.45039 -0.609253 0
M  V30 9893 C 940.579 -1.63655 2.52265 0
M  V30 9894 C 942.127 -1.75825 2.58949 0
M  V30 9895 C 942.602 -2.37236 3.91769 0
M  V30 9896 N 944.093 -2.44666 3.9331 0
M  V30 9897 C 944.828 -2.93077 4.92842 0
M  V30 9898 N 944.324 -3.41523 6.02772 0
M  V30 9899 N 946.117 -2.92118 4.80232 0
M  V30 9900 H 938.268 -0.117799 2.12073 0
M  V30 9901 H 940.531 -0.114889 0.941012 0
M  V30 9902 H 940.237 -1.00734 3.36965 0
M  V30 9903 H 940.111 -2.62715 2.70667 0
M  V30 9904 H 942.498 -2.37873 1.74644 0
M  V30 9905 H 942.579 -0.754693 2.44414 0
M  V30 9906 H 942.223 -1.75822 4.76497 0
M  V30 9907 H 942.153 -3.38233 4.03616 0
M  V30 9908 H 944.644 -2.10403 3.1391 0
M  V30 9909 H 944.957 -3.76919 6.74649 0
M  V30 9910 H 943.302 -3.3958 6.06391 0
M  V30 9911 H 946.493 -2.53582 3.93464 0
M  V30 9912 H 946.666 -3.29535 5.57952 0
M  V30 9913 N 940.072 -1.23292 -0.981677 0
M  V30 9914 C 941.321 -1.05832 -1.71705 0
M  V30 9915 C 941.634 0.40514 -1.91358 0
M  V30 9916 O 942.84 0.699645 -2.6233 0
M  V30 9917 C 941.296 -1.84532 -3.08992 0
M  V30 9918 C 940.904 -3.35199 -2.9723 0
M  V30 9919 C 942.648 -1.75557 -3.86497 0
M  V30 9920 C 940.555 -4.06296 -4.29741 0
M  V30 9921 H 939.485 -0.39241 -0.64384 0
M  V30 9922 H 942.136 -1.47247 -1.09502 0
M  V30 9923 H 940.518 -1.35923 -3.71942 0
M  V30 9924 H 941.692 -3.91286 -2.43377 0
M  V30 9925 H 940.007 -3.44973 -2.332 0
M  V30 9926 H 942.604 -2.25989 -4.84596 0
M  V30 9927 H 942.947 -0.718101 -4.1006 0
M  V30 9928 H 943.48 -2.21771 -3.30246 0
M  V30 9929 H 940.219 -5.10344 -4.11375 0
M  V30 9930 H 939.739 -3.54997 -4.83464 0
M  V30 9931 H 941.418 -4.12519 -4.98434 0
M  V30 9932 N 941.55 1.18024 -1.04442 0
M  V30 9933 C 942.775 1.92573 -0.770097 0
M  V30 9934 C 943.2 1.75871 0.667169 0
M  V30 9935 O 942.558 1.07136 1.46258 0
M  V30 9936 C 942.606 3.41904 -1.14602 0
M  V30 9937 O 941.71 4.11491 -0.273712 0
M  V30 9938 H 941.051 0.600636 -0.283076 0
M  V30 9939 H 943.581 1.49645 -1.39526 0
M  V30 9940 H 943.591 3.92623 -1.10956 0
M  V30 9941 H 942.266 3.53382 -2.19304 0
M  V30 9942 H 940.843 3.71059 -0.370124 0
M  V30 9943 N 943.028 0.824394 1.34319 0
M  V30 9944 C 944.253 0.425194 2.02995 0
M  V30 9945 C 944.678 -0.961476 1.6167 0
M  V30 9946 O 944.036 -1.62593 0.80207 0
M  V30 9947 C 944.084 0.537004 3.56579 0
M  V30 9948 O 943.188 -0.442576 4.10018 0
M  V30 9949 H 942.529 0.174853 0.640564 0
M  V30 9950 H 945.059 1.11522 1.71534 0
M  V30 9951 H 945.069 0.413311 4.05901 0
M  V30 9952 H 943.744 1.54836 3.86004 0
M  V30 9953 H 942.321 -0.277644 3.71865 0
M  V30 9954 N 944.506 -1.46559 0.579492 0
M  V30 9955 C 945.438 -2.28383 -0.19337 0
M  V30 9956 C 946.451 -1.38324 -0.858511 0
M  V30 9957 O 947.64 -1.62952 -0.728615 0
M  V30 9958 C 944.74 -3.13262 -1.29306 0
M  V30 9959 C 943.913 -4.31426 -0.720459 0
M  V30 9960 C 942.972 -4.97728 -1.70744 0
M  V30 9961 O 941.998 -5.55423 -1.24476 0
M  V30 9962 N 943.2 -4.94445 -3.04146 0
M  V30 9963 H 945.965 -2.95353 0.508611 0
M  V30 9964 H 943.526 -1.56436 0.417046 0
M  V30 9965 H 945.518 -3.54483 -1.95254 0
M  V30 9966 H 944.088 -2.48388 -1.89795 0
M  V30 9967 H 943.308 -3.94028 0.116398 0
M  V30 9968 H 944.596 -5.07808 -0.31763 0
M  V30 9969 H 943.994 -4.4881 -3.44363 0
M  V30 9970 H 942.551 -5.39616 -3.65592 0
M  V30 9971 N 945.984 -0.3171 -1.54377 0
M  V30 9972 C 946.934 0.567199 -2.20832 0
M  V30 9973 C 947.918 1.08661 -1.18666 0
M  V30 9974 O 949.11 1.0247 -1.44322 0
M  V30 9975 C 946.239 1.73079 -2.96477 0
M  V30 9976 C 945.325 1.22658 -4.05975 0
M  V30 9977 N 945.716 0.441565 -5.03869 0
M  V30 9978 C 944.014 1.50589 -4.19808 0
M  V30 9979 C 944.715 0.171063 -5.81448 0
M  V30 9980 N 943.691 0.755389 -5.38326 0
M  V30 9981 H 947.493 -0.0399349 -2.93873 0
M  V30 9982 H 945.007 -0.122639 -1.61936 0
M  V30 9983 H 947.004 2.37601 -3.42566 0
M  V30 9984 H 945.664 2.34146 -2.24957 0
M  V30 9985 H 946.675 0.0849921 -5.1783 0
M  V30 9986 H 943.352 2.12288 -3.595 0
M  V30 9987 H 944.742 -0.460484 -6.7032 0
M  V30 9988 N 947.462 1.57535 -0.0451378 0
M  V30 9989 C 948.711 1.91628 0.629415 0
M  V30 9990 C 949.024 0.924754 1.72359 0
M  V30 9991 O 950.23 1.15751 2.45589 0
M  V30 9992 C 948.686 3.40322 1.17084 0
M  V30 9993 C 948.294 4.47867 0.109101 0
M  V30 9994 C 950.038 3.83458 1.82099 0
M  V30 9995 C 947.945 5.87671 0.663072 0
M  V30 9996 H 946.875 0.715163 0.238868 0
M  V30 9997 H 949.526 1.83151 -0.113046 0
M  V30 9998 H 947.908 3.43783 1.96543 0
M  V30 9999 H 949.082 4.55988 -0.664201 0
M  V30 10000 H 947.397 4.14034 -0.443227 0
M  V30 10001 H 949.994 4.85273 2.2453 0
M  V30 10002 H 950.337 3.19379 2.67026 0
M  V30 10003 H 950.87 3.82488 1.09305 0
M  V30 10004 H 947.609 6.55332 -0.148423 0
M  V30 10005 H 947.129 5.83124 1.4045 0
M  V30 10006 H 948.808 6.36737 1.14785 0
M  V30 10007 N 948.94 -0.228186 1.55939 0
M  V30 10008 C 949.903 -1.26621 1.91049 0
M  V30 10009 C 950.903 -1.40141 0.788491 0
M  V30 10010 O 952.093 -1.3852 1.05631 0
M  V30 10011 C 949.225 -2.64108 2.15545 0
M  V30 10012 H 950.418 -0.966978 2.83883 0
M  V30 10013 H 947.971 -0.468313 1.49119 0
M  V30 10014 H 948.706 -2.99141 1.25241 0
M  V30 10015 H 948.491 -2.55673 2.97277 0
M  V30 10016 H 949.981 -3.39025 2.43827 0
M  V30 10017 N 950.418 -1.49637 -0.494624 0
M  V30 10018 C 951.366 -1.6727 -1.61627 0
M  V30 10019 C 952.36 -0.538587 -1.6061 0
M  V30 10020 O 953.566 -0.718411 -1.65042 0
M  V30 10021 H 949.941 -0.527557 -0.535899 0
M  V30 10022 H 951.912 -2.61405 -1.43909 0
M  V30 10023 C 950.661 -1.7624 -2.99725 0
M  V30 10024 H 949.984 -2.62886 -3.01216 0
M  V30 10025 H 951.424 -1.92611 -3.77726 0
M  V30 10026 C 949.883 -0.508632 -3.33038 0
M  V30 10027 O 950.413 0.362828 -4.00058 0
M  V30 10028 N 948.619 -0.369667 -2.88239 0
M  V30 10029 H 948.166 -1.07984 -2.33875 0
M  V30 10030 H 948.124 0.468112 -3.10896 0
M  V30 10031 N 951.896 0.746133 -1.38819 0
M  V30 10032 C 953.142 1.50669 -1.3664 0
M  V30 10033 C 953.497 1.92356 0.0411513 0
M  V30 10034 O 952.79 1.63104 1.00537 0
M  V30 10035 C 952.984 2.76639 -2.26286 0
M  V30 10036 C 952.813 2.47268 -3.75618 0
M  V30 10037 C 951.583 2.40116 -4.44603 0
M  V30 10038 C 953.781 2.13548 -4.67869 0
M  V30 10039 N 951.763 2.03098 -5.79331 0
M  V30 10040 C 953.134 1.86883 -5.91164 0
M  V30 10041 C 955.189 1.99922 -4.56 0
M  V30 10042 C 953.892 1.47965 -7.03917 0
M  V30 10043 C 955.918 1.62406 -5.68664 0
M  V30 10044 C 955.28 1.36618 -6.91025 0
M  V30 10045 H 951.379 0.550624 -0.555282 0
M  V30 10046 H 953.963 0.868179 -1.74272 0
M  V30 10047 H 952.134 3.38287 -1.9083 0
M  V30 10048 H 953.866 3.42753 -2.1518 0
M  V30 10049 H 950.621 2.56839 -3.97908 0
M  V30 10050 H 951.045 1.87214 -6.506 0
M  V30 10051 H 955.687 2.18531 -3.61945 0
M  V30 10052 H 953.405 1.28096 -7.97883 0
M  V30 10053 H 956.991 1.52483 -5.61462 0
M  V30 10054 H 955.871 1.08021 -7.76725 0
M  V30 10055 N 953.375 1.23811 0.975125 0
M  V30 10056 C 954.305 1.04846 2.08638 0
M  V30 10057 C 955.286 -0.0362859 1.70061 0
M  V30 10058 O 956.471 0.12937 1.93769 0
M  V30 10059 C 953.601 0.644534 3.41267 0
M  V30 10060 C 952.555 1.67722 3.93768 0
M  V30 10061 C 951.881 1.12857 5.22654 0
M  V30 10062 C 953.181 3.07147 4.22443 0
M  V30 10063 H 954.875 1.97795 2.24761 0
M  V30 10064 H 952.421 0.952397 1.08006 0
M  V30 10065 H 954.374 0.498887 4.18436 0
M  V30 10066 H 953.098 -0.320641 3.25022 0
M  V30 10067 H 951.757 1.81095 3.18748 0
M  V30 10068 H 951.405 0.154227 5.02764 0
M  V30 10069 H 951.105 1.81862 5.58749 0
M  V30 10070 H 952.629 0.994891 6.0244 0
M  V30 10071 H 954.043 2.97045 4.90344 0
M  V30 10072 H 952.44 3.73437 4.6975 0
M  V30 10073 H 953.51 3.55743 3.29507 0
M  V30 10074 N 954.853 -1.17469 1.05066 0
M  V30 10075 C 956.269 -1.39699 0.771769 0
M  V30 10076 C 956.469 -1.91253 -0.634382 0
M  V30 10077 O 955.525 -2.10334 -1.39699 0
M  V30 10078 C 956.838 -2.38886 1.82631 0
M  V30 10079 C 958.386 -2.52595 1.84838 0
M  V30 10080 C 958.861 -3.55054 2.89311 0
M  V30 10081 N 960.352 -3.6257 2.88266 0
M  V30 10082 C 961.087 -4.41603 3.65752 0
M  V30 10083 N 960.583 -5.24162 4.53019 0
M  V30 10084 N 962.376 -4.36464 3.54197 0
M  V30 10085 H 954.527 -0.823355 1.95792 0
M  V30 10086 H 956.79 -0.42432 0.847736 0
M  V30 10087 H 956.496 -2.08075 2.83545 0
M  V30 10088 H 956.37 -3.38371 1.66687 0
M  V30 10089 H 958.757 -2.82717 0.845888 0
M  V30 10090 H 958.838 -1.53188 2.04859 0
M  V30 10091 H 958.482 -3.2567 3.89745 0
M  V30 10092 H 958.412 -4.54162 2.66542 0
M  V30 10093 H 960.903 -3.03625 2.24989 0
M  V30 10094 H 961.216 -5.81646 5.0883 0
M  V30 10095 H 959.561 -5.23547 4.57081 0
M  V30 10096 H 962.752 -3.7102 2.85416 0
M  V30 10097 H 962.925 -4.97814 4.14832 0
M  V30 10098 N 956.331 -0.831506 -1.3388 0
M  V30 10099 C 957.281 -0.231656 -2.2682 0
M  V30 10100 C 958.265 0.609075 -1.48926 0
M  V30 10101 O 959.457 0.462249 -1.70857 0
M  V30 10102 C 956.586 0.59846 -3.38043 0
M  V30 10103 C 955.672 -0.253372 -4.23342 0
M  V30 10104 N 956.063 -1.32854 -4.8804 0
M  V30 10105 C 954.361 -0.0391537 -4.45983 0
M  V30 10106 C 955.062 -1.85069 -5.51475 0
M  V30 10107 N 954.038 -1.15327 -5.31226 0
M  V30 10108 H 957.84 -1.05396 -2.74352 0
M  V30 10109 H 955.354 -0.675195 -1.47699 0
M  V30 10110 H 957.351 1.04443 -4.03605 0
M  V30 10111 H 956.011 1.41882 -2.92061 0
M  V30 10112 H 957.022 -1.71139 -4.88806 0
M  V30 10113 H 953.699 0.748356 -4.10738 0
M  V30 10114 H 955.089 -2.75065 -6.13016 0
M  V30 10115 N 957.809 1.4625 -0.587256 0
M  V30 10116 C 959.057 2.01963 -0.0744273 0
M  V30 10117 C 959.378 1.46065 1.29189 0
M  V30 10118 O 958.648 0.647077 1.84905 0
M  V30 10119 H 957.228 0.746597 -0.0245236 0
M  V30 10120 H 959.89 1.79299 -0.764063 0
M  V30 10121 H 958.986 3.12099 -0.00884894 0
M  V30 10122 N 959.287 0.325282 1.54207 0
M  V30 10123 C 960.536 -0.27768 1.99779 0
M  V30 10124 C 960.849 -1.5311 1.21723 0
M  V30 10125 O 962.055 -2.21017 1.57682 0
M  V30 10126 C 960.511 -0.545329 3.55745 0
M  V30 10127 C 960.119 0.691143 4.42637 0
M  V30 10128 C 961.863 -1.10815 4.09781 0
M  V30 10129 C 959.77 0.395302 5.90077 0
M  V30 10130 H 958.7 -0.107536 0.746292 0
M  V30 10131 H 961.351 0.437773 1.78202 0
M  V30 10132 H 959.733 -1.32101 3.73317 0
M  V30 10133 H 960.907 1.46653 4.3684 0
M  V30 10134 H 959.222 1.1743 3.99499 0
M  V30 10135 H 961.819 -1.34414 5.1753 0
M  V30 10136 H 962.162 -2.05806 3.6187 0
M  V30 10137 H 962.695 -0.393608 3.95848 0
M  V30 10138 H 959.434 1.31443 6.42186 0
M  V30 10139 H 958.954 -0.34235 5.98822 0
M  V30 10140 H 960.633 0.00576877 6.47 0
M  V30 10141 N 960.765 -1.57509 0.0534917 0
M  V30 10142 C 961.695 -2.14698 -0.917999 0
M  V30 10143 C 962.676 -1.06924 -1.32292 0
M  V30 10144 O 963.861 -1.34875 -1.39723 0
M  V30 10145 C 960.991 -2.69383 -2.19203 0
M  V30 10146 C 959.945 -3.82161 -1.9271 0
M  V30 10147 C 959.271 -4.23373 -3.26587 0
M  V30 10148 C 960.571 -5.07199 -1.24686 0
M  V30 10149 H 962.265 -2.96125 -0.44165 0
M  V30 10150 H 959.811 -1.42446 -0.210993 0
M  V30 10151 H 961.764 -3.08031 -2.87567 0
M  V30 10152 H 960.488 -1.85151 -2.69048 0
M  V30 10153 H 959.147 -3.43989 -1.26757 0
M  V30 10154 H 958.795 -3.36089 -3.74237 0
M  V30 10155 H 958.495 -4.99385 -3.09658 0
M  V30 10156 H 960.019 -4.64623 -3.96178 0
M  V30 10157 H 961.433 -5.43279 -1.83088 0
M  V30 10158 H 959.83 -5.88369 -1.18076 0
M  V30 10159 H 960.9 -4.84386 -0.223227 0
M  V30 10160 N 962.243 0.219913 -1.56058 0
M  V30 10161 C 963.471 0.960915 -1.83232 0
M  V30 10162 C 963.886 1.77878 -0.632828 0
M  V30 10163 O 963.243 1.78093 0.398624 0
M  V30 10164 C 963.294 1.87716 -3.08942 0
M  V30 10165 O 963.015 1.09235 -4.24263 0
M  V30 10166 C 964.516 2.73192 -3.49115 0
M  V30 10167 H 961.736 0.281546 -0.609075 0
M  V30 10168 H 964.28 0.234648 -2.03149 0
M  V30 10169 H 962.435 2.55736 -2.90995 0
M  V30 10170 H 962.849 1.71446 -4.95688 0
M  V30 10171 H 964.323 3.33181 -4.40107 0
M  V30 10172 H 964.8 3.45668 -2.70943 0
M  V30 10173 H 965.406 2.10583 -3.69506 0
M  V30 10174 N 963.721 1.49897 0.486681 0
M  V30 10175 C 964.668 1.67619 1.58658 0
M  V30 10176 C 965.638 0.517537 1.57831 0
M  V30 10177 O 966.823 0.746272 1.756 0
M  V30 10178 C 963.963 1.762 2.96728 0
M  V30 10179 C 963.076 3.03465 3.07462 0
M  V30 10180 C 962.211 3.02937 4.36351 0
M  V30 10181 C 961.25 4.24721 4.4077 0
M  V30 10182 N 960.387 4.22021 5.61108 0
M  V30 10183 H 965.227 2.61528 1.42853 0
M  V30 10184 H 962.764 1.29657 0.694807 0
M  V30 10185 H 964.722 1.79156 3.76774 0
M  V30 10186 H 963.352 0.857452 3.11203 0
M  V30 10187 H 962.404 3.10054 2.20387 0
M  V30 10188 H 963.716 3.93454 3.06586 0
M  V30 10189 H 962.87 3.04536 5.24731 0
M  V30 10190 H 961.609 2.10751 4.39813 0
M  V30 10191 H 960.614 4.23352 3.5079 0
M  V30 10192 H 961.839 5.18116 4.39013 0
M  V30 10193 H 959.785 3.3268 5.65385 0
M  V30 10194 H 959.702 5.05761 5.61909 0
M  V30 10195 H 960.97 4.27743 6.51656 0
M  V30 10196 N 965.199 -0.738761 1.39212 0
M  V30 10197 C 966.109 -1.88324 1.39897 0
M  V30 10198 C 967.125 -1.71494 0.294229 0
M  V30 10199 O 968.301 -1.94162 0.535087 0
M  V30 10200 C 965.366 -3.23871 1.23726 0
M  V30 10201 C 964.427 -3.53121 2.44139 0
M  V30 10202 C 963.66 -4.82202 2.2873 0
M  V30 10203 O 963.883 -5.55649 1.28879 0
M  V30 10204 O 962.817 -5.11265 3.17634 0
M  V30 10205 H 966.643 -1.90701 2.36362 0
M  V30 10206 H 964.228 -0.886067 1.20288 0
M  V30 10207 H 966.11 -4.04882 1.16826 0
M  V30 10208 H 964.785 -3.22274 0.303551 0
M  V30 10209 H 963.692 -2.72212 2.56615 0
M  V30 10210 H 965.025 -3.59495 3.36191 0
M  V30 10211 N 966.677 -1.24326 -0.968545 0
M  V30 10212 C 967.609 -0.992749 -2.06584 0
M  V30 10213 C 968.622 0.0374902 -1.62757 0
M  V30 10214 O 969.811 -0.199448 -1.77382 0
M  V30 10215 C 966.911 -0.476165 -3.35538 0
M  V30 10216 C 966.084 -1.56934 -4.08277 0
M  V30 10217 C 965.143 -1.05555 -5.15504 0
M  V30 10218 O 964.169 -1.74707 -5.41725 0
M  V30 10219 N 965.371 0.110465 -5.80395 0
M  V30 10220 H 968.136 -1.93752 -2.28649 0
M  V30 10221 H 965.697 -1.15344 -1.13611 0
M  V30 10222 H 967.689 -0.117223 -4.0453 0
M  V30 10223 H 966.259 0.374315 -3.10351 0
M  V30 10224 H 965.479 -2.10051 -3.33575 0
M  V30 10225 H 966.767 -2.30415 -4.53637 0
M  V30 10226 H 966.165 0.688614 -5.61493 0
M  V30 10227 H 964.722 0.41056 -6.50506 0
M  V30 10228 N 968.156 1.1691 -1.05688 0
M  V30 10229 C 969.402 1.8757 -0.771071 0
M  V30 10230 C 969.735 1.8113 0.700399 0
M  V30 10231 O 969.01 1.22273 1.5126 0
M  V30 10232 C 969.293 3.37392 -1.25851 0
M  V30 10233 C 969.146 3.52556 -2.79329 0
M  V30 10234 C 970.465 4.31585 -0.861512 0
M  V30 10235 H 967.584 0.681089 -0.281579 0
M  V30 10236 H 970.226 1.37453 -1.31174 0
M  V30 10237 H 968.376 3.80204 -0.798563 0
M  V30 10238 H 970.048 3.18725 -3.33485 0
M  V30 10239 H 968.291 2.94668 -3.1836 0
M  V30 10240 H 968.962 4.57748 -3.08498 0
M  V30 10241 H 971.438 3.96642 -1.25756 0
M  V30 10242 H 970.314 5.34939 -1.23012 0
M  V30 10243 H 970.575 4.4148 0.234089 0
M  V30 10244 N 969.634 0.838594 1.33437 0
M  V30 10245 C 970.566 0.229006 2.28053 0
M  V30 10246 C 971.579 -0.590103 1.51729 0
M  V30 10247 O 972.768 -0.417218 1.73556 0
M  V30 10248 C 969.868 -0.696251 3.31671 0
M  V30 10249 C 969.041 0.0834606 4.3732 0
M  V30 10250 C 968.1 -0.765097 5.20608 0
M  V30 10251 O 967.126 -0.2044 5.68833 0
M  V30 10252 N 968.328 -2.08249 5.4186 0
M  V30 10253 H 971.093 1.04196 2.81004 0
M  V30 10254 H 968.654 0.697031 1.46127 0
M  V30 10255 H 970.646 -1.26889 3.84293 0
M  V30 10256 H 969.216 -1.40992 2.78998 0
M  V30 10257 H 968.436 0.837481 3.85201 0
M  V30 10258 H 969.724 0.619613 5.05013 0
M  V30 10259 H 969.122 -2.56156 5.04381 0
M  V30 10260 H 967.679 -2.60362 5.97541 0
M  V30 10261 N 971.112 -1.45937 0.595003 0
M  V30 10262 C 972.075 -2.2888 -0.121102 0
M  V30 10263 C 973.075 -1.39075 -0.807149 0
M  V30 10264 O 974.265 -1.61326 -0.657228 0
M  V30 10265 C 971.397 -3.19778 -1.1813 0
M  V30 10266 H 972.59 -2.93673 0.607968 0
M  V30 10267 H 970.143 -1.5225 0.353495 0
M  V30 10268 H 970.878 -2.59759 -1.94154 0
M  V30 10269 H 970.663 -3.85914 -0.693724 0
M  V30 10270 H 972.153 -3.82176 -1.68319 0
M  V30 10271 N 972.59 -0.333456 -1.54032 0
M  V30 10272 C 973.815 0.270517 -2.05628 0
M  V30 10273 C 974.24 1.44231 -1.20744 0
M  V30 10274 O 973.598 1.79975 -0.218822 0
M  V30 10275 C 973.646 0.673251 -3.54259 0
M  V30 10276 O 972.75 1.77448 -3.72271 0
M  V30 10277 H 972.091 0.0469753 -0.662336 0
M  V30 10278 H 974.621 -0.484739 -1.98775 0
M  V30 10279 H 974.631 0.953194 -3.96709 0
M  V30 10280 H 973.306 -0.183747 -4.15494 0
M  V30 10281 H 971.883 1.49259 -3.41725 0
M  V30 10282 N 974.068 1.57479 -0.061844 0
M  V30 10283 C 974.998 2.15181 0.9066 0
M  V30 10284 C 975.979 1.07624 1.31724 0
M  V30 10285 O 977.164 1.35614 1.39006 0
M  V30 10286 C 974.294 2.70542 2.17771 0
M  V30 10287 C 973.248 3.83178 1.9068 0
M  V30 10288 C 972.574 4.25099 3.24337 0
M  V30 10289 C 973.874 5.07853 1.21994 0
M  V30 10290 H 975.568 2.96355 0.42594 0
M  V30 10291 H 973.114 1.42556 0.203435 0
M  V30 10292 H 975.067 3.09552 2.85929 0
M  V30 10293 H 973.791 1.86575 2.68062 0
M  V30 10294 H 972.45 3.44656 1.24931 0
M  V30 10295 H 972.098 3.38069 3.72449 0
M  V30 10296 H 971.798 5.01021 3.07005 0
M  V30 10297 H 973.322 4.66718 3.93709 0
M  V30 10298 H 974.736 5.44242 1.80204 0
M  V30 10299 H 973.133 5.88987 1.14954 0
M  V30 10300 H 974.203 4.84497 0.197536 0
M  V30 10301 N 975.546 -0.211634 1.56173 0
M  V30 10302 C 976.456 -1.2831 1.96402 0
M  V30 10303 C 977.472 -1.50731 0.869254 0
M  V30 10304 O 978.648 -1.63669 1.17365 0
M  V30 10305 C 975.713 -2.61084 2.28114 0
M  V30 10306 C 974.774 -2.46879 3.51211 0
M  V30 10307 C 974.007 -3.73321 3.81401 0
M  V30 10308 O 974.23 -4.76773 3.13119 0
M  V30 10309 O 973.164 -3.69839 4.74871 0
M  V30 10310 H 976.99 -0.971733 2.87734 0
M  V30 10311 H 974.575 -0.415305 1.43512 0
M  V30 10312 H 976.457 -3.39481 2.49661 0
M  V30 10313 H 975.132 -2.91881 1.39954 0
M  V30 10314 H 974.039 -1.66648 3.34932 0
M  V30 10315 H 975.372 -2.21018 4.39786 0
M  V30 10316 N 977.024 -1.50153 -0.478725 0
M  V30 10317 C 977.972 -1.68975 -1.59844 0
M  V30 10318 C 978.966 -0.555591 -1.6003 0
M  V30 10319 O 980.172 -0.735875 -1.64271 0
M  V30 10320 H 976.547 -0.533211 -0.530274 0
M  V30 10321 H 978.518 -2.62917 -1.41128 0
M  V30 10322 C 977.267 -1.79409 -2.97838 0
M  V30 10323 H 976.59 -2.66066 -2.98411 0
M  V30 10324 H 978.03 -1.96606 -3.75662 0
M  V30 10325 C 976.489 -0.543927 -3.3248 0
M  V30 10326 O 977.019 0.320376 -4.0042 0
M  V30 10327 N 975.225 -0.400217 -2.87831 0
M  V30 10328 H 974.772 -1.10458 -2.32716 0
M  V30 10329 H 974.73 0.435111 -3.11375 0
M  V30 10330 N 978.502 0.731368 -1.39602 0
M  V30 10331 C 979.435 1.85433 -1.33004 0
M  V30 10332 C 980.413 1.61327 -0.20307 0
M  V30 10333 O 981.597 1.84545 -0.384124 0
M  V30 10334 C 978.724 3.21483 -1.06613 0
M  V30 10335 C 977.77 3.64443 -2.21549 0
M  V30 10336 S 978.603 3.73387 -3.83852 0
M  V30 10337 C 979.759 5.12222 -3.59694 0
M  V30 10338 H 979.992 1.90747 -2.28041 0
M  V30 10339 H 977.525 0.89659 -1.25701 0
M  V30 10340 H 979.483 4.00041 -0.920719 0
M  V30 10341 H 978.144 3.1382 -0.132563 0
M  V30 10342 H 977.337 4.63185 -1.98686 0
M  V30 10343 H 976.939 2.93099 -2.32312 0
M  V30 10344 H 979.231 5.98666 -3.17184 0
M  V30 10345 H 980.174 5.40115 -4.5791 0
M  V30 10346 H 980.582 4.8207 -2.93716 0
M  V30 10347 N 979.98 1.24838 0.961938 0
M  V30 10348 C 980.943 1.04674 2.03902 0
M  V30 10349 C 981.943 0.00204674 1.608 0
M  V30 10350 O 983.133 0.243555 1.72489 0
M  V30 10351 C 980.265 0.587736 3.35795 0
M  V30 10352 H 981.458 2.00278 2.23223 0
M  V30 10353 H 979.011 1.07142 1.138 0
M  V30 10354 H 979.746 -0.371244 3.22168 0
M  V30 10355 H 979.531 1.34182 3.68426 0
M  V30 10356 H 981.021 0.467867 4.14971 0
M  V30 10357 N 981.458 -1.16348 1.06306 0
M  V30 10358 C 982.405 -2.20741 0.673962 0
M  V30 10359 C 983.375 -1.628 -0.329454 0
M  V30 10360 O 984.56 -1.89547 -0.218313 0
M  V30 10361 C 981.7 -3.45036 0.0667008 0
M  V30 10362 C 980.813 -4.17221 1.12031 0
M  V30 10363 C 979.948 -5.29034 0.479176 0
M  V30 10364 C 978.987 -5.93021 1.51631 0
M  V30 10365 N 978.124 -6.96327 0.898528 0
M  V30 10366 H 982.964 -2.53376 1.56859 0
M  V30 10367 H 980.501 -1.24449 0.784276 0
M  V30 10368 H 982.459 -4.16099 -0.302916 0
M  V30 10369 H 981.089 -3.1295 -0.791333 0
M  V30 10370 H 980.141 -3.4476 1.60763 0
M  V30 10371 H 981.453 -4.60902 1.90712 0
M  V30 10372 H 980.607 -6.06674 0.0565993 0
M  V30 10373 H 979.346 -4.86517 -0.33951 0
M  V30 10374 H 978.351 -5.14104 1.94878 0
M  V30 10375 H 979.576 -6.37618 2.3371 0
M  V30 10376 H 977.522 -6.55923 0.100555 0
M  V30 10377 H 977.439 -7.38379 1.62272 0
M  V30 10378 H 978.707 -7.77888 0.5011 0
M  V30 10379 N 982.937 -0.845659 -1.3299 0
M  V30 10380 C 984.183 -0.445311 -1.9785 0
M  V30 10381 C 984.516 0.994476 -1.66805 0
M  V30 10382 O 983.791 1.69636 -0.95151 0
M  V30 10383 C 984.074 -0.674371 -3.53729 0
M  V30 10384 C 983.927 -2.16192 -3.94437 0
M  V30 10385 C 985.246 -0.124908 -4.39923 0
M  V30 10386 H 982.365 -0.163269 -0.718688 0
M  V30 10387 H 985.007 -1.06242 -1.5752 0
M  V30 10388 H 983.157 -0.149091 -3.88214 0
M  V30 10389 H 984.829 -2.75259 -3.70176 0
M  V30 10390 H 983.072 -2.64386 -3.43922 0
M  V30 10391 H 983.743 -2.27292 -5.03033 0
M  V30 10392 H 986.219 -0.573986 -4.12122 0
M  V30 10393 H 985.095 -0.314816 -5.47996 0
M  V30 10394 H 985.356 0.971758 -4.31288 0
M  V30 10395 N 984.415 1.45619 -0.602734 0
M  V30 10396 C 985.661 2.02572 -0.0961759 0
M  V30 10397 C 985.994 1.47076 1.26815 0
M  V30 10398 O 985.269 0.643566 1.83544 0
M  V30 10399 C 985.552 3.60062 -0.0520032 0
M  V30 10400 C 985.405 4.25901 -1.44665 0
M  V30 10401 C 986.724 4.35446 0.638342 0
M  V30 10402 H 983.843 0.736099 -0.0364238 0
M  V30 10403 H 986.485 1.7353 -0.773776 0
M  V30 10404 H 984.635 3.84936 0.525032 0
M  V30 10405 H 986.307 4.12228 -2.0704 0
M  V30 10406 H 984.55 3.84489 -2.00874 0
M  V30 10407 H 985.221 5.34779 -1.36803 0
M  V30 10408 H 987.697 4.15837 0.147926 0
M  V30 10409 H 986.573 5.45176 0.63834 0
M  V30 10410 H 986.834 4.07962 1.70351 0
M  V30 10411 N 985.893 0.34162 1.53853 0
M  V30 10412 C 987.17 -0.310664 1.93117 0
M  V30 10413 C 987.55 -1.68398 1.273 0
M  V30 10414 O 986.898 -2.24546 0.423225 0
M  V30 10415 C 987.108 -0.384867 3.46871 0
M  V30 10416 C 988.456 -0.636621 4.198 0
M  V30 10417 O 989.48 -0.467061 3.53125 0
M  V30 10418 O 988.339 -0.964962 5.37913 0
M  V30 10419 H 985.433 -0.180881 0.806977 0
M  V30 10420 H 987.979 0.392656 1.65095 0
M  V30 10421 H 986.751 0.57894 3.86994 0
M  V30 10422 H 986.374 -1.13505 3.81054 0
M  V30 10423 N 987.371 -1.57444 0.0701946 0
M  V30 10424 C 988.303 -2.09611 -0.927142 0
M  V30 10425 C 989.316 -1.02791 -1.26245 0
M  V30 10426 O 990.505 -1.30309 -1.21992 0
M  V30 10427 C 987.605 -2.54015 -2.24342 0
M  V30 10428 C 986.778 -3.84389 -2.08719 0
M  V30 10429 C 985.837 -4.14904 -3.23638 0
M  V30 10430 O 984.863 -4.84528 -2.98699 0
M  V30 10431 N 986.065 -3.68322 -4.48686 0
M  V30 10432 H 988.83 -2.95803 -0.481753 0
M  V30 10433 H 986.391 -1.61487 -0.115572 0
M  V30 10434 H 988.383 -2.71492 -3.00124 0
M  V30 10435 H 986.953 -1.72969 -2.60385 0
M  V30 10436 H 986.173 -3.76308 -1.17415 0
M  V30 10437 H 987.461 -4.69729 -1.9553 0
M  V30 10438 H 986.859 -3.12073 -4.71834 0
M  V30 10439 H 985.416 -3.91002 -5.21499 0
M  V30 10440 N 988.849 0.203349 -1.56283 0
M  V30 10441 C 989.781 1.27592 -1.90402 0
M  V30 10442 C 990.794 1.4213 -0.79391 0
M  V30 10443 O 991.983 1.42703 -1.07229 0
M  V30 10444 C 989.083 2.64919 -2.11356 0
M  V30 10445 C 988.256 2.72095 -3.42466 0
M  V30 10446 C 987.315 3.9056 -3.52631 0
M  V30 10447 O 986.341 3.78048 -4.25521 0
M  V30 10448 N 987.543 5.0566 -2.85111 0
M  V30 10449 H 990.308 0.986423 -2.83001 0
M  V30 10450 H 987.869 0.39331 -1.5705 0
M  V30 10451 H 989.861 3.42581 -2.15453 0
M  V30 10452 H 988.431 2.86391 -1.25295 0
M  V30 10453 H 987.651 1.8077 -3.50308 0
M  V30 10454 H 988.939 2.73874 -4.28801 0
M  V30 10455 H 988.337 5.18723 -2.25705 0
M  V30 10456 H 986.894 5.81299 -2.94847 0
M  V30 10457 N 990.327 1.50405 0.470755 0
M  V30 10458 C 991.275 1.6982 1.58946 0
M  V30 10459 C 992.269 0.56407 1.59733 0
M  V30 10460 O 993.475 0.744576 1.63878 0
M  V30 10461 H 989.85 0.536016 0.527438 0
M  V30 10462 H 991.821 2.63662 1.39732 0
M  V30 10463 C 990.57 1.80986 2.96883 0
M  V30 10464 H 989.893 2.67645 2.96996 0
M  V30 10465 H 991.333 1.98596 3.74614 0
M  V30 10466 C 989.792 0.561551 3.32187 0
M  V30 10467 O 990.322 -0.299136 4.00585 0
M  V30 10468 N 988.528 0.415476 2.87615 0
M  V30 10469 H 988.075 1.11691 2.32127 0
M  V30 10470 H 988.033 -0.418592 3.11601 0
M  V30 10471 N 991.805 -0.723954 1.39988 0
M  V30 10472 C 992.768 -1.81973 1.3935 0
M  V30 10473 C 993.768 -1.58187 0.288702 0
M  V30 10474 O 994.958 -1.65383 0.547181 0
M  V30 10475 C 992.09 -3.19937 1.177 0
M  V30 10476 H 993.283 -1.83939 2.36868 0
M  V30 10477 H 990.836 -0.928742 1.25714 0
M  V30 10478 H 991.571 -3.23625 0.209093 0
M  V30 10479 H 991.356 -3.386 1.97719 0
M  V30 10480 H 992.846 -3.99981 1.20022 0
M  V30 10481 N 993.283 -1.25346 -0.955304 0
M  V30 10482 C 994.531 -1.09837 -1.69647 0
M  V30 10483 C 994.852 0.361425 -1.91621 0
M  V30 10484 O 994.122 1.25666 -1.50283 0
M  V30 10485 H 992.702 -0.403467 -0.628668 0
M  V30 10486 H 995.364 -1.57459 -1.14859 0
M  V30 10487 H 994.46 -1.60616 -2.67598 0
M  V30 10488 N 994.761 1.15782 -1.06922 0
M  V30 10489 C 996.038 1.8253 -0.703 0
M  V30 10490 C 996.418 1.94733 0.814994 0
M  V30 10491 O 995.766 1.49537 1.72774 0
M  V30 10492 C 995.976 3.19145 -1.41234 0
M  V30 10493 C 997.324 3.94839 -1.56164 0
M  V30 10494 O 998.348 3.28685 -1.37277 0
M  V30 10495 O 997.207 5.13436 -1.87205 0
M  V30 10496 H 994.301 0.788425 -0.24963 0
M  V30 10497 H 996.847 1.22931 -1.16988 0
M  V30 10498 H 995.619 3.05336 -2.44715 0
M  V30 10499 H 995.242 3.86427 -0.935959 0
M  V30 10500 N 996.239 0.8527 1.3254 0
M  V30 10501 C 997.65 0.510012 1.79599 0
M  V30 10502 C 998.001 -0.972002 1.70431 0
M  V30 10503 O 997.126 -1.7581 1.26173 0
M  V30 10504 C 997.721 0.918986 3.26098 0
M  V30 10505 C 996.28 0.628227 3.7112 0
M  V30 10506 C 995.427 1.11979 2.53685 0
M  V30 10507 H 998.378 1.04009 1.19866 0
M  V30 10508 H 998.399 0.234577 3.79776 0
M  V30 10509 H 997.911 1.99765 3.32739 0
M  V30 10510 H 996.012 -0.4398 3.69995 0
M  V30 10511 H 996.125 1.19315 4.64005 0
M  V30 10512 H 994.489 0.540133 2.48907 0
M  V30 10513 H 995.272 2.20552 2.63081 0
M  V30 10514 N 997.718 -1.45297 0.610449 0
M  V30 10515 C 998.681 -2.28995 -0.0968194 0
M  V30 10516 C 999.681 -1.39923 -0.792353 0
M  V30 10517 O 1000.87 -1.62014 -0.64008 0
M  V30 10518 C 998.003 -3.21013 -1.14731 0
M  V30 10519 H 999.196 -2.93012 0.639082 0
M  V30 10520 H 996.749 -1.51867 0.369624 0
M  V30 10521 H 997.484 -2.61803 -1.91388 0
M  V30 10522 H 997.269 -3.86628 -0.652753 0
M  V30 10523 H 998.759 -3.8394 -1.64256 0
M  V30 10524 N 999.196 -0.349774 -1.5367 0
M  V30 10525 C 1000.43 0.245682 -2.05134 0
M  V30 10526 C 1000.83 1.44269 -1.22406 0
M  V30 10527 O 1000.18 1.81938 -0.25379 0
M  V30 10528 C 1000.24 0.718439 -3.52248 0
M  V30 10529 C 999.903 -0.35975 -4.55582 0
M  V30 10530 C 1000.9 -1.20449 -5.05755 0
M  V30 10531 C 998.585 -0.515463 -4.99648 0
M  V30 10532 C 1000.58 -2.19043 -5.98581 0
M  V30 10533 C 998.266 -1.50479 -5.92283 0
M  V30 10534 C 999.264 -2.34072 -6.41638 0
M  V30 10535 O 998.952 -3.31319 -7.3245 0
M  V30 10536 H 998.684 0.0501122 -0.67414 0
M  V30 10537 H 1001.24 -0.5018 -1.99176 0
M  V30 10538 H 999.468 1.51727 -3.55691 0
M  V30 10539 H 1001.16 1.23513 -3.86651 0
M  V30 10540 H 1001.92 -1.09531 -4.7247 0
M  V30 10541 H 997.802 0.12537 -4.60829 0
M  V30 10542 H 1001.35 -2.84327 -6.37027 0
M  V30 10543 H 997.243 -1.61451 -6.24983 0
M  V30 10544 H 998.011 -3.26863 -7.50402 0
M  V30 10545 N 1000.67 1.57404 -0.0785433 0
M  V30 10546 C 1002.09 1.57158 0.2781 0
M  V30 10547 C 1002.29 1.08847 1.69572 0
M  V30 10548 O 1001.35 0.757407 2.40873 0
M  V30 10549 C 1002.66 3.00589 0.0816067 0
M  V30 10550 C 1004.21 3.12637 0.150627 0
M  V30 10551 C 1004.68 4.57997 -0.0176685 0
M  V30 10552 N 1006.17 4.63185 0.0377145 0
M  V30 10553 C 1006.91 5.7336 -0.0679907 0
M  V30 10554 N 1006.4 6.92426 -0.227598 0
M  V30 10555 N 1008.2 5.62099 -0.0104424 0
M  V30 10556 H 1000.35 1.87121 -1.00496 0
M  V30 10557 H 1002.61 0.862937 -0.392484 0
M  V30 10558 H 1002.32 3.40072 -0.896869 0
M  V30 10559 H 1002.19 3.67931 0.831046 0
M  V30 10560 H 1004.58 2.73037 1.11959 0
M  V30 10561 H 1004.66 2.4792 -0.630028 0
M  V30 10562 H 1004.3 4.98288 -0.983431 0
M  V30 10563 H 1004.23 5.20754 0.782475 0
M  V30 10564 H 1006.72 3.77564 0.159208 0
M  V30 10565 H 1007.04 7.72217 -0.300217 0
M  V30 10566 H 1005.38 6.94502 -0.263049 0
M  V30 10567 H 1008.57 4.67964 0.112999 0
M  V30 10568 H 1008.75 6.47928 -0.0962747 0
M  V30 10569 N 1002.15 -0.195058 1.56388 0
M  V30 10570 C 1003.56 -0.75973 1.70543 0
M  V30 10571 C 1003.91 -1.83849 0.685118 0
M  V30 10572 O 1003.04 -2.15819 -0.158457 0
M  V30 10573 C 1003.63 -1.38485 3.09204 0
M  V30 10574 C 1002.19 -1.89661 3.25124 0
M  V30 10575 C 1001.34 -0.766563 2.66494 0
M  V30 10576 H 1004.29 0.0300148 1.58672 0
M  V30 10577 H 1004.31 -2.25424 3.06536 0
M  V30 10578 H 1003.82 -0.599479 3.83442 0
M  V30 10579 H 1001.92 -2.70917 2.55802 0
M  V30 10580 H 1002.04 -2.05837 4.32629 0
M  V30 10581 H 1000.4 -1.18086 2.25672 0
M  V30 10582 H 1001.18 0.00657102 3.43299 0
M  V30 10583 N 1003.63 -1.50653 -0.462772 0
M  V30 10584 C 1004.56 -1.64773 -1.57877 0
M  V30 10585 C 1005.54 -0.495664 -1.54861 0
M  V30 10586 O 1006.72 -0.716248 -1.74362 0
M  V30 10587 C 1003.85 -1.63796 -2.9646 0
M  V30 10588 C 1002.9 -2.84663 -3.17599 0
M  V30 10589 S 1003.73 -4.45852 -2.96608 0
M  V30 10590 C 1004.89 -4.47581 -4.37518 0
M  V30 10591 H 1005.12 -2.59172 -1.45661 0
M  V30 10592 H 1002.65 -1.40019 -0.650699 0
M  V30 10593 H 1004.61 -1.63918 -3.76353 0
M  V30 10594 H 1003.27 -0.706185 -3.06059 0
M  V30 10595 H 1002.46 -2.80308 -4.1886 0
M  V30 10596 H 1002.07 -2.82152 -2.45492 0
M  V30 10597 H 1004.36 -4.21656 -5.30295 0
M  V30 10598 H 1005.3 -5.49248 -4.46914 0
M  V30 10599 H 1005.71 -3.7719 -4.19985 0
M  V30 10600 N 1005.11 0.71652 -1.4037 0
M  V30 10601 C 1006.07 1.81231 -1.40313 0
M  V30 10602 C 1007.07 1.58032 -0.297087 0
M  V30 10603 O 1008.26 1.65091 -0.555944 0
M  V30 10604 C 1005.39 3.19308 -1.19395 0
M  V30 10605 H 1006.59 1.8268 -2.3784 0
M  V30 10606 H 1004.14 0.922062 -1.26205 0
M  V30 10607 H 1004.87 3.2351 -0.226252 0
M  V30 10608 H 1004.66 3.37546 -1.99512 0
M  V30 10609 H 1006.15 3.99339 -1.22141 0
M  V30 10610 N 1006.59 1.25851 0.948643 0
M  V30 10611 C 1007.83 1.10735 1.69062 0
M  V30 10612 C 1008.16 -0.351257 1.9181 0
M  V30 10613 O 1007.43 -1.24867 1.50947 0
M  V30 10614 H 1006.01 0.406796 0.626519 0
M  V30 10615 H 1008.67 1.58066 1.14022 0
M  V30 10616 H 1007.76 1.62033 2.66743 0
M  V30 10617 N 1008.06 -1.15214 1.07534 0
M  V30 10618 C 1009.01 -2.22078 0.69168 0
M  V30 10619 C 1010.01 -1.66751 -0.298382 0
M  V30 10620 O 1011.21 -1.7927 -0.161897 0
M  V30 10621 H 1007.59 -0.723347 0.205604 0
M  V30 10622 H 1009.56 -2.51716 1.60256 0
M  V30 10623 C 1008.31 -3.47534 0.107546 0
M  V30 10624 H 1007.63 -3.90429 0.860522 0
M  V30 10625 H 1009.07 -4.23821 -0.123215 0
M  V30 10626 C 1007.53 -3.16583 -1.15226 0
M  V30 10627 O 1008.06 -3.33551 -2.23845 0
M  V30 10628 N 1006.27 -2.70611 -1.05915 0
M  V30 10629 H 1005.81 -2.57004 -0.175198 0
M  V30 10630 H 1005.77 -2.50277 -1.90287 0
M  V30 10631 N 1009.54 -0.859717 -1.32086 0
M  V30 10632 C 1010.79 -0.465581 -1.97075 0
M  V30 10633 C 1011.12 0.979917 -1.68012 0
M  V30 10634 O 1010.37 1.70337 -0.96353 0
M  V30 10635 C 1010.67 -0.657397 -3.51302 0
M  V30 10636 C 1010.34 -2.07413 -4.00363 0
M  V30 10637 C 1009 -2.4616 -4.13472 0
M  V30 10638 C 1011.35 -2.99855 -4.26305 0
M  V30 10639 C 1008.68 -3.76611 -4.49868 0
M  V30 10640 C 1011.03 -4.2981 -4.64161 0
M  V30 10641 C 1009.7 -4.68485 -4.75476 0
M  V30 10642 H 1008.97 -0.170368 -0.721149 0
M  V30 10643 H 1011.61 -1.09074 -1.57401 0
M  V30 10644 H 1009.92 0.0509638 -3.91767 0
M  V30 10645 H 1011.61 -0.332416 -3.9962 0
M  V30 10646 H 1008.2 -1.76327 -3.90649 0
M  V30 10647 H 1012.39 -2.7115 -4.15682 0
M  V30 10648 H 1007.64 -4.06352 -4.56824 0
M  V30 10649 H 1011.82 -5.015 -4.83188 0
M  V30 10650 H 1009.45 -5.69612 -5.03435 0
M  V30 10651 N 1011.02 1.44971 -0.618145 0
M  V30 10652 C 1011.98 2.29044 0.0846739 0
M  V30 10653 C 1012.98 1.40341 0.784921 0
M  V30 10654 O 1014.17 1.62351 0.631479 0
M  V30 10655 C 1011.31 3.21617 1.13027 0
M  V30 10656 H 1012.5 2.92668 -0.654612 0
M  V30 10657 H 1010.05 1.51668 -0.377672 0
M  V30 10658 H 1010.79 2.62815 1.89997 0
M  V30 10659 H 1010.57 3.86969 0.63224 0
M  V30 10660 H 1012.06 3.84805 1.62218 0
M  V30 10661 N 1012.5 0.357919 1.53482 0
M  V30 10662 C 1013.45 -0.507364 2.26999 0
M  V30 10663 C 1014.44 -1.08987 1.29685 0
M  V30 10664 O 1015.65 -1.03396 1.47341 0
M  V30 10665 H 1012.02 -0.182326 0.729562 0
M  V30 10666 H 1013.99 0.134547 2.98097 0
M  V30 10667 C 1012.74 -1.63911 3.06641 0
M  V30 10668 H 1012.06 -1.20017 3.81361 0
M  V30 10669 H 1013.5 -2.21943 3.61272 0
M  V30 10670 C 1011.96 -2.57697 2.17011 0
M  V30 10671 O 1012.49 -3.60318 1.77578 0
M  V30 10672 N 1010.7 -2.2671 1.818 0
M  V30 10673 H 1010.25 -1.43296 2.14065 0
M  V30 10674 H 1010.2 -2.89716 1.22115 0
M  V30 10675 N 1013.98 -1.5736 0.0868897 0
M  V30 10676 C 1015.2 -1.98809 -0.590757 0
M  V30 10677 C 1015.63 -0.965407 -1.61436 0
M  V30 10678 O 1014.98 0.067143 -1.81176 0
M  V30 10679 C 1015.03 -3.39249 -1.22238 0
M  V30 10680 O 1014.14 -3.39706 -2.33824 0
M  V30 10681 H 1013.48 -0.64669 -0.150626 0
M  V30 10682 H 1016.01 -2.03927 0.165873 0
M  V30 10683 H 1016.02 -3.76765 -1.56564 0
M  V30 10684 H 1014.69 -4.13208 -0.472434 0
M  V30 10685 H 1013.27 -3.13977 -2.01178 0
M  V30 10686 N 1015.45 0.186762 -1.56489 0
M  V30 10687 C 1016.69 0.912523 -1.829 0
M  V30 10688 C 1017.06 1.80094 -0.665598 0
M  V30 10689 O 1018.26 2.56312 -0.809787 0
M  V30 10690 C 1016.53 1.70022 -3.14368 0
M  V30 10691 S 1018.09 2.47686 -3.62211 0
M  V30 10692 H 1014.91 0.305916 -0.641823 0
M  V30 10693 H 1017.51 0.175289 -1.94713 0
M  V30 10694 H 1016.21 1.03832 -3.97048 0
M  V30 10695 H 1015.74 2.47912 -3.05456 0
M  V30 10696 H 1017.76 3.72058 -3.28309 0
M  V30 10697 N 1016.93 1.50896 0.454776 0
M  V30 10698 C 1017.9 1.70377 1.53312 0
M  V30 10699 C 1018.9 0.57408 1.50203 0
M  V30 10700 O 1020.09 0.841374 1.52534 0
M  V30 10701 C 1017.22 1.74411 2.92905 0
M  V30 10702 H 1018.41 2.66599 1.37349 0
M  V30 10703 H 1015.96 1.40622 0.68228 0
M  V30 10704 H 1016.7 0.799408 3.14293 0
M  V30 10705 H 1016.48 2.56496 2.96568 0
M  V30 10706 H 1017.97 1.91382 3.71164 0
M  V30 10707 N 1018.41 -0.709066 1.40748 0
M  V30 10708 C 1019.66 -1.46901 1.39378 0
M  V30 10709 C 1019.99 -1.945 -0.0016993 0
M  V30 10710 O 1019.24 -1.68963 -0.987426 0
M  V30 10711 C 1019.54 -2.70543 2.33541 0
M  V30 10712 C 1019.21 -2.41674 3.80663 0
M  V30 10713 C 1017.87 -2.33511 4.20745 0
M  V30 10714 C 1020.22 -2.1759 4.73607 0
M  V30 10715 C 1017.55 -1.99342 5.51797 0
M  V30 10716 C 1019.9 -1.84933 6.04965 0
M  V30 10717 C 1018.56 -1.75256 6.44082 0
M  V30 10718 H 1017.83 -0.537549 0.510021 0
M  V30 10719 H 1020.48 -0.811635 1.7345 0
M  V30 10720 H 1018.79 -3.41149 1.92677 0
M  V30 10721 H 1020.48 -3.2865 2.29761 0
M  V30 10722 H 1017.07 -2.48917 3.4891 0
M  V30 10723 H 1021.26 -2.22849 4.43454 0
M  V30 10724 H 1016.51 -1.90392 5.81 0
M  V30 10725 H 1020.69 -1.65313 6.76494 0
M  V30 10726 H 1018.31 -1.48547 7.45545 0
M  V30 10727 N 1019.89 -1.26353 -0.941956 0
M  V30 10728 C 1020.84 -1.07842 -2.04056 0
M  V30 10729 C 1021.81 0.0163064 -1.66092 0
M  V30 10730 O 1022.99 -0.143313 -1.90261 0
M  V30 10731 C 1020.13 -0.716636 -3.37577 0
M  V30 10732 C 1019.24 -1.88754 -3.88582 0
M  V30 10733 C 1018.38 -1.46893 -5.10486 0
M  V30 10734 C 1017.42 -2.60819 -5.53751 0
M  V30 10735 N 1016.56 -2.19646 -6.66858 0
M  V30 10736 H 1021.4 -2.01856 -2.19221 0
M  V30 10737 H 1018.93 -1.00504 -1.07412 0
M  V30 10738 H 1020.89 -0.487768 -4.14339 0
M  V30 10739 H 1019.52 0.18653 -3.22261 0
M  V30 10740 H 1018.57 -2.22936 -3.08227 0
M  V30 10741 H 1019.88 -2.74264 -4.1663 0
M  V30 10742 H 1019.04 -1.20047 -5.94705 0
M  V30 10743 H 1017.78 -0.584721 -4.84182 0
M  V30 10744 H 1016.78 -2.88396 -4.6809 0
M  V30 10745 H 1018.01 -3.49838 -5.82057 0
M  V30 10746 H 1015.95 -1.33657 -6.4224 0
M  V30 10747 H 1015.87 -2.987 -6.94489 0
M  V30 10748 H 1017.14 -1.96009 -7.54454 0
M  V30 10749 N 1021.37 1.14642 -1.08144 0
M  V30 10750 C 1022.33 2.17834 -0.712799 0
M  V30 10751 C 1023.33 1.58828 0.251041 0
M  V30 10752 O 1024.52 1.74173 0.0309381 0
M  V30 10753 C 1021.65 3.4086 -0.0519477 0
M  V30 10754 H 1022.85 2.51961 -1.62653 0
M  V30 10755 H 1020.4 1.29243 -0.878971 0
M  V30 10756 H 1021.13 3.12311 0.873636 0
M  V30 10757 H 1020.92 3.84952 -0.745286 0
M  V30 10758 H 1022.41 4.17163 0.191031 0
M  V30 10759 N 1022.85 0.866709 1.31628 0
M  V30 10760 C 1023.81 0.325041 2.26883 0
M  V30 10761 C 1024.81 -0.522133 1.52087 0
M  V30 10762 O 1026 -0.331908 1.71009 0
M  V30 10763 C 1023.13 -0.538756 3.36616 0
M  V30 10764 H 1024.32 1.16592 2.76308 0
M  V30 10765 H 1021.88 0.642029 1.42505 0
M  V30 10766 H 1022.61 -1.40096 2.92478 0
M  V30 10767 H 1022.4 0.0678115 3.92041 0
M  V30 10768 H 1023.89 -0.910123 4.07562 0
M  V30 10769 N 1024.32 -1.44642 0.625825 0
M  V30 10770 C 1025.55 -2.06971 0.133373 0
M  V30 10771 C 1025.97 -1.46421 -1.18078 0
M  V30 10772 O 1025.33 -0.563676 -1.72315 0
M  V30 10773 C 1025.38 -3.6059 0.0265097 0
M  V30 10774 O 1024.48 -3.99615 -1.01889 0
M  V30 10775 H 1023.82 -0.658873 0.0823568 0
M  V30 10776 H 1026.35 -1.85601 0.861002 0
M  V30 10777 H 1026.36 -4.07663 -0.1658 0
M  V30 10778 H 1025.04 -4.04043 0.985986 0
M  V30 10779 H 1023.62 -3.64183 -0.801577 0
M  V30 10780 N 1025.8 -0.366053 -1.5329 0
M  V30 10781 C 1027.08 0.279902 -1.93587 0
M  V30 10782 C 1027.46 1.66352 -1.29963 0
M  V30 10783 O 1026.81 2.23845 -0.458895 0
M  V30 10784 C 1027.02 0.329634 -3.4744 0
M  V30 10785 C 1028.36 0.569754 -4.2076 0
M  V30 10786 O 1029.39 0.410823 -3.53823 0
M  V30 10787 O 1028.25 0.879262 -5.3938 0
M  V30 10788 H 1025.34 0.16802 -0.809752 0
M  V30 10789 H 1027.89 -0.418871 -1.64449 0
M  V30 10790 H 1026.66 -0.640434 -3.86023 0
M  V30 10791 H 1026.28 1.07428 -3.82812 0
M  V30 10792 N 1027.28 1.57312 -0.0952337 0
M  V30 10793 C 1028.21 2.17056 0.860753 0
M  V30 10794 C 1029.19 1.10394 1.29411 0
M  V30 10795 O 1030.38 1.38532 1.36098 0
M  V30 10796 C 1027.51 2.751 2.11984 0
M  V30 10797 C 1026.46 3.87136 1.8251 0
M  V30 10798 C 1025.79 4.31883 3.15247 0
M  V30 10799 C 1027.09 5.10326 1.11194 0
M  V30 10800 H 1028.78 2.97192 0.362983 0
M  V30 10801 H 1026.33 1.42955 0.173151 0
M  V30 10802 H 1028.28 3.15547 2.79299 0
M  V30 10803 H 1027 1.92219 2.64044 0
M  V30 10804 H 1025.66 3.47229 1.17592 0
M  V30 10805 H 1025.31 3.45893 3.65195 0
M  V30 10806 H 1025.01 5.0742 2.96309 0
M  V30 10807 H 1026.53 4.74964 3.83721 0
M  V30 10808 H 1027.95 5.47942 1.6862 0
M  V30 10809 H 1026.34 5.91293 1.02435 0
M  V30 10810 H 1027.41 4.84807 0.0947227 0
M  V30 10811 N 1028.76 -0.17846 1.56586 0
M  V30 10812 C 1030.01 -0.894502 1.8078 0
M  V30 10813 C 1030.32 -1.8372 0.67129 0
M  V30 10814 O 1031.53 -2.59509 0.797971 0
M  V30 10815 C 1029.98 -1.64109 3.20306 0
M  V30 10816 C 1029.59 -0.742387 4.41806 0
M  V30 10817 C 1031.33 -2.34578 3.53798 0
M  V30 10818 C 1029.24 -1.4888 5.72354 0
M  V30 10819 H 1028.17 -0.33776 0.674117 0
M  V30 10820 H 1030.82 -0.14752 1.82906 0
M  V30 10821 H 1029.2 -2.43257 3.12477 0
M  V30 10822 H 1030.38 0.011615 4.60799 0
M  V30 10823 H 1028.69 -0.147705 4.16138 0
M  V30 10824 H 1031.29 -2.91004 4.48577 0
M  V30 10825 H 1031.63 -3.09572 2.78336 0
M  V30 10826 H 1032.17 -1.62381 3.63149 0
M  V30 10827 H 1028.9 -0.781325 6.50827 0
M  V30 10828 H 1028.42 -2.21631 5.57351 0
M  V30 10829 H 1030.1 -2.03819 6.14058 0
M  V30 10830 N 1030.24 -1.51135 -0.446768 0
M  V30 10831 C 1031.48 -1.63336 -1.19698 0
M  V30 10832 C 1031.81 -0.345099 -1.91414 0
M  V30 10833 O 1031.07 0.670365 -1.8386 0
M  V30 10834 C 1031.36 -2.78034 -2.2457 0
M  V30 10835 C 1031.03 -4.17652 -1.69934 0
M  V30 10836 C 1029.69 -4.55636 -1.54756 0
M  V30 10837 C 1032.04 -5.04813 -1.29665 0
M  V30 10838 C 1029.37 -5.78496 -0.977689 0
M  V30 10839 C 1031.72 -6.28244 -0.741112 0
M  V30 10840 C 1030.39 -6.65009 -0.576156 0
M  V30 10841 H 1029.66 -0.597689 -0.438006 0
M  V30 10842 H 1032.31 -1.85141 -0.48939 0
M  V30 10843 H 1030.61 -2.50413 -3.01331 0
M  V30 10844 H 1032.31 -2.84675 -2.8242 0
M  V30 10845 H 1028.9 -3.87699 -1.82722 0
M  V30 10846 H 1033.08 -4.76081 -1.40216 0
M  V30 10847 H 1028.34 -6.05636 -0.837563 0
M  V30 10848 H 1032.51 -6.95129 -0.42053 0
M  V30 10849 H 1030.14 -7.60085 -0.132443 0
M  V30 10850 N 1031.71 0.701592 -1.41122 0
M  V30 10851 C 1032.64 1.82815 -1.45262 0
M  V30 10852 C 1033.62 1.67215 -0.311939 0
M  V30 10853 O 1034.81 1.87038 -0.522538 0
M  V30 10854 C 1031.94 3.20899 -1.32819 0
M  V30 10855 C 1030.89 3.51194 -2.44636 0
M  V30 10856 C 1030.22 4.8857 -2.17263 0
M  V30 10857 C 1031.52 3.50777 -3.86979 0
M  V30 10858 H 1033.21 1.79608 -2.39544 0
M  V30 10859 H 1030.76 0.862693 -1.15298 0
M  V30 10860 H 1032.71 3.99417 -1.34329 0
M  V30 10861 H 1031.44 3.24717 -0.350191 0
M  V30 10862 H 1030.1 2.75024 -2.42399 0
M  V30 10863 H 1029.74 4.89007 -1.17819 0
M  V30 10864 H 1029.44 5.09805 -2.92186 0
M  V30 10865 H 1030.97 5.69405 -2.20478 0
M  V30 10866 H 1032.38 4.19309 -3.90964 0
M  V30 10867 H 1030.78 3.83542 -4.61536 0
M  V30 10868 H 1031.85 2.49873 -4.15562 0
M  V30 10869 N 1033.19 1.2685 0.935242 0
M  V30 10870 C 1034.44 1.12522 1.67878 0
M  V30 10871 C 1034.76 -0.330894 1.92172 0
M  V30 10872 O 1034.03 -1.23259 1.52263 0
M  V30 10873 H 1032.61 0.413418 0.622169 0
M  V30 10874 H 1035.27 1.59267 1.12339 0
M  V30 10875 H 1034.37 1.64853 2.65009 0
M  V30 10876 N 1034.67 -1.14067 1.0875 0
M  V30 10877 C 1035.92 -1.85459 0.82053 0
M  V30 10878 C 1036.25 -1.82923 -0.65213 0
M  V30 10879 O 1035.52 -1.26241 -1.47965 0
M  V30 10880 C 1035.81 -3.33937 1.34752 0
M  V30 10881 C 1035.66 -3.45026 2.88578 0
M  V30 10882 C 1036.98 -4.2915 0.975636 0
M  V30 10883 H 1034.1 -0.673384 0.299538 0
M  V30 10884 H 1036.74 -1.33927 1.34772 0
M  V30 10885 H 1034.89 -3.77953 0.899086 0
M  V30 10886 H 1036.56 -3.09771 3.41818 0
M  V30 10887 H 1034.81 -2.86124 3.26061 0
M  V30 10888 H 1035.48 -4.49408 3.20526 0
M  V30 10889 H 1037.95 -3.93168 1.36228 0
M  V30 10890 H 1036.83 -5.31489 1.37152 0
M  V30 10891 H 1037.09 -4.41945 -0.116956 0
M  V30 10892 N 1036.15 -0.873678 -1.31166 0
M  V30 10893 C 1037.1 -0.330288 -2.28424 0
M  V30 10894 C 1038.07 0.573299 -1.55893 0
M  V30 10895 O 1039.25 0.504143 -1.84019 0
M  V30 10896 C 1036.39 0.459004 -3.42034 0
M  V30 10897 C 1035.5 -0.472519 -4.29408 0
M  V30 10898 C 1034.64 0.331261 -5.30166 0
M  V30 10899 C 1033.68 -0.596453 -6.09187 0
M  V30 10900 N 1032.81 0.171305 -7.01891 0
M  V30 10901 H 1037.65 -1.16485 -2.7429 0
M  V30 10902 H 1035.19 -0.585813 -1.34932 0
M  V30 10903 H 1037.15 0.932432 -4.06647 0
M  V30 10904 H 1035.78 1.25824 -2.97268 0
M  V30 10905 H 1034.83 -1.06441 -3.65205 0
M  V30 10906 H 1036.14 -1.18372 -4.84551 0
M  V30 10907 H 1035.3 0.867038 -6.00473 0
M  V30 10908 H 1034.04 1.07573 -4.75688 0
M  V30 10909 H 1033.04 -1.14395 -5.37767 0
M  V30 10910 H 1034.27 -1.33983 -6.65752 0
M  V30 10911 H 1032.21 0.89852 -6.49817 0
M  V30 10912 H 1032.13 -0.480481 -7.54472 0
M  V30 10913 H 1033.4 0.688192 -7.76456 0
M  V30 10914 N 1037.63 1.44308 -0.633487 0
M  V30 10915 C 1038.56 2.28943 0.108474 0
M  V30 10916 C 1039.57 1.41415 0.806582 0
M  V30 10917 O 1040.76 1.65544 0.667634 0
M  V30 10918 C 1037.86 3.17845 1.1759 0
M  V30 10919 C 1037.03 4.33802 0.559842 0
M  V30 10920 C 1036.09 5.03722 1.52154 0
M  V30 10921 O 1035.12 5.5966 1.03776 0
M  V30 10922 N 1036.32 5.05392 2.85586 0
M  V30 10923 H 1039.09 2.93262 -0.617879 0
M  V30 10924 H 1036.65 1.54781 -0.474819 0
M  V30 10925 H 1038.64 3.61485 1.81963 0
M  V30 10926 H 1037.21 2.55261 1.80445 0
M  V30 10927 H 1036.43 3.93325 -0.262559 0
M  V30 10928 H 1037.72 5.08637 0.128942 0
M  V30 10929 H 1037.11 4.61282 3.27468 0
M  V30 10930 H 1035.67 5.52813 3.45313 0
M  V30 10931 N 1039.1 0.374177 1.53094 0
M  V30 10932 C 1040.52 -0.103172 1.86415 0
M  V30 10933 C 1040.87 -1.47439 1.29446 0
M  V30 10934 O 1039.99 -2.07333 0.619853 0
M  V30 10935 C 1040.59 -0.193988 3.38244 0
M  V30 10936 C 1039.15 -0.615605 3.71332 0
M  V30 10937 C 1038.29 0.23186 2.76329 0
M  V30 10938 H 1041.24 0.592644 1.47219 0
M  V30 10939 H 1041.26 -1.01597 3.66686 0
M  V30 10940 H 1040.78 0.80414 3.79678 0
M  V30 10941 H 1038.88 -1.62165 3.3546 0
M  V30 10942 H 1038.99 -0.38425 4.77557 0
M  V30 10943 H 1037.35 -0.300579 2.5292 0
M  V30 10944 H 1038.14 1.22769 3.20597 0
M  V30 10945 N 1040.58 -1.57259 0.103575 0
M  V30 10946 C 1041.53 -2.15727 -0.869739 0
M  V30 10947 C 1042.52 -1.10236 -1.28625 0
M  V30 10948 O 1043.73 -1.28567 -1.25979 0
M  V30 10949 H 1040.11 -0.690204 -0.298535 0
M  V30 10950 H 1042.08 -2.96317 -0.351984 0
M  V30 10951 C 1040.83 -2.75905 -2.11593 0
M  V30 10952 H 1040.15 -3.56768 -1.80434 0
M  V30 10953 H 1041.59 -3.20373 -2.77736 0
M  V30 10954 C 1040.05 -1.72218 -2.89556 0
M  V30 10955 O 1040.58 -1.16623 -3.84398 0
M  V30 10956 N 1038.78 -1.42514 -2.53255 0
M  V30 10957 H 1038.33 -1.87914 -1.76198 0
M  V30 10958 H 1038.29 -0.733782 -3.05717 0
M  V30 10959 N 1042.06 0.170153 -1.56679 0
M  V30 10960 C 1043.31 0.884841 -1.817 0
M  V30 10961 C 1043.63 1.82731 -0.680763 0
M  V30 10962 O 1042.9 1.936 0.299294 0
M  V30 10963 H 1041.48 0.329738 -0.670285 0
M  V30 10964 H 1044.14 0.169691 -1.9416 0
M  V30 10965 H 1043.24 1.46104 -2.7579 0
M  V30 10966 N 1043.54 1.5137 0.438746 0
M  V30 10967 C 1044.77 1.6753 1.20901 0
M  V30 10968 C 1045.18 0.371573 1.85515 0
M  V30 10969 O 1044.52 -0.659701 1.71446 0
M  V30 10970 C 1044.58 2.73305 2.33548 0
M  V30 10971 C 1044.25 4.15944 1.89313 0
M  V30 10972 C 1045.24 5.00769 1.39736 0
M  V30 10973 C 1042.93 4.62036 1.97047 0
M  V30 10974 C 1044.92 6.29747 0.984773 0
M  V30 10975 C 1042.61 5.91011 1.554 0
M  V30 10976 C 1043.61 6.74693 1.06197 0
M  V30 10977 O 1043.29 8.01256 0.651407 0
M  V30 10978 H 1043.03 0.565404 0.370532 0
M  V30 10979 H 1045.58 1.98543 0.526296 0
M  V30 10980 H 1043.81 2.37604 3.05092 0
M  V30 10981 H 1045.5 2.78359 2.95417 0
M  V30 10982 H 1046.27 4.66363 1.33156 0
M  V30 10983 H 1042.14 3.97025 2.34291 0
M  V30 10984 H 1045.69 6.95015 0.600029 0
M  V30 10985 H 1041.59 6.24932 1.6165 0
M  V30 10986 H 1042.35 8.148 0.777382 0
M  V30 10987 N 1045.02 -0.694098 1.41492 0
M  V30 10988 C 1046.24 -1.48286 1.44288 0
M  V30 10989 C 1046.66 -1.88737 0.0485783 0
M  V30 10990 O 1046.02 -1.56881 -0.932449 0
M  V30 10991 C 1046.07 -2.74446 2.3529 0
M  V30 10992 O 1045.79 -2.35698 3.69294 0
M  V30 10993 C 1047.29 -3.68175 2.46905 0
M  V30 10994 H 1044.51 -0.45692 0.491391 0
M  V30 10995 H 1047.05 -0.854477 1.85793 0
M  V30 10996 H 1045.21 -3.33518 1.9709 0
M  V30 10997 H 1045.62 -3.17029 4.17843 0
M  V30 10998 H 1047.1 -4.53476 3.14743 0
M  V30 10999 H 1047.57 -4.12763 1.50078 0
M  V30 11000 H 1048.18 -3.15006 2.85747 0
M  V30 11001 N 1046.49 -1.27344 -0.928501 0
M  V30 11002 C 1047.4 -1.11812 -2.06241 0
M  V30 11003 C 1048.42 -0.048347 -1.73933 0
M  V30 11004 O 1049.6 -0.25467 -1.99783 0
M  V30 11005 C 1046.66 -0.766036 -3.38131 0
M  V30 11006 C 1045.72 -1.91659 -3.84142 0
M  V30 11007 C 1044.96 -1.58121 -5.09738 0
M  V30 11008 O 1045.18 -0.488742 -5.68302 0
M  V30 11009 O 1044.11 -2.42013 -5.51102 0
M  V30 11010 H 1047.94 -2.06967 -2.22258 0
M  V30 11011 H 1045.52 -1.06524 -1.04752 0
M  V30 11012 H 1047.41 -0.582982 -4.17348 0
M  V30 11013 H 1046.08 0.155998 -3.23324 0
M  V30 11014 H 1044.99 -2.1547 -3.05816 0
M  V30 11015 H 1046.32 -2.8188 -4.0349 0
M  V30 11016 N 1047.97 1.13488 -1.09353 0
M  V30 11017 C 1049.38 1.66299 -0.848609 0
M  V30 11018 C 1049.73 1.86044 0.623051 0
M  V30 11019 O 1048.86 1.57871 1.48005 0
M  V30 11020 C 1049.45 3.02087 -1.53391 0
M  V30 11021 C 1048.01 3.51893 -1.33598 0
M  V30 11022 C 1047.16 2.27154 -1.59048 0
M  V30 11023 H 1050.11 0.974208 -1.25279 0
M  V30 11024 H 1050.13 3.68018 -0.966587 0
M  V30 11025 H 1049.64 2.87684 -2.60498 0
M  V30 11026 H 1047.75 3.715 -0.286045 0
M  V30 11027 H 1047.86 4.32059 -2.0703 0
M  V30 11028 H 1046.22 2.33708 -1.01256 0
M  V30 11029 H 1047.01 2.15317 -2.67383 0
M  V30 11030 N 1049.45 0.880621 1.30701 0
M  V30 11031 C 1050.38 0.360251 2.30704 0
M  V30 11032 C 1051.36 -0.554572 1.60806 0
M  V30 11033 O 1052.55 -0.469345 1.88443 0
M  V30 11034 C 1049.68 -0.429888 3.44629 0
M  V30 11035 C 1048.63 0.392786 4.26194 0
M  V30 11036 C 1047.96 -0.52369 5.32129 0
M  V30 11037 C 1049.26 1.63258 4.96129 0
M  V30 11038 H 1050.95 1.19591 2.74478 0
M  V30 11039 H 1048.5 0.576508 1.31956 0
M  V30 11040 H 1050.45 -0.804532 4.13649 0
M  V30 11041 H 1049.17 -1.29916 2.99649 0
M  V30 11042 H 1047.83 0.749514 3.58856 0
M  V30 11043 H 1047.48 -1.39054 4.83397 0
M  V30 11044 H 1047.18 0.0229272 5.87596 0
M  V30 11045 H 1048.71 -0.894946 6.04006 0
M  V30 11046 H 1050.12 1.32877 5.57689 0
M  V30 11047 H 1048.52 2.11906 5.61441 0
M  V30 11048 H 1049.59 2.37944 4.22505 0
M  V30 11049 N 1050.93 -1.4397 0.641131 0
M  V30 11050 C 1051.86 -2.33458 -0.04446 0
M  V30 11051 C 1052.84 -1.48781 -0.824507 0
M  V30 11052 O 1054.03 -1.77477 -0.788397 0
M  V30 11053 C 1051.16 -3.31989 -1.01984 0
M  V30 11054 C 1050.11 -4.2656 -0.350745 0
M  V30 11055 C 1049.44 -5.15036 -1.43673 0
M  V30 11056 C 1050.74 -5.16897 0.749299 0
M  V30 11057 H 1052.43 -2.91034 0.702832 0
M  V30 11058 H 1049.98 -1.39942 0.339435 0
M  V30 11059 H 1051.93 -3.93483 -1.50828 0
M  V30 11060 H 1050.65 -2.72643 -1.79815 0
M  V30 11061 H 1049.31 -3.66413 0.117139 0
M  V30 11062 H 1048.96 -4.52037 -2.20617 0
M  V30 11063 H 1048.66 -5.79125 -0.994358 0
M  V30 11064 H 1050.18 -5.79403 -1.92678 0
M  V30 11065 H 1051.6 -5.7227 0.343534 0
M  V30 11066 H 1049.99 -5.89643 1.11541 0
M  V30 11067 H 1051.06 -4.5731 1.61232 0
M  V30 11068 N 1052.41 -0.382291 -1.52893 0
M  V30 11069 C 1053.36 0.473026 -2.23039 0
M  V30 11070 C 1054.34 1.0353 -1.23168 0
M  V30 11071 O 1055.53 0.962566 -1.48538 0
M  V30 11072 C 1052.66 1.60349 -3.03551 0
M  V30 11073 C 1051.75 1.05329 -4.10812 0
M  V30 11074 N 1052.14 0.22746 -5.05288 0
M  V30 11075 C 1050.44 1.32648 -4.25818 0
M  V30 11076 C 1051.14 -0.0757032 -5.81651 0
M  V30 11077 N 1050.11 0.526387 -5.41045 0
M  V30 11078 H 1053.92 -0.164541 -2.93439 0
M  V30 11079 H 1051.43 -0.191211 -1.6127 0
M  V30 11080 H 1053.43 2.22858 -3.52335 0
M  V30 11081 H 1052.09 2.24394 -2.34685 0
M  V30 11082 H 1053.1 -0.134714 -5.17725 0
M  V30 11083 H 1049.78 1.96849 -3.6818 0
M  V30 11084 H 1051.17 -0.744375 -6.67764 0
M  V30 11085 N 1053.89 1.57202 -0.111913 0
M  V30 11086 C 1054.85 2.13778 0.826534 0
M  V30 11087 C 1055.85 1.07097 1.19945 0
M  V30 11088 O 1057.04 1.32906 1.12613 0
M  V30 11089 C 1054.17 2.6722 2.11675 0
M  V30 11090 H 1055.36 2.98023 0.334975 0
M  V30 11091 H 1052.92 1.55696 0.137256 0
M  V30 11092 H 1053.65 1.86542 2.65278 0
M  V30 11093 H 1053.44 3.45235 1.8589 0
M  V30 11094 H 1054.93 3.10926 2.78774 0
M  V30 11095 N 1055.36 -0.161842 1.56767 0
M  V30 11096 C 1056.61 -0.873481 1.8369 0
M  V30 11097 C 1056.96 -1.79455 0.693817 0
M  V30 11098 O 1056.26 -1.89089 -0.309181 0
M  V30 11099 C 1056.45 -1.69736 3.14522 0
M  V30 11100 C 1056.28 -0.857568 4.41447 0
M  V30 11101 C 1055.05 -0.528952 5.02524 0
M  V30 11102 C 1057.25 -0.194734 5.13931 0
M  V30 11103 N 1055.23 0.325994 6.13034 0
M  V30 11104 C 1056.6 0.520973 6.17807 0
M  V30 11105 C 1058.66 -0.113874 4.9777 0
M  V30 11106 C 1057.36 1.30988 7.07273 0
M  V30 11107 C 1059.39 0.661731 5.87686 0
M  V30 11108 C 1058.75 1.36577 6.91033 0
M  V30 11109 H 1054.85 -0.297939 0.723019 0
M  V30 11110 H 1057.43 -0.139816 1.94197 0
M  V30 11111 H 1055.6 -2.40238 3.05189 0
M  V30 11112 H 1057.33 -2.35103 3.29407 0
M  V30 11113 H 1054.09 -0.861267 4.65703 0
M  V30 11114 H 1054.51 0.744055 6.72899 0
M  V30 11115 H 1059.15 -0.643832 4.17869 0
M  V30 11116 H 1056.87 1.85115 7.86612 0
M  V30 11117 H 1060.46 0.726092 5.77251 0
M  V30 11118 H 1059.34 1.9563 7.59407 0
M  V30 11119 N 1056.84 -1.516 -0.430713 0
M  V30 11120 C 1058.26 -1.39923 -0.767706 0
M  V30 11121 C 1058.46 -0.486756 -1.95532 0
M  V30 11122 O 1057.51 0.0555965 -2.52439 0
M  V30 11123 C 1058.83 -2.82074 -1.04187 0
M  V30 11124 C 1060.37 -2.9127 -1.1459 0
M  V30 11125 C 1060.85 -4.34342 -1.45295 0
M  V30 11126 N 1062.34 -4.37479 -1.52206 0
M  V30 11127 C 1063.08 -5.45219 -1.77549 0
M  V30 11128 N 1062.57 -6.6311 -2.0064 0
M  V30 11129 N 1064.36 -5.32707 -1.79386 0
M  V30 11130 H 1056.52 -2.09474 0.351351 0
M  V30 11131 H 1058.78 -0.943247 0.0948151 0
M  V30 11132 H 1058.48 -3.50868 -0.241837 0
M  V30 11133 H 1058.36 -3.21805 -1.96777 0
M  V30 11134 H 1060.75 -2.2267 -1.93655 0
M  V30 11135 H 1060.83 -2.55026 -0.198854 0
M  V30 11136 H 1060.47 -5.03494 -0.667559 0
M  V30 11137 H 1060.4 -4.68105 -2.41217 0
M  V30 11138 H 1062.89 -3.52488 -1.36237 0
M  V30 11139 H 1063.2 -7.41012 -2.19366 0
M  V30 11140 H 1061.55 -6.66214 -1.97948 0
M  V30 11141 H 1064.74 -4.39589 -1.60869 0
M  V30 11142 H 1064.91 -6.16752 -1.98799 0
M  V30 11143 N 1058.32 0.686584 -1.41858 0
M  V30 11144 C 1059.25 1.81264 -1.47193 0
M  V30 11145 C 1060.23 1.66875 -0.329657 0
M  V30 11146 O 1061.42 1.86473 -0.542347 0
M  V30 11147 C 1058.55 3.19472 -1.36216 0
M  V30 11148 C 1057.5 3.4858 -2.48347 0
M  V30 11149 C 1056.83 4.86239 -2.22432 0
M  V30 11150 C 1058.13 3.46653 -3.90678 0
M  V30 11151 H 1059.82 1.77057 -2.41436 0
M  V30 11152 H 1057.37 0.850415 -1.16206 0
M  V30 11153 H 1059.32 3.97969 -1.38558 0
M  V30 11154 H 1058.04 3.24327 -0.384611 0
M  V30 11155 H 1056.7 2.72437 -2.45303 0
M  V30 11156 H 1056.35 4.8773 -1.22999 0
M  V30 11157 H 1056.05 5.06677 -2.97577 0
M  V30 11158 H 1057.57 5.67034 -2.26505 0
M  V30 11159 H 1058.99 4.15139 -3.95389 0
M  V30 11160 H 1057.38 3.78625 -4.65578 0
M  V30 11161 H 1058.45 2.45451 -4.18189 0
M  V30 11162 N 1059.8 1.27835 0.921735 0
M  V30 11163 C 1061.21 1.05369 1.19873 0
M  V30 11164 C 1061.41 -0.208997 2.00413 0
M  V30 11165 O 1060.47 -0.912861 2.35421 0
M  V30 11166 C 1061.78 2.29658 1.94108 0
M  V30 11167 C 1063.33 2.34756 2.07023 0
M  V30 11168 C 1063.81 3.5879 2.84664 0
M  V30 11169 N 1065.3 3.59383 2.9223 0
M  V30 11170 C 1066.03 4.52029 3.52785 0
M  V30 11171 N 1065.53 5.54986 4.14683 0
M  V30 11172 N 1067.32 4.39641 3.50246 0
M  V30 11173 H 1059.47 2.08903 0.383819 0
M  V30 11174 H 1061.73 0.919065 0.232429 0
M  V30 11175 H 1061.44 3.21604 1.4235 0
M  V30 11176 H 1061.31 2.35444 2.94696 0
M  V30 11177 H 1063.7 1.43312 2.57965 0
M  V30 11178 H 1063.78 2.32969 1.05636 0
M  V30 11179 H 1063.43 4.50574 2.34404 0
M  V30 11180 H 1063.36 3.57829 3.86349 0
M  V30 11181 H 1065.85 2.84927 2.48244 0
M  V30 11182 H 1066.16 6.21837 4.58845 0
M  V30 11183 H 1064.51 5.58822 4.13211 0
M  V30 11184 H 1067.7 3.58413 3.01094 0
M  V30 11185 H 1067.87 5.12033 3.97148 0
M  V30 11186 N 1061.28 -1.12907 1.09954 0
M  V30 11187 C 1062.19 -2.22082 0.756095 0
M  V30 11188 C 1063.2 -1.72277 -0.244272 0
M  V30 11189 O 1064.38 -2.01224 -0.0842637 0
M  V30 11190 C 1061.44 -3.46192 0.187642 0
M  V30 11191 C 1060.5 -4.10861 1.24465 0
M  V30 11192 C 1059.74 -5.29047 0.703227 0
M  V30 11193 O 1059.96 -5.68443 -0.472043 0
M  V30 11194 O 1058.89 -5.83904 1.46082 0
M  V30 11195 H 1062.72 -2.53842 1.66727 0
M  V30 11196 H 1060.3 -1.21145 0.874316 0
M  V30 11197 H 1062.19 -4.21212 -0.125774 0
M  V30 11198 H 1060.86 -3.16119 -0.696459 0
M  V30 11199 H 1059.77 -3.37643 1.61085 0
M  V30 11200 H 1061.1 -4.45078 2.10159 0
M  V30 11201 N 1062.75 -0.88754 -1.30232 0
M  V30 11202 C 1063.7 -0.354497 -2.28061 0
M  V30 11203 C 1064.67 0.556732 -1.56492 0
M  V30 11204 O 1065.86 0.484597 -1.84543 0
M  V30 11205 C 1063 0.422701 -3.42501 0
M  V30 11206 C 1062.11 -0.518036 -4.28883 0
M  V30 11207 C 1061.24 0.275011 -5.30488 0
M  V30 11208 C 1060.28 -0.661032 -6.0852 0
M  V30 11209 N 1059.42 0.0968509 -7.02033 0
M  V30 11210 H 1064.26 -1.19388 -2.73039 0
M  V30 11211 H 1061.8 -0.600091 -1.34303 0
M  V30 11212 H 1063.75 0.889249 -4.07613 0
M  V30 11213 H 1062.38 1.22664 -2.98586 0
M  V30 11214 H 1061.44 -1.10308 -3.64055 0
M  V30 11215 H 1062.75 -1.23504 -4.83268 0
M  V30 11216 H 1061.9 0.803301 -6.01358 0
M  V30 11217 H 1060.64 1.02522 -4.76802 0
M  V30 11218 H 1059.65 -1.20093 -5.36524 0
M  V30 11219 H 1060.87 -1.41037 -6.64293 0
M  V30 11220 H 1058.82 0.829548 -6.50734 0
M  V30 11221 H 1058.73 -0.560476 -7.5392 0
M  V30 11222 H 1060 0.6058 -7.77142 0
M  V30 11223 N 1064.23 1.43628 -0.648757 0
M  V30 11224 C 1065.14 2.34554 0.0463037 0
M  V30 11225 C 1066.16 1.53629 0.816952 0
M  V30 11226 O 1067.33 1.86297 0.765212 0
M  V30 11227 C 1064.4 3.3185 1.00381 0
M  V30 11228 C 1063.46 4.2868 0.230589 0
M  V30 11229 C 1062.69 5.21328 1.14249 0
M  V30 11230 O 1062.92 5.18298 2.38166 0
M  V30 11231 O 1061.85 5.98726 0.617296 0
M  V30 11232 H 1065.68 2.95475 -0.702008 0
M  V30 11233 H 1063.26 1.43694 -0.408942 0
M  V30 11234 H 1065.14 3.91692 1.5542 0
M  V30 11235 H 1063.82 2.73439 1.73243 0
M  V30 11236 H 1062.73 3.72332 -0.363282 0
M  V30 11237 H 1064.06 4.90061 -0.458368 0
M  V30 11238 N 1065.71 0.390394 1.52688 0
M  V30 11239 C 1066.94 -0.194013 2.06491 0
M  V30 11240 C 1067.36 -1.3965 1.26014 0
M  V30 11241 O 1066.72 -1.79038 0.285468 0
M  V30 11242 C 1066.77 -0.541306 3.56514 0
M  V30 11243 O 1065.87 -1.63509 3.78601 0
M  V30 11244 H 1065.21 -0.0223608 0.663623 0
M  V30 11245 H 1067.74 0.558179 1.96839 0
M  V30 11246 H 1067.75 -0.805301 3.99974 0
M  V30 11247 H 1066.43 0.337828 4.14526 0
M  V30 11248 H 1065 -1.36473 3.4703 0
M  V30 11249 N 1067.19 -1.57141 0.120249 0
M  V30 11250 C 1068.14 -2.11936 -0.84067 0
M  V30 11251 C 1069.12 -1.04044 -1.22734 0
M  V30 11252 O 1070.31 -1.30275 -1.19822 0
M  V30 11253 C 1067.44 -2.72332 -2.09023 0
M  V30 11254 C 1066.53 -3.87306 -1.72786 0
M  V30 11255 N 1066.92 -4.94302 -1.07232 0
M  V30 11256 C 1065.22 -3.97513 -2.02236 0
M  V30 11257 C 1065.92 -5.7467 -0.901626 0
M  V30 11258 N 1064.9 -5.24535 -1.42702 0
M  V30 11259 H 1068.7 -2.92038 -0.330308 0
M  V30 11260 H 1066.21 -1.62192 -0.0821814 0
M  V30 11261 H 1068.21 -3.09932 -2.78833 0
M  V30 11262 H 1066.87 -1.93693 -2.60601 0
M  V30 11263 H 1067.88 -5.12641 -0.736158 0
M  V30 11264 H 1064.56 -3.29917 -2.55853 0
M  V30 11265 H 1065.95 -6.70785 -0.386974 0
M  V30 11266 O 1068.71 0.0191043 -1.61489 0
M  V30 11267 H 1069.4 0.638343 -1.82879 0
M  V30 END ATOM
M  V30 BEGIN BOND
M  V30 END BOND
M  V30 END CTAB
M  END
$$$$
