drugbank_target|P9WNX3 D-3-phosphoglycerate dehydrogenase (DB01694)
 OpenBabel12092120223D

  0  0  0     0  0            999 V3000
M  V30 BEGIN CTAB
M  V30 COUNTS 7778 7832 0 0 0
M  V30 BEGIN ATOM
M  V30 1 H -0.908 1.98254 -0.117106 0
M  V30 2 N 0 1.576 0 0
M  V30 3 C 0.933 2.03868 1.02534 0
M  V30 4 C 1.911 0.928543 1.3348 0
M  V30 5 O 3.095 1.19667 1.45644 0
M  V30 6 C 0.222 2.43627 2.35294 0
M  V30 7 C -0.732 3.65373 2.2001 0
M  V30 8 S 0.101 5.13292 1.52614 0
M  V30 9 C 1.257 5.56322 2.86805 0
M  V30 10 H 1.49 2.90518 0.631377 0
M  V30 11 H -0.977 1.52953 0.210867 0
M  V30 12 H 0.981 2.67203 3.11629 0
M  V30 13 H -0.358 1.57376 2.7183 0
M  V30 14 H -1.165 3.90944 3.18086 0
M  V30 15 H -1.563 3.418 1.51819 0
M  V30 16 H 0.729 5.58782 3.83104 0
M  V30 17 H 1.672 6.56266 2.65933 0
M  V30 18 H 2.08 4.83886 2.90714 0
M  V30 19 N 1.4781 -0.272755 1.55222 0
M  V30 20 C 2.7031 -1.02683 1.80197 0
M  V30 21 C 3.1281 -1.79142 0.573551 0
M  V30 22 O 2.4861 -1.74917 -0.476849 0
M  V30 23 C 2.5341 -1.9609 3.02624 0
M  V30 24 O 1.6381 -3.04863 2.77727 0
M  V30 25 H 0.9791 -0.293557 0.595584 0
M  V30 26 H 3.5091 -0.30159 2.02365 0
M  V30 27 H 3.5191 -2.38039 3.31363 0
M  V30 28 H 2.1941 -1.39851 3.91682 0
M  V30 29 H 0.7711 -2.67228 2.60084 0
M  V30 30 N 2.9562 -1.48159 -0.537278 0
M  V30 31 C 3.8862 -1.65029 -1.6519 0
M  V30 32 C 4.8672 -0.499281 -1.62607 0
M  V30 33 O 6.0522 -0.730972 -1.79918 0
M  V30 34 C 3.1822 -1.68303 -3.03795 0
M  V30 35 C 2.1362 -2.8283 -3.21234 0
M  V30 36 C 1.4622 -2.71189 -4.60826 0
M  V30 37 C 2.7622 -4.24211 -3.04701 0
M  V30 38 H 4.4562 -2.58341 -1.51328 0
M  V30 39 H 2.0022 -1.24325 -0.726585 0
M  V30 40 H 3.9552 -1.78693 -3.81637 0
M  V30 41 H 2.6792 -0.715635 -3.18663 0
M  V30 42 H 1.3382 -2.71983 -2.45807 0
M  V30 43 H 0.9862 -1.72435 -4.7252 0
M  V30 44 H 0.6862 -3.48035 -4.7344 0
M  V30 45 H 2.2102 -2.83537 -5.40777 0
M  V30 46 H 3.6242 -4.3593 -3.72341 0
M  V30 47 H 2.0212 -5.01998 -3.28813 0
M  V30 48 H 3.0912 -4.41184 -2.01209 0
M  V30 49 N 4.4343 0.785586 -1.36625 0
M  V30 50 C 5.8453 1.36101 -1.27803 0
M  V30 51 C 6.1963 1.96035 0.0804875 0
M  V30 52 O 5.3213 1.92834 0.982042 0
M  V30 53 C 5.9163 2.47442 -2.31426 0
M  V30 54 C 4.4753 3.00789 -2.26281 0
M  V30 55 C 3.6223 1.73896 -2.15999 0
M  V30 56 H 6.5733 0.586928 -1.47448 0
M  V30 57 H 6.5943 3.2656 -1.95291 0
M  V30 58 H 6.1063 2.03791 -3.30289 0
M  V30 59 H 4.2073 3.48851 -1.30896 0
M  V30 60 H 4.3203 3.57343 -3.19128 0
M  V30 61 H 2.6843 1.9628 -1.62316 0
M  V30 62 H 3.4673 1.32368 -3.16755 0
M  V30 63 N 5.9124 1.20967 1.01018 0
M  V30 64 C 7.1584 1.02526 1.74975 0
M  V30 65 C 7.4914 -0.4408 1.89131 0
M  V30 66 O 6.7664 -1.32718 1.42184 0
M  V30 67 C 7.0494 1.71699 3.1653 0
M  V30 68 C 6.9024 3.25791 3.10129 0
M  V30 69 C 8.2214 1.45531 4.15342 0
M  V30 70 H 5.3404 0.373863 0.635134 0
M  V30 71 H 7.9824 1.49071 1.17805 0
M  V30 72 H 6.1324 1.32128 3.65341 0
M  V30 73 H 7.8044 3.74697 2.69072 0
M  V30 74 H 6.0474 3.56363 2.47362 0
M  V30 75 H 6.7184 3.69353 4.10222 0
M  V30 76 H 9.1944 1.79872 3.75213 0
M  V30 77 H 8.0704 1.96453 5.1254 0
M  V30 78 H 8.3314 0.384237 4.40427 0
M  V30 79 N 7.3905 -1.2043 1.01659 0
M  V30 80 C 8.6365 -1.90079 0.706963 0
M  V30 81 C 8.9695 -1.78648 -0.761474 0
M  V30 82 O 8.2445 -1.17069 -1.55323 0
M  V30 83 C 8.5275 -3.41469 1.14327 0
M  V30 84 C 8.3805 -3.61833 2.67201 0
M  V30 85 C 9.6995 -4.34261 0.714529 0
M  V30 86 H 6.8185 -0.690254 0.2583 0
M  V30 87 H 9.4605 -1.41826 1.26433 0
M  V30 88 H 7.6105 -3.82696 0.669056 0
M  V30 89 H 9.2825 -3.2986 3.22475 0
M  V30 90 H 7.5255 -3.05304 3.08175 0
M  V30 91 H 8.1965 -4.67955 2.92783 0
M  V30 92 H 10.6725 -4.00682 1.12221 0
M  V30 93 H 9.5485 -5.38806 1.04784 0
M  V30 94 H 9.8095 -4.40431 -0.383799 0
M  V30 95 N 8.8686 -0.792821 -1.36206 0
M  V30 96 C 9.7986 -0.207853 -2.32573 0
M  V30 97 C 10.7796 0.659055 -1.56813 0
M  V30 98 O 11.9646 0.592176 -1.84951 0
M  V30 99 C 9.0946 0.655449 -3.41059 0
M  V30 100 C 8.0486 -0.111842 -4.27854 0
M  V30 101 C 7.3746 0.872274 -5.27537 0
M  V30 102 C 8.6746 -1.30299 -5.05786 0
M  V30 103 H 10.3686 -1.01294 -2.81744 0
M  V30 104 H 7.9146 -0.48854 -1.3546 0
M  V30 105 H 9.8676 1.07464 -4.07467 0
M  V30 106 H 8.5916 1.49328 -2.90463 0
M  V30 107 H 7.2506 -0.512053 -3.63006 0
M  V30 108 H 6.8986 1.70523 -4.73214 0
M  V30 109 H 6.5986 0.363291 -5.86476 0
M  V30 110 H 8.1226 1.28996 -5.96818 0
M  V30 111 H 9.5366 -0.959379 -5.65216 0
M  V30 112 H 7.9336 -1.7455 -5.74154 0
M  V30 113 H 9.0036 -2.09663 -4.37229 0
M  V30 114 N 10.3467 1.47872 -0.545128 0
M  V30 115 C 11.5957 2.01695 -0.0145033 0
M  V30 116 C 11.9087 1.42609 1.33873 0
M  V30 117 O 13.1147 1.88021 1.95858 0
M  V30 118 C 11.5707 3.59892 0.0245068 0
M  V30 119 C 11.1787 4.27966 -1.32475 0
M  V30 120 C 12.9227 4.21507 0.50316 0
M  V30 121 C 10.8297 5.78136 -1.2455 0
M  V30 122 H 9.7597 0.753998 -0.00165172 0
M  V30 123 H 12.4107 1.69985 -0.691175 0
M  V30 124 H 10.7927 3.88509 0.766575 0
M  V30 125 H 11.9667 4.11003 -2.08357 0
M  V30 126 H 10.2817 3.78286 -1.74036 0
M  V30 127 H 12.8787 5.31538 0.580656 0
M  V30 128 H 13.2217 3.87855 1.51243 0
M  V30 129 H 13.7547 3.97376 -0.183681 0
M  V30 130 H 10.4937 6.16388 -2.23039 0
M  V30 131 H 10.0137 5.97469 -0.528282 0
M  V30 132 H 11.6927 6.40099 -0.942488 0
M  V30 133 N 11.8248 0.280983 1.55075 0
M  V30 134 C 12.7878 -0.590896 2.21452 0
M  V30 135 C 13.7878 -1.07682 1.19421 0
M  V30 136 O 14.9778 -0.97605 1.44288 0
M  V30 137 C 12.1098 -1.81587 2.88511 0
M  V30 138 H 13.3028 -0.0112554 2.99898 0
M  V30 139 H 10.8558 0.0316438 1.56268 0
M  V30 140 H 11.5908 -2.43587 2.14093 0
M  V30 141 H 11.3758 -1.4753 3.63287 0
M  V30 142 H 12.8658 -2.43575 3.39206 0
M  V30 143 N 13.3029 -1.57598 0.00835791 0
M  V30 144 C 14.5799 -1.82172 -0.712235 0
M  V30 145 C 14.9599 -0.887873 -1.9152 0
M  V30 146 O 14.3079 0.06146 -2.28417 0
M  V30 147 C 14.5179 -3.30875 -1.11008 0
M  V30 148 C 15.8659 -3.96826 -1.51044 0
M  V30 149 O 16.8899 -3.35248 -1.20364 0
M  V30 150 O 15.7489 -5.05318 -2.08125 0
M  V30 151 H 12.8429 -0.750435 -0.347529 0
M  V30 152 H 15.3889 -1.69665 0.0344523 0
M  V30 153 H 14.1609 -3.90481 -0.252982 0
M  V30 154 H 13.7839 -3.48412 -1.9156 0
M  V30 155 N 14.781 0.264519 -1.55364 0
M  V30 156 C 15.728 1.32717 -1.88825 0
M  V30 157 C 16.698 1.48675 -0.740605 0
M  V30 158 O 17.883 1.62945 -0.992657 0
M  V30 159 C 15.023 2.68089 -2.17307 0
M  V30 160 C 14.136 2.60284 -3.44785 0
M  V30 161 C 13.271 3.87892 -3.62924 0
M  V30 162 C 12.31 3.74631 -4.84064 0
M  V30 163 N 11.447 4.94092 -4.98816 0
M  V30 164 H 16.287 1.03481 -2.79456 0
M  V30 165 H 13.824 0.499757 -1.3835 0
M  V30 166 H 15.782 3.46864 -2.31821 0
M  V30 167 H 14.412 2.95509 -1.299 0
M  V30 168 H 13.464 1.73173 -3.38697 0
M  V30 169 H 14.776 2.46388 -4.33698 0
M  V30 170 H 13.93 4.75109 -3.77302 0
M  V30 171 H 12.669 4.04664 -2.7221 0
M  V30 172 H 11.674 2.85797 -4.69681 0
M  V30 173 H 12.899 3.5937 -5.76221 0
M  V30 174 H 10.845 5.11259 -4.11036 0
M  V30 175 H 10.762 4.8276 -5.81789 0
M  V30 176 H 12.03 5.82857 -5.17588 0
M  V30 177 N 16.2591 1.48442 0.529413 0
M  V30 178 C 17.1891 1.65902 1.64313 0
M  V30 179 C 18.1701 0.507897 1.6234 0
M  V30 180 O 19.3551 0.740503 1.79528 0
M  V30 181 C 16.4851 1.69911 3.02898 0
M  V30 182 C 15.4391 2.8453 3.19729 0
M  V30 183 C 14.7651 2.73629 4.59381 0
M  V30 184 C 16.0651 4.25821 3.02447 0
M  V30 185 H 17.7591 2.5914 1.49955 0
M  V30 186 H 15.3051 1.24709 0.719982 0
M  V30 187 H 17.2581 1.80715 3.80684 0
M  V30 188 H 15.9821 0.732524 3.18279 0
M  V30 189 H 14.6411 2.73283 2.44361 0
M  V30 190 H 14.2891 1.74938 4.71599 0
M  V30 191 H 13.9891 3.50541 4.71588 0
M  V30 192 H 15.5131 2.86401 5.39265 0
M  V30 193 H 16.9271 4.37898 3.70024 0
M  V30 194 H 15.3241 5.03735 3.26146 0
M  V30 195 H 16.3941 4.42244 1.98867 0
M  V30 196 N 17.7372 -0.778329 1.37039 0
M  V30 197 C 18.7002 -1.87301 1.32102 0
M  V30 198 C 19.7002 -1.59198 0.226405 0
M  V30 199 O 20.8902 -1.67403 0.481861 0
M  V30 200 C 18.0222 -3.24309 1.05055 0
M  V30 201 H 19.2152 -1.93093 2.29467 0
M  V30 202 H 16.7682 -0.977358 1.21973 0
M  V30 203 H 17.5032 -3.24196 0.0819373 0
M  V30 204 H 17.2882 -3.46098 1.84279 0
M  V30 205 H 18.7782 -4.04382 1.04234 0
M  V30 206 N 19.2153 -1.21501 -1.00376 0
M  V30 207 C 20.6263 -1.03146 -1.55621 0
M  V30 208 C 20.9773 0.408375 -1.91903 0
M  V30 209 O 20.1023 1.29177 -1.73616 0
M  V30 210 C 20.6973 -1.86612 -2.82775 0
M  V30 211 C 19.2563 -1.72586 -3.34501 0
M  V30 212 C 18.4033 -1.83747 -2.07683 0
M  V30 213 H 21.3543 -1.35505 -0.826081 0
M  V30 214 H 21.3753 -1.3771 -3.54706 0
M  V30 215 H 20.8873 -2.91399 -2.56336 0
M  V30 216 H 18.9883 -0.704877 -3.65872 0
M  V30 217 H 19.1013 -2.54623 -4.05837 0
M  V30 218 H 17.4653 -1.27069 -2.20739 0
M  V30 219 H 18.2483 -2.90044 -1.83655 0
M  V30 220 N 20.6934 1.19889 -1.02296 0
M  V30 221 C 21.9184 1.9393 -0.735237 0
M  V30 222 C 22.3434 1.74639 0.698782 0
M  V30 223 O 21.7014 1.04481 1.48167 0
M  V30 224 C 21.7494 3.43916 -1.08417 0
M  V30 225 O 20.8534 4.11917 -0.199446 0
M  V30 226 H 20.1944 0.605645 -0.272196 0
M  V30 227 H 22.7244 1.52137 -1.36804 0
M  V30 228 H 22.7344 3.9456 -1.03856 0
M  V30 229 H 21.4094 3.5728 -2.12894 0
M  V30 230 H 19.9864 3.71666 -0.303136 0
M  V30 231 N 22.1715 0.800033 1.35784 0
M  V30 232 C 23.3995 0.389606 2.03199 0
M  V30 233 C 23.8145 -0.997375 1.60306 0
M  V30 234 O 23.1715 -1.64154 0.797481 0
M  V30 235 C 23.2225 0.455855 3.58614 0
M  V30 236 O 22.9435 1.78815 3.99946 0
M  V30 237 C 24.4445 0.0374032 4.43284 0
M  V30 238 H 21.6645 0.159132 0.651857 0
M  V30 239 H 24.2085 1.08183 1.73541 0
M  V30 240 H 22.3635 -0.188057 3.86943 0
M  V30 241 H 22.7775 1.74636 4.94573 0
M  V30 242 H 24.2515 0.134882 5.51835 0
M  V30 243 H 24.7285 -1.01651 4.27275 0
M  V30 244 H 25.3345 0.654215 4.20238 0
M  V30 245 N 23.6496 -1.47581 0.552962 0
M  V30 246 C 24.8956 -2.02782 0.0273648 0
M  V30 247 C 25.2286 -1.42687 -1.31734 0
M  V30 248 O 24.5036 -0.580897 -1.85623 0
M  V30 249 C 24.7866 -3.60031 -0.0702371 0
M  V30 250 C 24.6396 -4.30566 1.30126 0
M  V30 251 C 25.9586 -4.33028 -0.785771 0
M  V30 252 H 23.0776 -0.736912 0.0114185 0
M  V30 253 H 25.7196 -1.76056 0.714432 0
M  V30 254 H 23.8696 -3.82932 -0.655382 0
M  V30 255 H 25.5416 -4.19018 1.92929 0
M  V30 256 H 23.7846 -3.91086 1.87709 0
M  V30 257 H 24.4556 -5.39114 1.18573 0
M  V30 258 H 26.9316 -4.15095 -0.288982 0
M  V30 259 H 25.8076 -5.42695 -0.823013 0
M  V30 260 H 26.0686 -4.01945 -1.841 0
M  V30 261 N 25.1277 -0.289203 -1.54924 0
M  V30 262 C 26.0907 0.579144 -2.21762 0
M  V30 263 C 27.0907 1.07047 -1.1999 0
M  V30 264 O 28.2807 0.968384 -1.44803 0
M  V30 265 C 25.4127 1.80055 -2.8947 0
M  V30 266 H 26.6057 -0.00464908 -2.999 0
M  V30 267 H 24.1587 -0.0399306 -1.56249 0
M  V30 268 H 24.8937 2.42449 -2.15381 0
M  V30 269 H 24.6787 1.45602 -3.64064 0
M  V30 270 H 26.1687 2.41773 -3.40493 0
M  V30 271 N 26.6058 1.57591 -0.0167156 0
M  V30 272 C 27.5688 2.08393 0.954204 0
M  V30 273 C 28.5688 0.996531 1.26198 0
M  V30 274 O 29.7588 1.25858 1.20438 0
M  V30 275 C 26.8908 2.5394 2.27436 0
M  V30 276 H 28.0838 2.95455 0.514451 0
M  V30 277 H 25.6368 1.54582 0.231089 0
M  V30 278 H 26.3718 1.70171 2.76066 0
M  V30 279 H 26.1568 3.33371 2.06412 0
M  V30 280 H 27.6468 2.93512 2.97053 0
M  V30 281 N 28.0839 -0.256276 1.55502 0
M  V30 282 C 29.0139 -1.32102 1.92539 0
M  V30 283 C 29.9949 -1.50684 0.789194 0
M  V30 284 O 31.1799 -1.63449 1.04872 0
M  V30 285 C 28.3099 -2.67752 2.21192 0
M  V30 286 C 27.2639 -2.63878 3.36975 0
M  V30 287 C 26.5899 -4.03236 3.51147 0
M  V30 288 C 27.8899 -2.21682 4.72921 0
M  V30 289 H 29.5839 -1.01351 2.81724 0
M  V30 290 H 27.1299 -0.486105 1.35547 0
M  V30 291 H 29.0829 -3.42365 2.45691 0
M  V30 292 H 27.8069 -3.0012 1.28824 0
M  V30 293 H 26.4659 -1.91722 3.12471 0
M  V30 294 H 26.1139 -4.32854 2.56216 0
M  V30 295 H 25.8139 -4.01535 4.29003 0
M  V30 296 H 27.3379 -4.79563 3.77957 0
M  V30 297 H 28.7519 -2.86023 4.96854 0
M  V30 298 H 27.1489 -2.3111 5.53812 0
M  V30 299 H 28.2189 -1.16833 4.70615 0
M  V30 300 N 29.562 -1.4872 -0.521534 0
M  V30 301 C 30.81 -1.56857 -1.27437 0
M  V30 302 C 31.131 -0.247982 -1.93417 0
M  V30 303 O 30.401 0.731151 -1.81744 0
M  V30 304 H 28.981 -0.577885 -0.473347 0
M  V30 305 H 31.643 -1.85233 -0.606205 0
M  V30 306 H 30.739 -2.35402 -2.0492 0
M  V30 307 N 31.0401 0.771051 -1.3745 0
M  V30 308 C 32.3171 1.519 -1.23231 0
M  V30 309 C 32.6971 2.10383 0.173809 0
M  V30 310 O 32.0451 1.95583 1.18151 0
M  V30 311 C 32.2551 2.59933 -2.32886 0
M  V30 312 C 33.6031 3.27316 -2.70461 0
M  V30 313 O 34.6271 2.70228 -2.32068 0
M  V30 314 O 33.4861 4.30531 -3.36608 0
M  V30 315 H 30.5801 0.672803 -0.480901 0
M  V30 316 H 33.1261 0.807957 -1.49232 0
M  V30 317 H 31.8981 2.14842 -3.27045 0
M  V30 318 H 31.5211 3.38637 -2.08353 0
M  V30 319 N 32.5182 1.22032 0.997298 0
M  V30 320 C 33.4502 0.944263 2.08845 0
M  V30 321 C 34.4632 -0.0754663 1.62625 0
M  V30 322 O 35.6522 0.157994 1.77799 0
M  V30 323 C 32.7522 0.397723 3.36558 0
M  V30 324 C 31.9252 1.47362 4.11829 0
M  V30 325 C 30.9842 0.934951 5.17827 0
M  V30 326 O 30.0102 1.62016 5.45655 0
M  V30 327 N 31.2122 -0.245895 5.79979 0
M  V30 328 H 33.9772 1.88363 2.33109 0
M  V30 329 H 31.5382 1.12661 1.16272 0
M  V30 330 H 33.5302 0.0227771 4.04694 0
M  V30 331 H 32.1002 -0.446646 3.09393 0
M  V30 332 H 31.3202 2.02208 3.38386 0
M  V30 333 H 32.6082 2.19764 4.58891 0
M  V30 334 H 32.0062 -0.819475 5.59733 0
M  V30 335 H 30.5632 -0.562272 6.4937 0
M  V30 336 N 33.9963 -1.19345 1.0293 0
M  V30 337 C 35.2423 -1.89318 0.727083 0
M  V30 338 C 35.5753 -1.79446 -0.742483 0
M  V30 339 O 34.8503 -1.1871 -1.54072 0
M  V30 340 C 35.1333 -3.40238 1.17942 0
M  V30 341 C 34.9863 -3.58979 2.71024 0
M  V30 342 C 36.3053 -4.33479 0.760548 0
M  V30 343 H 33.4243 -0.687475 0.265606 0
M  V30 344 H 36.0663 -1.40477 1.2793 0
M  V30 345 H 34.2163 -3.81964 0.709608 0
M  V30 346 H 35.8883 -3.26421 3.25955 0
M  V30 347 H 34.1313 -3.02018 3.11396 0
M  V30 348 H 34.8023 -4.64823 2.9773 0
M  V30 349 H 37.2783 -3.99469 1.16464 0
M  V30 350 H 36.1543 -5.37664 1.10493 0
M  V30 351 H 36.4153 -4.40813 -0.337063 0
M  V30 352 N 35.4744 -0.807222 -1.35358 0
M  V30 353 C 36.3844 -0.219594 -2.3357 0
M  V30 354 C 37.4004 0.637734 -1.61892 0
M  V30 355 O 38.5764 0.549336 -1.93763 0
M  V30 356 C 35.6414 0.62158 -3.41083 0
M  V30 357 C 34.7024 -0.256315 -4.28534 0
M  V30 358 C 33.9354 0.544807 -5.30912 0
M  V30 359 O 34.1584 1.77944 -5.41934 0
M  V30 360 O 33.0924 -0.0646478 -6.01865 0
M  V30 361 H 36.9184 -1.03208 -2.85625 0
M  V30 362 H 34.5034 -0.569025 -1.38139 0
M  V30 363 H 36.3854 1.10067 -4.06772 0
M  V30 364 H 35.0604 1.41165 -2.91297 0
M  V30 365 H 33.9674 -0.782559 -3.65823 0
M  V30 366 H 35.3004 -1.01034 -4.81719 0
M  V30 367 N 36.9525 1.47285 -0.560781 0
M  V30 368 C 38.1985 2.02764 -0.0381184 0
M  V30 369 C 38.5315 1.43384 1.30976 0
M  V30 370 O 37.8065 0.590733 1.85312 0
M  V30 371 C 38.0895 3.60064 0.0511427 0
M  V30 372 C 37.9425 4.2987 -1.32408 0
M  V30 373 C 39.2615 4.33439 0.762795 0
M  V30 374 H 36.3805 0.736841 -0.0153264 0
M  V30 375 H 39.0225 1.75675 -0.723759 0
M  V30 376 H 37.1725 3.83274 0.635065 0
M  V30 377 H 38.8445 4.17989 -1.95148 0
M  V30 378 H 37.0875 3.90085 -1.8978 0
M  V30 379 H 37.7585 5.38478 -1.21431 0
M  V30 380 H 40.2345 4.15243 0.266965 0
M  V30 381 H 39.1105 5.43124 0.794221 0
M  V30 382 H 39.3715 4.02915 1.81966 0
M  V30 383 N 38.4306 0.297415 1.54768 0
M  V30 384 C 39.8466 -0.0560823 1.59501 0
M  V30 385 C 40.0466 -1.52725 1.31444 0
M  V30 386 O 39.1026 -2.27947 1.08611 0
M  V30 387 C 40.4156 0.338631 2.98787 0
M  V30 388 C 41.9636 0.287097 3.11681 0
M  V30 389 C 42.4386 0.656579 4.53269 0
M  V30 390 N 43.9296 0.608977 4.59179 0
M  V30 391 C 44.6646 0.867385 5.66802 0
M  V30 392 N 44.1606 1.19157 6.82476 0
M  V30 393 N 45.9536 0.794687 5.56454 0
M  V30 394 H 38.1046 1.25624 1.71267 0
M  V30 395 H 40.3676 0.509057 0.799728 0
M  V30 396 H 40.0736 1.36263 3.2423 0
M  V30 397 H 39.9476 -0.309508 3.75928 0
M  V30 398 H 42.3346 -0.727649 2.85988 0
M  V30 399 H 42.4156 0.969809 2.36703 0
M  V30 400 H 42.0596 1.66912 4.7969 0
M  V30 401 H 41.9896 -0.0481649 5.26578 0
M  V30 402 H 44.4806 0.369198 3.76092 0
M  V30 403 H 44.7936 1.37482 7.60473 0
M  V30 404 H 43.1386 1.22958 6.84037 0
M  V30 405 H 46.3296 0.541098 4.64962 0
M  V30 406 H 46.5026 0.999445 6.40246 0
M  V30 407 N 39.9087 -1.5758 0.0250728 0
M  V30 408 C 41.1547 -1.92746 -0.649648 0
M  V30 409 C 41.5097 -0.901588 -1.69968 0
M  V30 410 O 40.8027 0.0829251 -1.9142 0
M  V30 411 C 40.9967 -3.32421 -1.31268 0
M  V30 412 C 40.8257 -4.48499 -0.328394 0
M  V30 413 C 39.5957 -5.05251 0.070284 0
M  V30 414 C 41.7937 -5.12618 0.415665 0
M  V30 415 N 39.7757 -6.04851 1.05016 0
M  V30 416 C 41.1467 -6.0728 1.24943 0
M  V30 417 C 43.2017 -4.95612 0.476803 0
M  V30 418 C 41.9047 -6.86766 2.1388 0
M  V30 419 C 43.9307 -5.75703 1.3535 0
M  V30 420 C 43.2927 -6.69978 2.17504 0
M  V30 421 H 39.3917 -0.753231 -0.210159 0
M  V30 422 H 41.9757 -1.94486 0.0912999 0
M  V30 423 H 40.1467 -3.31508 -2.02379 0
M  V30 424 H 41.8787 -3.54946 -1.94411 0
M  V30 425 H 38.6337 -4.72628 -0.303323 0
M  V30 426 H 39.0577 -6.5934 1.53622 0
M  V30 427 H 43.6997 -4.22554 -0.144105 0
M  V30 428 H 41.4177 -7.59132 2.77027 0
M  V30 429 H 45.0037 -5.64579 1.40504 0
M  V30 430 H 43.8837 -7.30873 2.84244 0
M  V30 431 N 41.3868 0.248026 -1.55636 0
M  V30 432 C 42.6328 0.97767 -1.77678 0
M  V30 433 C 42.9658 1.85016 -0.590135 0
M  V30 434 O 42.2408 1.90095 0.411611 0
M  V30 435 C 42.5238 1.83914 -3.09593 0
M  V30 436 C 42.3768 0.99491 -4.38659 0
M  V30 437 C 43.6958 2.82183 -3.37729 0
M  V30 438 H 40.8148 0.354005 -0.646413 0
M  V30 439 H 43.4568 0.248253 -1.88371 0
M  V30 440 H 41.6068 2.46104 -3.00608 0
M  V30 441 H 43.2788 0.391789 -4.59633 0
M  V30 442 H 41.5218 0.299231 -4.32767 0
M  V30 443 H 42.1928 1.63145 -5.2734 0
M  V30 444 H 44.6688 2.30129 -3.4667 0
M  V30 445 H 43.5448 3.39582 -4.31249 0
M  V30 446 H 43.8058 3.58588 -2.58586 0
M  V30 447 N 42.8649 1.48995 0.513639 0
M  V30 448 C 44.1419 1.48338 1.27495 0
M  V30 449 C 44.5219 0.204065 2.10111 0
M  V30 450 O 43.8699 -0.813881 2.13514 0
M  V30 451 C 44.0799 2.75498 2.14247 0
M  V30 452 C 45.4279 3.24484 2.73852 0
M  V30 453 O 46.4519 2.76528 2.24523 0
M  V30 454 O 45.3109 4.07974 3.6362 0
M  V30 455 H 42.4049 0.593149 0.576284 0
M  V30 456 H 44.9509 1.61246 0.528948 0
M  V30 457 H 43.7229 3.60109 1.53092 0
M  V30 458 H 43.3459 2.6539 2.96064 0
M  V30 459 N 44.343 -0.763751 1.37857 0
M  V30 460 C 45.591 -1.51957 1.33243 0
M  V30 461 C 45.912 -1.94835 -0.0801709 0
M  V30 462 O 45.182 -1.66894 -1.02582 0
M  V30 463 H 43.762 -0.563626 0.49024 0
M  V30 464 H 46.424 -0.908504 1.7243 0
M  V30 465 H 45.52 -2.41523 1.97669 0
M  V30 466 N 45.8211 -1.22559 -0.990812 0
M  V30 467 C 47.2321 -1.04791 -1.54518 0
M  V30 468 C 47.5831 0.387998 -1.92325 0
M  V30 469 O 46.7081 1.27328 -1.74976 0
M  V30 470 C 47.3031 -1.896 -2.80779 0
M  V30 471 C 45.8621 -1.76124 -3.32652 0
M  V30 472 C 45.0091 -1.8594 -2.05722 0
M  V30 473 H 47.9601 -1.36374 -0.811662 0
M  V30 474 H 47.9811 -1.41464 -3.53225 0
M  V30 475 H 47.4931 -2.94101 -2.53231 0
M  V30 476 H 45.5941 -0.743643 -3.65104 0
M  V30 477 H 45.7071 -2.58913 -4.03114 0
M  V30 478 H 44.0711 -1.29403 -2.19379 0
M  V30 479 H 44.8541 -2.91976 -1.80568 0
M  V30 480 N 47.2992 1.18797 -1.03562 0
M  V30 481 C 48.5762 1.84469 -0.650434 0
M  V30 482 C 48.9562 1.92319 0.870433 0
M  V30 483 O 48.3042 1.44528 1.76986 0
M  V30 484 C 48.5142 3.2306 -1.32036 0
M  V30 485 C 49.8622 3.9915 -1.44792 0
M  V30 486 O 50.8862 3.32481 -1.27806 0
M  V30 487 O 49.7452 5.18587 -1.72423 0
M  V30 488 H 46.8392 0.795251 -0.226946 0
M  V30 489 H 49.3852 1.26231 -1.13419 0
M  V30 490 H 48.1572 3.1222 -2.3587 0
M  V30 491 H 47.7802 3.88949 -0.8249 0
M  V30 492 N 48.7773 0.814389 1.34928 0
M  V30 493 C 50.1933 0.499084 1.51596 0
M  V30 494 C 50.3933 -0.978319 1.76157 0
M  V30 495 O 49.4493 -1.76309 1.80752 0
M  V30 496 C 50.7623 1.35121 2.68631 0
M  V30 497 C 52.3103 1.34746 2.82511 0
M  V30 498 C 52.7853 2.18388 4.0258 0
M  V30 499 N 54.2763 2.15966 4.09772 0
M  V30 500 C 55.0113 2.77437 5.01813 0
M  V30 501 N 54.5073 3.47866 5.99134 0
M  V30 502 N 56.3003 2.67037 4.94619 0
M  V30 503 H 48.4513 1.7711 1.17243 0
M  V30 504 H 50.7143 0.754256 0.574284 0
M  V30 505 H 50.4203 2.40001 2.57085 0
M  V30 506 H 50.2943 1.00991 3.63429 0
M  V30 507 H 52.6813 0.30648 2.93504 0
M  V30 508 H 52.7623 1.72869 1.88547 0
M  V30 509 H 52.4063 3.2253 3.92347 0
M  V30 510 H 52.3363 1.77621 4.9574 0
M  V30 511 H 54.8273 1.64729 3.40107 0
M  V30 512 H 55.1403 3.92038 6.65977 0
M  V30 513 H 53.4853 3.51972 5.99284 0
M  V30 514 H 56.6763 2.11597 4.17546 0
M  V30 515 H 56.8493 3.15232 5.66156 0
M  V30 516 N 50.2554 -1.46986 0.568584 0
M  V30 517 C 51.5324 -1.95592 -0.0174074 0
M  V30 518 C 51.9124 -1.51124 -1.47393 0
M  V30 519 O 51.2604 -0.755329 -2.15655 0
M  V30 520 C 51.4704 -3.48719 0.139913 0
M  V30 521 C 52.8184 -4.246 0.000426376 0
M  V30 522 O 53.8424 -3.56135 0.0680316 0
M  V30 523 O 52.7014 -5.46302 -0.146988 0
M  V30 524 H 49.7954 -0.82498 -0.0577599 0
M  V30 525 H 52.3414 -1.57335 0.635909 0
M  V30 526 H 51.1134 -3.73927 1.15301 0
M  V30 527 H 50.7364 -3.93771 -0.550491 0
M  V30 528 N 51.7335 -0.305618 -1.54608 0
M  V30 529 C 52.6805 0.568421 -2.23691 0
M  V30 530 C 53.6505 1.12592 -1.22116 0
M  V30 531 O 54.8355 1.16959 -1.50749 0
M  V30 532 C 51.9755 1.7322 -2.98477 0
M  V30 533 C 51.0885 1.20566 -4.14835 0
M  V30 534 C 50.2235 2.33368 -4.77193 0
M  V30 535 C 49.2625 1.7787 -5.85686 0
M  V30 536 N 48.3995 2.84263 -6.4198 0
M  V30 537 H 53.2395 -0.0272867 -2.97988 0
M  V30 538 H 50.7765 -0.0252363 -1.47078 0
M  V30 539 H 52.7345 2.41675 -3.40072 0
M  V30 540 H 51.3645 2.29947 -2.26548 0
M  V30 541 H 50.4165 0.413223 -3.78149 0
M  V30 542 H 51.7285 0.759417 -4.92985 0
M  V30 543 H 50.8825 3.09761 -5.21664 0
M  V30 544 H 49.6215 2.8132 -3.98385 0
M  V30 545 H 48.6265 0.99968 -5.40635 0
M  V30 546 H 49.8515 1.30816 -6.66381 0
M  V30 547 H 47.7975 3.31541 -5.66053 0
M  V30 548 H 47.7145 2.44149 -7.15491 0
M  V30 549 H 48.9825 3.6054 -6.91109 0
M  V30 550 N 53.2116 1.57565 -0.0334293 0
M  V30 551 C 54.1416 2.13511 0.945265 0
M  V30 552 C 55.1226 1.05231 1.33643 0
M  V30 553 O 56.3076 1.33084 1.41429 0
M  V30 554 C 53.4376 2.6657 2.22616 0
M  V30 555 C 52.3916 3.79676 1.97561 0
M  V30 556 C 51.7176 4.1918 3.31952 0
M  V30 557 C 53.0176 5.0557 1.31135 0
M  V30 558 H 54.7116 2.95538 0.479325 0
M  V30 559 H 52.2576 1.42166 0.229115 0
M  V30 560 H 54.2106 3.04344 2.91466 0
M  V30 561 H 52.9346 1.8171 2.71384 0
M  V30 562 H 51.5936 3.42347 1.31127 0
M  V30 563 H 51.2416 3.31296 3.78487 0
M  V30 564 H 50.9416 4.95402 3.15992 0
M  V30 565 H 52.4656 4.59541 4.02063 0
M  V30 566 H 53.8796 5.40903 1.89992 0
M  V30 567 H 52.2766 5.86818 1.25559 0
M  V30 568 H 53.3466 4.84062 0.284894 0
M  V30 569 N 54.6897 -0.239769 1.55765 0
M  V30 570 C 55.6197 -1.30052 1.9393 0
M  V30 571 C 56.6007 -1.49839 0.805132 0
M  V30 572 O 57.7857 -1.62328 1.06599 0
M  V30 573 C 54.9157 -2.65391 2.2402 0
M  V30 574 C 53.8697 -2.60289 3.39755 0
M  V30 575 C 53.1957 -3.99489 3.55405 0
M  V30 576 C 54.4957 -2.16654 4.75246 0
M  V30 577 H 56.1897 -0.983573 2.82783 0
M  V30 578 H 53.7357 -0.471701 1.36055 0
M  V30 579 H 55.6887 -3.3974 2.49308 0
M  V30 580 H 54.4127 -2.98736 1.32 0
M  V30 581 H 53.0717 -1.88398 3.14487 0
M  V30 582 H 52.7197 -4.30112 2.60793 0
M  V30 583 H 52.4197 -3.96962 4.33238 0
M  V30 584 H 53.9437 -4.75528 3.83022 0
M  V30 585 H 55.3577 -2.80737 4.99859 0
M  V30 586 H 53.7547 -2.25223 5.56232 0
M  V30 587 H 54.8247 -1.11835 4.71827 0
M  V30 588 N 56.1678 -1.49265 -0.50573 0
M  V30 589 C 57.1308 -1.65075 -1.59006 0
M  V30 590 C 58.1308 -0.522768 -1.52065 0
M  V30 591 O 59.3208 -0.789117 -1.55302 0
M  V30 592 C 56.4528 -1.64369 -2.98656 0
M  V30 593 H 57.6458 -2.61784 -1.46319 0
M  V30 594 H 55.1988 -1.38226 -0.729616 0
M  V30 595 H 55.9338 -0.692272 -3.16825 0
M  V30 596 H 55.7188 -2.46282 -3.05103 0
M  V30 597 H 57.2088 -1.78674 -3.77446 0
M  V30 598 N 57.6459 0.756429 -1.3826 0
M  V30 599 C 58.6089 1.85176 -1.35065 0
M  V30 600 C 59.6089 1.58818 -0.251703 0
M  V30 601 O 60.7989 1.66615 -0.508433 0
M  V30 602 C 57.9309 3.22596 -1.10201 0
M  V30 603 H 59.1239 1.89417 -2.3251 0
M  V30 604 H 56.6769 0.95783 -1.23512 0
M  V30 605 H 57.4119 3.24025 -0.133504 0
M  V30 606 H 57.1969 3.43122 -1.89762 0
M  V30 607 H 58.6869 4.02673 -1.10654 0
M  V30 608 N 59.124 1.23083 0.984299 0
M  V30 609 C 60.37 1.06214 1.72761 0
M  V30 610 C 60.703 -0.400584 1.90024 0
M  V30 611 O 59.978 -1.29672 1.44967 0
M  V30 612 C 60.261 1.78375 3.12817 0
M  V30 613 C 60.114 3.32296 3.03149 0
M  V30 614 C 61.433 1.54309 4.12161 0
M  V30 615 H 58.552 0.387251 0.627061 0
M  V30 616 H 61.194 1.51536 1.14616 0
M  V30 617 H 59.344 1.39848 3.62457 0
M  V30 618 H 61.016 3.8032 2.61064 0
M  V30 619 H 59.259 3.6153 2.39747 0
M  V30 620 H 59.93 3.77972 4.02295 0
M  V30 621 H 62.406 1.87791 3.71314 0
M  V30 622 H 61.282 2.07281 5.08258 0
M  V30 623 H 61.543 0.477572 4.39513 0
M  V30 624 N 60.6021 -1.18246 1.0419 0
M  V30 625 C 62.0131 -1.69914 0.773698 0
M  V30 626 C 62.3641 -1.83085 -0.705297 0
M  V30 627 O 61.4891 -1.51123 -1.5489 0
M  V30 628 C 62.0841 -3.08619 1.39784 0
M  V30 629 C 60.6431 -3.57494 1.17792 0
M  V30 630 C 59.7901 -2.34013 1.48773 0
M  V30 631 H 62.7411 -1.02904 1.20816 0
M  V30 632 H 62.7621 -3.71958 0.801714 0
M  V30 633 H 62.2741 -2.99001 2.47426 0
M  V30 634 H 60.3751 -3.72406 0.120295 0
M  V30 635 H 60.4881 -4.40852 1.87581 0
M  V30 636 H 58.8521 -2.37986 0.907463 0
M  V30 637 H 59.6351 -2.27013 2.57527 0
M  V30 638 N 62.0802 -0.821533 -1.34494 0
M  V30 639 C 62.9902 -0.244355 -2.33324 0
M  V30 640 C 64.0062 0.620527 -1.62559 0
M  V30 641 O 65.1822 0.528754 -1.94335 0
M  V30 642 C 62.2472 0.585368 -3.41723 0
M  V30 643 C 61.3082 -0.301752 -4.28238 0
M  V30 644 C 60.5412 0.488466 -5.3146 0
M  V30 645 O 60.7642 1.72186 -5.4379 0
M  V30 646 O 59.6982 -0.12848 -6.01763 0
M  V30 647 H 63.5242 -1.06231 -2.84515 0
M  V30 648 H 61.1092 -0.583645 -1.37528 0
M  V30 649 H 62.9912 1.05747 -4.07916 0
M  V30 650 H 61.6662 1.38068 -2.92778 0
M  V30 651 H 60.5732 -0.821315 -3.64973 0
M  V30 652 H 61.9062 -1.06138 -4.8062 0
M  V30 653 N 63.5583 1.46682 -0.576371 0
M  V30 654 C 64.5213 2.28707 0.150239 0
M  V30 655 C 65.5213 1.38035 0.824794 0
M  V30 656 O 66.7113 1.60476 0.677719 0
M  V30 657 C 63.8433 3.18248 1.22192 0
M  V30 658 H 65.0363 2.94423 -0.570521 0
M  V30 659 H 62.5893 1.52688 -0.334078 0
M  V30 660 H 63.3243 2.57265 1.97447 0
M  V30 661 H 63.1093 3.85 0.742812 0
M  V30 662 H 64.5993 3.80001 1.73172 0
M  V30 663 N 65.0364 0.313813 1.54444 0
M  V30 664 C 66.3134 -0.345447 1.92525 0
M  V30 665 C 66.6934 -1.70667 1.24242 0
M  V30 666 O 66.0414 -2.25273 0.382654 0
M  V30 667 C 66.2514 -0.44737 3.46121 0
M  V30 668 C 67.5994 -0.712238 4.18584 0
M  V30 669 O 68.6234 -0.530678 3.52225 0
M  V30 670 O 67.4824 -1.06183 5.36085 0
M  V30 671 H 64.5764 -0.195407 0.803583 0
M  V30 672 H 67.1224 0.362813 1.65776 0
M  V30 673 H 65.8944 0.509043 3.87975 0
M  V30 674 H 65.5174 -1.20359 3.78945 0
M  V30 675 N 66.5145 -1.57545 0.0417849 0
M  V30 676 C 67.4775 -2.09885 -0.92093 0
M  V30 677 C 68.4775 -1.01648 -1.24596 0
M  V30 678 O 69.6675 -1.27759 -1.1842 0
M  V30 679 C 66.7995 -2.57527 -2.23367 0
M  V30 680 H 67.9925 -2.96236 -0.467382 0
M  V30 681 H 65.5455 -1.5493 -0.206467 0
M  V30 682 H 66.2805 -1.74542 -2.73323 0
M  V30 683 H 66.0655 -3.36613 -2.01083 0
M  V30 684 H 67.5555 -2.98201 -2.92346 0
M  V30 685 N 67.9926 0.231505 -1.5589 0
M  V30 686 C 68.9226 1.29022 -1.94617 0
M  V30 687 C 69.9036 1.4941 -0.813067 0
M  V30 688 O 71.0886 1.6176 -1.07459 0
M  V30 689 C 68.2186 2.64199 -2.25424 0
M  V30 690 C 67.1726 2.58484 -3.41131 0
M  V30 691 C 66.4986 3.97599 -3.57518 0
M  V30 692 C 67.7986 2.1413 -4.76388 0
M  V30 693 H 69.4926 0.968563 -2.83301 0
M  V30 694 H 67.0386 0.464479 -1.36303 0
M  V30 695 H 68.9916 3.38413 -2.51107 0
M  V30 696 H 67.7156 2.98032 -1.33583 0
M  V30 697 H 66.3746 1.86727 -3.15481 0
M  V30 698 H 66.0226 4.28723 -2.6307 0
M  V30 699 H 65.7226 3.94659 -4.35337 0
M  V30 700 H 67.2466 4.7349 -3.85538 0
M  V30 701 H 68.6606 2.78083 -5.01341 0
M  V30 702 H 67.0576 2.2227 -5.57419 0
M  V30 703 H 68.1276 1.09331 -4.72414 0
M  V30 704 N 69.4707 1.49531 0.497807 0
M  V30 705 C 70.4007 1.6935 1.60757 0
M  V30 706 C 71.3817 0.542218 1.61227 0
M  V30 707 O 72.5667 0.778417 1.77917 0
M  V30 708 C 69.6967 1.76298 2.99226 0
M  V30 709 C 68.6507 2.91248 3.13622 0
M  V30 710 C 67.9767 2.83312 4.53474 0
M  V30 711 C 69.2767 4.3214 2.93346 0
M  V30 712 H 70.9707 2.62263 1.44425 0
M  V30 713 H 68.5167 1.26208 0.693367 0
M  V30 714 H 70.4697 1.88749 3.76765 0
M  V30 715 H 69.1937 0.799871 3.16654 0
M  V30 716 H 67.8527 2.78404 2.38509 0
M  V30 717 H 67.5007 1.84902 4.67782 0
M  V30 718 H 67.2007 3.60465 4.64046 0
M  V30 719 H 68.7247 2.97775 5.33069 0
M  V30 720 H 70.1387 4.45649 3.60652 0
M  V30 721 H 68.5357 5.1054 3.15387 0
M  V30 722 H 69.6057 4.46363 1.89441 0
M  V30 723 N 70.9488 -0.749086 1.3866 0
M  V30 724 C 72.1948 -1.51056 1.35314 0
M  V30 725 C 72.5278 -1.94121 -0.0553751 0
M  V30 726 O 71.8028 -1.65763 -1.01749 0
M  V30 727 C 72.0858 -2.76003 2.31288 0
M  V30 728 C 71.9388 -2.39047 3.8102 0
M  V30 729 C 73.2578 -3.78046 2.2532 0
M  V30 730 H 70.3768 -0.547972 0.492844 0
M  V30 731 H 73.0188 -0.857628 1.69543 0
M  V30 732 H 71.1688 -3.31716 2.02229 0
M  V30 733 H 72.8408 -1.89074 4.20771 0
M  V30 734 H 71.0838 -1.71449 3.98482 0
M  V30 735 H 71.7548 -3.28462 4.4364 0
M  V30 736 H 74.2308 -3.31884 2.50983 0
M  V30 737 H 73.1068 -4.63159 2.94576 0
M  V30 738 H 73.3678 -4.23957 1.25352 0
M  V30 739 N 72.4269 -1.23603 -0.977757 0
M  V30 740 C 73.8429 -0.999251 -1.24447 0
M  V30 741 C 74.0429 0.298053 -1.99283 0
M  V30 742 O 73.0989 1.01681 -2.31122 0
M  V30 743 C 74.4119 -2.20784 -2.04144 0
M  V30 744 C 75.9599 -2.25303 -2.17273 0
M  V30 745 C 76.4349 -3.45755 -3.00362 0
M  V30 746 N 77.9259 -3.4601 -3.07947 0
M  V30 747 C 78.6609 -4.35868 -3.72568 0
M  V30 748 N 78.1569 -5.35966 -4.38991 0
M  V30 749 N 79.9499 -4.23605 -3.6948 0
M  V30 750 H 72.1009 -2.06986 -0.476483 0
M  V30 751 H 74.3639 -0.907801 -0.273134 0
M  V30 752 H 74.0699 -3.14945 -1.56533 0
M  V30 753 H 73.9439 -2.22085 -3.04891 0
M  V30 754 H 76.3309 -1.3168 -2.64092 0
M  V30 755 H 76.4119 -2.28033 -1.15907 0
M  V30 756 H 76.0559 -4.39687 -2.5424 0
M  V30 757 H 75.9859 -3.40266 -4.01904 0
M  V30 758 H 78.4769 -2.73588 -2.60688 0
M  V30 759 H 78.7899 -6.00783 -4.86086 0
M  V30 760 H 77.1349 -5.39863 -4.37691 0
M  V30 761 H 80.3259 -3.44647 -3.16759 0
M  V30 762 H 80.4989 -4.93836 -4.1956 0
M  V30 763 N 73.905 1.17692 -1.04816 0
M  V30 764 C 75.13 1.92327 -0.776207 0
M  V30 765 C 75.555 1.76082 0.661581 0
M  V30 766 O 74.913 1.076 1.45917 0
M  V30 767 C 74.961 3.41539 -1.15687 0
M  V30 768 O 74.065 4.11402 -0.286775 0
M  V30 769 H 73.406 0.599735 -0.284981 0
M  V30 770 H 75.936 1.49201 -1.4 0
M  V30 771 H 75.946 3.92269 -1.12202 0
M  V30 772 H 74.621 3.52684 -2.20425 0
M  V30 773 H 73.198 3.70939 -0.381903 0
M  V30 774 N 75.3831 0.828654 1.34056 0
M  V30 775 C 76.3461 0.259927 2.27721 0
M  V30 776 C 77.3461 -0.565478 1.50529 0
M  V30 777 O 78.5361 -0.38075 1.69988 0
M  V30 778 C 75.6681 -0.634944 3.34935 0
M  V30 779 H 76.8611 1.0863 2.79534 0
M  V30 780 H 74.4141 0.600951 1.44285 0
M  V30 781 H 75.1491 -1.48416 2.88346 0
M  V30 782 H 74.9341 -0.0444999 3.92075 0
M  V30 783 H 76.4241 -1.02648 4.04788 0
M  V30 784 N 76.8612 -1.46375 0.584142 0
M  V30 785 C 78.0892 -2.06761 0.0759296 0
M  V30 786 C 78.5042 -1.43266 -1.22965 0
M  V30 787 O 77.8612 -0.538458 -1.74376 0
M  V30 788 C 77.9122 -3.61375 -0.0950384 0
M  V30 789 O 77.6332 -4.22495 1.15887 0
M  V30 790 C 79.1342 -4.38693 -0.637434 0
M  V30 791 H 76.3542 -0.668479 0.0581075 0
M  V30 792 H 78.8982 -1.8798 0.805218 0
M  V30 793 H 77.0532 -3.79578 -0.774554 0
M  V30 794 H 77.4672 -5.15385 0.973598 0
M  V30 795 H 78.9412 -5.47464 -0.706237 0
M  V30 796 H 79.4182 -4.06836 -1.65472 0
M  V30 797 H 80.0242 -4.25299 0.00725967 0
M  V30 798 N 78.3393 -0.321999 -1.54275 0
M  V30 799 C 79.5673 0.283052 -2.04955 0
M  V30 800 C 79.9823 1.45904 -1.19823 0
M  V30 801 O 79.3393 1.81063 -0.228545 0
M  V30 802 C 79.3903 0.719028 -3.54277 0
M  V30 803 O 79.1113 -0.410175 -4.36176 0
M  V30 804 C 80.6123 1.38705 -4.21041 0
M  V30 805 H 77.8323 0.0584616 -0.668448 0
M  V30 806 H 80.3763 -0.467734 -1.99079 0
M  V30 807 H 78.5313 1.41979 -3.60445 0
M  V30 808 H 78.9453 -0.0669416 -5.24457 0
M  V30 809 H 80.4193 1.64306 -5.2698 0
M  V30 810 H 80.8963 2.33385 -3.72059 0
M  V30 811 H 81.5023 0.728906 -4.19007 0
M  V30 812 N 79.8174 1.5752 -0.0501392 0
M  V30 813 C 81.0634 1.92936 0.624798 0
M  V30 814 C 81.3964 0.928685 1.70555 0
M  V30 815 O 80.6714 -0.0454779 1.94447 0
M  V30 816 C 80.9544 3.38737 1.22185 0
M  V30 817 C 80.8074 4.49552 0.149218 0
M  V30 818 C 82.1264 3.84913 2.13378 0
M  V30 819 H 79.2454 0.701604 0.225657 0
M  V30 820 H 81.8874 1.89671 -0.111693 0
M  V30 821 H 80.0374 3.4165 1.84953 0
M  V30 822 H 81.7094 4.58768 -0.482648 0
M  V30 823 H 79.9524 4.30638 -0.522841 0
M  V30 824 H 80.6234 5.48653 0.606966 0
M  V30 825 H 83.0994 3.8387 1.60572 0
M  V30 826 H 81.9754 4.87584 2.52097 0
M  V30 827 H 82.2364 3.21611 3.03346 0
M  V30 828 N 81.2955 -0.223234 1.56011 0
M  V30 829 C 82.5725 -0.972108 1.69733 0
M  V30 830 C 82.9525 -2.02485 0.59691 0
M  V30 831 O 82.3005 -2.25037 -0.396324 0
M  V30 832 C 82.5105 -1.58407 3.10979 0
M  V30 833 C 83.8585 -2.07696 3.70334 0
M  V30 834 O 84.8825 -1.68304 3.1393 0
M  V30 835 O 83.7415 -2.80096 4.69264 0
M  V30 836 H 80.8355 -0.453993 0.691245 0
M  V30 837 H 83.3815 -0.215149 1.68331 0
M  V30 838 H 82.1535 -0.823831 3.82529 0
M  V30 839 H 81.7765 -2.40661 3.16493 0
M  V30 840 N 82.7736 -1.49793 -0.48987 0
M  V30 841 C 83.7366 -1.66752 -1.57246 0
M  V30 842 C 84.7366 -0.538867 -1.51502 0
M  V30 843 O 85.9266 -0.805545 -1.54456 0
M  V30 844 C 83.0586 -1.67528 -2.96896 0
M  V30 845 H 84.2516 -2.63321 -1.43534 0
M  V30 846 H 81.8046 -1.38992 -0.714914 0
M  V30 847 H 82.5396 -0.725837 -3.16073 0
M  V30 848 H 82.3246 -2.49504 -3.02473 0
M  V30 849 H 83.8146 -1.82667 -3.7553 0
M  V30 850 N 84.2517 0.741722 -1.39055 0
M  V30 851 C 85.1617 1.88621 -1.39496 0
M  V30 852 C 86.1777 1.71557 -0.290578 0
M  V30 853 O 87.3537 1.94275 -0.530954 0
M  V30 854 C 84.4187 3.24134 -1.23037 0
M  V30 855 C 83.4797 3.5364 -2.43387 0
M  V30 856 C 82.7127 4.82687 -2.27703 0
M  V30 857 O 82.9357 5.55922 -1.27696 0
M  V30 858 O 81.8697 5.1194 -3.16545 0
M  V30 859 H 85.6957 1.91203 -2.35956 0
M  V30 860 H 83.2807 0.888625 -1.20099 0
M  V30 861 H 85.1627 4.0513 -1.15964 0
M  V30 862 H 83.8377 3.22337 -0.296691 0
M  V30 863 H 82.7447 2.72758 -2.56035 0
M  V30 864 H 84.0777 3.60209 -3.35425 0
M  V30 865 N 85.7298 1.2412 0.971189 0
M  V30 866 C 86.9758 1.08041 1.71625 0
M  V30 867 C 87.3088 -0.380407 1.90438 0
M  V30 868 O 86.5838 -1.28127 1.46334 0
M  V30 869 C 86.8668 1.81682 3.10908 0
M  V30 870 C 86.7198 3.35493 2.99608 0
M  V30 871 C 88.0388 1.58671 4.10501 0
M  V30 872 H 85.1578 0.39388 0.622919 0
M  V30 873 H 87.7998 1.52743 1.13003 0
M  V30 874 H 85.9498 1.43684 3.60953 0
M  V30 875 H 87.6218 3.83068 2.57015 0
M  V30 876 H 85.8648 3.64052 2.35899 0
M  V30 877 H 86.5358 3.82217 3.98264 0
M  V30 878 H 89.0118 1.91719 3.69301 0
M  V30 879 H 87.8878 2.1266 5.06031 0
M  V30 880 H 88.1488 0.524161 4.38982 0
M  V30 881 N 87.2079 -1.17134 1.05439 0
M  V30 882 C 88.1379 -2.2342 0.678649 0
M  V30 883 C 89.1189 -1.66971 -0.32476 0
M  V30 884 O 90.3039 -1.93149 -0.201802 0
M  V30 885 C 87.4339 -3.47256 0.0552099 0
M  V30 886 C 86.3879 -4.16543 0.98365 0
M  V30 887 C 85.7139 -5.34231 0.223961 0
M  V30 888 C 87.0139 -4.68495 2.3089 0
M  V30 889 H 88.7079 -2.55105 1.56722 0
M  V30 890 H 86.2539 -1.2262 0.754998 0
M  V30 891 H 88.2069 -4.20828 -0.21946 0
M  V30 892 H 86.9309 -3.14846 -0.868319 0
M  V30 893 H 85.5899 -3.44887 1.24293 0
M  V30 894 H 85.2379 -4.98071 -0.702412 0
M  V30 895 H 84.9379 -5.81527 0.842627 0
M  V30 896 H 86.4619 -6.10585 -0.0433671 0
M  V30 897 H 87.8759 -5.33691 2.09396 0
M  V30 898 H 86.2729 -5.26379 2.88176 0
M  V30 899 H 87.3429 -3.85169 2.94572 0
M  V30 900 N 88.686 -0.835752 -1.33615 0
M  V30 901 C 89.649 -0.272 -2.2758 0
M  V30 902 C 90.649 0.557487 -1.50827 0
M  V30 903 O 91.839 0.37173 -1.70188 0
M  V30 904 C 88.971 0.617173 -3.35267 0
M  V30 905 H 90.164 -1.10111 -2.78954 0
M  V30 906 H 87.717 -0.608594 -1.43965 0
M  V30 907 H 88.452 1.46884 -2.89129 0
M  V30 908 H 88.237 0.0237066 -3.92093 0
M  V30 909 H 89.727 1.005 -4.05326 0
M  V30 910 N 90.1641 1.46063 -0.591896 0
M  V30 911 C 91.1271 2.28854 0.125973 0
M  V30 912 C 92.1271 1.38903 0.810107 0
M  V30 913 O 93.3171 1.61186 0.66066 0
M  V30 914 C 90.4491 3.19526 1.1881 0
M  V30 915 H 91.6421 2.93802 -0.601717 0
M  V30 916 H 89.1951 1.52325 -0.350254 0
M  V30 917 H 89.9301 2.59345 1.94707 0
M  V30 918 H 89.7151 3.85766 0.701936 0
M  V30 919 H 91.2051 3.81817 1.69132 0
M  V30 920 N 91.6422 0.330177 1.54103 0
M  V30 921 C 92.6052 -0.520144 2.2322 0
M  V30 922 C 93.6052 -1.03828 1.22786 0
M  V30 923 O 94.7952 -0.929652 1.4732 0
M  V30 924 C 91.9272 -1.72317 2.94142 0
M  V30 925 H 93.1202 0.0841605 2.99782 0
M  V30 926 H 90.6732 0.0813433 1.56088 0
M  V30 927 H 91.4082 -2.36653 2.21734 0
M  V30 928 H 91.1932 -1.35898 3.67796 0
M  V30 929 H 92.6832 -2.3266 3.46784 0
M  V30 930 N 93.1203 -1.57491 0.0584922 0
M  V30 931 C 94.5313 -1.80526 -0.476138 0
M  V30 932 C 94.8823 -0.971334 -1.70469 0
M  V30 933 O 94.0073 -0.190012 -2.15564 0
M  V30 934 C 94.6023 -3.27424 -0.870587 0
M  V30 935 C 93.1613 -3.51351 -1.35015 0
M  V30 936 C 92.3083 -2.75343 -0.32887 0
M  V30 937 H 95.2593 -1.56133 0.284312 0
M  V30 938 H 95.2803 -3.38745 -1.73299 0
M  V30 939 H 94.7923 -3.88093 0.0237627 0
M  V30 940 H 92.8933 -2.95971 -2.26345 0
M  V30 941 H 93.0063 -4.60059 -1.33726 0
M  V30 942 H 91.3703 -2.417 -0.803321 0
M  V30 943 H 92.1533 -3.38743 0.557521 0
M  V30 944 N 94.5984 0.214957 -1.56127 0
M  V30 945 C 95.5454 1.26642 -1.92952 0
M  V30 946 C 96.5154 1.46244 -0.78753 0
M  V30 947 O 97.7004 1.59704 -1.04399 0
M  V30 948 C 94.8404 2.6104 -2.25726 0
M  V30 949 C 93.9534 2.49183 -3.52891 0
M  V30 950 C 93.0884 3.76149 -3.7508 0
M  V30 951 C 92.1274 3.59041 -4.95738 0
M  V30 952 N 91.2644 4.77972 -5.14283 0
M  V30 953 H 96.1044 0.945384 -2.82607 0
M  V30 954 H 93.6414 0.455489 -1.3987 0
M  V30 955 H 95.5994 3.39313 -2.42739 0
M  V30 956 H 94.2294 2.91227 -1.39236 0
M  V30 957 H 93.2814 1.6231 -3.44034 0
M  V30 958 H 94.5934 2.32466 -4.41318 0
M  V30 959 H 93.7474 4.62865 -3.92226 0
M  V30 960 H 92.4864 3.95799 -2.84947 0
M  V30 961 H 91.4914 2.7071 -4.78535 0
M  V30 962 H 92.7164 3.40856 -5.87362 0
M  V30 963 H 90.6624 4.97923 -4.27093 0
M  V30 964 H 90.5794 4.64006 -5.96853 0
M  V30 965 H 91.8474 5.66096 -5.35869 0
M  V30 966 N 96.0765 1.50051 0.48192 0
M  V30 967 C 97.0065 1.71046 1.58951 0
M  V30 968 C 97.9875 0.559288 1.60642 0
M  V30 969 O 99.1725 0.797243 1.77081 0
M  V30 970 C 96.3025 1.79462 2.97339 0
M  V30 971 C 95.2565 2.94558 3.10515 0
M  V30 972 C 94.5825 2.88105 4.50444 0
M  V30 973 C 95.8825 4.35227 2.88747 0
M  V30 974 H 97.5765 2.6378 1.41635 0
M  V30 975 H 95.1225 1.26936 0.679942 0
M  V30 976 H 97.0755 1.92734 3.74742 0
M  V30 977 H 95.7995 0.833412 3.15788 0
M  V30 978 H 94.4585 2.80918 2.35543 0
M  V30 979 H 94.1065 1.89853 4.65795 0
M  V30 980 H 93.8065 3.65366 4.60197 0
M  V30 981 H 95.3305 3.03412 5.29881 0
M  V30 982 H 96.7445 4.49449 3.55905 0
M  V30 983 H 95.1415 5.13856 3.09955 0
M  V30 984 H 96.2115 4.48347 1.84696 0
M  V30 985 N 97.5546 -0.734337 1.39446 0
M  V30 986 C 98.5016 -1.84835 1.38219 0
M  V30 987 C 99.4716 -1.64331 0.24179 0
M  V30 988 O 100.657 -1.85728 0.437002 0
M  V30 989 C 97.7966 -3.22355 1.23212 0
M  V30 990 C 96.9096 -3.5456 2.46801 0
M  V30 991 C 96.0446 -4.81485 2.24377 0
M  V30 992 C 95.0836 -5.06536 3.43639 0
M  V30 993 N 94.2206 -6.24665 3.20528 0
M  V30 994 H 99.0606 -1.85219 2.33448 0
M  V30 995 H 96.5976 -0.905039 1.15963 0
M  V30 996 H 98.5556 -4.0174 1.12522 0
M  V30 997 H 97.1856 -3.21248 0.316121 0
M  V30 998 H 96.2376 -2.69872 2.68092 0
M  V30 999 H 97.5496 -3.6899 3.3563 0
M  V30 1000 H 96.7036 -5.68852 2.10933 0
M  V30 1001 H 95.4426 -4.6923 1.32944 0
M  V30 1002 H 94.4476 -4.17632 3.5758 0
M  V30 1003 H 95.6726 -5.20676 4.35974 0
M  V30 1004 H 93.6186 -6.13696 2.3176 0
M  V30 1005 H 93.5356 -6.39685 4.02913 0
M  V30 1006 H 94.8036 -7.14868 3.10779 0
M  V30 1007 N 99.0327 -1.24633 -0.964593 0
M  V30 1008 C 100.282 -1.08188 -1.7023 0
M  V30 1009 C 100.595 0.37873 -1.91898 0
M  V30 1010 O 101.801 0.663427 -2.6327 0
M  V30 1011 C 100.257 -1.88773 -3.06419 0
M  V30 1012 C 99.8647 -3.39263 -2.92582 0
M  V30 1013 C 101.609 -1.80867 -3.84041 0
M  V30 1014 C 99.5157 -4.1218 -4.24101 0
M  V30 1015 H 98.4457 -0.401245 -0.638372 0
M  V30 1016 H 101.097 -1.48742 -1.07462 0
M  V30 1017 H 99.4787 -1.41035 -3.70034 0
M  V30 1018 H 100.653 -3.94603 -2.37961 0
M  V30 1019 H 98.9677 -3.48154 -2.28424 0
M  V30 1020 H 101.565 -2.32646 -4.81435 0
M  V30 1021 H 101.908 -0.774543 -4.09031 0
M  V30 1022 H 102.441 -2.26301 -3.27159 0
M  V30 1023 H 99.1797 -5.15965 -4.04303 0
M  V30 1024 H 98.6997 -3.61626 -4.78526 0
M  V30 1025 H 100.379 -4.19349 -4.92702 0
M  V30 1026 N 100.511 1.16574 -1.06058 0
M  V30 1027 C 101.757 1.87324 -0.777022 0
M  V30 1028 C 102.09 1.81351 0.694645 0
M  V30 1029 O 101.365 1.22753 1.50871 0
M  V30 1030 C 101.648 3.36991 -1.26922 0
M  V30 1031 C 101.501 3.51667 -2.80447 0
M  V30 1032 C 102.82 4.3131 -0.87521 0
M  V30 1033 H 99.9388 0.680191 -0.28374 0
M  V30 1034 H 102.581 1.37036 -1.3161 0
M  V30 1035 H 100.731 3.79949 -0.81063 0
M  V30 1036 H 102.403 3.17664 -3.34495 0
M  V30 1037 H 100.646 2.93656 -3.19294 0
M  V30 1038 H 101.317 4.56766 -3.0995 0
M  V30 1039 H 103.793 3.9624 -1.27014 0
M  V30 1040 H 102.669 5.34545 -1.2471 0
M  V30 1041 H 102.93 4.41552 0.220071 0
M  V30 1042 N 101.989 0.842826 1.3317 0
M  V30 1043 C 102.952 0.284065 2.27433 0
M  V30 1044 C 103.952 -0.54948 1.5112 0
M  V30 1045 O 105.142 -0.362699 1.70382 0
M  V30 1046 C 102.274 -0.599384 3.35589 0
M  V30 1047 H 103.467 1.11589 2.78366 0
M  V30 1048 H 101.02 0.616221 1.4364 0
M  V30 1049 H 101.755 -1.45349 2.89904 0
M  V30 1050 H 101.54 -0.00291266 3.921 0
M  V30 1051 H 103.03 -0.983488 4.05854 0
M  V30 1052 N 103.467 -1.45747 0.599634 0
M  V30 1053 C 104.883 -1.57424 0.26264 0
M  V30 1054 C 105.083 -1.59222 -1.23493 0
M  V30 1055 O 104.139 -1.51825 -2.01756 0
M  V30 1056 C 105.452 -2.86061 0.926795 0
M  V30 1057 C 107 -2.99722 0.901967 0
M  V30 1058 C 107.475 -4.31119 1.54598 0
M  V30 1059 N 108.966 -4.37858 1.5111 0
M  V30 1060 C 109.701 -5.3818 1.97863 0
M  V30 1061 N 109.197 -6.45083 2.52666 0
M  V30 1062 N 110.99 -5.29487 1.88679 0
M  V30 1063 H 103.141 -1.42823 1.57211 0
M  V30 1064 H 105.404 -0.68235 0.658105 0
M  V30 1065 H 105.11 -2.90605 1.98095 0
M  V30 1066 H 104.984 -3.74563 0.445238 0
M  V30 1067 H 107.371 -2.9475 -0.143617 0
M  V30 1068 H 107.452 -2.12652 1.42171 0
M  V30 1069 H 107.096 -4.36849 2.59085 0
M  V30 1070 H 107.026 -5.16992 1.00132 0
M  V30 1071 H 109.517 -3.61209 1.11068 0
M  V30 1072 H 109.83 -7.17869 2.86155 0
M  V30 1073 H 108.175 -6.45856 2.56701 0
M  V30 1074 H 111.366 -4.44877 1.4561 0
M  V30 1075 H 111.539 -6.07524 2.25429 0
M  V30 1076 N 104.945 -0.338344 -1.53925 0
M  V30 1077 C 105.908 0.508299 -2.23493 0
M  V30 1078 C 106.908 1.03175 -1.23335 0
M  V30 1079 O 108.098 0.921826 -1.47811 0
M  V30 1080 C 105.23 1.70754 -2.95052 0
M  V30 1081 H 106.423 -0.100058 -2.99733 0
M  V30 1082 H 103.976 -0.0896198 -1.56043 0
M  V30 1083 H 104.711 2.35474 -2.22986 0
M  V30 1084 H 104.496 1.33946 -3.68512 0
M  V30 1085 H 105.986 2.30818 -3.48013 0
M  V30 1086 N 106.423 1.57458 -0.0668435 0
M  V30 1087 C 107.671 1.92919 0.602214 0
M  V30 1088 C 107.992 0.947215 1.70449 0
M  V30 1089 O 107.262 -0.00544117 1.95899 0
M  V30 1090 H 105.842 0.71217 0.22544 0
M  V30 1091 H 108.504 1.94508 -0.123535 0
M  V30 1092 H 107.6 2.94589 1.03073 0
M  V30 1093 N 107.901 -0.206675 1.56239 0
M  V30 1094 C 109.147 -0.930218 1.80208 0
M  V30 1095 C 109.48 -1.83387 0.638981 0
M  V30 1096 O 108.755 -1.91119 -0.361066 0
M  V30 1097 C 109.038 -1.75641 3.1436 0
M  V30 1098 C 108.891 -0.878257 4.41142 0
M  V30 1099 C 110.21 -2.73129 3.45092 0
M  V30 1100 H 107.329 -0.336742 0.655571 0
M  V30 1101 H 109.971 -0.198222 1.88963 0
M  V30 1102 H 108.121 -2.38048 3.07027 0
M  V30 1103 H 109.793 -0.269787 4.6051 0
M  V30 1104 H 108.036 -0.184385 4.33408 0
M  V30 1105 H 108.707 -1.49106 5.3148 0
M  V30 1106 H 111.183 -2.20856 3.52649 0
M  V30 1107 H 110.059 -3.28028 4.40101 0
M  V30 1108 H 110.32 -3.51606 2.68003 0
M  V30 1109 N 109.379 -1.50304 -0.473955 0
M  V30 1110 C 110.627 -1.60832 -1.22382 0
M  V30 1111 C 110.948 -0.30939 -1.9253 0
M  V30 1112 O 110.218 0.67296 -1.83978 0
M  V30 1113 H 108.798 -0.592652 -0.454723 0
M  V30 1114 H 111.46 -1.87068 -0.546968 0
M  V30 1115 H 110.556 -2.41803 -1.97327 0
M  V30 1116 N 110.857 0.726932 -1.39834 0
M  V30 1117 C 111.787 1.85405 -1.41941 0
M  V30 1118 C 112.768 1.67751 -0.281728 0
M  V30 1119 O 113.953 1.8795 -0.488717 0
M  V30 1120 C 111.083 3.23243 -1.2701 0
M  V30 1121 C 110.037 3.55549 -2.38262 0
M  V30 1122 C 109.363 4.9241 -2.08415 0
M  V30 1123 C 110.663 3.577 -3.80589 0
M  V30 1124 H 112.357 1.83899 -2.36266 0
M  V30 1125 H 109.903 0.883349 -1.13723 0
M  V30 1126 H 111.856 4.01775 -1.27103 0
M  V30 1127 H 110.58 3.25296 -0.291564 0
M  V30 1128 H 109.239 2.79351 -2.37399 0
M  V30 1129 H 108.887 4.91052 -1.0898 0
M  V30 1130 H 108.587 5.14992 -2.82943 0
M  V30 1131 H 110.111 5.73289 -2.10171 0
M  V30 1132 H 111.525 4.26293 -3.83337 0
M  V30 1133 H 109.922 3.91804 -4.54543 0
M  V30 1134 H 110.992 2.57328 -4.10987 0
M  V30 1135 N 112.336 1.25143 0.95797 0
M  V30 1136 C 113.613 1.00472 1.67823 0
M  V30 1137 C 113.993 -0.470056 2.058 0
M  V30 1138 O 113.341 -1.44663 1.76875 0
M  V30 1139 C 113.551 1.9372 2.90299 0
M  V30 1140 C 114.899 2.21371 3.62326 0
M  V30 1141 O 115.923 1.91451 3.00375 0
M  V30 1142 O 114.782 2.72231 4.7387 0
M  V30 1143 H 111.876 0.380752 0.734137 0
M  V30 1144 H 114.422 1.36283 1.01119 0
M  V30 1145 H 113.194 2.93316 2.59001 0
M  V30 1146 H 112.817 1.58286 3.64735 0
M  V30 1147 N 113.814 -1.1601 1.06675 0
M  V30 1148 C 114.762 -2.22586 0.675157 0
M  V30 1149 C 115.756 -1.66525 -0.310766 0
M  V30 1150 O 116.962 -1.79145 -0.175215 0
M  V30 1151 H 113.337 -0.724855 0.200223 0
M  V30 1152 H 115.308 -2.52899 1.58381 0
M  V30 1153 C 114.057 -3.47604 0.0817162 0
M  V30 1154 H 113.38 -3.91058 0.831484 0
M  V30 1155 H 114.82 -4.23718 -0.154708 0
M  V30 1156 C 113.279 -3.15718 -1.17576 0
M  V30 1157 O 113.809 -3.31878 -2.26318 0
M  V30 1158 N 112.015 -2.69816 -1.07923 0
M  V30 1159 H 111.562 -2.56866 -0.194293 0
M  V30 1160 H 111.52 -2.48855 -1.92141 0
M  V30 1161 N 115.292 -0.849877 -1.32721 0
M  V30 1162 C 116.538 -0.451591 -1.97708 0
M  V30 1163 C 116.871 0.989175 -1.6712 0
M  V30 1164 O 116.146 1.69334 -0.956891 0
M  V30 1165 C 116.429 -0.685598 -3.53513 0
M  V30 1166 C 116.282 -2.17444 -3.93749 0
M  V30 1167 C 117.601 -0.138874 -4.39881 0
M  V30 1168 H 114.72 -0.16555 -0.718166 0
M  V30 1169 H 117.362 -1.06742 -1.57182 0
M  V30 1170 H 115.512 -0.161416 -3.88165 0
M  V30 1171 H 117.184 -2.76433 -3.693 0
M  V30 1172 H 115.427 -2.65476 -3.43081 0
M  V30 1173 H 116.098 -2.28888 -5.02309 0
M  V30 1174 H 118.574 -0.587068 -4.11938 0
M  V30 1175 H 117.45 -0.332213 -5.47894 0
M  V30 1176 H 117.711 0.95806 -4.31594 0
M  V30 1177 N 116.77 1.45427 -0.607355 0
M  V30 1178 C 118.047 1.9557 -0.0344566 0
M  V30 1179 C 118.427 1.54979 1.43334 0
M  V30 1180 O 117.775 0.812241 2.13576 0
M  V30 1181 C 117.985 3.48226 -0.232321 0
M  V30 1182 C 119.333 4.2445 -0.113001 0
M  V30 1183 O 120.357 3.55829 -0.162431 0
M  V30 1184 O 119.216 5.465 0.00209442 0
M  V30 1185 H 116.31 0.826222 0.0358667 0
M  V30 1186 H 118.856 1.55594 -0.6774 0
M  V30 1187 H 117.628 3.70739 -1.25174 0
M  V30 1188 H 117.251 3.95092 0.445896 0
M  V30 1189 N 118.248 0.346503 1.53744 0
M  V30 1190 C 119.494 -0.249473 2.0126 0
M  V30 1191 C 119.827 -1.49965 1.23386 0
M  V30 1192 O 119.102 -1.91811 0.32229 0
M  V30 1193 C 119.385 -0.560643 3.55709 0
M  V30 1194 C 119.238 0.701836 4.44291 0
M  V30 1195 C 120.557 -1.36905 4.18264 0
M  V30 1196 H 117.676 -0.0891987 0.731582 0
M  V30 1197 H 120.318 0.467624 1.84156 0
M  V30 1198 H 118.468 -1.17156 3.70414 0
M  V30 1199 H 120.14 1.33974 4.41417 0
M  V30 1200 H 118.383 1.32612 4.13033 0
M  V30 1201 H 119.054 0.43933 5.50249 0
M  V30 1202 H 121.53 -0.852448 4.07275 0
M  V30 1203 H 120.406 -1.55553 5.26398 0
M  V30 1204 H 120.667 -2.37203 3.73078 0
M  V30 1205 N 119.726 -1.57421 0.075193 0
M  V30 1206 C 121.003 -1.85029 -0.634329 0
M  V30 1207 C 121.383 -0.968305 -1.87582 0
M  V30 1208 O 120.731 -0.0354749 -2.28472 0
M  V30 1209 C 120.941 -3.35286 -0.968742 0
M  V30 1210 C 122.289 -4.02875 -1.34077 0
M  V30 1211 O 123.313 -3.40051 -1.06037 0
M  V30 1212 O 122.172 -5.13691 -1.86506 0
M  V30 1213 H 119.266 -0.7645 -0.315387 0
M  V30 1214 H 121.812 -1.69366 0.106382 0
M  V30 1215 H 120.584 -3.91203 -0.0871376 0
M  V30 1216 H 120.207 -3.56223 -1.7661 0
M  V30 1217 N 121.204 0.198386 -1.56346 0
M  V30 1218 C 122.167 1.22952 -1.93431 0
M  V30 1219 C 123.167 1.38611 -0.815092 0
M  V30 1220 O 124.357 1.36479 -1.08255 0
M  V30 1221 C 121.489 2.59946 -2.20546 0
M  V30 1222 H 122.682 0.912626 -2.85677 0
M  V30 1223 H 120.235 0.43977 -1.49986 0
M  V30 1224 H 120.97 2.96696 -1.30927 0
M  V30 1225 H 120.755 2.49953 -3.02102 0
M  V30 1226 H 122.245 3.3431 -2.50253 0
M  V30 1227 N 122.682 1.50554 0.465978 0
M  V30 1228 C 123.645 1.69233 1.54574 0
M  V30 1229 C 124.645 0.562901 1.50626 0
M  V30 1230 O 125.835 0.830016 1.53155 0
M  V30 1231 C 122.967 1.7223 2.94193 0
M  V30 1232 H 124.16 2.65571 1.39327 0
M  V30 1233 H 121.713 1.40111 0.692711 0
M  V30 1234 H 122.448 0.77603 3.14878 0
M  V30 1235 H 122.233 2.54285 2.98466 0
M  V30 1236 H 123.723 1.88618 3.72576 0
M  V30 1237 N 124.16 -0.719506 1.40217 0
M  V30 1238 C 125.388 -1.50864 1.41589 0
M  V30 1239 C 125.803 -1.88794 0.0145275 0
M  V30 1240 O 125.16 -1.55174 -0.960594 0
M  V30 1241 C 125.211 -2.78646 2.30302 0
M  V30 1242 O 124.932 -2.42321 3.64983 0
M  V30 1243 C 126.433 -3.72569 2.40224 0
M  V30 1244 H 123.653 -0.465709 0.48307 0
M  V30 1245 H 126.197 -0.88785 1.84221 0
M  V30 1246 H 124.352 -3.37019 1.91042 0
M  V30 1247 H 124.766 -3.24514 4.12057 0
M  V30 1248 H 126.24 -4.5908 3.06512 0
M  V30 1249 H 126.717 -4.15403 1.42608 0
M  V30 1250 H 127.323 -3.20109 2.80019 0
M  V30 1251 N 125.638 -1.25649 -0.95132 0
M  V30 1252 C 126.601 -1.06399 -2.03007 0
M  V30 1253 C 127.601 -0.0156794 -1.60792 0
M  V30 1254 O 128.791 -0.25817 -1.72276 0
M  V30 1255 C 125.923 -0.616184 -3.35285 0
M  V30 1256 H 127.116 -2.02164 -2.21517 0
M  V30 1257 H 124.669 -1.08103 -1.12887 0
M  V30 1258 H 125.404 0.343917 -3.22471 0
M  V30 1259 H 125.189 -1.37301 -3.67275 0
M  V30 1260 H 126.679 -0.503032 -4.14559 0
M  V30 1261 N 127.117 1.15442 -1.07289 0
M  V30 1262 C 128.533 1.38201 -0.798288 0
M  V30 1263 C 128.733 1.92429 0.597769 0
M  V30 1264 O 127.789 2.12962 1.3566 0
M  V30 1265 C 129.102 2.35357 -1.87156 0
M  V30 1266 C 130.65 2.49021 -1.89624 0
M  V30 1267 C 131.125 3.49468 -2.96034 0
M  V30 1268 N 132.616 3.57003 -2.95132 0
M  V30 1269 C 133.351 4.34543 -3.74112 0
M  V30 1270 N 132.847 5.15421 -4.6294 0
M  V30 1271 N 134.64 4.29625 -3.62462 0
M  V30 1272 H 126.791 0.78584 -1.97328 0
M  V30 1273 H 129.054 0.408065 -0.855679 0
M  V30 1274 H 128.76 2.02626 -2.87464 0
M  V30 1275 H 128.634 3.35129 -1.73114 0
M  V30 1276 H 131.021 2.81051 -0.899687 0
M  V30 1277 H 131.102 1.4925 -2.07745 0
M  V30 1278 H 130.746 3.18173 -3.95889 0
M  V30 1279 H 130.676 4.48992 -2.75161 0
M  V30 1280 H 133.167 2.99276 -2.30743 0
M  V30 1281 H 133.48 5.7183 -5.19837 0
M  V30 1282 H 131.825 5.14729 -4.66989 0
M  V30 1283 H 135.016 3.65505 -2.92444 0
M  V30 1284 H 135.189 4.89807 -4.24256 0
M  V30 1285 N 128.595 0.856903 1.32268 0
M  V30 1286 C 129.843 0.460474 1.96784 0
M  V30 1287 C 130.164 -0.987701 1.68135 0
M  V30 1288 O 129.434 -1.69058 0.989765 0
M  V30 1289 H 128.014 0.167289 0.728027 0
M  V30 1290 H 130.676 1.09383 1.61312 0
M  V30 1291 H 129.772 0.60739 3.06133 0
M  V30 1292 N 130.073 -1.45103 0.615059 0
M  V30 1293 C 131.319 -2.02483 0.113347 0
M  V30 1294 C 131.652 -1.48146 -1.25564 0
M  V30 1295 O 130.927 -0.659104 -1.82992 0
M  V30 1296 C 131.21 -3.60005 0.0825278 0
M  V30 1297 C 131.063 -4.2466 1.48271 0
M  V30 1298 C 132.382 -4.35972 -0.601401 0
M  V30 1299 H 129.501 -0.735764 0.0426632 0
M  V30 1300 H 132.143 -1.72868 0.788461 0
M  V30 1301 H 130.293 -3.85367 -0.492378 0
M  V30 1302 H 131.965 -4.10458 2.10527 0
M  V30 1303 H 130.208 -3.82772 2.04127 0
M  V30 1304 H 130.879 -5.336 1.41332 0
M  V30 1305 H 133.355 -4.15947 -0.112666 0
M  V30 1306 H 132.231 -5.45697 -0.592097 0
M  V30 1307 H 132.492 -4.09391 -1.66887 0
M  V30 1308 N 131.551 -0.354651 -1.53558 0
M  V30 1309 C 132.481 0.489091 -2.2832 0
M  V30 1310 C 133.462 1.09324 -1.30316 0
M  V30 1311 O 134.647 1.11255 -1.59173 0
M  V30 1312 C 131.777 1.63456 -3.0643 0
M  V30 1313 C 130.731 1.1582 -4.12031 0
M  V30 1314 C 130.057 2.39305 -4.7816 0
M  V30 1315 C 131.357 0.250731 -5.21698 0
M  V30 1316 H 133.051 -0.134614 -2.99097 0
M  V30 1317 H 130.597 -0.0661826 -1.43848 0
M  V30 1318 H 132.55 2.23136 -3.57475 0
M  V30 1319 H 131.274 2.28533 -2.33325 0
M  V30 1320 H 129.933 0.584146 -3.61916 0
M  V30 1321 H 129.581 3.02814 -4.01637 0
M  V30 1322 H 129.281 2.08109 -5.49513 0
M  V30 1323 H 130.805 2.99691 -5.31994 0
M  V30 1324 H 132.219 0.754695 -5.68311 0
M  V30 1325 H 130.616 0.0301468 -6.00092 0
M  V30 1326 H 131.686 -0.710125 -4.79672 0
M  V30 1327 N 133.029 1.57378 -0.0835403 0
M  V30 1328 C 134.275 1.94217 0.583733 0
M  V30 1329 C 134.608 0.964653 1.68547 0
M  V30 1330 O 133.883 -0.00422258 1.945 0
M  V30 1331 C 134.166 3.41253 1.14972 0
M  V30 1332 C 134.019 4.49768 0.0538277 0
M  V30 1333 C 135.338 3.89352 2.05166 0
M  V30 1334 H 132.457 0.706233 0.210724 0
M  V30 1335 H 135.099 1.89392 -0.1519 0
M  V30 1336 H 133.249 3.45496 1.77665 0
M  V30 1337 H 134.921 4.57641 -0.579851 0
M  V30 1338 H 133.164 4.29432 -0.614068 0
M  V30 1339 H 133.835 5.49817 0.490452 0
M  V30 1340 H 136.311 3.87189 1.52393 0
M  V30 1341 H 135.187 4.92822 2.41698 0
M  V30 1342 H 135.448 3.27973 2.96456 0
M  V30 1343 N 134.507 -0.190092 1.56449 0
M  V30 1344 C 135.753 -0.911052 1.81184 0
M  V30 1345 C 136.086 -1.82699 0.658396 0
M  V30 1346 O 135.361 -1.91491 -0.340775 0
M  V30 1347 C 135.644 -1.72297 3.16205 0
M  V30 1348 C 135.497 -0.831419 4.42049 0
M  V30 1349 C 136.816 -2.69454 3.47969 0
M  V30 1350 H 133.935 -0.32977 0.659106 0
M  V30 1351 H 136.577 -0.178169 1.89163 0
M  V30 1352 H 134.727 -2.34778 3.09534 0
M  V30 1353 H 136.399 -0.220929 4.60771 0
M  V30 1354 H 134.642 -0.138406 4.33579 0
M  V30 1355 H 135.313 -1.43461 5.33032 0
M  V30 1356 H 137.789 -2.17104 3.54972 0
M  V30 1357 H 136.665 -3.23342 4.43555 0
M  V30 1358 H 136.926 -3.48744 2.71717 0
M  V30 1359 N 135.985 -1.50799 -0.457987 0
M  V30 1360 C 136.933 -1.71162 -1.575 0
M  V30 1361 C 137.927 -0.577592 -1.59249 0
M  V30 1362 O 139.133 -0.758443 -1.63241 0
M  V30 1363 H 135.508 -0.540468 -0.522875 0
M  V30 1364 H 137.479 -2.64837 -1.37492 0
M  V30 1365 C 136.228 -1.83496 -2.95338 0
M  V30 1366 H 135.551 -2.70153 -2.94716 0
M  V30 1367 H 136.991 -2.01765 -3.72917 0
M  V30 1368 C 135.45 -0.589694 -3.31699 0
M  V30 1369 O 135.98 0.265163 -4.00824 0
M  V30 1370 N 134.186 -0.439845 -2.87252 0
M  V30 1371 H 133.733 -1.13655 -2.31172 0
M  V30 1372 H 133.691 0.392159 -3.11945 0
M  V30 1373 N 137.463 0.71206 -1.40597 0
M  V30 1374 C 138.426 1.80785 -1.40888 0
M  V30 1375 C 139.426 1.57937 -0.302103 0
M  V30 1376 O 140.616 1.64913 -0.561182 0
M  V30 1377 C 137.748 3.18927 -1.20409 0
M  V30 1378 H 138.941 1.81924 -2.38419 0
M  V30 1379 H 136.494 0.91805 -1.26497 0
M  V30 1380 H 137.229 3.23436 -0.236522 0
M  V30 1381 H 137.014 3.36911 -2.00582 0
M  V30 1382 H 138.504 3.98949 -1.23408 0
M  V30 1383 N 138.941 1.26152 0.944643 0
M  V30 1384 C 140.352 1.10454 1.50522 0
M  V30 1385 C 140.703 -0.31635 1.93633 0
M  V30 1386 O 139.828 -1.20746 1.79581 0
M  V30 1387 C 140.423 1.99891 2.73549 0
M  V30 1388 C 138.982 1.88348 3.25886 0
M  V30 1389 C 138.129 1.93447 1.9868 0
M  V30 1390 H 141.08 1.39292 0.760489 0
M  V30 1391 H 141.101 1.54477 3.47732 0
M  V30 1392 H 140.613 3.03297 2.42141 0
M  V30 1393 H 138.714 0.878636 3.62092 0
M  V30 1394 H 138.827 2.73696 3.93227 0
M  V30 1395 H 137.191 1.37456 2.14425 0
M  V30 1396 H 137.974 2.98476 1.69607 0
M  V30 1397 N 140.419 -1.14872 1.07899 0
M  V30 1398 C 141.647 -1.89661 0.82683 0
M  V30 1399 C 142.062 -1.78312 -0.620519 0
M  V30 1400 O 141.419 -1.13888 -1.42604 0
M  V30 1401 C 141.47 -3.39817 1.23316 0
M  V30 1402 O 141.191 -3.50845 2.62372 0
M  V30 1403 C 142.692 -4.31615 1.0111 0
M  V30 1404 H 139.912 -0.60092 0.298557 0
M  V30 1405 H 142.456 -1.4551 1.43691 0
M  V30 1406 H 140.611 -3.8161 0.667286 0
M  V30 1407 H 141.025 -4.44076 2.79101 0
M  V30 1408 H 142.499 -5.35367 1.34486 0
M  V30 1409 H 142.976 -4.39169 -0.0522168 0
M  V30 1410 H 143.582 -3.95572 1.56215 0
M  V30 1411 N 141.898 -0.863906 -1.31812 0
M  V30 1412 C 143.123 -0.48527 -2.01643 0
M  V30 1413 C 143.548 0.913058 -1.64453 0
M  V30 1414 O 142.906 1.6014 -0.849985 0
M  V30 1415 C 142.954 -0.642625 -3.54828 0
M  V30 1416 O 142.058 0.320659 -4.11151 0
M  V30 1417 H 141.399 -0.193793 -0.635091 0
M  V30 1418 H 143.929 -1.16565 -1.68148 0
M  V30 1419 H 143.939 -0.533628 -4.04495 0
M  V30 1420 H 142.614 -1.66227 -3.81237 0
M  V30 1421 H 141.191 0.167126 -3.72525 0
M  V30 1422 N 143.376 1.44774 -0.622745 0
M  V30 1423 C 144.324 2.32387 0.0994683 0
M  V30 1424 C 145.318 1.46859 0.844326 0
M  V30 1425 O 146.524 1.63254 0.758174 0
M  V30 1426 H 142.899 0.750273 0.0509291 0
M  V30 1427 H 144.87 2.91062 -0.65767 0
M  V30 1428 C 143.619 3.30723 1.07319 0
M  V30 1429 H 142.942 3.96541 0.509462 0
M  V30 1430 H 144.382 3.94725 1.54817 0
M  V30 1431 C 142.841 2.59021 2.15429 0
M  V30 1432 O 143.371 2.38286 3.23393 0
M  V30 1433 N 141.577 2.189 1.91131 0
M  V30 1434 H 141.124 2.35964 1.03337 0
M  V30 1435 H 141.082 1.71251 2.63668 0
M  V30 1436 N 144.854 0.36279 1.53368 0
M  V30 1437 C 146.103 -0.22888 2.00397 0
M  V30 1438 C 146.416 -1.50096 1.25421 0
M  V30 1439 O 147.622 -2.17106 1.63025 0
M  V30 1440 C 146.078 -0.458417 3.56969 0
M  V30 1441 C 145.686 0.798877 4.4082 0
M  V30 1442 C 147.43 -1.00789 4.12361 0
M  V30 1443 C 145.337 0.539078 5.88938 0
M  V30 1444 H 144.267 -0.089305 0.748693 0
M  V30 1445 H 146.918 0.481099 1.77081 0
M  V30 1446 H 145.3 -1.22959 3.76427 0
M  V30 1447 H 146.474 1.57262 4.33134 0
M  V30 1448 H 144.789 1.27137 3.96516 0
M  V30 1449 H 147.386 -1.21754 5.20653 0
M  V30 1450 H 147.729 -1.9692 3.66781 0
M  V30 1451 H 148.262 -0.296961 3.9669 0
M  V30 1452 H 145.001 1.47064 6.3879 0
M  V30 1453 H 144.521 -0.196222 5.99479 0
M  V30 1454 H 146.2 0.163542 6.46793 0
M  V30 1455 N 146.332 -1.57332 0.0918853 0
M  V30 1456 C 147.282 -2.10385 -0.87876 0
M  V30 1457 C 148.266 -1.01814 -1.24591 0
M  V30 1458 O 149.458 -1.28093 -1.22152 0
M  V30 1459 C 146.587 -2.68517 -2.13901 0
M  V30 1460 C 145.673 -3.84126 -1.79744 0
M  V30 1461 N 146.064 -4.92288 -1.1613 0
M  V30 1462 C 144.362 -3.93801 -2.09373 0
M  V30 1463 C 145.063 -5.7295 -1.00513 0
M  V30 1464 N 144.039 -5.21876 -1.5214 0
M  V30 1465 H 147.841 -2.91395 -0.38293 0
M  V30 1466 H 145.355 -1.62017 -0.111423 0
M  V30 1467 H 147.352 -3.04852 -2.84378 0
M  V30 1468 H 146.012 -1.88961 -2.64053 0
M  V30 1469 H 147.023 -5.1123 -0.828504 0
M  V30 1470 H 143.7 -3.25249 -2.61762 0
M  V30 1471 H 145.09 -6.69978 -0.507902 0
M  V30 1472 N 147.81 0.181792 -1.56548 0
M  V30 1473 C 149.035 0.920019 -1.85877 0
M  V30 1474 C 149.46 1.75494 -0.677021 0
M  V30 1475 O 148.818 1.77399 0.374056 0
M  V30 1476 C 148.866 1.78112 -3.13542 0
M  V30 1477 O 147.97 2.88152 -2.95029 0
M  V30 1478 H 147.311 0.258334 -0.611686 0
M  V30 1479 H 149.841 0.183092 -2.03779 0
M  V30 1480 H 149.851 2.18314 -3.44678 0
M  V30 1481 H 148.526 1.16777 -3.99169 0
M  V30 1482 H 147.103 2.51609 -2.75222 0
M  V30 1483 N 149.288 1.51039 0.449983 0
M  V30 1484 C 150.251 1.70863 1.5277 0
M  V30 1485 C 151.251 0.578846 1.5002 0
M  V30 1486 O 152.441 0.846213 1.52266 0
M  V30 1487 C 149.573 1.75341 2.9235 0
M  V30 1488 H 150.766 2.67034 1.36502 0
M  V30 1489 H 148.319 1.40838 0.677812 0
M  V30 1490 H 149.054 0.809383 3.14037 0
M  V30 1491 H 148.839 2.57436 2.95752 0
M  V30 1492 H 150.329 1.92559 3.70555 0
M  V30 1493 N 150.766 -0.704594 1.40972 0
M  V30 1494 C 151.729 -1.80035 1.41845 0
M  V30 1495 C 152.729 -1.57774 0.310474 0
M  V30 1496 O 153.919 -1.64613 0.56992 0
M  V30 1497 C 151.051 -3.18284 1.22098 0
M  V30 1498 H 152.244 -1.80658 2.3938 0
M  V30 1499 H 149.797 -0.911329 1.26982 0
M  V30 1500 H 150.532 -3.23306 0.253672 0
M  V30 1501 H 150.317 -3.35843 2.02366 0
M  V30 1502 H 151.807 -3.98289 1.25522 0
M  V30 1503 N 152.244 -1.26651 -0.937939 0
M  V30 1504 C 153.154 -1.10276 -2.07066 0
M  V30 1505 C 154.17 -0.0354197 -1.73964 0
M  V30 1506 O 155.346 -0.239816 -1.99967 0
M  V30 1507 C 152.411 -0.740887 -3.38691 0
M  V30 1508 C 151.472 -1.88799 -3.85556 0
M  V30 1509 C 150.705 -1.54329 -5.10899 0
M  V30 1510 O 150.928 -0.446494 -5.6865 0
M  V30 1511 O 149.862 -2.37911 -5.52885 0
M  V30 1512 H 153.688 -2.05309 -2.23789 0
M  V30 1513 H 151.273 -1.05743 -1.0554 0
M  V30 1514 H 153.155 -0.55195 -4.1777 0
M  V30 1515 H 151.83 0.180022 -3.23199 0
M  V30 1516 H 150.737 -2.13191 -3.07409 0
M  V30 1517 H 152.07 -2.78874 -4.05574 0
M  V30 1518 N 153.722 1.14298 -1.08507 0
M  V30 1519 C 154.672 2.17449 -0.685569 0
M  V30 1520 C 155.656 1.58167 0.295315 0
M  V30 1521 O 156.848 1.76675 0.107172 0
M  V30 1522 C 153.977 3.43161 -0.0975318 0
M  V30 1523 C 153.063 4.09471 -1.10426 0
M  V30 1524 N 153.454 4.51089 -2.28806 0
M  V30 1525 C 151.752 4.35976 -0.940258 0
M  V30 1526 C 152.453 5.02654 -2.9277 0
M  V30 1527 N 151.429 4.96927 -2.20374 0
M  V30 1528 H 155.231 2.47369 -1.587 0
M  V30 1529 H 152.745 1.30992 -0.959936 0
M  V30 1530 H 154.742 4.16388 0.20664 0
M  V30 1531 H 153.402 3.14719 0.798872 0
M  V30 1532 H 154.413 4.44097 -2.66455 0
M  V30 1533 H 151.09 4.17386 -0.0977441 0
M  V30 1534 H 152.48 5.44723 -3.93352 0
M  V30 1535 N 155.201 0.870884 1.31352 0
M  V30 1536 C 156.164 0.332243 2.26779 0
M  V30 1537 C 157.164 -0.517302 1.52252 0
M  V30 1538 O 158.354 -0.326477 1.71113 0
M  V30 1539 C 155.486 -0.528066 3.36785 0
M  V30 1540 H 156.679 1.17469 2.75937 0
M  V30 1541 H 154.232 0.64655 1.423 0
M  V30 1542 H 154.967 -1.39167 2.92922 0
M  V30 1543 H 154.752 0.0802582 3.92018 0
M  V30 1544 H 156.242 -0.897179 4.07849 0
M  V30 1545 N 156.679 -1.44442 0.630414 0
M  V30 1546 C 157.609 -2.33418 -0.0618083 0
M  V30 1547 C 158.59 -1.48165 -0.835541 0
M  V30 1548 O 159.775 -1.76886 -0.801564 0
M  V30 1549 C 156.905 -3.31222 -1.04449 0
M  V30 1550 C 155.859 -4.26288 -0.382436 0
M  V30 1551 C 155.185 -5.13954 -1.47497 0
M  V30 1552 C 156.485 -5.1744 0.710865 0
M  V30 1553 H 158.179 -2.91548 0.681184 0
M  V30 1554 H 155.725 -1.40191 0.329026 0
M  V30 1555 H 157.678 -3.92351 -1.53748 0
M  V30 1556 H 156.402 -2.71299 -1.81836 0
M  V30 1557 H 155.061 -3.6649 0.0899054 0
M  V30 1558 H 154.709 -4.50385 -2.2397 0
M  V30 1559 H 154.409 -5.7837 -1.03737 0
M  V30 1560 H 155.933 -5.77955 -1.96979 0
M  V30 1561 H 157.347 -5.72509 0.300996 0
M  V30 1562 H 155.744 -5.90455 1.07156 0
M  V30 1563 H 156.814 -4.58496 1.57829 0
M  V30 1564 N 158.157 -0.370918 -1.53173 0
M  V30 1565 C 159.12 0.460778 -2.24521 0
M  V30 1566 C 160.12 1.00536 -1.25496 0
M  V30 1567 O 161.31 0.890266 -1.49733 0
M  V30 1568 C 158.442 1.64457 -2.98608 0
M  V30 1569 H 159.635 -0.163613 -2.99453 0
M  V30 1570 H 157.188 -0.122699 -1.55818 0
M  V30 1571 H 157.923 2.30691 -2.2793 0
M  V30 1572 H 157.708 1.26099 -3.7127 0
M  V30 1573 H 159.198 2.23384 -3.5283 0
M  V30 1574 N 159.635 1.57281 -0.100228 0
M  V30 1575 C 160.565 2.17328 0.853857 0
M  V30 1576 C 161.546 1.10804 1.2906 0
M  V30 1577 O 162.731 1.38963 1.35657 0
M  V30 1578 C 159.861 2.75772 2.11109 0
M  V30 1579 C 158.815 3.87713 1.81279 0
M  V30 1580 C 158.141 4.32882 3.13874 0
M  V30 1581 C 159.441 5.10677 1.09574 0
M  V30 1582 H 161.135 2.97305 0.353545 0
M  V30 1583 H 158.681 1.43009 0.168612 0
M  V30 1584 H 160.634 3.16433 2.78296 0
M  V30 1585 H 159.358 1.93057 2.63432 0
M  V30 1586 H 158.017 3.476 1.16489 0
M  V30 1587 H 157.665 3.47051 3.64095 0
M  V30 1588 H 157.365 5.08358 2.94696 0
M  V30 1589 H 158.889 4.7618 3.82211 0
M  V30 1590 H 160.303 5.48474 1.66879 0
M  V30 1591 H 158.7 5.91615 1.00557 0
M  V30 1592 H 159.77 4.84835 0.0793299 0
M  V30 1593 N 161.113 -0.173488 1.56642 0
M  V30 1594 C 162.043 -1.2171 1.99271 0
M  V30 1595 C 163.024 -1.46289 0.867959 0
M  V30 1596 O 164.209 -1.5766 1.13388 0
M  V30 1597 C 161.339 -2.55651 2.35074 0
M  V30 1598 C 160.293 -2.45645 3.50489 0
M  V30 1599 C 159.619 -3.84056 3.72028 0
M  V30 1600 C 160.919 -1.96302 4.84007 0
M  V30 1601 H 162.613 -0.86275 2.867 0
M  V30 1602 H 160.159 -0.413571 1.37933 0
M  V30 1603 H 162.112 -3.2886 2.63494 0
M  V30 1604 H 160.836 -2.92869 1.44552 0
M  V30 1605 H 159.495 -1.7489 3.22194 0
M  V30 1606 H 159.143 -4.18664 2.788 0
M  V30 1607 H 158.843 -3.7823 4.49684 0
M  V30 1608 H 160.367 -4.58854 4.02846 0
M  V30 1609 H 161.781 -2.59284 5.11317 0
M  V30 1610 H 160.178 -2.01429 5.65284 0
M  V30 1611 H 161.248 -0.917226 4.76146 0
M  V30 1612 N 162.591 -1.51276 -0.441967 0
M  V30 1613 C 163.521 -1.752 -1.54361 0
M  V30 1614 C 164.502 -0.601682 -1.59103 0
M  V30 1615 O 165.687 -0.843913 -1.74905 0
M  V30 1616 C 162.817 -1.87282 -2.92477 0
M  V30 1617 C 161.771 -3.02687 -3.02596 0
M  V30 1618 C 161.097 -2.99947 -4.42647 0
M  V30 1619 C 162.397 -4.4273 -2.77106 0
M  V30 1620 H 164.091 -2.67442 -1.34592 0
M  V30 1621 H 161.637 -1.28694 -0.646048 0
M  V30 1622 H 163.59 -2.02602 -3.695 0
M  V30 1623 H 162.314 -0.916844 -3.13467 0
M  V30 1624 H 160.973 -2.87065 -2.28012 0
M  V30 1625 H 160.621 -2.02136 -4.60597 0
M  V30 1626 H 160.321 -3.77439 -4.50348 0
M  V30 1627 H 161.845 -3.17354 -5.2165 0
M  V30 1628 H 163.259 -4.58727 -3.43864 0
M  V30 1629 H 161.656 -5.21893 -2.96222 0
M  V30 1630 H 162.726 -4.53087 -1.72744 0
M  V30 1631 N 164.069 0.697108 -1.41344 0
M  V30 1632 C 165.032 1.79281 -1.42797 0
M  V30 1633 C 166.032 1.57607 -0.318837 0
M  V30 1634 O 167.222 1.64309 -0.578642 0
M  V30 1635 C 164.354 3.17632 -1.23785 0
M  V30 1636 H 165.547 1.79385 -2.40335 0
M  V30 1637 H 163.1 0.904582 -1.27464 0
M  V30 1638 H 163.835 3.23167 -0.270814 0
M  V30 1639 H 163.62 3.34765 -2.04144 0
M  V30 1640 H 165.11 3.97617 -1.27633 0
M  V30 1641 N 165.547 1.27147 0.931209 0
M  V30 1642 C 166.51 1.09615 2.01289 0
M  V30 1643 C 167.51 0.0412581 1.60747 0
M  V30 1644 O 168.7 0.285545 1.71844 0
M  V30 1645 C 165.832 0.669447 3.34262 0
M  V30 1646 H 167.025 2.05662 2.18273 0
M  V30 1647 H 164.578 1.09885 1.11153 0
M  V30 1648 H 165.313 -0.292572 3.22978 0
M  V30 1649 H 165.098 1.43127 3.65044 0
M  V30 1650 H 166.588 0.568921 4.13706 0
M  V30 1651 N 167.025 -1.13721 1.09112 0
M  V30 1652 C 168.25 -1.89314 0.847053 0
M  V30 1653 C 168.675 -1.78416 -0.595774 0
M  V30 1654 O 168.033 -1.12942 -1.41823 0
M  V30 1655 C 168.081 -3.3701 1.28284 0
M  V30 1656 O 167.185 -4.10054 0.439267 0
M  V30 1657 H 166.526 -0.588745 0.307044 0
M  V30 1658 H 169.056 -1.43902 1.45442 0
M  V30 1659 H 169.066 -3.87834 1.26683 0
M  V30 1660 H 167.741 -3.4426 2.33363 0
M  V30 1661 H 166.318 -3.69266 0.519312 0
M  V30 1662 N 168.503 -0.877838 -1.30888 0
M  V30 1663 C 169.919 -0.570844 -1.49042 0
M  V30 1664 C 170.119 0.893159 -1.80624 0
M  V30 1665 O 169.175 1.67485 -1.88958 0
M  V30 1666 C 170.488 -1.47784 -2.61878 0
M  V30 1667 C 172.036 -1.48071 -2.75761 0
M  V30 1668 C 172.511 -2.37347 -3.91702 0
M  V30 1669 N 174.002 -2.35271 -3.99001 0
M  V30 1670 C 174.737 -3.01063 -4.88004 0
M  V30 1671 N 174.233 -3.76055 -5.81854 0
M  V30 1672 N 176.026 -2.90332 -4.81315 0
M  V30 1673 H 168.177 -1.82502 -1.0866 0
M  V30 1674 H 170.44 -0.780797 -0.537644 0
M  V30 1675 H 170.146 -2.51993 -2.45341 0
M  V30 1676 H 170.02 -1.18215 -3.58197 0
M  V30 1677 H 172.407 -0.446166 -2.91708 0
M  V30 1678 H 172.488 -1.81668 -1.80085 0
M  V30 1679 H 172.132 -3.40883 -3.76512 0
M  V30 1680 H 172.062 -2.01071 -4.86701 0
M  V30 1681 H 174.553 -1.80768 -3.3186 0
M  V30 1682 H 174.866 -4.23366 -6.46514 0
M  V30 1683 H 173.211 -3.80163 -5.81808 0
M  V30 1684 H 176.402 -2.31278 -4.06974 0
M  V30 1685 H 176.575 -3.41885 -5.50471 0
M  V30 1686 N 169.982 1.44106 -0.638065 0
M  V30 1687 C 170.914 2.28976 0.101205 0
M  V30 1688 C 171.927 1.4167 0.802088 0
M  V30 1689 O 173.116 1.65755 0.662375 0
M  V30 1690 C 170.216 3.18217 1.16581 0
M  V30 1691 C 169.389 4.33978 0.546066 0
M  V30 1692 C 168.448 5.04202 1.50554 0
M  V30 1693 O 167.474 5.59986 1.01999 0
M  V30 1694 N 168.676 5.06296 2.8398 0
M  V30 1695 H 171.441 2.93064 -0.627186 0
M  V30 1696 H 169.002 1.54629 -0.479731 0
M  V30 1697 H 170.994 3.62061 1.80815 0
M  V30 1698 H 169.564 2.55833 1.79634 0
M  V30 1699 H 168.784 3.93239 -0.275046 0
M  V30 1700 H 170.072 5.08675 0.112793 0
M  V30 1701 H 169.47 4.62319 3.26002 0
M  V30 1702 H 168.027 5.53907 3.43556 0
M  V30 1703 N 171.46 0.379036 1.52974 0
M  V30 1704 C 172.709 -0.207612 2.00629 0
M  V30 1705 C 173.022 -1.48758 1.27006 0
M  V30 1706 O 174.228 -2.15365 1.65318 0
M  V30 1707 C 172.684 -0.42053 3.57435 0
M  V30 1708 C 172.292 0.845587 4.39948 0
M  V30 1709 C 174.036 -0.964102 4.13407 0
M  V30 1710 C 171.943 0.601513 5.88333 0
M  V30 1711 H 170.873 -0.0813591 0.749598 0
M  V30 1712 H 173.524 0.499853 1.76561 0
M  V30 1713 H 171.906 -1.18959 3.7771 0
M  V30 1714 H 173.08 1.61848 4.31442 0
M  V30 1715 H 171.395 1.31336 3.95145 0
M  V30 1716 H 173.992 -1.16225 5.21916 0
M  V30 1717 H 174.335 -1.93019 3.68849 0
M  V30 1718 H 174.868 -0.25487 3.96983 0
M  V30 1719 H 171.607 1.53831 6.37194 0
M  V30 1720 H 171.127 -0.132628 5.99653 0
M  V30 1721 H 172.806 0.232134 6.46583 0
M  V30 1722 N 172.938 -1.57226 0.108567 0
M  V30 1723 C 174.349 -1.8195 -0.418464 0
M  V30 1724 C 174.7 -1.02508 -1.67292 0
M  V30 1725 O 173.825 -0.258496 -2.14851 0
M  V30 1726 C 174.42 -3.30028 -0.765979 0
M  V30 1727 C 172.979 -3.55469 -1.23769 0
M  V30 1728 C 172.126 -2.7625 -0.241106 0
M  V30 1729 H 175.077 -1.55149 0.33384 0
M  V30 1730 H 175.098 -3.44086 -1.62434 0
M  V30 1731 H 174.61 -3.87821 0.147219 0
M  V30 1732 H 172.711 -3.03022 -2.16814 0
M  V30 1733 H 172.824 -4.6408 -1.19022 0
M  V30 1734 H 171.188 -2.44133 -0.72602 0
M  V30 1735 H 171.971 -3.36797 0.665007 0
M  V30 1736 N 174.416 0.165178 -1.56732 0
M  V30 1737 C 175.379 1.18822 -1.95995 0
M  V30 1738 C 176.379 1.3685 -0.84431 0
M  V30 1739 O 177.569 1.34152 -1.11126 0
M  V30 1740 C 174.701 2.5521 -2.26011 0
M  V30 1741 H 175.894 0.851825 -2.87548 0
M  V30 1742 H 173.447 0.407857 -1.50885 0
M  V30 1743 H 174.182 2.93852 -1.37191 0
M  V30 1744 H 173.967 2.43489 -3.07336 0
M  V30 1745 H 175.457 3.28927 -2.57288 0
M  V30 1746 N 175.894 1.51508 0.433938 0
M  V30 1747 C 176.857 1.72473 1.50949 0
M  V30 1748 C 177.857 0.594725 1.49398 0
M  V30 1749 O 179.047 0.862315 1.5136 0
M  V30 1750 C 176.179 1.78431 2.90474 0
M  V30 1751 H 177.372 2.68467 1.33662 0
M  V30 1752 H 174.925 1.41549 0.662836 0
M  V30 1753 H 175.66 0.842645 3.13161 0
M  V30 1754 H 175.445 2.60558 2.93005 0
M  V30 1755 H 176.935 1.96479 3.68491 0
M  V30 1756 N 177.372 -0.689602 1.41712 0
M  V30 1757 C 178.649 -1.44457 1.31877 0
M  V30 1758 C 179.029 -2.11039 -0.0508537 0
M  V30 1759 O 178.377 -2.02138 -1.06547 0
M  V30 1760 C 178.587 -2.45913 2.47645 0
M  V30 1761 C 179.935 -3.10991 2.89084 0
M  V30 1762 O 180.959 -2.56238 2.47428 0
M  V30 1763 O 179.818 -4.10174 3.61137 0
M  V30 1764 H 176.912 -0.64362 0.519309 0
M  V30 1765 H 179.458 -0.719576 1.53689 0
M  V30 1766 H 178.23 -1.95409 3.39015 0
M  V30 1767 H 177.853 -3.25913 2.27742 0
M  V30 1768 N 178.85 -1.27639 -0.924453 0
M  V30 1769 C 179.813 -1.10681 -2.00705 0
M  V30 1770 C 180.813 -0.0497823 -1.60723 0
M  V30 1771 O 182.003 -0.294654 -1.7169 0
M  V30 1772 C 179.135 -0.687164 -3.33902 0
M  V30 1773 H 180.328 -2.06817 -2.17179 0
M  V30 1774 H 177.881 -1.10473 -1.10569 0
M  V30 1775 H 178.616 0.275439 -3.23128 0
M  V30 1776 H 178.401 -1.45061 -3.6428 0
M  V30 1777 H 179.891 -0.590853 -4.13399 0
M  V30 1778 N 180.328 1.1314 -1.09713 0
M  V30 1779 C 181.553 1.88862 -0.857081 0
M  V30 1780 C 181.978 1.78729 0.586304 0
M  V30 1781 O 181.336 1.13692 1.41222 0
M  V30 1782 C 181.384 3.36325 -1.30069 0
M  V30 1783 O 180.488 4.09815 -0.461007 0
M  V30 1784 H 179.829 0.587108 -0.310162 0
M  V30 1785 H 182.359 1.43129 -1.46203 0
M  V30 1786 H 182.369 3.87157 -1.28738 0
M  V30 1787 H 181.044 3.43017 -2.35185 0
M  V30 1788 H 179.621 3.68986 -0.538888 0
M  V30 1789 N 181.806 0.884767 1.30421 0
M  V30 1790 C 182.736 0.367574 2.30589 0
M  V30 1791 C 183.717 -0.549464 1.60981 0
M  V30 1792 O 184.902 -0.46336 1.88591 0
M  V30 1793 C 182.032 -0.418944 3.44764 0
M  V30 1794 C 180.986 0.406316 4.26067 0
M  V30 1795 C 180.312 -0.506793 5.32293 0
M  V30 1796 C 181.612 1.64832 4.95608 0
M  V30 1797 H 183.306 1.20462 2.74097 0
M  V30 1798 H 180.852 0.580695 1.31772 0
M  V30 1799 H 182.805 -0.791395 4.13902 0
M  V30 1800 H 181.529 -1.28964 3.0006 0
M  V30 1801 H 180.188 0.760903 3.58617 0
M  V30 1802 H 179.836 -1.37519 4.83836 0
M  V30 1803 H 179.536 0.0415828 5.87585 0
M  V30 1804 H 181.06 -0.875764 6.04287 0
M  V30 1805 H 182.474 1.34646 5.57264 0
M  V30 1806 H 180.871 2.13688 5.60765 0
M  V30 1807 H 181.941 2.39284 4.21748 0
M  V30 1808 N 183.284 -1.43765 0.645699 0
M  V30 1809 C 184.7 -1.56509 0.312591 0
M  V30 1810 C 184.9 -1.6307 -1.18365 0
M  V30 1811 O 183.956 -1.58167 -1.96824 0
M  V30 1812 C 185.269 -2.82968 1.01733 0
M  V30 1813 C 186.817 -2.96701 0.996865 0
M  V30 1814 C 187.292 -4.25982 1.68236 0
M  V30 1815 N 188.783 -4.32829 1.64964 0
M  V30 1816 C 189.518 -5.31613 2.14885 0
M  V30 1817 N 189.014 -6.36718 2.73061 0
M  V30 1818 N 190.807 -5.23217 2.05428 0
M  V30 1819 H 182.958 -1.3775 1.61675 0
M  V30 1820 H 185.221 -0.661067 0.679481 0
M  V30 1821 H 184.927 -2.84156 2.0724 0
M  V30 1822 H 184.801 -3.72957 0.564177 0
M  V30 1823 H 187.188 -2.95058 -0.0497719 0
M  V30 1824 H 187.269 -2.08022 1.48865 0
M  V30 1825 H 186.913 -4.28386 2.72852 0
M  V30 1826 H 186.843 -5.13545 1.16529 0
M  V30 1827 H 189.334 -3.57493 1.22503 0
M  V30 1828 H 189.647 -7.08401 3.08848 0
M  V30 1829 H 187.992 -6.37362 2.77118 0
M  V30 1830 H 191.183 -4.40019 1.59689 0
M  V30 1831 H 191.356 -6.00045 2.44643 0
M  V30 1832 N 184.763 -0.387143 -1.52771 0
M  V30 1833 C 185.673 0.456442 -2.30117 0
M  V30 1834 C 186.689 1.07342 -1.36944 0
M  V30 1835 O 187.865 1.07971 -1.70013 0
M  V30 1836 C 184.93 1.56957 -3.09136 0
M  V30 1837 C 183.991 0.977916 -4.18014 0
M  V30 1838 C 183.224 2.038 -4.93256 0
M  V30 1839 O 183.447 3.25271 -4.68567 0
M  V30 1840 O 182.381 1.6565 -5.78657 0
M  V30 1841 H 186.207 -0.17359 -3.03203 0
M  V30 1842 H 183.792 -0.150919 -1.48636 0
M  V30 1843 H 185.674 2.21628 -3.58412 0
M  V30 1844 H 184.349 2.18461 -2.38865 0
M  V30 1845 H 183.256 0.294525 -3.72939 0
M  V30 1846 H 184.589 0.407128 -4.90513 0
M  V30 1847 N 186.241 1.57166 -0.116904 0
M  V30 1848 C 187.191 2.11756 0.845178 0
M  V30 1849 C 188.175 1.03783 1.22955 0
M  V30 1850 O 189.367 1.3002 1.20099 0
M  V30 1851 C 186.496 2.71886 2.09602 0
M  V30 1852 C 185.582 3.86937 1.7361 0
M  V30 1853 N 185.973 4.94073 1.08284 0
M  V30 1854 C 184.271 3.97082 2.03082 0
M  V30 1855 C 184.972 5.74477 0.913855 0
M  V30 1856 N 183.948 5.2423 1.43818 0
M  V30 1857 H 187.75 2.91967 0.336523 0
M  V30 1858 H 185.264 1.62174 0.0856332 0
M  V30 1859 H 187.261 3.09338 2.79492 0
M  V30 1860 H 185.921 1.93138 2.61013 0
M  V30 1861 H 186.932 5.12483 0.747067 0
M  V30 1862 H 183.609 3.29372 2.56554 0
M  V30 1863 H 184.999 6.70701 0.40125 0
M  V30 1864 N 187.719 -0.156864 1.56817 0
M  V30 1865 C 188.947 -0.886316 1.86955 0
M  V30 1866 C 189.362 -1.75185 0.703975 0
M  V30 1867 O 188.719 -1.79555 -0.326552 0
M  V30 1868 C 188.77 -1.75117 3.16253 0
M  V30 1869 O 188.491 -0.920537 4.2832 0
M  V30 1870 C 189.992 -2.58905 3.59837 0
M  V30 1871 H 187.212 -0.25678 0.619923 0
M  V30 1872 H 189.756 -0.152615 2.0393 0
M  V30 1873 H 187.911 -2.43805 3.01062 0
M  V30 1874 H 188.325 -1.51337 5.02192 0
M  V30 1875 H 189.799 -3.1518 4.53172 0
M  V30 1876 H 190.276 -3.34472 2.84649 0
M  V30 1877 H 190.882 -1.95526 3.7769 0
M  V30 1878 N 189.197 -1.51736 -0.425897 0
M  V30 1879 C 190.443 -1.66174 -1.17294 0
M  V30 1880 C 190.798 -0.37876 -1.88635 0
M  V30 1881 O 190.091 0.626021 -1.81084 0
M  V30 1882 C 190.285 -2.81103 -2.20717 0
M  V30 1883 C 190.114 -4.20453 -1.59529 0
M  V30 1884 C 188.884 -4.86225 -1.37525 0
M  V30 1885 C 191.082 -5.03146 -1.06528 0
M  V30 1886 N 189.064 -6.09657 -0.720537 0
M  V30 1887 C 190.435 -6.17674 -0.536506 0
M  V30 1888 C 192.49 -4.88594 -0.958127 0
M  V30 1889 C 191.193 -7.19245 0.0888917 0
M  V30 1890 C 193.219 -5.90383 -0.346608 0
M  V30 1891 C 192.581 -7.04191 0.171564 0
M  V30 1892 H 188.68 -0.661871 -0.416475 0
M  V30 1893 H 191.264 -1.88997 -0.467801 0
M  V30 1894 H 189.435 -2.59924 -2.88607 0
M  V30 1895 H 191.167 -2.84662 -2.87663 0
M  V30 1896 H 187.922 -4.44293 -1.64015 0
M  V30 1897 H 188.346 -6.75756 -0.410292 0
M  V30 1898 H 192.988 -4.0085 -1.34459 0
M  V30 1899 H 190.706 -8.06628 0.48746 0
M  V30 1900 H 194.292 -5.81194 -0.265451 0
M  V30 1901 H 193.172 -7.81606 0.637309 0
M  V30 1902 N 190.675 0.682077 -1.42076 0
M  V30 1903 C 191.622 1.79578 -1.44984 0
M  V30 1904 C 192.592 1.6332 -0.302614 0
M  V30 1905 O 193.777 1.83978 -0.505633 0
M  V30 1906 C 190.917 3.1756 -1.35091 0
M  V30 1907 C 190.03 3.45156 -2.59791 0
M  V30 1908 C 189.165 4.72826 -2.42093 0
M  V30 1909 C 188.204 4.93433 -3.62202 0
M  V30 1910 N 187.341 6.12338 -3.43491 0
M  V30 1911 H 192.181 1.76427 -2.40161 0
M  V30 1912 H 189.718 0.861376 -1.19242 0
M  V30 1913 H 191.676 3.97287 -1.27354 0
M  V30 1914 H 190.306 3.19854 -0.435133 0
M  V30 1915 H 189.358 2.59736 -2.77923 0
M  V30 1916 H 190.67 3.5628 -3.49094 0
M  V30 1917 H 189.824 5.60631 -2.319 0
M  V30 1918 H 188.563 4.63973 -1.50268 0
M  V30 1919 H 187.568 4.04073 -3.72834 0
M  V30 1920 H 188.793 5.04136 -4.54998 0
M  V30 1921 H 186.739 6.04672 -2.54377 0
M  V30 1922 H 186.656 6.2429 -4.26377 0
M  V30 1923 H 187.924 7.02841 -3.37097 0
M  V30 1924 N 192.153 1.28127 0.917671 0
M  V30 1925 C 193.569 1.05749 1.19538 0
M  V30 1926 C 193.769 -0.202633 2.00479 0
M  V30 1927 O 192.825 -0.905382 2.3571 0
M  V30 1928 C 194.138 2.30273 1.93378 0
M  V30 1929 C 195.686 2.35412 2.06277 0
M  V30 1930 C 196.161 3.59692 2.83524 0
M  V30 1931 N 197.652 3.60309 2.91087 0
M  V30 1932 C 198.387 4.53147 3.51348 0
M  V30 1933 N 197.883 5.563 4.12919 0
M  V30 1934 N 199.676 4.40751 3.48849 0
M  V30 1935 H 191.827 2.09024 0.377184 0
M  V30 1936 H 194.09 0.919798 0.22951 0
M  V30 1937 H 193.796 3.22055 1.41328 0
M  V30 1938 H 193.67 2.36378 2.93947 0
M  V30 1939 H 196.057 1.4413 2.57508 0
M  V30 1940 H 196.138 2.33304 1.04895 0
M  V30 1941 H 195.782 4.51316 2.32973 0
M  V30 1942 H 195.712 3.59054 3.85211 0
M  V30 1943 H 198.203 2.85714 2.47338 0
M  V30 1944 H 198.516 6.2329 4.56869 0
M  V30 1945 H 196.861 5.60131 4.11435 0
M  V30 1946 H 200.052 3.59367 2.99955 0
M  V30 1947 H 200.225 5.13291 3.9552 0
M  V30 1948 N 193.631 -1.12557 1.10312 0
M  V30 1949 C 194.856 -1.88405 0.867085 0
M  V30 1950 C 195.281 -1.79038 -0.576817 0
M  V30 1951 O 194.639 -1.14439 -1.40618 0
M  V30 1952 C 194.687 -3.3563 1.31851 0
M  V30 1953 O 193.791 -4.09565 0.482734 0
M  V30 1954 H 193.132 -0.585455 0.313271 0
M  V30 1955 H 195.662 -1.42352 1.4696 0
M  V30 1956 H 195.672 -3.86469 1.3079 0
M  V30 1957 H 194.347 -3.41765 2.37001 0
M  V30 1958 H 192.924 -3.68695 0.558448 0
M  V30 1959 N 195.109 -0.891671 -1.2995 0
M  V30 1960 C 196.334 -0.527932 -2.00568 0
M  V30 1961 C 196.759 0.877969 -1.66353 0
M  V30 1962 O 196.117 1.58301 -0.883762 0
M  V30 1963 C 196.165 -0.717745 -3.53385 0
M  V30 1964 O 195.269 0.233376 -4.11739 0
M  V30 1965 H 194.61 -0.20722 -0.630837 0
M  V30 1966 H 197.14 -1.20105 -1.65638 0
M  V30 1967 H 197.15 -0.619307 -4.03272 0
M  V30 1968 H 195.825 -1.74276 -3.77625 0
M  V30 1969 H 194.402 0.0880706 -3.72796 0
M  V30 1970 N 196.587 1.43421 -0.653314 0
M  V30 1971 C 197.834 2.01812 -0.166745 0
M  V30 1972 C 198.162 1.51535 1.21931 0
M  V30 1973 O 197.417 0.698975 1.82792 0
M  V30 1974 C 197.716 3.57176 -0.126623 0
M  V30 1975 C 197.382 4.26798 -1.45444 0
M  V30 1976 C 196.044 4.45534 -1.81805 0
M  V30 1977 C 198.396 4.66225 -2.32989 0
M  V30 1978 C 195.724 5.00961 -3.05377 0
M  V30 1979 C 198.076 5.23021 -3.55853 0
M  V30 1980 C 196.74 5.39973 -3.9241 0
M  V30 1981 H 196.01 0.738484 -0.0610162 0
M  V30 1982 H 198.657 1.71896 -0.84404 0
M  V30 1983 H 196.962 3.86634 0.634123 0
M  V30 1984 H 198.659 4.00112 0.266723 0
M  V30 1985 H 195.249 4.12561 -1.16153 0
M  V30 1986 H 199.433 4.51443 -2.06187 0
M  V30 1987 H 194.689 5.12271 -3.3375 0
M  V30 1988 H 198.863 5.52518 -4.23907 0
M  V30 1989 H 196.49 5.82687 -4.88242 0
M  V30 1990 N 198.065 0.39524 1.52563 0
M  V30 1991 C 199.29 -0.187456 2.06551 0
M  V30 1992 C 199.715 -1.39249 1.26457 0
M  V30 1993 O 199.073 -1.78947 0.291151 0
M  V30 1994 C 199.121 -0.529985 3.56684 0
M  V30 1995 O 198.225 -1.62307 3.79118 0
M  V30 1996 H 197.566 -0.0202537 0.663691 0
M  V30 1997 H 200.096 0.564426 1.96661 0
M  V30 1998 H 200.106 -0.792598 4.00227 0
M  V30 1999 H 198.781 0.350987 4.14416 0
M  V30 2000 H 197.358 -1.3537 3.47461 0
M  V30 2001 N 199.544 -1.57102 0.125237 0
M  V30 2002 C 200.792 -1.95021 -0.530198 0
M  V30 2003 C 201.113 -1.00982 -1.66816 0
M  V30 2004 O 200.383 -0.0672693 -1.95784 0
M  V30 2005 H 198.963 -0.720046 -0.198853 0
M  V30 2006 H 201.625 -1.93916 0.19564 0
M  V30 2007 H 200.721 -2.98211 -0.920681 0
M  V30 2008 N 201.022 0.148545 -1.56898 0
M  V30 2009 C 202.25 0.876389 -1.87422 0
M  V30 2010 C 202.665 1.74809 -0.713256 0
M  V30 2011 O 202.022 1.79725 0.317025 0
M  V30 2012 C 202.073 1.73438 -3.17178 0
M  V30 2013 O 201.794 0.897809 -4.28802 0
M  V30 2014 C 203.295 2.56993 -3.61205 0
M  V30 2015 H 200.515 0.253489 -0.621277 0
M  V30 2016 H 203.059 0.141798 -2.04008 0
M  V30 2017 H 201.214 2.42205 -3.0235 0
M  V30 2018 H 201.628 1.48672 -5.02988 0
M  V30 2019 H 203.102 3.12773 -4.54838 0
M  V30 2020 H 203.579 3.32958 -2.86419 0
M  V30 2021 H 204.185 1.9352 -3.78722 0
M  V30 2022 N 202.5 1.5196 0.417844 0
M  V30 2023 C 203.41 1.77554 1.53336 0
M  V30 2024 C 204.426 0.660655 1.6097 0
M  V30 2025 O 205.602 0.945099 1.77848 0
M  V30 2026 C 202.667 1.91291 2.89152 0
M  V30 2027 C 201.728 3.15183 2.91475 0
M  V30 2028 C 200.961 3.28256 4.20813 0
M  V30 2029 O 201.184 2.46798 5.14244 0
M  V30 2030 O 200.118 4.21356 4.29817 0
M  V30 2031 H 203.944 2.7222 1.34647 0
M  V30 2032 H 201.529 1.36698 0.602828 0
M  V30 2033 H 203.411 2.02199 3.69721 0
M  V30 2034 H 202.086 0.998129 3.07927 0
M  V30 2035 H 200.993 3.09739 2.09791 0
M  V30 2036 H 202.326 4.06414 2.77648 0
M  V30 2037 N 203.978 -0.674533 1.42435 0
M  V30 2038 C 205.227 -1.43034 1.42212 0
M  V30 2039 C 205.54 -1.95555 0.0420788 0
M  V30 2040 O 206.746 -2.71374 -0.0827558 0
M  V30 2041 C 205.202 -2.58748 2.50155 0
M  V30 2042 C 204.81 -2.12925 3.94166 0
M  V30 2043 C 206.554 -3.36257 2.59098 0
M  V30 2044 C 204.461 -3.25723 4.93618 0
M  V30 2045 H 203.391 -0.537345 0.528939 0
M  V30 2046 H 206.042 -0.73024 1.68344 0
M  V30 2047 H 204.424 -3.31128 2.17188 0
M  V30 2048 H 205.598 -1.47697 4.36488 0
M  V30 2049 H 203.913 -1.48354 3.89076 0
M  V30 2050 H 206.51 -4.20264 3.30578 0
M  V30 2051 H 206.853 -3.82866 1.63461 0
M  V30 2052 H 207.386 -2.70947 2.9126 0
M  V30 2053 H 204.125 -2.84105 5.90732 0
M  V30 2054 H 203.645 -3.89732 4.55926 0
M  V30 2055 H 205.324 -3.91186 5.15347 0
M  V30 2056 N 205.456 -1.28612 -0.910864 0
M  V30 2057 C 206.703 -1.15934 -1.66029 0
M  V30 2058 C 207.031 0.291483 -1.92303 0
M  V30 2059 O 206.286 1.22816 -1.52364 0
M  V30 2060 C 206.585 -1.90624 -3.0232 0
M  V30 2061 C 206.251 -3.40405 -2.95695 0
M  V30 2062 C 204.913 -3.81255 -2.93595 0
M  V30 2063 C 207.265 -4.359 -2.85728 0
M  V30 2064 C 204.593 -5.15936 -2.79334 0
M  V30 2065 C 206.945 -5.70657 -2.73007 0
M  V30 2066 C 205.609 -6.10779 -2.69267 0
M  V30 2067 H 204.879 -0.424234 -0.607541 0
M  V30 2068 H 207.526 -1.5942 -1.06101 0
M  V30 2069 H 205.831 -1.39696 -3.6605 0
M  V30 2070 H 207.528 -1.78228 -3.59215 0
M  V30 2071 H 204.118 -3.07927 -2.98125 0
M  V30 2072 H 208.302 -4.053 -2.86436 0
M  V30 2073 H 203.558 -5.46146 -2.74835 0
M  V30 2074 H 207.732 -6.44311 -2.64264 0
M  V30 2075 H 205.359 -7.1509 -2.57974 0
M  V30 2076 N 206.934 1.1197 -1.10907 0
M  V30 2077 C 208.182 1.83225 -0.852819 0
M  V30 2078 C 208.503 1.84769 0.623341 0
M  V30 2079 O 207.773 1.3143 1.45269 0
M  V30 2080 H 206.353 0.67849 -0.312507 0
M  V30 2081 H 209.015 1.3556 -1.40033 0
M  V30 2082 H 208.111 2.87265 -1.22005 0
M  V30 2083 N 208.412 0.89855 1.29475 0
M  V30 2084 C 209.359 0.373819 2.27753 0
M  V30 2085 C 210.329 -0.543444 1.56958 0
M  V30 2086 O 211.514 -0.468934 1.84948 0
M  V30 2087 C 208.654 -0.393648 3.42848 0
M  V30 2088 C 207.767 0.554379 4.28428 0
M  V30 2089 C 206.902 -0.230026 5.30702 0
M  V30 2090 C 205.941 0.712599 6.07938 0
M  V30 2091 N 205.078 -0.0373283 7.0209 0
M  V30 2092 H 209.918 1.21699 2.72017 0
M  V30 2093 H 207.455 0.611456 1.33789 0
M  V30 2094 H 209.413 -0.85466 4.08352 0
M  V30 2095 H 208.043 -1.20128 2.99615 0
M  V30 2096 H 207.095 1.13391 3.63107 0
M  V30 2097 H 208.407 1.27597 4.82204 0
M  V30 2098 H 207.561 -0.752288 6.02018 0
M  V30 2099 H 206.3 -0.984758 4.77654 0
M  V30 2100 H 205.305 1.24637 5.35486 0
M  V30 2101 H 206.53 1.46664 6.63074 0
M  V30 2102 H 204.476 -0.774348 6.51414 0
M  V30 2103 H 204.393 0.624374 7.53417 0
M  V30 2104 H 205.661 -0.539891 7.77628 0
M  V30 2105 N 209.89 -1.43072 0.660911 0
M  V30 2106 C 211.118 -2.06067 0.185422 0
M  V30 2107 C 211.533 -1.49582 -1.15198 0
M  V30 2108 O 210.89 -0.630134 -1.71276 0
M  V30 2109 C 210.941 -3.61371 0.0966523 0
M  V30 2110 O 210.662 -4.15758 1.38119 0
M  V30 2111 C 212.163 -4.41455 -0.403996 0
M  V30 2112 H 209.383 -0.664459 0.0934604 0
M  V30 2113 H 211.927 -1.83447 0.90373 0
M  V30 2114 H 210.082 -3.8315 -0.572259 0
M  V30 2115 H 210.496 -5.09499 1.24542 0
M  V30 2116 H 211.97 -5.50437 -0.415045 0
M  V30 2117 H 212.447 -4.15036 -1.43674 0
M  V30 2118 H 213.053 -4.24663 0.232691 0
M  V30 2119 N 211.368 -0.403325 -1.52352 0
M  V30 2120 C 212.614 0.174605 -2.02047 0
M  V30 2121 C 212.947 1.45282 -1.28867 0
M  V30 2122 O 212.222 1.90483 -0.393257 0
M  V30 2123 C 212.505 0.428238 -3.57545 0
M  V30 2124 C 212.358 -0.866248 -4.4138 0
M  V30 2125 C 213.677 1.21287 -4.23057 0
M  V30 2126 H 210.796 0.0619851 -0.734389 0
M  V30 2127 H 213.438 -0.53565 -1.82293 0
M  V30 2128 H 211.588 1.03327 -3.74507 0
M  V30 2129 H 213.26 -1.50265 -4.3614 0
M  V30 2130 H 211.503 -1.47851 -4.07827 0
M  V30 2131 H 212.174 -0.643249 -5.48239 0
M  V30 2132 H 214.65 0.700703 -4.10158 0
M  V30 2133 H 213.526 1.35909 -5.31808 0
M  V30 2134 H 213.787 2.23193 -3.81625 0
M  V30 2135 N 212.846 1.57033 -0.133567 0
M  V30 2136 C 214.094 1.953 0.519848 0
M  V30 2137 C 214.415 1.01866 1.66278 0
M  V30 2138 O 213.685 0.0776513 1.95746 0
M  V30 2139 H 212.265 0.721091 0.195032 0
M  V30 2140 H 214.927 1.93809 -0.205921 0
M  V30 2141 H 214.023 2.98695 0.904854 0
M  V30 2142 N 214.325 -0.140222 1.56975 0
M  V30 2143 C 215.571 -0.852949 1.83991 0
M  V30 2144 C 215.904 -1.80512 0.716187 0
M  V30 2145 O 215.179 -1.92479 -0.279681 0
M  V30 2146 C 215.462 -1.6215 3.21527 0
M  V30 2147 C 215.315 -0.690363 4.4447 0
M  V30 2148 C 216.634 -2.58247 3.56366 0
M  V30 2149 H 213.753 -0.308634 0.669264 0
M  V30 2150 H 216.395 -0.117898 1.89634 0
M  V30 2151 H 214.545 -2.24812 3.16847 0
M  V30 2152 H 216.217 -0.0742264 4.6124 0
M  V30 2153 H 214.46 -0.000396433 4.338 0
M  V30 2154 H 215.131 -1.2643 5.37326 0
M  V30 2155 H 217.607 -2.05701 3.61699 0
M  V30 2156 H 216.483 -3.09067 4.53617 0
M  V30 2157 H 216.744 -3.39923 2.82674 0
M  V30 2158 N 215.803 -1.52179 -0.40978 0
M  V30 2159 C 217.049 -1.66453 -1.15851 0
M  V30 2160 C 217.382 -0.392972 -1.90182 0
M  V30 2161 O 216.657 0.608579 -1.84734 0
M  V30 2162 C 216.94 -2.88612 -2.15349 0
M  V30 2163 C 216.793 -4.25815 -1.44918 0
M  V30 2164 C 218.112 -3.06294 -3.16026 0
M  V30 2165 H 215.231 -0.60575 -0.419805 0
M  V30 2166 H 217.873 -1.84732 -0.444314 0
M  V30 2167 H 216.023 -2.73158 -2.76255 0
M  V30 2168 H 217.695 -4.52995 -0.871365 0
M  V30 2169 H 215.938 -4.27247 -0.751159 0
M  V30 2170 H 216.609 -5.07337 -2.17516 0
M  V30 2171 H 219.085 -3.20641 -2.65195 0
M  V30 2172 H 217.961 -3.93283 -3.8291 0
M  V30 2173 H 218.222 -2.19579 -3.83715 0
M  V30 2174 N 217.281 0.66697 -1.42791 0
M  V30 2175 C 218.529 1.42417 -1.43394 0
M  V30 2176 C 218.85 1.94925 -0.0542373 0
M  V30 2177 O 218.12 1.73564 0.908415 0
M  V30 2178 H 216.7 0.528515 -0.527902 0
M  V30 2179 H 219.362 0.787562 -1.78279 0
M  V30 2180 H 218.458 2.27333 -2.13837 0
M  V30 2181 N 218.759 1.29093 0.90403 0
M  V30 2182 C 219.689 1.16401 2.02418 0
M  V30 2183 C 220.67 0.0593085 1.69997 0
M  V30 2184 O 221.855 0.238021 1.92736 0
M  V30 2185 C 218.985 0.835233 3.37107 0
M  V30 2186 C 217.939 1.89578 3.83724 0
M  V30 2187 C 217.265 1.42041 5.15489 0
M  V30 2188 C 218.565 3.30394 4.04521 0
M  V30 2189 H 220.259 2.10109 2.13295 0
M  V30 2190 H 217.805 1.01157 1.02486 0
M  V30 2191 H 219.758 0.733169 4.14973 0
M  V30 2192 H 218.482 -0.137543 3.2631 0
M  V30 2193 H 217.141 1.98715 3.08071 0
M  V30 2194 H 216.789 0.436426 5.01103 0
M  V30 2195 H 216.489 2.12964 5.4765 0
M  V30 2196 H 218.013 1.33176 5.959 0
M  V30 2197 H 219.427 3.24123 4.72882 0
M  V30 2198 H 217.824 3.99237 4.48029 0
M  V30 2199 H 218.894 3.73692 3.09002 0
M  V30 2200 N 220.237 -1.11381 1.11499 0
M  V30 2201 C 221.485 -1.8277 0.862524 0
M  V30 2202 C 221.806 -1.85097 -0.613534 0
M  V30 2203 O 221.076 -1.32198 -1.4457 0
M  V30 2204 H 219.656 -0.676823 0.316101 0
M  V30 2205 H 222.318 -1.34816 1.4075 0
M  V30 2206 H 221.414 -2.86614 1.23527 0
M  V30 2207 N 221.715 -0.905404 -1.28997 0
M  V30 2208 C 223.131 -0.60233 -1.47798 0
M  V30 2209 C 223.331 0.854645 -1.82478 0
M  V30 2210 O 222.387 1.63439 -1.92468 0
M  V30 2211 C 223.7 -1.53306 -2.58685 0
M  V30 2212 C 225.248 -1.53887 -2.72558 0
M  V30 2213 C 225.723 -2.45602 -3.86579 0
M  V30 2214 N 227.214 -2.43681 -3.93921 0
M  V30 2215 C 227.949 -3.11347 -4.81509 0
M  V30 2216 N 227.445 -3.88313 -5.73746 0
M  V30 2217 N 229.238 -3.00476 -4.75048 0
M  V30 2218 H 221.389 -1.84765 -1.04764 0
M  V30 2219 H 223.652 -0.792025 -0.520961 0
M  V30 2220 H 223.358 -2.57141 -2.39941 0
M  V30 2221 H 223.232 -1.25787 -3.55609 0
M  V30 2222 H 225.619 -0.507941 -2.90696 0
M  V30 2223 H 225.7 -1.85447 -1.76191 0
M  V30 2224 H 225.344 -3.48792 -3.69197 0
M  V30 2225 H 225.274 -2.11349 -4.82327 0
M  V30 2226 H 227.765 -1.87767 -3.27951 0
M  V30 2227 H 228.078 -4.36985 -6.37389 0
M  V30 2228 H 226.423 -3.92419 -5.73614 0
M  V30 2229 H 229.614 -2.39858 -4.01977 0
M  V30 2230 H 229.787 -3.53485 -5.43095 0
M  V30 2231 N 223.193 1.4272 -0.668489 0
M  V30 2232 C 224.442 2.00846 -0.185389 0
M  V30 2233 C 224.755 1.53442 1.21305 0
M  V30 2234 O 225.961 2.03944 1.79218 0
M  V30 2235 C 224.417 3.58805 -0.280591 0
M  V30 2236 C 224.025 4.15198 -1.68268 0
M  V30 2237 C 225.769 4.24255 0.14412 0
M  V30 2238 C 223.676 5.655 -1.73099 0
M  V30 2239 H 222.606 0.751145 -0.0655475 0
M  V30 2240 H 225.257 1.63516 -0.832752 0
M  V30 2241 H 223.639 3.93608 0.434553 0
M  V30 2242 H 224.813 3.91866 -2.42441 0
M  V30 2243 H 223.128 3.62176 -2.05469 0
M  V30 2244 H 225.725 5.34547 0.128086 0
M  V30 2245 H 226.068 3.99277 1.17827 0
M  V30 2246 H 226.601 3.94389 -0.519798 0
M  V30 2247 H 223.34 5.95268 -2.74475 0
M  V30 2248 H 222.86 5.90842 -1.03274 0
M  V30 2249 H 224.539 6.29808 -1.48158 0
M  V30 2250 N 224.671 0.411399 1.52136 0
M  V30 2251 C 225.919 -0.163322 2.01439 0
M  V30 2252 C 226.24 -1.45453 1.29879 0
M  V30 2253 O 225.51 -1.91225 0.4254 0
M  V30 2254 H 224.09 -0.0633447 0.744309 0
M  V30 2255 H 226.752 0.548161 1.87033 0
M  V30 2256 H 225.848 -0.357817 3.10042 0
M  V30 2257 N 226.149 -1.5696 0.141893 0
M  V30 2258 C 227.081 -2.13619 -0.830627 0
M  V30 2259 C 228.094 -1.08439 -1.21428 0
M  V30 2260 O 229.283 -1.35734 -1.15925 0
M  V30 2261 C 226.383 -2.63978 -2.12529 0
M  V30 2262 C 225.556 -3.93504 -1.9098 0
M  V30 2263 C 224.615 -4.29225 -3.04388 0
M  V30 2264 O 223.641 -4.97641 -2.76302 0
M  V30 2265 N 224.843 -3.88393 -4.31429 0
M  V30 2266 H 227.608 -2.97691 -0.34641 0
M  V30 2267 H 225.169 -1.61846 -0.0418375 0
M  V30 2268 H 227.161 -2.84891 -2.87436 0
M  V30 2269 H 225.731 -1.84659 -2.52229 0
M  V30 2270 H 224.951 -3.81269 -1.00139 0
M  V30 2271 H 226.239 -4.78154 -1.73914 0
M  V30 2272 H 225.637 -3.33257 -4.57117 0
M  V30 2273 H 224.194 -4.14368 -5.03133 0
M  V30 2274 N 227.627 0.131896 -1.57047 0
M  V30 2275 C 228.557 1.16384 -2.02428 0
M  V30 2276 C 229.538 1.43936 -0.90644 0
M  V30 2277 O 230.723 1.54599 -1.17528 0
M  V30 2278 C 227.853 2.49328 -2.4177 0
M  V30 2279 C 226.807 2.36266 -3.56879 0
M  V30 2280 C 226.133 3.74057 -3.8208 0
M  V30 2281 C 227.433 1.834 -4.89042 0
M  V30 2282 H 229.127 0.786433 -2.88887 0
M  V30 2283 H 226.673 0.376855 -1.38981 0
M  V30 2284 H 228.626 3.21759 -2.7212 0
M  V30 2285 H 227.35 2.88934 -1.52266 0
M  V30 2286 H 226.009 1.66286 -3.26718 0
M  V30 2287 H 225.657 4.11125 -2.89803 0
M  V30 2288 H 225.357 3.66174 -4.59554 0
M  V30 2289 H 226.881 4.48012 -4.1487 0
M  V30 2290 H 228.295 2.45636 -5.18011 0
M  V30 2291 H 226.692 1.8637 -5.70426 0
M  V30 2292 H 227.762 0.790662 -4.7841 0
M  V30 2293 N 229.106 1.52395 0.401703 0
M  V30 2294 C 230.352 1.67065 1.14966 0
M  V30 2295 C 230.685 0.403052 1.89971 0
M  V30 2296 O 229.96 -0.598774 1.85054 0
M  V30 2297 C 230.243 2.8975 2.13815 0
M  V30 2298 C 230.096 4.26578 1.42658 0
M  V30 2299 C 231.415 3.07965 3.14397 0
M  V30 2300 H 228.534 0.607968 0.416587 0
M  V30 2301 H 231.176 1.84965 0.434511 0
M  V30 2302 H 229.326 2.74619 2.74803 0
M  V30 2303 H 230.998 4.53451 0.847329 0
M  V30 2304 H 229.241 4.27639 0.72849 0
M  V30 2305 H 229.912 5.08483 2.14823 0
M  V30 2306 H 232.388 3.22043 2.63491 0
M  V30 2307 H 231.264 3.95308 3.80819 0
M  V30 2308 H 231.525 2.21611 3.82545 0
M  V30 2309 N 230.584 -0.659388 1.43143 0
M  V30 2310 C 231.547 -1.75432 1.47501 0
M  V30 2311 C 232.547 -1.56707 0.360512 0
M  V30 2312 O 233.737 -1.62717 0.622002 0
M  V30 2313 C 230.869 -3.14239 1.32162 0
M  V30 2314 H 232.062 -1.7295 2.45006 0
M  V30 2315 H 229.615 -0.870469 1.29817 0
M  V30 2316 H 230.35 -3.22336 0.356401 0
M  V30 2317 H 230.135 -3.29235 2.12948 0
M  V30 2318 H 231.625 -3.94094 1.3813 0
M  V30 2319 N 232.062 -1.29571 -0.897171 0
M  V30 2320 C 232.994 -1.10724 -2.00681 0
M  V30 2321 C 234.007 -0.0540026 -1.6271 0
M  V30 2322 O 235.196 -0.298783 -1.75982 0
M  V30 2323 C 232.296 -0.663912 -3.32333 0
M  V30 2324 C 231.469 -1.79622 -3.98816 0
M  V30 2325 C 230.528 -1.34349 -5.0876 0
M  V30 2326 O 229.554 -2.04864 -5.31055 0
M  V30 2327 N 230.756 -0.215764 -5.80099 0
M  V30 2328 H 233.521 -2.06291 -2.17403 0
M  V30 2329 H 231.082 -1.21544 -1.06951 0
M  V30 2330 H 233.074 -0.344295 -4.03233 0
M  V30 2331 H 231.644 0.199375 -3.11964 0
M  V30 2332 H 230.864 -2.28459 -3.21248 0
M  V30 2333 H 232.152 -2.55535 -4.39976 0
M  V30 2334 H 231.55 0.372091 -5.64475 0
M  V30 2335 H 230.107 0.0444707 -6.51785 0
M  V30 2336 N 233.54 1.10788 -1.12088 0
M  V30 2337 C 234.956 1.34691 -0.856186 0
M  V30 2338 C 235.156 1.94791 0.515615 0
M  V30 2339 O 234.212 2.18524 1.26505 0
M  V30 2340 C 235.525 2.27208 -1.9697 0
M  V30 2341 C 237.073 2.40755 -2.00016 0
M  V30 2342 C 237.548 3.36598 -3.1059 0
M  V30 2343 N 239.039 3.44164 -3.10008 0
M  V30 2344 C 239.774 4.18284 -3.92206 0
M  V30 2345 N 239.27 4.95322 -4.84384 0
M  V30 2346 N 241.063 4.13865 -3.80357 0
M  V30 2347 H 233.214 0.70144 -2.00483 0
M  V30 2348 H 235.477 0.371405 -0.872217 0
M  V30 2349 H 235.183 1.90251 -2.958 0
M  V30 2350 H 235.057 3.27485 -1.87172 0
M  V30 2351 H 237.444 2.76982 -1.01808 0
M  V30 2352 H 237.525 1.40305 -2.13888 0
M  V30 2353 H 237.169 3.01096 -4.09028 0
M  V30 2354 H 237.099 4.36918 -2.93956 0
M  V30 2355 H 239.59 2.8922 -2.43228 0
M  V30 2356 H 239.903 5.49267 -5.43623 0
M  V30 2357 H 238.248 4.94459 -4.884 0
M  V30 2358 H 241.439 3.52773 -3.07683 0
M  V30 2359 H 241.612 4.71372 -4.44649 0
M  V30 2360 N 235.018 0.912232 1.28515 0
M  V30 2361 C 236.267 0.540504 1.94323 0
M  V30 2362 C 236.58 -0.920044 1.72611 0
M  V30 2363 O 237.786 -1.39986 2.32629 0
M  V30 2364 C 236.242 0.915803 3.48053 0
M  V30 2365 C 235.85 2.39598 3.78546 0
M  V30 2366 C 237.594 0.614588 4.20027 0
M  V30 2367 C 235.501 2.71148 5.25578 0
M  V30 2368 H 234.431 0.198418 0.727424 0
M  V30 2369 H 237.082 1.11094 1.46049 0
M  V30 2370 H 235.464 0.274168 3.9505 0
M  V30 2371 H 236.638 3.08422 3.42364 0
M  V30 2372 H 234.953 2.66749 3.1974 0
M  V30 2373 H 237.55 0.827002 5.28266 0
M  V30 2374 H 237.893 -0.447531 4.13887 0
M  V30 2375 H 238.426 1.21462 3.78803 0
M  V30 2376 H 235.165 3.76207 5.36794 0
M  V30 2377 H 234.685 2.0696 5.62963 0
M  V30 2378 H 236.364 2.58072 5.93302 0
M  V30 2379 N 236.496 -1.42363 0.676048 0
M  V30 2380 C 237.459 -2.29199 0.00766941 0
M  V30 2381 C 238.459 -1.43389 -0.727745 0
M  V30 2382 O 239.649 -1.64764 -0.56556 0
M  V30 2383 C 236.781 -3.2591 -0.999785 0
M  V30 2384 H 237.974 -2.89794 0.771988 0
M  V30 2385 H 235.527 -1.50024 0.438468 0
M  V30 2386 H 236.262 -2.70256 -1.79255 0
M  V30 2387 H 236.047 -3.89202 -0.475829 0
M  V30 2388 H 237.537 -3.91028 -1.46583 0
M  V30 2389 N 237.974 -0.419461 -1.51915 0
M  V30 2390 C 238.937 0.389116 -2.25873 0
M  V30 2391 C 239.937 0.964924 -1.28631 0
M  V30 2392 O 241.127 0.842179 -1.52489 0
M  V30 2393 C 238.259 1.54874 -3.03689 0
M  V30 2394 H 239.452 -0.258799 -2.98781 0
M  V30 2395 H 237.005 -0.172209 -1.55348 0
M  V30 2396 H 237.74 2.23323 -2.35154 0
M  V30 2397 H 237.525 1.14223 -3.75094 0
M  V30 2398 H 239.015 2.12046 -3.59759 0
M  V30 2399 N 239.452 1.56882 -0.150215 0
M  V30 2400 C 240.699 1.96228 0.500093 0
M  V30 2401 C 241.027 1.03522 1.64661 0
M  V30 2402 O 240.282 0.0650683 1.95592 0
M  V30 2403 C 240.581 3.41801 1.04437 0
M  V30 2404 C 240.247 4.50897 0.0159671 0
M  V30 2405 C 238.909 4.8046 -0.266731 0
M  V30 2406 C 241.261 5.16703 -0.683192 0
M  V30 2407 C 238.589 5.73135 -1.25434 0
M  V30 2408 C 240.941 6.10441 -1.65964 0
M  V30 2409 C 239.605 6.38382 -1.95 0
M  V30 2410 H 238.875 0.718048 0.182997 0
M  V30 2411 H 241.522 1.90019 -0.237724 0
M  V30 2412 H 239.827 3.44857 1.85959 0
M  V30 2413 H 241.524 3.69573 1.55618 0
M  V30 2414 H 238.114 4.27891 0.246485 0
M  V30 2415 H 242.298 4.93993 -0.477983 0
M  V30 2416 H 237.554 5.93074 -1.48571 0
M  V30 2417 H 241.728 6.60507 -2.20689 0
M  V30 2418 H 239.355 7.09996 -2.71679 0
M  V30 2419 N 240.93 -0.123565 1.57115 0
M  V30 2420 C 242.178 -0.83051 1.84247 0
M  V30 2421 C 242.499 -1.80629 0.73471 0
M  V30 2422 O 241.769 -1.94403 -0.241688 0
M  V30 2423 H 240.349 -0.309694 0.679778 0
M  V30 2424 H 243.011 -0.111976 1.94578 0
M  V30 2425 H 242.107 -1.37852 2.80006 0
M  V30 2426 N 242.408 -1.52605 -0.393616 0
M  V30 2427 C 243.371 -1.76415 -1.46323 0
M  V30 2428 C 244.371 -0.634126 -1.47768 0
M  V30 2429 O 245.561 -0.902142 -1.4902 0
M  V30 2430 C 242.693 -1.8607 -2.85641 0
M  V30 2431 H 243.886 -2.71916 -1.26498 0
M  V30 2432 H 241.439 -1.43257 -0.625073 0
M  V30 2433 H 242.174 -0.925378 -3.10817 0
M  V30 2434 H 241.959 -2.68235 -2.85993 0
M  V30 2435 H 243.449 -2.06179 -3.63153 0
M  V30 2436 N 243.887 0.651787 -1.4349 0
M  V30 2437 C 245.117 1.43728 -1.48411 0
M  V30 2438 C 245.525 1.8893 -0.10103 0
M  V30 2439 O 244.868 1.60182 0.899307 0
M  V30 2440 C 244.93 2.70411 -2.36893 0
M  V30 2441 C 244.594 2.4714 -3.8441 0
M  V30 2442 C 245.591 2.10271 -4.75481 0
M  V30 2443 C 243.276 2.6142 -4.28912 0
M  V30 2444 C 245.27 1.87982 -6.0905 0
M  V30 2445 C 242.957 2.38746 -5.62533 0
M  V30 2446 C 243.955 2.02083 -6.5242 0
M  V30 2447 O 243.643 1.79647 -7.8357 0
M  V30 2448 H 243.375 0.447962 -0.506267 0
M  V30 2449 H 245.929 0.80624 -1.88915 0
M  V30 2450 H 244.159 3.36079 -1.91278 0
M  V30 2451 H 245.848 3.32364 -2.33 0
M  V30 2452 H 246.614 1.98814 -4.42378 0
M  V30 2453 H 242.493 2.88931 -3.59222 0
M  V30 2454 H 246.037 1.5929 -6.7917 0
M  V30 2455 H 241.934 2.49806 -5.95203 0
M  V30 2456 H 242.702 1.9406 -7.95162 0
M  V30 2457 N 245.365 1.30045 0.890287 0
M  V30 2458 C 246.611 1.18737 1.64406 0
M  V30 2459 C 246.944 -0.258525 1.92472 0
M  V30 2460 O 246.219 -1.18562 1.54186 0
M  V30 2461 C 246.502 2.01087 2.98724 0
M  V30 2462 C 246.355 3.53867 2.77665 0
M  V30 2463 C 247.674 1.84457 3.9958 0
M  V30 2464 H 244.793 0.432698 0.596608 0
M  V30 2465 H 247.435 1.5962 1.0306 0
M  V30 2466 H 245.585 1.66349 3.51084 0
M  V30 2467 H 247.257 3.98637 2.32133 0
M  V30 2468 H 245.5 3.78318 2.12269 0
M  V30 2469 H 246.171 4.06772 3.7315 0
M  V30 2470 H 248.647 2.14817 3.56361 0
M  V30 2471 H 247.523 2.44411 4.91482 0
M  V30 2472 H 247.784 0.802276 4.3476 0
M  V30 2473 N 246.843 -1.10192 1.12674 0
M  V30 2474 C 248.089 -1.82475 0.884915 0
M  V30 2475 C 248.422 -1.85093 -0.58773 0
M  V30 2476 O 247.697 -1.3134 -1.43457 0
M  V30 2477 C 247.98 -3.29018 1.46353 0
M  V30 2478 C 247.833 -3.34718 3.00473 0
M  V30 2479 C 249.152 -4.25473 1.12519 0
M  V30 2480 H 246.271 -0.662492 0.322915 0
M  V30 2481 H 248.913 -1.2913 1.39375 0
M  V30 2482 H 247.063 -3.74576 1.03077 0
M  V30 2483 H 248.735 -2.97622 3.52447 0
M  V30 2484 H 246.978 -2.74541 3.35872 0
M  V30 2485 H 247.649 -4.37918 3.36053 0
M  V30 2486 H 250.125 -3.88161 1.499 0
M  V30 2487 H 249.001 -5.26365 1.55663 0
M  V30 2488 H 249.262 -4.42084 0.0377407 0
M  V30 2489 N 248.321 -0.919034 -1.28029 0
M  V30 2490 C 249.284 -0.416182 -2.2539 0
M  V30 2491 C 250.284 0.460438 -1.54067 0
M  V30 2492 O 251.474 0.262744 -1.72207 0
M  V30 2493 C 248.606 0.402707 -3.38513 0
M  V30 2494 H 249.799 -1.27629 -2.71387 0
M  V30 2495 H 247.352 -0.698919 -1.39803 0
M  V30 2496 H 248.087 1.282 -2.97885 0
M  V30 2497 H 247.872 -0.225698 -3.9145 0
M  V30 2498 H 249.362 0.745191 -4.10897 0
M  V30 2499 N 249.799 1.42003 -0.683588 0
M  V30 2500 C 251.029 2.05448 -0.217866 0
M  V30 2501 C 251.437 1.51491 1.13346 0
M  V30 2502 O 250.78 0.653048 1.717 0
M  V30 2503 C 250.842 3.59399 -0.0850118 0
M  V30 2504 C 250.506 4.36093 -1.36645 0
M  V30 2505 C 251.503 4.66169 -2.30179 0
M  V30 2506 C 249.188 4.75578 -1.61649 0
M  V30 2507 C 251.182 5.34676 -3.46988 0
M  V30 2508 C 248.869 5.43824 -2.78745 0
M  V30 2509 C 249.867 5.73299 -3.71238 0
M  V30 2510 O 249.555 6.40142 -4.86285 0
M  V30 2511 H 249.287 0.668344 -0.101454 0
M  V30 2512 H 251.841 1.82974 -0.933248 0
M  V30 2513 H 250.071 3.80566 0.686031 0
M  V30 2514 H 251.76 4.04457 0.341973 0
M  V30 2515 H 252.526 4.36156 -2.12115 0
M  V30 2516 H 248.405 4.52025 -0.905243 0
M  V30 2517 H 251.949 5.57599 -4.19201 0
M  V30 2518 H 247.846 5.73254 -2.96732 0
M  V30 2519 H 248.614 6.58636 -4.85944 0
M  V30 2520 N 251.277 0.427512 1.51691 0
M  V30 2521 C 252.554 -0.201684 1.94557 0
M  V30 2522 C 252.934 -1.60981 1.36559 0
M  V30 2523 O 252.282 -2.21814 0.548702 0
M  V30 2524 C 252.492 -0.189394 3.48486 0
M  V30 2525 C 253.84 -0.39978 4.22714 0
M  V30 2526 O 254.864 -0.267945 3.55191 0
M  V30 2527 O 253.723 -0.661249 5.42485 0
M  V30 2528 H 250.817 -0.135261 0.815864 0
M  V30 2529 H 253.363 0.484782 1.62628 0
M  V30 2530 H 252.135 0.795431 3.8313 0
M  V30 2531 H 251.758 -0.919187 3.86829 0
M  V30 2532 N 252.755 -1.56801 0.158532 0
M  V30 2533 C 254.166 -1.83189 -0.360366 0
M  V30 2534 C 254.517 -1.07778 -1.63946 0
M  V30 2535 O 253.642 -0.326718 -2.13919 0
M  V30 2536 C 254.237 -3.32297 -0.660595 0
M  V30 2537 C 252.796 -3.59227 -1.12398 0
M  V30 2538 C 251.943 -2.76877 -0.153097 0
M  V30 2539 H 254.894 -1.54008 0.383031 0
M  V30 2540 H 254.915 -3.4908 -1.51405 0
M  V30 2541 H 254.427 -3.87156 0.270527 0
M  V30 2542 H 252.528 -3.09766 -2.07064 0
M  V30 2543 H 252.641 -4.67632 -1.04197 0
M  V30 2544 H 251.005 -2.46319 -0.647983 0
M  V30 2545 H 251.788 -3.34511 0.77182 0
M  V30 2546 N 254.233 0.115231 -1.57178 0
M  V30 2547 C 255.463 0.835224 -1.88964 0
M  V30 2548 C 255.871 1.73774 -0.74829 0
M  V30 2549 O 255.214 1.81401 0.289739 0
M  V30 2550 C 255.276 1.7178 -3.15804 0
M  V30 2551 C 254.94 0.989198 -4.46166 0
M  V30 2552 C 255.937 0.328263 -5.18863 0
M  V30 2553 C 253.622 0.969256 -4.9286 0
M  V30 2554 C 255.616 -0.342873 -6.36477 0
M  V30 2555 C 253.303 0.294324 -6.10391 0
M  V30 2556 C 254.301 -0.360582 -6.82048 0
M  V30 2557 O 253.989 -1.02474 -7.97342 0
M  V30 2558 H 253.721 0.245197 -0.629964 0
M  V30 2559 H 256.275 0.10303 -2.05141 0
M  V30 2560 H 254.505 2.49173 -2.95719 0
M  V30 2561 H 256.194 2.31255 -3.33581 0
M  V30 2562 H 256.96 0.335263 -4.8384 0
M  V30 2563 H 252.839 1.46844 -4.36987 0
M  V30 2564 H 256.383 -0.854629 -6.92345 0
M  V30 2565 H 252.28 0.285099 -6.4487 0
M  V30 2566 H 253.048 -0.929594 -8.13204 0
M  V30 2567 N 255.711 1.52812 0.385517 0
M  V30 2568 C 256.957 1.68275 1.13188 0
M  V30 2569 C 257.29 0.423179 1.89533 0
M  V30 2570 O 256.565 -0.579113 1.85679 0
M  V30 2571 C 256.848 2.92001 2.1073 0
M  V30 2572 C 256.701 4.28067 1.38125 0
M  V30 2573 C 258.02 3.11283 3.11113 0
M  V30 2574 H 255.139 0.612352 0.410115 0
M  V30 2575 H 257.781 1.85415 0.414869 0
M  V30 2576 H 255.931 2.77519 2.71874 0
M  V30 2577 H 257.603 4.54324 0.799187 0
M  V30 2578 H 255.846 4.28388 0.683092 0
M  V30 2579 H 256.517 5.10733 2.09417 0
M  V30 2580 H 258.993 3.2482 2.6006 0
M  V30 2581 H 257.869 3.99325 3.76605 0
M  V30 2582 H 258.13 2.25656 3.80173 0
M  V30 2583 N 257.189 -0.644168 1.43834 0
M  V30 2584 C 258.414 -1.43642 1.49605 0
M  V30 2585 C 258.839 -1.8773 0.117913 0
M  V30 2586 O 258.197 -1.57938 -0.890239 0
M  V30 2587 C 258.245 -2.6416 2.45463 0
M  V30 2588 O 257.349 -3.63538 1.94714 0
M  V30 2589 H 256.69 -0.430329 0.50568 0
M  V30 2590 H 259.22 -0.787448 1.8884 0
M  V30 2591 H 259.23 -3.11864 2.63068 0
M  V30 2592 H 257.905 -2.31414 3.45572 0
M  V30 2593 H 256.482 -3.2273 1.86814 0
M  V30 2594 N 258.668 -1.30515 -0.883378 0
M  V30 2595 C 260.079 -1.17509 -1.45081 0
M  V30 2596 C 260.43 0.223605 -1.94922 0
M  V30 2597 O 259.555 1.12041 -1.85137 0
M  V30 2598 C 260.15 -2.12715 -2.63701 0
M  V30 2599 C 258.709 -2.03682 -3.16529 0
M  V30 2600 C 257.856 -2.02706 -1.89224 0
M  V30 2601 H 260.807 -1.42762 -0.693165 0
M  V30 2602 H 260.828 -1.70891 -3.39965 0
M  V30 2603 H 260.34 -3.14505 -2.27395 0
M  V30 2604 H 258.441 -1.05039 -3.57488 0
M  V30 2605 H 258.554 -2.92146 -3.7972 0
M  V30 2606 H 256.918 -1.4753 -2.07622 0
M  V30 2607 H 257.701 -3.06229 -1.55174 0
M  V30 2608 N 260.146 1.09593 -1.13257 0
M  V30 2609 C 261.109 2.14359 -0.811358 0
M  V30 2610 C 262.109 1.59808 0.178377 0
M  V30 2611 O 263.299 1.74132 -0.0484911 0
M  V30 2612 C 260.431 3.40269 -0.207276 0
M  V30 2613 H 261.624 2.44284 -1.73969 0
M  V30 2614 H 259.177 1.25102 -0.936973 0
M  V30 2615 H 259.912 3.15969 0.73036 0
M  V30 2616 H 259.697 3.81154 -0.919992 0
M  V30 2617 H 261.187 4.176 0.000667944 0
M  V30 2618 N 261.624 0.925811 1.2754 0
M  V30 2619 C 263.04 0.625767 1.46821 0
M  V30 2620 C 263.24 -0.825506 1.83814 0
M  V30 2621 O 262.296 -1.60356 1.95044 0
M  V30 2622 C 263.609 1.57402 2.56213 0
M  V30 2623 C 265.157 1.58204 2.70075 0
M  V30 2624 C 265.632 2.51721 3.82623 0
M  V30 2625 N 267.123 2.49917 3.89994 0
M  V30 2626 C 267.858 3.18968 4.76494 0
M  V30 2627 N 267.354 3.97391 5.67496 0
M  V30 2628 N 269.147 3.07996 4.70208 0
M  V30 2629 H 261.298 1.86409 1.01811 0
M  V30 2630 H 263.561 0.800213 0.508295 0
M  V30 2631 H 263.267 2.60925 2.35819 0
M  V30 2632 H 263.141 1.31428 3.53563 0
M  V30 2633 H 265.528 0.554124 2.89851 0
M  V30 2634 H 265.609 1.88226 1.73218 0
M  V30 2635 H 265.253 3.54622 3.63601 0
M  V30 2636 H 265.183 2.18996 4.78903 0
M  V30 2637 H 267.674 1.9296 3.24923 0
M  V30 2638 H 267.987 4.4707 6.30356 0
M  V30 2639 H 266.332 4.01495 5.67298 0
M  V30 2640 H 269.523 2.46223 3.9811 0
M  V30 2641 H 269.696 3.6208 5.37403 0
M  V30 2642 N 263.102 -1.41638 0.69111 0
M  V30 2643 C 264.065 -2.29178 0.0319786 0
M  V30 2644 C 265.065 -1.44153 -0.712496 0
M  V30 2645 O 266.255 -1.65354 -0.548053 0
M  V30 2646 C 263.387 -3.26952 -0.965161 0
M  V30 2647 H 264.58 -2.88959 0.802681 0
M  V30 2648 H 262.133 -1.4955 0.454356 0
M  V30 2649 H 262.868 -2.72142 -1.76378 0
M  V30 2650 H 262.653 -3.89685 -0.434522 0
M  V30 2651 H 264.143 -3.92561 -1.42428 0
M  V30 2652 N 264.58 -0.43555 -1.51462 0
M  V30 2653 C 265.543 0.365137 -2.26273 0
M  V30 2654 C 266.543 0.951227 -1.29647 0
M  V30 2655 O 267.733 0.825958 -1.53374 0
M  V30 2656 C 264.865 1.51645 -3.05314 0
M  V30 2657 H 266.058 -0.290474 -2.9849 0
M  V30 2658 H 263.611 -0.188676 -1.55157 0
M  V30 2659 H 264.346 2.20816 -2.3751 0
M  V30 2660 H 264.131 1.10238 -3.76284 0
M  V30 2661 H 265.621 2.08218 -3.61987 0
M  V30 2662 N 266.058 1.56714 -0.166846 0
M  V30 2663 C 266.99 2.14914 0.796537 0
M  V30 2664 C 268.003 1.10357 1.19688 0
M  V30 2665 O 269.192 1.37561 1.13751 0
M  V30 2666 C 266.292 2.67326 2.08303 0
M  V30 2667 C 265.465 3.96493 1.84696 0
M  V30 2668 C 264.524 4.34014 2.97521 0
M  V30 2669 O 263.55 5.01973 2.6835 0
M  V30 2670 N 264.752 3.95208 4.25196 0
M  V30 2671 H 267.517 2.98205 0.299006 0
M  V30 2672 H 265.078 1.61892 0.0160839 0
M  V30 2673 H 267.07 2.89428 2.82867 0
M  V30 2674 H 265.64 1.88649 2.4926 0
M  V30 2675 H 264.86 3.82814 0.940602 0
M  V30 2676 H 266.148 4.8086 1.66285 0
M  V30 2677 H 265.546 3.40487 4.51758 0
M  V30 2678 H 264.103 4.2232 4.96477 0
M  V30 2679 N 267.536 -0.106894 1.57237 0
M  V30 2680 C 268.466 -1.13148 2.04254 0
M  V30 2681 C 269.447 -1.42476 0.929224 0
M  V30 2682 O 270.632 -1.52709 1.19973 0
M  V30 2683 C 267.762 -2.4545 2.45706 0
M  V30 2684 C 266.716 -2.30558 3.60592 0
M  V30 2685 C 266.042 -3.67931 3.87983 0
M  V30 2686 C 267.342 -1.75597 4.91897 0
M  V30 2687 H 269.036 -0.740374 2.90101 0
M  V30 2688 H 266.582 -0.354696 1.39563 0
M  V30 2689 H 268.535 -3.17389 2.77205 0
M  V30 2690 H 267.259 -2.86475 1.56843 0
M  V30 2691 H 265.918 -1.61067 3.29322 0
M  V30 2692 H 265.566 -4.06462 2.96306 0
M  V30 2693 H 265.266 -3.58817 4.65322 0
M  V30 2694 H 266.79 -4.41356 4.21945 0
M  V30 2695 H 268.204 -2.37364 5.21854 0
M  V30 2696 H 266.601 -1.77272 5.73319 0
M  V30 2697 H 267.671 -0.714451 4.79608 0
M  V30 2698 N 269.014 -1.53014 -0.377408 0
M  V30 2699 C 270.262 -1.6829 -1.11906 0
M  V30 2700 C 270.583 -0.431206 -1.90173 0
M  V30 2701 O 269.853 0.554595 -1.87886 0
M  V30 2702 H 268.433 -0.620371 -0.416112 0
M  V30 2703 H 271.095 -1.90167 -0.426893 0
M  V30 2704 H 270.191 -2.53862 -1.8155 0
M  V30 2705 N 270.492 0.636531 -1.44174 0
M  V30 2706 C 271.741 1.39213 -1.45954 0
M  V30 2707 C 272.054 1.95374 -0.0939119 0
M  V30 2708 O 273.26 2.71498 0.0107767 0
M  V30 2709 C 271.716 2.52025 -2.56927 0
M  V30 2710 C 271.324 2.024 -3.99673 0
M  V30 2711 C 273.068 3.29269 -2.67922 0
M  V30 2712 C 270.975 3.12521 -5.0208 0
M  V30 2713 H 269.905 0.523132 -0.542999 0
M  V30 2714 H 272.556 0.685349 -1.70221 0
M  V30 2715 H 270.938 3.25253 -2.25891 0
M  V30 2716 H 272.112 1.36073 -4.40251 0
M  V30 2717 H 270.427 1.37987 -3.92872 0
M  V30 2718 H 273.024 4.11352 -3.41605 0
M  V30 2719 H 273.367 3.78397 -1.73555 0
M  V30 2720 H 273.9 2.63129 -2.98342 0
M  V30 2721 H 270.639 2.68343 -5.98057 0
M  V30 2722 H 270.159 3.77507 -4.66099 0
M  V30 2723 H 271.838 3.77385 -5.25538 0
M  V30 2724 N 271.97 1.30982 0.876444 0
M  V30 2725 C 272.88 1.2003 2.01569 0
M  V30 2726 C 273.896 0.11838 1.73597 0
M  V30 2727 O 275.072 0.33495 1.98595 0
M  V30 2728 C 272.137 0.901637 3.34771 0
M  V30 2729 C 271.198 2.06979 3.76109 0
M  V30 2730 C 270.431 1.78529 5.02954 0
M  V30 2731 O 270.654 0.717296 5.65872 0
M  V30 2732 O 269.588 2.64019 5.40905 0
M  V30 2733 H 273.414 2.15753 2.13739 0
M  V30 2734 H 270.999 1.10658 1.00375 0
M  V30 2735 H 272.881 0.750645 4.1466 0
M  V30 2736 H 271.556 -0.0256141 3.2369 0
M  V30 2737 H 270.463 2.27616 2.96887 0
M  V30 2738 H 271.796 2.97907 3.91807 0
M  V30 2739 N 273.449 -1.08991 1.13837 0
M  V30 2740 C 274.379 -2.17771 0.842507 0
M  V30 2741 C 275.36 -1.6892 -0.20001 0
M  V30 2742 O 276.545 -1.94113 -0.0579731 0
M  V30 2743 C 273.675 -3.4589 0.312644 0
M  V30 2744 C 272.629 -4.08099 1.28992 0
M  V30 2745 C 271.955 -5.31098 0.619623 0
M  V30 2746 C 273.255 -4.50077 2.65005 0
M  V30 2747 H 274.949 -2.42777 1.75213 0
M  V30 2748 H 272.495 -1.16682 0.843875 0
M  V30 2749 H 274.448 -4.21297 0.0933043 0
M  V30 2750 H 273.172 -3.20419 -0.632382 0
M  V30 2751 H 271.831 -3.34717 1.49533 0
M  V30 2752 H 271.479 -5.0191 -0.33102 0
M  V30 2753 H 271.179 -5.73674 1.27167 0
M  V30 2754 H 272.703 -6.09224 0.409669 0
M  V30 2755 H 274.117 -5.16688 2.48407 0
M  V30 2756 H 272.514 -5.03553 3.26427 0
M  V30 2757 H 273.584 -3.62257 3.22332 0
M  V30 2758 N 274.927 -0.932562 -1.27047 0
M  V30 2759 C 275.857 -0.452902 -2.29066 0
M  V30 2760 C 276.838 0.489338 -1.62909 0
M  V30 2761 O 278.023 0.393046 -1.90181 0
M  V30 2762 C 275.153 0.290698 -3.46081 0
M  V30 2763 C 274.107 -0.564168 -4.24265 0
M  V30 2764 C 273.433 0.308886 -5.33807 0
M  V30 2765 C 274.733 -1.83112 -4.89149 0
M  V30 2766 H 276.427 -1.30552 -2.69437 0
M  V30 2767 H 273.973 -0.629201 -1.29526 0
M  V30 2768 H 275.926 0.637233 -4.16554 0
M  V30 2769 H 274.65 1.17738 -3.0464 0
M  V30 2770 H 273.309 -0.893477 -3.55545 0
M  V30 2771 H 272.957 1.19467 -4.88607 0
M  V30 2772 H 272.657 -0.259633 -5.87026 0
M  V30 2773 H 274.181 0.650884 -6.07121 0
M  V30 2774 H 275.595 -1.55236 -5.51883 0
M  V30 2775 H 273.992 -2.34353 -5.52448 0
M  V30 2776 H 275.062 -2.54772 -4.12576 0
M  V30 2777 N 276.405 1.4127 -0.698611 0
M  V30 2778 C 277.63 2.06024 -0.238512 0
M  V30 2779 C 278.055 1.5224 1.10475 0
M  V30 2780 O 277.413 0.650623 1.69223 0
M  V30 2781 C 277.461 3.59988 -0.209952 0
M  V30 2782 O 276.565 4.04282 0.814235 0
M  V30 2783 H 275.906 0.653829 -0.115775 0
M  V30 2784 H 278.436 1.8098 -0.954326 0
M  V30 2785 H 278.446 4.07979 -0.0418436 0
M  V30 2786 H 277.121 3.98503 -1.1903 0
M  V30 2787 H 275.698 3.6779 0.615234 0
M  V30 2788 N 277.883 0.443576 1.51229 0
M  V30 2789 C 278.813 -0.355142 2.30783 0
M  V30 2790 C 279.794 -1.0154 1.36468 0
M  V30 2791 O 280.979 -1.01785 1.65389 0
M  V30 2792 C 278.109 -1.45312 3.15439 0
M  V30 2793 C 277.063 -0.916002 4.18083 0
M  V30 2794 C 276.389 -2.1102 4.91299 0
M  V30 2795 C 277.689 0.0538602 5.22272 0
M  V30 2796 H 279.383 0.308767 2.97804 0
M  V30 2797 H 276.929 0.149937 1.43217 0
M  V30 2798 H 278.882 -2.01914 3.69876 0
M  V30 2799 H 277.606 -2.14541 2.46252 0
M  V30 2800 H 276.265 -0.372145 3.64706 0
M  V30 2801 H 275.913 -2.78882 4.18609 0
M  V30 2802 H 275.613 -1.75717 5.60712 0
M  V30 2803 H 277.137 -2.68164 5.48562 0
M  V30 2804 H 278.551 -0.422069 5.71744 0
M  V30 2805 H 276.948 0.319776 5.99247 0
M  V30 2806 H 278.018 0.98858 4.74716 0
M  V30 2807 N 279.361 -1.56624 0.175154 0
M  V30 2808 C 280.638 -1.88688 -0.515373 0
M  V30 2809 C 281.018 -1.08564 -1.81044 0
M  V30 2810 O 280.366 -0.180703 -2.27784 0
M  V30 2811 C 280.576 -3.40768 -0.753552 0
M  V30 2812 C 281.924 -4.10587 -1.08184 0
M  V30 2813 O 282.948 -3.46106 -0.841961 0
M  V30 2814 O 281.807 -5.24512 -1.53459 0
M  V30 2815 H 278.901 -0.78301 -0.26613 0
M  V30 2816 H 281.447 -1.68347 0.213877 0
M  V30 2817 H 280.219 -3.90965 0.161829 0
M  V30 2818 H 279.842 -3.66733 -1.53598 0
M  V30 2819 N 280.839 0.0985539 -1.57292 0
M  V30 2820 C 282.116 0.834155 -1.76921 0
M  V30 2821 C 282.496 1.97101 -0.755928 0
M  V30 2822 O 281.844 2.27474 0.216245 0
M  V30 2823 C 282.054 1.33194 -3.22584 0
M  V30 2824 C 283.402 1.77611 -3.85668 0
M  V30 2825 O 284.426 1.42825 -3.26312 0
M  V30 2826 O 283.285 2.4192 -4.90038 0
M  V30 2827 H 280.379 0.397628 -0.725135 0
M  V30 2828 H 282.925 0.0807044 -1.69508 0
M  V30 2829 H 281.697 0.517248 -3.87866 0
M  V30 2830 H 281.32 2.1475 -3.34616 0
M  V30 2831 N 282.317 1.53212 0.369288 0
M  V30 2832 C 283.247 1.82365 1.45826 0
M  V30 2833 C 284.228 0.676907 1.56051 0
M  V30 2834 O 285.413 0.926401 1.70679 0
M  V30 2835 C 282.543 2.01023 2.83208 0
M  V30 2836 C 281.497 3.1678 2.8781 0
M  V30 2837 C 280.823 3.20724 4.27832 0
M  V30 2838 C 282.123 4.55447 2.55667 0
M  V30 2839 H 283.817 2.73559 1.21678 0
M  V30 2840 H 281.363 1.3163 0.583911 0
M  V30 2841 H 283.316 2.20001 3.59413 0
M  V30 2842 H 282.04 1.06536 3.08736 0
M  V30 2843 H 280.699 2.97616 2.14056 0
M  V30 2844 H 280.347 2.23882 4.50429 0
M  V30 2845 H 280.047 3.98496 4.31827 0
M  V30 2846 H 281.571 3.41881 5.05915 0
M  V30 2847 H 282.985 4.74611 3.21586 0
M  V30 2848 H 281.382 5.35432 2.70984 0
M  V30 2849 H 282.452 4.60812 1.5093 0
M  V30 2850 N 283.795 -0.628877 1.44509 0
M  V30 2851 C 284.725 -1.75187 1.54376 0
M  V30 2852 C 285.706 -1.65411 0.396618 0
M  V30 2853 O 286.891 -1.84137 0.617031 0
M  V30 2854 C 284.021 -3.13725 1.48976 0
M  V30 2855 C 282.975 -3.38291 2.62189 0
M  V30 2856 C 282.301 -4.76883 2.41841 0
M  V30 2857 C 283.601 -3.30632 4.04326 0
M  V30 2858 H 285.295 -1.67187 2.48373 0
M  V30 2859 H 282.841 -0.802909 1.19538 0
M  V30 2860 H 284.794 -3.92064 1.54478 0
M  V30 2861 H 283.518 -3.22515 0.514961 0
M  V30 2862 H 282.177 -2.62334 2.56079 0
M  V30 2863 H 281.825 -4.82378 1.42548 0
M  V30 2864 H 281.525 -4.94278 3.17747 0
M  V30 2865 H 283.049 -5.57449 2.49165 0
M  V30 2866 H 284.463 -3.98873 4.11793 0
M  V30 2867 H 282.86 -3.59561 4.80454 0
M  V30 2868 H 283.93 -2.28404 4.27738 0
M  V30 2869 N 285.273 -1.31445 -0.869486 0
M  V30 2870 C 286.236 -1.19094 -1.9583 0
M  V30 2871 C 287.236 -0.117906 -1.60367 0
M  V30 2872 O 288.426 -0.367208 -1.70286 0
M  V30 2873 C 285.558 -0.828165 -3.30688 0
M  V30 2874 H 286.751 -2.15842 -2.08212 0
M  V30 2875 H 284.304 -1.15063 -1.05784 0
M  V30 2876 H 285.039 0.138142 -3.24006 0
M  V30 2877 H 284.824 -1.6038 -3.578 0
M  V30 2878 H 286.314 -0.765658 -4.10521 0
M  V30 2879 N 286.751 1.08385 -1.14413 0
M  V30 2880 C 288.167 1.32844 -0.884563 0
M  V30 2881 C 288.367 1.95841 0.474181 0
M  V30 2882 O 287.423 2.21158 1.21842 0
M  V30 2883 C 288.736 2.22978 -2.01745 0
M  V30 2884 C 290.284 2.36458 -2.05077 0
M  V30 2885 C 290.759 3.29934 -3.1766 0
M  V30 2886 N 292.25 3.37511 -3.17239 0
M  V30 2887 C 292.985 4.09871 -4.0099 0
M  V30 2888 N 292.481 4.84936 -4.94781 0
M  V30 2889 N 294.274 4.05704 -3.89051 0
M  V30 2890 H 286.425 0.658756 -2.01926 0
M  V30 2891 H 288.688 0.352821 -0.879899 0
M  V30 2892 H 288.394 1.83934 -2.99769 0
M  V30 2893 H 288.268 3.23441 -1.94077 0
M  V30 2894 H 290.655 2.7476 -1.0766 0
M  V30 2895 H 290.736 1.35736 -2.16816 0
M  V30 2896 H 290.38 2.92352 -4.15322 0
M  V30 2897 H 290.31 4.30584 -3.03158 0
M  V30 2898 H 292.801 2.83996 -2.49308 0
M  V30 2899 H 293.114 5.37612 -5.55151 0
M  V30 2900 H 291.459 4.83988 -4.98779 0
M  V30 2901 H 294.65 3.46167 -3.15097 0
M  V30 2902 H 294.823 4.61834 -4.54547 0
M  V30 2903 N 288.23 0.939286 1.26551 0
M  V30 2904 C 289.193 0.451987 2.24699 0
M  V30 2905 C 290.193 -0.435869 1.5478 0
M  V30 2906 O 291.383 -0.235314 1.72603 0
M  V30 2907 C 288.515 -0.348801 3.39111 0
M  V30 2908 H 289.708 1.3193 2.69322 0
M  V30 2909 H 287.261 0.721072 1.38673 0
M  V30 2910 H 287.996 -1.23444 2.99887 0
M  V30 2911 H 287.781 0.287945 3.91041 0
M  V30 2912 H 289.271 -0.679726 4.12031 0
M  V30 2913 N 289.708 -1.40897 0.706093 0
M  V30 2914 C 290.985 -1.94868 0.169099 0
M  V30 2915 C 291.365 -1.64485 -1.32318 0
M  V30 2916 O 290.713 -0.95744 -2.07474 0
M  V30 2917 C 290.923 -3.45798 0.471654 0
M  V30 2918 C 292.271 -4.22663 0.405127 0
M  V30 2919 O 293.295 -3.53865 0.407168 0
M  V30 2920 O 292.154 -5.45216 0.374383 0
M  V30 2921 H 289.248 -0.82673 0.0211352 0
M  V30 2922 H 291.794 -1.50558 0.782976 0
M  V30 2923 H 290.566 -3.61235 1.50416 0
M  V30 2924 H 290.189 -3.97225 -0.172666 0
M  V30 2925 N 291.186 -0.45159 -1.50991 0
M  V30 2926 C 292.433 0.110074 -2.02201 0
M  V30 2927 C 292.761 1.4146 -1.33489 0
M  V30 2928 O 292.016 1.90617 -0.443125 0
M  V30 2929 C 292.315 0.361728 -3.55565 0
M  V30 2930 C 291.981 -0.858717 -4.42648 0
M  V30 2931 C 290.643 -1.19338 -4.66167 0
M  V30 2932 C 292.995 -1.67221 -4.93646 0
M  V30 2933 C 290.323 -2.34195 -5.37931 0
M  V30 2934 C 292.675 -2.8119 -5.6667 0
M  V30 2935 C 291.339 -3.15094 -5.88449 0
M  V30 2936 H 290.609 0.040279 -0.739904 0
M  V30 2937 H 293.256 -0.601696 -1.81802 0
M  V30 2938 H 291.561 1.15554 -3.74372 0
M  V30 2939 H 293.258 0.80996 -3.92735 0
M  V30 2940 H 289.848 -0.58796 -4.24548 0
M  V30 2941 H 294.032 -1.42686 -4.75347 0
M  V30 2942 H 289.288 -2.6076 -5.53005 0
M  V30 2943 H 293.462 -3.44585 -6.05173 0
M  V30 2944 H 291.089 -4.04204 -6.43835 0
M  V30 2945 N 292.664 1.56529 -0.183458 0
M  V30 2946 C 293.913 1.96419 0.458511 0
M  V30 2947 C 294.226 1.0727 1.63562 0
M  V30 2948 O 295.432 1.36893 2.34462 0
M  V30 2949 C 293.888 3.49298 0.867122 0
M  V30 2950 C 293.496 4.47092 -0.285057 0
M  V30 2951 C 295.24 3.97983 1.47683 0
M  V30 2952 C 293.147 5.91225 0.143862 0
M  V30 2953 H 292.077 0.733394 0.175071 0
M  V30 2954 H 294.728 1.81448 -0.273624 0
M  V30 2955 H 293.11 3.59731 1.65559 0
M  V30 2956 H 294.284 4.48383 -1.0625 0
M  V30 2957 H 292.599 4.08535 -0.805503 0
M  V30 2958 H 295.196 5.03134 1.80999 0
M  V30 2959 H 295.539 3.41618 2.37914 0
M  V30 2960 H 296.072 3.90617 0.752562 0
M  V30 2961 H 292.811 6.5149 -0.723974 0
M  V30 2962 H 292.331 5.93214 0.886413 0
M  V30 2963 H 294.01 6.44362 0.583628 0
M  V30 2964 N 294.142 -0.090211 1.57342 0
M  V30 2965 C 295.367 -0.810082 1.90925 0
M  V30 2966 C 295.792 -1.71248 0.778187 0
M  V30 2967 O 295.15 -1.79278 -0.269991 0
M  V30 2968 C 295.198 -1.59529 3.23393 0
M  V30 2969 O 294.302 -2.70461 3.11327 0
M  V30 2970 H 293.643 -0.222231 0.625707 0
M  V30 2971 H 296.173 -0.0639716 2.045 0
M  V30 2972 H 296.183 -1.97847 3.5682 0
M  V30 2973 H 294.858 -0.933055 4.05299 0
M  V30 2974 H 293.435 -2.35135 2.89423 0
M  V30 2975 N 295.62 -1.53406 -0.361157 0
M  V30 2976 C 296.866 -1.70054 -1.10496 0
M  V30 2977 C 297.199 -0.453278 -1.88836 0
M  V30 2978 O 296.474 0.5495 -1.86576 0
M  V30 2979 C 296.757 -2.95317 -2.06058 0
M  V30 2980 C 296.61 -4.3021 -1.31298 0
M  V30 2981 C 297.929 -3.16193 -3.06121 0
M  V30 2982 H 295.048 -0.618799 -0.400321 0
M  V30 2983 H 297.69 -1.86052 -0.385318 0
M  V30 2984 H 295.84 -2.81809 -2.67425 0
M  V30 2985 H 297.512 -4.55538 -0.726807 0
M  V30 2986 H 295.755 -4.29421 -0.614853 0
M  V30 2987 H 296.426 -5.14 -2.01265 0
M  V30 2988 H 298.902 -3.28916 -2.5486 0
M  V30 2989 H 297.778 -4.05266 -3.70204 0
M  V30 2990 H 298.039 -2.31676 -3.76535 0
M  V30 2991 N 297.098 0.621204 -1.44841 0
M  V30 2992 C 298.048 1.72663 -1.48901 0
M  V30 2993 C 299.032 1.56964 -0.353702 0
M  V30 2994 O 300.224 1.66532 -0.599669 0
M  V30 2995 C 297.353 3.11381 -1.44557 0
M  V30 2996 C 296.439 3.32514 -2.6324 0
M  V30 2997 N 296.83 3.23969 -3.8843 0
M  V30 2998 C 295.128 3.63343 -2.58647 0
M  V30 2999 C 295.829 3.46062 -4.67564 0
M  V30 3000 N 294.805 3.69407 -3.98797 0
M  V30 3001 H 298.607 1.64529 -2.43531 0
M  V30 3002 H 296.121 0.82401 -1.39942 0
M  V30 3003 H 298.118 3.90667 -1.4555 0
M  V30 3004 H 296.778 3.20674 -0.509731 0
M  V30 3005 H 297.789 3.02669 -4.20252 0
M  V30 3006 H 294.466 3.79556 -1.73906 0
M  V30 3007 H 295.856 3.44963 -5.76585 0
M  V30 3008 N 298.576 1.31904 0.862503 0
M  V30 3009 C 299.506 1.22782 1.98612 0
M  V30 3010 C 300.487 0.113362 1.69722 0
M  V30 3011 O 301.672 0.299218 1.91881 0
M  V30 3012 C 298.802 0.942058 3.34279 0
M  V30 3013 C 297.756 2.0169 3.77499 0
M  V30 3014 C 297.082 1.58369 5.10709 0
M  V30 3015 C 298.382 3.43096 3.93805 0
M  V30 3016 H 300.076 2.16788 2.06502 0
M  V30 3017 H 297.622 1.04366 0.992154 0
M  V30 3018 H 299.575 0.864818 4.1243 0
M  V30 3019 H 298.299 -0.0336603 3.26583 0
M  V30 3020 H 296.958 2.08416 3.01593 0
M  V30 3021 H 296.606 0.595628 4.99461 0
M  V30 3022 H 296.306 2.30279 5.40597 0
M  V30 3023 H 297.83 1.52067 5.91361 0
M  V30 3024 H 299.244 3.39003 4.62331 0
M  V30 3025 H 297.641 4.13288 4.35101 0
M  V30 3026 H 298.711 3.83334 2.96957 0
M  V30 3027 N 300.054 -1.07777 1.14986 0
M  V30 3028 C 301.465 -1.61766 0.932127 0
M  V30 3029 C 301.816 -1.88974 -0.527581 0
M  V30 3030 O 300.941 -1.65198 -1.39781 0
M  V30 3031 C 301.536 -2.93891 1.68563 0
M  V30 3032 C 300.095 -3.44639 1.5133 0
M  V30 3033 C 299.242 -2.18767 1.704 0
M  V30 3034 H 302.193 -0.909201 1.30074 0
M  V30 3035 H 302.214 -3.62623 1.15259 0
M  V30 3036 H 301.726 -2.74057 2.74799 0
M  V30 3037 H 299.827 -3.69564 0.474702 0
M  V30 3038 H 299.94 -4.20966 2.28746 0
M  V30 3039 H 298.304 -2.28253 1.13016 0
M  V30 3040 H 299.087 -2.01433 2.77992 0
M  V30 3041 N 301.532 -0.945985 -1.26051 0
M  V30 3042 C 302.479 -0.45809 -2.26208 0
M  V30 3043 C 303.449 0.484816 -1.58867 0
M  V30 3044 O 304.634 0.399969 -1.86561 0
M  V30 3045 C 301.774 0.266131 -3.44072 0
M  V30 3046 C 300.887 -0.713005 -4.26075 0
M  V30 3047 C 300.022 0.0329013 -5.3119 0
M  V30 3048 C 299.061 -0.93774 -6.04874 0
M  V30 3049 N 298.198 -0.223274 -7.01745 0
M  V30 3050 H 303.038 -1.3171 -2.67313 0
M  V30 3051 H 300.575 -0.66069 -1.31428 0
M  V30 3052 H 302.533 0.702514 -4.11243 0
M  V30 3053 H 301.163 1.08925 -3.03867 0
M  V30 3054 H 300.215 -1.26789 -3.58648 0
M  V30 3055 H 301.527 -1.45406 -4.77136 0
M  V30 3056 H 300.681 0.528335 -6.04395 0
M  V30 3057 H 299.42 0.806801 -4.8098 0
M  V30 3058 H 298.425 -1.44425 -5.30492 0
M  V30 3059 H 299.65 -1.71172 -6.57173 0
M  V30 3060 H 297.596 0.532046 -6.53839 0
M  V30 3061 H 297.513 -0.90357 -7.50581 0
M  V30 3062 H 298.781 0.250907 -7.79096 0
M  V30 3063 N 303.011 1.40521 -0.713556 0
M  V30 3064 C 304.239 2.05237 -0.261775 0
M  V30 3065 C 304.654 1.53755 1.09567 0
M  V30 3066 O 304.011 0.693268 1.6882 0
M  V30 3067 C 304.062 3.60763 -0.230706 0
M  V30 3068 O 303.783 4.10345 -1.53455 0
M  V30 3069 C 305.284 4.42651 0.239874 0
M  V30 3070 H 302.504 0.660533 -0.118057 0
M  V30 3071 H 305.048 1.79967 -0.971192 0
M  V30 3072 H 303.203 3.8501 0.429661 0
M  V30 3073 H 303.617 5.04526 -1.43366 0
M  V30 3074 H 305.091 5.51599 0.210468 0
M  V30 3075 H 305.568 4.20082 1.28171 0
M  V30 3076 H 306.174 4.23507 -0.390142 0
M  V30 3077 N 304.489 0.459591 1.5075 0
M  V30 3078 C 305.9 0.00171547 1.867 0
M  V30 3079 C 306.251 -1.39934 1.37525 0
M  V30 3080 O 305.376 -2.03523 0.735349 0
M  V30 3081 C 305.971 -0.00366298 3.388 0
M  V30 3082 C 304.53 -0.406026 3.74204 0
M  V30 3083 C 303.677 0.38673 2.7459 0
M  V30 3084 H 306.628 0.674413 1.43657 0
M  V30 3085 H 306.649 -0.808371 3.71814 0
M  V30 3086 H 306.161 1.01617 3.74561 0
M  V30 3087 H 304.262 -1.43063 3.4404 0
M  V30 3088 H 304.375 -0.115362 4.78961 0
M  V30 3089 H 302.739 -0.158019 2.54209 0
M  V30 3090 H 303.522 1.40585 3.13194 0
M  V30 3091 N 305.967 -1.56429 0.191757 0
M  V30 3092 C 306.877 -2.22541 -0.742481 0
M  V30 3093 C 307.893 -1.22342 -1.23727 0
M  V30 3094 O 309.069 -1.55069 -1.28513 0
M  V30 3095 C 306.134 -2.8692 -1.94623 0
M  V30 3096 C 305.195 -4.02378 -1.49633 0
M  V30 3097 C 304.428 -4.63678 -2.6427 0
M  V30 3098 O 304.651 -4.23895 -3.81666 0
M  V30 3099 O 303.585 -5.53202 -2.37174 0
M  V30 3100 H 307.411 -3.02977 -0.209462 0
M  V30 3101 H 304.996 -1.49353 -0.0373832 0
M  V30 3102 H 306.878 -3.27663 -2.64982 0
M  V30 3103 H 305.553 -2.09466 -2.46791 0
M  V30 3104 H 304.46 -3.66265 -0.761636 0
M  V30 3105 H 305.793 -4.81487 -1.02134 0
M  V30 3106 N 307.445 0.0818655 -1.57387 0
M  V30 3107 C 308.673 0.796108 -1.9097 0
M  V30 3108 C 309.088 1.71626 -0.786757 0
M  V30 3109 O 308.445 1.80908 0.240513 0
M  V30 3110 C 308.496 1.59829 -3.24248 0
M  V30 3111 O 308.217 0.715131 -4.32224 0
M  V30 3112 C 309.718 2.41442 -3.7178 0
M  V30 3113 H 306.938 0.22691 -0.631469 0
M  V30 3114 H 309.482 0.0551439 -2.04426 0
M  V30 3115 H 307.637 2.29163 -3.12351 0
M  V30 3116 H 308.051 1.27205 -5.08841 0
M  V30 3117 H 309.525 2.932 -4.67694 0
M  V30 3118 H 310.002 3.2051 -3.00283 0
M  V30 3119 H 310.608 1.77283 -3.86589 0
M  V30 3120 N 308.923 1.53595 0.353017 0
M  V30 3121 C 309.886 1.80232 1.41594 0
M  V30 3122 C 310.886 0.673081 1.46035 0
M  V30 3123 O 312.076 0.941335 1.46576 0
M  V30 3124 C 309.208 1.93578 2.80607 0
M  V30 3125 H 310.401 2.75174 1.19244 0
M  V30 3126 H 307.954 1.44864 0.586872 0
M  V30 3127 H 308.689 1.00746 3.08254 0
M  V30 3128 H 308.474 2.75724 2.78781 0
M  V30 3129 H 309.964 2.15735 3.57558 0
M  V30 3130 N 310.401 -0.613514 1.45168 0
M  V30 3131 C 311.649 -1.36997 1.48581 0
M  V30 3132 C 311.97 -1.94589 0.126545 0
M  V30 3133 O 311.24 -1.76816 -0.843372 0
M  V30 3134 H 309.82 -0.508558 0.547154 0
M  V30 3135 H 312.482 -0.720853 1.81079 0
M  V30 3136 H 311.578 -2.1924 2.22127 0
M  V30 3137 N 311.879 -1.3236 -0.855495 0
M  V30 3138 C 312.809 -1.23833 -1.97958 0
M  V30 3139 C 313.79 -0.122361 -1.69659 0
M  V30 3140 O 314.975 -0.30939 -1.9172 0
M  V30 3141 C 312.105 -0.959772 -3.33775 0
M  V30 3142 C 311.059 -2.03689 -3.76424 0
M  V30 3143 C 310.385 -1.61075 -5.09862 0
M  V30 3144 C 311.685 -3.4518 -3.9198 0
M  V30 3145 H 313.379 -2.1788 -2.0535 0
M  V30 3146 H 310.925 -1.04891 -0.986605 0
M  V30 3147 H 312.878 -0.886678 -4.11966 0
M  V30 3148 H 311.602 0.0163404 -3.26596 0
M  V30 3149 H 310.261 -2.10012 -3.00484 0
M  V30 3150 H 309.909 -0.622107 -4.99138 0
M  V30 3151 H 309.609 -2.33143 -5.39368 0
M  V30 3152 H 311.133 -1.55201 -5.90546 0
M  V30 3153 H 312.547 -3.4145 -4.60526 0
M  V30 3154 H 310.944 -4.1559 -4.32903 0
M  V30 3155 H 312.014 -3.84903 -2.94919 0
M  V30 3156 N 313.357 1.07166 -1.15556 0
M  V30 3157 C 314.606 1.79181 -0.926132 0
M  V30 3158 C 314.919 1.87768 0.547967 0
M  V30 3159 O 316.125 2.56323 0.895036 0
M  V30 3160 C 314.581 3.22 -1.60761 0
M  V30 3161 C 314.189 3.21607 -3.11886 0
M  V30 3162 C 315.933 3.9861 -1.4598 0
M  V30 3163 C 313.84 4.59092 -3.72812 0
M  V30 3164 H 312.77 0.67154 -0.342856 0
M  V30 3165 H 315.421 1.2027 -1.3859 0
M  V30 3166 H 313.803 3.81115 -1.07553 0
M  V30 3167 H 314.977 2.72127 -3.71865 0
M  V30 3168 H 313.292 2.58495 -3.2645 0
M  V30 3169 H 315.889 5.00225 -1.88888 0
M  V30 3170 H 316.232 4.143 -0.407541 0
M  V30 3171 H 316.765 3.45996 -1.96295 0
M  V30 3172 H 313.504 4.48606 -4.77946 0
M  V30 3173 H 313.024 5.08803 -3.17616 0
M  V30 3174 H 314.703 5.28059 -3.73848 0
M  V30 3175 N 314.835 0.952656 1.25548 0
M  V30 3176 C 316.112 0.523818 1.88456 0
M  V30 3177 C 316.492 -0.998871 1.85973 0
M  V30 3178 O 315.84 -1.86381 1.3219 0
M  V30 3179 C 316.05 1.0982 3.31271 0
M  V30 3180 C 317.398 1.17385 4.08051 0
M  V30 3181 O 318.422 1.04961 3.40384 0
M  V30 3182 O 317.281 1.36852 5.29088 0
M  V30 3183 H 314.375 0.172485 0.808813 0
M  V30 3184 H 316.921 1.04596 1.33633 0
M  V30 3185 H 315.693 2.1415 3.27499 0
M  V30 3186 H 315.316 0.559191 3.93648 0
M  V30 3187 N 316.313 -1.40141 0.720998 0
M  V30 3188 C 317.26 -2.30688 0.071919 0
M  V30 3189 C 318.23 -1.48476 -0.744584 0
M  V30 3190 O 319.415 -1.77201 -0.707423 0
M  V30 3191 C 316.555 -3.34724 -0.839855 0
M  V30 3192 C 315.668 -4.31998 -0.0122438 0
M  V30 3193 C 314.803 -5.23102 -0.923995 0
M  V30 3194 C 313.842 -6.12033 -0.0907969 0
M  V30 3195 N 312.979 -6.95537 -0.957718 0
M  V30 3196 H 317.819 -2.85628 0.849755 0
M  V30 3197 H 315.356 -1.40653 0.430726 0
M  V30 3198 H 317.314 -3.93618 -1.38279 0
M  V30 3199 H 315.944 -2.81274 -1.58381 0
M  V30 3200 H 314.996 -3.74841 0.64794 0
M  V30 3201 H 316.308 -4.94772 0.632595 0
M  V30 3202 H 315.462 -5.86953 -1.53527 0
M  V30 3203 H 314.201 -4.60615 -1.60264 0
M  V30 3204 H 313.206 -5.47207 0.533377 0
M  V30 3205 H 314.431 -6.76581 0.584428 0
M  V30 3206 H 312.377 -6.35633 -1.62192 0
M  V30 3207 H 312.294 -7.55099 -0.36904 0
M  V30 3208 H 313.562 -7.63832 -1.555 0
M  V30 3209 N 317.792 -0.46758 -1.50504 0
M  V30 3210 C 318.702 0.33382 -2.32213 0
M  V30 3211 C 319.718 0.999323 -1.42441 0
M  V30 3212 O 320.894 0.988068 -1.75497 0
M  V30 3213 C 317.959 1.4035 -3.17022 0
M  V30 3214 C 317.02 0.754961 -4.2261 0
M  V30 3215 C 316.253 1.77367 -5.03365 0
M  V30 3216 O 316.476 2.99976 -4.8515 0
M  V30 3217 O 315.41 1.34744 -5.86624 0
M  V30 3218 H 319.236 -0.334067 -3.01857 0
M  V30 3219 H 316.821 -0.229496 -1.47627 0
M  V30 3220 H 318.703 2.02318 -3.69656 0
M  V30 3221 H 317.378 2.05492 -2.5011 0
M  V30 3222 H 316.285 0.0964244 -3.73976 0
M  V30 3223 H 317.618 0.146545 -4.91982 0
M  V30 3224 N 319.27 1.56325 -0.20005 0
M  V30 3225 C 320.233 2.18084 0.705132 0
M  V30 3226 C 321.233 1.13666 1.1374 0
M  V30 3227 O 322.423 1.39023 1.04968 0
M  V30 3228 C 319.555 2.78689 1.96329 0
M  V30 3229 H 320.748 2.99435 0.167023 0
M  V30 3230 H 318.301 1.56221 0.0495725 0
M  V30 3231 H 319.036 2.0115 2.5438 0
M  V30 3232 H 318.821 3.55133 1.66202 0
M  V30 3233 H 320.311 3.26096 2.60866 0
M  V30 3234 N 320.748 -0.0735177 1.57428 0
M  V30 3235 C 321.678 -1.0879 2.06608 0
M  V30 3236 C 322.659 -1.40473 0.959237 0
M  V30 3237 O 323.844 -1.5013 1.23185 0
M  V30 3238 C 320.974 -2.40183 2.50857 0
M  V30 3239 C 319.928 -2.22858 3.65402 0
M  V30 3240 C 319.254 -3.59619 3.957 0
M  V30 3241 C 320.554 -1.65123 4.95511 0
M  V30 3242 H 322.248 -0.678673 2.91607 0
M  V30 3243 H 319.794 -0.325013 1.40284 0
M  V30 3244 H 321.747 -3.11437 2.83874 0
M  V30 3245 H 320.471 -2.83083 1.62885 0
M  V30 3246 H 319.13 -1.54045 3.32664 0
M  V30 3247 H 318.778 -4.00086 3.04861 0
M  V30 3248 H 318.478 -3.48866 4.72828 0
M  V30 3249 H 320.002 -4.32306 4.31212 0
M  V30 3250 H 321.416 -2.26241 5.26771 0
M  V30 3251 H 319.813 -1.65071 5.7695 0
M  V30 3252 H 320.883 -0.612559 4.81015 0
M  V30 3253 N 322.226 -1.5378 -0.344866 0
M  V30 3254 C 323.189 -1.80981 -1.40637 0
M  V30 3255 C 324.189 -0.680816 -1.45676 0
M  V30 3256 O 325.379 -0.949095 -1.46075 0
M  V30 3257 C 322.511 -1.95063 -2.79577 0
M  V30 3258 H 323.704 -2.75803 -1.17783 0
M  V30 3259 H 321.257 -1.45173 -0.579181 0
M  V30 3260 H 321.992 -1.02379 -3.07716 0
M  V30 3261 H 321.777 -2.77198 -2.77315 0
M  V30 3262 H 323.267 -2.17629 -3.56409 0
M  V30 3263 N 323.704 0.605807 -1.45491 0
M  V30 3264 C 324.651 1.7164 -1.54299 0
M  V30 3265 C 325.621 1.61486 -0.388761 0
M  V30 3266 O 326.806 1.81039 -0.602445 0
M  V30 3267 C 323.946 3.09953 -1.51734 0
M  V30 3268 C 323.059 3.309 -2.77721 0
M  V30 3269 C 322.194 4.59329 -2.66816 0
M  V30 3270 C 321.233 4.7354 -3.87848 0
M  V30 3271 N 320.37 5.9327 -3.75467 0
M  V30 3272 H 325.21 1.63449 -2.49176 0
M  V30 3273 H 322.747 0.796957 -1.23641 0
M  V30 3274 H 324.705 3.89977 -1.48235 0
M  V30 3275 H 323.335 3.17098 -0.604068 0
M  V30 3276 H 322.387 2.44639 -2.913 0
M  V30 3277 H 323.699 3.37274 -3.67488 0
M  V30 3278 H 322.853 5.4755 -2.61292 0
M  V30 3279 H 321.592 4.55355 -1.74651 0
M  V30 3280 H 320.597 3.83741 -3.93729 0
M  V30 3281 H 321.822 4.79309 -4.81082 0
M  V30 3282 H 319.768 5.90338 -2.86072 0
M  V30 3283 H 319.685 6.00811 -4.5887 0
M  V30 3284 H 320.953 6.83984 -3.73879 0
M  V30 3285 N 325.182 1.32811 0.848464 0
M  V30 3286 C 326.41 1.26739 1.63538 0
M  V30 3287 C 326.825 -0.163484 1.88091 0
M  V30 3288 O 326.182 -1.10258 1.45429 0
M  V30 3289 C 326.233 2.03013 2.99112 0
M  V30 3290 O 325.954 3.40518 2.75643 0
M  V30 3291 C 327.455 2.04038 3.93552 0
M  V30 3292 H 324.675 0.437024 0.509167 0
M  V30 3293 H 327.219 1.75033 1.05753 0
M  V30 3294 H 325.374 1.58426 3.53525 0
M  V30 3295 H 325.788 3.79635 3.61908 0
M  V30 3296 H 327.262 2.61877 4.85926 0
M  V30 3297 H 327.739 1.0282 4.26995 0
M  V30 3298 H 328.345 2.486 3.45077 0
M  V30 3299 N 326.66 -1.06551 1.16123 0
M  V30 3300 C 327.607 -2.13961 0.865414 0
M  V30 3301 C 328.577 -1.65066 -0.185055 0
M  V30 3302 O 329.762 -1.90732 -0.05083 0
M  V30 3303 C 326.902 -3.43113 0.369776 0
M  V30 3304 C 326.015 -4.05756 1.48276 0
M  V30 3305 C 325.15 -5.22773 0.942414 0
M  V30 3306 C 324.189 -5.77395 2.03179 0
M  V30 3307 N 323.326 -6.85731 1.50721 0
M  V30 3308 H 328.166 -2.38605 1.78527 0
M  V30 3309 H 325.703 -1.17072 0.890646 0
M  V30 3310 H 327.661 -4.17151 0.0640643 0
M  V30 3311 H 326.291 -3.18695 -0.513143 0
M  V30 3312 H 325.343 -3.29292 1.9045 0
M  V30 3313 H 326.655 -4.42351 2.30493 0
M  V30 3314 H 325.809 -6.03827 0.589729 0
M  V30 3315 H 324.548 -4.87618 0.0895191 0
M  V30 3316 H 323.553 -4.94981 2.3932 0
M  V30 3317 H 324.778 -6.14603 2.8886 0
M  V30 3318 H 322.724 -6.52499 0.676811 0
M  V30 3319 H 322.641 -7.21254 2.26557 0
M  V30 3320 H 323.909 -7.7047 1.18303 0
M  V30 3321 N 328.138 -0.959301 -1.25041 0
M  V30 3322 C 329.549 -0.65667 -1.74771 0
M  V30 3323 C 329.9 0.827852 -1.77879 0
M  V30 3324 O 329.025 1.64783 -1.40269 0
M  V30 3325 C 329.62 -1.1853 -3.1739 0
M  V30 3326 C 328.179 -0.932734 -3.6466 0
M  V30 3327 C 327.326 -1.32558 -2.43564 0
M  V30 3328 H 330.277 -1.13558 -1.10862 0
M  V30 3329 H 330.298 -0.547582 -3.76539 0
M  V30 3330 H 329.81 -2.26576 -3.15095 0
M  V30 3331 H 327.911 0.13257 -3.72364 0
M  V30 3332 H 328.024 -1.57248 -4.52559 0
M  V30 3333 H 326.388 -0.743956 -2.43593 0
M  V30 3334 H 327.171 -2.41537 -2.43957 0
M  V30 3335 N 329.616 1.39756 -0.72842 0
M  V30 3336 C 330.864 2.00248 -0.272946 0
M  V30 3337 C 331.185 1.58077 1.14178 0
M  V30 3338 O 330.455 0.826014 1.77634 0
M  V30 3339 H 329.035 0.740554 -0.0979247 0
M  V30 3340 H 331.697 1.70903 -0.936912 0
M  V30 3341 H 330.793 3.10495 -0.316142 0
M  V30 3342 N 331.094 0.475555 1.50254 0
M  V30 3343 C 332.34 -0.0780073 2.0265 0
M  V30 3344 C 332.673 -1.38968 1.35652 0
M  V30 3345 O 331.948 -1.8839 0.483691 0
M  V30 3346 C 332.231 -0.257161 3.59181 0
M  V30 3347 C 332.084 1.07585 4.36744 0
M  V30 3348 C 333.403 -1.00965 4.28362 0
M  V30 3349 H 330.522 -0.0268758 0.73651 0
M  V30 3350 H 333.164 0.622015 1.7953 0
M  V30 3351 H 331.314 -0.853412 3.79011 0
M  V30 3352 H 332.986 1.70902 4.28474 0
M  V30 3353 H 331.229 1.6714 4.00308 0
M  V30 3354 H 331.9 0.904088 5.44546 0
M  V30 3355 H 334.376 -0.504214 4.13034 0
M  V30 3356 H 333.252 -1.10381 5.37687 0
M  V30 3357 H 333.513 -2.04731 3.91839 0
M  V30 3358 N 332.573 -1.56217 0.208337 0
M  V30 3359 C 333.822 -1.97124 -0.427204 0
M  V30 3360 C 334.135 -1.09859 -1.61835 0
M  V30 3361 O 335.341 -1.40606 -2.32255 0
M  V30 3362 C 333.797 -3.50633 -0.811442 0
M  V30 3363 C 333.405 -4.46582 0.35615 0
M  V30 3364 C 335.149 -4.00282 -1.41332 0
M  V30 3365 C 333.056 -5.91379 -0.0497852 0
M  V30 3366 H 331.986 -0.736086 -0.163381 0
M  V30 3367 H 334.637 -1.8099 0.302456 0
M  V30 3368 H 333.019 -3.62319 -1.59815 0
M  V30 3369 H 334.193 -4.46636 1.1337 0
M  V30 3370 H 332.508 -4.07202 0.870396 0
M  V30 3371 H 335.105 -5.0595 -1.72972 0
M  V30 3372 H 335.448 -3.45359 -2.32449 0
M  V30 3373 H 335.981 -3.91764 -0.690323 0
M  V30 3374 H 332.72 -6.50255 0.827529 0
M  V30 3375 H 332.24 -5.94549 -0.791926 0
M  V30 3376 H 333.919 -6.45209 -0.481042 0
M  V30 3377 N 334.051 0.0651679 -1.57465 0
M  V30 3378 C 335.3 0.761916 -1.86756 0
M  V30 3379 C 335.613 1.78406 -0.801925 0
M  V30 3380 O 336.819 2.53084 -0.982885 0
M  V30 3381 C 335.275 1.40603 -3.31299 0
M  V30 3382 C 334.883 0.422115 -4.46007 0
M  V30 3383 C 336.627 2.08476 -3.69781 0
M  V30 3384 C 334.534 1.07252 -5.81593 0
M  V30 3385 H 333.464 0.288308 -0.696702 0
M  V30 3386 H 336.115 0.015344 -1.83494 0
M  V30 3387 H 334.497 2.20109 -3.29193 0
M  V30 3388 H 335.671 -0.343613 -4.59517 0
M  V30 3389 H 333.986 -0.152527 -4.16121 0
M  V30 3390 H 336.583 2.57925 -4.68379 0
M  V30 3391 H 336.926 2.88712 -2.99919 0
M  V30 3392 H 337.459 1.35792 -3.73905 0
M  V30 3393 H 334.198 0.310342 -6.54765 0
M  V30 3394 H 333.718 1.80895 -5.71872 0
M  V30 3395 H 335.397 1.59043 -6.27148 0
M  V30 3396 N 335.529 1.53961 0.336706 0
M  V30 3397 C 336.775 1.7179 1.07777 0
M  V30 3398 C 337.108 0.483263 1.88091 0
M  V30 3399 O 336.383 -0.519747 1.87427 0
M  V30 3400 C 336.666 2.98558 2.01334 0
M  V30 3401 C 336.519 4.32245 1.24437 0
M  V30 3402 C 337.838 3.21023 3.01052 0
M  V30 3403 H 334.957 0.625089 0.390426 0
M  V30 3404 H 337.599 1.86641 0.35567 0
M  V30 3405 H 335.749 2.86028 2.62908 0
M  V30 3406 H 337.421 4.56637 0.654243 0
M  V30 3407 H 335.664 4.30344 0.546458 0
M  V30 3408 H 336.335 5.17137 1.93063 0
M  V30 3409 H 338.811 3.32929 2.49595 0
M  V30 3410 H 337.687 4.11104 3.6371 0
M  V30 3411 H 337.948 2.37637 3.72802 0
M  V30 3412 N 337.007 -0.598083 1.45811 0
M  V30 3413 C 337.955 -1.72932 1.55555 0
M  V30 3414 C 338.949 -1.63984 0.424921 0
M  V30 3415 O 340.155 -1.69663 0.601205 0
M  V30 3416 H 336.53 -0.571489 0.488779 0
M  V30 3417 H 338.501 -1.61842 2.50699 0
M  V30 3418 C 337.25 -3.11318 1.54843 0
M  V30 3419 H 336.573 -3.18867 2.41172 0
M  V30 3420 H 338.013 -3.90274 1.65717 0
M  V30 3421 C 336.472 -3.3578 0.274427 0
M  V30 3422 O 337.002 -3.9654 -0.641778 0
M  V30 3423 N 335.208 -2.90119 0.167139 0
M  V30 3424 H 334.755 -2.40855 0.913596 0
M  V30 3425 H 334.713 -3.0686 -0.684435 0
M  V30 3426 N 338.485 -1.33259 -0.841409 0
M  V30 3427 C 339.448 -1.23221 -1.9326 0
M  V30 3428 C 340.448 -0.151895 -1.60081 0
M  V30 3429 O 341.638 -0.403246 -1.69468 0
M  V30 3430 C 338.77 -0.898123 -3.28856 0
M  V30 3431 H 339.963 -2.2021 -2.03587 0
M  V30 3432 H 337.516 -1.17281 -1.03319 0
M  V30 3433 H 338.251 0.0693841 -3.24226 0
M  V30 3434 H 338.036 -1.67934 -3.54317 0
M  V30 3435 H 339.526 -0.852563 -4.08805 0
M  V30 3436 N 339.963 1.05934 -1.16686 0
M  V30 3437 C 340.926 2.11669 -0.879144 0
M  V30 3438 C 341.926 1.60294 0.127445 0
M  V30 3439 O 343.116 1.7389 -0.103865 0
M  V30 3440 C 340.248 3.39438 -0.315425 0
M  V30 3441 H 341.441 2.38626 -1.81653 0
M  V30 3442 H 338.994 1.22058 -0.976299 0
M  V30 3443 H 339.729 3.18132 0.629468 0
M  V30 3444 H 339.514 3.78034 -1.04079 0
M  V30 3445 H 341.004 4.17391 -0.132189 0
M  V30 3446 N 341.441 0.965919 1.2453 0
M  V30 3447 C 342.857 0.67216 1.44756 0
M  V30 3448 C 343.057 -0.766609 1.86347 0
M  V30 3449 O 342.113 -1.5407 2.00047 0
M  V30 3450 C 343.426 1.65473 2.51076 0
M  V30 3451 C 344.974 1.66716 2.64905 0
M  V30 3452 C 345.449 2.63766 3.74421 0
M  V30 3453 N 346.94 2.62198 3.81846 0
M  V30 3454 C 347.675 3.33966 4.66106 0
M  V30 3455 N 347.171 4.15245 5.54566 0
M  V30 3456 N 348.964 3.22799 4.60171 0
M  V30 3457 H 341.115 1.89553 0.958293 0
M  V30 3458 H 343.378 0.815979 0.482579 0
M  V30 3459 H 343.084 2.68296 2.27399 0
M  V30 3460 H 342.958 1.4261 3.49202 0
M  V30 3461 H 345.345 0.646057 2.87941 0
M  V30 3462 H 345.426 1.93642 1.67142 0
M  V30 3463 H 345.07 3.6601 3.52135 0
M  V30 3464 H 345 2.34121 4.71694 0
M  V30 3465 H 347.491 2.032 3.18619 0
M  V30 3466 H 347.804 4.66898 6.15814 0
M  V30 3467 H 346.149 4.1934 5.54237 0
M  V30 3468 H 349.34 2.58764 3.90075 0
M  V30 3469 H 349.513 3.78994 5.25612 0
M  V30 3470 N 342.919 -1.39368 0.735821 0
M  V30 3471 C 344.167 -2.00101 0.283562 0
M  V30 3472 C 344.488 -1.5868 -1.13338 0
M  V30 3473 O 343.758 -0.835423 -1.77193 0
M  V30 3474 H 342.338 -0.740024 0.101851 0
M  V30 3475 H 345 -1.70404 0.945962 0
M  V30 3476 H 344.096 -3.10323 0.332604 0
M  V30 3477 N 344.397 -0.483516 -1.5 0
M  V30 3478 C 345.645 0.067027 -2.01989 0
M  V30 3479 C 345.966 1.3909 -1.36671 0
M  V30 3480 O 345.236 1.88978 -0.516152 0
M  V30 3481 H 343.816 0.0277606 -0.746484 0
M  V30 3482 H 346.478 -0.636773 -1.84204 0
M  V30 3483 H 345.574 0.209484 -3.11396 0
M  V30 3484 N 345.875 1.56104 -0.216619 0
M  V30 3485 C 346.805 2.23063 0.690296 0
M  V30 3486 C 347.786 1.20072 1.20485 0
M  V30 3487 O 348.971 1.48643 1.24976 0
M  V30 3488 C 346.101 2.90672 1.90072 0
M  V30 3489 C 345.055 4.00092 1.5202 0
M  V30 3490 C 344.381 4.54972 2.80899 0
M  V30 3491 C 345.681 5.17398 0.71391 0
M  V30 3492 H 347.375 2.99109 0.132038 0
M  V30 3493 H 344.921 1.43866 0.0620664 0
M  V30 3494 H 346.874 3.36204 2.54057 0
M  V30 3495 H 345.598 2.12066 2.48386 0
M  V30 3496 H 344.257 3.55283 0.903839 0
M  V30 3497 H 343.905 3.73102 3.37348 0
M  V30 3498 H 343.605 5.28817 2.56176 0
M  V30 3499 H 345.129 5.0322 3.45836 0
M  V30 3500 H 346.543 5.59342 1.25735 0
M  V30 3501 H 344.94 5.97444 0.563951 0
M  V30 3502 H 346.01 4.84088 -0.280527 0
M  V30 3503 N 347.353 -0.0568162 1.57498 0
M  V30 3504 C 348.599 -0.75422 1.88253 0
M  V30 3505 C 348.932 -1.76461 0.810865 0
M  V30 3506 O 348.207 -1.93691 -0.177259 0
M  V30 3507 C 348.49 -1.44878 3.2967 0
M  V30 3508 C 348.343 -0.453789 4.47505 0
M  V30 3509 C 349.662 -2.38994 3.69554 0
M  V30 3510 H 346.781 -0.272724 0.684683 0
M  V30 3511 H 349.423 -0.0172113 1.89992 0
M  V30 3512 H 347.573 -2.077 3.28318 0
M  V30 3513 H 349.245 0.170371 4.60985 0
M  V30 3514 H 347.488 0.229552 4.33192 0
M  V30 3515 H 348.159 -0.977699 5.43273 0
M  V30 3516 H 350.635 -1.86239 3.72095 0
M  V30 3517 H 349.511 -2.84587 4.69363 0
M  V30 3518 H 349.772 -3.24461 3.00296 0
M  V30 3519 N 348.832 -1.54138 -0.328536 0
M  V30 3520 C 350.109 -1.62749 -1.08499 0
M  V30 3521 C 350.489 -0.458198 -2.06067 0
M  V30 3522 O 349.837 0.548046 -2.2183 0
M  V30 3523 C 350.047 -2.99519 -1.79135 0
M  V30 3524 C 351.395 -3.55394 -2.32337 0
M  V30 3525 O 352.419 -3.01792 -1.89209 0
M  V30 3526 O 351.278 -4.49186 -3.11279 0
M  V30 3527 H 348.372 -0.65886 -0.499832 0
M  V30 3528 H 350.918 -1.66484 -0.328826 0
M  V30 3529 H 349.69 -3.76061 -1.08139 0
M  V30 3530 H 349.313 -2.99441 -2.61574 0
M  V30 3531 N 350.31 0.590341 -1.46126 0
M  V30 3532 C 351.22 1.72793 -1.58681 0
M  V30 3533 C 352.236 1.67516 -0.470566 0
M  V30 3534 O 353.412 1.87562 -0.733642 0
M  V30 3535 C 350.477 3.09287 -1.5666 0
M  V30 3536 C 349.538 3.25886 -2.79458 0
M  V30 3537 C 348.771 4.55869 -2.77524 0
M  V30 3538 O 348.994 5.3928 -1.85832 0
M  V30 3539 O 347.928 4.75552 -3.68964 0
M  V30 3540 H 351.754 1.65149 -2.54872 0
M  V30 3541 H 349.339 0.756486 -1.28832 0
M  V30 3542 H 351.221 3.90577 -1.58202 0
M  V30 3543 H 349.896 3.17385 -0.636271 0
M  V30 3544 H 348.803 2.44119 -2.83472 0
M  V30 3545 H 350.136 3.22675 -3.71674 0
M  V30 3546 N 351.788 1.33704 0.83433 0
M  V30 3547 C 352.751 1.24244 1.92603 0
M  V30 3548 C 353.751 0.160383 1.59998 0
M  V30 3549 O 354.941 0.412228 1.69252 0
M  V30 3550 C 352.073 0.91555 3.28376 0
M  V30 3551 H 353.266 2.21287 2.02416 0
M  V30 3552 H 350.819 1.17827 1.02696 0
M  V30 3553 H 351.554 -0.0521886 3.24258 0
M  V30 3554 H 351.339 1.69811 3.53422 0
M  V30 3555 H 352.829 0.874231 4.08347 0
M  V30 3556 N 353.266 -1.05314 1.17247 0
M  V30 3557 C 354.229 -2.112 0.890357 0
M  V30 3558 C 355.229 -1.60359 -0.118943 0
M  V30 3559 O 356.419 -1.73833 0.113086 0
M  V30 3560 C 353.551 -3.39266 0.333422 0
M  V30 3561 H 354.744 -2.37659 1.82916 0
M  V30 3562 H 352.297 -1.21538 0.982758 0
M  V30 3563 H 353.032 -3.18462 -0.612587 0
M  V30 3564 H 352.817 -3.77477 1.06082 0
M  V30 3565 H 354.307 -4.17315 0.154322 0
M  V30 3566 N 354.744 -0.972509 -1.24016 0
M  V30 3567 C 355.674 -0.525548 -2.27509 0
M  V30 3568 C 356.655 0.437262 -1.64384 0
M  V30 3569 O 357.84 0.332343 -1.91335 0
M  V30 3570 C 354.97 0.180448 -3.46831 0
M  V30 3571 C 353.924 -0.698859 -4.22256 0
M  V30 3572 C 353.25 0.138903 -5.3452 0
M  V30 3573 C 354.55 -1.98582 -4.83076 0
M  V30 3574 H 356.244 -1.39058 -2.65148 0
M  V30 3575 H 353.79 -0.67009 -1.27459 0
M  V30 3576 H 355.743 0.504387 -4.18371 0
M  V30 3577 H 354.467 1.07987 -3.08231 0
M  V30 3578 H 353.126 -1.00614 -3.52523 0
M  V30 3579 H 352.774 1.03862 -4.9216 0
M  V30 3580 H 352.474 -0.446259 -5.85903 0
M  V30 3581 H 353.998 0.457404 -6.08884 0
M  V30 3582 H 355.412 -1.72715 -5.46665 0
M  V30 3583 H 353.809 -2.5181 -5.44713 0
M  V30 3584 H 354.879 -2.67769 -4.04262 0
M  V30 3585 N 356.222 1.38976 -0.743202 0
M  V30 3586 C 357.185 2.28901 -0.117014 0
M  V30 3587 C 358.185 1.46698 0.658503 0
M  V30 3588 O 359.375 1.67274 0.486305 0
M  V30 3589 C 356.507 3.30309 0.84315 0
M  V30 3590 H 357.7 2.8578 -0.909373 0
M  V30 3591 H 355.253 1.47761 -0.509547 0
M  V30 3592 H 355.988 2.785 1.66157 0
M  V30 3593 H 355.773 3.91029 0.289594 0
M  V30 3594 H 357.263 3.97577 1.2776 0
M  V30 3595 N 357.7 0.491464 1.49741 0
M  V30 3596 C 358.977 -0.118984 1.95238 0
M  V30 3597 C 359.357 -1.55044 1.43264 0
M  V30 3598 O 358.705 -2.19287 0.642287 0
M  V30 3599 C 358.915 -0.0414187 3.48975 0
M  V30 3600 C 360.263 -0.220133 4.24029 0
M  V30 3601 O 361.287 -0.117055 3.56008 0
M  V30 3602 O 360.146 -0.430567 5.44801 0
M  V30 3603 H 357.24 -0.100536 0.820866 0
M  V30 3604 H 359.786 0.553322 1.60426 0
M  V30 3605 H 358.558 0.957214 3.79412 0
M  V30 3606 H 358.181 -0.754292 3.9038 0
M  V30 3607 N 359.178 -1.55987 0.224894 0
M  V30 3608 C 360.141 -2.19178 -0.670348 0
M  V30 3609 C 361.141 -1.15461 -1.11917 0
M  V30 3610 O 362.331 -1.40675 -1.02743 0
M  V30 3611 C 359.463 -2.81777 -1.9187 0
M  V30 3612 H 360.656 -2.99662 -0.119364 0
M  V30 3613 H 358.209 -1.5628 -0.0247128 0
M  V30 3614 H 358.944 -2.05172 -2.51147 0
M  V30 3615 H 358.729 -3.57732 -1.60531 0
M  V30 3616 H 360.219 -3.30205 -2.55645 0
M  V30 3617 N 360.656 0.0484629 -1.57525 0
M  V30 3618 C 361.905 0.742065 -1.87553 0
M  V30 3619 C 362.218 1.77545 -0.820802 0
M  V30 3620 O 363.424 2.52027 -1.00967 0
M  V30 3621 C 361.88 1.37081 -3.32771 0
M  V30 3622 C 361.488 0.374786 -4.4643 0
M  V30 3623 C 363.232 2.04542 -3.71972 0
M  V30 3624 C 361.139 1.01077 -5.82698 0
M  V30 3625 H 360.069 0.280903 -0.699721 0
M  V30 3626 H 362.72 -0.00411877 -1.835 0
M  V30 3627 H 361.102 2.16605 -3.31509 0
M  V30 3628 H 362.276 -0.392331 -4.59127 0
M  V30 3629 H 360.591 -0.196653 -4.15935 0
M  V30 3630 H 363.188 2.52943 -4.71088 0
M  V30 3631 H 363.531 2.85515 -3.02964 0
M  V30 3632 H 364.064 1.31819 -3.75325 0
M  V30 3633 H 360.803 0.240878 -6.55057 0
M  V30 3634 H 360.323 1.74819 -5.73758 0
M  V30 3635 H 362.002 1.52383 -6.28799 0
M  V30 3636 N 362.134 1.5431 0.320358 0
M  V30 3637 C 363.362 1.76636 1.07738 0
M  V30 3638 C 363.777 0.51649 1.81598 0
M  V30 3639 O 363.134 -0.512942 1.75143 0
M  V30 3640 C 363.185 2.96158 2.07299 0
M  V30 3641 O 362.906 4.16313 1.36438 0
M  V30 3642 C 364.407 3.3072 2.95193 0
M  V30 3643 H 361.627 0.589597 0.320339 0
M  V30 3644 H 364.171 2.01207 0.36551 0
M  V30 3645 H 362.326 2.73851 2.74016 0
M  V30 3646 H 362.74 4.83565 2.03138 0
M  V30 3647 H 364.214 4.17643 3.60941 0
M  V30 3648 H 364.691 2.48026 3.62463 0
M  V30 3649 H 365.297 3.55117 2.34034 0
M  V30 3650 N 363.613 -0.582584 1.46437 0
M  V30 3651 C 364.861 -1.33814 1.51453 0
M  V30 3652 C 365.182 -1.94277 0.167792 0
M  V30 3653 O 364.452 -1.78566 -0.805677 0
M  V30 3654 H 363.032 -0.496838 0.557818 0
M  V30 3655 H 365.694 -0.682281 1.82568 0
M  V30 3656 H 364.79 -2.14479 2.26728 0
M  V30 3657 N 365.091 -1.34144 -0.827227 0
M  V30 3658 C 366.339 -1.26009 -1.58007 0
M  V30 3659 C 366.66 0.170971 -1.94249 0
M  V30 3660 O 365.93 1.10256 -1.61927 0
M  V30 3661 H 364.51 -0.463414 -0.585881 0
M  V30 3662 H 367.172 -1.68005 -0.987951 0
M  V30 3663 H 366.268 -1.86187 -2.50481 0
M  V30 3664 N 366.569 1.04691 -1.17803 0
M  V30 3665 C 367.519 2.10856 -0.867391 0
M  V30 3666 C 368.503 1.601 0.160206 0
M  V30 3667 O 369.695 1.76948 -0.042947 0
M  V30 3668 C 366.824 3.411 -0.388012 0
M  V30 3669 C 365.91 3.9864 -1.44732 0
M  V30 3670 N 366.301 4.30075 -2.66212 0
M  V30 3671 C 364.599 4.26439 -1.30637 0
M  V30 3672 C 365.3 4.76033 -3.34317 0
M  V30 3673 N 364.276 4.76462 -2.61696 0
M  V30 3674 H 368.078 2.33029 -1.79094 0
M  V30 3675 H 365.592 1.22386 -1.0675 0
M  V30 3676 H 367.589 4.16641 -0.146994 0
M  V30 3677 H 366.249 3.20357 0.529271 0
M  V30 3678 H 367.26 4.19917 -3.03134 0
M  V30 3679 H 363.937 4.15056 -0.451129 0
M  V30 3680 H 365.327 5.09427 -4.38103 0
M  V30 3681 N 368.047 0.979072 1.23499 0
M  V30 3682 C 369.293 0.648178 1.92163 0
M  V30 3683 C 369.626 -0.816049 1.76222 0
M  V30 3684 O 368.901 -1.58849 1.12237 0
M  V30 3685 C 369.184 1.03773 3.44824 0
M  V30 3686 C 369.037 2.55948 3.69879 0
M  V30 3687 C 370.356 0.580653 4.36253 0
M  V30 3688 H 367.475 0.236952 0.69787 0
M  V30 3689 H 370.117 1.22012 1.45647 0
M  V30 3690 H 368.267 0.551058 3.84572 0
M  V30 3691 H 369.939 3.12179 3.3962 0
M  V30 3692 H 368.182 2.98641 3.14636 0
M  V30 3693 H 368.853 2.78255 4.76737 0
M  V30 3694 H 371.329 0.998465 4.03943 0
M  V30 3695 H 370.205 0.881663 5.41773 0
M  V30 3696 H 370.466 -0.519052 4.39042 0
M  V30 3697 N 369.525 -1.3858 0.750561 0
M  V30 3698 C 370.941 -1.53759 0.427824 0
M  V30 3699 C 371.141 -1.71401 -1.05943 0
M  V30 3700 O 370.197 -1.72331 -1.84549 0
M  V30 3701 C 371.51 -2.74642 1.22443 0
M  V30 3702 C 373.058 -2.88489 1.2142 0
M  V30 3703 C 373.533 -4.12329 1.9937 0
M  V30 3704 N 375.024 -4.194 1.96616 0
M  V30 3705 C 375.759 -5.14209 2.53727 0
M  V30 3706 N 375.255 -6.14709 3.19539 0
M  V30 3707 N 377.048 -5.06537 2.43673 0
M  V30 3708 H 369.199 -1.25377 1.71447 0
M  V30 3709 H 371.462 -0.608844 0.726645 0
M  V30 3710 H 371.168 -2.68 2.27747 0
M  V30 3711 H 371.042 -3.67745 0.839273 0
M  V30 3712 H 373.429 -2.94614 0.169232 0
M  V30 3713 H 373.51 -1.96406 1.63885 0
M  V30 3714 H 373.154 -4.06966 3.03877 0
M  V30 3715 H 373.084 -5.03486 1.54302 0
M  V30 3716 H 375.575 -3.47421 1.48684 0
M  V30 3717 H 375.888 -6.8354 3.60545 0
M  V30 3718 H 374.233 -6.1505 3.23633 0
M  V30 3719 H 377.424 -4.26962 1.91889 0
M  V30 3720 H 377.597 -5.80245 2.88479 0
M  V30 3721 N 371.003 -0.499398 -1.49478 0
M  V30 3722 C 371.966 0.268838 -2.27618 0
M  V30 3723 C 372.966 0.895383 -1.33565 0
M  V30 3724 O 374.156 0.760164 -1.56739 0
M  V30 3725 C 371.288 1.38559 -3.11471 0
M  V30 3726 H 372.481 -0.416812 -2.96989 0
M  V30 3727 H 370.034 -0.254313 -1.54217 0
M  V30 3728 H 370.769 2.10544 -2.46661 0
M  V30 3729 H 370.554 0.941797 -3.80621 0
M  V30 3730 H 372.044 1.92678 -3.70493 0
M  V30 3731 N 372.481 1.55866 -0.233164 0
M  V30 3732 C 373.444 2.1953 0.658715 0
M  V30 3733 C 374.444 1.16053 1.11303 0
M  V30 3734 O 375.634 1.41218 1.01996 0
M  V30 3735 C 372.766 2.82791 1.90373 0
M  V30 3736 H 373.959 2.99721 0.10347 0
M  V30 3737 H 371.512 1.56291 0.0164245 0
M  V30 3738 H 372.247 2.06501 2.50056 0
M  V30 3739 H 372.032 3.58578 1.58632 0
M  V30 3740 H 373.522 3.31556 2.53891 0
M  V30 3741 N 373.959 -0.0401083 1.57549 0
M  V30 3742 C 375.207 -0.731677 1.8839 0
M  V30 3743 C 375.528 -1.76481 0.829425 0
M  V30 3744 O 374.798 -1.95411 -0.1383 0
M  V30 3745 H 373.378 -0.273225 0.695239 0
M  V30 3746 H 376.04 -0.00867725 1.94898 0
M  V30 3747 H 375.136 -1.22816 2.86919 0
M  V30 3748 N 375.437 -1.54477 -0.31217 0
M  V30 3749 C 376.367 -1.87652 -1.38957 0
M  V30 3750 C 377.348 -0.734358 -1.53431 0
M  V30 3751 O 378.533 -0.98911 -1.67123 0
M  V30 3752 C 375.663 -2.11396 -2.75552 0
M  V30 3753 C 374.617 -3.27243 -2.75855 0
M  V30 3754 C 373.943 -3.36382 -4.15633 0
M  V30 3755 C 375.243 -4.64622 -2.38587 0
M  V30 3756 H 376.937 -2.77887 -1.11442 0
M  V30 3757 H 374.483 -1.33707 -0.534655 0
M  V30 3758 H 376.436 -2.33189 -3.51 0
M  V30 3759 H 375.16 -1.17921 -3.04569 0
M  V30 3760 H 373.819 -3.05356 -2.02863 0
M  V30 3761 H 373.467 -2.40445 -4.41809 0
M  V30 3762 H 373.167 -4.14249 -4.1674 0
M  V30 3763 H 374.691 -3.60422 -4.92877 0
M  V30 3764 H 376.105 -4.86219 -3.03749 0
M  V30 3765 H 374.502 -5.45121 -2.50925 0
M  V30 3766 H 375.572 -4.66097 -1.33723 0
M  V30 3767 N 376.915 0.57481 -1.46744 0
M  V30 3768 C 378.192 1.3352 -1.4294 0
M  V30 3769 C 378.572 2.10775 -0.117009 0
M  V30 3770 O 377.92 2.09966 0.901474 0
M  V30 3771 C 378.13 2.25456 -2.66403 0
M  V30 3772 C 379.478 2.87035 -3.12883 0
M  V30 3773 O 380.502 2.35766 -2.67007 0
M  V30 3774 O 379.361 3.80179 -3.92589 0
M  V30 3775 H 376.455 0.600318 -0.568812 0
M  V30 3776 H 379.001 0.595171 -1.58921 0
M  V30 3777 H 377.773 1.67851 -3.53471 0
M  V30 3778 H 377.396 3.06785 -2.52921 0
M  V30 3779 N 378.394 1.34581 0.820102 0
M  V30 3780 C 379.64 1.27285 1.57881 0
M  V30 3781 C 379.973 -0.156137 1.93571 0
M  V30 3782 O 379.248 -1.10222 1.60254 0
M  V30 3783 C 379.531 2.16639 2.87645 0
M  V30 3784 C 379.384 3.68088 2.58517 0
M  V30 3785 C 380.703 2.05378 3.8924 0
M  V30 3786 H 377.822 0.463714 0.572833 0
M  V30 3787 H 380.464 1.64859 0.944539 0
M  V30 3788 H 378.614 1.84725 3.41773 0
M  V30 3789 H 380.286 4.10382 2.10676 0
M  V30 3790 H 378.529 3.89038 1.91917 0
M  V30 3791 H 379.2 4.2598 3.51063 0
M  V30 3792 H 381.676 2.33404 3.44473 0
M  V30 3793 H 380.552 2.7012 4.77835 0
M  V30 3794 H 380.813 1.0316 4.29896 0
M  V30 3795 N 379.872 -1.04064 1.18357 0
M  V30 3796 C 381.119 -1.77265 0.978947 0
M  V30 3797 C 381.447 -1.88189 -0.491428 0
M  V30 3798 O 380.702 -1.38653 -1.38108 0
M  V30 3799 C 381.001 -3.20634 1.57888 0
M  V30 3800 C 380.667 -3.29743 3.07539 0
M  V30 3801 C 379.329 -3.31937 3.48384 0
M  V30 3802 C 381.681 -3.29841 4.03552 0
M  V30 3803 C 379.009 -3.3187 4.83818 0
M  V30 3804 C 381.361 -3.31313 5.38901 0
M  V30 3805 C 380.025 -3.31799 5.79194 0
M  V30 3806 H 379.295 -0.648659 0.358222 0
M  V30 3807 H 381.942 -1.22225 1.47422 0
M  V30 3808 H 380.247 -3.78675 1.00561 0
M  V30 3809 H 381.944 -3.75917 1.39598 0
M  V30 3810 H 378.534 -3.28757 2.74986 0
M  V30 3811 H 382.718 -3.27337 3.73047 0
M  V30 3812 H 377.974 -3.30562 5.14333 0
M  V30 3813 H 382.148 -3.30338 6.13066 0
M  V30 3814 H 379.775 -3.315 6.84114 0
M  V30 3815 N 381.35 -0.985608 -1.22978 0
M  V30 3816 C 382.313 -0.535071 -2.22867 0
M  V30 3817 C 383.313 0.378123 -1.56291 0
M  V30 3818 O 384.503 0.171092 -1.73358 0
M  V30 3819 C 381.635 0.222702 -3.40172 0
M  V30 3820 H 382.828 -1.41835 -2.6424 0
M  V30 3821 H 380.381 -0.772042 -1.35901 0
M  V30 3822 H 381.116 1.12229 -3.04262 0
M  V30 3823 H 380.901 -0.43288 -3.89703 0
M  V30 3824 H 382.391 0.526335 -4.1427 0
M  V30 3825 N 382.828 1.3818 -0.7579 0
M  V30 3826 C 384.056 2.04301 -0.326937 0
M  V30 3827 C 384.471 1.57163 1.0462 0
M  V30 3828 O 383.828 0.746626 1.66529 0
M  V30 3829 C 383.879 3.59846 -0.345363 0
M  V30 3830 O 383.6 4.05256 -1.66432 0
M  V30 3831 C 385.101 4.4319 0.098927 0
M  V30 3832 H 382.321 0.656443 -0.139012 0
M  V30 3833 H 384.865 1.76786 -1.02796 0
M  V30 3834 H 383.02 3.86182 0.306955 0
M  V30 3835 H 383.434 4.99709 -1.59345 0
M  V30 3836 H 384.908 5.51989 0.0348745 0
M  V30 3837 H 385.385 4.23947 1.14741 0
M  V30 3838 H 385.991 4.22051 -0.52468 0
M  V30 3839 N 384.306 0.507319 1.49211 0
M  V30 3840 C 385.216 -0.272136 2.33016 0
M  V30 3841 C 386.232 -0.961206 1.45041 0
M  V30 3842 O 387.408 -0.941191 1.78055 0
M  V30 3843 C 384.473 -1.31895 3.20631 0
M  V30 3844 C 383.534 -0.642648 4.24463 0
M  V30 3845 C 382.767 -1.63959 5.07891 0
M  V30 3846 O 382.99 -2.87007 4.92933 0
M  V30 3847 O 381.924 -1.19143 5.8999 0
M  V30 3848 H 385.75 0.413982 3.00865 0
M  V30 3849 H 383.335 0.268556 1.46966 0
M  V30 3850 H 385.217 -1.92446 3.7489 0
M  V30 3851 H 383.892 -1.98788 2.5547 0
M  V30 3852 H 382.799 0.00276252 3.741 0
M  V30 3853 H 384.132 -0.0160534 4.92197 0
M  V30 3854 N 385.784 -1.5574 0.241426 0
M  V30 3855 C 387.195 -1.84842 -0.262755 0
M  V30 3856 C 387.546 -1.16317 -1.58003 0
M  V30 3857 O 386.671 -0.439653 -2.11887 0
M  V30 3858 C 387.266 -3.35332 -0.483523 0
M  V30 3859 C 385.825 -3.6468 -0.931977 0
M  V30 3860 C 384.972 -2.77299 -0.0061151 0
M  V30 3861 H 387.923 -1.51761 0.464129 0
M  V30 3862 H 387.944 -3.56615 -1.32688 0
M  V30 3863 H 387.456 -3.85178 0.47537 0
M  V30 3864 H 385.557 -3.20307 -1.90353 0
M  V30 3865 H 385.67 -4.72498 -0.792628 0
M  V30 3866 H 384.034 -2.49408 -0.516503 0
M  V30 3867 H 384.817 -3.2995 0.948052 0
M  V30 3868 N 387.262 0.0317525 -1.57568 0
M  V30 3869 C 388.502 0.727979 -1.90997 0
M  V30 3870 C 388.866 1.72664 -0.839708 0
M  V30 3871 O 390.067 2.47092 -1.05825 0
M  V30 3872 C 388.338 1.38239 -3.29583 0
M  V30 3873 S 389.897 2.10814 -3.84841 0
M  V30 3874 H 386.715 0.241226 -0.668828 0
M  V30 3875 H 389.317 -0.0173037 -1.95492 0
M  V30 3876 H 388.021 0.642288 -4.05343 0
M  V30 3877 H 387.552 2.16628 -3.28384 0
M  V30 3878 H 389.567 3.3792 -3.63352 0
M  V30 3879 N 388.74 1.54641 0.303973 0
M  V30 3880 C 389.968 1.77768 1.05858 0
M  V30 3881 C 390.383 0.535722 1.8104 0
M  V30 3882 O 389.74 -0.494337 1.75677 0
M  V30 3883 C 389.791 2.9834 2.04146 0
M  V30 3884 O 389.512 4.17736 1.32015 0
M  V30 3885 C 391.013 3.33832 2.91669 0
M  V30 3886 H 388.233 0.592961 0.314067 0
M  V30 3887 H 390.777 2.01583 0.344149 0
M  V30 3888 H 388.932 2.76742 2.71096 0
M  V30 3889 H 389.346 4.85693 1.97998 0
M  V30 3890 H 390.82 4.21448 3.56491 0
M  V30 3891 H 391.297 2.51857 3.59812 0
M  V30 3892 H 391.903 3.57579 2.30254 0
M  V30 3893 N 390.218 -0.567019 1.47046 0
M  V30 3894 C 391.495 -1.3276 1.43646 0
M  V30 3895 C 391.875 -2.1071 0.128186 0
M  V30 3896 O 391.223 -2.10441 -0.890326 0
M  V30 3897 C 391.433 -2.2404 2.67595 0
M  V30 3898 C 392.781 -2.85372 3.14401 0
M  V30 3899 O 393.805 -2.34346 2.68254 0
M  V30 3900 O 392.664 -3.78091 3.946 0
M  V30 3901 H 389.758 -0.597293 0.571988 0
M  V30 3902 H 392.304 -0.586735 1.59234 0
M  V30 3903 H 391.076 -1.65975 3.54356 0
M  V30 3904 H 390.699 -3.05439 2.54544 0
M  V30 3905 N 391.696 -1.35014 -0.812953 0
M  V30 3906 C 392.921 -1.31187 -1.60639 0
M  V30 3907 C 393.346 0.109382 -1.87782 0
M  V30 3908 O 392.704 1.07424 -1.46047 0
M  V30 3909 C 392.752 -2.11809 -2.91838 0
M  V30 3910 O 391.856 -1.49444 -3.8437 0
M  V30 3911 H 391.197 -0.450084 -0.488181 0
M  V30 3912 H 393.727 -1.77963 -1.00947 0
M  V30 3913 H 393.737 -2.23531 -3.41318 0
M  V30 3914 H 392.412 -3.15137 -2.71407 0
M  V30 3915 H 390.989 -1.46524 -3.42907 0
M  V30 3916 N 393.175 1.03435 -1.18907 0
M  V30 3917 C 394.586 1.58195 -0.991523 0
M  V30 3918 C 394.937 1.90801 0.457081 0
M  V30 3919 O 394.062 1.70272 1.33553 0
M  V30 3920 C 394.657 2.87432 -1.79355 0
M  V30 3921 C 393.216 3.38785 -1.64017 0
M  V30 3922 C 392.363 2.12292 -1.78402 0
M  V30 3923 H 395.314 0.860299 -1.33359 0
M  V30 3924 H 395.335 3.58096 -1.28638 0
M  V30 3925 H 394.847 2.63669 -2.84781 0
M  V30 3926 H 392.948 3.67547 -0.611536 0
M  V30 3927 H 393.061 4.12186 -2.44212 0
M  V30 3928 H 391.425 2.23901 -1.2141 0
M  V30 3929 H 392.208 1.90977 -2.85277 0
M  V30 3930 N 394.653 0.992116 1.22453 0
M  V30 3931 C 395.583 0.561677 2.26644 0
M  V30 3932 C 396.564 -0.411055 1.65059 0
M  V30 3933 O 397.749 -0.301861 1.9184 0
M  V30 3934 C 394.879 -0.125247 3.47074 0
M  V30 3935 C 393.833 0.765948 4.21091 0
M  V30 3936 C 393.159 -0.0538484 5.34673 0
M  V30 3937 C 394.459 2.06242 4.79856 0
M  V30 3938 H 396.153 1.43259 2.62902 0
M  V30 3939 H 393.699 0.690283 1.26377 0
M  V30 3940 H 395.652 -0.437764 4.1912 0
M  V30 3941 H 394.376 -1.03069 3.0991 0
M  V30 3942 H 393.035 1.0621 3.50878 0
M  V30 3943 H 392.683 -0.960188 4.9375 0
M  V30 3944 H 392.383 0.539415 5.85119 0
M  V30 3945 H 393.907 -0.360477 6.09535 0
M  V30 3946 H 395.321 1.8139 5.43848 0
M  V30 3947 H 393.718 2.60444 5.40638 0
M  V30 3948 H 394.788 2.74167 3.99951 0
M  V30 3949 N 396.131 -1.37776 0.765217 0
M  V30 3950 C 397.378 -1.99849 0.326588 0
M  V30 3951 C 397.706 -1.60746 -1.09504 0
M  V30 3952 O 396.961 -0.84202 -1.76659 0
M  V30 3953 C 397.26 -3.5504 0.410053 0
M  V30 3954 C 396.926 -4.13891 1.78899 0
M  V30 3955 C 395.588 -4.29678 2.16635 0
M  V30 3956 C 397.94 -4.46236 2.69301 0
M  V30 3957 C 395.268 -4.7511 3.44221 0
M  V30 3958 C 397.62 -4.93089 3.9629 0
M  V30 3959 C 396.284 -5.07082 4.34078 0
M  V30 3960 H 395.554 -0.7313 0.119507 0
M  V30 3961 H 398.201 -1.64645 0.977968 0
M  V30 3962 H 396.506 -3.90451 -0.324878 0
M  V30 3963 H 398.203 -4.00966 0.0520699 0
M  V30 3964 H 394.793 -4.02026 1.48569 0
M  V30 3965 H 398.977 -4.3363 2.41409 0
M  V30 3966 H 394.233 -4.84129 3.73402 0
M  V30 3967 H 398.407 -5.17084 4.66472 0
M  V30 3968 H 396.034 -5.42046 5.33001 0
M  V30 3969 N 397.609 -0.515225 -1.4894 0
M  V30 3970 C 398.519 0.259774 -2.33157 0
M  V30 3971 C 399.535 0.953501 -1.45548 0
M  V30 3972 O 400.711 0.931735 -1.78552 0
M  V30 3973 C 397.776 1.30193 -3.21326 0
M  V30 3974 C 396.837 0.620129 -4.24797 0
M  V30 3975 C 396.07 1.61263 -5.08753 0
M  V30 3976 O 396.293 2.84389 -4.94448 0
M  V30 3977 O 395.227 1.16013 -5.90614 0
M  V30 3978 H 399.053 -0.429932 -3.00641 0
M  V30 3979 H 396.638 -0.276346 -1.46822 0
M  V30 3980 H 398.52 1.90455 -3.75905 0
M  V30 3981 H 397.195 1.97431 -2.56521 0
M  V30 3982 H 396.102 -0.0226019 -3.74093 0
M  V30 3983 H 397.435 -0.0100493 -4.92199 0
M  V30 3984 N 399.087 1.5561 -0.249682 0
M  V30 3985 C 400.017 2.24477 0.642826 0
M  V30 3986 C 400.998 1.22601 1.17911 0
M  V30 3987 O 402.183 1.5126 1.21795 0
M  V30 3988 C 399.313 2.94638 1.83863 0
M  V30 3989 C 398.267 4.03227 1.435 0
M  V30 3990 C 397.593 4.60828 2.71186 0
M  V30 3991 C 398.893 5.18796 0.604002 0
M  V30 3992 H 400.587 2.99321 0.0685625 0
M  V30 3993 H 398.133 1.43965 0.0315363 0
M  V30 3994 H 400.086 3.41517 2.46868 0
M  V30 3995 H 398.81 2.17287 2.43832 0
M  V30 3996 H 397.469 3.57121 0.828275 0
M  V30 3997 H 397.117 3.80174 3.29358 0
M  V30 3998 H 396.817 5.34132 2.44901 0
M  V30 3999 H 398.341 5.10442 3.35084 0
M  V30 4000 H 399.755 5.61883 1.13842 0
M  V30 4001 H 398.152 5.98506 0.437097 0
M  V30 4002 H 399.222 4.83384 -0.383147 0
M  V30 4003 N 400.565 -0.0233959 1.57583 0
M  V30 4004 C 401.528 -1.00693 2.05897 0
M  V30 4005 C 402.528 -1.28693 0.964092 0
M  V30 4006 O 403.718 -1.23602 1.22753 0
M  V30 4007 C 400.85 -2.33825 2.4807 0
M  V30 4008 H 402.043 -0.589476 2.9405 0
M  V30 4009 H 399.596 -0.270354 1.53944 0
M  V30 4010 H 400.331 -2.80307 1.6309 0
M  V30 4011 H 400.116 -2.1483 3.2801 0
M  V30 4012 H 401.606 -3.04426 2.85857 0
M  V30 4013 N 402.043 -1.548 -0.295768 0
M  V30 4014 C 402.975 -1.82492 -1.3867 0
M  V30 4015 C 403.988 -0.708134 -1.46592 0
M  V30 4016 O 405.177 -0.985686 -1.48817 0
M  V30 4017 C 402.277 -1.95256 -2.76999 0
M  V30 4018 C 401.45 -3.25709 -2.91946 0
M  V30 4019 C 400.509 -3.28824 -4.10806 0
M  V30 4020 O 399.535 -4.02328 -4.02643 0
M  V30 4021 N 400.737 -2.5459 -5.21694 0
M  V30 4022 H 403.502 -2.76646 -1.15269 0
M  V30 4023 H 401.063 -1.54438 -0.485849 0
M  V30 4024 H 403.055 -1.94736 -3.54768 0
M  V30 4025 H 401.625 -1.08072 -2.93324 0
M  V30 4026 H 400.845 -3.38959 -2.01247 0
M  V30 4027 H 402.133 -4.11786 -2.98847 0
M  V30 4028 H 401.531 -1.94512 -5.31208 0
M  V30 4029 H 400.088 -2.59818 -5.97778 0
M  V30 4030 N 403.521 0.559213 -1.47345 0
M  V30 4031 C 404.767 1.31843 -1.54095 0
M  V30 4032 C 405.1 1.93149 -0.201726 0
M  V30 4033 O 404.375 1.77759 0.789428 0
M  V30 4034 C 404.658 2.43006 -2.65744 0
M  V30 4035 C 404.511 1.86581 -4.09277 0
M  V30 4036 C 405.83 3.44943 -2.73318 0
M  V30 4037 H 402.949 0.478012 -0.560957 0
M  V30 4038 H 405.591 0.625977 -1.79392 0
M  V30 4039 H 403.741 3.02072 -2.44305 0
M  V30 4040 H 405.413 1.31792 -4.42073 0
M  V30 4041 H 403.656 1.17268 -4.17649 0
M  V30 4042 H 404.327 2.66933 -4.83168 0
M  V30 4043 H 406.803 2.95793 -2.92653 0
M  V30 4044 H 405.679 4.20153 -3.53218 0
M  V30 4045 H 405.94 4.03665 -1.80296 0
M  V30 4046 N 404.999 1.35443 0.805782 0
M  V30 4047 C 406.245 1.28952 1.56522 0
M  V30 4048 C 406.578 -0.135597 1.93726 0
M  V30 4049 O 405.853 -1.08516 1.61414 0
M  V30 4050 C 406.136 2.19678 2.85331 0
M  V30 4051 C 405.989 3.7081 2.54598 0
M  V30 4052 C 407.308 2.09495 3.8704 0
M  V30 4053 H 404.427 0.469764 0.567883 0
M  V30 4054 H 407.069 1.65851 0.927001 0
M  V30 4055 H 405.219 1.8834 3.39795 0
M  V30 4056 H 406.891 4.12593 2.06312 0
M  V30 4057 H 405.134 3.91051 1.8778 0
M  V30 4058 H 405.805 4.29679 3.46525 0
M  V30 4059 H 408.281 2.37045 3.41978 0
M  V30 4060 H 407.157 2.75173 4.74943 0
M  V30 4061 H 407.418 1.07714 4.28777 0
M  V30 4062 N 406.477 -1.02803 1.19454 0
M  V30 4063 C 407.723 -1.76478 0.999171 0
M  V30 4064 C 408.056 -1.88456 -0.468828 0
M  V30 4065 O 407.331 -1.40198 -1.34814 0
M  V30 4066 C 407.614 -3.19044 1.66981 0
M  V30 4067 C 407.467 -3.14932 3.21151 0
M  V30 4068 C 408.786 -4.17456 1.39349 0
M  V30 4069 H 405.905 -0.640614 0.364393 0
M  V30 4070 H 408.547 -1.20005 1.47305 0
M  V30 4071 H 406.697 -3.67263 1.2669 0
M  V30 4072 H 408.369 -2.74605 3.70661 0
M  V30 4073 H 406.612 -2.52625 3.52652 0
M  V30 4074 H 407.283 -4.1566 3.63223 0
M  V30 4075 H 409.759 -3.77842 1.74283 0
M  V30 4076 H 408.635 -5.154 1.88823 0
M  V30 4077 H 408.896 -4.40949 0.318813 0
M  V30 4078 N 407.956 -0.998596 -1.21925 0
M  V30 4079 C 409.184 -0.696286 -1.94832 0
M  V30 4080 C 409.599 0.740032 -1.73692 0
M  V30 4081 O 408.956 1.5 -1.03953 0
M  V30 4082 C 409.007 -0.999833 -3.47398 0
M  V30 4083 O 408.728 -2.37972 -3.67833 0
M  V30 4084 C 410.229 -0.716025 -4.37479 0
M  V30 4085 H 407.449 -0.257111 -0.619786 0
M  V30 4086 H 409.993 -1.33491 -1.54921 0
M  V30 4087 H 408.148 -0.406918 -3.85257 0
M  V30 4088 H 408.562 -2.48338 -4.61983 0
M  V30 4089 H 410.036 -0.978642 -5.43256 0
M  V30 4090 H 410.513 0.349968 -4.37803 0
M  V30 4091 H 411.119 -1.29025 -4.05256 0
M  V30 4092 N 409.434 1.37368 -0.772513 0
M  V30 4093 C 410.845 1.8231 -0.402493 0
M  V30 4094 C 411.196 1.6436 1.07146 0
M  V30 4095 O 410.321 1.15514 1.82991 0
M  V30 4096 C 410.916 3.30979 -0.723776 0
M  V30 4097 C 409.475 3.74195 -0.406802 0
M  V30 4098 C 408.622 2.59885 -0.967218 0
M  V30 4099 H 411.573 1.25829 -0.967099 0
M  V30 4100 H 411.594 3.80499 -0.00870832 0
M  V30 4101 H 411.106 3.44011 -1.7966 0
M  V30 4102 H 409.207 3.66732 0.658673 0
M  V30 4103 H 409.32 4.7027 -0.915588 0
M  V30 4104 H 407.684 2.51674 -0.391416 0
M  V30 4105 H 408.467 2.7571 -2.04546 0
M  V30 4106 N 410.912 0.523116 1.48665 0
M  V30 4107 C 411.862 -0.263106 2.26477 0
M  V30 4108 C 412.846 -0.916005 1.32281 0
M  V30 4109 O 414.038 -0.819946 1.56863 0
M  V30 4110 C 411.167 -1.31361 3.17174 0
M  V30 4111 C 410.253 -0.665849 4.1884 0
M  V30 4112 N 410.644 0.244434 5.05209 0
M  V30 4113 C 408.942 -0.923863 4.36326 0
M  V30 4114 C 409.643 0.617443 5.78414 0
M  V30 4115 N 408.619 -0.0198686 5.43596 0
M  V30 4116 H 412.421 0.437295 2.90629 0
M  V30 4117 H 409.935 0.340675 1.58787 0
M  V30 4118 H 411.932 -1.89052 3.71571 0
M  V30 4119 H 410.592 -2.01546 2.54576 0
M  V30 4120 H 411.603 0.616621 5.14216 0
M  V30 4121 H 408.28 -1.6168 3.84923 0
M  V30 4122 H 409.67 1.36346 6.57921 0
M  V30 4123 N 412.39 -1.55475 0.257931 0
M  V30 4124 C 413.32 -2.24815 -0.630912 0
M  V30 4125 C 414.301 -1.23224 -1.17259 0
M  V30 4126 O 415.486 -1.51904 -1.20991 0
M  V30 4127 C 412.616 -2.95609 -1.82298 0
M  V30 4128 C 411.57 -4.03982 -1.41359 0
M  V30 4129 C 410.896 -4.6226 -2.68738 0
M  V30 4130 C 412.196 -5.19109 -0.57648 0
M  V30 4131 H 413.89 -2.99354 -0.0526878 0
M  V30 4132 H 411.436 -1.4398 -0.023901 0
M  V30 4133 H 413.389 -3.42822 -2.45054 0
M  V30 4134 H 412.113 -2.18577 -2.42676 0
M  V30 4135 H 410.772 -3.57555 -0.809324 0
M  V30 4136 H 410.42 -3.81915 -3.27338 0
M  V30 4137 H 410.12 -5.35424 -2.42065 0
M  V30 4138 H 411.644 -5.12212 -3.32372 0
M  V30 4139 H 413.058 -5.62479 -1.10861 0
M  V30 4140 H 411.455 -5.98729 -0.405351 0
M  V30 4141 H 412.525 -4.83174 0.408776 0
M  V30 4142 N 413.868 0.0150385 -1.57593 0
M  V30 4143 C 415.116 0.701613 -1.8953 0
M  V30 4144 C 415.437 1.75139 -0.857396 0
M  V30 4145 O 414.707 1.95607 0.107194 0
M  V30 4146 H 413.287 0.26213 -0.699498 0
M  V30 4147 H 415.949 -0.0223304 -1.94887 0
M  V30 4148 H 415.045 1.18236 -2.88837 0
M  V30 4149 N 415.346 1.54954 0.287554 0
M  V30 4150 C 416.309 1.86076 1.33823 0
M  V30 4151 C 417.309 0.734414 1.43049 0
M  V30 4152 O 418.499 1.00266 1.42452 0
M  V30 4153 C 415.631 2.05305 2.72144 0
M  V30 4154 H 416.824 2.79984 1.07465 0
M  V30 4155 H 414.377 1.47223 0.524902 0
M  V30 4156 H 415.112 1.1373 3.03704 0
M  V30 4157 H 414.897 2.873 2.66836 0
M  V30 4158 H 416.387 2.30706 3.48087 0
M  V30 4159 N 416.824 -0.551391 1.4764 0
M  V30 4160 C 418.049 -1.33837 1.58437 0
M  V30 4161 C 418.474 -1.866 0.237063 0
M  V30 4162 O 417.832 -1.6328 -0.787994 0
M  V30 4163 C 417.88 -2.48014 2.61766 0
M  V30 4164 O 416.984 -3.50419 2.1744 0
M  V30 4165 H 416.325 -0.397299 0.532024 0
M  V30 4166 H 418.855 -0.665759 1.93465 0
M  V30 4167 H 418.865 -2.94503 2.82369 0
M  V30 4168 H 417.54 -2.08969 3.5959 0
M  V30 4169 H 416.117 -3.10196 2.06961 0
M  V30 4170 N 418.302 -1.35869 -0.798587 0
M  V30 4171 C 419.53 -1.32722 -1.58722 0
M  V30 4172 C 419.945 0.0935631 -1.88568 0
M  V30 4173 O 419.302 1.04784 -1.49421 0
M  V30 4174 C 419.353 -2.13974 -2.91371 0
M  V30 4175 O 419.074 -3.50514 -2.62815 0
M  V30 4176 C 420.575 -2.18504 -3.85708 0
M  V30 4177 H 417.795 -0.45562 -0.492596 0
M  V30 4178 H 420.339 -1.78837 -0.991843 0
M  V30 4179 H 418.494 -1.71438 -3.47402 0
M  V30 4180 H 418.908 -3.92806 -3.47568 0
M  V30 4181 H 420.382 -2.79732 -4.75872 0
M  V30 4182 H 420.859 -1.18597 -4.22885 0
M  V30 4183 H 421.465 -2.61236 -3.35612 0
M  V30 4184 N 419.78 1.02168 -1.19998 0
M  V30 4185 C 420.743 2.08765 -0.94604 0
M  V30 4186 C 421.743 1.60618 0.0763846 0
M  V30 4187 O 422.933 1.73472 -0.159135 0
M  V30 4188 C 420.065 3.38262 -0.423255 0
M  V30 4189 H 421.258 2.32726 -1.89153 0
M  V30 4190 H 418.811 1.1889 -1.01464 0
M  V30 4191 H 419.546 3.19974 0.527938 0
M  V30 4192 H 419.331 3.74532 -1.16053 0
M  V30 4193 H 420.821 4.16759 -0.264911 0
M  V30 4194 N 421.258 1.00505 1.21394 0
M  V30 4195 C 422.168 0.574806 2.27449 0
M  V30 4196 C 423.184 -0.382206 1.6975 0
M  V30 4197 O 424.36 -0.246027 1.99892 0
M  V30 4198 C 421.425 -0.0917414 3.46579 0
M  V30 4199 C 420.486 0.909758 4.1955 0
M  V30 4200 C 419.719 0.274924 5.32991 0
M  V30 4201 O 419.942 -0.928254 5.62796 0
M  V30 4202 O 418.876 0.985877 5.93771 0
M  V30 4203 H 422.702 1.45744 2.66444 0
M  V30 4204 H 420.287 0.773923 1.27792 0
M  V30 4205 H 422.169 -0.464551 4.18832 0
M  V30 4206 H 420.844 -0.948755 3.09484 0
M  V30 4207 H 419.751 1.33372 3.49518 0
M  V30 4208 H 421.084 1.73636 4.60555 0
M  V30 4209 N 422.737 -1.36956 0.779787 0
M  V30 4210 C 423.7 -2.2851 0.177662 0
M  V30 4211 C 424.7 -1.48393 -0.619377 0
M  V30 4212 O 425.89 -1.68505 -0.441785 0
M  V30 4213 C 423.022 -3.32428 -0.755279 0
M  V30 4214 H 424.215 -2.83269 0.984823 0
M  V30 4215 H 421.768 -1.46358 0.548544 0
M  V30 4216 H 422.503 -2.82808 -1.58714 0
M  V30 4217 H 422.288 -3.91659 -0.185817 0
M  V30 4218 H 423.778 -4.00824 -1.17174 0
M  V30 4219 N 424.215 -0.530993 -1.48385 0
M  V30 4220 C 425.147 0.268353 -2.27624 0
M  V30 4221 C 426.16 0.903525 -1.35426 0
M  V30 4222 O 427.349 0.781796 -1.60469 0
M  V30 4223 C 424.449 1.39535 -3.08842 0
M  V30 4224 C 423.622 0.861913 -4.28824 0
M  V30 4225 C 422.681 1.87016 -4.91845 0
M  V30 4226 O 421.707 1.4267 -5.5103 0
M  V30 4227 N 422.909 3.20238 -4.84178 0
M  V30 4228 H 425.674 -0.41123 -2.96865 0
M  V30 4229 H 423.235 -0.365387 -1.57723 0
M  V30 4230 H 425.227 2.06803 -3.47871 0
M  V30 4231 H 423.797 1.97859 -2.42014 0
M  V30 4232 H 423.017 0.0132126 -3.94198 0
M  V30 4233 H 424.305 0.484415 -5.06489 0
M  V30 4234 H 423.703 3.58932 -4.37246 0
M  V30 4235 H 422.26 3.83136 -5.27305 0
M  V30 4236 N 425.693 1.55336 -0.266172 0
M  V30 4237 C 426.97 1.91372 0.404486 0
M  V30 4238 C 427.35 1.18935 1.74407 0
M  V30 4239 O 426.698 0.3132 2.26343 0
M  V30 4240 C 426.908 3.44581 0.553593 0
M  V30 4241 C 428.256 4.16196 0.840618 0
M  V30 4242 O 429.28 3.50426 0.638739 0
M  V30 4243 O 428.139 5.32567 1.22618 0
M  V30 4244 H 425.233 0.797194 0.220025 0
M  V30 4245 H 427.779 1.66813 -0.311664 0
M  V30 4246 H 426.551 3.89357 -0.389498 0
M  V30 4247 H 426.174 3.75065 1.31955 0
M  V30 4248 N 427.171 -0.0066808 1.57599 0
M  V30 4249 C 428.587 -0.36267 1.55425 0
M  V30 4250 C 428.787 -1.75209 0.995187 0
M  V30 4251 O 427.843 -2.44616 0.626058 0
M  V30 4252 C 429.156 -0.244017 2.99708 0
M  V30 4253 C 430.704 -0.319451 3.11366 0
M  V30 4254 C 431.179 -0.229998 4.57422 0
M  V30 4255 N 432.67 -0.288105 4.62303 0
M  V30 4256 C 433.405 -0.242127 5.72889 0
M  V30 4257 N 432.901 -0.147133 6.92644 0
M  V30 4258 N 434.694 -0.293502 5.61333 0
M  V30 4259 H 426.845 0.902314 1.92281 0
M  V30 4260 H 429.108 0.34525 0.882896 0
M  V30 4261 H 428.814 0.711678 3.44424 0
M  V30 4262 H 428.688 -1.02877 3.629 0
M  V30 4263 H 431.075 -1.26559 2.66584 0
M  V30 4264 H 431.156 0.495055 2.50964 0
M  V30 4265 H 430.8 0.712566 5.02877 0
M  V30 4266 H 430.73 -1.0629 5.15761 0
M  V30 4267 H 433.221 -0.363126 3.76151 0
M  V30 4268 H 433.534 -0.117763 7.7271 0
M  V30 4269 H 431.879 -0.112857 6.94908 0
M  V30 4270 H 435.07 -0.365864 4.66668 0
M  V30 4271 H 435.243 -0.254204 6.47501 0
M  V30 4272 N 428.649 -1.55105 -0.279332 0
M  V30 4273 C 429.612 -1.86783 -1.32834 0
M  V30 4274 C 430.612 -0.74199 -1.42657 0
M  V30 4275 O 431.802 -1.0102 -1.41918 0
M  V30 4276 C 428.934 -2.06746 -2.71052 0
M  V30 4277 H 430.127 -2.8055 -1.05979 0
M  V30 4278 H 427.68 -1.47499 -0.517087 0
M  V30 4279 H 428.415 -1.15339 -3.03097 0
M  V30 4280 H 428.2 -2.88711 -2.65309 0
M  V30 4281 H 429.69 -2.32549 -3.46858 0
M  V30 4282 N 430.127 0.543554 -1.4793 0
M  V30 4283 C 431.375 1.29752 -1.54948 0
M  V30 4284 C 431.696 1.93764 -0.219242 0
M  V30 4285 O 430.966 1.80639 0.75805 0
M  V30 4286 H 429.546 0.481874 -0.570795 0
M  V30 4287 H 432.208 0.633636 -1.84312 0
M  V30 4288 H 431.304 2.08392 -2.32334 0
M  V30 4289 N 431.605 1.3629 0.791371 0
M  V30 4290 C 432.833 1.33562 1.58016 0
M  V30 4291 C 433.248 -0.0835616 1.88615 0
M  V30 4292 O 432.605 -1.0399 1.49974 0
M  V30 4293 C 432.656 2.15517 2.90232 0
M  V30 4294 O 432.377 3.51902 2.60953 0
M  V30 4295 C 433.878 2.20546 3.84544 0
M  V30 4296 H 431.098 0.458226 0.490173 0
M  V30 4297 H 433.642 1.79361 0.982345 0
M  V30 4298 H 431.797 1.73278 3.46487 0
M  V30 4299 H 432.211 3.94644 3.4548 0
M  V30 4300 H 433.685 2.82252 4.74382 0
M  V30 4301 H 434.162 1.20838 4.2225 0
M  V30 4302 H 434.768 2.63013 3.34222 0
M  V30 4303 N 433.083 -1.0153 1.20538 0
M  V30 4304 C 434.36 -1.72327 0.925343 0
M  V30 4305 C 434.74 -2.03383 -0.565547 0
M  V30 4306 O 434.088 -1.69934 -1.52757 0
M  V30 4307 C 434.298 -2.9902 1.79967 0
M  V30 4308 C 435.646 -3.72258 2.04228 0
M  V30 4309 O 436.67 -3.08979 1.77231 0
M  V30 4310 O 435.529 -4.86053 2.4983 0
M  V30 4311 H 432.623 -0.751099 0.346092 0
M  V30 4312 H 435.169 -1.07366 1.31417 0
M  V30 4313 H 433.941 -2.72402 2.80915 0
M  V30 4314 H 433.564 -3.71721 1.41099 0
M  V30 4315 N 434.561 -1.01147 -1.20859 0
M  V30 4316 C 435.807 -0.698899 -1.90377 0
M  V30 4317 C 436.14 0.76904 -1.78324 0
M  V30 4318 O 435.415 1.55817 -1.16409 0
M  V30 4319 C 435.698 -1.12878 -3.41951 0
M  V30 4320 C 435.551 -2.65665 -3.62963 0
M  V30 4321 C 436.87 -0.696114 -4.3456 0
M  V30 4322 H 433.989 -0.255372 -0.691342 0
M  V30 4323 H 436.631 -1.25831 -1.42361 0
M  V30 4324 H 434.781 -0.652827 -3.82976 0
M  V30 4325 H 436.453 -3.21074 -3.31224 0
M  V30 4326 H 434.696 -3.06878 -3.06608 0
M  V30 4327 H 435.367 -2.90797 -4.69192 0
M  V30 4328 H 437.843 -1.10521 -4.01154 0
M  V30 4329 H 436.719 -1.025 -5.39245 0
M  V30 4330 H 436.98 0.402465 -4.40264 0
M  V30 4331 N 436.039 1.36541 -0.78704 0
M  V30 4332 C 437.002 2.28413 -0.189778 0
M  V30 4333 C 438.002 1.48719 0.611499 0
M  V30 4334 O 439.192 1.68737 0.432842 0
M  V30 4335 C 436.324 3.32824 0.737638 0
M  V30 4336 H 437.517 2.82743 -0.999831 0
M  V30 4337 H 435.07 1.46065 -0.556298 0
M  V30 4338 H 435.805 2.83646 1.57212 0
M  V30 4339 H 435.59 3.91752 0.165044 0
M  V30 4340 H 437.08 4.0144 1.15047 0
M  V30 4341 N 437.518 0.538854 1.48102 0
M  V30 4342 C 438.428 -0.222648 2.33541 0
M  V30 4343 C 439.444 -0.930225 1.47047 0
M  V30 4344 O 440.62 -0.903211 1.80011 0
M  V30 4345 C 437.685 -1.25064 3.23357 0
M  V30 4346 C 436.746 -0.552469 4.2573 0
M  V30 4347 C 435.979 -1.53149 5.11254 0
M  V30 4348 O 436.202 -2.76487 4.9891 0
M  V30 4349 O 435.136 -1.06602 5.92385 0
M  V30 4350 H 438.962 0.477707 2.99919 0
M  V30 4351 H 436.547 0.299669 1.46364 0
M  V30 4352 H 438.429 -1.8445 3.78888 0
M  V30 4353 H 437.104 -1.93325 2.59629 0
M  V30 4354 H 436.011 0.082114 3.7401 0
M  V30 4355 H 437.344 0.0883526 4.92121 0
M  V30 4356 N 438.996 -1.55193 0.274407 0
M  V30 4357 C 440.221 -2.04446 -0.348824 0
M  V30 4358 C 440.646 -1.15149 -1.48735 0
M  V30 4359 O 440.004 -0.149952 -1.80679 0
M  V30 4360 C 440.052 -3.51431 -0.808009 0
M  V30 4361 O 439.156 -3.65225 -1.91531 0
M  V30 4362 H 438.497 -0.66006 -0.0722276 0
M  V30 4363 H 441.027 -2.00481 0.408498 0
M  V30 4364 H 441.037 -3.92781 -1.10395 0
M  V30 4365 H 439.712 -4.15892 0.0249865 0
M  V30 4366 H 438.289 -3.35778 -1.62196 0
M  V30 4367 N 440.474 -0.00167713 -1.576 0
M  V30 4368 C 441.72 0.683832 -1.90923 0
M  V30 4369 C 442.053 1.7333 -0.875799 0
M  V30 4370 O 441.328 1.94215 0.10525 0
M  V30 4371 C 441.611 1.32543 -3.3482 0
M  V30 4372 C 441.464 0.287387 -4.48881 0
M  V30 4373 C 442.783 2.25114 -3.78169 0
M  V30 4374 H 439.902 0.247125 -0.694333 0
M  V30 4375 H 442.544 -0.0533149 -1.89925 0
M  V30 4376 H 440.694 1.95372 -3.35801 0
M  V30 4377 H 442.366 -0.341346 -4.60035 0
M  V30 4378 H 440.609 -0.39017 -4.32042 0
M  V30 4379 H 441.28 0.775393 -5.46527 0
M  V30 4380 H 443.756 1.723 -3.7875 0
M  V30 4381 H 442.632 2.66971 -4.79602 0
M  V30 4382 H 442.893 3.13092 -3.12131 0
M  V30 4383 N 441.952 1.55251 0.271103 0
M  V30 4384 C 443.368 1.47133 0.618393 0
M  V30 4385 C 443.568 0.686994 1.89427 0
M  V30 4386 O 442.624 0.206609 2.51653 0
M  V30 4387 C 443.937 2.91361 0.743593 0
M  V30 4388 C 445.485 3.01587 0.837522 0
M  V30 4389 C 445.96 4.47073 0.994483 0
M  V30 4390 N 447.451 4.50909 1.05996 0
M  V30 4391 C 448.186 5.60698 1.20024 0
M  V30 4392 N 447.682 6.80348 1.30759 0
M  V30 4393 N 449.475 5.48444 1.23149 0
M  V30 4394 H 441.626 2.04698 -0.566784 0
M  V30 4395 H 443.889 0.928319 -0.192165 0
M  V30 4396 H 443.595 3.51483 -0.123493 0
M  V30 4397 H 443.469 3.40484 1.62328 0
M  V30 4398 H 445.856 2.4156 1.69507 0
M  V30 4399 H 445.937 2.55713 -0.0668086 0
M  V30 4400 H 445.581 5.07703 0.141582 0
M  V30 4401 H 445.511 4.90605 1.91349 0
M  V30 4402 H 448.002 3.6472 0.989316 0
M  V30 4403 H 448.315 7.59772 1.41303 0
M  V30 4404 H 446.66 6.83156 1.27761 0
M  V30 4405 H 449.851 4.53907 1.14394 0
M  V30 4406 H 450.024 6.34049 1.33738 0
M  V30 4407 N 443.43 -0.535701 1.48216 0
M  V30 4408 C 444.36 -1.65014 1.65204 0
M  V30 4409 C 445.341 -1.62554 0.501011 0
M  V30 4410 O 446.526 -1.7984 0.732886 0
M  V30 4411 C 443.656 -3.03616 1.68626 0
M  V30 4412 C 442.61 -3.20932 2.83172 0
M  V30 4413 C 441.936 -4.60537 2.71679 0
M  V30 4414 C 443.236 -3.04249 4.24535 0
M  V30 4415 H 444.93 -1.51053 2.58502 0
M  V30 4416 H 442.476 -0.725262 1.24402 0
M  V30 4417 H 444.429 -3.81446 1.79099 0
M  V30 4418 H 443.153 -3.18587 0.719026 0
M  V30 4419 H 441.812 -2.45517 2.72244 0
M  V30 4420 H 441.46 -4.72336 1.72937 0
M  V30 4421 H 441.16 -4.73069 3.48538 0
M  V30 4422 H 442.684 -5.40475 2.84112 0
M  V30 4423 H 444.098 -3.71877 4.36326 0
M  V30 4424 H 442.495 -3.28278 5.02348 0
M  V30 4425 H 443.565 -2.00739 4.41397 0
M  V30 4426 N 444.908 -1.36708 -0.784132 0
M  V30 4427 C 445.871 -1.31307 -1.87859 0
M  V30 4428 C 446.871 -0.219654 -1.59293 0
M  V30 4429 O 448.061 -0.47476 -1.67606 0
M  V30 4430 C 445.193 -1.03679 -3.24751 0
M  V30 4431 H 446.386 -2.28647 -1.94064 0
M  V30 4432 H 443.939 -1.21558 -0.98252 0
M  V30 4433 H 444.674 -0.0681936 -3.24228 0
M  V30 4434 H 444.459 -1.82811 -3.46876 0
M  V30 4435 H 445.949 -1.02518 -4.04821 0
M  V30 4436 N 446.386 1.0089 -1.21074 0
M  V30 4437 C 447.316 2.1145 -0.990523 0
M  V30 4438 C 448.297 1.69897 0.0831699 0
M  V30 4439 O 449.482 1.94052 -0.0758853 0
M  V30 4440 C 446.612 3.42914 -0.550177 0
M  V30 4441 C 445.566 3.98244 -1.56799 0
M  V30 4442 C 444.892 5.25568 -0.984013 0
M  V30 4443 C 446.192 4.30752 -2.95381 0
M  V30 4444 H 447.886 2.3013 -1.91521 0
M  V30 4445 H 445.432 1.10592 -0.92225 0
M  V30 4446 H 447.385 4.19653 -0.383305 0
M  V30 4447 H 446.109 3.24014 0.41015 0
M  V30 4448 H 444.768 3.23621 -1.72236 0
M  V30 4449 H 444.416 5.02998 -0.0155216 0
M  V30 4450 H 444.116 5.63551 -1.66384 0
M  V30 4451 H 445.64 6.04955 -0.828378 0
M  V30 4452 H 447.054 4.98349 -2.8341 0
M  V30 4453 H 445.451 4.79869 -3.60341 0
M  V30 4454 H 446.521 3.39192 -3.46521 0
M  V30 4455 N 447.864 1.01787 1.20321 0
M  V30 4456 C 448.827 0.593972 2.2137 0
M  V30 4457 C 449.827 -0.336553 1.57239 0
M  V30 4458 O 451.017 -0.125069 1.7375 0
M  V30 4459 C 448.149 -0.132433 3.40643 0
M  V30 4460 H 449.342 1.48791 2.60387 0
M  V30 4461 H 446.895 0.807803 1.33807 0
M  V30 4462 H 447.63 -1.04123 3.0713 0
M  V30 4463 H 447.415 0.53605 3.88418 0
M  V30 4464 H 448.905 -0.416314 4.1552 0
M  V30 4465 N 449.342 -1.36122 0.79427 0
M  V30 4466 C 450.59 -1.98718 0.368177 0
M  V30 4467 C 450.911 -1.63345 -1.06506 0
M  V30 4468 O 450.181 -0.909825 -1.73491 0
M  V30 4469 H 448.761 -0.735038 0.133146 0
M  V30 4470 H 451.423 -1.66239 1.01739 0
M  V30 4471 H 450.519 -3.08633 0.463923 0
M  V30 4472 N 450.82 -0.546701 -1.47814 0
M  V30 4473 C 451.73 0.21026 -2.33656 0
M  V30 4474 C 452.746 0.922413 -1.47538 0
M  V30 4475 O 453.922 0.893652 -1.80488 0
M  V30 4476 C 450.987 1.23348 -3.24016 0
M  V30 4477 C 450.048 0.529883 -4.26017 0
M  V30 4478 C 449.281 1.50435 -5.12059 0
M  V30 4479 O 449.504 2.73837 -5.00369 0
M  V30 4480 O 448.438 1.03459 -5.92942 0
M  V30 4481 H 452.264 -0.493605 -2.99662 0
M  V30 4482 H 449.849 -0.307427 -1.46203 0
M  V30 4483 H 451.731 1.82438 -3.79861 0
M  V30 4484 H 450.406 1.91945 -2.60651 0
M  V30 4485 H 449.313 -0.101948 -3.73961 0
M  V30 4486 H 450.646 -0.11445 -4.92067 0
M  V30 4487 N 452.299 1.55045 -0.282633 0
M  V30 4488 C 453.546 1.9976 0.33199 0
M  V30 4489 C 453.874 1.17105 1.55295 0
M  V30 4490 O 453.129 0.230599 1.94337 0
M  V30 4491 C 453.428 3.49422 0.750938 0
M  V30 4492 C 453.094 4.4941 -0.366228 0
M  V30 4493 C 451.756 4.76471 -0.672964 0
M  V30 4494 C 454.108 5.09054 -1.11864 0
M  V30 4495 C 451.436 5.60442 -1.73556 0
M  V30 4496 C 453.788 5.9418 -2.17102 0
M  V30 4497 C 452.452 6.19558 -2.48402 0
M  V30 4498 H 451.722 0.730974 0.121484 0
M  V30 4499 H 454.369 1.8732 -0.39791 0
M  V30 4500 H 452.674 3.59377 1.56063 0
M  V30 4501 H 454.371 3.81432 1.23736 0
M  V30 4502 H 450.961 4.2844 -0.117041 0
M  V30 4503 H 455.145 4.88165 -0.894925 0
M  V30 4504 H 450.401 5.78349 -1.983 0
M  V30 4505 H 454.575 6.39427 -2.75873 0
M  V30 4506 H 452.202 6.84417 -3.30874 0
M  V30 4507 N 453.777 0.010035 1.57597 0
M  V30 4508 C 455.023 -0.673697 1.91283 0
M  V30 4509 C 455.356 -1.72863 0.884979 0
M  V30 4510 O 454.631 -1.94268 -0.0949487 0
M  V30 4511 C 454.914 -1.30766 3.35518 0
M  V30 4512 C 454.767 -0.263578 4.49027 0
M  V30 4513 C 456.086 -2.23105 3.79358 0
M  V30 4514 H 453.205 -0.243439 0.695634 0
M  V30 4515 H 455.847 0.0633864 1.89894 0
M  V30 4516 H 453.997 -1.93588 3.36832 0
M  V30 4517 H 455.669 0.365738 4.59848 0
M  V30 4518 H 453.912 0.413077 4.31829 0
M  V30 4519 H 454.583 -0.746398 5.4693 0
M  V30 4520 H 457.059 -1.70289 3.79659 0
M  V30 4521 H 455.935 -2.64424 4.81011 0
M  V30 4522 H 456.196 -3.11433 3.13787 0
M  V30 4523 N 455.255 -1.55392 -0.262866 0
M  V30 4524 C 456.666 -1.67079 -0.833158 0
M  V30 4525 C 457.017 -0.604539 -1.86654 0
M  V30 4526 O 456.142 0.252138 -2.14926 0
M  V30 4527 C 456.737 -3.02891 -1.51797 0
M  V30 4528 C 455.296 -3.16571 -2.03617 0
M  V30 4529 C 454.443 -2.62909 -0.881701 0
M  V30 4530 H 457.394 -1.58652 -0.0389986 0
M  V30 4531 H 457.415 -2.96445 -2.38538 0
M  V30 4532 H 456.927 -3.80473 -0.765619 0
M  V30 4533 H 455.028 -2.43782 -2.81782 0
M  V30 4534 H 455.141 -4.23271 -2.24452 0
M  V30 4535 H 453.505 -2.20324 -1.27786 0
M  V30 4536 H 454.288 -3.43003 -0.14269 0
M  V30 4537 N 456.733 0.527833 -1.48498 0
M  V30 4538 C 458.01 1.28905 -1.47115 0
M  V30 4539 C 458.39 2.10297 -0.184007 0
M  V30 4540 O 457.738 2.12728 0.834218 0
M  V30 4541 C 457.948 2.16866 -2.73441 0
M  V30 4542 C 459.296 2.76936 -3.21857 0
M  V30 4543 O 460.32 2.27152 -2.74373 0
M  V30 4544 O 459.179 3.67496 -4.04486 0
M  V30 4545 H 456.273 0.581918 -0.587623 0
M  V30 4546 H 458.819 0.544311 -1.60734 0
M  V30 4547 H 457.591 1.56521 -3.58632 0
M  V30 4548 H 457.214 2.98583 -2.62553 0
M  V30 4549 N 458.211 1.37122 0.776871 0
M  V30 4550 C 459.174 1.32301 1.8716 0
M  V30 4551 C 460.174 0.228099 1.59174 0
M  V30 4552 O 461.364 0.483642 1.67352 0
M  V30 4553 C 458.496 1.054 3.24197 0
M  V30 4554 H 459.689 2.29673 1.92848 0
M  V30 4555 H 457.242 1.22077 0.97606 0
M  V30 4556 H 457.977 0.0853872 3.24188 0
M  V30 4557 H 457.762 1.84648 3.45901 0
M  V30 4558 H 459.252 1.04664 4.04271 0
M  V30 4559 N 459.689 -1.00246 1.21608 0
M  V30 4560 C 460.935 -1.74319 1.03638 0
M  V30 4561 C 461.268 -1.89408 -0.428749 0
M  V30 4562 O 460.543 -1.43026 -1.3181 0
M  V30 4563 C 460.826 -3.15431 1.73711 0
M  V30 4564 C 460.679 -3.08049 3.27759 0
M  V30 4565 C 461.998 -4.14407 1.48173 0
M  V30 4566 H 459.117 -0.632741 0.377899 0
M  V30 4567 H 461.759 -1.16853 1.49818 0
M  V30 4568 H 459.909 -3.64493 1.34452 0
M  V30 4569 H 461.581 -2.66681 3.76403 0
M  V30 4570 H 459.824 -2.45088 3.57931 0
M  V30 4571 H 460.495 -4.07862 3.71958 0
M  V30 4572 H 462.971 -3.74061 1.82258 0
M  V30 4573 H 461.847 -5.11279 1.99713 0
M  V30 4574 H 462.108 -4.40174 0.412273 0
M  V30 4575 N 461.167 -1.02423 -1.1978 0
M  V30 4576 C 462.115 -0.594474 -2.24875 0
M  V30 4577 C 463.109 0.370598 -1.65296 0
M  V30 4578 O 464.315 0.239684 -1.78397 0
M  V30 4579 H 460.69 -0.173961 -0.731602 0
M  V30 4580 H 462.661 -1.4916 -2.58445 0
M  V30 4581 C 461.41 0.0436512 -3.47673 0
M  V30 4582 H 460.733 -0.689963 -3.93801 0
M  V30 4583 H 462.173 0.307362 -4.22884 0
M  V30 4584 C 460.632 1.28881 -3.11274 0
M  V30 4585 O 461.162 2.38135 -3.23503 0
M  V30 4586 N 459.368 1.1758 -2.6575 0
M  V30 4587 H 458.915 0.286769 -2.55999 0
M  V30 4588 H 458.873 2.00988 -2.41767 0
M  V30 4589 N 462.645 1.35699 -0.801477 0
M  V30 4590 C 463.891 1.99208 -0.380022 0
M  V30 4591 C 464.224 1.63445 1.04878 0
M  V30 4592 O 463.499 0.895223 1.72673 0
M  V30 4593 C 463.782 3.55755 -0.557708 0
M  V30 4594 C 463.635 4.01332 -2.03107 0
M  V30 4595 C 464.954 4.40096 0.0197968 0
M  V30 4596 H 462.073 0.723667 -0.139552 0
M  V30 4597 H 464.715 1.60928 -1.01006 0
M  V30 4598 H 462.865 3.88494 -0.0213741 0
M  V30 4599 H 464.537 3.79026 -2.62939 0
M  V30 4600 H 462.78 3.52429 -2.52936 0
M  V30 4601 H 463.451 5.10234 -2.1063 0
M  V30 4602 H 465.927 4.13786 -0.438179 0
M  V30 4603 H 464.803 5.48735 -0.134477 0
M  V30 4604 H 465.064 4.2786 1.11303 0
M  V30 4605 N 464.123 0.554532 1.47522 0
M  V30 4606 C 465.371 0.0294208 2.02079 0
M  V30 4607 C 465.692 -1.32411 1.43151 0
M  V30 4608 O 464.962 -1.863 0.605728 0
M  V30 4609 H 463.542 0.00788672 0.746958 0
M  V30 4610 H 466.204 0.723934 1.80956 0
M  V30 4611 H 465.3 -0.0606745 3.12041 0
M  V30 4612 N 465.601 -1.54893 0.290851 0
M  V30 4613 C 466.849 -1.99538 -0.320756 0
M  V30 4614 C 467.17 -1.18075 -1.55188 0
M  V30 4615 O 466.44 -0.274162 -1.93972 0
M  V30 4616 H 465.02 -0.737052 -0.121507 0
M  V30 4617 H 467.682 -1.90755 0.399832 0
M  V30 4618 H 466.778 -3.06282 -0.599802 0
M  V30 4619 N 467.08 -0.0183926 -1.57589 0
M  V30 4620 C 468.328 0.661253 -1.90976 0
M  V30 4621 C 468.649 1.73281 -0.894353 0
M  V30 4622 O 467.919 1.9579 0.0656788 0
M  V30 4623 H 466.499 0.247233 -0.704901 0
M  V30 4624 H 469.161 -0.0636639 -1.94796 0
M  V30 4625 H 468.257 1.12083 -2.9128 0
M  V30 4626 N 468.558 1.5553 0.254621 0
M  V30 4627 C 469.804 1.77262 0.985193 0
M  V30 4628 C 470.137 0.582286 1.85265 0
M  V30 4629 O 469.412 -0.419666 1.89919 0
M  V30 4630 C 469.695 3.0881 1.85225 0
M  V30 4631 C 469.548 4.38233 1.0135 0
M  V30 4632 C 470.867 3.3653 2.83612 0
M  V30 4633 H 467.986 0.644906 0.356742 0
M  V30 4634 H 470.628 1.88264 0.256236 0
M  V30 4635 H 468.778 2.99562 2.47376 0
M  V30 4636 H 470.45 4.59463 0.411269 0
M  V30 4637 H 468.693 4.32636 0.317574 0
M  V30 4638 H 469.364 5.26644 1.65379 0
M  V30 4639 H 471.84 3.45691 2.31596 0
M  V30 4640 H 470.716 4.29805 3.41407 0
M  V30 4641 H 470.977 2.57064 3.59681 0
M  V30 4642 N 470.036 -0.519951 1.48776 0
M  V30 4643 C 471.282 -1.27711 1.57536 0
M  V30 4644 C 471.615 -1.92547 0.252866 0
M  V30 4645 O 470.89 -1.7979 -0.742021 0
M  V30 4646 C 471.173 -2.35875 2.72094 0
M  V30 4647 C 471.026 -1.75664 4.1408 0
M  V30 4648 C 472.345 -3.37575 2.82367 0
M  V30 4649 H 469.464 -0.462971 0.573434 0
M  V30 4650 H 472.106 -0.578194 1.80989 0
M  V30 4651 H 470.256 -2.95488 2.52228 0
M  V30 4652 H 471.928 -1.20025 4.45412 0
M  V30 4653 H 470.171 -1.06154 4.20611 0
M  V30 4654 H 470.842 -2.54029 4.90075 0
M  V30 4655 H 473.318 -2.87929 3.00393 0
M  V30 4656 H 472.194 -4.1064 3.64233 0
M  V30 4657 H 472.455 -3.98743 1.90936 0
M  V30 4658 N 471.514 -1.37532 -0.769588 0
M  V30 4659 C 472.462 -1.33561 -1.90432 0
M  V30 4660 C 473.456 -0.224027 -1.67912 0
M  V30 4661 O 474.662 -0.392174 -1.75676 0
M  V30 4662 H 471.037 -0.416279 -0.626271 0
M  V30 4663 H 473.008 -2.29348 -1.90899 0
M  V30 4664 C 471.757 -1.16162 -3.27722 0
M  V30 4665 H 471.08 -2.00951 -3.45628 0
M  V30 4666 H 472.52 -1.17434 -4.07413 0
M  V30 4667 C 470.979 0.132583 -3.36639 0
M  V30 4668 O 471.509 1.11539 -3.85904 0
M  V30 4669 N 469.715 0.184013 -2.90017 0
M  V30 4670 H 469.262 -0.616415 -2.50116 0
M  V30 4671 H 469.22 1.04956 -2.96364 0
M  V30 4672 N 472.992 0.995999 -1.22138 0
M  V30 4673 C 473.902 2.11985 -1.00496 0
M  V30 4674 C 474.918 1.7394 0.0457701 0
M  V30 4675 O 476.094 2.00868 -0.146273 0
M  V30 4676 C 473.159 3.41779 -0.582086 0
M  V30 4677 C 472.22 3.93943 -1.70608 0
M  V30 4678 C 471.453 5.17542 -1.30328 0
M  V30 4679 O 471.676 5.70114 -0.180743 0
M  V30 4680 O 470.61 5.63382 -2.11861 0
M  V30 4681 H 474.436 2.33123 -1.94647 0
M  V30 4682 H 472.021 1.10358 -1.00705 0
M  V30 4683 H 473.903 4.1989 -0.356467 0
M  V30 4684 H 472.578 3.22007 0.330592 0
M  V30 4685 H 471.485 3.17019 -1.98619 0
M  V30 4686 H 472.818 4.18141 -2.59651 0
M  V30 4687 N 474.47 1.03057 1.19235 0
M  V30 4688 C 475.38 0.622922 2.26179 0
M  V30 4689 C 476.396 -0.346113 1.70523 0
M  V30 4690 O 477.572 -0.203572 2.00369 0
M  V30 4691 C 474.637 -0.0182063 3.46695 0
M  V30 4692 C 473.698 0.998546 4.17526 0
M  V30 4693 C 472.931 0.387917 5.32288 0
M  V30 4694 O 473.154 -0.808668 5.64639 0
M  V30 4695 O 472.088 1.1116 5.91546 0
M  V30 4696 H 475.914 1.51363 2.63292 0
M  V30 4697 H 473.499 0.800856 1.26122 0
M  V30 4698 H 475.381 -0.375606 4.19723 0
M  V30 4699 H 474.056 -0.882895 3.11427 0
M  V30 4700 H 472.963 1.40756 3.4661 0
M  V30 4701 H 474.296 1.83366 4.56769 0
M  V30 4702 N 475.948 -1.35272 0.808662 0
M  V30 4703 C 477.194 -1.99003 0.390581 0
M  V30 4704 C 477.527 -1.63999 -1.0401 0
M  V30 4705 O 476.802 -0.904368 -1.72196 0
M  V30 4706 C 477.085 -3.55454 0.576566 0
M  V30 4707 C 476.938 -4.00249 2.05233 0
M  V30 4708 C 478.257 -4.401 0.00354277 0
M  V30 4709 H 475.376 -0.722917 0.143388 0
M  V30 4710 H 478.018 -1.6039 1.01858 0
M  V30 4711 H 476.168 -3.88477 0.0419766 0
M  V30 4712 H 477.84 -3.77626 2.64946 0
M  V30 4713 H 476.083 -3.51082 2.54801 0
M  V30 4714 H 476.754 -5.0911 2.13333 0
M  V30 4715 H 479.23 -4.13548 0.460117 0
M  V30 4716 H 478.106 -5.48656 0.163575 0
M  V30 4717 H 478.367 -4.28444 -1.09032 0
M  V30 4718 N 477.426 -0.562348 -1.47226 0
M  V30 4719 C 478.389 0.172056 -2.28553 0
M  V30 4720 C 479.389 0.837928 -1.37242 0
M  V30 4721 O 480.579 0.693001 -1.59822 0
M  V30 4722 C 477.711 1.25223 -3.17068 0
M  V30 4723 H 478.904 -0.542401 -2.94954 0
M  V30 4724 H 476.457 -0.319493 -1.53 0
M  V30 4725 H 477.192 1.99892 -2.55369 0
M  V30 4726 H 476.977 0.779515 -3.84273 0
M  V30 4727 H 478.467 1.76791 -3.78332 0
M  V30 4728 N 478.904 1.54736 -0.299062 0
M  V30 4729 C 480.315 1.8569 0.193971 0
M  V30 4730 C 480.666 1.22101 1.53577 0
M  V30 4731 O 479.791 0.51799 2.10109 0
M  V30 4732 C 480.386 3.36895 0.358733 0
M  V30 4733 C 478.945 3.67887 0.795986 0
M  V30 4734 C 478.092 2.77131 -0.096807 0
M  V30 4735 H 481.043 1.49934 -0.520134 0
M  V30 4736 H 481.064 3.61294 1.19361 0
M  V30 4737 H 480.576 3.83148 -0.617998 0
M  V30 4738 H 478.677 3.27151 1.78334 0
M  V30 4739 H 478.79 4.75114 0.616718 0
M  V30 4740 H 477.154 2.51153 0.423581 0
M  V30 4741 H 477.937 3.26204 -1.06986 0
M  V30 4742 N 480.382 0.0267497 1.57577 0
M  V30 4743 C 481.628 -0.647596 1.92815 0
M  V30 4744 C 481.983 -1.69872 0.903396 0
M  V30 4745 O 481.276 -1.91429 -0.0808881 0
M  V30 4746 C 481.47 -1.30914 3.3256 0
M  V30 4747 C 481.299 -0.323621 4.48534 0
M  V30 4748 C 480.069 0.0756607 5.05243 0
M  V30 4749 C 482.267 0.42112 5.12573 0
M  V30 4750 N 480.249 1.0566 6.04739 0
M  V30 4751 C 481.62 1.25589 6.07147 0
M  V30 4752 C 483.675 0.482077 4.95561 0
M  V30 4753 C 482.378 2.1461 6.86538 0
M  V30 4754 C 484.404 1.35962 5.75559 0
M  V30 4755 C 483.766 2.18217 6.69747 0
M  V30 4756 H 479.865 -0.209357 0.753454 0
M  V30 4757 H 482.449 0.0933695 1.94476 0
M  V30 4758 H 480.62 -2.02026 3.31723 0
M  V30 4759 H 482.352 -1.94033 3.55153 0
M  V30 4760 H 479.107 -0.298294 4.7266 0
M  V30 4761 H 479.531 1.54324 6.59176 0
M  V30 4762 H 484.173 -0.139609 4.22569 0
M  V30 4763 H 481.891 2.77835 7.58837 0
M  V30 4764 H 485.477 1.41105 5.6443 0
M  V30 4765 H 484.357 2.85022 7.3057 0
M  V30 4766 N 481.861 -1.55662 -0.24637 0
M  V30 4767 C 482.791 -1.93377 -1.30873 0
M  V30 4768 C 483.772 -0.798773 -1.50179 0
M  V30 4769 O 484.957 -1.0591 -1.62778 0
M  V30 4770 C 482.087 -2.22893 -2.66338 0
M  V30 4771 C 481.041 -3.38649 -2.61727 0
M  V30 4772 C 480.367 -3.53708 -4.00992 0
M  V30 4773 C 481.667 -4.74323 -2.18666 0
M  V30 4774 H 483.361 -2.82363 -0.995552 0
M  V30 4775 H 480.907 -1.35854 -0.477464 0
M  V30 4776 H 482.86 -2.47866 -3.40794 0
M  V30 4777 H 481.584 -1.30733 -2.99293 0
M  V30 4778 H 480.243 -3.13685 -1.89729 0
M  V30 4779 H 479.891 -2.58967 -4.31214 0
M  V30 4780 H 479.591 -4.31551 -3.98795 0
M  V30 4781 H 481.115 -3.81003 -4.77147 0
M  V30 4782 H 482.529 -4.98665 -2.82854 0
M  V30 4783 H 480.926 -5.55273 -2.27579 0
M  V30 4784 H 481.996 -4.71349 -1.13834 0
M  V30 4785 N 483.339 0.512053 -1.4905 0
M  V30 4786 C 484.616 1.27337 -1.48474 0
M  V30 4787 C 484.996 2.1009 -0.206301 0
M  V30 4788 O 484.344 2.136 0.811609 0
M  V30 4789 C 484.554 2.13954 -2.75726 0
M  V30 4790 C 485.902 2.73507 -3.24776 0
M  V30 4791 O 486.926 2.24229 -2.76767 0
M  V30 4792 O 485.785 3.63186 -4.08361 0
M  V30 4793 H 482.879 0.575652 -0.593762 0
M  V30 4794 H 485.425 0.527232 -1.61302 0
M  V30 4795 H 484.197 1.52709 -3.60272 0
M  V30 4796 H 483.82 2.95782 -2.65705 0
M  V30 4797 N 484.817 1.37938 0.762283 0
M  V30 4798 C 485.747 1.37176 1.88958 0
M  V30 4799 C 486.728 0.238945 1.68413 0
M  V30 4800 O 487.913 0.440726 1.89133 0
M  V30 4801 C 485.043 1.18742 3.2637 0
M  V30 4802 C 483.997 2.29136 3.61498 0
M  V30 4803 C 483.323 1.95816 4.97554 0
M  V30 4804 C 484.623 3.71363 3.6727 0
M  V30 4805 H 486.317 2.31509 1.89853 0
M  V30 4806 H 483.863 1.11438 0.912005 0
M  V30 4807 H 485.816 1.16837 4.04879 0
M  V30 4808 H 484.54 0.208683 3.25933 0
M  V30 4809 H 483.199 2.30213 2.85303 0
M  V30 4810 H 482.847 0.964475 4.93667 0
M  V30 4811 H 482.547 2.69745 5.22026 0
M  V30 4812 H 484.071 1.95513 5.78452 0
M  V30 4813 H 485.485 3.72364 4.35911 0
M  V30 4814 H 483.882 4.44425 4.03245 0
M  V30 4815 H 484.952 4.04305 2.67704 0
M  V30 4816 N 486.295 -0.989507 1.22664 0
M  V30 4817 C 487.541 -1.7321 1.05481 0
M  V30 4818 C 487.874 -1.89852 -0.408635 0
M  V30 4819 O 487.149 -1.44416 -1.30285 0
M  V30 4820 C 487.432 -3.1357 1.77047 0
M  V30 4821 C 487.285 -3.04555 3.31008 0
M  V30 4822 C 488.604 -4.12812 1.5256 0
M  V30 4823 H 485.723 -0.628697 0.384589 0
M  V30 4824 H 488.365 -1.15258 1.51049 0
M  V30 4825 H 486.515 -3.63046 1.3831 0
M  V30 4826 H 488.187 -2.62674 3.7921 0
M  V30 4827 H 486.43 -2.41278 3.6051 0
M  V30 4828 H 487.101 -4.03894 3.76263 0
M  V30 4829 H 489.577 -3.72106 1.86215 0
M  V30 4830 H 488.453 -5.09132 2.05124 0
M  V30 4831 H 488.714 -4.39711 0.458936 0
M  V30 4832 N 487.773 -1.03688 -1.18687 0
M  V30 4833 C 489.189 -0.755413 -1.4059 0
M  V30 4834 C 489.389 0.656659 -1.905 0
M  V30 4835 O 488.445 1.42144 -2.08689 0
M  V30 4836 C 489.758 -1.7983 -2.41001 0
M  V30 4837 C 491.306 -1.81877 -2.54735 0
M  V30 4838 C 491.781 -2.85148 -3.58406 0
M  V30 4839 N 493.272 -2.84015 -3.6591 0
M  V30 4840 C 494.007 -3.60573 -4.45841 0
M  V30 4841 N 493.503 -4.46871 -5.29413 0
M  V30 4842 N 495.296 -3.49079 -4.40568 0
M  V30 4843 H 487.447 -1.94818 -0.846148 0
M  V30 4844 H 489.71 -0.842727 -0.434184 0
M  V30 4845 H 489.416 -2.81097 -2.1137 0
M  V30 4846 H 489.29 -1.62727 -3.40294 0
M  V30 4847 H 491.677 -0.812836 -2.83685 0
M  V30 4848 H 491.758 -2.03057 -1.55568 0
M  V30 4849 H 491.402 -3.85918 -3.30197 0
M  V30 4850 H 491.332 -2.61224 -4.57241 0
M  V30 4851 H 493.823 -2.21431 -3.0623 0
M  V30 4852 H 494.136 -5.02007 -5.87545 0
M  V30 4853 H 492.481 -4.5094 -5.28846 0
M  V30 4854 H 495.672 -2.81066 -3.74325 0
M  V30 4855 H 495.845 -4.08994 -5.02621 0
M  V30 4856 N 489.251 1.34841 -0.815825 0
M  V30 4857 C 490.198 2.29644 -0.230664 0
M  V30 4858 C 491.168 1.53253 0.640533 0
M  V30 4859 O 492.353 1.81653 0.583672 0
M  V30 4860 C 489.493 3.39715 0.607275 0
M  V30 4861 C 488.606 4.31056 -0.28538 0
M  V30 4862 C 487.741 5.28225 0.561446 0
M  V30 4863 C 486.78 6.11204 -0.331035 0
M  V30 4864 N 485.917 7.00483 0.476302 0
M  V30 4865 H 490.757 2.79095 -1.0445 0
M  V30 4866 H 488.294 1.37351 -0.526595 0
M  V30 4867 H 490.252 4.02208 1.10835 0
M  V30 4868 H 488.882 2.91517 1.38629 0
M  V30 4869 H 487.934 3.69487 -0.904621 0
M  V30 4870 H 489.246 4.89239 -0.97193 0
M  V30 4871 H 488.4 5.96135 1.12728 0
M  V30 4872 H 487.139 4.70562 1.28153 0
M  V30 4873 H 486.144 5.42232 -0.909069 0
M  V30 4874 H 487.369 6.70947 -1.04912 0
M  V30 4875 H 485.315 6.45296 1.18019 0
M  V30 4876 H 485.232 7.55847 -0.152008 0
M  V30 4877 H 486.5 7.7273 1.02512 0
M  V30 4878 N 490.729 0.570148 1.46925 0
M  V30 4879 C 491.659 -0.158274 2.32963 0
M  V30 4880 C 492.64 -0.896093 1.44583 0
M  V30 4881 O 493.825 -0.874022 1.7342 0
M  V30 4882 C 490.955 -1.18055 3.26619 0
M  V30 4883 C 489.909 -0.558379 4.24342 0
M  V30 4884 C 489.235 -1.68623 5.07415 0
M  V30 4885 C 490.535 0.496295 5.19937 0
M  V30 4886 H 492.229 0.560046 2.94115 0
M  V30 4887 H 489.775 0.270775 1.41431 0
M  V30 4888 H 491.728 -1.69841 3.85658 0
M  V30 4889 H 490.452 -1.92899 2.63548 0
M  V30 4890 H 489.111 -0.0617157 3.66548 0
M  V30 4891 H 488.759 -2.42402 4.40738 0
M  V30 4892 H 488.459 -1.27564 5.73586 0
M  V30 4893 H 489.983 -2.20709 5.69315 0
M  V30 4894 H 491.397 0.0640052 5.73264 0
M  V30 4895 H 489.794 0.82649 5.94381 0
M  V30 4896 H 490.864 1.38735 4.6463 0
M  V30 4897 N 492.207 -1.54576 0.307264 0
M  V30 4898 C 493.455 -1.99867 -0.299574 0
M  V30 4899 C 493.776 -1.19714 -1.53927 0
M  V30 4900 O 493.046 -0.29472 -1.9367 0
M  V30 4901 H 491.626 -0.738299 -0.113683 0
M  V30 4902 H 494.288 -1.9032 0.420042 0
M  V30 4903 H 493.384 -3.06901 -0.567283 0
M  V30 4904 N 493.685 -0.035106 -1.57561 0
M  V30 4905 C 494.931 0.64318 -1.92331 0
M  V30 4906 C 495.264 1.71434 -0.912368 0
M  V30 4907 O 494.539 1.94395 0.0640303 0
M  V30 4908 C 494.822 1.25411 -3.37556 0
M  V30 4909 C 494.675 0.192109 -4.4939 0
M  V30 4910 C 495.994 2.17041 -3.82859 0
M  V30 4911 H 493.113 0.232341 -0.699419 0
M  V30 4912 H 495.755 -0.0935889 -1.89769 0
M  V30 4913 H 493.905 1.88205 -3.39869 0
M  V30 4914 H 495.577 -0.438849 -4.59208 0
M  V30 4915 H 493.82 -0.481725 -4.31117 0
M  V30 4916 H 494.491 0.659292 -5.48049 0
M  V30 4917 H 496.967 1.64228 -3.8232 0
M  V30 4918 H 495.843 2.56738 -4.85157 0
M  V30 4919 H 496.104 3.06401 -3.18702 0
M  V30 4920 N 495.163 1.55791 0.238111 0
M  V30 4921 C 496.093 1.94068 1.29846 0
M  V30 4922 C 497.074 0.806726 1.49753 0
M  V30 4923 O 498.259 1.06772 1.62214 0
M  V30 4924 C 495.389 2.24302 2.65153 0
M  V30 4925 C 494.343 3.40032 2.59927 0
M  V30 4926 C 493.669 3.55829 3.99111 0
M  V30 4927 C 494.969 4.75476 2.16148 0
M  V30 4928 H 496.663 2.82887 0.980563 0
M  V30 4929 H 494.209 1.36105 0.470253 0
M  V30 4930 H 496.162 2.4967 3.39475 0
M  V30 4931 H 494.886 1.32318 2.98596 0
M  V30 4932 H 493.545 3.14687 1.88063 0
M  V30 4933 H 493.193 2.6125 4.29834 0
M  V30 4934 H 492.893 4.3366 3.96501 0
M  V30 4935 H 494.417 3.83528 4.7512 0
M  V30 4936 H 495.831 5.00158 2.80205 0
M  V30 4937 H 494.228 5.56472 2.24631 0
M  V30 4938 H 495.298 4.71946 1.11333 0
M  V30 4939 N 496.642 -0.504142 1.49319 0
M  V30 4940 C 497.605 -1.5883 1.65244 0
M  V30 4941 C 498.605 -1.52009 0.524386 0
M  V30 4942 O 499.795 -1.55218 0.79077 0
M  V30 4943 C 496.927 -2.98481 1.64687 0
M  V30 4944 H 498.12 -1.4604 2.61939 0
M  V30 4945 H 495.673 -0.728144 1.38303 0
M  V30 4946 H 496.408 -3.16751 0.695644 0
M  V30 4947 H 496.193 -3.0484 2.46607 0
M  V30 4948 H 497.683 -3.77256 1.79075 0
M  V30 4949 N 498.12 -1.38341 -0.754957 0
M  V30 4950 C 499.368 -1.34208 -1.51105 0
M  V30 4951 C 499.689 0.0677634 -1.94882 0
M  V30 4952 O 498.959 1.01517 -1.67544 0
M  V30 4953 H 497.539 -0.493819 -0.560493 0
M  V30 4954 H 500.201 -1.73005 -0.897507 0
M  V30 4955 H 499.297 -1.99203 -2.4026 0
M  V30 4956 N 499.598 0.982988 -1.23187 0
M  V30 4957 C 500.844 1.72648 -1.06398 0
M  V30 4958 C 501.177 1.90066 0.398561 0
M  V30 4959 O 500.452 1.45105 1.29518 0
M  V30 4960 C 500.735 3.12627 -1.78707 0
M  V30 4961 C 500.588 3.02795 -3.32618 0
M  V30 4962 C 501.907 4.11997 -1.54747 0
M  V30 4963 H 499.026 0.626649 -0.387918 0
M  V30 4964 H 501.668 1.14455 -1.51658 0
M  V30 4965 H 499.818 3.62308 -1.40234 0
M  V30 4966 H 501.49 2.60659 -3.80598 0
M  V30 4967 H 499.733 2.39362 -3.61785 0
M  V30 4968 H 500.404 4.01893 -3.78399 0
M  V30 4969 H 502.88 3.71114 -1.88186 0
M  V30 4970 H 501.756 5.08037 -2.07821 0
M  V30 4971 H 502.017 4.39462 -0.482249 0
M  V30 4972 N 501.076 1.04316 1.18135 0
M  V30 4973 C 502.006 0.657299 2.24058 0
M  V30 4974 C 502.987 -0.340678 1.66654 0
M  V30 4975 O 504.172 -0.220223 1.92947 0
M  V30 4976 C 501.302 0.0220715 3.47293 0
M  V30 4977 C 500.256 0.943857 4.17463 0
M  V30 4978 C 499.582 0.172973 5.3442 0
M  V30 4979 C 500.882 2.26409 4.70677 0
M  V30 4980 H 502.576 1.5428 2.56589 0
M  V30 4981 H 500.122 0.743263 1.23335 0
M  V30 4982 H 502.075 -0.259607 4.206 0
M  V30 4983 H 500.799 -0.898323 3.14003 0
M  V30 4984 H 499.458 1.20996 3.46057 0
M  V30 4985 H 499.106 -0.749907 4.97379 0
M  V30 4986 H 498.806 0.787098 5.82304 0
M  V30 4987 H 500.33 -0.101628 6.10515 0
M  V30 4988 H 501.744 2.04294 5.35665 0
M  V30 4989 H 500.141 2.8314 5.29105 0
M  V30 4990 H 501.211 2.90883 3.87962 0
M  V30 4991 N 502.554 -1.34406 0.822964 0
M  V30 4992 C 503.779 -2.0304 0.423034 0
M  V30 4993 C 504.204 -1.61568 -0.963196 0
M  V30 4994 O 503.562 -0.800339 -1.62678 0
M  V30 4995 C 503.61 -3.56636 0.53321 0
M  V30 4996 O 502.714 -4.09971 -0.446939 0
M  V30 4997 H 502.055 -0.64075 0.174171 0
M  V30 4998 H 504.585 -1.71653 1.11339 0
M  V30 4999 H 504.595 -4.05945 0.408991 0
M  V30 5000 H 503.27 -3.86168 1.54425 0
M  V30 5001 H 501.847 -3.71835 -0.281601 0
M  V30 5002 N 504.032 -0.577932 -1.46621 0
M  V30 5003 C 505.309 0.00495287 -1.95599 0
M  V30 5004 C 505.689 1.46428 -1.5206 0
M  V30 5005 O 505.037 2.1517 -0.769046 0
M  V30 5006 C 505.247 -0.162114 -3.48623 0
M  V30 5007 C 506.595 -0.0274623 -4.24591 0
M  V30 5008 O 507.619 -0.0907067 -3.56084 0
M  V30 5009 O 506.478 0.1122 -5.46385 0
M  V30 5010 H 503.572 0.0525057 -0.825332 0
M  V30 5011 H 506.118 -0.645914 -1.56927 0
M  V30 5012 H 504.89 -1.17679 -3.73185 0
M  V30 5013 H 504.513 0.525407 -3.94113 0
M  V30 5014 N 505.51 1.54411 -0.315457 0
M  V30 5015 C 506.42 2.27737 0.56329 0
M  V30 5016 C 507.436 1.31787 1.13614 0
M  V30 5017 O 508.612 1.64791 1.15784 0
M  V30 5018 C 505.677 3.01478 1.71207 0
M  V30 5019 C 504.738 4.12997 1.17185 0
M  V30 5020 C 503.971 4.83212 2.26588 0
M  V30 5021 O 504.194 4.52884 3.46775 0
M  V30 5022 O 503.128 5.70299 1.92463 0
M  V30 5023 H 506.954 3.03683 -0.0319614 0
M  V30 5024 H 504.539 1.49178 -0.0814188 0
M  V30 5025 H 506.421 3.47683 2.38106 0
M  V30 5026 H 505.096 2.28414 2.29366 0
M  V30 5027 H 504.003 3.71159 0.468174 0
M  V30 5028 H 505.336 4.8808 0.635501 0
M  V30 5029 N 506.988 0.0434614 1.5754 0
M  V30 5030 C 507.918 -0.931651 2.14109 0
M  V30 5031 C 508.899 -1.32971 1.06079 0
M  V30 5032 O 510.084 -1.40579 1.33982 0
M  V30 5033 C 507.214 -2.20914 2.67982 0
M  V30 5034 C 506.168 -1.95139 3.80926 0
M  V30 5035 C 505.494 -3.29276 4.21285 0
M  V30 5036 C 506.794 -1.27913 5.06395 0
M  V30 5037 H 508.488 -0.460497 2.95837 0
M  V30 5038 H 506.034 -0.220058 1.42309 0
M  V30 5039 H 507.987 -2.89522 3.06194 0
M  V30 5040 H 506.711 -2.70221 1.83434 0
M  V30 5041 H 505.37 -1.28945 3.43175 0
M  V30 5042 H 505.018 -3.76369 3.33699 0
M  V30 5043 H 504.718 -3.12831 4.97404 0
M  V30 5044 H 506.242 -3.99129 4.62091 0
M  V30 5045 H 507.656 -1.86544 5.42102 0
M  V30 5046 H 506.053 -1.2182 5.87605 0
M  V30 5047 H 507.123 -0.254066 4.84234 0
M  V30 5048 N 508.466 -1.55915 -0.229846 0
M  V30 5049 C 509.877 -1.68809 -0.797531 0
M  V30 5050 C 510.228 -0.643995 -1.8533 0
M  V30 5051 O 509.353 0.206492 -2.15413 0
M  V30 5052 C 509.948 -3.06043 -1.45338 0
M  V30 5053 C 508.507 -3.20819 -1.96856 0
M  V30 5054 C 507.654 -2.6472 -0.825736 0
M  V30 5055 H 510.605 -1.58699 -0.00533733 0
M  V30 5056 H 510.626 -3.01438 -2.32196 0
M  V30 5057 H 510.138 -3.82012 -0.684743 0
M  V30 5058 H 508.239 -2.49704 -2.76548 0
M  V30 5059 H 508.352 -4.27937 -2.15423 0
M  V30 5060 H 506.716 -2.22985 -1.23084 0
M  V30 5061 H 507.499 -3.43229 -0.0699019 0
M  V30 5062 N 509.944 0.496216 -1.49584 0
M  V30 5063 C 511.19 1.25189 -1.59548 0
M  V30 5064 C 511.523 1.9212 -0.283466 0
M  V30 5065 O 510.798 1.80947 0.713324 0
M  V30 5066 C 511.081 2.31516 -2.75812 0
M  V30 5067 C 510.934 1.69054 -4.16822 0
M  V30 5068 C 512.253 3.3304 -2.87702 0
M  V30 5069 H 509.372 0.45379 -0.580727 0
M  V30 5070 H 512.014 0.549327 -1.81886 0
M  V30 5071 H 510.164 2.91438 -2.56897 0
M  V30 5072 H 511.836 1.12923 -4.47265 0
M  V30 5073 H 510.079 0.994485 -4.22247 0
M  V30 5074 H 510.75 2.462 -4.94054 0
M  V30 5075 H 513.226 2.83114 -3.04936 0
M  V30 5076 H 512.102 4.04794 -3.7072 0
M  V30 5077 H 512.363 3.95655 -1.97255 0
M  V30 5078 N 511.423 1.38739 0.74761 0
M  V30 5079 C 512.648 1.38702 1.54197 0
M  V30 5080 C 513.073 -0.019664 1.8809 0
M  V30 5081 O 512.431 -1.00333 1.51006 0
M  V30 5082 C 512.479 2.25492 2.814 0
M  V30 5083 O 511.583 1.67613 3.76802 0
M  V30 5084 H 510.924 0.472863 0.466151 0
M  V30 5085 H 513.454 1.82577 0.923413 0
M  V30 5086 H 513.464 2.39561 3.30264 0
M  V30 5087 H 512.139 3.27727 2.56062 0
M  V30 5088 H 510.716 1.62718 3.35526 0
M  V30 5089 N 512.901 -0.976442 1.23707 0
M  V30 5090 C 513.831 -2.08749 1.04624 0
M  V30 5091 C 514.812 -1.70057 -0.0380956 0
M  V30 5092 O 515.997 -1.93782 0.127308 0
M  V30 5093 C 513.127 -3.41335 0.640902 0
M  V30 5094 C 512.081 -3.93947 1.67302 0
M  V30 5095 C 511.407 -5.22774 1.12301 0
M  V30 5096 C 512.707 -4.22769 3.06697 0
M  V30 5097 H 514.401 -2.24972 1.97555 0
M  V30 5098 H 511.947 -1.08108 0.951247 0
M  V30 5099 H 513.9 -4.18489 0.494434 0
M  V30 5100 H 512.624 -3.24988 -0.324099 0
M  V30 5101 H 511.283 -3.18941 1.80755 0
M  V30 5102 H 510.931 -5.0278 0.148877 0
M  V30 5103 H 510.631 -5.58942 1.81267 0
M  V30 5104 H 512.155 -6.02546 0.988479 0
M  V30 5105 H 513.569 -4.90659 2.96524 0
M  V30 5106 H 511.966 -4.70147 3.72937 0
M  V30 5107 H 513.036 -3.29885 3.55392 0
M  V30 5108 N 514.379 -1.04941 -1.1758 0
M  V30 5109 C 515.604 -0.778253 -1.92245 0
M  V30 5110 C 516.029 0.659707 -1.76152 0
M  V30 5111 O 515.387 1.45803 -1.07755 0
M  V30 5112 C 515.435 -1.16051 -3.41416 0
M  V30 5113 O 514.539 -0.291153 -4.11371 0
M  V30 5114 H 513.88 -0.285619 -0.599431 0
M  V30 5115 H 516.41 -1.40159 -1.49052 0
M  V30 5116 H 516.42 -1.12619 -3.92149 0
M  V30 5117 H 515.095 -2.208 -3.52449 0
M  V30 5118 H 513.672 -0.385851 -3.70898 0
M  V30 5119 N 515.857 1.33968 -0.830081 0
M  V30 5120 C 517.103 1.98357 -0.422191 0
M  V30 5121 C 517.436 1.65633 1.01387 0
M  V30 5122 O 516.711 0.931648 1.70735 0
M  V30 5123 C 516.994 3.54492 -0.633043 0
M  V30 5124 C 516.847 3.96934 -2.11574 0
M  V30 5125 C 518.166 4.40039 -0.0735584 0
M  V30 5126 H 515.285 0.720544 -0.154871 0
M  V30 5127 H 517.927 1.58749 -1.04397 0
M  V30 5128 H 516.077 3.88361 -0.103775 0
M  V30 5129 H 517.749 3.73363 -2.7092 0
M  V30 5130 H 515.992 3.46984 -2.60354 0
M  V30 5131 H 516.663 5.05651 -2.21406 0
M  V30 5132 H 519.139 4.12764 -0.52585 0
M  V30 5133 H 518.015 5.48327 -0.250841 0
M  V30 5134 H 518.276 4.30124 1.02202 0
M  V30 5135 N 517.335 0.585699 1.46312 0
M  V30 5136 C 518.267 -0.183687 2.28463 0
M  V30 5137 C 519.28 -0.85264 1.38686 0
M  V30 5138 O 520.469 -0.721701 1.6326 0
M  V30 5139 C 517.569 -1.27977 3.13808 0
M  V30 5140 C 516.742 -0.702164 4.31727 0
M  V30 5141 C 515.801 -1.68633 4.98447 0
M  V30 5142 O 514.827 -1.22121 5.55945 0
M  V30 5143 N 516.029 -3.02047 4.95729 0
M  V30 5144 H 518.794 0.521127 2.95134 0
M  V30 5145 H 516.355 0.423673 1.56258 0
M  V30 5146 H 518.347 -1.9375 3.55307 0
M  V30 5147 H 516.917 -1.8874 2.4919 0
M  V30 5148 H 516.137 0.1331 3.93975 0
M  V30 5149 H 517.425 -0.296101 5.07938 0
M  V30 5150 H 516.823 -3.42457 4.50266 0
M  V30 5151 H 515.38 -3.63301 5.41161 0
M  V30 5152 N 518.813 -1.54241 0.323641 0
M  V30 5153 C 520.059 -2.00867 -0.279323 0
M  V30 5154 C 520.392 -1.21146 -1.5178 0
M  V30 5155 O 519.667 -0.29378 -1.92269 0
M  V30 5156 C 519.95 -3.54837 -0.613387 0
M  V30 5157 C 519.803 -4.45284 0.635803 0
M  V30 5158 C 521.122 -4.16186 -1.43099 0
M  V30 5159 H 518.241 -0.730177 -0.100049 0
M  V30 5160 H 520.883 -1.84829 0.440235 0
M  V30 5161 H 519.033 -3.68634 -1.22641 0
M  V30 5162 H 520.705 -4.43357 1.27406 0
M  V30 5163 H 518.948 -4.14956 1.26466 0
M  V30 5164 H 519.619 -5.5084 0.357597 0
M  V30 5165 H 522.095 -4.05964 -0.912814 0
M  V30 5166 H 520.971 -5.24031 -1.6335 0
M  V30 5167 H 521.232 -3.69516 -2.42715 0
M  V30 5168 N 520.291 -0.0518155 -1.57515 0
M  V30 5169 C 521.707 0.304735 -1.56664 0
M  V30 5170 C 521.907 1.71395 -1.05953 0
M  V30 5171 O 520.963 2.42123 -0.716414 0
M  V30 5172 C 522.276 0.132614 -3.00407 0
M  V30 5173 C 523.824 0.20367 -3.12337 0
M  V30 5174 C 524.299 0.0600706 -4.57961 0
M  V30 5175 N 525.79 0.116326 -4.63054 0
M  V30 5176 C 526.525 0.0293363 -5.73392 0
M  V30 5177 N 526.021 -0.110038 -6.92713 0
M  V30 5178 N 527.814 0.0849651 -5.62036 0
M  V30 5179 H 519.965 -0.973056 -1.888 0
M  V30 5180 H 522.228 -0.377781 -0.869474 0
M  V30 5181 H 521.934 -0.839019 -3.41546 0
M  V30 5182 H 521.808 0.893376 -3.66468 0
M  V30 5183 H 524.195 1.16578 -2.71097 0
M  V30 5184 H 524.276 -0.587857 -2.48954 0
M  V30 5185 H 523.92 -0.898715 -4.99886 0
M  V30 5186 H 523.85 0.87075 -5.19351 0
M  V30 5187 H 526.341 0.22327 -3.7724 0
M  V30 5188 H 526.654 -0.169104 -7.72615 0
M  V30 5189 H 524.999 -0.145132 -6.94848 0
M  V30 5190 H 528.19 0.192411 -4.67704 0
M  V30 5191 H 528.363 0.0137131 -6.47999 0
M  V30 5192 N 521.769 1.56035 0.221574 0
M  V30 5193 C 523.017 1.78693 0.944102 0
M  V30 5194 C 523.338 0.620317 1.8487 0
M  V30 5195 O 522.608 -0.362784 1.92512 0
M  V30 5196 H 521.188 0.659082 0.351597 0
M  V30 5197 H 523.85 1.93497 0.233435 0
M  V30 5198 H 522.946 2.70837 1.55093 0
M  V30 5199 N 523.247 -0.488276 1.49845 0
M  V30 5200 C 524.157 -1.61451 1.70207 0
M  V30 5201 C 525.173 -1.63877 0.584846 0
M  V30 5202 O 526.349 -1.82063 0.861107 0
M  V30 5203 C 523.414 -2.9776 1.77594 0
M  V30 5204 C 522.475 -3.05861 3.01243 0
M  V30 5205 C 521.708 -4.35668 3.08268 0
M  V30 5206 O 521.931 -5.25197 2.22541 0
M  V30 5207 O 520.865 -4.49005 4.00847 0
M  V30 5208 H 524.691 -1.47199 2.65643 0
M  V30 5209 H 522.276 -0.665939 1.33737 0
M  V30 5210 H 524.158 -3.7875 1.84732 0
M  V30 5211 H 522.833 -3.12248 0.8534 0
M  V30 5212 H 521.74 -2.24012 2.99616 0
M  V30 5213 H 523.073 -2.96304 3.9302 0
M  V30 5214 N 524.725 -1.39134 -0.740242 0
M  V30 5215 C 525.655 -1.40165 -1.86751 0
M  V30 5216 C 526.636 -0.265708 -1.68012 0
M  V30 5217 O 527.821 -0.47076 -1.88408 0
M  V30 5218 C 524.951 -1.2392 -3.2444 0
M  V30 5219 C 523.905 -2.34858 -3.57807 0
M  V30 5220 C 523.231 -2.03707 -4.94376 0
M  V30 5221 C 524.531 -3.77159 -3.61315 0
M  V30 5222 H 526.225 -2.345 -1.86145 0
M  V30 5223 H 523.771 -1.12875 -0.89416 0
M  V30 5224 H 525.724 -1.23263 -4.02969 0
M  V30 5225 H 524.448 -0.26051 -3.25559 0
M  V30 5226 H 523.107 -2.34723 -2.81604 0
M  V30 5227 H 522.755 -1.04289 -4.9207 0
M  V30 5228 H 522.455 -2.78016 -5.17669 0
M  V30 5229 H 523.979 -2.04691 -5.75268 0
M  V30 5230 H 525.393 -3.79252 -4.29931 0
M  V30 5231 H 523.79 -4.50784 -3.96124 0
M  V30 5232 H 524.86 -4.08513 -2.61238 0
M  V30 5233 N 526.204 0.969867 -1.24223 0
M  V30 5234 C 527.167 2.04564 -1.03373 0
M  V30 5235 C 528.167 1.60798 0.00819206 0
M  V30 5236 O 529.357 1.72641 -0.232567 0
M  V30 5237 C 526.489 3.36163 -0.566343 0
M  V30 5238 H 527.682 2.24494 -1.98853 0
M  V30 5239 H 525.235 1.1448 -1.06415 0
M  V30 5240 H 525.97 3.21925 0.391751 0
M  V30 5241 H 525.755 3.69273 -1.31834 0
M  V30 5242 H 527.245 4.1526 -0.441435 0
M  V30 5243 N 527.682 1.05563 1.17022 0
M  V30 5244 C 528.645 0.664098 2.19368 0
M  V30 5245 C 529.645 -0.286358 1.5823 0
M  V30 5246 O 530.835 -0.069728 1.7406 0
M  V30 5247 C 527.967 -0.0239932 3.40892 0
M  V30 5248 H 529.16 1.57 2.55521 0
M  V30 5249 H 526.713 0.849964 1.31169 0
M  V30 5250 H 527.448 -0.942988 3.10287 0
M  V30 5251 H 527.233 0.659351 3.86516 0
M  V30 5252 H 528.723 -0.283909 4.16634 0
M  V30 5253 N 529.16 -1.33526 0.837174 0
M  V30 5254 C 530.07 -2.33023 0.271568 0
M  V30 5255 C 531.086 -1.63272 -0.601514 0
M  V30 5256 O 532.262 -1.94939 -0.506038 0
M  V30 5257 C 529.327 -3.42382 -0.545448 0
M  V30 5258 C 528.388 -4.27857 0.351709 0
M  V30 5259 C 527.621 -5.31994 -0.426409 0
M  V30 5260 O 527.844 -5.45763 -1.65828 0
M  V30 5261 O 526.778 -6.01572 0.1987 0
M  V30 5262 H 530.604 -2.83256 1.09545 0
M  V30 5263 H 528.189 -1.36837 0.599655 0
M  V30 5264 H 530.071 -4.09122 -1.00979 0
M  V30 5265 H 528.746 -2.94369 -1.34641 0
M  V30 5266 H 527.653 -3.6399 0.863853 0
M  V30 5267 H 528.986 -4.79349 1.1174 0
M  V30 5268 N 530.638 -0.59345 -1.46 0
M  V30 5269 C 531.548 0.135817 -2.34207 0
M  V30 5270 C 532.564 0.875008 -1.50398 0
M  V30 5271 O 533.74 0.835778 -1.83239 0
M  V30 5272 C 530.805 1.12977 -3.27776 0
M  V30 5273 C 529.866 0.394081 -4.27487 0
M  V30 5274 C 529.099 1.34068 -5.16586 0
M  V30 5275 O 529.322 2.5778 -5.08828 0
M  V30 5276 O 528.256 0.845426 -5.95933 0
M  V30 5277 H 532.082 -0.588691 -2.9794 0
M  V30 5278 H 529.667 -0.353784 -1.45151 0
M  V30 5279 H 531.549 1.70261 -3.85473 0
M  V30 5280 H 530.224 1.83556 -2.66625 0
M  V30 5281 H 529.131 -0.220869 -3.73447 0
M  V30 5282 H 530.464 -0.270939 -4.91454 0
M  V30 5283 N 532.116 1.54067 -0.331816 0
M  V30 5284 C 533.362 2.01012 0.268667 0
M  V30 5285 C 533.695 1.2195 1.51136 0
M  V30 5286 O 532.97 0.303972 1.9211 0
M  V30 5287 C 533.253 3.55158 0.59456 0
M  V30 5288 C 533.106 4.4494 -0.659409 0
M  V30 5289 C 534.425 4.16939 1.4089 0
M  V30 5290 H 531.544 0.730698 0.0961756 0
M  V30 5291 H 534.186 1.84593 -0.450031 0
M  V30 5292 H 532.336 3.6928 1.20685 0
M  V30 5293 H 534.008 4.42675 -1.29756 0
M  V30 5294 H 532.251 4.1428 -1.28665 0
M  V30 5295 H 532.922 5.50643 -0.386804 0
M  V30 5296 H 535.398 4.06443 0.891272 0
M  V30 5297 H 534.274 5.24889 1.60569 0
M  V30 5298 H 534.535 3.70798 2.40752 0
M  V30 5299 N 533.594 0.0601682 1.57485 0
M  V30 5300 C 534.504 -0.926121 2.15546 0
M  V30 5301 C 535.52 -1.33532 1.11558 0
M  V30 5302 O 536.696 -1.4104 1.4377 0
M  V30 5303 C 533.761 -2.17952 2.69625 0
M  V30 5304 C 532.822 -1.82783 3.88444 0
M  V30 5305 C 532.055 -3.02148 4.39935 0
M  V30 5306 O 532.278 -4.15803 3.90466 0
M  V30 5307 O 531.212 -2.82639 5.31412 0
M  V30 5308 H 535.038 -0.462289 3.00161 0
M  V30 5309 H 532.623 -0.162246 1.48516 0
M  V30 5310 H 534.505 -2.91474 3.04337 0
M  V30 5311 H 533.18 -2.63456 1.88077 0
M  V30 5312 H 532.087 -1.06549 3.58606 0
M  V30 5313 H 533.42 -1.42072 4.7125 0
M  V30 5314 N 535.072 -1.5615 -0.213296 0
M  V30 5315 C 536.318 -1.79812 -0.937849 0
M  V30 5316 C 536.651 -0.631201 -1.83656 0
M  V30 5317 O 535.926 0.369165 -1.90964 0
M  V30 5318 C 536.209 -3.13613 -1.76972 0
M  V30 5319 C 536.062 -4.40766 -0.89695 0
M  V30 5320 C 537.381 -3.43931 -2.7459 0
M  V30 5321 H 534.5 -0.654138 -0.339518 0
M  V30 5322 H 537.142 -1.88877 -0.20623 0
M  V30 5323 H 535.292 -3.06015 -2.39347 0
M  V30 5324 H 536.964 -4.60392 -0.289306 0
M  V30 5325 H 535.207 -4.33326 -0.202756 0
M  V30 5326 H 535.878 -5.30843 -1.51358 0
M  V30 5327 H 538.354 -3.5171 -2.22349 0
M  V30 5328 H 537.23 -4.38706 -3.29891 0
M  V30 5329 H 537.491 -2.6651 -3.52739 0
M  V30 5330 N 536.55 0.480323 -1.50102 0
M  V30 5331 C 537.48 1.58769 -1.71215 0
M  V30 5332 C 538.461 1.60583 -0.560997 0
M  V30 5333 O 539.646 1.76996 -0.799127 0
M  V30 5334 C 536.776 2.97148 -1.79778 0
M  V30 5335 C 535.73 3.10201 -2.94888 0
M  V30 5336 C 535.056 4.50137 -2.88584 0
M  V30 5337 C 536.356 2.88283 -4.35534 0
M  V30 5338 H 538.05 1.41354 -2.6393 0
M  V30 5339 H 535.596 0.678591 -1.27008 0
M  V30 5340 H 537.549 3.74536 -1.93133 0
M  V30 5341 H 536.273 3.15699 -0.836772 0
M  V30 5342 H 534.932 2.35244 -2.81169 0
M  V30 5343 H 534.58 4.65593 -1.90349 0
M  V30 5344 H 534.28 4.59808 -3.65856 0
M  V30 5345 H 535.804 5.29558 -3.03976 0
M  V30 5346 H 537.218 3.55427 -4.49827 0
M  V30 5347 H 535.615 3.09408 -5.14186 0
M  V30 5348 H 536.685 1.84219 -4.48544 0
M  V30 5349 N 538.028 1.39524 0.732853 0
M  V30 5350 C 539.444 1.21176 1.03868 0
M  V30 5351 C 539.644 0.0748448 2.01361 0
M  V30 5352 O 538.7 -0.57281 2.45917 0
M  V30 5353 C 540.013 2.54667 1.59892 0
M  V30 5354 C 541.561 2.6153 1.71962 0
M  V30 5355 C 542.036 3.95248 2.31394 0
M  V30 5356 N 543.527 3.96899 2.38801 0
M  V30 5357 C 544.262 4.97138 2.85729 0
M  V30 5358 N 543.758 6.07775 3.32537 0
M  V30 5359 N 545.551 4.84516 2.84957 0
M  V30 5360 H 537.702 2.12225 0.086304 0
M  V30 5361 H 539.965 0.942614 0.100907 0
M  V30 5362 H 539.671 3.38423 0.95721 0
M  V30 5363 H 539.545 2.74538 2.58668 0
M  V30 5364 H 541.932 1.78156 2.35254 0
M  V30 5365 H 542.013 2.45507 0.718327 0
M  V30 5366 H 541.657 4.79054 1.68729 0
M  V30 5367 H 541.587 4.08593 3.32204 0
M  V30 5368 H 544.078 3.16998 2.05719 0
M  V30 5369 H 544.391 6.8017 3.66862 0
M  V30 5370 H 542.736 6.11366 3.30541 0
M  V30 5371 H 545.927 3.97185 2.47713 0
M  V30 5372 H 546.1 5.62783 3.21215 0
M  V30 5373 N 539.506 -0.963266 1.24736 0
M  V30 5374 C 540.436 -2.07628 1.06832 0
M  V30 5375 C 541.417 -1.70088 -0.0200566 0
M  V30 5376 O 542.602 -1.93636 0.147854 0
M  V30 5377 C 539.732 -3.40636 0.677069 0
M  V30 5378 C 538.686 -3.9215 1.71471 0
M  V30 5379 C 538.012 -5.21553 1.1784 0
M  V30 5380 C 539.312 -4.19493 3.11164 0
M  V30 5381 H 541.006 -2.22864 1.9993 0
M  V30 5382 H 538.552 -1.07093 0.96266 0
M  V30 5383 H 540.505 -4.17941 0.538792 0
M  V30 5384 H 539.229 -3.25313 -0.289612 0
M  V30 5385 H 537.888 -3.17005 1.84128 0
M  V30 5386 H 537.536 -5.02593 0.202195 0
M  V30 5387 H 537.236 -5.56988 1.87185 0
M  V30 5388 H 538.76 -6.01463 1.05233 0
M  V30 5389 H 540.174 -4.87487 3.01711 0
M  V30 5390 H 538.571 -4.66165 3.77902 0
M  V30 5391 H 539.641 -3.26097 3.58871 0
M  V30 5392 N 540.985 -1.06182 -1.16461 0
M  V30 5393 C 542.21 -0.798599 -1.91408 0
M  V30 5394 C 542.635 0.640987 -1.76842 0
M  V30 5395 O 541.993 1.44652 -1.09296 0
M  V30 5396 C 542.041 -1.19665 -3.40165 0
M  V30 5397 O 541.145 -0.334768 -4.11039 0
M  V30 5398 H 540.486 -0.291961 -0.596368 0
M  V30 5399 H 543.016 -1.41732 -1.47557 0
M  V30 5400 H 543.026 -1.16772 -3.90933 0
M  V30 5401 H 541.701 -2.24526 -3.50087 0
M  V30 5402 H 540.278 -0.425168 -3.70468 0
M  V30 5403 N 542.463 1.3308 -0.844243 0
M  V30 5404 C 543.426 2.27403 -0.286485 0
M  V30 5405 C 544.426 1.51179 0.547872 0
M  V30 5406 O 545.616 1.70421 0.360886 0
M  V30 5407 C 542.748 3.35653 0.595813 0
M  V30 5408 H 543.941 2.78248 -1.11885 0
M  V30 5409 H 541.494 1.43574 -0.617749 0
M  V30 5410 H 542.229 2.90058 1.4504 0
M  V30 5411 H 542.014 3.921 -0.00125994 0
M  V30 5412 H 543.504 4.05958 0.979168 0
M  V30 5413 N 543.941 0.601185 1.45683 0
M  V30 5414 C 544.871 -0.108824 2.33246 0
M  V30 5415 C 545.852 -0.865223 1.46451 0
M  V30 5416 O 547.037 -0.83704 1.75235 0
M  V30 5417 C 544.167 -1.11101 3.2905 0
M  V30 5418 C 543.121 -0.468244 4.25431 0
M  V30 5419 C 542.447 -1.57822 5.10878 0
M  V30 5420 C 543.747 0.606469 5.18767 0
M  V30 5421 H 545.441 0.622306 2.92861 0
M  V30 5422 H 542.987 0.300714 1.40825 0
M  V30 5423 H 544.94 -1.61622 3.89174 0
M  V30 5424 H 543.664 -1.87265 2.67581 0
M  V30 5425 H 542.323 0.0160484 3.66596 0
M  V30 5426 H 541.971 -2.32998 4.45781 0
M  V30 5427 H 541.671 -1.15369 5.76163 0
M  V30 5428 H 543.195 -2.08583 5.73869 0
M  V30 5429 H 544.609 0.185589 5.73 0
M  V30 5430 H 543.006 0.952381 5.92494 0
M  V30 5431 H 544.076 1.48559 4.61582 0
M  V30 5432 N 545.419 -1.53889 0.339982 0
M  V30 5433 C 546.835 -1.59595 -0.0120752 0
M  V30 5434 C 547.035 -1.35605 -1.49042 0
M  V30 5435 O 546.091 -1.14856 -2.24865 0
M  V30 5436 C 547.404 -2.9774 0.420898 0
M  V30 5437 C 548.952 -3.1077 0.37294 0
M  V30 5438 C 549.427 -4.51286 0.781327 0
M  V30 5439 N 550.918 -4.57325 0.735374 0
M  V30 5440 C 551.653 -5.64194 1.02336 0
M  V30 5441 N 551.149 -6.7893 1.37933 0
M  V30 5442 N 552.942 -5.54051 0.947838 0
M  V30 5443 H 545.093 -1.67738 1.30299 0
M  V30 5444 H 547.356 -0.785385 0.530918 0
M  V30 5445 H 547.062 -3.20349 1.45152 0
M  V30 5446 H 546.936 -3.76639 -0.205721 0
M  V30 5447 H 549.323 -2.87886 -0.648505 0
M  V30 5448 H 549.404 -2.33939 1.03472 0
M  V30 5449 H 549.048 -4.74905 1.80077 0
M  V30 5450 H 548.978 -5.26511 0.0970679 0
M  V30 5451 H 551.469 -3.74931 0.472773 0
M  V30 5452 H 551.782 -7.56392 1.58402 0
M  V30 5453 H 550.127 -6.80386 1.41774 0
M  V30 5454 H 553.318 -4.63293 0.669115 0
M  V30 5455 H 553.491 -6.37246 1.17563 0
M  V30 5456 N 546.897 -0.0685191 -1.57451 0
M  V30 5457 C 548.145 0.60016 -1.92983 0
M  V30 5458 C 548.466 1.70348 -0.949028 0
M  V30 5459 O 547.736 1.959 0.00335647 0
M  V30 5460 H 546.316 0.224682 -0.712409 0
M  V30 5461 H 548.978 -0.125605 -1.94495 0
M  V30 5462 H 548.074 1.02759 -2.94698 0
M  V30 5463 N 548.375 1.56261 0.205012 0
M  V30 5464 C 549.305 1.96779 1.257 0
M  V30 5465 C 550.286 0.838309 1.48008 0
M  V30 5466 O 551.471 1.10189 1.59913 0
M  V30 5467 C 548.601 2.29876 2.60335 0
M  V30 5468 C 547.555 3.45469 2.52656 0
M  V30 5469 C 546.881 3.64215 3.91473 0
M  V30 5470 C 548.181 4.79954 2.06014 0
M  V30 5471 H 549.875 2.84904 0.920338 0
M  V30 5472 H 547.421 1.37072 0.441277 0
M  V30 5473 H 549.374 2.56814 3.34102 0
M  V30 5474 H 548.098 1.38622 2.95722 0
M  V30 5475 H 546.757 3.18605 1.81345 0
M  V30 5476 H 546.405 2.70309 4.24196 0
M  V30 5477 H 546.105 4.41973 3.87213 0
M  V30 5478 H 547.629 3.93519 4.66878 0
M  V30 5479 H 549.043 5.05989 2.69533 0
M  V30 5480 H 547.44 5.61111 2.12777 0
M  V30 5481 H 548.51 4.74201 1.01297 0
M  V30 5482 N 549.853 -0.472356 1.50355 0
M  V30 5483 C 551.1 -1.22453 1.61281 0
M  V30 5484 C 551.428 -1.91972 0.31256 0
M  V30 5485 O 550.683 -1.82696 -0.701475 0
M  V30 5486 C 550.982 -2.29257 2.74182 0
M  V30 5487 C 550.648 -1.76999 4.14708 0
M  V30 5488 C 549.31 -1.62467 4.52944 0
M  V30 5489 C 551.662 -1.38215 5.0254 0
M  V30 5490 C 548.99 -1.07574 5.76754 0
M  V30 5491 C 551.342 -0.847638 6.26895 0
M  V30 5492 C 550.006 -0.688946 6.63935 0
M  V30 5493 H 549.276 -0.448087 0.590168 0
M  V30 5494 H 551.923 -0.520744 1.84284 0
M  V30 5495 H 550.228 -3.05538 2.45263 0
M  V30 5496 H 551.925 -2.87212 2.7984 0
M  V30 5497 H 548.515 -1.89276 3.84542 0
M  V30 5498 H 552.699 -1.48276 4.73633 0
M  V30 5499 H 547.955 -0.940237 6.04127 0
M  V30 5500 H 552.129 -0.538455 6.94315 0
M  V30 5501 H 549.756 -0.261435 7.5975 0
M  V30 5502 N 551.331 -1.39911 -0.725443 0
M  V30 5503 C 552.556 -1.41137 -1.5197 0
M  V30 5504 C 552.981 -0.010262 -1.88097 0
M  V30 5505 O 552.339 0.979184 -1.52583 0
M  V30 5506 C 552.387 -2.2994 -2.77777 0
M  V30 5507 O 551.491 -1.73586 -3.74088 0
M  V30 5508 H 550.832 -0.480219 -0.458569 0
M  V30 5509 H 553.362 -1.84023 -0.894249 0
M  V30 5510 H 553.372 -2.44785 -3.26411 0
M  V30 5511 H 552.047 -3.31759 -2.50816 0
M  V30 5512 H 550.624 -1.68035 -3.32894 0
M  V30 5513 N 552.809 0.956637 -1.25245 0
M  V30 5514 C 553.772 2.03457 -1.05537 0
M  V30 5515 C 554.772 1.60798 -0.00886317 0
M  V30 5516 O 555.962 1.72384 -0.250865 0
M  V30 5517 C 553.094 3.35543 -0.601965 0
M  V30 5518 H 554.287 2.22372 -2.01223 0
M  V30 5519 H 551.84 1.13344 -1.07623 0
M  V30 5520 H 552.575 3.22323 0.357584 0
M  V30 5521 H 552.36 3.67854 -1.35743 0
M  V30 5522 H 553.85 4.14769 -0.485454 0
M  V30 5523 N 554.287 1.06798 1.15896 0
M  V30 5524 C 555.533 0.788934 1.86825 0
M  V30 5525 C 555.866 -0.683084 1.8179 0
M  V30 5526 O 555.141 -1.50086 1.23711 0
M  V30 5527 C 555.424 1.29065 3.36176 0
M  V30 5528 C 555.277 2.8268 3.49874 0
M  V30 5529 C 556.596 0.902655 4.30744 0
M  V30 5530 H 553.715 0.288066 0.678371 0
M  V30 5531 H 556.357 1.32479 1.36195 0
M  V30 5532 H 554.507 0.834806 3.79425 0
M  V30 5533 H 556.179 3.36511 3.15528 0
M  V30 5534 H 554.422 3.21157 2.91617 0
M  V30 5535 H 555.093 3.12852 4.54783 0
M  V30 5536 H 557.569 1.29535 3.95424 0
M  V30 5537 H 556.445 1.28111 5.3374 0
M  V30 5538 H 556.706 -0.191951 4.41683 0
M  V30 5539 N 555.766 -1.3263 0.851289 0
M  V30 5540 C 557.015 -1.96633 0.449267 0
M  V30 5541 C 557.328 -1.68131 -0.999562 0
M  V30 5542 O 558.534 -2.25845 -1.50685 0
M  V30 5543 C 556.99 -3.51946 0.752446 0
M  V30 5544 C 556.598 -3.89311 2.21678 0
M  V30 5545 C 558.342 -4.22437 0.417983 0
M  V30 5546 C 556.249 -5.37655 2.46336 0
M  V30 5547 H 555.179 -0.735888 0.164269 0
M  V30 5548 H 557.83 -1.51073 1.0416 0
M  V30 5549 H 556.212 -3.95899 0.0895858 0
M  V30 5550 H 557.386 -3.56378 2.92115 0
M  V30 5551 H 555.701 -3.31836 2.51543 0
M  V30 5552 H 558.298 -5.31549 0.579674 0
M  V30 5553 H 558.641 -4.11349 -0.640115 0
M  V30 5554 H 559.174 -3.84057 1.03659 0
M  V30 5555 H 555.913 -5.5376 3.50757 0
M  V30 5556 H 555.433 -5.72005 1.80473 0
M  V30 5557 H 557.112 -6.04695 2.30115 0
M  V30 5558 N 557.244 -0.608902 -1.45362 0
M  V30 5559 C 558.154 0.110969 -2.34337 0
M  V30 5560 C 559.17 0.859007 -1.51318 0
M  V30 5561 O 560.346 0.816296 -1.84116 0
M  V30 5562 C 557.411 1.09494 -3.28956 0
M  V30 5563 C 556.472 0.348718 -4.27881 0
M  V30 5564 C 555.705 1.28582 -5.17979 0
M  V30 5565 O 555.928 2.52369 -5.11533 0
M  V30 5566 O 554.862 0.782172 -5.96796 0
M  V30 5567 H 558.688 -0.620258 -2.97299 0
M  V30 5568 H 556.273 -0.36916 -1.44767 0
M  V30 5569 H 558.155 1.66163 -3.87257 0
M  V30 5570 H 556.83 1.80717 -2.68557 0
M  V30 5571 H 555.737 -0.260465 -3.73192 0
M  V30 5572 H 557.07 -0.323049 -4.91139 0
M  V30 5573 N 558.722 1.53707 -0.348139 0
M  V30 5574 C 559.999 1.93247 0.302475 0
M  V30 5575 C 560.379 1.28012 1.67857 0
M  V30 5576 O 559.727 0.43274 2.24365 0
M  V30 5577 C 559.937 3.47031 0.370159 0
M  V30 5578 C 561.285 4.20066 0.61882 0
M  V30 5579 O 562.309 3.53319 0.452087 0
M  V30 5580 O 561.168 5.38318 0.94215 0
M  V30 5581 H 558.262 0.807736 0.177458 0
M  V30 5582 H 560.808 1.64927 -0.399651 0
M  V30 5583 H 559.58 3.86745 -0.59534 0
M  V30 5584 H 559.203 3.81532 1.11888 0
M  V30 5585 N 560.2 0.0768682 1.57412 0
M  V30 5586 C 561.163 -0.873949 2.11884 0
M  V30 5587 C 562.163 -1.22301 1.04398 0
M  V30 5588 O 563.353 -1.15545 1.30365 0
M  V30 5589 C 560.485 -2.17575 2.62438 0
M  V30 5590 H 561.678 -0.401278 2.97203 0
M  V30 5591 H 559.231 -0.171904 1.55352 0
M  V30 5592 H 559.966 -2.69368 1.80587 0
M  V30 5593 H 559.751 -1.93534 3.41009 0
M  V30 5594 H 561.241 -2.85631 3.04639 0
M  V30 5595 N 561.678 -1.56367 -0.196722 0
M  V30 5596 C 562.924 -1.80796 -0.918725 0
M  V30 5597 C 563.257 -0.650645 -1.82976 0
M  V30 5598 O 562.532 0.348889 -1.91345 0
M  V30 5599 C 562.815 -3.15472 -1.73636 0
M  V30 5600 C 562.668 -4.41693 -0.85015 0
M  V30 5601 C 563.987 -3.46824 -2.70927 0
M  V30 5602 H 561.106 -0.657702 -0.332561 0
M  V30 5603 H 563.748 -1.89086 -0.186186 0
M  V30 5604 H 561.898 -3.08536 -2.36088 0
M  V30 5605 H 563.57 -4.60673 -0.240459 0
M  V30 5606 H 561.813 -4.33517 -0.156785 0
M  V30 5607 H 562.484 -5.32419 -1.45719 0
M  V30 5608 H 564.96 -3.54049 -2.18607 0
M  V30 5609 H 563.836 -4.4218 -3.25219 0
M  V30 5610 H 564.097 -2.70236 -3.49893 0
M  V30 5611 N 563.156 0.464375 -1.50603 0
M  V30 5612 C 564.384 1.23907 -1.65695 0
M  V30 5613 C 564.799 1.85658 -0.343027 0
M  V30 5614 O 564.156 1.69529 0.675739 0
M  V30 5615 C 564.207 2.3429 -2.75301 0
M  V30 5616 O 563.928 1.7507 -4.01599 0
M  V30 5617 C 565.429 3.25051 -3.01424 0
M  V30 5618 H 562.649 0.374485 -0.556778 0
M  V30 5619 H 565.193 0.55353 -1.96866 0
M  V30 5620 H 563.348 2.98607 -2.46804 0
M  V30 5621 H 563.762 2.47812 -4.62266 0
M  V30 5622 H 565.236 3.98699 -3.81763 0
M  V30 5623 H 565.713 3.84227 -2.12758 0
M  V30 5624 H 566.319 2.66463 -3.31477 0
M  V30 5625 N 564.634 1.40294 0.718013 0
M  V30 5626 C 565.881 1.3844 1.47786 0
M  V30 5627 C 566.209 -0.0140838 1.94495 0
M  V30 5628 O 565.464 -0.998165 1.68331 0
M  V30 5629 C 565.763 2.31814 2.72024 0
M  V30 5630 C 565.429 3.79117 2.44093 0
M  V30 5631 C 564.091 4.19249 2.36185 0
M  V30 5632 C 566.443 4.72212 2.20602 0
M  V30 5633 C 563.771 5.50516 2.02851 0
M  V30 5634 C 566.123 6.03775 1.88781 0
M  V30 5635 C 564.787 6.42953 1.79354 0
M  V30 5636 H 564.057 0.506588 0.540786 0
M  V30 5637 H 566.704 1.72929 0.822663 0
M  V30 5638 H 565.009 1.90501 3.42369 0
M  V30 5639 H 566.706 2.27664 3.30106 0
M  V30 5640 H 563.296 3.47318 2.51133 0
M  V30 5641 H 567.48 4.42026 2.25669 0
M  V30 5642 H 562.736 5.79776 1.94088 0
M  V30 5643 H 566.91 6.75428 1.69617 0
M  V30 5644 H 564.537 7.44584 1.53291 0
M  V30 5645 N 566.112 -0.949982 1.2575 0
M  V30 5646 C 567.358 -1.69766 1.10938 0
M  V30 5647 C 567.691 -1.91056 -0.348028 0
M  V30 5648 O 566.966 -1.48488 -1.25625 0
M  V30 5649 C 567.249 -3.07779 1.86933 0
M  V30 5650 C 567.102 -2.9387 3.4053 0
M  V30 5651 C 568.421 -4.07749 1.65616 0
M  V30 5652 H 565.54 -0.616144 0.404396 0
M  V30 5653 H 568.182 -1.10394 1.54639 0
M  V30 5654 H 566.332 -3.58462 1.4979 0
M  V30 5655 H 568.004 -2.50476 3.87375 0
M  V30 5656 H 566.247 -2.29686 3.68004 0
M  V30 5657 H 566.918 -3.91719 3.88922 0
M  V30 5658 H 569.394 -3.65994 1.97959 0
M  V30 5659 H 568.27 -5.02348 2.21218 0
M  V30 5660 H 568.531 -4.38029 0.598595 0
M  V30 5661 N 567.59 -1.07411 -1.15328 0
M  V30 5662 C 568.538 -0.689316 -2.22151 0
M  V30 5663 C 569.532 0.300156 -1.6672 0
M  V30 5664 O 570.738 0.163804 -1.79253 0
M  V30 5665 H 567.113 -0.204834 -0.723566 0
M  V30 5666 H 569.084 -1.59988 -2.51886 0
M  V30 5667 C 567.833 -0.103848 -3.47545 0
M  V30 5668 H 567.156 -0.856367 -3.90521 0
M  V30 5669 H 568.596 0.127725 -4.23808 0
M  V30 5670 C 567.055 1.15563 -3.1646 0
M  V30 5671 O 567.585 2.242 -3.33312 0
M  V30 5672 N 565.791 1.06203 -2.70498 0
M  V30 5673 H 565.338 0.177933 -2.56985 0
M  V30 5674 H 565.296 1.90553 -2.50074 0
M  V30 5675 N 569.068 1.32177 -0.85831 0
M  V30 5676 C 570.031 2.27086 -0.310588 0
M  V30 5677 C 571.031 1.51751 0.531806 0
M  V30 5678 O 572.221 1.70794 0.34279 0
M  V30 5679 C 569.353 3.36266 0.560179 0
M  V30 5680 H 570.546 2.77045 -1.1483 0
M  V30 5681 H 568.099 1.42911 -0.632942 0
M  V30 5682 H 568.834 2.9158 1.41956 0
M  V30 5683 H 568.619 3.92077 -0.0428473 0
M  V30 5684 H 570.109 4.06974 0.936056 0
M  V30 5685 N 570.547 0.616602 1.45037 0
M  V30 5686 C 571.958 0.199359 1.85633 0
M  V30 5687 C 572.309 -1.24588 1.51566 0
M  V30 5688 O 571.434 -1.94594 0.94668 0
M  V30 5689 C 572.029 0.355033 3.36935 0
M  V30 5690 C 570.588 -0.00758748 3.76399 0
M  V30 5691 C 569.735 0.675256 2.68953 0
M  V30 5692 H 572.686 0.822708 1.3571 0
M  V30 5693 H 572.707 -0.410201 3.78282 0
M  V30 5694 H 572.219 1.40699 3.61698 0
M  V30 5695 H 570.32 -1.05837 3.57252 0
M  V30 5696 H 570.433 0.392346 4.77491 0
M  V30 5697 H 568.797 0.111992 2.54454 0
M  V30 5698 H 569.58 1.72952 2.96551 0
M  V30 5699 N 572.025 -1.5352 0.356285 0
M  V30 5700 C 572.988 -2.24071 -0.482182 0
M  V30 5701 C 573.988 -1.24531 -1.01729 0
M  V30 5702 O 575.178 -1.48876 -0.904513 0
M  V30 5703 C 572.31 -2.97025 -1.67299 0
M  V30 5704 H 573.503 -2.99596 0.135031 0
M  V30 5705 H 571.056 -1.55928 0.107825 0
M  V30 5706 H 571.791 -2.25719 -2.32855 0
M  V30 5707 H 571.576 -3.7005 -1.29636 0
M  V30 5708 H 573.066 -3.50683 -2.26741 0
M  V30 5709 N 573.503 -0.0852151 -1.57369 0
M  V30 5710 C 574.433 0.874556 -2.16503 0
M  V30 5711 C 575.414 1.30111 -1.09568 0
M  V30 5712 O 576.599 1.36977 -1.37662 0
M  V30 5713 C 573.729 2.13731 -2.73745 0
M  V30 5714 C 572.683 1.84971 -3.85966 0
M  V30 5715 C 572.009 3.17991 -4.29867 0
M  V30 5716 C 573.309 1.14442 -5.09608 0
M  V30 5717 H 575.003 0.381899 -2.96954 0
M  V30 5718 H 572.549 0.18225 -1.42842 0
M  V30 5719 H 574.502 2.81302 -3.13763 0
M  V30 5720 H 573.226 2.65263 -1.90534 0
M  V30 5721 H 571.885 1.19801 -3.46473 0
M  V30 5722 H 571.533 3.6739 -3.4356 0
M  V30 5723 H 571.233 2.99534 -5.05523 0
M  V30 5724 H 572.757 3.86737 -4.72511 0
M  V30 5725 H 574.171 1.72105 -5.46857 0
M  V30 5726 H 572.568 1.06197 -5.90629 0
M  V30 5727 H 573.638 0.12559 -4.84737 0
M  V30 5728 N 574.981 1.5647 0.188427 0
M  V30 5729 C 575.944 1.9421 1.21718 0
M  V30 5730 C 576.944 0.823901 1.38089 0
M  V30 5731 O 578.134 1.09122 1.35787 0
M  V30 5732 C 575.266 2.22197 2.58537 0
M  V30 5733 H 576.459 2.86252 0.894418 0
M  V30 5734 H 574.012 1.50263 0.430211 0
M  V30 5735 H 574.747 1.32814 2.95856 0
M  V30 5736 H 574.532 3.03688 2.48025 0
M  V30 5737 H 576.022 2.52376 3.3271 0
M  V30 5738 N 576.459 -0.456382 1.50847 0
M  V30 5739 C 577.422 -1.53493 1.70213 0
M  V30 5740 C 578.422 -1.50264 0.572481 0
M  V30 5741 O 579.612 -1.52623 0.839751 0
M  V30 5742 C 576.744 -2.93091 1.741 0
M  V30 5743 H 577.937 -1.37633 2.66453 0
M  V30 5744 H 575.49 -0.683776 1.4055 0
M  V30 5745 H 576.225 -3.14378 0.796063 0
M  V30 5746 H 576.01 -2.9684 2.5618 0
M  V30 5747 H 577.5 -3.71368 1.90987 0
M  V30 5748 N 577.937 -1.40673 -0.710563 0
M  V30 5749 C 578.847 -1.43663 -1.85467 0
M  V30 5750 C 579.863 -0.328721 -1.70867 0
M  V30 5751 O 581.039 -0.574098 -1.93044 0
M  V30 5752 C 578.104 -1.30226 -3.21313 0
M  V30 5753 C 577.165 -2.51204 -3.48131 0
M  V30 5754 C 576.398 -2.38398 -4.77495 0
M  V30 5755 O 576.621 -1.40048 -5.5294 0
M  V30 5756 O 575.555 -3.2787 -5.04762 0
M  V30 5757 H 579.381 -2.40156 -1.859 0
M  V30 5758 H 576.966 -1.22049 -0.861652 0
M  V30 5759 H 578.848 -1.2496 -4.02446 0
M  V30 5760 H 577.523 -0.368419 -3.21597 0
M  V30 5761 H 576.43 -2.62048 -2.66987 0
M  V30 5762 H 577.763 -3.43366 -3.52648 0
M  V30 5763 N 579.415 0.9433 -1.26252 0
M  V30 5764 C 580.831 1.21644 -1.03319 0
M  V30 5765 C 581.031 2.0003 0.242983 0
M  V30 5766 O 580.087 2.33838 0.952688 0
M  V30 5767 C 581.4 1.97978 -2.2633 0
M  V30 5768 C 582.948 2.10978 -2.31209 0
M  V30 5769 C 583.423 2.90713 -3.53907 0
M  V30 5770 N 584.914 2.98287 -3.54371 0
M  V30 5771 C 585.649 3.60406 -4.45976 0
M  V30 5772 N 585.145 4.24043 -5.47868 0
M  V30 5773 N 586.938 3.57658 -4.33633 0
M  V30 5774 H 579.089 0.419221 -2.08222 0
M  V30 5775 H 581.352 0.247995 -0.914988 0
M  V30 5776 H 581.058 1.47788 -3.19142 0
M  V30 5777 H 580.932 2.9865 -2.30408 0
M  V30 5778 H 583.319 2.6036 -1.38913 0
M  V30 5779 H 583.4 1.09575 -2.31143 0
M  V30 5780 H 583.044 2.42018 -4.46531 0
M  V30 5781 H 582.974 3.92367 -3.5122 0
M  V30 5782 H 585.465 2.53044 -2.80673 0
M  V30 5783 H 585.778 4.69334 -6.13959 0
M  V30 5784 H 584.123 4.22637 -5.51728 0
M  V30 5785 H 587.314 3.07134 -3.53251 0
M  V30 5786 H 587.487 4.05782 -5.05218 0
M  V30 5787 N 580.893 1.08022 1.14757 0
M  V30 5788 C 582.141 0.805913 1.85336 0
M  V30 5789 C 582.462 -0.670162 1.83122 0
M  V30 5790 O 581.732 -1.48567 1.2769 0
M  V30 5791 H 580.312 0.295138 0.686223 0
M  V30 5792 H 582.974 1.36538 1.3908 0
M  V30 5793 H 582.07 1.14655 2.90277 0
M  V30 5794 N 582.371 -1.3172 0.865308 0
M  V30 5795 C 583.617 -1.97168 0.474633 0
M  V30 5796 C 583.95 -1.68263 -0.969604 0
M  V30 5797 O 583.225 -0.976588 -1.68205 0
M  V30 5798 C 583.508 -3.52689 0.726808 0
M  V30 5799 C 583.361 -3.91185 2.22024 0
M  V30 5800 C 584.68 -4.39689 0.190201 0
M  V30 5801 H 581.799 -0.716185 0.17392 0
M  V30 5802 H 584.441 -1.55925 1.08569 0
M  V30 5803 H 582.591 -3.8795 0.206705 0
M  V30 5804 H 584.263 -3.66049 2.80724 0
M  V30 5805 H 582.506 -3.3996 2.69462 0
M  V30 5806 H 583.177 -4.99604 2.34735 0
M  V30 5807 H 585.653 -4.11225 0.635103 0
M  V30 5808 H 584.529 -5.47469 0.396132 0
M  V30 5809 H 584.79 -4.32683 -0.907625 0
M  V30 5810 N 583.85 -0.624285 -1.44708 0
M  V30 5811 C 585.077 -0.132919 -2.06473 0
M  V30 5812 C 585.493 1.18967 -1.46602 0
M  V30 5813 O 584.85 1.72824 -0.586341 0
M  V30 5814 C 584.901 -0.00465418 -3.615 0
M  V30 5815 O 584.622 -1.27494 -4.19138 0
M  V30 5816 C 586.123 0.516213 -4.40284 0
M  V30 5817 H 583.343 -0.0765201 -0.666623 0
M  V30 5818 H 585.887 -0.856751 -1.85688 0
M  V30 5819 H 584.042 0.669583 -3.8157 0
M  V30 5820 H 584.456 -1.11536 -5.12504 0
M  V30 5821 H 585.93 0.554994 -5.49203 0
M  V30 5822 H 586.407 1.5419 -4.11245 0
M  V30 5823 H 587.013 -0.124542 -4.25118 0
M  V30 5824 N 585.328 1.53329 -0.364422 0
M  V30 5825 C 586.291 2.24323 0.470292 0
M  V30 5826 C 587.291 1.25068 1.01067 0
M  V30 5827 O 588.481 1.49354 0.896605 0
M  V30 5828 C 585.613 2.97908 1.65722 0
M  V30 5829 H 586.806 2.9952 -0.150917 0
M  V30 5830 H 584.359 1.55868 -0.116092 0
M  V30 5831 H 585.094 2.2695 2.31655 0
M  V30 5832 H 584.879 3.70732 1.27671 0
M  V30 5833 H 586.369 3.5188 2.24878 0
M  V30 5834 N 586.806 0.0935595 1.57322 0
M  V30 5835 C 587.716 -0.880192 2.17462 0
M  V30 5836 C 588.732 -1.31135 1.14366 0
M  V30 5837 O 589.908 -1.37958 1.46729 0
M  V30 5838 C 586.973 -2.12184 2.74188 0
M  V30 5839 C 586.034 -1.74503 3.92234 0
M  V30 5840 C 585.267 -2.92748 4.46245 0
M  V30 5841 O 585.49 -4.07427 3.99198 0
M  V30 5842 O 584.424 -2.71303 5.37288 0
M  V30 5843 H 588.25 -0.398516 3.01074 0
M  V30 5844 H 585.835 -0.130707 1.48827 0
M  V30 5845 H 587.717 -2.84953 3.10451 0
M  V30 5846 H 586.392 -2.59407 1.93623 0
M  V30 5847 H 585.299 -0.989186 3.60785 0
M  V30 5848 H 586.632 -1.32044 4.74157 0
M  V30 5849 N 588.284 -1.56567 -0.180126 0
M  V30 5850 C 589.533 -1.80685 -0.896426 0
M  V30 5851 C 589.846 -0.669335 -1.83791 0
M  V30 5852 O 591.052 -0.795209 -2.59593 0
M  V30 5853 C 589.508 -3.20132 -1.6445 0
M  V30 5854 C 589.116 -4.41727 -0.747088 0
M  V30 5855 C 590.86 -3.53549 -2.34955 0
M  V30 5856 C 588.767 -5.72195 -1.49489 0
M  V30 5857 H 587.697 -0.673758 -0.338477 0
M  V30 5858 H 590.348 -1.8289 -0.149467 0
M  V30 5859 H 588.73 -3.12218 -2.43589 0
M  V30 5860 H 589.904 -4.608 0.00671129 0
M  V30 5861 H 588.219 -4.16122 -0.152134 0
M  V30 5862 H 590.816 -4.48267 -2.91481 0
M  V30 5863 H 591.159 -2.78006 -3.09868 0
M  V30 5864 H 591.692 -3.62976 -1.62768 0
M  V30 5865 H 588.431 -6.50743 -0.788251 0
M  V30 5866 H 587.951 -5.57115 -2.22224 0
M  V30 5867 H 589.63 -6.1384 -2.04472 0
M  V30 5868 N 589.762 0.448376 -1.51087 0
M  V30 5869 C 591.002 1.20832 -1.64861 0
M  V30 5870 C 591.366 1.88748 -0.351873 0
M  V30 5871 O 592.567 2.66307 -0.365265 0
M  V30 5872 C 590.838 2.20674 -2.81137 0
M  V30 5873 S 592.397 3.05303 -3.15176 0
M  V30 5874 H 589.215 0.40992 -0.580936 0
M  V30 5875 H 591.817 0.501624 -1.88955 0
M  V30 5876 H 590.521 1.69399 -3.73808 0
M  V30 5877 H 590.052 2.9594 -2.59198 0
M  V30 5878 H 592.067 4.22162 -2.60756 0
M  V30 5879 N 591.24 1.41047 0.703093 0
M  V30 5880 C 592.187 1.42302 1.81711 0
M  V30 5881 C 593.157 0.278336 1.63751 0
M  V30 5882 O 594.342 0.478266 1.84709 0
M  V30 5883 C 591.482 1.30362 3.19531 0
M  V30 5884 C 590.595 2.54638 3.48975 0
M  V30 5885 C 589.73 2.35047 4.76368 0
M  V30 5886 C 588.769 3.54837 4.98756 0
M  V30 5887 N 587.906 3.34363 6.1737 0
M  V30 5888 H 592.746 2.37516 1.79973 0
M  V30 5889 H 590.283 1.1795 0.878983 0
M  V30 5890 H 592.241 1.21443 3.99134 0
M  V30 5891 H 590.871 0.387602 3.20464 0
M  V30 5892 H 589.923 2.74037 2.63833 0
M  V30 5893 H 591.235 3.43766 3.61423 0
M  V30 5894 H 590.389 2.23552 5.64012 0
M  V30 5895 H 589.128 1.43363 4.66153 0
M  V30 5896 H 588.133 3.66795 4.09563 0
M  V30 5897 H 589.358 4.47464 5.10835 0
M  V30 5898 H 587.304 2.45373 6.08382 0
M  V30 5899 H 587.221 4.17063 6.30551 0
M  V30 5900 H 588.489 3.26626 7.07768 0
M  V30 5901 N 592.718 -0.936591 1.26751 0
M  V30 5902 C 593.681 -2.01752 1.08761 0
M  V30 5903 C 594.681 -1.60763 0.0344435 0
M  V30 5904 O 595.871 -1.71963 0.278258 0
M  V30 5905 C 593.003 -3.34543 0.655271 0
M  V30 5906 H 594.196 -2.19143 2.04735 0
M  V30 5907 H 591.749 -1.11618 1.09413 0
M  V30 5908 H 592.484 -3.22851 -0.30626 0
M  V30 5909 H 592.269 -3.65647 1.41578 0
M  V30 5910 H 593.759 -4.13944 0.551378 0
M  V30 5911 N 594.196 -1.08629 -1.14182 0
M  V30 5912 C 595.421 -0.83902 -1.89671 0
M  V30 5913 C 595.846 0.603332 -1.78161 0
M  V30 5914 O 595.204 1.42301 -1.12339 0
M  V30 5915 C 595.252 -1.26854 -3.37551 0
M  V30 5916 O 594.356 -0.42188 -4.10236 0
M  V30 5917 H 593.697 -0.304545 -0.590041 0
M  V30 5918 H 596.227 -1.4483 -1.44518 0
M  V30 5919 H 596.237 -1.25038 -3.88368 0
M  V30 5920 H 594.912 -2.31901 -3.45246 0
M  V30 5921 H 593.489 -0.503654 -3.69483 0
M  V30 5922 N 595.674 1.31259 -0.872281 0
M  V30 5923 C 596.584 2.32221 -0.333255 0
M  V30 5924 C 597.6 1.6481 0.558013 0
M  V30 5925 O 598.776 1.96212 0.454175 0
M  V30 5926 C 595.841 3.43708 0.454479 0
M  V30 5927 C 594.902 4.26774 -0.465024 0
M  V30 5928 C 594.135 5.32937 0.28521 0
M  V30 5929 O 594.358 5.49968 1.513 0
M  V30 5930 O 593.292 6.00834 -0.358126 0
M  V30 5931 H 597.118 2.80252 -1.17016 0
M  V30 5932 H 594.703 1.352 -0.635724 0
M  V30 5933 H 596.585 4.11656 0.900963 0
M  V30 5934 H 595.26 2.97836 1.26789 0
M  V30 5935 H 594.167 3.61571 -0.960055 0
M  V30 5936 H 595.5 4.76217 -1.2441 0
M  V30 5937 N 597.152 0.631951 1.44375 0
M  V30 5938 C 598.377 0.142146 2.06912 0
M  V30 5939 C 598.802 -1.17456 1.4692 0
M  V30 5940 O 598.16 -1.72074 0.570975 0
M  V30 5941 C 598.208 0.0417952 3.60576 0
M  V30 5942 O 597.312 -1.00194 4.00044 0
M  V30 5943 H 596.653 0.0851491 0.658518 0
M  V30 5944 H 599.183 0.868863 1.85235 0
M  V30 5945 H 599.193 -0.148517 4.0773 0
M  V30 5946 H 597.868 1.0031 4.03622 0
M  V30 5947 H 596.445 -0.786131 3.64519 0
M  V30 5948 N 598.631 -1.53133 0.372548 0
M  V30 5949 C 600.042 -1.86404 -0.105155 0
M  V30 5950 C 600.393 -1.29289 -1.47576 0
M  V30 5951 O 599.518 -0.617646 -2.07398 0
M  V30 5952 C 600.113 -3.38223 -0.197588 0
M  V30 5953 C 598.672 -3.71266 -0.619556 0
M  V30 5954 C 597.819 -2.76353 0.228919 0
M  V30 5955 H 600.77 -1.47282 0.591077 0
M  V30 5956 H 600.791 -3.66577 -1.01987 0
M  V30 5957 H 600.303 -3.79763 0.800099 0
M  V30 5958 H 598.404 -3.35287 -1.62522 0
M  V30 5959 H 598.517 -4.77515 -0.389332 0
M  V30 5960 H 596.881 -2.52888 -0.303271 0
M  V30 5961 H 597.664 -3.20728 1.22428 0
M  V30 5962 N 600.109 -0.101901 -1.5727 0
M  V30 5963 C 601.057 0.872034 -2.15635 0
M  V30 5964 C 602.051 1.28742 -1.10099 0
M  V30 5965 O 603.257 1.26116 -1.28432 0
M  V30 5966 H 599.632 0.299269 -0.689886 0
M  V30 5967 H 601.603 0.355137 -2.96279 0
M  V30 5968 C 600.352 2.11886 -2.7568 0
M  V30 5969 H 599.675 1.80813 -3.56576 0
M  V30 5970 H 601.115 2.78077 -3.20077 0
M  V30 5971 C 599.574 2.89739 -1.7191 0
M  V30 5972 O 600.104 3.84522 -1.16213 0
M  V30 5973 N 598.31 2.53407 -1.42245 0
M  V30 5974 H 597.857 1.76398 -1.87727 0
M  V30 5975 H 597.815 3.05795 -0.730529 0
M  V30 5976 N 601.587 1.56661 0.17182 0
M  V30 5977 C 602.537 1.92781 1.21736 0
M  V30 5978 C 603.521 0.796065 1.39827 0
M  V30 5979 O 604.713 1.05924 1.41806 0
M  V30 5980 C 601.842 2.29079 2.55691 0
M  V30 5981 C 600.928 3.48765 2.41296 0
M  V30 5982 N 601.319 4.66022 1.96614 0
M  V30 5983 C 599.617 3.53362 2.72124 0
M  V30 5984 C 600.318 5.48159 1.94669 0
M  V30 5985 N 599.294 4.89189 2.37054 0
M  V30 5986 H 603.096 2.80926 0.863592 0
M  V30 5987 H 600.61 1.57889 0.380096 0
M  V30 5988 H 602.607 2.5315 3.31241 0
M  V30 5989 H 601.267 1.42272 2.91871 0
M  V30 5990 H 602.278 4.9025 1.66959 0
M  V30 5991 H 598.955 2.77033 3.12345 0
M  V30 5992 H 600.345 6.52121 1.61826 0
M  V30 5993 N 603.065 -0.440357 1.51323 0
M  V30 5994 C 604.481 -0.7766 1.39431 0
M  V30 5995 C 604.681 -1.95838 0.474296 0
M  V30 5996 O 603.737 -2.52398 -0.0716692 0
M  V30 5997 C 605.05 -1.05981 2.81405 0
M  V30 5998 C 606.598 -1.16442 2.90534 0
M  V30 5999 C 607.073 -1.48058 4.33408 0
M  V30 6000 N 608.564 -1.54988 4.36501 0
M  V30 6001 C 609.299 -1.81017 5.44078 0
M  V30 6002 N 608.795 -2.04858 6.61819 0
M  V30 6003 N 610.588 -1.82774 5.31554 0
M  V30 6004 H 602.739 0.338006 2.09693 0
M  V30 6005 H 605.002 0.0888072 0.943831 0
M  V30 6006 H 604.708 -0.264173 3.50706 0
M  V30 6007 H 604.582 -1.98822 3.20546 0
M  V30 6008 H 606.969 -1.95068 2.21432 0
M  V30 6009 H 607.05 -0.215088 2.54894 0
M  V30 6010 H 606.694 -0.699605 5.03059 0
M  V30 6011 H 606.624 -2.44192 4.66559 0
M  V30 6012 H 609.115 -1.38479 3.51613 0
M  V30 6013 H 609.428 -2.2408 7.396 0
M  V30 6014 H 607.773 -2.02187 6.6494 0
M  V30 6015 H 610.964 -1.63665 4.38556 0
M  V30 6016 H 611.137 -2.02722 6.15474 0
M  V30 6017 N 604.543 -1.41418 -0.695603 0
M  V30 6018 C 605.768 -1.44329 -1.48942 0
M  V30 6019 C 606.193 -0.0501579 -1.88033 0
M  V30 6020 O 605.551 0.946598 -1.54626 0
M  V30 6021 C 605.599 -2.3578 -2.72837 0
M  V30 6022 O 604.703 -1.81482 -3.70322 0
M  V30 6023 H 604.044 -0.489838 -0.44828 0
M  V30 6024 H 606.574 -1.85878 -0.855014 0
M  V30 6025 H 606.584 -2.51654 -3.21145 0
M  V30 6026 H 605.259 -3.37005 -2.43722 0
M  V30 6027 H 603.836 -1.75058 -3.29255 0
M  V30 6028 N 606.021 0.929856 -1.27246 0
M  V30 6029 C 607.267 1.6798 -1.13625 0
M  V30 6030 C 607.6 1.91586 0.317589 0
M  V30 6031 O 606.875 1.50467 1.23247 0
M  V30 6032 C 607.158 3.04766 -1.91806 0
M  V30 6033 C 607.011 2.88415 -3.45162 0
M  V30 6034 C 608.33 4.05063 -1.72082 0
M  V30 6035 H 605.449 0.609632 -0.414147 0
M  V30 6036 H 608.091 1.0792 -1.56376 0
M  V30 6037 H 606.241 3.56034 -1.55474 0
M  V30 6038 H 607.913 2.44282 -3.91311 0
M  V30 6039 H 606.156 2.23802 -3.71611 0
M  V30 6040 H 606.827 3.85482 -3.95105 0
M  V30 6041 H 609.303 3.62798 -2.03757 0
M  V30 6042 H 608.179 4.98765 -2.29182 0
M  V30 6043 H 608.44 4.37021 -0.668206 0
M  V30 6044 N 607.499 1.09233 1.13605 0
M  V30 6045 C 608.745 0.828385 1.8511 0
M  V30 6046 C 609.078 -0.64437 1.83198 0
M  V30 6047 O 608.353 -1.47428 1.26867 0
M  V30 6048 C 608.636 1.36167 3.33363 0
M  V30 6049 C 608.489 2.90038 3.438 0
M  V30 6050 C 609.808 0.993819 4.28732 0
M  V30 6051 H 606.927 0.30239 0.672108 0
M  V30 6052 H 609.569 1.35339 1.33355 0
M  V30 6053 H 607.719 0.9151 3.77569 0
M  V30 6054 H 609.391 3.43128 3.08319 0
M  V30 6055 H 607.634 3.27271 2.84739 0
M  V30 6056 H 608.305 3.22428 4.48045 0
M  V30 6057 H 610.781 1.37893 3.92587 0
M  V30 6058 H 609.657 1.39403 5.30903 0
M  V30 6059 H 609.918 -0.0982206 4.41991 0
M  V30 6060 N 608.977 -1.30795 0.87923 0
M  V30 6061 C 610.254 -1.91145 0.415086 0
M  V30 6062 C 610.634 -1.7995 -1.10368 0
M  V30 6063 O 609.982 -1.21305 -1.93642 0
M  V30 6064 C 610.192 -3.37014 0.906778 0
M  V30 6065 C 611.54 -4.14101 0.938358 0
M  V30 6066 O 612.564 -3.45834 0.853053 0
M  V30 6067 O 611.423 -5.36054 1.06342 0
M  V30 6068 H 608.517 -0.81736 0.125905 0
M  V30 6069 H 611.063 -1.39401 0.967753 0
M  V30 6070 H 609.835 -3.3922 1.95053 0
M  V30 6071 H 609.458 -3.96204 0.332948 0
M  V30 6072 N 610.455 -0.639598 -1.44038 0
M  V30 6073 C 611.701 -0.147698 -2.02261 0
M  V30 6074 C 612.034 1.23031 -1.50256 0
M  V30 6075 O 611.309 1.81847 -0.690068 0
M  V30 6076 C 611.592 -0.14362 -3.59813 0
M  V30 6077 C 611.445 -1.55458 -4.22082 0
M  V30 6078 C 612.764 0.527317 -4.36929 0
M  V30 6079 H 609.883 -0.0551453 -0.734934 0
M  V30 6080 H 612.525 -0.817688 -1.71505 0
M  V30 6081 H 610.675 0.426898 -3.86147 0
M  V30 6082 H 612.347 -2.17464 -4.06826 0
M  V30 6083 H 610.59 -2.10594 -3.79253 0
M  V30 6084 H 611.261 -1.50369 -5.31124 0
M  V30 6085 H 613.737 0.0420504 -4.16079 0
M  V30 6086 H 612.613 0.499389 -5.46624 0
M  V30 6087 H 612.874 1.59914 -4.12165 0
M  V30 6088 N 611.933 1.52934 -0.380664 0
M  V30 6089 C 613.349 1.59571 -0.0302429 0
M  V30 6090 C 613.549 1.39509 1.45394 0
M  V30 6091 O 612.605 1.20777 2.21741 0
M  V30 6092 C 613.918 2.96519 -0.499691 0
M  V30 6093 C 615.466 3.09672 -0.455204 0
M  V30 6094 C 615.941 4.49056 -0.900703 0
M  V30 6095 N 617.432 4.55215 -0.856367 0
M  V30 6096 C 618.167 5.61282 -1.17259 0
M  V30 6097 N 617.663 6.75035 -1.55885 0
M  V30 6098 N 619.456 5.51343 -1.0944 0
M  V30 6099 H 611.607 1.64224 -1.347 0
M  V30 6100 H 613.87 0.771033 -0.551554 0
M  V30 6101 H 613.576 3.16388 -1.53595 0
M  V30 6102 H 613.45 3.77052 0.105789 0
M  V30 6103 H 615.837 2.89504 0.571949 0
M  V30 6104 H 615.918 2.31113 -1.09638 0
M  V30 6105 H 615.562 4.69964 -1.92604 0
M  V30 6106 H 615.492 5.26068 -0.236629 0
M  V30 6107 H 617.983 3.73546 -0.572013 0
M  V30 6108 H 618.296 7.51926 -1.784 0
M  V30 6109 H 616.641 6.76388 -1.59764 0
M  V30 6110 H 619.832 4.61356 -0.791713 0
M  V30 6111 H 620.005 6.33905 -1.34417 0
M  V30 6112 N 613.412 0.11024 1.57214 0
M  V30 6113 C 614.375 -0.828808 2.1369 0
M  V30 6114 C 615.375 -1.20059 1.06969 0
M  V30 6115 O 616.565 -1.12754 1.32786 0
M  V30 6116 C 613.697 -2.11959 2.66994 0
M  V30 6117 H 614.89 -0.338146 2.97988 0
M  V30 6118 H 612.443 -0.138913 1.55681 0
M  V30 6119 H 613.178 -2.65476 1.8626 0
M  V30 6120 H 612.963 -1.86258 3.45037 0
M  V30 6121 H 614.453 -2.79105 3.10629 0
M  V30 6122 N 614.89 -1.56749 -0.16351 0
M  V30 6123 C 616.136 -1.82704 -0.880168 0
M  V30 6124 C 616.469 -0.689311 -1.81555 0
M  V30 6125 O 615.744 0.308224 -1.92042 0
M  V30 6126 C 616.027 -3.19084 -1.66905 0
M  V30 6127 C 615.88 -4.43397 -0.756269 0
M  V30 6128 C 617.199 -3.52493 -2.63509 0
M  V30 6129 H 614.318 -0.664608 -0.318535 0
M  V30 6130 H 616.96 -1.89438 -0.146036 0
M  V30 6131 H 615.11 -3.13475 -2.2949 0
M  V30 6132 H 616.782 -4.61079 -0.14269 0
M  V30 6133 H 615.025 -4.33752 -0.0647944 0
M  V30 6134 H 615.696 -5.3539 -1.34393 0
M  V30 6135 H 618.172 -3.58606 -2.11047 0
M  V30 6136 H 617.048 -4.48979 -3.15767 0
M  V30 6137 H 617.309 -2.77597 -3.44082 0
M  V30 6138 N 616.368 0.432326 -1.51554 0
M  V30 6139 C 617.616 1.17901 -1.64146 0
M  V30 6140 C 617.937 1.91604 -0.362367 0
M  V30 6141 O 617.207 1.85764 0.621968 0
M  V30 6142 H 615.787 0.438206 -0.604966 0
M  V30 6143 H 618.449 0.495172 -1.88505 0
M  V30 6144 H 617.545 1.90584 -2.47152 0
M  V30 6145 N 617.846 1.41785 0.688094 0
M  V30 6146 C 618.809 1.43936 1.78368 0
M  V30 6147 C 619.809 0.328866 1.57401 0
M  V30 6148 O 620.999 0.589093 1.63937 0
M  V30 6149 C 618.131 1.25804 3.16838 0
M  V30 6150 H 619.324 2.41472 1.77852 0
M  V30 6151 H 616.877 1.28037 0.896448 0
M  V30 6152 H 617.612 0.291386 3.22988 0
M  V30 6153 H 617.397 2.06272 3.33458 0
M  V30 6154 H 618.887 1.30162 3.96797 0
M  V30 6155 N 619.324 -0.923095 1.27737 0
M  V30 6156 C 620.601 -1.64989 1.05062 0
M  V30 6157 C 620.981 -2.07018 -0.413124 0
M  V30 6158 O 620.329 -1.80797 -1.39731 0
M  V30 6159 C 620.539 -2.84847 2.01652 0
M  V30 6160 C 621.887 -3.56083 2.31279 0
M  V30 6161 O 622.911 -2.94981 1.99662 0
M  V30 6162 O 621.77 -4.66182 2.85196 0
M  V30 6163 H 618.864 -0.723357 0.400853 0
M  V30 6164 H 621.41 -0.973224 1.3902 0
M  V30 6165 H 620.182 -2.50814 3.00347 0
M  V30 6166 H 619.805 -3.60231 1.68284 0
M  V30 6167 N 620.802 -1.09834 -1.13024 0
M  V30 6168 C 622.05 -0.835297 -1.8403 0
M  V30 6169 C 622.371 0.640944 -1.84165 0
M  V30 6170 O 621.641 1.46517 -1.30037 0
M  V30 6171 H 620.221 -0.306018 -0.681441 0
M  V30 6172 H 622.883 -1.38734 -1.36891 0
M  V30 6173 H 621.979 -1.19258 -2.88416 0
M  V30 6174 N 622.28 1.30327 -0.886154 0
M  V30 6175 C 623.505 2.0079 -0.519425 0
M  V30 6176 C 623.93 1.65979 0.885013 0
M  V30 6177 O 623.288 0.877043 1.58675 0
M  V30 6178 C 623.336 3.53686 -0.702758 0
M  V30 6179 O 622.44 4.11637 0.250828 0
M  V30 6180 H 621.781 0.63171 -0.204544 0
M  V30 6181 H 624.311 1.66145 -1.19402 0
M  V30 6182 H 624.321 4.03531 -0.602207 0
M  V30 6183 H 622.996 3.78361 -1.72673 0
M  V30 6184 H 621.573 3.72755 0.103873 0
M  V30 6185 N 623.758 0.647228 1.43697 0
M  V30 6186 C 625.004 0.158422 2.0218 0
M  V30 6187 C 625.337 -1.22233 1.50907 0
M  V30 6188 O 624.612 -1.81478 0.699702 0
M  V30 6189 C 624.895 0.1627 3.59732 0
M  V30 6190 C 624.748 1.57694 4.21251 0
M  V30 6191 C 626.067 -0.504138 4.37203 0
M  V30 6192 H 623.186 0.059042 0.734631 0
M  V30 6193 H 625.828 0.826772 1.71069 0
M  V30 6194 H 623.978 -0.406414 3.86368 0
M  V30 6195 H 625.65 2.19618 4.05667 0
M  V30 6196 H 623.893 2.12603 3.7813 0
M  V30 6197 H 624.564 1.53183 5.3032 0
M  V30 6198 H 627.04 -0.0199841 4.16095 0
M  V30 6199 H 625.916 -0.470394 5.46881 0
M  V30 6200 H 626.177 -1.57726 4.13007 0
M  V30 6201 N 625.236 -1.5273 0.388769 0
M  V30 6202 C 626.482 -2.01871 -0.193877 0
M  V30 6203 C 626.815 -1.27475 -1.46505 0
M  V30 6204 O 626.09 -0.375063 -1.90849 0
M  V30 6205 C 626.373 -3.5712 -0.462336 0
M  V30 6206 C 626.226 -4.42186 0.824091 0
M  V30 6207 C 627.545 -4.21881 -1.25319 0
M  V30 6208 H 624.664 -0.733764 -0.0689899 0
M  V30 6209 H 627.306 -1.82796 0.518231 0
M  V30 6210 H 625.456 -3.73504 -1.06896 0
M  V30 6211 H 627.128 -4.37554 1.46096 0
M  V30 6212 H 625.371 -4.09219 1.43952 0
M  V30 6213 H 626.042 -5.48828 0.590905 0
M  V30 6214 H 628.518 -4.0947 -0.73981 0
M  V30 6215 H 627.394 -5.30487 -1.40977 0
M  V30 6216 H 627.655 -3.79478 -2.26824 0
M  V30 6217 N 626.714 -0.118576 -1.57153 0
M  V30 6218 C 627.942 0.54726 -1.99531 0
M  V30 6219 C 628.357 1.60251 -0.998246 0
M  V30 6220 O 627.714 1.82498 0.00893106 0
M  V30 6221 C 627.765 1.17378 -3.41913 0
M  V30 6222 O 627.486 0.160703 -4.37805 0
M  V30 6223 C 628.987 1.92297 -3.9942 0
M  V30 6224 H 626.207 0.144919 -0.655164 0
M  V30 6225 H 628.751 -0.20479 -2.03472 0
M  V30 6226 H 626.906 1.87661 -3.38913 0
M  V30 6227 H 627.32 0.61586 -5.20872 0
M  V30 6228 H 628.794 2.31462 -5.01128 0
M  V30 6229 H 629.271 2.79801 -3.38538 0
M  V30 6230 H 629.877 1.26777 -4.05965 0
M  V30 6231 N 628.193 1.56834 0.155195 0
M  V30 6232 C 629.439 1.83169 0.870467 0
M  V30 6233 C 629.772 0.698929 1.81187 0
M  V30 6234 O 629.047 -0.298035 1.92203 0
M  V30 6235 C 629.33 3.19965 1.65211 0
M  V30 6236 C 629.183 4.43792 0.732744 0
M  V30 6237 C 630.502 3.53885 2.61636 0
M  V30 6238 H 627.621 0.666288 0.315006 0
M  V30 6239 H 630.263 1.89513 0.135988 0
M  V30 6240 H 628.413 3.14687 2.27825 0
M  V30 6241 H 630.085 4.61148 0.118236 0
M  V30 6242 H 628.328 4.3378 0.0417906 0
M  V30 6243 H 628.999 5.36095 1.31552 0
M  V30 6244 H 631.475 3.5972 2.09143 0
M  V30 6245 H 630.351 4.50648 3.13381 0
M  V30 6246 H 630.612 2.79418 3.42605 0
M  V30 6247 N 629.671 -0.424282 1.51781 0
M  V30 6248 C 630.896 -1.19928 1.6921 0
M  V30 6249 C 631.321 -1.8392 0.394355 0
M  V30 6250 O 630.679 -1.69371 -0.646778 0
M  V30 6251 C 630.727 -2.24937 2.81843 0
M  V30 6252 O 629.831 -3.3073 2.46356 0
M  V30 6253 H 629.172 -0.35078 0.563781 0
M  V30 6254 H 631.702 -0.499401 1.98412 0
M  V30 6255 H 631.712 -2.69512 3.06312 0
M  V30 6256 H 630.387 -1.77742 3.76006 0
M  V30 6257 H 628.964 -2.9154 2.32505 0
M  V30 6258 N 631.149 -1.42148 -0.680565 0
M  V30 6259 C 632.397 -1.42029 -1.43779 0
M  V30 6260 C 632.718 -0.0356347 -1.94967 0
M  V30 6261 O 631.988 0.924936 -1.7269 0
M  V30 6262 H 630.568 -0.522835 -0.533529 0
M  V30 6263 H 633.23 -1.7752 -0.804538 0
M  V30 6264 H 632.326 -2.11658 -2.29363 0
M  V30 6265 N 632.627 0.916307 -1.28225 0
M  V30 6266 C 633.855 1.69901 -1.18073 0
M  V30 6267 C 634.27 1.86988 0.260968 0
M  V30 6268 O 633.627 1.39505 1.17663 0
M  V30 6269 C 633.678 3.09254 -1.87201 0
M  V30 6270 O 633.399 2.92959 -3.2574 0
M  V30 6271 C 634.9 4.0362 -1.83319 0
M  V30 6272 H 632.12 0.531181 -0.409985 0
M  V30 6273 H 634.664 1.14703 -1.69303 0
M  V30 6274 H 632.819 3.61277 -1.39848 0
M  V30 6275 H 633.233 3.81139 -3.60324 0
M  V30 6276 H 634.707 4.98873 -2.36282 0
M  V30 6277 H 635.184 4.3176 -0.805007 0
M  V30 6278 H 635.79 3.57524 -2.3034 0
M  V30 6279 N 634.105 1.10431 1.1244 0
M  V30 6280 C 635.035 0.775143 2.20258 0
M  V30 6281 C 636.016 -0.25186 1.68225 0
M  V30 6282 O 637.201 -0.117637 1.93843 0
M  V30 6283 C 634.331 0.206133 3.46688 0
M  V30 6284 C 633.285 1.16382 4.11873 0
M  V30 6285 C 632.611 0.456014 5.32752 0
M  V30 6286 C 633.911 2.5104 4.58013 0
M  V30 6287 H 635.605 1.67665 2.4805 0
M  V30 6288 H 633.151 0.807595 1.19222 0
M  V30 6289 H 635.104 -0.036291 4.21384 0
M  V30 6290 H 633.828 -0.730614 3.18323 0
M  V30 6291 H 632.487 1.39169 3.39157 0
M  V30 6292 H 632.135 -0.485203 5.00654 0
M  V30 6293 H 631.835 1.09466 5.77314 0
M  V30 6294 H 633.359 0.222135 6.10196 0
M  V30 6295 H 634.773 2.32401 5.24083 0
M  V30 6296 H 633.17 3.10789 5.13352 0
M  V30 6297 H 634.24 3.11039 3.71998 0
M  V30 6298 N 635.583 -1.29855 0.893053 0
M  V30 6299 C 636.813 -1.99686 0.530019 0
M  V30 6300 C 637.221 -1.67066 -0.888012 0
M  V30 6301 O 636.564 -0.908366 -1.5967 0
M  V30 6302 C 636.626 -3.53855 0.63457 0
M  V30 6303 C 636.29 -4.10013 2.01837 0
M  V30 6304 C 637.287 -4.25406 2.98874 0
M  V30 6305 C 634.972 -4.45202 2.32595 0
M  V30 6306 C 636.966 -4.7521 4.24799 0
M  V30 6307 C 634.653 -4.94704 3.58763 0
M  V30 6308 C 635.651 -5.09662 4.5468 0
M  V30 6309 O 635.339 -5.58093 5.78608 0
M  V30 6310 H 635.071 -0.644913 0.20264 0
M  V30 6311 H 637.625 -1.66518 1.20253 0
M  V30 6312 H 635.855 -3.86583 -0.0949477 0
M  V30 6313 H 637.544 -4.04922 0.281648 0
M  V30 6314 H 638.31 -3.98515 2.76425 0
M  V30 6315 H 634.189 -4.32822 1.58701 0
M  V30 6316 H 637.733 -4.86801 4.99671 0
M  V30 6317 H 633.63 -5.21032 3.81046 0
M  V30 6318 H 634.398 -5.7642 5.81104 0
M  V30 6319 N 637.061 -0.65484 -1.43351 0
M  V30 6320 C 638.309 -0.168559 -2.01396 0
M  V30 6321 C 638.63 1.22235 -1.51933 0
M  V30 6322 O 637.9 1.81685 -0.732627 0
M  V30 6323 H 636.48 -0.0593244 -0.744641 0
M  V30 6324 H 639.142 -0.846871 -1.75539 0
M  V30 6325 H 638.238 -0.154428 -3.11718 0
M  V30 6326 N 638.539 1.52521 -0.396863 0
M  V30 6327 C 639.95 1.86547 0.0754868 0
M  V30 6328 C 640.301 1.31621 1.45501 0
M  V30 6329 O 639.426 0.650563 2.0639 0
M  V30 6330 C 640.021 3.38495 0.143754 0
M  V30 6331 C 638.58 3.72205 0.560413 0
M  V30 6332 C 637.727 2.75954 -0.272856 0
M  V30 6333 H 640.678 1.46323 -0.614434 0
M  V30 6334 H 640.699 3.68153 0.961425 0
M  V30 6335 H 640.211 3.78442 -0.860415 0
M  V30 6336 H 638.312 3.3783 1.57167 0
M  V30 6337 H 638.425 4.78074 0.313314 0
M  V30 6338 H 636.789 2.53339 0.263 0
M  V30 6339 H 637.572 3.1874 -1.27515 0
M  V30 6340 N 640.017 0.126909 1.57088 0
M  V30 6341 C 640.949 -0.850973 2.12817 0
M  V30 6342 C 641.962 -1.22457 1.07276 0
M  V30 6343 O 643.151 -1.17215 1.34622 0
M  V30 6344 C 640.251 -2.15039 2.61938 0
M  V30 6345 C 639.424 -1.94726 3.91664 0
M  V30 6346 C 638.483 -3.0847 4.26301 0
M  V30 6347 O 637.509 -2.81038 4.94981 0
M  V30 6348 N 638.711 -4.35116 3.84259 0
M  V30 6349 H 641.476 -0.3748 2.97347 0
M  V30 6350 H 639.037 -0.0572793 1.61799 0
M  V30 6351 H 641.029 -2.90141 2.82135 0
M  V30 6352 H 639.599 -2.5398 1.82244 0
M  V30 6353 H 638.819 -1.03772 3.80296 0
M  V30 6354 H 640.107 -1.78469 4.76473 0
M  V30 6355 H 639.505 -4.60276 3.2888 0
M  V30 6356 H 638.062 -5.07064 4.09548 0
M  V30 6357 N 641.495 -1.56914 -0.146875 0
M  V30 6358 C 642.425 -2.01308 -1.1831 0
M  V30 6359 C 643.406 -0.892664 -1.44795 0
M  V30 6360 O 644.591 -1.16048 -1.55713 0
M  V30 6361 C 641.721 -2.3938 -2.51624 0
M  V30 6362 C 640.675 -3.54608 -2.3966 0
M  V30 6363 C 640.001 -3.78493 -3.77686 0
M  V30 6364 C 641.301 -4.87269 -1.88058 0
M  V30 6365 H 642.995 -2.88123 -0.813964 0
M  V30 6366 H 640.541 -1.38615 -0.3901 0
M  V30 6367 H 642.494 -2.69037 -3.24341 0
M  V30 6368 H 641.218 -1.49502 -2.90373 0
M  V30 6369 H 639.877 -3.25116 -1.69396 0
M  V30 6370 H 639.525 -2.85866 -4.13871 0
M  V30 6371 H 639.225 -4.56039 -3.70543 0
M  V30 6372 H 640.749 -4.10576 -4.51951 0
M  V30 6373 H 642.163 -5.15644 -2.50568 0
M  V30 6374 H 640.56 -5.68622 -1.91805 0
M  V30 6375 H 641.63 -4.77634 -0.836277 0
M  V30 6376 N 642.974 0.416227 -1.52004 0
M  V30 6377 C 644.199 1.19029 -1.69843 0
M  V30 6378 C 644.624 1.83708 -0.404103 0
M  V30 6379 O 643.982 1.69711 0.637787 0
M  V30 6380 C 644.03 2.23439 -2.83032 0
M  V30 6381 O 643.134 3.29419 -2.48106 0
M  V30 6382 H 642.475 0.347785 -0.565634 0
M  V30 6383 H 645.005 0.488871 -1.98674 0
M  V30 6384 H 645.015 2.67884 -3.07737 0
M  V30 6385 H 643.69 1.75745 -3.76944 0
M  V30 6386 H 642.267 2.90303 -2.34048 0
M  V30 6387 N 644.452 1.42507 0.673017 0
M  V30 6388 C 645.384 1.42074 1.79854 0
M  V30 6389 C 646.397 0.319569 1.59633 0
M  V30 6390 O 647.586 0.582769 1.68719 0
M  V30 6391 C 644.686 1.19886 3.16987 0
M  V30 6392 C 643.859 2.42471 3.64042 0
M  V30 6393 C 642.918 2.15802 4.79913 0
M  V30 6394 O 641.944 2.89015 4.90366 0
M  V30 6395 N 643.146 1.16225 5.68746 0
M  V30 6396 H 645.911 2.3909 1.8071 0
M  V30 6397 H 643.472 1.37409 0.856171 0
M  V30 6398 H 645.464 0.999591 3.92161 0
M  V30 6399 H 644.034 0.313879 3.1102 0
M  V30 6400 H 643.254 2.77954 2.79526 0
M  V30 6401 H 644.542 3.24097 3.92223 0
M  V30 6402 H 643.94 0.556756 5.62954 0
M  V30 6403 H 642.497 1.02285 6.43724 0
M  V30 6404 N 645.93 -0.909495 1.28709 0
M  V30 6405 C 646.877 -2.01245 1.13 0
M  V30 6406 C 647.847 -1.6608 0.0259684 0
M  V30 6407 O 649.032 -1.89835 0.191687 0
M  V30 6408 C 646.172 -3.35644 0.802315 0
M  V30 6409 C 645.285 -3.83653 1.98582 0
M  V30 6410 C 644.42 -5.06582 1.59837 0
M  V30 6411 C 643.459 -5.46934 2.74827 0
M  V30 6412 N 642.596 -6.61053 2.36546 0
M  V30 6413 H 647.436 -2.14013 2.0737 0
M  V30 6414 H 644.973 -1.0482 1.03205 0
M  V30 6415 H 646.931 -4.12963 0.593057 0
M  V30 6416 H 645.561 -3.22631 -0.104457 0
M  V30 6417 H 644.613 -3.02454 2.30708 0
M  V30 6418 H 645.925 -4.09515 2.84779 0
M  V30 6419 H 645.079 -5.91457 1.35143 0
M  V30 6420 H 643.818 -4.82537 0.707753 0
M  V30 6421 H 642.823 -4.60599 3.00215 0
M  V30 6422 H 644.048 -5.72965 3.64538 0
M  V30 6423 H 641.994 -6.3863 1.49959 0
M  V30 6424 H 641.911 -6.86662 3.16277 0
M  V30 6425 H 643.179 -7.49221 2.15146 0
M  V30 6426 N 647.408 -1.11026 -1.11852 0
M  V30 6427 C 648.657 -0.851249 -1.82857 0
M  V30 6428 C 648.97 0.62514 -1.85341 0
M  V30 6429 O 650.176 1.00026 -2.52403 0
M  V30 6430 C 648.632 -1.47309 -3.28372 0
M  V30 6431 C 648.24 -2.9832 -3.34229 0
M  V30 6432 C 649.984 -1.29373 -4.04306 0
M  V30 6433 C 647.891 -3.53509 -4.74115 0
M  V30 6434 H 646.821 -0.314794 -0.685143 0
M  V30 6435 H 649.472 -1.33499 -1.25898 0
M  V30 6436 H 647.854 -0.917017 -3.85236 0
M  V30 6437 H 649.028 -3.60295 -2.87271 0
M  V30 6438 H 647.343 -3.15482 -2.71772 0
M  V30 6439 H 649.94 -1.68042 -5.07608 0
M  V30 6440 H 650.283 -0.235879 -4.15631 0
M  V30 6441 H 650.816 -1.8182 -3.53817 0
M  V30 6442 H 647.555 -4.58987 -4.67986 0
M  V30 6443 H 647.075 -2.96305 -5.21501 0
M  V30 6444 H 648.754 -3.51693 -5.43066 0
M  V30 6445 N 648.886 1.2938 -0.899927 0
M  V30 6446 C 650.132 1.9584 -0.526742 0
M  V30 6447 C 650.465 1.70774 0.924651 0
M  V30 6448 O 649.74 1.02084 1.65557 0
M  V30 6449 C 650.023 3.50638 -0.820062 0
M  V30 6450 C 649.876 3.85161 -2.32317 0
M  V30 6451 C 651.195 4.3903 -0.30671 0
M  V30 6452 H 648.314 0.711322 -0.192848 0
M  V30 6453 H 650.956 1.52992 -1.12665 0
M  V30 6454 H 649.106 3.87265 -0.309491 0
M  V30 6455 H 650.778 3.58477 -2.9033 0
M  V30 6456 H 649.021 3.32696 -2.78381 0
M  V30 6457 H 649.692 4.93204 -2.47898 0
M  V30 6458 H 652.168 4.09396 -0.743908 0
M  V30 6459 H 651.044 5.46226 -0.541144 0
M  V30 6460 H 651.305 4.34937 0.792588 0
M  V30 6461 N 650.364 0.662433 1.43002 0
M  V30 6462 C 651.296 -0.062326 2.29115 0
M  V30 6463 C 652.309 -0.777926 1.43011 0
M  V30 6464 O 653.498 -0.634146 1.66856 0
M  V30 6465 C 650.598 -1.11163 3.2015 0
M  V30 6466 C 649.771 -0.472327 4.34842 0
M  V30 6467 C 648.83 -1.41974 5.06685 0
M  V30 6468 O 647.856 -0.924795 5.61637 0
M  V30 6469 N 649.058 -2.75345 5.11043 0
M  V30 6470 H 651.823 0.676838 2.91957 0
M  V30 6471 H 649.384 0.505907 1.53793 0
M  V30 6472 H 651.376 -1.74643 3.65078 0
M  V30 6473 H 649.946 -1.75266 2.58845 0
M  V30 6474 H 649.166 0.341751 3.92716 0
M  V30 6475 H 650.454 -0.0264381 5.08793 0
M  V30 6476 H 649.852 -3.18108 4.67786 0
M  V30 6477 H 648.409 -3.34105 5.59658 0
M  V30 6478 N 651.842 -1.52309 0.404946 0
M  V30 6479 C 653.091 -2.00952 -0.173529 0
M  V30 6480 C 653.404 -1.29512 -1.46581 0
M  V30 6481 O 654.61 -1.6895 -2.12528 0
M  V30 6482 C 653.066 -3.58097 -0.359801 0
M  V30 6483 C 652.674 -4.38449 0.920138 0
M  V30 6484 C 654.418 -4.14984 -0.893794 0
M  V30 6485 C 652.325 -5.87227 0.701285 0
M  V30 6486 H 651.255 -0.750871 -0.0686244 0
M  V30 6487 H 653.906 -1.75687 0.529749 0
M  V30 6488 H 652.288 -3.79675 -1.12531 0
M  V30 6489 H 653.462 -4.28633 1.69147 0
M  V30 6490 H 651.777 -3.92859 1.38024 0
M  V30 6491 H 654.374 -5.23813 -1.0735 0
M  V30 6492 H 654.717 -3.72072 -1.8673 0
M  V30 6493 H 655.25 -3.97358 -0.187453 0
M  V30 6494 H 651.989 -6.34491 1.64624 0
M  V30 6495 H 651.509 -5.99792 -0.0308288 0
M  V30 6496 H 653.188 -6.46096 0.341846 0
M  V30 6497 N 653.32 -0.135238 -1.57019 0
M  V30 6498 C 654.268 0.826099 -2.17436 0
M  V30 6499 C 655.262 1.26378 -1.12805 0
M  V30 6500 O 656.468 1.23363 -1.31079 0
M  V30 6501 H 652.843 0.284568 -0.696078 0
M  V30 6502 H 654.814 0.292212 -2.96966 0
M  V30 6503 C 653.563 2.05991 -2.80112 0
M  V30 6504 H 652.886 1.73209 -3.60331 0
M  V30 6505 H 654.326 2.71225 -3.25903 0
M  V30 6506 C 652.785 2.86027 -1.78017 0
M  V30 6507 O 653.315 3.81971 -1.24344 0
M  V30 6508 N 651.521 2.50332 -1.47588 0
M  V30 6509 H 651.068 1.72377 -1.91426 0
M  V30 6510 H 651.026 3.04177 -0.795228 0
M  V30 6511 N 654.798 1.5699 0.138552 0
M  V30 6512 C 656.046 1.83446 0.848053 0
M  V30 6513 C 656.367 0.71744 1.81322 0
M  V30 6514 O 655.637 -0.260228 1.94164 0
M  V30 6515 H 654.217 0.676792 0.316166 0
M  V30 6516 H 656.879 1.94462 0.130538 0
M  V30 6517 H 655.975 2.78677 1.40518 0
M  V30 6518 N 656.276 -0.40816 1.52223 0
M  V30 6519 C 657.692 -0.74685 1.41047 0
M  V30 6520 C 657.892 -1.94788 0.51573 0
M  V30 6521 O 656.948 -2.52494 -0.0181156 0
M  V30 6522 C 658.261 -0.999878 2.83589 0
M  V30 6523 C 659.809 -1.10253 2.92939 0
M  V30 6524 C 660.284 -1.38832 4.36451 0
M  V30 6525 N 661.775 -1.45694 4.3969 0
M  V30 6526 C 662.51 -1.69435 5.47795 0
M  V30 6527 N 662.006 -1.90774 6.66016 0
M  V30 6528 N 663.799 -1.71458 5.35312 0
M  V30 6529 H 655.95 0.382409 2.08929 0
M  V30 6530 H 658.213 0.108807 0.941735 0
M  V30 6531 H 657.919 -0.189723 3.51188 0
M  V30 6532 H 657.793 -1.91978 3.24691 0
M  V30 6533 H 660.18 -1.90328 2.2552 0
M  V30 6534 H 660.261 -0.160973 2.55293 0
M  V30 6535 H 659.905 -0.592741 5.04429 0
M  V30 6536 H 659.835 -2.34241 4.71634 0
M  V30 6537 H 662.326 -1.3099 3.54472 0
M  V30 6538 H 662.639 -2.08342 7.44186 0
M  V30 6539 H 660.984 -1.88037 6.69079 0
M  V30 6540 H 664.175 -1.54326 4.41929 0
M  V30 6541 H 664.348 -1.89621 6.19635 0
M  V30 6542 N 657.755 -1.42862 -0.66545 0
M  V30 6543 C 658.705 -1.43521 -1.7716 0
M  V30 6544 C 659.689 -0.305267 -1.57978 0
M  V30 6545 O 660.881 -0.548176 -1.68297 0
M  V30 6546 C 658.01 -1.34914 -3.15679 0
M  V30 6547 C 657.096 -2.5289 -3.40452 0
M  V30 6548 N 657.487 -3.78284 -3.3576 0
M  V30 6549 C 655.785 -2.47351 -3.71124 0
M  V30 6550 C 656.486 -4.56701 -3.60276 0
M  V30 6551 N 655.462 -3.87249 -3.81496 0
M  V30 6552 H 659.264 -2.38357 -1.7194 0
M  V30 6553 H 656.778 -1.37342 -0.866653 0
M  V30 6554 H 658.775 -1.33468 -3.94958 0
M  V30 6555 H 657.435 -0.410881 -3.2209 0
M  V30 6556 H 658.446 -4.10746 -3.15448 0
M  V30 6557 H 655.123 -1.62152 -3.84725 0
M  V30 6558 H 656.513 -5.65704 -3.6253 0
M  V30 6559 N 659.233 0.902656 -1.29189 0
M  V30 6560 C 660.48 1.65287 -1.16989 0
M  V30 6561 C 660.808 1.92485 0.279232 0
M  V30 6562 O 660.063 1.53143 1.21843 0
M  V30 6563 C 660.362 3.011 -1.92545 0
M  V30 6564 C 660.028 2.93521 -3.42281 0
M  V30 6565 C 658.69 2.91161 -3.83117 0
M  V30 6566 C 661.042 2.82947 -4.3771 0
M  V30 6567 C 658.37 2.76043 -5.17704 0
M  V30 6568 C 660.722 2.69368 -5.72384 0
M  V30 6569 C 659.386 2.65373 -6.12482 0
M  V30 6570 H 658.656 0.604828 -0.428094 0
M  V30 6571 H 661.303 1.05084 -1.60092 0
M  V30 6572 H 659.608 3.65153 -1.42024 0
M  V30 6573 H 661.305 3.58073 -1.80512 0
M  V30 6574 H 657.895 2.96158 -3.09819 0
M  V30 6575 H 662.079 2.83849 -4.07116 0
M  V30 6576 H 657.335 2.71352 -5.47885 0
M  V30 6577 H 661.509 2.60156 -6.45981 0
M  V30 6578 H 659.136 2.53415 -7.16718 0
M  V30 6579 N 660.711 1.11618 1.11262 0
M  V30 6580 C 661.988 0.777876 1.79467 0
M  V30 6581 C 662.368 -0.733774 1.97937 0
M  V30 6582 O 661.716 -1.66443 1.56554 0
M  V30 6583 C 661.926 1.5431 3.13032 0
M  V30 6584 C 663.274 1.72357 3.88044 0
M  V30 6585 O 664.298 1.5075 3.22727 0
M  V30 6586 O 663.157 2.08276 5.05256 0
M  V30 6587 H 660.251 0.282018 0.777428 0
M  V30 6588 H 662.797 1.21971 1.17988 0
M  V30 6589 H 661.569 2.57132 2.94956 0
M  V30 6590 H 661.192 1.09495 3.82226 0
M  V30 6591 N 662.189 -1.289 0.906776 0
M  V30 6592 C 663.119 -2.29932 0.406659 0
M  V30 6593 C 664.1 -1.6189 -0.522061 0
M  V30 6594 O 665.285 -1.8935 -0.431283 0
M  V30 6595 C 662.415 -3.45425 -0.360366 0
M  V30 6596 C 661.369 -4.25316 0.478574 0
M  V30 6597 C 660.695 -5.33076 -0.416373 0
M  V30 6598 C 661.995 -4.92739 1.7322 0
M  V30 6599 H 663.689 -2.72013 1.25097 0
M  V30 6600 H 661.235 -1.30768 0.602977 0
M  V30 6601 H 663.188 -4.15186 -0.721029 0
M  V30 6602 H 661.912 -3.02206 -1.23852 0
M  V30 6603 H 660.571 -3.57273 0.821662 0
M  V30 6604 H 660.219 -4.86101 -1.29287 0
M  V30 6605 H 659.919 -5.8743 0.141309 0
M  V30 6606 H 661.443 -6.05686 -0.773072 0
M  V30 6607 H 662.857 -5.54898 1.44086 0
M  V30 6608 H 661.254 -5.57057 2.23175 0
M  V30 6609 H 662.324 -4.17625 2.46408 0
M  V30 6610 N 663.667 -0.670007 -1.42649 0
M  V30 6611 C 665.083 -0.33911 -1.55956 0
M  V30 6612 C 665.283 1.1558 -1.65056 0
M  V30 6613 O 664.339 1.94111 -1.61485 0
M  V30 6614 C 665.652 -1.06522 -2.812 0
M  V30 6615 C 667.2 -1.04708 -2.94966 0
M  V30 6616 C 667.675 -1.75442 -4.23065 0
M  V30 6617 N 669.166 -1.72286 -4.29967 0
M  V30 6618 C 669.901 -2.23877 -5.27889 0
M  V30 6619 N 669.397 -2.83829 -6.31991 0
M  V30 6620 N 671.19 -2.14279 -5.19654 0
M  V30 6621 H 663.341 -1.6399 -1.34986 0
M  V30 6622 H 665.604 -0.690603 -0.649439 0
M  V30 6623 H 665.31 -2.12033 -2.80597 0
M  V30 6624 H 665.184 -0.627398 -3.71946 0
M  V30 6625 H 667.571 -0.000315966 -2.951 0
M  V30 6626 H 667.652 -1.52374 -2.05465 0
M  V30 6627 H 667.296 -2.80084 -4.23693 0
M  V30 6628 H 667.226 -1.25229 -5.11493 0
M  V30 6629 H 669.717 -1.28554 -3.55362 0
M  V30 6630 H 670.03 -3.20827 -7.03057 0
M  V30 6631 H 668.375 -2.87896 -6.32567 0
M  V30 6632 H 671.566 -1.67135 -4.37245 0
M  V30 6633 H 671.739 -2.54792 -5.95806 0
M  V30 6634 N 665.145 1.52092 -0.413018 0
M  V30 6635 C 666.108 2.25706 0.398687 0
M  V30 6636 C 667.108 1.28221 0.970368 0
M  V30 6637 O 668.298 1.52131 0.848635 0
M  V30 6638 C 665.43 3.03029 1.5616 0
M  V30 6639 H 666.623 2.98888 -0.246131 0
M  V30 6640 H 664.176 1.5542 -0.165622 0
M  V30 6641 H 664.911 2.34205 2.24317 0
M  V30 6642 H 664.696 3.74606 1.15812 0
M  V30 6643 H 666.186 3.58857 2.13569 0
M  V30 6644 N 666.623 0.143563 1.56945 0
M  V30 6645 C 667.555 -0.828353 2.13708 0
M  V30 6646 C 668.568 -1.21313 1.08568 0
M  V30 6647 O 669.757 -1.1578 1.35857 0
M  V30 6648 C 666.857 -2.12248 2.64204 0
M  V30 6649 C 666.03 -1.90561 3.93707 0
M  V30 6650 C 665.089 -3.03931 4.29549 0
M  V30 6651 O 664.115 -2.75772 4.97934 0
M  V30 6652 N 665.317 -4.31016 3.88852 0
M  V30 6653 H 668.082 -0.343242 2.97728 0
M  V30 6654 H 665.643 -0.0401152 1.6185 0
M  V30 6655 H 667.635 -2.87132 2.85197 0
M  V30 6656 H 666.205 -2.52033 1.84928 0
M  V30 6657 H 665.425 -0.997327 3.81375 0
M  V30 6658 H 666.713 -1.73405 4.78339 0
M  V30 6659 H 666.111 -4.56762 3.33743 0
M  V30 6660 H 664.668 -5.02691 4.14903 0
M  V30 6661 N 668.101 -1.57061 -0.130224 0
M  V30 6662 C 669.349 -1.83893 -0.838313 0
M  V30 6663 C 669.67 -0.727046 -1.80939 0
M  V30 6664 O 668.94 0.249927 -1.94299 0
M  V30 6665 H 667.52 -0.67846 -0.312573 0
M  V30 6666 H 670.182 -1.94529 -0.120224 0
M  V30 6667 H 669.278 -2.79419 -1.39038 0
M  V30 6668 N 669.579 0.400081 -1.52437 0
M  V30 6669 C 670.828 1.14332 -1.66166 0
M  V30 6670 C 671.141 1.91419 -0.402253 0
M  V30 6671 O 672.347 2.6824 -0.419487 0
M  V30 6672 C 670.803 2.08137 -2.9361 0
M  V30 6673 C 670.411 1.36524 -4.26691 0
M  V30 6674 C 672.155 2.82664 -3.16703 0
M  V30 6675 C 670.062 2.29031 -5.45251 0
M  V30 6676 H 668.992 0.430499 -0.61902 0
M  V30 6677 H 671.643 0.407017 -1.78929 0
M  V30 6678 H 670.025 2.85358 -2.74567 0
M  V30 6679 H 671.199 0.646061 -4.56249 0
M  V30 6680 H 669.514 0.74002 -4.09771 0
M  V30 6681 H 672.111 3.52037 -4.0246 0
M  V30 6682 H 672.454 3.46122 -2.31312 0
M  V30 6683 H 672.987 2.12541 -3.36261 0
M  V30 6684 H 669.726 1.70206 -6.33017 0
M  V30 6685 H 669.246 2.98896 -5.2002 0
M  V30 6686 H 670.925 2.89359 -5.78689 0
M  V30 6687 N 671.057 1.43213 0.657864 0
M  V30 6688 C 672.005 1.48271 1.79216 0
M  V30 6689 C 672.999 0.35675 1.65601 0
M  V30 6690 O 674.205 0.530535 1.72004 0
M  V30 6691 H 670.58 0.464729 0.591211 0
M  V30 6692 H 672.551 2.43792 1.7207 0
M  V30 6693 C 671.3 1.41837 3.17455 0
M  V30 6694 H 670.623 2.27781 3.28567 0
M  V30 6695 H 672.063 1.49438 3.96793 0
M  V30 6696 C 670.522 0.135347 3.36628 0
M  V30 6697 O 671.052 -0.805199 3.93547 0
M  V30 6698 N 669.258 0.0470316 2.90562 0
M  V30 6699 H 668.805 0.813221 2.44427 0
M  V30 6700 H 668.763 -0.810737 3.03767 0
M  V30 6701 N 672.536 -0.895792 1.29666 0
M  V30 6702 C 673.466 -2.01673 1.17688 0
M  V30 6703 C 674.447 -1.69955 0.0701317 0
M  V30 6704 O 675.632 -1.9258 0.250289 0
M  V30 6705 C 672.762 -3.36568 0.856681 0
M  V30 6706 C 671.716 -3.82509 1.92017 0
M  V30 6707 C 671.042 -5.14574 1.4532 0
M  V30 6708 C 672.342 -4.02409 3.32963 0
M  V30 6709 H 674.036 -2.11953 2.11463 0
M  V30 6710 H 671.582 -1.01839 1.01807 0
M  V30 6711 H 673.535 -4.14498 0.759577 0
M  V30 6712 H 672.259 -3.26391 -0.116763 0
M  V30 6713 H 670.918 -3.068 2.00673 0
M  V30 6714 H 670.566 -5.00815 0.468325 0
M  V30 6715 H 670.266 -5.46283 2.16447 0
M  V30 6716 H 671.79 -5.9504 1.36968 0
M  V30 6717 H 673.204 -4.70808 3.27127 0
M  V30 6718 H 671.601 -4.45478 4.02082 0
M  V30 6719 H 672.671 -3.06616 3.75652 0
M  V30 6720 N 674.014 -1.12206 -1.10668 0
M  V30 6721 C 675.263 -0.870595 -1.81944 0
M  V30 6722 C 675.576 0.605447 -1.85994 0
M  V30 6723 O 676.782 0.973433 -2.53449 0
M  V30 6724 C 675.238 -1.50783 -3.26791 0
M  V30 6725 C 674.846 -3.01849 -3.31046 0
M  V30 6726 C 676.59 -1.33653 -4.02911 0
M  V30 6727 C 674.497 -3.58518 -4.70339 0
M  V30 6728 H 673.427 -0.322043 -0.681765 0
M  V30 6729 H 676.078 -1.34827 -1.24475 0
M  V30 6730 H 674.46 -0.957825 -3.84242 0
M  V30 6731 H 675.634 -3.63321 -2.83433 0
M  V30 6732 H 673.949 -3.18346 -2.68411 0
M  V30 6733 H 676.546 -1.73416 -5.05797 0
M  V30 6734 H 676.889 -0.279949 -4.15358 0
M  V30 6735 H 677.422 -1.85562 -3.51868 0
M  V30 6736 H 674.161 -4.63925 -4.63091 0
M  V30 6737 H 673.681 -3.01819 -5.18329 0
M  V30 6738 H 675.36 -3.57434 -5.39305 0
M  V30 6739 N 675.492 1.28418 -0.913599 0
M  V30 6740 C 676.741 1.94265 -0.542572 0
M  V30 6741 C 677.054 1.72709 0.918207 0
M  V30 6742 O 678.26 2.32778 1.39738 0
M  V30 6743 C 676.716 3.47956 -0.919507 0
M  V30 6744 C 676.324 3.78291 -2.4 0
M  V30 6745 C 678.068 4.19962 -0.619057 0
M  V30 6746 C 675.975 5.2529 -2.71707 0
M  V30 6747 H 674.905 0.727213 -0.199192 0
M  V30 6748 H 677.556 1.45931 -1.11249 0
M  V30 6749 H 675.938 3.9502 -0.278372 0
M  V30 6750 H 677.112 3.42035 -3.08786 0
M  V30 6751 H 675.427 3.19456 -2.67089 0
M  V30 6752 H 678.024 5.28178 -0.832623 0
M  V30 6753 H 678.367 4.13935 0.443126 0
M  V30 6754 H 678.9 3.78674 -1.21865 0
M  V30 6755 H 675.639 5.36394 -3.76778 0
M  V30 6756 H 675.159 5.62743 -2.07559 0
M  V30 6757 H 676.838 5.93027 -2.58703 0
M  V30 6758 N 676.97 0.677563 1.42291 0
M  V30 6759 C 677.92 -0.0218641 2.2799 0
M  V30 6760 C 678.904 -0.770816 1.41235 0
M  V30 6761 O 680.096 -0.649273 1.64662 0
M  V30 6762 C 677.225 -0.970449 3.29298 0
M  V30 6763 C 676.311 -0.218695 4.23536 0
M  V30 6764 N 676.702 0.777908 4.99782 0
M  V30 6765 C 675 -0.456748 4.43655 0
M  V30 6766 C 675.701 1.22632 5.68627 0
M  V30 6767 N 674.677 0.55573 5.40752 0
M  V30 6768 H 678.479 0.742516 2.84366 0
M  V30 6769 H 675.993 0.506862 1.54288 0
M  V30 6770 H 677.99 -1.48652 3.89497 0
M  V30 6771 H 676.65 -1.73463 2.74483 0
M  V30 6772 H 677.661 1.15754 5.04798 0
M  V30 6773 H 674.338 -1.20021 3.99877 0
M  V30 6774 H 675.728 2.05231 6.39789 0
M  V30 6775 N 678.448 -1.51871 0.421078 0
M  V30 6776 C 679.678 -2.06057 -0.149723 0
M  V30 6777 C 680.086 -1.29002 -1.38402 0
M  V30 6778 O 679.429 -0.338385 -1.80556 0
M  V30 6779 C 679.491 -3.55216 -0.553339 0
M  V30 6780 C 679.155 -4.53408 0.571879 0
M  V30 6781 C 680.152 -4.99586 1.4391 0
M  V30 6782 C 677.837 -4.967 0.747979 0
M  V30 6783 C 679.831 -5.87711 2.46727 0
M  V30 6784 C 677.518 -5.84619 1.77944 0
M  V30 6785 C 678.516 -6.30021 2.63748 0
M  V30 6786 O 678.204 -7.16197 3.65126 0
M  V30 6787 H 677.936 -0.675744 -0.0186102 0
M  V30 6788 H 680.49 -1.96618 0.594166 0
M  V30 6789 H 678.72 -3.62381 -1.34969 0
M  V30 6790 H 680.409 -3.91992 -1.05342 0
M  V30 6791 H 681.175 -4.66846 1.31451 0
M  V30 6792 H 677.054 -4.60913 0.0897357 0
M  V30 6793 H 680.598 -6.2307 3.13734 0
M  V30 6794 H 676.495 -6.16771 1.90429 0
M  V30 6795 H 677.263 -7.34337 3.61512 0
M  V30 6796 N 679.926 -0.151884 -1.56866 0
M  V30 6797 C 681.172 0.498742 -1.96572 0
M  V30 6798 C 681.505 1.64194 -1.03702 0
M  V30 6799 O 680.78 1.94334 -0.0803432 0
M  V30 6800 C 681.063 1.00027 -3.45929 0
M  V30 6801 C 680.916 -0.141767 -4.49577 0
M  V30 6802 C 682.235 1.88044 -3.97904 0
M  V30 6803 H 679.354 0.17982 -0.714726 0
M  V30 6804 H 681.996 -0.234097 -1.88552 0
M  V30 6805 H 680.146 1.62476 -3.52894 0
M  V30 6806 H 681.818 -0.778269 -4.54687 0
M  V30 6807 H 680.061 -0.80019 -4.26356 0
M  V30 6808 H 680.732 0.250947 -5.51429 0
M  V30 6809 H 683.208 1.35416 -3.93449 0
M  V30 6810 H 682.084 2.20043 -5.02864 0
M  V30 6811 H 682.345 2.81916 -3.40552 0
M  V30 6812 N 681.404 1.57128 0.121893 0
M  V30 6813 C 682.681 1.75664 0.860327 0
M  V30 6814 C 683.061 0.726585 1.98202 0
M  V30 6815 O 682.409 -0.24999 2.27128 0
M  V30 6816 C 682.619 3.20571 1.37968 0
M  V30 6817 C 683.967 3.82988 1.83317 0
M  V30 6818 O 684.991 3.24156 1.47654 0
M  V30 6819 O 683.85 4.86393 2.49168 0
M  V30 6820 H 680.944 0.719153 0.408348 0
M  V30 6821 H 683.49 1.6937 0.105859 0
M  V30 6822 H 682.262 3.87056 0.57477 0
M  V30 6823 H 681.885 3.31392 2.19694 0
M  V30 6824 N 682.882 -0.391992 1.52647 0
M  V30 6825 C 684.298 -0.731848 1.41831 0
M  V30 6826 C 684.498 -1.9423 0.536361 0
M  V30 6827 O 683.554 -2.52499 0.00866571 0
M  V30 6828 C 684.867 -0.969743 2.84634 0
M  V30 6829 C 686.415 -1.0714 2.94092 0
M  V30 6830 C 686.89 -1.34195 4.37899 0
M  V30 6831 N 688.381 -1.41023 4.41211 0
M  V30 6832 C 689.116 -1.63616 5.49561 0
M  V30 6833 N 688.612 -1.83699 6.68002 0
M  V30 6834 N 690.405 -1.65771 5.371 0
M  V30 6835 H 682.556 0.404547 2.08512 0
M  V30 6836 H 684.819 0.11879 0.940528 0
M  V30 6837 H 684.525 -0.152465 3.51369 0
M  V30 6838 H 684.399 -1.88523 3.26709 0
M  V30 6839 H 686.786 -1.87925 2.27526 0
M  V30 6840 H 686.867 -0.133887 2.55449 0
M  V30 6841 H 686.511 -0.539207 5.0503 0
M  V30 6842 H 686.441 -2.29226 4.74092 0
M  V30 6843 H 688.932 -1.27223 3.55841 0
M  V30 6844 H 689.245 -2.00437 7.46354 0
M  V30 6845 H 687.59 -1.8093 6.71036 0
M  V30 6846 H 690.781 -1.4963 4.43541 0
M  V30 6847 H 690.954 -1.83038 6.21612 0
M  V30 6848 N 684.36 -1.4356 -0.65026 0
M  V30 6849 C 685.771 -1.40324 -1.2315 0
M  V30 6850 C 686.122 -0.108812 -1.95898 0
M  V30 6851 O 685.247 0.79163 -2.01401 0
M  V30 6852 C 685.842 -2.54195 -2.23987 0
M  V30 6853 C 684.401 -2.54215 -2.77582 0
M  V30 6854 C 683.548 -2.31752 -1.5227 0
M  V30 6855 H 686.499 -1.52418 -0.442095 0
M  V30 6856 H 686.52 -2.25854 -3.0622 0
M  V30 6857 H 686.032 -3.48392 -1.71011 0
M  V30 6858 H 684.133 -1.63907 -3.34612 0
M  V30 6859 H 684.246 -3.52081 -3.24925 0
M  V30 6860 H 682.61 -1.80476 -1.79723 0
M  V30 6861 H 683.393 -3.28037 -1.01225 0
M  V30 6862 N 685.838 0.888903 -1.30139 0
M  V30 6863 C 687.086 1.63713 -1.18501 0
M  V30 6864 C 687.407 1.9324 0.261399 0
M  V30 6865 O 686.677 1.56608 1.17689 0
M  V30 6866 H 685.257 0.606861 -0.435579 0
M  V30 6867 H 687.919 1.06525 -1.63213 0
M  V30 6868 H 687.015 2.58894 -1.743 0
M  V30 6869 N 687.317 1.12792 1.10072 0
M  V30 6870 C 688.28 0.802264 2.14701 0
M  V30 6871 C 689.28 -0.18515 1.59731 0
M  V30 6872 O 690.47 0.041109 1.74151 0
M  V30 6873 C 687.602 0.19285 3.40354 0
M  V30 6874 H 688.795 1.72932 2.45019 0
M  V30 6875 H 686.348 0.931662 1.25498 0
M  V30 6876 H 687.083 -0.743748 3.15656 0
M  V30 6877 H 686.868 0.903827 3.81541 0
M  V30 6878 H 688.358 -0.0183704 4.17596 0
M  V30 6879 N 688.795 -1.27931 0.920396 0
M  V30 6880 C 689.725 -2.29487 0.431024 0
M  V30 6881 C 690.706 -1.62435 -0.504861 0
M  V30 6882 O 691.891 -1.89797 -0.411176 0
M  V30 6883 C 689.021 -3.45788 -0.323709 0
M  V30 6884 C 687.975 -4.24784 0.523658 0
M  V30 6885 C 687.301 -5.33488 -0.359809 0
M  V30 6886 C 688.601 -4.90874 1.78437 0
M  V30 6887 H 690.295 -2.70671 1.27975 0
M  V30 6888 H 687.841 -1.30121 0.616813 0
M  V30 6889 H 689.794 -4.15927 -0.676952 0
M  V30 6890 H 688.518 -3.03502 -1.2064 0
M  V30 6891 H 687.177 -3.56382 0.85951 0
M  V30 6892 H 686.825 -4.87445 -1.24124 0
M  V30 6893 H 686.525 -5.87247 0.203605 0
M  V30 6894 H 688.049 -6.06472 -0.708787 0
M  V30 6895 H 689.463 -5.53339 1.49963 0
M  V30 6896 H 687.86 -5.54659 2.29071 0
M  V30 6897 H 688.93 -4.14988 2.50824 0
M  V30 6898 N 690.273 -0.685099 -1.4193 0
M  V30 6899 C 691.521 -0.21124 -2.00993 0
M  V30 6900 C 691.842 1.18985 -1.54491 0
M  V30 6901 O 691.112 1.8009 -0.771 0
M  V30 6902 H 689.692 -0.0751059 -0.743215 0
M  V30 6903 H 692.354 -0.883915 -1.73704 0
M  V30 6904 H 691.45 -0.220513 -3.1132 0
M  V30 6905 N 691.751 1.51645 -0.429126 0
M  V30 6906 C 692.698 2.27542 0.386446 0
M  V30 6907 C 693.668 1.30786 1.02393 0
M  V30 6908 O 694.853 1.59678 1.0444 0
M  V30 6909 C 691.993 3.11457 1.48623 0
M  V30 6910 C 691.106 4.23196 0.867691 0
M  V30 6911 C 690.241 4.94435 1.94183 0
M  V30 6912 C 689.28 5.98108 1.30129 0
M  V30 6913 N 688.417 6.62786 2.31644 0
M  V30 6914 H 693.257 2.968 -0.267155 0
M  V30 6915 H 690.794 1.46397 -0.143591 0
M  V30 6916 H 692.752 3.58429 2.13506 0
M  V30 6917 H 691.382 2.44329 2.10957 0
M  V30 6918 H 690.434 3.80248 0.107373 0
M  V30 6919 H 691.746 4.97499 0.35997 0
M  V30 6920 H 690.9 5.44914 2.66747 0
M  V30 6921 H 689.639 4.19744 2.48326 0
M  V30 6922 H 688.644 5.4693 0.561082 0
M  V30 6923 H 689.869 6.74751 0.767303 0
M  V30 6924 H 687.815 5.90913 2.84883 0
M  V30 6925 H 687.732 7.32828 1.85741 0
M  V30 6926 H 689 7.17897 3.03717 0
M  V30 6927 N 693.229 0.160201 1.56784 0
M  V30 6928 C 694.478 -0.487619 1.95717 0
M  V30 6929 C 694.791 -1.65136 1.0483 0
M  V30 6930 O 695.997 -2.36468 1.33398 0
M  V30 6931 C 694.453 -0.91888 3.47972 0
M  V30 6932 C 694.061 0.218655 4.47466 0
M  V30 6933 C 695.805 -1.53575 3.95746 0
M  V30 6934 C 693.712 -0.231614 5.90946 0
M  V30 6935 H 692.642 -0.185939 0.730714 0
M  V30 6936 H 695.293 0.246657 1.81835 0
M  V30 6937 H 693.675 -1.70881 3.57234 0
M  V30 6938 H 694.849 0.995825 4.49911 0
M  V30 6939 H 693.164 0.744767 4.09685 0
M  V30 6940 H 695.761 -1.88448 5.00391 0
M  V30 6941 H 696.104 -2.42959 3.38048 0
M  V30 6942 H 696.637 -0.810467 3.89456 0
M  V30 6943 H 693.376 0.62718 6.52493 0
M  V30 6944 H 692.896 -0.974379 5.91833 0
M  V30 6945 H 694.575 -0.67922 6.43425 0
M  V30 6946 N 694.707 -1.5719 -0.113559 0
M  V30 6947 C 695.955 -1.84772 -0.818761 0
M  V30 6948 C 696.276 -0.746196 -1.80158 0
M  V30 6949 O 695.546 0.229305 -1.94553 0
M  V30 6950 H 694.126 -0.681737 -0.305359 0
M  V30 6951 H 696.788 -1.94645 -0.0995845 0
M  V30 6952 H 695.884 -2.80878 -1.36067 0
M  V30 6953 N 696.185 0.383891 -1.52853 0
M  V30 6954 C 697.413 1.1495 -1.7203 0
M  V30 6955 C 697.828 1.83578 -0.440957 0
M  V30 6956 O 697.185 1.72872 0.584925 0
M  V30 6957 C 697.236 2.19368 -2.87333 0
M  V30 6958 O 696.957 1.53536 -4.10315 0
M  V30 6959 C 698.458 3.08616 -3.18231 0
M  V30 6960 H 695.678 0.344445 -0.575846 0
M  V30 6961 H 698.222 0.448397 -1.99524 0
M  V30 6962 H 696.377 2.85105 -2.62286 0
M  V30 6963 H 696.791 2.2296 -4.74752 0
M  V30 6964 H 698.265 3.77902 -4.02361 0
M  V30 6965 H 698.742 3.72409 -2.32826 0
M  V30 6966 H 699.348 2.48518 -3.45136 0
M  V30 6967 N 697.663 1.43903 0.642637 0
M  V30 6968 C 698.593 1.52697 1.76652 0
M  V30 6969 C 699.574 0.380816 1.65782 0
M  V30 6970 O 700.759 0.599432 1.84717 0
M  V30 6971 C 697.889 1.45975 3.15133 0
M  V30 6972 C 696.843 2.58949 3.40778 0
M  V30 6973 C 696.169 2.37279 4.79169 0
M  V30 6974 C 697.469 4.01153 3.34475 0
M  V30 6975 H 699.163 2.46766 1.69549 0
M  V30 6976 H 696.709 1.18767 0.814279 0
M  V30 6977 H 698.662 1.5073 3.93521 0
M  V30 6978 H 697.386 0.484162 3.22991 0
M  V30 6979 H 696.045 2.53564 2.64765 0
M  V30 6980 H 695.693 1.37939 4.83717 0
M  V30 6981 H 695.393 3.13016 4.97287 0
M  V30 6982 H 696.917 2.43834 5.59801 0
M  V30 6983 H 698.331 4.07968 4.02784 0
M  V30 6984 H 696.728 4.77001 3.64129 0
M  V30 6985 H 697.798 4.25539 2.32475 0
M  V30 6986 N 699.141 -0.881989 1.30609 0
M  V30 6987 C 700.071 -2.00413 1.1982 0
M  V30 6988 C 701.052 -1.69871 0.0881538 0
M  V30 6989 O 702.237 -1.92304 0.2707 0
M  V30 6990 C 699.367 -3.35641 0.89233 0
M  V30 6991 C 698.321 -3.80451 1.96064 0
M  V30 6992 C 697.647 -5.13003 1.5077 0
M  V30 6993 C 698.947 -3.98855 3.37213 0
M  V30 6994 H 700.641 -2.09698 2.13699 0
M  V30 6995 H 698.187 -1.00754 1.02882 0
M  V30 6996 H 700.14 -4.13669 0.803497 0
M  V30 6997 H 698.864 -3.26497 -0.0821381 0
M  V30 6998 H 697.523 -3.04654 2.03916 0
M  V30 6999 H 697.171 -5.0029 0.521417 0
M  V30 7000 H 696.871 -5.43956 2.22229 0
M  V30 7001 H 698.395 -5.93554 1.43271 0
M  V30 7002 H 699.809 -4.67312 3.32103 0
M  V30 7003 H 698.206 -4.41188 4.06784 0
M  V30 7004 H 699.276 -3.02614 3.78883 0
M  V30 7005 N 700.619 -1.13374 -1.09472 0
M  V30 7006 C 701.867 -0.893422 -1.8128 0
M  V30 7007 C 702.188 0.582029 -1.86111 0
M  V30 7008 O 701.458 1.42305 -1.34633 0
M  V30 7009 H 700.038 -0.327543 -0.67136 0
M  V30 7010 H 702.7 -1.43018 -1.32408 0
M  V30 7011 H 701.796 -1.28374 -2.84476 0
M  V30 7012 N 702.098 1.27442 -0.927168 0
M  V30 7013 C 703.326 1.98498 -0.583622 0
M  V30 7014 C 703.741 1.69171 0.838241 0
M  V30 7015 O 703.098 0.951969 1.55704 0
M  V30 7016 C 703.149 3.52552 -0.799341 0
M  V30 7017 O 702.87 3.80851 -2.16527 0
M  V30 7018 C 704.371 4.4086 -0.464436 0
M  V30 7019 H 701.591 0.633487 -0.221213 0
M  V30 7020 H 704.135 1.62308 -1.24404 0
M  V30 7021 H 702.29 3.86955 -0.185728 0
M  V30 7022 H 702.704 4.75441 -2.21487 0
M  V30 7023 H 704.178 5.47967 -0.666075 0
M  V30 7024 H 704.655 4.35082 0.599995 0
M  V30 7025 H 705.261 4.11977 -1.05617 0
M  V30 7026 N 703.576 0.692616 1.41565 0
M  V30 7027 C 704.539 0.0344174 2.29174 0
M  V30 7028 C 705.539 -0.710961 1.44229 0
M  V30 7029 O 706.729 -0.546293 1.65412 0
M  V30 7030 C 703.861 -0.961682 3.27054 0
M  V30 7031 H 705.054 0.805755 2.88873 0
M  V30 7032 H 702.607 0.455947 1.49502 0
M  V30 7033 H 703.342 -1.76089 2.72329 0
M  V30 7034 H 703.127 -0.430375 3.89731 0
M  V30 7035 H 704.617 -1.4201 3.92712 0
M  V30 7036 N 705.054 -1.51416 0.437162 0
M  V30 7037 C 706.302 -2.01687 -0.129108 0
M  V30 7038 C 706.623 -1.32329 -1.43227 0
M  V30 7039 O 705.893 -0.457796 -1.90476 0
M  V30 7040 H 704.473 -0.745277 -0.0507023 0
M  V30 7041 H 707.135 -1.86075 0.579828 0
M  V30 7042 H 706.231 -3.10605 -0.305141 0
M  V30 7043 N 706.532 -0.168513 -1.56696 0
M  V30 7044 C 707.778 0.477865 -1.9709 0
M  V30 7045 C 708.111 1.63084 -1.05438 0
M  V30 7046 O 707.386 1.94238 -0.10095 0
M  V30 7047 C 707.669 0.963521 -3.4697 0
M  V30 7048 C 707.522 -0.189443 -4.49401 0
M  V30 7049 C 708.841 1.83813 -3.99876 0
M  V30 7050 H 705.96 0.172229 -0.716593 0
M  V30 7051 H 708.602 -0.254083 -1.88293 0
M  V30 7052 H 706.752 1.58724 -3.54597 0
M  V30 7053 H 708.424 -0.826451 -4.53836 0
M  V30 7054 H 706.667 -0.845366 -4.25483 0
M  V30 7055 H 707.338 0.192446 -5.51664 0
M  V30 7056 H 709.814 1.31235 -3.94863 0
M  V30 7057 H 708.69 2.14697 -5.0517 0
M  V30 7058 H 708.951 2.78289 -3.43523 0
M  V30 7059 N 708.01 1.57248 0.105221 0
M  V30 7060 C 708.958 2.02337 1.14728 0
M  V30 7061 C 709.952 0.922652 1.42069 0
M  V30 7062 O 711.158 1.10785 1.41869 0
M  V30 7063 H 707.533 0.644682 0.387155 0
M  V30 7064 H 709.504 2.89063 0.740607 0
M  V30 7065 C 708.253 2.45513 2.46209 0
M  V30 7066 H 707.576 3.29785 2.26013 0
M  V30 7067 H 709.016 2.80846 3.1765 0
M  V30 7068 C 707.475 1.3243 3.09781 0
M  V30 7069 O 708.005 0.647841 3.96442 0
M  V30 7070 N 706.211 1.07785 2.69872 0
M  V30 7071 H 705.758 1.62973 1.99493 0
M  V30 7072 H 705.716 0.323204 3.12734 0
M  V30 7073 N 709.488 -0.375779 1.53054 0
M  V30 7074 C 710.737 -1.11674 1.67964 0
M  V30 7075 C 711.05 -1.90755 0.432655 0
M  V30 7076 O 712.256 -2.67538 0.462109 0
M  V30 7077 C 710.712 -2.0344 2.96884 0
M  V30 7078 C 710.32 -1.29719 4.28809 0
M  V30 7079 C 712.064 -2.7759 3.2116 0
M  V30 7080 C 709.971 -2.20327 5.48826 0
M  V30 7081 H 708.901 -0.420597 0.625791 0
M  V30 7082 H 711.552 -0.378499 1.79554 0
M  V30 7083 H 709.934 -2.80953 2.79072 0
M  V30 7084 H 711.108 -0.573394 4.57219 0
M  V30 7085 H 709.423 -0.674735 4.10897 0
M  V30 7086 H 712.02 -3.4559 4.0801 0
M  V30 7087 H 712.363 -3.42399 2.36789 0
M  V30 7088 H 712.896 -2.07164 3.396 0
M  V30 7089 H 709.635 -1.60113 6.35645 0
M  V30 7090 H 709.155 -2.90585 5.2471 0
M  V30 7091 H 710.834 -2.80116 5.83219 0
M  V30 7092 N 710.966 -1.44241 -0.634997 0
M  V30 7093 C 711.898 -1.46793 -1.76024 0
M  V30 7094 C 712.911 -0.361781 -1.58729 0
M  V30 7095 O 714.1 -0.627297 -1.67114 0
M  V30 7096 C 711.2 -1.28248 -3.13697 0
M  V30 7097 C 710.373 -2.52038 -3.57485 0
M  V30 7098 C 709.432 -2.2845 -4.74022 0
M  V30 7099 O 708.458 -3.01915 -4.82531 0
M  V30 7100 N 709.66 -1.31264 -5.65464 0
M  V30 7101 H 712.425 -2.43797 -1.74307 0
M  V30 7102 H 709.986 -1.39631 -0.819438 0
M  V30 7103 H 711.978 -1.10321 -3.89373 0
M  V30 7104 H 710.548 -0.39623 -3.10079 0
M  V30 7105 H 709.768 -2.85268 -2.72059 0
M  V30 7106 H 711.056 -3.34382 -3.83492 0
M  V30 7107 H 710.454 -0.705817 -5.6128 0
M  V30 7108 H 709.011 -1.19316 -6.40786 0
M  V30 7109 N 712.444 0.87505 -1.31075 0
M  V30 7110 C 713.407 1.96333 -1.18263 0
M  V30 7111 C 714.407 1.60416 -0.111106 0
M  V30 7112 O 715.597 1.7044 -0.359987 0
M  V30 7113 C 712.729 3.31036 -0.81414 0
M  V30 7114 H 713.922 2.09125 -2.14958 0
M  V30 7115 H 711.475 1.06271 -1.14614 0
M  V30 7116 H 712.21 3.23944 0.151875 0
M  V30 7117 H 711.995 3.58476 -1.58862 0
M  V30 7118 H 713.485 4.10842 -0.748249 0
M  V30 7119 N 713.922 1.13953 1.08869 0
M  V30 7120 C 714.885 0.824991 2.13838 0
M  V30 7121 C 715.885 -0.168198 1.59918 0
M  V30 7122 O 717.075 0.0595778 1.74098 0
M  V30 7123 C 714.207 0.228938 3.4013 0
M  V30 7124 H 715.4 1.75521 2.43171 0
M  V30 7125 H 712.953 0.94492 1.24503 0
M  V30 7126 H 713.688 -0.710227 3.16427 0
M  V30 7127 H 713.473 0.944243 3.80561 0
M  V30 7128 H 714.963 0.0259223 4.17592 0
M  V30 7129 N 715.4 -1.26948 0.933913 0
M  V30 7130 C 716.332 -2.25768 0.395137 0
M  V30 7131 C 717.345 -1.55637 -0.477585 0
M  V30 7132 O 718.534 -1.76142 -0.289204 0
M  V30 7133 C 715.634 -3.35874 -0.451882 0
M  V30 7134 C 714.807 -4.3554 0.40299 0
M  V30 7135 C 713.866 -5.24809 -0.3824 0
M  V30 7136 O 712.892 -5.68805 0.212057 0
M  V30 7137 N 714.094 -5.55636 -1.68072 0
M  V30 7138 H 716.859 -2.72634 1.24463 0
M  V30 7139 H 714.42 -1.40639 0.802008 0
M  V30 7140 H 716.412 -3.92542 -0.984516 0
M  V30 7141 H 714.982 -2.8856 -1.20215 0
M  V30 7142 H 714.202 -3.78047 1.11688 0
M  V30 7143 H 715.49 -4.99131 0.987201 0
M  V30 7144 H 714.888 -5.2176 -2.18592 0
M  V30 7145 H 713.445 -6.14978 -2.15975 0
M  V30 7146 N 716.879 -0.700114 -1.41195 0
M  V30 7147 C 717.809 -0.0521132 -2.33442 0
M  V30 7148 C 718.79 0.76228 -1.52063 0
M  V30 7149 O 719.975 0.714336 -1.80585 0
M  V30 7150 C 717.105 0.881693 -3.35922 0
M  V30 7151 C 716.059 0.174062 -4.27646 0
M  V30 7152 C 715.385 1.22254 -5.20536 0
M  V30 7153 C 716.685 -0.962396 -5.13357 0
M  V30 7154 H 718.379 -0.822574 -2.87879 0
M  V30 7155 H 715.925 -0.397011 -1.38419 0
M  V30 7156 H 717.878 1.34429 -3.99383 0
M  V30 7157 H 716.602 1.68387 -2.79845 0
M  V30 7158 H 715.261 -0.268551 -3.65615 0
M  V30 7159 H 714.909 2.01736 -4.60773 0
M  V30 7160 H 714.609 0.754038 -5.82742 0
M  V30 7161 H 716.133 1.68555 -5.86874 0
M  V30 7162 H 717.547 -0.579875 -5.7036 0
M  V30 7163 H 715.944 -1.35828 -5.84526 0
M  V30 7164 H 717.014 -1.80003 -4.50252 0
M  V30 7165 N 718.357 1.51182 -0.445186 0
M  V30 7166 C 719.582 2.07056 0.119445 0
M  V30 7167 C 720.007 1.30966 1.35016 0
M  V30 7168 O 719.365 0.349827 1.77893 0
M  V30 7169 C 719.413 3.58234 0.412428 0
M  V30 7170 O 718.517 3.84249 1.49754 0
M  V30 7171 H 717.858 0.663998 -0.00157797 0
M  V30 7172 H 720.388 1.94699 -0.628779 0
M  V30 7173 H 720.398 4.02617 0.660583 0
M  V30 7174 H 719.073 4.13038 -0.487049 0
M  V30 7175 H 717.65 3.51724 1.23873 0
M  V30 7176 N 719.835 0.176821 1.56605 0
M  V30 7177 C 720.745 -0.763682 2.21822 0
M  V30 7178 C 721.761 -1.24889 1.21156 0
M  V30 7179 O 722.937 -1.29987 1.53836 0
M  V30 7180 C 720.002 -1.97352 2.8505 0
M  V30 7181 C 719.063 -1.53466 4.00932 0
M  V30 7182 C 718.296 -2.68682 4.61135 0
M  V30 7183 O 718.519 -3.85694 4.20234 0
M  V30 7184 O 717.453 -2.42442 5.50913 0
M  V30 7185 H 721.279 -0.238363 3.02763 0
M  V30 7186 H 718.864 -0.0516331 1.49311 0
M  V30 7187 H 720.746 -2.68096 3.25119 0
M  V30 7188 H 719.421 -2.48779 2.07101 0
M  V30 7189 H 718.328 -0.796551 3.65521 0
M  V30 7190 H 719.661 -1.06724 4.8049 0
M  V30 7191 N 721.313 -1.57302 -0.09688 0
M  V30 7192 C 722.59 -1.7701 -0.832272 0
M  V30 7193 C 722.97 -0.758025 -1.97021 0
M  V30 7194 O 722.318 0.213824 -2.27497 0
M  V30 7195 C 722.528 -3.22725 -1.32851 0
M  V30 7196 C 723.876 -3.85856 -1.772 0
M  V30 7197 O 724.9 -3.26464 -1.42478 0
M  V30 7198 O 723.759 -4.90295 -2.41398 0
M  V30 7199 H 720.853 -0.725558 -0.396856 0
M  V30 7200 H 723.399 -1.69516 -0.0789005 0
M  V30 7201 H 722.171 -3.87921 -0.51312 0
M  V30 7202 H 721.794 -3.34845 -2.14394 0
M  V30 7203 N 722.791 0.367657 -1.53252 0
M  V30 7204 C 723.754 1.43308 -1.78873 0
M  V30 7205 C 724.754 1.46671 -0.659115 0
M  V30 7206 O 725.944 1.47468 -0.927306 0
M  V30 7207 C 723.076 2.82442 -1.90892 0
M  V30 7208 H 724.269 1.21864 -2.74024 0
M  V30 7209 H 721.822 0.600668 -1.44297 0
M  V30 7210 H 722.557 3.09202 -0.978 0
M  V30 7211 H 722.342 2.81399 -2.73051 0
M  V30 7212 H 723.832 3.59601 -2.12314 0
M  V30 7213 N 724.269 1.44576 0.627338 0
M  V30 7214 C 725.179 1.54232 1.76776 0
M  V30 7215 C 726.195 0.427782 1.6866 0
M  V30 7216 O 727.371 0.685671 1.89369 0
M  V30 7217 C 724.436 1.48738 3.13174 0
M  V30 7218 C 723.497 2.71074 3.32893 0
M  V30 7219 C 722.73 2.65832 4.62784 0
M  V30 7220 O 722.953 1.72048 5.43834 0
M  V30 7221 O 721.887 3.56742 4.84787 0
M  V30 7222 H 725.713 2.50586 1.71582 0
M  V30 7223 H 723.298 1.26865 0.789028 0
M  V30 7224 H 725.18 1.48211 3.94476 0
M  V30 7225 H 723.855 0.555292 3.18902 0
M  V30 7226 H 722.762 2.77168 2.51254 0
M  V30 7227 H 724.095 3.63342 3.32029 0
M  V30 7228 N 725.747 -0.868086 1.31537 0
M  V30 7229 C 726.995 -1.61807 1.21091 0
M  V30 7230 C 727.316 -1.93631 -0.230623 0
M  V30 7231 O 726.586 -1.5846 -1.15183 0
M  V30 7232 H 725.166 -0.599854 0.445178 0
M  V30 7233 H 727.828 -1.03915 1.64887 0
M  V30 7234 H 726.924 -2.56088 1.78396 0
M  V30 7235 N 727.225 -1.14528 -1.08264 0
M  V30 7236 C 728.636 -0.925261 -1.6216 0
M  V30 7237 C 728.987 0.535587 -1.88748 0
M  V30 7238 O 728.112 1.4048 -1.64604 0
M  V30 7239 C 728.707 -1.67316 -2.94603 0
M  V30 7240 C 727.266 -1.49868 -3.45278 0
M  V30 7241 C 726.413 -1.69471 -2.19487 0
M  V30 7242 H 729.364 -1.29687 -0.914707 0
M  V30 7243 H 729.385 -1.13721 -3.63109 0
M  V30 7244 H 728.897 -2.73635 -2.75219 0
M  V30 7245 H 726.998 -0.459032 -3.69762 0
M  V30 7246 H 727.111 -2.2696 -4.21931 0
M  V30 7247 H 725.475 -1.12048 -2.2873 0
M  V30 7248 H 726.258 -2.77136 -2.0261 0
M  V30 7249 N 728.703 1.26451 -0.940633 0
M  V30 7250 C 729.951 1.93395 -0.586748 0
M  V30 7251 C 730.272 1.7417 0.876921 0
M  V30 7252 O 729.542 1.097 1.62304 0
M  V30 7253 H 728.122 0.715687 -0.214012 0
M  V30 7254 H 730.784 1.53902 -1.19584 0
M  V30 7255 H 729.88 3.01565 -0.804059 0
M  V30 7256 N 730.181 0.707592 1.40822 0
M  V30 7257 C 731.144 0.0587224 2.29125 0
M  V30 7258 C 732.144 -0.695624 1.44975 0
M  V30 7259 O 733.334 -0.528718 1.65983 0
M  V30 7260 C 730.466 -0.926939 3.28056 0
M  V30 7261 H 731.659 0.836349 2.88002 0
M  V30 7262 H 729.212 0.471778 1.4901 0
M  V30 7263 H 729.947 -1.7319 2.74182 0
M  V30 7264 H 729.732 -0.389015 3.90165 0
M  V30 7265 H 731.222 -1.37837 3.94196 0
M  V30 7266 N 731.66 -1.50943 0.453197 0
M  V30 7267 C 732.888 -2.06628 -0.106135 0
M  V30 7268 C 733.303 -1.31901 -1.35084 0
M  V30 7269 O 732.66 -0.383074 -1.78434 0
M  V30 7270 C 732.711 -3.5914 -0.412368 0
M  V30 7271 O 732.432 -4.31047 0.782948 0
M  V30 7272 C 733.933 -4.31391 -1.02064 0
M  V30 7273 H 731.153 -0.670999 -0.000885896 0
M  V30 7274 H 733.697 -1.94331 0.63684 0
M  V30 7275 H 731.852 -3.71299 -1.10526 0
M  V30 7276 H 732.266 -5.21948 0.516736 0
M  V30 7277 H 733.74 -5.39135 -1.1848 0
M  V30 7278 H 734.217 -3.90714 -2.00598 0
M  V30 7279 H 734.823 -4.23716 -0.366664 0
M  V30 7280 N 733.138 -0.185124 -1.56509 0
M  V30 7281 C 734.387 0.456421 -1.96468 0
M  V30 7282 C 734.7 1.63448 -1.07444 0
M  V30 7283 O 735.906 2.34316 -1.37143 0
M  V30 7284 C 734.362 0.863404 -3.4939 0
M  V30 7285 C 733.97 -0.289815 -4.47062 0
M  V30 7286 C 735.714 1.47259 -3.98139 0
M  V30 7287 C 733.621 0.137571 -5.9124 0
M  V30 7288 H 732.551 0.17429 -0.733579 0
M  V30 7289 H 735.202 -0.275554 -1.81419 0
M  V30 7290 H 733.584 1.65176 -3.59907 0
M  V30 7291 H 734.758 -1.06728 -4.4827 0
M  V30 7292 H 733.073 -0.809851 -4.08449 0
M  V30 7293 H 735.67 1.80463 -5.03326 0
M  V30 7294 H 736.013 2.3755 -3.41871 0
M  V30 7295 H 736.546 0.748405 -3.90696 0
M  V30 7296 H 733.285 -0.730907 -6.51412 0
M  V30 7297 H 732.805 0.8801 -5.93308 0
M  V30 7298 H 734.484 0.576771 -6.44424 0
M  V30 7299 N 734.616 1.57351 0.0885366 0
M  V30 7300 C 735.546 2.05561 1.10757 0
M  V30 7301 C 736.527 0.945789 1.41382 0
M  V30 7302 O 737.712 1.21747 1.51299 0
M  V30 7303 C 734.842 2.48554 2.42566 0
M  V30 7304 C 733.796 3.63259 2.26334 0
M  V30 7305 C 733.122 3.9225 3.63378 0
M  V30 7306 C 734.422 4.93913 1.69844 0
M  V30 7307 H 736.116 2.90946 0.706468 0
M  V30 7308 H 733.662 1.39968 0.338385 0
M  V30 7309 H 735.615 2.8089 3.14132 0
M  V30 7310 H 734.339 1.60176 2.84625 0
M  V30 7311 H 732.998 3.31179 1.57213 0
M  V30 7312 H 732.646 3.0103 4.02976 0
M  V30 7313 H 732.346 4.69478 3.53362 0
M  V30 7314 H 733.87 4.27067 4.36401 0
M  V30 7315 H 735.284 5.24588 2.31258 0
M  V30 7316 H 733.681 5.75349 1.70569 0
M  V30 7317 H 734.751 4.80409 0.65843 0
M  V30 7318 N 736.094 -0.359525 1.53444 0
M  V30 7319 C 737.024 -1.44662 1.8329 0
M  V30 7320 C 738.005 -1.55617 0.68683 0
M  V30 7321 O 739.19 -1.70086 0.93725 0
M  V30 7322 C 736.32 -2.81923 2.02822 0
M  V30 7323 C 735.274 -2.85787 3.18606 0
M  V30 7324 C 734.6 -4.25781 3.23442 0
M  V30 7325 C 735.9 -2.52762 4.57065 0
M  V30 7326 H 737.594 -1.19934 2.74329 0
M  V30 7327 H 735.14 -0.575517 1.31999 0
M  V30 7328 H 737.093 -3.58005 2.22285 0
M  V30 7329 H 735.817 -3.08051 1.085 0
M  V30 7330 H 734.476 -2.12157 2.98973 0
M  V30 7331 H 734.124 -4.48994 2.26745 0
M  V30 7332 H 733.824 -4.29281 4.01238 0
M  V30 7333 H 735.348 -5.03727 3.45096 0
M  V30 7334 H 736.762 -3.18557 4.76649 0
M  V30 7335 H 735.159 -2.67569 5.37147 0
M  V30 7336 H 736.229 -1.47993 4.61764 0
M  V30 7337 N 737.572 -1.44907 -0.619662 0
M  V30 7338 C 738.988 -1.29046 -0.939107 0
M  V30 7339 C 739.188 -0.23462 -2.00129 0
M  V30 7340 O 738.244 0.37558 -2.49691 0
M  V30 7341 C 739.557 -2.66567 -1.39149 0
M  V30 7342 C 741.105 -2.74368 -1.50635 0
M  V30 7343 C 741.58 -4.12386 -1.99253 0
M  V30 7344 N 743.071 -4.1462 -2.06506 0
M  V30 7345 C 743.806 -5.18272 -2.4532 0
M  V30 7346 N 743.302 -6.32278 -2.83189 0
M  V30 7347 N 745.095 -5.05628 -2.45554 0
M  V30 7348 H 737.246 -2.12239 0.0826135 0
M  V30 7349 H 739.509 -0.947652 -0.0256829 0
M  V30 7350 H 739.215 -3.4496 -0.685254 0
M  V30 7351 H 739.089 -2.94224 -2.36034 0
M  V30 7352 H 741.476 -1.96287 -2.20353 0
M  V30 7353 H 741.557 -2.50439 -0.520963 0
M  V30 7354 H 741.201 -4.90947 -1.30127 0
M  V30 7355 H 741.131 -4.33699 -2.98684 0
M  V30 7356 H 743.622 -3.32343 -1.79878 0
M  V30 7357 H 743.935 -7.07172 -3.11652 0
M  V30 7358 H 742.28 -6.35699 -2.80913 0
M  V30 7359 H 745.471 -4.15613 -2.15367 0
M  V30 7360 H 745.644 -5.86529 -2.75478 0
M  V30 7361 N 739.05 0.861098 -1.31996 0
M  V30 7362 C 739.98 1.98482 -1.22993 0
M  V30 7363 C 740.961 1.6971 -0.115168 0
M  V30 7364 O 742.146 1.91849 -0.30126 0
M  V30 7365 C 739.276 3.34179 -0.945615 0
M  V30 7366 C 738.23 3.77284 -2.02091 0
M  V30 7367 C 737.556 5.1054 -1.58912 0
M  V30 7368 C 738.856 3.93439 -3.43515 0
M  V30 7369 H 740.55 2.06271 -2.17008 0
M  V30 7370 H 738.096 0.991043 -1.04472 0
M  V30 7371 H 740.049 4.12338 -0.869206 0
M  V30 7372 H 738.773 3.26586 0.0301849 0
M  V30 7373 H 737.432 3.01371 -2.08737 0
M  V30 7374 H 737.08 4.99397 -0.600942 0
M  V30 7375 H 736.78 5.40352 -2.30854 0
M  V30 7376 H 738.304 5.91199 -1.52696 0
M  V30 7377 H 739.718 4.6197 -3.39495 0
M  V30 7378 H 738.115 4.34661 -4.13751 0
M  V30 7379 H 739.185 2.96548 -3.8365 0
M  V30 7380 N 740.528 1.15101 1.07655 0
M  V30 7381 C 741.805 0.834578 1.76902 0
M  V30 7382 C 742.185 -0.670431 2.00171 0
M  V30 7383 O 741.533 -1.61378 1.6177 0
M  V30 7384 C 741.743 1.64191 3.07965 0
M  V30 7385 C 743.091 1.84615 3.82364 0
M  V30 7386 O 744.115 1.60941 3.17768 0
M  V30 7387 O 742.974 2.24244 4.98374 0
M  V30 7388 H 740.068 0.306608 0.768063 0
M  V30 7389 H 742.614 1.25663 1.14048 0
M  V30 7390 H 741.386 2.66386 2.86626 0
M  V30 7391 H 741.009 1.216 3.78549 0
M  V30 7392 N 742.006 -1.2595 0.947325 0
M  V30 7393 C 742.938 -2.25336 0.41906 0
M  V30 7394 C 743.951 -1.56135 -0.461051 0
M  V30 7395 O 745.14 -1.76438 -0.270505 0
M  V30 7396 C 742.24 -3.36334 -0.416233 0
M  V30 7397 C 741.413 -4.35088 0.449162 0
M  V30 7398 C 740.472 -5.25185 -0.326716 0
M  V30 7399 O 739.498 -5.68548 0.272374 0
M  V30 7400 N 740.7 -5.57388 -1.6217 0
M  V30 7401 H 743.465 -2.71298 1.27348 0
M  V30 7402 H 741.026 -1.39781 0.81688 0
M  V30 7403 H 743.018 -3.93564 -0.942826 0
M  V30 7404 H 741.588 -2.89819 -1.17148 0
M  V30 7405 H 740.808 -3.76841 1.15692 0
M  V30 7406 H 742.096 -4.98056 1.04008 0
M  V30 7407 H 741.494 -5.2405 -2.13046 0
M  V30 7408 H 740.051 -6.17234 -2.0944 0
M  V30 7409 N 743.484 -0.715051 -1.40445 0
M  V30 7410 C 744.761 -0.181503 -1.94756 0
M  V30 7411 C 745.141 1.31268 -1.65324 0
M  V30 7412 O 744.489 2.0686 -0.970631 0
M  V30 7413 C 744.699 -0.493663 -3.45491 0
M  V30 7414 C 746.047 -0.432032 -4.22396 0
M  V30 7415 O 747.071 -0.429692 -3.53599 0
M  V30 7416 O 745.93 -0.409091 -5.44967 0
M  V30 7417 H 743.024 -0.0263989 -0.826579 0
M  V30 7418 H 745.57 -0.792546 -1.50056 0
M  V30 7419 H 744.342 -1.52713 -3.6027 0
M  V30 7420 H 743.965 0.14737 -3.97327 0
M  V30 7421 N 744.962 1.50701 -0.461195 0
M  V30 7422 C 746.208 2.02566 0.0973411 0
M  V30 7423 C 746.541 1.3432 1.40257 0
M  V30 7424 O 745.816 0.465692 1.88843 0
M  V30 7425 C 746.099 3.58919 0.291423 0
M  V30 7426 C 745.952 4.37751 -1.03413 0
M  V30 7427 C 747.271 4.27379 1.05048 0
M  V30 7428 H 744.39 0.73622 0.0339026 0
M  V30 7429 H 747.032 1.80115 -0.604855 0
M  V30 7430 H 745.182 3.78179 0.889539 0
M  V30 7431 H 746.854 4.30085 -1.66806 0
M  V30 7432 H 745.097 4.01885 -1.63313 0
M  V30 7433 H 745.768 5.45384 -0.852085 0
M  V30 7434 H 748.244 4.12534 0.543603 0
M  V30 7435 H 747.12 5.36609 1.15506 0
M  V30 7436 H 747.381 3.89868 2.0846 0
M  V30 7437 N 746.441 0.193421 1.56409 0
M  V30 7438 C 747.852 -0.319471 1.83946 0
M  V30 7439 C 748.203 -1.61505 1.11403 0
M  V30 7440 O 747.328 -2.13139 0.374289 0
M  V30 7441 C 747.923 -0.586411 3.33686 0
M  V30 7442 C 746.482 -1.04368 3.61641 0
M  V30 7443 C 745.629 -0.0913834 2.77149 0
M  V30 7444 H 748.58 0.417242 1.53117 0
M  V30 7445 H 748.601 -1.43591 3.52366 0
M  V30 7446 H 748.113 0.356701 3.86457 0
M  V30 7447 H 746.214 -2.00113 3.14302 0
M  V30 7448 H 746.327 -0.937549 4.69837 0
M  V30 7449 H 744.691 -0.592954 2.47702 0
M  V30 7450 H 745.474 0.846142 3.32709 0
M  V30 7451 N 747.919 -1.57396 -0.0801906 0
M  V30 7452 C 749.196 -1.77883 -0.813451 0
M  V30 7453 C 749.576 -0.778879 -1.96206 0
M  V30 7454 O 748.924 0.189683 -2.27711 0
M  V30 7455 C 749.134 -3.24116 -1.2942 0
M  V30 7456 C 750.482 -3.87714 -1.73098 0
M  V30 7457 O 751.506 -3.27956 -1.39007 0
M  V30 7458 O 750.365 -4.92828 -2.36184 0
M  V30 7459 H 747.459 -0.729727 -0.389138 0
M  V30 7460 H 750.005 -1.69591 -0.0609166 0
M  V30 7461 H 748.777 -3.88443 -0.471947 0
M  V30 7462 H 748.4 -3.371 -2.1083 0
M  V30 7463 N 749.397 0.351382 -1.53633 0
M  V30 7464 C 750.674 1.10903 -1.6112 0
M  V30 7465 C 751.054 2.06725 -0.427556 0
M  V30 7466 O 750.402 2.20992 0.580916 0
M  V30 7467 C 750.612 1.83561 -2.96827 0
M  V30 7468 C 751.96 2.37587 -3.51906 0
M  V30 7469 O 752.984 1.93669 -2.9895 0
M  V30 7470 O 751.843 3.17913 -4.44515 0
M  V30 7471 H 748.937 0.509558 -0.651368 0
M  V30 7472 H 751.483 0.353504 -1.65977 0
M  V30 7473 H 750.255 1.1371 -3.74414 0
M  V30 7474 H 749.878 2.6599 -2.95525 0
M  V30 7475 N 750.875 1.45233 0.611969 0
M  V30 7476 C 752.121 1.49242 1.37312 0
M  V30 7477 C 752.454 0.131963 1.93751 0
M  V30 7478 O 751.729 -0.852999 1.74798 0
M  V30 7479 C 752.012 2.56811 2.52428 0
M  V30 7480 C 751.865 4.02284 2.01215 0
M  V30 7481 C 753.184 2.60705 3.54572 0
M  V30 7482 H 750.303 0.54336 0.497925 0
M  V30 7483 H 752.945 1.77019 0.690242 0
M  V30 7484 H 751.095 2.33256 3.10683 0
M  V30 7485 H 752.767 4.37035 1.47643 0
M  V30 7486 H 751.01 4.1315 1.32248 0
M  V30 7487 H 751.681 4.7323 2.84178 0
M  V30 7488 H 754.157 2.81799 3.06151 0
M  V30 7489 H 753.033 3.37841 4.32614 0
M  V30 7490 H 753.294 1.65627 4.09903 0
M  V30 7491 N 752.353 -0.854086 1.3245 0
M  V30 7492 C 753.769 -1.14238 1.11453 0
M  V30 7493 C 753.969 -2.01228 -0.10461 0
M  V30 7494 O 753.025 -2.39845 -0.789339 0
M  V30 7495 C 754.338 -1.81916 2.39431 0
M  V30 7496 C 755.886 -1.94549 2.45193 0
M  V30 7497 C 756.361 -2.65642 3.73093 0
M  V30 7498 N 757.852 -2.73167 3.74078 0
M  V30 7499 C 758.587 -3.28828 4.69744 0
M  V30 7500 N 758.083 -3.85295 5.75778 0
M  V30 7501 N 759.876 -3.26936 4.57241 0
M  V30 7502 H 752.027 -0.274786 2.10615 0
M  V30 7503 H 754.29 -0.184375 0.929898 0
M  V30 7504 H 753.996 -1.25452 3.28565 0
M  V30 7505 H 753.87 -2.82068 2.50434 0
M  V30 7506 H 756.257 -2.50172 1.56518 0
M  V30 7507 H 756.338 -0.933914 2.38142 0
M  V30 7508 H 755.982 -2.10683 4.62142 0
M  V30 7509 H 755.912 -3.6724 3.77415 0
M  V30 7510 H 758.403 -2.33108 2.97438 0
M  V30 7511 H 758.716 -4.25925 6.44832 0
M  V30 7512 H 757.061 -3.83625 5.79531 0
M  V30 7513 H 760.252 -2.8207 3.7357 0
M  V30 7514 H 760.425 -3.70014 5.31971 0
M  V30 7515 N 753.831 -1.1567 -1.07043 0
M  V30 7516 C 755.059 -0.957471 -1.83412 0
M  V30 7517 C 755.474 0.494271 -1.82215 0
M  V30 7518 O 754.831 1.34288 -1.23584 0
M  V30 7519 C 754.882 -1.46784 -3.30359 0
M  V30 7520 O 754.603 -2.86271 -3.31633 0
M  V30 7521 C 756.104 -1.31054 -4.23485 0
M  V30 7522 H 753.324 -0.33986 -0.578564 0
M  V30 7523 H 755.868 -1.53518 -1.35102 0
M  V30 7524 H 754.023 -0.932586 -3.76007 0
M  V30 7525 H 754.437 -3.0948 -4.23465 0
M  V30 7526 H 755.911 -1.71605 -5.24648 0
M  V30 7527 H 756.388 -0.255107 -4.38458 0
M  V30 7528 H 756.994 -1.83503 -3.83676 0
M  V30 7529 N 755.309 1.25446 -0.953992 0
M  V30 7530 C 756.272 2.24156 -0.478179 0
M  V30 7531 C 757.272 1.55278 0.417776 0
M  V30 7532 O 758.462 1.72866 0.215155 0
M  V30 7533 C 755.594 3.39495 0.309202 0
M  V30 7534 H 756.787 2.67764 -1.35064 0
M  V30 7535 H 754.34 1.37822 -0.737206 0
M  V30 7536 H 755.075 3.01307 1.19936 0
M  V30 7537 H 754.86 3.90679 -0.333562 0
M  V30 7538 H 756.35 4.12796 0.631594 0
M  V30 7539 N 756.787 0.722489 1.40064 0
M  V30 7540 C 758.036 0.261932 1.99992 0
M  V30 7541 C 758.349 -1.15358 1.57961 0
M  V30 7542 O 759.555 -1.71301 2.10637 0
M  V30 7543 C 758.011 0.41737 3.57472 0
M  V30 7544 C 757.619 1.83997 4.08472 0
M  V30 7545 C 759.363 0.0179561 4.24496 0
M  V30 7546 C 757.27 1.94563 5.5848 0
M  V30 7547 H 756.2 0.0941768 0.748095 0
M  V30 7548 H 758.851 0.894572 1.60218 0
M  V30 7549 H 757.233 -0.283965 3.94981 0
M  V30 7550 H 758.407 2.57224 3.82325 0
M  V30 7551 H 756.722 2.19147 3.54067 0
M  V30 7552 H 759.319 0.076085 5.34646 0
M  V30 7553 H 759.662 -1.02498 4.03485 0
M  V30 7554 H 760.195 0.669988 3.92117 0
M  V30 7555 H 756.934 2.97001 5.84355 0
M  V30 7556 H 756.454 1.25756 5.86469 0
M  V30 7557 H 758.133 1.72095 6.23692 0
M  V30 7558 N 758.265 -1.50454 0.469181 0
M  V30 7559 C 759.228 -2.2703 -0.314643 0
M  V30 7560 C 760.228 -1.31734 -0.922111 0
M  V30 7561 O 761.418 -1.55176 -0.791588 0
M  V30 7562 C 758.55 -3.08616 -1.44806 0
M  V30 7563 H 759.743 -2.97769 0.356892 0
M  V30 7564 H 757.296 -1.54698 0.223191 0
M  V30 7565 H 758.031 -2.42369 -2.1547 0
M  V30 7566 H 757.816 -3.78647 -1.01829 0
M  V30 7567 H 759.306 -3.66536 -2.00103 0
M  V30 7568 N 759.743 -0.201713 -1.56304 0
M  V30 7569 C 760.706 0.702811 -2.18159 0
M  V30 7570 C 761.706 1.13619 -1.13787 0
M  V30 7571 O 762.896 1.0482 -1.39134 0
M  V30 7572 C 760.028 1.96032 -2.78898 0
M  V30 7573 H 761.221 0.163836 -2.99452 0
M  V30 7574 H 758.774 0.04791 -1.56227 0
M  V30 7575 H 759.509 2.54165 -2.01421 0
M  V30 7576 H 759.294 1.65824 -3.55309 0
M  V30 7577 H 760.784 2.60519 -3.26373 0
M  V30 7578 N 761.222 1.57436 0.0718424 0
M  V30 7579 C 762.185 2.02703 1.06977 0
M  V30 7580 C 763.185 0.924062 1.31597 0
M  V30 7581 O 764.375 1.18894 1.27318 0
M  V30 7582 C 761.507 2.40763 2.41342 0
M  V30 7583 H 762.7 2.92098 0.679619 0
M  V30 7584 H 760.253 1.5304 0.317565 0
M  V30 7585 H 760.988 1.54394 2.8519 0
M  V30 7586 H 760.773 3.21249 2.24814 0
M  V30 7587 H 762.263 2.76361 3.13073 0
M  V30 7588 N 762.7 -0.34323 1.53817 0
M  V30 7589 C 763.946 -1.08504 1.71332 0
M  V30 7590 C 764.279 -1.88294 0.475285 0
M  V30 7591 O 763.554 -1.87205 -0.527688 0
M  V30 7592 C 763.837 -2.02597 2.97702 0
M  V30 7593 C 763.69 -1.26268 4.31713 0
M  V30 7594 C 765.009 -3.0241 3.19744 0
M  V30 7595 H 762.128 -0.393072 0.623429 0
M  V30 7596 H 764.77 -0.363579 1.86489 0
M  V30 7597 H 762.92 -2.64118 2.8491 0
M  V30 7598 H 764.592 -0.673594 4.56356 0
M  V30 7599 H 762.835 -0.564696 4.30109 0
M  V30 7600 H 763.506 -1.95253 5.16314 0
M  V30 7601 H 765.982 -2.51004 3.31868 0
M  V30 7602 H 764.858 -3.65449 4.09558 0
M  V30 7603 H 765.119 -3.73806 2.36054 0
M  V30 7604 N 764.178 -1.45556 -0.604258 0
M  V30 7605 C 765.455 -1.40221 -1.36373 0
M  V30 7606 C 765.835 -0.0745195 -2.10968 0
M  V30 7607 O 765.183 0.943594 -2.08107 0
M  V30 7608 C 765.393 -2.61807 -2.30777 0
M  V30 7609 C 766.741 -3.07037 -2.93281 0
M  V30 7610 O 767.765 -2.62203 -2.41097 0
M  V30 7611 O 766.624 -3.8485 -3.88011 0
M  V30 7612 H 763.718 -0.556602 -0.611656 0
M  V30 7613 H 766.264 -1.57689 -0.627069 0
M  V30 7614 H 765.036 -3.50017 -1.74939 0
M  V30 7615 H 764.659 -2.46688 -3.11818 0
M  V30 7616 N 765.656 0.84705 -1.32902 0
M  V30 7617 C 766.619 1.9378 -1.224 0
M  V30 7618 C 767.619 1.60144 -0.145108 0
M  V30 7619 O 768.809 1.69638 -0.396058 0
M  V30 7620 C 765.941 3.29234 -0.884174 0
M  V30 7621 H 767.134 2.04518 -2.19345 0
M  V30 7622 H 764.687 1.03816 -1.16842 0
M  V30 7623 H 765.422 3.24193 0.0831277 0
M  V30 7624 H 765.207 3.55026 -1.6643 0
M  V30 7625 H 766.697 4.09162 -0.835226 0
M  V30 7626 N 767.134 1.16236 1.06428 0
M  V30 7627 C 768.364 0.965782 1.82637 0
M  V30 7628 C 768.772 -0.489284 1.82764 0
M  V30 7629 O 768.115 -1.35133 1.24438 0
M  V30 7630 C 768.177 1.41458 3.30499 0
M  V30 7631 C 767.841 2.88926 3.54077 0
M  V30 7632 C 768.838 3.86939 3.47238 0
M  V30 7633 C 766.523 3.26814 3.81442 0
M  V30 7634 C 768.517 5.20841 3.67428 0
M  V30 7635 C 766.204 4.60886 4.01282 0
M  V30 7636 C 767.202 5.57708 3.94272 0
M  V30 7637 O 766.89 6.89357 4.13573 0
M  V30 7638 H 766.622 0.342569 0.582772 0
M  V30 7639 H 769.176 1.54641 1.35187 0
M  V30 7640 H 767.406 0.777426 3.78805 0
M  V30 7641 H 769.095 1.18563 3.88198 0
M  V30 7642 H 769.861 3.59014 3.26089 0
M  V30 7643 H 765.74 2.5203 3.86008 0
M  V30 7644 H 769.284 5.96401 3.61873 0
M  V30 7645 H 765.181 4.88522 4.21921 0
M  V30 7646 H 765.949 6.95913 4.30869 0
M  V30 7647 N 768.612 -1.24939 0.960631 0
M  V30 7648 C 769.559 -2.25658 0.484459 0
M  V30 7649 C 770.529 -1.59422 -0.466242 0
M  V30 7650 O 771.714 -1.87015 -0.378169 0
M  V30 7651 C 768.854 -3.44359 -0.225958 0
M  V30 7652 C 767.967 -4.25214 0.762682 0
M  V30 7653 C 767.102 -5.31192 0.0290931 0
M  V30 7654 C 766.141 -6.03739 1.00827 0
M  V30 7655 N 765.278 -7.01437 0.305155 0
M  V30 7656 H 770.118 -2.65758 1.34821 0
M  V30 7657 H 767.655 -1.30648 0.675983 0
M  V30 7658 H 769.613 -4.12035 -0.654472 0
M  V30 7659 H 768.243 -3.05118 -1.05371 0
M  V30 7660 H 767.295 -3.57144 1.30966 0
M  V30 7661 H 768.607 -4.75406 1.50964 0
M  V30 7662 H 767.761 -6.04971 -0.457763 0
M  V30 7663 H 766.5 -4.81889 -0.750614 0
M  V30 7664 H 765.505 -5.2877 1.50607 0
M  V30 7665 H 766.73 -6.55131 1.7883 0
M  V30 7666 H 764.676 -6.54415 -0.455704 0
M  V30 7667 H 764.593 -7.49475 0.991104 0
M  V30 7668 H 765.861 -7.79336 -0.159966 0
M  V30 7669 N 770.09 -0.729906 -1.39679 0
M  V30 7670 C 771.02 -0.101618 -2.33279 0
M  V30 7671 C 772.001 0.729854 -1.53646 0
M  V30 7672 O 773.186 0.67587 -1.82059 0
M  V30 7673 C 770.316 0.81024 -3.37716 0
M  V30 7674 C 769.27 0.0833126 -4.27919 0
M  V30 7675 C 768.596 1.11185 -5.23012 0
M  V30 7676 C 769.896 -1.07107 -5.112 0
M  V30 7677 H 771.59 -0.883452 -2.86069 0
M  V30 7678 H 769.136 -0.426283 -1.37546 0
M  V30 7679 H 771.089 1.25927 -4.02145 0
M  V30 7680 H 769.813 1.62413 -2.83354 0
M  V30 7681 H 768.472 -0.346043 -3.64963 0
M  V30 7682 H 768.12 1.91917 -4.64948 0
M  V30 7683 H 767.82 0.63026 -5.8421 0
M  V30 7684 H 769.344 1.56068 -5.90318 0
M  V30 7685 H 770.758 -0.700726 -5.69002 0
M  V30 7686 H 769.155 -1.48196 -5.81514 0
M  V30 7687 H 770.225 -1.89513 -4.46332 0
M  V30 7688 N 771.568 1.50203 -0.477153 0
M  V30 7689 C 772.478 2.32421 0.319027 0
M  V30 7690 C 773.494 1.43075 0.990233 0
M  V30 7691 O 774.67 1.76123 0.976873 0
M  V30 7692 C 771.735 3.17909 1.38328 0
M  V30 7693 C 770.796 4.23082 0.728036 0
M  V30 7694 C 770.029 5.04484 1.74158 0
M  V30 7695 O 770.252 4.8705 2.96881 0
M  V30 7696 O 769.186 5.8747 1.31006 0
M  V30 7697 H 773.012 3.01638 -0.353281 0
M  V30 7698 H 770.597 1.47478 -0.238891 0
M  V30 7699 H 772.479 3.70937 1.9996 0
M  V30 7700 H 771.154 2.51413 2.03895 0
M  V30 7701 H 770.061 3.7403 0.07261 0
M  V30 7702 H 771.394 4.92065 0.115216 0
M  V30 7703 N 773.046 0.209999 1.56195 0
M  V30 7704 C 774.292 -0.425442 1.98287 0
M  V30 7705 C 774.625 -1.60232 1.09724 0
M  V30 7706 O 773.9 -1.93902 0.152414 0
M  V30 7707 C 774.183 -0.871189 3.49403 0
M  V30 7708 C 774.036 0.308527 4.48741 0
M  V30 7709 C 775.355 -1.73146 4.04609 0
M  V30 7710 H 772.474 -0.153169 0.720908 0
M  V30 7711 H 775.116 0.303916 1.87554 0
M  V30 7712 H 773.266 -1.49266 3.58681 0
M  V30 7713 H 774.938 0.946487 4.51486 0
M  V30 7714 H 773.181 0.957878 4.23092 0
M  V30 7715 H 773.852 -0.0461143 5.51981 0
M  V30 7716 H 776.328 -1.2072 3.98203 0
M  V30 7717 H 775.204 -2.01228 5.10684 0
M  V30 7718 H 775.465 -2.69083 3.5078 0
M  V30 7719 N 774.524 -1.57472 -0.0634922 0
M  V30 7720 C 775.77 -1.87932 -0.762194 0
M  V30 7721 C 776.103 -0.803377 -1.76804 0
M  V30 7722 O 775.378 0.185468 -1.93614 0
M  V30 7723 C 775.661 -3.29053 -1.46275 0
M  V30 7724 C 775.514 -4.47309 -0.472755 0
M  V30 7725 C 776.833 -3.68537 -2.40558 0
M  V30 7726 H 773.952 -0.683521 -0.275624 0
M  V30 7727 H 776.594 -1.89983 -0.0252651 0
M  V30 7728 H 774.744 -3.27435 -2.0909 0
M  V30 7729 H 776.416 -4.61053 0.150828 0
M  V30 7730 H 774.659 -4.33286 0.211187 0
M  V30 7731 H 775.33 -5.42853 -1.00072 0
M  V30 7732 H 777.806 -3.71302 -1.87814 0
M  V30 7733 H 776.682 -4.68152 -2.86574 0
M  V30 7734 H 776.943 -2.98917 -3.25731 0
M  V30 7735 N 776.003 0.335068 -1.53997 0
M  V30 7736 C 777.28 1.09188 -1.62288 0
M  V30 7737 C 777.66 2.0626 -0.449458 0
M  V30 7738 O 777.008 2.21596 0.557444 0
M  V30 7739 C 777.218 1.80403 -2.98757 0
M  V30 7740 C 778.566 2.33841 -3.54406 0
M  V30 7741 O 779.59 1.90487 -3.00987 0
M  V30 7742 O 778.449 3.1318 -4.47862 0
M  V30 7743 H 775.543 0.502621 -0.656736 0
M  V30 7744 H 778.089 0.33588 -1.66343 0
M  V30 7745 H 776.861 1.09732 -3.75599 0
M  V30 7746 H 776.484 2.62841 -2.9833 0
M  V30 7747 N 777.481 1.45874 0.596531 0
M  V30 7748 C 778.411 1.5824 1.71705 0
M  V30 7749 C 779.392 0.433366 1.64487 0
M  V30 7750 O 780.577 0.657895 1.82717 0
M  V30 7751 C 777.707 1.55927 3.10329 0
M  V30 7752 C 776.661 2.69659 3.32367 0
M  V30 7753 C 775.987 2.52403 4.71377 0
M  V30 7754 C 777.287 4.11591 3.21544 0
M  V30 7755 H 778.981 2.52035 1.61613 0
M  V30 7756 H 776.527 1.21297 0.776082 0
M  V30 7757 H 778.48 1.63173 3.88526 0
M  V30 7758 H 777.204 0.586674 3.21288 0
M  V30 7759 H 775.863 2.61859 2.56564 0
M  V30 7760 H 775.511 1.53258 4.79083 0
M  V30 7761 H 775.211 3.28679 4.87077 0
M  V30 7762 H 776.735 2.6152 5.5176 0
M  V30 7763 H 778.149 4.20576 3.89601 0
M  V30 7764 H 776.546 4.88344 3.4877 0
M  V30 7765 H 777.616 4.32719 2.1882 0
M  V30 7766 N 778.959 -0.83999 1.33349 0
M  V30 7767 C 780.184 -1.63249 1.27924 0
M  V30 7768 C 780.609 -1.87523 -0.147193 0
M  V30 7769 O 779.967 -1.43853 -1.10345 0
M  V30 7770 C 780.015 -2.96046 2.05886 0
M  V30 7771 O 779.119 -3.87303 1.4167 0
M  V30 7772 H 778.46 -0.49715 0.440157 0
M  V30 7773 H 780.99 -1.04512 1.75893 0
M  V30 7774 H 781 -3.45752 2.16609 0
M  V30 7775 H 779.675 -2.77701 3.09605 0
M  V30 7776 H 778.252 -3.45789 1.39585 0
M  V30 7777 O 780.476 -1.28535 -0.977803 0
M  V30 7778 H 781.167 -1.08805 -1.60253 0
M  V30 END ATOM
M  V30 BEGIN BOND
M  V30 END BOND
M  V30 END CTAB
M  END
$$$$
