drugbank_target|P00943 Triosephosphate isomerase (DB02726)
 OpenBabel12092120013D

  0  0  0     0  0            999 V3000
M  V30 BEGIN CTAB
M  V30 COUNTS 3828 3863 0 0 0
M  V30 BEGIN ATOM
M  V30 1 H -0.908 1.98254 -0.117106 0
M  V30 2 N 0 1.576 0 0
M  V30 3 C 0.933 2.03868 1.02534 0
M  V30 4 C 1.911 0.928543 1.3348 0
M  V30 5 O 3.095 1.19667 1.45644 0
M  V30 6 C 0.222 2.43627 2.35294 0
M  V30 7 C -0.732 3.65373 2.2001 0
M  V30 8 S 0.101 5.13292 1.52614 0
M  V30 9 C 1.257 5.56322 2.86805 0
M  V30 10 H 1.49 2.90518 0.631377 0
M  V30 11 H -0.977 1.52953 0.210867 0
M  V30 12 H 0.981 2.67203 3.11629 0
M  V30 13 H -0.358 1.57376 2.7183 0
M  V30 14 H -1.165 3.90944 3.18086 0
M  V30 15 H -1.563 3.418 1.51819 0
M  V30 16 H 0.729 5.58782 3.83104 0
M  V30 17 H 1.672 6.56266 2.65933 0
M  V30 18 H 2.08 4.83886 2.90714 0
M  V30 19 N 1.4781 -0.272755 1.55222 0
M  V30 20 C 2.8941 -0.619959 1.47067 0
M  V30 21 C 3.0941 -1.895 0.684978 0
M  V30 22 O 2.1501 -2.51675 0.203931 0
M  V30 23 C 3.4631 -0.746693 2.91282 0
M  V30 24 C 5.0111 -0.840731 3.01497 0
M  V30 25 C 5.4861 -0.99924 4.46967 0
M  V30 26 N 6.9771 -1.06476 4.50796 0
M  V30 27 C 7.7121 -1.20621 5.6057 0
M  V30 28 N 7.2081 -1.31483 6.80209 0
M  V30 29 N 9.0011 -1.23733 5.48312 0
M  V30 30 H 1.1521 0.564606 2.04758 0
M  V30 31 H 3.4151 0.191177 0.928523 0
M  V30 32 H 3.1211 0.119753 3.51496 0
M  V30 33 H 2.9951 -1.6269 3.40311 0
M  V30 34 H 5.3821 -1.69764 2.41379 0
M  V30 35 H 5.4631 0.0640874 2.5572 0
M  V30 36 H 5.1071 -0.146984 5.07687 0
M  V30 37 H 5.0371 -1.91871 4.90401 0
M  V30 38 H 7.5281 -0.993196 3.64615 0
M  V30 39 H 7.8411 -1.42111 7.59621 0
M  V30 40 H 6.1861 -1.28487 6.8302 0
M  V30 41 H 9.3771 -1.14877 4.53785 0
M  V30 42 H 9.5501 -1.34412 6.33906 0
M  V30 43 N 2.9562 -1.48159 -0.537278 0
M  V30 44 C 3.9032 -1.62138 -1.64256 0
M  V30 45 C 4.8732 -0.463668 -1.59497 0
M  V30 46 O 6.0582 -0.686241 -1.78032 0
M  V30 47 C 3.1982 -1.66028 -3.02537 0
M  V30 48 C 2.3112 -2.92855 -3.17585 0
M  V30 49 C 1.4462 -2.87952 -4.46382 0
M  V30 50 C 0.4852 -4.09516 -4.54932 0
M  V30 51 N -0.3778 -4.02733 -5.75109 0
M  V30 52 H 4.4622 -2.56529 -1.51647 0
M  V30 53 H 1.9992 -1.27224 -0.738414 0
M  V30 54 H 3.9572 -1.66265 -3.82638 0
M  V30 55 H 2.5872 -0.751331 -3.13934 0
M  V30 56 H 1.6392 -3.02395 -2.30784 0
M  V30 57 H 2.9512 -3.82822 -3.19764 0
M  V30 58 H 2.1052 -2.8655 -5.34765 0
M  V30 59 H 0.8442 -1.95702 -4.46712 0
M  V30 60 H -0.1508 -4.11201 -3.64957 0
M  V30 61 H 1.0742 -5.02917 -4.56346 0
M  V30 62 H -0.9798 -3.13299 -5.76351 0
M  V30 63 H -1.0628 -4.86397 -5.78752 0
M  V30 64 H 0.2052 -4.05379 -6.65799 0
M  V30 65 N 4.4343 0.785586 -1.36625 0
M  V30 66 C 5.8453 1.36101 -1.27803 0
M  V30 67 C 6.1963 1.96035 0.0804875 0
M  V30 68 O 5.3213 1.92834 0.982042 0
M  V30 69 C 5.9163 2.47442 -2.31426 0
M  V30 70 C 4.4753 3.00789 -2.26281 0
M  V30 71 C 3.6223 1.73896 -2.15999 0
M  V30 72 H 6.5733 0.586928 -1.47448 0
M  V30 73 H 6.5943 3.2656 -1.95291 0
M  V30 74 H 6.1063 2.03791 -3.30289 0
M  V30 75 H 4.2073 3.48851 -1.30896 0
M  V30 76 H 4.3203 3.57343 -3.19128 0
M  V30 77 H 2.6843 1.9628 -1.62316 0
M  V30 78 H 3.4673 1.32368 -3.16755 0
M  V30 79 N 5.9124 1.20967 1.01018 0
M  V30 80 C 7.1614 1.01796 1.74128 0
M  V30 81 C 7.4744 -0.449691 1.90361 0
M  V30 82 O 8.6804 -0.76068 2.60626 0
M  V30 83 C 7.1364 1.7727 3.13215 0
M  V30 84 C 6.7444 3.28171 3.04972 0
M  V30 85 C 8.4884 1.66489 3.90489 0
M  V30 86 C 6.3954 3.96156 4.39107 0
M  V30 87 H 5.3254 0.377276 0.652824 0
M  V30 88 H 7.9764 1.44651 1.12909 0
M  V30 89 H 6.3584 1.27205 3.75013 0
M  V30 90 H 7.5324 3.85499 2.52443 0
M  V30 91 H 5.8474 3.39437 2.41188 0
M  V30 92 H 8.4444 2.14617 4.89738 0
M  V30 93 H 8.7874 0.6222 4.11624 0
M  V30 94 H 9.3204 2.14003 3.35332 0
M  V30 95 H 6.0594 5.00604 4.23174 0
M  V30 96 H 5.5794 3.43617 4.91617 0
M  V30 97 H 7.2584 4.00774 5.07926 0
M  V30 98 N 7.3905 -1.2043 1.01659 0
M  V30 99 C 8.6395 -1.89118 0.701237 0
M  V30 100 C 8.9525 -1.79705 -0.772358 0
M  V30 101 O 10.1585 -2.43528 -1.20026 0
M  V30 102 C 8.6145 -3.39168 1.20388 0
M  V30 103 C 8.2225 -3.57166 2.70438 0
M  V30 104 C 9.9665 -4.1341 0.963953 0
M  V30 105 C 7.8735 -5.01042 3.14183 0
M  V30 106 H 6.8035 -0.708267 0.2586 0
M  V30 107 H 9.4545 -1.36239 1.22927 0
M  V30 108 H 7.8365 -3.91369 0.603824 0
M  V30 109 H 9.0105 -3.15351 3.35992 0
M  V30 110 H 7.3255 -2.96294 2.92572 0
M  V30 111 H 9.9225 -5.19491 1.26621 0
M  V30 112 H 10.2655 -4.16181 -0.099578 0
M  V30 113 H 10.7985 -3.67309 1.52738 0
M  V30 114 H 7.5375 -5.03426 4.19812 0
M  V30 115 H 7.0575 -5.43668 2.53348 0
M  V30 116 H 8.7365 -5.69623 3.0682 0
M  V30 117 N 8.8686 -0.792821 -1.36206 0
M  V30 118 C 9.8316 -0.199459 -2.2833 0
M  V30 119 C 10.8316 0.605189 -1.48977 0
M  V30 120 O 12.0216 0.425685 -1.68919 0
M  V30 121 C 9.1536 0.723523 -3.33134 0
M  V30 122 H 10.3466 -1.01181 -2.82316 0
M  V30 123 H 7.8996 -0.562485 -1.45828 0
M  V30 124 H 8.6346 1.56008 -2.84309 0
M  V30 125 H 8.4196 0.148436 -3.91819 0
M  V30 126 H 9.9096 1.13344 -4.01924 0
M  V30 127 N 10.3467 1.47872 -0.545128 0
M  V30 128 C 11.5947 2.02093 -0.016553 0
M  V30 129 C 11.9157 1.42305 1.3332 0
M  V30 130 O 11.1857 0.593853 1.86682 0
M  V30 131 H 9.7657 0.746993 -0.00313038 0
M  V30 132 H 12.4277 1.81414 -0.712397 0
M  V30 133 H 11.5237 3.11996 0.0805422 0
M  V30 134 N 11.8248 0.280983 1.55075 0
M  V30 135 C 12.7728 -0.619864 2.24188 0
M  V30 136 C 13.7668 -1.15315 1.24092 0
M  V30 137 O 14.9728 -1.1061 1.42005 0
M  V30 138 H 11.3478 -0.218459 0.719569 0
M  V30 139 H 13.3188 -0.0141831 2.98397 0
M  V30 140 C 12.0678 -1.7899 2.98091 0
M  V30 141 H 11.3908 -1.38874 3.74905 0
M  V30 142 H 12.8308 -2.39672 3.49762 0
M  V30 143 C 11.2898 -2.68192 2.03899 0
M  V30 144 O 11.8198 -3.6872 1.594 0
M  V30 145 N 10.0258 -2.35488 1.70275 0
M  V30 146 H 9.5728 -1.53787 2.06658 0
M  V30 147 H 9.5308 -2.95442 1.07524 0
M  V30 148 N 13.3029 -1.57598 0.00835791 0
M  V30 149 C 14.5489 -1.92046 -0.670055 0
M  V30 150 C 14.9039 -0.88351 -1.70915 0
M  V30 151 O 14.1969 0.103223 -1.91322 0
M  V30 152 C 14.3909 -3.3101 -1.34787 0
M  V30 153 C 14.2199 -4.48126 -0.375945 0
M  V30 154 C 12.9899 -5.05297 0.0166914 0
M  V30 155 C 15.1879 -5.1303 0.361272 0
M  V30 156 N 13.1699 -6.05931 0.985952 0
M  V30 157 C 14.5409 -6.08571 1.18495 0
M  V30 158 C 16.5959 -4.9609 0.42421 0
M  V30 159 C 15.2989 -6.88996 2.06584 0
M  V30 160 C 17.3249 -5.77107 1.29236 0
M  V30 161 C 16.6869 -6.72248 2.10386 0
M  V30 162 H 12.7859 -0.75096 -0.218136 0
M  V30 163 H 15.3699 -1.94572 0.0706669 0
M  V30 164 H 13.5409 -3.29342 -2.05884 0
M  V30 165 H 15.2729 -3.52864 -1.98164 0
M  V30 166 H 12.0279 -4.72279 -0.353435 0
M  V30 167 H 12.4519 -6.60932 1.4662 0
M  V30 168 H 17.0939 -4.22378 -0.188915 0
M  V30 169 H 14.8119 -7.62028 2.6896 0
M  V30 170 H 18.3979 -5.66038 1.34508 0
M  V30 171 H 17.2779 -7.33846 2.76476 0
M  V30 172 N 14.781 0.264519 -1.55364 0
M  V30 173 C 15.728 1.32717 -1.88825 0
M  V30 174 C 16.698 1.48675 -0.740605 0
M  V30 175 O 17.883 1.62945 -0.992657 0
M  V30 176 C 15.023 2.68089 -2.17307 0
M  V30 177 C 14.136 2.60284 -3.44785 0
M  V30 178 C 13.271 3.87892 -3.62924 0
M  V30 179 C 12.31 3.74631 -4.84064 0
M  V30 180 N 11.447 4.94092 -4.98816 0
M  V30 181 H 16.287 1.03481 -2.79456 0
M  V30 182 H 13.824 0.499757 -1.3835 0
M  V30 183 H 15.782 3.46864 -2.31821 0
M  V30 184 H 14.412 2.95509 -1.299 0
M  V30 185 H 13.464 1.73173 -3.38697 0
M  V30 186 H 14.776 2.46388 -4.33698 0
M  V30 187 H 13.93 4.75109 -3.77302 0
M  V30 188 H 12.669 4.04664 -2.7221 0
M  V30 189 H 11.674 2.85797 -4.69681 0
M  V30 190 H 12.899 3.5937 -5.76221 0
M  V30 191 H 10.845 5.11259 -4.11036 0
M  V30 192 H 10.762 4.8276 -5.81789 0
M  V30 193 H 12.03 5.82857 -5.17588 0
M  V30 194 N 16.2591 1.48442 0.529413 0
M  V30 195 C 17.1921 1.57577 1.65059 0
M  V30 196 C 18.1701 0.426198 1.56915 0
M  V30 197 O 19.3541 0.637877 1.77379 0
M  V30 198 C 16.4811 1.5043 3.03461 0
M  V30 199 C 15.5271 2.70235 3.29962 0
M  V30 200 S 16.3601 4.32198 3.16172 0
M  V30 201 C 17.5161 4.2765 4.57019 0
M  V30 202 H 17.7491 2.52427 1.5706 0
M  V30 203 H 15.2821 1.36982 0.712417 0
M  V30 204 H 17.2401 1.46992 3.8328 0
M  V30 205 H 15.9011 0.569167 3.089 0
M  V30 206 H 15.0941 2.61374 4.30929 0
M  V30 207 H 14.6961 2.70938 2.57815 0
M  V30 208 H 16.9881 3.97618 5.48549 0
M  V30 209 H 17.9311 5.28797 4.70934 0
M  V30 210 H 18.3391 3.5811 4.36368 0
M  V30 211 N 17.7372 -0.778329 1.37039 0
M  V30 212 C 18.6872 -1.88142 1.28789 0
M  V30 213 C 19.6712 -1.59923 0.177063 0
M  V30 214 O 20.8632 -1.72165 0.410873 0
M  V30 215 C 17.9922 -3.25518 1.09055 0
M  V30 216 C 17.0782 -3.5971 2.24654 0
M  V30 217 N 17.4692 -3.65131 3.50018 0
M  V30 218 C 15.7672 -3.89837 2.16663 0
M  V30 219 C 16.4682 -3.95882 4.26207 0
M  V30 220 N 15.4442 -4.11441 3.55271 0
M  V30 221 H 19.2462 -1.90575 2.23737 0
M  V30 222 H 16.7602 -0.974435 1.29917 0
M  V30 223 H 18.7572 -4.04423 1.0123 0
M  V30 224 H 17.4172 -3.24353 0.15018 0
M  V30 225 H 18.4282 -3.475 3.84011 0
M  V30 226 H 15.1052 -3.96533 1.30645 0
M  V30 227 H 16.4952 -4.06907 5.34674 0
M  V30 228 N 19.2153 -1.21501 -1.00376 0
M  V30 229 C 20.1623 -0.975387 -2.09177 0
M  V30 230 C 21.1323 0.0990615 -1.65804 0
M  V30 231 O 22.3173 -0.0483147 -1.90739 0
M  V30 232 C 19.4573 -0.547507 -3.40729 0
M  V30 233 C 18.5703 -1.69153 -3.97506 0
M  V30 234 C 17.7053 -1.2127 -5.17172 0
M  V30 235 C 16.7443 -2.32897 -5.66061 0
M  V30 236 N 15.8813 -1.86138 -6.76976 0
M  V30 237 H 20.7213 -1.9068 -2.29009 0
M  V30 238 H 18.2583 -0.950257 -1.12288 0
M  V30 239 H 20.2163 -0.280667 -4.16255 0
M  V30 240 H 18.8463 0.346904 -3.20931 0
M  V30 241 H 17.8983 -2.07298 -3.18954 0
M  V30 242 H 19.2103 -2.5316 -4.29781 0
M  V30 243 H 18.3643 -0.902591 -5.99948 0
M  V30 244 H 17.1033 -0.342692 -4.86495 0
M  V30 245 H 16.1083 -2.64709 -4.81881 0
M  V30 246 H 17.3333 -3.20396 -5.98768 0
M  V30 247 H 15.2793 -1.01484 -6.48103 0
M  V30 248 H 15.1963 -2.63717 -7.08512 0
M  V30 249 H 16.4643 -1.58165 -7.63285 0
M  V30 250 N 20.6934 1.19889 -1.02296 0
M  V30 251 C 21.9214 1.9339 -0.735399 0
M  V30 252 C 22.3364 1.75148 0.704887 0
M  V30 253 O 21.6934 1.06954 1.47875 0
M  V30 254 C 21.7444 3.45313 -1.06962 0
M  V30 255 O 21.4654 3.62964 -2.45334 0
M  V30 256 C 22.9664 4.35948 -0.804021 0
M  V30 257 H 20.1864 0.61448 -0.269546 0
M  V30 258 H 22.7304 1.522 -1.36585 0
M  V30 259 H 20.8854 3.84359 -0.484455 0
M  V30 260 H 21.2994 4.56886 -2.57595 0
M  V30 261 H 22.7734 5.41174 -1.0879 0
M  V30 262 H 23.2504 4.3842 0.261691 0
M  V30 263 H 23.8564 4.02574 -1.37164 0
M  V30 264 N 22.1715 0.800033 1.35784 0
M  V30 265 C 23.1015 0.220184 2.3246 0
M  V30 266 C 24.0825 -0.65073 1.57161 0
M  V30 267 O 25.2675 -0.582359 1.85263 0
M  V30 268 C 22.3975 -0.637353 3.41402 0
M  V30 269 C 21.3515 0.134531 4.27789 0
M  V30 270 C 20.6775 -0.844285 5.27992 0
M  V30 271 C 21.9775 1.32979 5.05088 0
M  V30 272 H 23.6715 1.02787 2.81203 0
M  V30 273 H 21.2175 0.495717 1.35199 0
M  V30 274 H 23.1705 -1.05302 4.08031 0
M  V30 275 H 21.8945 -1.47785 2.91251 0
M  V30 276 H 20.5535 0.531296 3.6273 0
M  V30 277 H 20.2015 -1.68011 4.74111 0
M  V30 278 H 19.9015 -0.332184 5.8666 0
M  V30 279 H 21.4255 -1.2583 5.97494 0
M  V30 280 H 22.8395 0.98934 5.64699 0
M  V30 281 H 21.2365 1.77593 5.7322 0
M  V30 282 H 22.3065 2.11978 4.36111 0
M  V30 283 N 23.6496 -1.47581 0.552962 0
M  V30 284 C 24.6126 -2.28439 -0.186605 0
M  V30 285 C 25.6126 -1.36706 -0.84665 0
M  V30 286 O 26.8026 -1.59378 -0.703164 0
M  V30 287 C 23.9346 -3.16264 -1.2724 0
M  V30 288 H 25.1276 -2.95294 0.523609 0
M  V30 289 H 22.6806 -1.532 0.309745 0
M  V30 290 H 23.4156 -2.54091 -2.01514 0
M  V30 291 H 23.2006 -3.83769 -0.803968 0
M  V30 292 H 24.6906 -3.77198 -1.79196 0
M  V30 293 N 25.1277 -0.289203 -1.54924 0
M  V30 294 C 26.0377 0.601863 -2.26748 0
M  V30 295 C 27.0537 1.15834 -1.2984 0
M  V30 296 O 28.2297 1.18564 -1.62802 0
M  V30 297 C 25.2947 1.76299 -2.98529 0
M  V30 298 C 24.3557 1.24178 -4.10948 0
M  V30 299 C 23.5887 2.34757 -4.79296 0
M  V30 300 O 23.8117 3.54411 -4.46933 0
M  V30 301 O 22.7457 2.02115 -5.66951 0
M  V30 302 H 26.5717 0.0195879 -3.03694 0
M  V30 303 H 24.1567 -0.0560868 -1.49295 0
M  V30 304 H 26.0387 2.43973 -3.43592 0
M  V30 305 H 24.7137 2.33209 -2.24488 0
M  V30 306 H 23.6207 0.531104 -3.70311 0
M  V30 307 H 24.9537 0.718252 -4.86931 0
M  V30 308 N 26.6058 1.57591 -0.0167156 0
M  V30 309 C 27.5688 2.08393 0.954204 0
M  V30 310 C 28.5688 0.996531 1.26198 0
M  V30 311 O 29.7588 1.25858 1.20438 0
M  V30 312 C 26.8908 2.5394 2.27436 0
M  V30 313 H 28.0838 2.95455 0.514451 0
M  V30 314 H 25.6368 1.54582 0.231089 0
M  V30 315 H 26.3718 1.70171 2.76066 0
M  V30 316 H 26.1568 3.33371 2.06412 0
M  V30 317 H 27.6468 2.93512 2.97053 0
M  V30 318 N 28.0839 -0.256276 1.55502 0
M  V30 319 C 29.3299 -0.987079 1.77157 0
M  V30 320 C 29.6629 -1.85327 0.580315 0
M  V30 321 O 28.9379 -1.89874 -0.421686 0
M  V30 322 C 29.2209 -1.85553 3.08613 0
M  V30 323 C 29.0739 -1.01816 4.38125 0
M  V30 324 C 30.3929 -2.8397 3.36228 0
M  V30 325 H 27.5119 -0.357428 0.644526 0
M  V30 326 H 30.1539 -0.258239 1.88237 0
M  V30 327 H 28.3039 -2.47695 2.99298 0
M  V30 328 H 29.9759 -0.416159 4.59419 0
M  V30 329 H 28.2189 -0.322178 4.32602 0
M  V30 330 H 28.8899 -1.65939 5.26468 0
M  V30 331 H 31.3659 -2.31964 3.45445 0
M  V30 332 H 30.2419 -3.41864 4.29442 0
M  V30 333 H 30.5029 -3.59955 2.56681 0
M  V30 334 N 29.562 -1.4872 -0.521534 0
M  V30 335 C 30.494 -1.59968 -1.64143 0
M  V30 336 C 31.507 -0.483463 -1.55456 0
M  V30 337 O 32.696 -0.75467 -1.61762 0
M  V30 338 C 29.796 -1.52127 -3.02838 0
M  V30 339 C 28.969 -2.78932 -3.36921 0
M  V30 340 C 28.028 -2.64428 -4.54933 0
M  V30 341 O 27.054 -3.38331 -4.57735 0
M  V30 342 N 28.256 -1.74606 -5.53618 0
M  V30 343 H 31.021 -2.56548 -1.54929 0
M  V30 344 H 28.582 -1.45551 -0.708988 0
M  V30 345 H 30.574 -1.40106 -3.79674 0
M  V30 346 H 29.144 -0.634868 -3.06085 0
M  V30 347 H 28.364 -3.05455 -2.4918 0
M  V30 348 H 29.652 -3.63041 -3.56481 0
M  V30 349 H 29.05 -1.13782 -5.54139 0
M  V30 350 H 27.607 -1.6852 -6.29638 0
M  V30 351 N 31.0401 0.771051 -1.3745 0
M  V30 352 C 32.2871 1.52963 -1.32697 0
M  V30 353 C 32.6151 1.94299 0.0883274 0
M  V30 354 O 31.8701 1.64397 1.0617 0
M  V30 355 C 32.1691 2.80676 -2.2126 0
M  V30 356 C 31.8351 2.58389 -3.69521 0
M  V30 357 C 30.4971 2.52019 -4.09927 0
M  V30 358 C 32.8491 2.38469 -4.63446 0
M  V30 359 C 30.1771 2.23721 -5.42371 0
M  V30 360 C 32.5291 2.11694 -5.96128 0
M  V30 361 C 31.1931 2.03769 -6.35637 0
M  V30 362 H 30.4631 0.559732 -0.485573 0
M  V30 363 H 33.1101 0.888083 -1.69662 0
M  V30 364 H 31.4151 3.49392 -1.77291 0
M  V30 365 H 33.1121 3.38557 -2.14895 0
M  V30 366 H 29.7021 2.6421 -3.37478 0
M  V30 367 H 33.8861 2.4238 -4.33089 0
M  V30 368 H 29.1421 2.16081 -5.71943 0
M  V30 369 H 33.3161 1.9528 -6.6846 0
M  V30 370 H 30.9431 1.81606 -7.38189 0
M  V30 371 N 32.5182 1.22032 0.997298 0
M  V30 372 C 33.7642 1.04376 1.73878 0
M  V30 373 C 34.0972 -0.420716 1.89588 0
M  V30 374 O 33.3722 -1.31202 1.43583 0
M  V30 375 C 33.6552 1.75047 3.14691 0
M  V30 376 C 33.5082 3.29062 3.06656 0
M  V30 377 C 34.8272 1.49928 4.13775 0
M  V30 378 H 31.9462 0.380578 0.631133 0
M  V30 379 H 34.5882 1.50312 1.16217 0
M  V30 380 H 32.7382 1.35996 3.63919 0
M  V30 381 H 34.4102 3.7753 2.65083 0
M  V30 382 H 32.6532 3.58967 2.43568 0
M  V30 383 H 33.3242 3.73683 4.06282 0
M  V30 384 H 35.8002 1.83842 3.73285 0
M  V30 385 H 34.6762 2.01878 5.10428 0
M  V30 386 H 34.9372 0.430929 4.39995 0
M  V30 387 N 33.9963 -1.19345 1.0293 0
M  V30 388 C 34.9063 -2.26245 0.620515 0
M  V30 389 C 35.9223 -1.70486 -0.347928 0
M  V30 390 O 37.0983 -2.00347 -0.205704 0
M  V30 391 C 34.1633 -3.46693 -0.0218957 0
M  V30 392 C 33.2243 -4.17632 0.994102 0
M  V30 393 C 32.4573 -5.32329 0.382253 0
M  V30 394 O 32.6803 -5.64552 -0.814676 0
M  V30 395 O 31.6143 -5.91664 1.10531 0
M  V30 396 H 35.4403 -2.63453 1.51083 0
M  V30 397 H 33.0253 -1.26207 0.799513 0
M  V30 398 H 34.9073 -4.19683 -0.380072 0
M  V30 399 H 33.5823 -3.11333 -0.886209 0
M  V30 400 H 32.4893 -3.4676 1.40387 0
M  V30 401 H 33.8223 -4.56964 1.8288 0
M  V30 402 N 35.4744 -0.807222 -1.35358 0
M  V30 403 C 36.7514 -0.311126 -1.9311 0
M  V30 404 C 37.1314 1.19937 -1.73719 0
M  V30 405 O 36.4794 1.99918 -1.10657 0
M  V30 406 C 36.6894 -0.723226 -3.41424 0
M  V30 407 C 38.0374 -0.713078 -4.18569 0
M  V30 408 O 39.0614 -0.664811 -3.49941 0
M  V30 409 O 37.9204 -0.772022 -5.41019 0
M  V30 410 H 35.0144 -0.081526 -0.822972 0
M  V30 411 H 37.5604 -0.890962 -1.4443 0
M  V30 412 H 36.3324 -1.76426 -3.4927 0
M  V30 413 H 35.9554 -0.118232 -3.97424 0
M  V30 414 N 36.9525 1.47285 -0.560781 0
M  V30 415 C 38.1985 2.02764 -0.0381184 0
M  V30 416 C 38.5315 1.43384 1.30976 0
M  V30 417 O 37.8065 0.590733 1.85312 0
M  V30 418 C 38.0895 3.60064 0.0511427 0
M  V30 419 C 37.9425 4.2987 -1.32408 0
M  V30 420 C 39.2615 4.33439 0.762795 0
M  V30 421 H 36.3805 0.736841 -0.0153264 0
M  V30 422 H 39.0225 1.75675 -0.723759 0
M  V30 423 H 37.1725 3.83274 0.635065 0
M  V30 424 H 38.8445 4.17989 -1.95148 0
M  V30 425 H 37.0875 3.90085 -1.8978 0
M  V30 426 H 37.7585 5.38478 -1.21431 0
M  V30 427 H 40.2345 4.15243 0.266965 0
M  V30 428 H 39.1105 5.43124 0.794221 0
M  V30 429 H 39.3715 4.02915 1.81966 0
M  V30 430 N 38.4306 0.297415 1.54768 0
M  V30 431 C 39.3776 -0.580276 2.23386 0
M  V30 432 C 40.3476 -1.13238 1.21517 0
M  V30 433 O 41.5326 -1.17757 1.50126 0
M  V30 434 C 38.6726 -1.74801 2.97555 0
M  V30 435 C 37.7856 -1.22764 4.1419 0
M  V30 436 C 36.9206 -2.35895 4.75949 0
M  V30 437 C 35.9596 -1.80974 5.84735 0
M  V30 438 N 35.0966 -2.87664 6.40464 0
M  V30 439 H 39.9366 0.0114833 2.97998 0
M  V30 440 H 37.4736 0.0174361 1.4709 0
M  V30 441 H 39.4316 -2.43475 3.38786 0
M  V30 442 H 38.0616 -2.31145 2.25326 0
M  V30 443 H 37.1136 -0.433271 3.77924 0
M  V30 444 H 38.4256 -0.785551 4.92575 0
M  V30 445 H 37.5796 -3.12523 5.20014 0
M  V30 446 H 36.3186 -2.83429 3.96887 0
M  V30 447 H 35.3236 -1.02834 5.40097 0
M  V30 448 H 36.5486 -1.34348 6.65678 0
M  V30 449 H 34.4946 -3.34538 5.64287 0
M  V30 450 H 34.4116 -2.4794 7.14186 0
M  V30 451 H 35.6796 -3.642 6.89187 0
M  V30 452 N 39.9087 -1.5758 0.0250728 0
M  V30 453 C 41.1567 -1.91255 -0.653151 0
M  V30 454 C 41.4777 -0.901691 -1.729 0
M  V30 455 O 40.7477 0.0573785 -1.95816 0
M  V30 456 H 39.3277 -0.705942 -0.244243 0
M  V30 457 H 41.9897 -1.94767 0.0719209 0
M  V30 458 H 41.0857 -2.91752 -1.10847 0
M  V30 459 N 41.3868 0.248026 -1.55636 0
M  V30 460 C 42.3368 1.30994 -1.86614 0
M  V30 461 C 43.3208 1.43543 -0.726918 0
M  V30 462 O 44.5128 1.46804 -0.988818 0
M  V30 463 C 41.6418 2.6656 -2.16335 0
M  V30 464 C 40.7278 2.58019 -3.36581 0
M  V30 465 N 41.1188 2.1911 -4.55878 0
M  V30 466 C 39.4168 2.89035 -3.39669 0
M  V30 467 C 40.1178 2.21174 -5.38012 0
M  V30 468 N 39.0938 2.60632 -4.77045 0
M  V30 469 H 42.8958 0.999583 -2.76379 0
M  V30 470 H 40.4098 0.456652 -1.55848 0
M  V30 471 H 42.4068 3.43194 -2.36692 0
M  V30 472 H 41.0668 2.98463 -1.27867 0
M  V30 473 H 42.0778 1.90672 -4.81523 0
M  V30 474 H 38.7548 3.25485 -2.61469 0
M  V30 475 H 40.1448 1.9344 -6.43452 0
M  V30 476 N 42.8649 1.48995 0.513639 0
M  V30 477 C 44.1109 1.58076 1.27042 0
M  V30 478 C 44.4439 0.261026 1.92438 0
M  V30 479 O 43.7189 -0.734393 1.80103 0
M  V30 480 C 44.0019 2.73091 2.34719 0
M  V30 481 C 43.8549 4.14821 1.73907 0
M  V30 482 C 45.1739 2.83796 3.36375 0
M  V30 483 H 42.2929 0.575391 0.460536 0
M  V30 484 H 44.9349 1.81232 0.570516 0
M  V30 485 H 43.0849 2.53479 2.94416 0
M  V30 486 H 44.7569 4.45917 1.18135 0
M  V30 487 H 42.9999 4.21058 1.0437 0
M  V30 488 H 43.6709 4.91147 2.51949 0
M  V30 489 H 46.1469 3.01611 2.86653 0
M  V30 490 H 45.0229 3.65971 4.09093 0
M  V30 491 H 45.2839 1.92624 3.9793 0
M  V30 492 N 44.343 -0.763751 1.37857 0
M  V30 493 C 45.754 -1.3405 1.29952 0
M  V30 494 C 46.105 -1.96138 -0.0492898 0
M  V30 495 O 45.23 -1.94372 -0.951239 0
M  V30 496 C 45.825 -2.43729 2.35333 0
M  V30 497 C 44.384 -2.97151 2.31037 0
M  V30 498 C 43.531 -1.70438 2.18738 0
M  V30 499 H 46.482 -0.563396 1.48363 0
M  V30 500 H 46.503 -3.23412 2.00462 0
M  V30 501 H 46.015 -1.9851 3.33489 0
M  V30 502 H 44.116 -3.46724 1.3643 0
M  V30 503 H 44.229 -3.52221 3.24772 0
M  V30 504 H 42.593 -1.93673 1.65418 0
M  V30 505 H 43.376 -1.27312 3.18821 0
M  V30 506 N 45.8211 -1.22559 -0.990812 0
M  V30 507 C 47.2321 -1.04791 -1.54518 0
M  V30 508 C 47.5831 0.387998 -1.92325 0
M  V30 509 O 46.7081 1.27328 -1.74976 0
M  V30 510 C 47.3031 -1.896 -2.80779 0
M  V30 511 C 45.8621 -1.76124 -3.32652 0
M  V30 512 C 45.0091 -1.8594 -2.05722 0
M  V30 513 H 47.9601 -1.36374 -0.811662 0
M  V30 514 H 47.9811 -1.41464 -3.53225 0
M  V30 515 H 47.4931 -2.94101 -2.53231 0
M  V30 516 H 45.5941 -0.743643 -3.65104 0
M  V30 517 H 45.7071 -2.58913 -4.03114 0
M  V30 518 H 44.0711 -1.29403 -2.19379 0
M  V30 519 H 44.8541 -2.91976 -1.80568 0
M  V30 520 N 47.2992 1.18797 -1.03562 0
M  V30 521 C 48.2622 2.20464 -0.626769 0
M  V30 522 C 49.2622 1.57721 0.313173 0
M  V30 523 O 50.4522 1.73917 0.0992615 0
M  V30 524 C 47.5842 3.40802 0.0818498 0
M  V30 525 H 48.7772 2.58149 -1.5264 0
M  V30 526 H 46.3302 1.32593 -0.827578 0
M  V30 527 H 47.0652 3.08642 0.995518 0
M  V30 528 H 46.8502 3.8758 -0.593652 0
M  V30 529 H 48.3402 4.16092 0.354584 0
M  V30 530 N 48.7773 0.814389 1.34928 0
M  V30 531 C 50.0543 0.321363 1.92942 0
M  V30 532 C 50.4343 -1.19014 1.74353 0
M  V30 533 O 49.7823 -1.99328 1.11716 0
M  V30 534 C 49.9923 0.741323 3.41036 0
M  V30 535 C 51.3403 0.735266 4.18185 0
M  V30 536 O 52.3643 0.68336 3.49584 0
M  V30 537 O 51.2233 0.800703 5.40602 0
M  V30 538 H 48.3173 0.0858893 0.822528 0
M  V30 539 H 50.8633 0.898609 1.43955 0
M  V30 540 H 49.6353 1.78276 3.4833 0
M  V30 541 H 49.2583 0.139307 3.97356 0
M  V30 542 N 50.2554 -1.46986 0.568584 0
M  V30 543 C 51.1654 -2.33942 -0.17555 0
M  V30 544 C 52.1814 -1.48891 -0.90041 0
M  V30 545 O 53.3574 -1.81794 -0.86676 0
M  V30 546 C 50.4224 -3.25811 -1.18524 0
M  V30 547 C 49.4834 -4.26757 -0.466582 0
M  V30 548 C 48.7164 -5.14236 -1.42817 0
M  V30 549 O 48.9394 -5.04379 -2.66379 0
M  V30 550 O 47.8734 -5.94412 -0.946453 0
M  V30 551 H 51.6994 -2.98896 0.538036 0
M  V30 552 H 49.2844 -1.4573 0.329097 0
M  V30 553 H 51.1664 -3.82527 -1.76779 0
M  V30 554 H 49.8414 -2.63471 -1.88055 0
M  V30 555 H 48.7484 -3.73769 0.157451 0
M  V30 556 H 50.0814 -4.91843 0.187485 0
M  V30 557 N 51.7335 -0.305618 -1.54608 0
M  V30 558 C 52.9795 0.302746 -2.00528 0
M  V30 559 C 53.3125 1.53184 -1.19367 0
M  V30 560 O 52.5875 1.92598 -0.271321 0
M  V30 561 C 52.8705 0.654756 -3.54097 0
M  V30 562 C 52.7235 -0.583793 -4.45995 0
M  V30 563 C 54.0425 1.47947 -4.14487 0
M  V30 564 H 51.1615 0.108564 -0.72896 0
M  V30 565 H 53.8035 -0.418634 -1.85331 0
M  V30 566 H 51.9535 1.26935 -3.67178 0
M  V30 567 H 53.6255 -1.22224 -4.44814 0
M  V30 568 H 51.8685 -1.21615 -4.16404 0
M  V30 569 H 52.5395 -0.293287 -5.5122 0
M  V30 570 H 55.0155 0.96013 -4.04871 0
M  V30 571 H 53.8915 1.69454 -5.22088 0
M  V30 572 H 54.1525 2.47011 -3.66658 0
M  V30 573 N 53.2116 1.57565 -0.0334293 0
M  V30 574 C 54.4606 1.91155 0.643639 0
M  V30 575 C 54.7736 0.91192 1.73042 0
M  V30 576 O 55.9796 1.13923 2.46442 0
M  V30 577 C 54.4356 3.39443 1.1961 0
M  V30 578 C 54.0436 4.47774 0.142381 0
M  V30 579 C 55.7876 3.82094 1.84944 0
M  V30 580 C 53.6946 5.87162 0.706727 0
M  V30 581 H 52.6246 0.713368 0.244176 0
M  V30 582 H 55.2756 1.8323 -0.0994323 0
M  V30 583 H 53.6576 3.42313 1.99092 0
M  V30 584 H 54.8316 4.56469 -0.630296 0
M  V30 585 H 53.1466 4.14352 -0.412446 0
M  V30 586 H 55.7436 4.83591 2.2813 0
M  V30 587 H 56.0866 3.17386 2.69392 0
M  V30 588 H 56.6196 3.81665 1.12145 0
M  V30 589 H 53.3586 6.55424 -0.0997178 0
M  V30 590 H 52.8786 5.82064 1.44779 0
M  V30 591 H 54.5576 6.35866 1.19514 0
M  V30 592 N 54.6897 -0.239769 1.55765 0
M  V30 593 C 55.9147 -0.988373 1.82335 0
M  V30 594 C 56.3397 -1.77886 0.611421 0
M  V30 595 O 55.6977 -1.75889 -0.439639 0
M  V30 596 C 55.7457 -1.89627 3.06715 0
M  V30 597 O 54.8497 -2.98904 2.84131 0
M  V30 598 H 54.1907 -0.280858 0.601677 0
M  V30 599 H 56.7207 -0.258597 2.02959 0
M  V30 600 H 56.7307 -2.30957 3.36338 0
M  V30 601 H 55.4057 -1.31511 3.9456 0
M  V30 602 H 53.9827 -2.61651 2.65694 0
M  V30 603 N 56.1678 -1.49265 -0.50573 0
M  V30 604 C 57.4138 -1.58748 -1.26202 0
M  V30 605 C 57.7468 -0.271227 -1.92297 0
M  V30 606 O 57.0218 0.724831 -1.80489 0
M  V30 607 C 57.3048 -2.74332 -2.33268 0
M  V30 608 C 57.1578 -4.15737 -1.71705 0
M  V30 609 C 58.4768 -2.85576 -3.34865 0
M  V30 610 H 55.5958 -0.577826 -0.457478 0
M  V30 611 H 58.2378 -1.81532 -0.560897 0
M  V30 612 H 56.3878 -2.55036 -2.93068 0
M  V30 613 H 58.0598 -4.46537 -1.15769 0
M  V30 614 H 56.3028 -4.21605 -1.02135 0
M  V30 615 H 56.9738 -4.92477 -2.49341 0
M  V30 616 H 59.4498 -3.03127 -2.8505 0
M  V30 617 H 58.3258 -3.68135 -4.07146 0
M  V30 618 H 58.5868 -1.94732 -3.96903 0
M  V30 619 N 57.6459 0.756429 -1.3826 0
M  V30 620 C 58.8919 1.51772 -1.34511 0
M  V30 621 C 59.2249 1.94089 0.0656691 0
M  V30 622 O 58.4999 1.65221 1.02626 0
M  V30 623 C 58.7829 2.77226 -2.29821 0
M  V30 624 C 58.6359 2.41065 -3.79747 0
M  V30 625 C 59.9549 3.79236 -2.23312 0
M  V30 626 H 57.0739 0.550578 -0.489931 0
M  V30 627 H 59.7159 0.866607 -1.69086 0
M  V30 628 H 57.8659 3.32784 -2.00467 0
M  V30 629 H 59.5379 1.91303 -4.19763 0
M  V30 630 H 57.7809 1.7356 -3.97567 0
M  V30 631 H 58.4519 3.3081 -4.41892 0
M  V30 632 H 60.9279 3.3321 -2.49219 0
M  V30 633 H 59.8039 4.64714 -2.92116 0
M  V30 634 H 60.0649 4.24615 -1.23102 0
M  V30 635 N 59.124 1.23083 0.984299 0
M  V30 636 C 60.364 1.07226 1.74017 0
M  V30 637 C 60.728 -0.384766 1.88105 0
M  V30 638 O 61.929 -0.664411 2.60459 0
M  V30 639 C 60.2 1.77348 3.10294 0
M  V30 640 S 61.759 1.77014 4.01512 0
M  V30 641 H 58.577 0.383819 0.598502 0
M  V30 642 H 61.179 1.56158 1.17622 0
M  V30 643 H 59.883 2.82506 2.97689 0
M  V30 644 H 59.414 1.28682 3.71759 0
M  V30 645 H 61.429 0.825956 4.89277 0
M  V30 646 N 60.6021 -1.18246 1.0419 0
M  V30 647 C 61.5651 -2.20128 0.638452 0
M  V30 648 C 62.5651 -1.57885 -0.304805 0
M  V30 649 O 63.7551 -1.73967 -0.0900369 0
M  V30 650 C 60.8871 -3.4084 -0.0637751 0
M  V30 651 H 62.0801 -2.57336 1.54007 0
M  V30 652 H 59.6331 -1.32152 0.834598 0
M  V30 653 H 60.3681 -3.09166 -0.979136 0
M  V30 654 H 60.1531 -3.8726 0.614198 0
M  V30 655 H 61.6431 -4.16274 -0.332512 0
M  V30 656 N 62.0802 -0.821533 -1.34494 0
M  V30 657 C 63.4912 -0.467956 -1.8074 0
M  V30 658 C 63.8422 1.01151 -1.68116 0
M  V30 659 O 62.9672 1.78707 -1.22036 0
M  V30 660 C 63.5622 -0.842627 -3.28154 0
M  V30 661 C 62.1212 -0.541439 -3.72485 0
M  V30 662 C 61.2682 -1.06028 -2.56229 0
M  V30 663 H 64.2192 -1.01183 -1.22261 0
M  V30 664 H 64.2402 -0.145876 -3.8022 0
M  V30 665 H 63.7522 -1.91945 -3.37311 0
M  V30 666 H 61.8532 0.526034 -3.68868 0
M  V30 667 H 61.9662 -1.08453 -4.66663 0
M  V30 668 H 60.3302 -0.481892 -2.501 0
M  V30 669 H 61.1132 -2.14352 -2.68157 0
M  V30 670 N 63.5583 1.46682 -0.576371 0
M  V30 671 C 64.8053 2.02412 -0.0595339 0
M  V30 672 C 65.1333 1.44859 1.29793 0
M  V30 673 O 64.3883 0.601099 1.8624 0
M  V30 674 C 64.6873 3.57345 0.062886 0
M  V30 675 C 64.3533 4.33908 -1.22616 0
M  V30 676 C 63.0153 4.54544 -1.57933 0
M  V30 677 C 65.3673 4.77919 -2.07948 0
M  V30 678 C 62.6953 5.16444 -2.78393 0
M  V30 679 C 65.0473 5.41149 -3.27629 0
M  V30 680 C 63.7113 5.60014 -3.63236 0
M  V30 681 H 62.9813 0.74068 -0.021785 0
M  V30 682 H 65.6283 1.76128 -0.751735 0
M  V30 683 H 63.9333 3.82729 0.838178 0
M  V30 684 H 65.6303 3.98136 0.478439 0
M  V30 685 H 62.2203 4.18138 -0.941202 0
M  V30 686 H 66.4043 4.61738 -1.81967 0
M  V30 687 H 61.6603 5.29242 -3.06126 0
M  V30 688 H 65.8343 5.74211 -3.94023 0
M  V30 689 H 63.4613 6.07748 -4.56669 0
M  V30 690 N 65.0364 0.313813 1.54444 0
M  V30 691 C 65.9664 -0.549454 2.26943 0
M  V30 692 C 66.9474 -1.12741 1.27372 0
M  V30 693 O 68.1324 -1.15436 1.56167 0
M  V30 694 C 65.2624 -1.71523 3.01989 0
M  V30 695 C 64.2164 -1.26703 4.08816 0
M  V30 696 C 63.5424 -2.51898 4.71647 0
M  V30 697 C 64.8424 -0.388962 5.2085 0
M  V30 698 H 66.5364 0.0552661 2.99349 0
M  V30 699 H 64.0824 0.0280207 1.43973 0
M  V30 700 H 66.0354 -2.32535 3.51433 0
M  V30 701 H 64.7594 -2.34639 2.27183 0
M  V30 702 H 63.4184 -0.679896 3.6024 0
M  V30 703 H 63.0664 -3.13356 3.93468 0
M  V30 704 H 62.7664 -2.22605 5.43802 0
M  V30 705 H 64.2904 -3.1369 5.23861 0
M  V30 706 H 65.7044 -0.905107 5.6611 0
M  V30 707 H 64.1014 -0.18924 5.99802 0
M  V30 708 H 65.1714 0.582699 4.81386 0
M  V30 709 N 66.5145 -1.57545 0.0417849 0
M  V30 710 C 67.7615 -1.92317 -0.634082 0
M  V30 711 C 68.0895 -0.919334 -1.71402 0
M  V30 712 O 67.3445 0.0698253 -1.95575 0
M  V30 713 C 67.6435 -3.33794 -1.27735 0
M  V30 714 C 67.3095 -4.49716 -0.326543 0
M  V30 715 C 65.9715 -4.81156 -0.0648814 0
M  V30 716 C 68.3235 -5.20182 0.325623 0
M  V30 717 C 65.6515 -5.80414 0.856539 0
M  V30 718 C 68.0035 -6.20424 1.23518 0
M  V30 719 C 66.6675 -6.50298 1.5056 0
M  V30 720 H 65.9375 -0.703736 -0.232027 0
M  V30 721 H 68.5845 -1.91205 0.106259 0
M  V30 722 H 66.8895 -3.31228 -2.09274 0
M  V30 723 H 68.5865 -3.57975 -1.80707 0
M  V30 724 H 65.1765 -4.25176 -0.540665 0
M  V30 725 H 69.3605 -4.96112 0.136546 0
M  V30 726 H 64.6165 -6.019 1.07363 0
M  V30 727 H 68.7905 -6.74141 1.74664 0
M  V30 728 H 66.4175 -7.27025 2.22123 0
M  V30 729 N 67.9926 0.231505 -1.5589 0
M  V30 730 C 68.9226 1.29022 -1.94617 0
M  V30 731 C 69.9036 1.4941 -0.813067 0
M  V30 732 O 71.0886 1.6176 -1.07459 0
M  V30 733 C 68.2186 2.64199 -2.25424 0
M  V30 734 C 67.1726 2.58484 -3.41131 0
M  V30 735 C 66.4986 3.97599 -3.57518 0
M  V30 736 C 67.7986 2.1413 -4.76388 0
M  V30 737 H 69.4926 0.968563 -2.83301 0
M  V30 738 H 67.0386 0.464479 -1.36303 0
M  V30 739 H 68.9916 3.38413 -2.51107 0
M  V30 740 H 67.7156 2.98032 -1.33583 0
M  V30 741 H 66.3746 1.86727 -3.15481 0
M  V30 742 H 66.0226 4.28723 -2.6307 0
M  V30 743 H 65.7226 3.94659 -4.35337 0
M  V30 744 H 67.2466 4.7349 -3.85538 0
M  V30 745 H 68.6606 2.78083 -5.01341 0
M  V30 746 H 67.0576 2.2227 -5.57419 0
M  V30 747 H 68.1276 1.09331 -4.72414 0
M  V30 748 N 69.4707 1.49531 0.497807 0
M  V30 749 C 70.7477 1.49682 1.25915 0
M  V30 750 C 71.1277 0.226339 2.09883 0
M  V30 751 O 70.4757 -0.791189 2.14365 0
M  V30 752 C 70.6857 2.77755 2.11313 0
M  V30 753 C 72.0337 3.27371 2.70395 0
M  V30 754 O 73.0577 2.78894 2.21578 0
M  V30 755 O 71.9167 4.11808 3.59272 0
M  V30 756 H 69.0107 0.599228 0.56996 0
M  V30 757 H 71.5567 1.61798 0.511816 0
M  V30 758 H 70.3287 3.61713 1.49264 0
M  V30 759 H 69.9517 2.68515 2.93233 0
M  V30 760 N 70.9488 -0.749086 1.3866 0
M  V30 761 C 72.3648 -1.05276 1.19955 0
M  V30 762 C 72.5648 -2.01435 0.05134 0
M  V30 763 O 71.6208 -2.45232 -0.60147 0
M  V30 764 C 72.9338 -1.62853 2.52783 0
M  V30 765 C 74.4818 -1.75002 2.59506 0
M  V30 766 C 74.9568 -2.35991 3.92521 0
M  V30 767 N 76.4478 -2.43416 3.94085 0
M  V30 768 C 77.1828 -2.91511 4.9377 0
M  V30 769 N 76.6788 -3.39608 6.03853 0
M  V30 770 N 78.4718 -2.90592 4.81157 0
M  V30 771 H 70.6228 -0.111066 2.12109 0
M  V30 772 H 72.8858 -0.111901 0.941373 0
M  V30 773 H 72.5918 -0.99664 3.37283 0
M  V30 774 H 72.4658 -2.61854 2.715 0
M  V30 775 H 74.8528 -2.37317 1.75398 0
M  V30 776 H 74.9338 -0.74693 2.44652 0
M  V30 777 H 74.5778 -1.74308 4.77053 0
M  V30 778 H 74.5078 -3.3695 4.04688 0
M  V30 779 H 76.9988 -2.09405 3.14576 0
M  V30 780 H 77.3118 -3.74775 6.75843 0
M  V30 781 H 75.6568 -3.37653 6.07466 0
M  V30 782 H 78.8478 -2.52332 3.94267 0
M  V30 783 H 79.0208 -3.27762 5.58996 0
M  V30 784 N 72.4269 -1.23603 -0.977757 0
M  V30 785 C 73.3569 -1.04401 -2.0886 0
M  V30 786 C 74.3379 0.0399052 -1.70053 0
M  V30 787 O 75.5229 -0.125246 -1.93796 0
M  V30 788 C 72.6529 -0.637269 -3.41403 0
M  V30 789 C 71.6069 -1.66883 -3.94124 0
M  V30 790 C 70.9329 -1.11745 -5.22893 0
M  V30 791 C 72.2329 -3.06247 -4.23096 0
M  V30 792 H 73.9269 -1.97316 -2.25182 0
M  V30 793 H 71.4729 -0.950096 -1.08209 0
M  V30 794 H 73.4259 -0.48998 -4.18542 0
M  V30 795 H 72.1499 0.327557 -3.24953 0
M  V30 796 H 70.8089 -1.80416 -3.19133 0
M  V30 797 H 70.4569 -0.143527 -5.02795 0
M  V30 798 H 70.1569 -1.80672 -5.59134 0
M  V30 799 H 71.6809 -0.982067 -6.02651 0
M  V30 800 H 73.0949 -2.96001 -4.90975 0
M  V30 801 H 71.4919 -3.72436 -4.70544 0
M  V30 802 H 72.5619 -3.55041 -3.30263 0
M  V30 803 N 73.905 1.17692 -1.04816 0
M  V30 804 C 75.151 1.88137 -0.75711 0
M  V30 805 C 75.484 1.80604 0.713841 0
M  V30 806 O 74.759 1.21146 1.52164 0
M  V30 807 C 75.042 3.38318 -1.2334 0
M  V30 808 C 74.895 3.54622 -2.76701 0
M  V30 809 C 76.214 4.32214 -0.829415 0
M  V30 810 H 73.333 0.683163 -0.27651 0
M  V30 811 H 75.975 1.38424 -1.30149 0
M  V30 812 H 74.125 3.80787 -0.770286 0
M  V30 813 H 75.797 3.21194 -3.31107 0
M  V30 814 H 74.04 2.97026 -3.16161 0
M  V30 815 H 74.711 4.60028 -3.05088 0
M  V30 816 H 77.187 3.97565 -1.22805 0
M  V30 817 H 76.063 5.35838 -1.19033 0
M  V30 818 H 76.324 4.41294 0.266891 0
M  V30 819 N 75.3831 0.828654 1.34056 0
M  V30 820 C 76.3151 0.212052 2.28217 0
M  V30 821 C 77.3281 -0.601362 1.51286 0
M  V30 822 O 78.5171 -0.430104 1.73241 0
M  V30 823 C 75.6171 -0.72088 3.31144 0
M  V30 824 C 74.7901 0.0509587 4.3737 0
M  V30 825 C 73.8491 -0.803766 5.20025 0
M  V30 826 O 72.8751 -0.246667 5.68665 0
M  V30 827 N 74.0771 -2.1227 5.40298 0
M  V30 828 H 76.8421 1.02105 2.81771 0
M  V30 829 H 74.4031 0.686153 1.46641 0
M  V30 830 H 76.3951 -1.29742 3.8334 0
M  V30 831 H 74.9651 -1.43061 2.77943 0
M  V30 832 H 74.1851 0.808831 3.85813 0
M  V30 833 H 75.4731 0.582065 5.0546 0
M  V30 834 H 74.8711 -2.59898 5.02464 0
M  V30 835 H 73.4281 -2.64796 5.95589 0
M  V30 836 N 76.8612 -1.46375 0.584142 0
M  V30 837 C 77.8242 -2.28784 -0.138108 0
M  V30 838 C 78.8242 -1.38471 -0.817462 0
M  V30 839 O 80.0142 -1.60833 -0.669199 0
M  V30 840 C 77.1462 -3.18892 -1.20503 0
M  V30 841 H 78.3392 -2.94117 0.586127 0
M  V30 842 H 75.8922 -1.52509 0.342171 0
M  V30 843 H 76.6272 -2.58309 -1.96079 0
M  V30 844 H 76.4122 -3.85388 -0.722384 0
M  V30 845 H 77.9022 -3.80914 -1.71155 0
M  V30 846 N 78.3393 -0.321999 -1.54275 0
M  V30 847 C 79.3023 0.531975 -2.22941 0
M  V30 848 C 80.3023 1.04478 -1.22234 0
M  V30 849 O 81.4923 0.937452 -1.46825 0
M  V30 850 C 78.6243 1.73874 -2.93224 0
M  V30 851 H 79.8173 -0.0682612 -2.99822 0
M  V30 852 H 77.3703 -0.0730644 -1.56129 0
M  V30 853 H 78.1053 2.37825 -2.20476 0
M  V30 854 H 77.8903 1.37847 -3.6707 0
M  V30 855 H 79.3803 2.34496 -3.45545 0
M  V30 856 N 79.8174 1.5752 -0.0501392 0
M  V30 857 C 81.0944 1.83996 0.663685 0
M  V30 858 C 81.4744 0.938339 1.89099 0
M  V30 859 O 80.8224 -0.00087759 2.285 0
M  V30 860 C 81.0324 3.33702 1.02196 0
M  V30 861 C 82.3804 4.00691 1.40469 0
M  V30 862 O 83.4044 3.38321 1.11433 0
M  V30 863 O 82.2634 5.10658 1.94654 0
M  V30 864 H 79.3574 0.759385 0.32751 0
M  V30 865 H 81.9034 1.69514 -0.0794238 0
M  V30 866 H 80.6754 3.91015 0.149364 0
M  V30 867 H 80.2984 3.53368 1.82255 0
M  V30 868 N 81.2955 -0.223234 1.56011 0
M  V30 869 C 82.5435 -0.946003 1.78592 0
M  V30 870 C 82.8645 -1.84936 0.618349 0
M  V30 871 O 82.1345 -1.92473 -0.364833 0
M  V30 872 H 80.7145 -0.352298 0.658707 0
M  V30 873 H 83.3765 -0.235494 1.93472 0
M  V30 874 H 82.4725 -1.55381 2.70672 0
M  V30 875 N 82.7736 -1.49793 -0.48987 0
M  V30 876 C 84.0016 -1.63568 -1.26701 0
M  V30 877 C 84.4166 -0.311465 -1.86213 0
M  V30 878 O 83.7736 0.704416 -1.68357 0
M  V30 879 C 83.8246 -2.71284 -2.38929 0
M  V30 880 O 83.5456 -3.9857 -1.81861 0
M  V30 881 C 85.0466 -2.95864 -3.3012 0
M  V30 882 H 82.2666 -0.550342 -0.383881 0
M  V30 883 H 84.8106 -1.95898 -0.586864 0
M  V30 884 H 82.9656 -2.417 -3.02753 0
M  V30 885 H 83.3796 -4.57993 -2.55622 0
M  V30 886 H 84.8536 -3.74941 -4.05121 0
M  V30 887 H 85.3306 -2.06206 -3.87783 0
M  V30 888 H 85.9366 -3.26907 -2.72051 0
M  V30 889 N 84.2517 0.741722 -1.39055 0
M  V30 890 C 85.5287 1.49252 -1.26425 0
M  V30 891 C 85.9087 2.10705 0.129144 0
M  V30 892 O 85.2567 1.98045 1.13976 0
M  V30 893 C 85.4667 2.54934 -2.38347 0
M  V30 894 C 86.8147 3.21506 -2.77343 0
M  V30 895 O 87.8387 2.65245 -2.37747 0
M  V30 896 O 86.6977 4.23294 -3.45665 0
M  V30 897 H 83.7917 0.662451 -0.495064 0
M  V30 898 H 86.3377 0.776121 -1.50912 0
M  V30 899 H 85.1097 2.07857 -3.31529 0
M  V30 900 H 84.7327 3.34141 -2.15489 0
M  V30 901 N 85.7298 1.2412 0.971189 0
M  V30 902 C 86.6598 1.05508 2.08304 0
M  V30 903 C 87.6408 -0.0308864 1.70072 0
M  V30 904 O 88.8258 0.135521 1.93727 0
M  V30 905 C 85.9558 0.655365 3.4106 0
M  V30 906 C 84.9098 1.68971 3.93234 0
M  V30 907 C 84.2358 1.14516 5.22293 0
M  V30 908 C 85.5358 3.08487 4.21465 0
M  V30 909 H 87.2298 1.98507 2.24132 0
M  V30 910 H 84.7758 0.955821 1.07704 0
M  V30 911 H 86.7288 0.51217 4.18276 0
M  V30 912 H 85.4528 -0.31032 3.25122 0
M  V30 913 H 84.1118 1.82106 3.18171 0
M  V30 914 H 83.7598 0.170189 5.02712 0
M  V30 915 H 83.4598 1.83635 5.58168 0
M  V30 916 H 84.9838 1.01401 6.02121 0
M  V30 917 H 86.3978 2.98601 4.89398 0
M  V30 918 H 84.7948 3.74926 4.68562 0
M  V30 919 H 85.8648 3.56787 3.28376 0
M  V30 920 N 87.2079 -1.17134 1.05439 0
M  V30 921 C 88.1549 -2.21235 0.657539 0
M  V30 922 C 89.1249 -1.62551 -0.341543 0
M  V30 923 O 90.3099 -1.89379 -0.232393 0
M  V30 924 C 87.4499 -3.45076 0.0410575 0
M  V30 925 C 86.5629 -4.18042 1.08927 0
M  V30 926 C 85.6979 -5.29376 0.439848 0
M  V30 927 C 84.7369 -5.94132 1.4722 0
M  V30 928 N 83.8739 -6.96975 0.846756 0
M  V30 929 H 88.7139 -2.54534 1.54972 0
M  V30 930 H 86.2509 -1.25028 0.775006 0
M  V30 931 H 88.2089 -4.15862 -0.33383 0
M  V30 932 H 86.8389 -3.12353 -0.814568 0
M  V30 933 H 85.8909 -3.45945 1.58196 0
M  V30 934 H 87.2029 -4.62306 1.87282 0
M  V30 935 H 86.3569 -6.06699 0.0115125 0
M  V30 936 H 85.0959 -4.86251 -0.375656 0
M  V30 937 H 84.1009 -5.15538 1.91052 0
M  V30 938 H 85.3259 -6.39337 2.28965 0
M  V30 939 H 83.2719 -6.5598 0.0518075 0
M  V30 940 H 83.1889 -7.39565 1.5678 0
M  V30 941 H 84.4569 -7.78239 0.443277 0
M  V30 942 N 88.686 -0.835752 -1.33615 0
M  V30 943 C 89.935 -0.426289 -1.97144 0
M  V30 944 C 90.248 1.01912 -1.66953 0
M  V30 945 O 91.454 1.53311 -2.24072 0
M  V30 946 C 89.91 -0.711321 -3.52801 0
M  V30 947 C 89.518 -2.1712 -3.91871 0
M  V30 948 C 91.262 -0.368654 -4.22896 0
M  V30 949 C 89.169 -2.40044 -5.40493 0
M  V30 950 H 88.099 -0.15567 -0.737755 0
M  V30 951 H 90.75 -1.0239 -1.52278 0
M  V30 952 H 89.132 -0.0433766 -3.95976 0
M  V30 953 H 90.306 -2.87936 -3.59763 0
M  V30 954 H 88.621 -2.47654 -3.34749 0
M  V30 955 H 91.218 -0.517601 -5.32189 0
M  V30 956 H 91.561 0.688078 -4.10574 0
M  V30 957 H 92.094 -0.991702 -3.8524 0
M  V30 958 H 88.833 -3.44271 -5.57815 0
M  V30 959 H 88.353 -1.73785 -5.74072 0
M  V30 960 H 90.032 -2.23042 -6.0734 0
M  V30 961 N 90.1641 1.46063 -0.591896 0
M  V30 962 C 91.4121 2.01938 -0.0808391 0
M  V30 963 C 91.7331 1.46475 1.28725 0
M  V30 964 O 91.0031 0.652944 1.84698 0
M  V30 965 H 89.5831 0.746516 -0.0268938 0
M  V30 966 H 92.2451 1.79055 -0.769752 0
M  V30 967 H 91.3411 3.12094 -0.0187578 0
M  V30 968 N 91.6422 0.330177 1.54103 0
M  V30 969 C 92.6052 -0.520144 2.2322 0
M  V30 970 C 93.6052 -1.03828 1.22786 0
M  V30 971 O 94.7952 -0.929652 1.4732 0
M  V30 972 C 91.9272 -1.72317 2.94142 0
M  V30 973 H 93.1202 0.0841605 2.99782 0
M  V30 974 H 90.6732 0.0813433 1.56088 0
M  V30 975 H 91.4082 -2.36653 2.21734 0
M  V30 976 H 91.1932 -1.35898 3.67796 0
M  V30 977 H 92.6832 -2.3266 3.46784 0
M  V30 978 N 93.1203 -1.57491 0.0584922 0
M  V30 979 C 94.0523 -2.08916 -0.942694 0
M  V30 980 C 95.0653 -1.0185 -1.27006 0
M  V30 981 O 96.2543 -1.29398 -1.22957 0
M  V30 982 C 93.3543 -2.52341 -2.26224 0
M  V30 983 C 92.5273 -3.82827 -2.1157 0
M  V30 984 C 91.5863 -4.12487 -3.26712 0
M  V30 985 O 90.6123 -4.82295 -3.02292 0
M  V30 986 N 91.8143 -3.64978 -4.5141 0
M  V30 987 H 94.5793 -2.95437 -0.503722 0
M  V30 988 H 92.1403 -1.61397 -0.12757 0
M  V30 989 H 94.1323 -2.69254 -3.02133 0
M  V30 990 H 92.7023 -1.7103 -2.61663 0
M  V30 991 H 91.9223 -3.75425 -1.20208 0
M  V30 992 H 93.2103 -4.68263 -1.99015 0
M  V30 993 H 92.6083 -3.08558 -4.7414 0
M  V30 994 H 91.1653 -3.87115 -5.2439 0
M  V30 995 N 94.5984 0.214957 -1.56127 0
M  V30 996 C 95.8264 0.955092 -1.83536 0
M  V30 997 C 96.2414 1.77677 -0.638472 0
M  V30 998 O 95.5984 1.78219 0.392968 0
M  V30 999 C 95.6494 1.86734 -3.09536 0
M  V30 1000 O 95.3704 1.07887 -4.24608 0
M  V30 1001 C 96.8714 2.72082 -3.4998 0
M  V30 1002 H 94.0914 0.279611 -0.609966 0
M  V30 1003 H 96.6354 0.228197 -2.03223 0
M  V30 1004 H 94.7904 2.5481 -2.91806 0
M  V30 1005 H 95.2044 1.69872 -4.9623 0
M  V30 1006 H 96.6784 3.31782 -4.41163 0
M  V30 1007 H 97.1554 3.44806 -2.7204 0
M  V30 1008 H 97.7614 2.09409 -3.70173 0
M  V30 1009 N 96.0765 1.50051 0.48192 0
M  V30 1010 C 97.0095 1.62749 1.59963 0
M  V30 1011 C 97.9875 0.475903 1.5548 0
M  V30 1012 O 99.1715 0.693986 1.7526 0
M  V30 1013 C 96.2985 1.60008 2.98522 0
M  V30 1014 C 95.3445 2.80596 3.21198 0
M  V30 1015 S 96.1775 4.42038 3.02262 0
M  V30 1016 C 97.3335 4.41973 4.43182 0
M  V30 1017 H 97.5665 2.57296 1.4895 0
M  V30 1018 H 95.0995 1.39179 0.668477 0
M  V30 1019 H 97.0575 1.59112 3.78409 0
M  V30 1020 H 95.7185 0.667153 3.06933 0
M  V30 1021 H 94.9115 2.74952 4.22395 0
M  V30 1022 H 94.5135 2.79003 2.49065 0
M  V30 1023 H 96.8055 4.14868 5.35622 0
M  V30 1024 H 97.7485 5.43512 4.53873 0
M  V30 1025 H 98.1565 3.71812 4.24755 0
M  V30 1026 N 97.5546 -0.734337 1.39446 0
M  V30 1027 C 98.5046 -1.83949 1.34709 0
M  V30 1028 C 99.4886 -1.59279 0.227851 0
M  V30 1029 O 100.681 -1.70771 0.465438 0
M  V30 1030 C 97.8096 -3.21884 1.19356 0
M  V30 1031 C 96.8956 -3.52381 2.35984 0
M  V30 1032 N 97.2866 -3.53811 3.61457 0
M  V30 1033 C 95.5846 -3.82747 2.28956 0
M  V30 1034 C 96.2856 -3.82122 4.38586 0
M  V30 1035 N 95.2616 -3.9993 3.68181 0
M  V30 1036 H 99.0636 -1.83361 2.29687 0
M  V30 1037 H 96.5776 -0.932609 1.32952 0
M  V30 1038 H 98.5746 -4.00998 1.14046 0
M  V30 1039 H 97.2346 -3.23711 0.253295 0
M  V30 1040 H 98.2456 -3.35107 3.94872 0
M  V30 1041 H 94.9226 -3.92175 1.43194 0
M  V30 1042 H 96.3126 -3.89691 5.47349 0
M  V30 1043 N 99.0327 -1.24633 -0.964593 0
M  V30 1044 C 100.28 -1.08788 -1.70796 0
M  V30 1045 C 100.608 0.372783 -1.90894 0
M  V30 1046 O 99.8627 1.29167 -1.47018 0
M  V30 1047 C 100.162 -1.7763 -3.10133 0
M  V30 1048 C 99.8277 -3.27557 -3.09866 0
M  V30 1049 C 98.4897 -3.6846 -3.09501 0
M  V30 1050 C 100.842 -4.23389 -3.03959 0
M  V30 1051 C 98.1697 -5.03624 -3.00965 0
M  V30 1052 C 100.522 -5.58565 -2.96965 0
M  V30 1053 C 99.1857 -5.98809 -2.9493 0
M  V30 1054 H 98.4557 -0.398084 -0.624988 0
M  V30 1055 H 101.103 -1.54777 -1.12767 0
M  V30 1056 H 99.4077 -1.24044 -3.71645 0
M  V30 1057 H 101.105 -1.62832 -3.66451 0
M  V30 1058 H 97.6947 -2.95006 -3.10917 0
M  V30 1059 H 101.879 -3.92787 -3.03368 0
M  V30 1060 H 97.1347 -5.33998 -2.97752 0
M  V30 1061 H 101.309 -6.32523 -2.91354 0
M  V30 1062 H 98.9357 -7.03505 -2.88071 0
M  V30 1063 N 100.511 1.16574 -1.06058 0
M  V30 1064 C 101.474 2.19085 -0.673392 0
M  V30 1065 C 102.474 1.5835 0.279648 0
M  V30 1066 O 103.664 1.74088 0.0623488 0
M  V30 1067 C 100.796 3.40899 0.00954234 0
M  V30 1068 H 101.989 2.54853 -1.58081 0
M  V30 1069 H 99.5418 1.30808 -0.855516 0
M  V30 1070 H 100.277 3.10684 0.929826 0
M  V30 1071 H 100.062 3.86233 -0.67573 0
M  V30 1072 H 101.552 4.1675 0.266245 0
M  V30 1073 N 101.989 0.842826 1.3317 0
M  V30 1074 C 103.266 0.362216 1.92217 0
M  V30 1075 C 103.646 -1.15289 1.76838 0
M  V30 1076 O 102.994 -1.96914 1.15919 0
M  V30 1077 C 103.204 0.813495 3.39387 0
M  V30 1078 C 104.552 0.823804 4.16532 0
M  V30 1079 O 105.576 0.757358 3.48055 0
M  V30 1080 O 104.435 0.915193 5.38782 0
M  V30 1081 H 101.529 0.103317 0.820521 0
M  V30 1082 H 104.075 0.928942 1.42017 0
M  V30 1083 H 102.847 1.85624 3.4447 0
M  V30 1084 H 102.47 0.223561 3.96971 0
M  V30 1085 N 103.467 -1.45747 0.599634 0
M  V30 1086 C 104.399 -2.28628 -0.161879 0
M  V30 1087 C 105.412 -1.39494 -0.839367 0
M  V30 1088 O 106.601 -1.63941 -0.706089 0
M  V30 1089 C 103.701 -3.15014 -1.24976 0
M  V30 1090 C 102.874 -4.32378 -0.660935 0
M  V30 1091 C 101.933 -5.00033 -1.63869 0
M  V30 1092 O 100.959 -5.57085 -1.1681 0
M  V30 1093 N 102.161 -4.98589 -2.97303 0
M  V30 1094 H 104.926 -2.94624 0.549265 0
M  V30 1095 H 102.487 -1.55847 0.438565 0
M  V30 1096 H 104.479 -3.5714 -1.9035 0
M  V30 1097 H 103.049 -2.5098 -1.86354 0
M  V30 1098 H 102.269 -3.9383 0.170688 0
M  V30 1099 H 103.557 -5.08197 -0.247619 0
M  V30 1100 H 102.955 -4.53514 -3.38145 0
M  V30 1101 H 101.512 -5.44603 -3.58121 0
M  V30 1102 N 104.945 -0.338344 -1.53925 0
M  V30 1103 C 106.193 0.259245 -2.0043 0
M  V30 1104 C 106.514 1.51484 -1.22791 0
M  V30 1105 O 105.784 1.93037 -0.33368 0
M  V30 1106 H 104.364 0.0987845 -0.740439 0
M  V30 1107 H 107.026 -0.458302 -1.89435 0
M  V30 1108 H 106.122 0.505334 -3.07982 0
M  V30 1109 N 106.423 1.57458 -0.0668435 0
M  V30 1110 C 107.386 2.11323 0.887422 0
M  V30 1111 C 108.386 1.03618 1.22964 0
M  V30 1112 O 109.576 1.29626 1.16373 0
M  V30 1113 C 106.708 2.61048 2.19242 0
M  V30 1114 H 107.901 2.96942 0.420194 0
M  V30 1115 H 105.454 1.55239 0.181793 0
M  V30 1116 H 106.189 1.78868 2.70512 0
M  V30 1117 H 105.974 3.39769 1.95702 0
M  V30 1118 H 107.464 3.02814 2.87565 0
M  V30 1119 N 107.901 -0.206675 1.56239 0
M  V30 1120 C 109.131 -0.943975 1.83773 0
M  V30 1121 C 109.539 -1.77841 0.645703 0
M  V30 1122 O 108.882 -1.79403 -0.395008 0
M  V30 1123 C 108.944 -1.899 3.05251 0
M  V30 1124 C 108.608 -1.24764 4.39639 0
M  V30 1125 C 109.605 -0.630216 5.16066 0
M  V30 1126 C 107.29 -1.25496 4.8637 0
M  V30 1127 C 109.284 -0.0287946 6.37393 0
M  V30 1128 C 106.971 -0.649698 6.07637 0
M  V30 1129 C 107.969 -0.0376845 6.8299 0
M  V30 1130 O 107.657 0.55812 8.0196 0
M  V30 1131 H 107.389 -0.281508 0.614597 0
M  V30 1132 H 109.943 -0.222458 2.04192 0
M  V30 1133 H 108.173 -2.6599 2.80689 0
M  V30 1134 H 109.862 -2.5031 3.1953 0
M  V30 1135 H 110.628 -0.616785 4.81062 0
M  V30 1136 H 106.507 -1.72072 4.27683 0
M  V30 1137 H 110.051 0.449518 6.9615 0
M  V30 1138 H 105.948 -0.660592 6.42111 0
M  V30 1139 H 106.716 0.453891 8.17241 0
M  V30 1140 N 109.379 -1.50304 -0.473955 0
M  V30 1141 C 110.607 -1.64902 -1.24959 0
M  V30 1142 C 111.022 -0.331198 -1.85872 0
M  V30 1143 O 110.379 0.68652 -1.69095 0
M  V30 1144 C 110.43 -2.73803 -2.36038 0
M  V30 1145 O 110.151 -4.00477 -1.77624 0
M  V30 1146 C 111.652 -2.99349 -3.26964 0
M  V30 1147 H 108.872 -0.554383 -0.378022 0
M  V30 1148 H 111.416 -1.9651 -0.566054 0
M  V30 1149 H 109.571 -2.44898 -3.00173 0
M  V30 1150 H 109.985 -4.60678 -2.5075 0
M  V30 1151 H 111.459 -3.79217 -4.01121 0
M  V30 1152 H 111.936 -2.10307 -3.85574 0
M  V30 1153 H 112.542 -3.29774 -2.68569 0
M  V30 1154 N 110.857 0.726932 -1.39834 0
M  V30 1155 C 112.105 1.4837 -1.37225 0
M  V30 1156 C 112.426 1.94979 0.0284857 0
M  V30 1157 O 111.696 1.69555 0.981213 0
M  V30 1158 H 110.276 0.55043 -0.505011 0
M  V30 1159 H 112.938 0.862468 -1.74778 0
M  V30 1160 H 112.034 2.36198 -2.04003 0
M  V30 1161 N 112.336 1.25143 0.95797 0
M  V30 1162 C 113.246 1.06968 2.08794 0
M  V30 1163 C 114.262 0.00773911 1.73998 0
M  V30 1164 O 115.438 0.207972 2.00323 0
M  V30 1165 C 112.503 0.68691 3.39827 0
M  V30 1166 C 111.564 1.82641 3.88511 0
M  V30 1167 C 110.797 1.46181 5.1329 0
M  V30 1168 O 111.02 0.355971 5.69288 0
M  V30 1169 O 109.954 2.29085 5.566 0
M  V30 1170 H 113.78 2.01723 2.27027 0
M  V30 1171 H 111.365 1.04051 1.07209 0
M  V30 1172 H 113.247 0.485417 4.18595 0
M  V30 1173 H 111.922 -0.231417 3.22872 0
M  V30 1174 H 110.829 2.08274 3.10762 0
M  V30 1175 H 112.162 2.72386 4.09959 0
M  V30 1176 N 113.814 -1.1601 1.06675 0
M  V30 1177 C 115.06 -1.86909 0.786945 0
M  V30 1178 C 115.393 -1.81717 -0.685018 0
M  V30 1179 O 114.668 -1.23551 -1.50218 0
M  V30 1180 C 114.951 -3.36313 1.28707 0
M  V30 1181 C 114.804 -3.50175 2.82308 0
M  V30 1182 C 116.123 -4.3084 0.898071 0
M  V30 1183 H 113.242 -0.678677 0.287343 0
M  V30 1184 H 115.884 -1.36336 1.32334 0
M  V30 1185 H 114.034 -3.79513 0.830768 0
M  V30 1186 H 115.706 -3.15886 3.36175 0
M  V30 1187 H 113.949 -2.91959 3.20847 0
M  V30 1188 H 114.62 -4.55116 3.12368 0
M  V30 1189 H 117.096 -3.95561 1.29114 0
M  V30 1190 H 115.972 -5.33876 1.27543 0
M  V30 1191 H 116.233 -4.41662 -0.196651 0
M  V30 1192 N 115.292 -0.849877 -1.32721 0
M  V30 1193 C 116.517 -0.463856 -2.02146 0
M  V30 1194 C 116.942 0.930449 -1.63476 0
M  V30 1195 O 116.3 1.61033 -0.832952 0
M  V30 1196 C 116.348 -0.604955 -3.55489 0
M  V30 1197 O 115.452 0.36425 -4.10788 0
M  V30 1198 H 114.793 -0.187046 -0.637111 0
M  V30 1199 H 117.323 -1.14775 -1.69375 0
M  V30 1200 H 117.333 -0.490696 -4.05038 0
M  V30 1201 H 116.008 -1.62174 -3.82978 0
M  V30 1202 H 114.585 0.206628 -3.72327 0
M  V30 1203 N 116.77 1.45427 -0.607355 0
M  V30 1204 C 118.181 1.85756 -0.187535 0
M  V30 1205 C 118.532 1.5077 1.25551 0
M  V30 1206 O 117.657 0.93427 1.95193 0
M  V30 1207 C 118.252 3.37154 -0.333572 0
M  V30 1208 C 116.811 3.76387 0.0315542 0
M  V30 1209 C 115.958 2.69377 -0.658117 0
M  V30 1210 H 118.909 1.36231 -0.81405 0
M  V30 1211 H 118.93 3.78014 0.43428 0
M  V30 1212 H 118.442 3.62586 -1.38393 0
M  V30 1213 H 116.543 3.56571 1.0811 0
M  V30 1214 H 116.656 4.77731 -0.361935 0
M  V30 1215 H 115.02 2.5452 -0.0957873 0
M  V30 1216 H 115.803 2.97646 -1.7106 0
M  V30 1217 N 118.248 0.346503 1.53744 0
M  V30 1218 C 119.494 -0.249473 2.0126 0
M  V30 1219 C 119.827 -1.49965 1.23386 0
M  V30 1220 O 119.102 -1.91811 0.32229 0
M  V30 1221 C 119.385 -0.560643 3.55709 0
M  V30 1222 C 119.238 0.701836 4.44291 0
M  V30 1223 C 120.557 -1.36905 4.18264 0
M  V30 1224 H 117.676 -0.0891987 0.731582 0
M  V30 1225 H 120.318 0.467624 1.84156 0
M  V30 1226 H 118.468 -1.17156 3.70414 0
M  V30 1227 H 120.14 1.33974 4.41417 0
M  V30 1228 H 118.383 1.32612 4.13033 0
M  V30 1229 H 119.054 0.43933 5.50249 0
M  V30 1230 H 121.53 -0.852448 4.07275 0
M  V30 1231 H 120.406 -1.55553 5.26398 0
M  V30 1232 H 120.667 -2.37203 3.73078 0
M  V30 1233 N 119.726 -1.57421 0.075193 0
M  V30 1234 C 120.659 -2.08528 -0.926904 0
M  V30 1235 C 121.637 -0.991171 -1.28898 0
M  V30 1236 O 122.821 -1.26479 -1.39769 0
M  V30 1237 C 119.948 -2.54576 -2.23402 0
M  V30 1238 C 118.994 -3.75454 -2.02327 0
M  V30 1239 S 119.827 -5.19989 -1.27951 0
M  V30 1240 C 120.983 -5.69372 -2.59935 0
M  V30 1241 H 121.216 -2.932 -0.492048 0
M  V30 1242 H 118.749 -1.53785 -0.137651 0
M  V30 1243 H 120.707 -2.81767 -2.98526 0
M  V30 1244 H 119.368 -1.70166 -2.64012 0
M  V30 1245 H 118.561 -4.05675 -2.99071 0
M  V30 1246 H 118.163 -3.48654 -1.35339 0
M  V30 1247 H 120.455 -5.76424 -3.56008 0
M  V30 1248 H 121.398 -6.68207 -2.34319 0
M  V30 1249 H 121.806 -4.97205 -2.67296 0
M  V30 1250 N 121.204 0.198386 -1.56346 0
M  V30 1251 C 122.134 1.24865 -1.9731 0
M  V30 1252 C 123.115 1.47651 -0.844576 0
M  V30 1253 O 124.3 1.59444 -1.10866 0
M  V30 1254 C 121.43 2.59358 -2.30977 0
M  V30 1255 C 120.384 2.5119 -3.46537 0
M  V30 1256 C 119.71 3.89926 -3.65871 0
M  V30 1257 C 121.01 2.03977 -4.80823 0
M  V30 1258 H 122.704 0.908252 -2.85291 0
M  V30 1259 H 120.25 0.435462 -1.37258 0
M  V30 1260 H 122.203 3.33011 -2.58228 0
M  V30 1261 H 120.927 2.95132 -1.39874 0
M  V30 1262 H 119.586 1.79993 -3.19371 0
M  V30 1263 H 119.234 4.23046 -2.72105 0
M  V30 1264 H 118.934 3.85336 -4.4361 0
M  V30 1265 H 120.458 4.65205 -3.95495 0
M  V30 1266 H 121.872 2.67386 -5.07127 0
M  V30 1267 H 120.269 2.10397 -5.62008 0
M  V30 1268 H 121.339 0.992861 -4.74626 0
M  V30 1269 N 122.682 1.50554 0.465978 0
M  V30 1270 C 123.629 1.6979 1.56333 0
M  V30 1271 C 124.599 0.539239 1.57103 0
M  V30 1272 O 125.784 0.770401 1.74555 0
M  V30 1273 C 122.924 1.80273 2.94271 0
M  V30 1274 C 122.037 3.07674 3.0325 0
M  V30 1275 C 121.172 3.08922 4.32135 0
M  V30 1276 C 120.211 4.30755 4.34875 0
M  V30 1277 N 119.348 4.29714 5.55239 0
M  V30 1278 H 124.188 2.63472 1.39235 0
M  V30 1279 H 121.725 1.30602 0.676873 0
M  V30 1280 H 123.683 1.84332 3.74269 0
M  V30 1281 H 122.313 0.900258 3.09992 0
M  V30 1282 H 121.365 3.13062 2.16094 0
M  V30 1283 H 122.677 3.97642 3.01135 0
M  V30 1284 H 121.831 3.11738 5.20485 0
M  V30 1285 H 120.57 2.16792 4.36866 0
M  V30 1286 H 119.575 4.28146 3.44922 0
M  V30 1287 H 120.8 5.24117 4.31831 0
M  V30 1288 H 118.746 3.4044 5.60746 0
M  V30 1289 H 118.663 5.13456 5.54886 0
M  V30 1290 H 119.931 4.36683 6.457 0
M  V30 1291 N 124.16 -0.719506 1.40217 0
M  V30 1292 C 125.437 -1.47221 1.28784 0
M  V30 1293 C 125.817 -2.10883 -0.0956067 0
M  V30 1294 O 125.165 -1.99833 -1.10811 0
M  V30 1295 C 125.375 -2.5111 2.42373 0
M  V30 1296 C 126.723 -3.17053 2.82423 0
M  V30 1297 O 127.747 -2.61429 2.41937 0
M  V30 1298 O 126.606 -4.17742 3.52355 0
M  V30 1299 H 123.7 -0.654491 0.50554 0
M  V30 1300 H 126.246 -0.752014 1.52128 0
M  V30 1301 H 125.018 -2.02556 3.34793 0
M  V30 1302 H 124.641 -3.3067 2.20778 0
M  V30 1303 N 125.638 -1.25649 -0.95132 0
M  V30 1304 C 126.568 -1.08808 -2.06599 0
M  V30 1305 C 127.549 0.00382547 -1.701 0
M  V30 1306 O 128.734 -0.166325 -1.93486 0
M  V30 1307 C 125.864 -0.709542 -3.39975 0
M  V30 1308 C 124.818 -1.75206 -3.90496 0
M  V30 1309 C 124.144 -1.22811 -5.20405 0
M  V30 1310 C 125.444 -3.15153 -4.16504 0
M  V30 1311 H 127.138 -2.02048 -2.20946 0
M  V30 1312 H 124.684 -0.972835 -1.06169 0
M  V30 1313 H 126.637 -0.578649 -4.17408 0
M  V30 1314 H 125.361 0.258556 -3.25575 0
M  V30 1315 H 124.02 -1.87145 -3.15234 0
M  V30 1316 H 123.668 -0.250145 -5.02378 0
M  V30 1317 H 123.368 -1.92492 -5.55176 0
M  V30 1318 H 124.892 -1.10968 -6.00432 0
M  V30 1319 H 126.306 -3.06349 -4.84586 0
M  V30 1320 H 124.703 -3.82333 -4.62538 0
M  V30 1321 H 125.773 -3.61966 -3.22658 0
M  V30 1322 N 127.117 1.15442 -1.07289 0
M  V30 1323 C 128.365 1.85845 -0.794096 0
M  V30 1324 C 128.686 1.82692 0.681809 0
M  V30 1325 O 127.956 1.26741 1.49377 0
M  V30 1326 H 126.536 0.688089 -0.290763 0
M  V30 1327 H 129.198 1.39947 -1.3565 0
M  V30 1328 H 128.294 2.91001 -1.12804 0
M  V30 1329 N 128.595 0.856903 1.32268 0
M  V30 1330 C 129.841 0.462069 1.97466 0
M  V30 1331 C 130.174 -0.980298 1.67642 0
M  V30 1332 O 129.449 -1.68824 0.965858 0
M  V30 1333 C 129.732 0.704336 3.53145 0
M  V30 1334 C 129.585 2.19529 3.9259 0
M  V30 1335 C 130.904 0.1622 4.39801 0
M  V30 1336 H 128.023 0.169357 0.717278 0
M  V30 1337 H 130.665 1.07574 1.56614 0
M  V30 1338 H 128.815 0.181999 3.88073 0
M  V30 1339 H 130.487 2.78387 3.67829 0
M  V30 1340 H 128.73 2.67292 3.41668 0
M  V30 1341 H 129.401 2.31549 5.01088 0
M  V30 1342 H 131.877 0.608905 4.11621 0
M  V30 1343 H 130.753 0.361265 5.4771 0
M  V30 1344 H 131.014 -0.935158 4.32096 0
M  V30 1345 N 130.073 -1.45103 0.615059 0
M  V30 1346 C 131.301 -2.06553 0.11977 0
M  V30 1347 C 131.716 -1.45842 -1.19898 0
M  V30 1348 O 131.073 -0.575325 -1.73194 0
M  V30 1349 C 131.124 -3.61495 -0.018364 0
M  V30 1350 O 130.845 -4.19942 1.24822 0
M  V30 1351 C 132.346 -4.39947 -0.544237 0
M  V30 1352 H 129.566 -0.667096 0.0722739 0
M  V30 1353 H 132.11 -1.8623 0.84491 0
M  V30 1354 H 130.265 -3.81135 -0.693865 0
M  V30 1355 H 130.679 -5.13204 1.0827 0
M  V30 1356 H 132.153 -5.48838 -0.589953 0
M  V30 1357 H 132.63 -4.10255 -1.56805 0
M  V30 1358 H 133.236 -4.25188 0.0974703 0
M  V30 1359 N 131.551 -0.354651 -1.53558 0
M  V30 1360 C 132.781 0.239167 -2.05211 0
M  V30 1361 C 133.189 1.43879 -1.22863 0
M  V30 1362 O 132.532 1.81857 -0.259565 0
M  V30 1363 C 132.594 0.707251 -3.52474 0
M  V30 1364 C 132.258 -0.374212 -4.55465 0
M  V30 1365 C 133.255 -1.22054 -5.0537 0
M  V30 1366 C 130.94 -0.531323 -4.99482 0
M  V30 1367 C 132.934 -2.20942 -5.97882 0
M  V30 1368 C 130.621 -1.52358 -5.91802 0
M  V30 1369 C 131.619 -2.36108 -6.40892 0
M  V30 1370 O 131.307 -3.33643 -7.31394 0
M  V30 1371 H 131.039 0.0479716 -0.674296 0
M  V30 1372 H 133.593 -0.508121 -1.99016 0
M  V30 1373 H 131.823 1.50596 -3.56171 0
M  V30 1374 H 133.512 1.22285 -3.87042 0
M  V30 1375 H 134.278 -1.1103 -4.7212 0
M  V30 1376 H 130.157 0.110738 -4.60867 0
M  V30 1377 H 133.701 -2.86348 -6.36121 0
M  V30 1378 H 129.598 -1.63434 -6.24467 0
M  V30 1379 H 130.366 -3.29244 -7.4936 0
M  V30 1380 N 133.029 1.57378 -0.0835403 0
M  V30 1381 C 134.275 1.94217 0.583733 0
M  V30 1382 C 134.608 0.964653 1.68547 0
M  V30 1383 O 133.883 -0.00422258 1.945 0
M  V30 1384 C 134.166 3.41253 1.14972 0
M  V30 1385 C 134.019 4.49768 0.0538277 0
M  V30 1386 C 135.338 3.89352 2.05166 0
M  V30 1387 H 132.457 0.706233 0.210724 0
M  V30 1388 H 135.099 1.89392 -0.1519 0
M  V30 1389 H 133.249 3.45496 1.77665 0
M  V30 1390 H 134.921 4.57641 -0.579851 0
M  V30 1391 H 133.164 4.29432 -0.614068 0
M  V30 1392 H 133.835 5.49817 0.490452 0
M  V30 1393 H 136.311 3.87189 1.52393 0
M  V30 1394 H 135.187 4.92822 2.41698 0
M  V30 1395 H 135.448 3.27973 2.96456 0
M  V30 1396 N 134.507 -0.190092 1.56449 0
M  V30 1397 C 135.756 -0.907912 1.80111 0
M  V30 1398 C 136.069 -1.84214 0.657619 0
M  V30 1399 O 137.275 -2.60094 0.778663 0
M  V30 1400 C 135.731 -1.66485 3.19078 0
M  V30 1401 C 135.339 -0.7752 4.41242 0
M  V30 1402 C 137.083 -2.37201 3.52045 0
M  V30 1403 C 134.99 -1.53129 5.71231 0
M  V30 1404 H 133.92 -0.34276 0.671589 0
M  V30 1405 H 136.571 -0.161109 1.82791 0
M  V30 1406 H 134.953 -2.45572 3.10661 0
M  V30 1407 H 136.127 -0.0226298 4.60794 0
M  V30 1408 H 134.442 -0.178627 4.16017 0
M  V30 1409 H 137.039 -2.94329 4.46402 0
M  V30 1410 H 137.382 -3.11632 2.76028 0
M  V30 1411 H 137.915 -1.65075 3.61932 0
M  V30 1412 H 134.654 -0.82967 6.50228 0
M  V30 1413 H 134.174 -2.25767 5.55688 0
M  V30 1414 H 135.853 -2.08377 6.12526 0
M  V30 1415 N 135.985 -1.50799 -0.457987 0
M  V30 1416 C 136.915 -1.73553 -1.5621 0
M  V30 1417 C 137.896 -0.584774 -1.59732 0
M  V30 1418 O 139.081 -0.825314 -1.7579 0
M  V30 1419 C 136.211 -1.84169 -2.94447 0
M  V30 1420 C 135.165 -2.99461 -3.0579 0
M  V30 1421 C 134.491 -2.95235 -4.45803 0
M  V30 1422 C 135.791 -4.39766 -2.81786 0
M  V30 1423 H 137.485 -2.66 -1.37421 0
M  V30 1424 H 135.031 -1.28002 -0.659662 0
M  V30 1425 H 136.984 -1.98672 -3.71628 0
M  V30 1426 H 135.708 -0.883545 -3.14422 0
M  V30 1427 H 134.367 -2.8463 -2.31044 0
M  V30 1428 H 134.015 -1.97239 -4.62715 0
M  V30 1429 H 133.715 -3.72642 -4.54326 0
M  V30 1430 H 135.239 -3.11803 -5.24987 0
M  V30 1431 H 136.653 -4.55054 -3.4871 0
M  V30 1432 H 135.05 -5.18722 -3.0174 0
M  V30 1433 H 136.12 -4.51229 -1.7754 0
M  V30 1434 N 137.463 0.71206 -1.40597 0
M  V30 1435 C 138.711 1.46907 -1.38791 0
M  V30 1436 C 139.032 1.94998 0.00780391 0
M  V30 1437 O 138.302 1.70587 0.963174 0
M  V30 1438 H 136.882 0.545043 -0.51082 0
M  V30 1439 H 139.544 0.843882 -1.75683 0
M  V30 1440 H 138.64 2.34021 -2.06496 0
M  V30 1441 N 138.941 1.26152 0.944643 0
M  V30 1442 C 139.891 1.04081 2.02857 0
M  V30 1443 C 140.875 -0.0256555 1.6088 0
M  V30 1444 O 142.067 0.190884 1.75968 0
M  V30 1445 C 139.196 0.672118 3.36656 0
M  V30 1446 C 138.282 1.77586 3.85128 0
M  V30 1447 N 138.673 3.01272 4.06287 0
M  V30 1448 C 136.971 1.65867 4.1401 0
M  V30 1449 C 137.672 3.72983 4.46384 0
M  V30 1450 N 136.648 3.00653 4.52889 0
M  V30 1451 H 140.45 1.97968 2.17223 0
M  V30 1452 H 137.964 1.16618 1.13022 0
M  V30 1453 H 139.961 0.495166 4.13949 0
M  V30 1454 H 138.621 -0.259307 3.23663 0
M  V30 1455 H 139.632 3.37213 3.93075 0
M  V30 1456 H 136.309 0.796907 4.09824 0
M  V30 1457 H 137.699 4.792 4.70975 0
M  V30 1458 N 140.419 -1.14872 1.07899 0
M  V30 1459 C 141.644 -1.90202 0.826926 0
M  V30 1460 C 142.069 -1.77774 -0.614664 0
M  V30 1461 O 141.427 -1.11431 -1.43013 0
M  V30 1462 C 141.475 -3.38352 1.24702 0
M  V30 1463 O 140.579 -4.10497 0.39575 0
M  V30 1464 H 139.92 -0.591968 0.300782 0
M  V30 1465 H 142.45 -1.45437 1.43907 0
M  V30 1466 H 142.46 -3.89156 1.22563 0
M  V30 1467 H 141.135 -3.46715 2.29698 0
M  V30 1468 H 139.712 -3.69796 0.480117 0
M  V30 1469 N 141.898 -0.863906 -1.31812 0
M  V30 1470 C 142.808 -0.318461 -2.32428 0
M  V30 1471 C 143.824 0.568496 -1.64451 0
M  V30 1472 O 145 0.46666 -1.95919 0
M  V30 1473 C 142.065 0.476355 -3.43412 0
M  V30 1474 C 141.126 -0.43784 -4.27061 0
M  V30 1475 C 140.359 0.319138 -5.32745 0
M  V30 1476 O 140.582 1.54799 -5.48993 0
M  V30 1477 O 139.516 -0.319861 -6.01049 0
M  V30 1478 H 143.342 -1.15229 -2.80991 0
M  V30 1479 H 140.927 -0.627103 -1.35602 0
M  V30 1480 H 142.809 0.927156 -4.11074 0
M  V30 1481 H 141.484 1.28683 -2.97022 0
M  V30 1482 H 140.391 -0.937013 -3.62175 0
M  V30 1483 H 141.724 -1.21375 -4.77 0
M  V30 1484 N 143.376 1.44774 -0.622745 0
M  V30 1485 C 144.792 1.56986 -0.287652 0
M  V30 1486 C 144.992 1.61167 1.20944 0
M  V30 1487 O 144.048 1.55015 1.99315 0
M  V30 1488 C 145.361 2.84551 -0.972188 0
M  V30 1489 C 146.909 2.9825 -0.949536 0
M  V30 1490 C 147.384 4.28605 -1.61437 0
M  V30 1491 N 148.875 4.35399 -1.58057 0
M  V30 1492 C 149.61 5.34964 -2.064 0
M  V30 1493 N 149.106 6.40981 -2.62897 0
M  V30 1494 N 150.899 5.26419 -1.97078 0
M  V30 1495 H 143.05 1.40304 -1.59463 0
M  V30 1496 H 145.313 0.671794 -0.668878 0
M  V30 1497 H 145.019 2.87417 -2.02693 0
M  V30 1498 H 144.893 3.73807 -0.504771 0
M  V30 1499 H 147.28 2.94941 0.0967067 0
M  V30 1500 H 147.361 2.10364 -1.45536 0
M  V30 1501 H 147.005 4.32672 -2.66002 0
M  V30 1502 H 146.935 5.15334 -1.08344 0
M  V30 1503 H 149.426 3.59397 -1.16801 0
M  V30 1504 H 149.739 7.13225 -2.97539 0
M  V30 1505 H 148.084 6.4169 -2.66943 0
M  V30 1506 H 151.275 4.42504 -1.52669 0
M  V30 1507 H 151.448 6.03861 -2.35066 0
M  V30 1508 N 144.854 0.36279 1.53368 0
M  V30 1509 C 146.27 0.0116182 1.59596 0
M  V30 1510 C 146.47 -1.47012 1.37803 0
M  V30 1511 O 145.526 -2.23136 1.18181 0
M  V30 1512 C 146.839 0.465052 2.97082 0
M  V30 1513 C 148.387 0.419033 3.10182 0
M  V30 1514 C 148.862 0.848235 4.50077 0
M  V30 1515 N 150.353 0.803183 4.56183 0
M  V30 1516 C 151.088 1.107 5.62613 0
M  V30 1517 N 150.584 1.47996 6.76808 0
M  V30 1518 N 152.377 1.02998 5.52583 0
M  V30 1519 H 144.528 1.32775 1.65785 0
M  V30 1520 H 146.791 0.542518 0.777417 0
M  V30 1521 H 146.497 1.49892 3.18159 0
M  V30 1522 H 146.371 -0.149786 3.76902 0
M  V30 1523 H 148.758 -0.605696 2.88817 0
M  V30 1524 H 148.839 1.06933 2.32377 0
M  V30 1525 H 148.483 1.87107 4.7218 0
M  V30 1526 H 148.413 0.175218 5.26308 0
M  V30 1527 H 150.904 0.52838 3.74188 0
M  V30 1528 H 151.217 1.69613 7.53957 0
M  V30 1529 H 149.562 1.51859 6.78206 0
M  V30 1530 H 152.753 0.737817 4.62249 0
M  V30 1531 H 152.926 1.2701 6.35431 0
M  V30 1532 N 146.332 -1.57332 0.0918853 0
M  V30 1533 C 147.264 -2.10869 -0.898168 0
M  V30 1534 C 148.277 -1.04521 -1.24817 0
M  V30 1535 O 149.466 -1.31977 -1.20184 0
M  V30 1536 C 146.566 -2.57083 -2.2082 0
M  V30 1537 C 145.739 -3.87229 -2.03402 0
M  V30 1538 C 144.798 -4.19324 -3.17889 0
M  V30 1539 O 143.824 -4.88598 -2.91994 0
M  V30 1540 N 145.026 -3.74471 -4.43567 0
M  V30 1541 H 147.791 -2.96439 -0.440943 0
M  V30 1542 H 145.352 -1.61631 -0.0933064 0
M  V30 1543 H 147.344 -2.75602 -2.96354 0
M  V30 1544 H 145.914 -1.76541 -2.57977 0
M  V30 1545 H 145.134 -3.7789 -1.12218 0
M  V30 1546 H 146.422 -4.72379 -1.89038 0
M  V30 1547 H 145.82 -3.18546 -4.67488 0
M  V30 1548 H 144.377 -3.98151 -5.16061 0
M  V30 1549 N 147.81 0.181792 -1.56548 0
M  V30 1550 C 148.743 1.25366 -1.90679 0
M  V30 1551 C 149.721 1.43299 -0.768376 0
M  V30 1552 O 150.905 1.58475 -1.02068 0
M  V30 1553 C 148.032 2.61826 -2.1486 0
M  V30 1554 C 147.078 2.60688 -3.37556 0
M  V30 1555 S 147.911 2.10804 -4.92262 0
M  V30 1556 C 149.067 3.49062 -5.19525 0
M  V30 1557 H 149.3 0.962277 -2.81296 0
M  V30 1558 H 146.833 0.385892 -1.495 0
M  V30 1559 H 148.791 3.40371 -2.29473 0
M  V30 1560 H 147.452 2.88169 -1.24969 0
M  V30 1561 H 146.645 3.61058 -3.51643 0
M  V30 1562 H 146.247 1.90232 -3.22006 0
M  V30 1563 H 148.539 4.45003 -5.10861 0
M  V30 1564 H 149.482 3.39859 -6.2121 0
M  V30 1565 H 149.89 3.4459 -4.47122 0
M  V30 1566 N 149.288 1.51039 0.449983 0
M  V30 1567 C 150.535 1.63081 1.20045 0
M  V30 1568 C 150.863 0.341024 1.91487 0
M  V30 1569 O 150.118 -0.674276 1.83717 0
M  V30 1570 C 150.417 2.77556 2.25161 0
M  V30 1571 C 150.083 4.17289 1.70823 0
M  V30 1572 C 148.745 4.55305 1.55725 0
M  V30 1573 C 151.097 5.04536 1.3074 0
M  V30 1574 C 148.425 5.78287 0.989999 0
M  V30 1575 C 150.777 6.28085 0.754482 0
M  V30 1576 C 149.441 6.64885 0.590308 0
M  V30 1577 H 148.711 0.596755 0.439277 0
M  V30 1578 H 151.358 1.85037 0.49333 0
M  V30 1579 H 149.663 2.49771 3.01863 0
M  V30 1580 H 151.36 2.84073 2.83026 0
M  V30 1581 H 147.95 3.8731 1.83546 0
M  V30 1582 H 152.134 4.75782 1.41229 0
M  V30 1583 H 147.39 6.05456 0.850451 0
M  V30 1584 H 151.564 6.95038 0.435324 0
M  V30 1585 H 149.191 7.60055 0.14862 0
M  V30 1586 N 150.766 -0.704594 1.40972 0
M  V30 1587 C 151.729 -1.80035 1.41845 0
M  V30 1588 C 152.729 -1.57774 0.310474 0
M  V30 1589 O 153.919 -1.64613 0.56992 0
M  V30 1590 C 151.051 -3.18284 1.22098 0
M  V30 1591 H 152.244 -1.80658 2.3938 0
M  V30 1592 H 149.797 -0.911329 1.26982 0
M  V30 1593 H 150.532 -3.23306 0.253672 0
M  V30 1594 H 150.317 -3.35843 2.02366 0
M  V30 1595 H 151.807 -3.98289 1.25522 0
M  V30 1596 N 152.244 -1.26651 -0.937939 0
M  V30 1597 C 153.154 -1.10276 -2.07066 0
M  V30 1598 C 154.17 -0.0354197 -1.73964 0
M  V30 1599 O 155.346 -0.239816 -1.99967 0
M  V30 1600 C 152.411 -0.740887 -3.38691 0
M  V30 1601 C 151.472 -1.88799 -3.85556 0
M  V30 1602 C 150.705 -1.54329 -5.10899 0
M  V30 1603 O 150.928 -0.446494 -5.6865 0
M  V30 1604 O 149.862 -2.37911 -5.52885 0
M  V30 1605 H 153.688 -2.05309 -2.23789 0
M  V30 1606 H 151.273 -1.05743 -1.0554 0
M  V30 1607 H 153.155 -0.55195 -4.1777 0
M  V30 1608 H 151.83 0.180022 -3.23199 0
M  V30 1609 H 150.737 -2.13191 -3.07409 0
M  V30 1610 H 152.07 -2.78874 -4.05574 0
M  V30 1611 N 153.722 1.14298 -1.08507 0
M  V30 1612 C 154.95 1.89219 -0.836876 0
M  V30 1613 C 155.365 1.78638 0.611054 0
M  V30 1614 O 154.722 1.14643 1.41998 0
M  V30 1615 C 154.773 3.39158 -1.25116 0
M  V30 1616 O 154.494 3.49449 -2.64229 0
M  V30 1617 C 155.995 4.31073 -1.03398 0
M  V30 1618 H 153.215 0.599328 -0.301739 0
M  V30 1619 H 155.759 1.44746 -1.44461 0
M  V30 1620 H 153.914 3.81251 -0.687514 0
M  V30 1621 H 154.328 4.42589 -2.81452 0
M  V30 1622 H 155.802 5.34646 -1.37323 0
M  V30 1623 H 156.279 4.3919 0.0289259 0
M  V30 1624 H 156.885 3.94738 -1.58311 0
M  V30 1625 N 155.201 0.870884 1.31352 0
M  V30 1626 C 156.478 0.402907 1.91405 0
M  V30 1627 C 156.858 -1.11512 1.79244 0
M  V30 1628 O 156.206 -1.94411 1.2007 0
M  V30 1629 C 156.416 0.885301 3.37585 0
M  V30 1630 C 157.764 0.911971 4.14691 0
M  V30 1631 O 158.788 0.831016 3.46371 0
M  V30 1632 O 157.647 1.02927 5.3672 0
M  V30 1633 H 154.741 0.120698 0.818145 0
M  V30 1634 H 157.287 0.958857 1.40014 0
M  V30 1635 H 156.059 1.92889 3.40455 0
M  V30 1636 H 155.682 0.307714 3.96407 0
M  V30 1637 N 156.679 -1.44442 0.630414 0
M  V30 1638 C 157.589 -2.34476 -0.0761693 0
M  V30 1639 C 158.605 -1.52576 -0.836449 0
M  V30 1640 O 159.781 -1.85307 -0.788874 0
M  V30 1641 C 156.846 -3.30545 -1.04599 0
M  V30 1642 C 155.907 -4.28352 -0.28516 0
M  V30 1643 C 155.14 -5.19831 -1.20878 0
M  V30 1644 O 155.363 -5.15223 -2.44747 0
M  V30 1645 O 154.297 -5.97892 -0.693491 0
M  V30 1646 H 158.123 -2.96345 0.664324 0
M  V30 1647 H 155.708 -1.44203 0.39061 0
M  V30 1648 H 157.59 -3.89681 -1.60396 0
M  V30 1649 H 156.265 -2.7121 -1.76711 0
M  V30 1650 H 155.172 -3.72764 0.315837 0
M  V30 1651 H 156.505 -4.90605 0.395924 0
M  V30 1652 N 158.157 -0.370918 -1.53173 0
M  V30 1653 C 159.385 0.217704 -2.05751 0
M  V30 1654 C 159.8 1.42018 -1.24404 0
M  V30 1655 O 159.157 1.80245 -0.286033 0
M  V30 1656 C 159.208 0.605954 -3.56385 0
M  V30 1657 O 158.929 -0.548734 -4.3465 0
M  V30 1658 C 160.43 1.2524 -4.25241 0
M  V30 1659 H 157.65 0.0371659 -0.66997 0
M  V30 1660 H 160.194 -0.530832 -1.9749 0
M  V30 1661 H 158.349 1.3044 -3.6478 0
M  V30 1662 H 158.763 -0.23376 -5.23979 0
M  V30 1663 H 160.237 1.47458 -5.3194 0
M  V30 1664 H 160.714 2.2143 -3.79296 0
M  V30 1665 H 161.32 0.595233 -4.21114 0
M  V30 1666 N 159.635 1.57281 -0.100228 0
M  V30 1667 C 160.881 1.94826 0.563101 0
M  V30 1668 C 161.214 0.982475 1.67514 0
M  V30 1669 O 160.489 0.0164069 1.94493 0
M  V30 1670 C 160.772 3.42453 1.11346 0
M  V30 1671 C 160.625 4.498 0.00612081 0
M  V30 1672 C 161.944 3.91506 2.01024 0
M  V30 1673 H 159.063 0.708428 0.203221 0
M  V30 1674 H 161.705 1.8922 -0.171979 0
M  V30 1675 H 159.855 3.47361 1.7399 0
M  V30 1676 H 161.527 4.57 -0.628357 0
M  V30 1677 H 159.77 4.28756 -0.659581 0
M  V30 1678 H 160.441 5.50306 0.432109 0
M  V30 1679 H 162.917 3.88784 1.48278 0
M  V30 1680 H 161.793 4.95358 2.36457 0
M  V30 1681 H 162.054 3.31099 2.92961 0
M  V30 1682 N 161.113 -0.173488 1.56642 0
M  V30 1683 C 162.061 -1.23417 1.97157 0
M  V30 1684 C 163.055 -1.45946 0.860013 0
M  V30 1685 O 164.261 -1.46551 1.04512 0
M  V30 1686 H 160.636 -0.414818 0.62724 0
M  V30 1687 H 162.607 -0.865582 2.8557 0
M  V30 1688 C 161.356 -2.5665 2.34576 0
M  V30 1689 H 160.679 -2.40137 3.19647 0
M  V30 1690 H 162.119 -3.2956 2.6677 0
M  V30 1691 C 160.578 -3.15245 1.18836 0
M  V30 1692 O 161.108 -3.98883 0.474869 0
M  V30 1693 N 159.314 -2.74303 0.959497 0
M  V30 1694 H 158.861 -2.0639 1.54146 0
M  V30 1695 H 158.819 -3.13844 0.186932 0
M  V30 1696 N 162.591 -1.51276 -0.441967 0
M  V30 1697 C 163.538 -1.72256 -1.53612 0
M  V30 1698 C 164.508 -0.564164 -1.56225 0
M  V30 1699 O 165.693 -0.798074 -1.73307 0
M  V30 1700 C 162.833 -1.84932 -2.91366 0
M  V30 1701 C 161.946 -3.12459 -2.98317 0
M  V30 1702 C 161.081 -3.15758 -4.27166 0
M  V30 1703 C 160.12 -4.37619 -4.27967 0
M  V30 1704 N 159.257 -4.38493 -5.48333 0
M  V30 1705 H 164.097 -2.65654 -1.35026 0
M  V30 1706 H 161.634 -1.31662 -0.656009 0
M  V30 1707 H 163.592 -1.90263 -3.7129 0
M  V30 1708 H 162.222 -0.949461 -3.08521 0
M  V30 1709 H 161.274 -3.1646 -2.11086 0
M  V30 1710 H 162.586 -4.02382 -2.94771 0
M  V30 1711 H 161.74 -3.19979 -5.15459 0
M  V30 1712 H 160.479 -2.23715 -4.33362 0
M  V30 1713 H 159.484 -4.33579 -3.38067 0
M  V30 1714 H 160.709 -5.30921 -4.23438 0
M  V30 1715 H 158.655 -3.49318 -5.55259 0
M  V30 1716 H 158.572 -5.22219 -5.46647 0
M  V30 1717 H 159.84 -4.469 -6.38671 0
M  V30 1718 N 164.069 0.697108 -1.41344 0
M  V30 1719 C 165.016 1.81106 -1.43071 0
M  V30 1720 C 165.986 1.63632 -0.285275 0
M  V30 1721 O 167.171 1.84504 -0.486091 0
M  V30 1722 C 164.311 3.18975 -1.31715 0
M  V30 1723 C 163.424 3.47892 -2.56115 0
M  V30 1724 C 162.559 4.75367 -2.37064 0
M  V30 1725 C 161.598 4.97247 -3.56948 0
M  V30 1726 N 160.735 6.15947 -3.36977 0
M  V30 1727 H 165.575 1.78965 -2.38276 0
M  V30 1728 H 163.112 0.873975 -1.18322 0
M  V30 1729 H 165.07 3.98615 -1.23133 0
M  V30 1730 H 163.7 3.20297 -0.401183 0
M  V30 1731 H 162.752 2.62669 -2.75153 0
M  V30 1732 H 164.064 3.59962 -3.45295 0
M  V30 1733 H 163.218 5.63059 -2.25941 0
M  V30 1734 H 161.957 4.65541 -1.45338 0
M  V30 1735 H 160.962 4.08004 -3.68527 0
M  V30 1736 H 162.187 5.08934 -4.49626 0
M  V30 1737 H 160.133 6.07336 -2.47949 0
M  V30 1738 H 160.05 6.28777 -4.19732 0
M  V30 1739 H 161.318 7.06377 -3.29623 0
M  V30 1740 N 165.547 1.27147 0.931209 0
M  V30 1741 C 166.793 1.13446 1.68101 0
M  V30 1742 C 167.126 -0.319628 1.91552 0
M  V30 1743 O 166.401 -1.23407 1.50336 0
M  V30 1744 C 166.684 1.91482 3.0497 0
M  V30 1745 C 166.537 3.44855 2.88782 0
M  V30 1746 C 167.856 1.71651 4.05246 0
M  V30 1747 H 164.975 0.413498 0.610072 0
M  V30 1748 H 167.617 1.56261 1.08086 0
M  V30 1749 H 165.767 1.55095 3.56199 0
M  V30 1750 H 167.439 3.9105 2.44698 0
M  V30 1751 H 165.682 3.71373 2.24198 0
M  V30 1752 H 166.353 3.94694 3.85902 0
M  V30 1753 H 168.829 2.0337 3.63015 0
M  V30 1754 H 167.705 2.28651 4.99009 0
M  V30 1755 H 167.966 0.663555 4.37092 0
M  V30 1756 N 167.025 -1.13721 1.09112 0
M  V30 1757 C 167.955 -2.21148 0.749385 0
M  V30 1758 C 168.936 -1.6792 -0.271475 0
M  V30 1759 O 170.121 -1.93693 -0.140251 0
M  V30 1760 C 167.251 -3.46905 0.165659 0
M  V30 1761 C 166.205 -4.13203 1.11567 0
M  V30 1762 C 165.531 -5.33248 0.393809 0
M  V30 1763 C 166.831 -4.60912 2.45678 0
M  V30 1764 H 168.525 -2.4999 1.64758 0
M  V30 1765 H 166.071 -1.20156 0.793626 0
M  V30 1766 H 168.024 -4.21313 -0.085466 0
M  V30 1767 H 166.748 -3.17449 -0.767714 0
M  V30 1768 H 165.407 -3.40758 1.35202 0
M  V30 1769 H 165.055 -5.00054 -0.543599 0
M  V30 1770 H 164.755 -5.78552 1.02721 0
M  V30 1771 H 166.279 -6.10413 0.150908 0
M  V30 1772 H 167.693 -5.26759 2.26269 0
M  V30 1773 H 166.09 -5.16944 3.04776 0
M  V30 1774 H 167.16 -3.75603 3.06677 0
M  V30 1775 N 168.503 -0.877838 -1.30888 0
M  V30 1776 C 169.466 -0.344265 -2.266 0
M  V30 1777 C 170.466 0.50922 -1.52524 0
M  V30 1778 O 171.656 0.317398 -1.71284 0
M  V30 1779 C 168.788 0.510198 -3.37061 0
M  V30 1780 H 169.981 -1.1893 -2.7531 0
M  V30 1781 H 167.534 -0.654088 -1.41956 0
M  V30 1782 H 168.269 1.37612 -2.93655 0
M  V30 1783 H 168.054 -0.101047 -3.9197 0
M  V30 1784 H 169.544 0.875537 -4.08319 0
M  V30 1785 N 169.982 1.44106 -0.638065 0
M  V30 1786 C 170.945 2.29138 0.0531013 0
M  V30 1787 C 171.945 1.41409 0.765506 0
M  V30 1788 O 173.135 1.63206 0.609046 0
M  V30 1789 C 170.267 3.23144 1.08584 0
M  V30 1790 H 171.46 2.91739 -0.694883 0
M  V30 1791 H 169.013 1.51134 -0.398538 0
M  V30 1792 H 169.748 2.65408 1.86357 0
M  V30 1793 H 169.533 3.87804 0.578852 0
M  V30 1794 H 171.023 3.87004 1.56899 0
M  V30 1795 N 171.46 0.379036 1.52974 0
M  V30 1796 C 172.707 -0.206421 2.01445 0
M  V30 1797 C 173.035 -1.47668 1.26587 0
M  V30 1798 O 172.29 -1.92514 0.351675 0
M  V30 1799 C 172.589 -0.53096 3.53434 0
M  V30 1800 C 172.255 0.646546 4.46241 0
M  V30 1801 C 170.917 0.969604 4.7133 0
M  V30 1802 C 173.269 1.43479 5.01062 0
M  V30 1803 C 170.597 2.08263 5.48492 0
M  V30 1804 C 172.949 2.53834 5.7944 0
M  V30 1805 C 171.613 2.86659 6.02812 0
M  V30 1806 H 170.883 -0.0755349 0.73714 0
M  V30 1807 H 173.53 0.514271 1.84465 0
M  V30 1808 H 171.835 -1.33285 3.68432 0
M  V30 1809 H 173.532 -0.996417 3.88423 0
M  V30 1810 H 170.122 0.384734 4.2687 0
M  V30 1811 H 174.306 1.19844 4.81613 0
M  V30 1812 H 169.562 2.34078 5.64816 0
M  V30 1813 H 173.736 3.15319 6.20924 0
M  V30 1814 H 171.363 3.73026 6.62387 0
M  V30 1815 N 172.938 -1.57226 0.108567 0
M  V30 1816 C 174.166 -1.99179 -0.559954 0
M  V30 1817 C 174.581 -0.988022 -1.60884 0
M  V30 1818 O 173.938 0.0205512 -1.82488 0
M  V30 1819 C 173.989 -3.41159 -1.19552 0
M  V30 1820 O 173.71 -4.37694 -0.188577 0
M  V30 1821 C 175.211 -3.98188 -1.94837 0
M  V30 1822 H 172.431 -0.654228 -0.149088 0
M  V30 1823 H 174.975 -2.03598 0.19183 0
M  V30 1824 H 173.13 -3.37711 -1.89815 0
M  V30 1825 H 173.544 -5.20469 -0.649014 0
M  V30 1826 H 175.018 -4.99644 -2.34648 0
M  V30 1827 H 175.495 -3.3675 -2.81951 0
M  V30 1828 H 176.101 -4.0515 -1.2936 0
M  V30 1829 N 174.416 0.165178 -1.56732 0
M  V30 1830 C 175.832 0.517174 -1.50988 0
M  V30 1831 C 176.032 1.84331 -0.813894 0
M  V30 1832 O 175.088 2.49672 -0.37682 0
M  V30 1833 C 176.401 0.544261 -2.95733 0
M  V30 1834 C 177.949 0.631039 -3.06573 0
M  V30 1835 C 178.424 0.68896 -4.52788 0
M  V30 1836 N 179.915 0.751683 -4.5706 0
M  V30 1837 C 180.65 0.817177 -5.67547 0
M  V30 1838 N 180.146 0.843129 -6.8765 0
M  V30 1839 N 181.939 0.856668 -5.55534 0
M  V30 1840 H 174.09 -0.704318 -2.00382 0
M  V30 1841 H 176.353 -0.254687 -0.913148 0
M  V30 1842 H 176.059 -0.361607 -3.49836 0
M  V30 1843 H 175.933 1.3886 -3.5071 0
M  V30 1844 H 178.32 1.52733 -2.52501 0
M  V30 1845 H 178.401 -0.240095 -2.54671 0
M  V30 1846 H 178.045 -0.2031 -5.07494 0
M  V30 1847 H 177.975 1.57633 -5.02454 0
M  V30 1848 H 180.466 0.739661 -3.70591 0
M  V30 1849 H 180.779 0.894448 -7.67606 0
M  V30 1850 H 179.124 0.811304 -6.90248 0
M  V30 1851 H 182.315 0.833437 -4.60621 0
M  V30 1852 H 182.488 0.904247 -6.4166 0
M  V30 1853 N 175.894 1.51508 0.433938 0
M  V30 1854 C 177.142 1.6402 1.18075 0
M  V30 1855 C 177.463 0.360328 1.91642 0
M  V30 1856 O 176.733 -0.623945 1.85698 0
M  V30 1857 H 175.313 0.6045 0.43885 0
M  V30 1858 H 177.975 1.88452 0.497178 0
M  V30 1859 H 177.071 2.46949 1.90847 0
M  V30 1860 N 177.372 -0.689602 1.41712 0
M  V30 1861 C 178.302 -1.81577 1.46806 0
M  V30 1862 C 179.283 -1.66945 0.326105 0
M  V30 1863 O 180.468 -1.86588 0.538377 0
M  V30 1864 C 177.598 -3.19762 1.35535 0
M  V30 1865 C 176.552 -3.49107 2.47605 0
M  V30 1866 C 175.878 -4.86711 2.21397 0
M  V30 1867 C 177.178 -3.47483 3.89939 0
M  V30 1868 H 178.872 -1.7757 2.41058 0
M  V30 1869 H 176.418 -0.852887 1.16025 0
M  V30 1870 H 178.371 -3.98263 1.3771 0
M  V30 1871 H 177.095 -3.24409 0.377708 0
M  V30 1872 H 175.754 -2.72959 2.44722 0
M  V30 1873 H 175.402 -4.8799 1.21961 0
M  V30 1874 H 175.102 -5.0731 2.96497 0
M  V30 1875 H 176.626 -5.67515 2.25297 0
M  V30 1876 H 178.04 -4.1598 3.94505 0
M  V30 1877 H 176.437 -3.79615 4.64771 0
M  V30 1878 H 177.507 -2.46341 4.17665 0
M  V30 1879 N 178.85 -1.27639 -0.924453 0
M  V30 1880 C 180.099 -1.13549 -1.66702 0
M  V30 1881 C 180.412 0.317487 -1.93006 0
M  V30 1882 O 181.618 0.579333 -2.65247 0
M  V30 1883 C 180.074 -1.98426 -3.00259 0
M  V30 1884 C 179.682 -3.484 -2.81641 0
M  V30 1885 C 181.426 -1.92993 -3.78092 0
M  V30 1886 C 179.333 -4.25464 -4.10773 0
M  V30 1887 H 178.263 -0.421351 -0.625283 0
M  V30 1888 H 180.914 -1.52085 -1.02676 0
M  V30 1889 H 179.296 -1.52736 -3.6536 0
M  V30 1890 H 180.47 -4.01973 -2.25287 0
M  V30 1891 H 178.785 -3.55245 -2.17232 0
M  V30 1892 H 181.382 -2.47844 -4.7379 0
M  V30 1893 H 181.725 -0.904281 -4.0636 0
M  V30 1894 H 182.258 -2.36595 -3.19793 0
M  V30 1895 H 178.997 -5.28566 -3.87683 0
M  V30 1896 H 178.517 -3.76667 -4.66779 0
M  V30 1897 H 180.196 -4.34812 -4.79111 0
M  V30 1898 N 180.328 1.1314 -1.09713 0
M  V30 1899 C 181.739 1.66029 -0.853885 0
M  V30 1900 C 182.09 1.86241 0.617142 0
M  V30 1901 O 181.215 1.5834 1.47503 0
M  V30 1902 C 181.81 3.01599 -1.5435 0
M  V30 1903 C 180.369 3.51467 -1.34714 0
M  V30 1904 C 179.516 2.26648 -1.59769 0
M  V30 1905 H 182.467 0.970226 -1.25588 0
M  V30 1906 H 182.488 3.67709 -0.978267 0
M  V30 1907 H 182 2.86856 -2.6141 0
M  V30 1908 H 180.101 3.71408 -0.297838 0
M  V30 1909 H 180.214 4.314 -2.08401 0
M  V30 1910 H 178.578 2.33385 -1.01998 0
M  V30 1911 H 179.361 2.14467 -2.68065 0
M  V30 1912 N 181.806 0.884767 1.30421 0
M  V30 1913 C 183.055 0.499164 1.95426 0
M  V30 1914 C 183.368 -0.95645 1.70621 0
M  V30 1915 O 184.574 -1.44889 2.29607 0
M  V30 1916 C 183.03 0.84177 3.49917 0
M  V30 1917 C 182.638 2.31514 3.83543 0
M  V30 1918 C 184.382 0.525355 4.21237 0
M  V30 1919 C 182.289 2.59939 5.31212 0
M  V30 1920 H 181.219 0.182944 0.73147 0
M  V30 1921 H 183.87 1.07971 1.48373 0
M  V30 1922 H 182.252 0.190311 3.95542 0
M  V30 1923 H 183.426 3.0109 3.48829 0
M  V30 1924 H 181.741 2.59907 3.25326 0
M  V30 1925 H 184.338 0.714762 5.29901 0
M  V30 1926 H 184.681 -0.535222 4.12845 0
M  V30 1927 H 185.214 1.134 3.81294 0
M  V30 1928 H 181.953 3.64736 5.44654 0
M  V30 1929 H 181.473 1.94972 5.67227 0
M  V30 1930 H 183.152 2.45429 5.98643 0
M  V30 1931 N 183.284 -1.43765 0.645699 0
M  V30 1932 C 184.533 -2.01116 0.153412 0
M  V30 1933 C 184.846 -1.51493 -1.23731 0
M  V30 1934 O 186.052 -2.01067 -1.8244 0
M  V30 1935 C 184.508 -3.59206 0.223473 0
M  V30 1936 C 184.116 -4.17823 1.61642 0
M  V30 1937 C 185.86 -4.23972 -0.211597 0
M  V30 1938 C 183.767 -5.68183 1.64081 0
M  V30 1939 H 182.697 -0.752093 0.0535891 0
M  V30 1940 H 185.348 -1.6482 0.806633 0
M  V30 1941 H 183.73 -3.92867 -0.497118 0
M  V30 1942 H 184.904 -3.95674 2.36176 0
M  V30 1943 H 183.219 -3.65399 1.99681 0
M  V30 1944 H 185.816 -5.34275 -0.213112 0
M  V30 1945 H 186.159 -3.97352 -1.24165 0
M  V30 1946 H 186.692 -3.95166 0.456988 0
M  V30 1947 H 183.431 -5.99559 2.64971 0
M  V30 1948 H 182.951 -5.9241 0.938611 0
M  V30 1949 H 184.63 -6.32085 1.3812 0
M  V30 1950 N 184.763 -0.387143 -1.52771 0
M  V30 1951 C 186.003 0.195537 -2.03463 0
M  V30 1952 C 186.367 1.44222 -1.26744 0
M  V30 1953 O 187.568 2.10192 -1.67549 0
M  V30 1954 C 185.839 0.459097 -3.54439 0
M  V30 1955 S 187.398 1.01237 -4.26962 0
M  V30 1956 H 184.216 0.0552675 -0.708849 0
M  V30 1957 H 186.818 -0.534992 -1.88037 0
M  V30 1958 H 185.522 -0.455382 -4.07866 0
M  V30 1959 H 185.053 1.21811 -3.74066 0
M  V30 1960 H 187.068 2.29492 -4.39941 0
M  V30 1961 N 186.241 1.57166 -0.116904 0
M  V30 1962 C 187.481 1.97008 0.544715 0
M  V30 1963 C 187.845 0.998713 1.63981 0
M  V30 1964 O 189.046 1.28644 2.36018 0
M  V30 1965 C 187.317 3.41145 1.06559 0
M  V30 1966 S 188.876 4.02998 1.73603 0
M  V30 1967 H 185.694 0.688587 0.177112 0
M  V30 1968 H 188.296 1.94459 -0.201487 0
M  V30 1969 H 187 4.09592 0.257374 0
M  V30 1970 H 186.531 3.4734 1.84712 0
M  V30 1971 H 188.546 3.93585 3.02168 0
M  V30 1972 N 187.719 -0.156864 1.56817 0
M  V30 1973 C 188.967 -0.869404 1.82444 0
M  V30 1974 C 189.288 -1.82147 0.69623 0
M  V30 1975 O 188.558 -1.93847 -0.28287 0
M  V30 1976 H 187.138 -0.324043 0.673056 0
M  V30 1977 H 189.8 -0.153224 1.94297 0
M  V30 1978 H 188.896 -1.43761 2.77019 0
M  V30 1979 N 189.197 -1.51736 -0.425897 0
M  V30 1980 C 190.107 -1.76738 -1.54275 0
M  V30 1981 C 191.123 -0.65211 -1.61318 0
M  V30 1982 O 192.299 -0.935654 -1.78346 0
M  V30 1983 C 189.364 -1.89755 -2.90162 0
M  V30 1984 C 188.425 -3.13633 -2.93143 0
M  V30 1985 C 187.658 -3.2602 -4.22548 0
M  V30 1986 O 187.881 -2.44067 -5.15546 0
M  V30 1987 O 186.815 -4.19071 -4.32046 0
M  V30 1988 H 190.641 -2.71502 -1.36089 0
M  V30 1989 H 188.226 -1.36376 -0.610069 0
M  V30 1990 H 190.108 -2.00236 -3.70788 0
M  V30 1991 H 188.783 -0.981785 -3.08452 0
M  V30 1992 H 187.69 -3.08622 -2.11431 0
M  V30 1993 H 189.023 -4.04936 -2.798 0
M  V30 1994 N 190.675 0.682077 -1.42076 0
M  V30 1995 C 191.9 1.47558 -1.45744 0
M  V30 1996 C 192.325 1.87977 -0.0680981 0
M  V30 1997 O 191.683 1.55522 0.9318 0
M  V30 1998 C 191.731 2.70575 -2.38373 0
M  V30 1999 O 190.835 3.68573 -1.85007 0
M  V30 2000 H 190.176 0.443585 -0.494093 0
M  V30 2001 H 192.706 0.837238 -1.86686 0
M  V30 2002 H 192.716 3.18729 -2.54707 0
M  V30 2003 H 191.391 2.40495 -3.39315 0
M  V30 2004 H 189.968 3.2757 -1.78192 0
M  V30 2005 N 192.153 1.28127 0.917671 0
M  V30 2006 C 193.083 1.14248 2.03641 0
M  V30 2007 C 194.064 0.0412748 1.7005 0
M  V30 2008 O 195.249 0.217566 1.92977 0
M  V30 2009 C 192.379 0.799431 3.37974 0
M  V30 2010 C 191.333 1.85497 3.85713 0
M  V30 2011 C 190.659 1.36565 5.16966 0
M  V30 2012 C 191.959 3.26085 4.08002 0
M  V30 2013 H 193.653 2.07835 2.15511 0
M  V30 2014 H 191.199 1.00064 1.03553 0
M  V30 2015 H 193.152 0.689114 4.15727 0
M  V30 2016 H 191.876 -0.172145 3.26146 0
M  V30 2017 H 190.535 1.95437 3.10161 0
M  V30 2018 H 190.183 0.383253 5.01538 0
M  V30 2019 H 189.883 2.07143 5.49878 0
M  V30 2020 H 191.407 1.26848 5.97279 0
M  V30 2021 H 192.821 3.19089 4.76293 0
M  V30 2022 H 191.218 3.94462 4.52238 0
M  V30 2023 H 192.288 3.70394 3.12948 0
M  V30 2024 N 193.631 -1.12557 1.10312 0
M  V30 2025 C 194.541 -2.21841 0.763142 0
M  V30 2026 C 195.557 -1.72354 -0.238801 0
M  V30 2027 O 196.733 -2.01249 -0.0778746 0
M  V30 2028 C 193.798 -3.46131 0.198632 0
M  V30 2029 C 192.859 -4.10464 1.25769 0
M  V30 2030 C 192.092 -5.28821 0.72002 0
M  V30 2031 O 192.315 -5.6859 -0.453993 0
M  V30 2032 O 191.249 -5.83437 1.47935 0
M  V30 2033 H 195.075 -2.53312 1.67532 0
M  V30 2034 H 192.66 -1.20867 0.878157 0
M  V30 2035 H 194.542 -4.2125 -0.112401 0
M  V30 2036 H 193.217 -3.16338 -0.686419 0
M  V30 2037 H 192.124 -3.3713 1.62156 0
M  V30 2038 H 193.457 -4.44408 2.11571 0
M  V30 2039 N 195.109 -0.891671 -1.2995 0
M  V30 2040 C 196.019 -0.367691 -2.31701 0
M  V30 2041 C 197.035 0.533486 -1.6562 0
M  V30 2042 O 198.211 0.424997 -1.96865 0
M  V30 2043 C 195.276 0.403406 -3.44345 0
M  V30 2044 C 194.337 -0.528328 -4.26037 0
M  V30 2045 C 193.57 0.206063 -5.33302 0
M  V30 2046 O 193.793 1.43119 -5.52153 0
M  V30 2047 O 192.727 -0.447281 -6.00236 0
M  V30 2048 H 196.553 -1.21163 -2.78484 0
M  V30 2049 H 194.138 -0.655725 -1.34241 0
M  V30 2050 H 196.02 0.839753 -4.12948 0
M  V30 2051 H 194.695 1.22354 -2.99685 0
M  V30 2052 H 193.602 -1.01362 -3.60106 0
M  V30 2053 H 194.935 -1.31465 -4.74318 0
M  V30 2054 N 196.587 1.43421 -0.653314 0
M  V30 2055 C 198.003 1.56341 -0.320886 0
M  V30 2056 C 198.203 1.63696 1.17499 0
M  V30 2057 O 197.259 1.59208 1.95982 0
M  V30 2058 C 198.572 2.82424 -1.03233 0
M  V30 2059 C 200.12 2.96168 -1.01259 0
M  V30 2060 C 200.595 4.25084 -1.70492 0
M  V30 2061 N 202.086 4.31948 -1.67257 0
M  V30 2062 C 202.821 5.30466 -2.17701 0
M  V30 2063 N 202.317 6.35261 -2.76434 0
M  V30 2064 N 204.11 5.2212 -2.082 0
M  V30 2065 H 196.261 1.3689 -1.62403 0
M  V30 2066 H 198.524 0.657455 -0.682977 0
M  V30 2067 H 198.23 2.83053 -2.08744 0
M  V30 2068 H 198.104 3.72653 -0.583948 0
M  V30 2069 H 200.491 2.9508 0.0341235 0
M  V30 2070 H 200.572 2.07229 -1.49966 0
M  V30 2071 H 200.216 4.26932 -2.7512 0
M  V30 2072 H 200.146 5.1292 -1.19251 0
M  V30 2073 H 202.637 3.56838 -1.24398 0
M  V30 2074 H 202.95 7.06754 -3.12601 0
M  V30 2075 H 201.295 6.35884 -2.80495 0
M  V30 2076 H 204.486 4.39166 -1.62021 0
M  V30 2077 H 204.659 5.98739 -2.47822 0
M  V30 2078 N 198.065 0.39524 1.52563 0
M  V30 2079 C 198.975 -0.444232 2.30356 0
M  V30 2080 C 199.991 -1.06615 1.37511 0
M  V30 2081 O 201.167 -1.07067 1.70583 0
M  V30 2082 C 198.232 -1.55315 3.09964 0
M  V30 2083 C 197.293 -0.955734 4.18526 0
M  V30 2084 C 196.526 -2.01181 4.9433 0
M  V30 2085 O 196.749 -3.22781 4.70285 0
M  V30 2086 O 195.683 -1.62579 5.79527 0
M  V30 2087 H 199.509 0.189667 3.03107 0
M  V30 2088 H 197.094 0.1588 1.48554 0
M  V30 2089 H 198.976 -2.19724 3.59582 0
M  V30 2090 H 197.651 -2.17191 2.4002 0
M  V30 2091 H 196.558 -0.274743 3.7309 0
M  V30 2092 H 197.891 -0.381109 4.90722 0
M  V30 2093 N 199.544 -1.57102 0.125237 0
M  V30 2094 C 200.507 -2.14471 -0.80838 0
M  V30 2095 C 201.507 -1.0811 -1.19033 0
M  V30 2096 O 202.697 -1.33856 -1.11482 0
M  V30 2097 C 199.829 -2.69005 -2.09402 0
M  V30 2098 H 201.022 -2.98297 -0.309696 0
M  V30 2099 H 198.575 -1.55807 -0.124051 0
M  V30 2100 H 199.31 -1.88785 -2.63687 0
M  V30 2101 H 199.095 -3.46799 -1.82957 0
M  V30 2102 H 200.585 -3.13278 -2.76128 0
M  V30 2103 N 201.022 0.148545 -1.56898 0
M  V30 2104 C 202.27 0.859717 -1.82902 0
M  V30 2105 C 202.591 1.81775 -0.70588 0
M  V30 2106 O 201.861 1.93994 0.272586 0
M  V30 2107 H 200.441 0.320469 -0.674766 0
M  V30 2108 H 203.103 0.142918 -1.94375 0
M  V30 2109 H 202.199 1.4229 -2.77777 0
M  V30 2110 N 202.5 1.5196 0.417844 0
M  V30 2111 C 203.432 1.70895 1.52733 0
M  V30 2112 C 204.445 0.589405 1.51756 0
M  V30 2113 O 205.634 0.864312 1.56179 0
M  V30 2114 C 202.734 1.72627 2.91639 0
M  V30 2115 C 201.907 3.01479 3.16905 0
M  V30 2116 C 200.966 2.95139 4.35637 0
M  V30 2117 O 199.992 3.69059 4.3334 0
M  V30 2118 N 201.194 2.12328 5.40275 0
M  V30 2119 H 203.959 2.66612 1.36888 0
M  V30 2120 H 201.52 1.50089 0.607037 0
M  V30 2121 H 203.512 1.65928 3.6912 0
M  V30 2122 H 202.082 0.844216 3.00985 0
M  V30 2123 H 201.302 3.21895 2.27546 0
M  V30 2124 H 202.59 3.86736 3.30625 0
M  V30 2125 H 201.988 1.51685 5.44985 0
M  V30 2126 H 200.545 2.11494 6.16534 0
M  V30 2127 N 203.978 -0.674533 1.42435 0
M  V30 2128 C 205.206 -1.46283 1.46317 0
M  V30 2129 C 205.621 -1.88653 0.0745836 0
M  V30 2130 O 204.978 -1.58151 -0.91074 0
M  V30 2131 C 205.029 -2.71178 2.3905 0
M  V30 2132 O 204.75 -2.30586 3.72507 0
M  V30 2133 C 206.251 -3.64738 2.51955 0
M  V30 2134 H 203.471 -0.450104 0.497642 0
M  V30 2135 H 206.015 -0.828792 1.86953 0
M  V30 2136 H 204.17 -3.3077 2.01667 0
M  V30 2137 H 204.584 -3.11241 4.22172 0
M  V30 2138 H 206.058 -4.49096 3.20962 0
M  V30 2139 H 206.535 -4.10656 1.55752 0
M  V30 2140 H 207.141 -3.11038 2.90061 0
M  V30 2141 N 205.456 -1.28612 -0.910864 0
M  V30 2142 C 206.404 -1.1265 -2.03501 0
M  V30 2143 C 207.398 -0.0450054 -1.6934 0
M  V30 2144 O 208.604 -0.203988 -1.7884 0
M  V30 2145 H 204.979 -0.347639 -0.666822 0
M  V30 2146 H 206.95 -2.07849 -2.14106 0
M  V30 2147 C 205.699 -0.808143 -3.38178 0
M  V30 2148 H 205.022 -1.63231 -3.6496 0
M  V30 2149 H 206.462 -0.736426 -4.17556 0
M  V30 2150 C 204.921 0.488226 -3.33344 0
M  V30 2151 O 205.451 1.51766 -3.71927 0
M  V30 2152 N 203.657 0.490009 -2.86439 0
M  V30 2153 H 203.204 -0.348161 -2.55236 0
M  V30 2154 H 203.162 1.35741 -2.83587 0
M  V30 2155 N 206.934 1.1197 -1.10907 0
M  V30 2156 C 207.897 2.16031 -0.765707 0
M  V30 2157 C 208.897 1.59393 0.212235 0
M  V30 2158 O 210.087 1.74196 -0.0115441 0
M  V30 2159 C 207.219 3.40632 -0.135053 0
M  V30 2160 H 208.412 2.47919 -1.68748 0
M  V30 2161 H 205.965 1.27061 -0.910226 0
M  V30 2162 H 206.7 3.14348 0.797218 0
M  V30 2163 H 206.485 3.8302 -0.838937 0
M  V30 2164 H 207.975 4.17505 0.0892469 0
M  V30 2165 N 208.412 0.89855 1.29475 0
M  V30 2166 C 209.658 0.524658 1.95896 0
M  V30 2167 C 209.991 -0.926468 1.70676 0
M  V30 2168 O 209.266 -1.65665 1.01908 0
M  V30 2169 C 209.549 0.81633 3.50725 0
M  V30 2170 C 209.402 2.31907 3.85408 0
M  V30 2171 C 210.721 0.302038 4.39062 0
M  V30 2172 H 207.84 0.19209 0.711527 0
M  V30 2173 H 210.482 1.12502 1.53112 0
M  V30 2174 H 208.632 0.305369 3.87298 0
M  V30 2175 H 210.304 2.89949 3.58786 0
M  V30 2176 H 208.547 2.78027 3.32992 0
M  V30 2177 H 209.218 2.47373 4.93468 0
M  V30 2178 H 211.694 0.739551 4.09475 0
M  V30 2179 H 210.57 0.535331 5.46283 0
M  V30 2180 H 210.831 -0.797216 4.34853 0
M  V30 2181 N 209.89 -1.43072 0.660911 0
M  V30 2182 C 211.136 -2.0202 0.177708 0
M  V30 2183 C 211.469 -1.52066 -1.20787 0
M  V30 2184 O 210.744 -0.716987 -1.80802 0
M  V30 2185 C 211.027 -3.59561 0.197019 0
M  V30 2186 C 210.88 -4.19727 1.61706 0
M  V30 2187 C 212.199 -4.37664 -0.462396 0
M  V30 2188 H 209.318 -0.734034 0.0660494 0
M  V30 2189 H 211.96 -1.70272 0.843058 0
M  V30 2190 H 210.11 -3.86739 -0.369527 0
M  V30 2191 H 211.782 -4.03553 2.23479 0
M  V30 2192 H 210.025 -3.76084 2.16201 0
M  V30 2193 H 210.696 -5.28834 1.58237 0
M  V30 2194 H 213.172 -4.16095 0.0197215 0
M  V30 2195 H 212.048 -5.47305 -0.418188 0
M  V30 2196 H 212.309 -4.14493 -1.53778 0
M  V30 2197 N 211.368 -0.403325 -1.52352 0
M  V30 2198 C 212.331 0.413051 -2.25447 0
M  V30 2199 C 213.331 0.978513 -1.276 0
M  V30 2200 O 214.521 0.858305 -1.51587 0
M  V30 2201 C 211.653 1.58087 -3.02029 0
M  V30 2202 H 212.846 -0.227094 -2.99039 0
M  V30 2203 H 210.399 -0.155722 -1.55522 0
M  V30 2204 H 211.134 2.25804 -2.32772 0
M  V30 2205 H 210.919 1.18195 -3.73861 0
M  V30 2206 H 212.409 2.1585 -3.57489 0
M  V30 2207 N 212.846 1.57033 -0.133567 0
M  V30 2208 C 214.071 2.00475 0.531477 0
M  V30 2209 C 214.496 1.01291 1.58499 0
M  V30 2210 O 213.854 -0.0133279 1.81295 0
M  V30 2211 C 213.902 3.42729 1.12113 0
M  V30 2212 O 213.006 3.46498 2.23636 0
M  V30 2213 H 212.347 0.650876 0.131362 0
M  V30 2214 H 214.877 2.03344 -0.22634 0
M  V30 2215 H 214.887 3.81246 1.4531 0
M  V30 2216 H 213.562 4.14428 0.349557 0
M  V30 2217 H 212.139 3.19811 1.91769 0
M  V30 2218 N 214.325 -0.140222 1.56975 0
M  V30 2219 C 215.257 -1.19818 1.95388 0
M  V30 2220 C 216.27 -1.38816 0.850525 0
M  V30 2221 O 217.459 -1.38267 1.12891 0
M  V30 2222 C 214.559 -2.56189 2.21857 0
M  V30 2223 C 213.732 -2.58077 3.5315 0
M  V30 2224 C 212.791 -3.76037 3.6808 0
M  V30 2225 O 211.817 -3.60598 4.40406 0
M  V30 2226 N 213.019 -4.93763 3.05251 0
M  V30 2227 H 215.784 -0.871609 2.86746 0
M  V30 2228 H 213.345 -0.32972 1.58507 0
M  V30 2229 H 215.337 -3.33623 2.2908 0
M  V30 2230 H 213.907 -2.81111 1.36731 0
M  V30 2231 H 213.127 -1.6651 3.57307 0
M  V30 2232 H 214.415 -2.56377 4.39486 0
M  V30 2233 H 213.813 -5.09209 2.46419 0
M  V30 2234 H 212.37 -5.68949 3.18026 0
M  V30 2235 N 215.803 -1.52179 -0.40978 0
M  V30 2236 C 217.049 -1.66453 -1.15851 0
M  V30 2237 C 217.382 -0.392972 -1.90182 0
M  V30 2238 O 216.657 0.608579 -1.84734 0
M  V30 2239 C 216.94 -2.88612 -2.15349 0
M  V30 2240 C 216.793 -4.25815 -1.44918 0
M  V30 2241 C 218.112 -3.06294 -3.16026 0
M  V30 2242 H 215.231 -0.60575 -0.419805 0
M  V30 2243 H 217.873 -1.84732 -0.444314 0
M  V30 2244 H 216.023 -2.73158 -2.76255 0
M  V30 2245 H 217.695 -4.52995 -0.871365 0
M  V30 2246 H 215.938 -4.27247 -0.751159 0
M  V30 2247 H 216.609 -5.07337 -2.17516 0
M  V30 2248 H 219.085 -3.20641 -2.65195 0
M  V30 2249 H 217.961 -3.93283 -3.8291 0
M  V30 2250 H 218.222 -2.19579 -3.83715 0
M  V30 2251 N 217.281 0.66697 -1.42791 0
M  V30 2252 C 218.191 1.80962 -1.49299 0
M  V30 2253 C 219.207 1.69775 -0.381108 0
M  V30 2254 O 220.383 1.91188 -0.633188 0
M  V30 2255 C 217.448 3.17156 -1.40045 0
M  V30 2256 C 216.509 3.40242 -2.6179 0
M  V30 2257 C 215.742 4.69939 -2.52969 0
M  V30 2258 O 215.965 5.48372 -1.56985 0
M  V30 2259 O 214.899 4.94441 -3.43237 0
M  V30 2260 H 218.725 1.78427 -2.45759 0
M  V30 2261 H 216.31 0.823713 -1.24641 0
M  V30 2262 H 218.192 3.98413 -1.37276 0
M  V30 2263 H 216.867 3.20312 -0.467138 0
M  V30 2264 H 215.774 2.58802 -2.70134 0
M  V30 2265 H 217.107 3.41923 -3.54047 0
M  V30 2266 N 218.759 1.29093 0.90403 0
M  V30 2267 C 219.706 1.13853 2.00764 0
M  V30 2268 C 220.676 0.0330084 1.66067 0
M  V30 2269 O 221.861 0.199733 1.89752 0
M  V30 2270 C 219.001 0.816537 3.35301 0
M  V30 2271 C 218.114 2.00206 3.82807 0
M  V30 2272 C 217.249 1.61983 5.059 0
M  V30 2273 C 216.288 2.77143 5.45764 0
M  V30 2274 N 215.425 2.39346 6.60044 0
M  V30 2275 H 220.265 2.08276 2.13132 0
M  V30 2276 H 217.802 1.03648 1.04381 0
M  V30 2277 H 219.76 0.610557 4.12708 0
M  V30 2278 H 218.39 -0.090779 3.22672 0
M  V30 2279 H 217.442 2.31988 3.01473 0
M  V30 2280 H 218.754 2.86512 4.08304 0
M  V30 2281 H 217.908 1.37649 5.90879 0
M  V30 2282 H 216.647 0.728202 4.82233 0
M  V30 2283 H 215.652 3.02165 4.59322 0
M  V30 2284 H 216.877 3.66964 5.71414 0
M  V30 2285 H 214.823 1.52665 6.37989 0
M  V30 2286 H 214.74 3.19185 6.85315 0
M  V30 2287 H 216.008 2.1832 7.48303 0
M  V30 2288 N 220.237 -1.11381 1.11499 0
M  V30 2289 C 221.2 -2.15622 0.777153 0
M  V30 2290 C 222.2 -1.59504 -0.203779 0
M  V30 2291 O 223.39 -1.74188 0.020782 0
M  V30 2292 C 220.522 -3.40556 0.153116 0
M  V30 2293 H 221.715 -2.47021 1.70061 0
M  V30 2294 H 219.268 -1.26577 0.916952 0
M  V30 2295 H 220.003 -3.14767 -0.780536 0
M  V30 2296 H 219.788 -3.8257 0.859238 0
M  V30 2297 H 221.278 -4.17546 -0.0671044 0
M  V30 2298 N 221.715 -0.905404 -1.28997 0
M  V30 2299 C 222.645 -0.404212 -2.29975 0
M  V30 2300 C 223.626 0.523784 -1.61835 0
M  V30 2301 O 224.811 0.433298 -1.89304 0
M  V30 2302 C 221.941 0.364042 -3.45387 0
M  V30 2303 C 220.895 -0.474048 -4.25367 0
M  V30 2304 C 220.221 0.422045 -5.33032 0
M  V30 2305 C 221.521 -1.72696 -4.92923 0
M  V30 2306 H 223.215 -1.24807 -2.72146 0
M  V30 2307 H 220.761 -0.601585 -1.30832 0
M  V30 2308 H 222.714 0.725447 -4.15109 0
M  V30 2309 H 221.438 1.24174 -3.02074 0
M  V30 2310 H 220.097 -0.81786 -3.57361 0
M  V30 2311 H 219.745 1.29804 -4.85963 0
M  V30 2312 H 219.445 -0.135057 -5.87445 0
M  V30 2313 H 220.969 0.779517 -6.05604 0
M  V30 2314 H 222.383 -1.43495 -5.55051 0
M  V30 2315 H 220.78 -2.22582 -5.57295 0
M  V30 2316 H 221.85 -2.45964 -4.17887 0
M  V30 2317 N 223.193 1.4272 -0.668489 0
M  V30 2318 C 224.156 2.292 0.00448567 0
M  V30 2319 C 225.156 1.43001 0.735339 0
M  V30 2320 O 226.346 1.64461 0.57429 0
M  V30 2321 C 223.478 3.25375 1.01705 0
M  V30 2322 H 224.671 2.90199 -0.756608 0
M  V30 2323 H 222.224 1.50254 -0.430506 0
M  V30 2324 H 222.959 2.69301 1.80686 0
M  V30 2325 H 222.744 3.88944 0.496463 0
M  V30 2326 H 224.234 3.90245 1.48655 0
M  V30 2327 N 224.671 0.411399 1.52136 0
M  V30 2328 C 225.919 -0.163322 2.01439 0
M  V30 2329 C 226.24 -1.45453 1.29879 0
M  V30 2330 O 225.51 -1.91225 0.4254 0
M  V30 2331 H 224.09 -0.0633447 0.744309 0
M  V30 2332 H 226.752 0.548161 1.87033 0
M  V30 2333 H 225.848 -0.357817 3.10042 0
M  V30 2334 N 226.149 -1.5696 0.141893 0
M  V30 2335 C 227.079 -2.19516 -0.795936 0
M  V30 2336 C 228.06 -1.14187 -1.26077 0
M  V30 2337 O 229.245 -1.42511 -1.31925 0
M  V30 2338 C 226.375 -2.81272 -2.03723 0
M  V30 2339 C 225.329 -3.92384 -1.70936 0
M  V30 2340 C 224.655 -4.41052 -3.02287 0
M  V30 2341 C 225.955 -5.13403 -0.959954 0
M  V30 2342 H 227.649 -2.98138 -0.274596 0
M  V30 2343 H 225.195 -1.43406 -0.130636 0
M  V30 2344 H 227.148 -3.237 -2.69808 0
M  V30 2345 H 225.872 -1.99973 -2.58221 0
M  V30 2346 H 224.531 -3.50566 -1.07232 0
M  V30 2347 H 224.179 -3.56582 -3.54765 0
M  V30 2348 H 223.879 -5.15993 -2.81114 0
M  V30 2349 H 225.403 -4.86146 -3.69451 0
M  V30 2350 H 226.817 -5.52706 -1.52279 0
M  V30 2351 H 225.214 -5.94073 -0.848357 0
M  V30 2352 H 226.284 -4.84875 0.0492434 0
M  V30 2353 N 227.627 0.131896 -1.57047 0
M  V30 2354 C 228.855 0.856461 -1.88341 0
M  V30 2355 C 229.27 1.74042 -0.731757 0
M  V30 2356 O 228.627 1.80051 0.297945 0
M  V30 2357 C 228.678 1.70064 -3.18999 0
M  V30 2358 O 228.399 0.852278 -4.2973 0
M  V30 2359 C 229.9 2.53148 -3.63911 0
M  V30 2360 H 227.12 0.246885 -0.62393 0
M  V30 2361 H 229.664 0.120152 -2.04147 0
M  V30 2362 H 227.819 2.38984 -3.04902 0
M  V30 2363 H 228.233 1.43329 -5.04537 0
M  V30 2364 H 229.707 3.07931 -4.58129 0
M  V30 2365 H 230.184 3.29901 -2.89935 0
M  V30 2366 H 230.79 1.89492 -3.80753 0
M  V30 2367 N 229.106 1.52395 0.401703 0
M  V30 2368 C 230.517 1.58899 0.980202 0
M  V30 2369 C 230.868 0.434032 1.91339 0
M  V30 2370 O 229.993 -0.444619 2.11783 0
M  V30 2371 C 230.588 2.87994 1.78451 0
M  V30 2372 C 229.147 2.96953 2.31292 0
M  V30 2373 C 228.294 2.53903 1.11483 0
M  V30 2374 H 231.245 1.57657 0.18168 0
M  V30 2375 H 231.266 2.73765 2.64259 0
M  V30 2376 H 230.778 3.72035 1.10506 0
M  V30 2377 H 228.879 2.17422 3.02586 0
M  V30 2378 H 228.992 4.01344 2.61649 0
M  V30 2379 H 227.356 2.07925 1.47104 0
M  V30 2380 H 228.139 3.40326 0.450928 0
M  V30 2381 N 230.584 -0.659388 1.43143 0
M  V30 2382 C 231.494 -1.80167 1.50256 0
M  V30 2383 C 232.51 -1.69571 0.390106 0
M  V30 2384 O 233.686 -1.90849 0.643319 0
M  V30 2385 C 230.751 -3.16409 1.41725 0
M  V30 2386 C 229.812 -3.38848 2.63591 0
M  V30 2387 C 229.045 -4.68591 2.55458 0
M  V30 2388 O 229.268 -5.47532 1.59891 0
M  V30 2389 O 228.202 -4.92614 3.45854 0
M  V30 2390 H 232.028 -1.77121 2.46702 0
M  V30 2391 H 229.613 -0.817092 1.25076 0
M  V30 2392 H 231.495 -3.9768 1.39387 0
M  V30 2393 H 230.17 -3.20059 0.484118 0
M  V30 2394 H 229.077 -2.57366 2.71502 0
M  V30 2395 H 230.41 -3.4004 3.55856 0
M  V30 2396 N 232.062 -1.29571 -0.897171 0
M  V30 2397 C 232.994 -1.10724 -2.00681 0
M  V30 2398 C 234.007 -0.0540026 -1.6271 0
M  V30 2399 O 235.196 -0.298783 -1.75982 0
M  V30 2400 C 232.296 -0.663912 -3.32333 0
M  V30 2401 C 231.469 -1.79622 -3.98816 0
M  V30 2402 C 230.528 -1.34349 -5.0876 0
M  V30 2403 O 229.554 -2.04864 -5.31055 0
M  V30 2404 N 230.756 -0.215764 -5.80099 0
M  V30 2405 H 233.521 -2.06291 -2.17403 0
M  V30 2406 H 231.082 -1.21544 -1.06951 0
M  V30 2407 H 233.074 -0.344295 -4.03233 0
M  V30 2408 H 231.644 0.199375 -3.11964 0
M  V30 2409 H 230.864 -2.28459 -3.21248 0
M  V30 2410 H 232.152 -2.55535 -4.39976 0
M  V30 2411 H 231.55 0.372091 -5.64475 0
M  V30 2412 H 230.107 0.0444707 -6.51785 0
M  V30 2413 N 233.54 1.10788 -1.12088 0
M  V30 2414 C 234.786 1.82942 -0.875226 0
M  V30 2415 C 235.119 1.84779 0.597538 0
M  V30 2416 O 234.394 1.30578 1.44152 0
M  V30 2417 C 234.677 3.29789 -1.44606 0
M  V30 2418 C 234.53 3.36307 -2.98693 0
M  V30 2419 C 235.849 4.26064 -1.10261 0
M  V30 2420 H 232.968 0.664195 -0.319397 0
M  V30 2421 H 235.61 1.29867 -1.38689 0
M  V30 2422 H 233.76 3.75118 -1.01089 0
M  V30 2423 H 235.432 2.99487 -3.50864 0
M  V30 2424 H 233.675 2.76318 -3.34411 0
M  V30 2425 H 234.346 4.39694 -3.33726 0
M  V30 2426 H 236.822 3.88951 -1.4784 0
M  V30 2427 H 235.698 5.27183 -1.52869 0
M  V30 2428 H 235.959 4.42098 -0.0142953 0
M  V30 2429 N 235.018 0.912232 1.28515 0
M  V30 2430 C 235.965 0.397954 2.27343 0
M  V30 2431 C 236.935 -0.526766 1.57526 0
M  V30 2432 O 238.12 -0.449292 1.85435 0
M  V30 2433 C 235.26 -0.357263 3.43246 0
M  V30 2434 C 234.373 0.599788 4.27816 0
M  V30 2435 C 233.508 -0.173725 5.30916 0
M  V30 2436 C 232.547 0.777039 6.07148 0
M  V30 2437 N 231.684 0.0371398 7.0209 0
M  V30 2438 H 236.524 1.24577 2.70711 0
M  V30 2439 H 234.061 0.625612 1.33133 0
M  V30 2440 H 236.019 -0.8113 4.09236 0
M  V30 2441 H 234.649 -1.16943 3.00872 0
M  V30 2442 H 233.701 1.17235 3.61884 0
M  V30 2443 H 235.013 1.32704 4.80823 0
M  V30 2444 H 234.167 -0.688394 6.02782 0
M  V30 2445 H 232.906 -0.934041 4.78672 0
M  V30 2446 H 231.911 1.3031 5.34134 0
M  V30 2447 H 233.136 1.53689 6.61481 0
M  V30 2448 H 231.082 -0.705213 6.52198 0
M  V30 2449 H 230.999 0.704249 7.52713 0
M  V30 2450 H 232.267 -0.457383 7.78157 0
M  V30 2451 N 236.496 -1.42363 0.676048 0
M  V30 2452 C 237.428 -2.29164 -0.0404605 0
M  V30 2453 C 238.441 -1.43747 -0.764245 0
M  V30 2454 O 239.63 -1.67453 -0.618195 0
M  V30 2455 C 236.73 -3.21196 -1.08103 0
M  V30 2456 C 235.903 -4.35273 -0.430812 0
M  V30 2457 C 234.962 -5.08017 -1.37133 0
M  V30 2458 O 233.988 -5.62494 -0.87116 0
M  V30 2459 N 235.19 -5.13647 -2.70456 0
M  V30 2460 H 237.955 -2.91298 0.704667 0
M  V30 2461 H 235.516 -1.53303 0.520559 0
M  V30 2462 H 237.508 -3.66728 -1.71152 0
M  V30 2463 H 236.078 -2.60505 -1.72788 0
M  V30 2464 H 235.298 -3.92372 0.379209 0
M  V30 2465 H 236.586 -5.08795 0.0221132 0
M  V30 2466 H 235.984 -4.708 -3.1363 0
M  V30 2467 H 234.541 -5.62821 -3.28749 0
M  V30 2468 N 237.974 -0.419461 -1.51915 0
M  V30 2469 C 238.937 0.389116 -2.25873 0
M  V30 2470 C 239.937 0.964924 -1.28631 0
M  V30 2471 O 241.127 0.842179 -1.52489 0
M  V30 2472 C 238.259 1.54874 -3.03689 0
M  V30 2473 H 239.452 -0.258799 -2.98781 0
M  V30 2474 H 237.005 -0.172209 -1.55348 0
M  V30 2475 H 237.74 2.23323 -2.35154 0
M  V30 2476 H 237.525 1.14223 -3.75094 0
M  V30 2477 H 239.015 2.12046 -3.59759 0
M  V30 2478 N 239.452 1.56882 -0.150215 0
M  V30 2479 C 240.698 1.96518 0.500834 0
M  V30 2480 C 241.031 1.03527 1.64304 0
M  V30 2481 O 240.306 0.0782751 1.94342 0
M  V30 2482 C 240.589 3.45822 1.00395 0
M  V30 2483 C 240.442 4.49591 -0.136983 0
M  V30 2484 C 241.761 3.97704 1.88467 0
M  V30 2485 H 238.88 0.714535 0.18058 0
M  V30 2486 H 241.522 1.88577 -0.232091 0
M  V30 2487 H 239.672 3.5272 1.62851 0
M  V30 2488 H 241.344 4.5477 -0.77343 0
M  V30 2489 H 239.587 4.26441 -0.795652 0
M  V30 2490 H 240.258 5.51402 0.256815 0
M  V30 2491 H 242.734 3.93304 1.35834 0
M  V30 2492 H 241.61 5.0263 2.20578 0
M  V30 2493 H 241.871 3.40252 2.82279 0
M  V30 2494 N 240.93 -0.123565 1.57115 0
M  V30 2495 C 242.179 -0.830704 1.83799 0
M  V30 2496 C 242.492 -1.81259 0.735158 0
M  V30 2497 O 243.698 -2.56558 0.888278 0
M  V30 2498 C 242.154 -1.52802 3.25852 0
M  V30 2499 C 241.762 -0.587356 4.44133 0
M  V30 2500 C 243.506 -2.22056 3.61789 0
M  V30 2501 C 241.413 -1.28764 5.77212 0
M  V30 2502 H 240.343 -0.313967 0.685522 0
M  V30 2503 H 242.994 -0.0834359 1.8331 0
M  V30 2504 H 241.376 -2.32175 3.20797 0
M  V30 2505 H 242.55 0.172829 4.60476 0
M  V30 2506 H 240.865 -0.00201892 4.164 0
M  V30 2507 H 243.462 -2.75131 4.58483 0
M  V30 2508 H 243.805 -2.99644 2.88997 0
M  V30 2509 H 244.338 -1.49576 3.68608 0
M  V30 2510 H 241.077 -0.55314 6.53162 0
M  V30 2511 H 240.597 -2.01995 5.64764 0
M  V30 2512 H 242.276 -1.8221 6.20813 0
M  V30 2513 N 242.408 -1.52605 -0.393616 0
M  V30 2514 C 243.371 -1.76415 -1.46323 0
M  V30 2515 C 244.371 -0.634126 -1.47768 0
M  V30 2516 O 245.561 -0.902142 -1.4902 0
M  V30 2517 C 242.693 -1.8607 -2.85641 0
M  V30 2518 H 243.886 -2.71916 -1.26498 0
M  V30 2519 H 241.439 -1.43257 -0.625073 0
M  V30 2520 H 242.174 -0.925378 -3.10817 0
M  V30 2521 H 241.959 -2.68235 -2.85993 0
M  V30 2522 H 243.449 -2.06179 -3.63153 0
M  V30 2523 N 243.887 0.651787 -1.4349 0
M  V30 2524 C 245.117 1.43728 -1.48411 0
M  V30 2525 C 245.525 1.8893 -0.10103 0
M  V30 2526 O 244.868 1.60182 0.899307 0
M  V30 2527 C 244.93 2.70411 -2.36893 0
M  V30 2528 C 244.594 2.4714 -3.8441 0
M  V30 2529 C 245.591 2.10271 -4.75481 0
M  V30 2530 C 243.276 2.6142 -4.28912 0
M  V30 2531 C 245.27 1.87982 -6.0905 0
M  V30 2532 C 242.957 2.38746 -5.62533 0
M  V30 2533 C 243.955 2.02083 -6.5242 0
M  V30 2534 O 243.643 1.79647 -7.8357 0
M  V30 2535 H 243.375 0.447962 -0.506267 0
M  V30 2536 H 245.929 0.80624 -1.88915 0
M  V30 2537 H 244.159 3.36079 -1.91278 0
M  V30 2538 H 245.848 3.32364 -2.33 0
M  V30 2539 H 246.614 1.98814 -4.42378 0
M  V30 2540 H 242.493 2.88931 -3.59222 0
M  V30 2541 H 246.037 1.5929 -6.7917 0
M  V30 2542 H 241.934 2.49806 -5.95203 0
M  V30 2543 H 242.702 1.9406 -7.95162 0
M  V30 2544 N 245.365 1.30045 0.890287 0
M  V30 2545 C 246.275 1.17885 2.02831 0
M  V30 2546 C 247.291 0.0999609 1.73713 0
M  V30 2547 O 248.467 0.313867 1.98939 0
M  V30 2548 C 245.532 0.866079 3.35708 0
M  V30 2549 C 244.593 2.02979 3.78283 0
M  V30 2550 C 243.826 1.73184 5.0482 0
M  V30 2551 O 244.049 0.657237 5.66601 0
M  V30 2552 O 242.983 2.58267 5.43674 0
M  V30 2553 H 246.809 2.13474 2.16015 0
M  V30 2554 H 244.394 1.09587 1.01543 0
M  V30 2555 H 246.276 0.706623 4.15433 0
M  V30 2556 H 244.951 -0.0599443 3.23644 0
M  V30 2557 H 243.858 2.24454 2.99285 0
M  V30 2558 H 245.191 2.93734 3.94944 0
M  V30 2559 N 246.843 -1.10192 1.12674 0
M  V30 2560 C 248.254 -1.63707 0.897604 0
M  V30 2561 C 248.605 -1.87812 -0.567546 0
M  V30 2562 O 247.73 -1.62196 -1.43253 0
M  V30 2563 C 248.325 -2.974 1.62292 0
M  V30 2564 C 246.884 -3.47772 1.43986 0
M  V30 2565 C 246.031 -2.22332 1.65722 0
M  V30 2566 H 248.982 -0.936587 1.28116 0
M  V30 2567 H 249.003 -3.64986 1.07541 0
M  V30 2568 H 248.515 -2.79824 2.68924 0
M  V30 2569 H 246.616 -3.70487 0.396206 0
M  V30 2570 H 246.729 -4.25723 2.19765 0
M  V30 2571 H 245.093 -2.30599 1.08149 0
M  V30 2572 H 245.876 -2.07285 2.73657 0
M  V30 2573 N 248.321 -0.919034 -1.28029 0
M  V30 2574 C 249.57 -0.550802 -1.94034 0
M  V30 2575 C 249.883 0.910877 -1.73096 0
M  V30 2576 O 251.089 1.3875 -2.33368 0
M  V30 2577 C 249.545 -0.934249 -3.47563 0
M  V30 2578 C 249.153 -2.41602 -3.7727 0
M  V30 2579 C 250.897 -0.636854 -4.19696 0
M  V30 2580 C 248.804 -2.73932 -5.24133 0
M  V30 2581 H 247.734 -0.202273 -0.726362 0
M  V30 2582 H 250.385 -1.11867 -1.45458 0
M  V30 2583 H 248.767 -0.295115 -3.94899 0
M  V30 2584 H 249.941 -3.10233 -3.40723 0
M  V30 2585 H 248.256 -2.68441 -3.18321 0
M  V30 2586 H 250.853 -0.855005 -5.2782 0
M  V30 2587 H 251.196 0.425575 -4.14119 0
M  V30 2588 H 251.729 -1.23469 -3.78154 0
M  V30 2589 H 248.468 -3.79049 -5.34792 0
M  V30 2590 H 247.988 -2.09942 -5.61858 0
M  V30 2591 H 249.667 -2.61215 -5.91925 0
M  V30 2592 N 249.799 1.42003 -0.683588 0
M  V30 2593 C 251.045 2.02223 -0.218536 0
M  V30 2594 C 251.4 1.53126 1.16492 0
M  V30 2595 O 250.693 0.727459 1.77253 0
M  V30 2596 C 250.887 3.56827 -0.202357 0
M  V30 2597 C 250.716 4.20928 -1.5827 0
M  V30 2598 C 249.486 4.5573 -2.18262 0
M  V30 2599 C 251.684 4.47933 -2.52706 0
M  V30 2600 N 249.666 5.05056 -3.48986 0
M  V30 2601 C 251.037 4.98906 -3.68094 0
M  V30 2602 C 253.092 4.29931 -2.51125 0
M  V30 2603 C 251.795 5.33768 -4.82166 0
M  V30 2604 C 253.821 4.65875 -3.643 0
M  V30 2605 C 253.183 5.17008 -4.78417 0
M  V30 2606 H 249.282 0.771931 -0.125088 0
M  V30 2607 H 251.866 1.72729 -0.898479 0
M  V30 2608 H 250.037 3.85819 0.447029 0
M  V30 2609 H 251.769 4.03755 0.276399 0
M  V30 2610 H 248.524 4.41781 -1.70665 0
M  V30 2611 H 248.948 5.34139 -4.15962 0
M  V30 2612 H 253.59 3.89647 -1.6412 0
M  V30 2613 H 251.308 5.72981 -5.6984 0
M  V30 2614 H 254.894 4.53615 -3.64314 0
M  V30 2615 H 253.774 5.44301 -5.64541 0
M  V30 2616 N 251.277 0.427512 1.51691 0
M  V30 2617 C 252.24 -0.377132 2.26076 0
M  V30 2618 C 253.24 -0.958089 1.29141 0
M  V30 2619 O 254.43 -0.83408 1.52934 0
M  V30 2620 C 251.562 -1.53262 3.04506 0
M  V30 2621 H 252.755 0.27464 2.9864 0
M  V30 2622 H 250.308 0.180445 1.55255 0
M  V30 2623 H 251.043 -2.22072 2.36335 0
M  V30 2624 H 250.828 -1.12232 3.75694 0
M  V30 2625 H 252.318 -2.10135 3.60878 0
M  V30 2626 N 252.755 -1.56801 0.158532 0
M  V30 2627 C 254.004 -1.95665 -0.489702 0
M  V30 2628 C 254.317 -1.04654 -1.65248 0
M  V30 2629 O 255.523 -1.33146 -2.3661 0
M  V30 2630 C 253.979 -3.47874 -0.922582 0
M  V30 2631 C 253.587 -4.47489 0.213893 0
M  V30 2632 C 255.331 -3.95583 -1.53996 0
M  V30 2633 C 253.238 -5.90921 -0.237903 0
M  V30 2634 H 252.168 -0.730516 -0.186716 0
M  V30 2635 H 254.819 -1.81861 0.244722 0
M  V30 2636 H 253.201 -3.57051 -1.71261 0
M  V30 2637 H 254.375 -4.50017 0.991036 0
M  V30 2638 H 252.69 -4.09764 0.740407 0
M  V30 2639 H 255.287 -5.0019 -1.8898 0
M  V30 2640 H 255.63 -3.37789 -2.43319 0
M  V30 2641 H 256.163 -3.8937 -0.814611 0
M  V30 2642 H 252.902 -6.52559 0.620236 0
M  V30 2643 H 252.422 -5.91729 -0.980676 0
M  V30 2644 H 254.101 -6.43352 -0.686067 0
M  V30 2645 N 254.233 0.115231 -1.57178 0
M  V30 2646 C 255.481 0.820727 -1.84685 0
M  V30 2647 C 255.802 1.80237 -0.744279 0
M  V30 2648 O 255.072 1.94529 0.231375 0
M  V30 2649 H 253.652 0.306084 -0.681411 0
M  V30 2650 H 256.314 0.101656 -1.94635 0
M  V30 2651 H 255.41 1.36366 -2.80733 0
M  V30 2652 N 255.711 1.52812 0.385517 0
M  V30 2653 C 256.939 1.71907 1.15133 0
M  V30 2654 C 257.354 0.439004 1.83625 0
M  V30 2655 O 256.711 -0.586765 1.7281 0
M  V30 2656 C 256.762 2.87099 2.19673 0
M  V30 2657 O 256.483 4.10151 1.53973 0
M  V30 2658 C 257.984 3.17902 3.08955 0
M  V30 2659 H 255.204 0.575479 0.345057 0
M  V30 2660 H 257.748 1.99476 0.45052 0
M  V30 2661 H 255.903 2.61982 2.85384 0
M  V30 2662 H 256.317 4.74514 2.23465 0
M  V30 2663 H 257.791 4.01959 3.7833 0
M  V30 2664 H 258.268 2.3243 3.72657 0
M  V30 2665 H 258.874 3.44871 2.48885 0
M  V30 2666 N 257.189 -0.644168 1.43834 0
M  V30 2667 C 258.437 -1.40117 1.45642 0
M  V30 2668 C 258.758 -1.94814 0.0852413 0
M  V30 2669 O 258.028 -1.74988 -0.880688 0
M  V30 2670 H 256.608 -0.52005 0.536243 0
M  V30 2671 H 259.27 -0.7591 1.7951 0
M  V30 2672 H 258.366 -2.23902 2.17427 0
M  V30 2673 N 258.668 -1.30515 -0.883378 0
M  V30 2674 C 259.615 -1.17032 -1.98927 0
M  V30 2675 C 260.585 -0.0594241 -1.65994 0
M  V30 2676 O 261.77 -0.229895 -1.8941 0
M  V30 2677 C 258.91 -0.869777 -3.33959 0
M  V30 2678 C 258.023 -2.06271 -3.79574 0
M  V30 2679 C 257.158 -1.70011 -5.03259 0
M  V30 2680 C 256.197 -2.8579 -5.41286 0
M  V30 2681 N 255.334 -2.49816 -6.56153 0
M  V30 2682 H 260.174 -2.1164 -2.09792 0
M  V30 2683 H 257.711 -1.05296 -1.02719 0
M  V30 2684 H 259.669 -0.676138 -4.11685 0
M  V30 2685 H 258.299 0.0394332 -3.22776 0
M  V30 2686 H 257.351 -2.36755 -2.97744 0
M  V30 2687 H 258.663 -2.92971 -4.03694 0
M  V30 2688 H 257.817 -1.47032 -5.88614 0
M  V30 2689 H 256.556 -0.804829 -4.81013 0
M  V30 2690 H 255.561 -3.09434 -4.54456 0
M  V30 2691 H 256.786 -3.76008 -5.65504 0
M  V30 2692 H 254.732 -1.62795 -6.35479 0
M  V30 2693 H 254.649 -3.30048 -6.8015 0
M  V30 2694 H 255.917 -2.30197 -7.44735 0
M  V30 2695 N 260.146 1.09593 -1.13257 0
M  V30 2696 C 261.371 1.8604 -0.916732 0
M  V30 2697 C 261.796 1.80504 0.529146 0
M  V30 2698 O 261.154 1.18127 1.37534 0
M  V30 2699 C 261.202 3.32017 -1.40703 0
M  V30 2700 O 260.306 4.08141 -0.591153 0
M  V30 2701 H 259.647 0.576943 -0.328683 0
M  V30 2702 H 262.177 1.38405 -1.50682 0
M  V30 2703 H 262.187 3.82865 -1.4099 0
M  V30 2704 H 260.862 3.35361 -2.45979 0
M  V30 2705 H 259.439 3.67084 -0.656005 0
M  V30 2706 N 261.624 0.925811 1.2754 0
M  V30 2707 C 262.849 0.580924 1.99098 0
M  V30 2708 C 263.274 -0.833555 1.68622 0
M  V30 2709 O 262.632 -1.55903 0.925422 0
M  V30 2710 C 262.68 0.811186 3.51358 0
M  V30 2711 O 261.784 -0.124129 4.12213 0
M  V30 2712 H 261.125 0.223873 0.625122 0
M  V30 2713 H 263.655 1.24455 1.62395 0
M  V30 2714 H 263.665 0.72601 4.01489 0
M  V30 2715 H 262.34 1.84227 3.72872 0
M  V30 2716 H 260.917 0.0108006 3.72898 0
M  V30 2717 N 263.102 -1.41638 0.69111 0
M  V30 2718 C 264.33 -2.05628 0.22909 0
M  V30 2719 C 264.745 -1.51992 -1.11999 0
M  V30 2720 O 264.102 -0.666322 -1.69901 0
M  V30 2721 C 264.153 -3.61084 0.173283 0
M  V30 2722 O 263.874 -4.12735 1.46907 0
M  V30 2723 C 265.375 -4.42213 -0.310266 0
M  V30 2724 H 262.595 -0.662327 0.107534 0
M  V30 2725 H 265.139 -1.81489 0.942438 0
M  V30 2726 H 263.294 -3.84278 -0.490858 0
M  V30 2727 H 263.708 -5.06743 1.35322 0
M  V30 2728 H 265.182 -5.51194 -0.298196 0
M  V30 2729 H 265.659 -4.1799 -1.34838 0
M  V30 2730 H 266.265 -4.24074 0.322716 0
M  V30 2731 N 264.58 -0.43555 -1.51462 0
M  V30 2732 C 265.991 0.0279871 -1.86679 0
M  V30 2733 C 266.342 1.42104 -1.35281 0
M  V30 2734 O 265.467 2.04667 -0.702878 0
M  V30 2735 C 266.062 0.0575626 -3.38751 0
M  V30 2736 C 264.621 0.465507 -3.7351 0
M  V30 2737 C 263.768 -0.342996 -2.75171 0
M  V30 2738 H 266.719 -0.651473 -1.44712 0
M  V30 2739 H 266.74 0.867421 -3.70481 0
M  V30 2740 H 266.252 -0.956448 -3.7613 0
M  V30 2741 H 264.353 1.48519 -3.41721 0
M  V30 2742 H 264.466 0.191546 -4.78717 0
M  V30 2743 H 262.83 0.198442 -2.53926 0
M  V30 2744 H 263.613 -1.35585 -3.15391 0
M  V30 2745 N 266.058 1.56714 -0.166846 0
M  V30 2746 C 266.968 2.21331 0.777791 0
M  V30 2747 C 267.984 1.20358 1.25658 0
M  V30 2748 O 269.16 1.53005 1.30964 0
M  V30 2749 C 266.225 2.83787 1.99163 0
M  V30 2750 C 265.286 3.99947 1.56016 0
M  V30 2751 C 264.519 4.59415 2.71613 0
M  V30 2752 O 264.742 4.17769 3.88362 0
M  V30 2753 O 263.676 5.49359 2.45945 0
M  V30 2754 H 267.502 3.02605 0.257636 0
M  V30 2755 H 265.087 1.49275 0.0611393 0
M  V30 2756 H 266.969 3.23405 2.70161 0
M  V30 2757 H 265.644 2.05513 2.50092 0
M  V30 2758 H 264.551 3.65007 0.819809 0
M  V30 2759 H 265.884 4.79801 1.09782 0
M  V30 2760 N 267.536 -0.106894 1.57237 0
M  V30 2761 C 268.813 -0.843526 1.76477 0
M  V30 2762 C 269.193 -1.97499 0.745464 0
M  V30 2763 O 268.541 -2.27357 -0.228306 0
M  V30 2764 C 268.751 -1.34903 3.21873 0
M  V30 2765 C 270.099 -1.79654 3.8472 0
M  V30 2766 O 271.123 -1.44554 3.2555 0
M  V30 2767 O 269.982 -2.44515 4.88748 0
M  V30 2768 H 267.076 -0.401468 0.723016 0
M  V30 2769 H 269.622 -0.0896927 1.69463 0
M  V30 2770 H 268.394 -0.53781 3.87586 0
M  V30 2771 H 268.017 -2.16522 3.33473 0
M  V30 2772 N 269.014 -1.53014 -0.377408 0
M  V30 2773 C 269.977 -1.77957 -1.44444 0
M  V30 2774 C 270.977 -0.649763 -1.47087 0
M  V30 2775 O 272.167 -0.917897 -1.48055 0
M  V30 2776 C 269.299 -1.89089 -2.83651 0
M  V30 2777 H 270.492 -2.73243 -1.23606 0
M  V30 2778 H 268.045 -1.43912 -0.609844 0
M  V30 2779 H 268.78 -0.958293 -3.09818 0
M  V30 2780 H 268.565 -2.71254 -2.83132 0
M  V30 2781 H 270.055 -2.1002 -3.60945 0
M  V30 2782 N 270.492 0.636531 -1.44174 0
M  V30 2783 C 271.44 1.76995 -1.50915 0
M  V30 2784 C 272.434 1.65053 -0.381295 0
M  V30 2785 O 273.64 1.71197 -0.55601 0
M  V30 2786 H 270.015 0.584247 -0.473455 0
M  V30 2787 H 271.986 1.68432 -2.4632 0
M  V30 2788 C 270.735 3.15314 -1.46534 0
M  V30 2789 H 270.058 3.25149 -2.32633 0
M  V30 2790 H 271.498 3.9453 -1.55312 0
M  V30 2791 C 269.957 3.3639 -0.185305 0
M  V30 2792 O 270.487 3.94699 0.746688 0
M  V30 2793 N 268.693 2.9046 -0.0901606 0
M  V30 2794 H 268.24 2.43193 -0.849416 0
M  V30 2795 H 268.198 3.04937 0.765553 0
M  V30 2796 N 271.97 1.30982 0.876444 0
M  V30 2797 C 273.195 1.23373 1.66715 0
M  V30 2798 C 273.62 -0.19885 1.87046 0
M  V30 2799 O 272.978 -1.1427 1.40756 0
M  V30 2800 C 273.026 1.97644 3.01611 0
M  V30 2801 O 272.13 1.30935 3.91062 0
M  V30 2802 H 271.471 0.426279 0.509099 0
M  V30 2803 H 274.001 1.72944 1.09323 0
M  V30 2804 H 274.011 2.06992 3.51594 0
M  V30 2805 H 272.686 3.01829 2.86133 0
M  V30 2806 H 271.263 1.29996 3.49507 0
M  V30 2807 N 273.449 -1.08991 1.13837 0
M  V30 2808 C 274.695 -1.81526 0.90422 0
M  V30 2809 C 275.028 -1.85706 -0.568066 0
M  V30 2810 O 274.303 -1.32855 -1.42056 0
M  V30 2811 C 274.586 -3.27447 1.49835 0
M  V30 2812 C 274.439 -3.31512 3.04006 0
M  V30 2813 C 275.758 -4.24256 1.17025 0
M  V30 2814 H 272.877 -0.659029 0.329923 0
M  V30 2815 H 275.519 -1.27644 1.40737 0
M  V30 2816 H 273.669 -3.73462 1.07044 0
M  V30 2817 H 275.341 -2.93867 3.55584 0
M  V30 2818 H 273.584 -2.70963 3.38765 0
M  V30 2819 H 274.255 -4.34329 3.40679 0
M  V30 2820 H 276.731 -3.86549 1.54009 0
M  V30 2821 H 275.607 -5.24684 1.61237 0
M  V30 2822 H 275.868 -4.42019 0.0846274 0
M  V30 2823 N 274.927 -0.932562 -1.27047 0
M  V30 2824 C 276.167 -0.582919 -1.95912 0
M  V30 2825 C 276.531 0.860629 -1.71631 0
M  V30 2826 O 277.732 1.31878 -2.34225 0
M  V30 2827 C 276.003 -0.905673 -3.45734 0
M  V30 2828 S 277.562 -0.665277 -4.33727 0
M  V30 2829 H 274.38 -0.215 -0.677714 0
M  V30 2830 H 276.982 -1.20204 -1.54179 0
M  V30 2831 H 275.686 -1.95386 -3.60905 0
M  V30 2832 H 275.217 -0.275939 -3.92431 0
M  V30 2833 H 277.232 0.474635 -4.93925 0
M  V30 2834 N 276.405 1.4127 -0.698611 0
M  V30 2835 C 277.653 2.00782 -0.230409 0
M  V30 2836 C 277.974 1.5562 1.17505 0
M  V30 2837 O 277.244 0.78815 1.79346 0
M  V30 2838 H 275.824 0.742464 -0.0821944 0
M  V30 2839 H 278.486 1.72852 -0.90045 0
M  V30 2840 H 277.582 3.11095 -0.25021 0
M  V30 2841 N 277.883 0.443576 1.51229 0
M  V30 2842 C 278.833 -0.382787 2.24764 0
M  V30 2843 C 279.817 -0.984836 1.27239 0
M  V30 2844 O 281.009 -0.901943 1.52296 0
M  V30 2845 C 278.138 -1.47989 3.09765 0
M  V30 2846 C 277.224 -0.886931 4.14722 0
M  V30 2847 N 277.615 -0.0237103 5.05794 0
M  V30 2848 C 275.913 -1.15385 4.30816 0
M  V30 2849 C 276.614 0.309971 5.80874 0
M  V30 2850 N 275.59 -0.307989 5.42727 0
M  V30 2851 H 279.392 0.282624 2.92538 0
M  V30 2852 H 276.906 0.256027 1.60369 0
M  V30 2853 H 278.903 -2.08482 3.61027 0
M  V30 2854 H 277.563 -2.14758 2.43535 0
M  V30 2855 H 278.574 0.34318 5.16762 0
M  V30 2856 H 275.251 -1.81857 3.75812 0
M  V30 2857 H 276.641 1.01279 6.64223 0
M  V30 2858 N 279.361 -1.56624 0.175154 0
M  V30 2859 C 280.61 -1.96173 -0.468921 0
M  V30 2860 C 280.923 -1.06401 -1.64128 0
M  V30 2861 O 282.129 -1.35648 -2.35185 0
M  V30 2862 C 280.585 -3.48833 -0.885633 0
M  V30 2863 C 280.193 -4.47237 0.261343 0
M  V30 2864 C 281.937 -3.97194 -1.49791 0
M  V30 2865 C 279.844 -5.9114 -0.175214 0
M  V30 2866 H 278.774 -0.732455 -0.178958 0
M  V30 2867 H 281.425 -1.81591 0.263997 0
M  V30 2868 H 279.807 -3.58848 -1.67464 0
M  V30 2869 H 280.981 -4.4894 1.03871 0
M  V30 2870 H 279.296 -4.08956 0.783827 0
M  V30 2871 H 281.893 -5.02167 -1.83665 0
M  V30 2872 H 282.236 -3.40351 -2.39722 0
M  V30 2873 H 282.769 -3.90212 -0.773267 0
M  V30 2874 H 279.508 -6.51865 0.689414 0
M  V30 2875 H 279.028 -5.92735 -0.91786 0
M  V30 2876 H 280.707 -6.44044 -0.617792 0
M  V30 2877 N 280.839 0.0985539 -1.57292 0
M  V30 2878 C 282.255 0.45267 -1.53046 0
M  V30 2879 C 282.455 1.80713 -0.891342 0
M  V30 2880 O 281.511 2.4785 -0.482375 0
M  V30 2881 C 282.824 0.418341 -2.97776 0
M  V30 2882 C 284.372 0.500443 -3.08973 0
M  V30 2883 C 284.847 0.496297 -4.55303 0
M  V30 2884 N 286.338 0.557151 -4.59837 0
M  V30 2885 C 287.073 0.575726 -5.70502 0
M  V30 2886 N 286.569 0.550714 -6.90608 0
M  V30 2887 N 288.362 0.620277 -5.58667 0
M  V30 2888 H 280.513 -0.788673 -1.97215 0
M  V30 2889 H 282.776 -0.293188 -0.901524 0
M  V30 2890 H 282.482 -0.509659 -3.47988 0
M  V30 2891 H 282.356 1.2386 -3.56284 0
M  V30 2892 H 284.743 1.41886 -2.58751 0
M  V30 2893 H 284.824 -0.347894 -2.53423 0
M  V30 2894 H 284.468 -0.418162 -5.06176 0
M  V30 2895 H 284.398 1.3618 -5.08687 0
M  V30 2896 H 286.889 0.581816 -3.73394 0
M  V30 2897 H 287.202 0.568075 -7.70709 0
M  V30 2898 H 285.547 0.517816 -6.93068 0
M  V30 2899 H 288.738 0.637322 -4.63741 0
M  V30 2900 H 288.911 0.631283 -6.44918 0
M  V30 2901 N 282.317 1.53212 0.369288 0
M  V30 2902 C 283.542 1.73423 1.1375 0
M  V30 2903 C 283.967 0.460404 1.82378 0
M  V30 2904 O 283.325 -0.585298 1.71592 0
M  V30 2905 C 283.373 2.89769 2.1463 0
M  V30 2906 O 282.477 2.58119 3.21634 0
M  V30 2907 H 281.818 0.576061 0.330227 0
M  V30 2908 H 284.348 2.00083 0.427547 0
M  V30 2909 H 284.358 3.15829 2.58294 0
M  V30 2910 H 283.033 3.8217 1.64071 0
M  V30 2911 H 281.61 2.42864 2.82969 0
M  V30 2912 N 283.795 -0.628877 1.44509 0
M  V30 2913 C 285.041 -1.39045 1.47629 0
M  V30 2914 C 285.374 -1.93892 0.109343 0
M  V30 2915 O 284.649 -1.7379 -0.87334 0
M  V30 2916 C 284.932 -2.55408 2.53848 0
M  V30 2917 C 284.785 -2.05896 3.99909 0
M  V30 2918 C 286.104 -3.5759 2.56549 0
M  V30 2919 H 283.223 -0.504232 0.537512 0
M  V30 2920 H 285.865 -0.710854 1.76201 0
M  V30 2921 H 284.015 -3.13384 2.29615 0
M  V30 2922 H 285.687 -1.52734 4.35282 0
M  V30 2923 H 283.93 -1.37061 4.11578 0
M  V30 2924 H 284.601 -2.89681 4.69882 0
M  V30 2925 H 287.077 -3.09419 2.78207 0
M  V30 2926 H 285.953 -4.36527 3.32769 0
M  V30 2927 H 286.214 -4.11808 1.60832 0
M  V30 2928 N 285.273 -1.31445 -0.869486 0
M  V30 2929 C 286.519 -1.21337 -1.62496 0
M  V30 2930 C 286.852 0.227872 -1.92858 0
M  V30 2931 O 286.127 1.16094 -1.56053 0
M  V30 2932 C 286.41 -2.05814 -2.95487 0
M  V30 2933 C 286.263 -3.5824 -2.72 0
M  V30 2934 C 287.582 -1.9079 -3.96594 0
M  V30 2935 H 284.701 -0.442135 -0.589649 0
M  V30 2936 H 287.343 -1.6124 -1.00507 0
M  V30 2937 H 285.493 -1.71913 -3.48394 0
M  V30 2938 H 287.165 -4.0228 -2.25762 0
M  V30 2939 H 285.408 -3.81647 -2.06224 0
M  V30 2940 H 286.079 -4.12657 -3.66631 0
M  V30 2941 H 288.555 -2.20459 -3.52898 0
M  V30 2942 H 287.431 -2.52199 -4.87531 0
M  V30 2943 H 287.692 -0.871341 -4.33428 0
M  V30 2944 N 286.751 1.08385 -1.14413 0
M  V30 2945 C 287.976 1.85057 -0.936413 0
M  V30 2946 C 288.401 1.81055 0.509971 0
M  V30 2947 O 287.759 1.1958 1.36273 0
M  V30 2948 C 287.807 3.30505 -1.44217 0
M  V30 2949 O 286.911 4.07491 -0.634409 0
M  V30 2950 H 286.252 0.573425 -0.334784 0
M  V30 2951 H 288.782 1.36799 -1.52142 0
M  V30 2952 H 288.792 3.81348 -1.45043 0
M  V30 2953 H 287.467 3.32734 -2.49522 0
M  V30 2954 H 286.044 3.66368 -0.694902 0
M  V30 2955 N 288.23 0.939286 1.26551 0
M  V30 2956 C 289.646 0.641304 1.46149 0
M  V30 2957 C 289.846 -0.805964 1.84679 0
M  V30 2958 O 288.902 -1.58278 1.96734 0
M  V30 2959 C 290.215 1.6011 2.54529 0
M  V30 2960 C 291.763 1.6106 2.68382 0
M  V30 2961 C 292.238 2.55765 3.79932 0
M  V30 2962 N 293.729 2.5404 3.87322 0
M  V30 2963 C 294.464 3.24004 4.73085 0
M  V30 2964 N 293.96 4.03388 5.63249 0
M  V30 2965 N 295.753 3.12965 4.66914 0
M  V30 2966 H 287.904 1.87478 0.998285 0
M  V30 2967 H 290.167 0.805559 0.499779 0
M  V30 2968 H 289.873 2.63412 2.33039 0
M  V30 2969 H 289.747 1.35171 3.52149 0
M  V30 2970 H 292.134 0.584835 2.89247 0
M  V30 2971 H 292.215 1.90053 1.71212 0
M  V30 2972 H 291.859 3.58458 3.5982 0
M  V30 2973 H 291.789 2.24063 4.76554 0
M  V30 2974 H 294.28 1.96396 3.22858 0
M  V30 2975 H 294.593 4.5373 6.25579 0
M  V30 2976 H 292.938 4.07489 5.63008 0
M  V30 2977 H 296.129 2.50432 3.95476 0
M  V30 2978 H 296.302 3.67759 5.33533 0
M  V30 2979 N 289.708 -1.40897 0.706093 0
M  V30 2980 C 290.638 -2.33418 0.0620085 0
M  V30 2981 C 291.619 -1.52385 -0.755827 0
M  V30 2982 O 292.804 -1.80886 -0.706674 0
M  V30 2983 C 289.934 -3.36293 -0.867445 0
M  V30 2984 C 288.888 -4.27716 -0.155932 0
M  V30 2985 C 288.214 -5.2105 -1.20046 0
M  V30 2986 C 289.514 -5.12944 0.984149 0
M  V30 2987 H 291.208 -2.87527 0.83477 0
M  V30 2988 H 288.754 -1.38249 0.402875 0
M  V30 2989 H 290.707 -3.99949 -1.32735 0
M  V30 2990 H 289.431 -2.80556 -1.67199 0
M  V30 2991 H 288.09 -3.65498 0.284047 0
M  V30 2992 H 287.738 -4.61624 -1.99781 0
M  V30 2993 H 287.438 -5.83056 -0.729328 0
M  V30 2994 H 288.962 -5.87584 -1.66066 0
M  V30 2995 H 290.376 -5.70109 0.604048 0
M  V30 2996 H 288.773 -5.83945 1.38304 0
M  V30 2997 H 289.843 -4.49485 1.81911 0
M  V30 2998 N 291.186 -0.45159 -1.50991 0
M  V30 2999 C 292.433 0.110074 -2.02201 0
M  V30 3000 C 292.761 1.4146 -1.33489 0
M  V30 3001 O 292.016 1.90617 -0.443125 0
M  V30 3002 C 292.315 0.361728 -3.55565 0
M  V30 3003 C 291.981 -0.858717 -4.42648 0
M  V30 3004 C 290.643 -1.19338 -4.66167 0
M  V30 3005 C 292.995 -1.67221 -4.93646 0
M  V30 3006 C 290.323 -2.34195 -5.37931 0
M  V30 3007 C 292.675 -2.8119 -5.6667 0
M  V30 3008 C 291.339 -3.15094 -5.88449 0
M  V30 3009 H 290.609 0.040279 -0.739904 0
M  V30 3010 H 293.256 -0.601696 -1.81802 0
M  V30 3011 H 291.561 1.15554 -3.74372 0
M  V30 3012 H 293.258 0.80996 -3.92735 0
M  V30 3013 H 289.848 -0.58796 -4.24548 0
M  V30 3014 H 294.032 -1.42686 -4.75347 0
M  V30 3015 H 289.288 -2.6076 -5.53005 0
M  V30 3016 H 293.462 -3.44585 -6.05173 0
M  V30 3017 H 291.089 -4.04204 -6.43835 0
M  V30 3018 N 292.664 1.56529 -0.183458 0
M  V30 3019 C 293.912 1.96855 0.457452 0
M  V30 3020 C 294.233 1.07104 1.62953 0
M  V30 3021 O 293.503 0.139887 1.954 0
M  V30 3022 H 292.083 0.72693 0.171992 0
M  V30 3023 H 294.745 1.93056 -0.267476 0
M  V30 3024 H 293.841 3.01423 0.809368 0
M  V30 3025 N 294.142 -0.090211 1.57342 0
M  V30 3026 C 295.553 -0.644173 1.75235 0
M  V30 3027 C 295.904 -1.78865 0.806335 0
M  V30 3028 O 295.029 -2.16395 -0.0140128 0
M  V30 3029 C 295.624 -1.17532 3.1776 0
M  V30 3030 C 294.183 -1.67531 3.37061 0
M  V30 3031 C 293.33 -0.58693 2.71017 0
M  V30 3032 H 296.281 0.135884 1.58117 0
M  V30 3033 H 296.302 -2.04455 3.20902 0
M  V30 3034 H 295.814 -0.342138 3.86589 0
M  V30 3035 H 293.915 -2.53234 2.73319 0
M  V30 3036 H 294.028 -1.76493 4.45406 0
M  V30 3037 H 292.392 -1.02756 2.33052 0
M  V30 3038 H 293.175 0.235758 3.4249 0
M  V30 3039 N 295.62 -1.53406 -0.361157 0
M  V30 3040 C 296.53 -1.83122 -1.4664 0
M  V30 3041 C 297.546 -0.719943 -1.58407 0
M  V30 3042 O 298.722 -1.01046 -1.74218 0
M  V30 3043 C 295.787 -2.01891 -2.81853 0
M  V30 3044 C 294.848 -3.25784 -2.79577 0
M  V30 3045 C 294.081 -3.43648 -4.0834 0
M  V30 3046 O 294.304 -2.65714 -5.0473 0
M  V30 3047 O 293.238 -4.37018 -4.13883 0
M  V30 3048 H 297.064 -2.7703 -1.24451 0
M  V30 3049 H 294.649 -1.38841 -0.551678 0
M  V30 3050 H 296.531 -2.15782 -3.61962 0
M  V30 3051 H 295.206 -1.11173 -3.0401 0
M  V30 3052 H 294.113 -3.17312 -1.98151 0
M  V30 3053 H 295.446 -4.16439 -2.62373 0
M  V30 3054 N 297.098 0.621204 -1.44841 0
M  V30 3055 C 298.061 1.71459 -1.521 0
M  V30 3056 C 299.061 1.55696 -0.401933 0
M  V30 3057 O 300.251 1.61011 -0.664925 0
M  V30 3058 C 297.383 3.10624 -1.40447 0
M  V30 3059 H 298.576 1.66394 -2.49506 0
M  V30 3060 H 296.129 0.835745 -1.3208 0
M  V30 3061 H 296.864 3.21277 -0.441737 0
M  V30 3062 H 296.649 3.23473 -2.21602 0
M  V30 3063 H 298.139 3.90293 -1.4853 0
M  V30 3064 N 298.576 1.31904 0.862503 0
M  V30 3065 C 299.539 1.20131 1.95195 0
M  V30 3066 C 300.539 0.126409 1.60302 0
M  V30 3067 O 301.729 0.376234 1.70089 0
M  V30 3068 C 298.861 0.845691 3.30244 0
M  V30 3069 H 300.054 2.16943 2.07064 0
M  V30 3070 H 297.607 1.15622 1.05172 0
M  V30 3071 H 298.342 -0.120957 3.24074 0
M  V30 3072 H 298.127 1.62276 3.56944 0
M  V30 3073 H 299.617 0.787418 4.10109 0
M  V30 3074 N 300.054 -1.07777 1.14986 0
M  V30 3075 C 300.964 -2.18404 0.856546 0
M  V30 3076 C 301.98 -1.73211 -0.165485 0
M  V30 3077 O 303.156 -2.01399 0.00755219 0
M  V30 3078 C 300.221 -3.44977 0.34526 0
M  V30 3079 C 299.282 -4.0476 1.43065 0
M  V30 3080 C 298.515 -5.25291 0.943663 0
M  V30 3081 O 298.738 -5.70004 -0.212426 0
M  V30 3082 O 297.672 -5.76638 1.72547 0
M  V30 3083 H 301.498 -2.45978 1.78125 0
M  V30 3084 H 299.083 -1.17033 0.928631 0
M  V30 3085 H 300.965 -4.21348 0.0663671 0
M  V30 3086 H 299.64 -3.18965 -0.551631 0
M  V30 3087 H 298.547 -3.29949 1.76309 0
M  V30 3088 H 299.88 -4.35035 2.30229 0
M  V30 3089 N 301.532 -0.945985 -1.26051 0
M  V30 3090 C 302.495 -0.463897 -2.24456 0
M  V30 3091 C 303.495 0.427655 -1.55009 0
M  V30 3092 O 304.685 0.226157 -1.72726 0
M  V30 3093 C 301.817 0.330812 -3.39291 0
M  V30 3094 H 303.01 -1.33357 -2.68619 0
M  V30 3095 H 300.563 -0.728416 -1.38289 0
M  V30 3096 H 301.298 1.21852 -3.00537 0
M  V30 3097 H 301.083 -0.308679 -3.90883 0
M  V30 3098 H 302.573 0.657865 -4.12386 0
M  V30 3099 N 303.011 1.40521 -0.713556 0
M  V30 3100 C 304.26 2.00155 -0.249192 0
M  V30 3101 C 304.573 1.57224 1.16362 0
M  V30 3102 O 305.779 2.09542 1.72639 0
M  V30 3103 C 304.235 3.5773 -0.3946 0
M  V30 3104 C 303.843 4.09635 -1.81392 0
M  V30 3105 C 305.587 4.24499 0.00907364 0
M  V30 3106 C 303.494 5.59707 -1.91003 0
M  V30 3107 H 302.424 0.74868 -0.0894114 0
M  V30 3108 H 305.075 1.60784 -0.884352 0
M  V30 3109 H 303.457 3.94792 0.30911 0
M  V30 3110 H 304.631 3.83955 -2.54785 0
M  V30 3111 H 302.946 3.55456 -2.16888 0
M  V30 3112 H 305.543 5.34683 -0.0420404 0
M  V30 3113 H 305.886 4.02824 1.05065 0
M  V30 3114 H 306.419 3.92536 -0.645007 0
M  V30 3115 H 303.158 5.86234 -2.93275 0
M  V30 3116 H 302.678 5.87258 -1.22019 0
M  V30 3117 H 304.357 6.24776 -1.6812 0
M  V30 3118 N 304.489 0.459591 1.5075 0
M  V30 3119 C 305.905 0.113092 1.59199 0
M  V30 3120 C 306.105 -1.37951 1.46874 0
M  V30 3121 O 305.161 -2.15168 1.32132 0
M  V30 3122 C 306.474 0.653043 2.93523 0
M  V30 3123 C 308.022 0.615449 3.0689 0
M  V30 3124 C 308.497 1.13275 4.43771 0
M  V30 3125 N 309.988 1.09167 4.50152 0
M  V30 3126 C 310.723 1.46256 5.54434 0
M  V30 3127 N 310.219 1.90739 6.66026 0
M  V30 3128 N 312.012 1.37932 5.44914 0
M  V30 3129 H 304.163 1.43049 1.57005 0
M  V30 3130 H 306.426 0.590861 0.741341 0
M  V30 3131 H 306.132 1.69822 3.07983 0
M  V30 3132 H 306.006 0.0902132 3.77092 0
M  V30 3133 H 308.393 -0.420793 2.92084 0
M  V30 3134 H 308.474 1.21495 2.25106 0
M  V30 3135 H 308.118 2.16757 4.59324 0
M  V30 3136 H 308.048 0.509576 5.24129 0
M  V30 3137 H 310.539 0.76528 3.7007 0
M  V30 3138 H 310.852 2.17218 7.41644 0
M  V30 3139 H 309.197 1.94683 6.67176 0
M  V30 3140 H 312.388 1.0303 4.56621 0
M  V30 3141 H 312.561 1.67164 6.26067 0
M  V30 3142 N 305.967 -1.56429 0.191757 0
M  V30 3143 C 307.216 -1.9666 -0.448088 0
M  V30 3144 C 307.529 -1.08136 -1.62991 0
M  V30 3145 O 308.735 -1.38135 -2.33733 0
M  V30 3146 C 307.191 -3.49753 -0.848585 0
M  V30 3147 C 306.799 -4.46935 0.308764 0
M  V30 3148 C 308.543 -3.9876 -1.4557 0
M  V30 3149 C 306.45 -5.91293 -0.112506 0
M  V30 3150 H 305.38 -0.734312 -0.171179 0
M  V30 3151 H 308.031 -1.81301 0.283242 0
M  V30 3152 H 306.413 -3.60604 -1.63649 0
M  V30 3153 H 307.587 -4.47813 1.08627 0
M  V30 3154 H 305.902 -4.08102 0.827158 0
M  V30 3155 H 308.499 -5.04086 -1.78328 0
M  V30 3156 H 308.842 -3.42875 -2.36099 0
M  V30 3157 H 309.375 -3.9101 -0.731836 0
M  V30 3158 H 306.114 -6.51097 0.758514 0
M  V30 3159 H 305.634 -5.93676 -0.854941 0
M  V30 3160 H 307.313 -6.44663 -0.549448 0
M  V30 3161 N 307.445 0.0818655 -1.57387 0
M  V30 3162 C 308.377 1.12484 -1.997 0
M  V30 3163 C 309.39 1.35564 -0.90146 0
M  V30 3164 O 310.579 1.33982 -1.17945 0
M  V30 3165 C 307.679 2.47778 -2.31213 0
M  V30 3166 C 306.852 2.44793 -3.62485 0
M  V30 3167 C 305.911 3.62117 -3.81782 0
M  V30 3168 O 304.937 3.44005 -4.53486 0
M  V30 3169 N 306.139 4.82094 -3.23367 0
M  V30 3170 H 308.904 0.764585 -2.89783 0
M  V30 3171 H 306.465 0.270664 -1.59621 0
M  V30 3172 H 308.457 3.24891 -2.41304 0
M  V30 3173 H 307.027 2.75843 -1.4707 0
M  V30 3174 H 306.247 1.53134 -3.6324 0
M  V30 3175 H 307.535 2.39889 -4.48699 0
M  V30 3176 H 306.933 4.99713 -2.65148 0
M  V30 3177 H 305.49 5.56753 -3.38923 0
M  V30 3178 N 308.923 1.53595 0.353017 0
M  V30 3179 C 310.153 1.74058 1.11299 0
M  V30 3180 C 310.561 0.475205 1.83135 0
M  V30 3181 O 309.904 -0.562344 1.74881 0
M  V30 3182 C 309.966 2.85994 2.17825 0
M  V30 3183 C 309.63 4.25923 1.65647 0
M  V30 3184 C 310.627 5.07829 1.11383 0
M  V30 3185 C 308.312 4.72377 1.7078 0
M  V30 3186 C 310.306 6.34285 0.629439 0
M  V30 3187 C 307.993 5.98808 1.21953 0
M  V30 3188 C 308.991 6.79594 0.681265 0
M  V30 3189 O 308.679 8.03651 0.200248 0
M  V30 3190 H 308.411 0.585327 0.338183 0
M  V30 3191 H 310.965 2.01186 0.413927 0
M  V30 3192 H 309.195 2.54368 2.91262 0
M  V30 3193 H 310.884 2.94515 2.79313 0
M  V30 3194 H 311.65 4.73107 1.06746 0
M  V30 3195 H 307.529 4.0956 2.11617 0
M  V30 3196 H 311.073 6.97288 0.208636 0
M  V30 3197 H 306.97 6.33026 1.26287 0
M  V30 3198 H 307.738 8.1788 0.318416 0
M  V30 3199 N 310.401 -0.613514 1.45168 0
M  V30 3200 C 311.649 -1.36997 1.48581 0
M  V30 3201 C 311.97 -1.94589 0.126545 0
M  V30 3202 O 311.24 -1.76816 -0.843372 0
M  V30 3203 H 309.82 -0.508558 0.547154 0
M  V30 3204 H 312.482 -0.720853 1.81079 0
M  V30 3205 H 311.578 -2.1924 2.22127 0
M  V30 3206 N 311.879 -1.3236 -0.855495 0
M  V30 3207 C 313.127 -1.22629 -1.60644 0
M  V30 3208 C 313.448 0.212136 -1.93843 0
M  V30 3209 O 312.718 1.13666 -1.59552 0
M  V30 3210 H 311.298 -0.450882 -0.595579 0
M  V30 3211 H 313.96 -1.65871 -1.02337 0
M  V30 3212 H 313.056 -1.80832 -2.54374 0
M  V30 3213 N 313.357 1.07166 -1.15556 0
M  V30 3214 C 314.582 1.84053 -0.955988 0
M  V30 3215 C 315.007 1.81586 0.490739 0
M  V30 3216 O 314.365 1.21018 1.34997 0
M  V30 3217 C 314.413 3.28957 -1.47714 0
M  V30 3218 O 313.517 4.06795 -0.677593 0
M  V30 3219 H 312.858 0.569842 -0.340847 0
M  V30 3220 H 315.388 1.35178 -1.53584 0
M  V30 3221 H 315.398 3.79788 -1.4908 0
M  V30 3222 H 314.073 3.30068 -2.53037 0
M  V30 3223 H 312.65 3.6561 -0.733721 0
M  V30 3224 N 314.835 0.952656 1.25548 0
M  V30 3225 C 316.081 0.607272 1.93494 0
M  V30 3226 C 316.414 -0.853245 1.74452 0
M  V30 3227 O 315.689 -1.61194 1.08843 0
M  V30 3228 C 315.972 0.96435 3.46947 0
M  V30 3229 C 315.825 2.48045 3.75225 0
M  V30 3230 C 317.144 0.487987 4.37386 0
M  V30 3231 H 314.263 0.222096 0.702739 0
M  V30 3232 H 316.905 1.18895 1.48203 0
M  V30 3233 H 315.055 0.469361 3.85654 0
M  V30 3234 H 316.727 3.04905 3.46166 0
M  V30 3235 H 314.97 2.919 3.209 0
M  V30 3236 H 315.641 2.6808 4.82532 0
M  V30 3237 H 318.117 0.912558 4.0597 0
M  V30 3238 H 316.993 0.766547 5.43521 0
M  V30 3239 H 317.254 -0.612063 4.37843 0
M  V30 3240 N 316.313 -1.40141 0.720998 0
M  V30 3241 C 317.26 -2.30688 0.071919 0
M  V30 3242 C 318.23 -1.48476 -0.744584 0
M  V30 3243 O 319.415 -1.77201 -0.707423 0
M  V30 3244 C 316.555 -3.34724 -0.839855 0
M  V30 3245 C 315.668 -4.31998 -0.0122438 0
M  V30 3246 C 314.803 -5.23102 -0.923995 0
M  V30 3247 C 313.842 -6.12033 -0.0907969 0
M  V30 3248 N 312.979 -6.95537 -0.957718 0
M  V30 3249 H 317.819 -2.85628 0.849755 0
M  V30 3250 H 315.356 -1.40653 0.430726 0
M  V30 3251 H 317.314 -3.93618 -1.38279 0
M  V30 3252 H 315.944 -2.81274 -1.58381 0
M  V30 3253 H 314.996 -3.74841 0.64794 0
M  V30 3254 H 316.308 -4.94772 0.632595 0
M  V30 3255 H 315.462 -5.86953 -1.53527 0
M  V30 3256 H 314.201 -4.60615 -1.60264 0
M  V30 3257 H 313.206 -5.47207 0.533377 0
M  V30 3258 H 314.431 -6.76581 0.584428 0
M  V30 3259 H 312.377 -6.35633 -1.62192 0
M  V30 3260 H 312.294 -7.55099 -0.36904 0
M  V30 3261 H 313.562 -7.63832 -1.555 0
M  V30 3262 N 317.792 -0.46758 -1.50504 0
M  V30 3263 C 319.203 -0.0116166 -1.86696 0
M  V30 3264 C 319.554 1.39202 -1.38265 0
M  V30 3265 O 318.679 2.0313 -0.746132 0
M  V30 3266 C 319.274 -0.0143044 -3.38797 0
M  V30 3267 C 317.833 0.386175 -3.74414 0
M  V30 3268 C 316.98 -0.401287 -2.74381 0
M  V30 3269 H 319.931 -0.682022 -1.43297 0
M  V30 3270 H 319.952 0.788641 -3.72237 0
M  V30 3271 H 319.464 -1.03602 -3.74016 0
M  V30 3272 H 317.565 1.41237 -3.44794 0
M  V30 3273 H 317.678 0.0899596 -4.79016 0
M  V30 3274 H 316.042 0.144536 -2.5429 0
M  V30 3275 H 316.825 -1.42244 -3.12444 0
M  V30 3276 N 319.27 1.56325 -0.20005 0
M  V30 3277 C 320.547 1.89484 0.48529 0
M  V30 3278 C 320.927 1.1143 1.79294 0
M  V30 3279 O 320.275 0.216919 2.27468 0
M  V30 3280 C 320.485 3.41923 0.699243 0
M  V30 3281 C 321.833 4.12256 1.01638 0
M  V30 3282 O 322.857 3.47402 0.786792 0
M  V30 3283 O 321.716 5.26887 1.45095 0
M  V30 3284 H 318.81 0.787144 0.253639 0
M  V30 3285 H 321.356 1.67985 -0.240633 0
M  V30 3286 H 320.128 3.90658 -0.224008 0
M  V30 3287 H 319.751 3.69131 1.47744 0
M  V30 3288 N 320.748 -0.0735177 1.57428 0
M  V30 3289 C 321.696 -1.10628 2.04607 0
M  V30 3290 C 322.69 -1.40181 0.951088 0
M  V30 3291 O 323.896 -1.39608 1.1362 0
M  V30 3292 H 320.271 -0.374088 0.652351 0
M  V30 3293 H 322.242 -0.682218 2.90497 0
M  V30 3294 C 320.991 -2.41212 2.50423 0
M  V30 3295 H 320.314 -2.19322 3.34272 0
M  V30 3296 H 321.754 -3.11927 2.87189 0
M  V30 3297 C 320.213 -3.0705 1.38644 0
M  V30 3298 O 320.743 -3.95056 0.727582 0
M  V30 3299 N 318.949 -2.67645 1.132 0
M  V30 3300 H 318.496 -1.96169 1.66959 0
M  V30 3301 H 318.454 -3.1202 0.386147 0
M  V30 3302 N 322.226 -1.5378 -0.344866 0
M  V30 3303 C 323.475 -1.7018 -1.08267 0
M  V30 3304 C 323.788 -0.471 -1.89845 0
M  V30 3305 O 324.994 -0.515917 -2.66553 0
M  V30 3306 C 323.45 -3.00923 -1.97417 0
M  V30 3307 C 323.058 -4.31335 -1.21053 0
M  V30 3308 C 324.802 -3.26688 -2.71063 0
M  V30 3309 C 322.709 -5.53153 -2.09225 0
M  V30 3310 H 321.639 -0.634138 -0.407903 0
M  V30 3311 H 324.29 -1.8028 -0.342246 0
M  V30 3312 H 322.672 -2.84676 -2.75274 0
M  V30 3313 H 323.846 -4.58281 -0.481159 0
M  V30 3314 H 322.161 -4.12173 -0.591813 0
M  V30 3315 H 324.758 -4.1489 -3.37299 0
M  V30 3316 H 325.101 -2.43639 -3.37558 0
M  V30 3317 H 325.634 -3.43705 -2.0028 0
M  V30 3318 H 322.373 -6.38741 -1.47274 0
M  V30 3319 H 321.893 -5.30458 -2.79955 0
M  V30 3320 H 323.572 -5.88744 -2.68308 0
M  V30 3321 N 323.704 0.605807 -1.45491 0
M  V30 3322 C 325.12 0.926751 -1.29936 0
M  V30 3323 C 325.32 1.99896 -0.253706 0
M  V30 3324 O 324.376 2.50038 0.351737 0
M  V30 3325 C 325.689 1.36599 -2.67883 0
M  V30 3326 C 327.237 1.4801 -2.75793 0
M  V30 3327 C 327.712 1.95309 -4.14268 0
M  V30 3328 N 329.203 2.0254 -4.16571 0
M  V30 3329 C 329.938 2.40363 -5.20589 0
M  V30 3330 N 329.434 2.77143 -6.34952 0
M  V30 3331 N 331.227 2.40718 -5.07948 0
M  V30 3332 H 323.378 -0.102862 -2.12151 0
M  V30 3333 H 325.641 0.016639 -0.947854 0
M  V30 3334 H 325.347 0.652306 -3.45598 0
M  V30 3335 H 325.221 2.33215 -2.96463 0
M  V30 3336 H 327.608 2.1847 -1.98381 0
M  V30 3337 H 327.689 0.497041 -2.50925 0
M  V30 3338 H 327.333 1.25436 -4.92167 0
M  V30 3339 H 327.263 2.94532 -4.3653 0
M  V30 3340 H 329.754 1.76699 -3.34045 0
M  V30 3341 H 330.067 3.0489 -7.10114 0
M  V30 3342 H 328.412 2.74834 -6.3835 0
M  V30 3343 H 331.603 2.11392 -4.1765 0
M  V30 3344 H 331.776 2.69869 -5.89131 0
M  V30 3345 N 325.182 1.32811 0.848464 0
M  V30 3346 C 326.459 1.14334 1.58704 0
M  V30 3347 C 326.839 -0.293948 2.09043 0
M  V30 3348 O 326.187 -1.29153 1.88499 0
M  V30 3349 C 326.397 2.17626 2.72837 0
M  V30 3350 C 327.745 2.51282 3.42261 0
M  V30 3351 O 328.769 2.16219 2.83068 0
M  V30 3352 O 327.628 3.11413 4.49093 0
M  V30 3353 H 324.722 0.441601 0.699226 0
M  V30 3354 H 327.268 1.44362 0.892053 0
M  V30 3355 H 326.04 3.14211 2.3321 0
M  V30 3356 H 325.663 1.88628 3.50008 0
M  V30 3357 N 326.66 -1.06551 1.16123 0
M  V30 3358 C 327.907 -1.79302 0.941126 0
M  V30 3359 C 328.235 -1.87105 -0.531235 0
M  V30 3360 O 327.49 -1.35692 -1.41018 0
M  V30 3361 C 327.789 -3.23911 1.51052 0
M  V30 3362 C 327.455 -3.36193 3.00475 0
M  V30 3363 C 326.117 -3.39252 3.41265 0
M  V30 3364 C 328.469 -3.38326 3.96465 0
M  V30 3365 C 325.797 -3.42057 4.76669 0
M  V30 3366 C 328.149 -3.4267 5.31752 0
M  V30 3367 C 326.813 -3.4401 5.72026 0
M  V30 3368 H 326.083 -0.656111 0.344382 0
M  V30 3369 H 328.73 -1.25325 1.44796 0
M  V30 3370 H 327.035 -3.80723 0.925063 0
M  V30 3371 H 328.732 -3.78793 1.31593 0
M  V30 3372 H 325.322 -3.34516 2.6795 0
M  V30 3373 H 329.506 -3.35176 3.6602 0
M  V30 3374 H 324.762 -3.41398 5.07206 0
M  V30 3375 H 328.936 -3.43268 6.05921 0
M  V30 3376 H 326.563 -3.45937 6.76928 0
M  V30 3377 N 328.138 -0.959301 -1.25041 0
M  V30 3378 C 329.068 -0.501388 -2.28053 0
M  V30 3379 C 330.049 0.454673 -1.63911 0
M  V30 3380 O 331.234 0.352618 -1.90972 0
M  V30 3381 C 328.364 0.217224 -3.4662 0
M  V30 3382 C 327.318 -0.654034 -4.22973 0
M  V30 3383 C 326.644 0.195589 -5.34342 0
M  V30 3384 C 327.944 -1.93447 -4.85155 0
M  V30 3385 H 329.638 -1.36238 -2.66608 0
M  V30 3386 H 327.184 -0.656534 -1.28163 0
M  V30 3387 H 329.137 0.548732 -4.17812 0
M  V30 3388 H 327.861 1.1125 -3.07068 0
M  V30 3389 H 326.52 -0.968693 -3.5357 0
M  V30 3390 H 326.168 1.09076 -4.91031 0
M  V30 3391 H 325.868 -0.384091 -5.86343 0
M  V30 3392 H 327.392 0.521958 -6.08365 0
M  V30 3393 H 328.806 -1.66908 -5.48466 0
M  V30 3394 H 327.203 -2.46018 -5.47353 0
M  V30 3395 H 328.273 -2.63466 -4.07079 0
M  V30 3396 N 329.616 1.39756 -0.72842 0
M  V30 3397 C 330.579 2.29012 -0.0927297 0
M  V30 3398 C 331.579 1.45992 0.674025 0
M  V30 3399 O 332.769 1.66749 0.50402 0
M  V30 3400 C 329.901 3.29396 0.878137 0
M  V30 3401 H 331.094 2.86729 -0.879011 0
M  V30 3402 H 328.647 1.48293 -0.493847 0
M  V30 3403 H 329.382 2.76722 1.69101 0
M  V30 3404 H 329.167 3.907 0.331051 0
M  V30 3405 H 330.657 3.96199 1.3197 0
M  V30 3406 N 331.094 0.475555 1.50254 0
M  V30 3407 C 332.026 -0.352649 2.26471 0
M  V30 3408 C 333.039 -0.953165 1.3198 0
M  V30 3409 O 334.228 -0.840815 1.57457 0
M  V30 3410 C 331.328 -1.50902 3.0345 0
M  V30 3411 C 330.501 -1.02047 4.25329 0
M  V30 3412 C 329.56 -2.05142 4.84565 0
M  V30 3413 O 328.586 -1.63023 5.45355 0
M  V30 3414 N 329.788 -3.37987 4.71959 0
M  V30 3415 H 332.553 0.300767 2.98187 0
M  V30 3416 H 330.114 0.306598 1.5897 0
M  V30 3417 H 332.106 -2.19572 3.39956 0
M  V30 3418 H 330.676 -2.06705 2.34504 0
M  V30 3419 H 329.896 -0.159507 3.93877 0
M  V30 3420 H 331.184 -0.672061 5.04342 0
M  V30 3421 H 330.582 -3.74913 4.23623 0
M  V30 3422 H 329.139 -4.02443 5.12721 0
M  V30 3423 N 332.573 -1.56217 0.208337 0
M  V30 3424 C 333.505 -2.1695 -0.739276 0
M  V30 3425 C 334.518 -1.13492 -1.1672 0
M  V30 3426 O 335.707 -1.40529 -1.10063 0
M  V30 3427 C 332.807 -2.72755 -2.01142 0
M  V30 3428 C 331.98 -4.0125 -1.74118 0
M  V30 3429 C 331.039 -4.41749 -2.85909 0
M  V30 3430 O 330.065 -5.08912 -2.54946 0
M  V30 3431 N 331.267 -4.06342 -4.14568 0
M  V30 3432 H 334.032 -2.98893 -0.219837 0
M  V30 3433 H 331.593 -1.61878 0.0268445 0
M  V30 3434 H 333.585 -2.96826 -2.75094 0
M  V30 3435 H 332.155 -1.95191 -2.4417 0
M  V30 3436 H 331.375 -3.85173 -0.838775 0
M  V30 3437 H 332.663 -4.851 -1.53477 0
M  V30 3438 H 332.061 -3.52345 -4.42571 0
M  V30 3439 H 330.618 -4.35335 -4.85105 0
M  V30 3440 N 334.051 0.0651679 -1.57465 0
M  V30 3441 C 334.983 1.10359 -2.00882 0
M  V30 3442 C 335.996 1.346 -0.915788 0
M  V30 3443 O 337.185 1.32723 -1.1936 0
M  V30 3444 C 334.285 2.45312 -2.33828 0
M  V30 3445 C 333.458 2.40934 -3.65061 0
M  V30 3446 C 332.517 3.58047 -3.85602 0
M  V30 3447 O 331.543 3.39175 -4.57109 0
M  V30 3448 N 332.745 4.78637 -3.28462 0
M  V30 3449 H 335.51 0.733807 -2.90578 0
M  V30 3450 H 333.071 0.253719 -1.599 0
M  V30 3451 H 335.063 3.22314 -2.44737 0
M  V30 3452 H 333.633 2.74267 -1.49988 0
M  V30 3453 H 332.853 1.49273 -3.64844 0
M  V30 3454 H 334.141 2.35117 -4.51218 0
M  V30 3455 H 333.539 4.96872 -2.70433 0
M  V30 3456 H 332.096 5.53127 -3.44809 0
M  V30 3457 N 335.529 1.53961 0.336706 0
M  V30 3458 C 336.778 1.70751 1.07363 0
M  V30 3459 C 337.091 0.481061 1.89592 0
M  V30 3460 O 338.297 0.530046 2.66276 0
M  V30 3461 C 336.753 3.01965 1.95818 0
M  V30 3462 C 336.361 4.31971 1.18764 0
M  V30 3463 C 338.105 3.28121 2.69327 0
M  V30 3464 C 336.012 5.54255 2.06289 0
M  V30 3465 H 334.942 0.636292 0.404535 0
M  V30 3466 H 337.593 1.80459 0.332681 0
M  V30 3467 H 335.975 2.86132 2.7376 0
M  V30 3468 H 337.149 4.5853 0.456849 0
M  V30 3469 H 335.464 4.12481 0.569946 0
M  V30 3470 H 338.061 4.16673 3.35094 0
M  V30 3471 H 338.404 2.45426 3.36261 0
M  V30 3472 H 338.937 3.44762 1.98454 0
M  V30 3473 H 335.676 6.39513 1.43885 0
M  V30 3474 H 335.196 5.31935 2.77138 0
M  V30 3475 H 336.875 5.90159 2.65182 0
M  V30 3476 N 337.007 -0.598083 1.45811 0
M  V30 3477 C 338.284 -1.35777 1.40797 0
M  V30 3478 C 338.664 -2.10935 0.083462 0
M  V30 3479 O 338.012 -2.08505 -0.934763 0
M  V30 3480 C 338.222 -2.29666 2.62783 0
M  V30 3481 C 339.57 -2.91977 3.08277 0
M  V30 3482 O 340.594 -2.39984 2.63223 0
M  V30 3483 O 339.453 -3.86376 3.86491 0
M  V30 3484 H 336.547 -0.609291 0.55919 0
M  V30 3485 H 339.093 -0.620379 1.57954 0
M  V30 3486 H 337.865 -1.73454 3.50756 0
M  V30 3487 H 337.488 -3.1077 2.48008 0
M  V30 3488 N 338.485 -1.33259 -0.841409 0
M  V30 3489 C 339.733 -1.24326 -1.59334 0
M  V30 3490 C 340.054 0.191564 -1.94057 0
M  V30 3491 O 339.324 1.11967 -1.60749 0
M  V30 3492 H 337.904 -0.457174 -0.590763 0
M  V30 3493 H 340.566 -1.66947 -1.00571 0
M  V30 3494 H 339.662 -1.8352 -2.52442 0
M  V30 3495 N 339.963 1.05934 -1.16686 0
M  V30 3496 C 341.374 1.60263 -0.957745 0
M  V30 3497 C 341.725 1.89789 0.49745 0
M  V30 3498 O 340.85 1.67401 1.37135 0
M  V30 3499 C 341.445 2.91172 -1.73218 0
M  V30 3500 C 340.004 3.42188 -1.56794 0
M  V30 3501 C 339.151 2.16028 -1.73859 0
M  V30 3502 H 342.102 0.888392 -1.31504 0
M  V30 3503 H 342.123 3.60744 -1.21014 0
M  V30 3504 H 341.635 2.6965 -2.79124 0
M  V30 3505 H 339.736 3.68762 -0.533437 0
M  V30 3506 H 339.849 4.17273 -2.35414 0
M  V30 3507 H 338.213 2.26426 -1.16633 0
M  V30 3508 H 338.996 1.96985 -2.81161 0
M  V30 3509 N 341.441 0.965919 1.2453 0
M  V30 3510 C 342.371 0.513476 2.27784 0
M  V30 3511 C 343.352 -0.445974 1.6415 0
M  V30 3512 O 344.537 -0.342485 1.91156 0
M  V30 3513 C 341.667 -0.198839 3.4673 0
M  V30 3514 C 340.621 0.676456 4.2262 0
M  V30 3515 C 339.947 -0.167248 5.34438 0
M  V30 3516 C 341.247 1.96017 4.84123 0
M  V30 3517 H 342.941 1.3765 2.65881 0
M  V30 3518 H 340.487 0.663321 1.27813 0
M  V30 3519 H 342.44 -0.526567 4.18097 0
M  V30 3520 H 341.164 -1.0962 3.07654 0
M  V30 3521 H 339.823 0.98743 3.53052 0
M  V30 3522 H 339.471 -1.0647 4.91603 0
M  V30 3523 H 339.171 0.415181 5.86131 0
M  V30 3524 H 340.695 -0.489688 6.08633 0
M  V30 3525 H 342.109 1.69814 5.47573 0
M  V30 3526 H 340.506 2.48918 5.4604 0
M  V30 3527 H 341.576 2.65622 4.05676 0
M  V30 3528 N 342.919 -1.39368 0.735821 0
M  V30 3529 C 344.165 -2.00794 0.284544 0
M  V30 3530 C 344.498 -1.58255 -1.12557 0
M  V30 3531 O 343.773 -0.811819 -1.76748 0
M  V30 3532 C 344.056 -3.58011 0.387337 0
M  V30 3533 C 343.909 -4.10566 1.83728 0
M  V30 3534 C 345.228 -4.395 -0.22975 0
M  V30 3535 H 342.347 -0.729501 0.104866 0
M  V30 3536 H 344.989 -1.65564 0.93213 0
M  V30 3537 H 343.139 -3.88154 -0.164006 0
M  V30 3538 H 344.811 -3.91139 2.44556 0
M  V30 3539 H 343.054 -3.64095 2.35833 0
M  V30 3540 H 343.725 -5.19702 1.86047 0
M  V30 3541 H 346.201 -4.15406 0.240257 0
M  V30 3542 H 345.077 -5.48752 -0.127485 0
M  V30 3543 H 345.338 -4.22062 -1.3159 0
M  V30 3544 N 344.397 -0.483516 -1.5 0
M  V30 3545 C 345.645 0.067027 -2.01989 0
M  V30 3546 C 345.966 1.3909 -1.36671 0
M  V30 3547 O 345.236 1.88978 -0.516152 0
M  V30 3548 H 343.816 0.0277606 -0.746484 0
M  V30 3549 H 346.478 -0.636773 -1.84204 0
M  V30 3550 H 345.574 0.209484 -3.11396 0
M  V30 3551 N 345.875 1.56104 -0.216619 0
M  V30 3552 C 347.123 1.97781 0.415593 0
M  V30 3553 C 347.444 1.10536 1.60645 0
M  V30 3554 O 346.714 0.181303 1.95059 0
M  V30 3555 H 345.294 0.730415 0.156534 0
M  V30 3556 H 347.956 1.92445 -0.308366 0
M  V30 3557 H 347.052 3.03072 0.74525 0
M  V30 3558 N 347.353 -0.0568162 1.57498 0
M  V30 3559 C 348.316 -1.05038 2.03715 0
M  V30 3560 C 349.316 -1.30709 0.936577 0
M  V30 3561 O 350.506 -1.26178 1.20103 0
M  V30 3562 C 347.638 -2.39034 2.43055 0
M  V30 3563 H 348.831 -0.651715 2.92733 0
M  V30 3564 H 346.384 -0.302947 1.53336 0
M  V30 3565 H 347.119 -2.83703 1.57108 0
M  V30 3566 H 346.904 -2.21739 3.2338 0
M  V30 3567 H 348.394 -3.10421 2.79336 0
M  V30 3568 N 348.832 -1.54138 -0.328536 0
M  V30 3569 C 350.057 -1.76378 -1.09112 0
M  V30 3570 C 350.482 -0.508596 -1.81094 0
M  V30 3571 O 349.84 0.539598 -1.73084 0
M  V30 3572 C 349.888 -2.95358 -2.06872 0
M  V30 3573 O 348.992 -2.66556 -3.14677 0
M  V30 3574 H 348.333 -0.584614 -0.314838 0
M  V30 3575 H 350.863 -2.01146 -0.374348 0
M  V30 3576 H 350.873 -3.22566 -2.4983 0
M  V30 3577 H 349.548 -3.86385 -1.5388 0
M  V30 3578 H 348.125 -2.50282 -2.7643 0
M  V30 3579 N 350.31 0.590341 -1.46126 0
M  V30 3580 C 351.24 1.71032 -1.58966 0
M  V30 3581 C 352.221 1.64302 -0.440335 0
M  V30 3582 O 353.406 1.82436 -0.665634 0
M  V30 3583 C 350.536 3.09665 -1.57241 0
M  V30 3584 C 349.49 3.31221 -2.71066 0
M  V30 3585 C 348.816 4.70303 -2.54399 0
M  V30 3586 C 350.116 3.19796 -4.1295 0
M  V30 3587 H 351.81 1.60543 -2.52718 0
M  V30 3588 H 349.356 0.770933 -1.21625 0
M  V30 3589 H 351.309 3.87831 -1.64819 0
M  V30 3590 H 350.033 3.21036 -0.600289 0
M  V30 3591 H 348.692 2.55452 -2.62944 0
M  V30 3592 H 348.34 4.78429 -1.55288 0
M  V30 3593 H 348.04 4.85679 -3.30741 0
M  V30 3594 H 349.564 5.50647 -2.63857 0
M  V30 3595 H 350.978 3.87815 -4.22223 0
M  V30 3596 H 349.375 3.46696 -4.89818 0
M  V30 3597 H 350.445 2.16983 -4.33643 0
M  V30 3598 N 351.788 1.33704 0.83433 0
M  V30 3599 C 352.698 1.26382 1.97648 0
M  V30 3600 C 353.714 0.173548 1.73132 0
M  V30 3601 O 354.89 0.397962 1.97429 0
M  V30 3602 C 351.955 1.00769 3.31733 0
M  V30 3603 C 351.016 2.1884 3.69334 0
M  V30 3604 C 350.249 1.9444 4.9702 0
M  V30 3605 O 350.472 0.896961 5.63303 0
M  V30 3606 O 349.406 2.81093 5.32231 0
M  V30 3607 H 353.232 2.22444 2.06767 0
M  V30 3608 H 350.817 1.13795 0.968037 0
M  V30 3609 H 352.699 0.882186 4.12062 0
M  V30 3610 H 351.374 0.0773783 3.23608 0
M  V30 3611 H 350.281 2.36946 2.89495 0
M  V30 3612 H 351.614 3.10221 3.82131 0
M  V30 3613 N 353.266 -1.05314 1.17247 0
M  V30 3614 C 354.677 -1.59753 0.96623 0
M  V30 3615 C 355.028 -1.9005 -0.487378 0
M  V30 3616 O 354.153 -1.68126 -1.36245 0
M  V30 3617 C 354.748 -2.90249 1.74759 0
M  V30 3618 C 353.307 -3.41352 1.58606 0
M  V30 3619 C 352.454 -2.15103 1.75002 0
M  V30 3620 H 355.405 -0.881406 1.31973 0
M  V30 3621 H 355.426 -3.60097 1.22925 0
M  V30 3622 H 354.938 -2.68166 2.8055 0
M  V30 3623 H 353.039 -3.68474 0.552985 0
M  V30 3624 H 353.152 -4.16019 2.37624 0
M  V30 3625 H 351.516 -2.25804 1.17833 0
M  V30 3626 H 352.299 -1.95491 2.82202 0
M  V30 3627 N 354.744 -0.972509 -1.24016 0
M  V30 3628 C 355.707 -0.511403 -2.23422 0
M  V30 3629 C 356.707 0.394679 -1.55881 0
M  V30 3630 O 357.897 0.189469 -1.73167 0
M  V30 3631 C 355.029 0.258769 -3.39916 0
M  V30 3632 H 356.222 -1.39024 -2.6573 0
M  V30 3633 H 353.775 -0.757585 -1.36713 0
M  V30 3634 H 354.51 1.1545 -3.03054 0
M  V30 3635 H 354.295 -0.391522 -3.9014 0
M  V30 3636 H 355.785 0.570244 -4.13688 0
M  V30 3637 N 356.222 1.38976 -0.743202 0
M  V30 3638 C 357.447 2.05161 -0.303936 0
M  V30 3639 C 357.872 1.55677 1.05576 0
M  V30 3640 O 357.23 0.704131 1.67068 0
M  V30 3641 C 357.278 3.59138 -0.324373 0
M  V30 3642 O 356.382 4.06668 0.685204 0
M  V30 3643 H 355.723 0.649815 -0.136518 0
M  V30 3644 H 358.253 1.77852 -1.01142 0
M  V30 3645 H 358.263 4.07639 -0.171618 0
M  V30 3646 H 356.938 3.94515 -1.31647 0
M  V30 3647 H 355.515 3.69561 0.497913 0
M  V30 3648 N 357.7 0.491464 1.49741 0
M  V30 3649 C 358.947 -0.0564256 2.02421 0
M  V30 3650 C 359.275 -1.37872 1.37192 0
M  V30 3651 O 358.53 -1.89375 0.493508 0
M  V30 3652 C 358.829 -0.267329 3.56399 0
M  V30 3653 C 358.495 0.975775 4.40215 0
M  V30 3654 C 357.157 1.31655 4.62839 0
M  V30 3655 C 359.509 1.80251 4.89039 0
M  V30 3656 C 356.837 2.48375 5.31532 0
M  V30 3657 C 359.189 2.96116 5.59015 0
M  V30 3658 C 357.853 3.30585 5.79888 0
M  V30 3659 H 357.123 -0.0206476 0.740712 0
M  V30 3660 H 359.77 0.649686 1.80143 0
M  V30 3661 H 358.075 -1.05588 3.77304 0
M  V30 3662 H 359.772 -0.705549 3.94744 0
M  V30 3663 H 356.362 0.700315 4.2284 0
M  V30 3664 H 360.546 1.55239 4.71396 0
M  V30 3665 H 355.802 2.7533 5.45897 0
M  V30 3666 H 359.976 3.60509 5.95824 0
M  V30 3667 H 357.603 4.21132 6.32892 0
M  V30 3668 N 359.178 -1.55987 0.224894 0
M  V30 3669 C 360.108 -2.23426 -0.678457 0
M  V30 3670 C 361.089 -1.20709 -1.19847 0
M  V30 3671 O 362.274 -1.49304 -1.24186 0
M  V30 3672 C 359.404 -2.91676 -1.88527 0
M  V30 3673 C 358.358 -4.00893 -1.49896 0
M  V30 3674 C 357.684 -4.56455 -2.78483 0
M  V30 3675 C 358.984 -5.17769 -0.686461 0
M  V30 3676 H 360.678 -2.99175 -0.116173 0
M  V30 3677 H 358.224 -1.43897 -0.054436 0
M  V30 3678 H 360.177 -3.37547 -2.5227 0
M  V30 3679 H 358.901 -2.1338 -2.47258 0
M  V30 3680 H 357.56 -3.55758 -0.884985 0
M  V30 3681 H 357.208 -3.74886 -3.35365 0
M  V30 3682 H 356.908 -5.30169 -2.53368 0
M  V30 3683 H 358.432 -5.05047 -3.43162 0
M  V30 3684 H 359.846 -5.60001 -1.22767 0
M  V30 3685 H 358.243 -5.97735 -0.532259 0
M  V30 3686 H 359.313 -4.83932 0.306196 0
M  V30 3687 N 360.656 0.0484629 -1.57525 0
M  V30 3688 C 361.588 1.08222 -2.02041 0
M  V30 3689 C 362.601 1.33621 -0.930012 0
M  V30 3690 O 363.79 1.3145 -1.20761 0
M  V30 3691 C 360.89 2.42818 -2.36416 0
M  V30 3692 C 360.063 2.37049 -3.67596 0
M  V30 3693 C 359.122 3.53937 -3.89378 0
M  V30 3694 O 358.148 3.34308 -4.60681 0
M  V30 3695 N 359.35 4.75126 -3.3352 0
M  V30 3696 H 362.115 0.702946 -2.9134 0
M  V30 3697 H 359.676 0.236745 -1.6016 0
M  V30 3698 H 361.668 3.197 -2.48141 0
M  V30 3699 H 360.238 2.72661 -1.52888 0
M  V30 3700 H 359.458 1.45395 -3.66407 0
M  V30 3701 H 360.746 2.30318 -4.53686 0
M  V30 3702 H 360.144 4.93976 -2.75688 0
M  V30 3703 H 358.701 5.49439 -3.50656 0
M  V30 3704 N 362.134 1.5431 0.320358 0
M  V30 3705 C 363.064 1.86912 1.3995 0
M  V30 3706 C 364.045 0.726211 1.53819 0
M  V30 3707 O 365.23 0.980233 1.67646 0
M  V30 3708 C 362.36 2.09932 2.7667 0
M  V30 3709 C 361.314 3.25776 2.77586 0
M  V30 3710 C 360.64 3.34173 4.17412 0
M  V30 3711 C 361.94 4.6335 2.41048 0
M  V30 3712 H 363.634 2.77292 1.12914 0
M  V30 3713 H 361.18 1.33421 0.541738 0
M  V30 3714 H 363.133 2.31324 3.52232 0
M  V30 3715 H 361.857 1.16304 3.0519 0
M  V30 3716 H 360.516 3.04276 2.04479 0
M  V30 3717 H 360.164 2.38098 4.43078 0
M  V30 3718 H 359.864 4.12033 4.18931 0
M  V30 3719 H 361.388 3.57803 4.94782 0
M  V30 3720 H 362.802 4.84602 3.06324 0
M  V30 3721 H 361.199 5.43782 2.53813 0
M  V30 3722 H 362.269 4.65381 1.36193 0
M  V30 3723 N 363.613 -0.582584 1.46437 0
M  V30 3724 C 364.859 -1.34278 1.51978 0
M  V30 3725 C 365.192 -1.93446 0.170973 0
M  V30 3726 O 364.467 -1.76481 -0.817608 0
M  V30 3727 C 364.75 -2.47203 2.61845 0
M  V30 3728 C 364.603 -1.93069 4.06257 0
M  V30 3729 C 365.922 -3.49247 2.67795 0
M  V30 3730 H 363.041 -0.486876 0.553282 0
M  V30 3731 H 365.683 -0.654437 1.78374 0
M  V30 3732 H 363.833 -3.0592 2.39469 0
M  V30 3733 H 365.505 -1.38808 4.3992 0
M  V30 3734 H 363.748 -1.23898 4.1573 0
M  V30 3735 H 364.419 -2.74586 4.7886 0
M  V30 3736 H 366.895 -3.00411 2.8791 0
M  V30 3737 H 365.771 -4.25719 3.46489 0
M  V30 3738 H 366.032 -4.06482 1.73852 0
M  V30 3739 N 365.091 -1.34144 -0.827227 0
M  V30 3740 C 366.001 -1.27428 -1.96975 0
M  V30 3741 C 367.017 -0.182728 -1.73038 0
M  V30 3742 O 368.193 -0.408426 -1.97215 0
M  V30 3743 C 365.258 -1.02526 -3.31194 0
M  V30 3744 C 364.319 -2.20796 -3.68168 0
M  V30 3745 C 363.552 -1.97073 -4.95982 0
M  V30 3746 O 363.775 -0.926822 -5.6282 0
M  V30 3747 O 362.709 -2.83912 -5.30733 0
M  V30 3748 H 366.535 -2.23537 -2.05584 0
M  V30 3749 H 364.12 -1.14307 -0.961989 0
M  V30 3750 H 366.002 -0.904026 -4.11589 0
M  V30 3751 H 364.677 -0.0945389 -3.23562 0
M  V30 3752 H 363.584 -2.38477 -2.88235 0
M  V30 3753 H 364.917 -3.12243 -3.8048 0
M  V30 3754 N 366.569 1.04691 -1.17803 0
M  V30 3755 C 367.532 2.10724 -0.901545 0
M  V30 3756 C 368.532 1.6042 0.110437 0
M  V30 3757 O 369.722 1.7377 -0.122303 0
M  V30 3758 C 366.854 3.39084 -0.351409 0
M  V30 3759 H 368.047 2.36686 -1.84174 0
M  V30 3760 H 365.6 1.21015 -0.98919 0
M  V30 3761 H 366.335 3.18782 0.59569 0
M  V30 3762 H 366.12 3.76909 -1.08083 0
M  V30 3763 H 367.61 4.17227 -0.176451 0
M  V30 3764 N 368.047 0.979072 1.23499 0
M  V30 3765 C 369.295 0.645941 1.91499 0
M  V30 3766 C 369.616 -0.822948 1.76784 0
M  V30 3767 O 368.886 -1.58854 1.14639 0
M  V30 3768 H 367.466 0.235919 0.708767 0
M  V30 3769 H 370.128 1.2426 1.50152 0
M  V30 3770 H 369.224 0.896411 2.9895 0
M  V30 3771 N 369.525 -1.3858 0.750561 0
M  V30 3772 C 370.941 -1.53759 0.427824 0
M  V30 3773 C 371.141 -1.71401 -1.05943 0
M  V30 3774 O 370.197 -1.72331 -1.84549 0
M  V30 3775 C 371.51 -2.74642 1.22443 0
M  V30 3776 C 373.058 -2.88489 1.2142 0
M  V30 3777 C 373.533 -4.12329 1.9937 0
M  V30 3778 N 375.024 -4.194 1.96616 0
M  V30 3779 C 375.759 -5.14209 2.53727 0
M  V30 3780 N 375.255 -6.14709 3.19539 0
M  V30 3781 N 377.048 -5.06537 2.43673 0
M  V30 3782 H 369.199 -1.25377 1.71447 0
M  V30 3783 H 371.462 -0.608844 0.726645 0
M  V30 3784 H 371.168 -2.68 2.27747 0
M  V30 3785 H 371.042 -3.67745 0.839273 0
M  V30 3786 H 373.429 -2.94614 0.169232 0
M  V30 3787 H 373.51 -1.96406 1.63885 0
M  V30 3788 H 373.154 -4.06966 3.03877 0
M  V30 3789 H 373.084 -5.03486 1.54302 0
M  V30 3790 H 375.575 -3.47421 1.48684 0
M  V30 3791 H 375.888 -6.8354 3.60545 0
M  V30 3792 H 374.233 -6.1505 3.23633 0
M  V30 3793 H 377.424 -4.26962 1.91889 0
M  V30 3794 H 377.597 -5.80245 2.88479 0
M  V30 3795 N 371.003 -0.499398 -1.49478 0
M  V30 3796 C 371.953 0.299103 -2.2603 0
M  V30 3797 C 372.937 0.936934 -1.30807 0
M  V30 3798 O 374.129 0.844798 -1.55538 0
M  V30 3799 C 371.258 1.36391 -3.15044 0
M  V30 3800 C 370.344 0.732398 -4.17728 0
M  V30 3801 N 370.735 -0.164028 -5.05534 0
M  V30 3802 C 369.033 0.993162 -4.34801 0
M  V30 3803 C 369.734 -0.525345 -5.79323 0
M  V30 3804 N 368.71 0.106348 -5.43496 0
M  V30 3805 H 372.512 -0.391003 -2.91287 0
M  V30 3806 H 370.026 -0.31537 -1.59308 0
M  V30 3807 H 372.023 1.94939 -3.68516 0
M  V30 3808 H 370.683 2.05571 -2.51338 0
M  V30 3809 H 371.694 -0.534736 -5.15132 0
M  V30 3810 H 368.371 1.67783 -3.82302 0
M  V30 3811 H 369.761 -1.25862 -6.60006 0
M  V30 3812 N 372.481 1.55866 -0.233164 0
M  V30 3813 C 373.391 2.24431 0.683217 0
M  V30 3814 C 374.407 1.2558 1.2044 0
M  V30 3815 O 375.583 1.58422 1.24356 0
M  V30 3816 C 372.648 2.91979 1.86947 0
M  V30 3817 C 371.709 4.06204 1.38912 0
M  V30 3818 C 370.942 4.70522 2.51883 0
M  V30 3819 O 371.165 4.33865 3.70293 0
M  V30 3820 O 370.099 5.59296 2.22423 0
M  V30 3821 H 373.925 3.03426 0.129059 0
M  V30 3822 H 371.51 1.494 -0.0022283 0
M  V30 3823 H 373.392 3.34573 2.56201 0
M  V30 3824 H 372.067 2.15935 2.41151 0
M  V30 3825 H 370.974 3.68155 0.664259 0
M  V30 3826 H 372.307 4.84025 0.893328 0
M  V30 3827 O 373.998 0.0973059 1.61207 0
M  V30 3828 H 374.689 -0.50491 1.87004 0
M  V30 END ATOM
M  V30 BEGIN BOND
M  V30 END BOND
M  V30 END CTAB
M  END
$$$$
