drugbank_target|P29422 Catalase (DB02235)
 OpenBabel12092119593D

  0  0  0     0  0            999 V3000
M  V30 BEGIN CTAB
M  V30 COUNTS 7810 7920 0 0 0
M  V30 BEGIN ATOM
M  V30 1 H -0.908 1.98254 -0.117106 0
M  V30 2 N 0 1.576 0 0
M  V30 3 C 0.933 2.03868 1.02534 0
M  V30 4 C 1.911 0.928543 1.3348 0
M  V30 5 O 3.095 1.19667 1.45644 0
M  V30 6 C 0.222 2.43627 2.35294 0
M  V30 7 C -0.732 3.65373 2.2001 0
M  V30 8 S 0.101 5.13292 1.52614 0
M  V30 9 C 1.257 5.56322 2.86805 0
M  V30 10 H 1.49 2.90518 0.631377 0
M  V30 11 H -0.977 1.52953 0.210867 0
M  V30 12 H 0.981 2.67203 3.11629 0
M  V30 13 H -0.358 1.57376 2.7183 0
M  V30 14 H -1.165 3.90944 3.18086 0
M  V30 15 H -1.563 3.418 1.51819 0
M  V30 16 H 0.729 5.58782 3.83104 0
M  V30 17 H 1.672 6.56266 2.65933 0
M  V30 18 H 2.08 4.83886 2.90714 0
M  V30 19 N 1.4781 -0.272755 1.55222 0
M  V30 20 C 2.3881 -1.35918 1.91216 0
M  V30 21 C 3.4041 -1.54026 0.809436 0
M  V30 22 O 4.5801 -1.68148 1.10852 0
M  V30 23 C 1.6451 -2.69834 2.17693 0
M  V30 24 C 0.7061 -2.6047 3.41253 0
M  V30 25 C -0.0609 -3.88 3.66458 0
M  V30 26 O 0.1621 -4.88693 2.94169 0
M  V30 27 O -0.9039 -3.88189 4.59992 0
M  V30 28 H 2.9221 -1.0839 2.83699 0
M  V30 29 H 0.5071 -0.471301 1.41771 0
M  V30 30 H 2.3891 -3.49017 2.36147 0
M  V30 31 H 1.0641 -2.97148 1.28392 0
M  V30 32 H -0.0289 -1.79663 3.28134 0
M  V30 33 H 1.3041 -2.38106 4.30774 0
M  V30 34 N 2.9562 -1.48159 -0.537278 0
M  V30 35 C 3.9062 -1.5854 -1.63857 0
M  V30 36 C 4.8902 -0.442969 -1.54682 0
M  V30 37 O 6.0822 -0.69401 -1.62827 0
M  V30 38 C 3.2112 -1.62144 -3.02596 0
M  V30 39 C 2.2972 -2.81841 -3.16901 0
M  V30 40 N 2.6882 -4.06337 -3.01204 0
M  V30 41 C 0.9862 -2.79021 -3.47942 0
M  V30 42 C 1.6872 -4.86606 -3.18731 0
M  V30 43 N 0.6632 -4.19288 -3.45974 0
M  V30 44 H 4.4652 -2.5255 -1.50319 0
M  V30 45 H 1.9792 -1.4443 -0.742555 0
M  V30 46 H 3.9762 -1.67674 -3.81695 0
M  V30 47 H 2.6362 -0.69245 -3.17231 0
M  V30 48 H 3.6472 -4.36888 -2.78117 0
M  V30 49 H 0.3242 -1.95347 -3.6898 0
M  V30 50 H 1.7142 -5.95385 -3.11394 0
M  V30 51 N 4.4343 0.785586 -1.36625 0
M  V30 52 C 5.3663 1.90711 -1.2713 0
M  V30 53 C 6.3793 1.61688 -0.189986 0
M  V30 54 O 7.5683 1.72864 -0.445014 0
M  V30 55 C 4.6683 3.25611 -0.939713 0
M  V30 56 C 3.8413 3.82385 -2.12369 0
M  V30 57 C 2.9003 4.95732 -1.76456 0
M  V30 58 O 1.9263 5.12047 -2.48589 0
M  V30 59 N 3.1283 5.76258 -0.700492 0
M  V30 60 H 5.8933 1.99376 -2.23762 0
M  V30 61 H 3.4543 0.964041 -1.30069 0
M  V30 62 H 5.4463 3.98937 -0.680554 0
M  V30 63 H 4.0163 3.12538 -0.0624074 0
M  V30 64 H 3.2363 3.01001 -2.54543 0
M  V30 65 H 4.5243 4.17047 -2.9146 0
M  V30 66 H 3.9223 5.65609 -0.101624 0
M  V30 67 H 2.4793 6.4987 -0.501165 0
M  V30 68 N 5.9124 1.20967 1.01018 0
M  V30 69 C 6.8594 0.964281 2.09691 0
M  V30 70 C 7.8294 -0.107853 1.65749 0
M  V30 71 O 9.0144 0.0381987 1.90762 0
M  V30 72 C 6.1544 0.52943 3.41015 0
M  V30 73 C 5.2674 1.67043 3.98398 0
M  V30 74 C 4.4024 1.18525 5.17808 0
M  V30 75 C 3.4414 2.29892 5.67288 0
M  V30 76 N 2.5784 1.82546 6.77954 0
M  V30 77 H 7.4184 1.89463 2.30017 0
M  V30 78 H 4.9554 0.944289 1.1279 0
M  V30 79 H 6.9134 0.258588 4.16398 0
M  V30 80 H 5.5434 -0.363919 3.20742 0
M  V30 81 H 4.5954 2.05603 3.20049 0
M  V30 82 H 5.9074 2.50877 4.31117 0
M  V30 83 H 5.0614 0.870762 6.00419 0
M  V30 84 H 3.8004 0.316887 4.86669 0
M  V30 85 H 2.8054 2.6215 4.83278 0
M  V30 86 H 4.0304 3.17216 6.00459 0
M  V30 87 H 1.9764 0.980454 6.48632 0
M  V30 88 H 1.8934 2.59956 7.09901 0
M  V30 89 H 3.1614 1.54115 7.64113 0
M  V30 90 N 7.3905 -1.2043 1.01659 0
M  V30 91 C 8.6185 -1.93777 0.725132 0
M  V30 92 C 9.0335 -1.74772 -0.714166 0
M  V30 93 O 8.3905 -1.06169 -1.4844 0
M  V30 94 C 8.4415 -3.45876 1.05129 0
M  V30 95 O 8.1625 -3.6426 2.43406 0
M  V30 96 C 9.6635 -4.36368 0.780891 0
M  V30 97 H 6.8835 -0.615901 0.266284 0
M  V30 98 H 9.4275 -1.52922 1.35776 0
M  V30 99 H 7.5825 -3.8461 0.464065 0
M  V30 100 H 7.9965 -4.58246 2.55169 0
M  V30 101 H 9.4705 -5.41743 1.05918 0
M  V30 102 H 9.9475 -4.38275 -0.284937 0
M  V30 103 H 10.5535 -4.03296 1.35027 0
M  V30 104 N 8.8686 -0.792821 -1.36206 0
M  V30 105 C 10.0966 -0.378825 -2.03402 0
M  V30 106 C 10.5116 1.00586 -1.59774 0
M  V30 107 O 9.8686 1.64574 -0.788764 0
M  V30 108 C 9.9196 -0.43683 -3.58851 0
M  V30 109 O 9.6406 -1.76691 -4.00889 0
M  V30 110 C 11.1416 -0.0138943 -4.43298 0
M  V30 111 H 8.3616 -0.155673 -0.652692 0
M  V30 112 H 10.9056 -1.07261 -1.74113 0
M  V30 113 H 9.0606 0.208575 -3.86838 0
M  V30 114 H 9.4746 -1.72011 -4.95492 0
M  V30 115 H 10.9486 -0.105615 -5.51899 0
M  V30 116 H 11.4256 1.03915 -4.2673 0
M  V30 117 H 12.0316 -0.63192 -4.20579 0
M  V30 118 N 10.3467 1.47872 -0.545128 0
M  V30 119 C 11.7577 1.86384 -0.108581 0
M  V30 120 C 12.1087 1.45309 1.31832 0
M  V30 121 O 11.2337 0.850641 1.9898 0
M  V30 122 C 11.8287 3.38265 -0.190274 0
M  V30 123 C 10.3877 3.75914 0.191164 0
M  V30 124 C 9.5347 2.71926 -0.543273 0
M  V30 125 H 12.4857 1.39561 -0.755537 0
M  V30 126 H 12.5067 3.75831 0.594217 0
M  V30 127 H 12.0187 3.6813 -1.2289 0
M  V30 128 H 10.1197 3.51665 1.23136 0
M  V30 129 H 10.2327 4.78836 -0.158987 0
M  V30 130 H 8.5967 2.54697 0.0122495 0
M  V30 131 H 9.3797 3.04634 -1.58282 0
M  V30 132 N 11.8248 0.280983 1.55075 0
M  V30 133 C 12.7748 -0.618585 2.19448 0
M  V30 134 C 13.7588 -1.11401 1.16098 0
M  V30 135 O 14.9508 -1.0581 1.41891 0
M  V30 136 C 12.0798 -1.79951 2.92357 0
M  V30 137 C 11.1658 -1.321 4.03002 0
M  V30 138 N 11.5568 -0.559044 5.02701 0
M  V30 139 C 9.8548 -1.60346 4.16179 0
M  V30 140 C 10.5558 -0.306722 5.80891 0
M  V30 141 N 9.5318 -0.880825 5.36416 0
M  V30 142 H 13.3338 -0.0286638 2.93886 0
M  V30 143 H 10.8478 0.0848104 1.62178 0
M  V30 144 H 12.8448 -2.45531 3.36927 0
M  V30 145 H 11.5048 -2.39333 2.19431 0
M  V30 146 H 12.5158 -0.205827 5.17491 0
M  V30 147 H 9.1928 -2.20621 3.54447 0
M  V30 148 H 10.5828 0.30391 6.71212 0
M  V30 149 N 13.3029 -1.57598 0.00835791 0
M  V30 150 C 14.2659 -2.07884 -0.965242 0
M  V30 151 C 15.2659 -0.989825 -1.26725 0
M  V30 152 O 16.4559 -1.25218 -1.21104 0
M  V30 153 C 13.5879 -2.52731 -2.28779 0
M  V30 154 H 14.7809 -2.95178 -0.530112 0
M  V30 155 H 12.3339 -1.54458 -0.239283 0
M  V30 156 H 13.0689 -1.68705 -2.76964 0
M  V30 157 H 12.8539 -3.32272 -2.08177 0
M  V30 158 H 14.3439 -2.91933 -2.98605 0
M  V30 159 N 14.781 0.264519 -1.55364 0
M  V30 160 C 16.009 1.013 -1.80405 0
M  V30 161 C 16.424 1.79618 -0.581622 0
M  V30 162 O 15.781 1.76879 0.449468 0
M  V30 163 C 15.832 1.96487 -3.03439 0
M  V30 164 O 15.553 1.21341 -4.20961 0
M  V30 165 C 17.054 2.83079 -3.41147 0
M  V30 166 H 14.274 0.298875 -0.600762 0
M  V30 167 H 16.818 0.292736 -2.02394 0
M  V30 168 H 14.973 2.63965 -2.83551 0
M  V30 169 H 15.387 1.85573 -4.90574 0
M  V30 170 H 16.861 3.4565 -4.30384 0
M  V30 171 H 17.338 3.53286 -2.60932 0
M  V30 172 H 17.944 2.2108 -3.63323 0
M  V30 173 N 16.2591 1.48442 0.529413 0
M  V30 174 C 17.5071 1.56179 1.28267 0
M  V30 175 C 17.8281 0.237721 1.93546 0
M  V30 176 O 17.0981 -0.740779 1.81354 0
M  V30 177 H 15.6781 0.575367 0.476405 0
M  V30 178 H 18.3401 1.84909 0.61602 0
M  V30 179 H 17.4361 2.34312 2.06165 0
M  V30 180 N 17.7372 -0.778329 1.37039 0
M  V30 181 C 18.9622 -1.57248 1.35233 0
M  V30 182 C 19.3872 -1.87999 -0.0615568 0
M  V30 183 O 18.7452 -1.48734 -1.03672 0
M  V30 184 C 18.7932 -2.86353 2.19167 0
M  V30 185 O 17.8972 -3.80442 1.59178 0
M  V30 186 H 17.2382 -0.476569 0.462362 0
M  V30 187 H 19.7682 -0.963853 1.80474 0
M  V30 188 H 19.7782 -3.35519 2.32145 0
M  V30 189 H 18.4532 -2.63299 3.21942 0
M  V30 190 H 17.0302 -3.39067 1.55203 0
M  V30 191 N 19.2153 -1.21501 -1.00376 0
M  V30 192 C 20.4433 -1.059 -1.77744 0
M  V30 193 C 20.8583 0.391125 -1.84704 0
M  V30 194 O 20.2153 1.27133 -1.30933 0
M  V30 195 C 20.2663 -1.65111 -3.21591 0
M  V30 196 O 19.9873 -3.0445 -3.15027 0
M  V30 197 C 21.4883 -1.54637 -4.15454 0
M  V30 198 H 18.7083 -0.371825 -0.558558 0
M  V30 199 H 21.2523 -1.60865 -1.26264 0
M  V30 200 H 19.4073 -1.14235 -3.70175 0
M  V30 201 H 19.8213 -3.3278 -4.0541 0
M  V30 202 H 21.2953 -2.00808 -5.14179 0
M  V30 203 H 21.7723 -0.501022 -4.36333 0
M  V30 204 H 22.3783 -2.04767 -3.72761 0
M  V30 205 N 20.6934 1.19889 -1.02296 0
M  V30 206 C 22.1094 1.41462 -0.738954 0
M  V30 207 C 22.3094 1.89721 0.678846 0
M  V30 208 O 21.3654 2.07016 1.4457 0
M  V30 209 C 22.6784 2.43083 -1.77005 0
M  V30 210 C 24.2264 2.5684 -1.78892 0
M  V30 211 C 24.7014 3.61709 -2.80945 0
M  V30 212 N 26.1924 3.69199 -2.79725 0
M  V30 213 C 26.9274 4.50019 -3.55345 0
M  V30 214 N 26.4234 5.34592 -4.40662 0
M  V30 215 N 28.2164 4.44612 -3.43914 0
M  V30 216 H 20.3674 0.868827 -1.93817 0
M  V30 217 H 22.6304 0.44399 -0.837602 0
M  V30 218 H 22.3364 2.14636 -2.78612 0
M  V30 219 H 22.2104 3.4217 -1.58744 0
M  V30 220 H 24.5974 2.84614 -0.779674 0
M  V30 221 H 24.6784 1.57927 -2.01228 0
M  V30 222 H 24.3224 3.34678 -3.82038 0
M  V30 223 H 24.2524 4.60259 -2.5587 0
M  V30 224 H 26.7434 3.08794 -2.17842 0
M  V30 225 H 27.0564 5.93363 -4.95116 0
M  V30 226 H 25.4014 5.34073 -4.44737 0
M  V30 227 H 28.5924 3.7758 -2.76679 0
M  V30 228 H 28.7654 5.0736 -4.031 0
M  V30 229 N 22.1715 0.800033 1.35784 0
M  V30 230 C 23.1035 0.163596 2.28615 0
M  V30 231 C 24.1165 -0.633317 1.49976 0
M  V30 232 O 25.3055 -0.466754 1.72289 0
M  V30 233 C 22.4055 -0.790958 3.29541 0
M  V30 234 C 21.5785 -0.0418255 4.3738 0
M  V30 235 C 20.6375 -0.91389 5.18203 0
M  V30 236 O 19.6635 -0.367234 5.68014 0
M  V30 237 N 20.8655 -2.23682 5.35674 0
M  V30 238 H 23.6305 0.96105 2.83873 0
M  V30 239 H 21.1915 0.654894 1.48063 0
M  V30 240 H 23.1835 -1.37844 3.80501 0
M  V30 241 H 21.7535 -1.48925 2.74846 0
M  V30 242 H 20.9735 0.726813 3.87442 0
M  V30 243 H 22.2615 0.474719 5.06581 0
M  V30 244 H 21.6595 -2.70497 4.96838 0
M  V30 245 H 20.2165 -2.77369 5.89839 0
M  V30 246 N 23.6496 -1.47581 0.552962 0
M  V30 247 C 24.5976 -2.31648 -0.21023 0
M  V30 248 C 25.5916 -1.42663 -0.913432 0
M  V30 249 O 26.7976 -1.5945 -0.835201 0
M  V30 250 H 23.1726 -0.746989 -0.0866676 0
M  V30 251 H 25.1436 -2.93869 0.518051 0
M  V30 252 C 23.8926 -3.25226 -1.22976 0
M  V30 253 H 23.2156 -3.93658 -0.698077 0
M  V30 254 H 24.6556 -3.86889 -1.73473 0
M  V30 255 C 23.1146 -2.48448 -2.27542 0
M  V30 256 O 23.6446 -2.22585 -3.34393 0
M  V30 257 N 21.8506 -2.09532 -2.01357 0
M  V30 258 H 21.3976 -2.30765 -1.14478 0
M  V30 259 H 21.3556 -1.58476 -2.71538 0
M  V30 260 N 25.1277 -0.289203 -1.54924 0
M  V30 261 C 26.3757 0.322879 -1.99504 0
M  V30 262 C 26.6967 1.55313 -1.1791 0
M  V30 263 O 25.9667 1.94001 -0.272097 0
M  V30 264 H 24.5467 0.122291 -0.736922 0
M  V30 265 H 27.2087 -0.397802 -1.90797 0
M  V30 266 H 26.3047 0.603061 -3.06218 0
M  V30 267 N 26.6058 1.57591 -0.0167156 0
M  V30 268 C 27.5688 2.08393 0.954204 0
M  V30 269 C 28.5688 0.996531 1.26198 0
M  V30 270 O 29.7588 1.25858 1.20438 0
M  V30 271 C 26.8908 2.5394 2.27436 0
M  V30 272 H 28.0838 2.95455 0.514451 0
M  V30 273 H 25.6368 1.54582 0.231089 0
M  V30 274 H 26.3718 1.70171 2.76066 0
M  V30 275 H 26.1568 3.33371 2.06412 0
M  V30 276 H 27.6468 2.93512 2.97053 0
M  V30 277 N 28.0839 -0.256276 1.55502 0
M  V30 278 C 29.4949 -0.826068 1.67431 0
M  V30 279 C 29.8459 -1.86396 0.612446 0
M  V30 280 O 28.9709 -2.15031 -0.243025 0
M  V30 281 C 29.5659 -1.50512 3.03532 0
M  V30 282 C 28.1249 -2.02273 3.17431 0
M  V30 283 C 27.2719 -0.870548 2.63281 0
M  V30 284 H 30.2229 -0.0322728 1.58667 0
M  V30 285 H 30.2439 -2.37279 2.97454 0
M  V30 286 H 29.7559 -0.749484 3.80794 0
M  V30 287 H 27.8569 -2.80746 2.44974 0
M  V30 288 H 27.9699 -2.22655 4.24219 0
M  V30 289 H 26.3339 -1.26851 2.20864 0
M  V30 290 H 27.1169 -0.128149 3.43061 0
M  V30 291 N 29.562 -1.4872 -0.521534 0
M  V30 292 C 30.525 -1.63379 -1.60748 0
M  V30 293 C 31.525 -0.50661 -1.52611 0
M  V30 294 O 32.715 -0.772601 -1.5613 0
M  V30 295 C 29.847 -1.61192 -3.00383 0
M  V30 296 H 31.04 -2.60217 -1.49087 0
M  V30 297 H 28.593 -1.37444 -0.744235 0
M  V30 298 H 29.328 -0.65863 -3.17541 0
M  V30 299 H 29.113 -2.43032 -3.07698 0
M  V30 300 H 30.603 -1.7466 -3.7932 0
M  V30 301 N 31.0401 0.771051 -1.3745 0
M  V30 302 C 32.2861 1.5319 -1.32894 0
M  V30 303 C 32.6191 1.94008 0.0862511 0
M  V30 304 O 31.8941 1.64124 1.04373 0
M  V30 305 C 32.1771 2.79648 -2.26868 0
M  V30 306 C 32.0301 2.45079 -3.77169 0
M  V30 307 C 33.3491 3.81583 -2.19277 0
M  V30 308 H 30.4681 0.555744 -0.484064 0
M  V30 309 H 33.1101 0.884492 -1.68157 0
M  V30 310 H 31.2601 3.34891 -1.96926 0
M  V30 311 H 32.9321 1.95745 -4.1771 0
M  V30 312 H 31.1751 1.77767 -3.95704 0
M  V30 313 H 31.8461 3.35478 -4.38359 0
M  V30 314 H 34.3221 3.35835 -2.45671 0
M  V30 315 H 33.1981 4.67787 -2.87171 0
M  V30 316 H 33.4591 4.25897 -1.18592 0
M  V30 317 N 32.5182 1.22032 0.997298 0
M  V30 318 C 33.7432 1.06921 1.77715 0
M  V30 319 C 34.1682 -0.376226 1.84299 0
M  V30 320 O 33.5262 -1.27165 1.29223 0
M  V30 321 C 33.5742 1.67996 3.19076 0
M  V30 322 O 32.6782 0.930653 4.01762 0
M  V30 323 H 32.0192 0.375814 0.547412 0
M  V30 324 H 34.5492 1.61737 1.25309 0
M  V30 325 H 34.5592 1.72538 3.69723 0
M  V30 326 H 33.2342 2.73182 3.13599 0
M  V30 327 H 31.8112 0.960917 3.60307 0
M  V30 328 N 33.9963 -1.19345 1.0293 0
M  V30 329 C 35.2733 -1.84811 0.640642 0
M  V30 330 C 35.6533 -1.91855 -0.88062 0
M  V30 331 O 35.0013 -1.43587 -1.7775 0
M  V30 332 C 35.2113 -3.23755 1.30321 0
M  V30 333 C 36.5593 -3.99912 1.42673 0
M  V30 334 O 37.5833 -3.33155 1.26041 0
M  V30 335 O 36.4423 -5.19494 1.6967 0
M  V30 336 H 33.5363 -0.796443 0.222726 0
M  V30 337 H 36.0823 -1.26831 1.12748 0
M  V30 338 H 34.8543 -3.13466 2.34211 0
M  V30 339 H 34.4773 -3.89381 0.804261 0
M  V30 340 N 35.4744 -0.807222 -1.35358 0
M  V30 341 C 36.8904 -0.491038 -1.51858 0
M  V30 342 C 37.0904 0.987648 -1.75635 0
M  V30 343 O 36.1464 1.77265 -1.79815 0
M  V30 344 C 37.4594 -1.33695 -2.69344 0
M  V30 345 C 39.0074 -1.33246 -2.83222 0
M  V30 346 C 39.4824 -2.1625 -4.03733 0
M  V30 347 N 40.9734 -2.1379 -4.10911 0
M  V30 348 C 41.7084 -2.74772 -5.03277 0
M  V30 349 N 41.2044 -3.44684 -6.0097 0
M  V30 350 N 42.9974 -2.6441 -4.96028 0
M  V30 351 H 35.1484 -1.76485 -1.18181 0
M  V30 352 H 37.4114 -0.751199 -0.578276 0
M  V30 353 H 37.1174 -2.38634 -2.58354 0
M  V30 354 H 36.9914 -0.990618 -3.6396 0
M  V30 355 H 39.3784 -0.290911 -2.93663 0
M  V30 356 H 39.4594 -1.71866 -1.89461 0
M  V30 357 H 39.1034 -3.20445 -3.94052 0
M  V30 358 H 39.0334 -1.74989 -4.96675 0
M  V30 359 H 41.5244 -1.62923 -3.40976 0
M  V30 360 H 41.8374 -3.88501 -6.68047 0
M  V30 361 H 40.1824 -3.48788 -6.01142 0
M  V30 362 H 43.3734 -2.0938 -4.18662 0
M  V30 363 H 43.5464 -3.12225 -5.6782 0
M  V30 364 N 36.9525 1.47285 -0.560781 0
M  V30 365 C 37.8845 2.28118 0.222438 0
M  V30 366 C 38.8975 1.37219 0.876056 0
M  V30 367 O 40.0865 1.62011 0.749307 0
M  V30 368 C 37.1865 3.1159 1.33285 0
M  V30 369 C 36.3595 4.30473 0.77534 0
M  V30 370 C 35.4185 4.95513 1.77069 0
M  V30 371 O 34.4445 5.53792 1.31539 0
M  V30 372 N 35.6465 4.90531 3.10418 0
M  V30 373 H 38.4115 2.95976 -0.470958 0
M  V30 374 H 35.9725 1.56955 -0.39709 0
M  V30 375 H 37.9645 3.51967 1.99752 0
M  V30 376 H 36.5345 2.45951 1.92943 0
M  V30 377 H 35.7545 3.94144 -0.0662113 0
M  V30 378 H 37.0425 5.07362 0.382272 0
M  V30 379 H 36.4405 4.44389 3.5005 0
M  V30 380 H 34.9975 5.34917 3.72434 0
M  V30 381 N 38.4306 0.297415 1.54768 0
M  V30 382 C 39.6556 -0.318435 2.04941 0
M  V30 383 C 40.0806 -1.4701 1.17345 0
M  V30 384 O 39.4386 -1.80436 0.176758 0
M  V30 385 C 39.4866 -0.755749 3.52592 0
M  V30 386 O 38.5906 -1.86088 3.68028 0
M  V30 387 H 37.9316 -0.062421 0.661059 0
M  V30 388 H 40.4616 0.438215 1.99852 0
M  V30 389 H 40.4716 -1.04552 3.94376 0
M  V30 390 H 39.1466 0.0867233 4.1581 0
M  V30 391 H 37.7236 -1.57193 3.38149 0
M  V30 392 N 39.9087 -1.5758 0.0250728 0
M  V30 393 C 40.8387 -2.13007 -0.956575 0
M  V30 394 C 41.8197 -1.0452 -1.342 0
M  V30 395 O 43.0047 -1.32332 -1.42133 0
M  V30 396 C 40.1347 -2.65386 -2.24026 0
M  V30 397 C 39.0887 -3.78623 -1.99571 0
M  V30 398 C 38.4147 -4.17414 -3.3417 0
M  V30 399 C 39.7147 -5.04867 -1.33814 0
M  V30 400 H 41.4087 -2.9528 -0.494991 0
M  V30 401 H 38.9547 -1.42042 -0.236651 0
M  V30 402 H 40.9077 -3.02794 -2.93076 0
M  V30 403 H 39.6317 -1.80268 -2.72343 0
M  V30 404 H 38.2907 -3.41646 -1.32941 0
M  V30 405 H 37.9387 -3.29284 -3.80238 0
M  V30 406 H 37.6387 -4.93719 -3.18615 0
M  V30 407 H 39.1627 -4.57402 -4.04495 0
M  V30 408 H 40.5767 -5.39888 -1.92857 0
M  V30 409 H 38.9737 -5.86144 -1.28669 0
M  V30 410 H 40.0437 -4.83904 -0.310561 0
M  V30 411 N 41.3868 0.248026 -1.55636 0
M  V30 412 C 42.6148 0.993808 -1.81469 0
M  V30 413 C 43.0298 1.78991 -0.60064 0
M  V30 414 O 42.3868 1.77345 0.430682 0
M  V30 415 C 42.4378 1.93258 -3.05506 0
M  V30 416 O 42.1588 1.16869 -4.22224 0
M  V30 417 C 43.6598 2.79444 -3.4413 0
M  V30 418 H 40.8798 0.292486 -0.603898 0
M  V30 419 H 43.4238 0.271253 -2.02693 0
M  V30 420 H 41.5788 2.60943 -2.86335 0
M  V30 421 H 41.9928 1.80359 -4.92515 0
M  V30 422 H 43.4668 3.41066 -4.34026 0
M  V30 423 H 43.9438 3.50499 -2.64665 0
M  V30 424 H 44.5498 2.17214 -3.65648 0
M  V30 425 N 42.8649 1.48995 0.513639 0
M  V30 426 C 44.1109 1.58076 1.27042 0
M  V30 427 C 44.4439 0.261026 1.92438 0
M  V30 428 O 43.7189 -0.734393 1.80103 0
M  V30 429 C 44.0019 2.73091 2.34719 0
M  V30 430 C 43.8549 4.14821 1.73907 0
M  V30 431 C 45.1739 2.83796 3.36375 0
M  V30 432 H 42.2929 0.575391 0.460536 0
M  V30 433 H 44.9349 1.81232 0.570516 0
M  V30 434 H 43.0849 2.53479 2.94416 0
M  V30 435 H 44.7569 4.45917 1.18135 0
M  V30 436 H 42.9999 4.21058 1.0437 0
M  V30 437 H 43.6709 4.91147 2.51949 0
M  V30 438 H 46.1469 3.01611 2.86653 0
M  V30 439 H 45.0229 3.65971 4.09093 0
M  V30 440 H 45.2839 1.92624 3.9793 0
M  V30 441 N 44.343 -0.763751 1.37857 0
M  V30 442 C 45.591 -1.51957 1.33243 0
M  V30 443 C 45.912 -1.94835 -0.0801709 0
M  V30 444 O 45.182 -1.66894 -1.02582 0
M  V30 445 H 43.762 -0.563626 0.49024 0
M  V30 446 H 46.424 -0.908504 1.7243 0
M  V30 447 H 45.52 -2.41523 1.97669 0
M  V30 448 N 45.8211 -1.22559 -0.990812 0
M  V30 449 C 47.0461 -1.07862 -1.77145 0
M  V30 450 C 47.4711 0.366447 -1.84496 0
M  V30 451 O 46.8291 1.26478 -1.29896 0
M  V30 452 C 46.8771 -1.69686 -3.18181 0
M  V30 453 O 45.9811 -0.951946 -4.01263 0
M  V30 454 H 45.3221 -0.378712 -0.545411 0
M  V30 455 H 47.8521 -1.62399 -1.2445 0
M  V30 456 H 47.8621 -1.74496 -3.68802 0
M  V30 457 H 46.5371 -2.74841 -3.12146 0
M  V30 458 H 45.1141 -0.980011 -3.59792 0
M  V30 459 N 47.2992 1.18797 -1.03562 0
M  V30 460 C 48.2092 2.25913 -0.632505 0
M  V30 461 C 49.2252 1.70668 0.338882 0
M  V30 462 O 50.4012 2.00453 0.195076 0
M  V30 463 C 47.4662 3.467 0.00350942 0
M  V30 464 C 46.5272 4.17098 -1.01624 0
M  V30 465 C 45.7602 5.32119 -0.410478 0
M  V30 466 O 45.9832 5.64976 0.784725 0
M  V30 467 O 44.9172 5.9107 -1.13667 0
M  V30 468 H 48.7432 2.62648 -1.52478 0
M  V30 469 H 46.3282 1.25781 -0.806195 0
M  V30 470 H 48.2102 4.19878 0.35781 0
M  V30 471 H 46.8852 3.11798 0.869686 0
M  V30 472 H 45.7922 3.4601 -1.42224 0
M  V30 473 H 47.1252 4.55987 -1.85301 0
M  V30 474 N 48.7773 0.814389 1.34928 0
M  V30 475 C 50.0253 0.397636 1.9815 0
M  V30 476 C 50.3463 -1.04069 1.64908 0
M  V30 477 O 49.6163 -1.72121 0.93548 0
M  V30 478 H 48.1963 0.144043 0.732981 0
M  V30 479 H 50.8583 1.04195 1.6471 0
M  V30 480 H 49.9543 0.509688 3.0791 0
M  V30 481 N 50.2554 -1.46986 0.568584 0
M  V30 482 C 51.6664 -1.86188 0.138219 0
M  V30 483 C 52.0174 -1.47388 -1.29504 0
M  V30 484 O 51.1424 -0.88219 -1.97602 0
M  V30 485 C 51.7374 -3.3792 0.244065 0
M  V30 486 C 50.2964 -3.76171 -0.131335 0
M  V30 487 C 49.4434 -2.71027 0.586465 0
M  V30 488 H 52.3944 -1.38342 0.777645 0
M  V30 489 H 52.4154 -3.76729 -0.534351 0
M  V30 490 H 51.9274 -3.66128 1.28731 0
M  V30 491 H 50.0284 -3.5358 -1.17526 0
M  V30 492 H 50.1414 -4.78523 0.235146 0
M  V30 493 H 48.5054 -2.54684 0.0282722 0
M  V30 494 H 49.2884 -3.02077 1.63109 0
M  V30 495 N 51.7335 -0.305618 -1.54608 0
M  V30 496 C 52.9825 0.303098 -1.9941 0
M  V30 497 C 53.2955 1.54648 -1.19764 0
M  V30 498 O 54.5015 2.23007 -1.54855 0
M  V30 499 C 52.9575 0.590588 -3.55021 0
M  V30 500 C 52.5655 -0.634719 -4.43481 0
M  V30 501 C 54.3095 1.16025 -4.08336 0
M  V30 502 C 52.2165 -0.320126 -5.90533 0
M  V30 503 H 51.1465 0.117031 -0.744862 0
M  V30 504 H 53.7975 -0.415045 -1.78745 0
M  V30 505 H 52.1795 1.36845 -3.71604 0
M  V30 506 H 53.3535 -1.41079 -4.38672 0
M  V30 507 H 51.6685 -1.12333 -4.00962 0
M  V30 508 H 54.2655 1.40994 -5.15776 0
M  V30 509 H 54.6085 2.10397 -3.5922 0
M  V30 510 H 55.1415 0.443985 -3.95315 0
M  V30 511 H 51.8805 -1.23254 -6.43808 0
M  V30 512 H 51.4005 0.418579 -5.98338 0
M  V30 513 H 53.0795 0.0766241 -6.46955 0
M  V30 514 N 53.2116 1.57565 -0.0334293 0
M  V30 515 C 54.4576 1.92262 0.645226 0
M  V30 516 C 54.7906 0.910543 1.71531 0
M  V30 517 O 54.0656 -0.066099 1.94388 0
M  V30 518 C 54.3486 3.37422 1.2577 0
M  V30 519 C 54.2016 4.49369 0.196891 0
M  V30 520 C 55.5206 3.82628 2.17449 0
M  V30 521 H 52.6396 0.699171 0.233085 0
M  V30 522 H 55.2816 1.89779 -0.0915694 0
M  V30 523 H 53.4316 3.39669 1.88566 0
M  V30 524 H 55.1036 4.59254 -0.433962 0
M  V30 525 H 53.3466 4.31168 -0.477137 0
M  V30 526 H 54.0176 5.47978 0.665124 0
M  V30 527 H 56.4936 3.82145 1.64634 0
M  V30 528 H 55.3696 4.84883 2.57254 0
M  V30 529 H 55.6306 3.18376 3.0674 0
M  V30 530 N 54.6897 -0.239769 1.55765 0
M  V30 531 C 55.6197 -1.30052 1.9393 0
M  V30 532 C 56.6007 -1.49839 0.805132 0
M  V30 533 O 57.7857 -1.62328 1.06599 0
M  V30 534 C 54.9157 -2.65391 2.2402 0
M  V30 535 C 53.8697 -2.60289 3.39755 0
M  V30 536 C 53.1957 -3.99489 3.55405 0
M  V30 537 C 54.4957 -2.16654 4.75246 0
M  V30 538 H 56.1897 -0.983573 2.82783 0
M  V30 539 H 53.7357 -0.471701 1.36055 0
M  V30 540 H 55.6887 -3.3974 2.49308 0
M  V30 541 H 54.4127 -2.98736 1.32 0
M  V30 542 H 53.0717 -1.88398 3.14487 0
M  V30 543 H 52.7197 -4.30112 2.60793 0
M  V30 544 H 52.4197 -3.96962 4.33238 0
M  V30 545 H 53.9437 -4.75528 3.83022 0
M  V30 546 H 55.3577 -2.80737 4.99859 0
M  V30 547 H 53.7547 -2.25223 5.56232 0
M  V30 548 H 54.8247 -1.11835 4.71827 0
M  V30 549 N 56.1678 -1.49265 -0.50573 0
M  V30 550 C 57.1178 -1.6198 -1.60457 0
M  V30 551 C 58.1018 -0.47568 -1.53708 0
M  V30 552 O 59.2938 -0.728392 -1.61318 0
M  V30 553 C 56.4228 -1.68526 -2.99089 0
M  V30 554 C 55.5088 -2.885 -3.10852 0
M  V30 555 N 55.8998 -4.12635 -2.92517 0
M  V30 556 C 54.1978 -2.86338 -3.41945 0
M  V30 557 C 54.8988 -4.93258 -3.08337 0
M  V30 558 N 53.8748 -4.26533 -3.37003 0
M  V30 559 H 57.6768 -2.55681 -1.44928 0
M  V30 560 H 55.1908 -1.45972 -0.711752 0
M  V30 561 H 57.1878 -1.75732 -3.78053 0
M  V30 562 H 55.8478 -0.759584 -3.1569 0
M  V30 563 H 56.8588 -4.42689 -2.68787 0
M  V30 564 H 53.5358 -2.03129 -3.64753 0
M  V30 565 H 54.9258 -6.01856 -2.98695 0
M  V30 566 N 57.6459 0.756429 -1.3826 0
M  V30 567 C 58.9229 1.50584 -1.24835 0
M  V30 568 C 59.3029 2.10556 0.151485 0
M  V30 569 O 58.6509 1.96825 1.1607 0
M  V30 570 C 58.8609 2.57448 -2.3563 0
M  V30 571 C 60.2089 3.24429 -2.73917 0
M  V30 572 O 61.2329 2.67751 -2.34921 0
M  V30 573 O 60.0919 4.26937 -3.41156 0
M  V30 574 H 57.1859 0.667664 -0.48801 0
M  V30 575 H 59.7319 0.792083 -1.5008 0
M  V30 576 H 58.5039 2.11362 -3.29305 0
M  V30 577 H 58.1269 3.36408 -2.11933 0
M  V30 578 N 59.124 1.23083 0.984299 0
M  V30 579 C 60.352 1.08714 1.76037 0
M  V30 580 C 60.767 -0.361691 1.85303 0
M  V30 581 O 60.124 -1.25034 1.32939 0
M  V30 582 C 60.175 1.70206 3.18923 0
M  V30 583 O 59.896 3.09423 3.10144 0
M  V30 584 C 61.397 1.61227 4.12941 0
M  V30 585 H 58.617 0.380664 0.552572 0
M  V30 586 H 61.161 1.62853 1.23689 0
M  V30 587 H 59.316 1.20109 3.6831 0
M  V30 588 H 59.73 3.39188 4.00065 0
M  V30 589 H 61.204 2.08962 5.10919 0
M  V30 590 H 61.681 0.570375 4.35481 0
M  V30 591 H 62.287 2.10671 3.69456 0
M  V30 592 N 60.6021 -1.18246 1.0419 0
M  V30 593 C 61.5521 -2.19843 0.604392 0
M  V30 594 C 62.5361 -1.56962 -0.353814 0
M  V30 595 O 63.7281 -1.76156 -0.17267 0
M  V30 596 C 60.8571 -3.43287 -0.0298975 0
M  V30 597 C 59.9431 -4.13288 0.951531 0
M  V30 598 N 60.3341 -4.59271 2.11906 0
M  V30 599 C 58.6321 -4.39165 0.7778 0
M  V30 600 C 59.3331 -5.13173 2.73912 0
M  V30 601 N 58.3091 -5.04763 2.01779 0
M  V30 602 H 62.1111 -2.53089 1.4941 0
M  V30 603 H 59.6251 -1.34465 0.910658 0
M  V30 604 H 61.6221 -4.15334 -0.361037 0
M  V30 605 H 60.2821 -3.11537 -0.915127 0
M  V30 606 H 61.2931 -4.5368 2.49789 0
M  V30 607 H 57.9701 -4.17461 -0.0572331 0
M  V30 608 H 59.3601 -5.58947 3.72864 0
M  V30 609 N 62.0802 -0.821533 -1.34494 0
M  V30 610 C 63.0102 -0.257138 -2.3208 0
M  V30 611 C 63.9912 0.625645 -1.58176 0
M  V30 612 O 65.1762 0.552811 -1.86166 0
M  V30 613 C 62.3062 0.582958 -3.42372 0
M  V30 614 C 61.2602 -0.202571 -4.2752 0
M  V30 615 C 60.5862 0.760179 -5.29269 0
M  V30 616 C 61.8862 -1.40998 -5.02908 0
M  V30 617 H 63.5802 -1.07247 -2.79532 0
M  V30 618 H 61.1262 -0.517163 -1.34393 0
M  V30 619 H 63.0792 0.987972 -4.09655 0
M  V30 620 H 61.8032 1.43133 -2.93565 0
M  V30 621 H 60.4622 -0.588936 -3.61838 0
M  V30 622 H 60.1102 1.60447 -4.76724 0
M  V30 623 H 59.8102 0.238809 -5.87115 0
M  V30 624 H 61.3342 1.16308 -5.9942 0
M  V30 625 H 62.7482 -1.07905 -5.63054 0
M  V30 626 H 61.1452 -1.86689 -5.70322 0
M  V30 627 H 62.2152 -2.1889 -4.32684 0
M  V30 628 N 63.5583 1.46682 -0.576371 0
M  V30 629 C 64.4883 2.33028 0.148397 0
M  V30 630 C 65.4693 1.44961 0.889956 0
M  V30 631 O 66.6543 1.73789 0.866662 0
M  V30 632 C 63.7843 3.27117 1.1667 0
M  V30 633 C 62.7383 4.24575 0.540386 0
M  V30 634 C 62.0643 5.08126 1.6647 0
M  V30 635 C 63.3643 5.19722 -0.518331 0
M  V30 636 H 65.0583 2.93875 -0.572509 0
M  V30 637 H 62.6043 1.41315 -0.276768 0
M  V30 638 H 64.5573 3.86374 1.68204 0
M  V30 639 H 63.2813 2.64364 1.9178 0
M  V30 640 H 61.9403 3.66571 0.0461769 0
M  V30 641 H 61.5883 4.41762 2.40531 0
M  V30 642 H 61.2883 5.74122 1.25131 0
M  V30 643 H 62.8123 5.70246 2.18293 0
M  V30 644 H 64.2263 5.73232 -0.0883058 0
M  V30 645 H 62.6233 5.94026 -0.851679 0
M  V30 646 H 63.6933 4.64037 -1.40703 0
M  V30 647 N 65.0364 0.313813 1.54444 0
M  V30 648 C 65.9464 -0.565714 2.27677 0
M  V30 649 C 66.9624 -1.13754 1.31666 0
M  V30 650 O 68.1384 -1.15959 1.64668 0
M  V30 651 C 65.2034 -1.71528 3.01296 0
M  V30 652 C 64.2644 -1.17624 4.12872 0
M  V30 653 C 63.4974 -2.27102 4.8297 0
M  V30 654 O 63.7204 -3.47256 4.52514 0
M  V30 655 O 62.6544 -1.9307 5.70094 0
M  V30 656 H 66.4804 0.0287296 3.03686 0
M  V30 657 H 64.0654 0.0798312 1.49187 0
M  V30 658 H 65.9474 -2.38476 3.4743 0
M  V30 659 H 64.6224 -2.29608 2.2817 0
M  V30 660 H 63.5294 -0.472124 3.71109 0
M  V30 661 H 64.8624 -0.640695 4.88012 0
M  V30 662 N 66.5145 -1.57545 0.0417849 0
M  V30 663 C 67.7425 -1.96624 -0.643928 0
M  V30 664 C 68.1575 -0.918897 -1.64929 0
M  V30 665 O 67.5145 0.0979323 -1.82237 0
M  V30 666 C 67.5655 -3.35781 -1.33914 0
M  V30 667 O 67.2865 -4.365 -0.374048 0
M  V30 668 C 68.7875 -3.89566 -2.1155 0
M  V30 669 H 66.0075 -0.647316 -0.176702 0
M  V30 670 H 68.5515 -2.04229 0.105304 0
M  V30 671 H 66.7065 -3.29357 -2.03968 0
M  V30 672 H 67.1205 -5.17248 -0.869179 0
M  V30 673 H 68.5945 -4.89242 -2.55628 0
M  V30 674 H 69.0715 -3.24488 -2.9598 0
M  V30 675 H 69.6775 -3.99298 -1.46427 0
M  V30 676 N 67.9926 0.231505 -1.5589 0
M  V30 677 C 68.9426 1.29007 -1.87993 0
M  V30 678 C 69.9266 1.42764 -0.742102 0
M  V30 679 O 71.1186 1.45747 -1.00433 0
M  V30 680 C 68.2476 2.6425 -2.1915 0
M  V30 681 C 67.3336 2.54435 -3.39299 0
M  V30 682 N 67.7246 2.14262 -4.58176 0
M  V30 683 C 66.0226 2.85416 -3.42715 0
M  V30 684 C 66.7236 2.15455 -5.40328 0
M  V30 685 N 65.6996 2.55558 -4.79783 0
M  V30 686 H 69.5016 0.970213 -2.77424 0
M  V30 687 H 67.0156 0.440097 -1.56323 0
M  V30 688 H 69.0126 3.40665 -2.40319 0
M  V30 689 H 67.6726 2.9709 -1.31025 0
M  V30 690 H 68.6836 1.85554 -4.83518 0
M  V30 691 H 65.3606 3.22693 -2.64906 0
M  V30 692 H 66.7506 1.86605 -6.45467 0
M  V30 693 N 69.4707 1.49531 0.497807 0
M  V30 694 C 70.4027 1.62559 1.61578 0
M  V30 695 C 71.4157 0.508134 1.54667 0
M  V30 696 O 72.6047 0.780309 1.60541 0
M  V30 697 C 69.7047 1.56925 3.00379 0
M  V30 698 C 68.8777 2.84257 3.3244 0
M  V30 699 C 67.9367 2.71632 4.50669 0
M  V30 700 O 66.9627 3.4557 4.52294 0
M  V30 701 N 68.1647 1.83391 5.5077 0
M  V30 702 H 70.9297 2.58981 1.50828 0
M  V30 703 H 68.4907 1.4666 0.685743 0
M  V30 704 H 70.4827 1.46129 3.77397 0
M  V30 705 H 69.0527 0.683483 3.05037 0
M  V30 706 H 68.2727 3.09381 2.44289 0
M  V30 707 H 69.5607 3.68666 3.5066 0
M  V30 708 H 68.9587 1.22583 5.52259 0
M  V30 709 H 67.5157 1.78515 6.26878 0
M  V30 710 N 70.9488 -0.749086 1.3866 0
M  V30 711 C 71.8988 -1.85368 1.32751 0
M  V30 712 C 72.8828 -1.59511 0.210945 0
M  V30 713 O 74.0748 -1.71255 0.447299 0
M  V30 714 C 71.2038 -3.23131 1.15935 0
M  V30 715 C 70.2898 -3.54864 2.32233 0
M  V30 716 N 70.6808 -3.57625 3.57684 0
M  V30 717 C 68.9788 -3.85154 2.24883 0
M  V30 718 C 69.6798 -3.86753 4.34508 0
M  V30 719 N 68.6558 -4.03812 3.63918 0
M  V30 720 H 72.4578 -1.85787 2.27729 0
M  V30 721 H 69.9718 -0.946658 1.31955 0
M  V30 722 H 71.9688 -4.02185 1.09786 0
M  V30 723 H 70.6288 -3.23961 0.218947 0
M  V30 724 H 71.6398 -3.39276 3.91295 0
M  V30 725 H 68.3168 -3.93672 1.39027 0
M  V30 726 H 69.7068 -3.95474 5.43185 0
M  V30 727 N 72.4269 -1.23603 -0.977757 0
M  V30 728 C 73.6739 -1.06971 -1.71941 0
M  V30 729 C 74.0019 0.393009 -1.90488 0
M  V30 730 O 73.2569 1.30719 -1.4564 0
M  V30 731 C 73.5559 -1.7433 -3.11999 0
M  V30 732 C 73.2219 -3.24252 -3.13323 0
M  V30 733 C 71.8839 -3.65156 -3.13392 0
M  V30 734 C 74.2359 -4.20141 -3.08433 0
M  V30 735 C 71.5639 -5.00403 -3.0629 0
M  V30 736 C 73.9159 -5.55384 -3.02873 0
M  V30 737 C 72.5799 -5.95647 -3.01265 0
M  V30 738 H 71.8499 -0.391433 -0.629175 0
M  V30 739 H 74.4969 -1.53572 -1.14403 0
M  V30 740 H 72.8019 -1.20096 -3.7294 0
M  V30 741 H 74.4989 -1.58936 -3.68158 0
M  V30 742 H 71.0889 -2.91692 -3.14029 0
M  V30 743 H 75.2729 -3.89547 -3.07517 0
M  V30 744 H 70.5289 -5.3081 -3.03399 0
M  V30 745 H 74.7029 -6.29398 -2.98046 0
M  V30 746 H 72.3299 -7.0041 -2.95516 0
M  V30 747 N 73.905 1.17692 -1.04816 0
M  V30 748 C 74.853 2.23632 -0.63966 0
M  V30 749 C 75.847 1.6601 0.337219 0
M  V30 750 O 77.053 1.78844 0.203693 0
M  V30 751 H 73.428 0.727949 -0.188665 0
M  V30 752 H 75.399 2.55387 -1.54337 0
M  V30 753 C 74.148 3.4769 -0.0264051 0
M  V30 754 H 73.471 3.92331 -0.769164 0
M  V30 755 H 74.911 4.23418 0.222098 0
M  V30 756 C 73.37 3.13807 1.22584 0
M  V30 757 O 73.9 3.28236 2.31569 0
M  V30 758 N 72.106 2.68065 1.12202 0
M  V30 759 H 71.653 2.56525 0.235133 0
M  V30 760 H 71.611 2.45767 1.96076 0
M  V30 761 N 75.3831 0.828654 1.34056 0
M  V30 762 C 76.7991 0.515135 1.51058 0
M  V30 763 C 76.9991 -0.959581 1.77184 0
M  V30 764 O 76.0551 -1.74382 1.82612 0
M  V30 765 C 77.3681 1.37963 2.67183 0
M  V30 766 C 78.9161 1.37735 2.81066 0
M  V30 767 C 79.3911 2.22645 4.00241 0
M  V30 768 N 80.8821 2.203 4.07458 0
M  V30 769 C 81.6171 2.82744 4.98842 0
M  V30 770 N 81.1131 3.54201 5.9541 0
M  V30 771 N 82.9061 2.72268 4.91759 0
M  V30 772 H 75.0571 1.78343 1.15358 0
M  V30 773 H 77.3201 0.760304 0.566252 0
M  V30 774 H 77.0261 2.42714 2.54525 0
M  V30 775 H 76.9001 1.0484 3.62338 0
M  V30 776 H 79.2871 0.337593 2.93163 0
M  V30 777 H 79.3681 1.74859 1.86703 0
M  V30 778 H 79.0121 3.26674 3.88905 0
M  V30 779 H 78.9421 1.82869 4.93829 0
M  V30 780 H 81.4331 1.68327 3.38341 0
M  V30 781 H 81.7461 3.9908 6.61782 0
M  V30 782 H 80.0911 3.58308 5.95517 0
M  V30 783 H 83.2821 2.16014 4.15278 0
M  V30 784 H 83.4551 3.21219 5.62781 0
M  V30 785 N 76.8612 -1.46375 0.584142 0
M  V30 786 C 77.7942 -2.27351 -0.196676 0
M  V30 787 C 78.7722 -1.35715 -0.895561 0
M  V30 788 O 79.9562 -1.65126 -0.90916 0
M  V30 789 C 77.0832 -3.13486 -1.28235 0
M  V30 790 C 76.1292 -4.20896 -0.689145 0
M  V30 791 S 76.9622 -5.33299 0.48507 0
M  V30 792 C 78.1182 -6.23 -0.601767 0
M  V30 793 H 78.3512 -2.93228 0.490395 0
M  V30 794 H 75.8842 -1.49875 0.371071 0
M  V30 795 H 77.8422 -3.63676 -1.90395 0
M  V30 796 H 76.5032 -2.4692 -1.94138 0
M  V30 797 H 75.6962 -4.80997 -1.50527 0
M  V30 798 H 75.2982 -3.73726 -0.143181 0
M  V30 799 H 77.5902 -6.60979 -1.48705 0
M  V30 800 H 78.5332 -7.0809 -0.0374799 0
M  V30 801 H 78.9412 -5.57173 -0.906557 0
M  V30 802 N 78.3393 -0.321999 -1.54275 0
M  V30 803 C 79.2873 0.560206 -2.25753 0
M  V30 804 C 80.2813 1.11984 -1.27106 0
M  V30 805 O 81.4873 1.06806 -1.44888 0
M  V30 806 H 77.8623 0.199304 -0.725108 0
M  V30 807 H 79.8333 -0.0649365 -2.98329 0
M  V30 808 C 78.5823 1.71023 -3.02731 0
M  V30 809 H 77.9053 1.28885 -3.78456 0
M  V30 810 H 79.3453 2.30314 -3.55993 0
M  V30 811 C 77.8043 2.62692 -2.10938 0
M  V30 812 O 78.3343 3.64364 -1.6912 0
M  V30 813 N 76.5403 2.30891 -1.76459 0
M  V30 814 H 76.0873 1.48253 -2.10663 0
M  V30 815 H 76.0453 2.92487 -1.1532 0
M  V30 816 N 79.8174 1.5752 -0.0501392 0
M  V30 817 C 81.0664 1.91827 0.623328 0
M  V30 818 C 81.3794 0.930222 1.72065 0
M  V30 819 O 82.5854 1.1653 2.4522 0
M  V30 820 C 81.0414 3.40692 1.16003 0
M  V30 821 C 80.6494 4.479 0.0948811 0
M  V30 822 C 82.3934 3.84034 1.80881 0
M  V30 823 C 80.3004 5.87879 0.644411 0
M  V30 824 H 79.2304 0.715918 0.236596 0
M  V30 825 H 81.8814 1.83115 -0.118861 0
M  V30 826 H 80.2634 3.44405 1.9545 0
M  V30 827 H 81.4374 4.55775 -0.678675 0
M  V30 828 H 79.7524 4.13892 -0.45637 0
M  V30 829 H 82.3494 4.85984 2.22988 0
M  V30 830 H 82.6924 3.20225 2.6601 0
M  V30 831 H 83.2254 3.82833 1.0809 0
M  V30 832 H 79.9644 6.55282 -0.169229 0
M  V30 833 H 79.4844 5.83567 1.38598 0
M  V30 834 H 81.1634 6.37098 1.12763 0
M  V30 835 N 81.2955 -0.223234 1.56011 0
M  V30 836 C 82.7065 -0.790368 1.69145 0
M  V30 837 C 83.0575 -1.85055 0.651845 0
M  V30 838 O 82.1825 -2.15498 -0.197359 0
M  V30 839 C 82.7775 -1.4404 3.06656 0
M  V30 840 C 81.3365 -1.95494 3.2165 0
M  V30 841 C 80.4835 -0.814506 2.65068 0
M  V30 842 H 83.4345 0.00139011 1.587 0
M  V30 843 H 83.4555 -2.30916 3.0242 0
M  V30 844 H 82.9675 -0.668543 3.82298 0
M  V30 845 H 81.0685 -2.75487 2.50874 0
M  V30 846 H 81.1815 -2.13607 4.28846 0
M  V30 847 H 79.5455 -1.22137 2.23505 0
M  V30 848 H 80.3285 -0.0553515 3.43255 0
M  V30 849 N 82.7736 -1.49793 -0.48987 0
M  V30 850 C 83.6836 -1.70036 -1.61632 0
M  V30 851 C 84.6996 -0.583102 -1.63939 0
M  V30 852 O 85.8756 -0.859169 -1.82154 0
M  V30 853 C 82.9406 -1.77277 -2.97949 0
M  V30 854 C 82.0016 -3.00918 -3.06181 0
M  V30 855 C 81.2346 -3.07804 -4.35996 0
M  V30 856 O 81.4576 -2.21982 -5.25433 0
M  V30 857 O 80.3916 -4.00369 -4.49431 0
M  V30 858 H 84.2176 -2.65486 -1.47482 0
M  V30 859 H 81.8026 -1.33666 -0.667362 0
M  V30 860 H 83.6846 -1.84329 -3.78947 0
M  V30 861 H 82.3596 -0.850076 -3.12339 0
M  V30 862 H 81.2666 -2.99377 -2.2433 0
M  V30 863 H 82.5996 -3.92704 -2.96723 0
M  V30 864 N 84.2517 0.741722 -1.39055 0
M  V30 865 C 85.6677 1.04638 -1.20512 0
M  V30 866 C 85.8677 2.01405 -0.0620218 0
M  V30 867 O 84.9237 2.45547 0.588457 0
M  V30 868 C 86.2367 1.6151 -2.53643 0
M  V30 869 C 87.7847 1.73623 -2.6043 0
M  V30 870 C 88.2597 2.33906 -3.93767 0
M  V30 871 N 89.7507 2.41323 -3.9537 0
M  V30 872 C 90.4857 2.88888 -4.95309 0
M  V30 873 N 89.9817 3.36401 -6.05645 0
M  V30 874 N 91.7747 2.88037 -4.82692 0
M  V30 875 H 83.9257 0.0998155 -2.12165 0
M  V30 876 H 86.1887 0.106907 -0.941953 0
M  V30 877 H 85.8947 0.978739 -3.37807 0
M  V30 878 H 85.7687 2.60411 -2.72885 0
M  V30 879 H 88.1557 2.36384 -1.76655 0
M  V30 880 H 88.2367 0.733945 -2.45045 0
M  V30 881 H 87.8807 1.71776 -4.7797 0
M  V30 882 H 87.8107 3.34799 -4.06469 0
M  V30 883 H 90.3017 2.07734 -3.15682 0
M  V30 884 H 90.6147 3.71186 -6.77821 0
M  V30 885 H 88.9597 3.34427 -6.09248 0
M  V30 886 H 92.1507 2.50237 -3.95599 0
M  V30 887 H 92.3237 3.24792 -5.60726 0
M  V30 888 N 85.7298 1.2412 0.971189 0
M  V30 889 C 87.1458 1.00584 1.23916 0
M  V30 890 C 87.3458 -0.287481 1.99439 0
M  V30 891 O 86.4018 -1.00454 2.31658 0
M  V30 892 C 87.7148 2.21864 2.0297 0
M  V30 893 C 89.2628 2.26452 2.16076 0
M  V30 894 C 89.7378 3.47343 2.98524 0
M  V30 895 N 91.2288 3.47639 3.06107 0
M  V30 896 C 91.9638 4.37837 3.70251 0
M  V30 897 N 91.4598 5.38286 4.36142 0
M  V30 898 N 93.2528 4.25558 3.67228 0
M  V30 899 H 85.4038 2.07236 0.465499 0
M  V30 900 H 87.6668 0.909236 0.268315 0
M  V30 901 H 87.3728 3.15771 1.54861 0
M  V30 902 H 87.2468 2.23698 3.03709 0
M  V30 903 H 89.6338 1.33078 2.6339 0
M  V30 904 H 89.7148 2.28645 1.14696 0
M  V30 905 H 89.3588 4.41029 2.51905 0
M  V30 906 H 89.2888 3.42393 4.00093 0
M  V30 907 H 91.7798 2.74966 2.59233 0
M  V30 908 H 92.0928 6.03352 4.82894 0
M  V30 909 H 90.4378 5.42176 4.34822 0
M  V30 910 H 93.6288 3.46322 3.14927 0
M  V30 911 H 93.8018 4.96054 4.16935 0
M  V30 912 N 87.2079 -1.17134 1.05439 0
M  V30 913 C 88.6189 -1.69084 0.791676 0
M  V30 914 C 88.9699 -1.83822 -0.685839 0
M  V30 915 O 88.0949 -1.52757 -1.53278 0
M  V30 916 C 88.6899 -3.07119 1.4305 0
M  V30 917 C 87.2489 -3.56225 1.21577 0
M  V30 918 C 86.3959 -2.32421 1.51247 0
M  V30 919 H 89.3469 -1.01617 1.219 0
M  V30 920 H 89.3679 -3.71087 0.84112 0
M  V30 921 H 88.8799 -2.9636 2.50584 0
M  V30 922 H 86.9809 -3.72257 0.159787 0
M  V30 923 H 87.0939 -4.38837 1.92246 0
M  V30 924 H 85.4579 -2.3701 0.932653 0
M  V30 925 H 86.2409 -2.24268 2.5992 0
M  V30 926 N 88.686 -0.835752 -1.33615 0
M  V30 927 C 89.636 -0.238856 -2.26745 0
M  V30 928 C 90.62 0.604343 -1.49119 0
M  V30 929 O 91.812 0.456822 -1.71003 0
M  V30 930 C 88.941 0.587725 -3.38232 0
M  V30 931 C 88.027 -0.266811 -4.2326 0
M  V30 932 N 88.418 -1.34403 -4.87616 0
M  V30 933 C 86.716 -0.0533131 -4.45968 0
M  V30 934 C 87.417 -1.86819 -5.50884 0
M  V30 935 N 86.393 -1.17013 -5.30857 0
M  V30 936 H 90.195 -1.06266 -2.74016 0
M  V30 937 H 87.709 -0.679881 -1.47483 0
M  V30 938 H 89.706 1.03161 -4.03935 0
M  V30 939 H 88.366 1.40954 -2.9251 0
M  V30 940 H 89.377 -1.7269 -4.88261 0
M  V30 941 H 86.054 0.735312 -4.10974 0
M  V30 942 H 87.444 -2.7701 -6.1214 0
M  V30 943 N 90.1641 1.46063 -0.591896 0
M  V30 944 C 91.1271 2.28854 0.125973 0
M  V30 945 C 92.1271 1.38903 0.810107 0
M  V30 946 O 93.3171 1.61186 0.66066 0
M  V30 947 C 90.4491 3.19526 1.1881 0
M  V30 948 H 91.6421 2.93802 -0.601717 0
M  V30 949 H 89.1951 1.52325 -0.350254 0
M  V30 950 H 89.9301 2.59345 1.94707 0
M  V30 951 H 89.7151 3.85766 0.701936 0
M  V30 952 H 91.2051 3.81817 1.69132 0
M  V30 953 N 91.6422 0.330177 1.54103 0
M  V30 954 C 92.5892 -0.532762 2.24567 0
M  V30 955 C 93.5592 -1.10635 1.23892 0
M  V30 956 O 94.7442 -1.14546 1.5259 0
M  V30 957 C 91.8842 -1.6845 3.01195 0
M  V30 958 C 90.9972 -1.13951 4.167 0
M  V30 959 C 90.1322 -2.25746 4.80845 0
M  V30 960 C 89.1712 -1.6853 5.88442 0
M  V30 961 N 88.3082 -2.74014 6.46421 0
M  V30 962 H 93.1482 0.0746905 2.97906 0
M  V30 963 H 90.6852 0.048632 1.4702 0
M  V30 964 H 92.6432 -2.36234 3.43874 0
M  V30 965 H 91.2732 -2.26314 2.30178 0
M  V30 966 H 90.3252 -0.35301 3.78758 0
M  V30 967 H 91.6372 -0.680892 4.94131 0
M  V30 968 H 90.7912 -3.01422 5.26526 0
M  V30 969 H 89.5302 -2.74947 4.0281 0
M  V30 970 H 88.5352 -0.913543 5.42157 0
M  V30 971 H 89.7602 -1.20198 6.68378 0
M  V30 972 H 87.7062 -3.22494 5.71256 0
M  V30 973 H 87.6232 -2.32735 7.19285 0
M  V30 974 H 88.8912 -3.49499 6.96757 0
M  V30 975 N 93.1203 -1.57491 0.0584922 0
M  V30 976 C 94.3683 -1.92597 -0.612436 0
M  V30 977 C 94.6893 -0.938162 -1.70949 0
M  V30 978 O 93.9593 0.0158301 -1.95894 0
M  V30 979 H 92.5393 -0.710964 -0.229214 0
M  V30 980 H 95.2013 -1.94571 0.113218 0
M  V30 981 H 94.2973 -2.94038 -1.04633 0
M  V30 982 N 94.5984 0.214957 -1.56127 0
M  V30 983 C 95.8234 0.95924 -1.83884 0
M  V30 984 C 96.2484 1.7689 -0.639644 0
M  V30 985 O 95.6064 1.76566 0.411601 0
M  V30 986 C 95.6544 1.84723 -3.09693 0
M  V30 987 O 94.7584 2.94346 -2.8885 0
M  V30 988 H 94.0994 0.27125 -0.606069 0
M  V30 989 H 96.6294 0.226276 -2.03345 0
M  V30 990 H 96.6394 2.25576 -3.39969 0
M  V30 991 H 95.3144 1.25218 -3.96602 0
M  V30 992 H 93.8914 2.57391 -2.69823 0
M  V30 993 N 96.0765 1.50051 0.48192 0
M  V30 994 C 97.3245 1.60181 1.23234 0
M  V30 995 C 97.6455 0.299176 1.92691 0
M  V30 996 O 96.9155 -0.682708 1.83619 0
M  V30 997 H 95.4955 0.590232 0.457859 0
M  V30 998 H 98.1575 1.86775 0.556881 0
M  V30 999 H 97.2535 2.40753 1.98607 0
M  V30 1000 N 97.5546 -0.734337 1.39446 0
M  V30 1001 C 98.5176 -1.83004 1.37994 0
M  V30 1002 C 99.5176 -1.58397 0.276938 0
M  V30 1003 O 100.708 -1.65785 0.534875 0
M  V30 1004 C 97.8396 -3.20802 1.1532 0
M  V30 1005 H 99.0326 -1.85694 2.35494 0
M  V30 1006 H 96.5856 -0.938059 1.25021 0
M  V30 1007 H 97.3206 -3.23772 0.185036 0
M  V30 1008 H 97.1056 -3.4006 1.95197 0
M  V30 1009 H 98.5956 -4.00862 1.17046 0
M  V30 1010 N 99.0327 -1.24633 -0.964593 0
M  V30 1011 C 100.28 -1.08788 -1.70796 0
M  V30 1012 C 100.608 0.372783 -1.90894 0
M  V30 1013 O 99.8627 1.29167 -1.47018 0
M  V30 1014 C 100.162 -1.7763 -3.10133 0
M  V30 1015 C 99.8277 -3.27557 -3.09866 0
M  V30 1016 C 98.4897 -3.6846 -3.09501 0
M  V30 1017 C 100.842 -4.23389 -3.03959 0
M  V30 1018 C 98.1697 -5.03624 -3.00965 0
M  V30 1019 C 100.522 -5.58565 -2.96965 0
M  V30 1020 C 99.1857 -5.98809 -2.9493 0
M  V30 1021 H 98.4557 -0.398084 -0.624988 0
M  V30 1022 H 101.103 -1.54777 -1.12767 0
M  V30 1023 H 99.4077 -1.24044 -3.71645 0
M  V30 1024 H 101.105 -1.62832 -3.66451 0
M  V30 1025 H 97.6947 -2.95006 -3.10917 0
M  V30 1026 H 101.879 -3.92787 -3.03368 0
M  V30 1027 H 97.1347 -5.33998 -2.97752 0
M  V30 1028 H 101.309 -6.32523 -2.91354 0
M  V30 1029 H 98.9357 -7.03505 -2.88071 0
M  V30 1030 N 100.511 1.16574 -1.06058 0
M  V30 1031 C 101.759 1.86677 -0.77434 0
M  V30 1032 C 102.08 1.81959 0.701147 0
M  V30 1033 O 101.35 1.2515 1.50713 0
M  V30 1034 H 99.9298 0.691134 -0.283449 0
M  V30 1035 H 102.592 1.41378 -1.34158 0
M  V30 1036 H 101.688 2.92181 -1.09711 0
M  V30 1037 N 101.989 0.842826 1.3317 0
M  V30 1038 C 102.899 0.281444 2.32906 0
M  V30 1039 C 103.915 -0.594587 1.63526 0
M  V30 1040 O 105.091 -0.49777 1.95152 0
M  V30 1041 C 102.156 -0.530929 3.42611 0
M  V30 1042 C 101.217 0.369843 4.27704 0
M  V30 1043 C 100.45 -0.403853 5.3217 0
M  V30 1044 O 100.673 -1.63513 5.46461 0
M  V30 1045 O 99.6069 0.224199 6.01482 0
M  V30 1046 H 103.433 1.10744 2.82789 0
M  V30 1047 H 101.018 0.60545 1.36582 0
M  V30 1048 H 102.9 -0.992437 4.09547 0
M  V30 1049 H 101.575 -1.33392 2.94938 0
M  V30 1050 H 100.482 0.879275 3.6362 0
M  V30 1051 H 101.815 1.13771 4.78871 0
M  V30 1052 N 103.467 -1.45747 0.599634 0
M  V30 1053 C 104.714 -2.02292 0.0917284 0
M  V30 1054 C 105.042 -1.46906 -1.27472 0
M  V30 1055 O 104.297 -0.630652 -1.8526 0
M  V30 1056 C 104.596 -3.57399 -0.00602758 0
M  V30 1057 C 104.262 -4.31902 1.29503 0
M  V30 1058 C 102.924 -4.51974 1.65144 0
M  V30 1059 C 105.276 -4.74551 2.15525 0
M  V30 1060 C 102.604 -5.11949 2.86574 0
M  V30 1061 C 104.956 -5.35868 3.36196 0
M  V30 1062 C 103.62 -5.54165 3.72099 0
M  V30 1063 H 102.89 -0.740239 0.0335658 0
M  V30 1064 H 105.537 -1.7491 0.779661 0
M  V30 1065 H 103.842 -3.84014 -0.777183 0
M  V30 1066 H 105.539 -3.98846 -0.415038 0
M  V30 1067 H 102.129 -4.16588 1.00761 0
M  V30 1068 H 106.313 -4.58784 1.8929 0
M  V30 1069 H 101.569 -5.24305 3.14507 0
M  V30 1070 H 105.743 -5.6787 4.03109 0
M  V30 1071 H 103.37 -6.00406 4.6628 0
M  V30 1072 N 104.945 -0.338344 -1.53925 0
M  V30 1073 C 105.855 0.529421 -2.28548 0
M  V30 1074 C 106.871 1.11645 -1.3346 0
M  V30 1075 O 108.047 1.13325 -1.66492 0
M  V30 1076 C 105.112 1.66713 -3.03987 0
M  V30 1077 C 104.173 1.11041 -4.14691 0
M  V30 1078 C 103.406 2.19389 -4.86522 0
M  V30 1079 O 103.629 3.40013 -4.57982 0
M  V30 1080 O 102.563 1.83976 -5.73094 0
M  V30 1081 H 106.389 -0.0770399 -3.03602 0
M  V30 1082 H 103.974 -0.103555 -1.49041 0
M  V30 1083 H 105.856 2.32918 -3.5118 0
M  V30 1084 H 104.531 2.25949 -2.31794 0
M  V30 1085 H 103.438 0.413024 -3.71813 0
M  V30 1086 H 104.771 0.562975 -4.8897 0
M  V30 1087 N 106.423 1.57458 -0.0668435 0
M  V30 1088 C 107.669 1.93587 0.6043 0
M  V30 1089 C 108.002 0.946722 1.69561 0
M  V30 1090 O 107.277 -0.0248516 1.94484 0
M  V30 1091 C 107.56 3.40014 1.18585 0
M  V30 1092 C 107.413 4.49685 0.101529 0
M  V30 1093 C 108.732 3.87154 2.09284 0
M  V30 1094 H 105.851 0.703958 0.218202 0
M  V30 1095 H 108.493 1.89542 -0.131804 0
M  V30 1096 H 106.643 3.43592 1.81319 0
M  V30 1097 H 108.315 4.5823 -0.531279 0
M  V30 1098 H 106.558 4.30059 -0.568487 0
M  V30 1099 H 107.229 5.49266 0.54874 0
M  V30 1100 H 109.705 3.85551 1.56491 0
M  V30 1101 H 108.581 4.90231 2.46911 0
M  V30 1102 H 108.842 3.2481 2.99918 0
M  V30 1103 N 107.901 -0.206675 1.56239 0
M  V30 1104 C 109.129 -0.945345 1.8404 0
M  V30 1105 C 109.544 -1.77336 0.647885 0
M  V30 1106 O 108.901 -1.78425 -0.383511 0
M  V30 1107 C 108.952 -1.8509 3.10522 0
M  V30 1108 O 108.673 -1.05634 4.25174 0
M  V30 1109 C 110.174 -2.70222 3.51418 0
M  V30 1110 H 107.394 -0.276372 0.61144 0
M  V30 1111 H 109.938 -0.217417 2.03341 0
M  V30 1112 H 108.093 -2.53259 2.93153 0
M  V30 1113 H 108.507 -1.67238 4.97124 0
M  V30 1114 H 109.981 -3.29438 4.42916 0
M  V30 1115 H 110.458 -3.43358 2.73864 0
M  V30 1116 H 111.064 -2.07443 3.71278 0
M  V30 1117 N 109.379 -1.50304 -0.473955 0
M  V30 1118 C 110.289 -1.7174 -1.5982 0
M  V30 1119 C 111.305 -0.600457 -1.63311 0
M  V30 1120 O 112.481 -0.878441 -1.81233 0
M  V30 1121 C 109.546 -1.80427 -2.96052 0
M  V30 1122 C 108.607 -3.04148 -3.02972 0
M  V30 1123 C 107.84 -3.12411 -4.32706 0
M  V30 1124 O 108.063 -2.27542 -5.23049 0
M  V30 1125 O 106.997 -4.05113 -4.45159 0
M  V30 1126 H 110.823 -2.67035 -1.44657 0
M  V30 1127 H 108.408 -1.34366 -0.653148 0
M  V30 1128 H 110.29 -1.88338 -3.7697 0
M  V30 1129 H 108.965 -0.883156 -3.11419 0
M  V30 1130 H 107.872 -3.0174 -2.21142 0
M  V30 1131 H 109.205 -3.95829 -2.92541 0
M  V30 1132 N 110.857 0.726932 -1.39834 0
M  V30 1133 C 112.134 1.47902 -1.28001 0
M  V30 1134 C 112.514 2.1083 0.106789 0
M  V30 1135 O 111.862 1.99242 1.11869 0
M  V30 1136 C 112.072 2.52392 -2.41038 0
M  V30 1137 C 113.42 3.18546 -2.80737 0
M  V30 1138 O 114.444 2.62708 -2.40547 0
M  V30 1139 O 113.303 4.19604 -3.50135 0
M  V30 1140 H 110.397 0.657163 -0.502062 0
M  V30 1141 H 112.943 0.760071 -1.51727 0
M  V30 1142 H 111.715 2.04329 -3.33715 0
M  V30 1143 H 111.338 3.31837 -2.19021 0
M  V30 1144 N 112.336 1.25143 0.95797 0
M  V30 1145 C 113.582 1.09855 1.70469 0
M  V30 1146 C 113.915 -0.360187 1.90831 0
M  V30 1147 O 113.19 -1.26568 1.47685 0
M  V30 1148 C 113.473 1.8497 3.08963 0
M  V30 1149 C 113.326 3.38652 2.96032 0
M  V30 1150 C 114.645 1.63016 4.08795 0
M  V30 1151 H 111.764 0.400465 0.618706 0
M  V30 1152 H 114.406 1.53933 1.11376 0
M  V30 1153 H 112.556 1.47505 3.59409 0
M  V30 1154 H 114.228 3.85772 2.52938 0
M  V30 1155 H 112.471 3.66534 2.32025 0
M  V30 1156 H 113.142 3.8642 3.94187 0
M  V30 1157 H 115.618 1.95625 3.67247 0
M  V30 1158 H 114.494 2.18015 5.03747 0
M  V30 1159 H 114.755 0.570692 4.38401 0
M  V30 1160 N 113.814 -1.1601 1.06675 0
M  V30 1161 C 115.039 -1.91068 0.806706 0
M  V30 1162 C 115.464 -1.77112 -0.633485 0
M  V30 1163 O 114.822 -1.09908 -1.44187 0
M  V30 1164 C 114.87 -3.39655 1.21106 0
M  V30 1165 O 113.974 -4.10893 0.352189 0
M  V30 1166 H 113.315 -0.595125 0.294486 0
M  V30 1167 H 115.845 -1.46955 1.42356 0
M  V30 1168 H 115.855 -3.90434 1.18428 0
M  V30 1169 H 114.53 -3.49132 2.26008 0
M  V30 1170 H 113.107 -3.70285 0.440868 0
M  V30 1171 N 115.292 -0.849877 -1.32721 0
M  V30 1172 C 116.239 -0.289033 -2.28983 0
M  V30 1173 C 117.209 0.601324 -1.54833 0
M  V30 1174 O 118.394 0.537253 -1.8308 0
M  V30 1175 C 115.534 0.520623 -3.4115 0
M  V30 1176 C 114.647 -0.394989 -4.3019 0
M  V30 1177 C 113.782 0.426834 -5.29482 0
M  V30 1178 C 112.821 -0.486476 -6.10164 0
M  V30 1179 N 111.958 0.297879 -7.01468 0
M  V30 1180 H 116.798 -1.11519 -2.76347 0
M  V30 1181 H 114.335 -0.56138 -1.35967 0
M  V30 1182 H 116.293 1.00563 -4.04899 0
M  V30 1183 H 114.923 1.31165 -2.9495 0
M  V30 1184 H 113.975 -0.99836 -3.67065 0
M  V30 1185 H 115.287 -1.09612 -4.86607 0
M  V30 1186 H 114.441 0.975205 -5.98811 0
M  V30 1187 H 113.18 1.16136 -4.73671 0
M  V30 1188 H 112.185 -1.04677 -5.39743 0
M  V30 1189 H 113.41 -1.21953 -6.6806 0
M  V30 1190 H 111.356 1.01558 -6.48091 0
M  V30 1191 H 111.273 -0.344318 -7.55216 0
M  V30 1192 H 112.541 0.828131 -7.75089 0
M  V30 1193 N 116.77 1.45427 -0.607355 0
M  V30 1194 C 118 2.06314 -0.108656 0
M  V30 1195 C 118.408 1.45269 1.21217 0
M  V30 1196 O 117.751 0.561115 1.74921 0
M  V30 1197 C 117.813 3.59345 0.105618 0
M  V30 1198 C 117.477 4.42723 -1.13337 0
M  V30 1199 C 118.474 4.77715 -2.05145 0
M  V30 1200 C 116.159 4.83478 -1.36213 0
M  V30 1201 C 118.153 5.52317 -3.18158 0
M  V30 1202 C 115.84 5.57835 -2.49527 0
M  V30 1203 C 116.838 5.92171 -3.40327 0
M  V30 1204 O 116.526 6.65019 -4.51669 0
M  V30 1205 H 116.258 0.672782 -0.0658842 0
M  V30 1206 H 118.812 1.87664 -0.834945 0
M  V30 1207 H 117.042 3.76394 0.886796 0
M  V30 1208 H 118.731 4.02076 0.555886 0
M  V30 1209 H 119.497 4.46787 -1.88697 0
M  V30 1210 H 115.376 4.56188 -0.664362 0
M  V30 1211 H 118.92 5.79036 -3.89054 0
M  V30 1212 H 114.817 5.88177 -2.65928 0
M  V30 1213 H 115.585 6.83469 -4.50348 0
M  V30 1214 N 118.248 0.346503 1.53744 0
M  V30 1215 C 119.476 -0.25041 2.05379 0
M  V30 1216 C 119.891 -1.43979 1.22129 0
M  V30 1217 O 119.248 -1.80677 0.257321 0
M  V30 1218 C 119.299 -0.662575 3.55376 0
M  V30 1219 O 119.02 0.479515 4.35468 0
M  V30 1220 C 120.521 -1.31989 4.23195 0
M  V30 1221 H 117.741 -0.0478198 0.669294 0
M  V30 1222 H 120.285 0.499346 1.9831 0
M  V30 1223 H 118.44 -1.36227 3.62658 0
M  V30 1224 H 118.854 0.15037 5.24284 0
M  V30 1225 H 120.328 -1.55902 5.29527 0
M  V30 1226 H 120.805 -2.27436 3.75725 0
M  V30 1227 H 121.411 -0.662154 4.20114 0
M  V30 1228 N 119.726 -1.57421 0.075193 0
M  V30 1229 C 120.673 -2.12915 -0.890843 0
M  V30 1230 C 121.643 -1.04252 -1.29309 0
M  V30 1231 O 122.828 -1.31933 -1.37834 0
M  V30 1232 C 119.968 -2.69795 -2.15186 0
M  V30 1233 C 119.081 -3.92624 -1.80194 0
M  V30 1234 C 118.216 -4.37736 -3.00933 0
M  V30 1235 C 117.255 -5.53205 -2.61974 0
M  V30 1236 N 116.392 -5.9326 -3.75483 0
M  V30 1237 H 121.232 -2.95156 -0.410735 0
M  V30 1238 H 118.769 -1.45854 -0.191086 0
M  V30 1239 H 120.727 -3.00883 -2.89008 0
M  V30 1240 H 119.357 -1.90313 -2.60731 0
M  V30 1241 H 118.409 -3.67977 -0.964218 0
M  V30 1242 H 119.721 -4.76482 -1.47534 0
M  V30 1243 H 118.875 -4.70503 -3.8303 0
M  V30 1244 H 117.614 -3.52739 -3.36789 0
M  V30 1245 H 116.619 -5.20086 -1.783 0
M  V30 1246 H 117.844 -6.39936 -2.27284 0
M  V30 1247 H 115.79 -5.11212 -4.11094 0
M  V30 1248 H 115.707 -6.71865 -3.46602 0
M  V30 1249 H 116.975 -6.30651 -4.58148 0
M  V30 1250 N 121.204 0.198386 -1.56346 0
M  V30 1251 C 122.167 1.22952 -1.93431 0
M  V30 1252 C 123.167 1.38611 -0.815092 0
M  V30 1253 O 124.357 1.36479 -1.08255 0
M  V30 1254 C 121.489 2.59946 -2.20546 0
M  V30 1255 H 122.682 0.912626 -2.85677 0
M  V30 1256 H 120.235 0.43977 -1.49986 0
M  V30 1257 H 120.97 2.96696 -1.30927 0
M  V30 1258 H 120.755 2.49953 -3.02102 0
M  V30 1259 H 122.245 3.3431 -2.50253 0
M  V30 1260 N 122.682 1.50554 0.465978 0
M  V30 1261 C 123.612 1.72722 1.57128 0
M  V30 1262 C 124.593 0.576294 1.6004 0
M  V30 1263 O 125.778 0.81598 1.76225 0
M  V30 1264 C 122.908 1.82605 2.95419 0
M  V30 1265 C 121.862 2.97835 3.07373 0
M  V30 1266 C 121.188 2.92867 4.47363 0
M  V30 1267 C 122.488 4.38265 2.84114 0
M  V30 1268 H 124.182 2.65267 1.38829 0
M  V30 1269 H 121.728 1.2765 0.666441 0
M  V30 1270 H 123.681 1.96698 3.72677 0
M  V30 1271 H 122.405 0.866858 3.14886 0
M  V30 1272 H 121.064 2.83401 2.3255 0
M  V30 1273 H 120.712 1.94783 4.63755 0
M  V30 1274 H 120.412 3.70227 4.56296 0
M  V30 1275 H 121.936 3.09015 5.26633 0
M  V30 1276 H 123.35 4.53198 3.51118 0
M  V30 1277 H 121.747 5.17115 3.04487 0
M  V30 1278 H 122.817 4.50281 1.7993 0
M  V30 1279 N 124.16 -0.719506 1.40217 0
M  V30 1280 C 125.406 -1.48152 1.38488 0
M  V30 1281 C 125.739 -1.94195 -0.0141867 0
M  V30 1282 O 125.014 -1.67884 -0.982096 0
M  V30 1283 C 125.297 -2.71035 2.37091 0
M  V30 1284 C 125.15 -2.30912 3.86005 0
M  V30 1285 C 126.469 -3.73182 2.33288 0
M  V30 1286 H 123.588 -0.537395 0.504357 0
M  V30 1287 H 126.23 -0.821472 1.71324 0
M  V30 1288 H 124.38 -3.27352 2.0922 0
M  V30 1289 H 126.052 -1.80107 4.24687 0
M  V30 1290 H 124.295 -1.62958 4.02029 0
M  V30 1291 H 124.966 -3.18978 4.50508 0
M  V30 1292 H 127.442 -3.26485 2.57966 0
M  V30 1293 H 126.318 -4.56806 3.04334 0
M  V30 1294 H 126.579 -4.21202 1.34317 0
M  V30 1295 N 125.638 -1.25649 -0.95132 0
M  V30 1296 C 126.885 -1.10594 -1.69633 0
M  V30 1297 C 127.213 0.352515 -1.91279 0
M  V30 1298 O 126.468 1.27601 -1.4838 0
M  V30 1299 C 126.767 -1.80909 -3.08231 0
M  V30 1300 C 126.433 -3.30825 -3.06375 0
M  V30 1301 C 125.095 -3.71722 -3.05576 0
M  V30 1302 C 127.447 -4.26589 -2.99452 0
M  V30 1303 C 124.775 -5.06788 -2.95606 0
M  V30 1304 C 127.127 -5.61683 -2.91024 0
M  V30 1305 C 125.791 -6.01904 -2.88562 0
M  V30 1306 H 125.061 -0.404691 -0.620731 0
M  V30 1307 H 127.708 -1.55964 -1.11119 0
M  V30 1308 H 126.013 -1.27979 -3.70309 0
M  V30 1309 H 127.71 -1.6671 -3.64704 0
M  V30 1310 H 124.3 -2.98287 -3.07771 0
M  V30 1311 H 128.484 -3.95982 -2.99185 0
M  V30 1312 H 123.74 -5.37126 -2.92071 0
M  V30 1313 H 127.914 -6.35578 -2.84629 0
M  V30 1314 H 125.541 -7.06521 -2.80593 0
M  V30 1315 N 127.117 1.15442 -1.07289 0
M  V30 1316 C 128.049 2.19773 -0.650585 0
M  V30 1317 C 129.062 1.60076 0.296572 0
M  V30 1318 O 130.251 1.78293 0.0859905 0
M  V30 1319 C 127.351 3.38838 0.0650398 0
M  V30 1320 C 126.524 4.2808 -0.898141 0
M  V30 1321 C 125.583 5.2574 -0.219926 0
M  V30 1322 O 124.609 5.62654 -0.860773 0
M  V30 1323 N 125.811 5.71205 1.03466 0
M  V30 1324 H 128.576 2.56622 -1.54808 0
M  V30 1325 H 126.137 1.30551 -0.957494 0
M  V30 1326 H 128.129 4.01222 0.529415 0
M  V30 1327 H 126.699 3.00409 0.864466 0
M  V30 1328 H 125.919 3.62804 -1.54165 0
M  V30 1329 H 127.207 4.84577 -1.5512 0
M  V30 1330 H 126.605 5.43325 1.57526 0
M  V30 1331 H 125.162 6.35633 1.44272 0
M  V30 1332 N 128.595 0.856903 1.32268 0
M  V30 1333 C 130.006 0.515711 1.79436 0
M  V30 1334 C 130.357 -0.966586 1.70738 0
M  V30 1335 O 129.482 -1.75409 1.26731 0
M  V30 1336 C 130.077 0.929335 3.25805 0
M  V30 1337 C 128.636 0.640006 3.70919 0
M  V30 1338 C 127.783 1.12784 2.53328 0
M  V30 1339 H 130.734 1.04389 1.19535 0
M  V30 1340 H 130.755 0.246633 3.797 0
M  V30 1341 H 130.267 2.00821 3.32103 0
M  V30 1342 H 128.368 -0.428051 3.70133 0
M  V30 1343 H 128.481 1.20788 4.63624 0
M  V30 1344 H 126.845 0.548033 2.48734 0
M  V30 1345 H 127.628 2.21387 2.62379 0
M  V30 1346 N 130.073 -1.45103 0.615059 0
M  V30 1347 C 131.321 -2.01784 0.112955 0
M  V30 1348 C 131.642 -1.48504 -1.26378 0
M  V30 1349 O 130.912 -0.682245 -1.83636 0
M  V30 1350 H 129.492 -0.745993 0.0387668 0
M  V30 1351 H 132.154 -1.77808 0.798141 0
M  V30 1352 H 131.25 -3.12025 0.0684069 0
M  V30 1353 N 131.551 -0.354651 -1.53558 0
M  V30 1354 C 132.779 0.239515 -2.05509 0
M  V30 1355 C 133.194 1.4333 -1.2289 0
M  V30 1356 O 132.551 1.80538 -0.266899 0
M  V30 1357 C 132.602 0.643719 -3.55723 0
M  V30 1358 O 132.323 -0.502602 -4.35207 0
M  V30 1359 C 133.824 1.29743 -4.23889 0
M  V30 1360 H 131.044 0.0442697 -0.669538 0
M  V30 1361 H 133.588 -0.509856 -1.98042 0
M  V30 1362 H 131.743 1.34302 -3.63376 0
M  V30 1363 H 132.157 -0.178172 -5.24197 0
M  V30 1364 H 133.631 1.53091 -5.30346 0
M  V30 1365 H 134.108 2.25441 -3.76926 0
M  V30 1366 H 134.714 0.639865 -4.20459 0
M  V30 1367 N 133.029 1.57378 -0.0835403 0
M  V30 1368 C 133.976 2.13384 0.879539 0
M  V30 1369 C 134.946 1.04936 1.28754 0
M  V30 1370 O 136.131 1.32662 1.37133 0
M  V30 1371 C 133.271 2.70932 2.13752 0
M  V30 1372 C 132.384 3.93575 1.7811 0
M  V30 1373 C 131.519 4.39326 2.98607 0
M  V30 1374 C 130.558 5.54587 2.59037 0
M  V30 1375 N 129.695 5.95243 3.72331 0
M  V30 1376 H 134.535 2.9537 0.395076 0
M  V30 1377 H 132.072 1.45953 0.183349 0
M  V30 1378 H 134.03 3.02411 2.87408 0
M  V30 1379 H 132.66 1.91693 2.59718 0
M  V30 1380 H 131.712 3.68483 0.94469 0
M  V30 1381 H 133.024 4.77258 1.45005 0
M  V30 1382 H 132.178 4.72528 3.80529 0
M  V30 1383 H 130.917 3.5452 3.34913 0
M  V30 1384 H 129.922 5.21024 1.75539 0
M  V30 1385 H 131.147 6.41133 2.23887 0
M  V30 1386 H 129.093 5.13385 4.08378 0
M  V30 1387 H 129.01 6.73694 3.43034 0
M  V30 1388 H 130.278 6.33072 4.54797 0
M  V30 1389 N 134.507 -0.190092 1.56449 0
M  V30 1390 C 135.735 -0.925772 1.85033 0
M  V30 1391 C 136.15 -1.76638 0.666658 0
M  V30 1392 O 135.507 -1.78822 -0.364565 0
M  V30 1393 C 135.558 -1.81786 3.12468 0
M  V30 1394 O 135.279 -1.01118 4.26271 0
M  V30 1395 C 136.78 -2.6648 3.54265 0
M  V30 1396 H 134 -0.269872 0.614337 0
M  V30 1397 H 136.544 -0.195837 2.0356 0
M  V30 1398 H 134.699 -2.50136 2.95822 0
M  V30 1399 H 135.113 -1.61956 4.98869 0
M  V30 1400 H 136.587 -3.24722 4.46385 0
M  V30 1401 H 137.064 -3.40434 2.77491 0
M  V30 1402 H 137.67 -2.03493 3.73458 0
M  V30 1403 N 135.985 -1.50799 -0.457987 0
M  V30 1404 C 136.895 -1.73426 -1.57989 0
M  V30 1405 C 137.911 -0.617745 -1.62665 0
M  V30 1406 O 139.087 -0.897614 -1.80291 0
M  V30 1407 C 136.152 -1.83557 -2.94122 0
M  V30 1408 C 135.213 -3.07345 -2.99729 0
M  V30 1409 C 134.446 -3.16983 -4.29368 0
M  V30 1410 O 134.669 -2.33077 -5.20607 0
M  V30 1411 O 133.603 -4.09812 -4.40837 0
M  V30 1412 H 137.429 -2.68555 -1.41817 0
M  V30 1413 H 135.014 -1.35052 -0.638859 0
M  V30 1414 H 136.896 -1.92326 -3.74952 0
M  V30 1415 H 135.571 -0.916137 -3.10465 0
M  V30 1416 H 134.478 -3.04068 -2.1793 0
M  V30 1417 H 135.811 -3.9891 -2.88326 0
M  V30 1418 N 137.463 0.71206 -1.40597 0
M  V30 1419 C 138.691 1.50111 -1.42388 0
M  V30 1420 C 139.106 1.88784 -0.0245395 0
M  V30 1421 O 138.463 1.55681 0.952351 0
M  V30 1422 C 138.514 2.7742 -2.31776 0
M  V30 1423 O 138.235 2.40382 -3.66262 0
M  V30 1424 C 139.736 3.7129 -2.42196 0
M  V30 1425 H 136.956 0.46314 -0.485533 0
M  V30 1426 H 139.5 0.878068 -1.8469 0
M  V30 1427 H 137.655 3.36001 -1.92827 0
M  V30 1428 H 138.069 3.22324 -4.13772 0
M  V30 1429 H 139.543 4.57448 -3.08943 0
M  V30 1430 H 140.02 4.14641 -1.44809 0
M  V30 1431 H 140.626 3.18619 -2.81712 0
M  V30 1432 N 138.941 1.26152 0.944643 0
M  V30 1433 C 139.871 1.09902 2.06019 0
M  V30 1434 C 140.852 0.00519538 1.70099 0
M  V30 1435 O 142.037 0.176583 1.93396 0
M  V30 1436 C 139.167 0.727562 3.39594 0
M  V30 1437 C 138.121 1.77274 3.89561 0
M  V30 1438 C 137.447 1.25569 5.19747 0
M  V30 1439 C 138.747 3.17357 4.14827 0
M  V30 1440 H 140.441 2.03217 2.19871 0
M  V30 1441 H 137.987 0.978452 1.05652 0
M  V30 1442 H 139.94 0.600777 4.17095 0
M  V30 1443 H 138.664 -0.241287 3.25707 0
M  V30 1444 H 137.323 1.88814 3.14237 0
M  V30 1445 H 136.971 0.276783 5.02238 0
M  V30 1446 H 136.671 1.95433 5.54148 0
M  V30 1447 H 138.195 1.1415 5.99835 0
M  V30 1448 H 139.609 3.08914 4.82954 0
M  V30 1449 H 138.006 3.84781 4.60504 0
M  V30 1450 H 139.076 3.63673 3.20734 0
M  V30 1451 N 140.419 -1.14872 1.07899 0
M  V30 1452 C 141.349 -2.2193 0.725887 0
M  V30 1453 C 142.33 -1.67622 -0.28927 0
M  V30 1454 O 143.515 -1.93533 -0.160787 0
M  V30 1455 C 140.645 -3.47061 0.128856 0
M  V30 1456 C 139.599 -4.14363 1.07178 0
M  V30 1457 C 138.925 -5.33636 0.337229 0
M  V30 1458 C 140.225 -4.63492 2.40775 0
M  V30 1459 H 141.919 -2.51724 1.62097 0
M  V30 1460 H 139.465 -1.20991 0.780838 0
M  V30 1461 H 141.418 -4.21199 -0.130147 0
M  V30 1462 H 140.142 -3.16617 -0.80134 0
M  V30 1463 H 138.801 -3.42173 1.3158 0
M  V30 1464 H 138.449 -4.99449 -0.596606 0
M  V30 1465 H 138.149 -5.79609 0.965788 0
M  V30 1466 H 139.673 -6.10539 0.0861567 0
M  V30 1467 H 141.087 -5.2913 2.20669 0
M  V30 1468 H 139.484 -5.20148 2.99276 0
M  V30 1469 H 140.554 -3.78834 3.02676 0
M  V30 1470 N 141.898 -0.863906 -1.31812 0
M  V30 1471 C 143.314 -0.555004 -1.49639 0
M  V30 1472 C 143.514 0.912266 -1.79666 0
M  V30 1473 O 142.57 1.69479 -1.87171 0
M  V30 1474 C 143.883 -1.44998 -2.63431 0
M  V30 1475 C 145.431 -1.45138 -2.77316 0
M  V30 1476 C 145.906 -2.33179 -3.94197 0
M  V30 1477 N 147.397 -2.31025 -4.01474 0
M  V30 1478 C 148.132 -2.95871 -4.9117 0
M  V30 1479 N 147.628 -3.69863 -5.8581 0
M  V30 1480 N 149.421 -2.85211 -4.84367 0
M  V30 1481 H 141.572 -1.81339 -1.10589 0
M  V30 1482 H 143.835 -0.77505 -0.545895 0
M  V30 1483 H 143.541 -2.49377 -2.48 0
M  V30 1484 H 143.415 -1.14409 -3.59431 0
M  V30 1485 H 145.802 -0.415201 -2.92164 0
M  V30 1486 H 145.883 -1.79747 -1.82001 0
M  V30 1487 H 145.527 -3.3687 -3.80107 0
M  V30 1488 H 145.457 -1.95897 -4.88807 0
M  V30 1489 H 147.948 -1.77238 -3.33759 0
M  V30 1490 H 148.261 -4.16486 -6.50968 0
M  V30 1491 H 146.606 -3.73971 -5.85808 0
M  V30 1492 H 149.797 -2.26948 -4.09405 0
M  V30 1493 H 149.97 -3.36027 -5.54066 0
M  V30 1494 N 143.376 1.44774 -0.622745 0
M  V30 1495 C 144.623 2.02121 -0.1239 0
M  V30 1496 C 144.951 1.48915 1.25118 0
M  V30 1497 O 144.206 0.660045 1.84233 0
M  V30 1498 C 144.505 3.57364 -0.0508323 0
M  V30 1499 C 144.171 4.29787 -1.36358 0
M  V30 1500 C 142.833 4.4929 -1.72314 0
M  V30 1501 C 145.185 4.71062 -2.23048 0
M  V30 1502 C 142.513 5.07325 -2.94682 0
M  V30 1503 C 144.865 5.30452 -3.44679 0
M  V30 1504 C 143.529 5.48175 -3.80868 0
M  V30 1505 H 142.799 0.739612 -0.0453381 0
M  V30 1506 H 145.446 1.73648 -0.807389 0
M  V30 1507 H 143.751 3.85202 0.715991 0
M  V30 1508 H 145.448 3.99456 0.351533 0
M  V30 1509 H 142.038 4.14932 -1.07375 0
M  V30 1510 H 146.222 4.55715 -1.96565 0
M  V30 1511 H 141.478 5.19235 -3.22809 0
M  V30 1512 H 145.652 5.61385 -4.12092 0
M  V30 1513 H 143.279 5.92912 -4.75773 0
M  V30 1514 N 144.854 0.36279 1.53368 0
M  V30 1515 C 146.079 -0.231226 2.06107 0
M  V30 1516 C 146.504 -1.419 1.23474 0
M  V30 1517 O 145.862 -1.79524 0.253128 0
M  V30 1518 C 145.91 -0.605523 3.5548 0
M  V30 1519 O 145.014 -1.70312 3.7559 0
M  V30 1520 H 144.355 -0.034327 0.663112 0
M  V30 1521 H 146.885 0.522584 1.97814 0
M  V30 1522 H 146.895 -0.877314 3.98456 0
M  V30 1523 H 145.57 0.263004 4.15068 0
M  V30 1524 H 144.147 -1.4271 3.44512 0
M  V30 1525 N 146.332 -1.57332 0.0918853 0
M  V30 1526 C 147.56 -1.98574 -0.581048 0
M  V30 1527 C 147.975 -0.970903 -1.61923 0
M  V30 1528 O 147.332 0.0399054 -1.82456 0
M  V30 1529 C 147.383 -3.39872 -1.23164 0
M  V30 1530 O 147.104 -4.37469 -0.234989 0
M  V30 1531 C 148.605 -3.96099 -1.99049 0
M  V30 1532 H 145.825 -0.65261 -0.156018 0
M  V30 1533 H 148.369 -2.0379 0.170225 0
M  V30 1534 H 146.524 -3.35679 -1.93386 0
M  V30 1535 H 146.938 -5.19751 -0.70418 0
M  V30 1536 H 148.412 -4.97127 -2.39934 0
M  V30 1537 H 148.889 -3.3374 -2.85507 0
M  V30 1538 H 149.495 -4.03755 -1.3365 0
M  V30 1539 N 147.81 0.181792 -1.56548 0
M  V30 1540 C 149.056 0.901431 -1.81665 0
M  V30 1541 C 149.389 1.82347 -0.668075 0
M  V30 1542 O 148.664 1.91669 0.330615 0
M  V30 1543 C 148.947 1.70618 -3.17115 0
M  V30 1544 C 148.8 0.807964 -4.42484 0
M  V30 1545 C 150.119 2.67605 -3.49393 0
M  V30 1546 H 147.238 0.32627 -0.660846 0
M  V30 1547 H 149.88 0.168134 -1.89255 0
M  V30 1548 H 148.03 2.33133 -3.10775 0
M  V30 1549 H 149.702 0.19649 -4.60881 0
M  V30 1550 H 147.945 0.115411 -4.33646 0
M  V30 1551 H 148.616 1.40632 -5.33785 0
M  V30 1552 H 151.092 2.15218 -3.56118 0
M  V30 1553 H 149.968 3.20985 -4.45264 0
M  V30 1554 H 150.229 3.47298 -2.73563 0
M  V30 1555 N 149.288 1.51039 0.449983 0
M  V30 1556 C 150.251 1.70863 1.5277 0
M  V30 1557 C 151.251 0.578846 1.5002 0
M  V30 1558 O 152.441 0.846213 1.52266 0
M  V30 1559 C 149.573 1.75341 2.9235 0
M  V30 1560 H 150.766 2.67034 1.36502 0
M  V30 1561 H 148.319 1.40838 0.677812 0
M  V30 1562 H 149.054 0.809383 3.14037 0
M  V30 1563 H 148.839 2.57436 2.95752 0
M  V30 1564 H 150.329 1.92559 3.70555 0
M  V30 1565 N 150.766 -0.704594 1.40972 0
M  V30 1566 C 152.014 -1.46169 1.39568 0
M  V30 1567 C 152.335 -1.95 0.00253745 0
M  V30 1568 O 151.605 -1.71095 -0.954114 0
M  V30 1569 H 150.185 -0.542326 0.513704 0
M  V30 1570 H 152.847 -0.834553 1.76128 0
M  V30 1571 H 151.943 -2.32922 2.07735 0
M  V30 1572 N 152.244 -1.26651 -0.937939 0
M  V30 1573 C 153.154 -1.10276 -2.07066 0
M  V30 1574 C 154.17 -0.0354197 -1.73964 0
M  V30 1575 O 155.346 -0.239816 -1.99967 0
M  V30 1576 C 152.411 -0.740887 -3.38691 0
M  V30 1577 C 151.472 -1.88799 -3.85556 0
M  V30 1578 C 150.705 -1.54329 -5.10899 0
M  V30 1579 O 150.928 -0.446494 -5.6865 0
M  V30 1580 O 149.862 -2.37911 -5.52885 0
M  V30 1581 H 153.688 -2.05309 -2.23789 0
M  V30 1582 H 151.273 -1.05743 -1.0554 0
M  V30 1583 H 153.155 -0.55195 -4.1777 0
M  V30 1584 H 151.83 0.180022 -3.23199 0
M  V30 1585 H 150.737 -2.13191 -3.07409 0
M  V30 1586 H 152.07 -2.78874 -4.05574 0
M  V30 1587 N 153.722 1.14298 -1.08507 0
M  V30 1588 C 154.652 2.21542 -0.737646 0
M  V30 1589 C 155.633 1.67773 0.280377 0
M  V30 1590 O 156.818 1.93616 0.150521 0
M  V30 1591 C 153.948 3.46988 -0.147259 0
M  V30 1592 C 152.902 4.13789 -1.09374 0
M  V30 1593 C 152.228 5.33449 -0.365524 0
M  V30 1594 C 153.528 4.62208 -2.4323 0
M  V30 1595 H 155.222 2.5086 -1.6343 0
M  V30 1596 H 152.768 1.20576 -0.787243 0
M  V30 1597 H 154.721 4.21262 0.107808 0
M  V30 1598 H 153.445 3.17037 0.784538 0
M  V30 1599 H 152.104 3.4147 -1.33393 0
M  V30 1600 H 151.752 4.99759 0.57011 0
M  V30 1601 H 151.452 5.79088 -0.996512 0
M  V30 1602 H 152.976 6.10485 -0.118534 0
M  V30 1603 H 154.39 5.27952 -2.23472 0
M  V30 1604 H 152.787 5.18553 -3.02031 0
M  V30 1605 H 153.857 3.77224 -3.04681 0
M  V30 1606 N 155.201 0.870884 1.31352 0
M  V30 1607 C 156.449 0.48132 1.96285 0
M  V30 1608 C 156.77 -0.969813 1.69173 0
M  V30 1609 O 156.04 -1.67998 1.00764 0
M  V30 1610 H 154.62 0.175002 0.726212 0
M  V30 1611 H 157.282 1.11087 1.60143 0
M  V30 1612 H 156.378 0.639825 3.05471 0
M  V30 1613 N 156.679 -1.44442 0.630414 0
M  V30 1614 C 157.904 -2.06927 0.139944 0
M  V30 1615 C 158.329 -1.46795 -1.17613 0
M  V30 1616 O 157.687 -0.569144 -1.72135 0
M  V30 1617 C 157.735 -3.6058 0.0379581 0
M  V30 1618 O 156.839 -3.99937 -1.0062 0
M  V30 1619 H 156.18 -0.658608 0.0844483 0
M  V30 1620 H 158.71 -1.85327 0.866891 0
M  V30 1621 H 158.72 -4.07714 -0.152856 0
M  V30 1622 H 157.395 -4.03728 0.998809 0
M  V30 1623 H 155.972 -3.64436 -0.79001 0
M  V30 1624 N 158.157 -0.370918 -1.53173 0
M  V30 1625 C 159.568 0.107139 -1.86392 0
M  V30 1626 C 159.919 1.47714 -1.29132 0
M  V30 1627 O 159.044 2.07464 -0.615439 0
M  V30 1628 C 159.639 0.201187 -3.38202 0
M  V30 1629 C 158.198 0.623507 -3.712 0
M  V30 1630 C 157.345 -0.225978 -2.76378 0
M  V30 1631 H 160.296 -0.58951 -1.47345 0
M  V30 1632 H 160.317 1.02377 -3.66468 0
M  V30 1633 H 159.829 -0.796058 -3.79848 0
M  V30 1634 H 157.93 1.62879 -3.35114 0
M  V30 1635 H 158.043 0.394414 -4.77474 0
M  V30 1636 H 156.407 0.305962 -2.52856 0
M  V30 1637 H 157.19 -1.22086 -3.20858 0
M  V30 1638 N 159.635 1.57281 -0.100228 0
M  V30 1639 C 160.912 1.86014 0.604812 0
M  V30 1640 C 161.292 0.998025 1.86018 0
M  V30 1641 O 160.64 0.0718184 2.28387 0
M  V30 1642 C 160.85 3.36784 0.915278 0
M  V30 1643 C 162.198 4.04957 1.27651 0
M  V30 1644 O 163.222 3.41695 1.00613 0
M  V30 1645 O 162.081 5.16593 1.7831 0
M  V30 1646 H 159.175 0.76942 0.303185 0
M  V30 1647 H 161.721 1.69176 -0.133313 0
M  V30 1648 H 160.493 3.91292 0.0248896 0
M  V30 1649 H 160.116 3.58987 1.70921 0
M  V30 1650 N 161.113 -0.173488 1.56642 0
M  V30 1651 C 162.341 -0.906095 1.86004 0
M  V30 1652 C 162.756 -1.75921 0.685355 0
M  V30 1653 O 162.113 -1.79198 -0.345578 0
M  V30 1654 C 162.164 -1.78462 3.14378 0
M  V30 1655 O 161.885 -0.965914 4.27319 0
M  V30 1656 C 163.386 -2.62707 3.57071 0
M  V30 1657 H 160.606 -0.263341 0.617165 0
M  V30 1658 H 163.15 -0.174236 2.03756 0
M  V30 1659 H 161.305 -2.46984 2.98459 0
M  V30 1660 H 161.719 -1.56655 5.00559 0
M  V30 1661 H 163.193 -3.19969 4.49804 0
M  V30 1662 H 163.67 -3.37472 2.81086 0
M  V30 1663 H 164.276 -1.99521 3.75595 0
M  V30 1664 N 162.591 -1.51276 -0.441967 0
M  V30 1665 C 163.837 -1.6492 -1.1905 0
M  V30 1666 C 164.192 -0.358731 -1.89026 0
M  V30 1667 O 163.485 0.645193 -1.8041 0
M  V30 1668 C 163.679 -2.78746 -2.23686 0
M  V30 1669 C 163.508 -4.18737 -1.63979 0
M  V30 1670 C 162.278 -4.84739 -1.42674 0
M  V30 1671 C 164.476 -5.01988 -1.11858 0
M  V30 1672 N 162.458 -6.08858 -0.785159 0
M  V30 1673 C 163.829 -6.17071 -0.601989 0
M  V30 1674 C 165.884 -4.87551 -1.0099 0
M  V30 1675 C 164.587 -7.19299 0.0126012 0
M  V30 1676 C 166.613 -5.89983 -0.409206 0
M  V30 1677 C 165.975 -7.04333 0.0968651 0
M  V30 1678 H 162.074 -0.657416 -0.423471 0
M  V30 1679 H 164.658 -1.8849 -0.48782 0
M  V30 1680 H 162.829 -2.56848 -2.91348 0
M  V30 1681 H 164.561 -2.81595 -2.90666 0
M  V30 1682 H 161.316 -4.42528 -1.68719 0
M  V30 1683 H 161.74 -6.75282 -0.481942 0
M  V30 1684 H 166.382 -3.99401 -1.38703 0
M  V30 1685 H 164.1 -8.071 0.401879 0
M  V30 1686 H 167.686 -5.8088 -0.327079 0
M  V30 1687 H 166.566 -7.82238 0.554373 0
M  V30 1688 N 164.069 0.697108 -1.41344 0
M  V30 1689 C 165.485 1.00751 -1.2378 0
M  V30 1690 C 165.685 2.01105 -0.126066 0
M  V30 1691 O 164.741 2.47295 0.51004 0
M  V30 1692 C 166.054 1.53359 -2.58653 0
M  V30 1693 C 167.602 1.6525 -2.65822 0
M  V30 1694 C 168.077 2.2126 -4.01009 0
M  V30 1695 N 169.568 2.28622 -4.02847 0
M  V30 1696 C 170.303 2.72984 -5.04249 0
M  V30 1697 N 169.799 3.16962 -6.16041 0
M  V30 1698 N 171.592 2.72534 -4.91611 0
M  V30 1699 H 163.743 0.0322662 -2.12375 0
M  V30 1700 H 166.006 0.0768853 -0.944877 0
M  V30 1701 H 165.712 0.870773 -3.4075 0
M  V30 1702 H 165.586 2.51597 -2.81032 0
M  V30 1703 H 167.973 2.30644 -1.84086 0
M  V30 1704 H 168.054 0.655614 -2.47256 0
M  V30 1705 H 167.698 1.56482 -4.83193 0
M  V30 1706 H 167.628 3.21698 -4.16915 0
M  V30 1707 H 170.119 1.97585 -3.22131 0
M  V30 1708 H 170.432 3.49434 -6.89287 0
M  V30 1709 H 168.777 3.14875 -6.1958 0
M  V30 1710 H 171.968 2.37525 -4.0336 0
M  V30 1711 H 172.141 3.06789 -5.70775 0
M  V30 1712 N 165.547 1.27147 0.931209 0
M  V30 1713 C 166.824 1.0401 1.65654 0
M  V30 1714 C 167.204 -0.426297 2.06751 0
M  V30 1715 O 166.552 -1.40879 1.79904 0
M  V30 1716 C 166.762 1.99834 2.86125 0
M  V30 1717 C 168.11 2.29007 3.57549 0
M  V30 1718 O 169.134 1.97779 2.96246 0
M  V30 1719 O 167.993 2.82222 4.67989 0
M  V30 1720 H 165.087 0.396239 0.725895 0
M  V30 1721 H 167.633 1.38397 0.982056 0
M  V30 1722 H 166.405 2.98744 2.52721 0
M  V30 1723 H 166.028 1.65987 3.61295 0
M  V30 1724 N 167.025 -1.13721 1.09112 0
M  V30 1725 C 168.271 -1.85198 0.826414 0
M  V30 1726 C 168.604 -1.83129 -0.646319 0
M  V30 1727 O 167.879 -1.2671 -1.47563 0
M  V30 1728 C 168.162 -3.33507 1.35812 0
M  V30 1729 C 168.015 -3.44108 2.89672 0
M  V30 1730 C 169.334 -4.28838 0.989256 0
M  V30 1731 H 166.453 -0.67243 0.301675 0
M  V30 1732 H 169.095 -1.33499 1.35197 0
M  V30 1733 H 167.245 -3.77666 0.911082 0
M  V30 1734 H 168.917 -3.08684 3.428 0
M  V30 1735 H 167.16 -2.85087 3.26967 0
M  V30 1736 H 167.831 -4.48388 3.21951 0
M  V30 1737 H 170.307 -3.92734 1.37475 0
M  V30 1738 H 169.183 -5.31051 1.38838 0
M  V30 1739 H 169.444 -4.4198 -0.102924 0
M  V30 1740 N 168.503 -0.877838 -1.30888 0
M  V30 1741 C 169.919 -0.570844 -1.49042 0
M  V30 1742 C 170.119 0.893159 -1.80624 0
M  V30 1743 O 169.175 1.67485 -1.88958 0
M  V30 1744 C 170.488 -1.47784 -2.61878 0
M  V30 1745 C 172.036 -1.48071 -2.75761 0
M  V30 1746 C 172.511 -2.37347 -3.91702 0
M  V30 1747 N 174.002 -2.35271 -3.99001 0
M  V30 1748 C 174.737 -3.01063 -4.88004 0
M  V30 1749 N 174.233 -3.76055 -5.81854 0
M  V30 1750 N 176.026 -2.90332 -4.81315 0
M  V30 1751 H 168.177 -1.82502 -1.0866 0
M  V30 1752 H 170.44 -0.780797 -0.537644 0
M  V30 1753 H 170.146 -2.51993 -2.45341 0
M  V30 1754 H 170.02 -1.18215 -3.58197 0
M  V30 1755 H 172.407 -0.446166 -2.91708 0
M  V30 1756 H 172.488 -1.81668 -1.80085 0
M  V30 1757 H 172.132 -3.40883 -3.76512 0
M  V30 1758 H 172.062 -2.01071 -4.86701 0
M  V30 1759 H 174.553 -1.80768 -3.3186 0
M  V30 1760 H 174.866 -4.23366 -6.46514 0
M  V30 1761 H 173.211 -3.80163 -5.81808 0
M  V30 1762 H 176.402 -2.31278 -4.06974 0
M  V30 1763 H 176.575 -3.41885 -5.50471 0
M  V30 1764 N 169.982 1.44106 -0.638065 0
M  V30 1765 C 171.23 2.01579 -0.145043 0
M  V30 1766 C 171.551 1.50496 1.24 0
M  V30 1767 O 170.821 0.711374 1.82527 0
M  V30 1768 H 169.401 0.745282 -0.05063 0
M  V30 1769 H 172.063 1.76516 -0.826327 0
M  V30 1770 H 171.159 3.11877 -0.118039 0
M  V30 1771 N 171.46 0.379036 1.52974 0
M  V30 1772 C 172.707 -0.206421 2.01445 0
M  V30 1773 C 173.035 -1.47668 1.26587 0
M  V30 1774 O 172.29 -1.92514 0.351675 0
M  V30 1775 C 172.589 -0.53096 3.53434 0
M  V30 1776 C 172.255 0.646546 4.46241 0
M  V30 1777 C 170.917 0.969604 4.7133 0
M  V30 1778 C 173.269 1.43479 5.01062 0
M  V30 1779 C 170.597 2.08263 5.48492 0
M  V30 1780 C 172.949 2.53834 5.7944 0
M  V30 1781 C 171.613 2.86659 6.02812 0
M  V30 1782 H 170.883 -0.0755349 0.73714 0
M  V30 1783 H 173.53 0.514271 1.84465 0
M  V30 1784 H 171.835 -1.33285 3.68432 0
M  V30 1785 H 173.532 -0.996417 3.88423 0
M  V30 1786 H 170.122 0.384734 4.2687 0
M  V30 1787 H 174.306 1.19844 4.81613 0
M  V30 1788 H 169.562 2.34078 5.64816 0
M  V30 1789 H 173.736 3.15319 6.20924 0
M  V30 1790 H 171.363 3.73026 6.62387 0
M  V30 1791 N 172.938 -1.57226 0.108567 0
M  V30 1792 C 173.901 -2.13602 -0.831082 0
M  V30 1793 C 174.901 -1.06841 -1.20173 0
M  V30 1794 O 176.091 -1.32666 -1.12895 0
M  V30 1795 C 173.223 -2.66769 -2.12243 0
M  V30 1796 H 174.416 -2.97951 -0.341317 0
M  V30 1797 H 171.969 -1.55667 -0.14057 0
M  V30 1798 H 172.704 -1.85977 -2.65675 0
M  V30 1799 H 172.489 -3.44839 -1.86625 0
M  V30 1800 H 173.979 -3.10332 -2.79435 0
M  V30 1801 N 174.416 0.165178 -1.56732 0
M  V30 1802 C 175.346 1.20651 -1.99914 0
M  V30 1803 C 176.327 1.45827 -0.875705 0
M  V30 1804 O 177.512 1.57057 -1.14223 0
M  V30 1805 C 174.642 2.54401 -2.36427 0
M  V30 1806 C 173.596 2.43782 -3.51787 0
M  V30 1807 C 172.922 3.82078 -3.7406 0
M  V30 1808 C 174.222 1.93732 -4.85041 0
M  V30 1809 H 175.916 0.847534 -2.87154 0
M  V30 1810 H 173.462 0.40625 -1.38151 0
M  V30 1811 H 175.415 3.27458 -2.65234 0
M  V30 1812 H 174.139 2.92098 -1.46103 0
M  V30 1813 H 172.798 1.73178 -3.23117 0
M  V30 1814 H 172.446 4.17179 -2.81017 0
M  V30 1815 H 172.146 3.7584 -4.51684 0
M  V30 1816 H 173.67 4.56712 -4.05274 0
M  V30 1817 H 175.084 2.56569 -5.12684 0
M  V30 1818 H 173.481 1.98428 -5.66345 0
M  V30 1819 H 174.551 0.891962 -4.76626 0
M  V30 1820 N 175.894 1.51508 0.433938 0
M  V30 1821 C 177.31 1.39759 0.770682 0
M  V30 1822 C 177.51 0.482594 1.95636 0
M  V30 1823 O 176.566 -0.0609691 2.52426 0
M  V30 1824 C 177.879 2.81851 1.04787 0
M  V30 1825 C 179.427 2.91025 1.1521 0
M  V30 1826 C 179.902 4.34032 1.46219 0
M  V30 1827 N 181.393 4.37154 1.53136 0
M  V30 1828 C 182.128 5.4484 1.78709 0
M  V30 1829 N 181.624 6.62682 2.02051 0
M  V30 1830 N 183.417 5.32324 1.80519 0
M  V30 1831 H 175.568 2.09548 -0.346892 0
M  V30 1832 H 177.831 0.943446 -0.0928074 0
M  V30 1833 H 177.537 3.50815 0.249304 0
M  V30 1834 H 177.411 3.21386 1.97461 0
M  V30 1835 H 179.798 2.22257 1.94128 0
M  V30 1836 H 179.879 2.54983 0.204281 0
M  V30 1837 H 179.523 5.03351 0.678274 0
M  V30 1838 H 179.453 4.6759 2.42212 0
M  V30 1839 H 181.944 3.52197 1.36987 0
M  V30 1840 H 182.257 7.40543 2.20943 0
M  V30 1841 H 180.602 6.65791 1.99366 0
M  V30 1842 H 183.793 4.39246 1.61805 0
M  V30 1843 H 183.966 6.16328 2.00111 0
M  V30 1844 N 177.372 -0.689602 1.41712 0
M  V30 1845 C 178.619 -1.44966 1.4139 0
M  V30 1846 C 178.947 -1.94484 0.025105 0
M  V30 1847 O 178.202 -1.70307 -0.964048 0
M  V30 1848 C 178.501 -2.67298 2.37247 0
M  V30 1849 C 178.167 -2.36405 3.83958 0
M  V30 1850 C 176.829 -2.27691 4.23923 0
M  V30 1851 C 179.181 -2.11043 4.76561 0
M  V30 1852 C 176.509 -1.91719 5.54492 0
M  V30 1853 C 178.861 -1.76578 6.07456 0
M  V30 1854 C 177.525 -1.66363 6.46436 0
M  V30 1855 H 176.795 -0.53047 0.517381 0
M  V30 1856 H 179.442 -0.787655 1.74552 0
M  V30 1857 H 177.747 -3.38461 1.9736 0
M  V30 1858 H 179.444 -3.25452 2.34269 0
M  V30 1859 H 176.034 -2.44085 3.52308 0
M  V30 1860 H 180.218 -2.16717 4.46483 0
M  V30 1861 H 175.474 -1.82367 5.83568 0
M  V30 1862 H 179.648 -1.55974 6.78708 0
M  V30 1863 H 177.275 -1.38258 7.47522 0
M  V30 1864 N 178.85 -1.27639 -0.924453 0
M  V30 1865 C 180.08 -1.16819 -1.70402 0
M  V30 1866 C 180.488 0.277191 -1.87158 0
M  V30 1867 O 179.831 1.20025 -1.39067 0
M  V30 1868 C 179.893 -1.78305 -3.12166 0
M  V30 1869 C 179.557 -3.27502 -3.18734 0
M  V30 1870 C 180.554 -4.2409 -3.00738 0
M  V30 1871 C 178.239 -3.68269 -3.4159 0
M  V30 1872 C 180.233 -5.59422 -3.05492 0
M  V30 1873 C 177.92 -5.0373 -3.45977 0
M  V30 1874 C 178.918 -5.99116 -3.27946 0
M  V30 1875 O 178.606 -7.32108 -3.32074 0
M  V30 1876 H 178.338 -0.406931 -0.539799 0
M  V30 1877 H 180.892 -1.69078 -1.16626 0
M  V30 1878 H 179.122 -1.20528 -3.67437 0
M  V30 1879 H 180.811 -1.62154 -3.72103 0
M  V30 1880 H 181.577 -3.93931 -2.82919 0
M  V30 1881 H 177.456 -2.94496 -3.54673 0
M  V30 1882 H 181 -6.33852 -2.91337 0
M  V30 1883 H 176.897 -5.33543 -3.63321 0
M  V30 1884 H 177.665 -7.40598 -3.48507 0
M  V30 1885 N 180.328 1.1314 -1.09713 0
M  V30 1886 C 181.556 1.88321 -0.856898 0
M  V30 1887 C 181.971 1.79276 0.592073 0
M  V30 1888 O 181.328 1.16142 1.40774 0
M  V30 1889 C 181.379 3.37812 -1.28706 0
M  V30 1890 O 181.1 3.46627 -2.67921 0
M  V30 1891 C 182.601 4.29952 -1.07964 0
M  V30 1892 H 179.821 0.596094 -0.308079 0
M  V30 1893 H 182.365 1.43205 -1.45988 0
M  V30 1894 H 180.52 3.805 -0.727912 0
M  V30 1895 H 180.934 4.39579 -2.8613 0
M  V30 1896 H 182.408 5.33159 -1.42986 0
M  V30 1897 H 182.885 4.39196 -0.0176577 0
M  V30 1898 H 183.491 3.93036 -1.62489 0
M  V30 1899 N 181.806 0.884767 1.30421 0
M  V30 1900 C 182.716 0.355398 2.31892 0
M  V30 1901 C 183.732 -0.542261 1.65335 0
M  V30 1902 O 184.908 -0.435432 1.96637 0
M  V30 1903 C 181.973 -0.421661 3.44126 0
M  V30 1904 C 181.034 0.505727 4.26311 0
M  V30 1905 C 180.267 -0.234343 5.33185 0
M  V30 1906 O 180.49 -1.46045 5.51386 0
M  V30 1907 O 179.424 0.415443 6.00465 0
M  V30 1908 H 183.25 1.19685 2.79122 0
M  V30 1909 H 180.835 0.648596 1.34587 0
M  V30 1910 H 182.717 -0.861641 4.12497 0
M  V30 1911 H 181.392 -1.23942 2.99032 0
M  V30 1912 H 180.299 0.994513 3.60639 0
M  V30 1913 H 181.632 1.28948 4.75009 0
M  V30 1914 N 183.284 -1.43765 0.645699 0
M  V30 1915 C 184.194 -2.34544 -0.0512957 0
M  V30 1916 C 185.21 -1.53455 -0.82022 0
M  V30 1917 O 186.386 -1.86133 -0.769176 0
M  V30 1918 C 183.451 -3.31636 -1.01087 0
M  V30 1919 C 182.512 -4.2863 -0.239712 0
M  V30 1920 C 181.745 -5.21084 -1.15358 0
M  V30 1921 O 181.968 -5.1779 -2.39269 0
M  V30 1922 O 180.902 -5.98593 -0.630038 0
M  V30 1923 H 184.728 -2.95624 0.695718 0
M  V30 1924 H 182.313 -1.43781 0.405882 0
M  V30 1925 H 184.195 -3.9136 -1.56254 0
M  V30 1926 H 182.87 -2.73069 -1.73824 0
M  V30 1927 H 181.777 -3.72408 0.355356 0
M  V30 1928 H 183.11 -4.90157 0.447936 0
M  V30 1929 N 184.763 -0.387143 -1.52771 0
M  V30 1930 C 186.011 0.195349 -2.01154 0
M  V30 1931 C 186.332 1.475 -1.27549 0
M  V30 1932 O 185.602 1.91878 -0.394924 0
M  V30 1933 H 184.182 0.075178 -0.743207 0
M  V30 1934 H 186.844 -0.518337 -1.87881 0
M  V30 1935 H 185.94 0.407096 -3.09434 0
M  V30 1936 N 186.241 1.57166 -0.116904 0
M  V30 1937 C 187.189 2.16457 0.851418 0
M  V30 1938 C 188.183 1.11323 1.27686 0
M  V30 1939 O 189.389 1.2963 1.24884 0
M  V30 1940 H 185.764 0.69271 0.292672 0
M  V30 1941 H 187.735 2.96605 0.32685 0
M  V30 1942 C 186.484 2.77689 2.09246 0
M  V30 1943 H 185.807 3.58285 1.77402 0
M  V30 1944 H 187.247 3.22716 2.7501 0
M  V30 1945 C 185.706 1.74667 2.88085 0
M  V30 1946 O 186.236 1.19877 3.83396 0
M  V30 1947 N 184.442 1.44656 2.52038 0
M  V30 1948 H 183.989 1.89402 1.74599 0
M  V30 1949 H 183.947 0.759675 3.05084 0
M  V30 1950 N 187.719 -0.156864 1.56817 0
M  V30 1951 C 188.949 -0.885031 1.86684 0
M  V30 1952 C 189.357 -1.75696 0.701954 0
M  V30 1953 O 188.7 -1.80569 -0.337732 0
M  V30 1954 C 188.762 -1.80092 3.11138 0
M  V30 1955 C 188.426 -1.10714 4.43386 0
M  V30 1956 C 189.423 -0.465714 5.1781 0
M  V30 1957 C 187.108 -1.09959 4.90117 0
M  V30 1958 C 189.102 0.174002 6.37162 0
M  V30 1959 C 186.789 -0.456055 6.09396 0
M  V30 1960 C 187.787 0.179622 6.82764 0
M  V30 1961 O 187.475 0.812975 7.99779 0
M  V30 1962 H 187.207 -0.261813 0.623242 0
M  V30 1963 H 189.761 -0.157383 2.04796 0
M  V30 1964 H 187.991 -2.56926 2.89009 0
M  V30 1965 H 189.68 -2.40018 3.27332 0
M  V30 1966 H 190.446 -0.463427 4.82781 0
M  V30 1967 H 186.325 -1.58378 4.3294 0
M  V30 1968 H 189.869 0.670765 6.94368 0
M  V30 1969 H 185.766 -0.455975 6.43888 0
M  V30 1970 H 186.534 0.71366 8.15383 0
M  V30 1971 N 189.197 -1.51736 -0.425897 0
M  V30 1972 C 190.474 -1.55519 -1.1863 0
M  V30 1973 C 190.854 -0.326219 -2.08564 0
M  V30 1974 O 190.202 0.688012 -2.17896 0
M  V30 1975 C 190.412 -2.87521 -1.9782 0
M  V30 1976 C 191.76 -3.39899 -2.54468 0
M  V30 1977 O 192.784 -2.89148 -2.08019 0
M  V30 1978 O 191.643 -4.2848 -3.39215 0
M  V30 1979 H 188.737 -0.625739 -0.540721 0
M  V30 1980 H 191.283 -1.64055 -0.434038 0
M  V30 1981 H 190.055 -3.68422 -1.31836 0
M  V30 1982 H 189.678 -2.822 -2.80088 0
M  V30 1983 N 190.675 0.682077 -1.42076 0
M  V30 1984 C 191.605 1.80796 -1.47767 0
M  V30 1985 C 192.586 1.6677 -0.334954 0
M  V30 1986 O 193.771 1.863 -0.548264 0
M  V30 1987 C 190.901 3.19038 -1.37229 0
M  V30 1988 C 189.855 3.47789 -2.49453 0
M  V30 1989 C 189.181 4.8553 -2.23975 0
M  V30 1990 C 190.481 3.45411 -3.91776 0
M  V30 1991 H 192.175 1.7629 -2.41997 0
M  V30 1992 H 189.721 0.846721 -1.16476 0
M  V30 1993 H 191.674 3.97528 -1.39821 0
M  V30 1994 H 190.398 3.24204 -0.394907 0
M  V30 1995 H 189.057 2.71657 -2.46166 0
M  V30 1996 H 188.705 4.87337 -1.24547 0
M  V30 1997 H 188.405 5.0573 -2.99184 0
M  V30 1998 H 189.929 5.66312 -2.28304 0
M  V30 1999 H 191.343 4.13882 -3.96705 0
M  V30 2000 H 189.74 3.77145 -4.66778 0
M  V30 2001 H 190.81 2.44122 -4.18966 0
M  V30 2002 N 192.153 1.28127 0.917671 0
M  V30 2003 C 193.399 1.15223 1.66888 0
M  V30 2004 C 193.732 -0.299293 1.9188 0
M  V30 2005 O 193.007 -1.21805 1.51637 0
M  V30 2006 C 193.29 1.94706 3.02922 0
M  V30 2007 C 193.143 3.47898 2.85109 0
M  V30 2008 C 194.462 1.75939 4.03402 0
M  V30 2009 H 191.581 0.419946 0.605652 0
M  V30 2010 H 194.223 1.57398 1.06423 0
M  V30 2011 H 192.373 1.58864 3.54534 0
M  V30 2012 H 194.045 3.93624 2.40537 0
M  V30 2013 H 192.288 3.7373 2.20246 0
M  V30 2014 H 192.959 3.98765 3.81694 0
M  V30 2015 H 195.435 2.07209 3.60837 0
M  V30 2016 H 194.311 2.33931 4.96556 0
M  V30 2017 H 194.572 0.709877 4.36364 0
M  V30 2018 N 193.631 -1.12557 1.10312 0
M  V30 2019 C 194.879 -1.83675 0.843091 0
M  V30 2020 C 195.2 -1.84435 -0.633131 0
M  V30 2021 O 194.47 -1.30657 -1.45964 0
M  V30 2022 H 193.05 -0.680138 0.308904 0
M  V30 2023 H 195.712 -1.36301 1.39313 0
M  V30 2024 H 194.808 -2.87908 1.2048 0
M  V30 2025 N 195.109 -0.891671 -1.2995 0
M  V30 2026 C 196.057 -0.353066 -2.29905 0
M  V30 2027 C 197.051 0.543509 -1.60444 0
M  V30 2028 O 198.257 0.4272 -1.74857 0
M  V30 2029 H 194.632 -0.095531 -0.745907 0
M  V30 2030 H 196.603 -1.20961 -2.72784 0
M  V30 2031 C 195.352 0.411475 -3.45257 0
M  V30 2032 H 194.675 -0.269182 -3.98893 0
M  V30 2033 H 196.115 0.753328 -4.17254 0
M  V30 2034 C 194.574 1.6111 -2.9588 0
M  V30 2035 O 195.104 2.71045 -2.96475 0
M  V30 2036 N 193.31 1.45054 -2.51809 0
M  V30 2037 H 192.857 0.556175 -2.51524 0
M  V30 2038 H 192.815 2.25453 -2.1913 0
M  V30 2039 N 196.587 1.43421 -0.653314 0
M  V30 2040 C 197.535 2.32546 0.0501531 0
M  V30 2041 C 198.529 1.48617 0.812985 0
M  V30 2042 O 199.735 1.64825 0.723375 0
M  V30 2043 H 196.11 0.751185 0.0350032 0
M  V30 2044 H 198.081 2.89602 -0.719261 0
M  V30 2045 C 196.83 3.32925 1.00279 0
M  V30 2046 H 196.153 3.97532 0.425236 0
M  V30 2047 H 197.593 3.9792 1.46409 0
M  V30 2048 C 196.052 2.63532 2.09886 0
M  V30 2049 O 196.582 2.45092 3.18265 0
M  V30 2050 N 194.788 2.22905 1.86445 0
M  V30 2051 H 194.335 2.38103 0.98309 0
M  V30 2052 H 194.293 1.76805 2.59976 0
M  V30 2053 N 198.065 0.39524 1.52563 0
M  V30 2054 C 199.293 -0.184943 2.06072 0
M  V30 2055 C 199.708 -1.40021 1.26647 0
M  V30 2056 O 199.065 -1.79767 0.314672 0
M  V30 2057 C 199.116 -0.549179 3.57304 0
M  V30 2058 O 198.837 0.617813 4.33722 0
M  V30 2059 C 200.338 -1.18459 4.2718 0
M  V30 2060 H 197.558 -0.0265025 0.670476 0
M  V30 2061 H 200.102 0.562184 1.96621 0
M  V30 2062 H 198.257 -1.2462 3.66809 0
M  V30 2063 H 198.671 0.317091 5.23541 0
M  V30 2064 H 200.145 -1.38976 5.34219 0
M  V30 2065 H 200.622 -2.15368 3.82771 0
M  V30 2066 H 201.228 -0.528163 4.22008 0
M  V30 2067 N 199.544 -1.57102 0.125237 0
M  V30 2068 C 200.955 -1.82384 -0.399142 0
M  V30 2069 C 201.306 -1.04276 -1.66195 0
M  V30 2070 O 200.431 -0.281269 -2.14564 0
M  V30 2071 C 201.026 -3.30821 -0.730932 0
M  V30 2072 C 199.585 -3.56762 -1.19992 0
M  V30 2073 C 198.732 -2.7649 -0.211792 0
M  V30 2074 H 201.683 -1.54786 0.350277 0
M  V30 2075 H 201.704 -3.4579 -1.58775 0
M  V30 2076 H 201.216 -3.87643 0.188345 0
M  V30 2077 H 199.317 -3.05305 -2.13588 0
M  V30 2078 H 199.43 -4.65317 -1.14093 0
M  V30 2079 H 197.794 -2.4489 -0.700085 0
M  V30 2080 H 198.577 -3.36073 0.700691 0
M  V30 2081 N 201.022 0.148545 -1.56898 0
M  V30 2082 C 202.271 0.85984 -1.82454 0
M  V30 2083 C 202.584 1.82406 -0.706229 0
M  V30 2084 O 203.79 2.57938 -0.847349 0
M  V30 2085 C 202.246 1.57967 -3.2338 0
M  V30 2086 C 201.854 0.65794 -4.43142 0
M  V30 2087 C 203.598 2.27784 -3.58211 0
M  V30 2088 C 201.505 1.3793 -5.75091 0
M  V30 2089 H 200.435 0.324834 -0.68044 0
M  V30 2090 H 203.086 0.112588 -1.83154 0
M  V30 2091 H 201.468 2.37249 -3.17063 0
M  V30 2092 H 202.642 -0.0995497 -4.60692 0
M  V30 2093 H 200.957 0.0682643 -4.16344 0
M  V30 2094 H 203.554 2.8239 -4.54048 0
M  V30 2095 H 203.897 3.04204 -2.84193 0
M  V30 2096 H 204.43 1.55421 -3.66182 0
M  V30 2097 H 201.169 0.656982 -6.52199 0
M  V30 2098 H 200.689 2.10954 -5.61479 0
M  V30 2099 H 202.368 1.92063 -6.17835 0
M  V30 2100 N 202.5 1.5196 0.417844 0
M  V30 2101 C 203.747 1.65591 1.16559 0
M  V30 2102 C 204.075 0.381565 1.90721 0
M  V30 2103 O 203.33 -0.635156 1.85106 0
M  V30 2104 C 203.629 2.82269 2.19223 0
M  V30 2105 C 203.295 4.20819 1.61933 0
M  V30 2106 C 201.957 4.58506 1.46033 0
M  V30 2107 C 204.309 5.07196 1.20008 0
M  V30 2108 C 201.637 5.80257 0.867113 0
M  V30 2109 C 203.989 6.29544 0.621086 0
M  V30 2110 C 202.653 6.65987 0.449144 0
M  V30 2111 H 201.923 0.605939 0.42652 0
M  V30 2112 H 204.57 1.86041 0.45397 0
M  V30 2113 H 202.875 2.56118 2.96498 0
M  V30 2114 H 204.572 2.90012 2.76936 0
M  V30 2115 H 201.162 3.91116 1.7529 0
M  V30 2116 H 205.346 4.7867 1.31105 0
M  V30 2117 H 200.602 6.07124 0.721833 0
M  V30 2118 H 204.776 6.95805 0.287798 0
M  V30 2119 H 202.403 7.60199 -0.012632 0
M  V30 2120 N 203.978 -0.674533 1.42435 0
M  V30 2121 C 205.225 -1.43459 1.42919 0
M  V30 2122 C 205.553 -1.94446 0.0457312 0
M  V30 2123 O 204.808 -1.7132 -0.94593 0
M  V30 2124 C 205.107 -2.64767 2.40069 0
M  V30 2125 C 204.773 -2.3232 3.86443 0
M  V30 2126 C 203.435 -2.23182 4.26314 0
M  V30 2127 C 205.787 -2.05977 4.78773 0
M  V30 2128 C 203.115 -1.85827 5.56494 0
M  V30 2129 C 205.467 -1.70125 6.09295 0
M  V30 2130 C 204.131 -1.59498 6.48164 0
M  V30 2131 H 203.401 -0.524952 0.522978 0
M  V30 2132 H 206.048 -0.769097 1.75377 0
M  V30 2133 H 204.353 -3.36349 2.00939 0
M  V30 2134 H 206.05 -3.22949 2.37707 0
M  V30 2135 H 202.64 -2.40334 3.54877 0
M  V30 2136 H 206.824 -2.11969 4.48757 0
M  V30 2137 H 202.08 -1.76168 5.8547 0
M  V30 2138 H 206.254 -1.48767 6.80324 0
M  V30 2139 H 203.881 -1.30322 7.48946 0
M  V30 2140 N 205.456 -1.28612 -0.910864 0
M  V30 2141 C 206.386 -1.15326 -2.03032 0
M  V30 2142 C 207.367 -0.0502924 -1.70026 0
M  V30 2143 O 208.552 -0.227797 -1.92859 0
M  V30 2144 C 205.682 -0.817343 -3.37545 0
M  V30 2145 C 204.636 -1.8754 -3.84724 0
M  V30 2146 C 203.962 -1.39305 -5.16235 0
M  V30 2147 C 205.262 -3.28244 -4.06267 0
M  V30 2148 H 206.956 -2.08975 -2.14406 0
M  V30 2149 H 204.502 -1.00612 -1.03021 0
M  V30 2150 H 206.455 -0.711151 -4.15356 0
M  V30 2151 H 205.179 0.154846 -3.26233 0
M  V30 2152 H 203.838 -1.97079 -3.09121 0
M  V30 2153 H 203.486 -0.409846 -5.01328 0
M  V30 2154 H 203.186 -2.10057 -5.48771 0
M  V30 2155 H 204.71 -1.30014 -5.96598 0
M  V30 2156 H 206.124 -3.21611 -4.74594 0
M  V30 2157 H 204.521 -3.96855 -4.5014 0
M  V30 2158 H 205.591 -3.72048 -3.10979 0
M  V30 2159 N 206.934 1.1197 -1.10907 0
M  V30 2160 C 208.35 1.35591 -0.841852 0
M  V30 2161 C 208.55 1.94233 0.536246 0
M  V30 2162 O 207.606 2.1717 1.28816 0
M  V30 2163 C 208.919 2.29284 -1.94549 0
M  V30 2164 C 210.467 2.42862 -1.97451 0
M  V30 2165 C 210.942 3.39873 -3.07002 0
M  V30 2166 N 212.433 3.47433 -3.06341 0
M  V30 2167 C 213.168 4.22421 -3.87748 0
M  V30 2168 N 212.664 5.00432 -4.79103 0
M  V30 2169 N 214.457 4.17876 -3.75946 0
M  V30 2170 H 206.608 0.722664 -1.99728 0
M  V30 2171 H 208.871 0.380635 -0.868229 0
M  V30 2172 H 208.577 1.93378 -2.93765 0
M  V30 2173 H 208.451 3.29452 -1.83688 0
M  V30 2174 H 210.838 2.78046 -0.988645 0
M  V30 2175 H 210.919 1.42566 -2.12388 0
M  V30 2176 H 210.563 3.05417 -4.05811 0
M  V30 2177 H 210.493 4.40011 -2.89306 0
M  V30 2178 H 212.984 2.91784 -2.40147 0
M  V30 2179 H 213.297 5.55002 -5.37766 0
M  V30 2180 H 211.642 4.99612 -4.83128 0
M  V30 2181 H 214.833 3.56016 -3.03924 0
M  V30 2182 H 215.006 4.76061 -4.39624 0
M  V30 2183 N 208.412 0.89855 1.29475 0
M  V30 2184 C 209.689 0.443416 1.90508 0
M  V30 2185 C 210.069 -1.07685 1.81569 0
M  V30 2186 O 209.417 -1.9182 1.24166 0
M  V30 2187 C 209.627 0.956708 3.35631 0
M  V30 2188 C 210.975 0.999728 4.12663 0
M  V30 2189 O 211.999 0.904299 3.4453 0
M  V30 2190 O 210.858 1.14289 5.34416 0
M  V30 2191 H 207.952 0.138025 0.815401 0
M  V30 2192 H 210.498 0.98834 1.37949 0
M  V30 2193 H 209.27 2.00067 3.36287 0
M  V30 2194 H 208.893 0.391728 3.95666 0
M  V30 2195 N 209.89 -1.43072 0.660911 0
M  V30 2196 C 211.301 -1.84932 0.256348 0
M  V30 2197 C 211.652 -1.55325 -1.19868 0
M  V30 2198 O 210.777 -1.00607 -1.91591 0
M  V30 2199 C 211.372 -3.35684 0.458475 0
M  V30 2200 C 209.931 -3.76245 0.108161 0
M  V30 2201 C 209.078 -2.66749 0.757641 0
M  V30 2202 H 212.029 -1.33116 0.864051 0
M  V30 2203 H 212.05 -3.79365 -0.293683 0
M  V30 2204 H 211.562 -3.572 1.51755 0
M  V30 2205 H 209.663 -3.60338 -0.948014 0
M  V30 2206 H 209.776 -4.76058 0.538992 0
M  V30 2207 H 208.14 -2.53989 0.190185 0
M  V30 2208 H 208.923 -2.91092 1.81989 0
M  V30 2209 N 211.368 -0.403325 -1.52352 0
M  V30 2210 C 212.301 0.469463 -2.23319 0
M  V30 2211 C 213.279 1.05272 -1.23922 0
M  V30 2212 O 214.463 1.10169 -1.52954 0
M  V30 2213 C 211.59 1.6511 -2.9573 0
M  V30 2214 C 210.636 1.19178 -4.0951 0
M  V30 2215 S 211.469 0.161718 -5.35256 0
M  V30 2216 C 212.625 1.34882 -6.11194 0
M  V30 2217 H 212.858 -0.133134 -2.97002 0
M  V30 2218 H 210.391 -0.187588 -1.53256 0
M  V30 2219 H 212.349 2.3287 -3.38056 0
M  V30 2220 H 211.01 2.22503 -2.21701 0
M  V30 2221 H 210.203 2.07444 -4.59329 0
M  V30 2222 H 209.805 0.592911 -3.6927 0
M  V30 2223 H 212.097 2.27345 -6.38217 0
M  V30 2224 H 213.04 0.89128 -7.02468 0
M  V30 2225 H 213.448 1.57198 -5.42171 0
M  V30 2226 N 212.846 1.57033 -0.133567 0
M  V30 2227 C 213.793 2.16074 0.811208 0
M  V30 2228 C 214.763 1.08979 1.2535 0
M  V30 2229 O 215.948 1.36958 1.32843 0
M  V30 2230 C 213.088 2.77595 2.05024 0
M  V30 2231 C 212.201 3.99042 1.65498 0
M  V30 2232 C 211.336 4.48603 2.84479 0
M  V30 2233 C 210.375 5.62547 2.41262 0
M  V30 2234 N 209.512 6.06787 3.53206 0
M  V30 2235 H 214.352 2.96477 0.300906 0
M  V30 2236 H 211.889 1.46462 0.136822 0
M  V30 2237 H 213.847 3.11402 2.77642 0
M  V30 2238 H 212.477 1.99859 2.53488 0
M  V30 2239 H 211.529 3.71302 0.826981 0
M  V30 2240 H 212.841 4.81629 1.29748 0
M  V30 2241 H 211.995 4.84395 3.65303 0
M  V30 2242 H 210.734 3.64995 3.23465 0
M  V30 2243 H 209.739 5.26345 1.58874 0
M  V30 2244 H 210.964 6.47931 2.03377 0
M  V30 2245 H 208.91 5.26117 3.91838 0
M  V30 2246 H 208.827 6.84266 3.21427 0
M  V30 2247 H 210.095 6.4722 4.34427 0
M  V30 2248 N 214.325 -0.140222 1.56975 0
M  V30 2249 C 215.572 -0.851687 1.83719 0
M  V30 2250 C 215.9 -1.80862 0.715485 0
M  V30 2251 O 215.155 -1.93464 -0.294956 0
M  V30 2252 C 215.454 -1.65386 3.16832 0
M  V30 2253 C 215.12 -0.843112 4.42947 0
M  V30 2254 C 213.782 -0.619464 4.77196 0
M  V30 2255 C 216.134 -0.276582 5.20466 0
M  V30 2256 C 213.462 0.181312 5.8642 0
M  V30 2257 C 215.814 0.51127 6.30531 0
M  V30 2258 C 214.478 0.745432 6.63325 0
M  V30 2259 H 213.748 -0.311654 0.672274 0
M  V30 2260 H 216.395 -0.115006 1.91154 0
M  V30 2261 H 214.7 -2.46084 3.04877 0
M  V30 2262 H 216.397 -2.20793 3.34741 0
M  V30 2263 H 212.987 -1.0275 4.16101 0
M  V30 2264 H 217.171 -0.436632 4.94376 0
M  V30 2265 H 212.427 0.372165 6.10266 0
M  V30 2266 H 216.601 0.957354 6.89788 0
M  V30 2267 H 214.228 1.36778 7.47794 0
M  V30 2268 N 215.803 -1.52179 -0.40978 0
M  V30 2269 C 217.031 -1.70054 -1.17853 0
M  V30 2270 C 217.446 -0.409735 -1.843 0
M  V30 2271 O 216.803 0.614183 -1.71855 0
M  V30 2272 C 216.854 -2.83568 -2.24213 0
M  V30 2273 O 216.575 -4.0765 -1.60478 0
M  V30 2274 C 218.076 -3.12947 -3.13973 0
M  V30 2275 H 215.296 -0.569917 -0.354169 0
M  V30 2276 H 217.84 -1.98734 -0.482198 0
M  V30 2277 H 215.995 -2.57409 -2.89516 0
M  V30 2278 H 216.409 -4.70899 -2.30986 0
M  V30 2279 H 217.883 -3.95889 -3.84677 0
M  V30 2280 H 218.36 -2.26472 -3.76307 0
M  V30 2281 H 218.966 -3.40868 -2.5434 0
M  V30 2282 N 217.281 0.66697 -1.42791 0
M  V30 2283 C 218.231 1.77313 -1.43332 0
M  V30 2284 C 219.215 1.5801 -0.303586 0
M  V30 2285 O 220.407 1.68356 -0.546385 0
M  V30 2286 C 217.536 3.15822 -1.34578 0
M  V30 2287 C 216.622 3.40721 -2.52528 0
M  V30 2288 N 217.013 3.36162 -3.77927 0
M  V30 2289 C 215.311 3.71387 -2.46956 0
M  V30 2290 C 216.012 3.60762 -4.56318 0
M  V30 2291 N 214.988 3.81908 -3.86843 0
M  V30 2292 H 218.79 1.72193 -2.38174 0
M  V30 2293 H 216.304 0.868114 -1.3725 0
M  V30 2294 H 218.301 3.951 -1.33048 0
M  V30 2295 H 216.961 3.22133 -0.407453 0
M  V30 2296 H 217.972 3.15885 -4.10411 0
M  V30 2297 H 214.649 3.84897 -1.61743 0
M  V30 2298 H 216.039 3.63132 -5.65318 0
M  V30 2299 N 218.759 1.29093 0.90403 0
M  V30 2300 C 220.006 1.16813 1.65411 0
M  V30 2301 C 220.334 -0.28128 1.92455 0
M  V30 2302 O 219.589 -1.22006 1.53013 0
M  V30 2303 C 219.888 1.92224 3.01305 0
M  V30 2304 C 219.554 3.41968 2.93885 0
M  V30 2305 C 218.216 3.82807 2.91569 0
M  V30 2306 C 220.568 4.37409 2.83413 0
M  V30 2307 C 217.896 5.1741 2.76594 0
M  V30 2308 C 220.248 5.72097 2.69977 0
M  V30 2309 C 218.912 6.12199 2.66024 0
M  V30 2310 H 218.182 0.42745 0.605283 0
M  V30 2311 H 220.829 1.59981 1.05254 0
M  V30 2312 H 219.134 1.41635 3.65304 0
M  V30 2313 H 220.831 1.80131 3.58265 0
M  V30 2314 H 217.421 3.09504 2.96488 0
M  V30 2315 H 221.605 4.06813 2.84283 0
M  V30 2316 H 216.861 5.47596 2.71935 0
M  V30 2317 H 221.035 6.45704 2.60844 0
M  V30 2318 H 218.662 7.16448 2.54178 0
M  V30 2319 N 220.237 -1.11381 1.11499 0
M  V30 2320 C 221.486 -1.82494 0.858993 0
M  V30 2321 C 221.799 -1.85605 -0.617278 0
M  V30 2322 O 223.005 -2.52824 -0.989552 0
M  V30 2323 C 221.461 -3.27745 1.48699 0
M  V30 2324 C 221.069 -3.32961 2.99735 0
M  V30 2325 C 222.813 -4.03754 1.31085 0
M  V30 2326 C 220.72 -4.72612 3.55516 0
M  V30 2327 H 219.65 -0.683802 0.317696 0
M  V30 2328 H 222.301 -1.25331 1.34031 0
M  V30 2329 H 220.683 -3.84844 0.933339 0
M  V30 2330 H 221.857 -2.85741 3.61509 0
M  V30 2331 H 220.172 -2.70433 3.16631 0
M  V30 2332 H 222.769 -5.06891 1.70192 0
M  V30 2333 H 223.112 -4.15527 0.253496 0
M  V30 2334 H 223.645 -3.53043 1.83318 0
M  V30 2335 H 220.384 -4.66036 4.60967 0
M  V30 2336 H 219.904 -5.2024 2.98513 0
M  V30 2337 H 221.583 -5.4157 3.53992 0
M  V30 2338 N 221.715 -0.905404 -1.28997 0
M  V30 2339 C 223.131 -0.60233 -1.47798 0
M  V30 2340 C 223.331 0.854645 -1.82478 0
M  V30 2341 O 222.387 1.63439 -1.92468 0
M  V30 2342 C 223.7 -1.53306 -2.58685 0
M  V30 2343 C 225.248 -1.53887 -2.72558 0
M  V30 2344 C 225.723 -2.45602 -3.86579 0
M  V30 2345 N 227.214 -2.43681 -3.93921 0
M  V30 2346 C 227.949 -3.11347 -4.81509 0
M  V30 2347 N 227.445 -3.88313 -5.73746 0
M  V30 2348 N 229.238 -3.00476 -4.75048 0
M  V30 2349 H 221.389 -1.84765 -1.04764 0
M  V30 2350 H 223.652 -0.792025 -0.520961 0
M  V30 2351 H 223.358 -2.57141 -2.39941 0
M  V30 2352 H 223.232 -1.25787 -3.55609 0
M  V30 2353 H 225.619 -0.507941 -2.90696 0
M  V30 2354 H 225.7 -1.85447 -1.76191 0
M  V30 2355 H 225.344 -3.48792 -3.69197 0
M  V30 2356 H 225.274 -2.11349 -4.82327 0
M  V30 2357 H 227.765 -1.87767 -3.27951 0
M  V30 2358 H 228.078 -4.36985 -6.37389 0
M  V30 2359 H 226.423 -3.92419 -5.73614 0
M  V30 2360 H 229.614 -2.39858 -4.01977 0
M  V30 2361 H 229.787 -3.53485 -5.43095 0
M  V30 2362 N 223.193 1.4272 -0.668489 0
M  V30 2363 C 224.418 2.06484 -0.194758 0
M  V30 2364 C 224.843 1.49862 1.13679 0
M  V30 2365 O 224.201 0.614582 1.70565 0
M  V30 2366 C 224.249 3.60353 -0.133546 0
M  V30 2367 O 223.353 4.02464 0.899806 0
M  V30 2368 H 222.694 0.656137 -0.10188 0
M  V30 2369 H 225.224 1.82964 -0.915722 0
M  V30 2370 H 225.234 4.07976 0.0447041 0
M  V30 2371 H 223.909 4.00938 -1.1055 0
M  V30 2372 H 222.486 3.66402 0.693109 0
M  V30 2373 N 224.671 0.411399 1.52136 0
M  V30 2374 C 225.603 -0.448386 2.24771 0
M  V30 2375 C 226.616 -1.00828 1.27818 0
M  V30 2376 O 227.805 -0.906841 1.53749 0
M  V30 2377 C 224.905 -1.63636 2.96777 0
M  V30 2378 C 224.078 -1.19995 4.20618 0
M  V30 2379 C 223.137 -2.25509 4.75428 0
M  V30 2380 O 222.163 -1.86007 5.3795 0
M  V30 2381 N 223.365 -3.577 4.57199 0
M  V30 2382 H 226.13 0.174025 2.99194 0
M  V30 2383 H 223.691 0.238897 1.60128 0
M  V30 2384 H 225.683 -2.33793 3.30338 0
M  V30 2385 H 224.253 -2.16465 2.25526 0
M  V30 2386 H 223.473 -0.326421 3.92846 0
M  V30 2387 H 224.761 -0.885365 5.01038 0
M  V30 2388 H 224.159 -3.92543 4.07341 0
M  V30 2389 H 222.716 -4.23827 4.95191 0
M  V30 2390 N 226.149 -1.5696 0.141893 0
M  V30 2391 C 227.096 -2.16501 -0.799737 0
M  V30 2392 C 228.066 -1.09643 -1.24771 0
M  V30 2393 O 229.251 -1.3766 -1.32115 0
M  V30 2394 C 226.391 -2.78679 -2.03549 0
M  V30 2395 C 225.504 -3.99914 -1.6338 0
M  V30 2396 C 224.639 -4.50106 -2.82096 0
M  V30 2397 C 223.678 -5.63819 -2.38275 0
M  V30 2398 N 222.815 -6.08651 -3.49983 0
M  V30 2399 H 227.655 -2.96632 -0.285179 0
M  V30 2400 H 225.192 -1.46533 -0.129053 0
M  V30 2401 H 227.15 -3.1287 -2.75986 0
M  V30 2402 H 225.78 -2.012 -2.52425 0
M  V30 2403 H 224.832 -3.71735 -0.807279 0
M  V30 2404 H 226.144 -4.82311 -1.27192 0
M  V30 2405 H 225.298 -4.86325 -3.62729 0
M  V30 2406 H 224.037 -3.66706 -3.21525 0
M  V30 2407 H 223.042 -5.2718 -1.56081 0
M  V30 2408 H 224.267 -6.49 -1.99938 0
M  V30 2409 H 222.213 -5.28188 -3.89042 0
M  V30 2410 H 222.13 -6.85961 -3.17794 0
M  V30 2411 H 223.398 -6.49515 -4.30988 0
M  V30 2412 N 227.627 0.131896 -1.57047 0
M  V30 2413 C 229.043 0.485031 -1.52051 0
M  V30 2414 C 229.243 1.82563 -0.85281 0
M  V30 2415 O 228.299 2.48817 -0.429694 0
M  V30 2416 C 229.612 0.481409 -2.96821 0
M  V30 2417 C 231.16 0.565868 -3.07842 0
M  V30 2418 C 231.635 0.592762 -4.54148 0
M  V30 2419 N 233.126 0.654564 -4.58552 0
M  V30 2420 C 233.861 0.696608 -5.69153 0
M  V30 2421 N 233.357 0.697078 -6.89284 0
M  V30 2422 N 235.15 0.738639 -5.57226 0
M  V30 2423 H 227.301 -0.746664 -1.98843 0
M  V30 2424 H 229.564 -0.273999 -0.90754 0
M  V30 2425 H 229.27 -0.435731 -3.4899 0
M  V30 2426 H 229.144 1.3139 -3.53577 0
M  V30 2427 H 231.531 1.47343 -2.55684 0
M  V30 2428 H 231.612 -0.29406 -2.54104 0
M  V30 2429 H 231.256 -0.310701 -5.06949 0
M  V30 2430 H 231.186 1.46939 -5.05684 0
M  V30 2431 H 233.677 0.660887 -3.72076 0
M  V30 2432 H 233.99 0.731426 -7.69331 0
M  V30 2433 H 232.335 0.66471 -6.91814 0
M  V30 2434 H 235.526 0.735545 -4.62285 0
M  V30 2435 H 235.699 0.767938 -6.43434 0
M  V30 2436 N 229.106 1.52395 0.401703 0
M  V30 2437 C 230.036 1.79231 1.49661 0
M  V30 2438 C 231.017 0.643654 1.57452 0
M  V30 2439 O 232.202 0.889989 1.72606 0
M  V30 2440 C 229.332 1.94971 2.87409 0
M  V30 2441 C 228.286 3.10604 2.94465 0
M  V30 2442 C 227.612 3.11577 4.34538 0
M  V30 2443 C 228.912 4.49921 2.6527 0
M  V30 2444 H 230.606 2.70917 1.27454 0
M  V30 2445 H 228.152 1.30362 0.6117 0
M  V30 2446 H 230.105 2.12328 3.63999 0
M  V30 2447 H 228.829 0.999632 3.10926 0
M  V30 2448 H 227.488 2.93009 2.20321 0
M  V30 2449 H 227.136 2.14277 4.55076 0
M  V30 2450 H 226.836 3.89247 4.40183 0
M  V30 2451 H 228.36 3.31073 5.13053 0
M  V30 2452 H 229.774 4.67683 3.31581 0
M  V30 2453 H 228.171 5.29564 2.82281 0
M  V30 2454 H 229.241 4.57507 1.60671 0
M  V30 2455 N 230.584 -0.659388 1.43143 0
M  V30 2456 C 231.995 -1.24041 1.39537 0
M  V30 2457 C 232.346 -1.95963 0.0963364 0
M  V30 2458 O 231.471 -2.00892 -0.804438 0
M  V30 2459 C 232.066 -2.25601 2.52764 0
M  V30 2460 C 230.625 -2.79195 2.52443 0
M  V30 2461 C 229.772 -1.53743 2.30778 0
M  V30 2462 H 232.723 -0.451792 1.52133 0
M  V30 2463 H 232.744 -3.07651 2.23899 0
M  V30 2464 H 232.256 -1.73226 3.47296 0
M  V30 2465 H 230.357 -3.35649 1.61773 0
M  V30 2466 H 230.47 -3.2716 3.50004 0
M  V30 2467 H 228.834 -1.80869 1.79328 0
M  V30 2468 H 229.617 -1.03312 3.27386 0
M  V30 2469 N 232.062 -1.29571 -0.897171 0
M  V30 2470 C 233.339 -1.08365 -1.62839 0
M  V30 2471 C 233.719 0.371331 -2.07808 0
M  V30 2472 O 233.067 1.3606 -1.83576 0
M  V30 2473 C 233.277 -2.0735 -2.80726 0
M  V30 2474 C 234.625 -2.38406 -3.51351 0
M  V30 2475 O 235.649 -2.05564 -2.90898 0
M  V30 2476 O 234.508 -2.9453 -4.60341 0
M  V30 2477 H 231.602 -0.415345 -0.715134 0
M  V30 2478 H 234.148 -1.40952 -0.945018 0
M  V30 2479 H 232.92 -3.05339 -2.44711 0
M  V30 2480 H 232.543 -1.75507 -3.56767 0
M  V30 2481 N 233.54 1.10788 -1.12088 0
M  V30 2482 C 234.765 1.87002 -0.896949 0
M  V30 2483 C 235.19 1.79933 0.548261 0
M  V30 2484 O 234.548 1.16662 1.38779 0
M  V30 2485 C 234.596 3.3349 -1.37174 0
M  V30 2486 O 233.7 4.08745 -0.547831 0
M  V30 2487 H 233.041 0.580397 -0.322545 0
M  V30 2488 H 235.571 1.39996 -1.49206 0
M  V30 2489 H 235.581 3.84339 -1.36922 0
M  V30 2490 H 234.256 3.37951 -2.42408 0
M  V30 2491 H 232.833 3.6776 -0.617034 0
M  V30 2492 N 235.018 0.912232 1.28515 0
M  V30 2493 C 236.266 0.543523 1.94654 0
M  V30 2494 C 236.587 -0.9155 1.72173 0
M  V30 2495 O 235.857 -1.64708 1.06058 0
M  V30 2496 H 234.437 0.198017 0.720277 0
M  V30 2497 H 237.099 1.16126 1.56527 0
M  V30 2498 H 236.195 0.736684 3.03281 0
M  V30 2499 N 236.496 -1.42363 0.676048 0
M  V30 2500 C 237.426 -2.33497 0.0124832 0
M  V30 2501 C 238.407 -1.50748 -0.787981 0
M  V30 2502 O 239.592 -1.79346 -0.744884 0
M  V30 2503 C 236.722 -3.34377 -0.938582 0
M  V30 2504 C 235.676 -4.27289 -0.246622 0
M  V30 2505 C 235.002 -5.18386 -1.31071 0
M  V30 2506 C 236.302 -5.14916 0.875125 0
M  V30 2507 H 237.996 -2.89233 0.773593 0
M  V30 2508 H 235.542 -1.39073 0.37346 0
M  V30 2509 H 237.495 -3.97044 -1.41188 0
M  V30 2510 H 236.219 -2.76947 -1.73113 0
M  V30 2511 H 234.878 -3.66018 0.206456 0
M  V30 2512 H 234.526 -4.57282 -2.09528 0
M  V30 2513 H 234.226 -5.81378 -0.852839 0
M  V30 2514 H 235.75 -5.83929 -1.78492 0
M  V30 2515 H 237.164 -5.71262 0.482983 0
M  V30 2516 H 235.561 -5.86747 1.25887 0
M  V30 2517 H 236.631 -4.53242 1.72335 0
M  V30 2518 N 237.974 -0.419461 -1.51915 0
M  V30 2519 C 239.39 -0.0708431 -1.59443 0
M  V30 2520 C 239.59 1.41796 -1.43164 0
M  V30 2521 O 238.646 2.18596 -1.26381 0
M  V30 2522 C 239.959 -0.574991 -2.95151 0
M  V30 2523 C 241.507 -0.533867 -3.08413 0
M  V30 2524 C 241.982 -1.01469 -4.46618 0
M  V30 2525 N 243.473 -0.971939 -4.52888 0
M  V30 2526 C 244.208 -1.31505 -5.58116 0
M  V30 2527 N 243.704 -1.73014 -6.70849 0
M  V30 2528 N 245.497 -1.23436 -5.48379 0
M  V30 2529 H 237.648 -1.38836 -1.60743 0
M  V30 2530 H 239.911 -0.570998 -0.756747 0
M  V30 2531 H 239.617 -1.61597 -3.12377 0
M  V30 2532 H 239.491 0.00979777 -3.77199 0
M  V30 2533 H 241.878 0.498086 -2.90866 0
M  V30 2534 H 241.959 -1.15484 -2.28248 0
M  V30 2535 H 241.603 -2.04502 -4.6491 0
M  V30 2536 H 241.533 -0.370433 -5.25295 0
M  V30 2537 H 244.024 -0.666893 -3.71969 0
M  V30 2538 H 244.337 -1.97479 -7.47143 0
M  V30 2539 H 242.682 -1.76926 -6.72103 0
M  V30 2540 H 245.873 -0.908869 -4.59192 0
M  V30 2541 H 246.046 -1.50506 -6.30279 0
M  V30 2542 N 239.452 1.56882 -0.150215 0
M  V30 2543 C 240.729 1.87844 0.545327 0
M  V30 2544 C 241.109 1.0567 1.82749 0
M  V30 2545 O 240.457 0.144442 2.28043 0
M  V30 2546 C 240.667 3.39526 0.80767 0
M  V30 2547 C 242.015 4.08814 1.14703 0
M  V30 2548 O 243.039 3.44723 0.896917 0
M  V30 2549 O 241.898 5.22004 1.61784 0
M  V30 2550 H 238.992 0.778677 0.278553 0
M  V30 2551 H 241.538 1.68666 -0.187068 0
M  V30 2552 H 240.31 3.91173 -0.0996096 0
M  V30 2553 H 239.933 3.64243 1.59413 0
M  V30 2554 N 240.93 -0.123565 1.57115 0
M  V30 2555 C 241.893 -1.13583 1.99076 0
M  V30 2556 C 242.893 -1.34564 0.880296 0
M  V30 2557 O 244.083 -1.31158 1.14644 0
M  V30 2558 C 241.215 -2.49128 2.32698 0
M  V30 2559 H 242.408 -0.775287 2.89706 0
M  V30 2560 H 239.961 -0.36771 1.51913 0
M  V30 2561 H 240.696 -2.90111 1.44934 0
M  V30 2562 H 240.481 -2.35255 3.13684 0
M  V30 2563 H 241.971 -3.2199 2.65918 0
M  V30 2564 N 242.408 -1.52605 -0.393616 0
M  V30 2565 C 243.636 -1.71294 -1.16043 0
M  V30 2566 C 244.051 -0.429259 -1.83855 0
M  V30 2567 O 243.408 0.595921 -1.72496 0
M  V30 2568 C 243.459 -2.8593 -2.21193 0
M  V30 2569 O 243.18 -4.09329 -1.56146 0
M  V30 2570 C 244.681 -3.16259 -3.10636 0
M  V30 2571 H 241.901 -0.573641 -0.348104 0
M  V30 2572 H 244.445 -1.99234 -0.461092 0
M  V30 2573 H 242.6 -2.60465 -2.86769 0
M  V30 2574 H 243.014 -4.73323 -2.25978 0
M  V30 2575 H 244.488 -3.99946 -3.80456 0
M  V30 2576 H 244.965 -2.3045 -3.73884 0
M  V30 2577 H 245.571 -3.43547 -2.50711 0
M  V30 2578 N 243.887 0.651787 -1.4349 0
M  V30 2579 C 244.82 1.77668 -1.43211 0
M  V30 2580 C 245.798 1.59931 -0.29338 0
M  V30 2581 O 246.982 1.82095 -0.487191 0
M  V30 2582 C 244.109 3.14986 -1.24505 0
M  V30 2583 C 243.155 3.51421 -2.41673 0
M  V30 2584 S 243.988 3.51234 -4.04222 0
M  V30 2585 C 245.144 4.91206 -3.87902 0
M  V30 2586 H 245.377 1.77635 -2.38397 0
M  V30 2587 H 242.91 0.824558 -1.30539 0
M  V30 2588 H 244.868 3.94237 -1.144 0
M  V30 2589 H 243.529 3.1258 -0.308651 0
M  V30 2590 H 242.722 4.51291 -2.24393 0
M  V30 2591 H 242.324 2.79585 -2.48411 0
M  V30 2592 H 244.616 5.79902 -3.50315 0
M  V30 2593 H 245.559 5.13537 -4.8753 0
M  V30 2594 H 245.967 4.64808 -3.20334 0
M  V30 2595 N 245.365 1.30045 0.890287 0
M  V30 2596 C 246.297 1.11786 2.00091 0
M  V30 2597 C 247.31 0.0626307 1.62679 0
M  V30 2598 O 248.499 0.308112 1.75821 0
M  V30 2599 C 245.599 0.681527 3.31977 0
M  V30 2600 C 244.772 1.81735 3.97858 0
M  V30 2601 C 243.831 1.37045 5.08041 0
M  V30 2602 O 242.857 2.07677 5.29961 0
M  V30 2603 N 244.059 0.246525 5.79976 0
M  V30 2604 H 246.824 2.07441 2.16306 0
M  V30 2605 H 244.385 1.2211 1.06305 0
M  V30 2606 H 246.377 0.365675 4.03045 0
M  V30 2607 H 244.947 -0.182828 3.12065 0
M  V30 2608 H 244.167 2.30159 3.20032 0
M  V30 2609 H 245.455 2.57865 4.38615 0
M  V30 2610 H 244.853 -0.34215 5.64664 0
M  V30 2611 H 243.41 -0.00990438 6.51799 0
M  V30 2612 N 246.843 -1.10192 1.12674 0
M  V30 2613 C 248.089 -1.82658 0.894847 0
M  V30 2614 C 248.444 -1.83666 -0.573107 0
M  V30 2615 O 247.737 -1.28816 -1.41835 0
M  V30 2616 C 247.931 -3.28552 1.4067 0
M  V30 2617 C 247.76 -3.41756 2.92289 0
M  V30 2618 C 246.53 -3.54021 3.60551 0
M  V30 2619 C 248.728 -3.34949 3.90274 0
M  V30 2620 N 246.71 -3.55827 5.0026 0
M  V30 2621 C 248.081 -3.43531 5.16127 0
M  V30 2622 C 250.136 -3.18565 3.8265 0
M  V30 2623 C 248.839 -3.37416 6.3525 0
M  V30 2624 C 250.865 -3.13772 5.01299 0
M  V30 2625 C 250.227 -3.22938 6.26012 0
M  V30 2626 H 246.326 -0.683044 0.380756 0
M  V30 2627 H 248.91 -1.31752 1.43351 0
M  V30 2628 H 247.081 -3.77946 0.895055 0
M  V30 2629 H 248.813 -3.88991 1.11661 0
M  V30 2630 H 245.568 -3.57135 3.1105 0
M  V30 2631 H 245.992 -3.60335 5.73138 0
M  V30 2632 H 250.634 -3.10354 2.87124 0
M  V30 2633 H 248.352 -3.44391 7.3104 0
M  V30 2634 H 251.938 -3.02242 4.97133 0
M  V30 2635 H 250.818 -3.19235 7.16281 0
M  V30 2636 N 248.321 -0.919034 -1.28029 0
M  V30 2637 C 249.598 -0.473668 -1.89778 0
M  V30 2638 C 249.978 1.04783 -1.83259 0
M  V30 2639 O 249.326 1.8982 -1.27202 0
M  V30 2640 C 249.536 -1.00998 -3.34066 0
M  V30 2641 C 250.884 -1.06525 -4.1102 0
M  V30 2642 O 251.908 -0.958996 -3.43048 0
M  V30 2643 O 250.767 -1.22776 -5.3253 0
M  V30 2644 H 247.861 -0.15098 -0.813101 0
M  V30 2645 H 250.407 -1.01016 -1.36359 0
M  V30 2646 H 249.179 -2.05392 -3.33061 0
M  V30 2647 H 248.802 -0.454626 -3.94992 0
M  V30 2648 N 249.799 1.42003 -0.683588 0
M  V30 2649 C 251.046 2.01413 -0.209514 0
M  V30 2650 C 251.374 1.54088 1.1869 0
M  V30 2651 O 250.629 0.737591 1.81268 0
M  V30 2652 C 250.928 3.56827 -0.202357 0
M  V30 2653 C 250.594 4.23617 -1.54464 0
M  V30 2654 C 249.256 4.41577 -1.91215 0
M  V30 2655 C 251.608 4.61178 -2.42826 0
M  V30 2656 C 248.936 4.9437 -3.15935 0
M  V30 2657 C 251.288 5.15355 -3.66867 0
M  V30 2658 C 249.952 5.31528 -4.03776 0
M  V30 2659 H 249.222 0.737023 -0.0766668 0
M  V30 2660 H 251.869 1.70067 -0.880312 0
M  V30 2661 H 250.174 3.87892 0.551969 0
M  V30 2662 H 251.871 4.00588 0.181793 0
M  V30 2663 H 248.461 4.10004 -1.24877 0
M  V30 2664 H 252.645 4.46968 -2.15717 0
M  V30 2665 H 247.901 5.05076 -3.44541 0
M  V30 2666 H 252.075 5.43402 -4.35531 0
M  V30 2667 H 249.702 5.72199 -5.00492 0
M  V30 2668 N 251.277 0.427512 1.51691 0
M  V30 2669 C 252.523 -0.134744 2.02953 0
M  V30 2670 C 252.878 -1.41235 1.30654 0
M  V30 2671 O 252.171 -1.87168 0.409713 0
M  V30 2672 C 252.365 -0.418249 3.54944 0
M  V30 2673 C 252.194 0.830327 4.41968 0
M  V30 2674 C 250.964 1.36097 4.86627 0
M  V30 2675 C 253.162 1.7137 4.84909 0
M  V30 2676 N 251.144 2.56311 5.57833 0
M  V30 2677 C 252.515 2.76195 5.55082 0
M  V30 2678 C 254.57 1.72928 4.66905 0
M  V30 2679 C 253.273 3.82512 6.09161 0
M  V30 2680 C 255.299 2.78175 5.21894 0
M  V30 2681 C 254.661 3.8172 5.92004 0
M  V30 2682 H 250.76 -0.0103958 0.781931 0
M  V30 2683 H 253.344 0.585981 1.85673 0
M  V30 2684 H 251.515 -1.10801 3.7226 0
M  V30 2685 H 253.247 -0.970999 3.92879 0
M  V30 2686 H 250.002 0.916311 4.64651 0
M  V30 2687 H 250.426 3.17242 5.98069 0
M  V30 2688 H 255.068 0.942081 4.12171 0
M  V30 2689 H 252.786 4.62077 6.62956 0
M  V30 2690 H 256.372 2.8031 5.09821 0
M  V30 2691 H 255.252 4.61821 6.33791 0
M  V30 2692 N 252.755 -1.56801 0.158532 0
M  V30 2693 C 253.983 -2.00859 -0.496303 0
M  V30 2694 C 254.398 -1.03871 -1.57659 0
M  V30 2695 O 253.755 -0.0375165 -1.82461 0
M  V30 2696 C 253.806 -3.4479 -1.08638 0
M  V30 2697 O 253.527 -4.38072 -0.0492322 0
M  V30 2698 C 255.028 -4.04185 -1.8207 0
M  V30 2699 H 252.248 -0.65864 -0.128199 0
M  V30 2700 H 254.792 -2.02885 0.256506 0
M  V30 2701 H 252.947 -3.43579 -1.78975 0
M  V30 2702 H 253.361 -5.2227 -0.483102 0
M  V30 2703 H 254.835 -5.06857 -2.18633 0
M  V30 2704 H 255.312 -3.45549 -2.71095 0
M  V30 2705 H 255.918 -4.0906 -1.16405 0
M  V30 2706 N 254.233 0.115231 -1.57178 0
M  V30 2707 C 255.181 1.16014 -2.01602 0
M  V30 2708 C 256.175 1.42653 -0.913587 0
M  V30 2709 O 257.381 1.42571 -1.09879 0
M  V30 2710 H 253.756 0.391252 -0.642204 0
M  V30 2711 H 255.727 0.758998 -2.88586 0
M  V30 2712 C 254.476 2.47767 -2.4394 0
M  V30 2713 H 253.799 2.28108 -3.28339 0
M  V30 2714 H 255.239 3.19432 -2.78818 0
M  V30 2715 C 253.698 3.10617 -1.30455 0
M  V30 2716 O 254.228 3.96846 -0.622585 0
M  V30 2717 N 252.434 2.70553 -1.06064 0
M  V30 2718 H 251.981 2.00527 -1.61699 0
M  V30 2719 H 251.939 3.12934 -0.303284 0
M  V30 2720 N 255.711 1.52812 0.385517 0
M  V30 2721 C 256.659 1.78482 1.49155 0
M  V30 2722 C 257.653 0.652914 1.56312 0
M  V30 2723 O 258.859 0.835464 1.59436 0
M  V30 2724 H 255.234 0.5648 0.496493 0
M  V30 2725 H 257.205 2.71095 1.24699 0
M  V30 2726 C 255.954 1.97378 2.86247 0
M  V30 2727 H 255.277 2.83907 2.81491 0
M  V30 2728 H 256.717 2.19327 3.62866 0
M  V30 2729 C 255.176 0.74728 3.28508 0
M  V30 2730 O 255.706 -0.0736232 4.01633 0
M  V30 2731 N 253.912 0.576396 2.84826 0
M  V30 2732 H 253.459 1.24555 2.25486 0
M  V30 2733 H 253.417 -0.24288 3.1346 0
M  V30 2734 N 257.189 -0.644168 1.43834 0
M  V30 2735 C 258.6 -1.22554 1.40845 0
M  V30 2736 C 258.951 -1.9585 0.117115 0
M  V30 2737 O 258.076 -2.01734 -0.783086 0
M  V30 2738 C 258.671 -2.22907 2.55143 0
M  V30 2739 C 257.23 -2.76501 2.5539 0
M  V30 2740 C 256.377 -1.51287 2.32396 0
M  V30 2741 H 259.328 -0.43563 1.52604 0
M  V30 2742 H 259.349 -3.05259 2.2715 0
M  V30 2743 H 258.861 -1.69533 3.49114 0
M  V30 2744 H 256.962 -3.33914 1.65324 0
M  V30 2745 H 257.075 -3.23429 3.53455 0
M  V30 2746 H 255.439 -1.78957 1.81236 0
M  V30 2747 H 256.222 -0.998336 3.28463 0
M  V30 2748 N 258.668 -1.30515 -0.883378 0
M  V30 2749 C 259.578 -1.18959 -2.02203 0
M  V30 2750 C 260.594 -0.109172 -1.73657 0
M  V30 2751 O 261.77 -0.324413 -1.9877 0
M  V30 2752 C 258.835 -0.883871 -3.35244 0
M  V30 2753 C 257.896 -2.04982 -3.77201 0
M  V30 2754 C 257.129 -1.75859 -5.03894 0
M  V30 2755 O 257.352 -0.687276 -5.66244 0
M  V30 2756 O 256.286 -2.61146 -5.42297 0
M  V30 2757 H 260.112 -2.14616 -2.1488 0
M  V30 2758 H 257.697 -1.10124 -1.0096 0
M  V30 2759 H 259.579 -0.728644 -4.15053 0
M  V30 2760 H 258.254 0.0427798 -3.23672 0
M  V30 2761 H 257.161 -2.26038 -2.9809 0
M  V30 2762 H 258.494 -2.95825 -3.93381 0
M  V30 2763 N 260.146 1.09593 -1.13257 0
M  V30 2764 C 261.371 1.8604 -0.916732 0
M  V30 2765 C 261.796 1.80504 0.529146 0
M  V30 2766 O 261.154 1.18127 1.37534 0
M  V30 2767 C 261.202 3.32017 -1.40703 0
M  V30 2768 O 260.306 4.08141 -0.591153 0
M  V30 2769 H 259.647 0.576943 -0.328683 0
M  V30 2770 H 262.177 1.38405 -1.50682 0
M  V30 2771 H 262.187 3.82865 -1.4099 0
M  V30 2772 H 260.862 3.35361 -2.45979 0
M  V30 2773 H 259.439 3.67084 -0.656005 0
M  V30 2774 N 261.624 0.925811 1.2754 0
M  V30 2775 C 262.587 0.428129 2.25166 0
M  V30 2776 C 263.587 -0.452261 1.54309 0
M  V30 2777 O 264.777 -0.253608 1.72344 0
M  V30 2778 C 261.909 -0.384749 3.38722 0
M  V30 2779 H 263.102 1.29066 2.70706 0
M  V30 2780 H 260.655 0.706323 1.3943 0
M  V30 2781 H 261.39 -1.26618 2.98561 0
M  V30 2782 H 261.175 0.246454 3.91325 0
M  V30 2783 H 262.665 -0.723389 4.11287 0
M  V30 2784 N 263.102 -1.41638 0.69111 0
M  V30 2785 C 264.052 -2.28 -0.000107832 0
M  V30 2786 C 265.036 -1.41964 -0.757304 0
M  V30 2787 O 266.228 -1.65274 -0.633532 0
M  V30 2788 C 263.357 -3.30209 -0.938983 0
M  V30 2789 C 262.443 -4.23725 -0.17827 0
M  V30 2790 N 262.834 -4.99017 0.825563 0
M  V30 2791 C 261.132 -4.44071 -0.414392 0
M  V30 2792 C 261.833 -5.67431 1.28052 0
M  V30 2793 N 260.809 -5.40197 0.607304 0
M  V30 2794 H 264.611 -2.83644 0.769617 0
M  V30 2795 H 262.125 -1.53797 0.521562 0
M  V30 2796 H 264.122 -3.90898 -1.44929 0
M  V30 2797 H 262.782 -2.76126 -1.70836 0
M  V30 2798 H 263.793 -5.03671 1.20566 0
M  V30 2799 H 260.47 -4.01004 -1.162 0
M  V30 2800 H 261.86 -6.37801 2.11327 0
M  V30 2801 N 264.58 -0.43555 -1.51462 0
M  V30 2802 C 265.512 0.41257 -2.25456 0
M  V30 2803 C 266.525 0.987822 -1.29406 0
M  V30 2804 O 267.714 0.882266 -1.55172 0
M  V30 2805 C 264.814 1.58894 -2.99342 0
M  V30 2806 C 263.987 1.13288 -4.22474 0
M  V30 2807 C 263.046 2.17917 -4.78956 0
M  V30 2808 O 262.072 1.77425 -5.40841 0
M  V30 2809 N 263.274 3.50382 -4.62832 0
M  V30 2810 H 266.039 -0.221603 -2.9888 0
M  V30 2811 H 263.6 -0.264342 -1.59727 0
M  V30 2812 H 265.592 2.28508 -3.34015 0
M  V30 2813 H 264.162 2.12849 -2.28941 0
M  V30 2814 H 263.382 0.263881 -3.93316 0
M  V30 2815 H 264.67 0.805542 -5.02383 0
M  V30 2816 H 264.068 3.86013 -4.13534 0
M  V30 2817 H 262.625 4.15895 -5.01871 0
M  V30 2818 N 266.058 1.56714 -0.166846 0
M  V30 2819 C 267.304 1.97039 0.479962 0
M  V30 2820 C 267.637 1.05264 1.63197 0
M  V30 2821 O 266.912 0.0988833 1.94248 0
M  V30 2822 C 267.195 3.46867 0.967212 0
M  V30 2823 C 267.048 4.49421 -0.18466 0
M  V30 2824 C 268.367 3.9968 1.84238 0
M  V30 2825 H 265.486 0.71641 0.172992 0
M  V30 2826 H 268.128 1.8832 -0.252079 0
M  V30 2827 H 266.278 3.54428 1.59101 0
M  V30 2828 H 267.95 4.53924 -0.821621 0
M  V30 2829 H 266.193 4.25573 -0.840837 0
M  V30 2830 H 266.864 5.51644 0.198317 0
M  V30 2831 H 269.34 3.94723 1.31655 0
M  V30 2832 H 268.216 5.04941 2.15234 0
M  V30 2833 H 268.477 3.43226 2.78654 0
M  V30 2834 N 267.536 -0.106894 1.57237 0
M  V30 2835 C 268.764 -0.826389 1.8968 0
M  V30 2836 C 269.179 -1.72856 0.759353 0
M  V30 2837 O 268.536 -1.80503 -0.269263 0
M  V30 2838 C 268.587 -1.64967 3.21665 0
M  V30 2839 O 268.308 -0.783804 4.31031 0
M  V30 2840 C 269.809 -2.47326 3.67892 0
M  V30 2841 H 267.029 -0.236927 0.627779 0
M  V30 2842 H 269.573 -0.0876593 2.04312 0
M  V30 2843 H 267.728 -2.34103 3.08666 0
M  V30 2844 H 268.142 -1.35284 5.06753 0
M  V30 2845 H 269.616 -3.00604 4.6297 0
M  V30 2846 H 270.093 -3.25247 2.95146 0
M  V30 2847 H 270.699 -1.83411 3.83719 0
M  V30 2848 N 269.014 -1.53014 -0.377408 0
M  V30 2849 C 270.244 -1.72265 -1.14054 0
M  V30 2850 C 270.652 -0.44601 -1.83868 0
M  V30 2851 O 269.995 0.590095 -1.73964 0
M  V30 2852 C 270.057 -2.82492 -2.22348 0
M  V30 2853 C 269.721 -4.23233 -1.72402 0
M  V30 2854 C 270.718 -5.05992 -1.19448 0
M  V30 2855 C 268.403 -4.696 -1.78273 0
M  V30 2856 C 270.397 -6.33203 -0.730268 0
M  V30 2857 C 268.084 -5.96792 -1.31464 0
M  V30 2858 C 269.082 -6.78424 -0.789297 0
M  V30 2859 O 268.77 -8.0323 -0.328077 0
M  V30 2860 H 268.502 -0.579873 -0.347453 0
M  V30 2861 H 271.056 -2.00502 -0.445882 0
M  V30 2862 H 269.286 -2.49702 -2.95272 0
M  V30 2863 H 270.975 -2.90034 -2.83963 0
M  V30 2864 H 271.741 -4.71349 -1.14259 0
M  V30 2865 H 267.62 -4.06142 -2.18106 0
M  V30 2866 H 271.164 -6.96868 -0.319542 0
M  V30 2867 H 267.061 -6.30937 -1.36342 0
M  V30 2868 H 267.829 -8.1727 -0.448493 0
M  V30 2869 N 270.492 0.636531 -1.44174 0
M  V30 2870 C 271.422 1.76003 -1.53444 0
M  V30 2871 C 272.403 1.65619 -0.387841 0
M  V30 2872 O 273.588 1.84461 -0.607257 0
M  V30 2873 C 270.718 3.14511 -1.4731 0
M  V30 2874 C 269.672 3.39677 -2.60391 0
M  V30 2875 C 268.998 4.78159 -2.39308 0
M  V30 2876 C 270.298 3.32772 -4.02567 0
M  V30 2877 H 271.992 1.68501 -2.47483 0
M  V30 2878 H 269.538 0.809237 -1.19111 0
M  V30 2879 H 271.491 3.92878 -1.52397 0
M  V30 2880 H 270.215 3.22783 -0.49785 0
M  V30 2881 H 268.874 2.63688 -2.54684 0
M  V30 2882 H 268.522 4.83128 -1.39988 0
M  V30 2883 H 268.222 4.95956 -3.15122 0
M  V30 2884 H 269.746 5.58762 -2.46205 0
M  V30 2885 H 271.16 4.01051 -4.09672 0
M  V30 2886 H 269.557 3.62104 -4.7854 0
M  V30 2887 H 270.627 2.30669 -4.2652 0
M  V30 2888 N 271.97 1.30982 0.876444 0
M  V30 2889 C 272.903 1.12414 1.98591 0
M  V30 2890 C 273.881 0.0294078 1.62573 0
M  V30 2891 O 275.065 0.184598 1.87594 0
M  V30 2892 C 272.192 0.716276 3.3104 0
M  V30 2893 C 271.238 1.81311 3.86042 0
M  V30 2894 S 272.071 3.41727 4.1229 0
M  V30 2895 C 273.227 3.02863 5.47745 0
M  V30 2896 H 273.46 2.06338 2.14037 0
M  V30 2897 H 270.993 1.15393 1.02586 0
M  V30 2898 H 272.951 0.487697 4.07593 0
M  V30 2899 H 271.612 -0.203749 3.13438 0
M  V30 2900 H 270.805 1.48021 4.81774 0
M  V30 2901 H 270.407 1.99641 3.16259 0
M  V30 2902 H 272.699 2.51353 6.29148 0
M  V30 2903 H 273.642 3.97533 5.8598 0
M  V30 2904 H 274.05 2.40487 5.10711 0
M  V30 2905 N 273.449 -1.08991 1.13837 0
M  V30 2906 C 274.697 -1.80899 0.901098 0
M  V30 2907 C 275.018 -1.86356 -0.574134 0
M  V30 2908 O 274.288 -1.35235 -1.41733 0
M  V30 2909 H 272.868 -0.669966 0.330386 0
M  V30 2910 H 275.53 -1.318 1.43578 0
M  V30 2911 H 274.626 -2.83929 1.29578 0
M  V30 2912 N 274.927 -0.932562 -1.27047 0
M  V30 2913 C 276.338 -0.619451 -1.76124 0
M  V30 2914 C 276.689 0.865397 -1.76083 0
M  V30 2915 O 275.814 1.67722 -1.36742 0
M  V30 2916 C 276.409 -1.11771 -3.19832 0
M  V30 2917 C 274.968 -0.855174 -3.66557 0
M  V30 2918 C 274.115 -1.27362 -2.46321 0
M  V30 2919 H 277.066 -1.11181 -1.13245 0
M  V30 2920 H 277.087 -0.46759 -3.77616 0
M  V30 2921 H 276.599 -2.19842 -3.1983 0
M  V30 2922 H 274.7 0.211524 -3.71999 0
M  V30 2923 H 274.813 -1.47613 -4.55793 0
M  V30 2924 H 273.177 -0.692119 -2.45116 0
M  V30 2925 H 273.96 -2.36307 -2.49025 0
M  V30 2926 N 276.405 1.4127 -0.698611 0
M  V30 2927 C 277.821 1.55241 -0.370462 0
M  V30 2928 C 278.021 1.67351 1.12231 0
M  V30 2929 O 277.077 1.65363 1.90818 0
M  V30 2930 C 278.39 2.78997 -1.12165 0
M  V30 2931 C 279.938 2.92797 -1.1063 0
M  V30 2932 C 280.413 4.19445 -1.8393 0
M  V30 2933 N 281.904 4.26409 -1.80914 0
M  V30 2934 C 282.639 5.23271 -2.34467 0
M  V30 2935 N 282.135 6.26145 -2.96504 0
M  V30 2936 N 283.928 5.15232 -2.24706 0
M  V30 2937 H 276.079 1.31654 -1.66676 0
M  V30 2938 H 278.342 0.635393 -0.703548 0
M  V30 2939 H 278.048 2.76268 -2.17644 0
M  V30 2940 H 277.922 3.70606 -0.702209 0
M  V30 2941 H 280.309 2.95039 -0.0597713 0
M  V30 2942 H 280.39 2.02353 -1.56483 0
M  V30 2943 H 280.034 4.17964 -2.88563 0
M  V30 2944 H 279.964 5.08866 -1.35509 0
M  V30 2945 H 282.455 3.527 -1.35687 0
M  V30 2946 H 282.768 6.96451 -3.34927 0
M  V30 2947 H 281.113 6.26638 -3.00583 0
M  V30 2948 H 284.304 4.33789 -1.7591 0
M  V30 2949 H 284.477 5.90552 -2.66745 0
M  V30 2950 N 277.883 0.443576 1.51229 0
M  V30 2951 C 279.131 -0.120557 2.0174 0
M  V30 2952 C 279.452 -1.42665 1.32935 0
M  V30 2953 O 278.722 -1.9028 0.465866 0
M  V30 2954 H 277.302 -0.0475426 0.745486 0
M  V30 2955 H 279.964 0.587711 1.85828 0
M  V30 2956 H 279.06 -0.291972 3.10731 0
M  V30 2957 N 279.361 -1.56624 0.175154 0
M  V30 2958 C 280.291 -2.21155 -0.749195 0
M  V30 2959 C 281.272 -1.16836 -1.23626 0
M  V30 2960 O 282.457 -1.45277 -1.28873 0
M  V30 2961 C 279.587 -2.8553 -1.97711 0
M  V30 2962 C 278.541 -3.95921 -1.62575 0
M  V30 2963 C 277.867 -4.47365 -2.92864 0
M  V30 2964 C 279.167 -5.15323 -0.850838 0
M  V30 2965 H 280.861 -2.98653 -0.211295 0
M  V30 2966 H 278.407 -1.43651 -0.100188 0
M  V30 2967 H 280.36 -3.2935 -2.62881 0
M  V30 2968 H 279.084 -2.05406 -2.53921 0
M  V30 2969 H 277.743 -3.52762 -0.997719 0
M  V30 2970 H 277.391 -3.64027 -3.47122 0
M  V30 2971 H 277.091 -5.21839 -2.70106 0
M  V30 2972 H 278.615 -4.93873 -3.59056 0
M  V30 2973 H 280.029 -5.55812 -1.40521 0
M  V30 2974 H 278.426 -5.95739 -0.722154 0
M  V30 2975 H 279.496 -4.84661 0.152082 0
M  V30 2976 N 280.839 0.0985539 -1.57292 0
M  V30 2977 C 282.25 0.653457 -1.74891 0
M  V30 2978 C 282.601 1.7929 -0.796838 0
M  V30 2979 O 281.726 2.16385 0.0254886 0
M  V30 2980 C 282.321 1.19216 -3.17133 0
M  V30 2981 C 280.88 1.69316 -3.36168 0
M  V30 2982 C 280.027 0.601294 -2.70702 0
M  V30 2983 H 282.978 -0.127497 -1.58187 0
M  V30 2984 H 282.999 2.06154 -3.19814 0
M  V30 2985 H 282.511 0.362635 -3.86402 0
M  V30 2986 H 280.612 2.5468 -2.71972 0
M  V30 2987 H 280.725 1.78853 -4.44464 0
M  V30 2988 H 279.089 1.0399 -2.32504 0
M  V30 2989 H 279.872 -0.217592 -3.4261 0
M  V30 2990 N 282.317 1.53212 0.369288 0
M  V30 2991 C 283.733 1.42902 0.710712 0
M  V30 2992 C 283.933 0.565135 1.93413 0
M  V30 2993 O 282.989 0.0461484 2.52458 0
M  V30 2994 C 284.302 2.86042 0.927382 0
M  V30 2995 C 285.85 2.9565 1.02762 0
M  V30 2996 C 286.325 4.39843 1.27679 0
M  V30 2997 N 287.816 4.43256 1.34457 0
M  V30 2998 C 288.551 5.51929 1.55439 0
M  V30 2999 N 288.047 6.70655 1.73762 0
M  V30 3000 N 289.84 5.39502 1.57779 0
M  V30 3001 H 281.991 2.07888 -0.435457 0
M  V30 3002 H 284.254 0.938661 -0.132739 0
M  V30 3003 H 283.96 3.51557 0.100287 0
M  V30 3004 H 283.834 3.29472 1.83653 0
M  V30 3005 H 286.221 2.30291 1.84527 0
M  V30 3006 H 286.302 2.5562 0.0959504 0
M  V30 3007 H 285.946 5.05774 0.464175 0
M  V30 3008 H 285.876 4.77443 2.22162 0
M  V30 3009 H 288.367 3.5769 1.21926 0
M  V30 3010 H 288.68 7.49248 1.89335 0
M  V30 3011 H 287.025 6.73648 1.70948 0
M  V30 3012 H 290.216 4.45713 1.43029 0
M  V30 3013 H 290.389 6.2426 1.7379 0
M  V30 3014 N 283.795 -0.628877 1.44509 0
M  V30 3015 C 285.023 -1.41554 1.50897 0
M  V30 3016 C 285.438 -1.8832 0.134564 0
M  V30 3017 O 284.795 -1.60969 -0.859965 0
M  V30 3018 C 284.846 -2.63435 2.47556 0
M  V30 3019 O 284.567 -2.18619 3.79654 0
M  V30 3020 C 286.068 -3.56537 2.63431 0
M  V30 3021 H 283.288 -0.434044 0.511709 0
M  V30 3022 H 285.832 -0.768895 1.89495 0
M  V30 3023 H 283.987 -3.24187 2.12089 0
M  V30 3024 H 284.401 -2.97652 4.31861 0
M  V30 3025 H 285.875 -4.38657 3.35088 0
M  V30 3026 H 286.352 -4.05493 1.68738 0
M  V30 3027 H 286.958 -3.01653 2.9981 0
M  V30 3028 N 285.273 -1.31445 -0.869486 0
M  V30 3029 C 286.519 -1.22347 -1.62489 0
M  V30 3030 C 286.874 0.216204 -1.91181 0
M  V30 3031 O 286.167 1.14977 -1.53268 0
M  V30 3032 C 286.361 -2.00145 -2.96102 0
M  V30 3033 C 286.19 -3.51531 -2.80456 0
M  V30 3034 C 284.96 -4.20882 -2.79618 0
M  V30 3035 C 287.158 -4.46471 -2.5528 0
M  V30 3036 N 285.14 -5.58421 -2.55027 0
M  V30 3037 C 286.511 -5.71682 -2.39957 0
M  V30 3038 C 288.566 -4.35892 -2.40629 0
M  V30 3039 C 287.269 -6.87511 -2.11472 0
M  V30 3040 C 289.295 -5.51505 -2.13532 0
M  V30 3041 C 288.657 -6.75707 -1.98998 0
M  V30 3042 H 284.756 -0.502815 -0.598917 0
M  V30 3043 H 287.34 -1.65639 -1.02332 0
M  V30 3044 H 285.511 -1.59221 -3.54264 0
M  V30 3045 H 287.243 -1.83063 -3.60929 0
M  V30 3046 H 283.998 -3.72857 -2.92018 0
M  V30 3047 H 284.422 -6.30841 -2.45701 0
M  V30 3048 H 289.064 -3.40533 -2.50593 0
M  V30 3049 H 286.782 -7.82897 -2.00245 0
M  V30 3050 H 290.368 -5.45238 -2.02995 0
M  V30 3051 H 289.248 -7.63655 -1.78326 0
M  V30 3052 N 286.751 1.08385 -1.14413 0
M  V30 3053 C 288.167 1.32844 -0.884563 0
M  V30 3054 C 288.367 1.95841 0.474181 0
M  V30 3055 O 287.423 2.21158 1.21842 0
M  V30 3056 C 288.736 2.22978 -2.01745 0
M  V30 3057 C 290.284 2.36458 -2.05077 0
M  V30 3058 C 290.759 3.29934 -3.1766 0
M  V30 3059 N 292.25 3.37511 -3.17239 0
M  V30 3060 C 292.985 4.09871 -4.0099 0
M  V30 3061 N 292.481 4.84936 -4.94781 0
M  V30 3062 N 294.274 4.05704 -3.89051 0
M  V30 3063 H 286.425 0.658756 -2.01926 0
M  V30 3064 H 288.688 0.352821 -0.879899 0
M  V30 3065 H 288.394 1.83934 -2.99769 0
M  V30 3066 H 288.268 3.23441 -1.94077 0
M  V30 3067 H 290.655 2.7476 -1.0766 0
M  V30 3068 H 290.736 1.35736 -2.16816 0
M  V30 3069 H 290.38 2.92352 -4.15322 0
M  V30 3070 H 290.31 4.30584 -3.03158 0
M  V30 3071 H 292.801 2.83996 -2.49308 0
M  V30 3072 H 293.114 5.37612 -5.55151 0
M  V30 3073 H 291.459 4.83988 -4.98779 0
M  V30 3074 H 294.65 3.46167 -3.15097 0
M  V30 3075 H 294.823 4.61834 -4.54547 0
M  V30 3076 N 288.23 0.939286 1.26551 0
M  V30 3077 C 289.14 0.453432 2.30176 0
M  V30 3078 C 290.156 -0.471649 1.67486 0
M  V30 3079 O 291.332 -0.35164 1.98306 0
M  V30 3080 C 288.397 -0.275326 3.45605 0
M  V30 3081 C 287.458 0.686084 4.23782 0
M  V30 3082 C 286.691 -0.00798994 5.33699 0
M  V30 3083 O 286.914 -1.22528 5.57085 0
M  V30 3084 O 285.848 0.669746 5.98162 0
M  V30 3085 H 289.674 1.31416 2.73795 0
M  V30 3086 H 287.259 0.705095 1.31715 0
M  V30 3087 H 289.141 -0.685911 4.1578 0
M  V30 3088 H 287.816 -1.11147 3.0402 0
M  V30 3089 H 286.723 1.14658 3.56096 0
M  V30 3090 H 288.056 1.48979 4.69112 0
M  V30 3091 N 289.708 -1.40897 0.706093 0
M  V30 3092 C 290.641 -2.282 -0.00328781 0
M  V30 3093 C 291.619 -1.42816 -0.77732 0
M  V30 3094 O 292.803 -1.72237 -0.765944 0
M  V30 3095 C 289.93 -3.23226 -1.01205 0
M  V30 3096 C 288.976 -4.25222 -0.329955 0
M  V30 3097 S 289.809 -5.27269 0.935298 0
M  V30 3098 C 290.965 -6.25859 -0.0716061 0
M  V30 3099 H 291.198 -2.88016 0.737143 0
M  V30 3100 H 288.731 -1.46191 0.496756 0
M  V30 3101 H 290.689 -3.78503 -1.58888 0
M  V30 3102 H 289.35 -2.62485 -1.72513 0
M  V30 3103 H 288.543 -4.92023 -1.09221 0
M  V30 3104 H 288.145 -3.73595 0.174069 0
M  V30 3105 H 290.437 -6.71204 -0.921521 0
M  V30 3106 H 291.38 -7.0586 0.562765 0
M  V30 3107 H 291.788 -5.62852 -0.431088 0
M  V30 3108 N 291.186 -0.45159 -1.50991 0
M  V30 3109 C 292.134 0.366864 -2.29689 0
M  V30 3110 C 293.128 1.00809 -1.36139 0
M  V30 3111 O 294.334 0.941427 -1.53418 0
M  V30 3112 H 290.709 0.137133 -0.739391 0
M  V30 3113 H 292.68 -0.317538 -2.96706 0
M  V30 3114 C 291.429 1.44751 -3.16137 0
M  V30 3115 H 290.752 0.963473 -3.88017 0
M  V30 3116 H 292.192 1.99315 -3.74232 0
M  V30 3117 C 290.651 2.43869 -2.32442 0
M  V30 3118 O 291.181 3.4872 -1.99392 0
M  V30 3119 N 289.387 2.15105 -1.95392 0
M  V30 3120 H 288.934 1.29866 -2.22469 0
M  V30 3121 H 288.892 2.81661 -1.39693 0
M  V30 3122 N 292.664 1.56529 -0.183458 0
M  V30 3123 C 293.912 1.96855 0.457452 0
M  V30 3124 C 294.233 1.07104 1.62953 0
M  V30 3125 O 293.503 0.139887 1.954 0
M  V30 3126 H 292.083 0.72693 0.171992 0
M  V30 3127 H 294.745 1.93056 -0.267476 0
M  V30 3128 H 293.841 3.01423 0.809368 0
M  V30 3129 N 294.142 -0.090211 1.57342 0
M  V30 3130 C 295.372 -0.805055 1.90269 0
M  V30 3131 C 295.78 -1.72561 0.775842 0
M  V30 3132 O 295.123 -1.81839 -0.260843 0
M  V30 3133 C 295.185 -1.66734 3.18497 0
M  V30 3134 C 294.849 -0.918092 4.47683 0
M  V30 3135 C 295.846 -0.245674 5.19319 0
M  V30 3136 C 293.531 -0.890724 4.94339 0
M  V30 3137 C 295.525 0.444088 6.35851 0
M  V30 3138 C 293.212 -0.197179 6.10782 0
M  V30 3139 C 294.21 0.469044 6.81388 0
M  V30 3140 O 293.898 1.15146 7.95611 0
M  V30 3141 H 293.63 -0.235143 0.633785 0
M  V30 3142 H 296.184 -0.0703805 2.05279 0
M  V30 3143 H 294.414 -2.44437 2.99646 0
M  V30 3144 H 296.103 -2.25919 3.37217 0
M  V30 3145 H 296.869 -0.258246 4.84312 0
M  V30 3146 H 292.748 -1.39873 4.39268 0
M  V30 3147 H 296.292 0.964667 6.90898 0
M  V30 3148 H 292.189 -0.18247 6.45242 0
M  V30 3149 H 292.957 1.05885 8.11622 0
M  V30 3150 N 295.62 -1.53406 -0.361157 0
M  V30 3151 C 296.868 -1.69467 -1.10115 0
M  V30 3152 C 297.189 -0.451352 -1.89705 0
M  V30 3153 O 296.459 0.534636 -1.88463 0
M  V30 3154 H 295.039 -0.624749 -0.409508 0
M  V30 3155 H 297.701 -1.90609 -0.406699 0
M  V30 3156 H 296.797 -2.55774 -1.78847 0
M  V30 3157 N 297.098 0.621204 -1.44841 0
M  V30 3158 C 298.323 1.41244 -1.51871 0
M  V30 3159 C 298.748 1.87519 -0.147764 0
M  V30 3160 O 298.106 1.59334 0.865 0
M  V30 3161 C 298.154 2.60221 -2.49634 0
M  V30 3162 O 297.258 3.60395 -2.00473 0
M  V30 3163 H 296.599 0.42223 -0.512463 0
M  V30 3164 H 299.129 0.757305 -1.90069 0
M  V30 3165 H 299.139 3.0764 -2.67996 0
M  V30 3166 H 297.814 2.25887 -3.4921 0
M  V30 3167 H 296.391 3.19717 -1.91925 0
M  V30 3168 N 298.576 1.31904 0.862503 0
M  V30 3169 C 299.526 1.16772 1.95827 0
M  V30 3170 C 300.51 0.0767098 1.60717 0
M  V30 3171 O 301.702 0.302407 1.74398 0
M  V30 3172 C 298.831 0.884858 3.317 0
M  V30 3173 C 297.917 2.0172 3.73055 0
M  V30 3174 N 298.308 3.265 3.86305 0
M  V30 3175 C 296.606 1.91861 4.02623 0
M  V30 3176 C 297.307 4.00616 4.2176 0
M  V30 3177 N 296.283 3.28847 4.32852 0
M  V30 3178 H 300.085 2.11382 2.04193 0
M  V30 3179 H 297.599 1.2357 1.05377 0
M  V30 3180 H 299.596 0.757419 4.09962 0
M  V30 3181 H 298.256 -0.0529448 3.24657 0
M  V30 3182 H 299.267 3.61529 3.70833 0
M  V30 3183 H 295.944 1.05593 4.03926 0
M  V30 3184 H 297.334 5.08182 4.39546 0
M  V30 3185 N 300.054 -1.07777 1.14986 0
M  V30 3186 C 301.282 -1.84018 0.945773 0
M  V30 3187 C 301.697 -1.81897 -0.505863 0
M  V30 3188 O 301.054 -1.22726 -1.35072 0
M  V30 3189 C 301.105 -3.31287 1.44677 0
M  V30 3190 O 300.826 -3.33449 2.84154 0
M  V30 3191 C 302.327 -4.24311 1.28355 0
M  V30 3192 H 299.547 -0.580716 0.336169 0
M  V30 3193 H 302.091 -1.36077 1.52654 0
M  V30 3194 H 300.246 -3.76594 0.908625 0
M  V30 3195 H 300.66 -4.25427 3.06777 0
M  V30 3196 H 302.134 -5.2573 1.68261 0
M  V30 3197 H 302.611 -4.38612 0.227184 0
M  V30 3198 H 303.217 -3.84836 1.81056 0
M  V30 3199 N 301.532 -0.945985 -1.26051 0
M  V30 3200 C 302.762 -0.612136 -1.97323 0
M  V30 3201 C 303.17 0.818171 -1.70595 0
M  V30 3202 O 302.513 1.55777 -0.973613 0
M  V30 3203 C 302.575 -0.780347 -3.50929 0
M  V30 3204 C 302.239 -2.18619 -4.01317 0
M  V30 3205 C 303.236 -3.16209 -4.12683 0
M  V30 3206 C 300.921 -2.50805 -4.35203 0
M  V30 3207 C 302.915 -4.44085 -4.57238 0
M  V30 3208 C 300.602 -3.78912 -4.79446 0
M  V30 3209 C 301.6 -4.75365 -4.90425 0
M  V30 3210 O 301.288 -6.01191 -5.3369 0
M  V30 3211 H 301.02 -0.229134 -0.635982 0
M  V30 3212 H 303.574 -1.27036 -1.61404 0
M  V30 3213 H 301.804 -0.0649864 -3.86645 0
M  V30 3214 H 303.493 -0.448842 -4.03411 0
M  V30 3215 H 304.259 -2.92668 -3.86744 0
M  V30 3216 H 300.138 -1.76463 -4.2589 0
M  V30 3217 H 303.682 -5.19373 -4.65723 0
M  V30 3218 H 299.579 -4.02265 -5.0483 0
M  V30 3219 H 300.347 -6.04442 -5.51899 0
M  V30 3220 N 303.011 1.40521 -0.713556 0
M  V30 3221 C 303.941 2.33381 -0.0743864 0
M  V30 3222 C 304.922 1.52784 0.747735 0
M  V30 3223 O 306.107 1.81258 0.697071 0
M  V30 3224 C 303.237 3.36748 0.849598 0
M  V30 3225 C 302.191 4.27793 0.133247 0
M  V30 3226 C 301.517 5.21679 1.17281 0
M  V30 3227 C 302.817 5.12415 -1.01134 0
M  V30 3228 H 304.511 2.87081 -0.850007 0
M  V30 3229 H 302.057 1.38034 -0.410201 0
M  V30 3230 H 304.01 4.00648 1.30612 0
M  V30 3231 H 302.734 2.81439 1.65709 0
M  V30 3232 H 301.393 3.65342 -0.303426 0
M  V30 3233 H 301.041 4.62677 1.9733 0
M  V30 3234 H 300.741 5.83435 0.698397 0
M  V30 3235 H 302.265 5.88456 1.62947 0
M  V30 3236 H 303.679 5.69781 -0.634274 0
M  V30 3237 H 302.076 5.83203 -1.41399 0
M  V30 3238 H 303.146 4.48514 -1.84292 0
M  V30 3239 N 304.489 0.459591 1.5075 0
M  V30 3240 C 305.735 -0.091664 2.03193 0
M  V30 3241 C 306.09 -1.38432 1.3362 0
M  V30 3242 O 305.383 -1.86257 0.449322 0
M  V30 3243 C 305.577 -0.342866 3.55752 0
M  V30 3244 C 305.406 0.923888 4.40107 0
M  V30 3245 C 304.176 1.46388 4.83631 0
M  V30 3246 C 306.374 1.81617 4.81165 0
M  V30 3247 N 304.356 2.68086 5.52271 0
M  V30 3248 C 305.727 2.87907 5.49099 0
M  V30 3249 C 307.782 1.82793 4.63132 0
M  V30 3250 C 306.485 3.95347 6.0091 0
M  V30 3251 C 308.511 2.89182 5.15876 0
M  V30 3252 C 307.873 3.94191 5.83774 0
M  V30 3253 H 303.972 0.00619247 0.781975 0
M  V30 3254 H 306.556 0.625233 1.84388 0
M  V30 3255 H 304.727 -1.0288 3.74527 0
M  V30 3256 H 306.459 -0.887445 3.9485 0
M  V30 3257 H 303.214 1.01466 4.62603 0
M  V30 3258 H 303.638 3.29857 5.91205 0
M  V30 3259 H 308.28 1.0293 4.1008 0
M  V30 3260 H 305.998 4.76035 6.53006 0
M  V30 3261 H 309.584 2.91061 5.0376 0
M  V30 3262 H 308.464 4.75161 6.23853 0
M  V30 3263 N 305.967 -1.56429 0.191757 0
M  V30 3264 C 307.213 -1.97777 -0.448554 0
M  V30 3265 C 307.546 -1.07847 -1.61501 0
M  V30 3266 O 306.821 -0.129774 -1.94067 0
M  V30 3267 C 307.104 -3.48362 -0.911906 0
M  V30 3268 C 306.957 -4.4907 0.256136 0
M  V30 3269 C 308.276 -4.02561 -1.77857 0
M  V30 3270 H 305.395 -0.719071 -0.161572 0
M  V30 3271 H 308.037 -1.87896 0.282007 0
M  V30 3272 H 306.187 -3.56914 -1.53442 0
M  V30 3273 H 307.859 -4.5256 0.893733 0
M  V30 3274 H 306.102 -4.24181 0.908436 0
M  V30 3275 H 306.773 -5.51889 -0.11053 0
M  V30 3276 H 309.249 -3.96767 -1.25359 0
M  V30 3277 H 308.125 -5.08301 -2.07174 0
M  V30 3278 H 308.386 -3.47616 -2.73158 0
M  V30 3279 N 307.445 0.0818655 -1.57387 0
M  V30 3280 C 308.393 1.11712 -2.04018 0
M  V30 3281 C 309.387 1.40683 -0.94364 0
M  V30 3282 O 310.593 1.40209 -1.12878 0
M  V30 3283 H 306.968 0.377542 -0.650358 0
M  V30 3284 H 308.939 0.697614 -2.90131 0
M  V30 3285 C 307.688 2.42537 -2.49141 0
M  V30 3286 H 307.011 2.21092 -3.33104 0
M  V30 3287 H 308.451 3.13446 -2.85531 0
M  V30 3288 C 306.91 3.0778 -1.37014 0
M  V30 3289 O 307.44 3.95436 -0.706621 0
M  V30 3290 N 305.646 2.68242 -1.11779 0
M  V30 3291 H 305.193 1.97052 -1.65917 0
M  V30 3292 H 305.151 3.1222 -0.369594 0
M  V30 3293 N 308.923 1.53595 0.353017 0
M  V30 3294 C 309.886 1.80232 1.41594 0
M  V30 3295 C 310.886 0.673081 1.46035 0
M  V30 3296 O 312.076 0.941335 1.46576 0
M  V30 3297 C 309.208 1.93578 2.80607 0
M  V30 3298 H 310.401 2.75174 1.19244 0
M  V30 3299 H 307.954 1.44864 0.586872 0
M  V30 3300 H 308.689 1.00746 3.08254 0
M  V30 3301 H 308.474 2.75724 2.78781 0
M  V30 3302 H 309.964 2.15735 3.57558 0
M  V30 3303 N 310.401 -0.613514 1.45168 0
M  V30 3304 C 311.333 -1.73825 1.4939 0
M  V30 3305 C 312.346 -1.58175 0.385304 0
M  V30 3306 O 313.535 -1.66165 0.652036 0
M  V30 3307 C 310.635 -3.11758 1.32891 0
M  V30 3308 C 309.808 -3.53704 2.57317 0
M  V30 3309 C 308.867 -4.70579 2.35462 0
M  V30 3310 O 307.893 -4.77996 3.09044 0
M  V30 3311 N 309.095 -5.63454 1.39644 0
M  V30 3312 H 311.86 -1.70669 2.46358 0
M  V30 3313 H 309.421 -0.79862 1.40832 0
M  V30 3314 H 311.413 -3.87692 1.1609 0
M  V30 3315 H 309.983 -3.09456 0.442218 0
M  V30 3316 H 309.203 -2.67794 2.89275 0
M  V30 3317 H 310.491 -3.78486 3.40038 0
M  V30 3318 H 309.889 -5.6017 0.789062 0
M  V30 3319 H 308.446 -6.38944 1.28816 0
M  V30 3320 N 311.879 -1.3236 -0.855495 0
M  V30 3321 C 313.127 -1.22629 -1.60644 0
M  V30 3322 C 313.448 0.212136 -1.93843 0
M  V30 3323 O 312.718 1.13666 -1.59552 0
M  V30 3324 H 311.298 -0.450882 -0.595579 0
M  V30 3325 H 313.96 -1.65871 -1.02337 0
M  V30 3326 H 313.056 -1.80832 -2.54374 0
M  V30 3327 N 313.357 1.07166 -1.15556 0
M  V30 3328 C 314.267 2.17947 -0.868116 0
M  V30 3329 C 315.283 1.73297 0.156297 0
M  V30 3330 O 316.459 2.01392 -0.0182327 0
M  V30 3331 C 313.524 3.44789 -0.36355 0
M  V30 3332 C 312.585 4.03996 -1.45209 0
M  V30 3333 C 311.818 5.24783 -0.971508 0
M  V30 3334 O 312.041 5.70109 0.182194 0
M  V30 3335 O 310.975 5.75715 -1.75603 0
M  V30 3336 H 314.801 2.4503 -1.79427 0
M  V30 3337 H 312.386 1.16539 -0.934824 0
M  V30 3338 H 314.268 4.21307 -0.0887113 0
M  V30 3339 H 312.943 3.19253 0.534708 0
M  V30 3340 H 311.85 3.29009 -1.78056 0
M  V30 3341 H 313.183 4.33808 -2.32533 0
M  V30 3342 N 314.835 0.952656 1.25548 0
M  V30 3343 C 315.782 0.47008 2.25962 0
M  V30 3344 C 316.752 -0.476384 1.59122 0
M  V30 3345 O 317.937 -0.39007 1.8677 0
M  V30 3346 C 315.077 -0.247881 3.44209 0
M  V30 3347 C 314.19 0.735591 4.25691 0
M  V30 3348 C 313.325 -0.0047306 5.312 0
M  V30 3349 C 312.364 0.969805 6.04368 0
M  V30 3350 N 311.501 0.260486 7.01617 0
M  V30 3351 H 316.341 1.33126 2.66611 0
M  V30 3352 H 313.878 0.66765 1.31076 0
M  V30 3353 H 315.836 -0.680695 4.1161 0
M  V30 3354 H 314.466 -1.07312 3.0444 0
M  V30 3355 H 313.518 1.28689 3.57971 0
M  V30 3356 H 314.83 1.47934 4.76358 0
M  V30 3357 H 313.984 -0.496275 6.04667 0
M  V30 3358 H 312.723 -0.781282 4.81401 0
M  V30 3359 H 311.728 1.47237 5.29718 0
M  V30 3360 H 312.953 1.74655 6.56256 0
M  V30 3361 H 310.899 -0.497364 6.54112 0
M  V30 3362 H 310.816 0.943362 7.50091 0
M  V30 3363 H 312.084 -0.209587 7.79218 0
M  V30 3364 N 316.313 -1.40141 0.720998 0
M  V30 3365 C 317.263 -2.27949 0.0482544 0
M  V30 3366 C 318.247 -1.43538 -0.727021 0
M  V30 3367 O 319.439 -1.6658 -0.598332 0
M  V30 3368 C 316.568 -3.32126 -0.868729 0
M  V30 3369 C 315.654 -4.24008 -0.0883515 0
M  V30 3370 N 316.045 -4.97154 0.931226 0
M  V30 3371 C 314.343 -4.4485 -0.320105 0
M  V30 3372 C 315.044 -5.64587 1.4006 0
M  V30 3373 N 314.02 -5.38787 0.721752 0
M  V30 3374 H 317.822 -2.81948 0.829609 0
M  V30 3375 H 315.336 -1.52656 0.554067 0
M  V30 3376 H 317.333 -3.93884 -1.36605 0
M  V30 3377 H 315.993 -2.79687 -1.6494 0
M  V30 3378 H 317.004 -5.01 1.31222 0
M  V30 3379 H 313.681 -4.03378 -1.07668 0
M  V30 3380 H 315.071 -6.33175 2.24808 0
M  V30 3381 N 317.792 -0.46758 -1.50504 0
M  V30 3382 C 319.038 0.0808869 -2.03239 0
M  V30 3383 C 319.393 1.37721 -1.34353 0
M  V30 3384 O 318.686 1.86016 -0.459194 0
M  V30 3385 C 318.88 0.323995 -3.55928 0
M  V30 3386 C 318.709 -0.947215 -4.39611 0
M  V30 3387 C 317.479 -1.48951 -4.82848 0
M  V30 3388 C 319.677 -1.84166 -4.80195 0
M  V30 3389 N 317.659 -2.71011 -5.50842 0
M  V30 3390 C 319.03 -2.90815 -5.47564 0
M  V30 3391 C 321.085 -1.85246 -4.62156 0
M  V30 3392 C 319.788 -3.98529 -5.98805 0
M  V30 3393 C 321.814 -2.91914 -5.14335 0
M  V30 3394 C 321.176 -3.97282 -5.81676 0
M  V30 3395 H 317.275 -0.0103394 -0.781932 0
M  V30 3396 H 319.859 -0.635003 -1.84054 0
M  V30 3397 H 318.03 1.00892 -3.75067 0
M  V30 3398 H 319.762 0.866492 -3.95315 0
M  V30 3399 H 316.517 -1.03918 -4.62058 0
M  V30 3400 H 316.941 -3.32988 -5.89447 0
M  V30 3401 H 321.583 -1.05103 -4.09528 0
M  V30 3402 H 319.301 -4.79491 -6.50472 0
M  V30 3403 H 322.887 -2.93729 -5.0221 0
M  V30 3404 H 321.767 -4.78462 -6.21324 0
M  V30 3405 N 319.27 1.56325 -0.20005 0
M  V30 3406 C 320.516 1.98012 0.438059 0
M  V30 3407 C 320.849 1.08702 1.60927 0
M  V30 3408 O 320.124 0.140064 1.93995 0
M  V30 3409 C 320.407 3.48841 0.893419 0
M  V30 3410 C 320.26 4.48928 -0.279947 0
M  V30 3411 C 321.579 4.03498 1.75719 0
M  V30 3412 H 318.698 0.719918 0.157757 0
M  V30 3413 H 321.34 1.87743 -0.291968 0
M  V30 3414 H 319.49 3.57723 1.51547 0
M  V30 3415 H 321.162 4.52079 -0.91772 0
M  V30 3416 H 319.405 4.23694 -0.930919 0
M  V30 3417 H 320.076 5.5194 0.0812601 0
M  V30 3418 H 322.552 3.97427 1.23253 0
M  V30 3419 H 321.428 5.09393 2.04476 0
M  V30 3420 H 321.689 3.4906 2.71311 0
M  V30 3421 N 320.748 -0.0735177 1.57428 0
M  V30 3422 C 321.695 -1.08756 2.0357 0
M  V30 3423 C 322.665 -1.38559 0.916 0
M  V30 3424 O 323.85 -1.49656 1.18354 0
M  V30 3425 C 320.99 -2.39657 2.48311 0
M  V30 3426 C 320.103 -2.16399 3.73892 0
M  V30 3427 C 319.238 -3.40852 4.07423 0
M  V30 3428 C 318.277 -3.1295 5.2605 0
M  V30 3429 N 317.414 -4.29729 5.55228 0
M  V30 3430 H 322.254 -0.687104 2.8997 0
M  V30 3431 H 319.791 -0.327709 1.43403 0
M  V30 3432 H 321.749 -3.16081 2.72303 0
M  V30 3433 H 320.379 -2.77508 1.64891 0
M  V30 3434 H 319.431 -1.30676 3.57251 0
M  V30 3435 H 320.743 -1.91788 4.60455 0
M  V30 3436 H 319.897 -4.25671 4.32306 0
M  V30 3437 H 318.636 -3.68537 3.19425 0
M  V30 3438 H 317.641 -2.26526 5.00965 0
M  V30 3439 H 318.866 -2.86589 6.15665 0
M  V30 3440 H 316.812 -4.57448 4.70188 0
M  V30 3441 H 316.729 -4.08385 6.36206 0
M  V30 3442 H 317.997 -5.1555 5.84661 0
M  V30 3443 N 322.226 -1.5378 -0.344866 0
M  V30 3444 C 323.456 -1.74646 -1.10374 0
M  V30 3445 C 323.864 -0.48491 -1.8288 0
M  V30 3446 O 323.207 0.553062 -1.75177 0
M  V30 3447 C 323.269 -2.87145 -2.16306 0
M  V30 3448 C 322.933 -4.26795 -1.63386 0
M  V30 3449 C 323.93 -5.08412 -1.08688 0
M  V30 3450 C 321.615 -4.73276 -1.68272 0
M  V30 3451 C 323.609 -6.34609 -0.595792 0
M  V30 3452 C 321.296 -5.99446 -1.18776 0
M  V30 3453 C 322.294 -6.79946 -0.645215 0
M  V30 3454 O 321.982 -8.03745 -0.157626 0
M  V30 3455 H 321.714 -0.587112 -0.335075 0
M  V30 3456 H 324.268 -2.01403 -0.403252 0
M  V30 3457 H 322.498 -2.55909 -2.89909 0
M  V30 3458 H 324.187 -2.95992 -2.77747 0
M  V30 3459 H 324.953 -4.73666 -1.04236 0
M  V30 3460 H 320.832 -4.10677 -2.09442 0
M  V30 3461 H 324.376 -6.97389 -0.171654 0
M  V30 3462 H 320.273 -6.33687 -1.22928 0
M  V30 3463 H 321.041 -8.18038 -0.275037 0
M  V30 3464 N 323.704 0.605807 -1.45491 0
M  V30 3465 C 324.654 1.71074 -1.50724 0
M  V30 3466 C 325.638 1.5658 -0.37033 0
M  V30 3467 O 326.83 1.65887 -0.617299 0
M  V30 3468 C 323.959 3.0983 -1.47852 0
M  V30 3469 C 323.045 3.29704 -2.66751 0
M  V30 3470 N 323.436 3.19831 -3.91844 0
M  V30 3471 C 321.734 3.60579 -2.62486 0
M  V30 3472 C 322.435 3.41083 -4.71208 0
M  V30 3473 N 321.411 3.65157 -4.02693 0
M  V30 3474 H 325.213 1.61937 -2.45263 0
M  V30 3475 H 322.727 0.80912 -1.40808 0
M  V30 3476 H 324.724 3.89101 -1.49686 0
M  V30 3477 H 323.384 3.20115 -0.543714 0
M  V30 3478 H 324.395 2.98194 -4.23439 0
M  V30 3479 H 321.072 3.7769 -1.77922 0
M  V30 3480 H 322.462 3.38828 -5.80211 0
M  V30 3481 N 325.182 1.32811 0.848464 0
M  V30 3482 C 326.429 1.23724 1.60308 0
M  V30 3483 C 326.757 -0.1994 1.93475 0
M  V30 3484 O 326.012 -1.15406 1.5805 0
M  V30 3485 C 326.311 2.04831 2.92881 0
M  V30 3486 C 325.977 3.54125 2.79117 0
M  V30 3487 C 324.639 3.94829 2.7507 0
M  V30 3488 C 326.991 4.49036 2.64606 0
M  V30 3489 C 324.319 5.28675 2.544 0
M  V30 3490 C 326.671 5.83033 2.4547 0
M  V30 3491 C 325.335 6.22931 2.39819 0
M  V30 3492 H 324.605 0.452737 0.586609 0
M  V30 3493 H 327.252 1.64301 0.983743 0
M  V30 3494 H 325.557 1.57001 3.58968 0
M  V30 3495 H 327.254 1.95164 3.50303 0
M  V30 3496 H 323.844 3.21801 2.83094 0
M  V30 3497 H 328.028 4.18505 2.66772 0
M  V30 3498 H 323.284 5.58637 2.48465 0
M  V30 3499 H 327.458 6.56186 2.33222 0
M  V30 3500 H 325.085 7.26584 2.23562 0
M  V30 3501 N 326.66 -1.06551 1.16123 0
M  V30 3502 C 327.909 -1.78687 0.935622 0
M  V30 3503 C 328.222 -1.88056 -0.538001 0
M  V30 3504 O 329.428 -2.56794 -0.88143 0
M  V30 3505 C 327.884 -3.21143 1.62466 0
M  V30 3506 C 327.492 -3.19949 3.13587 0
M  V30 3507 C 329.236 -3.9783 1.48092 0
M  V30 3508 C 327.143 -4.57108 3.75241 0
M  V30 3509 H 326.073 -0.669712 0.346412 0
M  V30 3510 H 328.724 -1.19534 1.39226 0
M  V30 3511 H 327.106 -3.80539 1.09572 0
M  V30 3512 H 328.28 -2.70151 3.73303 0
M  V30 3513 H 326.595 -2.5676 3.27816 0
M  V30 3514 H 329.192 -4.99217 1.91538 0
M  V30 3515 H 329.535 -4.14078 0.429507 0
M  V30 3516 H 330.068 -3.4495 1.98127 0
M  V30 3517 H 326.807 -4.46065 4.80319 0
M  V30 3518 H 326.327 -5.07111 3.20309 0
M  V30 3519 H 328.006 -5.26069 3.76644 0
M  V30 3520 N 328.138 -0.959301 -1.25041 0
M  V30 3521 C 329.363 -0.633507 -1.97488 0
M  V30 3522 C 329.788 0.788555 -1.70773 0
M  V30 3523 O 329.146 1.53394 -0.966431 0
M  V30 3524 C 329.194 -0.904057 -3.49083 0
M  V30 3525 O 328.298 0.0147939 -4.12397 0
M  V30 3526 H 327.639 -0.240368 -0.618966 0
M  V30 3527 H 330.169 -1.28717 -1.59038 0
M  V30 3528 H 330.179 -0.832203 -3.99423 0
M  V30 3529 H 328.854 -1.94048 -3.67856 0
M  V30 3530 H 327.431 -0.109664 -3.72739 0
M  V30 3531 N 329.616 1.39756 -0.72842 0
M  V30 3532 C 330.548 2.29157 -0.0446202 0
M  V30 3533 C 331.561 1.46484 0.710367 0
M  V30 3534 O 332.75 1.69632 0.55562 0
M  V30 3535 C 329.85 3.24987 0.961071 0
M  V30 3536 C 329.023 4.36572 0.268967 0
M  V30 3537 C 328.082 5.12756 1.18184 0
M  V30 3538 O 327.108 5.6534 0.661794 0
M  V30 3539 N 328.31 5.23331 2.51206 0
M  V30 3540 H 331.075 2.88482 -0.812295 0
M  V30 3541 H 328.636 1.51265 -0.577098 0
M  V30 3542 H 330.628 3.72827 1.57423 0
M  V30 3543 H 329.198 2.66739 1.63 0
M  V30 3544 H 328.418 3.90694 -0.524574 0
M  V30 3545 H 329.706 5.08363 -0.210934 0
M  V30 3546 H 329.104 4.82116 2.9594 0
M  V30 3547 H 327.661 5.74634 3.07634 0
M  V30 3548 N 331.094 0.475555 1.50254 0
M  V30 3549 C 332.026 -0.352649 2.26471 0
M  V30 3550 C 333.039 -0.953165 1.3198 0
M  V30 3551 O 334.228 -0.840815 1.57457 0
M  V30 3552 C 331.328 -1.50902 3.0345 0
M  V30 3553 C 330.501 -1.02047 4.25329 0
M  V30 3554 C 329.56 -2.05142 4.84565 0
M  V30 3555 O 328.586 -1.63023 5.45355 0
M  V30 3556 N 329.788 -3.37987 4.71959 0
M  V30 3557 H 332.553 0.300767 2.98187 0
M  V30 3558 H 330.114 0.306598 1.5897 0
M  V30 3559 H 332.106 -2.19572 3.39956 0
M  V30 3560 H 330.676 -2.06705 2.34504 0
M  V30 3561 H 329.896 -0.159507 3.93877 0
M  V30 3562 H 331.184 -0.672061 5.04342 0
M  V30 3563 H 330.582 -3.74913 4.23623 0
M  V30 3564 H 329.139 -4.02443 5.12721 0
M  V30 3565 N 332.573 -1.56217 0.208337 0
M  V30 3566 C 333.821 -1.97558 -0.426076 0
M  V30 3567 C 334.142 -1.09683 -1.61229 0
M  V30 3568 O 333.412 -0.170956 -1.95153 0
M  V30 3569 H 331.992 -0.729575 -0.160405 0
M  V30 3570 H 334.654 -1.92606 0.298155 0
M  V30 3571 H 333.75 -3.02672 -0.761312 0
M  V30 3572 N 334.051 0.0651679 -1.57465 0
M  V30 3573 C 335.297 0.764193 -1.87851 0
M  V30 3574 C 335.63 1.76889 -0.801495 0
M  V30 3575 O 334.905 1.93594 0.187528 0
M  V30 3576 C 335.188 1.46625 -3.28897 0
M  V30 3577 C 335.041 0.477515 -4.47258 0
M  V30 3578 C 336.36 2.4095 -3.68281 0
M  V30 3579 H 333.479 0.276351 -0.683227 0
M  V30 3580 H 336.121 0.0272868 -1.8998 0
M  V30 3581 H 334.271 2.09438 -3.27212 0
M  V30 3582 H 335.943 -0.145922 -4.61069 0
M  V30 3583 H 334.186 -0.206576 -4.33308 0
M  V30 3584 H 334.857 1.0065 -5.42746 0
M  V30 3585 H 337.333 1.88209 -3.71102 0
M  V30 3586 H 336.209 2.87072 -4.67847 0
M  V30 3587 H 336.47 3.26049 -2.98571 0
M  V30 3588 N 335.529 1.53961 0.336706 0
M  V30 3589 C 336.479 1.7881 1.41461 0
M  V30 3590 C 337.463 0.643561 1.47469 0
M  V30 3591 O 338.655 0.903166 1.52223 0
M  V30 3592 C 335.784 2.00722 2.78506 0
M  V30 3593 C 334.87 3.2126 2.76862 0
M  V30 3594 N 335.261 4.42588 2.44845 0
M  V30 3595 C 333.559 3.22568 3.08004 0
M  V30 3596 C 334.26 5.2447 2.51607 0
M  V30 3597 N 333.236 4.61344 2.87511 0
M  V30 3598 H 337.038 2.70205 1.15615 0
M  V30 3599 H 334.552 1.52978 0.545112 0
M  V30 3600 H 336.549 2.1666 3.5618 0
M  V30 3601 H 335.209 1.10573 3.05293 0
M  V30 3602 H 336.22 4.69819 2.17922 0
M  V30 3603 H 332.897 2.42409 3.39918 0
M  V30 3604 H 334.287 6.31324 2.29955 0
M  V30 3605 N 337.007 -0.598083 1.45811 0
M  V30 3606 C 337.955 -1.72932 1.55555 0
M  V30 3607 C 338.949 -1.63984 0.424921 0
M  V30 3608 O 340.155 -1.69663 0.601205 0
M  V30 3609 H 336.53 -0.571489 0.488779 0
M  V30 3610 H 338.501 -1.61842 2.50699 0
M  V30 3611 C 337.25 -3.11318 1.54843 0
M  V30 3612 H 336.573 -3.18867 2.41172 0
M  V30 3613 H 338.013 -3.90274 1.65717 0
M  V30 3614 C 336.472 -3.3578 0.274427 0
M  V30 3615 O 337.002 -3.9654 -0.641778 0
M  V30 3616 N 335.208 -2.90119 0.167139 0
M  V30 3617 H 334.755 -2.40855 0.913596 0
M  V30 3618 H 334.713 -3.0686 -0.684435 0
M  V30 3619 N 338.485 -1.33259 -0.841409 0
M  V30 3620 C 339.415 -1.25926 -1.96634 0
M  V30 3621 C 340.396 -0.140349 -1.6952 0
M  V30 3622 O 341.581 -0.329707 -1.91381 0
M  V30 3623 C 338.711 -0.99512 -3.32738 0
M  V30 3624 C 337.665 -2.0767 -3.74242 0
M  V30 3625 C 336.991 -1.66474 -5.08125 0
M  V30 3626 C 338.291 -3.49318 -3.88297 0
M  V30 3627 H 339.985 -2.20046 -2.03027 0
M  V30 3628 H 337.531 -1.05931 -0.975425 0
M  V30 3629 H 339.484 -0.930323 -4.11002 0
M  V30 3630 H 338.208 -0.0183004 -3.26595 0
M  V30 3631 H 336.867 -2.13187 -2.98239 0
M  V30 3632 H 336.515 -0.675012 -4.9845 0
M  V30 3633 H 336.215 -2.3885 -5.36865 0
M  V30 3634 H 337.739 -1.61455 -5.88867 0
M  V30 3635 H 339.153 -3.46316 -4.56879 0
M  V30 3636 H 337.55 -4.20158 -4.28471 0
M  V30 3637 H 338.62 -3.8801 -2.9082 0
M  V30 3638 N 339.963 1.05934 -1.16686 0
M  V30 3639 C 341.188 1.83029 -0.975455 0
M  V30 3640 C 341.613 1.82096 0.471452 0
M  V30 3641 O 340.971 1.22443 1.33706 0
M  V30 3642 C 341.019 3.27372 -1.51195 0
M  V30 3643 O 340.123 4.06054 -0.720701 0
M  V30 3644 H 339.464 0.566194 -0.346872 0
M  V30 3645 H 341.994 1.33541 -1.55009 0
M  V30 3646 H 342.004 3.78186 -1.53099 0
M  V30 3647 H 340.679 3.27366 -2.56523 0
M  V30 3648 H 339.256 3.64812 -0.772458 0
M  V30 3649 N 341.441 0.965919 1.2453 0
M  V30 3650 C 342.389 0.486506 2.27455 0
M  V30 3651 C 343.383 -0.449041 1.6334 0
M  V30 3652 O 344.589 -0.324527 1.7705 0
M  V30 3653 H 340.964 0.138857 0.739069 0
M  V30 3654 H 342.935 1.3666 2.65267 0
M  V30 3655 C 341.684 -0.209481 3.47068 0
M  V30 3656 H 341.007 0.50129 3.96645 0
M  V30 3657 H 342.447 -0.508775 4.20936 0
M  V30 3658 C 340.906 -1.43586 3.0477 0
M  V30 3659 O 341.436 -2.53299 3.11773 0
M  V30 3660 N 339.642 -1.30126 2.59838 0
M  V30 3661 H 339.189 -0.408583 2.54339 0
M  V30 3662 H 339.147 -2.12294 2.31902 0
M  V30 3663 N 342.919 -1.39368 0.735821 0
M  V30 3664 C 344.196 -1.94465 0.210395 0
M  V30 3665 C 344.576 -1.67254 -1.28799 0
M  V30 3666 O 343.924 -1.00123 -2.05396 0
M  V30 3667 C 344.134 -3.4472 0.544897 0
M  V30 3668 C 345.482 -4.21708 0.494689 0
M  V30 3669 O 346.506 -3.52922 0.482136 0
M  V30 3670 O 345.365 -5.44299 0.489947 0
M  V30 3671 H 342.459 -0.826096 0.0386666 0
M  V30 3672 H 345.005 -1.48863 0.814735 0
M  V30 3673 H 343.777 -3.57963 1.58045 0
M  V30 3674 H 343.4 -3.97502 -0.08837 0
M  V30 3675 N 344.397 -0.483516 -1.5 0
M  V30 3676 C 345.307 0.309172 -2.32554 0
M  V30 3677 C 346.323 0.984159 -1.43493 0
M  V30 3678 O 347.499 0.969399 -1.76535 0
M  V30 3679 C 344.564 1.36979 -3.18493 0
M  V30 3680 C 343.625 0.710095 -4.23387 0
M  V30 3681 C 342.858 1.72018 -5.05218 0
M  V30 3682 O 343.081 2.94813 -4.88305 0
M  V30 3683 O 342.015 1.28515 -5.8802 0
M  V30 3684 H 345.841 -0.366064 -3.01486 0
M  V30 3685 H 343.426 -0.24514 -1.47375 0
M  V30 3686 H 345.308 1.98385 -3.71781 0
M  V30 3687 H 343.983 2.02828 -2.52275 0
M  V30 3688 H 342.89 0.0567539 -3.74057 0
M  V30 3689 H 344.223 0.0943557 -4.9211 0
M  V30 3690 N 345.875 1.56104 -0.216619 0
M  V30 3691 C 346.838 2.18819 0.681962 0
M  V30 3692 C 347.838 1.14866 1.12528 0
M  V30 3693 O 349.028 1.40128 1.03488 0
M  V30 3694 C 346.16 2.80756 1.93362 0
M  V30 3695 H 347.353 2.99595 0.135254 0
M  V30 3696 H 344.906 1.56265 0.0330003 0
M  V30 3697 H 345.641 2.03837 2.52232 0
M  V30 3698 H 345.426 3.56876 1.62426 0
M  V30 3699 H 346.916 3.28844 2.57393 0
M  V30 3700 N 347.353 -0.0568162 1.57498 0
M  V30 3701 C 348.581 -0.765626 1.92213 0
M  V30 3702 C 348.996 -1.70353 0.813961 0
M  V30 3703 O 348.353 -1.81268 -0.211701 0
M  V30 3704 C 348.404 -1.5465 3.2675 0
M  V30 3705 O 348.125 -0.646278 4.33307 0
M  V30 3706 C 349.626 -2.35497 3.75574 0
M  V30 3707 H 346.846 -0.216835 0.634999 0
M  V30 3708 H 349.39 -0.0226146 2.04487 0
M  V30 3709 H 347.545 -2.24165 3.15957 0
M  V30 3710 H 347.959 -1.19093 5.108 0
M  V30 3711 H 349.433 -2.85722 4.72299 0
M  V30 3712 H 349.91 -3.15692 3.05344 0
M  V30 3713 H 350.516 -1.7111 3.8936 0
M  V30 3714 N 348.832 -1.54138 -0.328536 0
M  V30 3715 C 349.779 -1.83176 -1.40411 0
M  V30 3716 C 350.749 -0.678494 -1.5161 0
M  V30 3717 O 351.934 -0.92443 -1.6691 0
M  V30 3718 C 349.074 -2.06035 -2.76846 0
M  V30 3719 C 348.187 -3.33727 -2.74318 0
M  V30 3720 C 347.322 -3.46574 -4.02567 0
M  V30 3721 C 346.361 -4.68159 -3.94327 0
M  V30 3722 N 345.498 -4.77959 -5.14296 0
M  V30 3723 H 350.338 -2.74938 -1.14948 0
M  V30 3724 H 347.875 -1.36166 -0.556538 0
M  V30 3725 H 349.833 -2.1728 -3.56153 0
M  V30 3726 H 348.463 -1.1757 -3.00628 0
M  V30 3727 H 347.515 -3.31246 -1.8703 0
M  V30 3728 H 348.827 -4.23139 -2.64111 0
M  V30 3729 H 347.981 -3.57333 -4.90304 0
M  V30 3730 H 346.72 -2.55245 -4.15574 0
M  V30 3731 H 345.725 -4.57461 -3.04974 0
M  V30 3732 H 346.95 -5.60868 -3.82889 0
M  V30 3733 H 344.896 -3.89544 -5.27818 0
M  V30 3734 H 344.813 -5.6133 -5.06404 0
M  V30 3735 H 346.081 -4.93044 -6.03761 0
M  V30 3736 N 350.31 0.590341 -1.46126 0
M  V30 3737 C 351.559 1.34499 -1.50309 0
M  V30 3738 C 351.872 1.94977 -0.156021 0
M  V30 3739 O 353.078 2.71395 -0.0756037 0
M  V30 3740 C 351.534 2.43723 -2.64815 0
M  V30 3741 C 351.142 1.89582 -4.0591 0
M  V30 3742 C 352.886 3.20579 -2.78262 0
M  V30 3743 C 350.793 2.9639 -5.11769 0
M  V30 3744 H 349.723 0.505593 -0.559368 0
M  V30 3745 H 352.374 0.630848 -1.72315 0
M  V30 3746 H 350.756 3.17902 -2.36124 0
M  V30 3747 H 351.93 1.21997 -4.44357 0
M  V30 3748 H 350.245 1.25418 -3.97063 0
M  V30 3749 H 352.842 4.00276 -3.54519 0
M  V30 3750 H 353.185 3.72684 -1.85505 0
M  V30 3751 H 353.718 2.53505 -3.06562 0
M  V30 3752 H 350.457 2.49181 -6.06291 0
M  V30 3753 H 349.977 3.62487 -4.77873 0
M  V30 3754 H 351.656 3.60474 -5.37278 0
M  V30 3755 N 351.788 1.33704 0.83433 0
M  V30 3756 C 352.751 1.24244 1.92603 0
M  V30 3757 C 353.751 0.160383 1.59998 0
M  V30 3758 O 354.941 0.412228 1.69252 0
M  V30 3759 C 352.073 0.91555 3.28376 0
M  V30 3760 H 353.266 2.21287 2.02416 0
M  V30 3761 H 350.819 1.17827 1.02696 0
M  V30 3762 H 351.554 -0.0521886 3.24258 0
M  V30 3763 H 351.339 1.69811 3.53422 0
M  V30 3764 H 352.829 0.874231 4.08347 0
M  V30 3765 N 353.266 -1.05314 1.17247 0
M  V30 3766 C 354.514 -1.77941 0.958194 0
M  V30 3767 C 354.835 -1.88089 -0.514556 0
M  V30 3768 O 354.105 -1.39676 -1.37359 0
M  V30 3769 H 352.685 -0.659116 0.351533 0
M  V30 3770 H 355.347 -1.27166 1.47699 0
M  V30 3771 H 354.443 -2.79663 1.38546 0
M  V30 3772 N 354.744 -0.972509 -1.24016 0
M  V30 3773 C 355.654 -0.5143 -2.28893 0
M  V30 3774 C 356.67 0.427078 -1.68677 0
M  V30 3775 O 357.846 0.298939 -1.99169 0
M  V30 3776 C 354.911 0.183598 -3.46214 0
M  V30 3777 C 353.972 -0.798202 -4.21814 0
M  V30 3778 C 353.205 -0.133514 -5.33533 0
M  V30 3779 O 353.428 1.07714 -5.60137 0
M  V30 3780 O 352.362 -0.828103 -5.96176 0
M  V30 3781 H 356.188 -1.38629 -2.70214 0
M  V30 3782 H 353.773 -0.739769 -1.29799 0
M  V30 3783 H 355.655 0.575433 -4.17453 0
M  V30 3784 H 354.33 1.03048 -3.0686 0
M  V30 3785 H 353.237 -1.24059 -3.52931 0
M  V30 3786 H 354.57 -1.61364 -4.64997 0
M  V30 3787 N 356.222 1.38976 -0.743202 0
M  V30 3788 C 357.17 2.32394 -0.0978389 0
M  V30 3789 C 358.164 1.53486 0.716824 0
M  V30 3790 O 359.37 1.69092 0.617088 0
M  V30 3791 H 355.745 0.75189 -0.0128402 0
M  V30 3792 H 357.716 2.84441 -0.901981 0
M  V30 3793 C 356.465 3.38629 0.789036 0
M  V30 3794 H 355.788 3.99432 0.171559 0
M  V30 3795 H 357.228 4.06426 1.20807 0
M  V30 3796 C 355.687 2.76347 1.92702 0
M  V30 3797 O 356.217 2.64836 3.02034 0
M  V30 3798 N 354.423 2.34311 1.71891 0
M  V30 3799 H 353.97 2.43873 0.829675 0
M  V30 3800 H 353.928 1.9298 2.48205 0
M  V30 3801 N 357.7 0.491464 1.49741 0
M  V30 3802 C 358.663 -0.280906 2.27472 0
M  V30 3803 C 359.663 -0.902454 1.33088 0
M  V30 3804 O 360.853 -0.768465 1.56334 0
M  V30 3805 C 357.985 -1.40209 3.10732 0
M  V30 3806 H 359.178 0.401056 2.97206 0
M  V30 3807 H 356.731 0.246131 1.5435 0
M  V30 3808 H 357.466 -2.11849 2.45541 0
M  V30 3809 H 357.251 -0.961969 3.80117 0
M  V30 3810 H 358.741 -1.9464 3.69466 0
M  V30 3811 N 359.178 -1.55987 0.224894 0
M  V30 3812 C 360.455 -1.90232 -0.455083 0
M  V30 3813 C 360.835 -1.14269 -1.77499 0
M  V30 3814 O 360.183 -0.253079 -2.27094 0
M  V30 3815 C 360.393 -3.42993 -0.644758 0
M  V30 3816 C 361.741 -4.13821 -0.950669 0
M  V30 3817 O 362.765 -3.4861 -0.731423 0
M  V30 3818 O 361.624 -5.29128 -1.36695 0
M  V30 3819 H 358.718 -0.79108 -0.241084 0
M  V30 3820 H 361.264 -1.67581 0.267327 0
M  V30 3821 H 360.036 -3.90252 0.28613 0
M  V30 3822 H 359.659 -3.71434 -1.41853 0
M  V30 3823 N 360.656 0.0484629 -1.57525 0
M  V30 3824 C 361.903 0.743125 -1.88372 0
M  V30 3825 C 362.231 1.76383 -0.819715 0
M  V30 3826 O 361.486 1.94855 0.181659 0
M  V30 3827 C 361.785 1.46632 -3.25935 0
M  V30 3828 C 361.451 0.583427 -4.4711 0
M  V30 3829 C 360.113 0.340191 -4.79996 0
M  V30 3830 C 362.465 -0.0273345 -5.21193 0
M  V30 3831 C 359.793 -0.522903 -5.84365 0
M  V30 3832 C 362.145 -0.878017 -6.26477 0
M  V30 3833 C 360.809 -1.1309 -6.5785 0
M  V30 3834 H 360.079 0.271929 -0.689301 0
M  V30 3835 H 362.726 0.00336166 -1.915 0
M  V30 3836 H 361.031 2.2789 -3.18706 0
M  V30 3837 H 362.728 2.00902 -3.47044 0
M  V30 3838 H 359.318 0.783151 -4.21384 0
M  V30 3839 H 363.502 0.147654 -4.9608 0
M  V30 3840 H 358.758 -0.727335 -6.07058 0
M  V30 3841 H 362.932 -1.35789 -6.83033 0
M  V30 3842 H 360.559 -1.80144 -7.38547 0
M  V30 3843 N 362.134 1.5431 0.320358 0
M  V30 3844 C 363.084 1.803 1.39556 0
M  V30 3845 C 364.068 0.659166 1.46778 0
M  V30 3846 O 365.26 0.91926 1.51257 0
M  V30 3847 C 362.389 2.03665 2.76361 0
M  V30 3848 C 361.475 3.24178 2.73439 0
M  V30 3849 N 361.866 4.4516 2.40137 0
M  V30 3850 C 360.164 3.25816 3.04565 0
M  V30 3851 C 360.865 5.27109 2.4603 0
M  V30 3852 N 359.841 4.64368 2.82601 0
M  V30 3853 H 363.643 2.71416 1.12742 0
M  V30 3854 H 361.157 1.53548 0.528856 0
M  V30 3855 H 363.154 2.20425 3.53862 0
M  V30 3856 H 361.814 1.13805 3.04103 0
M  V30 3857 H 362.825 4.72104 2.12927 0
M  V30 3858 H 359.502 2.46001 3.37328 0
M  V30 3859 H 360.892 6.33728 2.23246 0
M  V30 3860 N 363.613 -0.582584 1.46437 0
M  V30 3861 C 365.029 -0.905962 1.31394 0
M  V30 3862 C 365.229 -1.99468 0.285476 0
M  V30 3863 O 364.285 -2.50566 -0.311914 0
M  V30 3864 C 365.598 -1.3232 2.70022 0
M  V30 3865 C 367.146 -1.43604 2.78113 0
M  V30 3866 C 367.621 -1.88694 4.17323 0
M  V30 3867 N 369.112 -1.95887 4.19741 0
M  V30 3868 C 369.847 -2.32051 5.24347 0
M  V30 3869 N 369.343 -2.67006 6.39281 0
M  V30 3870 N 371.136 -2.32606 5.11713 0
M  V30 3871 H 363.287 0.1366 2.1196 0
M  V30 3872 H 365.55 -0.00155736 0.947999 0
M  V30 3873 H 365.256 -0.597242 3.46592 0
M  V30 3874 H 365.13 -2.28469 3.00136 0
M  V30 3875 H 367.517 -2.15286 2.01832 0
M  V30 3876 H 367.598 -0.457059 2.51684 0
M  V30 3877 H 367.242 -1.1759 4.941 0
M  V30 3878 H 367.172 -2.8755 4.4116 0
M  V30 3879 H 369.663 -1.71362 3.36814 0
M  V30 3880 H 369.976 -2.93554 7.14875 0
M  V30 3881 H 368.321 -2.64644 6.42642 0
M  V30 3882 H 371.512 -2.04721 4.2096 0
M  V30 3883 H 371.685 -2.60462 5.93349 0
M  V30 3884 N 365.091 -1.34144 -0.827227 0
M  V30 3885 C 366.023 -1.21206 -1.9453 0
M  V30 3886 C 367.036 -0.140176 -1.62195 0
M  V30 3887 O 368.225 -0.391647 -1.7415 0
M  V30 3888 C 365.325 -0.839141 -3.28347 0
M  V30 3889 C 364.498 -2.0051 -3.88734 0
M  V30 3890 C 363.557 -1.61128 -5.00923 0
M  V30 3891 O 362.583 -2.32726 -5.19449 0
M  V30 3892 N 363.785 -0.522958 -5.7814 0
M  V30 3893 H 366.55 -2.17525 -2.06162 0
M  V30 3894 H 364.111 -1.27043 -1.00358 0
M  V30 3895 H 366.103 -0.557556 -4.00841 0
M  V30 3896 H 364.673 0.0337293 -3.12582 0
M  V30 3897 H 363.893 -2.45166 -3.08686 0
M  V30 3898 H 365.181 -2.78498 -4.25812 0
M  V30 3899 H 364.579 0.0723518 -5.65654 0
M  V30 3900 H 363.136 -0.301089 -6.51104 0
M  V30 3901 N 366.569 1.04691 -1.17803 0
M  V30 3902 C 367.846 1.7472 -0.879328 0
M  V30 3903 C 368.226 2.01812 0.619271 0
M  V30 3904 O 367.574 1.65824 1.57209 0
M  V30 3905 C 367.784 3.03686 -1.71976 0
M  V30 3906 C 369.132 3.77542 -1.94286 0
M  V30 3907 O 370.156 3.13569 -1.68976 0
M  V30 3908 O 369.015 4.92506 -2.36855 0
M  V30 3909 H 366.109 0.760011 -0.326056 0
M  V30 3910 H 368.655 1.10813 -1.28525 0
M  V30 3911 H 367.427 2.79754 -2.73594 0
M  V30 3912 H 367.05 3.75332 -1.31194 0
M  V30 3913 N 368.047 0.979072 1.23499 0
M  V30 3914 C 368.977 0.537606 2.27227 0
M  V30 3915 C 369.958 -0.428539 1.64613 0
M  V30 3916 O 371.143 -0.322191 1.91509 0
M  V30 3917 C 368.273 -0.162052 3.46922 0
M  V30 3918 C 367.227 0.721242 4.21879 0
M  V30 3919 C 366.553 -0.110555 5.34586 0
M  V30 3920 C 367.853 2.01141 4.82016 0
M  V30 3921 H 369.547 1.40462 2.64406 0
M  V30 3922 H 367.093 0.67684 1.27102 0
M  V30 3923 H 369.046 -0.482192 4.18632 0
M  V30 3924 H 367.77 -1.06351 3.08799 0
M  V30 3925 H 366.429 1.02482 3.51984 0
M  V30 3926 H 366.077 -1.0125 4.92704 0
M  V30 3927 H 365.777 0.477325 5.85658 0
M  V30 3928 H 367.301 -0.425107 6.09118 0
M  V30 3929 H 368.715 1.75612 5.45741 0
M  V30 3930 H 367.112 2.54695 5.43369 0
M  V30 3931 H 368.182 2.69909 4.02836 0
M  V30 3932 N 369.525 -1.3858 0.750561 0
M  V30 3933 C 370.772 -2.00184 0.305373 0
M  V30 3934 C 371.1 -1.59575 -1.11203 0
M  V30 3935 O 370.355 -0.823236 -1.77542 0
M  V30 3936 C 370.654 -3.55455 0.372373 0
M  V30 3937 C 370.32 -4.15765 1.745 0
M  V30 3938 C 368.982 -4.31951 2.12065 0
M  V30 3939 C 371.334 -4.49067 2.64553 0
M  V30 3940 C 368.662 -4.78734 3.39162 0
M  V30 3941 C 371.014 -4.97265 3.91038 0
M  V30 3942 C 369.678 -5.11658 4.28676 0
M  V30 3943 H 368.948 -0.732526 0.111744 0
M  V30 3944 H 371.595 -1.65673 0.960451 0
M  V30 3945 H 369.9 -3.90084 -0.366272 0
M  V30 3946 H 371.597 -4.00999 0.00953918 0
M  V30 3947 H 368.187 -4.03579 1.44297 0
M  V30 3948 H 372.371 -4.36166 2.36796 0
M  V30 3949 H 367.627 -4.88062 3.68246 0
M  V30 3950 H 371.801 -5.22003 4.60962 0
M  V30 3951 H 369.428 -5.47668 5.27222 0
M  V30 3952 N 371.003 -0.499398 -1.49478 0
M  V30 3953 C 371.913 0.284489 -2.32869 0
M  V30 3954 C 372.929 0.968885 -1.44529 0
M  V30 3955 O 374.105 0.95062 -1.77553 0
M  V30 3956 C 371.17 1.33594 -3.19928 0
M  V30 3957 C 370.231 0.665149 -4.24116 0
M  V30 3958 C 369.464 1.6665 -5.07014 0
M  V30 3959 O 369.687 2.89618 -4.91404 0
M  V30 3960 O 368.621 1.22271 -5.8935 0
M  V30 3961 H 372.447 -0.39802 -3.01081 0
M  V30 3962 H 370.032 -0.260758 -1.47107 0
M  V30 3963 H 371.914 1.94431 -3.73864 0
M  V30 3964 H 370.589 2.0014 -2.54412 0
M  V30 3965 H 369.496 0.0170769 -3.74096 0
M  V30 3966 H 370.829 0.0421555 -4.92182 0
M  V30 3967 N 372.481 1.55866 -0.233164 0
M  V30 3968 C 373.706 2.03449 0.402906 0
M  V30 3969 C 374.131 1.11166 1.51736 0
M  V30 3970 O 373.489 0.101996 1.81013 0
M  V30 3971 C 373.537 3.49165 0.9009 0
M  V30 3972 O 372.641 3.60019 2.01147 0
M  V30 3973 H 371.982 0.657913 0.0897025 0
M  V30 3974 H 374.512 2.01493 -0.355201 0
M  V30 3975 H 374.522 3.89716 1.2077 0
M  V30 3976 H 373.197 4.15813 0.0852889 0
M  V30 3977 H 371.774 3.3136 1.71042 0
M  V30 3978 N 373.959 -0.0401083 1.57549 0
M  V30 3979 C 375.208 -0.732108 1.87944 0
M  V30 3980 C 375.521 -1.77107 0.830206 0
M  V30 3981 O 376.727 -2.51488 1.02302 0
M  V30 3982 C 375.183 -1.35315 3.33494 0
M  V30 3983 C 374.791 -0.351105 4.46622 0
M  V30 3984 C 376.535 -2.02566 3.73051 0
M  V30 3985 C 374.442 -0.979859 5.83226 0
M  V30 3986 H 373.372 -0.277188 0.701201 0
M  V30 3987 H 376.023 0.0138501 1.83495 0
M  V30 3988 H 374.405 -2.14844 3.32653 0
M  V30 3989 H 375.579 0.416674 4.58912 0
M  V30 3990 H 373.894 0.218708 4.15825 0
M  V30 3991 H 376.491 -2.50441 4.72423 0
M  V30 3992 H 376.834 -2.83904 3.04474 0
M  V30 3993 H 377.367 -1.29827 3.76018 0
M  V30 3994 H 374.106 -0.206135 6.55176 0
M  V30 3995 H 373.626 -1.71774 5.74677 0
M  V30 3996 H 375.305 -1.49046 6.29599 0
M  V30 3997 N 375.437 -1.54477 -0.31217 0
M  V30 3998 C 376.4 -1.83923 -1.36766 0
M  V30 3999 C 377.4 -0.711563 -1.44199 0
M  V30 4000 O 378.59 -0.979866 -1.44029 0
M  V30 4001 C 375.722 -2.0095 -2.75376 0
M  V30 4002 H 376.915 -2.78239 -1.11906 0
M  V30 4003 H 374.468 -1.46369 -0.548257 0
M  V30 4004 H 375.203 -1.08883 -3.05475 0
M  V30 4005 H 374.988 -2.83018 -2.71373 0
M  V30 4006 H 376.478 -2.2514 -3.51713 0
M  V30 4007 N 376.915 0.57481 -1.46744 0
M  V30 4008 C 377.862 1.68329 -1.57905 0
M  V30 4009 C 378.832 1.60625 -0.422927 0
M  V30 4010 O 380.017 1.79721 -0.640711 0
M  V30 4011 C 377.157 3.06665 -1.58274 0
M  V30 4012 C 376.27 3.24935 -2.84678 0
M  V30 4013 C 375.405 4.53566 -2.76499 0
M  V30 4014 C 374.444 4.65207 -3.97806 0
M  V30 4015 N 373.581 5.85172 -3.87967 0
M  V30 4016 H 378.421 1.58127 -2.52587 0
M  V30 4017 H 375.958 0.770552 -1.25303 0
M  V30 4018 H 377.916 3.86745 -1.56473 0
M  V30 4019 H 376.546 3.15745 -0.671194 0
M  V30 4020 H 375.598 2.38405 -2.96424 0
M  V30 4021 H 376.91 3.29403 -3.7456 0
M  V30 4022 H 376.064 5.41885 -2.72848 0
M  V30 4023 H 374.803 4.51548 -1.8427 0
M  V30 4024 H 373.808 3.75304 -4.0178 0
M  V30 4025 H 375.033 4.68997 -4.9114 0
M  V30 4026 H 372.979 5.84137 -2.98529 0
M  V30 4027 H 372.896 5.90943 -4.71511 0
M  V30 4028 H 374.164 6.759 -3.88303 0
M  V30 4029 N 378.394 1.34581 0.820102 0
M  V30 4030 C 379.642 1.26845 1.57336 0
M  V30 4031 C 379.963 -0.160667 1.94337 0
M  V30 4032 O 379.233 -1.09396 1.6251 0
M  V30 4033 H 377.813 0.466514 0.583415 0
M  V30 4034 H 380.475 1.68526 0.979027 0
M  V30 4035 H 379.571 1.87513 2.4949 0
M  V30 4036 N 379.872 -1.04064 1.18357 0
M  V30 4037 C 381.149 -1.74252 0.888581 0
M  V30 4038 C 381.529 -2.02138 -0.60856 0
M  V30 4039 O 380.877 -1.66656 -1.56327 0
M  V30 4040 C 381.087 -3.0277 1.73584 0
M  V30 4041 C 382.435 -3.76506 1.96286 0
M  V30 4042 O 383.459 -3.12668 1.70637 0
M  V30 4043 O 382.318 -4.91243 2.39464 0
M  V30 4044 H 379.412 -0.758271 0.330082 0
M  V30 4045 H 381.958 -1.1013 1.2911 0
M  V30 4046 H 380.73 -2.78299 2.75073 0
M  V30 4047 H 380.353 -3.74631 1.33183 0
M  V30 4048 N 381.35 -0.985608 -1.22978 0
M  V30 4049 C 382.3 -0.50118 -2.22423 0
M  V30 4050 C 383.284 0.426649 -1.5514 0
M  V30 4051 O 384.476 0.254656 -1.75159 0
M  V30 4052 C 381.605 0.190003 -3.42774 0
M  V30 4053 C 380.691 -0.757703 -4.17276 0
M  V30 4054 N 381.082 -1.90251 -4.68656 0
M  V30 4055 C 379.38 -0.57209 -4.42316 0
M  V30 4056 C 380.081 -2.49676 -5.25392 0
M  V30 4057 N 379.057 -1.78013 -5.13627 0
M  V30 4058 H 382.859 -1.37441 -2.59783 0
M  V30 4059 H 380.373 -0.846941 -1.38567 0
M  V30 4060 H 382.37 0.55439 -4.13197 0
M  V30 4061 H 381.03 1.05946 -3.06929 0
M  V30 4062 H 382.041 -2.28354 -4.64839 0
M  V30 4063 H 378.718 0.251909 -4.16739 0
M  V30 4064 H 380.108 -3.46384 -5.75732 0
M  V30 4065 N 382.828 1.3818 -0.7579 0
M  V30 4066 C 384.239 1.82726 -0.383134 0
M  V30 4067 C 384.59 1.63214 1.08884 0
M  V30 4068 O 383.715 1.13566 1.84205 0
M  V30 4069 C 384.31 3.31728 -0.688631 0
M  V30 4070 C 382.869 3.74606 -0.367091 0
M  V30 4071 C 382.016 2.60896 -0.939599 0
M  V30 4072 H 384.967 1.26847 -0.953699 0
M  V30 4073 H 384.988 3.80487 0.0316492 0
M  V30 4074 H 384.5 3.45898 -1.76001 0
M  V30 4075 H 382.601 3.66013 0.697532 0
M  V30 4076 H 382.714 4.71215 -0.865658 0
M  V30 4077 H 381.078 2.52075 -0.3647 0
M  V30 4078 H 381.861 2.77864 -2.0161 0
M  V30 4079 N 384.306 0.507319 1.49211 0
M  V30 4080 C 385.253 -0.267728 2.29242 0
M  V30 4081 C 386.223 -0.954609 1.35928 0
M  V30 4082 O 387.408 -0.960046 1.64887 0
M  V30 4083 C 384.548 -1.32243 3.18756 0
M  V30 4084 C 383.661 -0.64669 4.27132 0
M  V30 4085 C 382.796 -1.68238 5.03855 0
M  V30 4086 C 381.835 -0.98885 6.0406 0
M  V30 4087 N 380.972 -1.96903 6.73924 0
M  V30 4088 H 385.812 0.420968 2.95012 0
M  V30 4089 H 383.349 0.219443 1.45454 0
M  V30 4090 H 385.307 -1.94599 3.69036 0
M  V30 4091 H 383.937 -1.97981 2.54958 0
M  V30 4092 H 382.989 0.0902926 3.80293 0
M  V30 4093 H 384.301 -0.101058 4.98698 0
M  V30 4094 H 383.455 -2.38081 5.58034 0
M  V30 4095 H 382.194 -2.26187 4.32077 0
M  V30 4096 H 381.199 -0.276222 5.49106 0
M  V30 4097 H 382.424 -0.415767 6.77826 0
M  V30 4098 H 380.37 -2.53803 6.04913 0
M  V30 4099 H 380.287 -1.47423 7.41487 0
M  V30 4100 H 381.555 -2.66015 7.32705 0
M  V30 4101 N 385.784 -1.5574 0.241426 0
M  V30 4102 C 387.03 -1.99846 -0.378555 0
M  V30 4103 C 387.385 -1.12665 -1.55963 0
M  V30 4104 O 386.678 -0.180966 -1.90743 0
M  V30 4105 C 386.872 -3.47308 -0.843317 0
M  V30 4106 C 386.701 -4.48756 0.291178 0
M  V30 4107 C 385.471 -4.9949 0.764077 0
M  V30 4108 C 387.669 -5.02039 1.11631 0
M  V30 4109 N 385.651 -5.84676 1.87156 0
M  V30 4110 C 387.022 -5.84343 2.07226 0
M  V30 4111 C 389.077 -4.84354 1.15349 0
M  V30 4112 C 387.78 -6.50851 3.06245 0
M  V30 4113 C 389.806 -5.51636 2.13195 0
M  V30 4114 C 389.168 -6.33724 3.07528 0
M  V30 4115 H 385.267 -0.774968 -0.104634 0
M  V30 4116 H 387.851 -1.91385 0.357751 0
M  V30 4117 H 386.022 -3.56178 -1.54893 0
M  V30 4118 H 387.754 -3.78299 -1.43779 0
M  V30 4119 H 384.509 -4.72311 0.349175 0
M  V30 4120 H 384.933 -6.31967 2.42789 0
M  V30 4121 H 389.575 -4.20525 0.438057 0
M  V30 4122 H 387.293 -7.1385 3.78739 0
M  V30 4123 H 390.879 -5.39909 2.16771 0
M  V30 4124 H 389.759 -6.84867 3.82003 0
M  V30 4125 N 387.262 0.0317525 -1.57568 0
M  V30 4126 C 388.539 0.758366 -1.803 0
M  V30 4127 C 388.919 1.93718 -0.838845 0
M  V30 4128 O 388.267 2.28187 0.119571 0
M  V30 4129 C 388.477 1.19392 -3.27943 0
M  V30 4130 C 389.825 1.61094 -3.92854 0
M  V30 4131 O 390.849 1.28857 -3.32076 0
M  V30 4132 O 389.708 2.20918 -4.99858 0
M  V30 4133 H 386.802 0.366514 -0.741348 0
M  V30 4134 H 389.348 0.00873765 -1.69698 0
M  V30 4135 H 388.12 0.352275 -3.89711 0
M  V30 4136 H 387.743 2.00365 -3.43424 0
M  V30 4137 N 388.74 1.54641 0.303973 0
M  V30 4138 C 389.67 1.88386 1.3796 0
M  V30 4139 C 390.651 0.742485 1.5304 0
M  V30 4140 O 391.836 0.997959 1.66597 0
M  V30 4141 C 388.966 2.12854 2.74427 0
M  V30 4142 C 387.92 3.28702 2.74115 0
M  V30 4143 C 387.246 3.38582 4.13844 0
M  V30 4144 C 388.546 4.65881 2.3612 0
M  V30 4145 H 390.24 2.78474 1.09966 0
M  V30 4146 H 387.786 1.33988 0.527556 0
M  V30 4147 H 389.739 2.35047 3.49758 0
M  V30 4148 H 388.463 1.19535 3.03939 0
M  V30 4149 H 387.122 3.06428 2.0124 0
M  V30 4150 H 386.77 2.42784 4.40528 0
M  V30 4151 H 386.47 4.16453 4.14537 0
M  V30 4152 H 387.994 3.63031 4.90959 0
M  V30 4153 H 389.408 4.87823 3.01167 0
M  V30 4154 H 387.805 5.46444 2.48031 0
M  V30 4155 H 388.875 4.66799 1.3125 0
M  V30 4156 N 390.218 -0.567019 1.47046 0
M  V30 4157 C 391.448 -1.34831 1.56538 0
M  V30 4158 C 391.856 -1.8802 0.21101 0
M  V30 4159 O 391.199 -1.65152 -0.804387 0
M  V30 4160 C 391.261 -2.56139 2.52256 0
M  V30 4161 C 390.925 -2.24307 3.98165 0
M  V30 4162 C 391.922 -1.82192 4.86931 0
M  V30 4163 C 389.607 -2.35968 4.43423 0
M  V30 4164 C 391.601 -1.52153 6.18973 0
M  V30 4165 C 389.288 -2.05542 5.75496 0
M  V30 4166 C 390.286 -1.63701 6.63092 0
M  V30 4167 O 389.974 -1.33657 7.92711 0
M  V30 4168 H 389.706 -0.417683 0.531523 0
M  V30 4169 H 392.26 -0.694726 1.93294 0
M  V30 4170 H 390.49 -3.24356 2.10548 0
M  V30 4171 H 392.179 -3.18214 2.51982 0
M  V30 4172 H 392.945 -1.72684 4.53217 0
M  V30 4173 H 388.824 -2.67495 3.75456 0
M  V30 4174 H 392.368 -1.19421 6.87302 0
M  V30 4175 H 388.265 -2.14679 6.08755 0
M  V30 4176 H 389.033 -1.4737 8.05124 0
M  V30 4177 N 391.696 -1.35014 -0.812953 0
M  V30 4178 C 392.945 -1.27269 -1.56479 0
M  V30 4179 C 393.258 0.152771 -1.95002 0
M  V30 4180 O 394.464 0.352451 -2.69203 0
M  V30 4181 C 392.92 -2.23159 -2.82362 0
M  V30 4182 C 392.528 -3.71016 -2.511 0
M  V30 4183 C 394.272 -2.24342 -3.60376 0
M  V30 4184 C 392.179 -4.58746 -3.73237 0
M  V30 4185 H 391.109 -0.472829 -0.587324 0
M  V30 4186 H 393.76 -1.6024 -0.894171 0
M  V30 4187 H 392.142 -1.83151 -3.51101 0
M  V30 4188 H 393.316 -4.1962 -1.90409 0
M  V30 4189 H 391.631 -3.72378 -1.86343 0
M  V30 4190 H 394.228 -2.87107 -4.51081 0
M  V30 4191 H 394.571 -1.24542 -3.97234 0
M  V30 4192 H 395.104 -2.62846 -2.98591 0
M  V30 4193 H 391.843 -5.59521 -3.41492 0
M  V30 4194 H 391.363 -4.14871 -4.33176 0
M  V30 4195 H 393.042 -4.73852 -4.40537 0
M  V30 4196 N 393.175 1.03435 -1.18907 0
M  V30 4197 C 394.107 2.1165 -0.879595 0
M  V30 4198 C 395.12 1.62316 0.125439 0
M  V30 4199 O 396.309 1.78201 -0.103245 0
M  V30 4200 C 393.409 3.37622 -0.294042 0
M  V30 4201 C 392.582 4.16166 -1.34629 0
M  V30 4202 C 391.641 5.20457 -0.775274 0
M  V30 4203 O 390.667 5.50379 -1.4516 0
M  V30 4204 N 391.869 5.78949 0.424126 0
M  V30 4205 H 394.634 2.38791 -1.81105 0
M  V30 4206 H 392.195 1.19681 -1.09032 0
M  V30 4207 H 394.187 4.04572 0.101679 0
M  V30 4208 H 392.757 3.07873 0.541575 0
M  V30 4209 H 391.977 3.44444 -1.91707 0
M  V30 4210 H 393.265 4.65432 -2.05549 0
M  V30 4211 H 392.663 5.56948 0.991209 0
M  V30 4212 H 391.22 6.47334 0.761691 0
M  V30 4213 N 394.653 0.992116 1.22453 0
M  V30 4214 C 395.616 0.546883 2.2258 0
M  V30 4215 C 396.616 -0.369829 1.56489 0
M  V30 4216 O 397.806 -0.161896 1.73446 0
M  V30 4217 C 394.938 -0.204659 3.40285 0
M  V30 4218 H 396.131 1.43234 2.63484 0
M  V30 4219 H 393.684 0.779239 1.3549 0
M  V30 4220 H 394.419 -1.10614 3.04853 0
M  V30 4221 H 394.204 0.45354 3.89468 0
M  V30 4222 H 395.694 -0.504358 4.14543 0
M  V30 4223 N 396.131 -1.37776 0.765217 0
M  V30 4224 C 397.38 -1.99092 0.323307 0
M  V30 4225 C 397.693 -1.61434 -1.10446 0
M  V30 4226 O 398.899 -2.15805 -1.64743 0
M  V30 4227 C 397.355 -3.56019 0.527098 0
M  V30 4228 C 396.963 -4.0262 1.96471 0
M  V30 4229 C 398.707 -4.2424 0.148483 0
M  V30 4230 C 396.614 -5.52233 2.11644 0
M  V30 4231 H 395.544 -0.744846 0.117137 0
M  V30 4232 H 398.195 -1.57391 0.943417 0
M  V30 4233 H 396.577 -3.95667 -0.162372 0
M  V30 4234 H 397.751 -3.74234 2.68859 0
M  V30 4235 H 396.066 -3.47161 2.29931 0
M  V30 4236 H 398.663 -5.34159 0.240456 0
M  V30 4237 H 399.006 -4.06446 -0.900422 0
M  V30 4238 H 399.539 -3.89872 0.79025 0
M  V30 4239 H 396.278 -5.74945 3.1483 0
M  V30 4240 H 395.798 -5.82324 1.4373 0
M  V30 4241 H 397.477 -6.18106 1.91193 0
M  V30 4242 N 397.609 -0.515225 -1.4894 0
M  V30 4243 C 399.02 -0.0710067 -1.86565 0
M  V30 4244 C 399.371 1.34733 -1.42623 0
M  V30 4245 O 398.496 2.00653 -0.810379 0
M  V30 4246 C 399.091 -0.122083 -3.3858 0
M  V30 4247 C 397.65 0.266863 -3.75453 0
M  V30 4248 C 396.797 -0.488376 -2.72966 0
M  V30 4249 H 399.748 -0.727266 -1.41055 0
M  V30 4250 H 399.769 0.669818 -3.74558 0
M  V30 4251 H 399.281 -1.15448 -3.70531 0
M  V30 4252 H 397.382 1.30196 -3.49113 0
M  V30 4253 H 397.495 -0.0624811 -4.79059 0
M  V30 4254 H 395.859 0.0635622 -2.54621 0
M  V30 4255 H 396.642 -1.52113 -3.07761 0
M  V30 4256 N 399.087 1.5561 -0.249682 0
M  V30 4257 C 400.317 2.03116 0.377803 0
M  V30 4258 C 400.725 1.12822 1.51881 0
M  V30 4259 O 400.068 0.13562 1.83199 0
M  V30 4260 C 400.13 3.46866 0.944693 0
M  V30 4261 C 399.794 4.56955 -0.0644259 0
M  V30 4262 C 400.791 5.12485 -0.874957 0
M  V30 4263 C 398.476 5.01936 -0.19132 0
M  V30 4264 C 400.47 6.11491 -1.79881 0
M  V30 4265 C 398.157 6.00773 -1.11868 0
M  V30 4266 C 399.155 6.5543 -1.92095 0
M  V30 4267 O 398.843 7.5234 -2.83267 0
M  V30 4268 H 398.575 0.669489 0.0935961 0
M  V30 4269 H 401.129 2.02004 -0.371966 0
M  V30 4270 H 399.359 3.45136 1.74407 0
M  V30 4271 H 401.048 3.77856 1.48255 0
M  V30 4272 H 401.814 4.78564 -0.787523 0
M  V30 4273 H 397.693 4.59055 0.423072 0
M  V30 4274 H 401.237 6.54078 -2.42543 0
M  V30 4275 H 397.134 6.34114 -1.20703 0
M  V30 4276 H 397.902 7.69966 -2.7766 0
M  V30 4277 N 400.565 -0.0233959 1.57583 0
M  V30 4278 C 401.475 -1.03907 2.10334 0
M  V30 4279 C 402.491 -1.39257 1.04323 0
M  V30 4280 O 403.667 -1.48462 1.36091 0
M  V30 4281 C 400.732 -2.31938 2.57693 0
M  V30 4282 C 399.793 -2.03117 3.78209 0
M  V30 4283 C 399.026 -3.25043 4.233 0
M  V30 4284 O 399.249 -4.35916 3.67876 0
M  V30 4285 O 398.183 -3.10411 5.15683 0
M  V30 4286 H 402.009 -0.620748 2.97288 0
M  V30 4287 H 399.594 -0.240743 1.47448 0
M  V30 4288 H 401.476 -3.07196 2.88458 0
M  V30 4289 H 400.151 -2.73055 1.73847 0
M  V30 4290 H 399.058 -1.25408 3.52454 0
M  V30 4291 H 400.391 -1.66852 4.63056 0
M  V30 4292 N 402.043 -1.548 -0.295768 0
M  V30 4293 C 402.953 -1.89177 -1.38742 0
M  V30 4294 C 403.969 -0.786481 -1.55211 0
M  V30 4295 O 405.145 -1.08344 -1.69775 0
M  V30 4296 C 402.21 -2.13663 -2.73036 0
M  V30 4297 C 401.271 -3.37349 -2.65508 0
M  V30 4298 C 400.504 -3.60658 -3.93398 0
M  V30 4299 O 400.727 -2.86882 -4.93006 0
M  V30 4300 O 399.661 -4.54179 -3.94975 0
M  V30 4301 H 403.487 -2.82059 -1.12589 0
M  V30 4302 H 401.072 -1.41056 -0.492295 0
M  V30 4303 H 402.954 -2.3094 -3.52484 0
M  V30 4304 H 401.629 -1.23967 -2.99022 0
M  V30 4305 H 400.536 -3.25431 -1.84514 0
M  V30 4306 H 401.869 -4.27192 -2.44474 0
M  V30 4307 N 403.521 0.559213 -1.47345 0
M  V30 4308 C 404.769 1.31388 -1.53563 0
M  V30 4309 C 405.09 1.93985 -0.198678 0
M  V30 4310 O 404.36 1.79825 0.777167 0
M  V30 4311 H 402.94 0.487901 -0.565652 0
M  V30 4312 H 405.602 0.65315 -1.8363 0
M  V30 4313 H 404.698 2.10844 -2.30111 0
M  V30 4314 N 404.999 1.35443 0.805782 0
M  V30 4315 C 405.946 1.28431 1.91766 0
M  V30 4316 C 406.916 0.156102 1.65365 0
M  V30 4317 O 408.101 0.339936 1.87747 0
M  V30 4318 C 405.241 1.06301 3.2832 0
M  V30 4319 C 404.354 2.2805 3.66902 0
M  V30 4320 C 403.489 1.99064 4.92491 0
M  V30 4321 C 402.528 3.16863 5.23703 0
M  V30 4322 N 401.665 2.87647 6.40471 0
M  V30 4323 H 406.505 2.23511 1.97096 0
M  V30 4324 H 404.042 1.11105 0.964054 0
M  V30 4325 H 406 0.915012 4.07042 0
M  V30 4326 H 404.63 0.148822 3.22457 0
M  V30 4327 H 403.682 2.53711 2.83434 0
M  V30 4328 H 404.994 3.1601 3.85927 0
M  V30 4329 H 404.148 1.81099 5.7904 0
M  V30 4330 H 402.887 1.0839 4.75503 0
M  V30 4331 H 401.892 3.35404 4.35642 0
M  V30 4332 H 403.117 4.08339 5.4262 0
M  V30 4333 H 401.063 1.99568 6.24907 0
M  V30 4334 H 400.98 3.69141 6.59751 0
M  V30 4335 H 402.248 2.73226 7.30047 0
M  V30 4336 N 406.477 -1.02803 1.19454 0
M  V30 4337 C 407.705 -1.79841 1.02297 0
M  V30 4338 C 408.12 -1.83879 -0.428259 0
M  V30 4339 O 407.477 -1.28345 -1.29745 0
M  V30 4340 C 407.528 -3.24852 1.58598 0
M  V30 4341 O 407.249 -3.21097 2.98041 0
M  V30 4342 C 408.75 -4.18485 1.46236 0
M  V30 4343 H 405.97 -0.565936 0.360496 0
M  V30 4344 H 408.514 -1.2948 1.58288 0
M  V30 4345 H 406.669 -3.72401 1.06753 0
M  V30 4346 H 407.083 -4.12033 3.24545 0
M  V30 4347 H 408.557 -5.18121 1.90407 0
M  V30 4348 H 409.034 -4.37254 0.41301 0
M  V30 4349 H 409.64 -3.76811 1.97215 0
M  V30 4350 N 407.956 -0.998596 -1.21925 0
M  V30 4351 C 409.186 -0.695276 -1.94549 0
M  V30 4352 C 409.594 0.745079 -1.73911 0
M  V30 4353 O 408.937 1.51507 -1.03881 0
M  V30 4354 C 408.999 -0.928485 -3.47303 0
M  V30 4355 C 408.663 -2.35443 -3.91683 0
M  V30 4356 C 409.66 -3.33428 -3.98901 0
M  V30 4357 C 407.345 -2.69038 -4.24174 0
M  V30 4358 C 409.339 -4.63079 -4.37992 0
M  V30 4359 C 407.026 -3.98906 -4.62944 0
M  V30 4360 C 408.024 -4.95738 -4.69822 0
M  V30 4361 O 407.712 -6.23285 -5.07711 0
M  V30 4362 H 407.444 -0.255902 -0.625692 0
M  V30 4363 H 409.998 -1.33767 -1.5587 0
M  V30 4364 H 408.228 -0.228917 -3.86022 0
M  V30 4365 H 409.917 -0.619539 -4.01144 0
M  V30 4366 H 410.683 -3.08807 -3.73983 0
M  V30 4367 H 406.562 -1.94367 -4.18022 0
M  V30 4368 H 410.106 -5.38658 -4.43275 0
M  V30 4369 H 406.003 -4.23314 -4.87314 0
M  V30 4370 H 406.771 -6.27306 -5.25766 0
M  V30 4371 N 409.434 1.37368 -0.772513 0
M  V30 4372 C 410.85 1.53059 -0.452231 0
M  V30 4373 C 411.05 1.73065 1.03203 0
M  V30 4374 O 410.106 1.75245 1.81784 0
M  V30 4375 C 411.419 2.72659 -1.26797 0
M  V30 4376 C 412.967 2.86521 -1.25995 0
M  V30 4377 C 413.442 4.09105 -2.05905 0
M  V30 4378 N 414.933 4.16219 -2.03263 0
M  V30 4379 C 415.668 5.10107 -2.61875 0
M  V30 4380 N 415.164 6.09547 -3.29278 0
M  V30 4381 N 416.957 5.02596 -2.51701 0
M  V30 4382 H 409.108 1.22634 -1.7342 0
M  V30 4383 H 411.371 0.597206 -0.736239 0
M  V30 4384 H 411.077 2.64343 -2.31982 0
M  V30 4385 H 410.951 3.66363 -0.897672 0
M  V30 4386 H 413.338 2.94308 -0.216081 0
M  V30 4387 H 413.419 1.93774 -1.66989 0
M  V30 4388 H 413.063 4.0208 -3.10313 0
M  V30 4389 H 412.993 5.00968 -1.62292 0
M  V30 4390 H 415.484 3.45012 -1.54192 0
M  V30 4391 H 415.797 6.77718 -3.71374 0
M  V30 4392 H 414.142 6.09824 -3.33377 0
M  V30 4393 H 417.333 4.23855 -1.98657 0
M  V30 4394 H 417.506 5.75582 -2.97673 0
M  V30 4395 N 410.912 0.523116 1.48665 0
M  V30 4396 C 412.159 -0.0134763 2.02496 0
M  V30 4397 C 412.487 -1.3493 1.40086 0
M  V30 4398 O 411.742 -1.88286 0.533567 0
M  V30 4399 C 412.041 -0.191671 3.56886 0
M  V30 4400 C 411.707 1.06893 4.38046 0
M  V30 4401 C 410.369 1.41443 4.59943 0
M  V30 4402 C 412.721 1.90584 4.85106 0
M  V30 4403 C 410.049 2.59594 5.26144 0
M  V30 4404 C 412.401 3.07907 5.52609 0
M  V30 4405 C 411.065 3.42811 5.72745 0
M  V30 4406 H 410.335 -0.00493133 0.740984 0
M  V30 4407 H 412.982 0.687751 1.78724 0
M  V30 4408 H 411.287 -0.97561 3.79459 0
M  V30 4409 H 412.984 -0.621659 3.96152 0
M  V30 4410 H 409.574 0.789848 4.21259 0
M  V30 4411 H 413.758 1.65203 4.67997 0
M  V30 4412 H 409.014 2.86847 5.39934 0
M  V30 4413 H 413.188 3.73066 5.88043 0
M  V30 4414 H 410.815 4.34462 6.23816 0
M  V30 4415 N 412.39 -1.55475 0.257931 0
M  V30 4416 C 413.338 -2.23244 -0.653076 0
M  V30 4417 C 414.332 -1.22366 -1.17144 0
M  V30 4418 O 415.538 -1.40347 -1.12706 0
M  V30 4419 H 411.913 -0.716247 -0.229117 0
M  V30 4420 H 413.884 -2.98343 -0.0584788 0
M  V30 4421 C 412.633 -2.95401 -1.83395 0
M  V30 4422 H 411.956 -3.72802 -1.44424 0
M  V30 4423 H 413.396 -3.46165 -2.44838 0
M  V30 4424 C 411.855 -1.99895 -2.71189 0
M  V30 4425 O 412.385 -1.53909 -3.71046 0
M  V30 4426 N 410.591 -1.6676 -2.3799 0
M  V30 4427 H 410.138 -2.04352 -1.56837 0
M  V30 4428 H 410.096 -1.03127 -2.97005 0
M  V30 4429 N 413.868 0.0150385 -1.57593 0
M  V30 4430 C 415.279 0.559832 -1.78109 0
M  V30 4431 C 415.63 1.74814 -0.890756 0
M  V30 4432 O 414.755 2.16216 -0.0892482 0
M  V30 4433 C 415.35 1.02238 -3.23006 0
M  V30 4434 C 413.909 1.51258 -3.44671 0
M  V30 4435 C 413.056 0.456955 -2.73509 0
M  V30 4436 H 416.007 -0.211169 -1.57289 0
M  V30 4437 H 416.028 1.88912 -3.30292 0
M  V30 4438 H 415.54 0.157302 -3.87781 0
M  V30 4439 H 413.641 2.39905 -2.8509 0
M  V30 4440 H 413.754 1.55042 -4.5332 0
M  V30 4441 H 412.118 0.915196 -2.37689 0
M  V30 4442 H 412.901 -0.398896 -3.40975 0
M  V30 4443 N 415.346 1.54954 0.287554 0
M  V30 4444 C 416.593 1.74873 1.02106 0
M  V30 4445 C 416.921 0.541829 1.86801 0
M  V30 4446 O 416.176 -0.475992 1.89823 0
M  V30 4447 C 416.475 2.99833 1.94512 0
M  V30 4448 C 416.141 4.33029 1.25686 0
M  V30 4449 C 414.803 4.69233 1.06649 0
M  V30 4450 C 417.155 5.15542 0.765913 0
M  V30 4451 C 414.483 5.85518 0.372222 0
M  V30 4452 C 416.835 6.32542 0.0853101 0
M  V30 4453 C 415.499 6.67398 -0.1169 0
M  V30 4454 H 414.769 0.639906 0.373632 0
M  V30 4455 H 417.416 1.89219 0.294665 0
M  V30 4456 H 415.721 2.80325 2.73725 0
M  V30 4457 H 417.418 3.1244 2.51361 0
M  V30 4458 H 414.008 4.04564 1.41512 0
M  V30 4459 H 418.192 4.88059 0.90066 0
M  V30 4460 H 413.448 6.11057 0.204695 0
M  V30 4461 H 417.622 6.95741 -0.302936 0
M  V30 4462 H 415.249 7.57357 -0.656859 0
M  V30 4463 N 416.824 -0.551391 1.4764 0
M  V30 4464 C 418.101 -1.31229 1.45046 0
M  V30 4465 C 418.481 -2.10563 0.150527 0
M  V30 4466 O 417.829 -2.11374 -0.867956 0
M  V30 4467 C 418.039 -2.21189 2.69956 0
M  V30 4468 C 419.387 -2.82021 3.1741 0
M  V30 4469 O 420.411 -2.31488 2.70724 0
M  V30 4470 O 419.27 -3.73885 3.98588 0
M  V30 4471 H 416.364 -0.591193 0.578291 0
M  V30 4472 H 418.91 -0.569813 1.59847 0
M  V30 4473 H 417.682 -1.62207 3.56096 0
M  V30 4474 H 417.305 -3.02722 2.57769 0
M  V30 4475 N 418.302 -1.35869 -0.798587 0
M  V30 4476 C 419.232 -1.32118 -1.92528 0
M  V30 4477 C 420.213 -0.194209 -1.68988 0
M  V30 4478 O 421.398 -0.390426 -1.90235 0
M  V30 4479 C 418.528 -1.10047 -3.29404 0
M  V30 4480 C 417.482 -2.19471 -3.67446 0
M  V30 4481 C 416.808 -1.82555 -5.02571 0
M  V30 4482 C 418.108 -3.61495 -3.76987 0
M  V30 4483 H 419.802 -2.26394 -1.95924 0
M  V30 4484 H 417.348 -1.08981 -0.94123 0
M  V30 4485 H 419.301 -1.06061 -4.07835 0
M  V30 4486 H 418.025 -0.122195 -3.26371 0
M  V30 4487 H 416.684 -2.22568 -2.91306 0
M  V30 4488 H 416.332 -0.833249 -4.9605 0
M  V30 4489 H 416.032 -2.5581 -5.28995 0
M  V30 4490 H 417.556 -1.80108 -5.83432 0
M  V30 4491 H 418.97 -3.60676 -4.4563 0
M  V30 4492 H 417.367 -4.33577 -4.14887 0
M  V30 4493 H 418.437 -3.97065 -2.78329 0
M  V30 4494 N 419.78 1.02168 -1.19998 0
M  V30 4495 C 421.008 1.79296 -1.03249 0
M  V30 4496 C 421.423 1.84103 0.418502 0
M  V30 4497 O 420.78 1.29031 1.29063 0
M  V30 4498 C 420.831 3.24007 -1.60319 0
M  V30 4499 O 420.552 3.19512 -2.99739 0
M  V30 4500 C 422.053 4.17704 -1.48453 0
M  V30 4501 H 419.273 0.564016 -0.363493 0
M  V30 4502 H 421.817 1.28639 -1.58973 0
M  V30 4503 H 419.972 3.7183 -1.08727 0
M  V30 4504 H 420.386 4.10306 -3.26725 0
M  V30 4505 H 421.86 5.17104 -1.93153 0
M  V30 4506 H 422.337 4.37029 -0.436193 0
M  V30 4507 H 422.943 3.7576 -1.99211 0
M  V30 4508 N 421.258 1.00505 1.21394 0
M  V30 4509 C 422.205 0.565496 2.23765 0
M  V30 4510 C 423.175 -0.408466 1.60999 0
M  V30 4511 O 424.36 -0.310503 1.88257 0
M  V30 4512 C 421.5 -0.101667 3.4495 0
M  V30 4513 C 420.613 0.915479 4.22188 0
M  V30 4514 C 419.748 0.220574 5.30742 0
M  V30 4515 C 418.787 1.22527 5.99711 0
M  V30 4516 N 417.924 0.557831 6.9988 0
M  V30 4517 H 422.764 1.44314 2.60725 0
M  V30 4518 H 420.301 0.722643 1.28126 0
M  V30 4519 H 422.259 -0.505504 4.14126 0
M  V30 4520 H 420.889 -0.94303 3.08718 0
M  V30 4521 H 419.941 1.43756 3.52191 0
M  V30 4522 H 421.253 1.68005 4.69655 0
M  V30 4523 H 420.407 -0.239368 6.06228 0
M  V30 4524 H 419.146 -0.576401 4.84282 0
M  V30 4525 H 418.151 1.69571 5.22997 0
M  V30 4526 H 419.376 2.02332 6.48258 0
M  V30 4527 H 417.322 -0.219486 6.55633 0
M  V30 4528 H 417.239 1.26065 7.45415 0
M  V30 4529 H 418.507 0.121095 7.79406 0
M  V30 4530 N 422.737 -1.36956 0.779787 0
M  V30 4531 C 423.965 -2.03755 0.359398 0
M  V30 4532 C 424.38 -1.58807 -1.02106 0
M  V30 4533 O 423.737 -0.773024 -1.6532 0
M  V30 4534 C 423.788 -3.59251 0.402568 0
M  V30 4535 O 423.509 -4.02557 1.72858 0
M  V30 4536 C 425.01 -4.43291 -0.0284068 0
M  V30 4537 H 422.23 -0.654148 0.149437 0
M  V30 4538 H 424.774 -1.75128 1.05595 0
M  V30 4539 H 422.929 -3.86621 -0.245478 0
M  V30 4540 H 423.343 -4.97111 1.67275 0
M  V30 4541 H 424.817 -5.51975 0.0529466 0
M  V30 4542 H 425.294 -4.25719 -1.07982 0
M  V30 4543 H 425.9 -4.21163 0.591758 0
M  V30 4544 N 424.215 -0.530993 -1.48385 0
M  V30 4545 C 425.464 0.00474348 -2.01699 0
M  V30 4546 C 425.777 1.35227 -1.41325 0
M  V30 4547 O 426.983 1.97643 -1.86144 0
M  V30 4548 C 425.439 0.0588473 -3.59852 0
M  V30 4549 C 425.047 -1.28385 -4.2921 0
M  V30 4550 C 426.791 0.543358 -4.21008 0
M  V30 4551 C 424.698 -1.19028 -5.79298 0
M  V30 4552 H 423.628 0.00554317 -0.75398 0
M  V30 4553 H 426.279 -0.674924 -1.70637 0
M  V30 4554 H 424.661 0.803612 -3.8776 0
M  V30 4555 H 425.835 -2.04426 -4.12973 0
M  V30 4556 H 424.15 -1.70418 -3.7993 0
M  V30 4557 H 426.747 0.631351 -5.3096 0
M  V30 4558 H 427.09 1.54937 -3.86394 0
M  V30 4559 H 427.623 -0.145754 -3.97533 0
M  V30 4560 H 424.362 -2.17147 -6.18488 0
M  V30 4561 H 423.882 -0.471246 -5.97946 0
M  V30 4562 H 425.561 -0.881365 -6.40969 0
M  V30 4563 N 425.693 1.55336 -0.266172 0
M  V30 4564 C 426.918 2.04258 0.359661 0
M  V30 4565 C 427.343 1.14359 1.49344 0
M  V30 4566 O 426.701 0.140369 1.80756 0
M  V30 4567 C 426.749 3.50997 0.826635 0
M  V30 4568 O 425.853 3.64204 1.93466 0
M  V30 4569 H 425.194 0.659668 0.075727 0
M  V30 4570 H 427.724 2.00694 -0.39786 0
M  V30 4571 H 427.734 3.9219 1.12477 0
M  V30 4572 H 426.409 4.159 -0.00293032 0
M  V30 4573 H 424.986 3.34913 1.63974 0
M  V30 4574 N 427.171 -0.0066808 1.57599 0
M  V30 4575 C 428.103 -1.02827 2.04839 0
M  V30 4576 C 429.116 -1.31108 0.965113 0
M  V30 4577 O 430.305 -1.28202 1.24203 0
M  V30 4578 C 427.405 -2.36464 2.42771 0
M  V30 4579 C 426.578 -2.27219 3.73751 0
M  V30 4580 C 425.637 -3.43489 3.98625 0
M  V30 4581 O 424.663 -3.21976 4.69382 0
M  V30 4582 N 425.865 -4.66116 3.46 0
M  V30 4583 H 428.63 -0.625455 2.93101 0
M  V30 4584 H 426.191 -0.194198 1.60731 0
M  V30 4585 H 428.183 -3.13008 2.56531 0
M  V30 4586 H 426.753 -2.68512 1.60063 0
M  V30 4587 H 425.973 -1.35629 3.70133 0
M  V30 4588 H 427.261 -2.18208 4.59633 0
M  V30 4589 H 426.659 -4.86493 2.88688 0
M  V30 4590 H 425.216 -5.39949 3.65101 0
M  V30 4591 N 428.649 -1.55105 -0.279332 0
M  V30 4592 C 429.596 -1.8755 -1.34513 0
M  V30 4593 C 430.566 -0.726384 -1.49375 0
M  V30 4594 O 431.751 -0.977063 -1.63884 0
M  V30 4595 C 428.891 -2.14738 -2.70151 0
M  V30 4596 C 428.004 -3.42285 -2.63562 0
M  V30 4597 C 427.139 -3.59206 -3.91337 0
M  V30 4598 C 426.178 -4.80467 -3.79233 0
M  V30 4599 N 425.315 -4.94079 -4.98829 0
M  V30 4600 H 430.155 -2.78456 -1.06143 0
M  V30 4601 H 427.692 -1.37867 -0.512936 0
M  V30 4602 H 429.65 -2.28501 -3.49061 0
M  V30 4603 H 428.28 -1.27075 -2.96735 0
M  V30 4604 H 427.332 -3.37029 -1.76397 0
M  V30 4605 H 428.644 -4.31328 -2.50515 0
M  V30 4606 H 427.798 -3.72751 -4.78687 0
M  V30 4607 H 426.537 -2.68337 -4.07243 0
M  V30 4608 H 425.542 -4.66932 -2.90266 0
M  V30 4609 H 426.767 -5.72765 -3.64852 0
M  V30 4610 H 424.713 -4.06139 -5.15158 0
M  V30 4611 H 424.63 -5.77156 -4.8829 0
M  V30 4612 H 425.898 -5.12003 -5.8777 0
M  V30 4613 N 430.127 0.543554 -1.4793 0
M  V30 4614 C 431.404 1.30458 -1.4574 0
M  V30 4615 C 431.784 2.1048 -0.161692 0
M  V30 4616 O 431.132 2.11831 0.856734 0
M  V30 4617 C 431.342 2.19754 -2.71126 0
M  V30 4618 C 432.69 2.80334 -3.18901 0
M  V30 4619 O 433.714 2.30049 -2.71948 0
M  V30 4620 O 432.573 3.71766 -4.00565 0
M  V30 4621 H 429.667 0.588117 -0.581418 0
M  V30 4622 H 432.213 0.561328 -1.60147 0
M  V30 4623 H 430.985 1.60316 -3.56952 0
M  V30 4624 H 430.608 3.01351 -2.59371 0
M  V30 4625 N 431.605 1.3629 0.791371 0
M  V30 4626 C 432.835 1.33368 1.57786 0
M  V30 4627 C 433.243 -0.0875188 1.88997 0
M  V30 4628 O 432.586 -1.05427 1.50435 0
M  V30 4629 C 432.648 2.08802 2.92646 0
M  V30 4630 C 432.312 3.57903 2.84174 0
M  V30 4631 C 433.309 4.52191 2.56553 0
M  V30 4632 C 430.994 4.00762 3.02812 0
M  V30 4633 C 432.988 5.87315 2.47669 0
M  V30 4634 C 430.675 5.35977 2.93551 0
M  V30 4635 C 431.673 6.29066 2.66017 0
M  V30 4636 O 431.361 7.61798 2.56746 0
M  V30 4637 H 431.093 0.459166 0.496128 0
M  V30 4638 H 433.647 1.79952 0.990269 0
M  V30 4639 H 431.877 1.56878 3.53449 0
M  V30 4640 H 433.566 1.98762 3.53904 0
M  V30 4641 H 434.332 4.20393 2.41858 0
M  V30 4642 H 430.211 3.2868 3.2325 0
M  V30 4643 H 433.755 6.59943 2.26099 0
M  V30 4644 H 429.652 5.67384 3.07808 0
M  V30 4645 H 430.42 7.71898 2.72242 0
M  V30 4646 N 433.083 -1.0153 1.20538 0
M  V30 4647 C 434.494 -1.56598 1.01657 0
M  V30 4648 C 434.845 -1.91505 -0.426668 0
M  V30 4649 O 433.97 -1.72375 -1.30827 0
M  V30 4650 C 434.565 -2.84542 1.83905 0
M  V30 4651 C 433.124 -3.36133 1.69386 0
M  V30 4652 C 432.271 -2.09427 1.81757 0
M  V30 4653 H 435.222 -0.838974 1.34711 0
M  V30 4654 H 435.243 -3.56004 1.34319 0
M  V30 4655 H 434.755 -2.59105 2.8894 0
M  V30 4656 H 432.856 -3.66528 0.669933 0
M  V30 4657 H 432.969 -4.08248 2.50739 0
M  V30 4658 H 431.333 -2.21941 1.24957 0
M  V30 4659 H 432.116 -1.86414 2.88279 0
M  V30 4660 N 434.561 -1.01147 -1.20859 0
M  V30 4661 C 435.977 -0.725422 -1.42161 0
M  V30 4662 C 436.177 0.696919 -1.89064 0
M  V30 4663 O 435.233 1.46539 -2.05627 0
M  V30 4664 C 436.546 -1.74678 -2.44761 0
M  V30 4665 C 438.094 -1.76433 -2.58535 0
M  V30 4666 C 438.569 -2.77481 -3.64374 0
M  V30 4667 N 440.06 -2.76189 -3.71852 0
M  V30 4668 C 440.795 -3.51035 -4.53389 0
M  V30 4669 N 440.291 -4.35541 -5.38773 0
M  V30 4670 N 442.084 -3.39655 -4.47873 0
M  V30 4671 H 434.235 -1.92979 -0.887282 0
M  V30 4672 H 436.498 -0.833327 -0.451962 0
M  V30 4673 H 436.204 -2.76551 -2.17285 0
M  V30 4674 H 436.078 -1.55472 -3.43669 0
M  V30 4675 H 438.465 -0.75248 -2.85345 0
M  V30 4676 H 438.546 -1.99712 -1.5984 0
M  V30 4677 H 438.19 -3.78827 -3.38308 0
M  V30 4678 H 438.12 -2.51466 -4.6268 0
M  V30 4679 H 440.611 -2.14885 -3.10858 0
M  V30 4680 H 440.924 -4.89432 -5.98061 0
M  V30 4681 H 439.269 -4.39621 -5.38292 0
M  V30 4682 H 442.46 -2.73063 -3.80203 0
M  V30 4683 H 442.633 -3.9824 -5.11184 0
M  V30 4684 N 436.039 1.36541 -0.78704 0
M  V30 4685 C 437.288 1.98552 -0.35494 0
M  V30 4686 C 437.601 1.63171 1.07864 0
M  V30 4687 O 438.807 2.18399 1.61289 0
M  V30 4688 C 437.263 3.55136 -0.583671 0
M  V30 4689 C 436.871 3.99444 -2.02851 0
M  V30 4690 C 438.615 4.2395 -0.215957 0
M  V30 4691 C 436.522 5.48796 -2.20403 0
M  V30 4692 H 435.452 0.742888 -0.128972 0
M  V30 4693 H 438.103 1.5587 -0.968337 0
M  V30 4694 H 436.485 3.95875 0.0994046 0
M  V30 4695 H 437.659 3.6991 -2.74779 0
M  V30 4696 H 435.974 3.43459 -2.35425 0
M  V30 4697 H 438.571 5.33709 -0.325405 0
M  V30 4698 H 438.914 4.07827 0.835646 0
M  V30 4699 H 439.447 3.88565 -0.852175 0
M  V30 4700 H 436.186 5.69864 -3.23937 0
M  V30 4701 H 435.706 5.79964 -1.52977 0
M  V30 4702 H 437.385 6.14986 -2.01002 0
M  V30 4703 N 437.518 0.538854 1.48102 0
M  V30 4704 C 438.465 -0.219042 2.29758 0
M  V30 4705 C 439.435 -0.925562 1.37922 0
M  V30 4706 O 440.62 -0.924855 1.66886 0
M  V30 4707 C 437.76 -1.25452 3.2149 0
M  V30 4708 C 436.873 -0.555943 4.28408 0
M  V30 4709 C 436.008 -1.57512 5.0731 0
M  V30 4710 C 435.047 -0.860498 6.06021 0
M  V30 4711 N 434.184 -1.82564 6.77949 0
M  V30 4712 H 439.024 0.483449 2.94052 0
M  V30 4713 H 436.561 0.250247 1.44956 0
M  V30 4714 H 438.519 -1.86727 3.7308 0
M  V30 4715 H 437.149 -1.92528 2.591 0
M  V30 4716 H 436.201 0.170938 3.80016 0
M  V30 4717 H 437.513 0.00474616 4.988 0
M  V30 4718 H 436.667 -2.26191 5.62959 0
M  V30 4719 H 435.406 -2.16972 4.36778 0
M  V30 4720 H 434.411 -0.159686 5.49568 0
M  V30 4721 H 435.636 -0.271897 6.78555 0
M  V30 4722 H 433.582 -2.40915 6.10161 0
M  V30 4723 H 433.499 -1.31662 7.44447 0
M  V30 4724 H 434.767 -2.50414 7.38182 0
M  V30 4725 N 438.996 -1.55193 0.274407 0
M  V30 4726 C 440.242 -1.99877 -0.343086 0
M  V30 4727 C 440.575 -1.16256 -1.55558 0
M  V30 4728 O 439.85 -0.232462 -1.93106 0
M  V30 4729 C 440.133 -3.52706 -0.725965 0
M  V30 4730 C 439.986 -4.47081 0.493818 0
M  V30 4731 C 441.305 -4.11422 -1.56268 0
M  V30 4732 H 438.424 -0.726625 -0.123229 0
M  V30 4733 H 441.066 -1.86136 0.38121 0
M  V30 4734 H 439.216 -3.64546 -1.34307 0
M  V30 4735 H 440.888 -4.47186 1.13237 0
M  V30 4736 H 439.131 -4.1877 1.13201 0
M  V30 4737 H 439.802 -5.51699 0.18217 0
M  V30 4738 H 442.278 -4.02855 -1.04151 0
M  V30 4739 H 441.154 -5.18568 -1.79939 0
M  V30 4740 H 441.415 -3.61607 -2.54348 0
M  V30 4741 N 440.474 -0.00167713 -1.576 0
M  V30 4742 C 441.722 0.681471 -1.90264 0
M  V30 4743 C 442.043 1.7422 -0.875924 0
M  V30 4744 O 441.313 1.95709 0.0864412 0
M  V30 4745 H 439.893 0.254696 -0.702239 0
M  V30 4746 H 442.555 -0.0429996 -1.94853 0
M  V30 4747 H 441.651 1.15166 -2.90075 0
M  V30 4748 N 441.952 1.55251 0.271103 0
M  V30 4749 C 443.18 1.79974 1.02064 0
M  V30 4750 C 443.595 0.574003 1.79863 0
M  V30 4751 O 442.952 -0.456962 1.76686 0
M  V30 4752 C 443.003 3.02603 1.97772 0
M  V30 4753 O 442.724 4.20443 1.23124 0
M  V30 4754 C 444.225 3.39944 2.84522 0
M  V30 4755 H 441.445 0.599489 0.301419 0
M  V30 4756 H 443.989 2.02268 0.301313 0
M  V30 4757 H 442.144 2.8243 2.65165 0
M  V30 4758 H 442.558 4.89783 1.87651 0
M  V30 4759 H 444.032 4.28915 3.47471 0
M  V30 4760 H 444.509 2.59432 3.54389 0
M  V30 4761 H 445.115 3.62383 2.22618 0
M  V30 4762 N 443.43 -0.535701 1.48216 0
M  V30 4763 C 444.36 -1.65014 1.65204 0
M  V30 4764 C 445.341 -1.62554 0.501011 0
M  V30 4765 O 446.526 -1.7984 0.732886 0
M  V30 4766 C 443.656 -3.03616 1.68626 0
M  V30 4767 C 442.61 -3.20932 2.83172 0
M  V30 4768 C 441.936 -4.60537 2.71679 0
M  V30 4769 C 443.236 -3.04249 4.24535 0
M  V30 4770 H 444.93 -1.51053 2.58502 0
M  V30 4771 H 442.476 -0.725262 1.24402 0
M  V30 4772 H 444.429 -3.81446 1.79099 0
M  V30 4773 H 443.153 -3.18587 0.719026 0
M  V30 4774 H 441.812 -2.45517 2.72244 0
M  V30 4775 H 441.46 -4.72336 1.72937 0
M  V30 4776 H 441.16 -4.73069 3.48538 0
M  V30 4777 H 442.684 -5.40475 2.84112 0
M  V30 4778 H 444.098 -3.71877 4.36326 0
M  V30 4779 H 442.495 -3.28278 5.02348 0
M  V30 4780 H 443.565 -2.00739 4.41397 0
M  V30 4781 N 444.908 -1.36708 -0.784132 0
M  V30 4782 C 446.136 -1.34398 -1.57305 0
M  V30 4783 C 446.551 0.0735577 -1.88657 0
M  V30 4784 O 445.908 1.03193 -1.50524 0
M  V30 4785 C 445.959 -2.17053 -2.89085 0
M  V30 4786 O 445.68 -3.53281 -2.59083 0
M  V30 4787 C 447.181 -2.22583 -3.83369 0
M  V30 4788 H 444.401 -0.460819 -0.487736 0
M  V30 4789 H 446.945 -1.79879 -0.972819 0
M  V30 4790 H 445.1 -1.75113 -3.45564 0
M  V30 4791 H 445.514 -3.9647 -3.43383 0
M  V30 4792 H 446.988 -2.84763 -4.72878 0
M  V30 4793 H 447.465 -1.23075 -4.21603 0
M  V30 4794 H 448.071 -2.64781 -3.32823 0
M  V30 4795 N 446.386 1.0089 -1.21074 0
M  V30 4796 C 447.316 2.1145 -0.990523 0
M  V30 4797 C 448.297 1.69897 0.0831699 0
M  V30 4798 O 449.482 1.94052 -0.0758853 0
M  V30 4799 C 446.612 3.42914 -0.550177 0
M  V30 4800 C 445.566 3.98244 -1.56799 0
M  V30 4801 C 444.892 5.25568 -0.984013 0
M  V30 4802 C 446.192 4.30752 -2.95381 0
M  V30 4803 H 447.886 2.3013 -1.91521 0
M  V30 4804 H 445.432 1.10592 -0.92225 0
M  V30 4805 H 447.385 4.19653 -0.383305 0
M  V30 4806 H 446.109 3.24014 0.41015 0
M  V30 4807 H 444.768 3.23621 -1.72236 0
M  V30 4808 H 444.416 5.02998 -0.0155216 0
M  V30 4809 H 444.116 5.63551 -1.66384 0
M  V30 4810 H 445.64 6.04955 -0.828378 0
M  V30 4811 H 447.054 4.98349 -2.8341 0
M  V30 4812 H 445.451 4.79869 -3.60341 0
M  V30 4813 H 446.521 3.39192 -3.46521 0
M  V30 4814 N 447.864 1.01787 1.20321 0
M  V30 4815 C 448.812 0.58254 2.25187 0
M  V30 4816 C 449.806 -0.379359 1.65098 0
M  V30 4817 O 451.012 -0.249142 1.78267 0
M  V30 4818 H 447.387 0.170078 0.732514 0
M  V30 4819 H 449.358 1.47788 2.59232 0
M  V30 4820 C 448.107 -0.0620885 3.47645 0
M  V30 4821 H 447.43 0.669069 3.94162 0
M  V30 4822 H 448.87 -0.329784 4.22716 0
M  V30 4823 C 447.329 -1.3053 3.10586 0
M  V30 4824 O 447.859 -2.39848 3.22236 0
M  V30 4825 N 446.065 -1.18988 2.65123 0
M  V30 4826 H 445.612 -0.300341 2.55843 0
M  V30 4827 H 445.57 -2.02267 2.40698 0
M  V30 4828 N 449.342 -1.36122 0.79427 0
M  V30 4829 C 450.758 -1.5232 0.476525 0
M  V30 4830 C 450.958 -1.74685 -1.00436 0
M  V30 4831 O 450.014 -1.78115 -1.78973 0
M  V30 4832 C 451.327 -2.70607 1.31119 0
M  V30 4833 C 452.875 -2.8448 1.30537 0
M  V30 4834 C 453.35 -4.05778 2.12387 0
M  V30 4835 N 454.841 -4.12933 2.09859 0
M  V30 4836 C 455.576 -5.05876 2.69957 0
M  V30 4837 N 455.072 -6.04232 3.38934 0
M  V30 4838 N 456.865 -4.98528 2.59665 0
M  V30 4839 H 449.016 -1.1986 1.75349 0
M  V30 4840 H 451.279 -0.585418 0.745647 0
M  V30 4841 H 450.985 -2.60619 2.36158 0
M  V30 4842 H 450.859 -3.64888 0.955843 0
M  V30 4843 H 453.246 -2.93927 0.262876 0
M  V30 4844 H 453.327 -1.91093 1.70051 0
M  V30 4845 H 452.971 -3.97092 3.1667 0
M  V30 4846 H 452.901 -4.98323 1.70242 0
M  V30 4847 H 455.392 -3.42515 1.59662 0
M  V30 4848 H 455.705 -6.71724 3.82109 0
M  V30 4849 H 454.05 -6.04443 3.43036 0
M  V30 4850 H 457.241 -4.20641 2.05375 0
M  V30 4851 H 457.414 -5.70773 3.06793 0
M  V30 4852 N 450.82 -0.546701 -1.47814 0
M  V30 4853 C 451.768 0.220048 -2.31557 0
M  V30 4854 C 452.762 0.919472 -1.42275 0
M  V30 4855 O 453.968 0.841953 -1.59095 0
M  V30 4856 H 450.343 0.0898334 -0.746615 0
M  V30 4857 H 452.314 -0.505589 -2.94086 0
M  V30 4858 C 451.063 1.24353 -3.24702 0
M  V30 4859 H 450.386 0.714758 -3.93359 0
M  V30 4860 H 451.826 1.75112 -3.8615 0
M  V30 4861 C 450.285 2.28593 -2.47481 0
M  V30 4862 O 450.815 3.35334 -2.21165 0
M  V30 4863 N 449.021 2.02244 -2.08676 0
M  V30 4864 H 448.568 1.15455 -2.30278 0
M  V30 4865 H 448.526 2.72207 -1.57323 0
M  V30 4866 N 452.299 1.55045 -0.282633 0
M  V30 4867 C 453.71 1.85473 0.213655 0
M  V30 4868 C 454.061 1.20465 1.54863 0
M  V30 4869 O 453.186 0.495676 2.10647 0
M  V30 4870 C 453.781 3.36496 0.394445 0
M  V30 4871 C 452.34 3.67022 0.834961 0
M  V30 4872 C 451.487 2.77218 -0.0674081 0
M  V30 4873 H 454.438 1.50478 -0.504202 0
M  V30 4874 H 454.459 3.60007 1.23186 0
M  V30 4875 H 453.971 3.83782 -0.577326 0
M  V30 4876 H 452.072 3.25241 1.81794 0
M  V30 4877 H 452.185 4.74433 0.667075 0
M  V30 4878 H 450.549 2.5069 0.450196 0
M  V30 4879 H 451.332 3.2732 -1.0352 0
M  V30 4880 N 453.777 0.010035 1.57597 0
M  V30 4881 C 454.687 -0.994226 2.12491 0
M  V30 4882 C 455.703 -1.37013 1.07254 0
M  V30 4883 O 456.879 -1.45542 1.3921 0
M  V30 4884 C 453.944 -2.2642 2.62555 0
M  V30 4885 C 453.005 -1.95049 3.82432 0
M  V30 4886 C 452.238 -3.15991 4.30099 0
M  V30 4887 O 452.461 -4.28015 3.7704 0
M  V30 4888 O 451.395 -2.99403 5.22151 0
M  V30 4889 H 455.221 -0.557549 2.98538 0
M  V30 4890 H 452.806 -0.209413 1.47925 0
M  V30 4891 H 454.688 -3.01009 2.9491 0
M  V30 4892 H 453.363 -2.69306 1.796 0
M  V30 4893 H 452.27 -1.17904 3.55034 0
M  V30 4894 H 453.603 -1.56992 4.66491 0
M  V30 4895 N 455.255 -1.55392 -0.262866 0
M  V30 4896 C 456.203 -1.8977 -1.345 0
M  V30 4897 C 457.197 -0.775063 -1.50629 0
M  V30 4898 O 458.403 -0.959519 -1.52293 0
M  V30 4899 H 454.778 -0.602467 -0.450041 0
M  V30 4900 H 456.749 -2.80147 -1.02762 0
M  V30 4901 C 455.498 -2.19501 -2.69657 0
M  V30 4902 H 454.821 -3.05378 -2.5804 0
M  V30 4903 H 456.261 -2.47469 -3.44289 0
M  V30 4904 C 454.72 -1.00597 -3.21531 0
M  V30 4905 O 455.25 -0.245768 -4.00947 0
M  V30 4906 N 453.456 -0.800911 -2.79345 0
M  V30 4907 H 453.003 -1.42079 -2.14875 0
M  V30 4908 H 452.961 -0.00697996 -3.14399 0
M  V30 4909 N 456.733 0.527833 -1.48498 0
M  V30 4910 C 457.683 1.62844 -1.5958 0
M  V30 4911 C 458.667 1.54397 -0.452809 0
M  V30 4912 O 459.859 1.62381 -0.704364 0
M  V30 4913 C 456.988 3.01557 -1.64067 0
M  V30 4914 C 456.074 3.151 -2.83853 0
M  V30 4915 N 456.465 2.9861 -4.08247 0
M  V30 4916 C 454.763 3.46158 -2.8123 0
M  V30 4917 C 455.464 3.15626 -4.88626 0
M  V30 4918 N 454.44 3.43298 -4.21483 0
M  V30 4919 H 458.242 1.48708 -2.53502 0
M  V30 4920 H 455.756 0.733343 -1.44899 0
M  V30 4921 H 457.753 3.8062 -1.70101 0
M  V30 4922 H 456.413 3.16783 -0.712636 0
M  V30 4923 H 457.424 2.75329 -4.3865 0
M  V30 4924 H 454.101 3.67728 -1.97692 0
M  V30 4925 H 455.491 3.07596 -5.97356 0
M  V30 4926 N 458.211 1.37122 0.776871 0
M  V30 4927 C 459.458 1.32047 1.53524 0
M  V30 4928 C 459.786 -0.0965631 1.9426 0
M  V30 4929 O 459.041 -1.06866 1.63945 0
M  V30 4930 C 459.34 2.20068 2.81611 0
M  V30 4931 C 459.006 3.68423 2.59953 0
M  V30 4932 C 457.668 4.08854 2.53755 0
M  V30 4933 C 460.02 4.62431 2.40431 0
M  V30 4934 C 457.348 5.41417 2.26018 0
M  V30 4935 C 459.7 5.95225 2.14219 0
M  V30 4936 C 458.364 6.34767 2.06462 0
M  V30 4937 H 457.634 0.483196 0.561785 0
M  V30 4938 H 460.281 1.69284 0.895268 0
M  V30 4939 H 458.586 1.75809 3.50141 0
M  V30 4940 H 460.283 2.13458 3.39465 0
M  V30 4941 H 456.873 3.36354 2.65638 0
M  V30 4942 H 461.057 4.32057 2.44213 0
M  V30 4943 H 456.313 5.71022 2.18504 0
M  V30 4944 H 460.487 6.67626 1.98112 0
M  V30 4945 H 458.114 7.37413 1.84733 0
M  V30 4946 N 459.689 -1.00246 1.21608 0
M  V30 4947 C 460.652 -2.07233 0.979133 0
M  V30 4948 C 461.652 -1.6072 -0.0508219 0
M  V30 4949 O 462.842 -1.73196 0.186712 0
M  V30 4950 C 459.974 -3.37546 0.477016 0
M  V30 4951 H 461.167 -2.29687 1.92831 0
M  V30 4952 H 458.72 -1.17261 1.03342 0
M  V30 4953 H 459.455 -3.20773 -0.476966 0
M  V30 4954 H 459.24 -3.72638 1.21997 0
M  V30 4955 H 460.73 -4.16285 0.331181 0
M  V30 4956 N 461.167 -1.02423 -1.1978 0
M  V30 4957 C 462.099 -0.559152 -2.22275 0
M  V30 4958 C 463.112 0.36251 -1.58713 0
M  V30 4959 O 464.301 0.159641 -1.77785 0
M  V30 4960 C 461.401 0.205094 -3.38279 0
M  V30 4961 C 460.574 -0.720361 -4.31427 0
M  V30 4962 C 459.633 -0.00234368 -5.262 0
M  V30 4963 O 458.659 -0.627378 -5.65732 0
M  V30 4964 N 459.861 1.26996 -5.66438 0
M  V30 4965 H 462.626 -1.44064 -2.62804 0
M  V30 4966 H 460.187 -0.902692 -1.34399 0
M  V30 4967 H 462.179 0.694868 -3.9869 0
M  V30 4968 H 460.749 0.987947 -2.96578 0
M  V30 4969 H 459.969 -1.39031 -3.68869 0
M  V30 4970 H 461.257 -1.3495 -4.90577 0
M  V30 4971 H 460.655 1.79858 -5.36347 0
M  V30 4972 H 459.212 1.70432 -6.29123 0
M  V30 4973 N 462.645 1.35699 -0.801477 0
M  V30 4974 C 463.894 1.98165 -0.375979 0
M  V30 4975 C 464.207 1.64306 1.06127 0
M  V30 4976 O 465.413 2.20097 1.58964 0
M  V30 4977 C 463.869 3.54497 -0.621305 0
M  V30 4978 C 463.477 3.9727 -2.07076 0
M  V30 4979 C 465.221 4.23697 -0.26091 0
M  V30 4980 C 463.128 5.46427 -2.26211 0
M  V30 4981 H 462.058 0.741478 -0.136844 0
M  V30 4982 H 464.709 1.54834 -0.984814 0
M  V30 4983 H 463.091 3.95958 0.0574112 0
M  V30 4984 H 464.265 3.66974 -2.78687 0
M  V30 4985 H 462.58 3.40943 -2.39054 0
M  V30 4986 H 465.177 5.33334 -0.381994 0
M  V30 4987 H 465.52 4.0869 0.792344 0
M  V30 4988 H 466.053 3.87639 -0.893339 0
M  V30 4989 H 462.792 5.66396 -3.29963 0
M  V30 4990 H 462.312 5.78309 -1.59119 0
M  V30 4991 H 463.991 6.12819 -2.07513 0
M  V30 4992 N 464.123 0.554532 1.47522 0
M  V30 4993 C 465.033 -0.197865 2.33764 0
M  V30 4994 C 466.049 -0.914576 1.48025 0
M  V30 4995 O 467.225 -0.884067 1.80959 0
M  V30 4996 C 464.29 -1.21628 3.24665 0
M  V30 4997 C 463.351 -0.507283 4.26292 0
M  V30 4998 C 462.584 -1.47718 5.1285 0
M  V30 4999 O 462.807 -2.7118 5.01814 0
M  V30 5000 O 461.741 -1.00313 5.93482 0
M  V30 5001 H 465.567 0.50949 2.99396 0
M  V30 5002 H 463.152 0.315176 1.46038 0
M  V30 5003 H 465.034 -1.80421 3.80823 0
M  V30 5004 H 463.709 -1.9056 2.61665 0
M  V30 5005 H 462.616 0.121778 3.73902 0
M  V30 5006 H 463.949 0.140544 4.91999 0
M  V30 5007 N 465.601 -1.54893 0.290851 0
M  V30 5008 C 466.826 -2.04804 -0.32712 0
M  V30 5009 C 467.251 -1.16721 -1.47506 0
M  V30 5010 O 466.609 -0.169107 -1.8051 0
M  V30 5011 C 466.657 -3.52268 -0.770689 0
M  V30 5012 O 465.761 -3.67236 -1.87647 0
M  V30 5013 H 465.102 -0.660789 -0.0652227 0
M  V30 5014 H 467.632 -2.00036 0.429739 0
M  V30 5015 H 467.642 -3.9393 -1.06223 0
M  V30 5016 H 466.317 -4.15843 0.069096 0
M  V30 5017 H 464.894 -3.37479 -1.58626 0
M  V30 5018 N 467.08 -0.0183926 -1.57589 0
M  V30 5019 C 468.043 0.951986 -2.08494 0
M  V30 5020 C 469.043 1.26092 -0.997874 0
M  V30 5021 O 470.233 1.20304 -1.25987 0
M  V30 5022 C 467.365 2.27165 -2.54182 0
M  V30 5023 H 468.558 0.511307 -2.95509 0
M  V30 5024 H 466.111 0.229444 -1.54607 0
M  V30 5025 H 466.846 2.75884 -1.70465 0
M  V30 5026 H 466.631 2.06057 -3.33591 0
M  V30 5027 H 468.121 2.9674 -2.93828 0
M  V30 5028 N 468.558 1.5553 0.254621 0
M  V30 5029 C 469.521 1.88872 1.29846 0
M  V30 5030 C 470.521 0.764591 1.41459 0
M  V30 5031 O 471.711 1.03265 1.40293 0
M  V30 5032 C 468.843 2.11032 2.67728 0
M  V30 5033 H 470.036 2.82201 1.01502 0
M  V30 5034 H 467.589 1.48303 0.493556 0
M  V30 5035 H 468.324 1.20146 3.01223 0
M  V30 5036 H 468.109 2.92895 2.60682 0
M  V30 5037 H 469.599 2.38038 3.43115 0
M  V30 5038 N 470.036 -0.519951 1.48776 0
M  V30 5039 C 471.283 -1.27522 1.57303 0
M  V30 5040 C 471.611 -1.92869 0.251328 0
M  V30 5041 O 470.866 -1.80372 -0.759243 0
M  V30 5042 C 471.165 -2.37864 2.6675 0
M  V30 5043 C 470.831 -1.90103 4.08867 0
M  V30 5044 C 469.493 -1.76795 4.47546 0
M  V30 5045 C 471.845 -1.54133 4.97888 0
M  V30 5046 C 469.173 -1.25868 5.73039 0
M  V30 5047 C 471.525 -1.04665 6.23881 0
M  V30 5048 C 470.189 -0.899823 6.61407 0
M  V30 5049 H 469.459 -0.466636 0.575614 0
M  V30 5050 H 472.106 -0.579109 1.82534 0
M  V30 5051 H 470.411 -3.13186 2.35418 0
M  V30 5052 H 472.108 -2.95969 2.70561 0
M  V30 5053 H 468.698 -2.01414 3.78326 0
M  V30 5054 H 472.882 -1.6327 4.68675 0
M  V30 5055 H 468.138 -1.13196 6.0083 0
M  V30 5056 H 472.312 -0.759074 6.92251 0
M  V30 5057 H 469.939 -0.503011 7.58534 0
M  V30 5058 N 471.514 -1.37532 -0.769588 0
M  V30 5059 C 472.739 -1.36231 -1.56384 0
M  V30 5060 C 473.164 0.0495849 -1.88035 0
M  V30 5061 O 472.522 1.02723 -1.49391 0
M  V30 5062 C 472.57 -2.20986 -2.84952 0
M  V30 5063 O 471.674 -1.61597 -3.79421 0
M  V30 5064 H 471.015 -0.465387 -0.473615 0
M  V30 5065 H 473.545 -1.81085 -0.952342 0
M  V30 5066 H 473.555 -2.34277 -3.34034 0
M  V30 5067 H 472.23 -3.23612 -2.61243 0
M  V30 5068 H 470.807 -1.57359 -3.38072 0
M  V30 5069 N 472.992 0.995999 -1.22138 0
M  V30 5070 C 474.403 1.54961 -1.04135 0
M  V30 5071 C 474.754 1.92159 0.396147 0
M  V30 5072 O 473.879 1.74435 1.28069 0
M  V30 5073 C 474.474 2.81581 -1.88408 0
M  V30 5074 C 473.033 3.33396 -1.74712 0
M  V30 5075 C 472.18 2.06509 -1.85066 0
M  V30 5076 H 475.131 0.817436 -1.36028 0
M  V30 5077 H 475.152 3.53822 -1.39966 0
M  V30 5078 H 474.664 2.54476 -2.93025 0
M  V30 5079 H 472.765 3.65416 -0.728159 0
M  V30 5080 H 472.878 4.04208 -2.57202 0
M  V30 5081 H 471.242 2.19925 -1.28472 0
M  V30 5082 H 472.025 1.81804 -2.91208 0
M  V30 5083 N 474.47 1.03057 1.19235 0
M  V30 5084 C 475.695 0.74757 1.93458 0
M  V30 5085 C 476.12 -0.687648 1.7508 0
M  V30 5086 O 475.478 -1.47499 1.05422 0
M  V30 5087 C 475.526 1.10604 3.43219 0
M  V30 5088 O 474.63 0.225671 4.11782 0
M  V30 5089 H 473.971 0.276047 0.603899 0
M  V30 5090 H 476.501 1.3777 1.51263 0
M  V30 5091 H 476.511 1.06366 3.93891 0
M  V30 5092 H 475.186 2.15165 3.55917 0
M  V30 5093 H 473.763 0.326795 3.71465 0
M  V30 5094 N 475.948 -1.35272 0.808662 0
M  V30 5095 C 476.896 -2.31663 0.208606 0
M  V30 5096 C 477.89 -1.56731 -0.642778 0
M  V30 5097 O 479.096 -1.71843 -0.53571 0
M  V30 5098 H 475.471 -0.750421 0.0486993 0
M  V30 5099 H 477.442 -2.79814 1.03666 0
M  V30 5100 C 476.191 -3.42008 -0.626573 0
M  V30 5101 H 475.514 -3.99795 0.0192103 0
M  V30 5102 H 476.954 -4.11727 -1.01278 0
M  V30 5103 C 475.413 -2.85226 -1.79298 0
M  V30 5104 O 475.943 -2.78945 -2.89055 0
M  V30 5105 N 474.149 -2.42245 -1.60516 0
M  V30 5106 H 473.696 -2.47554 -0.712375 0
M  V30 5107 H 473.654 -2.04603 -2.38715 0
M  V30 5108 N 477.426 -0.562348 -1.47226 0
M  V30 5109 C 478.654 -0.0452275 -2.06851 0
M  V30 5110 C 479.069 1.25078 -1.41424 0
M  V30 5111 O 478.426 1.75156 -0.512513 0
M  V30 5112 C 478.477 0.148674 -3.61194 0
M  V30 5113 O 478.198 -1.09602 -4.24169 0
M  V30 5114 C 479.699 0.702488 -4.37699 0
M  V30 5115 H 476.919 -0.0481775 -0.669268 0
M  V30 5116 H 479.463 -0.777223 -1.89155 0
M  V30 5117 H 477.618 0.830817 -3.78386 0
M  V30 5118 H 478.032 -0.896982 -5.16773 0
M  V30 5119 H 479.506 0.78743 -5.46355 0
M  V30 5120 H 479.983 1.71493 -4.04335 0
M  V30 5121 H 480.589 0.0558772 -4.25263 0
M  V30 5122 N 478.904 1.54736 -0.299062 0
M  V30 5123 C 480.15 2.00397 0.311244 0
M  V30 5124 C 480.483 1.18716 1.53688 0
M  V30 5125 O 479.758 0.263154 1.92712 0
M  V30 5126 C 480.041 3.53817 0.669761 0
M  V30 5127 C 479.894 4.46239 -0.564882 0
M  V30 5128 C 481.213 4.13856 1.49702 0
M  V30 5129 H 478.332 0.728493 0.111653 0
M  V30 5130 H 480.974 1.85506 -0.410774 0
M  V30 5131 H 479.124 3.66637 1.28491 0
M  V30 5132 H 480.796 4.45328 -1.20337 0
M  V30 5133 H 479.039 4.16916 -1.19849 0
M  V30 5134 H 479.71 5.5134 -0.269918 0
M  V30 5135 H 482.186 4.04461 0.977284 0
M  V30 5136 H 481.062 5.21365 1.71666 0
M  V30 5137 H 481.323 3.65608 2.48563 0
M  V30 5138 N 480.382 0.0267497 1.57577 0
M  V30 5139 C 481.793 -0.512413 1.79531 0
M  V30 5140 C 482.144 -1.72391 0.936791 0
M  V30 5141 O 481.269 -2.15903 0.146543 0
M  V30 5142 C 481.864 -0.936378 3.25603 0
M  V30 5143 C 480.423 -1.42067 3.4856 0
M  V30 5144 C 479.57 -0.384278 2.74624 0
M  V30 5145 H 482.521 0.252797 1.56674 0
M  V30 5146 H 482.542 -1.80088 3.35184 0
M  V30 5147 H 482.054 -0.0544332 3.88062 0
M  V30 5148 H 480.155 -2.32262 2.9135 0
M  V30 5149 H 480.268 -1.42968 4.57271 0
M  V30 5150 H 478.632 -0.851855 2.40032 0
M  V30 5151 H 479.415 0.489159 3.39797 0
M  V30 5152 N 481.861 -1.55662 -0.24637 0
M  V30 5153 C 483.109 -1.77168 -0.972411 0
M  V30 5154 C 483.43 -0.590827 -1.85834 0
M  V30 5155 O 482.7 0.393365 -1.9191 0
M  V30 5156 H 481.28 -0.653405 -0.362038 0
M  V30 5157 H 483.942 -1.93101 -0.264189 0
M  V30 5158 H 483.038 -2.68335 -1.59382 0
M  V30 5159 N 483.339 0.512053 -1.4905 0
M  V30 5160 C 484.588 1.26343 -1.57227 0
M  V30 5161 C 484.901 1.93876 -0.259155 0
M  V30 5162 O 486.107 2.70612 -0.219358 0
M  V30 5163 C 484.563 2.29343 -2.77362 0
M  V30 5164 C 484.171 1.67799 -4.15388 0
M  V30 5165 C 485.915 3.05378 -2.94864 0
M  V30 5166 C 483.822 2.68845 -5.2676 0
M  V30 5167 H 482.752 0.475231 -0.585382 0
M  V30 5168 H 485.403 0.53862 -1.75417 0
M  V30 5169 H 483.785 3.04938 -2.52643 0
M  V30 5170 H 484.959 0.982715 -4.50199 0
M  V30 5171 H 483.274 1.04194 -4.03153 0
M  V30 5172 H 485.871 3.80921 -3.75238 0
M  V30 5173 H 486.214 3.62327 -2.05 0
M  V30 5174 H 486.747 2.36898 -3.19569 0
M  V30 5175 H 483.486 2.16692 -6.18647 0
M  V30 5176 H 483.006 3.36647 -4.96416 0
M  V30 5177 H 484.685 3.31487 -5.5563 0
M  V30 5178 N 484.817 1.37938 0.762283 0
M  V30 5179 C 486.065 1.33404 1.51815 0
M  V30 5180 C 486.386 -0.0780975 1.94844 0
M  V30 5181 O 485.656 -1.02405 1.67003 0
M  V30 5182 H 484.236 0.490839 0.563104 0
M  V30 5183 H 486.898 1.72527 0.906669 0
M  V30 5184 H 485.994 1.97926 2.41313 0
M  V30 5185 N 486.295 -0.989507 1.22664 0
M  V30 5186 C 487.225 -2.09847 1.02404 0
M  V30 5187 C 488.206 -1.70007 -0.0561303 0
M  V30 5188 O 489.391 -1.93906 0.106748 0
M  V30 5189 C 486.521 -3.41996 0.604663 0
M  V30 5190 C 485.475 -3.95699 1.63115 0
M  V30 5191 C 484.801 -5.23936 1.0675 0
M  V30 5192 C 486.101 -4.25999 3.02196 0
M  V30 5193 H 487.795 -2.27054 1.95158 0
M  V30 5194 H 485.341 -1.09111 0.939727 0
M  V30 5195 H 487.294 -4.1899 0.45002 0
M  V30 5196 H 486.018 -3.24626 -0.35855 0
M  V30 5197 H 484.677 -3.2084 1.77362 0
M  V30 5198 H 484.325 -5.02909 0.0955422 0
M  V30 5199 H 484.025 -5.60833 1.75328 0
M  V30 5200 H 485.549 -6.0356 0.924516 0
M  V30 5201 H 486.963 -4.93777 2.91303 0
M  V30 5202 H 485.36 -4.74076 3.67929 0
M  V30 5203 H 486.43 -3.33636 3.51873 0
M  V30 5204 N 487.773 -1.03688 -1.18687 0
M  V30 5205 C 488.998 -0.757819 -1.93059 0
M  V30 5206 C 489.423 0.678353 -1.75442 0
M  V30 5207 O 488.781 1.46938 -1.06203 0
M  V30 5208 C 488.829 -1.12423 -3.42627 0
M  V30 5209 O 487.933 -0.247505 -4.11657 0
M  V30 5210 H 487.274 -0.279245 -0.602427 0
M  V30 5211 H 489.804 -1.3857 -1.5053 0
M  V30 5212 H 489.814 -1.08454 -3.93322 0
M  V30 5213 H 488.489 -2.17049 -3.54771 0
M  V30 5214 H 487.066 -0.34649 -3.71287 0
M  V30 5215 N 489.251 1.34841 -0.815825 0
M  V30 5216 C 490.662 1.80937 -0.46029 0
M  V30 5217 C 491.013 1.67685 1.01863 0
M  V30 5218 O 490.138 1.21277 1.79223 0
M  V30 5219 C 490.733 3.28509 -0.828708 0
M  V30 5220 C 489.292 3.72712 -0.525644 0
M  V30 5221 C 488.439 2.56676 -1.04941 0
M  V30 5222 H 491.39 1.22688 -1.00664 0
M  V30 5223 H 491.411 3.80279 -0.129757 0
M  V30 5224 H 490.923 3.38122 -1.90513 0
M  V30 5225 H 489.024 3.68642 0.541666 0
M  V30 5226 H 489.137 4.67119 -1.06474 0
M  V30 5227 H 487.501 2.50302 -0.471286 0
M  V30 5228 H 488.284 2.69063 -2.13214 0
M  V30 5229 N 490.729 0.570148 1.46925 0
M  V30 5230 C 492.006 -0.0153259 1.95594 0
M  V30 5231 C 492.386 -1.47232 1.51281 0
M  V30 5232 O 491.734 -2.15574 0.757624 0
M  V30 5233 C 491.944 0.143624 3.48704 0
M  V30 5234 C 493.292 0.00494484 4.246 0
M  V30 5235 O 494.316 0.0718214 3.56128 0
M  V30 5236 O 493.175 -0.141175 5.46318 0
M  V30 5237 H 490.269 -0.0568819 0.825041 0
M  V30 5238 H 492.815 0.637583 1.57267 0
M  V30 5239 H 491.587 1.15699 3.73804 0
M  V30 5240 H 491.21 -0.5463 3.93829 0
M  V30 5241 N 492.207 -1.54576 0.307264 0
M  V30 5242 C 493.623 -1.59534 -0.0459251 0
M  V30 5243 C 493.823 -1.32414 -1.51884 0
M  V30 5244 O 492.879 -1.1006 -2.27251 0
M  V30 5245 C 494.192 -2.98566 0.357649 0
M  V30 5246 C 495.74 -3.11491 0.306937 0
M  V30 5247 C 496.215 -4.52842 0.685427 0
M  V30 5248 N 497.706 -4.58782 0.638203 0
M  V30 5249 C 498.441 -5.66238 0.903458 0
M  V30 5250 N 497.937 -6.81703 1.23501 0
M  V30 5251 N 499.73 -5.55937 0.830102 0
M  V30 5252 H 491.881 -1.70464 1.26712 0
M  V30 5253 H 494.144 -0.79647 0.514139 0
M  V30 5254 H 493.85 -3.23356 1.38325 0
M  V30 5255 H 493.724 -3.76117 -0.285565 0
M  V30 5256 H 496.111 -2.86446 -0.709424 0
M  V30 5257 H 496.192 -2.36081 0.984861 0
M  V30 5258 H 495.836 -4.78618 1.69963 0
M  V30 5259 H 495.766 -5.26598 -0.0146346 0
M  V30 5260 H 498.257 -3.75849 0.393138 0
M  V30 5261 H 498.57 -7.59582 1.42322 0
M  V30 5262 H 496.915 -6.8324 1.27311 0
M  V30 5263 H 500.106 -4.64608 0.570693 0
M  V30 5264 H 500.279 -6.39597 1.04019 0
M  V30 5265 N 493.685 -0.035106 -1.57561 0
M  V30 5266 C 494.618 0.979673 -2.06101 0
M  V30 5267 C 495.596 1.31378 -0.958046 0
M  V30 5268 O 496.78 1.42942 -1.22881 0
M  V30 5269 C 493.907 2.29809 -2.48808 0
M  V30 5270 C 492.953 2.11817 -3.70184 0
M  V30 5271 S 493.786 1.41143 -5.16565 0
M  V30 5272 C 494.942 2.74341 -5.62572 0
M  V30 5273 H 495.175 0.566506 -2.91853 0
M  V30 5274 H 492.708 0.176744 -1.53385 0
M  V30 5275 H 494.666 3.056 -2.74078 0
M  V30 5276 H 493.327 2.68257 -1.63392 0
M  V30 5277 H 492.52 3.09299 -3.97933 0
M  V30 5278 H 492.122 1.44168 -3.45097 0
M  V30 5279 H 494.414 3.70562 -5.67177 0
M  V30 5280 H 495.357 2.51249 -6.62027 0
M  V30 5281 H 495.765 2.79863 -4.90242 0
M  V30 5282 N 495.163 1.55791 0.238111 0
M  V30 5283 C 496.093 1.94068 1.29846 0
M  V30 5284 C 497.074 0.806726 1.49753 0
M  V30 5285 O 498.259 1.06772 1.62214 0
M  V30 5286 C 495.389 2.24302 2.65153 0
M  V30 5287 C 494.343 3.40032 2.59927 0
M  V30 5288 C 493.669 3.55829 3.99111 0
M  V30 5289 C 494.969 4.75476 2.16148 0
M  V30 5290 H 496.663 2.82887 0.980563 0
M  V30 5291 H 494.209 1.36105 0.470253 0
M  V30 5292 H 496.162 2.4967 3.39475 0
M  V30 5293 H 494.886 1.32318 2.98596 0
M  V30 5294 H 493.545 3.14687 1.88063 0
M  V30 5295 H 493.193 2.6125 4.29834 0
M  V30 5296 H 492.893 4.3366 3.96501 0
M  V30 5297 H 494.417 3.83528 4.7512 0
M  V30 5298 H 495.831 5.00158 2.80205 0
M  V30 5299 H 494.228 5.56472 2.24631 0
M  V30 5300 H 495.298 4.71946 1.11333 0
M  V30 5301 N 496.642 -0.504142 1.49319 0
M  V30 5302 C 497.572 -1.61473 1.68667 0
M  V30 5303 C 498.553 -1.61455 0.535378 0
M  V30 5304 O 499.738 -1.78245 0.770868 0
M  V30 5305 C 496.868 -2.99971 1.75028 0
M  V30 5306 C 495.822 -3.14854 2.89916 0
M  V30 5307 C 495.148 -4.54671 2.81387 0
M  V30 5308 C 496.448 -2.95176 4.30893 0
M  V30 5309 H 498.142 -1.45535 2.61648 0
M  V30 5310 H 495.688 -0.698711 1.25913 0
M  V30 5311 H 497.641 -3.77562 1.8715 0
M  V30 5312 H 496.365 -3.1699 0.786441 0
M  V30 5313 H 495.024 -2.39687 2.77391 0
M  V30 5314 H 494.672 -4.68562 1.82917 0
M  V30 5315 H 494.372 -4.6557 3.58494 0
M  V30 5316 H 495.896 -5.34327 2.95512 0
M  V30 5317 H 497.31 -3.62538 4.44116 0
M  V30 5318 H 495.707 -3.17549 5.09198 0
M  V30 5319 H 496.777 -1.91332 4.45556 0
M  V30 5320 N 498.12 -1.38341 -0.754957 0
M  V30 5321 C 499.368 -1.34208 -1.51105 0
M  V30 5322 C 499.689 0.0677634 -1.94882 0
M  V30 5323 O 498.959 1.01517 -1.67544 0
M  V30 5324 H 497.539 -0.493819 -0.560493 0
M  V30 5325 H 500.201 -1.73005 -0.897507 0
M  V30 5326 H 499.297 -1.99203 -2.4026 0
M  V30 5327 N 499.598 0.982988 -1.23187 0
M  V30 5328 C 501.014 1.2487 -0.993967 0
M  V30 5329 C 501.214 1.99155 0.306498 0
M  V30 5330 O 500.27 2.30688 1.0266 0
M  V30 5331 C 501.583 2.05078 -2.19917 0
M  V30 5332 C 503.131 2.18227 -2.2438 0
M  V30 5333 C 503.606 3.01825 -3.44479 0
M  V30 5334 N 505.097 3.09411 -3.44702 0
M  V30 5335 C 505.832 3.74412 -4.34285 0
M  V30 5336 N 505.328 4.41259 -5.341 0
M  V30 5337 N 507.121 3.71273 -4.22035 0
M  V30 5338 H 499.272 0.485253 -2.06783 0
M  V30 5339 H 501.535 0.276979 -0.906635 0
M  V30 5340 H 501.241 1.57867 -3.14279 0
M  V30 5341 H 501.115 3.05829 -2.2079 0
M  V30 5342 H 503.502 2.64648 -1.30559 0
M  V30 5343 H 503.583 1.16873 -2.2754 0
M  V30 5344 H 503.227 2.56102 -4.38605 0
M  V30 5345 H 503.157 4.03342 -3.38559 0
M  V30 5346 H 505.648 2.61845 -2.7248 0
M  V30 5347 H 505.961 4.88629 -5.98717 0
M  V30 5348 H 504.306 4.39975 -5.38002 0
M  V30 5349 H 507.497 3.18217 -3.43301 0
M  V30 5350 H 507.67 4.21649 -4.92053 0
M  V30 5351 N 501.076 1.04316 1.18135 0
M  V30 5352 C 502.039 0.640794 2.2006 0
M  V30 5353 C 503.039 -0.303124 1.57917 0
M  V30 5354 O 504.229 -0.0881855 1.73977 0
M  V30 5355 C 501.361 -0.060148 3.40847 0
M  V30 5356 H 502.554 1.54281 2.57172 0
M  V30 5357 H 500.107 0.836004 1.32063 0
M  V30 5358 H 500.842 -0.975845 3.0927 0
M  V30 5359 H 500.627 0.618319 3.87194 0
M  V30 5360 H 502.117 -0.328082 4.16309 0
M  V30 5361 N 502.554 -1.34406 0.822964 0
M  V30 5362 C 503.801 -1.98284 0.411057 0
M  V30 5363 C 504.129 -1.65245 -1.02588 0
M  V30 5364 O 503.384 -0.91619 -1.72929 0
M  V30 5365 C 503.683 -3.52981 0.560268 0
M  V30 5366 C 503.349 -4.05931 1.96293 0
M  V30 5367 C 502.011 -4.20103 2.34664 0
M  V30 5368 C 504.363 -4.34412 2.87985 0
M  V30 5369 C 501.691 -4.60082 3.64062 0
M  V30 5370 C 504.043 -4.75838 4.16847 0
M  V30 5371 C 502.707 -4.88215 4.55195 0
M  V30 5372 H 501.977 -0.725573 0.150416 0
M  V30 5373 H 504.624 -1.60349 1.04692 0
M  V30 5374 H 502.929 -3.91477 -0.158982 0
M  V30 5375 H 504.626 -4.00385 0.222087 0
M  V30 5376 H 501.216 -3.95363 1.65487 0
M  V30 5377 H 505.4 -4.23001 2.59584 0
M  V30 5378 H 500.656 -4.67856 3.93599 0
M  V30 5379 H 504.83 -4.96834 4.87984 0
M  V30 5380 H 502.457 -5.18952 5.55512 0
M  V30 5381 N 504.032 -0.577932 -1.46621 0
M  V30 5382 C 504.995 0.147805 -2.28723 0
M  V30 5383 C 505.995 0.823325 -1.38123 0
M  V30 5384 O 507.185 0.676011 -1.60548 0
M  V30 5385 C 504.317 1.21853 -3.18378 0
M  V30 5386 H 505.51 -0.573654 -2.94362 0
M  V30 5387 H 503.063 -0.335703 -1.52652 0
M  V30 5388 H 503.798 1.97173 -2.57475 0
M  V30 5389 H 503.583 0.738714 -3.85078 0
M  V30 5390 H 505.073 1.72768 -3.80186 0
M  V30 5391 N 505.51 1.54411 -0.315457 0
M  V30 5392 C 506.74 2.04536 0.291315 0
M  V30 5393 C 507.148 1.19162 1.4696 0
M  V30 5394 O 506.491 0.213199 1.82459 0
M  V30 5395 C 506.553 3.5056 0.796725 0
M  V30 5396 C 506.217 4.5627 -0.258178 0
M  V30 5397 C 507.214 5.08312 -1.09153 0
M  V30 5398 C 504.899 5.00672 -0.404036 0
M  V30 5399 C 506.893 6.03312 -2.05655 0
M  V30 5400 C 504.58 5.95488 -1.37248 0
M  V30 5401 C 505.578 6.46693 -2.19721 0
M  V30 5402 O 505.266 7.39648 -3.14921 0
M  V30 5403 H 504.998 0.672856 0.0651165 0
M  V30 5404 H 507.552 2.00244 -0.457308 0
M  V30 5405 H 505.782 3.52223 1.59612 0
M  V30 5406 H 507.471 3.83804 1.32096 0
M  V30 5407 H 508.237 4.74793 -0.98979 0
M  V30 5408 H 504.116 4.60436 0.22799 0
M  V30 5409 H 507.66 6.43203 -2.70067 0
M  V30 5410 H 503.557 6.28424 -1.47489 0
M  V30 5411 H 504.325 7.57496 -3.10067 0
M  V30 5412 N 506.988 0.0434614 1.5754 0
M  V30 5413 C 507.938 -0.943039 2.07583 0
M  V30 5414 C 508.922 -1.27662 0.979342 0
M  V30 5415 O 510.114 -1.26034 1.24276 0
M  V30 5416 C 507.243 -2.22056 2.61813 0
M  V30 5417 C 506.329 -1.91471 3.78417 0
M  V30 5418 N 506.72 -1.31214 4.88484 0
M  V30 5419 C 505.018 -2.21384 3.87176 0
M  V30 5420 C 505.719 -1.18084 5.69588 0
M  V30 5421 N 504.695 -1.68116 5.16951 0
M  V30 5422 H 508.497 -0.472354 2.90079 0
M  V30 5423 H 506.011 -0.161191 1.61598 0
M  V30 5424 H 508.008 -2.93618 2.95963 0
M  V30 5425 H 506.668 -2.69738 1.80752 0
M  V30 5426 H 507.679 -0.985318 5.08441 0
M  V30 5427 H 504.356 -2.7164 3.17046 0
M  V30 5428 H 505.746 -0.713684 6.68099 0
M  V30 5429 N 508.466 -1.55915 -0.229846 0
M  V30 5430 C 509.743 -1.6932 -0.979295 0
M  V30 5431 C 510.123 -0.588321 -2.02736 0
M  V30 5432 O 509.471 0.40586 -2.24867 0
M  V30 5433 C 509.681 -3.10305 -1.59724 0
M  V30 5434 C 511.029 -3.6945 -2.09264 0
M  V30 5435 O 512.053 -3.13214 -1.69633 0
M  V30 5436 O 510.912 -4.68072 -2.82082 0
M  V30 5437 H 508.006 -0.689314 -0.456919 0
M  V30 5438 H 510.552 -1.68238 -0.222283 0
M  V30 5439 H 509.324 -3.82177 -0.840039 0
M  V30 5440 H 508.947 -3.1547 -2.42001 0
M  V30 5441 N 509.944 0.496216 -1.49584 0
M  V30 5442 C 510.907 1.57952 -1.66084 0
M  V30 5443 C 511.907 1.51729 -0.53244 0
M  V30 5444 O 513.097 1.54796 -0.79899 0
M  V30 5445 C 510.229 2.97604 -1.66268 0
M  V30 5446 H 511.422 1.44649 -2.6271 0
M  V30 5447 H 508.975 0.7208 -1.38687 0
M  V30 5448 H 509.71 3.16378 -0.712432 0
M  V30 5449 H 509.495 3.03528 -2.4822 0
M  V30 5450 H 510.985 3.76301 -1.81073 0
M  V30 5451 N 511.423 1.38739 0.74761 0
M  V30 5452 C 512.355 1.32341 1.87132 0
M  V30 5453 C 513.368 0.234502 1.61102 0
M  V30 5454 O 514.557 0.492516 1.71571 0
M  V30 5455 C 511.657 1.02915 3.22896 0
M  V30 5456 C 510.83 2.22834 3.76383 0
M  V30 5457 C 509.889 1.90059 4.90677 0
M  V30 5458 O 508.915 2.62615 5.04997 0
M  V30 5459 N 510.117 0.859141 5.74107 0
M  V30 5460 H 512.882 2.29175 1.93129 0
M  V30 5461 H 510.443 1.32678 0.927805 0
M  V30 5462 H 512.435 0.79031 3.96908 0
M  V30 5463 H 511.005 0.148572 3.12247 0
M  V30 5464 H 510.225 2.62747 2.93867 0
M  V30 5465 H 511.513 3.02851 4.08851 0
M  V30 5466 H 510.911 0.257564 5.65113 0
M  V30 5467 H 509.468 0.680189 6.48241 0
M  V30 5468 N 512.901 -0.976442 1.23707 0
M  V30 5469 C 513.831 -2.08749 1.04624 0
M  V30 5470 C 514.812 -1.70057 -0.0380956 0
M  V30 5471 O 515.997 -1.93782 0.127308 0
M  V30 5472 C 513.127 -3.41335 0.640902 0
M  V30 5473 C 512.081 -3.93947 1.67302 0
M  V30 5474 C 511.407 -5.22774 1.12301 0
M  V30 5475 C 512.707 -4.22769 3.06697 0
M  V30 5476 H 514.401 -2.24972 1.97555 0
M  V30 5477 H 511.947 -1.08108 0.951247 0
M  V30 5478 H 513.9 -4.18489 0.494434 0
M  V30 5479 H 512.624 -3.24988 -0.324099 0
M  V30 5480 H 511.283 -3.18941 1.80755 0
M  V30 5481 H 510.931 -5.0278 0.148877 0
M  V30 5482 H 510.631 -5.58942 1.81267 0
M  V30 5483 H 512.155 -6.02546 0.988479 0
M  V30 5484 H 513.569 -4.90659 2.96524 0
M  V30 5485 H 511.966 -4.70147 3.72937 0
M  V30 5486 H 513.036 -3.29885 3.55392 0
M  V30 5487 N 514.379 -1.04941 -1.1758 0
M  V30 5488 C 515.609 -0.777166 -1.91425 0
M  V30 5489 C 516.017 0.670647 -1.76915 0
M  V30 5490 O 515.36 1.46965 -1.10213 0
M  V30 5491 C 515.422 -1.07495 -3.43052 0
M  V30 5492 C 515.086 -2.51844 -3.81345 0
M  V30 5493 C 516.083 -3.50047 -3.844 0
M  V30 5494 C 513.768 -2.86787 -4.12382 0
M  V30 5495 C 515.762 -4.81239 -4.17957 0
M  V30 5496 C 513.449 -4.18182 -4.45608 0
M  V30 5497 C 514.447 -5.15219 -4.48373 0
M  V30 5498 O 514.135 -6.44258 -4.80819 0
M  V30 5499 H 513.867 -0.282209 -0.614275 0
M  V30 5500 H 516.421 -1.40258 -1.50056 0
M  V30 5501 H 514.651 -0.392437 -3.84704 0
M  V30 5502 H 516.34 -0.78912 -3.98155 0
M  V30 5503 H 517.106 -3.24391 -3.60548 0
M  V30 5504 H 512.985 -2.11922 -4.09402 0
M  V30 5505 H 516.529 -5.56974 -4.2003 0
M  V30 5506 H 512.426 -4.43602 -4.68922 0
M  V30 5507 H 513.194 -6.49041 -4.98686 0
M  V30 5508 N 515.857 1.33968 -0.830081 0
M  V30 5509 C 517.273 1.51003 -0.516742 0
M  V30 5510 C 517.473 1.77286 0.957694 0
M  V30 5511 O 516.529 1.82797 1.74188 0
M  V30 5512 C 517.842 2.67036 -1.38247 0
M  V30 5513 C 519.39 2.80919 -1.38034 0
M  V30 5514 C 519.865 4.00004 -2.23071 0
M  V30 5515 N 521.356 4.07224 -2.20733 0
M  V30 5516 C 522.091 4.98541 -2.83275 0
M  V30 5517 N 521.587 5.95033 -3.54835 0
M  V30 5518 N 523.38 4.91469 -2.72791 0
M  V30 5519 H 515.531 1.15168 -1.78466 0
M  V30 5520 H 517.794 0.565443 -0.760906 0
M  V30 5521 H 517.5 2.54266 -2.42985 0
M  V30 5522 H 517.374 3.62226 -1.05225 0
M  V30 5523 H 519.761 2.93127 -0.340713 0
M  V30 5524 H 519.842 1.86517 -1.75057 0
M  V30 5525 H 519.486 3.88557 -3.27087 0
M  V30 5526 H 519.416 4.93634 -1.83394 0
M  V30 5527 H 521.907 3.38162 -1.68687 0
M  V30 5528 H 522.22 6.61357 -3.99784 0
M  V30 5529 H 520.565 5.95135 -3.58942 0
M  V30 5530 H 523.756 4.15048 -2.16456 0
M  V30 5531 H 523.929 5.62439 -3.21818 0
M  V30 5532 N 517.335 0.585699 1.46312 0
M  V30 5533 C 518.581 0.0725284 2.0267 0
M  V30 5534 C 518.914 -1.28523 1.45586 0
M  V30 5535 O 518.189 -1.84283 0.622101 0
M  V30 5536 C 518.472 0.0099788 3.60099 0
M  V30 5537 C 518.325 1.39685 4.27561 0
M  V30 5538 C 519.644 -0.689117 4.34671 0
M  V30 5539 H 516.763 0.0278307 0.736474 0
M  V30 5540 H 519.405 0.753472 1.74421 0
M  V30 5541 H 517.555 -0.56992 3.84297 0
M  V30 5542 H 519.227 2.02215 4.14617 0
M  V30 5543 H 517.47 1.96374 3.86807 0
M  V30 5544 H 518.141 1.30553 5.36339 0
M  V30 5545 H 520.617 -0.196446 4.15636 0
M  V30 5546 H 519.493 -0.701921 5.44393 0
M  V30 5547 H 519.754 -1.75101 4.05946 0
M  V30 5548 N 518.813 -1.54241 0.323641 0
M  V30 5549 C 520.061 -2.00174 -0.278359 0
M  V30 5550 C 520.382 -1.2134 -1.52648 0
M  V30 5551 O 519.652 -0.315244 -1.93347 0
M  V30 5552 H 518.232 -0.739463 -0.105845 0
M  V30 5553 H 520.894 -1.89864 0.440204 0
M  V30 5554 H 519.99 -3.07486 -0.5347 0
M  V30 5555 N 520.291 -0.0518155 -1.57515 0
M  V30 5556 C 521.254 0.907547 -2.10467 0
M  V30 5557 C 522.254 1.23947 -1.02439 0
M  V30 5558 O 523.444 1.17604 -1.2851 0
M  V30 5559 C 520.576 2.21723 -2.58944 0
M  V30 5560 H 521.769 0.44851 -2.96527 0
M  V30 5561 H 519.322 0.196598 -1.55059 0
M  V30 5562 H 520.057 2.72206 -1.76279 0
M  V30 5563 H 519.842 1.98935 -3.37886 0
M  V30 5564 H 521.332 2.90441 -3.00056 0
M  V30 5565 N 521.769 1.56035 0.221574 0
M  V30 5566 C 522.719 1.8881 1.27807 0
M  V30 5567 C 523.703 0.751177 1.42289 0
M  V30 5568 O 524.895 1.01359 1.45104 0
M  V30 5569 C 522.024 2.20828 2.6285 0
M  V30 5570 C 521.11 3.40912 2.52269 0
M  V30 5571 N 521.501 4.59531 2.1134 0
M  V30 5572 C 519.799 3.44526 2.83228 0
M  V30 5573 C 520.5 5.41689 2.1201 0
M  V30 5574 N 519.476 4.814 2.52497 0
M  V30 5575 H 523.278 2.78036 0.952529 0
M  V30 5576 H 520.792 1.566 0.430134 0
M  V30 5577 H 522.789 2.42483 3.39127 0
M  V30 5578 H 521.449 1.32914 2.9625 0
M  V30 5579 H 522.46 4.8469 1.82472 0
M  V30 5580 H 519.137 2.66956 3.21 0
M  V30 5581 H 520.527 6.46643 1.82491 0
M  V30 5582 N 523.247 -0.488276 1.49845 0
M  V30 5583 C 524.493 -1.24341 1.6021 0
M  V30 5584 C 524.826 -1.91967 0.293651 0
M  V30 5585 O 524.101 -1.81323 -0.703718 0
M  V30 5586 C 524.384 -2.3005 2.77036 0
M  V30 5587 C 524.237 -1.66842 4.17713 0
M  V30 5588 C 525.556 -3.31509 2.89464 0
M  V30 5589 H 522.675 -0.450704 0.583125 0
M  V30 5590 H 525.317 -0.539673 1.82174 0
M  V30 5591 H 523.467 -2.90071 2.58439 0
M  V30 5592 H 525.139 -1.1055 4.47858 0
M  V30 5593 H 523.382 -0.972079 4.22768 0
M  V30 5594 H 524.053 -2.43576 4.95353 0
M  V30 5595 H 526.529 -2.81493 3.06433 0
M  V30 5596 H 525.405 -4.02822 3.72861 0
M  V30 5597 H 525.666 -3.94603 1.99351 0
M  V30 5598 N 524.725 -1.39134 -0.740242 0
M  V30 5599 C 525.673 -1.3757 -1.87556 0
M  V30 5600 C 526.667 -0.259593 -1.67399 0
M  V30 5601 O 527.873 -0.429349 -1.74804 0
M  V30 5602 H 524.248 -0.42947 -0.6173 0
M  V30 5603 H 526.219 -2.33345 -1.85991 0
M  V30 5604 C 524.968 -1.23087 -3.25184 0
M  V30 5605 H 524.291 -2.08237 -3.41288 0
M  V30 5606 H 525.731 -1.26049 -4.0483 0
M  V30 5607 C 524.19 0.0611471 -3.36845 0
M  V30 5608 O 524.72 1.03328 -3.88183 0
M  V30 5609 N 522.926 0.122454 -2.90342 0
M  V30 5610 H 522.473 -0.669329 -2.48752 0
M  V30 5611 H 522.431 0.986463 -2.98523 0
M  V30 5612 N 526.204 0.969867 -1.24223 0
M  V30 5613 C 527.136 2.0669 -0.99055 0
M  V30 5614 C 528.149 1.62753 0.0392222 0
M  V30 5615 O 529.338 1.77403 -0.197561 0
M  V30 5616 C 526.438 3.35589 -0.472594 0
M  V30 5617 C 525.611 4.08444 -1.56499 0
M  V30 5618 C 524.67 5.15616 -1.05007 0
M  V30 5619 O 523.696 5.41911 -1.7413 0
M  V30 5620 N 524.898 5.80383 0.116641 0
M  V30 5621 H 527.663 2.28855 -1.93508 0
M  V30 5622 H 525.224 1.13733 -1.15223 0
M  V30 5623 H 527.216 4.04542 -0.112919 0
M  V30 5624 H 525.786 3.10311 0.377617 0
M  V30 5625 H 525.006 3.33798 -2.09696 0
M  V30 5626 H 526.294 4.53882 -2.29932 0
M  V30 5627 H 525.692 5.6142 0.694589 0
M  V30 5628 H 524.249 6.50462 0.417483 0
M  V30 5629 N 527.682 1.05563 1.17022 0
M  V30 5630 C 528.612 0.681026 2.23348 0
M  V30 5631 C 529.593 -0.322983 1.67005 0
M  V30 5632 O 530.778 -0.199746 1.9317 0
M  V30 5633 C 527.908 0.0589053 3.4725 0
M  V30 5634 C 526.862 0.988082 4.16438 0
M  V30 5635 C 526.188 0.229646 5.34207 0
M  V30 5636 C 527.488 2.31388 4.68249 0
M  V30 5637 H 529.182 1.56993 2.54938 0
M  V30 5638 H 526.728 0.756302 1.2254 0
M  V30 5639 H 528.681 -0.214982 4.20851 0
M  V30 5640 H 527.405 -0.864968 3.14938 0
M  V30 5641 H 526.064 1.24659 3.44754 0
M  V30 5642 H 525.712 -0.697111 4.98146 0
M  V30 5643 H 525.412 0.848815 5.81437 0
M  V30 5644 H 526.936 -0.0368694 6.10589 0
M  V30 5645 H 528.35 2.09964 5.33468 0
M  V30 5646 H 526.747 2.88736 5.26072 0
M  V30 5647 H 527.817 2.94982 3.84855 0
M  V30 5648 N 529.16 -1.33526 0.837174 0
M  V30 5649 C 530.571 -1.80182 0.489017 0
M  V30 5650 C 530.922 -1.69285 -0.991826 0
M  V30 5651 O 530.047 -1.24113 -1.77271 0
M  V30 5652 C 530.642 -3.27149 0.880866 0
M  V30 5653 C 529.201 -3.71828 0.584872 0
M  V30 5654 C 528.348 -2.54974 1.09011 0
M  V30 5655 H 531.299 -1.21071 1.02603 0
M  V30 5656 H 531.32 -3.80024 0.190239 0
M  V30 5657 H 530.832 -3.35048 1.95869 0
M  V30 5658 H 528.933 -3.69457 -0.48295 0
M  V30 5659 H 529.046 -4.65366 1.13892 0
M  V30 5660 H 527.41 -2.4952 0.511047 0
M  V30 5661 H 528.193 -2.65637 2.17467 0
M  V30 5662 N 530.638 -0.59345 -1.46 0
M  V30 5663 C 531.884 -0.0832754 -2.02629 0
M  V30 5664 C 532.217 1.27749 -1.46266 0
M  V30 5665 O 531.492 1.8395 -0.631866 0
M  V30 5666 C 531.775 -0.0290756 -3.60088 0
M  V30 5667 C 531.628 -1.41951 -4.26814 0
M  V30 5668 C 532.947 0.666055 -4.35031 0
M  V30 5669 H 530.066 -0.031736 -0.736316 0
M  V30 5670 H 532.708 -0.762711 -1.74019 0
M  V30 5671 H 530.858 0.549532 -3.84594 0
M  V30 5672 H 532.53 -2.04411 -4.13538 0
M  V30 5673 H 530.773 -1.98422 -3.8576 0
M  V30 5674 H 531.444 -1.33395 -5.3564 0
M  V30 5675 H 533.92 0.174401 -4.15734 0
M  V30 5676 H 532.796 0.673041 -5.44758 0
M  V30 5677 H 533.057 1.72946 -4.06869 0
M  V30 5678 N 532.116 1.54067 -0.331816 0
M  V30 5679 C 533.064 2.26105 0.54582 0
M  V30 5680 C 534.058 1.27816 1.11173 0
M  V30 5681 O 535.264 1.45565 1.05882 0
M  V30 5682 H 531.639 0.726363 0.194683 0
M  V30 5683 H 533.61 2.98282 -0.083931 0
M  V30 5684 C 532.359 3.03814 1.69092 0
M  V30 5685 H 531.682 3.79269 1.26473 0
M  V30 5686 H 533.122 3.57453 2.28043 0
M  V30 5687 C 531.581 2.12606 2.61343 0
M  V30 5688 O 532.111 1.71437 3.6328 0
M  V30 5689 N 530.317 1.77925 2.29763 0
M  V30 5690 H 529.864 2.11602 1.46909 0
M  V30 5691 H 529.822 1.1718 2.91747 0
M  V30 5692 N 533.594 0.0601682 1.57485 0
M  V30 5693 C 535.01 -0.296422 1.56823 0
M  V30 5694 C 535.21 -1.70831 1.0686 0
M  V30 5695 O 534.266 -2.4174 0.729245 0
M  V30 5696 C 535.579 -0.116681 3.00474 0
M  V30 5697 C 537.127 -0.187103 3.1244 0
M  V30 5698 C 537.602 -0.035783 4.57986 0
M  V30 5699 N 539.093 -0.0917676 4.63109 0
M  V30 5700 C 539.828 0.00107251 5.734 0
M  V30 5701 N 539.324 0.146773 6.92645 0
M  V30 5702 N 541.117 -0.0551577 5.62073 0
M  V30 5703 H 533.268 0.983055 1.88281 0
M  V30 5704 H 535.531 0.382386 0.867459 0
M  V30 5705 H 535.237 0.85712 3.41096 0
M  V30 5706 H 535.111 -0.873929 3.66936 0
M  V30 5707 H 537.498 -1.15138 2.71712 0
M  V30 5708 H 537.579 0.601052 2.48638 0
M  V30 5709 H 537.223 0.925212 4.99402 0
M  V30 5710 H 537.153 -0.843196 5.19806 0
M  V30 5711 H 539.644 -0.203261 3.77353 0
M  V30 5712 H 539.957 0.210076 7.72514 0
M  V30 5713 H 538.302 0.181979 6.94762 0
M  V30 5714 H 541.493 -0.167605 4.678 0
M  V30 5715 H 541.666 0.020652 6.47997 0
M  V30 5716 N 535.072 -1.5615 -0.213296 0
M  V30 5717 C 536.483 -1.69645 -0.779582 0
M  V30 5718 C 536.834 -0.663615 -1.84636 0
M  V30 5719 O 535.959 0.183633 -2.15619 0
M  V30 5720 C 536.554 -3.07567 -1.42084 0
M  V30 5721 C 535.113 -3.22889 -1.93442 0
M  V30 5722 C 534.26 -2.65581 -0.797612 0
M  V30 5723 H 537.211 -1.58696 0.0114951 0
M  V30 5724 H 537.232 -3.03884 -2.28986 0
M  V30 5725 H 536.744 -3.82716 -0.644187 0
M  V30 5726 H 534.845 -2.52623 -2.73884 0
M  V30 5727 H 534.958 -4.30197 -2.10872 0
M  V30 5728 H 533.322 -2.24278 -1.20712 0
M  V30 5729 H 534.105 -3.43284 -0.033494 0
M  V30 5730 N 536.55 0.480323 -1.50102 0
M  V30 5731 C 537.497 1.57946 -1.6829 0
M  V30 5732 C 538.467 1.57611 -0.524223 0
M  V30 5733 O 539.652 1.75282 -0.753709 0
M  V30 5734 C 536.792 2.95978 -1.77457 0
M  V30 5735 C 535.905 3.06173 -3.04766 0
M  V30 5736 C 535.04 4.35063 -3.04784 0
M  V30 5737 C 534.079 4.38966 -4.26586 0
M  V30 5738 N 533.216 5.59314 -4.24396 0
M  V30 5739 H 538.056 1.41743 -2.62131 0
M  V30 5740 H 535.593 0.689304 -1.2995 0
M  V30 5741 H 537.551 3.76011 -1.80752 0
M  V30 5742 H 536.181 3.10837 -0.870637 0
M  V30 5743 H 535.233 2.19071 -3.10986 0
M  V30 5744 H 536.545 3.04916 -3.9475 0
M  V30 5745 H 535.699 5.23436 -3.06757 0
M  V30 5746 H 534.438 4.38915 -2.12614 0
M  V30 5747 H 533.443 3.48992 -4.24835 0
M  V30 5748 H 534.668 4.36813 -5.19972 0
M  V30 5749 H 532.614 5.63969 -3.35074 0
M  V30 5750 H 532.531 5.5976 -5.08138 0
M  V30 5751 H 533.799 6.49837 -4.30502 0
M  V30 5752 N 538.028 1.39524 0.732853 0
M  V30 5753 C 538.976 1.38563 1.86824 0
M  V30 5754 C 539.97 0.268467 1.67259 0
M  V30 5755 O 541.176 0.438613 1.74574 0
M  V30 5756 H 537.551 0.432737 0.615014 0
M  V30 5757 H 539.522 2.34328 1.84751 0
M  V30 5758 C 538.271 1.2481 3.24527 0
M  V30 5759 H 537.594 2.10044 3.40179 0
M  V30 5760 H 539.034 1.28194 4.04156 0
M  V30 5761 C 537.493 -0.0432825 3.36872 0
M  V30 5762 O 538.023 -1.01268 3.88726 0
M  V30 5763 N 536.229 -0.107055 2.90403 0
M  V30 5764 H 535.776 0.682512 2.48394 0
M  V30 5765 H 535.734 -0.970618 2.99042 0
M  V30 5766 N 539.506 -0.963266 1.24736 0
M  V30 5767 C 540.469 -2.04013 1.04457 0
M  V30 5768 C 541.469 -1.608 0.000335555 0
M  V30 5769 O 542.659 -1.72515 0.241719 0
M  V30 5770 C 539.791 -3.35858 0.584162 0
M  V30 5771 H 540.984 -2.23436 2.00041 0
M  V30 5772 H 538.537 -1.13914 1.07021 0
M  V30 5773 H 539.272 -3.22128 -0.374673 0
M  V30 5774 H 539.057 -3.68568 1.3379 0
M  V30 5775 H 540.547 -4.1502 0.463451 0
M  V30 5776 N 540.985 -1.06182 -1.16461 0
M  V30 5777 C 542.231 -0.779015 -1.87241 0
M  V30 5778 C 542.564 0.692715 -1.81425 0
M  V30 5779 O 541.839 1.5074 -1.22913 0
M  V30 5780 C 542.122 -1.2728 -3.36856 0
M  V30 5781 C 541.975 -2.80821 -3.51368 0
M  V30 5782 C 543.294 -0.879799 -4.31216 0
M  V30 5783 H 540.413 -0.284464 -0.679889 0
M  V30 5784 H 543.055 -1.31755 -1.36896 0
M  V30 5785 H 541.205 -0.814673 -3.79862 0
M  V30 5786 H 542.877 -3.34833 -3.17308 0
M  V30 5787 H 541.12 -3.19606 -2.93316 0
M  V30 5788 H 541.791 -3.10435 -4.56436 0
M  V30 5789 H 544.267 -1.27436 -3.96105 0
M  V30 5790 H 543.143 -1.25278 -5.34412 0
M  V30 5791 H 543.404 0.215372 -4.41575 0
M  V30 5792 N 542.463 1.3308 -0.844243 0
M  V30 5793 C 543.413 2.26589 -0.253289 0
M  V30 5794 C 544.397 1.49501 0.594836 0
M  V30 5795 O 545.589 1.71291 0.445924 0
M  V30 5796 C 542.718 3.38599 0.566176 0
M  V30 5797 C 541.804 4.23081 -0.293756 0
M  V30 5798 N 542.195 4.86751 -1.37505 0
M  V30 5799 C 540.493 4.45925 -0.0817086 0
M  V30 5800 C 541.194 5.49684 -1.90323 0
M  V30 5801 N 540.17 5.30101 -1.20391 0
M  V30 5802 H 543.972 2.73334 -1.08009 0
M  V30 5803 H 541.486 1.47048 -0.689258 0
M  V30 5804 H 543.483 4.04584 1.00587 0
M  V30 5805 H 542.143 2.93401 1.39089 0
M  V30 5806 H 543.154 4.87151 -1.75796 0
M  V30 5807 H 539.831 4.11434 0.709129 0
M  V30 5808 H 541.221 6.10363 -2.80902 0
M  V30 5809 N 543.941 0.601185 1.45683 0
M  V30 5810 C 544.889 -0.133955 2.32214 0
M  V30 5811 C 545.883 -0.866034 1.45589 0
M  V30 5812 O 547.089 -0.782326 1.6211 0
M  V30 5813 H 543.464 -0.0620613 0.749435 0
M  V30 5814 H 545.435 0.614389 2.92007 0
M  V30 5815 C 544.184 -1.12216 3.29094 0
M  V30 5816 H 543.507 -0.568273 3.95741 0
M  V30 5817 H 544.947 -1.60659 3.92383 0
M  V30 5818 C 543.406 -2.19251 2.55794 0
M  V30 5819 O 543.936 -3.26894 2.33459 0
M  V30 5820 N 542.142 -1.9436 2.16039 0
M  V30 5821 H 541.689 -1.06829 2.34404 0
M  V30 5822 H 541.647 -2.66181 1.67318 0
M  V30 5823 N 545.419 -1.53889 0.339982 0
M  V30 5824 C 546.649 -2.04973 -0.258738 0
M  V30 5825 C 547.057 -1.21485 -1.45045 0
M  V30 5826 O 546.4 -0.2422 -1.82096 0
M  V30 5827 C 546.462 -3.51783 -0.740853 0
M  V30 5828 C 546.126 -4.55802 0.330734 0
M  V30 5829 C 547.123 -5.06512 1.17226 0
M  V30 5830 C 544.808 -4.99966 0.483637 0
M  V30 5831 C 546.802 -5.99963 2.15227 0
M  V30 5832 C 544.489 -5.93229 1.46704 0
M  V30 5833 C 545.487 -6.43115 2.29981 0
M  V30 5834 O 545.175 -7.34545 3.26649 0
M  V30 5835 H 544.907 -0.673807 -0.0544037 0
M  V30 5836 H 547.461 -1.99492 0.489107 0
M  V30 5837 H 545.691 -3.54717 -1.53988 0
M  V30 5838 H 547.38 -3.85857 -1.25973 0
M  V30 5839 H 548.146 -4.73158 1.0652 0
M  V30 5840 H 544.025 -4.6074 -0.15471 0
M  V30 5841 H 547.569 -6.38825 2.80265 0
M  V30 5842 H 543.466 -6.25998 1.57468 0
M  V30 5843 H 544.234 -7.52468 3.22078 0
M  V30 5844 N 546.897 -0.0685191 -1.57451 0
M  V30 5845 C 547.86 0.885173 -2.11417 0
M  V30 5846 C 548.86 1.22853 -1.03748 0
M  V30 5847 O 550.05 1.16235 -1.2975 0
M  V30 5848 C 547.182 2.18964 -2.61281 0
M  V30 5849 H 548.375 0.417034 -2.96986 0
M  V30 5850 H 545.928 0.18014 -1.55258 0
M  V30 5851 H 546.663 2.70321 -1.79156 0
M  V30 5852 H 546.448 1.9534 -3.39977 0
M  V30 5853 H 547.938 2.87242 -3.0312 0
M  V30 5854 N 548.375 1.56261 0.205012 0
M  V30 5855 C 549.622 1.8004 0.926927 0
M  V30 5856 C 549.95 0.640086 1.83666 0
M  V30 5857 O 549.205 -0.374702 1.92079 0
M  V30 5858 C 549.504 3.09722 1.78345 0
M  V30 5859 C 549.17 4.39082 1.02555 0
M  V30 5860 C 547.832 4.74226 0.816256 0
M  V30 5861 C 550.184 5.18877 0.491559 0
M  V30 5862 C 547.512 5.86668 0.0613287 0
M  V30 5863 C 549.864 6.32105 -0.250107 0
M  V30 5864 C 548.528 6.6584 -0.470508 0
M  V30 5865 H 547.798 0.658812 0.339187 0
M  V30 5866 H 550.445 1.90515 0.19395 0
M  V30 5867 H 548.75 2.9444 2.5848 0
M  V30 5868 H 550.447 3.25324 2.34446 0
M  V30 5869 H 547.037 4.11497 1.19868 0
M  V30 5870 H 551.221 4.92147 0.640684 0
M  V30 5871 H 546.477 6.11283 -0.119501 0
M  V30 5872 H 550.651 6.93157 -0.671307 0
M  V30 5873 H 548.278 7.5281 -1.05739 0
M  V30 5874 N 549.853 -0.472356 1.50355 0
M  V30 5875 C 550.763 -1.59637 1.7191 0
M  V30 5876 C 551.779 -1.63247 0.602195 0
M  V30 5877 O 552.955 -1.81139 0.880369 0
M  V30 5878 C 550.02 -2.9586 1.80742 0
M  V30 5879 C 549.081 -3.02649 3.04471 0
M  V30 5880 C 548.314 -4.32374 3.12872 0
M  V30 5881 O 548.537 -5.22807 2.28099 0
M  V30 5882 O 547.471 -4.44728 4.05587 0
M  V30 5883 H 551.297 -1.44373 2.67189 0
M  V30 5884 H 548.882 -0.651717 1.34436 0
M  V30 5885 H 550.764 -3.7677 1.88739 0
M  V30 5886 H 549.439 -3.11325 0.88647 0
M  V30 5887 H 548.346 -2.20821 3.01975 0
M  V30 5888 H 549.679 -2.92119 3.9614 0
M  V30 5889 N 551.331 -1.39911 -0.725443 0
M  V30 5890 C 552.579 -1.37382 -1.48224 0
M  V30 5891 C 552.9 0.0264107 -1.94982 0
M  V30 5892 O 552.17 0.979408 -1.6966 0
M  V30 5893 H 550.75 -0.505596 -0.549892 0
M  V30 5894 H 553.412 -1.7487 -0.860608 0
M  V30 5895 H 552.508 -2.04254 -2.3598 0
M  V30 5896 N 552.809 0.956637 -1.25245 0
M  V30 5897 C 553.741 2.05628 -1.01242 0
M  V30 5898 C 554.754 1.62785 0.0219579 0
M  V30 5899 O 555.943 1.77184 -0.216365 0
M  V30 5900 C 553.043 3.35069 -0.508161 0
M  V30 5901 C 552.216 4.06761 -1.60823 0
M  V30 5902 C 551.275 5.14473 -1.1047 0
M  V30 5903 O 550.301 5.40033 -1.79868 0
M  V30 5904 N 551.503 5.80474 0.0550773 0
M  V30 5905 H 554.268 2.2679 -1.95925 0
M  V30 5906 H 551.829 1.12505 -1.16423 0
M  V30 5907 H 553.821 4.044 -0.155819 0
M  V30 5908 H 552.391 3.10694 0.344683 0
M  V30 5909 H 551.611 3.31555 -2.13224 0
M  V30 5910 H 552.899 4.51418 -2.34733 0
M  V30 5911 H 552.297 5.62125 0.635004 0
M  V30 5912 H 550.854 6.50868 0.348469 0
M  V30 5913 N 554.287 1.06798 1.15896 0
M  V30 5914 C 555.22 0.627503 2.19403 0
M  V30 5915 C 556.198 -0.352352 1.58736 0
M  V30 5916 O 557.382 -0.260111 1.86697 0
M  V30 5917 C 554.509 -0.079356 3.38607 0
M  V30 5918 C 553.555 0.858057 4.17779 0
M  V30 5919 S 554.388 2.35605 4.80885 0
M  V30 5920 C 555.544 1.66083 6.03463 0
M  V30 5921 H 555.777 1.50441 2.56427 0
M  V30 5922 H 553.31 0.881427 1.26768 0
M  V30 5923 H 555.268 -0.48095 4.07673 0
M  V30 5924 H 553.929 -0.932524 2.99938 0
M  V30 5925 H 553.122 0.310108 5.03045 0
M  V30 5926 H 552.724 1.19977 3.54234 0
M  V30 5927 H 555.016 0.969337 6.7053 0
M  V30 5928 H 555.959 2.49159 6.62816 0
M  V30 5929 H 556.367 1.14122 5.52844 0
M  V30 5930 N 555.766 -1.3263 0.851289 0
M  V30 5931 C 557.012 -1.98061 0.462963 0
M  V30 5932 C 557.367 -1.66162 -0.969948 0
M  V30 5933 O 556.66 -0.937723 -1.67085 0
M  V30 5934 C 556.854 -3.51713 0.635015 0
M  V30 5935 C 556.683 -3.98544 2.0831 0
M  V30 5936 C 555.453 -4.25787 2.72091 0
M  V30 5937 C 557.651 -4.13858 3.0533 0
M  V30 5938 N 555.633 -4.58842 4.07845 0
M  V30 5939 C 557.004 -4.50412 4.26063 0
M  V30 5940 C 559.059 -3.96182 3.0157 0
M  V30 5941 C 557.762 -4.71136 5.43529 0
M  V30 5942 C 559.788 -4.18088 4.18278 0
M  V30 5943 C 559.15 -4.54956 5.37768 0
M  V30 5944 H 555.249 -0.750976 0.218082 0
M  V30 5945 H 557.833 -1.60514 1.10197 0
M  V30 5946 H 556.004 -3.88391 0.0257298 0
M  V30 5947 H 557.736 -4.04118 0.216915 0
M  V30 5948 H 554.491 -4.17734 2.23149 0
M  V30 5949 H 554.915 -4.7956 4.77862 0
M  V30 5950 H 559.557 -3.66783 2.1031 0
M  V30 5951 H 557.275 -4.9939 6.35323 0
M  V30 5952 H 560.861 -4.05918 4.168 0
M  V30 5953 H 559.741 -4.71567 6.26573 0
M  V30 5954 N 557.244 -0.608902 -1.45362 0
M  V30 5955 C 558.474 -0.110852 -2.06302 0
M  V30 5956 C 558.882 1.21062 -1.45398 0
M  V30 5957 O 558.225 1.74861 -0.562976 0
M  V30 5958 C 558.287 0.101793 -3.59356 0
M  V30 5959 C 557.951 -1.13808 -4.42602 0
M  V30 5960 C 558.948 -2.05653 -4.77496 0
M  V30 5961 C 556.633 -1.36727 -4.83333 0
M  V30 5962 C 558.627 -3.18745 -5.51978 0
M  V30 5963 C 556.314 -2.5012 -5.57569 0
M  V30 5964 C 557.312 -3.40957 -5.91809 0
M  V30 5965 O 557 -4.52376 -6.64538 0
M  V30 5966 H 556.732 -0.0666001 -0.672711 0
M  V30 5967 H 559.286 -0.836942 -1.87575 0
M  V30 5968 H 557.516 0.88279 -3.76489 0
M  V30 5969 H 559.205 0.551607 -4.02134 0
M  V30 5970 H 559.971 -1.89172 -4.46586 0
M  V30 5971 H 555.85 -0.669216 -4.56117 0
M  V30 5972 H 559.394 -3.8967 -5.78622 0
M  V30 5973 H 555.291 -2.66553 -5.87894 0
M  V30 5974 H 556.059 -4.51075 -6.82989 0
M  V30 5975 N 558.722 1.53707 -0.348139 0
M  V30 5976 C 559.999 1.93247 0.302475 0
M  V30 5977 C 560.379 1.28012 1.67857 0
M  V30 5978 O 559.727 0.43274 2.24365 0
M  V30 5979 C 559.937 3.47031 0.370159 0
M  V30 5980 C 561.285 4.20066 0.61882 0
M  V30 5981 O 562.309 3.53319 0.452087 0
M  V30 5982 O 561.168 5.38318 0.94215 0
M  V30 5983 H 558.262 0.807736 0.177458 0
M  V30 5984 H 560.808 1.64927 -0.399651 0
M  V30 5985 H 559.58 3.86745 -0.59534 0
M  V30 5986 H 559.203 3.81532 1.11888 0
M  V30 5987 N 560.2 0.0768682 1.57412 0
M  V30 5988 C 561.15 -0.898795 2.09537 0
M  V30 5989 C 562.134 -1.25556 1.0062 0
M  V30 5990 O 563.326 -1.23369 1.26921 0
M  V30 5991 C 560.455 -2.16453 2.66464 0
M  V30 5992 C 559.541 -1.83401 3.82393 0
M  V30 5993 N 559.932 -1.20823 4.91157 0
M  V30 5994 C 558.23 -2.13121 3.91785 0
M  V30 5995 C 558.931 -1.05976 5.71965 0
M  V30 5996 N 557.907 -1.57113 5.204 0
M  V30 5997 H 561.709 -0.410718 2.91016 0
M  V30 5998 H 559.223 -0.126878 1.61904 0
M  V30 5999 H 561.22 -2.87274 3.02125 0
M  V30 6000 H 559.88 -2.65844 1.86433 0
M  V30 6001 H 560.891 -0.877249 5.10416 0
M  V30 6002 H 557.568 -2.64854 3.22736 0
M  V30 6003 H 558.958 -0.571809 6.69462 0
M  V30 6004 N 561.678 -1.56367 -0.196722 0
M  V30 6005 C 562.906 -1.84639 -0.933608 0
M  V30 6006 C 563.321 -0.659164 -1.76919 0
M  V30 6007 O 562.678 0.372142 -1.78665 0
M  V30 6008 C 562.729 -3.11694 -1.83109 0
M  V30 6009 O 562.45 -4.25838 -1.02924 0
M  V30 6010 C 563.951 -3.53132 -2.67979 0
M  V30 6011 H 561.171 -0.613188 -0.272473 0
M  V30 6012 H 563.715 -2.03475 -0.204465 0
M  V30 6013 H 561.87 -2.94759 -2.51387 0
M  V30 6014 H 562.284 -4.98178 -1.64069 0
M  V30 6015 H 563.758 -4.45005 -3.26611 0
M  V30 6016 H 564.235 -2.76045 -3.41608 0
M  V30 6017 H 564.841 -3.72592 -2.05074 0
M  V30 6018 N 563.156 0.464375 -1.50603 0
M  V30 6019 C 564.404 1.21356 -1.61608 0
M  V30 6020 C 564.725 1.92329 -0.321643 0
M  V30 6021 O 563.995 1.84403 0.661232 0
M  V30 6022 H 562.575 0.45094 -0.595535 0
M  V30 6023 H 565.237 0.535046 -1.87412 0
M  V30 6024 H 564.333 1.95783 -2.43054 0
M  V30 6025 N 564.634 1.40294 0.718013 0
M  V30 6026 C 565.911 1.2894 1.47084 0
M  V30 6027 C 566.291 -0.0933625 2.10893 0
M  V30 6028 O 565.639 -1.10598 1.99951 0
M  V30 6029 C 565.849 2.4264 2.50852 0
M  V30 6030 C 567.197 2.8276 3.16752 0
M  V30 6031 O 568.221 2.42215 2.61171 0
M  V30 6032 O 567.08 3.528 4.17366 0
M  V30 6033 H 564.174 0.506236 0.653952 0
M  V30 6034 H 566.72 1.52208 0.750394 0
M  V30 6035 H 565.492 3.35009 2.022 0
M  V30 6036 H 565.115 2.21129 3.30435 0
M  V30 6037 N 566.112 -0.949982 1.2575 0
M  V30 6038 C 567.528 -1.22191 1.02672 0
M  V30 6039 C 567.728 -1.99898 -0.253588 0
M  V30 6040 O 566.784 -2.33329 -0.965076 0
M  V30 6041 C 568.097 -1.99175 2.25277 0
M  V30 6042 C 569.645 -2.12201 2.30087 0
M  V30 6043 C 570.12 -2.92586 3.5236 0
M  V30 6044 N 571.611 -3.00163 3.52784 0
M  V30 6045 C 572.346 -3.62766 4.44059 0
M  V30 6046 N 571.842 -4.26943 5.45611 0
M  V30 6047 N 573.635 -3.59953 4.3173 0
M  V30 6048 H 565.786 -0.430258 2.07996 0
M  V30 6049 H 568.049 -0.252844 0.91366 0
M  V30 6050 H 567.755 -1.49479 3.18354 0
M  V30 6051 H 567.629 -2.99868 2.28821 0
M  V30 6052 H 570.016 -2.61093 1.3753 0
M  V30 6053 H 570.097 -1.10799 2.30559 0
M  V30 6054 H 569.741 -2.44383 4.45241 0
M  V30 6055 H 569.671 -3.94224 3.49134 0
M  V30 6056 H 572.162 -2.54529 2.79327 0
M  V30 6057 H 572.475 -4.72583 6.11461 0
M  V30 6058 H 570.82 -4.25557 5.49478 0
M  V30 6059 H 574.011 -3.09003 3.51617 0
M  V30 6060 H 574.184 -4.08455 5.03059 0
M  V30 6061 N 567.59 -1.07411 -1.15328 0
M  V30 6062 C 568.815 -0.818856 -1.90551 0
M  V30 6063 C 569.24 0.622194 -1.77512 0
M  V30 6064 O 568.598 1.43484 -1.10824 0
M  V30 6065 C 568.646 -1.23267 -3.38877 0
M  V30 6066 O 567.75 -0.378345 -4.10661 0
M  V30 6067 H 567.091 -0.29827 -0.593238 0
M  V30 6068 H 569.621 -1.43289 -1.46046 0
M  V30 6069 H 569.631 -1.20912 -3.89672 0
M  V30 6070 H 568.306 -2.28226 -3.47686 0
M  V30 6071 H 566.883 -0.464437 -3.69996 0
M  V30 6072 N 569.068 1.32177 -0.85831 0
M  V30 6073 C 570.296 2.01313 -0.477582 0
M  V30 6074 C 570.711 1.6449 0.926736 0
M  V30 6075 O 570.068 0.868096 1.60531 0
M  V30 6076 C 570.119 3.56293 -0.611337 0
M  V30 6077 O 569.84 3.91794 -1.96034 0
M  V30 6078 C 571.341 4.42702 -0.230093 0
M  V30 6079 H 568.561 0.644323 -0.187322 0
M  V30 6080 H 571.105 1.68674 -1.15626 0
M  V30 6081 H 569.26 3.87395 0.0196494 0
M  V30 6082 H 569.674 4.86513 -1.95973 0
M  V30 6083 H 571.148 5.50727 -0.374674 0
M  V30 6084 H 571.625 4.3129 0.829779 0
M  V30 6085 H 572.231 4.16997 -0.836302 0
M  V30 6086 N 570.547 0.616602 1.45037 0
M  V30 6087 C 571.777 0.121791 2.06241 0
M  V30 6088 C 572.185 -1.20289 1.46038 0
M  V30 6089 O 571.528 -1.7456 0.572242 0
M  V30 6090 C 571.59 -0.0827345 3.59405 0
M  V30 6091 C 571.254 1.16153 4.41993 0
M  V30 6092 C 572.251 2.08183 4.76399 0
M  V30 6093 C 569.936 1.39288 4.82601 0
M  V30 6094 C 571.93 3.21668 5.5028 0
M  V30 6095 C 569.617 2.53073 5.56235 0
M  V30 6096 C 570.615 3.44091 5.89992 0
M  V30 6097 O 570.303 4.55894 6.6213 0
M  V30 6098 H 570.035 0.0701667 0.672349 0
M  V30 6099 H 572.589 0.846877 1.87129 0
M  V30 6100 H 570.819 -0.862812 3.76952 0
M  V30 6101 H 572.508 -0.530273 4.02421 0
M  V30 6102 H 573.274 1.91538 4.45576 0
M  V30 6103 H 569.153 0.693396 4.55755 0
M  V30 6104 H 572.697 3.92733 5.76547 0
M  V30 6105 H 568.594 2.69667 5.86472 0
M  V30 6106 H 569.362 4.5469 6.80587 0
M  V30 6107 N 572.025 -1.5352 0.356285 0
M  V30 6108 C 573.271 -2.01414 -0.236653 0
M  V30 6109 C 573.604 -1.24339 -1.49176 0
M  V30 6110 O 572.879 -0.334496 -1.91602 0
M  V30 6111 C 573.162 -3.56059 -0.537982 0
M  V30 6112 C 573.015 -4.43835 0.730112 0
M  V30 6113 C 574.334 -4.19127 -1.34239 0
M  V30 6114 H 571.453 -0.732135 -0.0845386 0
M  V30 6115 H 574.095 -1.83854 0.479341 0
M  V30 6116 H 572.245 -3.71153 -1.14795 0
M  V30 6117 H 573.917 -4.40555 1.36782 0
M  V30 6118 H 572.16 -4.1218 1.3524 0
M  V30 6119 H 572.831 -5.49958 0.474358 0
M  V30 6120 H 575.307 -4.07809 -0.826498 0
M  V30 6121 H 574.183 -5.27378 -1.52198 0
M  V30 6122 H 574.444 -3.74581 -2.34822 0
M  V30 6123 N 573.503 -0.0852151 -1.57369 0
M  V30 6124 C 574.914 0.445428 -1.81309 0
M  V30 6125 C 575.265 1.68795 -1.00013 0
M  V30 6126 O 574.39 2.15211 -0.226573 0
M  V30 6127 C 574.985 0.814887 -3.28854 0
M  V30 6128 C 573.544 1.29032 -3.53592 0
M  V30 6129 C 572.691 0.282089 -2.75861 0
M  V30 6130 H 575.642 -0.310771 -1.55627 0
M  V30 6131 H 575.663 1.67524 -3.41637 0
M  V30 6132 H 575.175 -0.0896309 -3.87996 0
M  V30 6133 H 573.276 2.21289 -2.9977 0
M  V30 6134 H 573.389 1.25898 -4.62262 0
M  V30 6135 H 571.753 0.762182 -2.43029 0
M  V30 6136 H 572.536 -0.614936 -3.37748 0
M  V30 6137 N 574.981 1.5647 0.188427 0
M  V30 6138 C 575.929 1.95971 1.25293 0
M  V30 6139 C 576.923 0.846047 1.4676 0
M  V30 6140 O 578.129 1.03109 1.47542 0
M  V30 6141 H 574.504 0.623253 0.420784 0
M  V30 6142 H 576.475 2.84731 0.892792 0
M  V30 6143 C 575.224 2.32116 2.58877 0
M  V30 6144 H 574.547 3.17341 2.43176 0
M  V30 6145 H 575.987 2.63613 3.3209 0
M  V30 6146 C 574.446 1.15823 3.16365 0
M  V30 6147 O 574.976 0.436785 3.99318 0
M  V30 6148 N 573.182 0.933278 2.75206 0
M  V30 6149 H 572.729 1.52169 2.07852 0
M  V30 6150 H 572.687 0.156976 3.14008 0
M  V30 6151 N 576.459 -0.456382 1.50847 0
M  V30 6152 C 577.684 -1.2349 1.66628 0
M  V30 6153 C 578.109 -1.84715 0.355254 0
M  V30 6154 O 577.467 -1.67961 -0.682559 0
M  V30 6155 C 577.515 -2.30865 2.77009 0
M  V30 6156 O 576.619 -3.35882 2.39285 0
M  V30 6157 H 575.96 -0.36266 0.556214 0
M  V30 6158 H 578.49 -0.541374 1.97308 0
M  V30 6159 H 578.5 -2.75949 3.00526 0
M  V30 6160 H 577.175 -1.85677 3.72152 0
M  V30 6161 H 575.752 -2.96406 2.26269 0
M  V30 6162 N 577.937 -1.40673 -0.710563 0
M  V30 6163 C 578.885 -1.41517 -1.84596 0
M  V30 6164 C 579.879 -0.295043 -1.66811 0
M  V30 6165 O 581.085 -0.466331 -1.73854 0
M  V30 6166 H 577.46 -0.442467 -0.608052 0
M  V30 6167 H 579.431 -2.37238 -1.80999 0
M  V30 6168 C 578.18 -1.29957 -3.225 0
M  V30 6169 H 577.503 -2.15429 -3.36794 0
M  V30 6170 H 578.943 -1.34608 -4.02066 0
M  V30 6171 C 577.402 -0.0103164 -3.36898 0
M  V30 6172 O 577.932 0.950707 -3.90288 0
M  V30 6173 N 576.138 0.0608409 -2.90536 0
M  V30 6174 H 575.685 -0.721943 -2.47277 0
M  V30 6175 H 575.643 0.92292 -3.00549 0
M  V30 6176 N 579.415 0.9433 -1.26252 0
M  V30 6177 C 580.663 1.68592 -1.11451 0
M  V30 6178 C 580.984 1.91957 0.343123 0
M  V30 6179 O 580.254 1.51475 1.24226 0
M  V30 6180 H 578.834 0.624789 -0.409448 0
M  V30 6181 H 581.496 1.13351 -1.58548 0
M  V30 6182 H 580.592 2.66054 -1.63162 0
M  V30 6183 N 580.893 1.08022 1.14757 0
M  V30 6184 C 582.17 0.720386 1.81851 0
M  V30 6185 C 582.55 -0.796375 1.95502 0
M  V30 6186 O 581.898 -1.71339 1.51179 0
M  V30 6187 C 582.108 1.44273 3.17783 0
M  V30 6188 C 583.456 1.59925 3.93331 0
M  V30 6189 O 584.48 1.40407 3.2736 0
M  V30 6190 O 583.339 1.92096 5.11626 0
M  V30 6191 H 580.433 0.257142 0.786007 0
M  V30 6192 H 582.979 1.18155 1.21809 0
M  V30 6193 H 581.751 2.47618 3.02987 0
M  V30 6194 H 581.374 0.97279 3.85516 0
M  V30 6195 N 582.371 -1.3172 0.865308 0
M  V30 6196 C 583.596 -2.01591 0.487415 0
M  V30 6197 C 584.021 -1.6455 -0.911307 0
M  V30 6198 O 583.379 -0.851689 -1.6005 0
M  V30 6199 C 583.427 -3.54759 0.646401 0
M  V30 6200 O 582.531 -4.11185 -0.316284 0
M  V30 6201 H 581.872 -0.634884 0.194468 0
M  V30 6202 H 584.402 -1.68024 1.16744 0
M  V30 6203 H 584.412 -4.04438 0.537932 0
M  V30 6204 H 583.087 -3.8106 1.66632 0
M  V30 6205 H 581.664 -3.72543 -0.163162 0
M  V30 6206 N 583.85 -0.624285 -1.44708 0
M  V30 6207 C 585.096 -0.13473 -2.02953 0
M  V30 6208 C 585.451 1.22724 -1.48178 0
M  V30 6209 O 584.744 1.80109 -0.653542 0
M  V30 6210 C 584.938 -0.0546353 -3.57358 0
M  V30 6211 C 584.767 -1.40729 -4.27113 0
M  V30 6212 C 583.537 -1.99231 -4.64365 0
M  V30 6213 C 585.735 -2.33968 -4.58 0
M  V30 6214 N 583.716 -3.27803 -5.19055 0
M  V30 6215 C 585.088 -3.47149 -5.137 0
M  V30 6216 C 587.143 -2.33132 -4.39948 0
M  V30 6217 C 585.846 -4.59682 -5.53249 0
M  V30 6218 C 587.872 -3.44724 -4.8054 0
M  V30 6219 C 587.234 -4.56629 -5.36348 0
M  V30 6220 H 583.332 -0.0930617 -0.776443 0
M  V30 6221 H 585.917 -0.826286 -1.76297 0
M  V30 6222 H 584.088 0.606183 -3.8364 0
M  V30 6223 H 585.82 0.443116 -4.02267 0
M  V30 6224 H 582.575 -1.52251 -4.4846 0
M  V30 6225 H 582.999 -3.93519 -5.50883 0
M  V30 6226 H 587.641 -1.47868 -3.961 0
M  V30 6227 H 585.359 -5.4566 -5.96054 0
M  V30 6228 H 588.945 -3.45245 -4.68291 0
M  V30 6229 H 587.825 -5.41551 -5.67179 0
M  V30 6230 N 585.328 1.53329 -0.364422 0
M  V30 6231 C 586.553 2.06132 0.229033 0
M  V30 6232 C 586.978 1.23625 1.41769 0
M  V30 6233 O 586.336 0.255038 1.79497 0
M  V30 6234 C 586.384 3.55544 0.60174 0
M  V30 6235 O 585.488 3.75771 1.69912 0
M  V30 6236 H 584.829 0.663148 0.0336213 0
M  V30 6237 H 587.359 1.97758 -0.524689 0
M  V30 6238 H 587.369 3.98549 0.873073 0
M  V30 6239 H 586.044 4.15039 -0.267421 0
M  V30 6240 H 584.621 3.44663 1.42343 0
M  V30 6241 N 586.806 0.0935595 1.57322 0
M  V30 6242 C 588.083 -0.612692 1.85756 0
M  V30 6243 C 588.463 -1.86439 0.99013 0
M  V30 6244 O 587.811 -2.28416 0.0621362 0
M  V30 6245 C 588.021 -0.929547 3.36393 0
M  V30 6246 C 589.369 -1.29366 4.04413 0
M  V30 6247 O 590.393 -1.02061 3.41265 0
M  V30 6248 O 589.252 -1.80498 5.15832 0
M  V30 6249 H 586.346 -0.306444 0.768128 0
M  V30 6250 H 588.892 0.126141 1.69231 0
M  V30 6251 H 587.664 -0.0414766 3.91278 0
M  V30 6252 H 587.287 -1.72441 3.5826 0
M  V30 6253 N 588.284 -1.56567 -0.180126 0
M  V30 6254 C 589.194 -1.98947 -1.24327 0
M  V30 6255 C 590.21 -0.899446 -1.4895 0
M  V30 6256 O 591.386 -1.20639 -1.61271 0
M  V30 6257 C 588.451 -2.33328 -2.56435 0
M  V30 6258 C 587.512 -3.56114 -2.39752 0
M  V30 6259 C 586.745 -3.88845 -3.65561 0
M  V30 6260 O 586.968 -3.22662 -4.70368 0
M  V30 6261 O 585.902 -4.82226 -3.60197 0
M  V30 6262 H 589.728 -2.89634 -0.913565 0
M  V30 6263 H 587.313 -1.44319 -0.386306 0
M  V30 6264 H 589.195 -2.5645 -3.34382 0
M  V30 6265 H 587.87 -1.45806 -2.89002 0
M  V30 6266 H 586.777 -3.38221 -1.59866 0
M  V30 6267 H 588.11 -4.4415 -2.12113 0
M  V30 6268 N 589.762 0.448376 -1.51087 0
M  V30 6269 C 590.99 1.22143 -1.66999 0
M  V30 6270 C 591.405 1.85283 -0.362699 0
M  V30 6271 O 590.762 1.70236 0.65772 0
M  V30 6272 C 590.813 2.31357 -2.7777 0
M  V30 6273 O 590.534 1.70801 -4.03434 0
M  V30 6274 C 592.035 3.21836 -3.04855 0
M  V30 6275 H 589.255 0.368558 -0.560719 0
M  V30 6276 H 591.799 0.532618 -1.97442 0
M  V30 6277 H 589.954 2.95973 -2.49958 0
M  V30 6278 H 590.368 2.42895 -4.64868 0
M  V30 6279 H 591.842 3.94627 -3.85971 0
M  V30 6280 H 592.319 3.81949 -2.16821 0
M  V30 6281 H 592.925 2.62933 -3.34285 0
M  V30 6282 N 591.24 1.41047 0.703093 0
M  V30 6283 C 592.488 1.39723 1.4602 0
M  V30 6284 C 592.809 0.00461257 1.94999 0
M  V30 6285 O 592.079 -0.952292 1.71196 0
M  V30 6286 H 590.659 0.514281 0.541779 0
M  V30 6287 H 593.321 1.76217 0.832678 0
M  V30 6288 H 592.417 2.07982 2.32701 0
M  V30 6289 N 592.718 -0.936591 1.26751 0
M  V30 6290 C 594.129 -1.49816 1.1141 0
M  V30 6291 C 594.48 -1.9383 -0.304015 0
M  V30 6292 O 593.605 -1.80346 -1.196 0
M  V30 6293 C 594.2 -2.72271 2.01629 0
M  V30 6294 C 592.759 -3.2468 1.9042 0
M  V30 6295 C 591.906 -1.97444 1.94708 0
M  V30 6296 H 594.857 -0.751604 1.39773 0
M  V30 6297 H 594.878 -3.46741 1.56688 0
M  V30 6298 H 594.39 -2.40205 3.04833 0
M  V30 6299 H 592.491 -3.61525 0.901674 0
M  V30 6300 H 592.604 -3.91476 2.76195 0
M  V30 6301 H 590.968 -2.13545 1.38818 0
M  V30 6302 H 591.751 -1.67703 2.9955 0
M  V30 6303 N 594.196 -1.08629 -1.14182 0
M  V30 6304 C 595.442 -0.818556 -1.85546 0
M  V30 6305 C 595.775 0.654076 -1.82854 0
M  V30 6306 O 595.05 1.48099 -1.26083 0
M  V30 6307 C 595.333 -1.34397 -3.3408 0
M  V30 6308 C 595.186 -2.8821 -3.45333 0
M  V30 6309 C 596.505 -0.971069 -4.29253 0
M  V30 6310 H 593.624 -0.298821 -0.673702 0
M  V30 6311 H 596.266 -1.34629 -1.34071 0
M  V30 6312 H 594.416 -0.895064 -3.78049 0
M  V30 6313 H 596.088 -3.41488 -3.10134 0
M  V30 6314 H 594.331 -3.25756 -2.86471 0
M  V30 6315 H 595.002 -3.20047 -4.49749 0
M  V30 6316 H 597.478 -1.35809 -3.93313 0
M  V30 6317 H 596.354 -1.36586 -5.31635 0
M  V30 6318 H 596.615 0.121659 -4.41933 0
M  V30 6319 N 595.674 1.31259 -0.872281 0
M  V30 6320 C 596.951 1.91362 -0.404943 0
M  V30 6321 C 597.331 1.79362 1.11321 0
M  V30 6322 O 596.679 1.20277 1.94283 0
M  V30 6323 C 596.889 3.3749 -0.888893 0
M  V30 6324 C 598.237 4.14593 -0.916384 0
M  V30 6325 O 599.261 3.46282 -0.834701 0
M  V30 6326 O 598.12 5.3661 -1.03498 0
M  V30 6327 H 595.214 0.818016 -0.121569 0
M  V30 6328 H 597.76 1.39912 -0.960346 0
M  V30 6329 H 596.532 3.40249 -1.93251 0
M  V30 6330 H 596.155 3.96375 -0.311932 0
M  V30 6331 N 597.152 0.631951 1.44375 0
M  V30 6332 C 598.429 0.067646 1.95483 0
M  V30 6333 C 598.809 -1.40683 1.57389 0
M  V30 6334 O 598.157 -2.12167 0.848375 0
M  V30 6335 C 598.367 0.291392 3.47781 0
M  V30 6336 C 599.715 0.185028 4.24197 0
M  V30 6337 O 600.739 0.222803 3.55503 0
M  V30 6338 O 599.598 0.0906642 5.46425 0
M  V30 6339 H 596.692 -0.0218379 0.826712 0
M  V30 6340 H 599.238 0.703711 1.54421 0
M  V30 6341 H 598.01 1.31449 3.68561 0
M  V30 6342 H 597.633 -0.378772 3.95792 0
M  V30 6343 N 598.631 -1.53133 0.372548 0
M  V30 6344 C 599.879 -2.00958 -0.214534 0
M  V30 6345 C 600.2 -1.26135 -1.48711 0
M  V30 6346 O 599.47 -0.376597 -1.92246 0
M  V30 6347 H 598.05 -0.742456 -0.0822664 0
M  V30 6348 H 600.712 -1.88367 0.500385 0
M  V30 6349 H 599.808 -3.09031 -0.436605 0
M  V30 6350 N 600.109 -0.101901 -1.5727 0
M  V30 6351 C 601.355 0.554864 -1.95686 0
M  V30 6352 C 601.71 1.65368 -0.983415 0
M  V30 6353 O 601.003 1.91597 -0.0105374 0
M  V30 6354 C 601.197 1.14898 -3.38427 0
M  V30 6355 C 601.026 0.109251 -4.49567 0
M  V30 6356 C 599.796 -0.316633 -5.04307 0
M  V30 6357 C 601.994 -0.665196 -5.0998 0
M  V30 6358 N 599.976 -1.34393 -5.99009 0
M  V30 6359 C 601.347 -1.54413 -6.00464 0
M  V30 6360 C 603.402 -0.717966 -4.92696 0
M  V30 6361 C 602.105 -2.47122 -6.75517 0
M  V30 6362 C 604.131 -1.63268 -5.68417 0
M  V30 6363 C 603.493 -2.49923 -6.58572 0
M  V30 6364 H 599.592 0.17317 -0.762585 0
M  V30 6365 H 602.176 -0.18605 -1.93809 0
M  V30 6366 H 600.347 1.85969 -3.40984 0
M  V30 6367 H 602.079 1.76867 -3.64006 0
M  V30 6368 H 598.834 0.0724419 -4.73545 0
M  V30 6369 H 599.258 -1.85598 -6.51062 0
M  V30 6370 H 603.9 -0.0621637 -4.22754 0
M  V30 6371 H 601.618 -3.13724 -7.44717 0
M  V30 6372 H 605.204 -1.67874 -5.57054 0
M  V30 6373 H 604.084 -3.19553 -7.16139 0
M  V30 6374 N 601.587 1.56661 0.17182 0
M  V30 6375 C 602.497 1.99604 1.2327 0
M  V30 6376 C 603.513 0.907333 1.4847 0
M  V30 6377 O 604.689 1.21492 1.60629 0
M  V30 6378 C 601.754 2.34685 2.55194 0
M  V30 6379 C 600.815 3.57381 2.3786 0
M  V30 6380 C 600.048 3.90779 3.63494 0
M  V30 6381 O 600.271 3.25152 4.6865 0
M  V30 6382 O 599.205 4.84129 3.57634 0
M  V30 6383 H 603.031 2.90114 0.898192 0
M  V30 6384 H 600.616 1.44522 0.378647 0
M  V30 6385 H 602.498 2.5822 3.33017 0
M  V30 6386 H 601.173 1.47336 2.88225 0
M  V30 6387 H 600.08 3.39064 1.5807 0
M  V30 6388 H 601.413 4.45268 2.09754 0
M  V30 6389 N 603.065 -0.440357 1.51323 0
M  V30 6390 C 604.028 -1.51679 1.71832 0
M  V30 6391 C 605.028 -1.49648 0.588386 0
M  V30 6392 O 606.218 -1.51724 0.855891 0
M  V30 6393 C 603.35 -2.91228 1.77199 0
M  V30 6394 H 604.543 -1.34799 2.67898 0
M  V30 6395 H 602.096 -0.66883 1.41267 0
M  V30 6396 H 602.831 -3.13516 0.829363 0
M  V30 6397 H 602.616 -2.94107 2.59314 0
M  V30 6398 H 604.106 -3.69321 1.94915 0
M  V30 6399 N 604.543 -1.41418 -0.695603 0
M  V30 6400 C 605.82 -1.31264 -1.45014 0
M  V30 6401 C 606.2 0.0597994 -2.11015 0
M  V30 6402 O 605.548 1.07403 -2.01685 0
M  V30 6403 C 605.758 -2.466 -2.4696 0
M  V30 6404 C 607.106 -2.87763 -3.12214 0
M  V30 6405 O 608.13 -2.46339 -2.57285 0
M  V30 6406 O 606.989 -3.59395 -4.11701 0
M  V30 6407 H 604.083 -0.516576 -0.645816 0
M  V30 6408 H 606.629 -1.53382 -0.726084 0
M  V30 6409 H 605.401 -3.38183 -1.96845 0
M  V30 6410 H 605.024 -2.26358 -3.26876 0
M  V30 6411 N 606.021 0.929856 -1.27246 0
M  V30 6412 C 607.269 1.674 -1.13233 0
M  V30 6413 C 607.59 1.92311 0.322744 0
M  V30 6414 O 606.86 1.52784 1.22612 0
M  V30 6415 H 605.44 0.620411 -0.416052 0
M  V30 6416 H 608.102 1.11663 -1.59741 0
M  V30 6417 H 607.198 2.64308 -1.65975 0
M  V30 6418 N 607.499 1.09233 1.13605 0
M  V30 6419 C 608.727 0.848908 1.88683 0
M  V30 6420 C 609.142 -0.599667 1.79024 0
M  V30 6421 O 608.499 -1.41265 1.15544 0
M  V30 6422 C 608.55 1.27273 3.38355 0
M  V30 6423 O 608.271 2.66449 3.47759 0
M  V30 6424 C 609.772 1.0614 4.30406 0
M  V30 6425 H 606.992 0.305549 0.597395 0
M  V30 6426 H 609.536 1.4538 1.43823 0
M  V30 6427 H 607.691 0.711776 3.80805 0
M  V30 6428 H 608.105 2.84264 4.40788 0
M  V30 6429 H 609.579 1.40725 5.33761 0
M  V30 6430 H 610.056 -0.000960332 4.392 0
M  V30 6431 H 610.662 1.60821 3.93722 0
M  V30 6432 N 608.977 -1.30795 0.87923 0
M  V30 6433 C 609.907 -2.30742 0.357796 0
M  V30 6434 C 610.888 -1.60747 -0.556283 0
M  V30 6435 O 612.073 -1.88393 -0.47135 0
M  V30 6436 C 609.203 -3.44583 -0.433555 0
M  V30 6437 C 608.157 -4.26235 0.388251 0
M  V30 6438 C 607.483 -5.32073 -0.529352 0
M  V30 6439 C 608.783 -4.96303 1.62729 0
M  V30 6440 H 610.477 -2.74605 1.19299 0
M  V30 6441 H 608.023 -1.32017 0.575104 0
M  V30 6442 H 609.976 -4.13563 -0.808934 0
M  V30 6443 H 608.7 -2.99511 -1.30234 0
M  V30 6444 H 607.359 -3.58936 0.745695 0
M  V30 6445 H 607.007 -4.83249 -1.39569 0
M  V30 6446 H 606.707 -5.87598 0.0166741 0
M  V30 6447 H 608.231 -6.0391 -0.901373 0
M  V30 6448 H 609.645 -5.5783 1.32283 0
M  V30 6449 H 608.042 -5.61666 2.11309 0
M  V30 6450 H 609.112 -4.22758 2.37494 0
M  V30 6451 N 610.455 -0.639598 -1.44038 0
M  V30 6452 C 611.683 -0.154811 -2.0632 0
M  V30 6453 C 612.098 1.17406 -1.47856 0
M  V30 6454 O 611.455 1.72193 -0.604638 0
M  V30 6455 C 611.506 -0.0429958 -3.61474 0
M  V30 6456 O 611.227 -1.31932 -4.17763 0
M  V30 6457 C 612.728 0.469486 -4.40807 0
M  V30 6458 H 609.948 -0.0835862 -0.665773 0
M  V30 6459 H 612.492 -0.876397 -1.84769 0
M  V30 6460 H 610.647 0.629075 -3.82258 0
M  V30 6461 H 611.061 -1.16965 -5.11292 0
M  V30 6462 H 612.535 0.496712 -5.49761 0
M  V30 6463 H 613.012 1.49819 -4.12857 0
M  V30 6464 H 613.618 -0.169624 -4.24962 0
M  V30 6465 N 611.933 1.52934 -0.380664 0
M  V30 6466 C 613.349 1.59571 -0.0302429 0
M  V30 6467 C 613.549 1.39509 1.45394 0
M  V30 6468 O 612.605 1.20777 2.21741 0
M  V30 6469 C 613.918 2.96519 -0.499691 0
M  V30 6470 C 615.466 3.09672 -0.455204 0
M  V30 6471 C 615.941 4.49056 -0.900703 0
M  V30 6472 N 617.432 4.55215 -0.856367 0
M  V30 6473 C 618.167 5.61282 -1.17259 0
M  V30 6474 N 617.663 6.75035 -1.55885 0
M  V30 6475 N 619.456 5.51343 -1.0944 0
M  V30 6476 H 611.607 1.64224 -1.347 0
M  V30 6477 H 613.87 0.771033 -0.551554 0
M  V30 6478 H 613.576 3.16388 -1.53595 0
M  V30 6479 H 613.45 3.77052 0.105789 0
M  V30 6480 H 615.837 2.89504 0.571949 0
M  V30 6481 H 615.918 2.31113 -1.09638 0
M  V30 6482 H 615.562 4.69964 -1.92604 0
M  V30 6483 H 615.492 5.26068 -0.236629 0
M  V30 6484 H 617.983 3.73546 -0.572013 0
M  V30 6485 H 618.296 7.51926 -1.784 0
M  V30 6486 H 616.641 6.76388 -1.59764 0
M  V30 6487 H 619.832 4.61356 -0.791713 0
M  V30 6488 H 620.005 6.33905 -1.34417 0
M  V30 6489 N 613.412 0.11024 1.57214 0
M  V30 6490 C 614.322 -0.857077 2.18383 0
M  V30 6491 C 615.338 -1.29915 1.1575 0
M  V30 6492 O 616.514 -1.36394 1.48184 0
M  V30 6493 C 613.579 -2.09264 2.76423 0
M  V30 6494 C 612.64 -1.70333 3.94063 0
M  V30 6495 C 611.873 -2.87999 4.49324 0
M  V30 6496 O 612.096 -4.0317 4.03497 0
M  V30 6497 O 611.03 -2.6559 5.40135 0
M  V30 6498 H 614.856 -0.366561 3.0148 0
M  V30 6499 H 612.441 -0.114914 1.48957 0
M  V30 6500 H 614.323 -2.81644 3.13456 0
M  V30 6501 H 612.998 -2.57339 1.96363 0
M  V30 6502 H 611.905 -0.950864 3.61814 0
M  V30 6503 H 613.238 -1.27007 4.75531 0
M  V30 6504 N 614.89 -1.56749 -0.16351 0
M  V30 6505 C 615.853 -1.96121 -1.18613 0
M  V30 6506 C 616.853 -0.845765 -1.36761 0
M  V30 6507 O 618.043 -1.11268 -1.34033 0
M  V30 6508 C 615.175 -2.26282 -2.54969 0
M  V30 6509 H 616.368 -2.87639 -0.848764 0
M  V30 6510 H 613.921 -1.50928 -0.406251 0
M  V30 6511 H 614.656 -1.37504 -2.93706 0
M  V30 6512 H 614.441 -3.07595 -2.43162 0
M  V30 6513 H 615.931 -2.57638 -3.28653 0
M  V30 6514 N 616.368 0.432326 -1.51554 0
M  V30 6515 C 617.3 1.54357 -1.6943 0
M  V30 6516 C 618.313 1.52311 -0.574897 0
M  V30 6517 O 619.502 1.56997 -0.849369 0
M  V30 6518 C 616.602 2.93273 -1.69836 0
M  V30 6519 C 615.775 3.19768 -2.98442 0
M  V30 6520 C 614.834 4.38433 -2.90969 0
M  V30 6521 O 613.86 4.36842 -3.64908 0
M  V30 6522 N 615.062 5.42276 -2.07163 0
M  V30 6523 H 617.827 1.39426 -2.65293 0
M  V30 6524 H 615.388 0.621331 -1.49503 0
M  V30 6525 H 617.38 3.70687 -1.62399 0
M  V30 6526 H 615.95 3.01777 -0.815456 0
M  V30 6527 H 615.17 2.30607 -3.19709 0
M  V30 6528 H 616.458 3.343 -3.83563 0
M  V30 6529 H 615.856 5.46407 -1.46477 0
M  V30 6530 H 614.413 6.18524 -2.05601 0
M  V30 6531 N 617.846 1.41785 0.688094 0
M  V30 6532 C 618.809 1.43936 1.78368 0
M  V30 6533 C 619.809 0.328866 1.57401 0
M  V30 6534 O 620.999 0.589093 1.63937 0
M  V30 6535 C 618.131 1.25804 3.16838 0
M  V30 6536 H 619.324 2.41472 1.77852 0
M  V30 6537 H 616.877 1.28037 0.896448 0
M  V30 6538 H 617.612 0.291386 3.22988 0
M  V30 6539 H 617.397 2.06272 3.33458 0
M  V30 6540 H 618.887 1.30162 3.96797 0
M  V30 6541 N 619.324 -0.923095 1.27737 0
M  V30 6542 C 620.254 -2.04124 1.13383 0
M  V30 6543 C 621.235 -1.70066 0.0340658 0
M  V30 6544 O 622.42 -1.93068 0.209383 0
M  V30 6545 C 619.55 -3.3831 0.785097 0
M  V30 6546 C 618.504 -3.86496 1.8386 0
M  V30 6547 C 617.83 -5.1754 1.34373 0
M  V30 6548 C 619.13 -4.09381 3.24353 0
M  V30 6549 H 620.824 -2.1639 2.06919 0
M  V30 6550 H 618.37 -1.03976 0.996243 0
M  V30 6551 H 620.323 -4.16016 0.671485 0
M  V30 6552 H 619.047 -3.2607 -0.185969 0
M  V30 6553 H 617.706 -3.10987 1.9412 0
M  V30 6554 H 617.354 -5.01696 0.361989 0
M  V30 6555 H 617.054 -5.50751 2.04811 0
M  V30 6556 H 618.578 -5.97811 1.24315 0
M  V30 6557 H 619.992 -4.77641 3.17067 0
M  V30 6558 H 618.389 -4.53906 3.92542 0
M  V30 6559 H 619.459 -3.14515 3.69064 0
M  V30 6560 N 620.802 -1.09834 -1.13024 0
M  V30 6561 C 622.218 -0.828875 -1.36388 0
M  V30 6562 C 622.418 0.554756 -1.93713 0
M  V30 6563 O 621.474 1.30882 -2.15931 0
M  V30 6564 C 622.787 -1.92352 -2.3113 0
M  V30 6565 C 624.335 -1.95124 -2.44735 0
M  V30 6566 C 624.81 -3.03745 -3.42787 0
M  V30 6567 N 626.301 -3.03012 -3.5034 0
M  V30 6568 C 627.036 -3.83699 -4.26101 0
M  V30 6569 N 626.532 -4.74306 -5.04981 0
M  V30 6570 N 628.325 -3.71942 -4.21445 0
M  V30 6571 H 620.476 -1.99029 -0.74169 0
M  V30 6572 H 622.739 -0.864557 -0.388903 0
M  V30 6573 H 622.445 -2.91906 -1.96172 0
M  V30 6574 H 622.319 -1.80536 -3.3119 0
M  V30 6575 H 624.706 -0.962069 -2.78977 0
M  V30 6576 H 624.787 -2.11018 -1.44586 0
M  V30 6577 H 624.431 -4.02878 -3.09276 0
M  V30 6578 H 624.361 -2.85094 -4.42752 0
M  V30 6579 H 626.852 -2.37352 -2.94062 0
M  V30 6580 H 627.165 -5.32446 -5.60108 0
M  V30 6581 H 625.51 -4.78339 -5.04199 0
M  V30 6582 H 628.701 -3.00513 -3.589 0
M  V30 6583 H 628.874 -4.35062 -4.80235 0
M  V30 6584 N 622.28 1.30327 -0.886154 0
M  V30 6585 C 623.243 2.26376 -0.358687 0
M  V30 6586 C 624.243 1.52845 0.499498 0
M  V30 6587 O 625.433 1.71483 0.306485 0
M  V30 6588 C 622.565 3.37379 0.488726 0
M  V30 6589 H 623.758 2.74547 -1.20681 0
M  V30 6590 H 621.311 1.41536 -0.663113 0
M  V30 6591 H 622.046 2.94526 1.35739 0
M  V30 6592 H 621.831 3.91897 -0.126003 0
M  V30 6593 H 623.321 4.08868 0.84952 0
M  V30 6594 N 623.758 0.647228 1.43697 0
M  V30 6595 C 625.035 0.0883758 1.954 0
M  V30 6596 C 625.415 -1.39006 1.58873 0
M  V30 6597 O 624.763 -2.11255 0.87083 0
M  V30 6598 C 624.973 0.328263 3.47453 0
M  V30 6599 C 626.321 0.230009 4.23977 0
M  V30 6600 O 627.345 0.260496 3.55246 0
M  V30 6601 O 626.204 0.148615 5.46298 0
M  V30 6602 H 623.298 -0.0130683 0.826897 0
M  V30 6603 H 625.844 0.72005 1.53666 0
M  V30 6604 H 624.616 1.3535 3.67146 0
M  V30 6605 H 624.239 -0.336772 3.96171 0
M  V30 6606 N 625.236 -1.5273 0.388769 0
M  V30 6607 C 626.513 -1.93981 -0.251133 0
M  V30 6608 C 626.893 -1.32418 -1.64404 0
M  V30 6609 O 626.241 -0.492074 -2.23139 0
M  V30 6610 C 626.451 -3.47891 -0.27802 0
M  V30 6611 C 627.799 -4.21559 -0.507229 0
M  V30 6612 O 628.823 -3.54394 -0.358252 0
M  V30 6613 O 627.682 -5.40626 -0.799094 0
M  V30 6614 H 624.776 -0.812157 -0.15598 0
M  V30 6615 H 627.322 -1.63809 0.443237 0
M  V30 6616 H 626.094 -3.8503 0.697669 0
M  V30 6617 H 625.717 -3.84364 -1.01733 0
M  V30 6618 N 626.714 -0.118576 -1.57153 0
M  V30 6619 C 627.991 0.583062 -1.86708 0
M  V30 6620 C 628.371 1.84841 -1.01967 0
M  V30 6621 O 627.719 2.28288 -0.0984673 0
M  V30 6622 C 627.929 0.875912 -3.3783 0
M  V30 6623 C 629.277 1.22916 -4.0642 0
M  V30 6624 O 630.301 0.966188 -3.42846 0
M  V30 6625 O 629.16 1.72269 -5.18638 0
M  V30 6626 H 626.254 0.294185 -0.772906 0
M  V30 6627 H 628.8 -0.153048 -1.69008 0
M  V30 6628 H 627.572 -0.0207776 -3.91294 0
M  V30 6629 H 627.195 1.66719 -3.60958 0
M  V30 6630 N 628.193 1.56834 0.155195 0
M  V30 6631 C 629.47 1.73799 0.897395 0
M  V30 6632 C 629.85 0.684379 1.99698 0
M  V30 6633 O 629.198 -0.298111 2.26547 0
M  V30 6634 C 629.408 3.17572 1.44737 0
M  V30 6635 C 630.756 3.79014 1.91399 0
M  V30 6636 O 631.78 3.20951 1.54496 0
M  V30 6637 O 630.639 4.80998 2.59429 0
M  V30 6638 H 627.733 0.710329 0.423511 0
M  V30 6639 H 630.279 1.69107 0.141761 0
M  V30 6640 H 629.051 3.85749 0.656741 0
M  V30 6641 H 628.674 3.26657 2.26674 0
M  V30 6642 N 629.671 -0.424282 1.51781 0
M  V30 6643 C 630.918 -1.1726 1.65095 0
M  V30 6644 C 631.246 -1.90881 0.373477 0
M  V30 6645 O 630.501 -1.84835 -0.642997 0
M  V30 6646 C 630.8 -2.20418 2.81337 0
M  V30 6647 C 630.466 -1.63715 4.20129 0
M  V30 6648 C 629.128 -1.47975 4.57883 0
M  V30 6649 C 631.48 -1.22157 5.06682 0
M  V30 6650 C 628.808 -0.891703 5.79884 0
M  V30 6651 C 631.16 -0.647767 6.29275 0
M  V30 6652 C 629.824 -0.477371 6.65791 0
M  V30 6653 H 629.094 -0.429085 0.604125 0
M  V30 6654 H 631.741 -0.461852 1.85847 0
M  V30 6655 H 630.046 -2.97581 2.54859 0
M  V30 6656 H 631.743 -2.78163 2.88836 0
M  V30 6657 H 628.333 -1.76946 3.90369 0
M  V30 6658 H 632.517 -1.33133 4.7811 0
M  V30 6659 H 627.773 -0.747563 6.06813 0
M  V30 6660 H 631.947 -0.317291 6.95677 0
M  V30 6661 H 629.574 -0.0195936 7.60197 0
M  V30 6662 N 631.149 -1.42148 -0.680565 0
M  V30 6663 C 632.397 -1.42029 -1.43779 0
M  V30 6664 C 632.718 -0.0356347 -1.94967 0
M  V30 6665 O 631.988 0.924936 -1.7269 0
M  V30 6666 H 630.568 -0.522835 -0.533529 0
M  V30 6667 H 633.23 -1.7752 -0.804538 0
M  V30 6668 H 632.326 -2.11658 -2.29363 0
M  V30 6669 N 632.627 0.916307 -1.28225 0
M  V30 6670 C 633.559 2.02303 -1.07732 0
M  V30 6671 C 634.572 1.62773 -0.0298421 0
M  V30 6672 O 635.761 1.76406 -0.272626 0
M  V30 6673 C 632.861 3.33282 -0.614504 0
M  V30 6674 C 632.034 4.01439 -1.73682 0
M  V30 6675 C 631.093 5.10698 -1.26781 0
M  V30 6676 O 630.119 5.34038 -1.96958 0
M  V30 6677 N 631.321 5.80355 -0.129624 0
M  V30 6678 H 634.086 2.20442 -2.03041 0
M  V30 6679 H 631.647 1.08744 -1.19943 0
M  V30 6680 H 633.639 4.03699 -0.284397 0
M  V30 6681 H 632.209 3.11633 0.245664 0
M  V30 6682 H 631.429 3.24604 -2.23665 0
M  V30 6683 H 632.717 4.43721 -2.48976 0
M  V30 6684 H 632.115 5.6386 0.455847 0
M  V30 6685 H 630.672 6.51647 0.141224 0
M  V30 6686 N 634.105 1.10431 1.1244 0
M  V30 6687 C 635.068 0.756542 2.16354 0
M  V30 6688 C 636.068 -0.21899 1.59302 0
M  V30 6689 O 637.258 0.00415969 1.742 0
M  V30 6690 C 634.39 0.120612 3.40687 0
M  V30 6691 H 635.583 1.67696 2.48632 0
M  V30 6692 H 633.136 0.904832 1.27446 0
M  V30 6693 H 633.871 -0.810536 3.14008 0
M  V30 6694 H 633.656 0.822693 3.83372 0
M  V30 6695 H 635.146 -0.106945 4.17463 0
M  V30 6696 N 635.583 -1.29855 0.893053 0
M  V30 6697 C 636.831 -1.9544 0.514566 0
M  V30 6698 C 637.152 -1.70795 -0.940959 0
M  V30 6699 O 636.422 -1.03601 -1.66264 0
M  V30 6700 H 635.002 -0.723137 0.187302 0
M  V30 6701 H 637.664 -1.58234 1.13789 0
M  V30 6702 H 636.76 -3.04341 0.691581 0
M  V30 6703 N 637.061 -0.65484 -1.43351 0
M  V30 6704 C 638.289 -0.176685 -2.06144 0
M  V30 6705 C 638.704 1.15831 -1.49093 0
M  V30 6706 O 638.061 1.71542 -0.622868 0
M  V30 6707 C 638.112 -0.0813326 -3.61408 0
M  V30 6708 O 637.833 -1.36355 -4.1634 0
M  V30 6709 C 639.334 0.422706 -4.4128 0
M  V30 6710 H 636.554 -0.0906429 -0.66485 0
M  V30 6711 H 639.098 -0.895945 -1.83829 0
M  V30 6712 H 637.253 0.588496 -3.82904 0
M  V30 6713 H 637.667 -1.22381 -5.10023 0
M  V30 6714 H 639.141 0.438375 -5.50257 0
M  V30 6715 H 639.618 1.45432 -4.14423 0
M  V30 6716 H 640.224 -0.214687 -4.24758 0
M  V30 6717 N 638.539 1.52521 -0.396863 0
M  V30 6718 C 639.469 2.29582 0.425941 0
M  V30 6719 C 640.45 1.33281 1.05689 0
M  V30 6720 O 641.635 1.62181 1.06823 0
M  V30 6721 C 638.765 3.10821 1.54943 0
M  V30 6722 C 637.719 4.15069 1.04413 0
M  V30 6723 C 637.045 4.84578 2.26028 0
M  V30 6724 C 638.345 5.22191 0.106767 0
M  V30 6725 H 640.039 2.98612 -0.217045 0
M  V30 6726 H 637.585 1.43611 -0.105826 0
M  V30 6727 H 639.538 3.63492 2.13193 0
M  V30 6728 H 638.262 2.39538 2.22011 0
M  V30 6729 H 636.921 3.63389 0.484118 0
M  V30 6730 H 636.569 4.09835 2.91623 0
M  V30 6731 H 636.269 5.55043 1.92876 0
M  V30 6732 H 637.793 5.40056 2.84906 0
M  V30 6733 H 639.207 5.70176 0.597685 0
M  V30 6734 H 637.604 5.99947 -0.135352 0
M  V30 6735 H 638.674 4.77531 -0.842134 0
M  V30 6736 N 640.017 0.126909 1.57088 0
M  V30 6737 C 641.263 -0.529952 1.95753 0
M  V30 6738 C 641.596 -1.65823 1.01077 0
M  V30 6739 O 640.871 -1.94437 0.0494162 0
M  V30 6740 C 641.154 -1.05517 3.44294 0
M  V30 6741 C 641.007 0.0702253 4.49745 0
M  V30 6742 C 642.326 -1.9435 3.94862 0
M  V30 6743 H 639.445 -0.191168 0.711775 0
M  V30 6744 H 642.087 0.204071 1.88901 0
M  V30 6745 H 640.237 -1.68069 3.50264 0
M  V30 6746 H 641.909 0.705834 4.55868 0
M  V30 6747 H 640.152 0.732259 4.27575 0
M  V30 6748 H 640.823 -0.338642 5.5096 0
M  V30 6749 H 643.299 -1.41658 3.91244 0
M  V30 6750 H 642.175 -2.28015 4.993 0
M  V30 6751 H 642.436 -2.87299 3.36024 0
M  V30 6752 N 641.495 -1.56914 -0.146875 0
M  V30 6753 C 642.911 -1.51582 -0.499518 0
M  V30 6754 C 643.111 -0.83535 -1.83369 0
M  V30 6755 O 642.167 -0.405932 -2.49216 0
M  V30 6756 C 643.48 -2.96349 -0.509711 0
M  V30 6757 C 645.028 -3.07288 -0.595217 0
M  V30 6758 C 645.503 -4.53562 -0.636071 0
M  V30 6759 N 646.994 -4.57906 -0.69829 0
M  V30 6760 C 647.729 -5.68462 -0.750886 0
M  V30 6761 N 647.225 -6.88588 -0.76282 0
M  V30 6762 N 649.018 -5.56496 -0.791777 0
M  V30 6763 H 641.169 -1.99547 0.727656 0
M  V30 6764 H 643.432 -0.910113 0.265327 0
M  V30 6765 H 643.138 -3.4939 0.402409 0
M  V30 6766 H 643.012 -3.52307 -1.34758 0
M  V30 6767 H 645.399 -2.54266 -1.49776 0
M  V30 6768 H 645.48 -2.54373 0.2698 0
M  V30 6769 H 645.124 -5.07222 0.262313 0
M  V30 6770 H 645.054 -5.04259 -1.51758 0
M  V30 6771 H 647.545 -3.71429 -0.696362 0
M  V30 6772 H 647.858 -7.68598 -0.804804 0
M  V30 6773 H 646.203 -6.91148 -0.730694 0
M  V30 6774 H 649.394 -4.61562 -0.779624 0
M  V30 6775 H 649.567 -6.42671 -0.829301 0
M  V30 6776 N 642.974 0.416227 -1.52004 0
M  V30 6777 C 643.884 1.53147 -1.77717 0
M  V30 6778 C 644.9 1.609 -0.662368 0
M  V30 6779 O 646.076 1.77747 -0.946991 0
M  V30 6780 C 643.141 2.88948 -1.91598 0
M  V30 6781 C 642.202 2.9114 -3.15493 0
M  V30 6782 C 641.435 4.20464 -3.28703 0
M  V30 6783 O 641.658 5.13981 -2.47345 0
M  V30 6784 O 640.592 4.29368 -4.21813 0
M  V30 6785 H 644.418 1.34357 -2.72363 0
M  V30 6786 H 642.003 0.601373 -1.36762 0
M  V30 6787 H 643.885 3.69505 -2.02593 0
M  V30 6788 H 642.56 3.07821 -1.00141 0
M  V30 6789 H 641.467 2.09461 -3.09962 0
M  V30 6790 H 642.8 2.77216 -4.06709 0
M  V30 6791 N 644.452 1.42507 0.673017 0
M  V30 6792 C 645.698 1.43284 1.43519 0
M  V30 6793 C 646.031 0.049668 1.94136 0
M  V30 6794 O 645.306 -0.926369 1.71022 0
M  V30 6795 C 645.589 2.45874 2.63093 0
M  V30 6796 C 645.442 3.93388 2.18096 0
M  V30 6797 C 646.761 2.45431 3.6531 0
M  V30 6798 H 643.88 0.521752 0.520522 0
M  V30 6799 H 646.522 1.73932 0.764701 0
M  V30 6800 H 644.672 2.19869 3.20296 0
M  V30 6801 H 646.344 4.30379 1.66046 0
M  V30 6802 H 644.587 4.07169 1.49652 0
M  V30 6803 H 645.258 4.60752 3.03993 0
M  V30 6804 H 647.734 2.68561 3.17827 0
M  V30 6805 H 646.61 3.19189 4.46553 0
M  V30 6806 H 646.871 1.48092 4.16559 0
M  V30 6807 N 645.93 -0.909495 1.28709 0
M  V30 6808 C 647.177 -1.65905 1.16111 0
M  V30 6809 C 647.505 -1.92334 -0.289436 0
M  V30 6810 O 646.76 -1.52495 -1.22653 0
M  V30 6811 C 647.059 -3.02117 1.90945 0
M  V30 6812 C 646.725 -2.95332 3.40719 0
M  V30 6813 C 645.387 -2.93189 3.81567 0
M  V30 6814 C 647.739 -2.85264 4.36204 0
M  V30 6815 C 645.067 -2.78784 5.16233 0
M  V30 6816 C 647.419 -2.724 5.70948 0
M  V30 6817 C 646.083 -2.68617 6.11066 0
M  V30 6818 H 645.353 -0.60709 0.42488 0
M  V30 6819 H 648 -1.05932 1.59533 0
M  V30 6820 H 646.305 -3.65901 1.40085 0
M  V30 6821 H 648.002 -3.59026 1.7861 0
M  V30 6822 H 644.592 -2.97797 3.08245 0
M  V30 6823 H 648.776 -2.86005 4.05605 0
M  V30 6824 H 644.032 -2.74254 5.46438 0
M  V30 6825 H 648.206 -2.63579 6.44592 0
M  V30 6826 H 645.833 -2.57213 7.15364 0
M  V30 6827 N 647.408 -1.11026 -1.11852 0
M  V30 6828 C 648.633 -0.879064 -1.87849 0
M  V30 6829 C 649.058 0.565406 -1.79401 0
M  V30 6830 O 648.416 1.39886 -1.15333 0
M  V30 6831 C 648.464 -1.33985 -3.34784 0
M  V30 6832 O 647.568 -0.508803 -4.09249 0
M  V30 6833 H 646.909 -0.316992 -0.583448 0
M  V30 6834 H 649.439 -1.47863 -1.41413 0
M  V30 6835 H 649.449 -1.33248 -3.85628 0
M  V30 6836 H 648.124 -2.39172 -3.40249 0
M  V30 6837 H 646.701 -0.581913 -3.68332 0
M  V30 6838 N 648.886 1.2938 -0.899927 0
M  V30 6839 C 650.163 1.9046 -0.445443 0
M  V30 6840 C 650.543 1.81683 1.07492 0
M  V30 6841 O 649.891 1.24371 1.91688 0
M  V30 6842 C 650.101 3.35529 -0.960279 0
M  V30 6843 C 651.449 4.12556 -1.00412 0
M  V30 6844 O 652.473 3.44434 -0.907965 0
M  V30 6845 O 651.332 5.34294 -1.14857 0
M  V30 6846 H 648.426 0.815253 -0.138893 0
M  V30 6847 H 650.972 1.37844 -0.989808 0
M  V30 6848 H 649.744 3.36074 -2.00425 0
M  V30 6849 H 649.367 3.95624 -0.395939 0
M  V30 6850 N 650.364 0.662433 1.43002 0
M  V30 6851 C 651.296 -0.062326 2.29115 0
M  V30 6852 C 652.309 -0.777926 1.43011 0
M  V30 6853 O 653.498 -0.634146 1.66856 0
M  V30 6854 C 650.598 -1.11163 3.2015 0
M  V30 6855 C 649.771 -0.472327 4.34842 0
M  V30 6856 C 648.83 -1.41974 5.06685 0
M  V30 6857 O 647.856 -0.924795 5.61637 0
M  V30 6858 N 649.058 -2.75345 5.11043 0
M  V30 6859 H 651.823 0.676838 2.91957 0
M  V30 6860 H 649.384 0.505907 1.53793 0
M  V30 6861 H 651.376 -1.74643 3.65078 0
M  V30 6862 H 649.946 -1.75266 2.58845 0
M  V30 6863 H 649.166 0.341751 3.92716 0
M  V30 6864 H 650.454 -0.0264381 5.08793 0
M  V30 6865 H 649.852 -3.18108 4.67786 0
M  V30 6866 H 648.409 -3.34105 5.59658 0
M  V30 6867 N 651.842 -1.52309 0.404946 0
M  V30 6868 C 652.752 -2.30634 -0.429555 0
M  V30 6869 C 653.768 -1.38187 -1.05737 0
M  V30 6870 O 654.944 -1.71261 -1.05979 0
M  V30 6871 C 652.009 -3.10947 -1.53339 0
M  V30 6872 C 651.07 -4.19126 -0.929065 0
M  V30 6873 C 650.303 -4.95601 -1.9803 0
M  V30 6874 O 650.526 -4.72331 -3.1978 0
M  V30 6875 O 649.46 -5.80551 -1.58886 0
M  V30 6876 H 653.286 -3.0298 0.208963 0
M  V30 6877 H 650.871 -1.4845 0.168255 0
M  V30 6878 H 652.753 -3.60974 -2.1743 0
M  V30 6879 H 651.428 -2.41399 -2.15658 0
M  V30 6880 H 650.335 -3.73257 -0.250982 0
M  V30 6881 H 651.668 -4.90955 -0.349855 0
M  V30 6882 N 653.32 -0.135238 -1.57019 0
M  V30 6883 C 654.736 0.221262 -1.58059 0
M  V30 6884 C 654.936 1.65538 -1.14889 0
M  V30 6885 O 653.992 2.37985 -0.843751 0
M  V30 6886 C 655.305 -0.0268114 -3.00688 0
M  V30 6887 C 656.853 0.0378206 -3.12977 0
M  V30 6888 C 657.328 -0.182769 -4.57635 0
M  V30 6889 N 658.819 -0.129292 -4.6302 0
M  V30 6890 C 659.554 -0.274648 -5.72742 0
M  V30 6891 N 659.05 -0.477075 -6.91155 0
M  V30 6892 N 660.843 -0.213077 -5.61696 0
M  V30 6893 H 652.994 -1.07177 -1.83376 0
M  V30 6894 H 655.257 -0.423338 -0.848227 0
M  V30 6895 H 654.963 -1.01889 -3.36618 0
M  V30 6896 H 654.837 0.697863 -3.70688 0
M  V30 6897 H 657.224 1.02043 -2.76896 0
M  V30 6898 H 657.305 -0.718996 -2.45487 0
M  V30 6899 H 656.949 -1.16243 -4.94419 0
M  V30 6900 H 656.879 0.59423 -5.23237 0
M  V30 6901 H 659.37 0.0229896 -3.77893 0
M  V30 6902 H 659.683 -0.578413 -7.70632 0
M  V30 6903 H 658.028 -0.513252 -6.93102 0
M  V30 6904 H 661.219 -0.0557796 -4.68067 0
M  V30 6905 H 661.392 -0.329796 -6.4716 0
M  V30 6906 N 654.798 1.5699 0.138552 0
M  V30 6907 C 656.075 1.74741 0.87891 0
M  V30 6908 C 656.455 0.705522 1.98961 0
M  V30 6909 O 655.803 -0.274066 2.2685 0
M  V30 6910 C 656.013 3.1909 1.4136 0
M  V30 6911 C 657.361 3.81023 1.87368 0
M  V30 6912 O 658.385 3.22571 1.51084 0
M  V30 6913 O 657.244 4.83722 2.54312 0
M  V30 6914 H 654.338 0.714781 0.415953 0
M  V30 6915 H 656.884 1.69248 0.123817 0
M  V30 6916 H 655.656 3.86424 0.61579 0
M  V30 6917 H 655.279 3.29043 2.23196 0
M  V30 6918 N 656.276 -0.40816 1.52223 0
M  V30 6919 C 657.553 -1.16807 1.56893 0
M  V30 6920 C 657.933 -2.08169 0.350537 0
M  V30 6921 O 657.281 -2.18684 -0.662536 0
M  V30 6922 C 657.491 -1.94451 2.8981 0
M  V30 6923 C 658.839 -2.50484 3.42845 0
M  V30 6924 O 659.863 -2.0463 2.91556 0
M  V30 6925 O 658.722 -3.34192 4.3241 0
M  V30 6926 H 655.816 -0.533382 0.632007 0
M  V30 6927 H 658.362 -0.414862 1.64551 0
M  V30 6928 H 657.134 -1.27527 3.69936 0
M  V30 6929 H 656.757 -2.76775 2.85449 0
M  V30 6930 N 657.755 -1.42862 -0.66545 0
M  V30 6931 C 659.002 -1.4383 -1.42546 0
M  V30 6932 C 659.33 -0.0581114 -1.94413 0
M  V30 6933 O 658.585 0.935002 -1.71919 0
M  V30 6934 C 658.884 -2.4175 -2.63233 0
M  V30 6935 C 658.55 -3.87915 -2.29854 0
M  V30 6936 C 657.212 -4.27726 -2.20463 0
M  V30 6937 C 659.564 -4.80074 -2.02924 0
M  V30 6938 C 656.892 -5.57666 -1.82279 0
M  V30 6939 C 659.244 -6.10366 -1.66242 0
M  V30 6940 C 657.908 -6.49167 -1.55367 0
M  V30 6941 H 657.178 -0.52631 -0.521612 0
M  V30 6942 H 659.825 -1.75863 -0.757914 0
M  V30 6943 H 658.13 -2.03077 -3.35063 0
M  V30 6944 H 659.827 -2.39759 -3.21429 0
M  V30 6945 H 656.417 -3.564 -2.3807 0
M  V30 6946 H 660.601 -4.50097 -2.09108 0
M  V30 6947 H 655.857 -5.8658 -1.72436 0
M  V30 6948 H 660.031 -6.81258 -1.44432 0
M  V30 6949 H 657.658 -7.49761 -1.2555 0
M  V30 6950 N 659.233 0.902656 -1.29189 0
M  V30 6951 C 660.479 1.65532 -1.17163 0
M  V30 6952 C 660.812 1.92216 0.276879 0
M  V30 6953 O 660.087 1.53048 1.20027 0
M  V30 6954 C 660.37 3.00629 -1.98228 0
M  V30 6955 C 660.223 2.81029 -3.51202 0
M  V30 6956 C 661.542 4.01321 -1.80635 0
M  V30 6957 H 658.661 0.60071 -0.426985 0
M  V30 6958 H 661.303 1.04578 -1.5863 0
M  V30 6959 H 659.453 3.52656 -1.62991 0
M  V30 6960 H 661.125 2.35927 -3.96404 0
M  V30 6961 H 659.368 2.1587 -3.76275 0
M  V30 6962 H 660.039 3.77014 -4.03192 0
M  V30 6963 H 662.515 3.58394 -2.11406 0
M  V30 6964 H 661.391 4.93792 -2.3971 0
M  V30 6965 H 661.652 4.35505 -0.760754 0
M  V30 6966 N 660.711 1.11618 1.11262 0
M  V30 6967 C 661.621 0.78898 2.20935 0
M  V30 6968 C 662.637 -0.21867 1.7262 0
M  V30 6969 O 663.813 -0.0543826 2.01327 0
M  V30 6970 C 660.878 0.239014 3.45875 0
M  V30 6971 C 659.939 1.3055 4.08968 0
M  V30 6972 C 659.172 0.781687 5.27944 0
M  V30 6973 O 659.395 -0.387605 5.69082 0
M  V30 6974 O 658.329 1.54734 5.81671 0
M  V30 6975 H 662.155 1.70477 2.51339 0
M  V30 6976 H 659.74 0.892203 1.19834 0
M  V30 6977 H 661.622 -0.0632312 4.21353 0
M  V30 6978 H 660.297 -0.649454 3.17118 0
M  V30 6979 H 659.204 1.66079 3.35214 0
M  V30 6980 H 660.537 2.16743 4.41909 0
M  V30 6981 N 662.189 -1.289 0.906776 0
M  V30 6982 C 663.417 -1.99401 0.551969 0
M  V30 6983 C 663.832 -1.67816 -0.865048 0
M  V30 6984 O 663.189 -0.927078 -1.57199 0
M  V30 6985 C 663.24 -3.53779 0.743152 0
M  V30 6986 O 662.961 -3.84248 2.1044 0
M  V30 6987 C 664.462 -4.41543 0.39424 0
M  V30 6988 H 661.682 -0.636926 0.211106 0
M  V30 6989 H 664.226 -1.64266 1.21807 0
M  V30 6990 H 662.381 -3.87201 0.124143 0
M  V30 6991 H 662.795 -4.78904 2.13895 0
M  V30 6992 H 664.269 -5.48957 0.578814 0
M  V30 6993 H 664.746 -4.34073 -0.669137 0
M  V30 6994 H 665.352 -4.13605 0.990491 0
M  V30 6995 N 663.667 -0.670007 -1.42649 0
M  V30 6996 C 664.913 -0.190568 -2.01903 0
M  V30 6997 C 665.246 1.19817 -1.52832 0
M  V30 6998 O 664.521 1.80342 -0.728485 0
M  V30 6999 C 664.804 -0.21991 -3.59428 0
M  V30 7000 C 664.657 -1.64376 -4.18689 0
M  V30 7001 C 665.976 0.434519 -4.3795 0
M  V30 7002 H 663.095 -0.0707219 -0.733599 0
M  V30 7003 H 665.737 -0.853883 -1.69732 0
M  V30 7004 H 663.887 0.344894 -3.86966 0
M  V30 7005 H 665.559 -2.26044 -4.02122 0
M  V30 7006 H 663.802 -2.18591 -3.747 0
M  V30 7007 H 664.473 -1.61601 -5.27815 0
M  V30 7008 H 666.949 -0.0462156 -4.16074 0
M  V30 7009 H 665.825 0.38333 -5.4756 0
M  V30 7010 H 666.086 1.51135 -4.15464 0
M  V30 7011 N 665.145 1.52092 -0.413018 0
M  V30 7012 C 666.108 2.25706 0.398687 0
M  V30 7013 C 667.108 1.28221 0.970368 0
M  V30 7014 O 668.298 1.52131 0.848635 0
M  V30 7015 C 665.43 3.03029 1.5616 0
M  V30 7016 H 666.623 2.98888 -0.246131 0
M  V30 7017 H 664.176 1.5542 -0.165622 0
M  V30 7018 H 664.911 2.34205 2.24317 0
M  V30 7019 H 664.696 3.74606 1.15812 0
M  V30 7020 H 666.186 3.58857 2.13569 0
M  V30 7021 N 666.623 0.143563 1.56945 0
M  V30 7022 C 667.871 -0.507402 1.95627 0
M  V30 7023 C 668.192 -1.65626 1.02922 0
M  V30 7024 O 667.462 -1.95693 0.0901136 0
M  V30 7025 H 666.042 -0.190436 0.722318 0
M  V30 7026 H 668.704 0.218257 1.93674 0
M  V30 7027 H 667.8 -0.885816 2.99265 0
M  V30 7028 N 668.101 -1.57061 -0.130224 0
M  V30 7029 C 669.064 -1.98593 -1.14426 0
M  V30 7030 C 670.064 -0.874584 -1.34936 0
M  V30 7031 O 671.254 -1.14086 -1.31643 0
M  V30 7032 C 668.386 -2.31639 -2.50112 0
M  V30 7033 H 669.579 -2.89374 -0.787561 0
M  V30 7034 H 667.132 -1.51756 -0.374146 0
M  V30 7035 H 667.867 -1.43703 -2.90723 0
M  V30 7036 H 667.652 -3.12684 -2.36583 0
M  V30 7037 H 669.142 -2.64551 -3.23114 0
M  V30 7038 N 669.579 0.400081 -1.52437 0
M  V30 7039 C 670.509 1.4947 -1.7939 0
M  V30 7040 C 671.49 1.57383 -0.645329 0
M  V30 7041 O 672.675 1.72511 -0.891826 0
M  V30 7042 C 669.805 2.87201 -1.95276 0
M  V30 7043 C 668.759 2.94134 -3.10917 0
M  V30 7044 C 668.085 4.34207 -3.1204 0
M  V30 7045 C 669.385 2.64791 -4.50203 0
M  V30 7046 H 671.079 1.27165 -2.71052 0
M  V30 7047 H 668.625 0.610312 -1.30427 0
M  V30 7048 H 670.578 3.63772 -2.12715 0
M  V30 7049 H 669.302 3.10819 -1.00294 0
M  V30 7050 H 667.961 2.20009 -2.93243 0
M  V30 7051 H 667.609 4.54848 -2.14761 0
M  V30 7052 H 667.309 4.39768 -3.89715 0
M  V30 7053 H 668.833 5.127 -3.31619 0
M  V30 7054 H 670.247 3.31083 -4.68035 0
M  V30 7055 H 668.644 2.81717 -5.29864 0
M  V30 7056 H 669.714 1.60184 -4.57678 0
M  V30 7057 N 671.057 1.43213 0.657864 0
M  V30 7058 C 672.004 1.48011 1.77092 0
M  V30 7059 C 672.974 0.330291 1.62783 0
M  V30 7060 O 674.159 0.536787 1.83094 0
M  V30 7061 C 671.299 1.40461 3.15222 0
M  V30 7062 C 670.412 2.65612 3.40697 0
M  V30 7063 C 669.547 2.50083 4.68649 0
M  V30 7064 C 668.586 3.70525 4.87214 0
M  V30 7065 N 667.723 3.53835 6.0642 0
M  V30 7066 H 672.563 2.43121 1.72326 0
M  V30 7067 H 670.1 1.20687 0.841013 0
M  V30 7068 H 672.058 1.34079 3.95068 0
M  V30 7069 H 670.688 0.489359 3.19069 0
M  V30 7070 H 669.74 2.82292 2.54982 0
M  V30 7071 H 671.052 3.5509 3.50303 0
M  V30 7072 H 670.206 2.41383 5.56614 0
M  V30 7073 H 668.945 1.58121 4.61356 0
M  V30 7074 H 667.95 3.79639 3.97686 0
M  V30 7075 H 669.175 4.63489 4.96341 0
M  V30 7076 H 667.121 2.64604 6.00267 0
M  V30 7077 H 667.038 4.36912 6.16963 0
M  V30 7078 H 668.306 3.48978 6.97019 0
M  V30 7079 N 672.536 -0.895792 1.29666 0
M  V30 7080 C 673.784 -1.64339 1.17631 0
M  V30 7081 C 674.105 -1.93099 -0.271643 0
M  V30 7082 O 673.375 -1.55981 -1.18518 0
M  V30 7083 H 671.955 -0.609162 0.432354 0
M  V30 7084 H 674.617 -1.07389 1.62646 0
M  V30 7085 H 673.713 -2.59815 1.72924 0
M  V30 7086 N 674.014 -1.12206 -1.10668 0
M  V30 7087 C 675.26 -0.877172 -1.82848 0
M  V30 7088 C 675.593 0.595571 -1.84842 0
M  V30 7089 O 674.868 1.44013 -1.30731 0
M  V30 7090 C 675.151 -1.44957 -3.29635 0
M  V30 7091 C 675.004 -2.99051 -3.35989 0
M  V30 7092 C 676.323 -1.10714 -4.25946 0
M  V30 7093 H 673.442 -0.320103 -0.663854 0
M  V30 7094 H 676.084 -1.38827 -1.2972 0
M  V30 7095 H 674.234 -1.01488 -3.7501 0
M  V30 7096 H 675.906 -3.51182 -2.99113 0
M  V30 7097 H 674.149 -3.34705 -2.75962 0
M  V30 7098 H 674.82 -3.34194 -4.39339 0
M  V30 7099 H 677.296 -1.48254 -3.88793 0
M  V30 7100 H 676.172 -1.5343 -5.2702 0
M  V30 7101 H 676.433 -0.019 -4.42096 0
M  V30 7102 N 675.492 1.28418 -0.913599 0
M  V30 7103 C 676.908 1.47411 -0.611728 0
M  V30 7104 C 677.108 1.83018 0.843008 0
M  V30 7105 O 676.164 1.93505 1.6221 0
M  V30 7106 C 677.477 2.57703 -1.5495 0
M  V30 7107 C 679.025 2.71572 -1.5562 0
M  V30 7108 C 679.5 3.85008 -2.48058 0
M  V30 7109 N 680.991 3.92361 -2.46184 0
M  V30 7110 C 681.726 4.79516 -3.14407 0
M  V30 7111 N 681.222 5.71262 -3.91958 0
M  V30 7112 N 683.015 4.73125 -3.03495 0
M  V30 7113 H 675.166 1.03585 -1.85429 0
M  V30 7114 H 677.429 0.515907 -0.795326 0
M  V30 7115 H 677.135 2.38298 -2.58663 0
M  V30 7116 H 677.009 3.54801 -1.28048 0
M  V30 7117 H 679.396 2.90366 -0.526441 0
M  V30 7118 H 679.477 1.75006 -1.86565 0
M  V30 7119 H 679.121 3.66969 -3.51136 0
M  V30 7120 H 679.051 4.80971 -2.14416 0
M  V30 7121 H 681.542 3.26749 -1.89851 0
M  V30 7122 H 681.855 6.34593 -4.41034 0
M  V30 7123 H 680.2 5.71103 -3.96063 0
M  V30 7124 H 683.391 4.00442 -2.42413 0
M  V30 7125 H 683.564 5.40834 -3.56935 0
M  V30 7126 N 676.97 0.677563 1.42291 0
M  V30 7127 C 677.902 -0.0380218 2.29168 0
M  V30 7128 C 678.915 -0.762714 1.43828 0
M  V30 7129 O 680.104 -0.616413 1.67519 0
M  V30 7130 C 677.204 -1.07761 3.21311 0
M  V30 7131 C 676.377 -0.42618 4.35319 0
M  V30 7132 C 675.436 -1.36592 5.08162 0
M  V30 7133 O 674.462 -0.865174 5.62586 0
M  V30 7134 N 675.664 -2.69909 5.13935 0
M  V30 7135 H 678.429 0.707766 2.91223 0
M  V30 7136 H 675.99 0.52219 1.53247 0
M  V30 7137 H 677.982 -1.70761 3.6691 0
M  V30 7138 H 676.552 -1.72511 2.60689 0
M  V30 7139 H 675.772 0.383385 3.92331 0
M  V30 7140 H 677.06 0.0275277 5.08793 0
M  V30 7141 H 676.458 -3.13129 4.71134 0
M  V30 7142 H 675.015 -3.2815 5.6317 0
M  V30 7143 N 678.448 -1.51871 0.421078 0
M  V30 7144 C 679.725 -1.9447 -0.20993 0
M  V30 7145 C 680.105 -1.35875 -1.61558 0
M  V30 7146 O 679.453 -0.539294 -2.22045 0
M  V30 7147 C 679.663 -3.48402 -0.204165 0
M  V30 7148 C 681.011 -4.2254 -0.417696 0
M  V30 7149 O 682.035 -3.55074 -0.282999 0
M  V30 7150 O 680.894 -5.422 -0.684239 0
M  V30 7151 H 677.988 -0.815283 -0.138718 0
M  V30 7152 H 680.534 -1.62832 0.477884 0
M  V30 7153 H 679.306 -3.83464 0.779183 0
M  V30 7154 H 678.929 -3.86436 -0.935576 0
M  V30 7155 N 679.926 -0.151884 -1.56866 0
M  V30 7156 C 681.172 0.498742 -1.96572 0
M  V30 7157 C 681.505 1.64194 -1.03702 0
M  V30 7158 O 680.78 1.94334 -0.0803432 0
M  V30 7159 C 681.063 1.00027 -3.45929 0
M  V30 7160 C 680.916 -0.141767 -4.49577 0
M  V30 7161 C 682.235 1.88044 -3.97904 0
M  V30 7162 H 679.354 0.17982 -0.714726 0
M  V30 7163 H 681.996 -0.234097 -1.88552 0
M  V30 7164 H 680.146 1.62476 -3.52894 0
M  V30 7165 H 681.818 -0.778269 -4.54687 0
M  V30 7166 H 680.061 -0.80019 -4.26356 0
M  V30 7167 H 680.732 0.250947 -5.51429 0
M  V30 7168 H 683.208 1.35416 -3.93449 0
M  V30 7169 H 682.084 2.20043 -5.02864 0
M  V30 7170 H 682.345 2.81916 -3.40552 0
M  V30 7171 N 681.404 1.57128 0.121893 0
M  V30 7172 C 682.336 1.96773 1.17529 0
M  V30 7173 C 683.349 0.866668 1.37814 0
M  V30 7174 O 684.538 1.14497 1.3694 0
M  V30 7175 C 681.638 2.24832 2.53582 0
M  V30 7176 C 680.811 3.56138 2.53939 0
M  V30 7177 C 679.87 3.72443 3.71716 0
M  V30 7178 O 678.896 4.44584 3.55434 0
M  V30 7179 N 680.098 3.10993 4.90167 0
M  V30 7180 H 682.863 2.87743 0.838086 0
M  V30 7181 H 680.424 1.58881 0.311199 0
M  V30 7182 H 682.416 2.32958 3.30927 0
M  V30 7183 H 680.986 1.40002 2.79496 0
M  V30 7184 H 680.206 3.59226 1.62329 0
M  V30 7185 H 681.494 4.42448 2.51231 0
M  V30 7186 H 680.892 2.52345 5.06299 0
M  V30 7187 H 679.449 3.24644 5.65198 0
M  V30 7188 N 682.882 -0.391992 1.52647 0
M  V30 7189 C 683.845 -1.46135 1.7657 0
M  V30 7190 C 684.845 -1.47701 0.635698 0
M  V30 7191 O 686.035 -1.48924 0.903728 0
M  V30 7192 C 683.167 -2.85443 1.86374 0
M  V30 7193 H 684.36 -1.26208 2.72051 0
M  V30 7194 H 681.913 -0.623549 1.43323 0
M  V30 7195 H 682.648 -3.10718 0.928685 0
M  V30 7196 H 682.433 -2.85708 2.68539 0
M  V30 7197 H 683.923 -3.62933 2.06566 0
M  V30 7198 N 684.36 -1.4356 -0.65026 0
M  V30 7199 C 685.776 -1.27025 -0.966269 0
M  V30 7200 C 685.976 -0.192117 -2.00582 0
M  V30 7201 O 685.032 0.428459 -2.48838 0
M  V30 7202 C 686.345 -2.63556 -1.44772 0
M  V30 7203 C 687.893 -2.71111 -1.56421 0
M  V30 7204 C 688.368 -4.08067 -2.07956 0
M  V30 7205 N 689.859 -4.10146 -2.15254 0
M  V30 7206 C 690.594 -5.12952 -2.56258 0
M  V30 7207 N 690.09 -6.26129 -2.96537 0
M  V30 7208 N 691.883 -5.00306 -2.56224 0
M  V30 7209 H 684.034 -2.12367 0.0375758 0
M  V30 7210 H 686.297 -0.946894 -0.0457782 0
M  V30 7211 H 686.003 -3.43429 -0.758271 0
M  V30 7212 H 685.877 -2.89152 -2.42221 0
M  V30 7213 H 688.264 -1.91569 -2.24467 0
M  V30 7214 H 688.345 -2.49277 -0.573967 0
M  V30 7215 H 687.989 -4.88077 -1.40511 0
M  V30 7216 H 687.919 -4.27266 -3.07817 0
M  V30 7217 H 690.41 -3.28453 -1.86887 0
M  V30 7218 H 690.723 -7.00403 -3.26582 0
M  V30 7219 H 689.068 -6.29597 -2.94334 0
M  V30 7220 H 692.259 -4.10952 -2.24135 0
M  V30 7221 H 692.432 -5.80553 -2.87857 0
M  V30 7222 N 685.838 0.888903 -1.30139 0
M  V30 7223 C 686.801 1.97576 -1.16174 0
M  V30 7224 C 687.801 1.60525 -0.094086 0
M  V30 7225 O 688.991 1.70812 -0.341889 0
M  V30 7226 C 686.123 3.3188 -0.778983 0
M  V30 7227 H 687.316 2.11393 -2.12728 0
M  V30 7228 H 684.869 1.0748 -1.1348 0
M  V30 7229 H 685.604 3.23765 0.186225 0
M  V30 7230 H 685.389 3.60141 -1.55051 0
M  V30 7231 H 686.879 4.11612 -0.704631 0
M  V30 7232 N 687.317 1.12792 1.10072 0
M  V30 7233 C 688.564 0.885545 1.82111 0
M  V30 7234 C 688.892 -0.588519 1.85383 0
M  V30 7235 O 688.147 -1.45124 1.31292 0
M  V30 7236 C 688.446 1.4102 3.28403 0
M  V30 7237 C 688.112 2.89995 3.45273 0
M  V30 7238 C 686.774 3.30671 3.49585 0
M  V30 7239 C 689.126 3.85874 3.50358 0
M  V30 7240 C 686.454 4.65925 3.56553 0
M  V30 7241 C 688.806 5.20963 3.58859 0
M  V30 7242 C 687.47 5.61177 3.61437 0
M  V30 7243 H 686.74 0.324044 0.666391 0
M  V30 7244 H 689.387 1.40874 1.29718 0
M  V30 7245 H 687.692 0.807551 3.83387 0
M  V30 7246 H 689.389 1.19882 3.82661 0
M  V30 7247 H 685.979 2.57537 3.42597 0
M  V30 7248 H 690.163 3.5554 3.46273 0
M  V30 7249 H 685.419 4.96468 3.56833 0
M  V30 7250 H 689.593 5.95079 3.61738 0
M  V30 7251 H 687.22 6.6597 3.66589 0
M  V30 7252 N 688.795 -1.27931 0.920396 0
M  V30 7253 C 689.705 -2.30824 0.419212 0
M  V30 7254 C 690.721 -1.66767 -0.496461 0
M  V30 7255 O 691.897 -1.97763 -0.38104 0
M  V30 7256 C 688.962 -3.45158 -0.326601 0
M  V30 7257 C 688.023 -4.24754 0.623098 0
M  V30 7258 C 687.256 -5.33629 -0.0872172 0
M  V30 7259 O 687.479 -5.55204 -1.30784 0
M  V30 7260 O 686.413 -5.99091 0.580875 0
M  V30 7261 H 690.239 -2.75716 1.27337 0
M  V30 7262 H 687.824 -1.32747 0.685465 0
M  V30 7263 H 689.706 -4.14716 -0.747559 0
M  V30 7264 H 688.381 -3.02336 -1.15648 0
M  V30 7265 H 687.288 -3.57759 1.09359 0
M  V30 7266 H 688.621 -4.71272 1.41998 0
M  V30 7267 N 690.273 -0.685099 -1.4193 0
M  V30 7268 C 691.503 -0.220052 -2.05425 0
M  V30 7269 C 691.911 1.13185 -1.51611 0
M  V30 7270 O 691.254 1.71631 -0.654875 0
M  V30 7271 C 691.316 -0.0888364 -3.5939 0
M  V30 7272 C 690.98 -1.37109 -4.35947 0
M  V30 7273 C 691.977 -2.30675 -4.65924 0
M  V30 7274 C 689.662 -1.62155 -4.75406 0
M  V30 7275 C 691.656 -3.47556 -5.34306 0
M  V30 7276 C 689.343 -2.79324 -5.43527 0
M  V30 7277 C 690.341 -3.71848 -5.72903 0
M  V30 7278 O 690.029 -4.86966 -6.39624 0
M  V30 7279 H 689.761 -0.102165 -0.668235 0
M  V30 7280 H 692.315 -0.935194 -1.82875 0
M  V30 7281 H 690.545 0.681981 -3.80639 0
M  V30 7282 H 692.234 0.337669 -4.04493 0
M  V30 7283 H 693 -2.12579 -4.3593 0
M  V30 7284 H 688.879 -0.910053 -4.51928 0
M  V30 7285 H 692.423 -4.19794 -5.57153 0
M  V30 7286 H 688.32 -2.97342 -5.72938 0
M  V30 7287 H 689.088 -4.86644 -6.58118 0
M  V30 7288 N 691.751 1.51645 -0.429126 0
M  V30 7289 C 692.997 2.02967 0.132584 0
M  V30 7290 C 693.352 1.30804 1.41096 0
M  V30 7291 O 692.645 0.411705 1.87124 0
M  V30 7292 C 692.839 3.54989 0.414472 0
M  V30 7293 C 692.668 4.41879 -0.83503 0
M  V30 7294 C 691.438 4.86482 -1.36614 0
M  V30 7295 C 693.636 4.84727 -1.71886 0
M  V30 7296 N 691.618 5.5756 -2.56904 0
M  V30 7297 C 692.989 5.54788 -2.76786 0
M  V30 7298 C 695.044 4.66721 -1.73425 0
M  V30 7299 C 693.747 6.08753 -3.8316 0
M  V30 7300 C 695.773 5.21597 -2.7873 0
M  V30 7301 C 695.135 5.91598 -3.8235 0
M  V30 7302 H 691.234 0.781942 0.00956367 0
M  V30 7303 H 693.818 1.8561 -0.587957 0
M  V30 7304 H 691.989 3.72378 1.10405 0
M  V30 7305 H 693.721 3.92982 0.966817 0
M  V30 7306 H 690.476 4.64553 -0.921255 0
M  V30 7307 H 690.9 5.97731 -3.17879 0
M  V30 7308 H 695.542 4.1207 -0.946467 0
M  V30 7309 H 693.26 6.62464 -4.62782 0
M  V30 7310 H 696.846 5.09522 -2.80853 0
M  V30 7311 H 695.726 6.33299 -4.62495 0
M  V30 7312 N 693.229 0.160201 1.56784 0
M  V30 7313 C 694.176 -0.774416 2.1742 0
M  V30 7314 C 695.146 -1.23483 1.11091 0
M  V30 7315 O 696.331 -1.30499 1.39193 0
M  V30 7316 C 693.471 -2.00283 2.81035 0
M  V30 7317 C 692.584 -1.58701 4.01793 0
M  V30 7318 C 691.719 -2.76824 4.53367 0
M  V30 7319 C 690.758 -2.31679 5.66561 0
M  V30 7320 N 689.895 -3.42856 6.12694 0
M  V30 7321 H 694.735 -0.250542 2.96945 0
M  V30 7322 H 692.272 -0.111943 1.46673 0
M  V30 7323 H 694.23 -2.72316 3.16069 0
M  V30 7324 H 692.86 -2.5006 2.04132 0
M  V30 7325 H 691.912 -0.76384 3.72652 0
M  V30 7326 H 693.224 -1.21555 4.83762 0
M  V30 7327 H 692.378 -3.57029 4.90525 0
M  V30 7328 H 691.117 -3.17223 3.70433 0
M  V30 7329 H 690.122 -1.49917 5.28966 0
M  V30 7330 H 691.347 -1.9235 6.5129 0
M  V30 7331 H 689.293 -3.82852 5.32692 0
M  V30 7332 H 689.21 -3.09767 6.89624 0
M  V30 7333 H 690.478 -4.23379 6.545 0
M  V30 7334 N 694.707 -1.5719 -0.113559 0
M  V30 7335 C 695.655 -2.01725 -1.158 0
M  V30 7336 C 696.649 -0.915105 -1.42556 0
M  V30 7337 O 697.855 -1.10031 -1.42454 0
M  V30 7338 H 694.23 -0.64262 -0.390569 0
M  V30 7339 H 696.201 -2.88666 -0.755926 0
M  V30 7340 C 694.95 -2.44203 -2.47507 0
M  V30 7341 H 694.273 -3.28582 -2.27758 0
M  V30 7342 H 695.713 -2.79158 -3.19135 0
M  V30 7343 C 694.172 -1.30785 -3.10478 0
M  V30 7344 O 694.702 -0.626807 -3.9678 0
M  V30 7345 N 692.908 -1.06352 -2.7044 0
M  V30 7346 H 692.455 -1.61913 -2.00355 0
M  V30 7347 H 692.413 -0.306614 -3.12901 0
M  V30 7348 N 696.185 0.383891 -1.52853 0
M  V30 7349 C 697.431 1.13009 -1.68395 0
M  V30 7350 C 697.764 1.89488 -0.425195 0
M  V30 7351 O 697.039 1.8574 0.577136 0
M  V30 7352 C 697.322 2.10419 -2.92226 0
M  V30 7353 C 697.175 1.3767 -4.28214 0
M  V30 7354 C 698.494 3.10781 -3.11614 0
M  V30 7355 H 695.613 0.409463 -0.612788 0
M  V30 7356 H 698.255 0.412895 -1.85459 0
M  V30 7357 H 696.405 2.71579 -2.77808 0
M  V30 7358 H 698.077 0.794352 -4.54409 0
M  V30 7359 H 696.32 0.678533 -4.2846 0
M  V30 7360 H 696.991 2.08874 -5.10956 0
M  V30 7361 H 699.467 2.59715 -3.25096 0
M  V30 7362 H 698.343 3.76179 -3.99725 0
M  V30 7363 H 698.604 3.79933 -2.2606 0
M  V30 7364 N 697.663 1.43903 0.642637 0
M  V30 7365 C 698.94 1.36556 1.40043 0
M  V30 7366 C 699.32 0.0185588 2.11092 0
M  V30 7367 O 698.668 -0.998438 2.05532 0
M  V30 7368 C 698.878 2.55596 2.37638 0
M  V30 7369 C 700.226 2.99153 3.01318 0
M  V30 7370 O 701.25 2.55719 2.47965 0
M  V30 7371 O 700.109 3.74427 3.98078 0
M  V30 7372 H 697.203 0.540189 0.626198 0
M  V30 7373 H 699.749 1.55971 0.668657 0
M  V30 7374 H 698.521 3.45256 1.84158 0
M  V30 7375 H 698.144 2.38334 3.18249 0
M  V30 7376 N 699.141 -0.881989 1.30609 0
M  V30 7377 C 700.104 -1.96957 1.1722 0
M  V30 7378 C 701.104 -1.60472 0.102598 0
M  V30 7379 O 702.294 -1.70628 0.350943 0
M  V30 7380 C 699.426 -3.31463 0.796572 0
M  V30 7381 H 700.619 -2.10262 2.13846 0
M  V30 7382 H 698.172 -1.06877 1.14048 0
M  V30 7383 H 698.907 -3.23859 -0.169053 0
M  V30 7384 H 698.692 -3.59314 1.56959 0
M  V30 7385 H 700.182 -4.11233 0.72645 0
M  V30 7386 N 700.619 -1.13374 -1.09472 0
M  V30 7387 C 701.847 -0.918351 -1.85402 0
M  V30 7388 C 702.262 0.53281 -1.81126 0
M  V30 7389 O 701.619 1.36879 -1.20708 0
M  V30 7390 C 701.67 -1.39743 -3.33398 0
M  V30 7391 O 701.391 -2.79172 -3.37631 0
M  V30 7392 C 702.892 -1.22042 -4.2617 0
M  V30 7393 H 700.112 -0.327511 -0.585643 0
M  V30 7394 H 702.656 -1.50617 -1.38328 0
M  V30 7395 H 700.811 -0.852619 -3.77901 0
M  V30 7396 H 701.225 -3.00428 -4.29934 0
M  V30 7397 H 702.699 -1.60438 -5.2817 0
M  V30 7398 H 703.176 -0.162047 -4.38901 0
M  V30 7399 H 703.782 -1.75323 -3.87482 0
M  V30 7400 N 702.098 1.27442 -0.927168 0
M  V30 7401 C 703.347 1.93679 -0.563146 0
M  V30 7402 C 703.66 1.73673 0.899837 0
M  V30 7403 O 704.866 2.34247 1.37262 0
M  V30 7404 C 703.322 3.46961 -0.95636 0
M  V30 7405 C 702.93 3.75724 -2.43999 0
M  V30 7406 C 704.674 4.19282 -0.663565 0
M  V30 7407 C 702.581 5.22378 -2.77263 0
M  V30 7408 H 701.511 0.725059 -0.206894 0
M  V30 7409 H 704.162 1.44743 -1.12791 0
M  V30 7410 H 702.544 3.94703 -0.320254 0
M  V30 7411 H 703.718 3.38741 -3.12396 0
M  V30 7412 H 702.033 3.16605 -2.70463 0
M  V30 7413 H 704.63 5.27265 -0.888596 0
M  V30 7414 H 704.973 4.14382 0.399198 0
M  V30 7415 H 705.506 3.7736 -1.25875 0
M  V30 7416 H 702.245 5.32367 -3.82446 0
M  V30 7417 H 701.765 5.6051 -2.13516 0
M  V30 7418 H 703.444 5.9025 -2.64979 0
M  V30 7419 N 703.576 0.692616 1.41565 0
M  V30 7420 C 704.824 0.221896 2.00878 0
M  V30 7421 C 705.145 -1.18164 1.5512 0
M  V30 7422 O 704.415 -1.79679 0.78054 0
M  V30 7423 H 702.995 0.0790463 0.742806 0
M  V30 7424 H 705.657 0.893115 1.73232 0
M  V30 7425 H 704.753 0.23702 3.11199 0
M  V30 7426 N 705.054 -1.51416 0.437162 0
M  V30 7427 C 705.986 -2.255 -0.410171 0
M  V30 7428 C 706.999 -1.29511 -0.986444 0
M  V30 7429 O 708.188 -1.55266 -0.880614 0
M  V30 7430 C 705.288 -2.99511 -1.58575 0
M  V30 7431 C 704.461 -4.22595 -1.12839 0
M  V30 7432 C 703.52 -4.79187 -2.17407 0
M  V30 7433 O 702.546 -5.4103 -1.76849 0
M  V30 7434 N 703.748 -4.63204 -3.49889 0
M  V30 7435 H 706.513 -2.98856 0.224783 0
M  V30 7436 H 704.074 -1.59699 0.266041 0
M  V30 7437 H 706.066 -3.34258 -2.28152 0
M  V30 7438 H 704.636 -2.29167 -2.12606 0
M  V30 7439 H 703.856 -3.93344 -0.259695 0
M  V30 7440 H 705.144 -5.02468 -0.800196 0
M  V30 7441 H 704.542 -4.13945 -3.85573 0
M  V30 7442 H 703.099 -5.02313 -4.15361 0
M  V30 7443 N 706.532 -0.168513 -1.56696 0
M  V30 7444 C 707.948 0.187686 -1.58493 0
M  V30 7445 C 708.148 1.63063 -1.18375 0
M  V30 7446 O 707.204 2.36142 -0.894042 0
M  V30 7447 C 708.517 -0.0905858 -3.00564 0
M  V30 7448 C 710.065 -0.028575 -3.12987 0
M  V30 7449 C 710.54 -0.279799 -4.57145 0
M  V30 7450 N 712.031 -0.227476 -4.62641 0
M  V30 7451 C 712.766 -0.396073 -5.7203 0
M  V30 7452 N 712.262 -0.623572 -6.89988 0
M  V30 7453 N 714.055 -0.332173 -5.61118 0
M  V30 7454 H 706.206 -1.11042 -1.81062 0
M  V30 7455 H 708.469 -0.441235 -0.839056 0
M  V30 7456 H 708.175 -1.09006 -3.34381 0
M  V30 7457 H 708.049 0.619078 -3.72085 0
M  V30 7458 H 710.436 0.961471 -2.78998 0
M  V30 7459 H 710.517 -0.770905 -2.43907 0
M  V30 7460 H 710.161 -1.26704 -4.91842 0
M  V30 7461 H 710.091 0.48311 -5.24379 0
M  V30 7462 H 712.582 -0.0571723 -3.77857 0
M  V30 7463 H 712.895 -0.741745 -7.69232 0
M  V30 7464 H 711.24 -0.660153 -6.91858 0
M  V30 7465 H 714.431 -0.155051 -4.67843 0
M  V30 7466 H 714.604 -0.466994 -6.46315 0
M  V30 7467 N 708.01 1.57248 0.105221 0
M  V30 7468 C 709.259 1.84756 0.809198 0
M  V30 7469 C 709.572 0.756262 1.80389 0
M  V30 7470 O 710.778 0.918158 2.55504 0
M  V30 7471 C 709.234 3.27613 1.48989 0
M  V30 7472 C 708.842 4.44788 0.535484 0
M  V30 7473 C 710.586 3.64356 2.17819 0
M  V30 7474 C 708.493 5.78676 1.22019 0
M  V30 7475 H 707.423 0.689139 0.305946 0
M  V30 7476 H 710.074 1.83395 0.0620371 0
M  V30 7477 H 708.456 3.23485 2.28415 0
M  V30 7478 H 709.63 4.60243 -0.226557 0
M  V30 7479 H 707.945 4.16374 -0.0465769 0
M  V30 7480 H 710.542 4.61663 2.69761 0
M  V30 7481 H 710.885 2.92474 2.96251 0
M  V30 7482 H 711.418 3.70328 1.45264 0
M  V30 7483 H 708.157 6.53763 0.476875 0
M  V30 7484 H 707.677 5.67083 1.9539 0
M  V30 7485 H 709.356 6.22897 1.74952 0
M  V30 7486 N 709.488 -0.375779 1.53054 0
M  V30 7487 C 710.398 -1.48381 1.81715 0
M  V30 7488 C 711.414 -1.59087 0.704795 0
M  V30 7489 O 712.59 -1.75174 0.993785 0
M  V30 7490 C 709.655 -2.83767 1.99192 0
M  V30 7491 C 708.716 -2.82673 3.23102 0
M  V30 7492 C 707.949 -4.11601 3.39736 0
M  V30 7493 O 708.172 -5.07243 2.60885 0
M  V30 7494 O 707.106 -4.18034 4.33049 0
M  V30 7495 H 710.932 -1.27089 2.7583 0
M  V30 7496 H 708.517 -0.564902 1.38308 0
M  V30 7497 H 710.399 -3.64004 2.12318 0
M  V30 7498 H 709.074 -3.05057 1.08267 0
M  V30 7499 H 707.981 -2.0117 3.15407 0
M  V30 7500 H 709.314 -2.66335 4.13916 0
M  V30 7501 N 710.966 -1.44241 -0.634997 0
M  V30 7502 C 712.243 -1.37296 -1.39317 0
M  V30 7503 C 712.623 -0.0297532 -2.11079 0
M  V30 7504 O 711.971 0.987524 -2.06059 0
M  V30 7505 C 712.181 -2.56853 -2.36279 0
M  V30 7506 C 713.529 -3.00747 -2.99728 0
M  V30 7507 O 714.553 -2.5703 -2.46605 0
M  V30 7508 O 713.412 -3.76533 -3.96087 0
M  V30 7509 H 710.506 -0.543503 -0.623325 0
M  V30 7510 H 713.052 -1.56324 -0.660376 0
M  V30 7511 H 711.824 -3.46228 -1.82324 0
M  V30 7512 H 711.447 -2.40019 -3.16981 0
M  V30 7513 N 712.444 0.87505 -1.31075 0
M  V30 7514 C 713.354 2.01441 -1.20244 0
M  V30 7515 C 714.37 1.73584 -0.120227 0
M  V30 7516 O 715.546 1.98559 -0.337063 0
M  V30 7517 C 712.611 3.34675 -0.905199 0
M  V30 7518 C 711.672 3.75889 -2.0738 0
M  V30 7519 C 710.905 5.02764 -1.79064 0
M  V30 7520 O 711.128 5.65795 -0.723318 0
M  V30 7521 O 710.062 5.40623 -2.64594 0
M  V30 7522 H 713.888 2.13509 -2.1598 0
M  V30 7523 H 711.473 1.00257 -1.10765 0
M  V30 7524 H 713.355 4.1458 -0.755057 0
M  V30 7525 H 712.03 3.23692 0.0221695 0
M  V30 7526 H 710.937 2.96645 -2.27931 0
M  V30 7527 H 712.27 3.91489 -2.98324 0
M  V30 7528 N 713.922 1.13953 1.08869 0
M  V30 7529 C 715.168 0.906151 1.8143 0
M  V30 7530 C 715.501 -0.566089 1.85766 0
M  V30 7531 O 714.776 -1.41915 1.33006 0
M  V30 7532 C 715.059 1.50183 3.27287 0
M  V30 7533 C 714.912 3.04359 3.31189 0
M  V30 7534 C 716.231 1.17477 4.24131 0
M  V30 7535 H 713.35 0.330624 0.658678 0
M  V30 7536 H 715.992 1.40873 1.27495 0
M  V30 7537 H 714.142 1.07442 3.73348 0
M  V30 7538 H 715.814 3.55896 2.93488 0
M  V30 7539 H 714.057 3.39053 2.70602 0
M  V30 7540 H 714.728 3.41141 4.33966 0
M  V30 7541 H 717.204 1.5442 3.86385 0
M  V30 7542 H 716.08 1.61795 5.24513 0
M  V30 7543 H 716.341 0.0893312 4.4201 0
M  V30 7544 N 715.4 -1.26948 0.933913 0
M  V30 7545 C 716.347 -2.26635 0.436484 0
M  V30 7546 C 717.317 -1.58397 -0.499953 0
M  V30 7547 O 718.502 -1.86171 -0.417753 0
M  V30 7548 C 715.642 -3.43803 -0.298951 0
M  V30 7549 C 714.755 -4.26736 0.672316 0
M  V30 7550 C 713.89 -5.31134 -0.0835872 0
M  V30 7551 C 712.929 -6.05742 0.879979 0
M  V30 7552 N 712.066 -7.01926 0.156301 0
M  V30 7553 H 716.906 -2.68558 1.29154 0
M  V30 7554 H 714.443 -1.32052 0.648118 0
M  V30 7555 H 716.401 -4.10554 -0.741723 0
M  V30 7556 H 715.031 -3.02814 -1.1182 0
M  V30 7557 H 714.083 -3.59842 1.23361 0
M  V30 7558 H 715.395 -4.78502 1.40846 0
M  V30 7559 H 714.549 -6.03863 -0.585984 0
M  V30 7560 H 713.288 -4.80188 -0.852661 0
M  V30 7561 H 712.293 -5.31846 1.39357 0
M  V30 7562 H 713.518 -6.58777 1.64894 0
M  V30 7563 H 711.464 -6.53301 -0.594413 0
M  V30 7564 H 711.381 -7.51409 0.831906 0
M  V30 7565 H 712.649 -7.78821 -0.325239 0
M  V30 7566 N 716.879 -0.700114 -1.41195 0
M  V30 7567 C 718.295 -0.372114 -1.55201 0
M  V30 7568 C 718.495 1.12053 -1.6747 0
M  V30 7569 O 717.551 1.90642 -1.65566 0
M  V30 7570 C 718.864 -1.12462 -2.78878 0
M  V30 7571 C 720.412 -1.10941 -2.92679 0
M  V30 7572 C 720.887 -1.84376 -4.19249 0
M  V30 7573 N 722.378 -1.81368 -4.26216 0
M  V30 7574 C 723.113 -2.35024 -5.23021 0
M  V30 7575 N 722.609 -2.9717 -6.25829 0
M  V30 7576 N 724.402 -2.25254 -5.14992 0
M  V30 7577 H 716.553 -1.66816 -1.31477 0
M  V30 7578 H 718.816 -0.704223 -0.634644 0
M  V30 7579 H 718.522 -2.17937 -2.76037 0
M  V30 7580 H 718.396 -0.706152 -3.70531 0
M  V30 7581 H 720.783 -0.062911 -2.95033 0
M  V30 7582 H 720.864 -1.56698 -2.02187 0
M  V30 7583 H 720.508 -2.89008 -4.17656 0
M  V30 7584 H 720.438 -1.3605 -5.08722 0
M  V30 7585 H 722.929 -1.36062 -3.52556 0
M  V30 7586 H 723.242 -3.35668 -6.96094 0
M  V30 7587 H 721.587 -3.01249 -6.26318 0
M  V30 7588 H 724.778 -1.76372 -4.33602 0
M  V30 7589 H 724.951 -2.67373 -5.90268 0
M  V30 7590 N 718.357 1.51182 -0.445186 0
M  V30 7591 C 719.307 2.24804 0.380394 0
M  V30 7592 C 720.291 1.27344 0.983482 0
M  V30 7593 O 721.483 1.52392 0.900322 0
M  V30 7594 C 718.612 3.09922 1.4766 0
M  V30 7595 C 717.698 4.14816 0.882517 0
M  V30 7596 N 718.089 5.05797 0.0183278 0
M  V30 7597 C 716.387 4.30938 1.14927 0
M  V30 7598 C 717.088 5.8084 -0.316152 0
M  V30 7599 N 716.064 5.42759 0.302214 0
M  V30 7600 H 719.866 2.92508 -0.285737 0
M  V30 7601 H 717.38 1.60342 -0.257733 0
M  V30 7602 H 719.377 3.61249 2.08098 0
M  V30 7603 H 718.037 2.43763 2.14498 0
M  V30 7604 H 719.048 5.16725 -0.348679 0
M  V30 7605 H 715.725 3.76005 1.81457 0
M  V30 7606 H 717.115 6.64115 -1.01986 0
M  V30 7607 N 719.835 0.176821 1.56605 0
M  V30 7608 C 720.745 -0.763682 2.21822 0
M  V30 7609 C 721.761 -1.24889 1.21156 0
M  V30 7610 O 722.937 -1.29987 1.53836 0
M  V30 7611 C 720.002 -1.97352 2.8505 0
M  V30 7612 C 719.063 -1.53466 4.00932 0
M  V30 7613 C 718.296 -2.68682 4.61135 0
M  V30 7614 O 718.519 -3.85694 4.20234 0
M  V30 7615 O 717.453 -2.42442 5.50913 0
M  V30 7616 H 721.279 -0.238363 3.02763 0
M  V30 7617 H 718.864 -0.0516331 1.49311 0
M  V30 7618 H 720.746 -2.68096 3.25119 0
M  V30 7619 H 719.421 -2.48779 2.07101 0
M  V30 7620 H 718.328 -0.796551 3.65521 0
M  V30 7621 H 719.661 -1.06724 4.8049 0
M  V30 7622 N 721.313 -1.57302 -0.09688 0
M  V30 7623 C 722.561 -1.8563 -0.799117 0
M  V30 7624 C 722.882 -0.765263 -1.79356 0
M  V30 7625 O 722.152 0.208657 -1.94786 0
M  V30 7626 H 720.732 -0.684937 -0.298111 0
M  V30 7627 H 723.394 -1.9474 -0.0789341 0
M  V30 7628 H 722.49 -2.82305 -1.3308 0
M  V30 7629 N 722.791 0.367657 -1.53252 0
M  V30 7630 C 724.068 1.12606 -1.59935 0
M  V30 7631 C 724.448 2.07167 -0.405606 0
M  V30 7632 O 723.796 2.20364 0.604323 0
M  V30 7633 C 724.006 1.86699 -2.94863 0
M  V30 7634 C 725.354 2.41306 -3.49366 0
M  V30 7635 O 726.378 1.96828 -2.96879 0
M  V30 7636 O 725.237 3.2261 -4.41118 0
M  V30 7637 H 722.331 0.516438 -0.645926 0
M  V30 7638 H 724.877 0.371088 -1.65593 0
M  V30 7639 H 723.649 1.17674 -3.73187 0
M  V30 7640 H 723.272 2.6911 -2.92687 0
M  V30 7641 N 724.269 1.44576 0.627338 0
M  V30 7642 C 725.517 1.47267 1.38408 0
M  V30 7643 C 725.838 0.107971 1.94701 0
M  V30 7644 O 725.108 -0.860206 1.76004 0
M  V30 7645 H 723.688 0.542276 0.513756 0
M  V30 7646 H 726.35 1.80383 0.738099 0
M  V30 7647 H 725.446 2.20025 2.21349 0
M  V30 7648 N 725.747 -0.868086 1.31537 0
M  V30 7649 C 726.996 -1.61607 1.20689 0
M  V30 7650 C 727.309 -1.94204 -0.233275 0
M  V30 7651 O 728.515 -2.67515 -0.463465 0
M  V30 7652 C 726.971 -2.91348 2.11292 0
M  V30 7653 C 726.579 -2.66227 3.60315 0
M  V30 7654 C 728.323 -3.69344 2.09249 0
M  V30 7655 C 726.23 -3.91887 4.42921 0
M  V30 7656 H 725.16 -0.606373 0.448138 0
M  V30 7657 H 727.811 -0.959666 1.56405 0
M  V30 7658 H 726.193 -3.58374 1.68477 0
M  V30 7659 H 727.367 -2.07597 4.11388 0
M  V30 7660 H 725.682 -2.01582 3.64354 0
M  V30 7661 H 728.279 -4.62567 2.68209 0
M  V30 7662 H 728.622 -4.02044 1.0801 0
M  V30 7663 H 729.155 -3.09205 2.50274 0
M  V30 7664 H 725.894 -3.64336 5.44922 0
M  V30 7665 H 725.414 -4.49961 3.96605 0
M  V30 7666 H 727.093 -4.59754 4.55231 0
M  V30 7667 N 727.225 -1.14528 -1.08264 0
M  V30 7668 C 728.636 -0.925261 -1.6216 0
M  V30 7669 C 728.987 0.535587 -1.88748 0
M  V30 7670 O 728.112 1.4048 -1.64604 0
M  V30 7671 C 728.707 -1.67316 -2.94603 0
M  V30 7672 C 727.266 -1.49868 -3.45278 0
M  V30 7673 C 726.413 -1.69471 -2.19487 0
M  V30 7674 H 729.364 -1.29687 -0.914707 0
M  V30 7675 H 729.385 -1.13721 -3.63109 0
M  V30 7676 H 728.897 -2.73635 -2.75219 0
M  V30 7677 H 726.998 -0.459032 -3.69762 0
M  V30 7678 H 727.111 -2.2696 -4.21931 0
M  V30 7679 H 725.475 -1.12048 -2.2873 0
M  V30 7680 H 726.258 -2.77136 -2.0261 0
M  V30 7681 N 728.703 1.26451 -0.940633 0
M  V30 7682 C 729.951 1.93395 -0.586748 0
M  V30 7683 C 730.272 1.7417 0.876921 0
M  V30 7684 O 729.542 1.097 1.62304 0
M  V30 7685 H 728.122 0.715687 -0.214012 0
M  V30 7686 H 730.784 1.53902 -1.19584 0
M  V30 7687 H 729.88 3.01565 -0.804059 0
M  V30 7688 N 730.181 0.707592 1.40822 0
M  V30 7689 C 731.427 0.244031 2.01326 0
M  V30 7690 C 731.76 -1.15722 1.55955 0
M  V30 7691 O 731.035 -1.78347 0.776044 0
M  V30 7692 C 731.318 0.315128 3.58718 0
M  V30 7693 C 731.171 1.75419 4.14184 0
M  V30 7694 C 732.49 -0.318251 4.38948 0
M  V30 7695 H 729.609 0.0901471 0.731466 0
M  V30 7696 H 732.251 0.898584 1.67408 0
M  V30 7697 H 730.401 -0.242176 3.87744 0
M  V30 7698 H 732.073 2.36626 3.95987 0
M  V30 7699 H 730.316 2.28449 3.68773 0
M  V30 7700 H 730.987 1.75538 5.23345 0
M  V30 7701 H 733.463 0.156514 4.15806 0
M  V30 7702 H 732.339 -0.238019 5.48384 0
M  V30 7703 H 732.6 -1.40067 4.19325 0
M  V30 7704 N 731.66 -1.50943 0.453197 0
M  V30 7705 C 732.57 -2.31884 -0.355963 0
M  V30 7706 C 733.586 -1.41481 -1.01287 0
M  V30 7707 O 734.762 -1.74546 -1.00477 0
M  V30 7708 C 731.827 -3.15668 -1.43369 0
M  V30 7709 C 730.888 -4.2187 -0.795253 0
M  V30 7710 C 730.121 -5.0165 -1.82162 0
M  V30 7711 O 730.344 -4.82266 -3.04592 0
M  V30 7712 O 729.278 -5.85311 -1.40336 0
M  V30 7713 H 733.104 -3.02162 0.305248 0
M  V30 7714 H 730.689 -1.47839 0.215398 0
M  V30 7715 H 732.571 -3.67709 -2.05836 0
M  V30 7716 H 731.246 -2.48137 -2.07869 0
M  V30 7717 H 730.153 -3.73867 -0.132106 0
M  V30 7718 H 731.486 -4.9182 -0.193484 0
M  V30 7719 N 733.138 -0.185124 -1.56509 0
M  V30 7720 C 734.101 0.72591 -2.17401 0
M  V30 7721 C 735.101 1.14819 -1.12575 0
M  V30 7722 O 736.291 1.0629 -1.38015 0
M  V30 7723 C 733.423 1.98979 -2.76803 0
M  V30 7724 H 734.616 0.195588 -2.99262 0
M  V30 7725 H 732.169 0.0644772 -1.56167 0
M  V30 7726 H 732.904 2.56287 -1.98714 0
M  V30 7727 H 732.689 1.69583 -3.53531 0
M  V30 7728 H 734.179 2.63966 -3.23592 0
M  V30 7729 N 734.616 1.57351 0.0885366 0
M  V30 7730 C 735.864 1.86051 0.789262 0
M  V30 7731 C 736.185 0.774763 1.78948 0
M  V30 7732 O 735.455 -0.198324 1.94894 0
M  V30 7733 H 734.035 0.686508 0.294475 0
M  V30 7734 H 736.697 1.94779 0.0686055 0
M  V30 7735 H 735.793 2.83007 1.31581 0
M  V30 7736 N 736.094 -0.359525 1.53444 0
M  V30 7737 C 737.342 -1.09935 1.69584 0
M  V30 7738 C 737.663 -1.89656 0.453371 0
M  V30 7739 O 736.933 -1.8852 -0.53263 0
M  V30 7740 H 735.513 -0.408843 0.625185 0
M  V30 7741 H 738.175 -0.40467 1.90653 0
M  V30 7742 H 737.271 -1.78575 2.55964 0
M  V30 7743 N 737.572 -1.44907 -0.619662 0
M  V30 7744 C 738.482 -1.55168 -1.75955 0
M  V30 7745 C 739.498 -0.43672 -1.6843 0
M  V30 7746 O 740.674 -0.695704 -1.89002 0
M  V30 7747 C 737.739 -1.50397 -3.12381 0
M  V30 7748 C 736.8 -2.72835 -3.31451 0
M  V30 7749 C 736.033 -2.68283 -4.61368 0
M  V30 7750 O 736.256 -1.74929 -5.42914 0
M  V30 7751 O 735.19 -3.59308 -4.82889 0
M  V30 7752 H 739.016 -2.51493 -1.7025 0
M  V30 7753 H 736.601 -1.27282 -0.782289 0
M  V30 7754 H 738.483 -1.50301 -3.93685 0
M  V30 7755 H 737.158 -0.572197 -3.18603 0
M  V30 7756 H 736.065 -2.78496 -2.49781 0
M  V30 7757 H 737.398 -3.65098 -3.30098 0
M  V30 7758 N 739.05 0.861098 -1.31996 0
M  V30 7759 C 740.013 1.95068 -1.20338 0
M  V30 7760 C 741.013 1.60289 -0.128114 0
M  V30 7761 O 742.203 1.70048 -0.378044 0
M  V30 7762 C 739.335 3.30153 -0.849205 0
M  V30 7763 H 740.528 2.06833 -2.17164 0
M  V30 7764 H 738.081 1.05049 -1.15734 0
M  V30 7765 H 738.816 3.24087 0.117508 0
M  V30 7766 H 738.601 3.56771 -1.62655 0
M  V30 7767 H 740.091 4.10025 -0.791782 0
M  V30 7768 N 740.528 1.15101 1.07655 0
M  V30 7769 C 741.944 0.893004 1.32279 0
M  V30 7770 C 742.144 -0.461701 1.96139 0
M  V30 7771 O 741.2 -1.20431 2.21929 0
M  V30 7772 C 742.513 2.03161 2.21689 0
M  V30 7773 C 744.061 2.06579 2.35147 0
M  V30 7774 C 744.536 3.19754 3.27905 0
M  V30 7775 N 746.027 3.19382 3.35484 0
M  V30 7776 C 746.762 4.03592 4.07309 0
M  V30 7777 N 746.258 4.97859 4.81776 0
M  V30 7778 N 748.051 3.91626 4.03219 0
M  V30 7779 H 740.202 2.02341 0.645886 0
M  V30 7780 H 742.465 0.882127 0.347211 0
M  V30 7781 H 742.171 3.00934 1.82021 0
M  V30 7782 H 742.045 1.96132 3.22199 0
M  V30 7783 H 744.432 1.09408 2.74069 0
M  V30 7784 H 744.513 2.17676 1.34353 0
M  V30 7785 H 744.157 4.17175 2.89702 0
M  V30 7786 H 744.087 3.05893 4.28645 0
M  V30 7787 H 746.578 2.51112 2.82403 0
M  V30 7788 H 746.891 5.58563 5.34067 0
M  V30 7789 H 745.236 5.0185 4.80803 0
M  V30 7790 H 748.427 3.17295 3.44154 0
M  V30 7791 H 748.6 4.57479 4.5893 0
M  V30 7792 N 742.006 -1.2595 0.947325 0
M  V30 7793 C 742.939 -2.24559 0.406009 0
M  V30 7794 C 743.917 -1.54441 -0.508598 0
M  V30 7795 O 745.101 -1.83181 -0.444644 0
M  V30 7796 C 742.228 -3.36136 -0.415987 0
M  V30 7797 C 741.274 -4.24245 0.437969 0
M  V30 7798 S 742.107 -5.01948 1.86572 0
M  V30 7799 C 743.263 -6.16997 1.05194 0
M  V30 7800 H 743.496 -2.70128 1.24171 0
M  V30 7801 H 741.029 -1.34912 0.750874 0
M  V30 7802 H 742.987 -4.00861 -0.88433 0
M  V30 7803 H 741.648 -2.89167 -1.22643 0
M  V30 7804 H 740.841 -5.03634 -0.192127 0
M  V30 7805 H 740.443 -3.64416 0.841235 0
M  V30 7806 H 742.735 -6.76848 0.297126 0
M  V30 7807 H 743.678 -6.84324 1.8195 0
M  V30 7808 H 744.086 -5.61458 0.585294 0
M  V30 7809 O 743.523 -0.8533 -1.37117 0
M  V30 7810 H 744.214 -0.44662 -1.88481 0
M  V30 END ATOM
M  V30 BEGIN BOND
M  V30 END BOND
M  V30 END CTAB
M  END
$$$$
