drugbank_target|P35030 Trypsin-3 (DB02308; DB02541; DB02585; DB03127; DB03129; DB03637; DB04109; DB04369)
 OpenBabel12092119563D

  0  0  0     0  0            999 V3000
M  V30 BEGIN CTAB
M  V30 COUNTS 4510 4562 0 0 0
M  V30 BEGIN ATOM
M  V30 1 H -0.908 1.98254 -0.117106 0
M  V30 2 N 0 1.576 0 0
M  V30 3 C 0.933 2.03868 1.02534 0
M  V30 4 C 1.911 0.928543 1.3348 0
M  V30 5 O 3.095 1.19667 1.45644 0
M  V30 6 C 0.222 2.43627 2.35294 0
M  V30 7 C -0.732 3.65373 2.2001 0
M  V30 8 S 0.101 5.13292 1.52614 0
M  V30 9 C 1.257 5.56322 2.86805 0
M  V30 10 H 1.49 2.90518 0.631377 0
M  V30 11 H -0.977 1.52953 0.210867 0
M  V30 12 H 0.981 2.67203 3.11629 0
M  V30 13 H -0.358 1.57376 2.7183 0
M  V30 14 H -1.165 3.90944 3.18086 0
M  V30 15 H -1.563 3.418 1.51819 0
M  V30 16 H 0.729 5.58782 3.83104 0
M  V30 17 H 1.672 6.56266 2.65933 0
M  V30 18 H 2.08 4.83886 2.90714 0
M  V30 19 N 1.4781 -0.272755 1.55222 0
M  V30 20 C 2.7181 -1.01197 1.77591 0
M  V30 21 C 3.0821 -1.8349 0.565294 0
M  V30 22 O 4.2831 -2.60387 0.667242 0
M  V30 23 C 2.5541 -1.87096 3.04516 0
M  V30 24 S 4.1131 -2.67279 3.48004 0
M  V30 25 H 0.9311 -0.340836 0.62398 0
M  V30 26 H 3.5331 -0.282374 1.9345 0
M  V30 27 H 2.2371 -1.25565 3.90719 0
M  V30 28 H 1.7681 -2.64376 2.91323 0
M  V30 29 H 3.7831 -3.89593 3.07297 0
M  V30 30 N 2.9562 -1.48159 -0.537278 0
M  V30 31 C 4.2042 -1.55497 -1.29094 0
M  V30 32 C 4.5252 -0.227454 -1.93669 0
M  V30 33 O 3.7952 0.750386 -1.80959 0
M  V30 34 H 2.3752 -0.572832 -0.47945 0
M  V30 35 H 5.0372 -1.84579 -0.625818 0
M  V30 36 H 4.1332 -2.33216 -2.07405 0
M  V30 37 N 4.4343 0.785586 -1.36625 0
M  V30 38 C 5.8453 1.36101 -1.27803 0
M  V30 39 C 6.1963 1.96035 0.0804875 0
M  V30 40 O 5.3213 1.92834 0.982042 0
M  V30 41 C 5.9163 2.47442 -2.31426 0
M  V30 42 C 4.4753 3.00789 -2.26281 0
M  V30 43 C 3.6223 1.73896 -2.15999 0
M  V30 44 H 6.5733 0.586928 -1.47448 0
M  V30 45 H 6.5943 3.2656 -1.95291 0
M  V30 46 H 6.1063 2.03791 -3.30289 0
M  V30 47 H 4.2073 3.48851 -1.30896 0
M  V30 48 H 4.3203 3.57343 -3.19128 0
M  V30 49 H 2.6843 1.9628 -1.62316 0
M  V30 50 H 3.4673 1.32368 -3.16755 0
M  V30 51 N 5.9124 1.20967 1.01018 0
M  V30 52 C 7.1894 0.93264 1.71934 0
M  V30 53 C 7.5694 -0.55692 2.03621 0
M  V30 54 O 6.9174 -1.52035 1.7058 0
M  V30 55 C 7.1274 1.81233 2.98254 0
M  V30 56 C 8.4754 2.05804 3.71389 0
M  V30 57 O 9.4994 1.78539 3.08225 0
M  V30 58 O 8.3584 2.51888 4.84989 0
M  V30 59 H 5.4524 0.349272 0.749625 0
M  V30 60 H 7.9984 1.31871 1.06808 0
M  V30 61 H 6.7704 2.82067 2.71208 0
M  V30 62 H 6.3934 1.42674 3.7112 0
M  V30 63 N 7.3905 -1.2043 1.01659 0
M  V30 64 C 8.6675 -1.8548 0.621004 0
M  V30 65 C 9.0475 -1.9091 -0.900919 0
M  V30 66 O 8.3955 -1.41694 -1.79263 0
M  V30 67 C 8.6055 -3.25119 1.2688 0
M  V30 68 C 9.9535 -4.01403 1.38423 0
M  V30 69 O 10.9775 -3.34473 1.22501 0
M  V30 70 O 9.8365 -5.21265 1.64151 0
M  V30 71 H 6.9305 -0.798761 0.214266 0
M  V30 72 H 9.4765 -1.28019 1.11396 0
M  V30 73 H 8.2485 -3.15932 2.30873 0
M  V30 74 H 7.8715 -3.90212 0.762917 0
M  V30 75 N 8.8686 -0.792821 -1.36206 0
M  V30 76 C 10.2846 -0.474903 -1.52371 0
M  V30 77 C 10.4846 1.00622 -1.74578 0
M  V30 78 O 9.5406 1.79162 -1.77924 0
M  V30 79 C 10.8536 -1.3083 -2.70747 0
M  V30 80 C 12.4016 -1.30234 -2.84619 0
M  V30 81 C 12.8766 -2.11956 -4.06004 0
M  V30 82 N 14.3676 -2.09419 -4.13156 0
M  V30 83 C 15.1026 -2.69419 -5.06163 0
M  V30 84 N 14.5986 -3.3829 -6.04592 0
M  V30 85 N 16.3916 -2.59134 -4.98804 0
M  V30 86 H 8.5426 -1.75222 -1.20046 0
M  V30 87 H 10.8056 -0.745024 -0.586211 0
M  V30 88 H 10.5116 -2.35881 -2.6087 0
M  V30 89 H 10.3856 -0.95196 -3.6499 0
M  V30 90 H 12.7726 -0.259748 -2.93955 0
M  V30 91 H 12.8536 -1.69847 -1.91274 0
M  V30 92 H 12.4976 -3.16248 -3.97429 0
M  V30 93 H 12.4276 -1.69711 -4.98503 0
M  V30 94 H 14.9186 -1.59297 -3.42685 0
M  V30 95 H 15.2316 -3.81394 -6.7213 0
M  V30 96 H 13.5766 -3.42393 -6.04807 0
M  V30 97 H 16.7676 -2.04927 -4.20859 0
M  V30 98 H 16.9406 -3.06185 -5.711 0
M  V30 99 N 10.3467 1.47872 -0.545128 0
M  V30 100 C 11.5867 2.04391 -0.0187854 0
M  V30 101 C 11.9507 1.41162 1.30144 0
M  V30 102 O 13.1517 1.88656 1.91474 0
M  V30 103 C 11.4227 3.57299 0.0850867 0
M  V30 104 S 12.9817 4.35221 0.559302 0
M  V30 105 H 9.7997 0.710737 -0.0193301 0
M  V30 106 H 12.4017 1.81395 -0.729125 0
M  V30 107 H 11.1057 4.00847 -0.880351 0
M  V30 108 H 10.6367 3.84773 0.819348 0
M  V30 109 H 12.6517 4.61571 1.82118 0
M  V30 110 N 11.8248 0.280983 1.55075 0
M  V30 111 C 13.2358 -0.215629 1.85451 0
M  V30 112 C 13.5868 -1.54991 1.203 0
M  V30 113 O 12.7118 -2.10699 0.493435 0
M  V30 114 C 13.3068 -0.398026 3.36454 0
M  V30 115 C 11.8658 -0.838866 3.66933 0
M  V30 116 C 11.0128 0.064458 2.77225 0
M  V30 117 H 13.9638 0.502601 1.50531 0
M  V30 118 H 13.9848 -1.23569 3.59876 0
M  V30 119 H 13.4968 0.573241 3.83843 0
M  V30 120 H 11.5978 -1.8214 3.25048 0
M  V30 121 H 11.7108 -0.672123 4.74362 0
M  V30 122 H 10.0748 -0.452863 2.50642 0
M  V30 123 H 10.8578 1.03172 3.2743 0
M  V30 124 N 13.3029 -1.57598 0.00835791 0
M  V30 125 C 14.2659 -2.07884 -0.965242 0
M  V30 126 C 15.2659 -0.989825 -1.26725 0
M  V30 127 O 16.4559 -1.25218 -1.21104 0
M  V30 128 C 13.5879 -2.52731 -2.28779 0
M  V30 129 H 14.7809 -2.95178 -0.530112 0
M  V30 130 H 12.3339 -1.54458 -0.239283 0
M  V30 131 H 13.0689 -1.68705 -2.76964 0
M  V30 132 H 12.8539 -3.32272 -2.08177 0
M  V30 133 H 14.3439 -2.91933 -2.98605 0
M  V30 134 N 14.781 0.264519 -1.55364 0
M  V30 135 C 16.197 0.61215 -1.47394 0
M  V30 136 C 16.397 1.89134 -0.695018 0
M  V30 137 O 15.453 2.51563 -0.217275 0
M  V30 138 C 16.766 0.731235 -2.91674 0
M  V30 139 C 18.314 0.82473 -3.01939 0
M  V30 140 C 18.789 0.975522 -4.4749 0
M  V30 141 N 20.28 1.04083 -4.51354 0
M  V30 142 C 21.015 1.17646 -5.61201 0
M  V30 143 N 20.511 1.27874 -6.80896 0
M  V30 144 N 22.304 1.20823 -5.48961 0
M  V30 145 H 14.455 -0.575456 -2.04456 0
M  V30 146 H 16.718 -0.196099 -0.927496 0
M  V30 147 H 16.424 -0.138392 -3.51428 0
M  V30 148 H 16.298 1.60883 -3.41169 0
M  V30 149 H 18.685 1.68482 -2.42276 0
M  V30 150 H 18.766 -0.0776479 -2.55682 0
M  V30 151 H 18.41 0.120058 -5.07758 0
M  V30 152 H 18.34 1.89268 -4.91412 0
M  V30 153 H 20.831 0.973846 -3.65136 0
M  V30 154 H 21.144 1.38081 -7.60364 0
M  V30 155 H 19.489 1.24863 -6.83692 0
M  V30 156 H 22.68 1.12469 -4.54388 0
M  V30 157 H 22.853 1.31049 -6.3461 0
M  V30 158 N 16.2591 1.48442 0.529413 0
M  V30 159 C 17.5051 1.57699 1.28463 0
M  V30 160 C 17.8601 0.247913 1.90796 0
M  V30 161 O 17.1531 -0.749279 1.76342 0
M  V30 162 C 17.3471 2.6523 2.39558 0
M  V30 163 C 17.1761 4.08464 1.88114 0
M  V30 164 C 15.9461 4.75596 1.70693 0
M  V30 165 C 18.1441 4.94613 1.40935 0
M  V30 166 N 16.1261 6.03245 1.13881 0
M  V30 167 C 17.4971 6.12511 0.960734 0
M  V30 168 C 19.5521 4.80833 1.29243 0
M  V30 169 C 18.2551 7.18149 0.406792 0
M  V30 170 C 20.2811 5.86593 0.752487 0
M  V30 171 C 19.6431 7.037 0.313946 0
M  V30 172 H 15.7421 0.631608 0.46108 0
M  V30 173 H 18.3261 1.85325 0.596886 0
M  V30 174 H 16.4971 2.39425 3.05827 0
M  V30 175 H 18.2291 2.64169 3.06589 0
M  V30 176 H 14.9841 4.31938 1.94232 0
M  V30 177 H 15.4081 6.71324 0.874831 0
M  V30 178 H 20.0501 3.90635 1.61754 0
M  V30 179 H 17.7681 8.0807 0.0693671 0
M  V30 180 H 21.3541 5.77985 0.665192 0
M  V30 181 H 20.2341 7.8414 -0.0973632 0
M  V30 182 N 17.7372 -0.778329 1.37039 0
M  V30 183 C 19.1482 -1.35421 1.28523 0
M  V30 184 C 19.4992 -1.96075 -0.0700901 0
M  V30 185 O 18.6242 -1.93352 -0.971801 0
M  V30 186 C 19.2192 -2.46211 2.32735 0
M  V30 187 C 17.7782 -2.99585 2.27873 0
M  V30 188 C 16.9252 -1.72748 2.16918 0
M  V30 189 H 19.8762 -0.5791 1.47757 0
M  V30 190 H 19.8972 -3.2552 1.9702 0
M  V30 191 H 19.4092 -2.02036 3.31365 0
M  V30 192 H 17.5102 -3.48152 1.32745 0
M  V30 193 H 17.6232 -3.55646 3.21018 0
M  V30 194 H 15.9872 -1.95416 1.63354 0
M  V30 195 H 16.7702 -1.30686 3.17452 0
M  V30 196 N 19.2153 -1.21501 -1.00376 0
M  V30 197 C 20.4633 -1.03095 -1.73827 0
M  V30 198 C 20.7843 0.436341 -1.90055 0
M  V30 199 O 20.0543 1.31466 -1.45236 0
M  V30 200 H 18.6343 -0.378487 -0.644016 0
M  V30 201 H 21.2963 -1.52831 -1.20949 0
M  V30 202 H 20.3923 -1.49991 -2.73695 0
M  V30 203 N 20.6934 1.19889 -1.02296 0
M  V30 204 C 22.1044 1.71124 -0.746568 0
M  V30 205 C 22.4554 1.81939 0.734335 0
M  V30 206 O 21.5804 1.48639 1.57275 0
M  V30 207 C 22.1754 3.10804 -1.34857 0
M  V30 208 C 20.7344 3.59323 -1.1209 0
M  V30 209 C 19.8814 2.3635 -1.45031 0
M  V30 210 H 22.8324 1.04813 -1.19163 0
M  V30 211 H 22.8534 3.73186 -0.742437 0
M  V30 212 H 22.3654 3.029 -2.42638 0
M  V30 213 H 20.4664 3.7255 -0.0610337 0
M  V30 214 H 20.5794 4.4378 -1.80544 0
M  V30 215 H 18.9434 2.39399 -0.869487 0
M  V30 216 H 19.7264 2.31081 -2.53883 0
M  V30 217 N 22.1715 0.800033 1.35784 0
M  V30 218 C 23.4195 0.376597 1.9856 0
M  V30 219 C 23.7405 -1.05812 1.63795 0
M  V30 220 O 23.0105 -1.73103 0.917171 0
M  V30 221 H 21.5905 0.136261 0.734467 0
M  V30 222 H 24.2525 1.02442 1.65806 0
M  V30 223 H 23.3485 0.477002 3.08433 0
M  V30 224 N 23.6496 -1.47581 0.552962 0
M  V30 225 C 25.0656 -1.5818 0.212424 0
M  V30 226 C 25.2656 -1.55213 -1.28496 0
M  V30 227 O 24.3216 -1.45329 -2.06484 0
M  V30 228 C 25.6346 -2.88865 0.835318 0
M  V30 229 C 27.1826 -3.0244 0.806156 0
M  V30 230 C 27.6576 -4.35819 1.40804 0
M  V30 231 N 29.1486 -4.42444 1.37103 0
M  V30 232 C 29.8836 -5.44202 1.80641 0
M  V30 233 N 29.3796 -6.52795 2.32015 0
M  V30 234 N 31.1726 -5.35222 1.71738 0
M  V30 235 H 23.3236 -1.47753 1.52587 0
M  V30 236 H 25.5866 -0.702941 0.636064 0
M  V30 237 H 25.2926 -2.9676 1.88749 0
M  V30 238 H 25.1666 -3.7579 0.325848 0
M  V30 239 H 27.5536 -2.94144 -0.237317 0
M  V30 240 H 27.6346 -2.17068 1.35334 0
M  V30 241 H 27.2786 -4.44871 2.45056 0
M  V30 242 H 27.2086 -5.19916 0.836338 0
M  V30 243 H 29.6996 -3.6456 0.995202 0
M  V30 244 H 30.0126 -7.26609 2.63171 0
M  V30 245 H 28.3576 -6.53696 2.36023 0
M  V30 246 H 31.5486 -4.49284 1.31382 0
M  V30 247 H 31.7216 -6.14389 2.05987 0
M  V30 248 N 25.1277 -0.289203 -1.54924 0
M  V30 249 C 26.0907 0.579144 -2.21762 0
M  V30 250 C 27.0907 1.07047 -1.1999 0
M  V30 251 O 28.2807 0.968384 -1.44803 0
M  V30 252 C 25.4127 1.80055 -2.8947 0
M  V30 253 H 26.6057 -0.00464908 -2.999 0
M  V30 254 H 24.1587 -0.0399306 -1.56249 0
M  V30 255 H 24.8937 2.42449 -2.15381 0
M  V30 256 H 24.6787 1.45602 -3.64064 0
M  V30 257 H 26.1687 2.41773 -3.40493 0
M  V30 258 N 26.6058 1.57591 -0.0167156 0
M  V30 259 C 27.8518 1.91567 0.665582 0
M  V30 260 C 28.1848 0.892298 1.72487 0
M  V30 261 O 27.4598 -0.0867127 1.94307 0
M  V30 262 C 27.7428 3.36069 1.29342 0
M  V30 263 C 27.5958 4.49135 0.244541 0
M  V30 264 C 28.9148 3.803 2.21495 0
M  V30 265 H 26.0338 0.69666 0.240488 0
M  V30 266 H 28.6758 1.89866 -0.0714356 0
M  V30 267 H 26.8258 3.3765 1.92158 0
M  V30 268 H 28.4978 4.59689 -0.385228 0
M  V30 269 H 26.7408 4.3165 -0.431379 0
M  V30 270 H 27.4118 5.47242 0.723207 0
M  V30 271 H 29.8878 3.80377 1.68678 0
M  V30 272 H 28.7638 4.82127 2.62382 0
M  V30 273 H 29.0248 3.15104 3.101 0
M  V30 274 N 28.0839 -0.256276 1.55502 0
M  V30 275 C 29.0309 -1.31714 1.89526 0
M  V30 276 C 30.0009 -1.4828 0.748479 0
M  V30 277 O 31.1859 -1.62416 1.00128 0
M  V30 278 C 28.3259 -2.66933 2.18725 0
M  V30 279 C 27.4389 -2.58452 3.4616 0
M  V30 280 C 26.5739 -3.85961 3.64976 0
M  V30 281 C 25.6129 -3.72059 4.86044 0
M  V30 282 N 24.7499 -4.9144 5.01429 0
M  V30 283 H 29.5899 -1.01998 2.80001 0
M  V30 284 H 27.1269 -0.492413 1.38613 0
M  V30 285 H 29.0849 -3.4563 2.33657 0
M  V30 286 H 27.7149 -2.94816 1.31466 0
M  V30 287 H 26.7669 -1.71374 3.3961 0
M  V30 288 H 28.0789 -2.44085 4.34999 0
M  V30 289 H 27.2329 -4.73101 3.79816 0
M  V30 290 H 25.9719 -4.03215 2.74353 0
M  V30 291 H 24.9769 -2.83302 4.7119 0
M  V30 292 H 26.2019 -3.56309 5.78118 0
M  V30 293 H 24.1479 -5.09072 4.13741 0
M  V30 294 H 24.0649 -4.79668 5.84341 0
M  V30 295 H 25.3329 -5.80104 5.20672 0
M  V30 296 N 29.562 -1.4872 -0.521534 0
M  V30 297 C 30.802 -1.58771 -1.28729 0
M  V30 298 C 31.166 -0.259394 -1.9024 0
M  V30 299 O 32.367 -0.234942 -2.67771 0
M  V30 300 C 30.638 -2.70039 -2.34124 0
M  V30 301 S 32.197 -2.9991 -3.20312 0
M  V30 302 H 29.015 -0.560251 -0.437767 0
M  V30 303 H 31.617 -1.86283 -0.593188 0
M  V30 304 H 30.321 -3.65101 -1.87429 0
M  V30 305 H 29.852 -2.44455 -3.08229 0
M  V30 306 H 31.867 -2.39855 -4.34378 0
M  V30 307 N 31.0401 0.771051 -1.3745 0
M  V30 308 C 32.2881 1.52661 -1.32435 0
M  V30 309 C 32.6091 1.9479 0.0905024 0
M  V30 310 O 31.8791 1.66348 1.03466 0
M  V30 311 H 30.4591 0.566218 -0.487244 0
M  V30 312 H 33.1211 0.917636 -1.71946 0
M  V30 313 H 32.2171 2.42568 -1.96385 0
M  V30 314 N 32.5182 1.22032 0.997298 0
M  V30 315 C 33.4652 0.986467 2.08656 0
M  V30 316 C 34.4352 -0.0902671 1.65855 0
M  V30 317 O 35.6202 0.0584294 1.90711 0
M  V30 318 C 32.7602 0.565569 3.40434 0
M  V30 319 C 31.8732 1.71259 3.96604 0
M  V30 320 C 31.0082 1.24011 5.16522 0
M  V30 321 C 30.0472 2.35896 5.64818 0
M  V30 322 N 29.1842 1.89726 6.7598 0
M  V30 323 H 34.0242 1.91892 2.27994 0
M  V30 324 H 31.5612 0.956199 1.11782 0
M  V30 325 H 33.5192 0.302738 4.161 0
M  V30 326 H 32.1492 -0.329879 3.2111 0
M  V30 327 H 31.2012 2.08986 3.17851 0
M  V30 328 H 32.5132 2.55436 4.28432 0
M  V30 329 H 31.6672 0.934395 5.99461 0
M  V30 330 H 30.4062 0.368487 4.86306 0
M  V30 331 H 29.4112 2.67261 4.8047 0
M  V30 332 H 30.6362 3.23567 5.97061 0
M  V30 333 H 28.5822 1.0492 6.47555 0
M  V30 334 H 28.4992 2.67471 7.07103 0
M  V30 335 H 29.7672 1.62211 7.62435 0
M  V30 336 N 33.9963 -1.19345 1.0293 0
M  V30 337 C 35.2443 -1.88665 0.724574 0
M  V30 338 C 35.5653 -1.80036 -0.749144 0
M  V30 339 O 34.8353 -1.2111 -1.53978 0
M  V30 340 H 33.4153 -0.698406 0.265025 0
M  V30 341 H 36.0773 -1.44885 1.30362 0
M  V30 342 H 35.1733 -2.94987 1.01926 0
M  V30 343 N 35.4744 -0.807222 -1.35358 0
M  V30 344 C 36.4044 -0.232509 -2.3234 0
M  V30 345 C 37.3854 0.642386 -1.57504 0
M  V30 346 O 38.5704 0.572526 -1.85569 0
M  V30 347 C 35.7004 0.619238 -3.41735 0
M  V30 348 C 34.6544 -0.157215 -4.27711 0
M  V30 349 C 33.9804 0.816273 -5.28433 0
M  V30 350 C 35.2804 -1.35656 -5.04376 0
M  V30 351 H 36.9744 -1.04276 -2.80654 0
M  V30 352 H 34.5204 -0.50288 -1.34934 0
M  V30 353 H 36.4734 1.03137 -4.08584 0
M  V30 354 H 35.1974 1.46239 -2.92031 0
M  V30 355 H 33.8564 -0.550525 -3.62443 0
M  V30 356 H 33.5044 1.65494 -4.74996 0
M  V30 357 H 33.2044 0.301067 -5.86828 0
M  V30 358 H 34.7284 1.22659 -5.98153 0
M  V30 359 H 36.1424 -1.01927 -5.64166 0
M  V30 360 H 34.5394 -1.8063 -5.7227 0
M  V30 361 H 35.6094 -2.14288 -4.34981 0
M  V30 362 N 36.9525 1.47285 -0.560781 0
M  V30 363 C 37.9155 2.28535 0.174488 0
M  V30 364 C 38.9155 1.37153 0.839388 0
M  V30 365 O 40.1055 1.59748 0.694702 0
M  V30 366 C 37.2375 3.16934 1.25561 0
M  V30 367 H 38.4305 2.95012 -0.539262 0
M  V30 368 H 35.9835 1.53034 -0.317865 0
M  V30 369 H 36.7185 2.55157 2.00164 0
M  V30 370 H 36.5035 3.8419 0.783604 0
M  V30 371 H 37.9935 3.78143 1.77193 0
M  V30 372 N 38.4306 0.297415 1.54768 0
M  V30 373 C 39.3936 -0.567375 2.22066 0
M  V30 374 C 40.3936 -1.06409 1.20556 0
M  V30 375 O 41.5836 -0.960691 1.45315 0
M  V30 376 C 38.7156 -1.78517 2.90421 0
M  V30 377 H 39.9086 0.0205534 2.99893 0
M  V30 378 H 37.4616 0.0482163 1.56226 0
M  V30 379 H 38.1966 -2.41303 2.16664 0
M  V30 380 H 37.9816 -1.43669 3.64831 0
M  V30 381 H 39.4716 -2.39964 3.41771 0
M  V30 382 N 39.9087 -1.5758 0.0250728 0
M  V30 383 C 40.8717 -2.08896 -0.943139 0
M  V30 384 C 41.8717 -1.00321 -1.25668 0
M  V30 385 O 43.0617 -1.26495 -1.19769 0
M  V30 386 C 40.1937 -2.55143 -2.26086 0
M  V30 387 H 41.3867 -2.95723 -0.498775 0
M  V30 388 H 38.9397 -1.54703 -0.222888 0
M  V30 389 H 39.6747 -1.71633 -2.75159 0
M  V30 390 H 39.4597 -3.34461 -2.04641 0
M  V30 391 H 40.9497 -2.95083 -2.95492 0
M  V30 392 N 41.3868 0.248026 -1.55636 0
M  V30 393 C 42.8028 0.596483 -1.48035 0
M  V30 394 C 43.0028 1.88386 -0.715039 0
M  V30 395 O 42.0588 2.51319 -0.243944 0
M  V30 396 C 43.3718 0.700258 -2.92433 0
M  V30 397 C 44.9198 0.792659 -3.02797 0
M  V30 398 C 45.3948 0.928005 -4.485 0
M  V30 399 N 46.8858 0.992903 -4.52433 0
M  V30 400 C 47.6208 1.11687 -5.62418 0
M  V30 401 N 47.1168 1.20645 -6.82214 0
M  V30 402 N 48.9098 1.14994 -5.50212 0
M  V30 403 H 41.0608 -0.597109 -2.03834 0
M  V30 404 H 43.3238 -0.205925 -0.925364 0
M  V30 405 H 43.0298 -0.175658 -3.51261 0
M  V30 406 H 42.9038 1.57255 -3.42857 0
M  V30 407 H 45.2908 1.65903 -2.4405 0
M  V30 408 H 45.3718 -0.104762 -2.55585 0
M  V30 409 H 45.0158 0.0661971 -5.07857 0
M  V30 410 H 44.9458 1.84045 -4.93391 0
M  V30 411 H 47.4368 0.935064 -3.66149 0
M  V30 412 H 47.7498 1.30008 -7.61786 0
M  V30 413 H 46.0948 1.17605 -6.84977 0
M  V30 414 H 49.2858 1.07643 -4.55555 0
M  V30 415 H 49.4588 1.24311 -6.35965 0
M  V30 416 N 42.8649 1.48995 0.513639 0
M  V30 417 C 44.2759 1.5119 1.09537 0
M  V30 418 C 44.6269 0.290906 1.94031 0
M  V30 419 O 43.7519 -0.60049 2.07902 0
M  V30 420 C 44.3469 2.73964 1.99322 0
M  V30 421 C 42.9059 2.78978 2.52682 0
M  V30 422 C 42.0529 2.44934 1.30009 0
M  V30 423 H 45.0039 1.55875 0.298125 0
M  V30 424 H 45.0249 2.53409 2.83838 0
M  V30 425 H 44.5369 3.62813 1.37799 0
M  V30 426 H 42.6379 1.94378 3.1788 0
M  V30 427 H 42.7509 3.8083 2.90698 0
M  V30 428 H 41.1149 1.9644 1.62122 0
M  V30 429 H 41.8979 3.36043 0.702131 0
M  V30 430 N 44.343 -0.763751 1.37857 0
M  V30 431 C 45.591 -1.51957 1.33243 0
M  V30 432 C 45.912 -1.94835 -0.0801709 0
M  V30 433 O 45.182 -1.66894 -1.02582 0
M  V30 434 H 43.762 -0.563626 0.49024 0
M  V30 435 H 46.424 -0.908504 1.7243 0
M  V30 436 H 45.52 -2.41523 1.97669 0
M  V30 437 N 45.8211 -1.22559 -0.990812 0
M  V30 438 C 47.2371 -0.985996 -1.255 0
M  V30 439 C 47.4371 0.319173 -1.98956 0
M  V30 440 O 46.4931 1.04127 -2.3003 0
M  V30 441 C 47.8061 -2.18607 -2.06474 0
M  V30 442 C 49.3541 -2.22985 -2.19651 0
M  V30 443 C 49.8291 -3.4255 -3.04012 0
M  V30 444 N 51.3201 -3.42725 -3.11599 0
M  V30 445 C 52.0551 -4.31892 -3.7717 0
M  V30 446 N 51.5511 -5.31279 -4.44651 0
M  V30 447 N 53.3441 -4.19662 -3.73952 0
M  V30 448 H 45.4951 -2.06469 -0.49841 0
M  V30 449 H 47.7581 -0.904853 -0.282747 0
M  V30 450 H 47.4641 -3.13267 -1.59865 0
M  V30 451 H 47.3381 -2.18838 -3.07229 0
M  V30 452 H 49.7251 -1.28871 -2.65474 0
M  V30 453 H 49.8061 -2.26791 -1.18319 0
M  V30 454 H 49.4501 -4.36965 -2.58889 0
M  V30 455 H 49.3801 -3.35984 -4.0549 0
M  V30 456 H 51.8711 -2.70807 -2.63575 0
M  V30 457 H 52.1841 -5.95593 -4.92431 0
M  V30 458 H 50.5291 -5.3519 -4.43392 0
M  V30 459 H 53.7201 -3.41268 -3.20396 0
M  V30 460 H 53.8931 -4.89358 -4.24774 0
M  V30 461 N 47.2992 1.18797 -1.03562 0
M  V30 462 C 48.5452 1.8893 -0.737113 0
M  V30 463 C 48.8782 1.79837 0.732956 0
M  V30 464 O 48.1532 1.19525 1.5344 0
M  V30 465 C 48.4362 3.39607 -1.19745 0
M  V30 466 C 48.2892 3.57537 -2.72924 0
M  V30 467 C 49.6082 4.33069 -0.783526 0
M  V30 468 H 46.7272 0.686057 -0.269249 0
M  V30 469 H 49.3692 1.39797 -1.28673 0
M  V30 470 H 47.5192 3.81583 -0.729855 0
M  V30 471 H 49.1912 3.24688 -3.27682 0
M  V30 472 H 47.4342 3.00363 -3.12993 0
M  V30 473 H 48.1052 4.63238 -3.00191 0
M  V30 474 H 50.5812 3.98846 -1.18581 0
M  V30 475 H 49.4572 5.3707 -1.13343 0
M  V30 476 H 49.7182 4.40986 0.313681 0
M  V30 477 N 48.7773 0.814389 1.34928 0
M  V30 478 C 49.6873 0.231978 2.3345 0
M  V30 479 C 50.7033 -0.629139 1.62228 0
M  V30 480 O 51.8793 -0.539052 1.94052 0
M  V30 481 C 48.9443 -0.603482 3.41407 0
M  V30 482 C 48.0053 0.279037 4.28392 0
M  V30 483 C 47.2383 -0.516643 5.31193 0
M  V30 484 O 47.4613 -1.75068 5.4287 0
M  V30 485 O 46.3953 0.0965652 6.01823 0
M  V30 486 H 50.2213 1.04721 2.85074 0
M  V30 487 H 47.8063 0.576343 1.37836 0
M  V30 488 H 49.6883 -1.07908 4.0735 0
M  V30 489 H 48.3633 -1.39618 2.92042 0
M  V30 490 H 47.2703 0.801948 3.65403 0
M  V30 491 H 48.6033 1.03588 4.81176 0
M  V30 492 N 50.2554 -1.46986 0.568584 0
M  V30 493 C 51.6714 -1.57946 0.229189 0
M  V30 494 C 51.8714 -1.56567 -1.26843 0
M  V30 495 O 50.9274 -1.47511 -2.04931 0
M  V30 496 C 52.2404 -2.87963 0.865909 0
M  V30 497 C 53.7884 -3.01568 0.838188 0
M  V30 498 C 54.2634 -4.34301 1.45419 0
M  V30 499 N 55.7544 -4.40965 1.41788 0
M  V30 500 C 56.4894 -5.42256 1.86403 0
M  V30 501 N 55.9854 -6.50297 2.38926 0
M  V30 502 N 57.7784 -5.3337 1.77405 0
M  V30 503 H 49.9294 -1.46126 1.54146 0
M  V30 504 H 52.1924 -0.696156 0.643484 0
M  V30 505 H 51.8984 -2.94742 1.91886 0
M  V30 506 H 51.7724 -3.75423 0.365687 0
M  V30 507 H 54.1594 -2.94379 -0.206106 0
M  V30 508 H 54.2404 -2.1562 1.37629 0
M  V30 509 H 53.8844 -4.42247 2.49761 0
M  V30 510 H 53.8144 -5.19 0.891435 0
M  V30 511 H 56.3054 -3.63484 1.03381 0
M  V30 512 H 56.6184 -7.23777 2.70863 0
M  V30 513 H 54.9634 -6.51155 2.42944 0
M  V30 514 H 58.1544 -4.47865 1.3614 0
M  V30 515 H 58.3274 -6.12169 2.12492 0
M  V30 516 N 51.7335 -0.305618 -1.54608 0
M  V30 517 C 52.9815 0.301701 -1.99835 0
M  V30 518 C 53.3025 1.54054 -1.19551 0
M  V30 519 O 52.5725 1.93702 -0.292658 0
M  V30 520 H 51.1525 0.114468 -0.738178 0
M  V30 521 H 53.8145 -0.418016 -1.90364 0
M  V30 522 H 52.9105 0.570548 -3.06841 0
M  V30 523 N 53.2116 1.57565 -0.0334293 0
M  V30 524 C 54.4596 1.91598 0.642999 0
M  V30 525 C 54.7806 0.910847 1.7242 0
M  V30 526 O 54.0506 -0.0469931 1.95844 0
M  V30 527 H 52.6306 0.707228 0.240496 0
M  V30 528 H 55.2926 1.94726 -0.0822488 0
M  V30 529 H 54.3886 2.92336 1.09298 0
M  V30 530 N 54.6897 -0.239769 1.55765 0
M  V30 531 C 55.6527 -1.28038 1.90103 0
M  V30 532 C 56.6527 -1.40723 0.778055 0
M  V30 533 O 57.8427 -1.39301 1.04599 0
M  V30 534 C 54.9747 -2.65702 2.13577 0
M  V30 535 H 56.1677 -0.988048 2.83157 0
M  V30 536 H 53.7207 -0.479382 1.48767 0
M  V30 537 H 54.4557 -3.00063 1.23015 0
M  V30 538 H 54.2407 -2.57875 2.95369 0
M  V30 539 H 55.7307 -3.40828 2.41301 0
M  V30 540 N 56.1678 -1.49265 -0.50573 0
M  V30 541 C 57.0998 -1.617 -1.62437 0
M  V30 542 C 58.1128 -0.499924 -1.54934 0
M  V30 543 O 59.3018 -0.771785 -1.60953 0
M  V30 544 C 56.4018 -1.5533 -3.01207 0
M  V30 545 C 55.5748 -2.8249 -3.33943 0
M  V30 546 C 54.6338 -2.69238 -4.52103 0
M  V30 547 O 53.6598 -3.43167 -4.5412 0
M  V30 548 N 54.8618 -1.80468 -5.51735 0
M  V30 549 H 57.6268 -2.58177 -1.52199 0
M  V30 550 H 55.1878 -1.46294 -0.693511 0
M  V30 551 H 57.1798 -1.44125 -3.78167 0
M  V30 552 H 55.7498 -0.667297 -3.05395 0
M  V30 553 H 54.9698 -3.08081 -2.45926 0
M  V30 554 H 56.2578 -3.66802 -3.5261 0
M  V30 555 H 55.6558 -1.19653 -5.52901 0
M  V30 556 H 54.2128 -1.75188 -6.27816 0
M  V30 557 N 57.6459 0.756429 -1.3826 0
M  V30 558 C 59.0619 1.0591 -1.19395 0
M  V30 559 C 59.2619 2.01459 -0.0406567 0
M  V30 560 O 58.3179 2.44909 0.614467 0
M  V30 561 C 59.6309 1.64191 -2.51916 0
M  V30 562 C 61.1789 1.76376 -2.58574 0
M  V30 563 C 61.6539 2.38069 -3.91264 0
M  V30 564 N 63.1449 2.45503 -3.92788 0
M  V30 565 C 63.8799 2.94126 -4.92217 0
M  V30 566 N 63.3759 3.42805 -6.02043 0
M  V30 567 N 65.1689 2.9314 -4.7961 0
M  V30 568 H 57.3199 0.122313 -2.12048 0
M  V30 569 H 59.5829 0.116892 -0.940766 0
M  V30 570 H 59.2889 1.01451 -3.3675 0
M  V30 571 H 59.1629 2.6329 -2.70108 0
M  V30 572 H 61.5499 2.38244 -1.74137 0
M  V30 573 H 61.6309 0.759894 -2.44252 0
M  V30 574 H 61.2749 1.76835 -4.76121 0
M  V30 575 H 61.2049 3.39091 -4.02895 0
M  V30 576 H 63.6959 2.1107 -3.13461 0
M  V30 577 H 64.0089 3.78354 -6.73846 0
M  V30 578 H 62.3539 3.4087 -6.05667 0
M  V30 579 H 65.5449 2.54419 -3.92923 0
M  V30 580 H 65.7179 3.30721 -5.5725 0
M  V30 581 N 59.124 1.23083 0.984299 0
M  V30 582 C 60.372 1.05848 1.72165 0
M  V30 583 C 60.693 -0.406049 1.90726 0
M  V30 584 O 59.963 -1.29139 1.47309 0
M  V30 585 H 58.543 0.388685 0.637913 0
M  V30 586 H 61.205 1.54736 1.18503 0
M  V30 587 H 60.301 1.54327 2.71274 0
M  V30 588 N 60.6021 -1.18246 1.0419 0
M  V30 589 C 61.8501 -1.87886 0.744543 0
M  V30 590 C 62.1711 -1.8082 -0.730006 0
M  V30 591 O 61.4411 -1.22736 -1.52685 0
M  V30 592 H 60.0211 -0.695556 0.272417 0
M  V30 593 H 62.6831 -1.43494 1.31892 0
M  V30 594 H 61.7791 -2.9389 1.05049 0
M  V30 595 N 62.0802 -0.821533 -1.34494 0
M  V30 596 C 63.0432 -0.247847 -2.27856 0
M  V30 597 C 64.0432 0.573453 -1.50227 0
M  V30 598 O 65.2332 0.389759 -1.69784 0
M  V30 599 C 62.3652 0.652698 -3.34593 0
M  V30 600 H 63.5582 -1.07146 -2.80107 0
M  V30 601 H 61.1112 -0.593291 -1.44602 0
M  V30 602 H 61.8462 1.49943 -2.87555 0
M  V30 603 H 61.6312 0.065292 -3.92046 0
M  V30 604 H 63.1212 1.04793 -4.04238 0
M  V30 605 N 63.5583 1.46682 -0.576371 0
M  V30 606 C 64.8063 2.02013 -0.0594163 0
M  V30 607 C 65.1273 1.45101 1.30271 0
M  V30 608 O 64.3973 0.633317 1.8538 0
M  V30 609 H 62.9773 0.746759 -0.0189745 0
M  V30 610 H 65.6393 1.79862 -0.750717 0
M  V30 611 H 64.7353 3.12097 0.014345 0
M  V30 612 N 65.0364 0.313813 1.54444 0
M  V30 613 C 65.9664 -0.549454 2.26943 0
M  V30 614 C 66.9474 -1.12741 1.27372 0
M  V30 615 O 68.1324 -1.15436 1.56167 0
M  V30 616 C 65.2624 -1.71523 3.01989 0
M  V30 617 C 64.2164 -1.26703 4.08816 0
M  V30 618 C 63.5424 -2.51898 4.71647 0
M  V30 619 C 64.8424 -0.388962 5.2085 0
M  V30 620 H 66.5364 0.0552661 2.99349 0
M  V30 621 H 64.0824 0.0280207 1.43973 0
M  V30 622 H 66.0354 -2.32535 3.51433 0
M  V30 623 H 64.7594 -2.34639 2.27183 0
M  V30 624 H 63.4184 -0.679896 3.6024 0
M  V30 625 H 63.0664 -3.13356 3.93468 0
M  V30 626 H 62.7664 -2.22605 5.43802 0
M  V30 627 H 64.2904 -3.1369 5.23861 0
M  V30 628 H 65.7044 -0.905107 5.6611 0
M  V30 629 H 64.1014 -0.18924 5.99802 0
M  V30 630 H 65.1714 0.582699 4.81386 0
M  V30 631 N 66.5145 -1.57545 0.0417849 0
M  V30 632 C 67.4245 -2.14451 -0.951213 0
M  V30 633 C 68.4405 -1.09992 -1.34825 0
M  V30 634 O 69.6165 -1.42114 -1.42708 0
M  V30 635 C 66.6815 -2.67063 -2.21084 0
M  V30 636 C 65.7425 -3.86284 -1.87304 0
M  V30 637 C 64.9755 -4.36378 -3.07261 0
M  V30 638 O 65.1985 -3.85587 -4.20332 0
M  V30 639 O 64.1325 -5.28077 -2.88822 0
M  V30 640 H 67.9585 -2.99601 -0.497287 0
M  V30 641 H 65.5435 -1.48317 -0.179567 0
M  V30 642 H 67.4255 -3.00914 -2.95006 0
M  V30 643 H 66.1005 -1.84989 -2.65633 0
M  V30 644 H 65.0075 -3.57338 -1.10727 0
M  V30 645 H 66.3405 -4.6956 -1.47562 0
M  V30 646 N 67.9926 0.231505 -1.5589 0
M  V30 647 C 68.9226 1.29022 -1.94617 0
M  V30 648 C 69.9036 1.4941 -0.813067 0
M  V30 649 O 71.0886 1.6176 -1.07459 0
M  V30 650 C 68.2186 2.64199 -2.25424 0
M  V30 651 C 67.1726 2.58484 -3.41131 0
M  V30 652 C 66.4986 3.97599 -3.57518 0
M  V30 653 C 67.7986 2.1413 -4.76388 0
M  V30 654 H 69.4926 0.968563 -2.83301 0
M  V30 655 H 67.0386 0.464479 -1.36303 0
M  V30 656 H 68.9916 3.38413 -2.51107 0
M  V30 657 H 67.7156 2.98032 -1.33583 0
M  V30 658 H 66.3746 1.86727 -3.15481 0
M  V30 659 H 66.0226 4.28723 -2.6307 0
M  V30 660 H 65.7226 3.94659 -4.35337 0
M  V30 661 H 67.2466 4.7349 -3.85538 0
M  V30 662 H 68.6606 2.78083 -5.01341 0
M  V30 663 H 67.0576 2.2227 -5.57419 0
M  V30 664 H 68.1276 1.09331 -4.72414 0
M  V30 665 N 69.4707 1.49531 0.497807 0
M  V30 666 C 70.4207 1.62829 1.59596 0
M  V30 667 C 71.4047 0.483824 1.53453 0
M  V30 668 O 72.5967 0.736937 1.60929 0
M  V30 669 C 69.7257 1.7011 2.98191 0
M  V30 670 C 68.8117 2.90144 3.09317 0
M  V30 671 N 69.2027 4.1418 2.90324 0
M  V30 672 C 67.5007 2.88148 3.40422 0
M  V30 673 C 68.2017 4.94886 3.05717 0
M  V30 674 N 67.1777 4.28314 3.34736 0
M  V30 675 H 70.9797 2.56446 1.4357 0
M  V30 676 H 68.4937 1.46347 0.704001 0
M  V30 677 H 70.4907 1.77735 3.77115 0
M  V30 678 H 69.1507 0.776315 3.15283 0
M  V30 679 H 70.1617 4.44109 2.66436 0
M  V30 680 H 66.8387 2.05061 3.63671 0
M  V30 681 H 68.2287 6.03432 2.95499 0
M  V30 682 N 70.9488 -0.749086 1.3866 0
M  V30 683 C 72.3598 -1.32664 1.31366 0
M  V30 684 C 72.7108 -1.96179 -0.028484 0
M  V30 685 O 71.8358 -1.9537 -0.93057 0
M  V30 686 C 72.4308 -2.41219 2.37905 0
M  V30 687 C 70.9898 -2.94684 2.34176 0
M  V30 688 C 70.1368 -1.68108 2.20533 0
M  V30 689 H 73.0878 -0.547628 1.48952 0
M  V30 690 H 73.1088 -3.21268 2.0388 0
M  V30 691 H 72.6208 -1.94962 3.35576 0
M  V30 692 H 70.7218 -3.45258 1.401 0
M  V30 693 H 70.8348 -3.48757 3.2849 0
M  V30 694 H 69.1988 -1.91907 1.67463 0
M  V30 695 H 69.9818 -1.23923 3.20153 0
M  V30 696 N 72.4269 -1.23603 -0.977757 0
M  V30 697 C 73.3569 -1.04401 -2.0886 0
M  V30 698 C 74.3379 0.0399052 -1.70053 0
M  V30 699 O 75.5229 -0.125246 -1.93796 0
M  V30 700 C 72.6529 -0.637269 -3.41403 0
M  V30 701 C 71.6069 -1.66883 -3.94124 0
M  V30 702 C 70.9329 -1.11745 -5.22893 0
M  V30 703 C 72.2329 -3.06247 -4.23096 0
M  V30 704 H 73.9269 -1.97316 -2.25182 0
M  V30 705 H 71.4729 -0.950096 -1.08209 0
M  V30 706 H 73.4259 -0.48998 -4.18542 0
M  V30 707 H 72.1499 0.327557 -3.24953 0
M  V30 708 H 70.8089 -1.80416 -3.19133 0
M  V30 709 H 70.4569 -0.143527 -5.02795 0
M  V30 710 H 70.1569 -1.80672 -5.59134 0
M  V30 711 H 71.6809 -0.982067 -6.02651 0
M  V30 712 H 73.0949 -2.96001 -4.90975 0
M  V30 713 H 71.4919 -3.72436 -4.70544 0
M  V30 714 H 72.5619 -3.55041 -3.30263 0
M  V30 715 N 73.905 1.17692 -1.04816 0
M  V30 716 C 74.835 2.23777 -0.666791 0
M  V30 717 C 75.816 1.66796 0.33361 0
M  V30 718 O 77.001 1.93039 0.212042 0
M  V30 719 C 74.131 3.47281 -0.0367933 0
M  V30 720 C 73.085 4.17059 -0.961546 0
M  V30 721 C 72.411 5.34342 -0.195626 0
M  V30 722 C 73.711 4.69713 -2.28402 0
M  V30 723 H 75.405 2.55933 -1.55367 0
M  V30 724 H 72.951 1.23019 -0.748484 0
M  V30 725 H 74.904 4.20706 0.241775 0
M  V30 726 H 73.628 3.14381 0.885004 0
M  V30 727 H 72.287 3.45541 -1.22462 0
M  V30 728 H 71.935 4.97692 0.728816 0
M  V30 729 H 71.635 5.81966 -0.811775 0
M  V30 730 H 73.159 6.10553 0.0757473 0
M  V30 731 H 74.573 5.34794 -2.06563 0
M  V30 732 H 72.97 5.279 -2.8538 0
M  V30 733 H 74.04 3.86726 -2.92525 0
M  V30 734 N 75.3831 0.828654 1.34056 0
M  V30 735 C 76.6311 0.41863 1.97717 0
M  V30 736 C 76.9521 -1.02314 1.66002 0
M  V30 737 O 76.2221 -1.71119 0.953683 0
M  V30 738 H 74.8021 0.151809 0.731412 0
M  V30 739 H 77.4641 1.05936 1.63596 0
M  V30 740 H 76.5601 0.542318 3.07352 0
M  V30 741 N 76.8612 -1.46375 0.584142 0
M  V30 742 C 78.1092 -2.01978 0.0701287 0
M  V30 743 C 78.4302 -1.4579 -1.295 0
M  V30 744 O 77.7002 -0.64314 -1.85042 0
M  V30 745 H 76.2802 -0.746648 0.0229345 0
M  V30 746 H 78.9422 -1.79461 0.760245 0
M  V30 747 H 78.0382 -3.121 0.0022064 0
M  V30 748 N 78.3393 -0.321999 -1.54275 0
M  V30 749 C 79.7553 0.0306999 -1.5957 0
M  V30 750 C 79.9553 1.50614 -1.33857 0
M  V30 751 O 79.0113 2.2619 -1.12223 0
M  V30 752 C 80.3243 -0.386122 -2.98211 0
M  V30 753 C 81.8723 -0.336647 -3.11184 0
M  V30 754 C 82.3473 -0.728607 -4.52167 0
M  V30 755 N 83.8383 -0.681952 -4.58152 0
M  V30 756 C 84.5733 -0.957449 -5.6535 0
M  V30 757 N 84.0693 -1.3 -6.80494 0
M  V30 758 N 85.8623 -0.883113 -5.55119 0
M  V30 759 H 78.0133 -1.28332 -1.69247 0
M  V30 760 H 80.2763 -0.521716 -0.791528 0
M  V30 761 H 79.9823 -1.41404 -3.22022 0
M  V30 762 H 79.8563 0.249662 -3.76373 0
M  V30 763 H 82.2433 0.682058 -2.8711 0
M  V30 764 H 82.3243 -1.00734 -2.3513 0
M  V30 765 H 81.9683 -1.74522 -4.76974 0
M  V30 766 H 81.8983 -0.0356152 -5.26588 0
M  V30 767 H 84.3893 -0.428985 -3.75457 0
M  V30 768 H 84.7023 -1.49563 -7.58189 0
M  V30 769 H 83.0473 -1.33824 -6.81994 0
M  V30 770 H 86.2383 -0.615001 -4.64042 0
M  V30 771 H 86.4113 -1.10118 -6.38575 0
M  V30 772 N 79.8174 1.5752 -0.0501392 0
M  V30 773 C 81.0454 1.96963 0.633492 0
M  V30 774 C 81.4604 0.927631 1.6444 0
M  V30 775 O 80.8174 -0.0882665 1.82286 0
M  V30 776 C 80.8684 3.36487 1.32132 0
M  V30 777 O 80.5894 4.36693 0.350894 0
M  V30 778 C 82.0904 3.90682 2.09481 0
M  V30 779 H 79.3104 0.648244 0.173266 0
M  V30 780 H 81.8544 2.0417 -0.116134 0
M  V30 781 H 80.0094 3.30434 2.02218 0
M  V30 782 H 80.4234 5.17702 0.841735 0
M  V30 783 H 81.8974 4.90591 2.5303 0
M  V30 784 H 82.3744 3.26053 2.94255 0
M  V30 785 H 82.9804 4.00069 1.44307 0
M  V30 786 N 81.2955 -0.223234 1.56011 0
M  V30 787 C 82.5415 -0.944891 1.8012 0
M  V30 788 C 82.8965 -1.82039 0.622862 0
M  V30 789 O 82.1895 -1.8773 -0.383143 0
M  V30 790 C 82.3835 -1.81948 3.0762 0
M  V30 791 C 82.2125 -1.03014 4.37742 0
M  V30 792 C 80.9825 -0.72574 5.00061 0
M  V30 793 C 83.1805 -0.396256 5.12771 0
M  V30 794 N 81.1625 0.0851816 6.13841 0
M  V30 795 C 82.5335 0.278137 6.19376 0
M  V30 796 C 84.5885 -0.309117 4.9694 0
M  V30 797 C 83.2915 1.03133 7.11868 0
M  V30 798 C 85.3175 0.430607 5.8983 0
M  V30 799 C 84.6795 1.09355 6.9586 0
M  V30 800 H 80.7785 -0.326081 0.710771 0
M  V30 801 H 83.3625 -0.215914 1.93499 0
M  V30 802 H 81.5335 -2.52029 2.95527 0
M  V30 803 H 83.2655 -2.47848 3.19927 0
M  V30 804 H 80.0205 -1.04335 4.61964 0
M  V30 805 H 80.4445 0.479428 6.753 0
M  V30 806 H 85.0865 -0.807313 4.15021 0
M  V30 807 H 82.8045 1.54105 7.9327 0
M  V30 808 H 86.3905 0.499012 5.79656 0
M  V30 809 H 85.2705 1.65679 7.66499 0
M  V30 810 N 82.7736 -1.49793 -0.48987 0
M  V30 811 C 84.1896 -1.36803 -0.822022 0
M  V30 812 C 84.3896 -0.409652 -1.97292 0
M  V30 813 O 83.4456 0.154614 -2.52026 0
M  V30 814 C 84.7586 -2.77768 -1.15175 0
M  V30 815 C 86.3066 -2.86549 -1.25931 0
M  V30 816 C 86.7816 -4.28306 -1.62228 0
M  V30 817 N 88.2726 -4.31169 -1.69256 0
M  V30 818 C 89.0076 -5.37832 -1.98807 0
M  V30 819 N 88.5036 -6.54726 -2.26507 0
M  V30 820 N 90.2966 -5.25258 -2.00152 0
M  V30 821 H 82.4476 -2.10691 0.268881 0
M  V30 822 H 84.7106 -0.946241 0.057728 0
M  V30 823 H 84.4166 -3.49648 -0.379335 0
M  V30 824 H 84.2906 -3.13836 -2.09253 0
M  V30 825 H 86.6776 -2.14899 -2.02243 0
M  V30 826 H 86.7586 -2.54049 -0.298776 0
M  V30 827 H 86.4026 -5.00486 -0.864622 0
M  V30 828 H 86.3326 -4.58279 -2.594 0
M  V30 829 H 88.8236 -3.4687 -1.49965 0
M  V30 830 H 89.1366 -7.31833 -2.48276 0
M  V30 831 H 87.4816 -6.57933 -2.23939 0
M  V30 832 H 90.6726 -4.32938 -1.77996 0
M  V30 833 H 90.8456 -6.08476 -2.22848 0
M  V30 834 N 84.2517 0.741722 -1.39055 0
M  V30 835 C 85.2147 1.83733 -1.37021 0
M  V30 836 C 86.2147 1.58542 -0.268534 0
M  V30 837 O 87.4047 1.66067 -0.526076 0
M  V30 838 C 84.5367 3.2141 -1.13617 0
M  V30 839 H 85.7297 1.86941 -2.34506 0
M  V30 840 H 83.2827 0.944676 -1.24521 0
M  V30 841 H 84.0177 3.23865 -0.167863 0
M  V30 842 H 83.8027 3.4109 -1.93391 0
M  V30 843 H 85.2927 4.01477 -1.14918 0
M  V30 844 N 85.7298 1.2412 0.971189 0
M  V30 845 C 86.6928 1.03156 2.04674 0
M  V30 846 C 87.6928 -0.00990322 1.60797 0
M  V30 847 O 88.8828 0.230729 1.72665 0
M  V30 848 C 86.0148 0.562765 3.36223 0
M  V30 849 H 87.2078 1.98614 2.24705 0
M  V30 850 H 84.7608 1.06293 1.14593 0
M  V30 851 H 85.4958 -0.395176 3.21883 0
M  V30 852 H 85.2808 1.31441 3.69413 0
M  V30 853 H 86.7708 0.437015 4.15307 0
M  V30 854 N 87.2079 -1.17134 1.05439 0
M  V30 855 C 88.6239 -1.39454 0.776201 0
M  V30 856 C 88.8239 -1.91454 -0.628307 0
M  V30 857 O 87.8799 -2.10777 -1.39031 0
M  V30 858 C 89.1929 -2.38305 1.83388 0
M  V30 859 C 90.7409 -2.52006 1.85639 0
M  V30 860 C 91.2159 -3.54133 2.90437 0
M  V30 861 N 92.7069 -3.61653 2.89415 0
M  V30 862 C 93.4419 -4.4044 3.67152 0
M  V30 863 N 92.9379 -5.22721 4.54681 0
M  V30 864 N 94.7309 -4.35337 3.55581 0
M  V30 865 H 86.8819 -0.817134 1.96053 0
M  V30 866 H 89.1449 -0.421626 0.849079 0
M  V30 867 H 88.8509 -2.07173 2.84204 0
M  V30 868 H 88.7249 -3.37841 1.67761 0
M  V30 869 H 91.1119 -2.82447 0.85486 0
M  V30 870 H 91.1929 -1.52537 2.05344 0
M  V30 871 H 90.8369 -3.24431 3.90777 0
M  V30 872 H 90.7669 -4.53313 2.67983 0
M  V30 873 H 93.2579 -3.02909 2.25952 0
M  V30 874 H 93.5709 -5.80027 5.10674 0
M  V30 875 H 91.9159 -5.22093 4.58741 0
M  V30 876 H 95.1069 -3.70112 2.86592 0
M  V30 877 H 95.2799 -4.96494 4.1641 0
M  V30 878 N 88.686 -0.835752 -1.33615 0
M  V30 879 C 89.963 -0.352017 -1.92406 0
M  V30 880 C 90.343 1.16225 -1.76224 0
M  V30 881 O 89.691 1.97526 -1.14873 0
M  V30 882 C 89.901 -0.795485 -3.39813 0
M  V30 883 C 91.249 -0.801703 -4.16963 0
M  V30 884 O 92.273 -0.738889 -3.48452 0
M  V30 885 O 91.132 -0.886607 -5.3926 0
M  V30 886 H 88.226 -0.0989641 -0.821057 0
M  V30 887 H 90.772 -0.921397 -1.42507 0
M  V30 888 H 89.544 -1.83795 -3.45449 0
M  V30 889 H 89.167 -0.202505 -3.97084 0
M  V30 890 N 90.1641 1.46063 -0.591896 0
M  V30 891 C 91.1271 2.28854 0.125973 0
M  V30 892 C 92.1271 1.38903 0.810107 0
M  V30 893 O 93.3171 1.61186 0.66066 0
M  V30 894 C 90.4491 3.19526 1.1881 0
M  V30 895 H 91.6421 2.93802 -0.601717 0
M  V30 896 H 89.1951 1.52325 -0.350254 0
M  V30 897 H 89.9301 2.59345 1.94707 0
M  V30 898 H 89.7151 3.85766 0.701936 0
M  V30 899 H 91.2051 3.81817 1.69132 0
M  V30 900 N 91.6422 0.330177 1.54103 0
M  V30 901 C 92.9192 -0.325007 1.92881 0
M  V30 902 C 93.2992 -1.6934 1.26045 0
M  V30 903 O 92.6472 -2.24855 0.406526 0
M  V30 904 C 92.8572 -0.410634 3.46576 0
M  V30 905 C 94.2052 -0.667801 4.19316 0
M  V30 906 O 95.2292 -0.49329 3.52768 0
M  V30 907 O 94.0882 -1.00491 5.37181 0
M  V30 908 H 91.1822 -0.186873 0.80561 0
M  V30 909 H 93.7282 0.380376 1.65382 0
M  V30 910 H 92.5002 0.550164 3.87413 0
M  V30 911 H 92.1232 -1.16333 3.802 0
M  V30 912 N 93.1203 -1.57491 0.0584922 0
M  V30 913 C 94.3683 -1.92597 -0.612436 0
M  V30 914 C 94.6893 -0.938162 -1.70949 0
M  V30 915 O 93.9593 0.0158301 -1.95894 0
M  V30 916 H 92.5393 -0.710964 -0.229214 0
M  V30 917 H 95.2013 -1.94571 0.113218 0
M  V30 918 H 94.2973 -2.94038 -1.04633 0
M  V30 919 N 94.5984 0.214957 -1.56127 0
M  V30 920 C 95.8384 0.945364 -1.81224 0
M  V30 921 C 96.2024 1.81265 -0.633005 0
M  V30 922 O 97.4034 2.57731 -0.763423 0
M  V30 923 C 95.6744 1.75665 -3.1125 0
M  V30 924 S 97.2334 2.54179 -3.57685 0
M  V30 925 H 94.0514 0.317443 -0.6362 0
M  V30 926 H 96.6534 0.210381 -1.94365 0
M  V30 927 H 95.3574 1.10977 -3.9511 0
M  V30 928 H 94.8884 2.53381 -3.00934 0
M  V30 929 H 96.9034 3.7792 -3.21545 0
M  V30 930 N 96.0765 1.50051 0.48192 0
M  V30 931 C 96.9865 1.7089 1.60728 0
M  V30 932 C 98.0025 0.591788 1.63627 0
M  V30 933 O 99.1785 0.868817 1.81696 0
M  V30 934 C 96.2435 1.78855 2.97005 0
M  V30 935 C 95.3045 3.02537 3.04581 0
M  V30 936 C 94.5375 3.10112 4.34357 0
M  V30 937 O 94.7605 2.24765 5.24249 0
M  V30 938 O 93.6945 4.02747 4.47301 0
M  V30 939 H 97.5205 2.66264 1.46072 0
M  V30 940 H 95.1055 1.34018 0.660264 0
M  V30 941 H 96.9875 1.86336 3.77964 0
M  V30 942 H 95.6625 0.866628 3.11883 0
M  V30 943 H 94.5695 3.00563 2.22739 0
M  V30 944 H 95.9025 3.94272 2.94636 0
M  V30 945 N 97.5546 -0.734337 1.39446 0
M  V30 946 C 98.5176 -1.83004 1.37994 0
M  V30 947 C 99.5176 -1.58397 0.276938 0
M  V30 948 O 100.708 -1.65785 0.534875 0
M  V30 949 C 97.8396 -3.20802 1.1532 0
M  V30 950 H 99.0326 -1.85694 2.35494 0
M  V30 951 H 96.5856 -0.938059 1.25021 0
M  V30 952 H 97.3206 -3.23772 0.185036 0
M  V30 953 H 97.1056 -3.4006 1.95197 0
M  V30 954 H 98.5956 -4.00862 1.17046 0
M  V30 955 N 99.0327 -1.24633 -0.964593 0
M  V30 956 C 99.9627 -1.06611 -2.07741 0
M  V30 957 C 100.944 0.0218666 -1.70086 0
M  V30 958 O 102.129 -0.145793 -1.93652 0
M  V30 959 C 99.2587 -0.673444 -3.40708 0
M  V30 960 C 98.2127 -1.71054 -3.92332 0
M  V30 961 C 97.5387 -1.17285 -5.21678 0
M  V30 962 C 98.8387 -3.10718 -4.19824 0
M  V30 963 H 100.533 -1.99693 -2.23076 0
M  V30 964 H 98.0787 -0.96152 -1.07195 0
M  V30 965 H 100.032 -0.534345 -4.17998 0
M  V30 966 H 98.7557 0.293073 -3.25282 0
M  V30 967 H 97.4147 -1.83791 -3.17201 0
M  V30 968 H 97.0627 -0.196847 -5.02615 0
M  V30 969 H 96.7627 -1.86592 -5.57187 0
M  V30 970 H 98.2867 -1.04593 -6.01575 0
M  V30 971 H 99.7007 -3.01192 -4.87808 0
M  V30 972 H 98.0977 -3.77406 -4.66567 0
M  V30 973 H 99.1677 -3.58524 -3.26479 0
M  V30 974 N 100.511 1.16574 -1.06058 0
M  V30 975 C 101.759 1.86677 -0.77434 0
M  V30 976 C 102.08 1.81959 0.701147 0
M  V30 977 O 101.35 1.2515 1.50713 0
M  V30 978 H 99.9298 0.691134 -0.283449 0
M  V30 979 H 102.592 1.41378 -1.34158 0
M  V30 980 H 101.688 2.92181 -1.09711 0
M  V30 981 N 101.989 0.842826 1.3317 0
M  V30 982 C 103.217 0.454055 2.01856 0
M  V30 983 C 103.632 -0.94587 1.63397 0
M  V30 984 O 102.989 -1.61534 0.849302 0
M  V30 985 C 103.04 0.569715 3.56982 0
M  V30 986 O 102.761 1.91448 3.94055 0
M  V30 987 C 104.262 0.178412 4.42941 0
M  V30 988 H 101.482 0.17979 0.646465 0
M  V30 989 H 104.026 1.1365 1.70012 0
M  V30 990 H 102.181 -0.0648587 3.87346 0
M  V30 991 H 102.595 1.90282 4.88767 0
M  V30 992 H 104.069 0.310376 5.51127 0
M  V30 993 H 104.546 -0.880056 4.30293 0
M  V30 994 H 105.152 0.787579 4.17944 0
M  V30 995 N 103.467 -1.45747 0.599634 0
M  V30 996 C 104.713 -2.02592 0.0918643 0
M  V30 997 C 105.046 -1.46806 -1.27128 0
M  V30 998 O 104.321 -0.639658 -1.83681 0
M  V30 999 C 104.604 -3.60073 0.0443398 0
M  V30 1000 C 104.457 -4.26208 1.43759 0
M  V30 1001 C 105.776 -4.35309 -0.647608 0
M  V30 1002 H 102.895 -0.736175 0.034857 0
M  V30 1003 H 105.537 -1.73694 0.770081 0
M  V30 1004 H 103.687 -3.84823 -0.533224 0
M  V30 1005 H 105.359 -4.12668 2.06162 0
M  V30 1006 H 103.602 -3.84916 2.00056 0
M  V30 1007 H 104.273 -5.35069 1.35665 0
M  V30 1008 H 106.749 -4.15805 -0.156776 0
M  V30 1009 H 105.625 -5.45038 -0.649942 0
M  V30 1010 H 105.886 -4.07598 -1.71219 0
M  V30 1011 N 104.945 -0.338344 -1.53925 0
M  V30 1012 C 105.908 0.508299 -2.23493 0
M  V30 1013 C 106.908 1.03175 -1.23335 0
M  V30 1014 O 108.098 0.921826 -1.47811 0
M  V30 1015 C 105.23 1.70754 -2.95052 0
M  V30 1016 H 106.423 -0.100058 -2.99733 0
M  V30 1017 H 103.976 -0.0896198 -1.56043 0
M  V30 1018 H 104.711 2.35474 -2.22986 0
M  V30 1019 H 104.496 1.33946 -3.68512 0
M  V30 1020 H 105.986 2.30818 -3.48013 0
M  V30 1021 N 106.423 1.57458 -0.0668435 0
M  V30 1022 C 107.669 1.93587 0.6043 0
M  V30 1023 C 108.002 0.946722 1.69561 0
M  V30 1024 O 107.277 -0.0248516 1.94484 0
M  V30 1025 C 107.56 3.40014 1.18585 0
M  V30 1026 C 107.413 4.49685 0.101529 0
M  V30 1027 C 108.732 3.87154 2.09284 0
M  V30 1028 H 105.851 0.703958 0.218202 0
M  V30 1029 H 108.493 1.89542 -0.131804 0
M  V30 1030 H 106.643 3.43592 1.81319 0
M  V30 1031 H 108.315 4.5823 -0.531279 0
M  V30 1032 H 106.558 4.30059 -0.568487 0
M  V30 1033 H 107.229 5.49266 0.54874 0
M  V30 1034 H 109.705 3.85551 1.56491 0
M  V30 1035 H 108.581 4.90231 2.46911 0
M  V30 1036 H 108.842 3.2481 2.99918 0
M  V30 1037 N 107.901 -0.206675 1.56239 0
M  V30 1038 C 109.312 -0.772383 1.69974 0
M  V30 1039 C 109.663 -1.84353 0.671436 0
M  V30 1040 O 108.788 -2.15695 -0.174491 0
M  V30 1041 C 109.383 -1.40779 3.08167 0
M  V30 1042 C 107.942 -1.92072 3.23706 0
M  V30 1043 C 107.089 -0.786347 2.65917 0
M  V30 1044 H 110.04 0.0182223 1.5869 0
M  V30 1045 H 110.061 -2.27696 3.04852 0
M  V30 1046 H 109.573 -0.627958 3.82986 0
M  V30 1047 H 107.674 -2.7281 2.53782 0
M  V30 1048 H 107.787 -2.09046 4.31087 0
M  V30 1049 H 106.151 -1.1976 2.24788 0
M  V30 1050 H 106.934 -0.0189416 3.43295 0
M  V30 1051 N 109.379 -1.50304 -0.473955 0
M  V30 1052 C 110.626 -1.6115 -1.22625 0
M  V30 1053 C 110.954 -0.310517 -1.92005 0
M  V30 1054 O 110.209 0.703419 -1.82621 0
M  V30 1055 C 110.508 -2.73938 -2.29549 0
M  V30 1056 C 110.174 -4.14519 -1.7744 0
M  V30 1057 C 108.836 -4.5277 -1.62949 0
M  V30 1058 C 111.188 -5.02392 -1.3875 0
M  V30 1059 C 108.516 -5.76639 -1.08187 0
M  V30 1060 C 110.868 -6.26805 -0.854309 0
M  V30 1061 C 109.532 -6.63861 -0.696011 0
M  V30 1062 H 108.802 -0.589691 -0.448715 0
M  V30 1063 H 111.449 -1.84228 -0.522705 0
M  V30 1064 H 109.754 -2.44937 -3.05799 0
M  V30 1065 H 111.451 -2.79534 -2.87509 0
M  V30 1066 H 108.041 -3.8434 -1.89685 0
M  V30 1067 H 112.225 -4.73474 -1.4878 0
M  V30 1068 H 107.481 -6.04027 -0.946666 0
M  V30 1069 H 111.655 -6.94258 -0.545843 0
M  V30 1070 H 109.282 -7.59722 -0.26952 0
M  V30 1071 N 110.857 0.726932 -1.39834 0
M  V30 1072 C 112.134 1.47902 -1.28001 0
M  V30 1073 C 112.514 2.1083 0.106789 0
M  V30 1074 O 111.862 1.99242 1.11869 0
M  V30 1075 C 112.072 2.52392 -2.41038 0
M  V30 1076 C 113.42 3.18546 -2.80737 0
M  V30 1077 O 114.444 2.62708 -2.40547 0
M  V30 1078 O 113.303 4.19604 -3.50135 0
M  V30 1079 H 110.397 0.657163 -0.502062 0
M  V30 1080 H 112.943 0.760071 -1.51727 0
M  V30 1081 H 111.715 2.04329 -3.33715 0
M  V30 1082 H 111.338 3.31837 -2.19021 0
M  V30 1083 N 112.336 1.25143 0.95797 0
M  V30 1084 C 113.613 1.00472 1.67823 0
M  V30 1085 C 113.993 -0.470056 2.058 0
M  V30 1086 O 113.341 -1.44663 1.76875 0
M  V30 1087 C 113.551 1.9372 2.90299 0
M  V30 1088 C 114.899 2.21371 3.62326 0
M  V30 1089 O 115.923 1.91451 3.00375 0
M  V30 1090 O 114.782 2.72231 4.7387 0
M  V30 1091 H 111.876 0.380752 0.734137 0
M  V30 1092 H 114.422 1.36283 1.01119 0
M  V30 1093 H 113.194 2.93316 2.59001 0
M  V30 1094 H 112.817 1.58286 3.64735 0
M  V30 1095 N 113.814 -1.1601 1.06675 0
M  V30 1096 C 115.091 -1.82679 0.699114 0
M  V30 1097 C 115.471 -1.94559 -0.819137 0
M  V30 1098 O 114.819 -1.49169 -1.73092 0
M  V30 1099 C 115.029 -3.19445 1.40555 0
M  V30 1100 C 116.377 -3.95171 1.55323 0
M  V30 1101 O 117.401 -3.28976 1.36577 0
M  V30 1102 O 116.26 -5.13833 1.86112 0
M  V30 1103 H 113.354 -0.788954 0.247951 0
M  V30 1104 H 115.9 -1.23179 1.16726 0
M  V30 1105 H 114.672 -3.05856 2.44065 0
M  V30 1106 H 114.295 -3.86625 0.927733 0
M  V30 1107 N 115.292 -0.849877 -1.32721 0
M  V30 1108 C 116.569 -0.372405 -1.92022 0
M  V30 1109 C 116.949 1.1435 -1.77447 0
M  V30 1110 O 116.297 1.96296 -1.16962 0
M  V30 1111 C 116.507 -0.831482 -3.3895 0
M  V30 1112 C 117.855 -0.845882 -4.16089 0
M  V30 1113 O 118.879 -0.775806 -3.47649 0
M  V30 1114 O 117.738 -0.943753 -5.38289 0
M  V30 1115 H 114.832 -0.107667 -0.819961 0
M  V30 1116 H 117.378 -0.93646 -1.41522 0
M  V30 1117 H 116.15 -1.87448 -3.4348 0
M  V30 1118 H 115.773 -0.24461 -3.96847 0
M  V30 1119 N 116.77 1.45427 -0.607355 0
M  V30 1120 C 117.717 2.3053 0.111625 0
M  V30 1121 C 118.687 1.4209 0.860216 0
M  V30 1122 O 119.872 1.71019 0.845998 0
M  V30 1123 C 117.012 3.26992 1.10319 0
M  V30 1124 C 116.125 4.30535 0.355493 0
M  V30 1125 C 115.26 5.14105 1.33676 0
M  V30 1126 C 114.299 6.09376 0.576862 0
M  V30 1127 N 113.436 6.85727 1.5074 0
M  V30 1128 H 118.276 2.91477 -0.620093 0
M  V30 1129 H 115.813 1.43631 -0.317594 0
M  V30 1130 H 117.771 3.81385 1.6912 0
M  V30 1131 H 116.401 2.67799 1.80232 0
M  V30 1132 H 115.453 3.78805 -0.348023 0
M  V30 1133 H 116.765 4.98235 -0.237423 0
M  V30 1134 H 115.919 5.72897 1.99684 0
M  V30 1135 H 114.658 4.46423 1.9636 0
M  V30 1136 H 113.663 5.49715 -0.0968519 0
M  V30 1137 H 114.888 6.79085 -0.0449341 0
M  V30 1138 H 112.834 6.20735 2.12189 0
M  V30 1139 H 112.751 7.49778 0.967913 0
M  V30 1140 H 114.019 7.4906 2.15706 0
M  V30 1141 N 118.248 0.346503 1.53744 0
M  V30 1142 C 119.497 -0.250122 2.00143 0
M  V30 1143 C 119.81 -1.51418 1.23822 0
M  V30 1144 O 121.016 -2.18823 1.60713 0
M  V30 1145 C 119.472 -0.496252 3.56462 0
M  V30 1146 C 119.08 0.752077 4.41642 0
M  V30 1147 C 120.824 -1.05157 4.11269 0
M  V30 1148 C 118.731 0.476583 5.89477 0
M  V30 1149 H 117.661 -0.0972409 0.747703 0
M  V30 1150 H 120.312 0.46229 1.77581 0
M  V30 1151 H 118.694 -1.26944 3.75102 0
M  V30 1152 H 119.868 1.5266 4.34778 0
M  V30 1153 H 118.183 1.22925 3.97842 0
M  V30 1154 H 120.78 -1.27269 5.19333 0
M  V30 1155 H 121.123 -2.00799 3.64672 0
M  V30 1156 H 121.656 -0.339019 3.96353 0
M  V30 1157 H 118.395 1.4028 6.40314 0
M  V30 1158 H 117.915 -0.259794 5.99237 0
M  V30 1159 H 119.594 0.0949315 6.4693 0
M  V30 1160 N 119.726 -1.57421 0.075193 0
M  V30 1161 C 120.972 -1.93905 -0.594025 0
M  V30 1162 C 121.305 -0.955701 -1.69056 0
M  V30 1163 O 120.58 0.0145373 -1.94495 0
M  V30 1164 C 120.863 -3.40638 -1.1678 0
M  V30 1165 C 120.716 -4.49733 -0.0776792 0
M  V30 1166 C 122.035 -3.88259 -2.07228 0
M  V30 1167 H 119.154 -0.705105 -0.214466 0
M  V30 1168 H 121.796 -1.8947 0.141854 0
M  V30 1169 H 119.946 -3.44549 -1.79494 0
M  V30 1170 H 121.618 -4.57942 0.555573 0
M  V30 1171 H 119.861 -4.29751 0.591286 0
M  V30 1172 H 120.532 -5.49549 -0.519603 0
M  V30 1173 H 123.008 -3.86376 -1.54445 0
M  V30 1174 H 121.884 -4.91533 -2.44308 0
M  V30 1175 H 122.145 -3.26396 -2.98191 0
M  V30 1176 N 121.204 0.198386 -1.56346 0
M  V30 1177 C 122.452 0.91747 -1.80075 0
M  V30 1178 C 122.773 1.83929 -0.647692 0
M  V30 1179 O 122.043 1.93029 0.334166 0
M  V30 1180 H 120.623 0.341774 -0.664228 0
M  V30 1181 H 123.285 0.204684 -1.93822 0
M  V30 1182 H 122.381 1.51055 -2.7311 0
M  V30 1183 N 122.682 1.50554 0.465978 0
M  V30 1184 C 123.93 1.61479 1.21528 0
M  V30 1185 C 124.251 0.319596 1.92363 0
M  V30 1186 O 123.521 -0.663194 1.84333 0
M  V30 1187 H 122.101 0.595055 0.451573 0
M  V30 1188 H 124.763 1.87355 0.53704 0
M  V30 1189 H 123.859 2.42846 1.96042 0
M  V30 1190 N 124.16 -0.719506 1.40217 0
M  V30 1191 C 125.39 -1.50646 1.41384 0
M  V30 1192 C 125.798 -1.89197 0.0107743 0
M  V30 1193 O 125.141 -1.55709 -0.974708 0
M  V30 1194 C 125.203 -2.81405 2.23722 0
M  V30 1195 C 124.867 -2.65199 3.72181 0
M  V30 1196 C 125.864 -2.32717 4.64907 0
M  V30 1197 C 123.549 -2.81586 4.1595 0
M  V30 1198 C 125.543 -2.16827 5.99387 0
M  V30 1199 C 123.23 -2.65313 5.50502 0
M  V30 1200 C 124.228 -2.32981 6.42035 0
M  V30 1201 O 123.916 -2.16827 7.74107 0
M  V30 1202 H 123.648 -0.471606 0.484318 0
M  V30 1203 H 126.202 -0.895456 1.84853 0
M  V30 1204 H 124.432 -3.44823 1.75026 0
M  V30 1205 H 126.121 -3.43102 2.16878 0
M  V30 1206 H 126.887 -2.19694 4.32388 0
M  V30 1207 H 122.766 -3.0574 3.45027 0
M  V30 1208 H 126.31 -1.91513 6.70797 0
M  V30 1209 H 122.207 -2.7792 5.82607 0
M  V30 1210 H 122.975 -2.31778 7.84998 0
M  V30 1211 N 125.638 -1.25649 -0.95132 0
M  V30 1212 C 126.866 -1.13343 -1.73092 0
M  V30 1213 C 127.281 0.312434 -1.86197 0
M  V30 1214 O 126.638 1.21465 -1.36207 0
M  V30 1215 C 126.689 -1.78602 -3.14299 0
M  V30 1216 O 126.41 -3.17537 -3.01831 0
M  V30 1217 C 127.911 -1.72119 -4.08522 0
M  V30 1218 H 125.131 -0.395181 -0.542285 0
M  V30 1219 H 127.675 -1.66076 -1.19328 0
M  V30 1220 H 125.83 -1.29832 -3.64996 0
M  V30 1221 H 126.244 -3.49676 -3.90931 0
M  V30 1222 H 127.718 -2.22435 -5.052 0
M  V30 1223 H 128.195 -0.685635 -4.33815 0
M  V30 1224 H 128.801 -2.20393 -3.63741 0
M  V30 1225 N 127.117 1.15442 -1.07289 0
M  V30 1226 C 128.357 1.8788 -0.805012 0
M  V30 1227 C 128.721 1.80413 0.656907 0
M  V30 1228 O 129.922 2.47874 1.0398 0
M  V30 1229 C 128.193 3.3298 -1.29843 0
M  V30 1230 S 129.752 4.23158 -1.16114 0
M  V30 1231 H 126.57 0.64839 -0.291739 0
M  V30 1232 H 129.172 1.39285 -1.37186 0
M  V30 1233 H 127.876 3.35958 -2.35712 0
M  V30 1234 H 127.407 3.86629 -0.726767 0
M  V30 1235 H 129.422 4.96103 -0.0982778 0
M  V30 1236 N 128.595 0.856903 1.32268 0
M  V30 1237 C 129.505 0.306131 2.32594 0
M  V30 1238 C 130.521 -0.577209 1.64147 0
M  V30 1239 O 131.697 -0.477043 1.95669 0
M  V30 1240 C 128.762 -0.494561 3.43154 0
M  V30 1241 C 127.823 0.415186 4.27288 0
M  V30 1242 C 127.056 -0.347387 5.32568 0
M  V30 1243 O 127.279 -1.57708 5.48165 0
M  V30 1244 O 126.213 0.287982 6.01211 0
M  V30 1245 H 130.039 1.13737 2.81598 0
M  V30 1246 H 127.624 0.619902 1.35932 0
M  V30 1247 H 129.506 -0.948944 4.10576 0
M  V30 1248 H 128.181 -1.30257 2.96336 0
M  V30 1249 H 127.088 0.917793 3.62667 0
M  V30 1250 H 128.421 1.18844 4.77637 0
M  V30 1251 N 130.073 -1.45103 0.615059 0
M  V30 1252 C 130.983 -2.34382 -0.101034 0
M  V30 1253 C 131.999 -1.51681 -0.852585 0
M  V30 1254 O 133.175 -1.8446 -0.808484 0
M  V30 1255 C 130.24 -3.29417 -1.08099 0
M  V30 1256 C 129.301 -4.28025 -0.330577 0
M  V30 1257 C 128.534 -5.1852 -1.26385 0
M  V30 1258 O 128.757 -5.12598 -2.50198 0
M  V30 1259 O 127.691 -5.97122 -0.756866 0
M  V30 1260 H 131.517 -2.97033 0.632855 0
M  V30 1261 H 129.102 -1.4461 0.375293 0
M  V30 1262 H 130.984 -3.87958 -1.6452 0
M  V30 1263 H 129.659 -2.69321 -1.79577 0
M  V30 1264 H 128.566 -3.73078 0.276283 0
M  V30 1265 H 129.899 -4.90997 0.343866 0
M  V30 1266 N 131.551 -0.354651 -1.53558 0
M  V30 1267 C 132.499 0.512195 -2.26891 0
M  V30 1268 C 133.493 1.09263 -1.29452 0
M  V30 1269 O 134.699 1.03709 -1.47121 0
M  V30 1270 H 131.074 0.183878 -0.729173 0
M  V30 1271 H 133.045 -0.128202 -2.98124 0
M  V30 1272 C 131.794 1.64563 -3.06291 0
M  V30 1273 H 131.117 1.20829 -3.81104 0
M  V30 1274 H 132.557 2.22711 -3.60799 0
M  V30 1275 C 131.016 2.58158 -2.16462 0
M  V30 1276 O 131.546 3.60695 -1.76811 0
M  V30 1277 N 129.752 2.27096 -1.81317 0
M  V30 1278 H 129.299 1.43751 -2.1376 0
M  V30 1279 H 129.257 2.89975 -1.21498 0
M  V30 1280 N 133.029 1.57378 -0.0835403 0
M  V30 1281 C 134.254 1.98682 0.594987 0
M  V30 1282 C 134.679 0.961969 1.61641 0
M  V30 1283 O 134.037 -0.0709989 1.81161 0
M  V30 1284 C 134.085 3.38988 1.2296 0
M  V30 1285 O 133.189 3.39208 2.34546 0
M  V30 1286 H 132.53 0.646368 0.152002 0
M  V30 1287 H 135.06 2.03961 -0.161533 0
M  V30 1288 H 135.07 3.76431 1.57366 0
M  V30 1289 H 133.745 4.13107 0.481228 0
M  V30 1290 H 132.322 3.13548 2.01846 0
M  V30 1291 N 134.507 -0.190092 1.56449 0
M  V30 1292 C 135.437 -1.23816 1.97969 0
M  V30 1293 C 136.418 -1.47201 0.852395 0
M  V30 1294 O 137.603 -1.58854 1.1171 0
M  V30 1295 C 134.733 -2.5813 2.3235 0
M  V30 1296 C 133.687 -2.49348 3.47864 0
M  V30 1297 C 133.013 -3.8798 3.67934 0
M  V30 1298 C 134.313 -2.01424 4.81898 0
M  V30 1299 H 136.007 -0.89311 2.85769 0
M  V30 1300 H 133.553 -0.428177 1.37487 0
M  V30 1301 H 135.506 -3.31637 2.59991 0
M  V30 1302 H 134.23 -2.94386 1.41438 0
M  V30 1303 H 132.889 -1.78297 3.20321 0
M  V30 1304 H 132.537 -4.21597 2.74344 0
M  V30 1305 H 132.237 -3.82978 4.45648 0
M  V30 1306 H 133.761 -4.63101 3.97957 0
M  V30 1307 H 135.175 -2.64693 5.08538 0
M  V30 1308 H 133.572 -2.07413 5.63116 0
M  V30 1309 H 134.642 -0.967677 4.75146 0
M  V30 1310 N 135.985 -1.50799 -0.457987 0
M  V30 1311 C 137.396 -1.55152 -1.0385 0
M  V30 1312 C 137.747 -0.362719 -1.92818 0
M  V30 1313 O 136.872 0.522915 -2.09987 0
M  V30 1314 C 137.467 -2.81173 -1.89017 0
M  V30 1315 C 136.026 -2.88164 -2.42154 0
M  V30 1316 C 135.173 -2.49591 -1.20829 0
M  V30 1317 H 138.124 -1.56874 -0.240068 0
M  V30 1318 H 138.145 -2.63769 -2.74238 0
M  V30 1319 H 137.657 -3.67677 -1.24238 0
M  V30 1320 H 135.758 -2.06042 -3.10447 0
M  V30 1321 H 135.871 -3.91356 -2.76364 0
M  V30 1322 H 134.235 -2.02322 -1.54719 0
M  V30 1323 H 135.018 -3.38418 -0.576927 0
M  V30 1324 N 137.463 0.71206 -1.40597 0
M  V30 1325 C 138.693 1.49894 -1.42181 0
M  V30 1326 C 139.101 1.89189 -0.0208078 0
M  V30 1327 O 138.444 1.56223 0.966436 0
M  V30 1328 C 138.506 2.80215 -2.25211 0
M  V30 1329 C 138.17 2.63221 -3.73582 0
M  V30 1330 C 139.167 2.30249 -4.66135 0
M  V30 1331 C 136.852 2.79376 -4.17438 0
M  V30 1332 C 138.846 2.13645 -6.00529 0
M  V30 1333 C 136.533 2.6239 -5.51901 0
M  V30 1334 C 137.531 2.29573 -6.43262 0
M  V30 1335 O 137.219 2.12719 -7.75246 0
M  V30 1336 H 136.951 0.469031 -0.486812 0
M  V30 1337 H 139.505 0.88564 -1.85326 0
M  V30 1338 H 137.735 3.4389 -1.76852 0
M  V30 1339 H 139.424 3.41947 -2.18694 0
M  V30 1340 H 140.19 2.17398 -4.33547 0
M  V30 1341 H 136.069 3.03906 -3.46644 0
M  V30 1342 H 139.613 1.87953 -6.71803 0
M  V30 1343 H 135.51 2.74826 -5.84073 0
M  V30 1344 H 136.278 2.27611 -7.86216 0
M  V30 1345 N 138.941 1.26152 0.944643 0
M  V30 1346 C 139.873 1.03199 2.04652 0
M  V30 1347 C 140.886 -0.00642356 1.62799 0
M  V30 1348 O 142.075 0.233263 1.76969 0
M  V30 1349 C 139.175 0.540111 3.34568 0
M  V30 1350 C 138.348 1.64697 4.05208 0
M  V30 1351 C 137.407 1.15374 5.13396 0
M  V30 1352 O 136.433 1.85013 5.38293 0
M  V30 1353 N 137.635 0.00031529 5.805 0
M  V30 1354 H 140.4 1.9808 2.2491 0
M  V30 1355 H 137.961 1.17491 1.11389 0
M  V30 1356 H 139.953 0.194401 4.04233 0
M  V30 1357 H 138.523 -0.315021 3.11009 0
M  V30 1358 H 137.743 2.16379 3.29506 0
M  V30 1359 H 139.031 2.3903 4.49157 0
M  V30 1360 H 138.429 -0.581336 5.62705 0
M  V30 1361 H 136.986 -0.286346 6.51171 0
M  V30 1362 N 140.419 -1.14872 1.07899 0
M  V30 1363 C 141.665 -1.86064 0.806725 0
M  V30 1364 C 141.998 -1.82434 -0.665706 0
M  V30 1365 O 141.273 -1.25138 -1.48899 0
M  V30 1366 C 141.556 -3.34929 1.32267 0
M  V30 1367 C 141.409 -3.47161 2.86006 0
M  V30 1368 C 142.728 -4.29863 0.943717 0
M  V30 1369 H 139.847 -0.675591 0.294526 0
M  V30 1370 H 142.489 -1.34925 1.33773 0
M  V30 1371 H 140.639 -3.78611 0.870974 0
M  V30 1372 H 142.311 -3.12302 3.39507 0
M  V30 1373 H 140.554 -2.88539 3.23925 0
M  V30 1374 H 141.225 -4.51777 3.17177 0
M  V30 1375 H 143.701 -3.9417 1.33302 0
M  V30 1376 H 142.577 -5.32494 1.33198 0
M  V30 1377 H 142.838 -4.41846 -0.149796 0
M  V30 1378 N 141.898 -0.863906 -1.31812 0
M  V30 1379 C 143.123 -0.48527 -2.01643 0
M  V30 1380 C 143.548 0.913058 -1.64453 0
M  V30 1381 O 142.906 1.6014 -0.849985 0
M  V30 1382 C 142.954 -0.642625 -3.54828 0
M  V30 1383 O 142.058 0.320659 -4.11151 0
M  V30 1384 H 141.399 -0.193793 -0.635091 0
M  V30 1385 H 143.929 -1.16565 -1.68148 0
M  V30 1386 H 143.939 -0.533628 -4.04495 0
M  V30 1387 H 142.614 -1.66227 -3.81237 0
M  V30 1388 H 141.191 0.167126 -3.72525 0
M  V30 1389 N 143.376 1.44774 -0.622745 0
M  V30 1390 C 144.306 2.33382 0.0741861 0
M  V30 1391 C 145.287 1.47719 0.843387 0
M  V30 1392 O 146.472 1.76458 0.810934 0
M  V30 1393 C 143.602 3.30663 1.06204 0
M  V30 1394 C 142.556 4.26079 0.405037 0
M  V30 1395 C 141.882 5.13165 1.5022 0
M  V30 1396 C 143.182 5.1781 -0.683414 0
M  V30 1397 H 144.876 2.91905 -0.665713 0
M  V30 1398 H 142.422 1.40363 -0.321587 0
M  V30 1399 H 144.375 3.9153 1.55827 0
M  V30 1400 H 143.099 2.70331 1.83272 0
M  V30 1401 H 141.758 3.66532 -0.0704683 0
M  V30 1402 H 141.406 4.49191 2.26355 0
M  V30 1403 H 141.106 5.77812 1.06803 0
M  V30 1404 H 142.63 5.76902 2.00041 0
M  V30 1405 H 144.044 5.72661 -0.270631 0
M  V30 1406 H 142.441 5.91015 -1.04023 0
M  V30 1407 H 143.511 4.59326 -1.55395 0
M  V30 1408 N 144.854 0.36279 1.53368 0
M  V30 1409 C 145.802 -0.500155 2.27159 0
M  V30 1410 C 146.796 -1.08575 1.3003 0
M  V30 1411 O 148.002 -1.02927 1.47668 0
M  V30 1412 H 144.377 -0.180009 0.730138 0
M  V30 1413 H 146.348 0.14401 2.98052 0
M  V30 1414 C 145.097 -1.62937 3.07159 0
M  V30 1415 H 144.42 -1.18806 3.8174 0
M  V30 1416 H 145.86 -2.20795 3.61975 0
M  V30 1417 C 144.319 -2.57007 2.17829 0
M  V30 1418 O 144.849 -3.59752 1.78721 0
M  V30 1419 N 143.055 -2.26131 1.82518 0
M  V30 1420 H 142.602 -1.42616 2.14519 0
M  V30 1421 H 142.56 -2.89327 1.23034 0
M  V30 1422 N 146.332 -1.57332 0.0918853 0
M  V30 1423 C 147.557 -1.98995 -0.584442 0
M  V30 1424 C 147.982 -0.970528 -1.61128 0
M  V30 1425 O 147.34 0.0613904 -1.81196 0
M  V30 1426 C 147.388 -3.39636 -1.21161 0
M  V30 1427 O 146.492 -3.40447 -2.32744 0
M  V30 1428 H 145.833 -0.647165 -0.148572 0
M  V30 1429 H 148.363 -2.03873 0.172347 0
M  V30 1430 H 148.373 -3.7726 -1.55367 0
M  V30 1431 H 147.048 -4.13356 -0.459313 0
M  V30 1432 H 145.625 -3.14614 -2.0018 0
M  V30 1433 N 147.81 0.181792 -1.56548 0
M  V30 1434 C 149.058 0.89832 -1.81038 0
M  V30 1435 C 149.379 1.83232 -0.667164 0
M  V30 1436 O 148.649 1.93372 0.313673 0
M  V30 1437 H 147.229 0.33471 -0.667816 0
M  V30 1438 H 149.891 0.184116 -1.94028 0
M  V30 1439 H 148.987 1.4815 -2.74696 0
M  V30 1440 N 149.288 1.51039 0.449983 0
M  V30 1441 C 150.513 1.6715 1.22783 0
M  V30 1442 C 150.938 0.363081 1.84563 0
M  V30 1443 O 150.296 -0.675433 1.68249 0
M  V30 1444 C 150.344 2.77985 2.29689 0
M  V30 1445 O 149.448 2.40707 3.34864 0
M  V30 1446 H 148.789 0.557746 0.360299 0
M  V30 1447 H 151.319 1.97535 0.533005 0
M  V30 1448 H 151.329 3.01693 2.74673 0
M  V30 1449 H 150.004 3.72935 1.84098 0
M  V30 1450 H 148.581 2.27523 2.95445 0
M  V30 1451 N 150.766 -0.704594 1.40972 0
M  V30 1452 C 151.716 -1.81051 1.38581 0
M  V30 1453 C 152.7 -1.58759 0.261585 0
M  V30 1454 O 153.892 -1.69745 0.501556 0
M  V30 1455 C 151.021 -3.19279 1.26157 0
M  V30 1456 C 150.107 -3.47296 2.43405 0
M  V30 1457 N 150.498 -3.46064 3.68881 0
M  V30 1458 C 148.796 -3.77804 2.37023 0
M  V30 1459 C 149.497 -3.72733 4.46592 0
M  V30 1460 N 148.473 -3.9203 3.76581 0
M  V30 1461 H 152.275 -1.78448 2.33525 0
M  V30 1462 H 149.789 -0.904198 1.349 0
M  V30 1463 H 151.786 -3.98488 1.22526 0
M  V30 1464 H 150.446 -3.231 0.321902 0
M  V30 1465 H 151.457 -3.26656 4.01891 0
M  V30 1466 H 148.134 -3.8905 1.51481 0
M  V30 1467 H 149.524 -3.77993 5.55492 0
M  V30 1468 N 152.244 -1.26651 -0.937939 0
M  V30 1469 C 153.491 -1.12387 -1.6845 0
M  V30 1470 C 153.819 0.332208 -1.91642 0
M  V30 1471 O 153.074 1.2602 -1.49725 0
M  V30 1472 C 153.373 -1.84168 -3.06295 0
M  V30 1473 C 153.039 -3.34056 -3.02849 0
M  V30 1474 C 151.701 -3.74942 -3.01616 0
M  V30 1475 C 154.053 -4.29741 -2.9491 0
M  V30 1476 C 151.381 -5.09894 -2.90215 0
M  V30 1477 C 153.733 -5.64738 -2.8505 0
M  V30 1478 C 152.397 -6.0493 -2.82162 0
M  V30 1479 H 151.667 -0.411252 -0.616403 0
M  V30 1480 H 154.314 -1.57134 -1.09459 0
M  V30 1481 H 152.619 -1.319 -3.6893 0
M  V30 1482 H 154.316 -1.70569 -3.62915 0
M  V30 1483 H 150.906 -3.01534 -3.0459 0
M  V30 1484 H 155.09 -3.99133 -2.94969 0
M  V30 1485 H 150.346 -5.40194 -2.86358 0
M  V30 1486 H 154.52 -6.38561 -2.77872 0
M  V30 1487 H 152.147 -7.09457 -2.73084 0
M  V30 1488 N 153.722 1.14298 -1.08507 0
M  V30 1489 C 154.962 1.87016 -0.824894 0
M  V30 1490 C 155.326 1.81099 0.637735 0
M  V30 1491 O 156.527 2.48963 1.01345 0
M  V30 1492 C 154.798 3.31584 -1.33368 0
M  V30 1493 S 156.357 4.21903 -1.20596 0
M  V30 1494 H 153.175 0.645259 -0.2986 0
M  V30 1495 H 155.777 1.37822 -1.38656 0
M  V30 1496 H 154.481 3.33439 -2.39262 0
M  V30 1497 H 154.012 3.85836 -0.767734 0
M  V30 1498 H 156.027 4.95971 -0.150891 0
M  V30 1499 N 155.201 0.870884 1.31352 0
M  V30 1500 C 156.449 0.48132 1.96285 0
M  V30 1501 C 156.77 -0.969813 1.69173 0
M  V30 1502 O 156.04 -1.67998 1.00764 0
M  V30 1503 H 154.62 0.175002 0.726212 0
M  V30 1504 H 157.282 1.11087 1.60143 0
M  V30 1505 H 156.378 0.639825 3.05471 0
M  V30 1506 N 156.679 -1.44442 0.630414 0
M  V30 1507 C 157.927 -2.01653 0.134351 0
M  V30 1508 C 158.248 -1.49836 -1.24796 0
M  V30 1509 O 157.518 -0.701684 -1.82902 0
M  V30 1510 H 156.098 -0.74554 0.0466769 0
M  V30 1511 H 158.76 -1.76952 0.816955 0
M  V30 1512 H 157.856 -3.11935 0.101498 0
M  V30 1513 N 158.157 -0.370918 -1.53173 0
M  V30 1514 C 159.382 0.220293 -2.06227 0
M  V30 1515 C 159.807 1.41243 -1.24225 0
M  V30 1516 O 159.165 1.79387 -0.262645 0
M  V30 1517 C 159.213 0.586663 -3.55796 0
M  V30 1518 O 158.317 1.68317 -3.76488 0
M  V30 1519 H 157.658 0.0308099 -0.663285 0
M  V30 1520 H 160.188 -0.533068 -1.97534 0
M  V30 1521 H 160.198 0.85617 -3.98916 0
M  V30 1522 H 158.873 -0.285013 -4.14922 0
M  V30 1523 H 157.45 1.40881 -3.45264 0
M  V30 1524 N 159.635 1.57281 -0.100228 0
M  V30 1525 C 160.565 2.17328 0.853857 0
M  V30 1526 C 161.546 1.10804 1.2906 0
M  V30 1527 O 162.731 1.38963 1.35657 0
M  V30 1528 C 159.861 2.75772 2.11109 0
M  V30 1529 C 158.815 3.87713 1.81279 0
M  V30 1530 C 158.141 4.32882 3.13874 0
M  V30 1531 C 159.441 5.10677 1.09574 0
M  V30 1532 H 161.135 2.97305 0.353545 0
M  V30 1533 H 158.681 1.43009 0.168612 0
M  V30 1534 H 160.634 3.16433 2.78296 0
M  V30 1535 H 159.358 1.93057 2.63432 0
M  V30 1536 H 158.017 3.476 1.16489 0
M  V30 1537 H 157.665 3.47051 3.64095 0
M  V30 1538 H 157.365 5.08358 2.94696 0
M  V30 1539 H 158.889 4.7618 3.82211 0
M  V30 1540 H 160.303 5.48474 1.66879 0
M  V30 1541 H 158.7 5.91615 1.00557 0
M  V30 1542 H 159.77 4.84835 0.0793299 0
M  V30 1543 N 161.113 -0.173488 1.56642 0
M  V30 1544 C 162.362 -0.888758 1.81063 0
M  V30 1545 C 162.675 -1.83506 0.67712 0
M  V30 1546 O 163.881 -2.59254 0.806206 0
M  V30 1547 C 162.337 -1.63091 3.20826 0
M  V30 1548 C 161.945 -0.728357 4.4204 0
M  V30 1549 C 163.689 -2.33454 3.54541 0
M  V30 1550 C 161.596 -1.47062 5.72823 0
M  V30 1551 H 160.526 -0.335618 0.675186 0
M  V30 1552 H 163.177 -0.141712 1.82952 0
M  V30 1553 H 161.559 -2.42263 3.13248 0
M  V30 1554 H 162.733 0.0262449 4.60793 0
M  V30 1555 H 161.048 -0.134492 4.16183 0
M  V30 1556 H 163.645 -2.89578 4.49498 0
M  V30 1557 H 163.988 -3.08687 2.79317 0
M  V30 1558 H 164.521 -1.61227 3.63663 0
M  V30 1559 H 161.26 -0.760658 6.51072 0
M  V30 1560 H 160.78 -2.1986 5.58052 0
M  V30 1561 H 162.459 -2.01868 6.14702 0
M  V30 1562 N 162.591 -1.51276 -0.441967 0
M  V30 1563 C 163.816 -1.67799 -1.21895 0
M  V30 1564 C 164.241 -0.372864 -1.84367 0
M  V30 1565 O 163.599 0.666501 -1.68604 0
M  V30 1566 C 163.647 -2.79199 -2.28211 0
M  V30 1567 O 162.751 -2.42479 -3.33583 0
M  V30 1568 H 162.092 -0.559649 -0.357336 0
M  V30 1569 H 164.622 -1.97815 -0.522522 0
M  V30 1570 H 164.632 -3.03146 -2.73069 0
M  V30 1571 H 163.307 -3.73906 -1.82118 0
M  V30 1572 H 161.884 -2.29087 -2.94234 0
M  V30 1573 N 164.069 0.697108 -1.41344 0
M  V30 1574 C 164.979 1.84088 -1.45427 0
M  V30 1575 C 165.995 1.70545 -0.34501 0
M  V30 1576 O 167.171 1.92488 -0.592492 0
M  V30 1577 C 164.236 3.20056 -1.33286 0
M  V30 1578 C 163.297 3.45718 -2.54514 0
M  V30 1579 C 162.53 4.75199 -2.42944 0
M  V30 1580 O 162.753 5.51579 -1.45318 0
M  V30 1581 O 161.687 5.0161 -3.32672 0
M  V30 1582 H 165.513 1.836 -2.41919 0
M  V30 1583 H 163.098 0.849966 -1.22866 0
M  V30 1584 H 164.98 4.01236 -1.28794 0
M  V30 1585 H 163.655 3.2123 -0.39909 0
M  V30 1586 H 162.562 2.64474 -2.64583 0
M  V30 1587 H 163.895 3.49356 -3.46715 0
M  V30 1588 N 165.547 1.27147 0.931209 0
M  V30 1589 C 166.479 1.05364 2.03546 0
M  V30 1590 C 167.492 0.0108438 1.62796 0
M  V30 1591 O 168.681 0.25202 1.76712 0
M  V30 1592 C 165.781 0.575566 3.33977 0
M  V30 1593 C 164.954 1.68985 4.03439 0
M  V30 1594 C 164.013 1.20813 5.12143 0
M  V30 1595 O 163.039 1.90712 5.363 0
M  V30 1596 N 164.241 0.0618851 5.80467 0
M  V30 1597 H 167.006 2.00454 2.22796 0
M  V30 1598 H 164.567 1.18666 1.10136 0
M  V30 1599 H 166.559 0.237264 4.04004 0
M  V30 1600 H 165.129 -0.282016 3.11325 0
M  V30 1601 H 164.349 2.19861 3.27192 0
M  V30 1602 H 165.637 2.4378 4.46597 0
M  V30 1603 H 165.035 -0.521621 5.6329 0
M  V30 1604 H 163.592 -0.217264 6.51438 0
M  V30 1605 N 167.025 -1.13721 1.09112 0
M  V30 1606 C 168.271 -1.85413 0.836283 0
M  V30 1607 C 168.626 -1.8175 -0.631249 0
M  V30 1608 O 167.919 -1.24238 -1.45861 0
M  V30 1609 C 168.113 -3.32861 1.30146 0
M  V30 1610 C 167.942 -3.50882 2.81268 0
M  V30 1611 C 166.712 -3.65312 3.49106 0
M  V30 1612 C 168.91 -3.47196 3.7942 0
M  V30 1613 N 166.892 -3.71563 4.88686 0
M  V30 1614 C 168.263 -3.59777 5.04936 0
M  V30 1615 C 170.318 -3.30577 3.72321 0
M  V30 1616 C 169.021 -3.57455 6.24194 0
M  V30 1617 C 171.047 -3.29562 4.91063 0
M  V30 1618 C 170.409 -3.42691 6.15421 0
M  V30 1619 H 166.508 -0.694812 0.358832 0
M  V30 1620 H 169.092 -1.36246 1.39087 0
M  V30 1621 H 167.263 -3.80602 0.774361 0
M  V30 1622 H 168.995 -3.92346 0.99229 0
M  V30 1623 H 165.75 -3.6685 2.9953 0
M  V30 1624 H 166.174 -3.78387 5.61384 0
M  V30 1625 H 170.816 -3.19332 2.77105 0
M  V30 1626 H 168.534 -3.67475 7.19714 0
M  V30 1627 H 172.12 -3.17905 4.87266 0
M  V30 1628 H 171 -3.41862 7.05762 0
M  V30 1629 N 168.503 -0.877838 -1.30888 0
M  V30 1630 C 169.749 -0.493426 -1.96706 0
M  V30 1631 C 170.082 0.953504 -1.6918 0
M  V30 1632 O 169.357 1.67266 -0.992594 0
M  V30 1633 C 169.64 -0.760429 -3.51979 0
M  V30 1634 C 169.493 -2.25747 -3.89048 0
M  V30 1635 C 170.812 -0.232148 -4.39487 0
M  V30 1636 H 167.931 -0.180746 -0.714493 0
M  V30 1637 H 170.573 -1.10052 -1.54882 0
M  V30 1638 H 168.723 -0.243715 -3.87735 0
M  V30 1639 H 170.395 -2.84204 -3.63354 0
M  V30 1640 H 168.638 -2.72694 -3.37373 0
M  V30 1641 H 169.309 -2.39491 -4.97341 0
M  V30 1642 H 171.785 -0.674314 -4.106 0
M  V30 1643 H 170.661 -0.448355 -5.47066 0
M  V30 1644 H 170.922 0.866297 -4.33529 0
M  V30 1645 N 169.982 1.44106 -0.638065 0
M  V30 1646 C 171.228 2.02277 -0.145546 0
M  V30 1647 C 171.561 1.50125 1.23191 0
M  V30 1648 O 170.836 0.688133 1.8192 0
M  V30 1649 C 171.119 3.59829 -0.139791 0
M  V30 1650 C 170.972 4.22247 -1.55008 0
M  V30 1651 C 172.291 4.36873 0.531966 0
M  V30 1652 H 169.41 0.734992 -0.0543632 0
M  V30 1653 H 172.052 1.71592 -0.815863 0
M  V30 1654 H 170.202 3.86102 0.431007 0
M  V30 1655 H 171.874 4.07057 -2.1703 0
M  V30 1656 H 170.117 3.79476 -2.10191 0
M  V30 1657 H 170.788 5.31284 -1.49804 0
M  V30 1658 H 173.264 4.16074 0.0464781 0
M  V30 1659 H 172.14 5.4657 0.505206 0
M  V30 1660 H 172.401 4.11995 1.60352 0
M  V30 1661 N 171.46 0.379036 1.52974 0
M  V30 1662 C 172.685 -0.209353 2.06341 0
M  V30 1663 C 173.11 -1.40583 1.24972 0
M  V30 1664 O 172.468 -1.79246 0.272155 0
M  V30 1665 C 172.516 -0.567786 3.56102 0
M  V30 1666 O 171.62 -1.66318 3.77375 0
M  V30 1667 H 170.961 -0.0272919 0.663439 0
M  V30 1668 H 173.491 0.543536 1.97248 0
M  V30 1669 H 173.501 -0.835003 3.99364 0
M  V30 1670 H 172.176 0.307013 4.14765 0
M  V30 1671 H 170.753 -1.39048 3.46006 0
M  V30 1672 N 172.938 -1.57226 0.108567 0
M  V30 1673 C 173.901 -2.13602 -0.831082 0
M  V30 1674 C 174.901 -1.06841 -1.20173 0
M  V30 1675 O 176.091 -1.32666 -1.12895 0
M  V30 1676 C 173.223 -2.66769 -2.12243 0
M  V30 1677 H 174.416 -2.97951 -0.341317 0
M  V30 1678 H 171.969 -1.55667 -0.14057 0
M  V30 1679 H 172.704 -1.85977 -2.65675 0
M  V30 1680 H 172.489 -3.44839 -1.86625 0
M  V30 1681 H 173.979 -3.10332 -2.79435 0
M  V30 1682 N 174.416 0.165178 -1.56732 0
M  V30 1683 C 175.379 1.18822 -1.95995 0
M  V30 1684 C 176.379 1.3685 -0.84431 0
M  V30 1685 O 177.569 1.34152 -1.11126 0
M  V30 1686 C 174.701 2.5521 -2.26011 0
M  V30 1687 H 175.894 0.851825 -2.87548 0
M  V30 1688 H 173.447 0.407857 -1.50885 0
M  V30 1689 H 174.182 2.93852 -1.37191 0
M  V30 1690 H 173.967 2.43489 -3.07336 0
M  V30 1691 H 175.457 3.28927 -2.57288 0
M  V30 1692 N 175.894 1.51508 0.433938 0
M  V30 1693 C 176.844 1.69451 1.52546 0
M  V30 1694 C 177.828 0.548474 1.51263 0
M  V30 1695 O 179.02 0.804529 1.57659 0
M  V30 1696 C 176.149 1.82604 2.90707 0
M  V30 1697 C 175.235 3.03002 2.96733 0
M  V30 1698 N 175.626 4.26121 2.72496 0
M  V30 1699 C 173.924 3.02327 3.27894 0
M  V30 1700 C 174.625 5.07407 2.84452 0
M  V30 1701 N 173.601 4.42126 3.16269 0
M  V30 1702 H 177.403 2.62305 1.32564 0
M  V30 1703 H 174.917 1.49202 0.641297 0
M  V30 1704 H 176.914 1.93569 3.69238 0
M  V30 1705 H 175.574 0.909339 3.11707 0
M  V30 1706 H 176.585 4.55009 2.4736 0
M  V30 1707 H 173.262 2.20301 3.54646 0
M  V30 1708 H 174.652 6.15422 2.69639 0
M  V30 1709 N 177.372 -0.689602 1.41712 0
M  V30 1710 C 178.612 -1.46184 1.42862 0
M  V30 1711 C 178.976 -1.91962 0.0382204 0
M  V30 1712 O 180.177 -2.68694 -0.0755019 0
M  V30 1713 C 178.448 -2.6371 2.4123 0
M  V30 1714 S 180.007 -3.52768 2.6096 0
M  V30 1715 H 176.825 -0.49947 0.506015 0
M  V30 1716 H 179.427 -0.804107 1.78198 0
M  V30 1717 H 178.131 -2.28293 3.41044 0
M  V30 1718 H 177.662 -3.3437 2.07269 0
M  V30 1719 H 179.677 -4.59146 1.88148 0
M  V30 1720 N 178.85 -1.27639 -0.924453 0
M  V30 1721 C 180.08 -1.16819 -1.70402 0
M  V30 1722 C 180.488 0.277191 -1.87158 0
M  V30 1723 O 179.831 1.20025 -1.39067 0
M  V30 1724 C 179.893 -1.78305 -3.12166 0
M  V30 1725 C 179.557 -3.27502 -3.18734 0
M  V30 1726 C 180.554 -4.2409 -3.00738 0
M  V30 1727 C 178.239 -3.68269 -3.4159 0
M  V30 1728 C 180.233 -5.59422 -3.05492 0
M  V30 1729 C 177.92 -5.0373 -3.45977 0
M  V30 1730 C 178.918 -5.99116 -3.27946 0
M  V30 1731 O 178.606 -7.32108 -3.32074 0
M  V30 1732 H 178.338 -0.406931 -0.539799 0
M  V30 1733 H 180.892 -1.69078 -1.16626 0
M  V30 1734 H 179.122 -1.20528 -3.67437 0
M  V30 1735 H 180.811 -1.62154 -3.72103 0
M  V30 1736 H 181.577 -3.93931 -2.82919 0
M  V30 1737 H 177.456 -2.94496 -3.54673 0
M  V30 1738 H 181 -6.33852 -2.91337 0
M  V30 1739 H 176.897 -5.33543 -3.63321 0
M  V30 1740 H 177.665 -7.40598 -3.48507 0
M  V30 1741 N 180.328 1.1314 -1.09713 0
M  V30 1742 C 181.275 2.18642 -0.739196 0
M  V30 1743 C 182.245 1.63706 0.280978 0
M  V30 1744 O 183.43 1.90111 0.161946 0
M  V30 1745 C 180.57 3.44685 -0.169102 0
M  V30 1746 C 179.683 4.13711 -1.24367 0
M  V30 1747 C 178.818 5.27379 -0.636019 0
M  V30 1748 C 177.857 5.88259 -1.69169 0
M  V30 1749 N 176.994 6.93352 -1.10485 0
M  V30 1750 H 181.834 2.48607 -1.64312 0
M  V30 1751 H 179.371 1.22066 -0.820875 0
M  V30 1752 H 181.329 4.16815 0.179256 0
M  V30 1753 H 179.959 3.15161 0.698079 0
M  V30 1754 H 179.011 3.39835 -1.70927 0
M  V30 1755 H 180.323 4.55037 -2.04311 0
M  V30 1756 H 179.477 6.06238 -0.236677 0
M  V30 1757 H 178.216 4.8731 0.194928 0
M  V30 1758 H 177.221 5.08092 -2.10055 0
M  V30 1759 H 178.446 6.30399 -2.52536 0
M  V30 1760 H 176.392 6.55335 -0.295234 0
M  V30 1761 H 176.309 7.33236 -1.84121 0
M  V30 1762 H 177.577 7.76057 -0.73181 0
M  V30 1763 N 181.806 0.884767 1.30421 0
M  V30 1764 C 183.034 0.518044 2.0031 0
M  V30 1765 C 183.449 -0.893408 1.66324 0
M  V30 1766 O 182.806 -1.5875 0.900262 0
M  V30 1767 C 182.857 0.682997 3.54989 0
M  V30 1768 O 182.578 2.03888 3.87764 0
M  V30 1769 C 184.079 0.31924 4.42149 0
M  V30 1770 H 181.299 0.200265 0.640418 0
M  V30 1771 H 183.843 1.19001 1.6631 0
M  V30 1772 H 181.998 0.0584052 3.87356 0
M  V30 1773 H 182.412 2.05735 4.82466 0
M  V30 1774 H 183.886 0.485555 5.4986 0
M  V30 1775 H 184.363 -0.742717 4.32875 0
M  V30 1776 H 184.969 0.920147 4.15227 0
M  V30 1777 N 183.284 -1.43765 0.645699 0
M  V30 1778 C 184.7 -1.56509 0.312591 0
M  V30 1779 C 184.9 -1.6307 -1.18365 0
M  V30 1780 O 183.956 -1.58167 -1.96824 0
M  V30 1781 C 185.269 -2.82968 1.01733 0
M  V30 1782 C 186.817 -2.96701 0.996865 0
M  V30 1783 C 187.292 -4.25982 1.68236 0
M  V30 1784 N 188.783 -4.32829 1.64964 0
M  V30 1785 C 189.518 -5.31613 2.14885 0
M  V30 1786 N 189.014 -6.36718 2.73061 0
M  V30 1787 N 190.807 -5.23217 2.05428 0
M  V30 1788 H 182.958 -1.3775 1.61675 0
M  V30 1789 H 185.221 -0.661067 0.679481 0
M  V30 1790 H 184.927 -2.84156 2.0724 0
M  V30 1791 H 184.801 -3.72957 0.564177 0
M  V30 1792 H 187.188 -2.95058 -0.0497719 0
M  V30 1793 H 187.269 -2.08022 1.48865 0
M  V30 1794 H 186.913 -4.28386 2.72852 0
M  V30 1795 H 186.843 -5.13545 1.16529 0
M  V30 1796 H 189.334 -3.57493 1.22503 0
M  V30 1797 H 189.647 -7.08401 3.08848 0
M  V30 1798 H 187.992 -6.37362 2.77118 0
M  V30 1799 H 191.183 -4.40019 1.59689 0
M  V30 1800 H 191.356 -6.00045 2.44643 0
M  V30 1801 N 184.763 -0.387143 -1.52771 0
M  V30 1802 C 186.012 0.19697 -2.00736 0
M  V30 1803 C 186.325 1.48082 -1.27793 0
M  V30 1804 O 187.531 2.14485 -1.66458 0
M  V30 1805 C 185.987 0.401568 -3.57653 0
M  V30 1806 C 185.595 -0.868907 -4.39493 0
M  V30 1807 C 187.339 0.942164 -4.13912 0
M  V30 1808 C 185.246 -0.632705 -5.88006 0
M  V30 1809 H 184.176 0.0773827 -0.750019 0
M  V30 1810 H 186.827 -0.50921 -1.76293 0
M  V30 1811 H 185.209 1.16954 -3.78335 0
M  V30 1812 H 186.383 -1.64133 -4.30577 0
M  V30 1813 H 184.698 -1.33429 -3.94443 0
M  V30 1814 H 187.295 1.13455 -5.22525 0
M  V30 1815 H 187.638 1.9106 -3.69867 0
M  V30 1816 H 188.171 0.233814 -3.97112 0
M  V30 1817 H 184.91 -1.57208 -6.36369 0
M  V30 1818 H 184.43 0.100825 -5.99715 0
M  V30 1819 H 186.109 -0.26642 -6.46451 0
M  V30 1820 N 186.241 1.57166 -0.116904 0
M  V30 1821 C 187.173 2.12271 0.864507 0
M  V30 1822 C 188.186 1.06494 1.23138 0
M  V30 1823 O 189.375 1.33873 1.18069 0
M  V30 1824 C 186.475 2.60564 2.16702 0
M  V30 1825 C 185.648 3.90416 1.97216 0
M  V30 1826 C 184.707 4.24329 3.11178 0
M  V30 1827 O 183.733 4.93182 2.84184 0
M  V30 1828 N 184.935 3.8148 4.37554 0
M  V30 1829 H 187.7 2.97102 0.393726 0
M  V30 1830 H 185.261 1.61759 0.0675805 0
M  V30 1831 H 187.253 2.80282 2.91932 0
M  V30 1832 H 185.823 1.80623 2.55135 0
M  V30 1833 H 185.043 3.79627 1.06192 0
M  V30 1834 H 186.331 4.75327 1.81499 0
M  V30 1835 H 185.729 3.25943 4.62361 0
M  V30 1836 H 184.286 4.06311 5.09661 0
M  V30 1837 N 187.719 -0.156864 1.56817 0
M  V30 1838 C 188.965 -0.872416 1.83076 0
M  V30 1839 C 189.298 -1.81261 0.697001 0
M  V30 1840 O 188.573 -1.92171 -0.30008 0
M  V30 1841 C 188.856 -1.65551 3.19789 0
M  V30 1842 C 188.709 -0.737467 4.43713 0
M  V30 1843 C 190.028 -2.62012 3.53606 0
M  V30 1844 H 187.147 -0.315715 0.665953 0
M  V30 1845 H 189.789 -0.138004 1.89498 0
M  V30 1846 H 187.939 -2.28159 3.14445 0
M  V30 1847 H 189.611 -0.123143 4.61136 0
M  V30 1848 H 187.854 -0.0464067 4.33775 0
M  V30 1849 H 188.525 -1.32122 5.35955 0
M  V30 1850 H 191.001 -2.09525 3.59497 0
M  V30 1851 H 189.877 -3.13861 4.50314 0
M  V30 1852 H 190.138 -3.42902 2.79053 0
M  V30 1853 N 189.197 -1.51736 -0.425897 0
M  V30 1854 C 190.613 -1.40166 -0.76326 0
M  V30 1855 C 190.813 -0.492962 -1.95377 0
M  V30 1856 O 189.869 0.0475815 -2.52455 0
M  V30 1857 C 191.182 -2.82403 -1.03291 0
M  V30 1858 C 192.73 -2.91632 -1.13665 0
M  V30 1859 C 193.205 -4.34801 -1.43916 0
M  V30 1860 N 194.696 -4.3796 -1.50816 0
M  V30 1861 C 195.431 -5.4578 -1.75817 0
M  V30 1862 N 194.927 -6.63744 -1.98534 0
M  V30 1863 N 196.72 -5.33274 -1.77694 0
M  V30 1864 H 188.871 -2.09361 0.358 0
M  V30 1865 H 191.134 -0.942941 0.0978094 0
M  V30 1866 H 190.84 -3.50943 -0.230696 0
M  V30 1867 H 190.714 -3.22428 -1.95754 0
M  V30 1868 H 193.101 -2.23284 -1.92947 0
M  V30 1869 H 193.182 -2.55088 -0.190756 0
M  V30 1870 H 192.826 -5.03703 -0.65157 0
M  V30 1871 H 192.756 -4.68868 -2.39729 0
M  V30 1872 H 195.247 -3.52919 -1.35118 0
M  V30 1873 H 195.56 -7.41704 -2.17013 0
M  V30 1874 H 193.905 -6.66839 -1.95832 0
M  V30 1875 H 197.096 -4.40098 -1.59473 0
M  V30 1876 H 197.269 -6.1738 -1.9684 0
M  V30 1877 N 190.675 0.682077 -1.42076 0
M  V30 1878 C 191.605 1.80796 -1.47767 0
M  V30 1879 C 192.586 1.6677 -0.334954 0
M  V30 1880 O 193.771 1.863 -0.548264 0
M  V30 1881 C 190.901 3.19038 -1.37229 0
M  V30 1882 C 189.855 3.47789 -2.49453 0
M  V30 1883 C 189.181 4.8553 -2.23975 0
M  V30 1884 C 190.481 3.45411 -3.91776 0
M  V30 1885 H 192.175 1.7629 -2.41997 0
M  V30 1886 H 189.721 0.846721 -1.16476 0
M  V30 1887 H 191.674 3.97528 -1.39821 0
M  V30 1888 H 190.398 3.24204 -0.394907 0
M  V30 1889 H 189.057 2.71657 -2.46166 0
M  V30 1890 H 188.705 4.87337 -1.24547 0
M  V30 1891 H 188.405 5.0573 -2.99184 0
M  V30 1892 H 189.929 5.66312 -2.28304 0
M  V30 1893 H 191.343 4.13882 -3.96705 0
M  V30 1894 H 189.74 3.77145 -4.66778 0
M  V30 1895 H 190.81 2.44122 -4.18966 0
M  V30 1896 N 192.153 1.28127 0.917671 0
M  V30 1897 C 193.401 1.14825 1.66312 0
M  V30 1898 C 193.722 -0.304379 1.9261 0
M  V30 1899 O 192.992 -1.21149 1.53947 0
M  V30 1900 H 191.572 0.421953 0.616413 0
M  V30 1901 H 194.234 1.608 1.10134 0
M  V30 1902 H 193.33 1.68489 2.62712 0
M  V30 1903 N 193.631 -1.12557 1.10312 0
M  V30 1904 C 194.541 -2.21841 0.763142 0
M  V30 1905 C 195.557 -1.72354 -0.238801 0
M  V30 1906 O 196.733 -2.01249 -0.0778746 0
M  V30 1907 C 193.798 -3.46131 0.198632 0
M  V30 1908 C 192.859 -4.10464 1.25769 0
M  V30 1909 C 192.092 -5.28821 0.72002 0
M  V30 1910 O 192.315 -5.6859 -0.453993 0
M  V30 1911 O 191.249 -5.83437 1.47935 0
M  V30 1912 H 195.075 -2.53312 1.67532 0
M  V30 1913 H 192.66 -1.20867 0.878157 0
M  V30 1914 H 194.542 -4.2125 -0.112401 0
M  V30 1915 H 193.217 -3.16338 -0.686419 0
M  V30 1916 H 192.124 -3.3713 1.62156 0
M  V30 1917 H 193.457 -4.44408 2.11571 0
M  V30 1918 N 195.109 -0.891671 -1.2995 0
M  V30 1919 C 196.059 -0.334811 -2.25528 0
M  V30 1920 C 197.043 0.540553 -1.51548 0
M  V30 1921 O 198.235 0.383882 -1.72787 0
M  V30 1922 C 195.364 0.44374 -3.4042 0
M  V30 1923 C 194.45 -0.44609 -4.21747 0
M  V30 1924 N 194.841 -1.54963 -4.81477 0
M  V30 1925 C 193.139 -0.242415 -4.45341 0
M  V30 1926 C 193.84 -2.10015 -5.42465 0
M  V30 1927 N 192.816 -1.39423 -5.25416 0
M  V30 1928 H 196.618 -1.17792 -2.69262 0
M  V30 1929 H 194.132 -0.741822 -1.44467 0
M  V30 1930 H 196.129 0.859362 -4.07947 0
M  V30 1931 H 194.789 1.28421 -2.98225 0
M  V30 1932 H 195.8 -1.93244 -4.80497 0
M  V30 1933 H 192.477 0.560342 -4.13723 0
M  V30 1934 H 193.867 -3.02724 -5.9984 0
M  V30 1935 N 196.587 1.43421 -0.653314 0
M  V30 1936 C 197.535 2.32546 0.0501531 0
M  V30 1937 C 198.529 1.48617 0.812985 0
M  V30 1938 O 199.735 1.64825 0.723375 0
M  V30 1939 H 196.11 0.751185 0.0350032 0
M  V30 1940 H 198.081 2.89602 -0.719261 0
M  V30 1941 C 196.83 3.32925 1.00279 0
M  V30 1942 H 196.153 3.97532 0.425236 0
M  V30 1943 H 197.593 3.9792 1.46409 0
M  V30 1944 C 196.052 2.63532 2.09886 0
M  V30 1945 O 196.582 2.45092 3.18265 0
M  V30 1946 N 194.788 2.22905 1.86445 0
M  V30 1947 H 194.335 2.38103 0.98309 0
M  V30 1948 H 194.293 1.76805 2.59976 0
M  V30 1949 N 198.065 0.39524 1.52563 0
M  V30 1950 C 199.314 -0.186321 2.00838 0
M  V30 1951 C 199.627 -1.47402 1.28577 0
M  V30 1952 O 200.833 -2.13599 1.67593 0
M  V30 1953 C 199.289 -0.382595 3.57861 0
M  V30 1954 C 198.897 0.892202 4.39026 0
M  V30 1955 C 200.641 -0.9202 4.14406 0
M  V30 1956 C 198.548 0.66388 5.87662 0
M  V30 1957 H 197.478 -0.0734041 0.750418 0
M  V30 1958 H 200.129 0.518552 1.76021 0
M  V30 1959 H 198.511 -1.14946 3.7895 0
M  V30 1960 H 199.685 1.66414 4.29701 0
M  V30 1961 H 198 1.35519 3.9373 0
M  V30 1962 H 200.597 -1.10683 5.23119 0
M  V30 1963 H 200.94 -1.89096 3.70875 0
M  V30 1964 H 201.473 -0.212751 3.97231 0
M  V30 1965 H 198.212 1.6058 6.35527 0
M  V30 1966 H 197.732 -0.0690193 5.9976 0
M  V30 1967 H 199.411 0.300699 6.46301 0
M  V30 1968 N 199.544 -1.57102 0.125237 0
M  V30 1969 C 200.491 -2.15641 -0.822655 0
M  V30 1970 C 201.461 -1.08313 -1.25927 0
M  V30 1971 O 202.646 -1.36251 -1.33567 0
M  V30 1972 C 199.786 -2.76504 -2.06494 0
M  V30 1973 C 198.899 -3.98158 -1.67612 0
M  V30 1974 C 198.034 -4.47088 -2.86854 0
M  V30 1975 C 197.073 -5.6126 -2.44242 0
M  V30 1976 N 196.21 -6.04905 -3.56419 0
M  V30 1977 H 201.05 -2.96313 -0.316625 0
M  V30 1978 H 198.587 -1.46388 -0.144588 0
M  V30 1979 H 200.545 -3.09925 -2.79289 0
M  V30 1980 H 199.175 -1.98512 -2.54545 0
M  V30 1981 H 198.227 -3.70858 -0.846661 0
M  V30 1982 H 199.539 -4.80934 -1.32301 0
M  V30 1983 H 198.693 -4.82451 -3.67867 0
M  V30 1984 H 197.432 -3.63275 -3.25396 0
M  V30 1985 H 196.437 -5.25495 -1.61663 0
M  V30 1986 H 197.662 -6.46843 -2.0681 0
M  V30 1987 H 195.608 -5.24032 -3.94623 0
M  V30 1988 H 195.525 -6.82552 -3.25051 0
M  V30 1989 H 196.793 -6.44907 -4.37853 0
M  V30 1990 N 201.022 0.148545 -1.56898 0
M  V30 1991 C 202.268 0.862694 -1.83536 0
M  V30 1992 C 202.601 1.80889 -0.706604 0
M  V30 1993 O 201.876 1.92328 0.289885 0
M  V30 1994 C 202.159 1.63853 -3.20662 0
M  V30 1995 C 202.012 0.713925 -4.44098 0
M  V30 1996 C 203.331 2.60133 -3.54991 0
M  V30 1997 H 200.45 0.312179 -0.667618 0
M  V30 1998 H 203.092 0.127953 -1.89569 0
M  V30 1999 H 201.242 2.26489 -3.1565 0
M  V30 2000 H 202.914 0.098686 -4.61194 0
M  V30 2001 H 201.157 0.0234019 -4.33794 0
M  V30 2002 H 201.828 1.29278 -5.36648 0
M  V30 2003 H 204.304 2.07616 -3.60603 0
M  V30 2004 H 203.18 3.11468 -4.51972 0
M  V30 2005 H 203.441 3.41417 -2.80868 0
M  V30 2006 N 202.5 1.5196 0.417844 0
M  V30 2007 C 203.43 1.77634 1.51554 0
M  V30 2008 C 204.411 0.626918 1.58126 0
M  V30 2009 O 205.596 0.871632 1.7354 0
M  V30 2010 C 202.726 1.91911 2.8946 0
M  V30 2011 C 201.68 3.07463 2.97743 0
M  V30 2012 C 201.006 3.06951 4.37819 0
M  V30 2013 C 202.306 4.47082 2.70027 0
M  V30 2014 H 204 2.6955 1.3032 0
M  V30 2015 H 201.546 1.29706 0.625492 0
M  V30 2016 H 203.499 2.08455 3.6623 0
M  V30 2017 H 202.223 0.966598 3.11969 0
M  V30 2018 H 200.882 2.90656 2.23416 0
M  V30 2019 H 200.53 2.09438 4.57323 0
M  V30 2020 H 200.23 3.84556 4.44286 0
M  V30 2021 H 201.754 3.25613 5.16535 0
M  V30 2022 H 203.168 4.6414 3.36522 0
M  V30 2023 H 201.565 5.2654 2.87881 0
M  V30 2024 H 202.635 4.55777 1.65514 0
M  V30 2025 N 203.978 -0.674533 1.42435 0
M  V30 2026 C 204.888 -1.81751 1.48337 0
M  V30 2027 C 205.904 -1.69975 0.372099 0
M  V30 2028 O 207.08 -1.91521 0.62304 0
M  V30 2029 C 204.145 -3.17895 1.38361 0
M  V30 2030 C 203.206 -3.41625 2.59982 0
M  V30 2031 C 202.439 -4.71274 2.50473 0
M  V30 2032 O 202.662 -5.49197 1.54075 0
M  V30 2033 O 201.596 -4.96254 3.4061 0
M  V30 2034 H 205.422 -1.79728 2.44809 0
M  V30 2035 H 203.007 -0.830312 1.24202 0
M  V30 2036 H 204.889 -3.99136 1.35161 0
M  V30 2037 H 203.564 -3.20555 0.450144 0
M  V30 2038 H 202.471 -2.60231 2.68757 0
M  V30 2039 H 203.804 -3.43796 3.52229 0
M  V30 2040 N 205.456 -1.28612 -0.910864 0
M  V30 2041 C 206.704 -1.15705 -1.65701 0
M  V30 2042 C 207.025 0.29416 -1.92769 0
M  V30 2043 O 206.295 1.20331 -1.54588 0
M  V30 2044 H 204.875 -0.425216 -0.614167 0
M  V30 2045 H 207.537 -1.61381 -1.0928 0
M  V30 2046 H 206.633 -1.6988 -2.61815 0
M  V30 2047 N 206.934 1.1197 -1.10907 0
M  V30 2048 C 207.882 2.19927 -0.757303 0
M  V30 2049 C 208.876 1.67564 0.248747 0
M  V30 2050 O 210.082 1.79672 0.108605 0
M  V30 2051 H 206.457 0.716925 -0.226987 0
M  V30 2052 H 208.428 2.46847 -1.67658 0
M  V30 2053 C 207.177 3.47061 -0.210671 0
M  V30 2054 H 206.5 3.87703 -0.976049 0
M  V30 2055 H 207.94 4.24 -0.0026584 0
M  V30 2056 C 206.399 3.19864 1.05777 0
M  V30 2057 O 206.929 3.40049 2.13845 0
M  V30 2058 N 205.135 2.73636 0.978349 0
M  V30 2059 H 204.682 2.5741 0.0988246 0
M  V30 2060 H 204.64 2.55815 1.82773 0
M  V30 2061 N 208.412 0.89855 1.29475 0
M  V30 2062 C 209.322 0.379974 2.31502 0
M  V30 2063 C 210.338 -0.524695 1.659 0
M  V30 2064 O 211.514 -0.414551 1.97087 0
M  V30 2065 C 208.579 -0.385138 3.44554 0
M  V30 2066 C 207.64 0.550914 4.2575 0
M  V30 2067 C 206.873 -0.177778 5.33404 0
M  V30 2068 O 207.096 -1.40189 5.52904 0
M  V30 2069 O 206.03 0.479106 5.9999 0
M  V30 2070 H 209.856 1.22639 2.77837 0
M  V30 2071 H 207.441 0.662834 1.33891 0
M  V30 2072 H 209.323 -0.817841 4.13388 0
M  V30 2073 H 207.998 -1.20763 3.0033 0
M  V30 2074 H 206.905 1.03271 3.59564 0
M  V30 2075 H 208.238 1.33979 4.73614 0
M  V30 2076 N 209.89 -1.43072 0.660911 0
M  V30 2077 C 210.822 -2.29108 -0.0647641 0
M  V30 2078 C 211.835 -1.42928 -0.779448 0
M  V30 2079 O 213.024 -1.66788 -0.635921 0
M  V30 2080 C 210.124 -3.20032 -1.11503 0
M  V30 2081 C 209.297 -4.34792 -0.476955 0
M  V30 2082 C 208.356 -5.06534 -1.42513 0
M  V30 2083 O 207.382 -5.61538 -0.930771 0
M  V30 2084 N 208.584 -5.1075 -2.75889 0
M  V30 2085 H 211.349 -2.92029 0.673731 0
M  V30 2086 H 208.91 -1.53846 0.50427 0
M  V30 2087 H 210.902 -3.64892 -1.75032 0
M  V30 2088 H 209.472 -2.58658 -1.75541 0
M  V30 2089 H 208.692 -3.92752 0.337572 0
M  V30 2090 H 209.98 -5.0879 -0.0318525 0
M  V30 2091 H 209.378 -4.67447 -3.18606 0
M  V30 2092 H 207.935 -5.59302 -3.347 0
M  V30 2093 N 211.368 -0.403325 -1.52352 0
M  V30 2094 C 212.615 0.174347 -2.01748 0
M  V30 2095 C 212.943 1.45636 -1.2892 0
M  V30 2096 O 212.198 1.9193 -0.382258 0
M  V30 2097 C 212.497 0.474665 -3.54234 0
M  V30 2098 C 212.163 -0.717458 -4.45155 0
M  V30 2099 C 210.825 -1.04447 -4.69728 0
M  V30 2100 C 213.177 -1.51432 -4.98716 0
M  V30 2101 C 210.505 -2.16963 -5.45109 0
M  V30 2102 C 212.857 -2.6302 -5.75329 0
M  V30 2103 C 211.521 -2.96213 -5.98175 0
M  V30 2104 H 210.791 0.0637981 -0.738248 0
M  V30 2105 H 213.438 -0.543553 -1.83624 0
M  V30 2106 H 211.743 1.27406 -3.70506 0
M  V30 2107 H 213.44 0.934496 -3.89959 0
M  V30 2108 H 210.03 -0.452596 -4.26204 0
M  V30 2109 H 214.214 -1.27491 -4.79645 0
M  V30 2110 H 209.47 -2.43034 -5.61021 0
M  V30 2111 H 213.644 -3.25158 -6.15829 0
M  V30 2112 H 211.271 -3.83516 -6.56368 0
M  V30 2113 N 212.846 1.57033 -0.133567 0
M  V30 2114 C 214.095 1.94861 0.520768 0
M  V30 2115 C 214.408 1.02012 1.66892 0
M  V30 2116 O 215.614 1.29365 2.38699 0
M  V30 2117 C 214.07 3.46362 0.977809 0
M  V30 2118 C 213.678 4.47773 -0.142674 0
M  V30 2119 C 215.422 3.93083 1.60269 0
M  V30 2120 C 213.329 5.90468 0.331883 0
M  V30 2121 H 212.259 0.727453 0.198315 0
M  V30 2122 H 214.91 1.82227 -0.215759 0
M  V30 2123 H 213.292 3.54282 1.7692 0
M  V30 2124 H 214.466 4.51536 -0.919317 0
M  V30 2125 H 212.781 4.10891 -0.675124 0
M  V30 2126 H 215.378 4.97121 1.96914 0
M  V30 2127 H 215.721 3.33876 2.48662 0
M  V30 2128 H 216.254 3.88025 0.876453 0
M  V30 2129 H 212.993 6.53463 -0.516341 0
M  V30 2130 H 212.513 5.90094 1.07469 0
M  V30 2131 H 214.192 6.42179 0.788332 0
M  V30 2132 N 214.325 -0.140222 1.56975 0
M  V30 2133 C 215.273 -1.19207 1.99731 0
M  V30 2134 C 216.267 -1.44089 0.890777 0
M  V30 2135 O 217.473 -1.44301 1.07597 0
M  V30 2136 H 213.848 -0.40142 0.635898 0
M  V30 2137 H 215.819 -0.804813 2.87342 0
M  V30 2138 C 214.568 -2.51617 2.39967 0
M  V30 2139 H 213.891 -2.33303 3.24669 0
M  V30 2140 H 215.331 -3.23827 2.73701 0
M  V30 2141 C 213.79 -3.12654 1.25496 0
M  V30 2142 O 214.32 -3.97786 0.559371 0
M  V30 2143 N 212.526 -2.72206 1.01746 0
M  V30 2144 H 212.073 -2.03074 1.58489 0
M  V30 2145 H 212.031 -3.13377 0.253461 0
M  V30 2146 N 215.803 -1.52179 -0.40978 0
M  V30 2147 C 216.766 -1.74853 -1.48186 0
M  V30 2148 C 217.766 -0.618417 -1.48433 0
M  V30 2149 O 218.956 -0.886286 -1.49969 0
M  V30 2150 C 216.088 -1.8303 -2.87598 0
M  V30 2151 H 217.281 -2.70559 -1.29374 0
M  V30 2152 H 214.834 -1.42586 -0.640233 0
M  V30 2153 H 215.569 -0.89236 -3.11781 0
M  V30 2154 H 215.354 -2.65187 -2.88822 0
M  V30 2155 H 216.844 -2.02316 -3.65319 0
M  V30 2156 N 217.281 0.66697 -1.42791 0
M  V30 2157 C 218.244 1.76211 -1.46568 0
M  V30 2158 C 219.244 1.56896 -0.352196 0
M  V30 2159 O 220.434 1.63044 -0.613364 0
M  V30 2160 C 217.566 3.14935 -1.30494 0
M  V30 2161 H 218.759 1.74247 -2.44086 0
M  V30 2162 H 216.312 0.877342 -1.29354 0
M  V30 2163 H 217.047 3.2252 -0.339301 0
M  V30 2164 H 216.832 3.30359 -2.11199 0
M  V30 2165 H 218.322 3.94821 -1.36038 0
M  V30 2166 N 218.759 1.29093 0.90403 0
M  V30 2167 C 219.706 1.13853 2.00764 0
M  V30 2168 C 220.676 0.0330084 1.66067 0
M  V30 2169 O 221.861 0.199733 1.89752 0
M  V30 2170 C 219.001 0.816537 3.35301 0
M  V30 2171 C 218.114 2.00206 3.82807 0
M  V30 2172 C 217.249 1.61983 5.059 0
M  V30 2173 C 216.288 2.77143 5.45764 0
M  V30 2174 N 215.425 2.39346 6.60044 0
M  V30 2175 H 220.265 2.08276 2.13132 0
M  V30 2176 H 217.802 1.03648 1.04381 0
M  V30 2177 H 219.76 0.610557 4.12708 0
M  V30 2178 H 218.39 -0.090779 3.22672 0
M  V30 2179 H 217.442 2.31988 3.01473 0
M  V30 2180 H 218.754 2.86512 4.08304 0
M  V30 2181 H 217.908 1.37649 5.90879 0
M  V30 2182 H 216.647 0.728202 4.82233 0
M  V30 2183 H 215.652 3.02165 4.59322 0
M  V30 2184 H 216.877 3.66964 5.71414 0
M  V30 2185 H 214.823 1.52665 6.37989 0
M  V30 2186 H 214.74 3.19185 6.85315 0
M  V30 2187 H 216.008 2.1832 7.48303 0
M  V30 2188 N 220.237 -1.11381 1.11499 0
M  V30 2189 C 221.486 -1.82494 0.858993 0
M  V30 2190 C 221.799 -1.85605 -0.617278 0
M  V30 2191 O 223.005 -2.52824 -0.989552 0
M  V30 2192 C 221.461 -3.27745 1.48699 0
M  V30 2193 C 221.069 -3.32961 2.99735 0
M  V30 2194 C 222.813 -4.03754 1.31085 0
M  V30 2195 C 220.72 -4.72612 3.55516 0
M  V30 2196 H 219.65 -0.683802 0.317696 0
M  V30 2197 H 222.301 -1.25331 1.34031 0
M  V30 2198 H 220.683 -3.84844 0.933339 0
M  V30 2199 H 221.857 -2.85741 3.61509 0
M  V30 2200 H 220.172 -2.70433 3.16631 0
M  V30 2201 H 222.769 -5.06891 1.70192 0
M  V30 2202 H 223.112 -4.15527 0.253496 0
M  V30 2203 H 223.645 -3.53043 1.83318 0
M  V30 2204 H 220.384 -4.66036 4.60967 0
M  V30 2205 H 219.904 -5.2024 2.98513 0
M  V30 2206 H 221.583 -5.4157 3.53992 0
M  V30 2207 N 221.715 -0.905404 -1.28997 0
M  V30 2208 C 222.964 -0.530191 -1.94607 0
M  V30 2209 C 223.277 0.929185 -1.72121 0
M  V30 2210 O 224.483 1.41218 -2.31883 0
M  V30 2211 C 222.939 -0.897333 -3.48534 0
M  V30 2212 C 222.547 -2.37587 -3.79811 0
M  V30 2213 C 224.291 -0.592304 -4.20347 0
M  V30 2214 C 222.198 -2.68357 -5.27009 0
M  V30 2215 H 221.128 -0.194558 -0.728466 0
M  V30 2216 H 223.779 -1.10318 -1.46636 0
M  V30 2217 H 222.161 -0.253214 -3.9519 0
M  V30 2218 H 223.335 -3.06602 -3.43994 0
M  V30 2219 H 221.65 -2.6505 -3.2115 0
M  V30 2220 H 224.247 -0.798975 -5.28697 0
M  V30 2221 H 224.59 0.469474 -4.13644 0
M  V30 2222 H 225.123 -1.19452 -3.79442 0
M  V30 2223 H 221.862 -3.73355 -5.38782 0
M  V30 2224 H 221.382 -2.03971 -5.64053 0
M  V30 2225 H 223.061 -2.54922 -5.94663 0
M  V30 2226 N 223.193 1.4272 -0.668489 0
M  V30 2227 C 224.609 1.55992 -0.33745 0
M  V30 2228 C 224.809 1.64933 1.15756 0
M  V30 2229 O 223.865 1.61278 1.94282 0
M  V30 2230 C 225.178 2.81314 -1.06222 0
M  V30 2231 C 226.726 2.95078 -1.04394 0
M  V30 2232 C 227.201 4.23252 -1.74991 0
M  V30 2233 N 228.692 4.3015 -1.71829 0
M  V30 2234 C 229.427 5.28127 -2.23315 0
M  V30 2235 N 228.923 6.32293 -2.83156 0
M  V30 2236 N 230.716 5.19882 -2.13726 0
M  V30 2237 H 222.867 1.3516 -1.63846 0
M  V30 2238 H 225.13 0.650174 -0.689912 0
M  V30 2239 H 224.836 2.80823 -2.11734 0
M  V30 2240 H 224.71 3.72012 -0.62344 0
M  V30 2241 H 227.097 2.951 0.0028244 0
M  V30 2242 H 227.178 2.05627 -1.52155 0
M  V30 2243 H 226.822 4.2399 -2.79633 0
M  V30 2244 H 226.752 5.11626 -1.24685 0
M  V30 2245 H 229.243 3.55499 -1.28175 0
M  V30 2246 H 229.556 7.03398 -3.20079 0
M  V30 2247 H 227.901 6.32873 -2.87223 0
M  V30 2248 H 231.092 4.37423 -1.66669 0
M  V30 2249 H 231.265 5.96077 -2.54158 0
M  V30 2250 N 224.671 0.411399 1.52136 0
M  V30 2251 C 225.621 -0.430376 2.23901 0
M  V30 2252 C 226.605 -1.0116 1.25121 0
M  V30 2253 O 227.797 -0.934044 1.50348 0
M  V30 2254 C 224.926 -1.54527 3.06556 0
M  V30 2255 C 224.012 -0.9747 4.12747 0
M  V30 2256 N 224.403 -0.130991 5.0563 0
M  V30 2257 C 222.701 -1.24497 4.28271 0
M  V30 2258 C 223.402 0.186689 5.814 0
M  V30 2259 N 222.378 -0.42304 5.41951 0
M  V30 2260 H 226.18 0.220509 2.93072 0
M  V30 2261 H 223.694 0.221952 1.60876 0
M  V30 2262 H 225.691 -2.16093 3.56524 0
M  V30 2263 H 224.351 -2.19875 2.38925 0
M  V30 2264 H 225.362 0.23349 5.17373 0
M  V30 2265 H 222.039 -1.89787 3.7187 0
M  V30 2266 H 223.429 0.871673 6.66222 0
M  V30 2267 N 226.149 -1.5696 0.141893 0
M  V30 2268 C 227.56 -1.82797 -0.379776 0
M  V30 2269 C 227.911 -1.06033 -1.6508 0
M  V30 2270 O 227.036 -0.304011 -2.14254 0
M  V30 2271 C 227.631 -3.31578 -0.695802 0
M  V30 2272 C 226.19 -3.58014 -1.16201 0
M  V30 2273 C 225.337 -2.76699 -0.182455 0
M  V30 2274 H 228.288 -1.54406 0.366675 0
M  V30 2275 H 228.309 -3.47454 -1.55099 0
M  V30 2276 H 227.821 -3.87421 0.229449 0
M  V30 2277 H 225.922 -3.07553 -2.10338 0
M  V30 2278 H 226.035 -4.66501 -1.09151 0
M  V30 2279 H 224.399 -2.45618 -0.674072 0
M  V30 2280 H 225.182 -3.35311 0.736297 0
M  V30 2281 N 227.627 0.131896 -1.57047 0
M  V30 2282 C 228.574 1.16236 -1.99393 0
M  V30 2283 C 229.544 1.41863 -0.863943 0
M  V30 2284 O 230.729 1.53946 -1.12718 0
M  V30 2285 C 227.869 2.48708 -2.39245 0
M  V30 2286 C 226.982 2.30127 -3.65603 0
M  V30 2287 C 226.117 3.55738 -3.94492 0
M  V30 2288 C 225.156 3.32259 -5.14073 0
M  V30 2289 N 224.293 4.50039 -5.38896 0
M  V30 2290 H 229.133 0.794251 -2.87221 0
M  V30 2291 H 226.67 0.380707 -1.42088 0
M  V30 2292 H 228.628 3.25969 -2.60384 0
M  V30 2293 H 227.258 2.83437 -1.54478 0
M  V30 2294 H 226.31 1.43845 -3.52154 0
M  V30 2295 H 227.622 2.08746 -4.5302 0
M  V30 2296 H 226.776 4.41423 -4.1621 0
M  V30 2297 H 225.515 3.80138 -3.05526 0
M  V30 2298 H 224.52 2.44963 -4.92212 0
M  V30 2299 H 225.745 3.09242 -6.04604 0
M  V30 2300 H 223.691 4.74584 -4.52886 0
M  V30 2301 H 223.608 4.31716 -6.2061 0
M  V30 2302 H 224.876 5.36895 -5.65123 0
M  V30 2303 N 229.106 1.52395 0.401703 0
M  V30 2304 C 230.336 1.70429 1.1678 0
M  V30 2305 C 230.744 0.416702 1.84554 0
M  V30 2306 O 230.087 -0.617697 1.73003 0
M  V30 2307 C 230.149 2.78919 2.26814 0
M  V30 2308 C 229.813 4.20437 1.79113 0
M  V30 2309 C 230.81 5.04028 1.27482 0
M  V30 2310 C 228.495 4.66704 1.85722 0
M  V30 2311 C 230.489 6.31961 0.830913 0
M  V30 2312 C 228.176 5.94625 1.40942 0
M  V30 2313 C 229.174 6.77082 0.897128 0
M  V30 2314 O 228.862 8.02607 0.455822 0
M  V30 2315 H 228.594 0.574272 0.356634 0
M  V30 2316 H 231.148 1.99767 0.477724 0
M  V30 2317 H 229.378 2.44973 2.99207 0
M  V30 2318 H 231.067 2.8548 2.88541 0
M  V30 2319 H 231.833 4.69471 1.21744 0
M  V30 2320 H 227.712 4.0262 2.24539 0
M  V30 2321 H 231.256 6.96271 0.430368 0
M  V30 2322 H 227.153 6.28688 1.46362 0
M  V30 2323 H 227.921 8.16453 0.578457 0
M  V30 2324 N 230.584 -0.659388 1.43143 0
M  V30 2325 C 231.532 -1.79374 1.4808 0
M  V30 2326 C 232.526 -1.65639 0.354988 0
M  V30 2327 O 233.732 -1.7206 0.528704 0
M  V30 2328 H 230.107 -0.591705 0.4641 0
M  V30 2329 H 232.078 -1.72329 2.43609 0
M  V30 2330 C 230.827 -3.17606 1.41499 0
M  V30 2331 H 230.15 -3.28809 2.27431 0
M  V30 2332 H 231.59 -3.96951 1.49015 0
M  V30 2333 C 230.049 -3.36642 0.131765 0
M  V30 2334 O 230.579 -3.93461 -0.809386 0
M  V30 2335 N 228.785 -2.90567 0.0439396 0
M  V30 2336 H 228.332 -2.44513 0.810619 0
M  V30 2337 H 228.29 -3.03681 -0.813969 0
M  V30 2338 N 232.062 -1.29571 -0.897171 0
M  V30 2339 C 233.478 -1.07637 -1.17841 0
M  V30 2340 C 233.678 0.170713 -2.00776 0
M  V30 2341 O 232.734 0.867768 -2.3712 0
M  V30 2342 C 234.047 -2.3332 -1.8969 0
M  V30 2343 C 235.595 -2.38664 -2.02505 0
M  V30 2344 C 236.07 -3.64157 -2.77765 0
M  V30 2345 N 237.561 -3.64894 -2.85318 0
M  V30 2346 C 238.296 -4.58679 -3.44094 0
M  V30 2347 N 237.792 -5.62799 -4.04017 0
M  V30 2348 N 239.585 -4.46245 -3.41793 0
M  V30 2349 H 231.736 -2.09598 -0.343883 0
M  V30 2350 H 233.999 -0.923333 -0.214848 0
M  V30 2351 H 233.705 -3.24262 -1.36187 0
M  V30 2352 H 233.579 -2.41025 -2.9015 0
M  V30 2353 H 235.966 -1.48208 -2.55183 0
M  V30 2354 H 236.047 -2.34943 -1.01171 0
M  V30 2355 H 235.691 -4.54965 -2.25763 0
M  V30 2356 H 235.621 -3.65137 -3.7945 0
M  V30 2357 H 238.112 -2.89613 -2.42761 0
M  V30 2358 H 238.425 -6.3048 -4.46895 0
M  V30 2359 H 236.77 -5.66605 -4.02472 0
M  V30 2360 H 239.961 -3.64094 -2.94199 0
M  V30 2361 H 240.134 -5.19518 -3.87304 0
M  V30 2362 N 233.54 1.10788 -1.12088 0
M  V30 2363 C 234.817 1.79136 -0.785476 0
M  V30 2364 C 235.197 1.98246 0.725377 0
M  V30 2365 O 234.545 1.57258 1.65778 0
M  V30 2366 C 234.755 3.12375 -1.55636 0
M  V30 2367 C 236.103 3.8731 -1.74001 0
M  V30 2368 O 237.127 3.22085 -1.52117 0
M  V30 2369 O 235.986 5.04369 -2.10415 0
M  V30 2370 H 233.08 0.776226 -0.285311 0
M  V30 2371 H 235.626 1.1747 -1.2247 0
M  V30 2372 H 234.398 2.93863 -2.5838 0
M  V30 2373 H 234.021 3.81758 -1.11114 0
M  V30 2374 N 235.018 0.912232 1.28515 0
M  V30 2375 C 236.246 0.560416 1.99166 0
M  V30 2376 C 236.661 -0.857927 1.68182 0
M  V30 2377 O 236.018 -1.56805 0.933733 0
M  V30 2378 C 236.069 0.758142 3.53461 0
M  V30 2379 O 235.79 2.12067 3.83352 0
M  V30 2380 C 237.291 0.412954 4.41372 0
M  V30 2381 H 234.511 0.213805 0.636026 0
M  V30 2382 H 237.055 1.22502 1.63749 0
M  V30 2383 H 235.21 0.140556 3.87145 0
M  V30 2384 H 235.624 2.15923 4.77993 0
M  V30 2385 H 237.098 0.60208 5.48707 0
M  V30 2386 H 237.575 -0.65073 4.34353 0
M  V30 2387 H 238.181 1.00802 4.13182 0
M  V30 2388 N 236.496 -1.42363 0.676048 0
M  V30 2389 C 237.426 -2.33497 0.0124832 0
M  V30 2390 C 238.407 -1.50748 -0.787981 0
M  V30 2391 O 239.592 -1.79346 -0.744884 0
M  V30 2392 C 236.722 -3.34377 -0.938582 0
M  V30 2393 C 235.676 -4.27289 -0.246622 0
M  V30 2394 C 235.002 -5.18386 -1.31071 0
M  V30 2395 C 236.302 -5.14916 0.875125 0
M  V30 2396 H 237.996 -2.89233 0.773593 0
M  V30 2397 H 235.542 -1.39073 0.37346 0
M  V30 2398 H 237.495 -3.97044 -1.41188 0
M  V30 2399 H 236.219 -2.76947 -1.73113 0
M  V30 2400 H 234.878 -3.66018 0.206456 0
M  V30 2401 H 234.526 -4.57282 -2.09528 0
M  V30 2402 H 234.226 -5.81378 -0.852839 0
M  V30 2403 H 235.75 -5.83929 -1.78492 0
M  V30 2404 H 237.164 -5.71262 0.482983 0
M  V30 2405 H 235.561 -5.86747 1.25887 0
M  V30 2406 H 236.631 -4.53242 1.72335 0
M  V30 2407 N 237.974 -0.419461 -1.51915 0
M  V30 2408 C 239.251 0.211999 -1.94448 0
M  V30 2409 C 239.631 1.61703 -1.35703 0
M  V30 2410 O 238.979 2.22102 -0.536931 0
M  V30 2411 C 239.189 0.207872 -3.4838 0
M  V30 2412 C 240.537 0.422192 -4.22496 0
M  V30 2413 O 241.561 0.286778 -3.55044 0
M  V30 2414 O 240.42 0.690009 -5.42126 0
M  V30 2415 H 237.514 0.139586 -0.815135 0
M  V30 2416 H 240.06 -0.476151 -1.62883 0
M  V30 2417 H 238.832 -0.775102 -3.83546 0
M  V30 2418 H 238.455 0.939688 -3.86336 0
M  V30 2419 N 239.452 1.56882 -0.150215 0
M  V30 2420 C 240.4 2.18214 0.805313 0
M  V30 2421 C 241.394 1.14006 1.25296 0
M  V30 2422 O 242.6 1.3225 1.22107 0
M  V30 2423 H 238.975 0.698762 0.277913 0
M  V30 2424 H 240.946 2.97231 0.263862 0
M  V30 2425 C 239.695 2.82065 2.03309 0
M  V30 2426 H 239.018 3.61968 1.69763 0
M  V30 2427 H 240.458 3.28477 2.68103 0
M  V30 2428 C 238.917 1.80739 2.84315 0
M  V30 2429 O 239.447 1.27983 3.80767 0
M  V30 2430 N 237.653 1.4997 2.48913 0
M  V30 2431 H 237.2 1.93062 1.70542 0
M  V30 2432 H 237.158 0.824217 3.03404 0
M  V30 2433 N 240.93 -0.123565 1.57115 0
M  V30 2434 C 242.207 -0.862196 1.75572 0
M  V30 2435 C 242.587 -1.98279 0.724475 0
M  V30 2436 O 241.935 -2.27102 -0.252407 0
M  V30 2437 C 242.145 -1.38309 3.20424 0
M  V30 2438 C 243.493 -1.83724 3.82793 0
M  V30 2439 O 244.517 -1.47999 3.23998 0
M  V30 2440 O 243.376 -2.49685 4.86127 0
M  V30 2441 H 240.47 -0.409113 0.718718 0
M  V30 2442 H 243.016 -0.107661 1.69358 0
M  V30 2443 H 241.788 -0.578889 3.86994 0
M  V30 2444 H 241.411 -2.20046 3.31158 0
M  V30 2445 N 242.408 -1.52605 -0.393616 0
M  V30 2446 C 243.657 -1.66649 -1.13627 0
M  V30 2447 C 243.97 -0.410364 -1.91247 0
M  V30 2448 O 245.176 -0.430854 -2.68059 0
M  V30 2449 C 243.632 -2.9449 -2.06891 0
M  V30 2450 C 243.24 -4.27266 -1.34714 0
M  V30 2451 C 244.984 -3.17899 -2.81319 0
M  V30 2452 C 242.891 -5.46217 -2.26717 0
M  V30 2453 H 241.821 -0.62084 -0.427871 0
M  V30 2454 H 244.472 -1.791 -0.399428 0
M  V30 2455 H 242.854 -2.75774 -2.84191 0
M  V30 2456 H 244.028 -4.56518 -0.626714 0
M  V30 2457 H 242.343 -4.10081 -0.722643 0
M  V30 2458 H 244.94 -4.03949 -3.50328 0
M  V30 2459 H 245.283 -2.32777 -3.45139 0
M  V30 2460 H 245.816 -3.37159 -2.11113 0
M  V30 2461 H 242.555 -6.33733 -1.67521 0
M  V30 2462 H 242.075 -5.21283 -2.96689 0
M  V30 2463 H 243.754 -5.7991 -2.86903 0
M  V30 2464 N 243.887 0.651787 -1.4349 0
M  V30 2465 C 244.82 1.77668 -1.43211 0
M  V30 2466 C 245.798 1.59931 -0.29338 0
M  V30 2467 O 246.982 1.82095 -0.487191 0
M  V30 2468 C 244.109 3.14986 -1.24505 0
M  V30 2469 C 243.155 3.51421 -2.41673 0
M  V30 2470 S 243.988 3.51234 -4.04222 0
M  V30 2471 C 245.144 4.91206 -3.87902 0
M  V30 2472 H 245.377 1.77635 -2.38397 0
M  V30 2473 H 242.91 0.824558 -1.30539 0
M  V30 2474 H 244.868 3.94237 -1.144 0
M  V30 2475 H 243.529 3.1258 -0.308651 0
M  V30 2476 H 242.722 4.51291 -2.24393 0
M  V30 2477 H 242.324 2.79585 -2.48411 0
M  V30 2478 H 244.616 5.79902 -3.50315 0
M  V30 2479 H 245.559 5.13537 -4.8753 0
M  V30 2480 H 245.967 4.64808 -3.20334 0
M  V30 2481 N 245.365 1.30045 0.890287 0
M  V30 2482 C 246.295 1.18541 2.01172 0
M  V30 2483 C 247.276 0.0773356 1.69924 0
M  V30 2484 O 248.461 0.25845 1.92473 0
M  V30 2485 C 245.591 0.870941 3.36202 0
M  V30 2486 C 244.545 1.93637 3.81692 0
M  V30 2487 C 243.871 1.475 5.13953 0
M  V30 2488 C 245.171 3.34666 4.00994 0
M  V30 2489 H 246.865 2.12359 2.11054 0
M  V30 2490 H 244.411 1.02238 1.01407 0
M  V30 2491 H 246.364 0.777141 4.14172 0
M  V30 2492 H 245.088 -0.102926 3.26438 0
M  V30 2493 H 243.747 2.01972 3.05946 0
M  V30 2494 H 243.395 0.489551 5.00612 0
M  V30 2495 H 243.095 2.1876 5.4536 0
M  V30 2496 H 244.619 1.39489 5.94454 0
M  V30 2497 H 246.033 3.2912 4.69417 0
M  V30 2498 H 244.43 4.03966 4.43769 0
M  V30 2499 H 245.5 3.76949 3.05021 0
M  V30 2500 N 246.843 -1.10192 1.12674 0
M  V30 2501 C 248.092 -1.81573 0.8783 0
M  V30 2502 C 248.405 -1.86249 -0.597557 0
M  V30 2503 O 249.611 -2.5386 -0.962681 0
M  V30 2504 C 248.067 -3.26149 1.52167 0
M  V30 2505 C 247.675 -3.29763 3.03249 0
M  V30 2506 C 249.419 -4.0234 1.3536 0
M  V30 2507 C 247.326 -4.68815 3.60508 0
M  V30 2508 H 246.256 -0.680394 0.324931 0
M  V30 2509 H 248.907 -1.23902 1.35353 0
M  V30 2510 H 247.289 -3.83832 0.974104 0
M  V30 2511 H 248.463 -2.8189 3.6452 0
M  V30 2512 H 246.778 -2.67059 3.19481 0
M  V30 2513 H 249.375 -5.05058 1.75559 0
M  V30 2514 H 249.718 -4.15235 0.297554 0
M  V30 2515 H 250.251 -3.51079 1.87052 0
M  V30 2516 H 246.99 -4.61121 4.65884 0
M  V30 2517 H 246.51 -5.17045 3.04014 0
M  V30 2518 H 248.189 -5.37785 3.59717 0
M  V30 2519 N 248.321 -0.919034 -1.28029 0
M  V30 2520 C 249.268 -0.410005 -2.27129 0
M  V30 2521 C 250.238 0.518405 -1.57803 0
M  V30 2522 O 251.423 0.439451 -1.8567 0
M  V30 2523 C 248.563 0.339054 -3.4343 0
M  V30 2524 C 247.676 -0.622468 -4.27492 0
M  V30 2525 C 246.811 0.145567 -5.31001 0
M  V30 2526 C 245.85 -0.809226 -6.06727 0
M  V30 2527 N 244.987 -0.0743728 -7.02061 0
M  V30 2528 H 249.827 -1.26011 -2.70047 0
M  V30 2529 H 247.364 -0.632663 -1.328 0
M  V30 2530 H 249.322 0.789586 -4.0966 0
M  V30 2531 H 247.952 1.15346 -3.01488 0
M  V30 2532 H 247.004 -1.19153 -3.61257 0
M  V30 2533 H 248.316 -1.35252 -4.80113 0
M  V30 2534 H 247.47 0.656417 -6.03139 0
M  V30 2535 H 246.209 0.908643 -4.79161 0
M  V30 2536 H 245.214 -1.3314 -5.33436 0
M  V30 2537 H 246.439 -1.57194 -6.60656 0
M  V30 2538 H 244.385 0.670616 -6.52563 0
M  V30 2539 H 244.302 -0.744157 -7.52329 0
M  V30 2540 H 245.57 0.416109 -7.78389 0
M  V30 2541 N 249.799 1.42003 -0.683588 0
M  V30 2542 C 250.729 2.33487 -0.024866 0
M  V30 2543 C 251.71 1.51163 0.779975 0
M  V30 2544 O 252.895 1.79739 0.735362 0
M  V30 2545 C 250.025 3.3487 0.920836 0
M  V30 2546 C 248.979 4.27414 0.223958 0
M  V30 2547 C 248.305 5.19074 1.2832 0
M  V30 2548 C 249.605 5.14445 -0.90242 0
M  V30 2549 H 251.299 2.88819 -0.788921 0
M  V30 2550 H 248.845 1.38873 -0.38083 0
M  V30 2551 H 250.798 3.97787 1.39081 0
M  V30 2552 H 249.522 2.77861 1.71642 0
M  V30 2553 H 248.181 3.65904 -0.225864 0
M  V30 2554 H 247.829 4.58387 2.071 0
M  V30 2555 H 247.529 5.81822 0.821995 0
M  V30 2556 H 249.053 5.84867 1.75392 0
M  V30 2557 H 250.467 5.70998 -0.513272 0
M  V30 2558 H 248.864 5.86072 -1.28997 0
M  V30 2559 H 249.934 4.52322 -1.74737 0
M  V30 2560 N 251.277 0.427512 1.51691 0
M  V30 2561 C 252.502 -0.143601 2.06902 0
M  V30 2562 C 252.927 -1.36536 1.29382 0
M  V30 2563 O 252.285 -1.78289 0.329043 0
M  V30 2564 C 252.333 -0.454207 3.57728 0
M  V30 2565 O 251.437 -1.54228 3.82475 0
M  V30 2566 H 250.778 -0.00617128 0.663971 0
M  V30 2567 H 253.308 0.606014 1.95419 0
M  V30 2568 H 253.318 -0.707525 4.01818 0
M  V30 2569 H 251.993 0.438812 4.13579 0
M  V30 2570 H 250.57 -1.2797 3.50254 0
M  V30 2571 N 252.755 -1.56801 0.158532 0
M  V30 2572 C 253.98 -2.01295 -0.499516 0
M  V30 2573 C 254.405 -1.03799 -1.56867 0
M  V30 2574 O 253.763 -0.0155162 -1.81293 0
M  V30 2575 C 253.811 -3.44469 -1.06647 0
M  V30 2576 O 252.915 -3.50012 -2.18095 0
M  V30 2577 H 252.256 -0.652884 -0.12099 0
M  V30 2578 H 254.786 -2.02958 0.258661 0
M  V30 2579 H 254.796 -3.8351 -1.39227 0
M  V30 2580 H 253.471 -4.14932 -0.283581 0
M  V30 2581 H 252.048 -3.22822 -1.86656 0
M  V30 2582 N 254.233 0.115231 -1.57178 0
M  V30 2583 C 255.644 0.67197 -1.74188 0
M  V30 2584 C 255.995 1.80125 -0.777777 0
M  V30 2585 O 255.12 2.16346 0.0484376 0
M  V30 2586 C 255.715 1.22573 -3.1585 0
M  V30 2587 C 254.274 1.72872 -3.34353 0
M  V30 2588 C 253.421 0.629972 -2.70049 0
M  V30 2589 H 256.372 -0.110712 -1.58313 0
M  V30 2590 H 256.393 2.09535 -3.17609 0
M  V30 2591 H 255.905 0.403598 -3.85996 0
M  V30 2592 H 254.006 2.5755 -2.69256 0
M  V30 2593 H 254.119 1.83557 -4.42542 0
M  V30 2594 H 252.483 1.0645 -2.31388 0
M  V30 2595 H 253.266 -0.181241 -3.42821 0
M  V30 2596 N 255.711 1.52812 0.385517 0
M  V30 2597 C 256.674 1.77188 1.45386 0
M  V30 2598 C 257.674 0.641953 1.4743 0
M  V30 2599 O 258.864 0.910033 1.4854 0
M  V30 2600 C 255.996 1.87582 2.8465 0
M  V30 2601 H 257.189 2.72583 1.25054 0
M  V30 2602 H 254.742 1.43586 0.617467 0
M  V30 2603 H 255.477 0.941849 3.10322 0
M  V30 2604 H 255.262 2.69748 2.84567 0
M  V30 2605 H 256.752 2.08102 3.62054 0
M  V30 2606 N 257.189 -0.644168 1.43834 0
M  V30 2607 C 258.435 -1.40603 1.46146 0
M  V30 2608 C 258.768 -1.93997 0.0887717 0
M  V30 2609 O 258.043 -1.72854 -0.891724 0
M  V30 2610 C 258.326 -2.58086 2.51124 0
M  V30 2611 C 258.179 -2.10126 3.97702 0
M  V30 2612 C 259.498 -3.60291 2.52742 0
M  V30 2613 H 256.617 -0.509905 0.532134 0
M  V30 2614 H 259.259 -0.729502 1.75437 0
M  V30 2615 H 257.409 -3.15801 2.26278 0
M  V30 2616 H 259.081 -1.57342 4.33637 0
M  V30 2617 H 257.324 -1.41419 4.10101 0
M  V30 2618 H 257.995 -2.94649 4.66783 0
M  V30 2619 H 260.471 -3.12352 2.7491 0
M  V30 2620 H 259.347 -4.40032 3.28121 0
M  V30 2621 H 259.608 -4.1349 1.56455 0
M  V30 2622 N 258.668 -1.30515 -0.883378 0
M  V30 2623 C 259.917 -1.18795 -1.63005 0
M  V30 2624 C 260.23 0.255923 -1.93919 0
M  V30 2625 O 261.436 0.494654 -2.66956 0
M  V30 2626 C 259.892 -2.07878 -2.93794 0
M  V30 2627 C 259.5 -3.57184 -2.70414 0
M  V30 2628 C 261.244 -2.04924 -3.71761 0
M  V30 2629 C 259.151 -4.38317 -3.97029 0
M  V30 2630 H 258.081 -0.441031 -0.611562 0
M  V30 2631 H 260.732 -1.55275 -0.977854 0
M  V30 2632 H 259.114 -1.64283 -3.60315 0
M  V30 2633 H 260.288 -4.08937 -2.12384 0
M  V30 2634 H 258.603 -3.61976 -2.0582 0
M  V30 2635 H 261.2 -2.62792 -4.65665 0
M  V30 2636 H 261.543 -1.0331 -4.03277 0
M  V30 2637 H 262.076 -2.46649 -3.12104 0
M  V30 2638 H 258.815 -5.40632 -3.70671 0
M  V30 2639 H 258.335 -3.91326 -4.54559 0
M  V30 2640 H 260.014 -4.49834 -4.65036 0
M  V30 2641 N 260.146 1.09593 -1.13257 0
M  V30 2642 C 261.094 2.18271 -0.803783 0
M  V30 2643 C 262.088 1.68054 0.213148 0
M  V30 2644 O 263.294 1.79862 0.0704699 0
M  V30 2645 H 259.669 0.711949 -0.242143 0
M  V30 2646 H 261.64 2.43235 -1.72856 0
M  V30 2647 C 260.389 3.46536 -0.28424 0
M  V30 2648 H 259.712 3.85545 -1.05807 0
M  V30 2649 H 261.152 4.23899 -0.0925945 0
M  V30 2650 C 259.611 3.22036 0.989684 0
M  V30 2651 O 260.141 3.44509 2.06584 0
M  V30 2652 N 258.347 2.7565 0.920086 0
M  V30 2653 H 257.894 2.57562 0.0442019 0
M  V30 2654 H 257.852 2.59635 1.77306 0
M  V30 2655 N 261.624 0.925811 1.2754 0
M  V30 2656 C 262.587 0.428129 2.25166 0
M  V30 2657 C 263.587 -0.452261 1.54309 0
M  V30 2658 O 264.777 -0.253608 1.72344 0
M  V30 2659 C 261.909 -0.384749 3.38722 0
M  V30 2660 H 263.102 1.29066 2.70706 0
M  V30 2661 H 260.655 0.706323 1.3943 0
M  V30 2662 H 261.39 -1.26618 2.98561 0
M  V30 2663 H 261.175 0.246454 3.91325 0
M  V30 2664 H 262.665 -0.723389 4.11287 0
M  V30 2665 N 263.102 -1.41638 0.69111 0
M  V30 2666 C 264.518 -1.55435 0.362224 0
M  V30 2667 C 264.718 -1.66754 -1.13117 0
M  V30 2668 O 263.774 -1.64348 -1.91692 0
M  V30 2669 C 265.087 -2.79588 1.10684 0
M  V30 2670 C 266.635 -2.9338 1.09075 0
M  V30 2671 C 267.11 -4.20414 1.81703 0
M  V30 2672 N 268.601 -4.27362 1.7865 0
M  V30 2673 C 269.336 -5.24507 2.31689 0
M  V30 2674 N 268.832 -6.27708 2.93179 0
M  V30 2675 N 270.625 -5.16416 2.2197 0
M  V30 2676 H 262.776 -1.32536 1.65976 0
M  V30 2677 H 265.039 -0.639115 0.700168 0
M  V30 2678 H 264.745 -2.77419 2.16175 0
M  V30 2679 H 264.619 -3.70973 0.682545 0
M  V30 2680 H 267.006 -2.95067 0.0441238 0
M  V30 2681 H 267.087 -2.0318 1.55407 0
M  V30 2682 H 266.731 -4.19488 2.86343 0
M  V30 2683 H 266.661 -5.09578 1.32808 0
M  V30 2684 H 269.152 -3.53415 1.33815 0
M  V30 2685 H 269.465 -6.98217 3.31229 0
M  V30 2686 H 267.81 -6.28223 2.97255 0
M  V30 2687 H 271.001 -4.34716 1.73607 0
M  V30 2688 H 271.174 -5.91958 2.63609 0
M  V30 2689 N 264.58 -0.43555 -1.51462 0
M  V30 2690 C 265.826 0.131709 -2.02372 0
M  V30 2691 C 266.159 1.42516 -1.3192 0
M  V30 2692 O 265.434 1.89606 -0.433573 0
M  V30 2693 C 265.717 0.352301 -3.58373 0
M  V30 2694 C 265.57 -0.959676 -4.39443 0
M  V30 2695 C 266.889 1.12286 -4.25535 0
M  V30 2696 H 264.008 0.0463936 -0.735538 0
M  V30 2697 H 266.65 -0.574197 -1.81116 0
M  V30 2698 H 264.8 0.9536 -3.76615 0
M  V30 2699 H 266.472 -1.59482 -4.32855 0
M  V30 2700 H 264.715 -1.56468 -4.04599 0
M  V30 2701 H 265.386 -0.759394 -5.46752 0
M  V30 2702 H 267.862 0.613545 -4.11552 0
M  V30 2703 H 266.738 1.24598 -5.34571 0
M  V30 2704 H 266.999 2.15048 -3.86273 0
M  V30 2705 N 266.058 1.56714 -0.166846 0
M  V30 2706 C 267.283 2.01557 0.488833 0
M  V30 2707 C 267.708 1.0463 1.56314 0
M  V30 2708 O 267.066 0.0251304 1.81283 0
M  V30 2709 C 267.114 3.4503 1.04818 0
M  V30 2710 O 266.218 3.51163 2.16236 0
M  V30 2711 H 265.559 0.653516 0.117526 0
M  V30 2712 H 268.089 2.02818 -0.269421 0
M  V30 2713 H 268.099 3.84243 1.37191 0
M  V30 2714 H 266.774 4.15077 0.261572 0
M  V30 2715 H 265.351 3.23807 1.84942 0
M  V30 2716 N 267.536 -0.106894 1.57237 0
M  V30 2717 C 268.764 -0.826389 1.8968 0
M  V30 2718 C 269.179 -1.72856 0.759353 0
M  V30 2719 O 268.536 -1.80503 -0.269263 0
M  V30 2720 C 268.587 -1.64967 3.21665 0
M  V30 2721 O 268.308 -0.783804 4.31031 0
M  V30 2722 C 269.809 -2.47326 3.67892 0
M  V30 2723 H 267.029 -0.236927 0.627779 0
M  V30 2724 H 269.573 -0.0876593 2.04312 0
M  V30 2725 H 267.728 -2.34103 3.08666 0
M  V30 2726 H 268.142 -1.35284 5.06753 0
M  V30 2727 H 269.616 -3.00604 4.6297 0
M  V30 2728 H 270.093 -3.25247 2.95146 0
M  V30 2729 H 270.699 -1.83411 3.83719 0
M  V30 2730 N 269.014 -1.53014 -0.377408 0
M  V30 2731 C 270.263 -1.67845 -1.11853 0
M  V30 2732 C 270.576 -0.430625 -1.90801 0
M  V30 2733 O 271.782 -0.459261 -2.67587 0
M  V30 2734 C 270.238 -2.96668 -2.03756 0
M  V30 2735 C 269.846 -4.28671 -1.30175 0
M  V30 2736 C 271.59 -3.20865 -2.77932 0
M  V30 2737 C 269.497 -5.48591 -2.20911 0
M  V30 2738 H 268.427 -0.625343 -0.421263 0
M  V30 2739 H 271.078 -1.79514 -0.380409 0
M  V30 2740 H 269.46 -2.78773 -2.8125 0
M  V30 2741 H 270.634 -4.57157 -0.578259 0
M  V30 2742 H 268.949 -4.10825 -0.679108 0
M  V30 2743 H 271.546 -4.07642 -3.46024 0
M  V30 2744 H 271.889 -2.36424 -3.4265 0
M  V30 2745 H 272.422 -3.39379 -2.07525 0
M  V30 2746 H 269.161 -6.35474 -1.6079 0
M  V30 2747 H 268.681 -5.244 -2.91144 0
M  V30 2748 H 270.36 -5.8292 -2.80736 0
M  V30 2749 N 270.492 0.636531 -1.44174 0
M  V30 2750 C 271.717 1.42847 -1.50364 0
M  V30 2751 C 272.142 1.87665 -0.127867 0
M  V30 2752 O 271.5 1.58408 0.88185 0
M  V30 2753 C 271.548 2.62854 -2.4686 0
M  V30 2754 O 270.652 3.62501 -1.9664 0
M  V30 2755 H 269.993 0.427642 -0.507955 0
M  V30 2756 H 272.523 0.777422 -1.89255 0
M  V30 2757 H 272.533 3.10465 -2.64718 0
M  V30 2758 H 271.208 2.29578 -3.46795 0
M  V30 2759 H 269.785 3.21735 -1.88523 0
M  V30 2760 N 271.97 1.30982 0.876444 0
M  V30 2761 C 272.9 1.20668 1.99903 0
M  V30 2762 C 273.881 0.095354 1.69833 0
M  V30 2763 O 275.066 0.27885 1.92188 0
M  V30 2764 C 272.196 0.90655 3.3526 0
M  V30 2765 C 271.15 1.97675 3.79617 0
M  V30 2766 C 270.476 1.52943 5.1236 0
M  V30 2767 C 271.776 3.389 3.97422 0
M  V30 2768 H 273.47 2.14586 2.0879 0
M  V30 2769 H 271.016 1.03308 1.00317 0
M  V30 2770 H 272.969 0.821025 4.13324 0
M  V30 2771 H 271.693 -0.0682969 3.26529 0
M  V30 2772 H 270.352 2.05205 3.03787 0
M  V30 2773 H 270 0.54262 5.00065 0
M  V30 2774 H 269.7 2.24532 5.43009 0
M  V30 2775 H 271.224 1.45786 5.92941 0
M  V30 2776 H 272.638 3.34081 4.659 0
M  V30 2777 H 271.035 4.0865 4.3946 0
M  V30 2778 H 272.105 3.80163 3.01006 0
M  V30 2779 N 273.449 -1.08991 1.13837 0
M  V30 2780 C 274.86 -1.62746 0.914917 0
M  V30 2781 C 275.211 -1.88403 -0.547594 0
M  V30 2782 O 274.336 -1.63706 -1.41525 0
M  V30 2783 C 274.931 -2.95662 1.65437 0
M  V30 2784 C 273.49 -3.46225 1.47666 0
M  V30 2785 C 272.637 -2.20562 1.6807 0
M  V30 2786 H 275.588 -0.922946 1.29102 0
M  V30 2787 H 275.609 -3.63825 1.11407 0
M  V30 2788 H 275.121 -2.76956 2.71877 0
M  V30 2789 H 273.222 -3.70046 0.435478 0
M  V30 2790 H 273.335 -4.23368 2.24268 0
M  V30 2791 H 271.699 -2.29439 1.10589 0
M  V30 2792 H 272.482 -2.0437 2.7584 0
M  V30 2793 N 274.927 -0.932562 -1.27047 0
M  V30 2794 C 276.155 -0.592031 -1.98249 0
M  V30 2795 C 276.57 0.831062 -1.69525 0
M  V30 2796 O 275.927 1.55299 -0.958561 0
M  V30 2797 C 275.978 -0.814279 -3.5221 0
M  V30 2798 O 275.699 -2.18139 -3.7993 0
M  V30 2799 C 277.2 -0.483121 -4.4066 0
M  V30 2800 H 274.42 -0.223896 -0.632544 0
M  V30 2801 H 276.964 -1.25091 -1.61779 0
M  V30 2802 H 275.119 -0.20213 -3.86872 0
M  V30 2803 H 275.533 -2.235 -4.74498 0
M  V30 2804 H 277.007 -0.689298 -5.47679 0
M  V30 2805 H 277.484 0.581546 -4.35333 0
M  V30 2806 H 278.09 -1.07362 -4.11526 0
M  V30 2807 N 276.405 1.4127 -0.698611 0
M  V30 2808 C 277.633 2.05503 -0.239992 0
M  V30 2809 C 278.048 1.52584 1.11191 0
M  V30 2810 O 277.405 0.675323 1.69545 0
M  V30 2811 C 277.456 3.60987 -0.192429 0
M  V30 2812 O 277.177 4.1195 -1.49094 0
M  V30 2813 C 278.678 4.42371 0.28681 0
M  V30 2814 H 275.898 0.661748 -0.111045 0
M  V30 2815 H 278.442 1.80987 -0.95205 0
M  V30 2816 H 276.597 3.84533 0.470472 0
M  V30 2817 H 277.011 5.06018 -1.38007 0
M  V30 2818 H 278.485 5.51344 0.26896 0
M  V30 2819 H 278.962 4.18699 1.32619 0
M  V30 2820 H 279.568 4.23897 -0.345201 0
M  V30 2821 N 277.883 0.443576 1.51229 0
M  V30 2822 C 279.294 -0.0180867 1.86691 0
M  V30 2823 C 279.645 -1.41384 1.36033 0
M  V30 2824 O 278.77 -2.04291 0.713722 0
M  V30 2825 C 279.365 -0.039597 3.38777 0
M  V30 2826 C 277.924 -0.445692 3.73752 0
M  V30 2827 C 277.071 0.357584 2.74985 0
M  V30 2828 H 280.022 0.659138 1.44364 0
M  V30 2829 H 280.043 -0.847761 3.70936 0
M  V30 2830 H 279.555 0.976382 3.75617 0
M  V30 2831 H 277.656 -1.46704 3.42503 0
M  V30 2832 H 277.769 -0.166155 4.78812 0
M  V30 2833 H 276.133 -0.184973 2.54027 0
M  V30 2834 H 276.916 1.37256 3.14668 0
M  V30 2835 N 279.361 -1.56624 0.175154 0
M  V30 2836 C 280.772 -1.83561 -0.340916 0
M  V30 2837 C 281.123 -1.09511 -1.62794 0
M  V30 2838 O 280.248 -0.349389 -2.13561 0
M  V30 2839 C 280.843 -3.32979 -0.625313 0
M  V30 2840 C 279.402 -3.60399 -1.08581 0
M  V30 2841 C 278.549 -2.77024 -0.123722 0
M  V30 2842 H 281.5 -1.53593 0.399344 0
M  V30 2843 H 281.521 -3.50666 -1.47694 0
M  V30 2844 H 281.033 -3.86847 0.311575 0
M  V30 2845 H 279.134 -3.11945 -2.03767 0
M  V30 2846 H 279.247 -4.68711 -0.992317 0
M  V30 2847 H 277.611 -2.46993 -0.621821 0
M  V30 2848 H 278.394 -3.33674 0.807256 0
M  V30 2849 N 280.839 0.0985539 -1.57292 0
M  V30 2850 C 281.802 1.10402 -2.00858 0
M  V30 2851 C 282.802 1.33146 -0.901593 0
M  V30 2852 O 283.992 1.29318 -1.16716 0
M  V30 2853 C 281.124 2.45394 -2.36632 0
M  V30 2854 H 282.317 0.729099 -2.90902 0
M  V30 2855 H 279.87 0.343495 -1.52479 0
M  V30 2856 H 280.605 2.87769 -1.49531 0
M  V30 2857 H 280.39 2.30235 -3.17387 0
M  V30 2858 H 281.88 3.17718 -2.71007 0
M  V30 2859 N 282.317 1.53212 0.369288 0
M  V30 2860 C 283.28 1.7872 1.43498 0
M  V30 2861 C 284.28 0.657554 1.46741 0
M  V30 2862 O 285.47 0.925736 1.47566 0
M  V30 2863 C 282.602 1.90591 2.82645 0
M  V30 2864 H 283.795 2.73894 1.22156 0
M  V30 2865 H 281.348 1.44233 0.602203 0
M  V30 2866 H 282.083 0.974709 3.09306 0
M  V30 2867 H 281.868 2.72751 2.8169 0
M  V30 2868 H 283.358 2.11931 3.59826 0
M  V30 2869 N 283.795 -0.628877 1.44509 0
M  V30 2870 C 285.043 -1.38565 1.4712 0
M  V30 2871 C 285.364 -1.94712 0.105899 0
M  V30 2872 O 284.634 -1.75912 -0.862079 0
M  V30 2873 H 283.214 -0.514333 0.541729 0
M  V30 2874 H 285.876 -0.740018 1.80305 0
M  V30 2875 H 284.972 -2.21583 2.19789 0
M  V30 2876 N 285.273 -1.31445 -0.869486 0
M  V30 2877 C 286.501 -1.24122 -1.65534 0
M  V30 2878 C 286.916 0.193387 -1.87807 0
M  V30 2879 O 286.273 1.12557 -1.43656 0
M  V30 2880 C 286.324 -1.98229 -3.02304 0
M  V30 2881 O 286.045 -3.3609 -2.81026 0
M  V30 2882 C 287.546 -1.97751 -3.96749 0
M  V30 2883 H 284.766 -0.428868 -0.516055 0
M  V30 2884 H 287.31 -1.73328 -1.08525 0
M  V30 2885 H 285.465 -1.52782 -3.56001 0
M  V30 2886 H 285.879 -3.7383 -3.67902 0
M  V30 2887 H 287.353 -2.54114 -4.90031 0
M  V30 2888 H 287.83 -0.960137 -4.28577 0
M  V30 2889 H 288.436 -2.43079 -3.48988 0
M  V30 2890 N 286.751 1.08385 -1.14413 0
M  V30 2891 C 287.661 2.18856 -0.844951 0
M  V30 2892 C 288.677 1.73121 0.174668 0
M  V30 2893 O 289.853 2.014 0.00312857 0
M  V30 2894 C 286.918 3.45155 -0.32696 0
M  V30 2895 C 285.979 4.05513 -1.40916 0
M  V30 2896 C 285.212 5.25784 -0.915793 0
M  V30 2897 O 285.435 5.69884 0.242651 0
M  V30 2898 O 284.369 5.77545 -1.69487 0
M  V30 2899 H 288.195 2.46919 -1.76818 0
M  V30 2900 H 285.78 1.17524 -0.922411 0
M  V30 2901 H 287.662 4.21377 -0.0440211 0
M  V30 2902 H 286.337 3.18668 0.568539 0
M  V30 2903 H 285.244 3.30879 -1.74556 0
M  V30 2904 H 286.577 4.3625 -2.27919 0
M  V30 2905 N 288.23 0.939286 1.26551 0
M  V30 2906 C 289.47 0.5933 1.956 0
M  V30 2907 C 289.834 -0.851515 1.72085 0
M  V30 2908 O 291.035 -1.30634 2.34921 0
M  V30 2909 C 289.306 0.923996 3.45249 0
M  V30 2910 S 290.865 0.688269 4.33369 0
M  V30 2911 H 287.683 0.218591 0.676564 0
M  V30 2912 H 290.285 1.2102 1.5354 0
M  V30 2913 H 288.989 1.97297 3.59864 0
M  V30 2914 H 288.52 0.296746 3.92279 0
M  V30 2915 H 290.535 -0.448434 4.9417 0
M  V30 2916 N 289.708 -1.40897 0.706093 0
M  V30 2917 C 290.638 -2.33418 0.0620085 0
M  V30 2918 C 291.619 -1.52385 -0.755827 0
M  V30 2919 O 292.804 -1.80886 -0.706674 0
M  V30 2920 C 289.934 -3.36293 -0.867445 0
M  V30 2921 C 288.888 -4.27716 -0.155932 0
M  V30 2922 C 288.214 -5.2105 -1.20046 0
M  V30 2923 C 289.514 -5.12944 0.984149 0
M  V30 2924 H 291.208 -2.87527 0.83477 0
M  V30 2925 H 288.754 -1.38249 0.402875 0
M  V30 2926 H 290.707 -3.99949 -1.32735 0
M  V30 2927 H 289.431 -2.80556 -1.67199 0
M  V30 2928 H 288.09 -3.65498 0.284047 0
M  V30 2929 H 287.738 -4.61624 -1.99781 0
M  V30 2930 H 287.438 -5.83056 -0.729328 0
M  V30 2931 H 288.962 -5.87584 -1.66066 0
M  V30 2932 H 290.376 -5.70109 0.604048 0
M  V30 2933 H 288.773 -5.83945 1.38304 0
M  V30 2934 H 289.843 -4.49485 1.81911 0
M  V30 2935 N 291.186 -0.45159 -1.50991 0
M  V30 2936 C 292.435 0.111653 -2.01391 0
M  V30 2937 C 292.748 1.42529 -1.33959 0
M  V30 2938 O 293.954 2.07232 -1.75405 0
M  V30 2939 C 292.41 0.249514 -3.59034 0
M  V30 2940 C 292.018 -1.05453 -4.35412 0
M  V30 2941 C 293.762 0.765762 -4.17536 0
M  V30 2942 C 291.669 -0.881529 -5.84793 0
M  V30 2943 H 290.599 0.0455022 -0.752626 0
M  V30 2944 H 293.25 -0.583524 -1.73975 0
M  V30 2945 H 291.632 1.00803 -3.82955 0
M  V30 2946 H 292.806 -1.82248 -4.23229 0
M  V30 2947 H 291.121 -1.50039 -3.88429 0
M  V30 2948 H 293.718 0.911913 -5.26866 0
M  V30 2949 H 294.061 1.75201 -3.77638 0
M  V30 2950 H 294.594 0.0651744 -3.97747 0
M  V30 2951 H 291.333 -1.84057 -6.29129 0
M  V30 2952 H 290.853 -0.153625 -5.99603 0
M  V30 2953 H 292.532 -0.540363 -6.4474 0
M  V30 2954 N 292.664 1.56529 -0.183458 0
M  V30 2955 C 293.889 2.02064 0.467428 0
M  V30 2956 C 294.314 1.06282 1.55196 0
M  V30 2957 O 293.672 0.0443565 1.81246 0
M  V30 2958 C 293.72 3.46122 1.01153 0
M  V30 2959 O 292.824 3.53437 2.12499 0
M  V30 2960 H 292.165 0.654726 0.110588 0
M  V30 2961 H 294.695 2.02521 -0.290917 0
M  V30 2962 H 294.705 3.85676 1.33108 0
M  V30 2963 H 293.38 4.15331 0.217533 0
M  V30 2964 H 291.957 3.2575 1.81497 0
M  V30 2965 N 294.142 -0.090211 1.57342 0
M  V30 2966 C 295.39 -0.791241 1.85967 0
M  V30 2967 C 295.711 -1.7903 0.772859 0
M  V30 2968 O 294.981 -1.94872 -0.200398 0
M  V30 2969 H 293.561 -0.295205 0.686195 0
M  V30 2970 H 296.223 -0.0706782 1.94772 0
M  V30 2971 H 295.319 -1.31882 2.82867 0
M  V30 2972 N 295.62 -1.53406 -0.361157 0
M  V30 2973 C 296.866 -1.70999 -1.1014 0
M  V30 2974 C 297.221 -0.458425 -1.86859 0
M  V30 2975 O 296.514 0.548654 -1.83577 0
M  V30 2976 C 296.708 -2.90211 -2.08596 0
M  V30 2977 C 296.537 -4.26841 -1.41553 0
M  V30 2978 C 295.307 -4.91621 -1.16778 0
M  V30 2979 C 297.505 -5.07212 -0.850915 0
M  V30 2980 N 295.487 -6.12164 -0.461312 0
M  V30 2981 C 296.858 -6.19394 -0.274046 0
M  V30 2982 C 298.913 -4.92218 -0.750036 0
M  V30 2983 C 297.616 -7.18221 0.393868 0
M  V30 2984 C 299.642 -5.91322 -0.095894 0
M  V30 2985 C 299.004 -7.0283 0.470081 0
M  V30 2986 H 295.103 -0.678939 -0.388028 0
M  V30 2987 H 297.687 -1.90811 -0.38722 0
M  V30 2988 H 295.858 -2.71931 -2.77323 0
M  V30 2989 H 297.59 -2.96606 -2.7533 0
M  V30 2990 H 294.345 -4.50849 -1.45024 0
M  V30 2991 H 294.769 -6.76888 -0.123312 0
M  V30 2992 H 299.411 -4.06192 -1.17337 0
M  V30 2993 H 297.129 -8.03835 0.82914 0
M  V30 2994 H 300.715 -5.81797 -0.0187075 0
M  V30 2995 H 299.595 -7.782 0.968241 0
M  V30 2996 N 297.098 0.621204 -1.44841 0
M  V30 2997 C 298.346 1.37783 -1.47852 0
M  V30 2998 C 298.667 1.94653 -0.116224 0
M  V30 2999 O 297.937 1.76367 0.852737 0
M  V30 3000 H 296.517 0.511453 -0.544449 0
M  V30 3001 H 299.179 0.730446 -1.80694 0
M  V30 3002 H 298.275 2.20414 -2.20961 0
M  V30 3003 N 298.576 1.31904 0.862503 0
M  V30 3004 C 299.524 1.20125 1.9918 0
M  V30 3005 C 300.518 0.107824 1.69056 0
M  V30 3006 O 301.724 0.270223 1.7796 0
M  V30 3007 H 298.099 0.372148 0.65346 0
M  V30 3008 H 300.07 2.15652 2.06244 0
M  V30 3009 C 298.819 0.933099 3.34946 0
M  V30 3010 H 298.142 1.76664 3.5865 0
M  V30 3011 H 299.582 0.890892 4.14535 0
M  V30 3012 C 298.041 -0.364172 3.34926 0
M  V30 3013 O 298.571 -1.37858 3.77304 0
M  V30 3014 N 296.777 -0.383362 2.8806 0
M  V30 3015 H 296.324 0.442651 2.53768 0
M  V30 3016 H 296.282 -1.25123 2.8843 0
M  V30 3017 N 300.054 -1.07777 1.14986 0
M  V30 3018 C 301.282 -1.84018 0.945773 0
M  V30 3019 C 301.697 -1.81897 -0.505863 0
M  V30 3020 O 301.054 -1.22726 -1.35072 0
M  V30 3021 C 301.105 -3.31287 1.44677 0
M  V30 3022 O 300.826 -3.33449 2.84154 0
M  V30 3023 C 302.327 -4.24311 1.28355 0
M  V30 3024 H 299.547 -0.580716 0.336169 0
M  V30 3025 H 302.091 -1.36077 1.52654 0
M  V30 3026 H 300.246 -3.76594 0.908625 0
M  V30 3027 H 300.66 -4.25427 3.06777 0
M  V30 3028 H 302.134 -5.2573 1.68261 0
M  V30 3029 H 302.611 -4.38612 0.227184 0
M  V30 3030 H 303.217 -3.84836 1.81056 0
M  V30 3031 N 301.532 -0.945985 -1.26051 0
M  V30 3032 C 302.462 -0.477172 -2.28572 0
M  V30 3033 C 303.443 0.472032 -1.63419 0
M  V30 3034 O 304.628 0.372853 -1.90587 0
M  V30 3035 C 301.758 0.253975 -3.4637 0
M  V30 3036 C 300.712 -0.609135 -4.23643 0
M  V30 3037 C 300.038 0.252252 -5.34105 0
M  V30 3038 C 301.338 -1.8829 -4.8718 0
M  V30 3039 H 303.032 -1.33402 -2.68038 0
M  V30 3040 H 300.578 -0.642904 -1.28852 0
M  V30 3041 H 302.531 0.593016 -4.17207 0
M  V30 3042 H 301.255 1.145 -3.05871 0
M  V30 3043 H 299.914 -0.931138 -3.54578 0
M  V30 3044 H 299.562 1.14278 -4.89846 0
M  V30 3045 H 299.262 -0.32188 -5.86718 0
M  V30 3046 H 300.786 0.586454 -6.07777 0
M  V30 3047 H 302.2 -1.61081 -5.50205 0
M  V30 3048 H 300.597 -2.40199 -5.49931 0
M  V30 3049 H 301.667 -2.59134 -4.09851 0
M  V30 3050 N 303.011 1.40521 -0.713556 0
M  V30 3051 C 304.236 2.05759 -0.26035 0
M  V30 3052 C 304.661 1.53403 1.08854 0
M  V30 3053 O 304.019 0.668535 1.68524 0
M  V30 3054 C 304.067 3.59745 -0.248122 0
M  V30 3055 O 303.171 4.05123 0.77131 0
M  V30 3056 H 302.512 0.652564 -0.122703 0
M  V30 3057 H 305.042 1.79958 -0.973467 0
M  V30 3058 H 305.052 4.07911 -0.0851129 0
M  V30 3059 H 303.727 3.97218 -1.2325 0
M  V30 3060 H 302.304 3.68422 0.57619 0
M  V30 3061 N 304.489 0.459591 1.5075 0
M  V30 3062 C 305.736 -0.0993495 2.02256 0
M  V30 3063 C 306.064 -1.40751 1.34237 0
M  V30 3064 O 305.319 -1.90379 0.453228 0
M  V30 3065 C 305.618 -0.342866 3.55752 0
M  V30 3066 C 305.284 0.88218 4.42186 0
M  V30 3067 C 303.946 1.21808 4.65528 0
M  V30 3068 C 306.298 1.69837 4.92752 0
M  V30 3069 C 303.626 2.37045 5.36681 0
M  V30 3070 C 305.978 2.84192 5.65171 0
M  V30 3071 C 304.642 3.1821 5.8677 0
M  V30 3072 H 303.912 -0.0363545 0.740108 0
M  V30 3073 H 306.559 0.611329 1.8148 0
M  V30 3074 H 304.864 -1.13567 3.7498 0
M  V30 3075 H 306.561 -0.789121 3.93159 0
M  V30 3076 H 303.151 0.610467 4.2423 0
M  V30 3077 H 307.335 1.45205 4.74583 0
M  V30 3078 H 302.591 2.63689 5.51614 0
M  V30 3079 H 306.765 3.4779 6.03337 0
M  V30 3080 H 304.392 4.07613 6.41682 0
M  V30 3081 N 305.967 -1.56429 0.191757 0
M  V30 3082 C 307.215 -1.97095 -0.447006 0
M  V30 3083 C 307.536 -1.07967 -1.62383 0
M  V30 3084 O 306.806 -0.150248 -1.95323 0
M  V30 3085 H 305.386 -0.727832 -0.168135 0
M  V30 3086 H 308.048 -1.92911 0.27771 0
M  V30 3087 H 307.144 -3.01848 -0.793371 0
M  V30 3088 N 307.445 0.0818655 -1.57387 0
M  V30 3089 C 308.408 1.08265 -2.02018 0
M  V30 3090 C 309.408 1.32183 -0.915664 0
M  V30 3091 O 310.598 1.28073 -1.18081 0
M  V30 3092 C 307.73 2.42871 -2.39221 0
M  V30 3093 H 308.923 0.698204 -2.91659 0
M  V30 3094 H 306.476 0.327303 -1.52835 0
M  V30 3095 H 307.211 2.86167 -1.52575 0
M  V30 3096 H 306.996 2.26855 -3.19811 0
M  V30 3097 H 308.486 3.14826 -2.74362 0
M  V30 3098 N 308.923 1.53595 0.353017 0
M  V30 3099 C 310.2 1.61002 1.11075 0
M  V30 3100 C 310.58 0.425356 2.0677 0
M  V30 3101 O 309.928 -0.583267 2.2093 0
M  V30 3102 C 310.138 2.96631 1.83877 0
M  V30 3103 C 311.486 3.51653 2.37961 0
M  V30 3104 O 312.51 2.98743 1.93987 0
M  V30 3105 O 311.369 4.44177 3.18386 0
M  V30 3106 H 308.463 0.650825 0.510251 0
M  V30 3107 H 311.009 1.6594 0.35527 0
M  V30 3108 H 309.781 3.74293 1.14108 0
M  V30 3109 H 309.404 2.95242 2.66304 0
M  V30 3110 N 310.401 -0.613514 1.45168 0
M  V30 3111 C 311.631 -1.39743 1.52169 0
M  V30 3112 C 312.039 -1.88596 0.151086 0
M  V30 3113 O 311.382 -1.6251 -0.856521 0
M  V30 3114 C 311.444 -2.64035 2.43979 0
M  V30 3115 C 311.108 -2.36861 3.90827 0
M  V30 3116 C 312.105 -1.97591 4.80889 0
M  V30 3117 C 309.79 -2.49956 4.35692 0
M  V30 3118 C 311.784 -1.71768 6.1382 0
M  V30 3119 C 309.471 -2.23747 5.68665 0
M  V30 3120 C 310.469 -1.84714 6.57548 0
M  V30 3121 O 310.157 -1.58809 7.88058 0
M  V30 3122 H 309.889 -0.434382 0.517966 0
M  V30 3123 H 312.443 -0.75587 1.90986 0
M  V30 3124 H 310.673 -3.3089 2.00122 0
M  V30 3125 H 312.362 -3.26069 2.41731 0
M  V30 3126 H 313.128 -1.87015 4.47493 0
M  V30 3127 H 309.007 -2.79305 3.66756 0
M  V30 3128 H 312.551 -1.41227 6.83155 0
M  V30 3129 H 308.448 -2.33938 6.01617 0
M  V30 3130 H 309.216 -1.7291 8.00028 0
M  V30 3131 N 311.879 -1.3236 -0.855495 0
M  V30 3132 C 313.29 -1.2056 -1.42556 0
M  V30 3133 C 313.641 0.182209 -1.95352 0
M  V30 3134 O 312.766 1.08088 -1.87472 0
M  V30 3135 C 313.361 -2.1826 -2.59129 0
M  V30 3136 C 311.92 -2.10351 -3.12137 0
M  V30 3137 C 311.067 -2.06674 -1.84882 0
M  V30 3138 H 314.018 -1.442 -0.662727 0
M  V30 3139 H 314.039 -1.78064 -3.36264 0
M  V30 3140 H 313.551 -3.19257 -2.20673 0
M  V30 3141 H 311.652 -1.12599 -3.55179 0
M  V30 3142 H 311.765 -3.00135 -3.73438 0
M  V30 3143 H 310.129 -1.51901 -2.04446 0
M  V30 3144 H 310.912 -3.09451 -1.48643 0
M  V30 3145 N 313.357 1.07166 -1.15556 0
M  V30 3146 C 314.634 1.76546 -0.842069 0
M  V30 3147 C 315.014 2.00453 0.661939 0
M  V30 3148 O 314.362 1.62452 1.60691 0
M  V30 3149 C 314.572 3.07266 -1.65495 0
M  V30 3150 C 315.92 3.81578 -1.86234 0
M  V30 3151 O 316.944 3.17083 -1.62287 0
M  V30 3152 O 315.803 4.97419 -2.26355 0
M  V30 3153 H 312.897 0.766756 -0.309862 0
M  V30 3154 H 315.443 1.13514 -1.26145 0
M  V30 3155 H 314.215 2.85494 -2.67598 0
M  V30 3156 H 313.838 3.7803 -1.23203 0
M  V30 3157 N 314.835 0.952656 1.25548 0
M  V30 3158 C 315.745 0.47782 2.29682 0
M  V30 3159 C 316.761 -0.453859 1.67977 0
M  V30 3160 O 317.937 -0.330587 1.98668 0
M  V30 3161 C 315.002 -0.238655 3.45878 0
M  V30 3162 C 314.063 0.730994 4.23031 0
M  V30 3163 C 313.296 0.0486165 5.33678 0
M  V30 3164 O 313.519 -1.16612 5.58353 0
M  V30 3165 O 312.453 0.733152 5.97418 0
M  V30 3166 H 316.279 1.34312 2.72386 0
M  V30 3167 H 313.864 0.719026 1.30959 0
M  V30 3168 H 315.746 -0.641774 4.16484 0
M  V30 3169 H 314.421 -1.07916 3.05181 0
M  V30 3170 H 313.328 1.18428 3.5486 0
M  V30 3171 H 314.661 1.53946 4.67506 0
M  V30 3172 N 316.313 -1.40141 0.720998 0
M  V30 3173 C 317.243 -2.33339 0.0867621 0
M  V30 3174 C 318.224 -1.53178 -0.739622 0
M  V30 3175 O 319.409 -1.81625 -0.687449 0
M  V30 3176 C 316.539 -3.37194 -0.831728 0
M  V30 3177 C 315.493 -4.27857 -0.110558 0
M  V30 3178 C 314.819 -5.22294 -1.14513 0
M  V30 3179 C 316.119 -5.11872 1.0385 0
M  V30 3180 H 317.813 -2.86626 0.865219 0
M  V30 3181 H 315.359 -1.37814 0.417516 0
M  V30 3182 H 317.312 -4.01335 -1.28485 0
M  V30 3183 H 316.036 -2.82314 -1.64214 0
M  V30 3184 H 314.695 -3.65176 0.322797 0
M  V30 3185 H 314.343 -4.63717 -1.94874 0
M  V30 3186 H 314.043 -5.83797 -0.667446 0
M  V30 3187 H 315.567 -5.89312 -1.59824 0
M  V30 3188 H 316.981 -5.69436 0.664482 0
M  V30 3189 H 315.378 -5.82445 1.4449 0
M  V30 3190 H 316.448 -4.4753 1.86668 0
M  V30 3191 N 317.792 -0.46758 -1.50504 0
M  V30 3192 C 318.739 0.328413 -2.28452 0
M  V30 3193 C 319.709 0.990313 -1.33349 0
M  V30 3194 O 320.894 1.00343 -1.62284 0
M  V30 3195 C 318.034 1.40648 -3.15138 0
M  V30 3196 C 317.147 0.759709 -4.25267 0
M  V30 3197 C 316.282 1.81537 -4.99217 0
M  V30 3198 C 315.321 1.14866 -6.01226 0
M  V30 3199 N 314.458 2.14702 -6.68467 0
M  V30 3200 H 319.298 -0.342603 -2.96024 0
M  V30 3201 H 316.835 -0.180801 -1.45985 0
M  V30 3202 H 318.793 2.04315 -3.63746 0
M  V30 3203 H 317.423 2.04671 -2.49619 0
M  V30 3204 H 316.475 0.0105671 -3.80399 0
M  V30 3205 H 317.787 0.233243 -4.98254 0
M  V30 3206 H 316.941 2.52793 -5.51526 0
M  V30 3207 H 315.68 2.37564 -4.25928 0
M  V30 3208 H 314.685 0.42171 -5.4818 0
M  V30 3209 H 315.91 0.595334 -6.76485 0
M  V30 3210 H 313.856 2.69752 -5.97972 0
M  V30 3211 H 313.773 1.6703 -7.37317 0
M  V30 3212 H 315.041 2.85348 -7.25394 0
M  V30 3213 N 319.27 1.56325 -0.20005 0
M  V30 3214 C 320.51 1.99619 0.439519 0
M  V30 3215 C 320.874 1.08423 1.58456 0
M  V30 3216 O 322.075 1.40973 2.28867 0
M  V30 3217 C 320.346 3.46314 0.883258 0
M  V30 3218 S 321.905 4.11634 1.51997 0
M  V30 3219 H 318.723 0.697007 0.140363 0
M  V30 3220 H 321.325 1.93118 -0.304282 0
M  V30 3221 H 320.029 4.10381 0.0398967 0
M  V30 3222 H 319.56 3.56643 1.6604 0
M  V30 3223 H 321.575 4.09049 2.8088 0
M  V30 3224 N 320.748 -0.0735177 1.57428 0
M  V30 3225 C 321.678 -1.0879 2.06608 0
M  V30 3226 C 322.659 -1.40473 0.959237 0
M  V30 3227 O 323.844 -1.5013 1.23185 0
M  V30 3228 C 320.974 -2.40183 2.50857 0
M  V30 3229 C 319.928 -2.22858 3.65402 0
M  V30 3230 C 319.254 -3.59619 3.957 0
M  V30 3231 C 320.554 -1.65123 4.95511 0
M  V30 3232 H 322.248 -0.678673 2.91607 0
M  V30 3233 H 319.794 -0.325013 1.40284 0
M  V30 3234 H 321.747 -3.11437 2.83874 0
M  V30 3235 H 320.471 -2.83083 1.62885 0
M  V30 3236 H 319.13 -1.54045 3.32664 0
M  V30 3237 H 318.778 -4.00086 3.04861 0
M  V30 3238 H 318.478 -3.48866 4.72828 0
M  V30 3239 H 320.002 -4.32306 4.31212 0
M  V30 3240 H 321.416 -2.26241 5.26771 0
M  V30 3241 H 319.813 -1.65071 5.7695 0
M  V30 3242 H 320.883 -0.612559 4.81015 0
M  V30 3243 N 322.226 -1.5378 -0.344866 0
M  V30 3244 C 323.503 -1.61589 -1.10219 0
M  V30 3245 C 323.883 -0.436316 -2.06542 0
M  V30 3246 O 323.231 0.571543 -2.21237 0
M  V30 3247 C 323.441 -2.97602 -1.82301 0
M  V30 3248 C 324.789 -3.5291 -2.36093 0
M  V30 3249 O 325.813 -2.99768 -1.924 0
M  V30 3250 O 324.672 -4.45859 -3.16026 0
M  V30 3251 H 321.766 -0.653522 -0.506792 0
M  V30 3252 H 324.312 -1.66126 -0.346465 0
M  V30 3253 H 323.084 -3.74893 -1.12121 0
M  V30 3254 H 322.707 -2.9665 -2.64735 0
M  V30 3255 N 323.704 0.605807 -1.45491 0
M  V30 3256 C 324.667 1.69836 -1.5391 0
M  V30 3257 C 325.667 1.55261 -0.418424 0
M  V30 3258 O 326.857 1.60296 -0.681965 0
M  V30 3259 C 323.989 3.09117 -1.43734 0
M  V30 3260 H 325.182 1.63738 -2.51257 0
M  V30 3261 H 322.735 0.821689 -1.32959 0
M  V30 3262 H 323.47 3.20791 -0.475788 0
M  V30 3263 H 323.255 3.21104 -2.25021 0
M  V30 3264 H 324.745 3.88696 -1.52661 0
M  V30 3265 N 325.182 1.32811 0.848464 0
M  V30 3266 C 326.593 1.21315 1.41914 0
M  V30 3267 C 326.944 -0.171847 1.95446 0
M  V30 3268 O 326.069 -1.07093 1.88043 0
M  V30 3269 C 326.664 2.19631 2.57968 0
M  V30 3270 C 325.223 2.12003 3.11017 0
M  V30 3271 C 324.37 2.07651 1.83783 0
M  V30 3272 H 327.321 1.44549 0.655071 0
M  V30 3273 H 327.342 1.79845 3.35315 0
M  V30 3274 H 326.854 3.20423 2.18976 0
M  V30 3275 H 324.955 1.14481 3.54577 0
M  V30 3276 H 325.068 3.02111 3.71841 0
M  V30 3277 H 323.432 1.52983 2.03638 0
M  V30 3278 H 324.215 3.10235 1.47 0
M  V30 3279 N 326.66 -1.06551 1.16123 0
M  V30 3280 C 327.906 -1.79567 0.94252 0
M  V30 3281 C 328.239 -1.86869 -0.528547 0
M  V30 3282 O 327.514 -1.35838 -1.39206 0
M  V30 3283 C 327.797 -3.24195 1.56747 0
M  V30 3284 C 327.65 -3.24989 3.10969 0
M  V30 3285 C 328.969 -4.21678 1.25998 0
M  V30 3286 H 326.088 -0.651883 0.343828 0
M  V30 3287 H 328.73 -1.2463 1.43413 0
M  V30 3288 H 326.88 -3.71107 1.14942 0
M  V30 3289 H 328.552 -2.86258 3.61737 0
M  V30 3290 H 326.795 -2.63716 3.44436 0
M  V30 3291 H 327.466 -4.27005 3.49815 0
M  V30 3292 H 329.942 -3.83196 1.62174 0
M  V30 3293 H 328.818 -5.21146 1.7233 0
M  V30 3294 H 329.079 -4.4174 0.178367 0
M  V30 3295 N 328.138 -0.959301 -1.25041 0
M  V30 3296 C 329.068 -0.501388 -2.28053 0
M  V30 3297 C 330.049 0.454673 -1.63911 0
M  V30 3298 O 331.234 0.352618 -1.90972 0
M  V30 3299 C 328.364 0.217224 -3.4662 0
M  V30 3300 C 327.318 -0.654034 -4.22973 0
M  V30 3301 C 326.644 0.195589 -5.34342 0
M  V30 3302 C 327.944 -1.93447 -4.85155 0
M  V30 3303 H 329.638 -1.36238 -2.66608 0
M  V30 3304 H 327.184 -0.656534 -1.28163 0
M  V30 3305 H 329.137 0.548732 -4.17812 0
M  V30 3306 H 327.861 1.1125 -3.07068 0
M  V30 3307 H 326.52 -0.968693 -3.5357 0
M  V30 3308 H 326.168 1.09076 -4.91031 0
M  V30 3309 H 325.868 -0.384091 -5.86343 0
M  V30 3310 H 327.392 0.521958 -6.08365 0
M  V30 3311 H 328.806 -1.66908 -5.48466 0
M  V30 3312 H 327.203 -2.46018 -5.47353 0
M  V30 3313 H 328.273 -2.63466 -4.07079 0
M  V30 3314 N 329.616 1.39756 -0.72842 0
M  V30 3315 C 330.844 2.04948 -0.283528 0
M  V30 3316 C 331.259 1.54908 1.0793 0
M  V30 3317 O 330.616 0.711135 1.68075 0
M  V30 3318 C 330.667 3.60498 -0.268957 0
M  V30 3319 O 330.388 4.08695 -1.57798 0
M  V30 3320 C 331.889 4.4288 0.192912 0
M  V30 3321 H 329.109 0.659243 -0.125056 0
M  V30 3322 H 331.653 1.78927 -0.990226 0
M  V30 3323 H 329.808 3.85444 0.388801 0
M  V30 3324 H 330.222 5.02977 -1.48709 0
M  V30 3325 H 331.696 5.51791 0.151952 0
M  V30 3326 H 332.173 4.21418 1.23708 0
M  V30 3327 H 332.779 4.23069 -0.435039 0
M  V30 3328 N 331.094 0.475555 1.50254 0
M  V30 3329 C 332.026 -0.352649 2.26471 0
M  V30 3330 C 333.039 -0.953165 1.3198 0
M  V30 3331 O 334.228 -0.840815 1.57457 0
M  V30 3332 C 331.328 -1.50902 3.0345 0
M  V30 3333 C 330.501 -1.02047 4.25329 0
M  V30 3334 C 329.56 -2.05142 4.84565 0
M  V30 3335 O 328.586 -1.63023 5.45355 0
M  V30 3336 N 329.788 -3.37987 4.71959 0
M  V30 3337 H 332.553 0.300767 2.98187 0
M  V30 3338 H 330.114 0.306598 1.5897 0
M  V30 3339 H 332.106 -2.19572 3.39956 0
M  V30 3340 H 330.676 -2.06705 2.34504 0
M  V30 3341 H 329.896 -0.159507 3.93877 0
M  V30 3342 H 331.184 -0.672061 5.04342 0
M  V30 3343 H 330.582 -3.74913 4.23623 0
M  V30 3344 H 329.139 -4.02443 5.12721 0
M  V30 3345 N 332.573 -1.56217 0.208337 0
M  V30 3346 C 333.536 -2.18455 -0.693557 0
M  V30 3347 C 334.536 -1.14268 -1.13135 0
M  V30 3348 O 335.726 -1.39577 -1.0423 0
M  V30 3349 C 332.858 -2.79727 -1.94848 0
M  V30 3350 H 334.051 -2.99519 -0.15114 0
M  V30 3351 H 331.604 -1.56245 -0.041287 0
M  V30 3352 H 332.339 -2.02497 -2.53309 0
M  V30 3353 H 332.124 -3.56009 -1.64316 0
M  V30 3354 H 333.614 -3.27475 -2.59133 0
M  V30 3355 N 334.051 0.0651679 -1.57465 0
M  V30 3356 C 334.961 1.09448 -2.07505 0
M  V30 3357 C 335.977 1.41974 -1.00595 0
M  V30 3358 O 337.153 1.52018 -1.32107 0
M  V30 3359 C 334.218 2.38689 -2.51453 0
M  V30 3360 C 333.279 2.13073 -3.72691 0
M  V30 3361 C 332.512 3.36152 -4.14533 0
M  V30 3362 O 332.735 4.45517 -3.56189 0
M  V30 3363 O 331.669 3.23974 -5.07272 0
M  V30 3364 H 335.495 0.69935 -2.95538 0
M  V30 3365 H 333.08 0.279752 -1.46757 0
M  V30 3366 H 334.962 3.14736 -2.80212 0
M  V30 3367 H 333.637 2.77568 -1.66546 0
M  V30 3368 H 332.544 1.34709 -3.49005 0
M  V30 3369 H 333.877 1.79071 -4.5847 0
M  V30 3370 N 335.529 1.53961 0.336706 0
M  V30 3371 C 336.769 1.73254 1.08454 0
M  V30 3372 C 337.133 0.488937 1.8567 0
M  V30 3373 O 338.334 0.559001 2.62923 0
M  V30 3374 C 336.605 2.96519 1.99528 0
M  V30 3375 S 338.164 3.36655 2.81441 0
M  V30 3376 H 334.982 0.609353 0.366347 0
M  V30 3377 H 337.584 1.92117 0.362124 0
M  V30 3378 H 336.288 3.85193 1.41614 0
M  V30 3379 H 335.819 2.80142 2.76196 0
M  V30 3380 H 337.834 2.90925 4.01967 0
M  V30 3381 N 337.007 -0.598083 1.45811 0
M  V30 3382 C 337.954 -1.7082 1.55207 0
M  V30 3383 C 338.924 -1.61278 0.39732 0
M  V30 3384 O 340.109 -1.80717 0.612038 0
M  V30 3385 C 337.249 -3.09144 1.53376 0
M  V30 3386 C 336.362 -3.29423 2.79472 0
M  V30 3387 C 335.497 -4.57907 2.69248 0
M  V30 3388 C 334.536 -4.71476 3.90354 0
M  V30 3389 N 333.673 -5.9127 3.78608 0
M  V30 3390 H 338.513 -1.62125 2.50039 0
M  V30 3391 H 336.05 -0.790389 1.24062 0
M  V30 3392 H 338.008 -3.89186 1.50301 0
M  V30 3393 H 336.638 -3.16773 0.620876 0
M  V30 3394 H 335.69 -2.43091 2.92594 0
M  V30 3395 H 337.002 -3.3532 3.69272 0
M  V30 3396 H 336.156 -5.46157 2.64192 0
M  V30 3397 H 334.895 -4.54423 1.77063 0
M  V30 3398 H 333.9 -3.81648 3.95759 0
M  V30 3399 H 335.125 -4.76751 4.83617 0
M  V30 3400 H 333.071 -5.88813 2.89199 0
M  V30 3401 H 332.988 -5.98369 4.6205 0
M  V30 3402 H 334.256 -6.81992 3.77501 0
M  V30 3403 N 338.485 -1.33259 -0.841409 0
M  V30 3404 C 339.448 -1.23221 -1.9326 0
M  V30 3405 C 340.448 -0.151895 -1.60081 0
M  V30 3406 O 341.638 -0.403246 -1.69468 0
M  V30 3407 C 338.77 -0.898123 -3.28856 0
M  V30 3408 H 339.963 -2.2021 -2.03587 0
M  V30 3409 H 337.516 -1.17281 -1.03319 0
M  V30 3410 H 338.251 0.0693841 -3.24226 0
M  V30 3411 H 338.036 -1.67934 -3.54317 0
M  V30 3412 H 339.526 -0.852563 -4.08805 0
M  V30 3413 N 339.963 1.05934 -1.16686 0
M  V30 3414 C 341.188 1.83029 -0.975455 0
M  V30 3415 C 341.613 1.82096 0.471452 0
M  V30 3416 O 340.971 1.22443 1.33706 0
M  V30 3417 C 341.019 3.27372 -1.51195 0
M  V30 3418 O 340.123 4.06054 -0.720701 0
M  V30 3419 H 339.464 0.566194 -0.346872 0
M  V30 3420 H 341.994 1.33541 -1.55009 0
M  V30 3421 H 342.004 3.78186 -1.53099 0
M  V30 3422 H 340.679 3.27366 -2.56523 0
M  V30 3423 H 339.256 3.64812 -0.772458 0
M  V30 3424 N 341.441 0.965919 1.2453 0
M  V30 3425 C 342.671 0.643451 1.96324 0
M  V30 3426 C 343.079 -0.790927 1.71875 0
M  V30 3427 O 342.422 -1.54208 0.998273 0
M  V30 3428 C 342.484 0.836078 3.49643 0
M  V30 3429 C 342.148 2.24975 3.97788 0
M  V30 3430 C 343.145 3.22735 4.07601 0
M  V30 3431 C 340.83 2.57697 4.31158 0
M  V30 3432 C 342.824 4.51303 4.50116 0
M  V30 3433 C 340.511 3.86492 4.73357 0
M  V30 3434 C 341.509 4.83107 4.828 0
M  V30 3435 O 341.197 6.09605 5.24058 0
M  V30 3436 H 340.929 0.239223 0.632257 0
M  V30 3437 H 343.483 1.29587 1.59362 0
M  V30 3438 H 341.713 0.12649 3.86493 0
M  V30 3439 H 343.402 0.512965 4.02646 0
M  V30 3440 H 344.168 2.98783 3.82039 0
M  V30 3441 H 340.047 1.83216 4.23028 0
M  V30 3442 H 343.591 5.26716 4.57401 0
M  V30 3443 H 339.488 4.10245 4.98366 0
M  V30 3444 H 340.256 6.13146 5.42213 0
M  V30 3445 N 342.919 -1.39368 0.735821 0
M  V30 3446 C 344.33 -1.83313 0.354015 0
M  V30 3447 C 344.681 -1.61461 -1.11466 0
M  V30 3448 O 343.806 -1.10621 -1.85989 0
M  V30 3449 C 344.401 -3.32781 0.635769 0
M  V30 3450 C 342.96 -3.75142 0.307448 0
M  V30 3451 C 342.107 -2.62358 0.897974 0
M  V30 3452 H 345.058 -1.28349 0.933398 0
M  V30 3453 H 345.079 -3.80388 -0.0921773 0
M  V30 3454 H 344.591 -3.48654 1.70476 0
M  V30 3455 H 342.692 -3.64857 -0.755674 0
M  V30 3456 H 342.805 -4.72532 0.790583 0
M  V30 3457 H 341.169 -2.52624 0.324551 0
M  V30 3458 H 341.952 -2.81036 1.97164 0
M  V30 3459 N 344.397 -0.483516 -1.5 0
M  V30 3460 C 345.645 0.067027 -2.01989 0
M  V30 3461 C 345.966 1.3909 -1.36671 0
M  V30 3462 O 345.236 1.88978 -0.516152 0
M  V30 3463 H 343.816 0.0277606 -0.746484 0
M  V30 3464 H 346.478 -0.636773 -1.84204 0
M  V30 3465 H 345.574 0.209484 -3.11396 0
M  V30 3466 N 345.875 1.56104 -0.216619 0
M  V30 3467 C 346.822 2.2007 0.695531 0
M  V30 3468 C 347.792 1.15471 1.19397 0
M  V30 3469 O 348.977 1.43807 1.25396 0
M  V30 3470 C 346.117 2.88073 1.90021 0
M  V30 3471 C 345.23 4.07253 1.44113 0
M  V30 3472 C 344.365 4.63052 2.603 0
M  V30 3473 C 343.404 5.74545 2.11103 0
M  V30 3474 N 342.541 6.24656 3.20545 0
M  V30 3475 H 347.381 2.97655 0.143327 0
M  V30 3476 H 344.918 1.46982 0.0589934 0
M  V30 3477 H 346.876 3.25681 2.60745 0
M  V30 3478 H 345.506 2.13015 2.42538 0
M  V30 3479 H 344.558 3.75164 0.628999 0
M  V30 3480 H 345.87 4.8783 1.04036 0
M  V30 3481 H 345.024 5.03078 3.39113 0
M  V30 3482 H 343.763 3.81628 3.03663 0
M  V30 3483 H 342.768 5.34027 1.3075 0
M  V30 3484 H 343.993 6.57801 1.68746 0
M  V30 3485 H 341.939 5.46148 3.63399 0
M  V30 3486 H 341.856 7.00343 2.84704 0
M  V30 3487 H 343.124 6.69338 3.99508 0
M  V30 3488 N 347.353 -0.0568162 1.57498 0
M  V30 3489 C 348.602 -0.752001 1.87157 0
M  V30 3490 C 348.915 -1.77978 0.811375 0
M  V30 3491 O 350.121 -2.52559 0.996293 0
M  V30 3492 C 348.577 -1.38844 3.3204 0
M  V30 3493 C 348.185 -0.398456 4.46225 0
M  V30 3494 C 349.929 -2.06512 3.70882 0
M  V30 3495 C 347.836 -1.04166 5.82154 0
M  V30 3496 H 346.766 -0.28461 0.698222 0
M  V30 3497 H 349.417 -0.00561272 1.83499 0
M  V30 3498 H 347.799 -2.1836 3.30356 0
M  V30 3499 H 348.973 0.367977 4.59328 0
M  V30 3500 H 347.288 0.174592 4.16034 0
M  V30 3501 H 349.885 -2.55437 4.6974 0
M  V30 3502 H 350.228 -2.87117 3.01445 0
M  V30 3503 H 350.761 -1.33808 3.7462 0
M  V30 3504 H 347.5 -0.275614 6.5492 0
M  V30 3505 H 347.02 -1.7786 5.72823 0
M  V30 3506 H 348.699 -1.55715 6.27982 0
M  V30 3507 N 348.832 -1.54138 -0.328536 0
M  V30 3508 C 350.06 -1.76062 -1.08673 0
M  V30 3509 C 350.475 -0.506852 -1.81869 0
M  V30 3510 O 349.832 0.522223 -1.74869 0
M  V30 3511 C 349.883 -2.95054 -2.08866 0
M  V30 3512 O 349.604 -4.15583 -1.38644 0
M  V30 3513 C 351.105 -3.2915 -2.96943 0
M  V30 3514 H 348.325 -0.587889 -0.323461 0
M  V30 3515 H 350.869 -2.0101 -0.376175 0
M  V30 3516 H 349.024 -2.72394 -2.75464 0
M  V30 3517 H 349.438 -4.82481 -2.05699 0
M  V30 3518 H 350.912 -4.15723 -3.63151 0
M  V30 3519 H 351.389 -2.461 -3.63774 0
M  V30 3520 H 351.995 -3.53871 -2.35914 0
M  V30 3521 N 350.31 0.590341 -1.46126 0
M  V30 3522 C 351.258 1.72105 -1.5647 0
M  V30 3523 C 352.252 1.63756 -0.433612 0
M  V30 3524 O 353.458 1.69342 -0.610194 0
M  V30 3525 H 349.833 0.568889 -0.491802 0
M  V30 3526 H 351.804 1.6051 -2.51553 0
M  V30 3527 C 350.553 3.10493 -1.56491 0
M  V30 3528 H 349.876 3.17583 -2.4286 0
M  V30 3529 H 351.316 3.8939 -1.67785 0
M  V30 3530 C 349.775 3.3563 -0.292231 0
M  V30 3531 O 350.305 3.96875 0.620739 0
M  V30 3532 N 348.511 2.90026 -0.182523 0
M  V30 3533 H 348.058 2.40367 -0.926356 0
M  V30 3534 H 348.016 3.07218 0.668152 0
M  V30 3535 N 351.788 1.33704 0.83433 0
M  V30 3536 C 353.013 1.28615 1.62705 0
M  V30 3537 C 353.438 -0.139242 1.87584 0
M  V30 3538 O 352.796 -1.09734 1.4432 0
M  V30 3539 C 352.844 2.07139 2.95171 0
M  V30 3540 O 351.948 1.4331 3.86699 0
M  V30 3541 H 351.289 0.44226 0.49528 0
M  V30 3542 H 353.819 1.76335 1.03766 0
M  V30 3543 H 353.829 2.18073 3.44831 0
M  V30 3544 H 352.504 3.10779 2.76386 0
M  V30 3545 H 351.081 1.4105 3.45195 0
M  V30 3546 N 353.266 -1.05314 1.17247 0
M  V30 3547 C 354.199 -2.12512 0.831507 0
M  V30 3548 C 355.177 -1.61351 -0.201168 0
M  V30 3549 O 356.361 -1.88317 -0.0829831 0
M  V30 3550 C 353.488 -3.37848 0.24015 0
M  V30 3551 C 352.534 -4.07832 1.24801 0
M  V30 3552 S 353.367 -4.56537 2.79882 0
M  V30 3553 C 354.523 -5.85122 2.22223 0
M  V30 3554 H 354.756 -2.41106 1.7394 0
M  V30 3555 H 352.289 -1.17896 0.996988 0
M  V30 3556 H 354.247 -4.10391 -0.0945588 0
M  V30 3557 H 352.908 -3.07392 -0.645668 0
M  V30 3558 H 352.101 -4.97883 0.78287 0
M  V30 3559 H 351.703 -3.41348 1.52831 0
M  V30 3560 H 353.995 -6.58408 1.59703 0
M  V30 3561 H 354.938 -6.36381 3.10523 0
M  V30 3562 H 355.346 -5.39626 1.65722 0
M  V30 3563 N 354.744 -0.972509 -1.24016 0
M  V30 3564 C 355.991 -0.637034 -1.92219 0
M  V30 3565 C 356.319 0.828418 -1.75976 0
M  V30 3566 O 355.574 1.61206 -1.10955 0
M  V30 3567 C 355.873 -0.963694 -3.44162 0
M  V30 3568 C 355.539 -2.41807 -3.80579 0
M  V30 3569 C 354.201 -2.81556 -3.9023 0
M  V30 3570 C 356.553 -3.36172 -3.98293 0
M  V30 3571 C 353.881 -4.14702 -4.15017 0
M  V30 3572 C 356.233 -4.68952 -4.24578 0
M  V30 3573 C 354.897 -5.08472 -4.32449 0
M  V30 3574 H 354.167 -0.233107 -0.703379 0
M  V30 3575 H 356.814 -1.2249 -1.47202 0
M  V30 3576 H 355.119 -0.29365 -3.90698 0
M  V30 3577 H 356.816 -0.682449 -3.9515 0
M  V30 3578 H 353.406 -2.09988 -3.73635 0
M  V30 3579 H 357.59 -3.06644 -3.90234 0
M  V30 3580 H 352.846 -4.4494 -4.19331 0
M  V30 3581 H 357.02 -5.42037 -4.37229 0
M  V30 3582 H 354.647 -6.11665 -4.51409 0
M  V30 3583 N 356.222 1.38976 -0.743202 0
M  V30 3584 C 357.462 2.02193 -0.29954 0
M  V30 3585 C 357.826 1.5771 1.09506 0
M  V30 3586 O 359.027 2.13184 1.63726 0
M  V30 3587 C 357.298 3.55077 -0.406822 0
M  V30 3588 S 358.857 4.38778 -0.0442109 0
M  V30 3589 H 355.675 0.701335 -0.116836 0
M  V30 3590 H 358.277 1.69651 -0.971529 0
M  V30 3591 H 356.981 3.84942 -1.42295 0
M  V30 3592 H 356.512 3.92383 0.282707 0
M  V30 3593 H 358.527 4.82222 1.16947 0
M  V30 3594 N 357.7 0.491464 1.49741 0
M  V30 3595 C 358.946 -0.0565092 2.02721 0
M  V30 3596 C 359.279 -1.37522 1.37118 0
M  V30 3597 O 358.554 -1.87866 0.503645 0
M  V30 3598 C 358.837 -0.219051 3.59433 0
M  V30 3599 C 358.69 1.12211 4.35579 0
M  V30 3600 C 360.009 -0.964157 4.29409 0
M  V30 3601 H 357.128 -0.0190627 0.736753 0
M  V30 3602 H 359.77 0.641021 1.7886 0
M  V30 3603 H 357.92 -0.813165 3.79895 0
M  V30 3604 H 359.592 1.75437 4.26637 0
M  V30 3605 H 357.835 1.71377 3.98513 0
M  V30 3606 H 358.506 0.961794 5.43556 0
M  V30 3607 H 360.982 -0.460378 4.13545 0
M  V30 3608 H 359.858 -1.04671 5.38828 0
M  V30 3609 H 360.119 -2.00563 3.93988 0
M  V30 3610 N 359.178 -1.55987 0.224894 0
M  V30 3611 C 360.426 -1.97998 -0.405099 0
M  V30 3612 C 360.747 -1.11387 -1.60056 0
M  V30 3613 O 360.017 -0.191645 -1.9496 0
M  V30 3614 H 358.597 -0.731235 -0.152658 0
M  V30 3615 H 361.259 -1.92279 0.318567 0
M  V30 3616 H 360.355 -3.03463 -0.729167 0
M  V30 3617 N 360.656 0.0484629 -1.57525 0
M  V30 3618 C 361.903 0.743125 -1.88372 0
M  V30 3619 C 362.231 1.76383 -0.819715 0
M  V30 3620 O 361.486 1.94855 0.181659 0
M  V30 3621 C 361.785 1.46632 -3.25935 0
M  V30 3622 C 361.451 0.583427 -4.4711 0
M  V30 3623 C 360.113 0.340191 -4.79996 0
M  V30 3624 C 362.465 -0.0273345 -5.21193 0
M  V30 3625 C 359.793 -0.522903 -5.84365 0
M  V30 3626 C 362.145 -0.878017 -6.26477 0
M  V30 3627 C 360.809 -1.1309 -6.5785 0
M  V30 3628 H 360.079 0.271929 -0.689301 0
M  V30 3629 H 362.726 0.00336166 -1.915 0
M  V30 3630 H 361.031 2.2789 -3.18706 0
M  V30 3631 H 362.728 2.00902 -3.47044 0
M  V30 3632 H 359.318 0.783151 -4.21384 0
M  V30 3633 H 363.502 0.147654 -4.9608 0
M  V30 3634 H 358.758 -0.727335 -6.07058 0
M  V30 3635 H 362.932 -1.35789 -6.83033 0
M  V30 3636 H 360.559 -1.80144 -7.38547 0
M  V30 3637 N 362.134 1.5431 0.320358 0
M  V30 3638 C 363.064 1.86912 1.3995 0
M  V30 3639 C 364.045 0.726211 1.53819 0
M  V30 3640 O 365.23 0.980233 1.67646 0
M  V30 3641 C 362.36 2.09932 2.7667 0
M  V30 3642 C 361.314 3.25776 2.77586 0
M  V30 3643 C 360.64 3.34173 4.17412 0
M  V30 3644 C 361.94 4.6335 2.41048 0
M  V30 3645 H 363.634 2.77292 1.12914 0
M  V30 3646 H 361.18 1.33421 0.541738 0
M  V30 3647 H 363.133 2.31324 3.52232 0
M  V30 3648 H 361.857 1.16304 3.0519 0
M  V30 3649 H 360.516 3.04276 2.04479 0
M  V30 3650 H 360.164 2.38098 4.43078 0
M  V30 3651 H 359.864 4.12033 4.18931 0
M  V30 3652 H 361.388 3.57803 4.94782 0
M  V30 3653 H 362.802 4.84602 3.06324 0
M  V30 3654 H 361.199 5.43782 2.53813 0
M  V30 3655 H 362.269 4.65381 1.36193 0
M  V30 3656 N 363.613 -0.582584 1.46437 0
M  V30 3657 C 364.523 -1.71949 1.59595 0
M  V30 3658 C 365.539 -1.67264 0.479443 0
M  V30 3659 O 366.715 -1.87171 0.743579 0
M  V30 3660 C 363.78 -3.08452 1.58298 0
M  V30 3661 C 362.841 -3.244 2.81182 0
M  V30 3662 C 362.074 -4.54391 2.79937 0
M  V30 3663 O 362.297 -5.38287 1.8869 0
M  V30 3664 O 361.231 -4.73588 3.71481 0
M  V30 3665 H 365.057 -1.63795 2.55744 0
M  V30 3666 H 362.642 -0.749643 1.29231 0
M  V30 3667 H 364.524 -3.89732 1.60271 0
M  V30 3668 H 363.199 -3.17043 0.653094 0
M  V30 3669 H 362.106 -2.42613 2.84763 0
M  V30 3670 H 363.439 -3.20699 3.7338 0
M  V30 3671 N 365.091 -1.34144 -0.827227 0
M  V30 3672 C 366.339 -1.26009 -1.58007 0
M  V30 3673 C 366.66 0.170971 -1.94249 0
M  V30 3674 O 365.93 1.10256 -1.61927 0
M  V30 3675 H 364.51 -0.463414 -0.585881 0
M  V30 3676 H 367.172 -1.68005 -0.987951 0
M  V30 3677 H 366.268 -1.86187 -2.50481 0
M  V30 3678 N 366.569 1.04691 -1.17803 0
M  V30 3679 C 367.817 1.7743 -0.967617 0
M  V30 3680 C 368.138 1.88359 0.504574 0
M  V30 3681 O 367.408 1.40402 1.36617 0
M  V30 3682 H 365.988 0.657242 -0.355024 0
M  V30 3683 H 368.65 1.2638 -1.48371 0
M  V30 3684 H 367.746 2.78924 -1.40027 0
M  V30 3685 N 368.047 0.979072 1.23499 0
M  V30 3686 C 368.994 0.517904 2.24914 0
M  V30 3687 C 369.964 -0.442525 1.60097 0
M  V30 3688 O 371.149 -0.350365 1.87556 0
M  V30 3689 C 368.289 -0.174813 3.44657 0
M  V30 3690 C 367.402 0.825721 4.24035 0
M  V30 3691 C 366.537 0.107946 5.3109 0
M  V30 3692 C 365.576 1.09778 6.02175 0
M  V30 3693 N 364.713 0.40925 7.00906 0
M  V30 3694 H 369.553 1.38751 2.63727 0
M  V30 3695 H 367.09 0.695303 1.2963 0
M  V30 3696 H 369.048 -0.593233 4.12961 0
M  V30 3697 H 367.678 -1.0083 3.06648 0
M  V30 3698 H 366.73 1.36253 3.55161 0
M  V30 3699 H 368.042 1.58005 4.73113 0
M  V30 3700 H 367.196 -0.367904 6.05583 0
M  V30 3701 H 365.935 -0.678994 4.8295 0
M  V30 3702 H 364.94 1.5844 5.26476 0
M  V30 3703 H 366.165 1.88536 6.52404 0
M  V30 3704 H 364.111 -0.358506 6.5502 0
M  V30 3705 H 364.028 1.10226 7.47921 0
M  V30 3706 H 365.296 -0.0442557 7.79487 0
M  V30 3707 N 369.525 -1.3858 0.750561 0
M  V30 3708 C 370.802 -1.94231 0.231009 0
M  V30 3709 C 371.182 -1.68611 -1.27018 0
M  V30 3710 O 370.53 -1.02296 -2.04323 0
M  V30 3711 C 370.74 -3.44123 0.581428 0
M  V30 3712 C 372.088 -4.2116 0.539389 0
M  V30 3713 O 373.112 -3.52391 0.519541 0
M  V30 3714 O 371.971 -5.43749 0.54765 0
M  V30 3715 H 369.065 -0.825639 0.0474263 0
M  V30 3716 H 371.611 -1.4799 0.830478 0
M  V30 3717 H 370.383 -3.56267 1.61833 0
M  V30 3718 H 370.006 -3.97573 -0.0462047 0
M  V30 3719 N 371.003 -0.499398 -1.49478 0
M  V30 3720 C 372.228 0.044722 -2.07352 0
M  V30 3721 C 372.653 1.30207 -1.35749 0
M  V30 3722 O 372.011 1.76516 -0.413732 0
M  V30 3723 C 372.059 0.283013 -3.59488 0
M  V30 3724 O 371.163 1.35804 -3.89398 0
M  V30 3725 H 370.504 -0.0255147 -0.66351 0
M  V30 3726 H 373.034 -0.698561 -1.92305 0
M  V30 3727 H 373.044 0.515007 -4.04737 0
M  V30 3728 H 371.719 -0.635636 -4.11014 0
M  V30 3729 H 370.296 1.11113 -3.55961 0
M  V30 3730 N 372.481 1.55866 -0.233164 0
M  V30 3731 C 373.721 2.00506 0.397078 0
M  V30 3732 C 374.085 1.1176 1.56121 0
M  V30 3733 O 375.286 1.45796 2.25825 0
M  V30 3734 C 373.557 3.4811 0.809601 0
M  V30 3735 S 375.116 4.14765 1.43231 0
M  V30 3736 H 371.934 0.699828 0.125547 0
M  V30 3737 H 374.536 1.92429 -0.345177 0
M  V30 3738 H 373.24 4.10373 -0.0471601 0
M  V30 3739 H 372.771 3.60085 1.58438 0
M  V30 3740 H 374.786 4.14914 2.7214 0
M  V30 3741 N 373.959 -0.0401083 1.57549 0
M  V30 3742 C 374.891 -1.07149 2.02612 0
M  V30 3743 C 375.904 -1.33126 0.937085 0
M  V30 3744 O 377.093 -1.30808 1.21456 0
M  V30 3745 C 374.193 -2.41561 2.37701 0
M  V30 3746 C 373.366 -2.35096 3.68848 0
M  V30 3747 C 372.425 -3.51867 3.91249 0
M  V30 3748 O 371.451 -3.3186 4.62447 0
M  V30 3749 N 372.653 -4.73351 3.36035 0
M  V30 3750 H 375.418 -0.687485 2.91708 0
M  V30 3751 H 372.979 -0.228248 1.60283 0
M  V30 3752 H 374.971 -3.18379 2.49833 0
M  V30 3753 H 373.541 -2.71846 1.54332 0
M  V30 3754 H 372.761 -1.4345 3.67173 0
M  V30 3755 H 374.049 -2.27908 4.54901 0
M  V30 3756 H 373.447 -4.92507 2.78304 0
M  V30 3757 H 372.004 -5.47572 3.53565 0
M  V30 3758 N 375.437 -1.54477 -0.31217 0
M  V30 3759 C 376.853 -1.45442 -0.657185 0
M  V30 3760 C 377.053 -0.63653 -1.91182 0
M  V30 3761 O 376.109 -0.139815 -2.52113 0
M  V30 3762 C 377.422 -2.89287 -0.82058 0
M  V30 3763 C 378.97 -2.9926 -0.917188 0
M  V30 3764 C 379.445 -4.44279 -1.11267 0
M  V30 3765 N 380.936 -4.4794 -1.17914 0
M  V30 3766 C 381.671 -5.57318 -1.34848 0
M  V30 3767 N 381.167 -6.76642 -1.48752 0
M  V30 3768 N 382.96 -5.44986 -1.37647 0
M  V30 3769 H 375.111 -2.06129 0.512313 0
M  V30 3770 H 377.374 -0.933088 0.167485 0
M  V30 3771 H 377.08 -3.51687 0.0302604 0
M  V30 3772 H 376.954 -3.36061 -1.71298 0
M  V30 3773 H 379.341 -2.36981 -1.75852 0
M  V30 3774 H 379.422 -2.558 -0.00101257 0
M  V30 3775 H 379.066 -5.07149 -0.27614 0
M  V30 3776 H 378.996 -4.85359 -2.04289 0
M  V30 3777 H 381.487 -3.61969 -1.08567 0
M  V30 3778 H 381.8 -7.55758 -1.61397 0
M  V30 3779 H 380.145 -6.79529 -1.45828 0
M  V30 3780 H 383.336 -4.50715 -1.26388 0
M  V30 3781 H 383.509 -6.3028 -1.50501 0
M  V30 3782 N 376.915 0.57481 -1.46744 0
M  V30 3783 C 378.192 1.3352 -1.4294 0
M  V30 3784 C 378.572 2.10775 -0.117009 0
M  V30 3785 O 377.92 2.09966 0.901474 0
M  V30 3786 C 378.13 2.25456 -2.66403 0
M  V30 3787 C 379.478 2.87035 -3.12883 0
M  V30 3788 O 380.502 2.35766 -2.67007 0
M  V30 3789 O 379.361 3.80179 -3.92589 0
M  V30 3790 H 376.455 0.600318 -0.568812 0
M  V30 3791 H 379.001 0.595171 -1.58921 0
M  V30 3792 H 377.773 1.67851 -3.53471 0
M  V30 3793 H 377.396 3.06785 -2.52921 0
M  V30 3794 N 378.394 1.34581 0.820102 0
M  V30 3795 C 379.619 1.30333 1.61332 0
M  V30 3796 C 380.044 -0.119339 1.87721 0
M  V30 3797 O 379.402 -1.08197 1.45475 0
M  V30 3798 C 379.45 2.10258 2.92957 0
M  V30 3799 O 378.554 1.47404 3.85157 0
M  V30 3800 H 377.895 0.447488 0.490561 0
M  V30 3801 H 380.425 1.77425 1.01889 0
M  V30 3802 H 380.435 2.21718 3.42498 0
M  V30 3803 H 379.11 3.13693 2.73074 0
M  V30 3804 H 377.687 1.44703 3.43679 0
M  V30 3805 N 379.872 -1.04064 1.18357 0
M  V30 3806 C 381.12 -1.76915 0.977013 0
M  V30 3807 C 381.441 -1.88624 -0.494577 0
M  V30 3808 O 380.711 -1.41125 -1.3587 0
M  V30 3809 H 379.291 -0.65535 0.358504 0
M  V30 3810 H 381.953 -1.25592 1.49039 0
M  V30 3811 H 381.049 -2.78178 1.41504 0
M  V30 3812 N 381.35 -0.985608 -1.22978 0
M  V30 3813 C 382.598 -0.656087 -1.91154 0
M  V30 3814 C 382.919 0.813561 -1.77218 0
M  V30 3815 O 382.189 1.58244 -1.1548 0
M  V30 3816 H 380.769 -0.239674 -0.707506 0
M  V30 3817 H 383.431 -1.25054 -1.49491 0
M  V30 3818 H 382.527 -0.912253 -2.9847 0
M  V30 3819 N 382.828 1.3818 -0.7579 0
M  V30 3820 C 384.239 1.82726 -0.383134 0
M  V30 3821 C 384.59 1.63214 1.08884 0
M  V30 3822 O 383.715 1.13566 1.84205 0
M  V30 3823 C 384.31 3.31728 -0.688631 0
M  V30 3824 C 382.869 3.74606 -0.367091 0
M  V30 3825 C 382.016 2.60896 -0.939599 0
M  V30 3826 H 384.967 1.26847 -0.953699 0
M  V30 3827 H 384.988 3.80487 0.0316492 0
M  V30 3828 H 384.5 3.45898 -1.76001 0
M  V30 3829 H 382.601 3.66013 0.697532 0
M  V30 3830 H 382.714 4.71215 -0.865658 0
M  V30 3831 H 381.078 2.52075 -0.3647 0
M  V30 3832 H 381.861 2.77864 -2.0161 0
M  V30 3833 N 384.306 0.507319 1.49211 0
M  V30 3834 C 385.552 -0.0350047 2.0277 0
M  V30 3835 C 385.885 -1.3606 1.38569 0
M  V30 3836 O 385.16 -1.87321 0.523542 0
M  V30 3837 C 385.443 -0.180916 3.59645 0
M  V30 3838 C 385.296 1.16825 4.34364 0
M  V30 3839 C 386.615 -0.918558 4.30407 0
M  V30 3840 H 383.734 -0.0112473 0.736914 0
M  V30 3841 H 386.376 0.659956 1.7817 0
M  V30 3842 H 384.526 -0.772826 3.80736 0
M  V30 3843 H 386.198 1.79952 4.24753 0
M  V30 3844 H 384.441 1.75594 3.96673 0
M  V30 3845 H 385.112 1.01939 5.42506 0
M  V30 3846 H 387.588 -0.41649 4.1401 0
M  V30 3847 H 386.464 -0.989505 5.39907 0
M  V30 3848 H 386.725 -1.96373 3.96093 0
M  V30 3849 N 385.784 -1.5574 0.241426 0
M  V30 3850 C 387.03 -1.99104 -0.385406 0
M  V30 3851 C 387.363 -1.1293 -1.57988 0
M  V30 3852 O 386.638 -0.191449 -1.93555 0
M  V30 3853 C 386.921 -3.51087 -0.800616 0
M  V30 3854 C 386.774 -4.48028 0.398874 0
M  V30 3855 C 388.093 -4.08015 -1.64959 0
M  V30 3856 H 385.212 -0.723848 -0.138614 0
M  V30 3857 H 387.854 -1.86903 0.341642 0
M  V30 3858 H 386.004 -3.61615 -1.4201 0
M  V30 3859 H 387.676 -4.49487 1.03726 0
M  V30 3860 H 385.919 -4.21077 1.04293 0
M  V30 3861 H 386.59 -5.51962 0.0651056 0
M  V30 3862 H 389.066 -4.00555 -1.12672 0
M  V30 3863 H 387.942 -5.14635 -1.90898 0
M  V30 3864 H 388.203 -3.56131 -2.61961 0
M  V30 3865 N 387.262 0.0317525 -1.57568 0
M  V30 3866 C 388.502 0.727979 -1.90997 0
M  V30 3867 C 388.866 1.72664 -0.839708 0
M  V30 3868 O 390.067 2.47092 -1.05825 0
M  V30 3869 C 388.338 1.38239 -3.29583 0
M  V30 3870 S 389.897 2.10814 -3.84841 0
M  V30 3871 H 386.715 0.241226 -0.668828 0
M  V30 3872 H 389.317 -0.0173037 -1.95492 0
M  V30 3873 H 388.021 0.642288 -4.05343 0
M  V30 3874 H 387.552 2.16628 -3.28384 0
M  V30 3875 H 389.567 3.3792 -3.63352 0
M  V30 3876 N 388.74 1.54641 0.303973 0
M  V30 3877 C 389.688 1.86137 1.39484 0
M  V30 3878 C 390.682 0.734854 1.52631 0
M  V30 3879 O 391.888 0.918803 1.54784 0
M  V30 3880 H 388.263 0.590324 0.465856 0
M  V30 3881 H 390.234 2.77324 1.10154 0
M  V30 3882 C 388.983 2.12274 2.75382 0
M  V30 3883 H 388.306 2.98429 2.66046 0
M  V30 3884 H 389.746 2.38254 3.5073 0
M  V30 3885 C 388.205 0.920365 3.24085 0
M  V30 3886 O 388.735 0.139377 4.01458 0
M  V30 3887 N 386.941 0.726566 2.81371 0
M  V30 3888 H 386.488 1.36332 2.18567 0
M  V30 3889 H 386.446 -0.0763799 3.14307 0
M  V30 3890 N 390.218 -0.567019 1.47046 0
M  V30 3891 C 391.466 -1.322 1.52864 0
M  V30 3892 C 391.787 -1.94088 0.188388 0
M  V30 3893 O 391.057 -1.7941 -0.786693 0
M  V30 3894 H 389.637 -0.490894 0.563056 0
M  V30 3895 H 392.299 -0.662879 1.83281 0
M  V30 3896 H 391.395 -2.12062 2.2899 0
M  V30 3897 N 391.696 -1.35014 -0.812953 0
M  V30 3898 C 392.628 -1.23262 -1.93233 0
M  V30 3899 C 393.641 -0.157371 -1.62038 0
M  V30 3900 O 394.83 -0.410096 -1.73725 0
M  V30 3901 C 391.93 -0.87392 -3.27438 0
M  V30 3902 C 391.103 -2.04622 -3.86586 0
M  V30 3903 C 390.162 -1.66432 -4.99186 0
M  V30 3904 O 389.188 -2.38222 -5.16951 0
M  V30 3905 N 390.39 -0.584248 -5.77552 0
M  V30 3906 H 393.155 -2.19699 -2.03844 0
M  V30 3907 H 390.716 -1.281 -0.99005 0
M  V30 3908 H 392.708 -0.600039 -4.00227 0
M  V30 3909 H 391.278 0.00057392 -3.126 0
M  V30 3910 H 390.498 -2.48427 -3.06068 0
M  V30 3911 H 391.786 -2.82999 -4.22835 0
M  V30 3912 H 391.184 0.0123526 -5.65699 0
M  V30 3913 H 389.741 -0.37013 -6.50748 0
M  V30 3914 N 393.175 1.03435 -1.18907 0
M  V30 3915 C 394.105 2.13503 -0.945448 0
M  V30 3916 C 395.086 1.69682 0.119189 0
M  V30 3917 O 396.271 1.94169 -0.034707 0
M  V30 3918 C 393.401 3.44004 -0.477316 0
M  V30 3919 C 392.355 4.0148 -1.48316 0
M  V30 3920 C 391.681 5.27537 -0.872311 0
M  V30 3921 C 392.981 4.36921 -2.86177 0
M  V30 3922 H 394.675 2.34141 -1.86597 0
M  V30 3923 H 392.221 1.12523 -0.898584 0
M  V30 3924 H 394.174 4.20372 -0.294204 0
M  V30 3925 H 392.898 3.23072 0.478786 0
M  V30 3926 H 391.557 3.27201 -1.65332 0
M  V30 3927 H 391.205 5.02917 0.0911752 0
M  V30 3928 H 390.905 5.66954 -1.54393 0
M  V30 3929 H 392.429 6.06576 -0.699871 0
M  V30 3930 H 393.843 5.04248 -2.72776 0
M  V30 3931 H 392.24 4.87405 -3.50081 0
M  V30 3932 H 393.31 3.46466 -3.39248 0
M  V30 3933 N 394.653 0.992116 1.22453 0
M  V30 3934 C 395.585 0.500024 2.23679 0
M  V30 3935 C 396.598 -0.404463 1.57696 0
M  V30 3936 O 397.787 -0.206722 1.77299 0
M  V30 3937 C 394.887 -0.294711 3.37616 0
M  V30 3938 C 394.06 0.605723 4.33186 0
M  V30 3939 C 393.119 -0.13717 5.26021 0
M  V30 3940 O 392.145 0.477164 5.67196 0
M  V30 3941 N 393.347 -1.4197 5.62872 0
M  V30 3942 H 396.112 1.37045 2.66531 0
M  V30 3943 H 393.673 0.866741 1.36745 0
M  V30 3944 H 395.665 -0.800329 3.96707 0
M  V30 3945 H 394.235 -1.06623 2.93854 0
M  V30 3946 H 393.455 1.29202 3.72425 0
M  V30 3947 H 394.743 1.21896 4.93983 0
M  V30 3948 H 394.141 -1.94015 5.31389 0
M  V30 3949 H 392.698 -1.87052 6.24383 0
M  V30 3950 N 396.131 -1.37776 0.765217 0
M  V30 3951 C 397.379 -1.99454 0.325943 0
M  V30 3952 C 397.7 -1.61049 -1.09947 0
M  V30 3953 O 396.97 -0.872821 -1.75381 0
M  V30 3954 H 395.55 -0.737697 0.117525 0
M  V30 3955 H 398.212 -1.68359 0.981895 0
M  V30 3956 H 397.308 -3.09547 0.398353 0
M  V30 3957 N 397.609 -0.515225 -1.4894 0
M  V30 3958 C 398.855 0.0242508 -2.02785 0
M  V30 3959 C 399.188 1.35323 -1.39289 0
M  V30 3960 O 398.463 1.87041 -0.533469 0
M  V30 3961 C 398.746 0.16184 -3.59736 0
M  V30 3962 C 398.599 -1.19127 -4.33738 0
M  V30 3963 C 399.918 0.895719 -4.30888 0
M  V30 3964 H 397.037 0.00733914 -0.736963 0
M  V30 3965 H 399.679 -0.669395 -1.77818 0
M  V30 3966 H 397.829 0.752624 -3.8114 0
M  V30 3967 H 399.501 -1.82202 -4.23792 0
M  V30 3968 H 397.744 -1.77695 -3.95736 0
M  V30 3969 H 398.415 -1.04815 -5.41957 0
M  V30 3970 H 400.891 0.394528 -4.14225 0
M  V30 3971 H 399.767 0.960859 -5.40425 0
M  V30 3972 H 400.028 1.9427 -3.97129 0
M  V30 3973 N 399.087 1.5561 -0.249682 0
M  V30 3974 C 400.333 1.99306 0.374841 0
M  V30 3975 C 400.666 1.13767 1.57387 0
M  V30 3976 O 399.941 0.201711 1.93451 0
M  V30 3977 C 400.224 3.51507 0.781986 0
M  V30 3978 C 400.077 4.4781 -0.422629 0
M  V30 3979 C 401.396 4.08884 1.62793 0
M  V30 3980 H 398.515 0.724572 0.134773 0
M  V30 3981 H 401.157 1.86719 -0.351549 0
M  V30 3982 H 399.307 3.62363 1.4009 0
M  V30 3983 H 400.979 4.48931 -1.06108 0
M  V30 3984 H 399.222 4.20518 -1.06524 0
M  V30 3985 H 399.893 5.51919 -0.0943766 0
M  V30 3986 H 402.369 4.01147 1.10547 0
M  V30 3987 H 401.245 5.1564 1.88166 0
M  V30 3988 H 401.506 3.57515 2.60068 0
M  V30 3989 N 400.565 -0.0233959 1.57583 0
M  V30 3990 C 401.79 -0.728376 1.94189 0
M  V30 3991 C 402.215 -1.67793 0.850119 0
M  V30 3992 O 401.573 -1.80262 -0.19371 0
M  V30 3993 C 401.621 -1.45669 3.29868 0
M  V30 3994 O 400.725 -2.57013 3.22518 0
M  V30 3995 H 400.066 -0.195493 0.63457 0
M  V30 3996 H 402.596 0.0228214 2.04587 0
M  V30 3997 H 402.606 -1.82535 3.6489 0
M  V30 3998 H 401.281 -0.760314 4.08891 0
M  V30 3999 H 399.858 -2.22648 2.99136 0
M  V30 4000 N 402.043 -1.548 -0.295768 0
M  V30 4001 C 403.289 -1.75517 -1.02789 0
M  V30 4002 C 403.644 -0.537266 -1.84746 0
M  V30 4003 O 402.937 0.470299 -1.85738 0
M  V30 4004 C 403.131 -2.98797 -1.961 0
M  V30 4005 C 402.96 -4.3246 -1.23321 0
M  V30 4006 C 401.73 -4.96131 -0.95822 0
M  V30 4007 C 403.928 -5.10365 -0.635024 0
M  V30 4008 N 401.91 -6.1357 -0.201257 0
M  V30 4009 C 403.281 -6.19999 -0.0110937 0
M  V30 4010 C 405.336 -4.94957 -0.540594 0
M  V30 4011 C 404.039 -7.15904 0.698136 0
M  V30 4012 C 406.065 -5.91197 0.154992 0
M  V30 4013 C 405.427 -7.00203 0.767752 0
M  V30 4014 H 401.526 -0.694786 -0.358882 0
M  V30 4015 H 404.11 -1.92281 -0.305943 0
M  V30 4016 H 402.281 -2.83448 -2.6554 0
M  V30 4017 H 404.013 -3.08017 -2.62502 0
M  V30 4018 H 400.768 -4.56595 -1.25771 0
M  V30 4019 H 401.192 -6.76802 0.16389 0
M  V30 4020 H 405.834 -4.10803 -1.00003 0
M  V30 4021 H 403.552 -7.99595 1.16933 0
M  V30 4022 H 407.138 -5.81353 0.228069 0
M  V30 4023 H 406.018 -7.73393 1.29743 0
M  V30 4024 N 403.521 0.559213 -1.47345 0
M  V30 4025 C 404.769 1.31388 -1.53563 0
M  V30 4026 C 405.09 1.93985 -0.198678 0
M  V30 4027 O 404.36 1.79825 0.777167 0
M  V30 4028 H 402.94 0.487901 -0.565652 0
M  V30 4029 H 405.602 0.65315 -1.8363 0
M  V30 4030 H 404.698 2.10844 -2.30111 0
M  V30 4031 N 404.999 1.35443 0.805782 0
M  V30 4032 C 405.949 1.24972 1.90699 0
M  V30 4033 C 406.933 0.144806 1.60247 0
M  V30 4034 O 408.125 0.376102 1.72958 0
M  V30 4035 C 405.254 1.02475 3.27649 0
M  V30 4036 C 404.34 2.17361 3.64164 0
M  V30 4037 N 404.731 3.42591 3.72109 0
M  V30 4038 C 403.029 2.08765 3.94123 0
M  V30 4039 C 403.73 4.18144 4.04389 0
M  V30 4040 N 402.706 3.4691 4.18515 0
M  V30 4041 H 406.508 2.19852 1.95044 0
M  V30 4042 H 404.022 1.27928 1.00041 0
M  V30 4043 H 406.019 0.930617 4.06381 0
M  V30 4044 H 404.679 0.0848009 3.24589 0
M  V30 4045 H 405.69 3.76932 3.55166 0
M  V30 4046 H 402.367 1.22629 3.99084 0
M  V30 4047 H 403.757 5.26367 4.17597 0
M  V30 4048 N 406.477 -1.02803 1.19454 0
M  V30 4049 C 407.725 -1.75869 0.995722 0
M  V30 4050 C 408.046 -1.89138 -0.474543 0
M  V30 4051 O 407.316 -1.42558 -1.34366 0
M  V30 4052 H 405.896 -0.651511 0.365435 0
M  V30 4053 H 408.558 -1.24004 1.50363 0
M  V30 4054 H 407.654 -2.76661 1.44447 0
M  V30 4055 N 407.956 -0.998596 -1.21925 0
M  V30 4056 C 409.196 -0.685948 -1.92546 0
M  V30 4057 C 409.56 0.768441 -1.75952 0
M  V30 4058 O 410.761 1.19277 -2.40887 0
M  V30 4059 C 409.032 -1.08767 -3.40448 0
M  V30 4060 S 410.591 -0.894251 -4.29591 0
M  V30 4061 H 407.409 -0.250622 -0.665364 0
M  V30 4062 H 410.011 -1.28207 -1.47591 0
M  V30 4063 H 408.715 -2.14242 -3.50041 0
M  V30 4064 H 408.246 -0.48357 -3.90417 0
M  V30 4065 H 410.261 0.212149 -4.95746 0
M  V30 4066 N 409.434 1.37368 -0.772513 0
M  V30 4067 C 410.397 2.28601 -0.165541 0
M  V30 4068 C 411.397 1.48062 0.627238 0
M  V30 4069 O 412.587 1.68268 0.450715 0
M  V30 4070 C 409.719 3.32023 0.772897 0
M  V30 4071 H 410.912 2.83787 -0.969787 0
M  V30 4072 H 408.465 1.46647 -0.540775 0
M  V30 4073 H 409.2 2.81962 1.60212 0
M  V30 4074 H 408.985 3.91555 0.206585 0
M  V30 4075 H 410.475 4.00197 1.19298 0
M  V30 4076 N 410.912 0.523116 1.48665 0
M  V30 4077 C 412.158 -0.00540031 2.03399 0
M  V30 4078 C 412.513 -1.3264 1.39372 0
M  V30 4079 O 411.806 -1.84184 0.527916 0
M  V30 4080 C 412 -0.191671 3.56886 0
M  V30 4081 C 411.829 1.10972 4.35793 0
M  V30 4082 C 410.599 1.66769 4.76987 0
M  V30 4083 C 412.797 2.01861 4.73029 0
M  V30 4084 N 410.779 2.91268 5.40404 0
M  V30 4085 C 412.15 3.10937 5.36394 0
M  V30 4086 C 414.205 2.02271 4.54962 0
M  V30 4087 C 412.908 4.20478 5.83601 0
M  V30 4088 C 414.934 3.10802 5.03146 0
M  V30 4089 C 414.296 4.18597 5.6653 0
M  V30 4090 H 410.395 0.0393531 0.781009 0
M  V30 4091 H 412.979 0.702876 1.8157 0
M  V30 4092 H 411.15 -0.869025 3.78553 0
M  V30 4093 H 412.882 -0.719177 3.98259 0
M  V30 4094 H 409.637 1.20996 4.57883 0
M  V30 4095 H 410.061 3.54635 5.76683 0
M  V30 4096 H 414.703 1.2023 4.05345 0
M  V30 4097 H 412.421 5.03303 6.32228 0
M  V30 4098 H 416.007 3.12166 4.90962 0
M  V30 4099 H 414.887 5.01193 6.03138 0
M  V30 4100 N 412.39 -1.55475 0.257931 0
M  V30 4101 C 413.337 -2.21837 -0.636939 0
M  V30 4102 C 414.307 -1.18596 -1.16294 0
M  V30 4103 O 415.492 -1.47081 -1.21539 0
M  V30 4104 C 412.632 -2.9301 -1.82317 0
M  V30 4105 C 411.745 -4.10931 -1.33265 0
M  V30 4106 C 410.88 -4.69791 -2.47931 0
M  V30 4107 C 409.919 -5.7994 -1.95796 0
M  V30 4108 N 409.056 -6.32935 -3.0387 0
M  V30 4109 H 413.896 -2.9793 -0.0643591 0
M  V30 4110 H 411.433 -1.47086 -0.0200031 0
M  V30 4111 H 413.391 -3.3248 -2.52018 0
M  V30 4112 H 412.021 -2.1937 -2.36805 0
M  V30 4113 H 411.073 -3.76699 -0.52931 0
M  V30 4114 H 412.385 -4.90417 -0.910654 0
M  V30 4115 H 411.539 -5.11892 -3.25656 0
M  V30 4116 H 410.278 -3.89545 -2.93438 0
M  V30 4117 H 409.283 -5.37305 -1.16546 0
M  V30 4118 H 410.508 -6.62043 -1.51246 0
M  V30 4119 H 408.454 -5.55591 -3.48791 0
M  V30 4120 H 408.371 -7.07645 -2.66035 0
M  V30 4121 H 409.639 -6.79695 -3.81621 0
M  V30 4122 N 413.868 0.0150385 -1.57593 0
M  V30 4123 C 414.816 1.02958 -2.08572 0
M  V30 4124 C 415.81 1.36554 -1.00246 0
M  V30 4125 O 417.016 1.35295 -1.18724 0
M  V30 4126 H 413.391 0.349619 -0.665786 0
M  V30 4127 H 415.362 0.573932 -2.92829 0
M  V30 4128 C 414.111 2.31752 -2.59203 0
M  V30 4129 H 413.434 2.06765 -3.42182 0
M  V30 4130 H 414.874 3.01053 -2.98568 0
M  V30 4131 C 413.333 3.01692 -1.49945 0
M  V30 4132 O 413.863 3.92083 -0.873704 0
M  V30 4133 N 412.069 2.6326 -1.23056 0
M  V30 4134 H 411.616 1.89838 -1.74125 0
M  V30 4135 H 411.574 3.10372 -0.501685 0
M  V30 4136 N 415.346 1.54954 0.287554 0
M  V30 4137 C 416.762 1.46469 0.633964 0
M  V30 4138 C 416.962 0.666865 1.90145 0
M  V30 4139 O 416.018 0.179906 2.51858 0
M  V30 4140 C 417.331 2.90556 0.774454 0
M  V30 4141 C 418.879 3.00681 0.869462 0
M  V30 4142 C 419.354 4.45993 1.04184 0
M  V30 4143 N 420.845 4.4976 1.10772 0
M  V30 4144 C 421.58 5.59393 1.25964 0
M  V30 4145 N 421.076 6.78923 1.37968 0
M  V30 4146 N 422.869 5.47107 1.28959 0
M  V30 4147 H 415.02 2.05288 -0.545041 0
M  V30 4148 H 417.283 0.930305 -0.182308 0
M  V30 4149 H 416.989 3.51594 -0.086207 0
M  V30 4150 H 416.863 3.38743 1.6593 0
M  V30 4151 H 419.25 2.39749 1.7206 0
M  V30 4152 H 419.331 2.55769 -0.0396831 0
M  V30 4153 H 418.975 5.07524 0.195422 0
M  V30 4154 H 418.905 4.88548 1.96542 0
M  V30 4155 H 421.396 3.63651 1.02794 0
M  V30 4156 H 421.709 7.58231 1.49353 0
M  V30 4157 H 420.054 6.81763 1.34999 0
M  V30 4158 H 423.245 4.52668 1.19202 0
M  V30 4159 H 423.418 6.32595 1.40455 0
M  V30 4160 N 416.824 -0.551391 1.4764 0
M  V30 4161 C 418.235 -1.13349 1.48354 0
M  V30 4162 C 418.586 -1.94709 0.241432 0
M  V30 4163 O 417.711 -2.06306 -0.653205 0
M  V30 4164 C 418.306 -2.0623 2.68802 0
M  V30 4165 C 416.865 -2.597 2.72457 0
M  V30 4166 C 416.012 -1.36201 2.41546 0
M  V30 4167 H 418.963 -0.337698 1.55065 0
M  V30 4168 H 418.984 -2.90196 2.46103 0
M  V30 4169 H 418.496 -1.46987 3.59188 0
M  V30 4170 H 416.597 -3.22724 1.86225 0
M  V30 4171 H 416.71 -3.00296 3.73308 0
M  V30 4172 H 415.074 -1.67068 1.9225 0
M  V30 4173 H 415.857 -0.787425 3.34147 0
M  V30 4174 N 418.302 -1.35869 -0.798587 0
M  V30 4175 C 419.55 -1.29332 -1.55298 0
M  V30 4176 C 419.871 0.129729 -1.94568 0
M  V30 4177 O 419.141 1.06796 -1.6423 0
M  V30 4178 H 417.721 -0.475737 -0.57592 0
M  V30 4179 H 420.383 -1.70062 -0.952093 0
M  V30 4180 H 419.479 -1.91458 -2.46476 0
M  V30 4181 N 419.78 1.02168 -1.19998 0
M  V30 4182 C 421.026 1.75945 -1.00852 0
M  V30 4183 C 421.359 1.88702 0.458828 0
M  V30 4184 O 420.634 1.40911 1.34069 0
M  V30 4185 C 420.917 3.18154 -1.68671 0
M  V30 4186 C 420.77 3.13224 -3.22817 0
M  V30 4187 C 422.089 4.16711 -1.41561 0
M  V30 4188 H 419.208 0.638673 -0.367785 0
M  V30 4189 H 421.85 1.19222 -1.4794 0
M  V30 4190 H 420 3.66586 -1.28636 0
M  V30 4191 H 421.672 2.72635 -3.72112 0
M  V30 4192 H 419.915 2.50751 -3.53986 0
M  V30 4193 H 420.586 4.13728 -3.65422 0
M  V30 4194 H 423.062 3.76913 -1.76284 0
M  V30 4195 H 421.938 5.14391 -1.91553 0
M  V30 4196 H 422.199 4.40774 -0.342193 0
M  V30 4197 N 421.258 1.00505 1.21394 0
M  V30 4198 C 422.488 0.705584 1.94178 0
M  V30 4199 C 422.896 -0.735846 1.74304 0
M  V30 4200 O 422.239 -1.50954 1.04683 0
M  V30 4201 C 422.301 0.94689 3.46806 0
M  V30 4202 C 421.965 2.37517 3.90429 0
M  V30 4203 C 422.962 3.35539 3.97127 0
M  V30 4204 C 420.647 2.71284 4.22742 0
M  V30 4205 C 422.641 4.65395 4.3553 0
M  V30 4206 C 420.328 4.01356 4.60822 0
M  V30 4207 C 421.326 4.98223 4.67186 0
M  V30 4208 O 421.014 6.25969 5.04399 0
M  V30 4209 H 420.746 0.259216 0.624326 0
M  V30 4210 H 423.3 1.34592 1.55159 0
M  V30 4211 H 421.53 0.249386 3.85895 0
M  V30 4212 H 423.219 0.640804 4.0081 0
M  V30 4213 H 423.985 3.10786 3.7234 0
M  V30 4214 H 419.864 1.96581 4.16985 0
M  V30 4215 H 423.408 5.41002 4.40412 0
M  V30 4216 H 419.305 4.25893 4.85063 0
M  V30 4217 H 420.073 6.30085 5.22431 0
M  V30 4218 N 422.737 -1.36956 0.779787 0
M  V30 4219 C 423.965 -2.03755 0.359398 0
M  V30 4220 C 424.38 -1.58807 -1.02106 0
M  V30 4221 O 423.737 -0.773024 -1.6532 0
M  V30 4222 C 423.788 -3.59251 0.402568 0
M  V30 4223 O 423.509 -4.02557 1.72858 0
M  V30 4224 C 425.01 -4.43291 -0.0284068 0
M  V30 4225 H 422.23 -0.654148 0.149437 0
M  V30 4226 H 424.774 -1.75128 1.05595 0
M  V30 4227 H 422.929 -3.86621 -0.245478 0
M  V30 4228 H 423.343 -4.97111 1.67275 0
M  V30 4229 H 424.817 -5.51975 0.0529466 0
M  V30 4230 H 425.294 -4.25719 -1.07982 0
M  V30 4231 H 425.9 -4.21163 0.591758 0
M  V30 4232 N 424.215 -0.530993 -1.48385 0
M  V30 4233 C 425.162 0.231223 -2.29639 0
M  V30 4234 C 426.132 0.932864 -1.37429 0
M  V30 4235 O 427.317 0.933692 -1.66394 0
M  V30 4236 C 424.457 1.27155 -3.2082 0
M  V30 4237 C 423.57 0.578655 -4.28107 0
M  V30 4238 C 422.705 1.602 -5.06467 0
M  V30 4239 C 421.744 0.892625 -6.05556 0
M  V30 4240 N 420.881 1.86157 -6.76971 0
M  V30 4241 H 425.721 -0.467848 -2.94305 0
M  V30 4242 H 423.258 -0.242556 -1.45086 0
M  V30 4243 H 425.216 1.88703 -3.72085 0
M  V30 4244 H 423.846 1.939 -2.58075 0
M  V30 4245 H 422.898 -0.150782 -3.80101 0
M  V30 4246 H 424.21 0.0217065 -4.98795 0
M  V30 4247 H 423.364 2.29173 -5.61751 0
M  V30 4248 H 422.103 2.19285 -4.35621 0
M  V30 4249 H 421.108 0.188829 -5.49476 0
M  V30 4250 H 422.333 0.307878 -6.78402 0
M  V30 4251 H 420.279 2.44147 -6.08875 0
M  V30 4252 H 420.196 1.35608 -7.43738 0
M  V30 4253 H 421.464 2.54325 -7.36844 0
M  V30 4254 N 425.693 1.55336 -0.266172 0
M  V30 4255 C 426.939 1.99692 0.353681 0
M  V30 4256 C 427.272 1.1543 1.56172 0
M  V30 4257 O 426.547 0.222218 1.93226 0
M  V30 4258 C 426.83 3.52316 0.74466 0
M  V30 4259 C 426.683 4.47337 -0.470101 0
M  V30 4260 C 428.002 4.10588 1.58447 0
M  V30 4261 H 425.121 0.725961 0.12708 0
M  V30 4262 H 427.763 1.86336 -0.371333 0
M  V30 4263 H 425.913 3.63829 1.36239 0
M  V30 4264 H 427.585 4.4778 -1.10864 0
M  V30 4265 H 425.828 4.19364 -1.10978 0
M  V30 4266 H 426.499 5.51788 -0.15291 0
M  V30 4267 H 428.975 4.02297 1.06286 0
M  V30 4268 H 427.851 5.17607 1.82686 0
M  V30 4269 H 428.112 3.60253 2.56262 0
M  V30 4270 N 427.171 -0.0066808 1.57599 0
M  V30 4271 C 428.401 -0.703066 1.94269 0
M  V30 4272 C 428.809 -1.68206 0.866222 0
M  V30 4273 O 428.152 -1.82966 -0.164087 0
M  V30 4274 C 428.214 -1.49616 3.26887 0
M  V30 4275 C 427.878 -0.679494 4.5192 0
M  V30 4276 C 428.875 0.0299508 5.19891 0
M  V30 4277 C 426.56 -0.627433 4.98366 0
M  V30 4278 C 428.554 0.780514 6.32603 0
M  V30 4279 C 426.241 0.126861 6.10968 0
M  V30 4280 C 427.239 0.829574 6.77943 0
M  V30 4281 O 426.927 1.57157 7.88389 0
M  V30 4282 H 426.659 -0.201217 0.645359 0
M  V30 4283 H 429.213 0.0385326 2.05364 0
M  V30 4284 H 427.443 -2.28209 3.12182 0
M  V30 4285 H 429.132 -2.07726 3.48719 0
M  V30 4286 H 429.898 -0.00115963 4.85 0
M  V30 4287 H 425.777 -1.16392 4.46065 0
M  V30 4288 H 429.321 1.32954 6.84813 0
M  V30 4289 H 425.218 0.159815 6.45302 0
M  V30 4290 H 425.986 1.48758 8.04868 0
M  V30 4291 N 428.649 -1.55105 -0.279332 0
M  V30 4292 C 429.597 -1.88333 -1.36505 0
M  V30 4293 C 430.591 -0.759043 -1.51443 0
M  V30 4294 O 431.797 -0.943312 -1.53302 0
M  V30 4295 H 428.172 -0.59766 -0.456406 0
M  V30 4296 H 430.143 -2.79041 -1.05728 0
M  V30 4297 C 428.892 -2.16628 -2.7197 0
M  V30 4298 H 428.215 -3.02624 -2.61264 0
M  V30 4299 H 429.655 -2.43803 -3.46895 0
M  V30 4300 C 428.114 -0.971807 -3.22579 0
M  V30 4301 O 428.644 -0.203228 -4.01186 0
M  V30 4302 N 426.85 -0.771238 -2.80179 0
M  V30 4303 H 426.397 -1.39792 -2.1637 0
M  V30 4304 H 426.355 0.0263667 -3.14389 0
M  V30 4305 N 430.127 0.543554 -1.4793 0
M  V30 4306 C 431.357 1.32324 -1.58663 0
M  V30 4307 C 431.765 1.8766 -0.240896 0
M  V30 4308 O 431.108 1.66411 0.778011 0
M  V30 4309 C 431.17 2.52094 -2.56299 0
M  V30 4310 C 430.834 2.17944 -4.01683 0
M  V30 4311 C 431.831 1.74422 -4.89768 0
M  V30 4312 C 429.516 2.28884 -4.47121 0
M  V30 4313 C 431.51 1.42287 -6.21316 0
M  V30 4314 C 429.197 1.96361 -5.78693 0
M  V30 4315 C 430.195 1.53132 -6.65612 0
M  V30 4316 O 429.883 1.21029 -7.94737 0
M  V30 4317 H 429.615 0.409174 -0.538101 0
M  V30 4318 H 432.169 0.663887 -1.94375 0
M  V30 4319 H 430.399 3.20965 -2.15681 0
M  V30 4320 H 432.088 3.14165 -2.57012 0
M  V30 4321 H 432.854 1.65452 -4.55907 0
M  V30 4322 H 428.733 2.61488 -3.79664 0
M  V30 4323 H 432.277 1.08472 -6.89115 0
M  V30 4324 H 428.174 2.04967 -6.12094 0
M  V30 4325 H 428.942 1.34543 -8.07366 0
M  V30 4326 N 431.605 1.3629 0.791371 0
M  V30 4327 C 432.851 1.30605 1.55146 0
M  V30 4328 C 433.184 -0.115042 1.93859 0
M  V30 4329 O 432.459 -1.06798 1.62556 0
M  V30 4330 C 432.742 2.22692 2.82985 0
M  V30 4331 C 432.595 3.73489 2.50651 0
M  V30 4332 C 433.914 2.13588 3.84796 0
M  V30 4333 H 431.033 0.475761 0.562868 0
M  V30 4334 H 433.675 1.66825 0.909358 0
M  V30 4335 H 431.825 1.91933 3.37778 0
M  V30 4336 H 433.497 4.14758 2.01924 0
M  V30 4337 H 431.74 3.93021 1.83622 0
M  V30 4338 H 432.411 4.3333 3.41949 0
M  V30 4339 H 434.887 2.40659 3.39445 0
M  V30 4340 H 433.763 2.80195 4.71998 0
M  V30 4341 H 434.024 1.12256 4.27611 0
M  V30 4342 N 433.083 -1.0153 1.20538 0
M  V30 4343 C 434.36 -1.72327 0.925343 0
M  V30 4344 C 434.74 -2.03383 -0.565547 0
M  V30 4345 O 434.088 -1.69934 -1.52757 0
M  V30 4346 C 434.298 -2.9902 1.79967 0
M  V30 4347 C 435.646 -3.72258 2.04228 0
M  V30 4348 O 436.67 -3.08979 1.77231 0
M  V30 4349 O 435.529 -4.86053 2.4983 0
M  V30 4350 H 432.623 -0.751099 0.346092 0
M  V30 4351 H 435.169 -1.07366 1.31417 0
M  V30 4352 H 433.941 -2.72402 2.80915 0
M  V30 4353 H 433.564 -3.71721 1.41099 0
M  V30 4354 N 434.561 -1.01147 -1.20859 0
M  V30 4355 C 435.807 -0.708598 -1.90658 0
M  V30 4356 C 436.162 0.753069 -1.7705 0
M  V30 4357 O 435.455 1.53952 -1.14059 0
M  V30 4358 C 435.649 -1.0727 -3.40922 0
M  V30 4359 C 435.478 -2.56821 -3.69152 0
M  V30 4360 C 434.248 -3.23524 -3.8815 0
M  V30 4361 C 436.446 -3.54997 -3.72131 0
M  V30 4362 N 434.428 -4.62359 -4.03853 0
M  V30 4363 C 435.799 -4.79371 -3.93196 0
M  V30 4364 C 437.854 -3.49042 -3.55069 0
M  V30 4365 C 436.557 -5.98512 -3.98969 0
M  V30 4366 C 438.583 -4.67579 -3.6211 0
M  V30 4367 C 437.945 -5.9076 -3.83643 0
M  V30 4368 H 434.044 -0.31088 -0.71755 0
M  V30 4369 H 436.628 -1.29526 -1.45366 0
M  V30 4370 H 434.799 -0.51443 -3.84978 0
M  V30 4371 H 436.531 -0.723891 -3.98173 0
M  V30 4372 H 433.286 -2.73958 -3.86321 0
M  V30 4373 H 433.71 -5.34427 -4.15592 0
M  V30 4374 H 438.352 -2.54808 -3.37391 0
M  V30 4375 H 436.07 -6.93132 -4.15444 0
M  V30 4376 H 439.656 -4.64581 -3.50222 0
M  V30 4377 H 438.536 -6.8095 -3.88944 0
M  V30 4378 N 436.039 1.36541 -0.78704 0
M  V30 4379 C 437.288 1.98552 -0.35494 0
M  V30 4380 C 437.601 1.63171 1.07864 0
M  V30 4381 O 438.807 2.18399 1.61289 0
M  V30 4382 C 437.263 3.55136 -0.583671 0
M  V30 4383 C 436.871 3.99444 -2.02851 0
M  V30 4384 C 438.615 4.2395 -0.215957 0
M  V30 4385 C 436.522 5.48796 -2.20403 0
M  V30 4386 H 435.452 0.742888 -0.128972 0
M  V30 4387 H 438.103 1.5587 -0.968337 0
M  V30 4388 H 436.485 3.95875 0.0994046 0
M  V30 4389 H 437.659 3.6991 -2.74779 0
M  V30 4390 H 435.974 3.43459 -2.35425 0
M  V30 4391 H 438.571 5.33709 -0.325405 0
M  V30 4392 H 438.914 4.07827 0.835646 0
M  V30 4393 H 439.447 3.88565 -0.852175 0
M  V30 4394 H 436.186 5.69864 -3.23937 0
M  V30 4395 H 435.706 5.79964 -1.52977 0
M  V30 4396 H 437.385 6.14986 -2.01002 0
M  V30 4397 N 437.518 0.538854 1.48102 0
M  V30 4398 C 438.465 -0.219042 2.29758 0
M  V30 4399 C 439.435 -0.925562 1.37922 0
M  V30 4400 O 440.62 -0.924855 1.66886 0
M  V30 4401 C 437.76 -1.25452 3.2149 0
M  V30 4402 C 436.873 -0.555943 4.28408 0
M  V30 4403 C 436.008 -1.57512 5.0731 0
M  V30 4404 C 435.047 -0.860498 6.06021 0
M  V30 4405 N 434.184 -1.82564 6.77949 0
M  V30 4406 H 439.024 0.483449 2.94052 0
M  V30 4407 H 436.561 0.250247 1.44956 0
M  V30 4408 H 438.519 -1.86727 3.7308 0
M  V30 4409 H 437.149 -1.92528 2.591 0
M  V30 4410 H 436.201 0.170938 3.80016 0
M  V30 4411 H 437.513 0.00474616 4.988 0
M  V30 4412 H 436.667 -2.26191 5.62959 0
M  V30 4413 H 435.406 -2.16972 4.36778 0
M  V30 4414 H 434.411 -0.159686 5.49568 0
M  V30 4415 H 435.636 -0.271897 6.78555 0
M  V30 4416 H 433.582 -2.40915 6.10161 0
M  V30 4417 H 433.499 -1.31662 7.44447 0
M  V30 4418 H 434.767 -2.50414 7.38182 0
M  V30 4419 N 438.996 -1.55193 0.274407 0
M  V30 4420 C 440.273 -1.91584 -0.394331 0
M  V30 4421 C 440.653 -1.19858 -1.73774 0
M  V30 4422 O 440.001 -0.3252 -2.26174 0
M  V30 4423 C 440.211 -3.4487 -0.535311 0
M  V30 4424 C 441.559 -4.16636 -0.818534 0
M  V30 4425 O 442.583 -3.5076 -0.620146 0
M  V30 4426 O 441.442 -5.33209 -1.19792 0
M  V30 4427 H 438.536 -0.798349 -0.215794 0
M  V30 4428 H 441.082 -1.66646 0.320507 0
M  V30 4429 H 439.854 -3.89145 0.410141 0
M  V30 4430 H 439.477 -3.75759 -1.29964 0
M  V30 4431 N 440.474 -0.00167713 -1.576 0
M  V30 4432 C 441.702 0.693759 -1.94922 0
M  V30 4433 C 442.117 1.67215 -0.876626 0
M  V30 4434 O 441.474 1.81929 0.144279 0
M  V30 4435 C 441.525 1.42416 -3.32265 0
M  V30 4436 O 441.246 0.485014 -4.35407 0
M  V30 4437 C 442.747 2.21395 -3.84056 0
M  V30 4438 H 439.967 0.193118 -0.642609 0
M  V30 4439 H 442.511 -0.0532952 -2.04431 0
M  V30 4440 H 440.666 2.12284 -3.24059 0
M  V30 4441 H 441.08 1.00053 -5.14868 0
M  V30 4442 H 442.554 2.67996 -4.82578 0
M  V30 4443 H 443.031 3.04142 -3.16851 0
M  V30 4444 H 443.637 1.56542 -3.95443 0
M  V30 4445 N 441.952 1.55251 0.271103 0
M  V30 4446 C 443.201 1.75151 1.00025 0
M  V30 4447 C 443.514 0.561041 1.87381 0
M  V30 4448 O 444.72 0.642506 2.63788 0
M  V30 4449 C 443.176 3.09999 1.82835 0
M  V30 4450 C 442.784 4.3662 1.00336 0
M  V30 4451 C 444.528 3.39249 2.55168 0
M  V30 4452 C 442.435 5.62506 1.82595 0
M  V30 4453 H 441.365 0.652877 0.377183 0
M  V30 4454 H 444.016 1.81708 0.255843 0
M  V30 4455 H 442.398 2.97485 2.61378 0
M  V30 4456 H 443.572 4.60055 0.261959 0
M  V30 4457 H 441.887 4.14527 0.394486 0
M  V30 4458 H 444.484 4.3051 3.1712 0
M  V30 4459 H 444.827 2.59467 3.2555 0
M  V30 4460 H 445.36 3.52869 1.83653 0
M  V30 4461 H 442.099 6.45041 1.16631 0
M  V30 4462 H 441.619 5.43211 2.54327 0
M  V30 4463 H 443.298 6.00875 2.39913 0
M  V30 4464 N 443.43 -0.535701 1.48216 0
M  V30 4465 C 444.393 -1.623 1.61838 0
M  V30 4466 C 445.393 -1.53087 0.492024 0
M  V30 4467 O 446.583 -1.5686 0.757668 0
M  V30 4468 C 443.715 -3.01907 1.58319 0
M  V30 4469 H 444.908 -1.51564 2.58783 0
M  V30 4470 H 442.461 -0.757317 1.36727 0
M  V30 4471 H 443.196 -3.18155 0.628299 0
M  V30 4472 H 442.981 -3.10003 2.40085 0
M  V30 4473 H 444.471 -3.80969 1.71033 0
M  V30 4474 N 444.908 -1.36708 -0.784132 0
M  V30 4475 C 445.871 -1.31307 -1.87859 0
M  V30 4476 C 446.871 -0.219654 -1.59293 0
M  V30 4477 O 448.061 -0.47476 -1.67606 0
M  V30 4478 C 445.193 -1.03679 -3.24751 0
M  V30 4479 H 446.386 -2.28647 -1.94064 0
M  V30 4480 H 443.939 -1.21558 -0.98252 0
M  V30 4481 H 444.674 -0.0681936 -3.24228 0
M  V30 4482 H 444.459 -1.82811 -3.46876 0
M  V30 4483 H 445.949 -1.02518 -4.04821 0
M  V30 4484 N 446.386 1.0089 -1.21074 0
M  V30 4485 C 447.334 2.11707 -0.963476 0
M  V30 4486 C 448.328 1.69172 0.0879032 0
M  V30 4487 O 449.534 1.79889 -0.0631415 0
M  V30 4488 H 445.909 0.692026 -0.294287 0
M  V30 4489 H 447.88 2.29743 -1.90422 0
M  V30 4490 C 446.629 3.43473 -0.540509 0
M  V30 4491 H 445.952 3.76634 -1.34114 0
M  V30 4492 H 447.392 4.22044 -0.406777 0
M  V30 4493 C 445.851 3.2849 0.748079 0
M  V30 4494 O 446.381 3.58883 1.8046 0
M  V30 4495 N 444.587 2.81715 0.713081 0
M  V30 4496 H 444.134 2.5718 -0.146973 0
M  V30 4497 H 444.092 2.72071 1.57558 0
M  V30 4498 N 447.864 1.01787 1.20321 0
M  V30 4499 C 449.089 0.727009 1.9424 0
M  V30 4500 C 449.514 -0.706179 1.74341 0
M  V30 4501 O 448.872 -1.48609 1.03852 0
M  V30 4502 C 448.92 1.06958 3.44372 0
M  V30 4503 O 448.024 0.181983 4.11998 0
M  V30 4504 H 447.365 0.269626 0.606793 0
M  V30 4505 H 449.895 1.36158 1.52716 0
M  V30 4506 H 449.905 1.02182 3.94997 0
M  V30 4507 H 448.58 2.11378 3.58179 0
M  V30 4508 H 447.157 0.287378 3.71791 0
M  V30 4509 O 449.381 -1.32008 0.930387 0
M  V30 4510 H 450.072 -1.85615 0.553775 0
M  V30 END ATOM
M  V30 BEGIN BOND
M  V30 END BOND
M  V30 END CTAB
M  END
$$$$
