drugbank_target|Q9KWT5 AlgQ2 (DB01982; DB02734; DB03652)
 OpenBabel12092120233D

  0  0  0     0  0            999 V3000
M  V30 BEGIN CTAB
M  V30 COUNTS 8319 8441 0 0 0
M  V30 BEGIN ATOM
M  V30 1 H -0.908 1.98254 -0.117106 0
M  V30 2 N 0 1.576 0 0
M  V30 3 C 0.933 2.03868 1.02534 0
M  V30 4 C 1.911 0.928543 1.3348 0
M  V30 5 O 3.095 1.19667 1.45644 0
M  V30 6 C 0.222 2.43627 2.35294 0
M  V30 7 C -0.732 3.65373 2.2001 0
M  V30 8 S 0.101 5.13292 1.52614 0
M  V30 9 C 1.257 5.56322 2.86805 0
M  V30 10 H 1.49 2.90518 0.631377 0
M  V30 11 H -0.977 1.52953 0.210867 0
M  V30 12 H 0.981 2.67203 3.11629 0
M  V30 13 H -0.358 1.57376 2.7183 0
M  V30 14 H -1.165 3.90944 3.18086 0
M  V30 15 H -1.563 3.418 1.51819 0
M  V30 16 H 0.729 5.58782 3.83104 0
M  V30 17 H 1.672 6.56266 2.65933 0
M  V30 18 H 2.08 4.83886 2.90714 0
M  V30 19 N 1.4781 -0.272755 1.55222 0
M  V30 20 C 2.4251 -1.33716 1.88119 0
M  V30 21 C 3.3951 -1.49066 0.73271 0
M  V30 22 O 4.5801 -1.63469 0.984002 0
M  V30 23 C 1.7201 -2.69238 2.15882 0
M  V30 24 C 0.8331 -2.62108 3.43399 0
M  V30 25 C -0.0319 -3.89811 3.60861 0
M  V30 26 C -0.9929 -3.77193 4.8207 0
M  V30 27 N -1.8559 -4.9673 4.96189 0
M  V30 28 H 2.9841 -1.04962 2.78903 0
M  V30 29 H 0.5211 -0.507088 1.38083 0
M  V30 30 H 2.4791 -3.48089 2.29978 0
M  V30 31 H 1.1091 -2.96194 1.28331 0
M  V30 32 H 0.1611 -1.74967 3.37773 0
M  V30 33 H 1.4731 -2.48685 4.32386 0
M  V30 34 H 0.6271 -4.77103 3.74777 0
M  V30 35 H -0.6339 -4.06102 2.7006 0
M  V30 36 H -1.6289 -2.88284 4.68159 0
M  V30 37 H -0.4039 -3.62421 5.74307 0
M  V30 38 H -2.4579 -5.13431 4.08319 0
M  V30 39 H -2.5409 -4.85839 5.79221 0
M  V30 40 H -1.2729 -5.85594 5.1449 0
M  V30 41 N 2.9562 -1.48159 -0.537278 0
M  V30 42 C 3.9032 -1.62138 -1.64256 0
M  V30 43 C 4.8732 -0.463668 -1.59497 0
M  V30 44 O 6.0582 -0.686241 -1.78032 0
M  V30 45 C 3.1982 -1.66028 -3.02537 0
M  V30 46 C 2.3112 -2.92855 -3.17585 0
M  V30 47 C 1.4462 -2.87952 -4.46382 0
M  V30 48 C 0.4852 -4.09516 -4.54932 0
M  V30 49 N -0.3778 -4.02733 -5.75109 0
M  V30 50 H 4.4622 -2.56529 -1.51647 0
M  V30 51 H 1.9992 -1.27224 -0.738414 0
M  V30 52 H 3.9572 -1.66265 -3.82638 0
M  V30 53 H 2.5872 -0.751331 -3.13934 0
M  V30 54 H 1.6392 -3.02395 -2.30784 0
M  V30 55 H 2.9512 -3.82822 -3.19764 0
M  V30 56 H 2.1052 -2.8655 -5.34765 0
M  V30 57 H 0.8442 -1.95702 -4.46712 0
M  V30 58 H -0.1508 -4.11201 -3.64957 0
M  V30 59 H 1.0742 -5.02917 -4.56346 0
M  V30 60 H -0.9798 -3.13299 -5.76351 0
M  V30 61 H -1.0628 -4.86397 -5.78752 0
M  V30 62 H 0.2052 -4.05379 -6.65799 0
M  V30 63 N 4.4343 0.785586 -1.36625 0
M  V30 64 C 5.3673 1.90509 -1.25625 0
M  V30 65 C 6.3453 1.62 -0.139607 0
M  V30 66 O 7.5293 1.8591 -0.31141 0
M  V30 67 C 4.6563 3.25419 -0.939158 0
M  V30 68 C 3.7023 3.72856 -2.07077 0
M  V30 69 S 4.5353 3.88162 -3.68904 0
M  V30 70 C 5.6913 5.25942 -3.39317 0
M  V30 71 H 5.9243 1.99549 -2.20381 0
M  V30 72 H 3.4573 0.945226 -1.22085 0
M  V30 73 H 5.4153 4.03346 -0.763029 0
M  V30 74 H 4.0763 3.14099 -0.00931402 0
M  V30 75 H 3.2693 4.70624 -1.80357 0
M  V30 76 H 2.8713 3.01989 -2.20632 0
M  V30 77 H 5.1633 6.10651 -2.93447 0
M  V30 78 H 6.1063 5.57668 -4.36363 0
M  V30 79 H 6.5143 4.93224 -2.74573 0
M  V30 80 N 5.9124 1.20967 1.01018 0
M  V30 81 C 6.8454 0.907578 2.09376 0
M  V30 82 C 7.8234 -0.142868 1.61971 0
M  V30 83 O 9.0074 -0.0150391 1.88494 0
M  V30 84 C 6.1344 0.361791 3.36762 0
M  V30 85 C 5.1804 1.39423 4.03068 0
M  V30 86 S 6.0134 2.96159 4.4615 0
M  V30 87 C 7.1694 2.43173 5.7673 0
M  V30 88 H 7.4024 1.82519 2.34678 0
M  V30 89 H 4.9354 1.03884 1.14225 0
M  V30 90 H 6.8934 0.0534523 4.10465 0
M  V30 91 H 5.5544 -0.53443 3.0952 0
M  V30 92 H 4.7474 0.961853 4.94737 0
M  V30 93 H 4.3494 1.65038 3.35617 0
M  V30 94 H 6.6414 1.83335 6.52223 0
M  V30 95 H 7.5844 3.33264 6.24773 0
M  V30 96 H 7.9924 1.85069 5.33301 0
M  V30 97 N 7.3905 -1.2043 1.01659 0
M  V30 98 C 8.3205 -2.25466 0.607226 0
M  V30 99 C 9.3015 -1.65853 -0.377716 0
M  V30 100 O 10.4865 -1.92409 -0.263149 0
M  V30 101 C 7.6165 -3.47256 -0.0552949 0
M  V30 102 C 6.5705 -4.19462 0.850632 0
M  V30 103 C 5.8965 -5.34673 0.0538859 0
M  V30 104 C 7.1965 -4.75603 2.15868 0
M  V30 105 H 8.8905 -2.59962 1.48526 0
M  V30 106 H 6.4365 -1.2496 0.715605 0
M  V30 107 H 8.3895 -4.19917 -0.353233 0
M  V30 108 H 7.1135 -3.11924 -0.968045 0
M  V30 109 H 5.7725 -3.48667 1.13257 0
M  V30 110 H 5.4205 -4.95585 -0.860514 0
M  V30 111 H 5.1205 -5.83913 0.657192 0
M  V30 112 H 6.6445 -6.10138 -0.237598 0
M  V30 113 H 8.0585 -5.40083 1.92311 0
M  V30 114 H 6.4555 -5.3528 2.71284 0
M  V30 115 H 7.5255 -3.94346 2.82169 0
M  V30 116 N 8.8686 -0.792821 -1.36206 0
M  V30 117 C 10.0936 -0.377701 -2.03932 0
M  V30 118 C 10.5186 0.998947 -1.59382 0
M  V30 119 O 9.8766 1.64421 -0.763903 0
M  V30 120 C 9.9246 -0.453635 -3.57735 0
M  V30 121 O 9.0286 0.538151 -4.08874 0
M  V30 122 H 8.3696 -0.159855 -0.644471 0
M  V30 123 H 10.8996 -1.07488 -1.7409 0
M  V30 124 H 10.9096 -0.318464 -4.06755 0
M  V30 125 H 9.5846 -1.45784 -3.89512 0
M  V30 126 H 8.1616 0.364359 -3.71116 0
M  V30 127 N 10.3467 1.47872 -0.545128 0
M  V30 128 C 11.5927 2.02793 -0.0166104 0
M  V30 129 C 11.9257 1.41987 1.32489 0
M  V30 130 O 11.2007 0.571045 1.85928 0
M  V30 131 C 11.4837 3.59989 0.0893294 0
M  V30 132 C 11.3367 4.3125 -1.27841 0
M  V30 133 C 12.6557 4.32606 0.808724 0
M  V30 134 H 9.7747 0.736962 -0.00751035 0
M  V30 135 H 12.4167 1.76433 -0.705085 0
M  V30 136 H 10.5667 3.82579 0.675681 0
M  V30 137 H 12.2387 4.20035 -1.90704 0
M  V30 138 H 10.4817 3.92076 -1.85632 0
M  V30 139 H 11.1527 5.39736 -1.15713 0
M  V30 140 H 13.6287 4.14936 0.310992 0
M  V30 141 H 12.5047 5.42251 0.851782 0
M  V30 142 H 12.7657 4.00963 1.86229 0
M  V30 143 N 11.8248 0.280983 1.55075 0
M  V30 144 C 12.7878 -0.590896 2.21452 0
M  V30 145 C 13.7878 -1.07682 1.19421 0
M  V30 146 O 14.9778 -0.97605 1.44288 0
M  V30 147 C 12.1098 -1.81587 2.88511 0
M  V30 148 H 13.3028 -0.0112554 2.99898 0
M  V30 149 H 10.8558 0.0316438 1.56268 0
M  V30 150 H 11.5908 -2.43587 2.14093 0
M  V30 151 H 11.3758 -1.4753 3.63287 0
M  V30 152 H 12.8658 -2.43575 3.39206 0
M  V30 153 N 13.3029 -1.57598 0.00835791 0
M  V30 154 C 14.2659 -2.07884 -0.965242 0
M  V30 155 C 15.2659 -0.989825 -1.26725 0
M  V30 156 O 16.4559 -1.25218 -1.21104 0
M  V30 157 C 13.5879 -2.52731 -2.28779 0
M  V30 158 H 14.7809 -2.95178 -0.530112 0
M  V30 159 H 12.3339 -1.54458 -0.239283 0
M  V30 160 H 13.0689 -1.68705 -2.76964 0
M  V30 161 H 12.8539 -3.32272 -2.08177 0
M  V30 162 H 14.3439 -2.91933 -2.98605 0
M  V30 163 N 14.781 0.264519 -1.55364 0
M  V30 164 C 16.027 0.99646 -1.76631 0
M  V30 165 C 16.36 1.85632 -0.570478 0
M  V30 166 O 15.635 1.89647 0.43175 0
M  V30 167 C 15.918 1.87187 -3.07625 0
M  V30 168 C 15.771 1.04138 -4.37579 0
M  V30 169 C 17.09 2.85749 -3.34717 0
M  V30 170 H 14.209 0.360841 -0.642622 0
M  V30 171 H 16.851 0.268218 -1.88097 0
M  V30 172 H 15.001 2.49279 -2.9798 0
M  V30 173 H 16.673 0.440517 -4.59192 0
M  V30 174 H 14.916 0.345115 -4.32425 0
M  V30 175 H 15.587 1.68729 -5.2558 0
M  V30 176 H 18.063 2.33793 -3.4421 0
M  V30 177 H 16.939 3.44136 -4.27623 0
M  V30 178 H 17.2 3.61311 -2.54768 0
M  V30 179 N 16.2591 1.48442 0.529413 0
M  V30 180 C 17.2221 1.62524 1.61612 0
M  V30 181 C 18.2221 0.498509 1.52877 0
M  V30 182 O 19.4121 0.76431 1.56537 0
M  V30 183 C 16.5441 1.59597 3.01233 0
M  V30 184 H 17.7371 2.59423 1.50465 0
M  V30 185 H 15.2901 1.37047 0.751514 0
M  V30 186 H 16.0251 0.641781 3.17886 0
M  V30 187 H 15.8101 2.41397 3.08982 0
M  V30 188 H 17.3001 1.72646 3.80241 0
M  V30 189 N 17.7372 -0.778329 1.37039 0
M  V30 190 C 18.9652 -1.56734 1.35063 0
M  V30 191 C 19.3802 -1.88686 -0.0655597 0
M  V30 192 O 18.7372 -1.5096 -1.02554 0
M  V30 193 C 18.7882 -2.88163 2.18276 0
M  V30 194 O 18.5092 -2.57583 3.54376 0
M  V30 195 C 20.0102 -3.82422 2.24206 0
M  V30 196 H 17.2302 -0.485778 0.462883 0
M  V30 197 H 19.7742 -0.965185 1.8029 0
M  V30 198 H 17.9292 -3.44818 1.76576 0
M  V30 199 H 18.3432 -3.41699 3.97922 0
M  V30 200 H 19.8172 -4.71667 2.86765 0
M  V30 201 H 20.2942 -4.21078 1.24861 0
M  V30 202 H 20.9002 -3.31697 2.6619 0
M  V30 203 N 19.2153 -1.21501 -1.00376 0
M  V30 204 C 20.1453 -0.999478 -2.11028 0
M  V30 205 C 21.1263 0.0759671 -1.6993 0
M  V30 206 O 22.3113 -0.0841106 -1.94018 0
M  V30 207 C 19.4413 -0.564709 -3.42678 0
M  V30 208 C 18.3953 -1.58486 -3.97576 0
M  V30 209 C 17.7213 -1.00628 -5.25146 0
M  V30 210 C 19.0213 -2.97204 -4.29496 0
M  V30 211 H 20.7153 -1.92495 -2.29317 0
M  V30 212 H 18.2613 -0.92693 -1.102 0
M  V30 213 H 20.2143 -0.401091 -4.19487 0
M  V30 214 H 18.9383 0.396411 -3.24185 0
M  V30 215 H 17.5973 -1.73606 -3.22888 0
M  V30 216 H 17.2453 -0.0368439 -5.02987 0
M  V30 217 H 16.9453 -1.68771 -5.62841 0
M  V30 218 H 18.4693 -0.854015 -6.04598 0
M  V30 219 H 19.8833 -2.8552 -4.97143 0
M  V30 220 H 18.2803 -3.62372 -4.78338 0
M  V30 221 H 19.3503 -3.47956 -3.3772 0
M  V30 222 N 20.6934 1.19889 -1.02296 0
M  V30 223 C 21.6264 2.21639 -0.543282 0
M  V30 224 C 22.6044 1.57275 0.412698 0
M  V30 225 O 23.7884 1.85568 0.331198 0
M  V30 226 C 20.9154 3.38057 0.208571 0
M  V30 227 C 19.9614 4.20751 -0.697933 0
M  V30 228 S 20.7944 4.89529 -2.17075 0
M  V30 229 C 21.9504 6.09363 -1.42923 0
M  V30 230 H 22.1834 2.61984 -1.40541 0
M  V30 231 H 19.7164 1.30041 -0.832387 0
M  V30 232 H 21.6744 4.05539 0.63624 0
M  V30 233 H 20.3354 2.96159 1.04635 0
M  V30 234 H 19.5284 5.03862 -0.117831 0
M  V30 235 H 19.1304 3.58556 -1.06366 0
M  V30 236 H 21.4224 6.73742 -0.712637 0
M  V30 237 H 22.3654 6.71845 -2.23673 0
M  V30 238 H 22.7734 5.56798 -0.929327 0
M  V30 239 N 22.1715 0.800033 1.35784 0
M  V30 240 C 23.1345 0.211565 2.28221 0
M  V30 241 C 24.1345 -0.59728 1.49296 0
M  V30 242 O 25.3245 -0.416721 1.69142 0
M  V30 243 C 22.4565 -0.705846 3.33513 0
M  V30 244 H 23.6495 1.02677 2.81776 0
M  V30 245 H 21.2025 0.570211 1.45528 0
M  V30 246 H 21.9375 -1.54498 2.85133 0
M  V30 247 H 21.7225 -0.127655 3.91892 0
M  V30 248 H 23.2125 -1.11211 4.02519 0
M  V30 249 N 23.6496 -1.47581 0.552962 0
M  V30 250 C 24.8966 -2.02482 0.0273243 0
M  V30 251 C 25.2246 -1.42776 -1.32081 0
M  V30 252 O 24.4796 -0.571393 -1.87173 0
M  V30 253 C 24.7786 -3.57199 -0.119728 0
M  V30 254 C 24.4446 -4.35804 1.15697 0
M  V30 255 C 23.1066 -4.57 1.50681 0
M  V30 256 C 25.4586 -4.81167 2.00319 0
M  V30 257 C 22.7866 -5.20807 2.70142 0
M  V30 258 C 25.1386 -5.46293 3.18978 0
M  V30 259 C 23.8026 -5.65722 3.54281 0
M  V30 260 H 23.0726 -0.740933 0.00999866 0
M  V30 261 H 25.7196 -1.77302 0.72362 0
M  V30 262 H 24.0246 -3.81348 -0.89896 0
M  V30 263 H 25.7216 -3.97324 -0.541718 0
M  V30 264 H 22.3116 -4.19582 0.874561 0
M  V30 265 H 26.4956 -4.64574 1.74599 0
M  V30 266 H 21.7516 -5.34045 2.97668 0
M  V30 267 H 25.9256 -5.80407 3.84838 0
M  V30 268 H 23.5526 -6.14936 4.46942 0
M  V30 269 N 25.1277 -0.289203 -1.54924 0
M  V30 270 C 26.0907 0.579144 -2.21762 0
M  V30 271 C 27.0907 1.07047 -1.1999 0
M  V30 272 O 28.2807 0.968384 -1.44803 0
M  V30 273 C 25.4127 1.80055 -2.8947 0
M  V30 274 H 26.6057 -0.00464908 -2.999 0
M  V30 275 H 24.1587 -0.0399306 -1.56249 0
M  V30 276 H 24.8937 2.42449 -2.15381 0
M  V30 277 H 24.6787 1.45602 -3.64064 0
M  V30 278 H 26.1687 2.41773 -3.40493 0
M  V30 279 N 26.6058 1.57591 -0.0167156 0
M  V30 280 C 27.5688 2.08393 0.954204 0
M  V30 281 C 28.5688 0.996531 1.26198 0
M  V30 282 O 29.7588 1.25858 1.20438 0
M  V30 283 C 26.8908 2.5394 2.27436 0
M  V30 284 H 28.0838 2.95455 0.514451 0
M  V30 285 H 25.6368 1.54582 0.231089 0
M  V30 286 H 26.3718 1.70171 2.76066 0
M  V30 287 H 26.1568 3.33371 2.06412 0
M  V30 288 H 27.6468 2.93512 2.97053 0
M  V30 289 N 28.0839 -0.256276 1.55502 0
M  V30 290 C 29.4949 -0.826068 1.67431 0
M  V30 291 C 29.8459 -1.86396 0.612446 0
M  V30 292 O 28.9709 -2.15031 -0.243025 0
M  V30 293 C 29.5659 -1.50512 3.03532 0
M  V30 294 C 28.1249 -2.02273 3.17431 0
M  V30 295 C 27.2719 -0.870548 2.63281 0
M  V30 296 H 30.2229 -0.0322728 1.58667 0
M  V30 297 H 30.2439 -2.37279 2.97454 0
M  V30 298 H 29.7559 -0.749484 3.80794 0
M  V30 299 H 27.8569 -2.80746 2.44974 0
M  V30 300 H 27.9699 -2.22655 4.24219 0
M  V30 301 H 26.3339 -1.26851 2.20864 0
M  V30 302 H 27.1169 -0.128149 3.43061 0
M  V30 303 N 29.562 -1.4872 -0.521534 0
M  V30 304 C 30.808 -1.574 -1.27879 0
M  V30 305 C 31.141 -0.250817 -1.92573 0
M  V30 306 O 30.416 0.743934 -1.79711 0
M  V30 307 C 30.699 -2.71843 -2.36164 0
M  V30 308 C 30.552 -4.13893 -1.76105 0
M  V30 309 C 31.871 -2.82008 -3.37875 0
M  V30 310 H 28.99 -0.572941 -0.463581 0
M  V30 311 H 31.632 -1.80927 -0.580119 0
M  V30 312 H 29.782 -2.51914 -2.95756 0
M  V30 313 H 31.454 -4.45284 -1.20499 0
M  V30 314 H 29.697 -4.20498 -1.06601 0
M  V30 315 H 30.368 -4.89804 -2.5455 0
M  V30 316 H 32.844 -3.00086 -2.88249 0
M  V30 317 H 31.72 -3.63796 -4.11028 0
M  V30 318 H 31.981 -1.90511 -3.98946 0
M  V30 319 N 31.0401 0.771051 -1.3745 0
M  V30 320 C 32.0031 1.86598 -1.33093 0
M  V30 321 C 33.0031 1.59076 -0.234845 0
M  V30 322 O 34.1931 1.67145 -0.490732 0
M  V30 323 C 31.3251 3.23747 -1.06773 0
M  V30 324 H 32.5181 1.91873 -2.30488 0
M  V30 325 H 30.0711 0.970876 -1.2249 0
M  V30 326 H 30.8061 3.24148 -0.099129 0
M  V30 327 H 30.5911 3.45115 -1.86112 0
M  V30 328 H 32.0811 4.03824 -1.06377 0
M  V30 329 N 32.5182 1.22032 0.997298 0
M  V30 330 C 33.7462 1.06841 1.7718 0
M  V30 331 C 34.1612 -0.381325 1.84909 0
M  V30 332 O 33.5182 -1.26437 1.31605 0
M  V30 333 C 33.5692 1.66814 3.20711 0
M  V30 334 O 33.2902 3.06116 3.13408 0
M  V30 335 C 34.7912 1.56838 4.14628 0
M  V30 336 H 32.0112 0.374782 0.556578 0
M  V30 337 H 34.5552 1.61532 1.2541 0
M  V30 338 H 32.7102 1.16196 3.69564 0
M  V30 339 H 33.1242 3.34926 4.0364 0
M  V30 340 H 34.5982 2.03532 5.13107 0
M  V30 341 H 35.0752 0.524155 4.36061 0
M  V30 342 H 35.6812 2.06741 3.7167 0
M  V30 343 N 33.9963 -1.19345 1.0293 0
M  V30 344 C 34.9593 -2.20793 0.615069 0
M  V30 345 C 35.9593 -1.57553 -0.321533 0
M  V30 346 O 37.1493 -1.73862 -0.108483 0
M  V30 347 C 34.2813 -3.40754 -0.0999222 0
M  V30 348 H 35.4743 -2.58955 1.51269 0
M  V30 349 H 33.0273 -1.3303 0.820534 0
M  V30 350 H 33.7623 -3.0811 -1.01187 0
M  V30 351 H 33.5473 -3.87889 0.57309 0
M  V30 352 H 35.0373 -4.15898 -0.376645 0
M  V30 353 N 35.4744 -0.807222 -1.35358 0
M  V30 354 C 36.4214 -0.216037 -2.29787 0
M  V30 355 C 37.3914 0.650278 -1.52842 0
M  V30 356 O 38.5764 0.595227 -1.81278 0
M  V30 357 C 35.7164 0.628893 -3.39321 0
M  V30 358 C 34.8294 -0.257927 -4.31229 0
M  V30 359 C 33.9644 0.595069 -5.27856 0
M  V30 360 C 33.0034 -0.292111 -6.11403 0
M  V30 361 N 32.1404 0.520895 -7.00165 0
M  V30 362 H 36.9804 -1.02671 -2.79755 0
M  V30 363 H 34.5174 -0.517839 -1.37684 0
M  V30 364 H 36.4754 1.13393 -4.01494 0
M  V30 365 H 35.1054 1.40482 -2.90628 0
M  V30 366 H 34.1574 -0.881076 -3.70056 0
M  V30 367 H 35.4694 -0.940759 -4.89848 0
M  V30 368 H 34.6234 1.16522 -5.95405 0
M  V30 369 H 33.3624 1.31146 -4.69736 0
M  V30 370 H 32.3674 -0.874525 -5.428 0
M  V30 371 H 33.5924 -1.00638 -6.71602 0
M  V30 372 H 31.5384 1.22125 -6.44532 0
M  V30 373 H 31.4554 -0.103877 -7.55929 0
M  V30 374 H 32.7234 1.0743 -7.72062 0
M  V30 375 N 36.9525 1.47285 -0.560781 0
M  V30 376 C 37.8625 2.33846 0.187954 0
M  V30 377 C 38.8785 1.48412 0.908293 0
M  V30 378 O 40.0545 1.81332 0.876388 0
M  V30 379 C 37.1195 3.25178 1.2025 0
M  V30 380 C 36.1805 4.26504 0.489208 0
M  V30 381 C 35.4135 5.13472 1.45542 0
M  V30 382 O 35.6365 5.02959 2.6905 0
M  V30 383 O 34.5705 5.93902 0.977963 0
M  V30 384 H 38.3965 2.99177 -0.522177 0
M  V30 385 H 35.9815 1.45903 -0.321364 0
M  V30 386 H 37.8635 3.81584 1.78805 0
M  V30 387 H 36.5385 2.6247 1.89449 0
M  V30 388 H 35.4455 3.73847 -0.137627 0
M  V30 389 H 36.7785 4.91935 -0.161399 0
M  V30 390 N 38.4306 0.297415 1.54768 0
M  V30 391 C 39.3936 -0.567375 2.22066 0
M  V30 392 C 40.3936 -1.06409 1.20556 0
M  V30 393 O 41.5836 -0.960691 1.45315 0
M  V30 394 C 38.7156 -1.78517 2.90421 0
M  V30 395 H 39.9086 0.0205534 2.99893 0
M  V30 396 H 37.4616 0.0482163 1.56226 0
M  V30 397 H 38.1966 -2.41303 2.16664 0
M  V30 398 H 37.9816 -1.43669 3.64831 0
M  V30 399 H 39.4716 -2.39964 3.41771 0
M  V30 400 N 39.9087 -1.5758 0.0250728 0
M  V30 401 C 41.1367 -1.9593 -0.664747 0
M  V30 402 C 41.5517 -0.901352 -1.65895 0
M  V30 403 O 40.9087 0.117255 -1.82123 0
M  V30 404 C 40.9597 -3.34342 -1.37468 0
M  V30 405 O 40.6807 -4.36079 -0.420324 0
M  V30 406 C 42.1817 -3.873 -2.1567 0
M  V30 407 H 39.4017 -0.645405 -0.183557 0
M  V30 408 H 41.9457 -2.04329 0.0836372 0
M  V30 409 H 40.1007 -3.27175 -2.0745 0
M  V30 410 H 40.5147 -5.16297 -0.923991 0
M  V30 411 H 41.9887 -4.86504 -2.60803 0
M  V30 412 H 42.4657 -3.21331 -2.99405 0
M  V30 413 H 43.0717 -3.97723 -1.50654 0
M  V30 414 N 41.3868 0.248026 -1.55636 0
M  V30 415 C 42.6328 0.973427 -1.78594 0
M  V30 416 C 42.9878 1.83007 -0.593823 0
M  V30 417 O 42.2808 1.87097 0.412961 0
M  V30 418 C 42.4748 1.86819 -3.04686 0
M  V30 419 C 42.3038 1.09965 -4.36048 0
M  V30 420 C 41.0738 0.805204 -4.98843 0
M  V30 421 C 43.2718 0.477783 -5.12076 0
M  V30 422 N 41.2538 0.0124859 -6.13899 0
M  V30 423 C 42.6248 -0.179565 -6.1974 0
M  V30 424 C 44.6798 0.388136 -4.96385 0
M  V30 425 C 43.3828 -0.91795 -7.13419 0
M  V30 426 C 45.4088 -0.336716 -5.90441 0
M  V30 427 C 44.7708 -0.982705 -6.97511 0
M  V30 428 H 40.8698 0.337348 -0.705493 0
M  V30 429 H 43.4538 0.24667 -1.93131 0
M  V30 430 H 41.6248 2.56698 -2.9148 0
M  V30 431 H 43.3568 2.52907 -3.15944 0
M  V30 432 H 40.1118 1.11671 -4.60246 0
M  V30 433 H 40.5358 -0.371933 -6.75978 0
M  V30 434 H 45.1778 0.873237 -4.13684 0
M  V30 435 H 42.8958 -1.41466 -7.95621 0
M  V30 436 H 46.4818 -0.406731 -5.80377 0
M  V30 437 H 45.3618 -1.53464 -7.69037 0
M  V30 438 N 42.8649 1.48995 0.513639 0
M  V30 439 C 44.1109 1.58076 1.27042 0
M  V30 440 C 44.4439 0.261026 1.92438 0
M  V30 441 O 43.7189 -0.734393 1.80103 0
M  V30 442 C 44.0019 2.73091 2.34719 0
M  V30 443 C 43.8549 4.14821 1.73907 0
M  V30 444 C 45.1739 2.83796 3.36375 0
M  V30 445 H 42.2929 0.575391 0.460536 0
M  V30 446 H 44.9349 1.81232 0.570516 0
M  V30 447 H 43.0849 2.53479 2.94416 0
M  V30 448 H 44.7569 4.45917 1.18135 0
M  V30 449 H 42.9999 4.21058 1.0437 0
M  V30 450 H 43.6709 4.91147 2.51949 0
M  V30 451 H 46.1469 3.01611 2.86653 0
M  V30 452 H 45.0229 3.65971 4.09093 0
M  V30 453 H 45.2839 1.92624 3.9793 0
M  V30 454 N 44.343 -0.763751 1.37857 0
M  V30 455 C 45.571 -1.55293 1.36718 0
M  V30 456 C 45.986 -1.88745 -0.0455434 0
M  V30 457 O 45.343 -1.52039 -1.00947 0
M  V30 458 C 45.394 -2.85831 2.2132 0
M  V30 459 O 45.115 -2.5381 3.57089 0
M  V30 460 C 46.616 -3.80023 2.28249 0
M  V30 461 H 43.836 -0.480841 0.468009 0
M  V30 462 H 46.38 -0.946009 1.81303 0
M  V30 463 H 44.535 -3.42926 1.80223 0
M  V30 464 H 44.949 -3.37459 4.01524 0
M  V30 465 H 46.423 -4.68599 2.91752 0
M  V30 466 H 46.9 -4.1973 1.2932 0
M  V30 467 H 47.506 -3.28855 2.69693 0
M  V30 468 N 45.8211 -1.22559 -0.990812 0
M  V30 469 C 47.0981 -0.959875 -1.70428 0
M  V30 470 C 47.4781 0.524455 -2.04481 0
M  V30 471 O 46.8261 1.49302 -1.72977 0
M  V30 472 C 47.0361 -1.85955 -2.95333 0
M  V30 473 C 48.3841 -2.11687 -3.68068 0
M  V30 474 O 49.4081 -1.8342 -3.05345 0
M  V30 475 O 48.2671 -2.59572 -4.80921 0
M  V30 476 H 45.3611 -0.361154 -0.743974 0
M  V30 477 H 47.9071 -1.33554 -1.04697 0
M  V30 478 H 46.6791 -2.86346 -2.66687 0
M  V30 479 H 46.3021 -1.4856 -3.68803 0
M  V30 480 N 47.2992 1.18797 -1.03562 0
M  V30 481 C 48.2462 2.22253 -0.622259 0
M  V30 482 C 49.2162 1.61987 0.36736 0
M  V30 483 O 50.4012 1.88986 0.262492 0
M  V30 484 C 47.5412 3.45097 0.0138462 0
M  V30 485 C 46.6542 4.19722 -1.02263 0
M  V30 486 C 45.7892 5.30009 -0.355573 0
M  V30 487 C 44.8282 5.96399 -1.37749 0
M  V30 488 N 43.9652 6.98234 -0.735766 0
M  V30 489 H 48.8052 2.56968 -1.50903 0
M  V30 490 H 46.3422 1.26245 -0.755017 0
M  V30 491 H 48.3002 4.15279 0.399948 0
M  V30 492 H 46.9302 3.11018 0.864158 0
M  V30 493 H 45.9822 3.48418 -1.52673 0
M  V30 494 H 47.2942 4.65227 -1.79903 0
M  V30 495 H 46.4482 6.0664 0.0850095 0
M  V30 496 H 45.1872 4.85592 0.452967 0
M  V30 497 H 44.1922 5.18512 -1.82826 0
M  V30 498 H 45.4172 6.42899 -2.18764 0
M  V30 499 H 43.3632 6.55979 0.0525597 0
M  V30 500 H 43.2802 7.41965 -1.44995 0
M  V30 501 H 44.5482 7.78845 -0.31941 0
M  V30 502 N 48.7773 0.814389 1.34928 0
M  V30 503 C 50.1883 0.458364 1.80986 0
M  V30 504 C 50.5393 -1.02042 1.67577 0
M  V30 505 O 49.6643 -1.79352 1.21086 0
M  V30 506 C 50.2593 0.825212 3.28597 0
M  V30 507 C 48.8183 0.521677 3.72767 0
M  V30 508 C 47.9653 1.04668 2.56788 0
M  V30 509 H 50.9163 1.00533 1.22795 0
M  V30 510 H 50.9373 0.12571 3.80292 0
M  V30 511 H 50.4493 1.90154 3.38324 0
M  V30 512 H 48.5503 -0.545589 3.68584 0
M  V30 513 H 48.6633 1.05977 4.67232 0
M  V30 514 H 47.0273 0.468622 2.50352 0
M  V30 515 H 47.8103 2.12927 2.6929 0
M  V30 516 N 50.2554 -1.46986 0.568584 0
M  V30 517 C 51.1854 -2.32946 -0.160753 0
M  V30 518 C 52.1664 -1.44487 -0.897631 0
M  V30 519 O 53.3514 -1.73327 -0.875867 0
M  V30 520 C 50.4814 -3.26494 -1.18403 0
M  V30 521 C 49.4354 -4.24282 -0.562895 0
M  V30 522 C 48.7614 -5.07236 -1.69163 0
M  V30 523 C 50.0614 -5.19989 0.490761 0
M  V30 524 H 51.7554 -2.94175 0.556916 0
M  V30 525 H 49.3014 -1.4146 0.26927 0
M  V30 526 H 51.2544 -3.85477 -1.70251 0
M  V30 527 H 49.9784 -2.63343 -1.93179 0
M  V30 528 H 48.6374 -3.66541 -0.0656164 0
M  V30 529 H 48.2854 -4.4048 -2.42871 0
M  V30 530 H 47.9854 -5.7345 -1.28174 0
M  V30 531 H 49.5094 -5.6908 -2.21314 0
M  V30 532 H 50.9234 -5.73271 0.0579047 0
M  V30 533 H 49.3204 -5.94469 0.820165 0
M  V30 534 H 50.3904 -4.64777 1.3824 0
M  V30 535 N 51.7335 -0.305618 -1.54608 0
M  V30 536 C 52.9615 0.304775 -2.04643 0
M  V30 537 C 53.3765 1.47167 -1.18268 0
M  V30 538 O 52.7335 1.81296 -0.209328 0
M  V30 539 C 52.7845 0.756564 -3.53495 0
M  V30 540 O 52.5055 -0.36389 -4.36586 0
M  V30 541 C 54.0065 1.43163 -4.19546 0
M  V30 542 H 51.2265 0.0655481 -0.667791 0
M  V30 543 H 53.7705 -0.446592 -1.99564 0
M  V30 544 H 51.9255 1.45794 -3.58919 0
M  V30 545 H 52.3395 -0.0113121 -5.24499 0
M  V30 546 H 53.8135 1.69886 -5.25207 0
M  V30 547 H 54.2905 2.37318 -3.69563 0
M  V30 548 H 54.8965 0.773307 -4.18211 0
M  V30 549 N 53.2116 1.57565 -0.0334293 0
M  V30 550 C 54.1416 2.13511 0.945265 0
M  V30 551 C 55.1226 1.05231 1.33643 0
M  V30 552 O 56.3076 1.33084 1.41429 0
M  V30 553 C 53.4376 2.6657 2.22616 0
M  V30 554 C 52.3916 3.79676 1.97561 0
M  V30 555 C 51.7176 4.1918 3.31952 0
M  V30 556 C 53.0176 5.0557 1.31135 0
M  V30 557 H 54.7116 2.95538 0.479325 0
M  V30 558 H 52.2576 1.42166 0.229115 0
M  V30 559 H 54.2106 3.04344 2.91466 0
M  V30 560 H 52.9346 1.8171 2.71384 0
M  V30 561 H 51.5936 3.42347 1.31127 0
M  V30 562 H 51.2416 3.31296 3.78487 0
M  V30 563 H 50.9416 4.95402 3.15992 0
M  V30 564 H 52.4656 4.59541 4.02063 0
M  V30 565 H 53.8796 5.40903 1.89992 0
M  V30 566 H 52.2766 5.86818 1.25559 0
M  V30 567 H 53.3466 4.84062 0.284894 0
M  V30 568 N 54.6897 -0.239769 1.55765 0
M  V30 569 C 55.6367 -1.29696 1.90913 0
M  V30 570 C 56.6067 -1.47478 0.764164 0
M  V30 571 O 57.7917 -1.61345 1.01845 0
M  V30 572 C 54.9317 -2.64598 2.21544 0
M  V30 573 C 54.0447 -2.54765 3.48882 0
M  V30 574 C 53.1797 -3.82069 3.69049 0
M  V30 575 C 52.2187 -3.66883 4.89963 0
M  V30 576 N 51.3557 -4.86094 5.06614 0
M  V30 577 H 56.1957 -0.990224 2.81067 0
M  V30 578 H 53.7327 -0.477684 1.39128 0
M  V30 579 H 55.6907 -3.43132 2.3731 0
M  V30 580 H 54.3207 -2.93405 1.34585 0
M  V30 581 H 53.3727 -1.67763 3.41409 0
M  V30 582 H 54.6847 -2.39457 4.37563 0
M  V30 583 H 53.8387 -4.69046 3.84812 0
M  V30 584 H 52.5777 -4.00282 2.78614 0
M  V30 585 H 51.5827 -2.78289 4.74168 0
M  V30 586 H 52.8077 -3.50157 5.81865 0
M  V30 587 H 50.7537 -5.04655 4.19117 0
M  V30 588 H 50.6707 -4.73443 5.89396 0
M  V30 589 H 51.9387 -5.74549 5.26795 0
M  V30 590 N 56.1678 -1.49265 -0.50573 0
M  V30 591 C 57.4168 -1.57761 -1.25675 0
M  V30 592 C 57.7298 -0.267371 -1.93764 0
M  V30 593 O 58.9358 -0.230827 -2.70517 0
M  V30 594 C 57.3918 -2.78332 -2.28165 0
M  V30 595 C 56.9998 -4.16096 -1.66037 0
M  V30 596 C 58.7438 -2.96155 -3.04125 0
M  V30 597 C 56.6508 -5.27895 -2.6661 0
M  V30 598 H 55.5808 -0.587391 -0.472745 0
M  V30 599 H 58.2318 -1.75644 -0.53118 0
M  V30 600 H 56.6138 -2.53934 -3.03865 0
M  V30 601 H 57.7878 -4.50612 -0.963622 0
M  V30 602 H 56.1028 -4.03591 -1.02484 0
M  V30 603 H 58.6998 -3.76849 -3.79327 0
M  V30 604 H 59.0428 -2.06534 -3.61455 0
M  V30 605 H 59.5758 -3.2057 -2.35541 0
M  V30 606 H 56.3148 -6.1956 -2.14068 0
M  V30 607 H 55.8348 -4.97839 -3.34539 0
M  V30 608 H 57.5138 -5.57031 -3.29129 0
M  V30 609 N 57.6459 0.756429 -1.3826 0
M  V30 610 C 58.5959 1.86069 -1.31766 0
M  V30 611 C 59.5799 1.59621 -0.202483 0
M  V30 612 O 60.7719 1.7149 -0.438211 0
M  V30 613 C 57.9009 3.23742 -1.1422 0
M  V30 614 C 56.9869 3.56091 -2.30348 0
M  V30 615 N 57.3779 3.59517 -3.55783 0
M  V30 616 C 55.6759 3.86341 -2.22838 0
M  V30 617 C 56.3769 3.89052 -4.32451 0
M  V30 618 N 55.3529 4.05736 -3.61772 0
M  V30 619 H 59.1549 1.86992 -2.26741 0
M  V30 620 H 56.6689 0.953643 -1.31451 0
M  V30 621 H 58.6659 4.02761 -1.07652 0
M  V30 622 H 57.3259 3.24073 -0.201763 0
M  V30 623 H 58.3369 3.41347 -3.89491 0
M  V30 624 H 55.0139 3.94404 -1.36937 0
M  V30 625 H 56.4039 3.98349 -5.4108 0
M  V30 626 N 59.124 1.23083 0.984299 0
M  V30 627 C 60.057 0.951786 2.07404 0
M  V30 628 C 61.035 -0.10848 1.62238 0
M  V30 629 O 62.219 0.0249467 1.88483 0
M  V30 630 C 59.346 0.433142 3.35919 0
M  V30 631 C 58.392 1.47941 4.0002 0
M  V30 632 S 59.225 3.05556 4.39768 0
M  V30 633 C 60.381 2.55351 5.71442 0
M  V30 634 H 60.614 1.87456 2.30754 0
M  V30 635 H 58.147 1.06284 1.11996 0
M  V30 636 H 60.105 0.140506 4.10259 0
M  V30 637 H 58.766 -0.468656 3.10584 0
M  V30 638 H 57.959 1.06658 4.92585 0
M  V30 639 H 57.561 1.7212 3.3204 0
M  V30 640 H 59.853 1.97128 6.48187 0
M  V30 641 H 60.796 3.46441 6.17563 0
M  V30 642 H 61.204 1.96339 5.29255 0
M  V30 643 N 60.6021 -1.18246 1.0419 0
M  V30 644 C 61.5521 -2.19843 0.604392 0
M  V30 645 C 62.5361 -1.56962 -0.353814 0
M  V30 646 O 63.7281 -1.76156 -0.17267 0
M  V30 647 C 60.8571 -3.43287 -0.0298975 0
M  V30 648 C 59.9431 -4.13288 0.951531 0
M  V30 649 N 60.3341 -4.59271 2.11906 0
M  V30 650 C 58.6321 -4.39165 0.7778 0
M  V30 651 C 59.3331 -5.13173 2.73912 0
M  V30 652 N 58.3091 -5.04763 2.01779 0
M  V30 653 H 62.1111 -2.53089 1.4941 0
M  V30 654 H 59.6251 -1.34465 0.910658 0
M  V30 655 H 61.6221 -4.15334 -0.361037 0
M  V30 656 H 60.2821 -3.11537 -0.915127 0
M  V30 657 H 61.2931 -4.5368 2.49789 0
M  V30 658 H 57.9701 -4.17461 -0.0572331 0
M  V30 659 H 59.3601 -5.58947 3.72864 0
M  V30 660 N 62.0802 -0.821533 -1.34494 0
M  V30 661 C 63.3272 -0.408946 -1.98328 0
M  V30 662 C 63.6552 1.02764 -1.65136 0
M  V30 663 O 62.9102 1.73026 -0.914349 0
M  V30 664 C 63.2092 -0.556512 -3.53041 0
M  V30 665 C 62.8752 -1.95861 -4.0614 0
M  V30 666 C 61.5372 -2.34217 -4.20352 0
M  V30 667 C 63.8892 -2.87523 -4.34718 0
M  V30 668 C 61.2172 -3.63572 -4.6047 0
M  V30 669 C 63.5692 -4.1634 -4.76281 0
M  V30 670 C 62.2332 -4.54675 -4.88699 0
M  V30 671 H 61.5032 -0.149644 -0.725732 0
M  V30 672 H 64.1502 -1.04521 -1.6046 0
M  V30 673 H 62.4552 0.163148 -3.9146 0
M  V30 674 H 64.1522 -0.217826 -4.00408 0
M  V30 675 H 60.7422 -1.65066 -3.95539 0
M  V30 676 H 64.9262 -2.59133 -4.23277 0
M  V30 677 H 60.1822 -3.93101 -4.68275 0
M  V30 678 H 64.3562 -4.87455 -4.97354 0
M  V30 679 H 61.9832 -5.54959 -5.19542 0
M  V30 680 N 63.5583 1.46682 -0.576371 0
M  V30 681 C 64.9743 1.57822 -0.237562 0
M  V30 682 C 65.1743 1.57237 1.26011 0
M  V30 683 O 64.2303 1.48596 2.04146 0
M  V30 684 C 65.5433 2.87499 -0.881168 0
M  V30 685 C 67.0913 3.01119 -0.85417 0
M  V30 686 C 67.5663 4.33524 -1.4772 0
M  V30 687 N 69.0573 4.40207 -1.44125 0
M  V30 688 C 69.7923 5.4126 -1.89276 0
M  V30 689 N 69.2883 6.49021 -2.42371 0
M  V30 690 N 71.0813 5.32422 -1.80231 0
M  V30 691 H 63.2323 1.45306 -1.54919 0
M  V30 692 H 65.4953 0.692733 -0.647167 0
M  V30 693 H 65.2013 2.9372 -1.93447 0
M  V30 694 H 65.0753 3.75224 -0.385592 0
M  V30 695 H 67.4623 2.94485 0.190491 0
M  V30 696 H 67.5433 2.14887 -1.3877 0
M  V30 697 H 67.1873 4.40916 -2.52103 0
M  V30 698 H 67.1173 5.1852 -0.918947 0
M  V30 699 H 69.6083 3.62931 -1.05307 0
M  V30 700 H 69.9213 7.2233 -2.74698 0
M  V30 701 H 68.2663 6.49858 -2.46393 0
M  V30 702 H 71.4573 4.47137 -1.38514 0
M  V30 703 H 71.6303 6.11034 -2.15735 0
M  V30 704 N 65.0364 0.313813 1.54444 0
M  V30 705 C 66.3134 -0.345447 1.92525 0
M  V30 706 C 66.6934 -1.70667 1.24242 0
M  V30 707 O 66.0414 -2.25273 0.382654 0
M  V30 708 C 66.2514 -0.44737 3.46121 0
M  V30 709 C 67.5994 -0.712238 4.18584 0
M  V30 710 O 68.6234 -0.530678 3.52225 0
M  V30 711 O 67.4824 -1.06183 5.36085 0
M  V30 712 H 64.5764 -0.195407 0.803583 0
M  V30 713 H 67.1224 0.362813 1.65776 0
M  V30 714 H 65.8944 0.509043 3.87975 0
M  V30 715 H 65.5174 -1.20359 3.78945 0
M  V30 716 N 66.5145 -1.57545 0.0417849 0
M  V30 717 C 67.4615 -2.10977 -0.935805 0
M  V30 718 C 68.4315 -1.01486 -1.31491 0
M  V30 719 O 69.6165 -1.2898 -1.40602 0
M  V30 720 C 66.7565 -2.65169 -2.2086 0
M  V30 721 C 65.8695 -3.88714 -1.88482 0
M  V30 722 C 65.0045 -4.31254 -3.1015 0
M  V30 723 C 64.0435 -5.47524 -2.7365 0
M  V30 724 N 63.1805 -5.85162 -3.87982 0
M  V30 725 H 68.0205 -2.94218 -0.473249 0
M  V30 726 H 65.5575 -1.45415 -0.221981 0
M  V30 727 H 67.5155 -2.94685 -2.95325 0
M  V30 728 H 66.1455 -1.8474 -2.64709 0
M  V30 729 H 65.1975 -3.65849 -1.04205 0
M  V30 730 H 66.5095 -4.73245 -1.57608 0
M  V30 731 H 65.6635 -4.62273 -3.92923 0
M  V30 732 H 64.4025 -3.45516 -3.44195 0
M  V30 733 H 63.4075 -5.16187 -1.89291 0
M  V30 734 H 64.6325 -6.34971 -2.40807 0
M  V30 735 H 62.5785 -5.02377 -4.21846 0
M  V30 736 H 62.4955 -6.64362 -3.60775 0
M  V30 737 H 63.7635 -6.20791 -4.71422 0
M  V30 738 N 67.9926 0.231505 -1.5589 0
M  V30 739 C 69.2386 0.954429 -1.79617 0
M  V30 740 C 69.5936 1.82367 -0.613199 0
M  V30 741 O 68.8866 1.87524 0.393094 0
M  V30 742 C 69.0806 1.83577 -3.0665 0
M  V30 743 C 68.9096 1.05334 -4.3719 0
M  V30 744 C 67.6796 0.75225 -4.99669 0
M  V30 745 C 69.8776 0.423444 -5.12554 0
M  V30 746 N 67.8596 -0.052627 -6.13877 0
M  V30 747 C 69.2306 -0.245287 -6.19515 0
M  V30 748 C 71.2856 0.335466 -4.96769 0
M  V30 749 C 69.9886 -0.993566 -7.12405 0
M  V30 750 C 72.0146 -0.399321 -5.9005 0
M  V30 751 C 71.3766 -1.05663 -6.9643 0
M  V30 752 H 67.4756 0.329846 -0.709031 0
M  V30 753 H 70.0596 0.226172 -1.93382 0
M  V30 754 H 68.2306 2.53592 -2.94186 0
M  V30 755 H 69.9626 2.49541 -3.18608 0
M  V30 756 H 66.7176 1.06783 -4.61405 0
M  V30 757 H 67.1416 -0.443609 -6.75545 0
M  V30 758 H 71.7836 0.829311 -4.14587 0
M  V30 759 H 69.5016 -1.49896 -7.94076 0
M  V30 760 H 73.0876 -0.468265 -5.79913 0
M  V30 761 H 71.9676 -1.61612 -7.67366 0
M  V30 762 N 69.4707 1.49531 0.497807 0
M  V30 763 C 70.7167 1.59415 1.25358 0
M  V30 764 C 71.0497 0.281422 1.9215 0
M  V30 765 O 70.3247 -0.715249 1.80871 0
M  V30 766 C 70.6077 2.75566 2.3181 0
M  V30 767 C 70.4607 4.16642 1.69498 0
M  V30 768 C 71.7797 2.87347 3.33346 0
M  V30 769 H 68.8987 0.580244 0.454408 0
M  V30 770 H 71.5407 1.81827 0.551262 0
M  V30 771 H 69.6907 2.56587 2.91711 0
M  V30 772 H 71.3627 4.47145 1.13399 0
M  V30 773 H 69.6057 4.22141 0.998978 0
M  V30 774 H 70.2767 4.93792 2.46725 0
M  V30 775 H 72.7527 3.04634 2.83438 0
M  V30 776 H 71.6287 3.70289 4.05188 0
M  V30 777 H 71.8897 1.96834 3.95865 0
M  V30 778 N 70.9488 -0.749086 1.3866 0
M  V30 779 C 72.1948 -1.50959 1.36319 0
M  V30 780 C 72.5498 -1.92347 -0.0452451 0
M  V30 781 O 71.8428 -1.6289 -1.00884 0
M  V30 782 C 72.0368 -2.7712 2.25697 0
M  V30 783 C 71.8658 -2.48067 3.7509 0
M  V30 784 C 70.6358 -2.41062 4.44091 0
M  V30 785 C 72.8338 -2.14544 4.67414 0
M  V30 786 N 70.8158 -2.04331 5.78897 0
M  V30 787 C 72.1868 -1.88141 5.90765 0
M  V30 788 C 74.2418 -2.00892 4.55573 0
M  V30 789 C 72.9448 -1.49463 7.036 0
M  V30 790 C 74.9708 -1.63616 5.68317 0
M  V30 791 C 74.3328 -1.38088 6.90732 0
M  V30 792 H 70.4318 -0.551804 0.554108 0
M  V30 793 H 73.0158 -0.871886 1.74087 0
M  V30 794 H 71.1868 -3.38693 1.9011 0
M  V30 795 H 72.9188 -3.4321 2.1445 0
M  V30 796 H 69.6738 -2.57685 3.9736 0
M  V30 797 H 70.0978 -1.88598 6.502 0
M  V30 798 H 74.7398 -2.19301 3.61479 0
M  V30 799 H 72.4578 -1.29794 7.97608 0
M  V30 800 H 76.0438 -1.53678 5.61137 0
M  V30 801 H 74.9238 -1.09674 7.76493 0
M  V30 802 N 72.4269 -1.23603 -0.977757 0
M  V30 803 C 73.7039 -0.977897 -1.69401 0
M  V30 804 C 74.0839 0.502738 -2.05026 0
M  V30 805 O 73.4319 1.47459 -1.74551 0
M  V30 806 C 73.6419 -1.89077 -2.93345 0
M  V30 807 C 74.9899 -2.15579 -3.65802 0
M  V30 808 O 76.0139 -1.86648 -3.03383 0
M  V30 809 O 74.8729 -2.64658 -4.78141 0
M  V30 810 H 71.9669 -0.369025 -0.740101 0
M  V30 811 H 74.5129 -1.34657 -1.03274 0
M  V30 812 H 73.2849 -2.89158 -2.63634 0
M  V30 813 H 72.9079 -1.52463 -3.67207 0
M  V30 814 N 73.905 1.17692 -1.04816 0
M  V30 815 C 74.815 2.25229 -0.65643 0
M  V30 816 C 75.831 1.71018 0.320761 0
M  V30 817 O 77.007 2.00649 0.173805 0
M  V30 818 C 74.072 3.46684 -0.0332629 0
M  V30 819 C 73.133 4.15997 -1.06042 0
M  V30 820 C 72.366 5.31654 -0.466893 0
M  V30 821 O 72.589 5.65777 0.724758 0
M  V30 822 O 71.523 5.89831 -1.1993 0
M  V30 823 H 75.349 2.61016 -1.55255 0
M  V30 824 H 72.934 1.24919 -0.81949 0
M  V30 825 H 74.816 4.20234 0.313256 0
M  V30 826 H 73.491 3.12703 0.836566 0
M  V30 827 H 72.398 3.44482 -1.45886 0
M  V30 828 H 73.731 4.53996 -1.90127 0
M  V30 829 N 75.3831 0.828654 1.34056 0
M  V30 830 C 76.3311 0.242973 2.31327 0
M  V30 831 C 77.3251 -0.61944 1.57668 0
M  V30 832 O 78.5311 -0.51014 1.7262 0
M  V30 833 H 74.9061 0.059834 0.749616 0
M  V30 834 H 76.8771 1.07809 2.78244 0
M  V30 835 C 75.6261 -0.575733 3.429 0
M  V30 836 H 74.9491 0.0785582 3.99723 0
M  V30 837 H 76.3891 -0.951547 4.13185 0
M  V30 838 C 74.8481 -1.75044 2.87856 0
M  V30 839 O 75.3781 -2.84882 2.83205 0
M  V30 840 N 73.5841 -1.56903 2.44602 0
M  V30 841 H 73.1311 -0.675547 2.48584 0
M  V30 842 H 73.0891 -2.35652 2.08124 0
M  V30 843 N 76.8612 -1.46375 0.584142 0
M  V30 844 C 78.1072 -2.03248 0.0787103 0
M  V30 845 C 78.4622 -1.44737 -1.26763 0
M  V30 846 O 77.7552 -0.603625 -1.81843 0
M  V30 847 C 77.9492 -3.57373 -0.0439342 0
M  V30 848 C 77.7782 -4.30831 1.28897 0
M  V30 849 C 76.5482 -4.69683 1.8635 0
M  V30 850 C 78.7462 -4.64278 2.21248 0
M  V30 851 N 76.7282 -5.27898 3.13365 0
M  V30 852 C 78.0992 -5.23078 3.32851 0
M  V30 853 C 80.1542 -4.46209 2.20911 0
M  V30 854 C 78.8572 -5.65715 4.44251 0
M  V30 855 C 80.8832 -4.89864 3.31341 0
M  V30 856 C 80.2452 -5.48736 4.41665 0
M  V30 857 H 76.3442 -0.778714 0.0716144 0
M  V30 858 H 78.9282 -1.78509 0.777355 0
M  V30 859 H 77.0992 -3.81823 -0.711749 0
M  V30 860 H 78.8312 -4.00892 -0.553881 0
M  V30 861 H 75.5862 -4.52488 1.39826 0
M  V30 862 H 76.0102 -5.61525 3.78178 0
M  V30 863 H 80.6522 -4.00027 1.36888 0
M  V30 864 H 78.3702 -6.10875 5.29015 0
M  V30 865 H 81.9562 -4.77634 3.322 0
M  V30 866 H 80.8362 -5.81898 5.25704 0
M  V30 867 N 78.3393 -0.321999 -1.54275 0
M  V30 868 C 79.7503 0.166384 -1.85957 0
M  V30 869 C 80.1013 1.51747 -1.24367 0
M  V30 870 O 79.2263 2.09317 -0.549124 0
M  V30 871 C 79.8213 0.308681 -3.37391 0
M  V30 872 C 78.3803 0.741286 -3.69028 0
M  V30 873 C 77.5273 -0.137937 -2.76957 0
M  V30 874 H 80.4783 -0.542335 -1.49146 0
M  V30 875 H 80.4993 1.13984 -3.63026 0
M  V30 876 H 80.0113 -0.674809 -3.82188 0
M  V30 877 H 78.1123 1.73458 -3.29762 0
M  V30 878 H 78.2253 0.546118 -4.75977 0
M  V30 879 H 76.5893 0.386251 -2.51754 0
M  V30 880 H 77.3723 -1.11816 -3.2458 0
M  V30 881 N 79.8174 1.5752 -0.0501392 0
M  V30 882 C 81.0634 1.92936 0.624798 0
M  V30 883 C 81.3964 0.928685 1.70555 0
M  V30 884 O 80.6714 -0.0454779 1.94447 0
M  V30 885 C 80.9544 3.38737 1.22185 0
M  V30 886 C 80.8074 4.49552 0.149218 0
M  V30 887 C 82.1264 3.84913 2.13378 0
M  V30 888 H 79.2454 0.701604 0.225657 0
M  V30 889 H 81.8874 1.89671 -0.111693 0
M  V30 890 H 80.0374 3.4165 1.84953 0
M  V30 891 H 81.7094 4.58768 -0.482648 0
M  V30 892 H 79.9524 4.30638 -0.522841 0
M  V30 893 H 80.6234 5.48653 0.606966 0
M  V30 894 H 83.0994 3.8387 1.60572 0
M  V30 895 H 81.9754 4.87584 2.52097 0
M  V30 896 H 82.2364 3.21611 3.03346 0
M  V30 897 N 81.2955 -0.223234 1.56011 0
M  V30 898 C 82.2585 -1.26014 1.9145 0
M  V30 899 C 83.2585 -1.3989 0.792937 0
M  V30 900 O 84.4485 -1.38184 1.0607 0
M  V30 901 C 81.5805 -2.63422 2.16383 0
M  V30 902 H 82.7735 -0.95796 2.84189 0
M  V30 903 H 80.3265 -0.463576 1.49267 0
M  V30 904 H 81.0615 -2.98741 1.2619 0
M  V30 905 H 80.8465 -2.54728 2.98088 0
M  V30 906 H 82.3365 -3.38249 2.44903 0
M  V30 907 N 82.7736 -1.49793 -0.48987 0
M  V30 908 C 83.7206 -1.67281 -1.59014 0
M  V30 909 C 84.6906 -0.514177 -1.57941 0
M  V30 910 O 85.8756 -0.742533 -1.75759 0
M  V30 911 C 83.0156 -1.75569 -2.97102 0
M  V30 912 C 82.1286 -3.0281 -3.08107 0
M  V30 913 C 81.2636 -3.02008 -4.36995 0
M  V30 914 C 80.3026 -4.23782 -4.41673 0
M  V30 915 N 79.4396 -4.20826 -5.62005 0
M  V30 916 H 84.2796 -2.61224 -1.43409 0
M  V30 917 H 81.8166 -1.29508 -0.697565 0
M  V30 918 H 83.7746 -1.78354 -3.77155 0
M  V30 919 H 82.4046 -0.850827 -3.11385 0
M  V30 920 H 81.4566 -3.09584 -2.21047 0
M  V30 921 H 82.7686 -3.92801 -3.07423 0
M  V30 922 H 81.9226 -3.03418 -5.25378 0
M  V30 923 H 80.6616 -2.09815 -4.4026 0
M  V30 924 H 79.6666 -4.22604 -3.5169 0
M  V30 925 H 80.8916 -5.17181 -4.40115 0
M  V30 926 H 78.8376 -3.31476 -5.66091 0
M  V30 927 H 78.7546 -5.04564 -5.62984 0
M  V30 928 H 80.0226 -4.26355 -6.52565 0
M  V30 929 N 84.2517 0.741722 -1.39055 0
M  V30 930 C 85.1617 1.88621 -1.39496 0
M  V30 931 C 86.1777 1.71557 -0.290578 0
M  V30 932 O 87.3537 1.94275 -0.530954 0
M  V30 933 C 84.4187 3.24134 -1.23037 0
M  V30 934 C 83.4797 3.5364 -2.43387 0
M  V30 935 C 82.7127 4.82687 -2.27703 0
M  V30 936 O 82.9357 5.55922 -1.27696 0
M  V30 937 O 81.8697 5.1194 -3.16545 0
M  V30 938 H 85.6957 1.91203 -2.35956 0
M  V30 939 H 83.2807 0.888625 -1.20099 0
M  V30 940 H 85.1627 4.0513 -1.15964 0
M  V30 941 H 83.8377 3.22337 -0.296691 0
M  V30 942 H 82.7447 2.72758 -2.56035 0
M  V30 943 H 84.0777 3.60209 -3.35425 0
M  V30 944 N 85.7298 1.2412 0.971189 0
M  V30 945 C 86.9548 1.10667 1.75407 0
M  V30 946 C 87.3798 -0.337048 1.85056 0
M  V30 947 O 86.7378 -1.24396 1.31892 0
M  V30 948 C 86.7858 1.74726 3.15441 0
M  V30 949 O 85.8898 1.01566 3.99697 0
M  V30 950 H 85.2308 0.387341 0.539317 0
M  V30 951 H 87.7608 1.64358 1.2185 0
M  V30 952 H 87.7708 1.80341 3.6598 0
M  V30 953 H 86.4458 2.79773 3.07734 0
M  V30 954 H 85.0228 1.03713 3.58187 0
M  V30 955 N 87.2079 -1.17134 1.05439 0
M  V30 956 C 88.4549 -1.87456 0.765942 0
M  V30 957 C 88.7829 -1.81189 -0.707153 0
M  V30 958 O 88.0379 -1.21633 -1.5331 0
M  V30 959 C 88.3369 -3.36833 1.19491 0
M  V30 960 C 88.0029 -3.63301 2.67063 0
M  V30 961 C 86.6649 -3.70234 3.07376 0
M  V30 962 C 89.0169 -3.74575 3.62413 0
M  V30 963 C 86.3449 -3.85933 4.41896 0
M  V30 964 C 88.6969 -3.91793 4.9667 0
M  V30 965 C 87.3609 -3.96966 5.36633 0
M  V30 966 H 86.6309 -0.685948 0.280278 0
M  V30 967 H 89.2779 -1.38556 1.32192 0
M  V30 968 H 87.5829 -3.87807 0.557969 0
M  V30 969 H 89.2799 -3.89611 0.948893 0
M  V30 970 H 85.8699 -3.58532 2.34846 0
M  V30 971 H 90.0539 -3.68537 3.32406 0
M  V30 972 H 85.3099 -3.88187 4.72357 0
M  V30 973 H 89.4839 -3.99458 5.70444 0
M  V30 974 H 87.1109 -4.08883 6.40874 0
M  V30 975 N 88.686 -0.835752 -1.33615 0
M  V30 976 C 90.102 -0.523139 -1.50783 0
M  V30 977 C 90.302 0.950171 -1.77691 0
M  V30 978 O 89.358 1.73411 -1.83534 0
M  V30 979 C 90.671 -1.39378 -2.66448 0
M  V30 980 C 92.219 -1.39223 -2.80332 0
M  V30 981 C 92.694 -2.24765 -3.99055 0
M  V30 982 N 94.185 -2.22458 -4.06284 0
M  V30 983 C 94.92 -2.85386 -4.97336 0
M  V30 984 N 94.416 -3.57354 -5.93523 0
M  V30 985 N 96.209 -2.74872 -4.90308 0
M  V30 986 H 88.36 -1.78952 -1.14411 0
M  V30 987 H 90.623 -0.763297 -0.562212 0
M  V30 988 H 90.329 -2.44061 -2.53234 0
M  V30 989 H 90.203 -1.0676 -3.61776 0
M  V30 990 H 92.59 -0.353136 -2.92979 0
M  V30 991 H 92.671 -1.75846 -1.85773 0
M  V30 992 H 92.315 -3.28732 -3.87167 0
M  V30 993 H 92.245 -1.85485 -4.92852 0
M  V30 994 H 94.736 -1.70119 -3.37443 0
M  V30 995 H 95.049 -4.02584 -6.59656 0
M  V30 996 H 93.394 -3.61461 -5.93608 0
M  V30 997 H 96.585 -2.18213 -4.14126 0
M  V30 998 H 96.758 -3.24199 -5.61069 0
M  V30 999 N 90.1641 1.46063 -0.591896 0
M  V30 1000 C 91.0941 2.33172 0.123673 0
M  V30 1001 C 92.0751 1.45897 0.87453 0
M  V30 1002 O 93.2601 1.74698 0.848181 0
M  V30 1003 C 90.3901 3.28336 1.13194 0
M  V30 1004 C 89.3441 4.25124 0.495324 0
M  V30 1005 C 88.6701 5.09863 1.61071 0
M  V30 1006 C 89.9701 5.19143 -0.573425 0
M  V30 1007 H 91.6641 2.93252 -0.603646 0
M  V30 1008 H 89.2101 1.41014 -0.291741 0
M  V30 1009 H 91.1631 3.88137 1.64097 0
M  V30 1010 H 89.8871 2.66383 1.88965 0
M  V30 1011 H 88.5461 3.66599 0.00729452 0
M  V30 1012 H 88.1941 4.44288 2.35832 0
M  V30 1013 H 87.8941 5.75417 1.19035 0
M  V30 1014 H 89.4181 5.72529 2.12233 0
M  V30 1015 H 90.8321 5.73106 -0.1491 0
M  V30 1016 H 89.2291 5.93089 -0.914636 0
M  V30 1017 H 90.2991 4.62519 -1.45617 0
M  V30 1018 N 91.6422 0.330177 1.54103 0
M  V30 1019 C 92.8702 -0.272179 2.05102 0
M  V30 1020 C 93.2852 -1.45267 1.20595 0
M  V30 1021 O 92.6422 -1.8094 0.238144 0
M  V30 1022 C 92.6932 -0.70023 3.54653 0
M  V30 1023 O 92.4142 0.433301 4.35952 0
M  V30 1024 C 93.9152 -1.3647 4.21771 0
M  V30 1025 H 91.1352 -0.0549159 0.668749 0
M  V30 1026 H 93.6792 0.478285 1.98828 0
M  V30 1027 H 91.8342 -1.40066 3.61193 0
M  V30 1028 H 92.2482 0.0947539 5.24414 0
M  V30 1029 H 93.7222 -1.61509 5.27843 0
M  V30 1030 H 94.1992 -2.31409 3.73292 0
M  V30 1031 H 94.8052 -0.706675 4.19388 0
M  V30 1032 N 93.1203 -1.57491 0.0584922 0
M  V30 1033 C 94.0683 -2.13148 -0.931168 0
M  V30 1034 C 95.0623 -1.06507 -1.31729 0
M  V30 1035 O 96.2683 -1.24906 -1.29609 0
M  V30 1036 H 92.6433 -0.68137 -0.31818 0
M  V30 1037 H 94.6143 -2.95187 -0.436707 0
M  V30 1038 C 93.3633 -2.69732 -2.19408 0
M  V30 1039 H 92.6863 -3.51454 -1.90578 0
M  V30 1040 H 94.1263 -3.12287 -2.86798 0
M  V30 1041 C 92.5853 -1.63855 -2.94369 0
M  V30 1042 O 93.1153 -1.05565 -3.87581 0
M  V30 1043 N 91.3213 -1.35202 -2.57233 0
M  V30 1044 H 90.8683 -1.82791 -1.81508 0
M  V30 1045 H 90.8263 -0.645922 -3.07693 0
M  V30 1046 N 94.5984 0.214957 -1.56127 0
M  V30 1047 C 95.8444 0.939762 -1.79712 0
M  V30 1048 C 96.1774 1.83723 -0.629247 0
M  V30 1049 O 95.4524 1.90925 0.371197 0
M  V30 1050 C 95.7354 1.77306 -3.13424 0
M  V30 1051 C 95.5884 0.90164 -4.40671 0
M  V30 1052 C 96.9074 2.74956 -3.43638 0
M  V30 1053 H 94.0264 0.340214 -0.653776 0
M  V30 1054 H 96.6684 0.20824 -1.88855 0
M  V30 1055 H 94.8184 2.39673 -3.0576 0
M  V30 1056 H 96.4904 0.294206 -4.60361 0
M  V30 1057 H 94.7334 0.207368 -4.33304 0
M  V30 1058 H 95.4044 1.51923 -5.30682 0
M  V30 1059 H 97.8804 2.22724 -3.51473 0
M  V30 1060 H 96.7564 3.30358 -4.38355 0
M  V30 1061 H 97.0174 3.53023 -2.66134 0
M  V30 1062 N 96.0765 1.50051 0.48192 0
M  V30 1063 C 97.0235 1.68122 1.58125 0
M  V30 1064 C 97.9935 0.522545 1.57666 0
M  V30 1065 O 99.1785 0.751844 1.75362 0
M  V30 1066 C 96.3185 1.77142 2.96167 0
M  V30 1067 C 95.4315 3.0444 3.06497 0
M  V30 1068 C 94.5665 3.04321 4.35387 0
M  V30 1069 C 93.6055 4.26118 4.3942 0
M  V30 1070 N 92.7425 4.238 5.59766 0
M  V30 1071 H 97.5825 2.6198 1.42022 0
M  V30 1072 H 95.1195 1.29877 0.690687 0
M  V30 1073 H 97.0775 1.80352 3.76203 0
M  V30 1074 H 95.7075 0.867329 3.1093 0
M  V30 1075 H 94.7595 3.10752 2.19402 0
M  V30 1076 H 96.0715 3.94426 3.05336 0
M  V30 1077 H 95.2255 3.062 5.23762 0
M  V30 1078 H 93.9645 2.12147 4.39141 0
M  V30 1079 H 92.9695 4.24463 3.49444 0
M  V30 1080 H 94.1945 5.19507 4.37366 0
M  V30 1081 H 92.1405 3.34474 5.64326 0
M  V30 1082 H 92.0575 5.07542 5.60301 0
M  V30 1083 H 93.3255 4.2981 6.50295 0
M  V30 1084 N 97.5546 -0.734337 1.39446 0
M  V30 1085 C 98.4846 -1.86155 1.40955 0
M  V30 1086 C 99.4656 -1.67898 0.272827 0
M  V30 1087 O 100.651 -1.88207 0.478743 0
M  V30 1088 C 97.7806 -3.23912 1.25294 0
M  V30 1089 C 96.7346 -3.56808 2.36373 0
M  V30 1090 C 96.0606 -4.93508 2.058 0
M  V30 1091 C 97.3606 -3.59713 3.78687 0
M  V30 1092 H 99.0546 -1.8515 2.35287 0
M  V30 1093 H 96.6006 -0.889367 1.13253 0
M  V30 1094 H 98.5536 -4.02443 1.2497 0
M  V30 1095 H 97.2776 -3.25446 0.274308 0
M  V30 1096 H 95.9366 -2.80606 2.35914 0
M  V30 1097 H 95.5846 -4.91623 1.06374 0
M  V30 1098 H 95.2846 -5.16486 2.80208 0
M  V30 1099 H 96.8086 -5.74396 2.07128 0
M  V30 1100 H 98.2226 -4.2832 3.81071 0
M  V30 1101 H 96.6196 -3.94209 4.52459 0
M  V30 1102 H 97.6896 -2.59504 4.09617 0
M  V30 1103 N 99.0327 -1.24633 -0.964593 0
M  V30 1104 C 99.9647 -0.999302 -2.06268 0
M  V30 1105 C 100.978 0.0323226 -1.62768 0
M  V30 1106 O 102.167 -0.205079 -1.77318 0
M  V30 1107 C 99.2667 -0.486816 -3.35385 0
M  V30 1108 C 98.4397 -1.5823 -4.07777 0
M  V30 1109 C 97.4987 -1.07191 -5.15166 0
M  V30 1110 O 96.5247 -1.76426 -5.41168 0
M  V30 1111 N 97.7267 0.0920373 -5.80427 0
M  V30 1112 H 100.492 -1.94477 -2.28033 0
M  V30 1113 H 98.0527 -1.15704 -1.13244 0
M  V30 1114 H 100.045 -0.130066 -4.04491 0
M  V30 1115 H 98.6147 0.364459 -3.10468 0
M  V30 1116 H 97.8347 -2.11109 -3.32906 0
M  V30 1117 H 99.1227 -2.31854 -4.52903 0
M  V30 1118 H 98.5207 0.670784 -5.61709 0
M  V30 1119 H 97.0777 0.389905 -6.50633 0
M  V30 1120 N 100.511 1.16574 -1.06058 0
M  V30 1121 C 101.736 1.91493 -0.796562 0
M  V30 1122 C 102.161 1.76773 0.642868 0
M  V30 1123 O 101.519 1.09142 1.44768 0
M  V30 1124 C 101.567 3.40293 -1.19303 0
M  V30 1125 O 100.671 4.11074 -0.330394 0
M  V30 1126 H 100.012 0.596678 -0.291326 0
M  V30 1127 H 102.542 1.47708 -1.41575 0
M  V30 1128 H 102.552 3.91057 -1.16356 0
M  V30 1129 H 101.227 3.50326 -2.24153 0
M  V30 1130 H 99.8038 3.70513 -0.421225 0
M  V30 1131 N 101.989 0.842826 1.3317 0
M  V30 1132 C 103.235 0.441099 1.97945 0
M  V30 1133 C 103.568 -0.998024 1.66593 0
M  V30 1134 O 102.843 -1.69839 0.947898 0
M  V30 1135 C 103.126 0.666841 3.53872 0
M  V30 1136 C 102.979 2.15352 3.94897 0
M  V30 1137 C 104.298 0.115544 4.39948 0
M  V30 1138 H 101.417 0.161739 0.719034 0
M  V30 1139 H 104.059 1.05907 1.57746 0
M  V30 1140 H 102.209 0.140828 3.88245 0
M  V30 1141 H 103.881 2.7447 3.70761 0
M  V30 1142 H 102.124 2.63653 3.44484 0
M  V30 1143 H 102.795 2.26221 5.03516 0
M  V30 1144 H 105.271 0.565213 4.12243 0
M  V30 1145 H 104.147 0.303152 5.48062 0
M  V30 1146 H 104.408 -0.980935 4.3108 0
M  V30 1147 N 103.467 -1.45747 0.599634 0
M  V30 1148 C 104.43 -2.28917 -0.113835 0
M  V30 1149 C 105.43 -1.3933 -0.802729 0
M  V30 1150 O 106.62 -1.61534 -0.652103 0
M  V30 1151 C 103.752 -3.20152 -1.17114 0
M  V30 1152 H 104.945 -2.93478 0.617289 0
M  V30 1153 H 102.498 -1.52137 0.358327 0
M  V30 1154 H 103.233 -2.60374 -1.93329 0
M  V30 1155 H 103.018 -3.86133 -0.681468 0
M  V30 1156 H 104.508 -3.82708 -1.67105 0
M  V30 1157 N 104.945 -0.338344 -1.53925 0
M  V30 1158 C 105.893 0.536231 -2.26335 0
M  V30 1159 C 106.887 1.1063 -1.28286 0
M  V30 1160 O 108.093 1.05264 -1.46012 0
M  V30 1161 H 104.468 0.191602 -0.727181 0
M  V30 1162 H 106.439 -0.0965747 -2.98244 0
M  V30 1163 C 105.188 1.67803 -3.04528 0
M  V30 1164 H 104.511 1.24864 -3.79801 0
M  V30 1165 H 105.951 2.26526 -3.58416 0
M  V30 1166 C 104.41 2.60439 -2.13712 0
M  V30 1167 O 104.94 3.6255 -1.72975 0
M  V30 1168 N 103.146 2.29006 -1.78898 0
M  V30 1169 H 102.693 1.46011 -2.12223 0
M  V30 1170 H 102.651 2.91248 -1.18416 0
M  V30 1171 N 106.423 1.57458 -0.0668435 0
M  V30 1172 C 107.37 2.12439 0.902122 0
M  V30 1173 C 108.34 1.03565 1.2986 0
M  V30 1174 O 109.525 1.312 1.38532 0
M  V30 1175 C 106.665 2.6865 2.16614 0
M  V30 1176 C 105.778 3.91663 1.82274 0
M  V30 1177 C 104.913 4.36134 3.0325 0
M  V30 1178 C 103.952 5.51808 2.64904 0
M  V30 1179 N 103.089 5.9126 3.78624 0
M  V30 1180 H 107.929 2.94934 0.426382 0
M  V30 1181 H 105.466 1.4575 0.198819 0
M  V30 1182 H 107.424 2.99346 2.90599 0
M  V30 1183 H 106.054 1.88928 2.61737 0
M  V30 1184 H 105.106 3.6746 0.983719 0
M  V30 1185 H 106.418 4.75693 1.50059 0
M  V30 1186 H 105.572 4.68465 3.85519 0
M  V30 1187 H 104.311 3.50948 3.38655 0
M  V30 1188 H 103.316 5.19133 1.81055 0
M  V30 1189 H 104.541 6.38722 2.30675 0
M  V30 1190 H 102.487 5.09024 4.138 0
M  V30 1191 H 102.404 6.70018 3.5016 0
M  V30 1192 H 103.672 6.28212 4.61486 0
M  V30 1193 N 107.901 -0.206675 1.56239 0
M  V30 1194 C 108.864 -1.23976 1.92776 0
M  V30 1195 C 109.864 -1.39041 0.807729 0
M  V30 1196 O 111.054 -1.37051 1.0753 0
M  V30 1197 C 108.186 -2.61112 2.19165 0
M  V30 1198 H 109.379 -0.927764 2.85189 0
M  V30 1199 H 106.932 -0.447718 1.4975 0
M  V30 1200 H 107.667 -2.97386 1.29352 0
M  V30 1201 H 107.452 -2.51552 3.00772 0
M  V30 1202 H 108.942 -3.35633 2.48476 0
M  V30 1203 N 109.379 -1.50304 -0.473955 0
M  V30 1204 C 110.342 -1.6841 -1.55469 0
M  V30 1205 C 111.342 -0.554905 -1.50922 0
M  V30 1206 O 112.532 -0.821882 -1.53593 0
M  V30 1207 C 109.664 -1.70667 -2.95102 0
M  V30 1208 H 110.857 -2.64828 -1.40733 0
M  V30 1209 H 108.41 -1.39742 -0.700132 0
M  V30 1210 H 109.145 -0.75932 -3.15285 0
M  V30 1211 H 108.93 -2.52698 -2.9981 0
M  V30 1212 H 110.42 -1.8664 -3.73571 0
M  V30 1213 N 110.857 0.726932 -1.39834 0
M  V30 1214 C 112.085 1.51613 -1.40787 0
M  V30 1215 C 112.5 1.88799 -0.00451505 0
M  V30 1216 O 111.857 1.54662 0.968809 0
M  V30 1217 C 111.908 2.79863 -2.28821 0
M  V30 1218 O 111.629 2.44253 -3.63692 0
M  V30 1219 C 113.13 3.73837 -2.38245 0
M  V30 1220 H 110.35 0.468264 -0.480593 0
M  V30 1221 H 112.894 0.897607 -1.83748 0
M  V30 1222 H 111.049 3.38027 -1.89252 0
M  V30 1223 H 111.463 3.26695 -4.1033 0
M  V30 1224 H 112.937 4.60699 -3.04073 0
M  V30 1225 H 113.414 4.16153 -1.40403 0
M  V30 1226 H 114.02 3.21589 -2.78317 0
M  V30 1227 N 112.336 1.25143 0.95797 0
M  V30 1228 C 113.284 1.05019 2.07542 0
M  V30 1229 C 114.278 -0.0178751 1.69391 0
M  V30 1230 O 115.484 0.137472 1.79474 0
M  V30 1231 H 111.859 0.32265 0.679265 0
M  V30 1232 H 113.83 1.99759 2.21673 0
M  V30 1233 C 112.579 0.682074 3.40944 0
M  V30 1234 H 111.902 1.49573 3.70767 0
M  V30 1235 H 113.342 0.580945 4.20001 0
M  V30 1236 C 111.801 -0.611608 3.31302 0
M  V30 1237 O 112.331 -1.65465 3.66038 0
M  V30 1238 N 110.537 -0.595982 2.84423 0
M  V30 1239 H 110.084 0.253192 2.56353 0
M  V30 1240 H 110.042 -1.46173 2.78354 0
M  V30 1241 N 113.814 -1.1601 1.06675 0
M  V30 1242 C 115.039 -1.91068 0.806706 0
M  V30 1243 C 115.464 -1.77112 -0.633485 0
M  V30 1244 O 114.822 -1.09908 -1.44187 0
M  V30 1245 C 114.87 -3.39655 1.21106 0
M  V30 1246 O 113.974 -4.10893 0.352189 0
M  V30 1247 H 113.315 -0.595125 0.294486 0
M  V30 1248 H 115.845 -1.46955 1.42356 0
M  V30 1249 H 115.855 -3.90434 1.18428 0
M  V30 1250 H 114.53 -3.49132 2.26008 0
M  V30 1251 H 113.107 -3.70285 0.440868 0
M  V30 1252 N 115.292 -0.849877 -1.32721 0
M  V30 1253 C 116.224 -0.248332 -2.27851 0
M  V30 1254 C 117.237 0.577218 -1.52224 0
M  V30 1255 O 118.426 0.402489 -1.73903 0
M  V30 1256 C 115.526 0.668107 -3.32249 0
M  V30 1257 C 114.699 -0.120534 -4.37234 0
M  V30 1258 C 113.758 0.720932 -5.21238 0
M  V30 1259 O 112.784 0.156166 -5.68986 0
M  V30 1260 N 113.986 2.03647 -5.43607 0
M  V30 1261 H 116.751 -1.06575 -2.80111 0
M  V30 1262 H 114.312 -0.709395 -1.45531 0
M  V30 1263 H 116.304 1.23627 -3.85355 0
M  V30 1264 H 114.874 1.38621 -2.80184 0
M  V30 1265 H 114.094 -0.870108 -3.84477 0
M  V30 1266 H 115.382 -0.662406 -5.0447 0
M  V30 1267 H 114.78 2.51871 -5.06535 0
M  V30 1268 H 113.337 2.55287 -5.99727 0
M  V30 1269 N 116.77 1.45427 -0.607355 0
M  V30 1270 C 117.68 2.34325 0.113463 0
M  V30 1271 C 118.696 1.51226 0.860617 0
M  V30 1272 O 119.872 1.84029 0.818255 0
M  V30 1273 C 116.937 3.28839 1.09844 0
M  V30 1274 C 115.998 4.27844 0.353271 0
M  V30 1275 C 115.231 5.17842 1.29133 0
M  V30 1276 O 115.454 5.11264 2.52913 0
M  V30 1277 O 114.388 5.96713 0.788523 0
M  V30 1278 H 118.214 2.97364 -0.617094 0
M  V30 1279 H 115.799 1.44807 -0.367619 0
M  V30 1280 H 117.681 3.8708 1.66575 0
M  V30 1281 H 116.356 2.68365 1.81003 0
M  V30 1282 H 115.263 3.7322 -0.256494 0
M  V30 1283 H 116.596 4.91173 -0.317822 0
M  V30 1284 N 118.248 0.346503 1.53744 0
M  V30 1285 C 119.18 -0.543316 2.22667 0
M  V30 1286 C 120.193 -1.06159 1.23427 0
M  V30 1287 O 121.382 -0.971235 1.49764 0
M  V30 1288 C 118.482 -1.76076 2.89569 0
M  V30 1289 C 117.655 -1.37727 4.15151 0
M  V30 1290 C 116.714 -2.45471 4.65436 0
M  V30 1291 O 115.74 -2.08655 5.29577 0
M  V30 1292 N 116.942 -3.7677 4.41616 0
M  V30 1293 H 119.707 0.0469703 2.99663 0
M  V30 1294 H 117.268 0.170766 1.60997 0
M  V30 1295 H 119.26 -2.47593 3.20125 0
M  V30 1296 H 117.83 -2.25835 2.16142 0
M  V30 1297 H 117.05 -0.492746 3.91108 0
M  V30 1298 H 118.338 -1.09708 4.96832 0
M  V30 1299 H 117.736 -4.09467 3.90325 0
M  V30 1300 H 116.293 -4.44448 4.7677 0
M  V30 1301 N 119.726 -1.57421 0.075193 0
M  V30 1302 C 120.973 -1.93618 -0.593146 0
M  V30 1303 C 121.301 -0.955484 -1.69413 0
M  V30 1304 O 120.556 0.0283251 -1.9568 0
M  V30 1305 C 120.855 -3.36428 -1.20626 0
M  V30 1306 C 120.521 -4.50307 -0.231078 0
M  V30 1307 C 119.183 -4.81186 0.0371936 0
M  V30 1308 C 121.535 -5.19374 0.435888 0
M  V30 1309 C 118.863 -5.78466 0.979461 0
M  V30 1310 C 121.215 -6.17665 1.3665 0
M  V30 1311 C 119.879 -6.46958 1.6432 0
M  V30 1312 H 119.149 -0.708499 -0.217047 0
M  V30 1313 H 121.796 -1.90937 0.146793 0
M  V30 1314 H 120.101 -3.35592 -2.02201 0
M  V30 1315 H 121.798 -3.61727 -1.73073 0
M  V30 1316 H 118.388 -4.26227 -0.450357 0
M  V30 1317 H 122.572 -4.95711 0.241748 0
M  V30 1318 H 117.828 -5.99487 1.20106 0
M  V30 1319 H 122.002 -6.70284 1.88924 0
M  V30 1320 H 119.629 -7.2215 2.37494 0
M  V30 1321 N 121.204 0.198386 -1.56346 0
M  V30 1322 C 122.152 1.26538 -1.95169 0
M  V30 1323 C 123.146 1.47295 -0.836685 0
M  V30 1324 O 124.352 1.48195 -1.02167 0
M  V30 1325 H 120.727 0.424744 -0.620561 0
M  V30 1326 H 122.698 0.910904 -2.84157 0
M  V30 1327 C 121.447 2.6035 -2.30463 0
M  V30 1328 H 120.77 2.45192 -3.15786 0
M  V30 1329 H 122.21 3.33762 -2.61494 0
M  V30 1330 C 120.669 3.17096 -1.13806 0
M  V30 1331 O 121.199 3.99588 -0.41135 0
M  V30 1332 N 119.405 2.75795 -0.915736 0
M  V30 1333 H 118.952 2.08816 -1.50843 0
M  V30 1334 H 118.91 3.14101 -0.136979 0
M  V30 1335 N 122.682 1.50554 0.465978 0
M  V30 1336 C 123.612 1.72722 1.57128 0
M  V30 1337 C 124.593 0.576294 1.6004 0
M  V30 1338 O 125.778 0.81598 1.76225 0
M  V30 1339 C 122.908 1.82605 2.95419 0
M  V30 1340 C 121.862 2.97835 3.07373 0
M  V30 1341 C 121.188 2.92867 4.47363 0
M  V30 1342 C 122.488 4.38265 2.84114 0
M  V30 1343 H 124.182 2.65267 1.38829 0
M  V30 1344 H 121.728 1.2765 0.666441 0
M  V30 1345 H 123.681 1.96698 3.72677 0
M  V30 1346 H 122.405 0.866858 3.14886 0
M  V30 1347 H 121.064 2.83401 2.3255 0
M  V30 1348 H 120.712 1.94783 4.63755 0
M  V30 1349 H 120.412 3.70227 4.56296 0
M  V30 1350 H 121.936 3.09015 5.26633 0
M  V30 1351 H 123.35 4.53198 3.51118 0
M  V30 1352 H 121.747 5.17115 3.04487 0
M  V30 1353 H 122.817 4.50281 1.7993 0
M  V30 1354 N 124.16 -0.719506 1.40217 0
M  V30 1355 C 125.093 -1.84298 1.34571 0
M  V30 1356 C 126.071 -1.61149 0.216741 0
M  V30 1357 O 127.255 -1.84212 0.399756 0
M  V30 1358 C 124.382 -3.20568 1.09335 0
M  V30 1359 C 123.428 -3.62551 2.24631 0
M  V30 1360 S 124.261 -3.7012 3.87004 0
M  V30 1361 C 125.417 -5.09154 3.64024 0
M  V30 1362 H 125.65 -1.88807 2.2965 0
M  V30 1363 H 123.183 -0.885901 1.26456 0
M  V30 1364 H 125.141 -3.99246 0.954602 0
M  V30 1365 H 123.802 -3.13696 0.159164 0
M  V30 1366 H 122.995 -4.61483 2.02606 0
M  V30 1367 H 122.597 -2.91119 2.34789 0
M  V30 1368 H 124.889 -5.95955 3.22248 0
M  V30 1369 H 125.832 -5.36213 4.62473 0
M  V30 1370 H 126.24 -4.79562 2.97793 0
M  V30 1371 N 125.638 -1.25649 -0.95132 0
M  V30 1372 C 126.571 -1.00644 -2.04807 0
M  V30 1373 C 127.549 0.0654271 -1.62468 0
M  V30 1374 O 128.733 -0.074911 -1.88351 0
M  V30 1375 C 125.86 -0.522052 -3.34653 0
M  V30 1376 C 124.906 -1.58495 -3.95957 0
M  V30 1377 S 125.739 -3.17108 -4.31512 0
M  V30 1378 C 126.895 -2.70412 -5.64471 0
M  V30 1379 H 127.128 -1.93508 -2.25703 0
M  V30 1380 H 124.661 -1.09216 -1.09139 0
M  V30 1381 H 126.619 -0.24923 -4.09743 0
M  V30 1382 H 125.28 0.386146 -3.11717 0
M  V30 1383 H 124.473 -1.1968 -4.89584 0
M  V30 1384 H 124.075 -1.80862 -3.2736 0
M  V30 1385 H 126.367 -2.14245 -6.42733 0
M  V30 1386 H 127.31 -3.62693 -6.08161 0
M  V30 1387 H 127.718 -2.10302 -5.23864 0
M  V30 1388 N 127.117 1.15442 -1.07289 0
M  V30 1389 C 128.08 2.18358 -0.696591 0
M  V30 1390 C 129.08 1.58637 0.262837 0
M  V30 1391 O 130.27 1.74145 0.0438809 0
M  V30 1392 C 127.402 3.4089 -0.0266151 0
M  V30 1393 H 128.595 2.53162 -1.60776 0
M  V30 1394 H 126.148 1.29893 -0.869342 0
M  V30 1395 H 126.883 3.11653 0.896822 0
M  V30 1396 H 126.668 3.85495 -0.716657 0
M  V30 1397 H 128.158 4.17009 0.222028 0
M  V30 1398 N 128.595 0.856903 1.32268 0
M  V30 1399 C 129.82 0.474569 2.01897 0
M  V30 1400 C 130.245 -0.921766 1.63967 0
M  V30 1401 O 129.603 -1.60589 0.84148 0
M  V30 1402 C 129.651 0.623799 3.55164 0
M  V30 1403 O 128.755 -0.342459 4.10976 0
M  V30 1404 H 128.096 0.190422 0.63611 0
M  V30 1405 H 130.626 1.15672 1.68764 0
M  V30 1406 H 130.636 0.512169 4.04773 0
M  V30 1407 H 129.311 1.64202 3.82113 0
M  V30 1408 H 127.888 -0.18688 3.72431 0
M  V30 1409 N 130.073 -1.45103 0.615059 0
M  V30 1410 C 131.321 -2.01784 0.112955 0
M  V30 1411 C 131.642 -1.48504 -1.26378 0
M  V30 1412 O 130.912 -0.682245 -1.83636 0
M  V30 1413 H 129.492 -0.745993 0.0387668 0
M  V30 1414 H 132.154 -1.77808 0.798141 0
M  V30 1415 H 131.25 -3.12025 0.0684069 0
M  V30 1416 N 131.551 -0.354651 -1.53558 0
M  V30 1417 C 132.828 0.294281 -1.93374 0
M  V30 1418 C 133.208 1.67313 -1.28723 0
M  V30 1419 O 132.556 2.24179 -0.442247 0
M  V30 1420 C 132.766 0.355445 -3.47185 0
M  V30 1421 C 134.114 0.601007 -4.20325 0
M  V30 1422 O 135.138 0.437106 -3.53508 0
M  V30 1423 O 133.997 0.919322 -5.38712 0
M  V30 1424 H 131.091 0.174033 -0.808481 0
M  V30 1425 H 133.637 -0.406638 -1.64756 0
M  V30 1426 H 132.409 -0.611729 -3.86489 0
M  V30 1427 H 132.032 1.1027 -3.82003 0
M  V30 1428 N 133.029 1.57378 -0.0835403 0
M  V30 1429 C 133.959 2.1641 0.87686 0
M  V30 1430 C 134.94 1.09429 1.30228 0
M  V30 1431 O 136.125 1.37516 1.37124 0
M  V30 1432 C 133.255 2.73517 2.14022 0
M  V30 1433 C 132.209 3.85769 1.85381 0
M  V30 1434 C 131.535 4.29529 3.18448 0
M  V30 1435 C 132.835 5.09486 1.14984 0
M  V30 1436 H 134.529 2.96914 0.385059 0
M  V30 1437 H 132.075 1.42823 0.18377 0
M  V30 1438 H 134.028 3.13463 2.81636 0
M  V30 1439 H 132.752 1.90252 2.65465 0
M  V30 1440 H 131.411 3.46345 1.20169 0
M  V30 1441 H 131.059 3.43169 3.67755 0
M  V30 1442 H 130.759 5.05204 3.00071 0
M  V30 1443 H 132.283 4.72099 3.8724 0
M  V30 1444 H 133.697 5.46674 1.72687 0
M  V30 1445 H 132.094 5.90515 1.06826 0
M  V30 1446 H 133.164 4.84724 0.130749 0
M  V30 1447 N 134.507 -0.190092 1.56449 0
M  V30 1448 C 135.918 -0.754312 1.70784 0
M  V30 1449 C 136.269 -1.83631 0.690951 0
M  V30 1450 O 135.394 -2.15868 -0.151604 0
M  V30 1451 C 135.989 -1.37503 3.09642 0
M  V30 1452 C 134.548 -1.88628 3.25725 0
M  V30 1453 C 133.695 -0.758098 2.66736 0
M  V30 1454 H 136.646 0.0350524 1.58661 0
M  V30 1455 H 136.667 -2.2445 3.0725 0
M  V30 1456 H 136.179 -0.587302 3.83631 0
M  V30 1457 H 134.28 -2.70103 2.56661 0
M  V30 1458 H 134.393 -2.04462 4.3328 0
M  V30 1459 H 132.757 -1.17369 2.26046 0
M  V30 1460 H 133.54 0.0174705 3.43296 0
M  V30 1461 N 135.985 -1.50799 -0.457987 0
M  V30 1462 C 137.262 -1.52968 -1.21902 0
M  V30 1463 C 137.642 -0.281906 -2.09209 0
M  V30 1464 O 136.99 0.734076 -2.16388 0
M  V30 1465 C 137.2 -2.8326 -2.03875 0
M  V30 1466 C 138.548 -3.34425 -2.6162 0
M  V30 1467 O 139.572 -2.8467 -2.14106 0
M  V30 1468 O 138.431 -4.21188 -3.48228 0
M  V30 1469 H 135.525 -0.614129 -0.553873 0
M  V30 1470 H 138.071 -1.63098 -0.468739 0
M  V30 1471 H 136.843 -3.65543 -1.39621 0
M  V30 1472 H 136.466 -2.76195 -2.8601 0
M  V30 1473 N 137.463 0.71206 -1.40597 0
M  V30 1474 C 138.709 1.47416 -1.39271 0
M  V30 1475 C 139.042 1.942 0.00388791 0
M  V30 1476 O 138.317 1.68403 0.973179 0
M  V30 1477 C 138.6 2.69774 -2.38525 0
M  V30 1478 C 138.453 2.28861 -3.87224 0
M  V30 1479 C 139.772 3.71939 -2.35264 0
M  V30 1480 H 136.891 0.534713 -0.5072 0
M  V30 1481 H 139.533 0.812375 -1.71757 0
M  V30 1482 H 137.683 3.26238 -2.10953 0
M  V30 1483 H 139.355 1.77852 -4.25636 0
M  V30 1484 H 137.598 1.60824 -4.02887 0
M  V30 1485 H 138.269 3.16584 -4.52193 0
M  V30 1486 H 140.745 3.25113 -2.59694 0
M  V30 1487 H 139.621 4.55186 -3.06753 0
M  V30 1488 H 139.882 4.20484 -1.36549 0
M  V30 1489 N 138.941 1.26152 0.944643 0
M  V30 1490 C 140.187 1.11657 1.69294 0
M  V30 1491 C 140.52 -0.339926 1.91202 0
M  V30 1492 O 139.795 -1.24994 1.49019 0
M  V30 1493 C 140.078 1.88236 3.06984 0
M  V30 1494 C 139.931 3.41772 2.92424 0
M  V30 1495 C 141.25 1.67343 4.07043 0
M  V30 1496 H 138.369 0.407004 0.614424 0
M  V30 1497 H 141.011 1.55106 1.09737 0
M  V30 1498 H 139.161 1.51308 3.57824 0
M  V30 1499 H 140.833 3.88433 2.48832 0
M  V30 1500 H 139.076 3.68974 2.28124 0
M  V30 1501 H 139.747 3.90579 3.90067 0
M  V30 1502 H 142.223 1.99509 3.65151 0
M  V30 1503 H 141.099 2.23346 5.01406 0
M  V30 1504 H 141.36 0.617158 4.37771 0
M  V30 1505 N 140.419 -1.14872 1.07899 0
M  V30 1506 C 141.667 -1.85422 0.803941 0
M  V30 1507 C 141.988 -1.83051 -0.67211 0
M  V30 1508 O 141.258 -1.27532 -1.48703 0
M  V30 1509 H 139.838 -0.686537 0.294408 0
M  V30 1510 H 142.5 -1.39226 1.3639 0
M  V30 1511 H 141.596 -2.90399 1.14346 0
M  V30 1512 N 141.898 -0.863906 -1.31812 0
M  V30 1513 C 143.146 -0.470904 -1.96537 0
M  V30 1514 C 143.467 0.978771 -1.68657 0
M  V30 1515 O 142.737 1.6853 -0.998717 0
M  V30 1516 H 141.317 -0.171148 -0.72713 0
M  V30 1517 H 143.979 -1.10236 -1.60729 0
M  V30 1518 H 143.075 -0.623616 -3.05806 0
M  V30 1519 N 143.376 1.44774 -0.622745 0
M  V30 1520 C 144.653 1.95522 -0.0551974 0
M  V30 1521 C 145.033 1.5649 1.41683 0
M  V30 1522 O 144.381 0.834848 2.12703 0
M  V30 1523 C 144.591 3.4796 -0.269242 0
M  V30 1524 C 145.939 4.24306 -0.158014 0
M  V30 1525 O 146.963 3.55637 -0.200162 0
M  V30 1526 O 145.822 5.46471 -0.0558693 0
M  V30 1527 H 142.916 0.826556 0.0271015 0
M  V30 1528 H 145.462 1.54866 -0.693864 0
M  V30 1529 H 144.234 3.6939 -1.29099 0
M  V30 1530 H 143.857 3.95543 0.403966 0
M  V30 1531 N 144.854 0.36279 1.53368 0
M  V30 1532 C 145.802 -0.500155 2.27159 0
M  V30 1533 C 146.796 -1.08575 1.3003 0
M  V30 1534 O 148.002 -1.02927 1.47668 0
M  V30 1535 H 144.377 -0.180009 0.730138 0
M  V30 1536 H 146.348 0.14401 2.98052 0
M  V30 1537 C 145.097 -1.62937 3.07159 0
M  V30 1538 H 144.42 -1.18806 3.8174 0
M  V30 1539 H 145.86 -2.20795 3.61975 0
M  V30 1540 C 144.319 -2.57007 2.17829 0
M  V30 1541 O 144.849 -3.59752 1.78721 0
M  V30 1542 N 143.055 -2.26131 1.82518 0
M  V30 1543 H 142.602 -1.42616 2.14519 0
M  V30 1544 H 142.56 -2.89327 1.23034 0
M  V30 1545 N 146.332 -1.57332 0.0918853 0
M  V30 1546 C 147.262 -2.16872 -0.865371 0
M  V30 1547 C 148.243 -1.10118 -1.29646 0
M  V30 1548 O 149.428 -1.38242 -1.36392 0
M  V30 1549 C 146.558 -2.74649 -2.12569 0
M  V30 1550 C 145.512 -3.86747 -1.83333 0
M  V30 1551 C 144.838 -4.31212 -3.16166 0
M  V30 1552 C 146.138 -5.10089 -1.1228 0
M  V30 1553 H 147.832 -2.97114 -0.369307 0
M  V30 1554 H 145.378 -1.42918 -0.176194 0
M  V30 1555 H 147.331 -3.14952 -2.7997 0
M  V30 1556 H 146.055 -1.91657 -2.64452 0
M  V30 1557 H 144.714 -3.46978 -1.18331 0
M  V30 1558 H 144.362 -3.45115 -3.6593 0
M  V30 1559 H 144.062 -5.06788 -2.97388 0
M  V30 1560 H 145.586 -4.74146 -3.84731 0
M  V30 1561 H 147 -5.47582 -1.69785 0
M  V30 1562 H 145.397 -5.91073 -1.03693 0
M  V30 1563 H 146.467 -4.84786 -0.105041 0
M  V30 1564 N 147.81 0.181792 -1.56548 0
M  V30 1565 C 148.757 1.22521 -1.95595 0
M  V30 1566 C 149.727 1.4454 -0.818373 0
M  V30 1567 O 150.912 1.57454 -1.07763 0
M  V30 1568 C 148.052 2.56193 -2.31212 0
M  V30 1569 C 147.165 2.41641 -3.58097 0
M  V30 1570 C 146.3 3.68108 -3.82975 0
M  V30 1571 C 145.339 3.48445 -5.03242 0
M  V30 1572 N 144.476 4.66956 -5.24306 0
M  V30 1573 H 149.316 0.885226 -2.84548 0
M  V30 1574 H 146.853 0.425718 -1.40805 0
M  V30 1575 H 148.811 3.34088 -2.49882 0
M  V30 1576 H 147.441 2.88208 -1.45382 0
M  V30 1577 H 146.493 1.54976 -3.474 0
M  V30 1578 H 147.805 2.23052 -4.46149 0
M  V30 1579 H 146.959 4.54441 -4.01956 0
M  V30 1580 H 145.698 3.89666 -2.93278 0
M  V30 1581 H 144.703 2.60499 -4.8417 0
M  V30 1582 H 145.928 3.2832 -5.9446 0
M  V30 1583 H 143.874 4.88752 -4.37559 0
M  V30 1584 H 143.791 4.51242 -6.06561 0
M  V30 1585 H 145.059 5.54602 -5.47756 0
M  V30 1586 N 149.288 1.51039 0.449983 0
M  V30 1587 C 150.565 1.53612 1.21089 0
M  V30 1588 C 150.945 0.292997 2.09057 0
M  V30 1589 O 150.293 -0.72259 2.16774 0
M  V30 1590 C 150.503 2.84337 2.0237 0
M  V30 1591 C 151.851 3.35807 2.59843 0
M  V30 1592 O 152.875 2.85802 2.12593 0
M  V30 1593 O 151.734 4.23029 3.45989 0
M  V30 1594 H 148.828 0.617057 0.550608 0
M  V30 1595 H 151.374 1.63344 0.460082 0
M  V30 1596 H 150.146 3.66278 1.37681 0
M  V30 1597 H 149.769 2.77708 2.84542 0
M  V30 1598 N 150.766 -0.704594 1.40972 0
M  V30 1599 C 151.713 -1.81862 1.42109 0
M  V30 1600 C 152.683 -1.63781 0.276593 0
M  V30 1601 O 153.868 -1.84759 0.4763 0
M  V30 1602 C 151.008 -3.19669 1.30022 0
M  V30 1603 C 150.121 -3.49246 2.54267 0
M  V30 1604 C 149.256 -4.76618 2.3454 0
M  V30 1605 C 148.295 -4.99133 3.54306 0
M  V30 1606 N 147.432 -6.17726 3.33706 0
M  V30 1607 H 152.272 -1.80226 2.37324 0
M  V30 1608 H 149.809 -0.880238 1.17857 0
M  V30 1609 H 151.767 -3.99263 1.21018 0
M  V30 1610 H 150.397 -3.20506 0.384192 0
M  V30 1611 H 149.449 -2.64125 2.73756 0
M  V30 1612 H 150.761 -3.61788 3.43381 0
M  V30 1613 H 149.915 -5.64249 2.22952 0
M  V30 1614 H 148.654 -4.66305 1.42867 0
M  V30 1615 H 147.659 -4.09953 3.66359 0
M  V30 1616 H 148.884 -5.11311 4.4692 0
M  V30 1617 H 146.83 -6.08642 2.44725 0
M  V30 1618 H 146.747 -6.30995 4.16391 0
M  V30 1619 H 148.015 -7.08115 3.25873 0
M  V30 1620 N 152.244 -1.26651 -0.937939 0
M  V30 1621 C 153.491 -1.12387 -1.6845 0
M  V30 1622 C 153.819 0.332208 -1.91642 0
M  V30 1623 O 153.074 1.2602 -1.49725 0
M  V30 1624 C 153.373 -1.84168 -3.06295 0
M  V30 1625 C 153.039 -3.34056 -3.02849 0
M  V30 1626 C 151.701 -3.74942 -3.01616 0
M  V30 1627 C 154.053 -4.29741 -2.9491 0
M  V30 1628 C 151.381 -5.09894 -2.90215 0
M  V30 1629 C 153.733 -5.64738 -2.8505 0
M  V30 1630 C 152.397 -6.0493 -2.82162 0
M  V30 1631 H 151.667 -0.411252 -0.616403 0
M  V30 1632 H 154.314 -1.57134 -1.09459 0
M  V30 1633 H 152.619 -1.319 -3.6893 0
M  V30 1634 H 154.316 -1.70569 -3.62915 0
M  V30 1635 H 150.906 -3.01534 -3.0459 0
M  V30 1636 H 155.09 -3.99133 -2.94969 0
M  V30 1637 H 150.346 -5.40194 -2.86358 0
M  V30 1638 H 154.52 -6.38561 -2.77872 0
M  V30 1639 H 152.147 -7.09457 -2.73084 0
M  V30 1640 N 153.722 1.14298 -1.08507 0
M  V30 1641 C 154.971 1.84708 -0.810305 0
M  V30 1642 C 155.284 1.83903 0.666271 0
M  V30 1643 O 156.49 2.50112 1.05624 0
M  V30 1644 C 154.946 3.31572 -1.39957 0
M  V30 1645 C 154.554 3.40791 -2.90801 0
M  V30 1646 C 156.298 4.07087 -1.20334 0
M  V30 1647 C 154.205 4.81872 -3.4286 0
M  V30 1648 H 153.135 0.691985 -0.299454 0
M  V30 1649 H 155.786 1.28841 -1.30661 0
M  V30 1650 H 154.168 3.87183 -0.830976 0
M  V30 1651 H 155.342 2.95225 -3.53806 0
M  V30 1652 H 153.657 2.78732 -3.0935 0
M  V30 1653 H 156.254 5.11225 -1.56693 0
M  V30 1654 H 156.597 4.16054 -0.143237 0
M  V30 1655 H 157.13 3.57779 -1.73893 0
M  V30 1656 H 153.869 4.78094 -4.48449 0
M  V30 1657 H 153.389 5.27972 -2.84615 0
M  V30 1658 H 155.068 5.50765 -3.39509 0
M  V30 1659 N 155.201 0.870884 1.31352 0
M  V30 1660 C 156.133 0.28455 2.27427 0
M  V30 1661 C 157.146 -0.552927 1.53123 0
M  V30 1662 O 158.335 -0.374771 1.74521 0
M  V30 1663 C 155.435 -0.615164 3.3327 0
M  V30 1664 C 154.608 0.190079 4.36987 0
M  V30 1665 C 153.667 -0.637917 5.22319 0
M  V30 1666 O 152.693 -0.065626 5.69162 0
M  V30 1667 N 153.895 -1.94973 5.46778 0
M  V30 1668 H 156.66 1.11017 2.7838 0
M  V30 1669 H 154.221 0.732458 1.44384 0
M  V30 1670 H 156.213 -1.1748 3.87273 0
M  V30 1671 H 154.783 -1.34146 2.82354 0
M  V30 1672 H 154.003 0.931165 3.83044 0
M  V30 1673 H 155.291 0.742579 5.03352 0
M  V30 1674 H 154.689 -2.4378 5.10478 0
M  V30 1675 H 153.246 -2.45713 6.03712 0
M  V30 1676 N 156.679 -1.44442 0.630414 0
M  V30 1677 C 157.909 -2.06115 0.141465 0
M  V30 1678 C 158.317 -1.47179 -1.1889 0
M  V30 1679 O 157.66 -0.588873 -1.74006 0
M  V30 1680 C 157.722 -3.59467 -0.0484355 0
M  V30 1681 C 157.386 -4.40864 1.20366 0
M  V30 1682 C 158.383 -4.74391 2.12719 0
M  V30 1683 C 156.068 -4.8125 1.43887 0
M  V30 1684 C 158.062 -5.47186 3.26904 0
M  V30 1685 C 155.749 -5.53795 2.5837 0
M  V30 1686 C 156.747 -5.86682 3.49705 0
M  V30 1687 O 156.435 -6.57749 4.62191 0
M  V30 1688 H 156.167 -0.671648 0.0765792 0
M  V30 1689 H 158.721 -1.86312 0.864695 0
M  V30 1690 H 156.951 -3.77758 -0.826803 0
M  V30 1691 H 158.64 -4.02909 -0.491849 0
M  V30 1692 H 159.406 -4.43728 1.95781 0
M  V30 1693 H 155.285 -4.55073 0.736853 0
M  V30 1694 H 158.829 -5.72773 3.98217 0
M  V30 1695 H 154.726 -5.83872 2.75251 0
M  V30 1696 H 155.494 -6.76217 4.61164 0
M  V30 1697 N 158.157 -0.370918 -1.53173 0
M  V30 1698 C 159.405 0.216673 -2.00935 0
M  V30 1699 C 159.726 1.48845 -1.25977 0
M  V30 1700 O 158.996 1.92286 -0.374551 0
M  V30 1701 H 157.576 0.0830565 -0.742368 0
M  V30 1702 H 160.238 -0.49838 -1.8842 0
M  V30 1703 H 159.334 0.439893 -3.08984 0
M  V30 1704 N 159.635 1.57281 -0.100228 0
M  V30 1705 C 160.567 2.11342 0.886972 0
M  V30 1706 C 161.58 1.05182 1.24261 0
M  V30 1707 O 162.769 1.32613 1.19483 0
M  V30 1708 C 159.869 2.5825 2.19454 0
M  V30 1709 C 159.042 3.88302 2.01346 0
M  V30 1710 C 158.101 4.21004 3.15661 0
M  V30 1711 O 157.127 4.9014 2.89398 0
M  V30 1712 N 158.329 3.76818 4.41575 0
M  V30 1713 H 161.094 2.96668 0.425216 0
M  V30 1714 H 158.655 1.61678 0.0847334 0
M  V30 1715 H 160.647 2.7717 2.94888 0
M  V30 1716 H 159.217 1.77907 2.57037 0
M  V30 1717 H 158.437 3.7848 1.10212 0
M  V30 1718 H 159.725 4.73375 1.8653 0
M  V30 1719 H 159.123 3.2102 4.65792 0
M  V30 1720 H 157.68 4.00882 5.13942 0
M  V30 1721 N 161.113 -0.173488 1.56642 0
M  V30 1722 C 162.023 -1.23482 1.99473 0
M  V30 1723 C 163.039 -1.48567 0.905752 0
M  V30 1724 O 164.215 -1.60758 1.21321 0
M  V30 1725 C 161.28 -2.55444 2.34413 0
M  V30 1726 C 160.341 -2.38241 3.57127 0
M  V30 1727 C 159.574 -3.63909 3.90392 0
M  V30 1728 O 159.797 -4.68996 3.24653 0
M  V30 1729 O 158.731 -3.58149 4.83749 0
M  V30 1730 H 162.557 -0.901279 2.90018 0
M  V30 1731 H 160.142 -0.380185 1.44482 0
M  V30 1732 H 162.024 -3.33292 2.57865 0
M  V30 1733 H 160.699 -2.88382 1.4703 0
M  V30 1734 H 159.606 -1.58431 3.38896 0
M  V30 1735 H 160.939 -2.10228 4.45045 0
M  V30 1736 N 162.591 -1.51276 -0.441967 0
M  V30 1737 C 163.839 -1.63392 -1.18943 0
M  V30 1738 C 164.16 -0.350159 -1.9183 0
M  V30 1739 O 163.43 0.633784 -1.85364 0
M  V30 1740 H 162.01 -0.602164 -0.442049 0
M  V30 1741 H 164.672 -1.88186 -0.507165 0
M  V30 1742 H 163.768 -2.45934 -1.92154 0
M  V30 1743 N 164.069 0.697108 -1.41344 0
M  V30 1744 C 165.032 1.79281 -1.42797 0
M  V30 1745 C 166.032 1.57607 -0.318837 0
M  V30 1746 O 167.222 1.64309 -0.578642 0
M  V30 1747 C 164.354 3.17632 -1.23785 0
M  V30 1748 H 165.547 1.79385 -2.40335 0
M  V30 1749 H 163.1 0.904582 -1.27464 0
M  V30 1750 H 163.835 3.23167 -0.270814 0
M  V30 1751 H 163.62 3.34765 -2.04144 0
M  V30 1752 H 165.11 3.97617 -1.27633 0
M  V30 1753 N 165.547 1.27147 0.931209 0
M  V30 1754 C 166.794 1.13278 1.67852 0
M  V30 1755 C 167.122 -0.32204 1.91815 0
M  V30 1756 O 166.377 -1.25224 1.50391 0
M  V30 1757 C 166.676 1.8579 3.05314 0
M  V30 1758 C 166.342 3.35657 3.01073 0
M  V30 1759 C 165.004 3.76536 2.99623 0
M  V30 1760 C 167.356 4.31299 2.92627 0
M  V30 1761 C 164.684 5.11426 2.87506 0
M  V30 1762 C 167.036 5.66242 2.82051 0
M  V30 1763 C 165.7 6.06418 2.7895 0
M  V30 1764 H 164.97 0.414515 0.614214 0
M  V30 1765 H 167.617 1.57712 1.08624 0
M  V30 1766 H 165.922 1.33854 3.68226 0
M  V30 1767 H 167.619 1.72491 3.62005 0
M  V30 1768 H 164.209 3.03146 3.02986 0
M  V30 1769 H 168.393 4.00692 2.92848 0
M  V30 1770 H 163.649 5.41705 2.83489 0
M  V30 1771 H 167.823 6.40026 2.74481 0
M  V30 1772 H 165.45 7.10895 2.69318 0
M  V30 1773 N 167.025 -1.13721 1.09112 0
M  V30 1774 C 168.271 -1.85198 0.826414 0
M  V30 1775 C 168.604 -1.83129 -0.646319 0
M  V30 1776 O 167.879 -1.2671 -1.47563 0
M  V30 1777 C 168.162 -3.33507 1.35812 0
M  V30 1778 C 168.015 -3.44108 2.89672 0
M  V30 1779 C 169.334 -4.28838 0.989256 0
M  V30 1780 H 166.453 -0.67243 0.301675 0
M  V30 1781 H 169.095 -1.33499 1.35197 0
M  V30 1782 H 167.245 -3.77666 0.911082 0
M  V30 1783 H 168.917 -3.08684 3.428 0
M  V30 1784 H 167.16 -2.85087 3.26967 0
M  V30 1785 H 167.831 -4.48388 3.21951 0
M  V30 1786 H 170.307 -3.92734 1.37475 0
M  V30 1787 H 169.183 -5.31051 1.38838 0
M  V30 1788 H 169.444 -4.4198 -0.102924 0
M  V30 1789 N 168.503 -0.877838 -1.30888 0
M  V30 1790 C 169.914 -0.544193 -1.78593 0
M  V30 1791 C 170.265 0.939301 -1.72254 0
M  V30 1792 O 169.39 1.7337 -1.29505 0
M  V30 1793 C 169.985 -0.98105 -3.24285 0
M  V30 1794 C 168.544 -0.698935 -3.69854 0
M  V30 1795 C 167.691 -1.168 -2.51502 0
M  V30 1796 H 170.642 -1.06278 -1.17859 0
M  V30 1797 H 170.663 -0.307009 -3.79259 0
M  V30 1798 H 170.175 -2.06079 -3.28866 0
M  V30 1799 H 168.276 0.369112 -3.70767 0
M  V30 1800 H 168.389 -1.28148 -4.61644 0
M  V30 1801 H 166.753 -0.587535 -2.47831 0
M  V30 1802 H 167.536 -2.25533 -2.58824 0
M  V30 1803 N 169.982 1.44106 -0.638065 0
M  V30 1804 C 170.912 2.33448 0.0494287 0
M  V30 1805 C 171.893 1.48606 0.827672 0
M  V30 1806 O 173.078 1.77308 0.792173 0
M  V30 1807 C 170.208 3.31771 1.02691 0
M  V30 1808 C 169.162 4.26485 0.359823 0
M  V30 1809 C 168.488 5.14729 1.44769 0
M  V30 1810 C 169.788 5.17056 -0.738296 0
M  V30 1811 H 171.482 2.91183 -0.696636 0
M  V30 1812 H 169.028 1.40014 -0.336456 0
M  V30 1813 H 170.981 3.93161 1.51666 0
M  V30 1814 H 169.705 2.7226 1.80395 0
M  V30 1815 H 168.364 3.66437 -0.10934 0
M  V30 1816 H 168.012 4.51566 2.21578 0
M  V30 1817 H 167.712 5.78913 1.00668 0
M  V30 1818 H 169.236 5.78991 1.93911 0
M  V30 1819 H 170.65 5.72342 -0.331354 0
M  V30 1820 H 169.047 5.89879 -1.10286 0
M  V30 1821 H 170.117 4.57652 -1.60258 0
M  V30 1822 N 171.46 0.379036 1.52974 0
M  V30 1823 C 172.408 -0.476033 2.27677 0
M  V30 1824 C 173.402 -1.0719 1.31174 0
M  V30 1825 O 174.608 -1.01355 1.48752 0
M  V30 1826 H 170.983 -0.172255 0.732006 0
M  V30 1827 H 172.954 0.175615 2.97883 0
M  V30 1828 C 171.703 -1.5967 3.0887 0
M  V30 1829 H 171.026 -1.1475 3.82978 0
M  V30 1830 H 172.466 -2.16943 3.64296 0
M  V30 1831 C 170.925 -2.54682 2.20542 0
M  V30 1832 O 171.455 -3.57836 1.82527 0
M  V30 1833 N 169.661 -2.24183 1.84907 0
M  V30 1834 H 169.208 -1.40333 2.1602 0
M  V30 1835 H 169.166 -2.88006 1.26096 0
M  V30 1836 N 172.938 -1.57226 0.108567 0
M  V30 1837 C 173.885 -2.14756 -0.845481 0
M  V30 1838 C 174.855 -1.06971 -1.27068 0
M  V30 1839 O 176.04 -1.34827 -1.35005 0
M  V30 1840 C 173.18 -2.74298 -2.09415 0
M  V30 1841 C 172.293 -3.96358 -1.71826 0
M  V30 1842 C 171.428 -4.44021 -2.9158 0
M  V30 1843 C 170.467 -5.58637 -2.50181 0
M  V30 1844 N 169.604 -6.01091 -3.62814 0
M  V30 1845 H 174.444 -2.95961 -0.348035 0
M  V30 1846 H 171.981 -1.46226 -0.160106 0
M  V30 1847 H 173.939 -3.06945 -2.82561 0
M  V30 1848 H 172.569 -1.95801 -2.56636 0
M  V30 1849 H 171.621 -3.69939 -0.885947 0
M  V30 1850 H 172.933 -4.79504 -1.37394 0
M  V30 1851 H 172.087 -4.78522 -3.72963 0
M  V30 1852 H 170.826 -3.59803 -3.29231 0
M  V30 1853 H 169.831 -5.23751 -1.67228 0
M  V30 1854 H 171.056 -6.44613 -2.13659 0
M  V30 1855 H 169.002 -5.19817 -4.00158 0
M  V30 1856 H 168.919 -6.79066 -3.32273 0
M  V30 1857 H 170.187 -6.40227 -4.44668 0
M  V30 1858 N 174.416 0.165178 -1.56732 0
M  V30 1859 C 175.346 1.20651 -1.99914 0
M  V30 1860 C 176.327 1.45827 -0.875705 0
M  V30 1861 O 177.512 1.57057 -1.14223 0
M  V30 1862 C 174.642 2.54401 -2.36427 0
M  V30 1863 C 173.596 2.43782 -3.51787 0
M  V30 1864 C 172.922 3.82078 -3.7406 0
M  V30 1865 C 174.222 1.93732 -4.85041 0
M  V30 1866 H 175.916 0.847534 -2.87154 0
M  V30 1867 H 173.462 0.40625 -1.38151 0
M  V30 1868 H 175.415 3.27458 -2.65234 0
M  V30 1869 H 174.139 2.92098 -1.46103 0
M  V30 1870 H 172.798 1.73178 -3.23117 0
M  V30 1871 H 172.446 4.17179 -2.81017 0
M  V30 1872 H 172.146 3.7584 -4.51684 0
M  V30 1873 H 173.67 4.56712 -4.05274 0
M  V30 1874 H 175.084 2.56569 -5.12684 0
M  V30 1875 H 173.481 1.98428 -5.66345 0
M  V30 1876 H 174.551 0.891962 -4.76626 0
M  V30 1877 N 175.894 1.51508 0.433938 0
M  V30 1878 C 177.143 1.63578 1.18005 0
M  V30 1879 C 177.456 0.359514 1.92268 0
M  V30 1880 O 178.662 0.359632 2.69108 0
M  V30 1881 C 177.118 2.88901 2.14626 0
M  V30 1882 C 176.726 4.23544 1.45995 0
M  V30 1883 C 178.47 3.10328 2.89649 0
M  V30 1884 C 176.377 5.40014 2.4112 0
M  V30 1885 H 175.307 0.609277 0.444182 0
M  V30 1886 H 177.958 1.77978 0.446773 0
M  V30 1887 H 176.34 2.68142 2.91403 0
M  V30 1888 H 177.514 4.54696 0.747532 0
M  V30 1889 H 175.829 4.08021 0.831115 0
M  V30 1890 H 178.426 3.94518 3.60915 0
M  V30 1891 H 178.769 2.23544 3.51189 0
M  V30 1892 H 179.302 3.31443 2.19978 0
M  V30 1893 H 176.041 6.29068 1.84264 0
M  V30 1894 H 175.561 5.13233 3.10406 0
M  V30 1895 H 177.24 5.72099 3.02177 0
M  V30 1896 N 177.372 -0.689602 1.41712 0
M  V30 1897 C 178.649 -1.44457 1.31877 0
M  V30 1898 C 179.029 -2.11039 -0.0508537 0
M  V30 1899 O 178.377 -2.02138 -1.06547 0
M  V30 1900 C 178.587 -2.45913 2.47645 0
M  V30 1901 C 179.935 -3.10991 2.89084 0
M  V30 1902 O 180.959 -2.56238 2.47428 0
M  V30 1903 O 179.818 -4.10174 3.61137 0
M  V30 1904 H 176.912 -0.64362 0.519309 0
M  V30 1905 H 179.458 -0.719576 1.53689 0
M  V30 1906 H 178.23 -1.95409 3.39015 0
M  V30 1907 H 177.853 -3.25913 2.27742 0
M  V30 1908 N 178.85 -1.27639 -0.924453 0
M  V30 1909 C 179.782 -1.06442 -2.02985 0
M  V30 1910 C 180.795 -0.0194771 -1.62788 0
M  V30 1911 O 181.984 -0.261388 -1.76576 0
M  V30 1912 C 179.084 -0.59327 -3.33667 0
M  V30 1913 C 178.257 -1.71123 -4.02537 0
M  V30 1914 C 177.316 -1.23527 -5.11495 0
M  V30 1915 O 176.342 -1.93553 -5.35281 0
M  V30 1916 N 177.544 -0.0926678 -5.80426 0
M  V30 1917 H 180.309 -2.01633 -2.2173 0
M  V30 1918 H 177.87 -1.19248 -1.09505 0
M  V30 1919 H 179.862 -0.258686 -4.03872 0
M  V30 1920 H 178.432 0.265502 -3.1147 0
M  V30 1921 H 177.652 -2.21593 -3.26022 0
M  V30 1922 H 178.94 -2.46145 -4.45298 0
M  V30 1923 H 178.338 0.491741 -5.63559 0
M  V30 1924 H 176.895 0.182714 -6.51544 0
M  V30 1925 N 180.328 1.1314 -1.09713 0
M  V30 1926 C 181.558 1.88048 -0.855656 0
M  V30 1927 C 181.966 1.79537 0.596919 0
M  V30 1928 O 181.309 1.16196 1.42282 0
M  V30 1929 C 181.371 3.38314 -1.21589 0
M  V30 1930 C 181.035 3.70605 -2.67397 0
M  V30 1931 C 182.032 3.69596 -3.65643 0
M  V30 1932 C 179.717 4.0017 -3.03593 0
M  V30 1933 C 181.711 3.977 -4.9811 0
M  V30 1934 C 179.398 4.27935 -4.36251 0
M  V30 1935 C 180.396 4.26685 -5.33318 0
M  V30 1936 O 180.084 4.53767 -6.63589 0
M  V30 1937 H 179.816 0.60208 -0.307368 0
M  V30 1938 H 182.37 1.44128 -1.46343 0
M  V30 1939 H 180.6 3.82752 -0.551177 0
M  V30 1940 H 182.289 3.94552 -0.953083 0
M  V30 1941 H 183.055 3.46826 -3.39023 0
M  V30 1942 H 178.934 4.00289 -2.2867 0
M  V30 1943 H 182.478 3.9664 -5.73866 0
M  V30 1944 H 178.375 4.50178 -4.62613 0
M  V30 1945 H 179.143 4.71422 -6.69107 0
M  V30 1946 N 181.806 0.884767 1.30421 0
M  V30 1947 C 182.769 0.356277 2.26414 0
M  V30 1948 C 183.769 -0.501124 1.52792 0
M  V30 1949 O 184.959 -0.30831 1.7145 0
M  V30 1950 C 182.091 -0.492316 3.37326 0
M  V30 1951 H 183.284 1.20389 2.74675 0
M  V30 1952 H 180.837 0.661607 1.41607 0
M  V30 1953 H 181.572 -1.36052 2.94381 0
M  V30 1954 H 181.357 0.121832 3.91911 0
M  V30 1955 H 182.847 -0.853871 4.08777 0
M  V30 1956 N 183.284 -1.43765 0.645699 0
M  V30 1957 C 184.695 -1.85193 0.236719 0
M  V30 1958 C 185.046 -1.54045 -1.21509 0
M  V30 1959 O 184.171 -0.985694 -1.92647 0
M  V30 1960 C 184.766 -3.36151 0.422845 0
M  V30 1961 C 183.325 -3.76338 0.0682492 0
M  V30 1962 C 182.472 -2.67538 0.729306 0
M  V30 1963 H 185.423 -1.34025 0.849883 0
M  V30 1964 H 185.444 -3.79032 -0.333904 0
M  V30 1965 H 184.956 -3.5879 1.47958 0
M  V30 1966 H 183.057 -3.59312 -0.986179 0
M  V30 1967 H 183.17 -4.76603 0.488469 0
M  V30 1968 H 181.534 -2.54176 0.163235 0
M  V30 1969 H 182.317 -2.93006 1.78892 0
M  V30 1970 N 184.763 -0.387143 -1.52771 0
M  V30 1971 C 185.713 0.465942 -2.23188 0
M  V30 1972 C 186.697 1.03138 -1.23496 0
M  V30 1973 O 187.889 0.957845 -1.48843 0
M  V30 1974 C 185.018 1.59384 -3.04059 0
M  V30 1975 C 184.104 1.04024 -4.11144 0
M  V30 1976 N 184.495 0.211416 -5.05358 0
M  V30 1977 C 182.793 1.31295 -4.26237 0
M  V30 1978 C 183.494 -0.0941698 -5.81624 0
M  V30 1979 N 182.47 0.509207 -5.4121 0
M  V30 1980 H 186.272 -0.173856 -2.93385 0
M  V30 1981 H 183.786 -0.19633 -1.61209 0
M  V30 1982 H 185.783 2.21738 -3.53041 0
M  V30 1983 H 184.443 2.23648 -2.35397 0
M  V30 1984 H 185.454 -0.151151 -5.17679 0
M  V30 1985 H 182.131 1.95679 -3.68803 0
M  V30 1986 H 183.521 -0.765572 -6.67524 0
M  V30 1987 N 186.241 1.57166 -0.116904 0
M  V30 1988 C 187.49 1.94298 0.541407 0
M  V30 1989 C 187.803 1.00236 1.67964 0
M  V30 1990 O 189.009 1.26826 2.40057 0
M  V30 1991 C 187.465 3.45306 1.01449 0
M  V30 1992 C 187.073 4.47899 -0.0951738 0
M  V30 1993 C 188.817 3.91361 1.6443 0
M  V30 1994 C 186.724 5.90083 0.394491 0
M  V30 1995 H 185.654 0.725308 0.206019 0
M  V30 1996 H 188.305 1.82446 -0.196419 0
M  V30 1997 H 186.687 3.52385 1.80667 0
M  V30 1998 H 187.861 4.52486 -0.871374 0
M  V30 1999 H 186.176 4.11583 -0.631505 0
M  V30 2000 H 188.773 4.95004 2.02176 0
M  V30 2001 H 189.116 3.3122 2.52189 0
M  V30 2002 H 189.649 3.87073 0.917559 0
M  V30 2003 H 186.388 6.53974 -0.447004 0
M  V30 2004 H 185.908 5.88921 1.13722 0
M  V30 2005 H 187.587 6.41307 0.856399 0
M  V30 2006 N 187.719 -0.156864 1.56817 0
M  V30 2007 C 188.666 -1.19394 1.97519 0
M  V30 2008 C 189.636 -1.4322 0.841265 0
M  V30 2009 O 190.821 -1.55719 1.10255 0
M  V30 2010 C 187.961 -2.52483 2.35258 0
M  V30 2011 C 187.074 -2.35914 3.61896 0
M  V30 2012 C 186.209 -3.61969 3.88782 0
M  V30 2013 C 185.248 -3.40395 5.08722 0
M  V30 2014 N 184.385 -4.58556 5.31668 0
M  V30 2015 H 189.225 -0.839845 2.85921 0
M  V30 2016 H 186.762 -0.403264 1.41464 0
M  V30 2017 H 188.72 -3.30071 2.55165 0
M  V30 2018 H 187.35 -2.85859 1.49949 0
M  V30 2019 H 186.402 -1.49429 3.49821 0
M  V30 2020 H 187.714 -2.15926 4.49641 0
M  V30 2021 H 186.868 -4.47989 4.09135 0
M  V30 2022 H 185.607 -3.84951 2.9944 0
M  V30 2023 H 184.612 -2.52763 4.88253 0
M  V30 2024 H 185.837 -3.18822 5.99608 0
M  V30 2025 H 183.783 -4.81729 4.45279 0
M  V30 2026 H 183.7 -4.41535 6.13664 0
M  V30 2027 H 184.968 -5.45817 5.5651 0
M  V30 2028 N 189.197 -1.51736 -0.425897 0
M  V30 2029 C 190.16 -1.73271 -1.50032 0
M  V30 2030 C 191.16 -0.602639 -1.4908 0
M  V30 2031 O 192.35 -0.87033 -1.509 0
M  V30 2032 C 189.482 -1.79969 -2.89523 0
M  V30 2033 H 190.675 -2.69172 -1.32237 0
M  V30 2034 H 188.228 -1.41899 -0.65532 0
M  V30 2035 H 188.963 -0.859241 -3.1271 0
M  V30 2036 H 188.748 -2.62109 -2.91619 0
M  V30 2037 H 190.238 -1.9843 -3.67444 0
M  V30 2038 N 190.675 0.682077 -1.42076 0
M  V30 2039 C 191.922 1.44215 -1.42156 0
M  V30 2040 C 192.25 1.94468 -0.0354186 0
M  V30 2041 O 191.505 1.70816 0.955002 0
M  V30 2042 C 191.804 2.66036 -2.38662 0
M  V30 2043 C 191.47 2.34366 -3.85206 0
M  V30 2044 C 190.132 2.25439 -4.25124 0
M  V30 2045 C 192.484 2.08513 -4.77673 0
M  V30 2046 C 189.812 1.88775 -5.55501 0
M  V30 2047 C 192.164 1.73354 -6.08384 0
M  V30 2048 C 190.828 1.62933 -6.47309 0
M  V30 2049 H 190.098 0.527718 -0.520187 0
M  V30 2050 H 192.745 0.778387 -1.74967 0
M  V30 2051 H 191.05 3.3741 -1.99152 0
M  V30 2052 H 192.747 3.24205 -2.35991 0
M  V30 2053 H 189.337 2.42213 -3.53597 0
M  V30 2054 H 193.521 2.14346 -4.47626 0
M  V30 2055 H 188.777 1.7927 -5.84527 0
M  V30 2056 H 192.951 1.52373 -6.79526 0
M  V30 2057 H 190.578 1.34292 -7.48244 0
M  V30 2058 N 192.153 1.28127 0.917671 0
M  V30 2059 C 193.4 1.15052 1.66641 0
M  V30 2060 C 193.728 -0.301677 1.92146 0
M  V30 2061 O 192.983 -1.23622 1.51711 0
M  V30 2062 C 193.282 1.89018 3.03327 0
M  V30 2063 C 192.948 3.38832 2.97496 0
M  V30 2064 C 191.61 3.79693 2.95613 0
M  V30 2065 C 193.962 4.34378 2.88036 0
M  V30 2066 C 191.29 5.14447 2.82066 0
M  V30 2067 C 193.642 5.69201 2.7603 0
M  V30 2068 C 192.306 6.09343 2.72502 0
M  V30 2069 H 191.576 0.421006 0.609783 0
M  V30 2070 H 194.223 1.58855 1.06945 0
M  V30 2071 H 192.528 1.37752 3.66785 0
M  V30 2072 H 194.225 1.76321 3.60156 0
M  V30 2073 H 190.815 3.06342 2.99754 0
M  V30 2074 H 194.999 4.03775 2.88581 0
M  V30 2075 H 190.255 5.44681 2.77728 0
M  V30 2076 H 194.429 6.42901 2.67678 0
M  V30 2077 H 192.056 7.13712 2.61762 0
M  V30 2078 N 193.631 -1.12557 1.10312 0
M  V30 2079 C 194.578 -2.18247 0.750781 0
M  V30 2080 C 195.548 -1.63853 -0.272293 0
M  V30 2081 O 196.733 -1.90195 -0.151862 0
M  V30 2082 C 193.873 -3.44591 0.187379 0
M  V30 2083 C 192.986 -4.13046 1.2656 0
M  V30 2084 C 192.121 -5.27034 0.663978 0
M  V30 2085 C 191.16 -5.87353 1.72287 0
M  V30 2086 N 190.297 -6.92757 1.1416 0
M  V30 2087 H 195.137 -2.47732 1.65628 0
M  V30 2088 H 192.674 -1.21629 0.827337 0
M  V30 2089 H 194.632 -4.16904 -0.157148 0
M  V30 2090 H 193.262 -3.15527 -0.681355 0
M  V30 2091 H 192.314 -3.38924 1.72727 0
M  V30 2092 H 193.626 -4.53947 2.06721 0
M  V30 2093 H 192.78 -6.06104 0.268824 0
M  V30 2094 H 191.519 -4.87407 -0.169082 0
M  V30 2095 H 190.524 -5.06971 2.12746 0
M  V30 2096 H 191.749 -6.29051 2.55875 0
M  V30 2097 H 189.695 -6.5517 0.329984 0
M  V30 2098 H 189.612 -7.3225 1.88007 0
M  V30 2099 H 190.88 -7.75658 0.772956 0
M  V30 2100 N 195.109 -0.891671 -1.2995 0
M  V30 2101 C 196.334 -0.527932 -2.00568 0
M  V30 2102 C 196.759 0.877969 -1.66353 0
M  V30 2103 O 196.117 1.58301 -0.883762 0
M  V30 2104 C 196.165 -0.717745 -3.53385 0
M  V30 2105 O 195.269 0.233376 -4.11739 0
M  V30 2106 H 194.61 -0.20722 -0.630837 0
M  V30 2107 H 197.14 -1.20105 -1.65638 0
M  V30 2108 H 197.15 -0.619307 -4.03272 0
M  V30 2109 H 195.825 -1.74276 -3.77625 0
M  V30 2110 H 194.402 0.0880706 -3.72796 0
M  V30 2111 N 196.587 1.43421 -0.653314 0
M  V30 2112 C 197.537 2.2792 0.060558 0
M  V30 2113 C 198.521 1.39906 0.794677 0
M  V30 2114 O 199.713 1.63536 0.677128 0
M  V30 2115 C 196.842 3.27603 1.0262 0
M  V30 2116 C 195.928 4.23104 0.290551 0
M  V30 2117 N 196.319 5.01031 -0.692967 0
M  V30 2118 C 194.617 4.42816 0.531984 0
M  V30 2119 C 195.318 5.70626 -1.12963 0
M  V30 2120 N 194.294 5.41617 -0.463867 0
M  V30 2121 H 198.096 2.85585 -0.694143 0
M  V30 2122 H 195.61 1.55126 -0.480602 0
M  V30 2123 H 197.607 3.86918 1.55242 0
M  V30 2124 H 196.267 2.71499 1.78096 0
M  V30 2125 H 197.278 5.0669 -1.07169 0
M  V30 2126 H 193.955 3.97782 1.26791 0
M  V30 2127 H 195.345 6.4318 -1.94343 0
M  V30 2128 N 198.065 0.39524 1.52563 0
M  V30 2129 C 199.476 -0.0774719 1.86539 0
M  V30 2130 C 199.827 -1.45641 1.31466 0
M  V30 2131 O 198.952 -2.06459 0.648367 0
M  V30 2132 C 199.547 -0.147356 3.38479 0
M  V30 2133 C 198.106 -0.564373 3.72145 0
M  V30 2134 C 197.253 0.269919 2.75983 0
M  V30 2135 H 200.204 0.612876 1.46388 0
M  V30 2136 H 200.225 -0.965343 3.68051 0
M  V30 2137 H 199.737 0.856387 3.78534 0
M  V30 2138 H 197.838 -1.57527 3.37663 0
M  V30 2139 H 197.951 -0.318402 4.78041 0
M  V30 2140 H 196.315 -0.265696 2.5331 0
M  V30 2141 H 197.098 1.27175 3.18875 0
M  V30 2142 N 199.544 -1.57102 0.125237 0
M  V30 2143 C 200.454 -2.19191 -0.8362 0
M  V30 2144 C 201.47 -1.16985 -1.28805 0
M  V30 2145 O 202.646 -1.49479 -1.34974 0
M  V30 2146 C 199.711 -2.78407 -2.06617 0
M  V30 2147 C 198.772 -3.9567 -1.66565 0
M  V30 2148 C 198.005 -4.52052 -2.83698 0
M  V30 2149 O 198.228 -4.07326 -3.99302 0
M  V30 2150 O 197.162 -5.42645 -2.60423 0
M  V30 2151 H 200.988 -3.01816 -0.337776 0
M  V30 2152 H 198.573 -1.4906 -0.100695 0
M  V30 2153 H 200.455 -3.16129 -2.7864 0
M  V30 2154 H 199.13 -1.9881 -2.55453 0
M  V30 2155 H 198.037 -3.62705 -0.916296 0
M  V30 2156 H 199.37 -4.76722 -1.22464 0
M  V30 2157 N 201.022 0.148545 -1.56898 0
M  V30 2158 C 202.268 0.862694 -1.83536 0
M  V30 2159 C 202.601 1.80889 -0.706604 0
M  V30 2160 O 201.876 1.92328 0.289885 0
M  V30 2161 C 202.159 1.63853 -3.20662 0
M  V30 2162 C 202.012 0.713925 -4.44098 0
M  V30 2163 C 203.331 2.60133 -3.54991 0
M  V30 2164 H 200.45 0.312179 -0.667618 0
M  V30 2165 H 203.092 0.127953 -1.89569 0
M  V30 2166 H 201.242 2.26489 -3.1565 0
M  V30 2167 H 202.914 0.098686 -4.61194 0
M  V30 2168 H 201.157 0.0234019 -4.33794 0
M  V30 2169 H 201.828 1.29278 -5.36648 0
M  V30 2170 H 204.304 2.07616 -3.60603 0
M  V30 2171 H 203.18 3.11468 -4.51972 0
M  V30 2172 H 203.441 3.41417 -2.80868 0
M  V30 2173 N 202.5 1.5196 0.417844 0
M  V30 2174 C 203.41 1.77554 1.53336 0
M  V30 2175 C 204.426 0.660655 1.6097 0
M  V30 2176 O 205.602 0.945099 1.77848 0
M  V30 2177 C 202.667 1.91291 2.89152 0
M  V30 2178 C 201.728 3.15183 2.91475 0
M  V30 2179 C 200.961 3.28256 4.20813 0
M  V30 2180 O 201.184 2.46798 5.14244 0
M  V30 2181 O 200.118 4.21356 4.29817 0
M  V30 2182 H 203.944 2.7222 1.34647 0
M  V30 2183 H 201.529 1.36698 0.602828 0
M  V30 2184 H 203.411 2.02199 3.69721 0
M  V30 2185 H 202.086 0.998129 3.07927 0
M  V30 2186 H 200.993 3.09739 2.09791 0
M  V30 2187 H 202.326 4.06414 2.77648 0
M  V30 2188 N 203.978 -0.674533 1.42435 0
M  V30 2189 C 205.394 -0.98769 1.25367 0
M  V30 2190 C 205.594 -2.00879 0.158044 0
M  V30 2191 O 204.65 -2.48075 -0.470633 0
M  V30 2192 C 205.963 -1.49224 2.6106 0
M  V30 2193 C 207.511 -1.61 2.68417 0
M  V30 2194 C 207.986 -2.14852 4.04478 0
M  V30 2195 N 209.477 -2.22185 4.06434 0
M  V30 2196 C 210.212 -2.64928 5.08528 0
M  V30 2197 N 209.708 -3.07121 6.21006 0
M  V30 2198 N 211.501 -2.64679 4.95885 0
M  V30 2199 H 203.652 0.00152503 2.124 0
M  V30 2200 H 205.915 -0.0618434 0.945981 0
M  V30 2201 H 205.621 -0.816453 3.42092 0
M  V30 2202 H 205.495 -2.47094 2.84999 0
M  V30 2203 H 207.882 -2.27686 1.87732 0
M  V30 2204 H 207.963 -0.616195 2.48267 0
M  V30 2205 H 207.607 -1.48775 4.85622 0
M  V30 2206 H 207.537 -3.15024 4.2198 0
M  V30 2207 H 210.028 -1.92435 3.25234 0
M  V30 2208 H 210.341 -3.38423 6.94759 0
M  V30 2209 H 208.686 -3.04978 6.24511 0
M  V30 2210 H 211.877 -2.31078 4.07088 0
M  V30 2211 H 212.05 -2.9767 5.75584 0
M  V30 2212 N 205.456 -1.28612 -0.910864 0
M  V30 2213 C 206.419 -1.12803 -1.9952 0
M  V30 2214 C 207.419 -0.0668264 -1.60661 0
M  V30 2215 O 208.609 -0.312847 -1.71368 0
M  V30 2216 C 205.741 -0.72254 -3.33155 0
M  V30 2217 H 206.934 -2.09109 -2.14973 0
M  V30 2218 H 204.487 -1.11639 -1.09391 0
M  V30 2219 H 205.222 0.241152 -3.23402 0
M  V30 2220 H 205.007 -1.48916 -3.62721 0
M  V30 2221 H 206.497 -0.634666 -4.12749 0
M  V30 2222 N 206.934 1.1197 -1.10907 0
M  V30 2223 C 208.183 1.82947 -0.849302 0
M  V30 2224 C 208.496 1.85275 0.627112 0
M  V30 2225 O 209.702 2.52296 1.00295 0
M  V30 2226 C 208.158 3.28529 -1.46959 0
M  V30 2227 C 207.766 3.34546 -2.97965 0
M  V30 2228 C 209.51 4.04443 -1.28942 0
M  V30 2229 C 207.417 4.74491 -3.53004 0
M  V30 2230 H 206.347 0.685477 -0.314065 0
M  V30 2231 H 208.998 1.2604 -1.33365 0
M  V30 2232 H 207.38 3.85333 -0.912917 0
M  V30 2233 H 208.554 2.87654 -3.59989 0
M  V30 2234 H 206.869 2.72108 -3.15192 0
M  V30 2235 H 209.466 5.07787 -1.67502 0
M  V30 2236 H 209.809 4.15656 -0.231456 0
M  V30 2237 H 210.342 3.5401 -1.81443 0
M  V30 2238 H 207.081 4.68474 -4.58489 0
M  V30 2239 H 206.601 5.21816 -2.9575 0
M  V30 2240 H 208.28 5.4344 -3.51115 0
M  V30 2241 N 208.412 0.89855 1.29475 0
M  V30 2242 C 209.359 0.373819 2.27753 0
M  V30 2243 C 210.329 -0.543444 1.56958 0
M  V30 2244 O 211.514 -0.468934 1.84948 0
M  V30 2245 C 208.654 -0.393648 3.42848 0
M  V30 2246 C 207.767 0.554379 4.28428 0
M  V30 2247 C 206.902 -0.230026 5.30702 0
M  V30 2248 C 205.941 0.712599 6.07938 0
M  V30 2249 N 205.078 -0.0373283 7.0209 0
M  V30 2250 H 209.918 1.21699 2.72017 0
M  V30 2251 H 207.455 0.611456 1.33789 0
M  V30 2252 H 209.413 -0.85466 4.08352 0
M  V30 2253 H 208.043 -1.20128 2.99615 0
M  V30 2254 H 207.095 1.13391 3.63107 0
M  V30 2255 H 208.407 1.27597 4.82204 0
M  V30 2256 H 207.561 -0.752288 6.02018 0
M  V30 2257 H 206.3 -0.984758 4.77654 0
M  V30 2258 H 205.305 1.24637 5.35486 0
M  V30 2259 H 206.53 1.46664 6.63074 0
M  V30 2260 H 204.476 -0.774348 6.51414 0
M  V30 2261 H 204.393 0.624374 7.53417 0
M  V30 2262 H 205.661 -0.539891 7.77628 0
M  V30 2263 N 209.89 -1.43072 0.660911 0
M  V30 2264 C 210.853 -2.29194 -0.0166406 0
M  V30 2265 C 211.853 -1.42609 -0.742912 0
M  V30 2266 O 213.043 -1.64155 -0.583004 0
M  V30 2267 C 210.175 -3.24831 -1.0343 0
M  V30 2268 H 211.368 -2.90596 0.741208 0
M  V30 2269 H 208.921 -1.5048 0.422532 0
M  V30 2270 H 209.656 -2.68339 -1.82111 0
M  V30 2271 H 209.441 -3.88676 -0.517082 0
M  V30 2272 H 210.931 -3.89451 -1.50723 0
M  V30 2273 N 211.368 -0.403325 -1.52352 0
M  V30 2274 C 212.779 0.0675782 -1.86578 0
M  V30 2275 C 213.13 1.44941 -1.32236 0
M  V30 2276 O 212.255 2.06112 -0.659307 0
M  V30 2277 C 212.85 0.129404 -3.38553 0
M  V30 2278 C 211.409 0.544629 -3.72439 0
M  V30 2279 C 210.556 -0.284551 -2.75836 0
M  V30 2280 H 213.507 -0.620631 -1.46061 0
M  V30 2281 H 213.528 0.94581 -3.68558 0
M  V30 2282 H 213.04 -0.87645 -3.78074 0
M  V30 2283 H 211.141 1.55734 -3.38493 0
M  V30 2284 H 211.254 0.293046 -4.78203 0
M  V30 2285 H 209.618 0.252258 -2.53448 0
M  V30 2286 H 210.401 -1.28865 -3.18196 0
M  V30 2287 N 212.846 1.57033 -0.133567 0
M  V30 2288 C 214.123 1.87256 0.56522 0
M  V30 2289 C 214.503 1.03726 1.83859 0
M  V30 2290 O 213.851 0.120247 2.28183 0
M  V30 2291 C 214.061 3.3865 0.843636 0
M  V30 2292 C 215.409 4.07574 1.19032 0
M  V30 2293 O 216.433 3.43752 0.933429 0
M  V30 2294 O 215.292 5.20259 1.67312 0
M  V30 2295 H 212.386 0.775678 0.286796 0
M  V30 2296 H 214.932 1.68855 -0.169168 0
M  V30 2297 H 213.704 3.91257 -0.0581149 0
M  V30 2298 H 213.327 3.62532 1.63268 0
M  V30 2299 N 214.325 -0.140222 1.56975 0
M  V30 2300 C 215.573 -0.850005 1.83356 0
M  V30 2301 C 215.894 -1.81399 0.71551 0
M  V30 2302 O 215.164 -1.94136 -0.262294 0
M  V30 2303 H 213.744 -0.316886 0.676456 0
M  V30 2304 H 216.406 -0.132608 1.94448 0
M  V30 2305 H 215.502 -1.40814 2.78528 0
M  V30 2306 N 215.803 -1.52179 -0.40978 0
M  V30 2307 C 216.751 -1.76086 -1.51975 0
M  V30 2308 C 217.745 -0.627964 -1.57331 0
M  V30 2309 O 218.951 -0.809993 -1.60745 0
M  V30 2310 H 215.326 -0.556829 -0.505416 0
M  V30 2311 H 217.297 -2.69077 -1.28996 0
M  V30 2312 C 216.046 -1.92799 -2.8935 0
M  V30 2313 H 215.369 -2.79392 -2.85972 0
M  V30 2314 H 216.809 -2.13527 -3.66309 0
M  V30 2315 C 215.268 -0.694923 -3.29655 0
M  V30 2316 O 215.798 0.13751 -4.01465 0
M  V30 2317 N 214.004 -0.53101 -2.85707 0
M  V30 2318 H 213.551 -1.20952 -2.27439 0
M  V30 2319 H 213.509 0.292718 -3.13034 0
M  V30 2320 N 217.281 0.66697 -1.42791 0
M  V30 2321 C 218.53 1.42278 -1.42968 0
M  V30 2322 C 218.843 1.9553 -0.0524489 0
M  V30 2323 O 220.049 2.71414 0.068363 0
M  V30 2324 C 218.505 2.57418 -2.51524 0
M  V30 2325 C 218.113 2.10832 -3.9529 0
M  V30 2326 C 219.857 3.34878 -2.60877 0
M  V30 2327 C 217.764 3.23101 -4.95338 0
M  V30 2328 H 216.694 0.534533 -0.531781 0
M  V30 2329 H 219.345 0.721302 -1.68729 0
M  V30 2330 H 217.727 3.29971 -2.18941 0
M  V30 2331 H 218.901 1.4538 -4.37266 0
M  V30 2332 H 217.216 1.46289 -3.89857 0
M  V30 2333 H 219.813 4.18505 -3.32802 0
M  V30 2334 H 220.156 3.81993 -1.6549 0
M  V30 2335 H 220.689 2.69398 -2.92693 0
M  V30 2336 H 217.428 2.80969 -5.9223 0
M  V30 2337 H 216.948 3.87309 -4.57987 0
M  V30 2338 H 218.627 3.88447 -5.17415 0
M  V30 2339 N 218.759 1.29093 0.90403 0
M  V30 2340 C 219.989 1.19516 1.68522 0
M  V30 2341 C 220.397 -0.24738 1.87576 0
M  V30 2342 O 219.74 -1.17798 1.40959 0
M  V30 2343 C 219.802 1.83249 3.0929 0
M  V30 2344 C 219.466 3.32531 3.13484 0
M  V30 2345 C 220.463 4.28821 2.93953 0
M  V30 2346 C 218.148 3.73656 3.35688 0
M  V30 2347 C 220.142 5.64212 2.96553 0
M  V30 2348 C 217.829 5.0917 3.37919 0
M  V30 2349 C 218.827 6.04258 3.18373 0
M  V30 2350 O 218.515 7.37298 3.20385 0
M  V30 2351 H 218.247 0.415467 0.533257 0
M  V30 2352 H 220.801 1.70912 1.13922 0
M  V30 2353 H 219.031 1.26358 3.65473 0
M  V30 2354 H 220.72 1.68054 3.69476 0
M  V30 2355 H 221.486 3.98382 2.76616 0
M  V30 2356 H 217.365 3.00101 3.49943 0
M  V30 2357 H 220.909 6.38407 2.81216 0
M  V30 2358 H 216.806 5.39256 3.54787 0
M  V30 2359 H 217.574 7.46048 3.36681 0
M  V30 2360 N 220.237 -1.11381 1.11499 0
M  V30 2361 C 221.484 -1.83132 0.864231 0
M  V30 2362 C 221.812 -1.84683 -0.610114 0
M  V30 2363 O 221.067 -1.29589 -1.46646 0
M  V30 2364 C 221.366 -3.30026 1.37177 0
M  V30 2365 C 221.032 -3.48634 2.85946 0
M  V30 2366 C 219.694 -3.53421 3.26569 0
M  V30 2367 C 222.046 -3.54837 3.81759 0
M  V30 2368 C 219.374 -3.61967 4.61733 0
M  V30 2369 C 221.726 -3.64915 5.1674 0
M  V30 2370 C 220.39 -3.67962 5.5692 0
M  V30 2371 H 219.66 -0.670127 0.316245 0
M  V30 2372 H 222.307 -1.31354 1.3935 0
M  V30 2373 H 220.612 -3.84304 0.762753 0
M  V30 2374 H 222.309 -3.84034 1.15408 0
M  V30 2375 H 218.899 -3.45579 2.53521 0
M  V30 2376 H 223.083 -3.50399 3.51474 0
M  V30 2377 H 218.339 -3.62603 4.92269 0
M  V30 2378 H 222.513 -3.68658 5.90816 0
M  V30 2379 H 220.14 -3.74336 6.61647 0
M  V30 2380 N 221.715 -0.905404 -1.28997 0
M  V30 2381 C 222.964 -0.530191 -1.94607 0
M  V30 2382 C 223.277 0.929185 -1.72121 0
M  V30 2383 O 224.483 1.41218 -2.31883 0
M  V30 2384 C 222.939 -0.897333 -3.48534 0
M  V30 2385 C 222.547 -2.37587 -3.79811 0
M  V30 2386 C 224.291 -0.592304 -4.20347 0
M  V30 2387 C 222.198 -2.68357 -5.27009 0
M  V30 2388 H 221.128 -0.194558 -0.728466 0
M  V30 2389 H 223.779 -1.10318 -1.46636 0
M  V30 2390 H 222.161 -0.253214 -3.9519 0
M  V30 2391 H 223.335 -3.06602 -3.43994 0
M  V30 2392 H 221.65 -2.6505 -3.2115 0
M  V30 2393 H 224.247 -0.798975 -5.28697 0
M  V30 2394 H 224.59 0.469474 -4.13644 0
M  V30 2395 H 225.123 -1.19452 -3.79442 0
M  V30 2396 H 221.862 -3.73355 -5.38782 0
M  V30 2397 H 221.382 -2.03971 -5.64053 0
M  V30 2398 H 223.061 -2.54922 -5.94663 0
M  V30 2399 N 223.193 1.4272 -0.668489 0
M  V30 2400 C 224.604 1.84793 -0.266151 0
M  V30 2401 C 224.955 1.55959 1.19043 0
M  V30 2402 O 224.08 1.01622 1.91055 0
M  V30 2403 C 224.675 3.35436 -0.476271 0
M  V30 2404 C 223.234 3.76182 -0.128113 0
M  V30 2405 C 222.381 2.66344 -0.771777 0
M  V30 2406 H 225.332 1.32656 -0.871098 0
M  V30 2407 H 225.353 3.79515 0.273561 0
M  V30 2408 H 224.865 3.5639 -1.53647 0
M  V30 2409 H 222.966 3.60836 0.928891 0
M  V30 2410 H 223.079 4.75766 -0.564231 0
M  V30 2411 H 221.443 2.53885 -0.203652 0
M  V30 2412 H 222.226 2.90123 -1.83531 0
M  V30 2413 N 224.671 0.411399 1.52136 0
M  V30 2414 C 225.901 -0.16284 2.05957 0
M  V30 2415 C 226.309 -1.3922 1.28119 0
M  V30 2416 O 225.652 -1.80768 0.326881 0
M  V30 2417 C 225.714 -0.575946 3.54856 0
M  V30 2418 C 225.378 0.542998 4.53763 0
M  V30 2419 C 226.375 1.40726 5.00492 0
M  V30 2420 C 224.06 0.716337 4.97166 0
M  V30 2421 C 226.054 2.4298 5.8927 0
M  V30 2422 C 223.741 1.74218 5.8574 0
M  V30 2423 C 224.739 2.59731 6.31687 0
M  V30 2424 O 224.427 3.60558 7.18507 0
M  V30 2425 H 224.159 -0.0229125 0.675612 0
M  V30 2426 H 226.713 0.581634 1.96993 0
M  V30 2427 H 224.943 -1.37274 3.61515 0
M  V30 2428 H 226.632 -1.07836 3.91313 0
M  V30 2429 H 227.398 1.28476 4.67674 0
M  V30 2430 H 223.277 0.0603857 4.6096 0
M  V30 2431 H 226.821 3.0976 6.25055 0
M  V30 2432 H 222.718 1.86498 6.17971 0
M  V30 2433 H 223.486 3.56829 7.36624 0
M  V30 2434 N 226.149 -1.5696 0.141893 0
M  V30 2435 C 227.395 -1.9625 -0.511248 0
M  V30 2436 C 227.728 -1.02654 -1.64851 0
M  V30 2437 O 227.003 -0.0679676 -1.94381 0
M  V30 2438 C 227.286 -3.45285 -1.02227 0
M  V30 2439 C 227.139 -4.49658 0.113138 0
M  V30 2440 C 228.458 -3.96698 -1.90574 0
M  V30 2441 H 225.577 -0.713567 -0.184367 0
M  V30 2442 H 228.219 -1.88698 0.222087 0
M  V30 2443 H 226.369 -3.51852 -1.64719 0
M  V30 2444 H 228.041 -4.55174 0.749302 0
M  V30 2445 H 226.284 -4.26857 0.773026 0
M  V30 2446 H 226.955 -5.51258 -0.286053 0
M  V30 2447 H 229.431 -3.92578 -1.37918 0
M  V30 2448 H 228.307 -5.01453 -2.2324 0
M  V30 2449 H 228.568 -3.3875 -2.84079 0
M  V30 2450 N 227.627 0.131896 -1.57047 0
M  V30 2451 C 229.038 0.690407 -1.73465 0
M  V30 2452 C 229.389 1.8094 -0.758629 0
M  V30 2453 O 228.514 2.16282 0.0713813 0
M  V30 2454 C 229.109 1.25916 -3.14532 0
M  V30 2455 C 227.668 1.76409 -3.32501 0
M  V30 2456 C 226.815 0.658579 -2.69366 0
M  V30 2457 H 229.766 -0.0939144 -1.58422 0
M  V30 2458 H 229.787 2.12892 -3.15369 0
M  V30 2459 H 229.299 0.444515 -3.85546 0
M  V30 2460 H 227.4 2.60391 -2.66509 0
M  V30 2461 H 227.513 1.88241 -4.4057 0
M  V30 2462 H 225.877 1.08899 -2.30246 0
M  V30 2463 H 226.66 -0.14487 -3.42994 0
M  V30 2464 N 229.106 1.52395 0.401703 0
M  V30 2465 C 230.383 1.57387 1.16141 0
M  V30 2466 C 230.763 0.359359 2.08019 0
M  V30 2467 O 230.111 -0.65326 2.18963 0
M  V30 2468 C 230.321 2.90631 1.93221 0
M  V30 2469 C 231.669 3.43904 2.49028 0
M  V30 2470 O 232.693 2.92421 2.03393 0
M  V30 2471 O 231.552 4.33823 3.32356 0
M  V30 2472 H 228.646 0.634262 0.530698 0
M  V30 2473 H 231.192 1.64725 0.407883 0
M  V30 2474 H 229.964 3.70473 1.25958 0
M  V30 2475 H 229.587 2.8662 2.75563 0
M  V30 2476 N 230.584 -0.659388 1.43143 0
M  V30 2477 C 231.832 -1.41654 1.44147 0
M  V30 2478 C 232.153 -1.94893 0.0645739 0
M  V30 2479 O 231.423 -1.74044 -0.899198 0
M  V30 2480 H 230.003 -0.525708 0.530697 0
M  V30 2481 H 232.665 -0.778097 1.78694 0
M  V30 2482 H 231.761 -2.26195 2.1504 0
M  V30 2483 N 232.062 -1.29571 -0.897171 0
M  V30 2484 C 233.308 -1.17863 -1.65034 0
M  V30 2485 C 233.641 0.268729 -1.92332 0
M  V30 2486 O 232.916 1.19378 -1.53555 0
M  V30 2487 C 233.199 -1.995 -2.99786 0
M  V30 2488 C 233.052 -3.5239 -2.79538 0
M  V30 2489 C 234.371 -1.82335 -4.00552 0
M  V30 2490 H 231.49 -0.429528 -0.598895 0
M  V30 2491 H 234.132 -1.59072 -1.03905 0
M  V30 2492 H 232.282 -1.64485 -3.51962 0
M  V30 2493 H 233.954 -3.97401 -2.34244 0
M  V30 2494 H 232.197 -3.77187 -2.14273 0
M  V30 2495 H 232.868 -4.04787 -3.75302 0
M  V30 2496 H 235.344 -2.12924 -3.57495 0
M  V30 2497 H 234.22 -2.41801 -4.92771 0
M  V30 2498 H 234.481 -0.779209 -4.35179 0
M  V30 2499 N 233.54 1.10788 -1.12088 0
M  V30 2500 C 234.786 1.82942 -0.875226 0
M  V30 2501 C 235.119 1.84779 0.597538 0
M  V30 2502 O 234.394 1.30578 1.44152 0
M  V30 2503 C 234.677 3.29789 -1.44606 0
M  V30 2504 C 234.53 3.36307 -2.98693 0
M  V30 2505 C 235.849 4.26064 -1.10261 0
M  V30 2506 H 232.968 0.664195 -0.319397 0
M  V30 2507 H 235.61 1.29867 -1.38689 0
M  V30 2508 H 233.76 3.75118 -1.01089 0
M  V30 2509 H 235.432 2.99487 -3.50864 0
M  V30 2510 H 233.675 2.76318 -3.34411 0
M  V30 2511 H 234.346 4.39694 -3.33726 0
M  V30 2512 H 236.822 3.88951 -1.4784 0
M  V30 2513 H 235.698 5.27183 -1.52869 0
M  V30 2514 H 235.959 4.42098 -0.0142953 0
M  V30 2515 N 235.018 0.912232 1.28515 0
M  V30 2516 C 235.981 0.404223 2.25607 0
M  V30 2517 C 236.981 -0.468602 1.53821 0
M  V30 2518 O 238.171 -0.271873 1.72065 0
M  V30 2519 C 235.303 -0.420653 3.38295 0
M  V30 2520 H 236.496 1.26188 2.7206 0
M  V30 2521 H 234.049 0.691495 1.40171 0
M  V30 2522 H 234.784 -1.29777 2.97201 0
M  V30 2523 H 234.569 0.204935 3.91564 0
M  V30 2524 H 236.059 -0.766971 4.10496 0
M  V30 2525 N 236.496 -1.42363 0.676048 0
M  V30 2526 C 237.912 -1.55811 0.345718 0
M  V30 2527 C 238.112 -1.65544 -1.14879 0
M  V30 2528 O 237.168 -1.62306 -1.93424 0
M  V30 2529 C 238.481 -2.80746 1.07713 0
M  V30 2530 C 240.029 -2.9452 1.05958 0
M  V30 2531 C 240.504 -4.22318 1.77233 0
M  V30 2532 N 241.995 -4.29233 1.74108 0
M  V30 2533 C 242.73 -5.26935 2.26113 0
M  V30 2534 N 242.226 -6.30783 2.86505 0
M  V30 2535 N 244.019 -5.18741 2.1648 0
M  V30 2536 H 236.17 -1.34289 1.6456 0
M  V30 2537 H 238.433 -0.646506 0.69335 0
M  V30 2538 H 238.139 -2.79696 2.13221 0
M  V30 2539 H 238.013 -3.71676 0.64316 0
M  V30 2540 H 240.4 -2.95097 0.0128255 0
M  V30 2541 H 240.481 -2.04817 1.53244 0
M  V30 2542 H 240.125 -4.22502 2.81877 0
M  V30 2543 H 240.055 -5.10958 1.27396 0
M  V30 2544 H 242.546 -3.54814 1.30059 0
M  V30 2545 H 242.859 -7.01691 3.23805 0
M  V30 2546 H 241.204 -6.31341 2.90575 0
M  V30 2547 H 244.395 -4.36533 1.68987 0
M  V30 2548 H 244.568 -5.94721 2.57316 0
M  V30 2549 N 237.974 -0.419461 -1.51915 0
M  V30 2550 C 239.222 0.152637 -2.01523 0
M  V30 2551 C 239.543 1.44762 -1.30649 0
M  V30 2552 O 238.813 1.90997 -0.435535 0
M  V30 2553 H 237.393 0.0593966 -0.744635 0
M  V30 2554 H 240.055 -0.558073 -1.86739 0
M  V30 2555 H 239.151 0.341369 -3.10227 0
M  V30 2556 N 239.452 1.56882 -0.150215 0
M  V30 2557 C 240.682 2.00302 0.506213 0
M  V30 2558 C 241.09 1.02934 1.58749 0
M  V30 2559 O 240.433 0.0188384 1.8369 0
M  V30 2560 C 240.495 3.40156 1.16337 0
M  V30 2561 C 240.159 4.56439 0.226311 0
M  V30 2562 C 241.156 5.17012 -0.547265 0
M  V30 2563 C 238.841 5.02136 0.128279 0
M  V30 2564 C 240.835 6.21693 -1.40629 0
M  V30 2565 C 238.522 6.06672 -0.734345 0
M  V30 2566 C 239.52 6.6632 -1.50023 0
M  V30 2567 O 239.208 7.68831 -2.34848 0
M  V30 2568 H 238.94 0.662182 0.135984 0
M  V30 2569 H 241.494 2.03961 -0.242746 0
M  V30 2570 H 239.724 3.33346 1.96004 0
M  V30 2571 H 241.413 3.67663 1.71985 0
M  V30 2572 H 242.179 4.82603 -0.48158 0
M  V30 2573 H 238.058 4.55435 0.714157 0
M  V30 2574 H 241.602 6.68179 -2.00455 0
M  V30 2575 H 237.499 6.40507 -0.801309 0
M  V30 2576 H 238.267 7.86065 -2.28131 0
M  V30 2577 N 240.93 -0.123565 1.57115 0
M  V30 2578 C 242.177 -0.832153 1.84612 0
M  V30 2579 C 242.505 -1.80093 0.734627 0
M  V30 2580 O 241.76 -1.93766 -0.27442 0
M  V30 2581 C 242.059 -1.62016 3.18568 0
M  V30 2582 C 241.725 -0.796084 4.43817 0
M  V30 2583 C 240.387 -0.568816 4.77826 0
M  V30 2584 C 242.739 -0.221364 5.2073 0
M  V30 2585 C 240.067 0.243499 5.86194 0
M  V30 2586 C 242.419 0.578117 6.29953 0
M  V30 2587 C 241.083 0.815744 6.62497 0
M  V30 2588 H 240.353 -0.304507 0.675542 0
M  V30 2589 H 243 -0.0947248 1.91266 0
M  V30 2590 H 241.305 -2.42837 3.0747 0
M  V30 2591 H 243.002 -2.17231 3.37064 0
M  V30 2592 H 239.592 -0.983307 4.17168 0
M  V30 2593 H 243.776 -0.384173 4.94811 0
M  V30 2594 H 239.032 0.436871 6.09837 0
M  V30 2595 H 243.206 1.03046 6.88734 0
M  V30 2596 H 240.833 1.44701 7.46301 0
M  V30 2597 N 242.408 -1.52605 -0.393616 0
M  V30 2598 C 243.657 -1.66649 -1.13627 0
M  V30 2599 C 243.97 -0.410364 -1.91247 0
M  V30 2600 O 245.176 -0.430854 -2.68059 0
M  V30 2601 C 243.632 -2.9449 -2.06891 0
M  V30 2602 C 243.24 -4.27266 -1.34714 0
M  V30 2603 C 244.984 -3.17899 -2.81319 0
M  V30 2604 C 242.891 -5.46217 -2.26717 0
M  V30 2605 H 241.821 -0.62084 -0.427871 0
M  V30 2606 H 244.472 -1.791 -0.399428 0
M  V30 2607 H 242.854 -2.75774 -2.84191 0
M  V30 2608 H 244.028 -4.56518 -0.626714 0
M  V30 2609 H 242.343 -4.10081 -0.722643 0
M  V30 2610 H 244.94 -4.03949 -3.50328 0
M  V30 2611 H 245.283 -2.32777 -3.45139 0
M  V30 2612 H 245.816 -3.37159 -2.11113 0
M  V30 2613 H 242.555 -6.33733 -1.67521 0
M  V30 2614 H 242.075 -5.21283 -2.96689 0
M  V30 2615 H 243.754 -5.7991 -2.86903 0
M  V30 2616 N 243.887 0.651787 -1.4349 0
M  V30 2617 C 245.303 0.96762 -1.26922 0
M  V30 2618 C 245.503 2.00602 -0.189982 0
M  V30 2619 O 244.559 2.48793 0.431107 0
M  V30 2620 C 245.872 1.45052 -2.63401 0
M  V30 2621 C 247.42 1.5671 -2.70945 0
M  V30 2622 C 247.895 2.0839 -4.07845 0
M  V30 2623 N 249.386 2.1569 -4.09917 0
M  V30 2624 C 250.121 2.56804 -5.12679 0
M  V30 2625 N 249.617 2.97203 -6.25813 0
M  V30 2626 N 251.41 2.56756 -5.00033 0
M  V30 2627 H 243.561 -0.0353158 -2.12371 0
M  V30 2628 H 245.824 0.0467858 -0.946845 0
M  V30 2629 H 245.53 0.761926 -3.43348 0
M  V30 2630 H 245.404 2.42529 -2.88894 0
M  V30 2631 H 247.791 2.2467 -1.9133 0
M  V30 2632 H 247.872 0.57662 -2.49216 0
M  V30 2633 H 247.516 1.41031 -4.87927 0
M  V30 2634 H 247.446 3.08271 -4.26938 0
M  V30 2635 H 249.937 1.87237 -3.28254 0
M  V30 2636 H 250.25 3.27328 -7.00055 0
M  V30 2637 H 248.595 2.95004 -6.29283 0
M  V30 2638 H 251.786 2.24572 -4.10713 0
M  V30 2639 H 251.959 2.88475 -5.80247 0
M  V30 2640 N 245.365 1.30045 0.890287 0
M  V30 2641 C 246.275 1.17885 2.02831 0
M  V30 2642 C 247.291 0.0999609 1.73713 0
M  V30 2643 O 248.467 0.313867 1.98939 0
M  V30 2644 C 245.532 0.866079 3.35708 0
M  V30 2645 C 244.593 2.02979 3.78283 0
M  V30 2646 C 243.826 1.73184 5.0482 0
M  V30 2647 O 244.049 0.657237 5.66601 0
M  V30 2648 O 242.983 2.58267 5.43674 0
M  V30 2649 H 246.809 2.13474 2.16015 0
M  V30 2650 H 244.394 1.09587 1.01543 0
M  V30 2651 H 246.276 0.706623 4.15433 0
M  V30 2652 H 244.951 -0.0599443 3.23644 0
M  V30 2653 H 243.858 2.24454 2.99285 0
M  V30 2654 H 245.191 2.93734 3.94944 0
M  V30 2655 N 246.843 -1.10192 1.12674 0
M  V30 2656 C 248.12 -1.78717 0.794965 0
M  V30 2657 C 248.5 -1.98628 -0.714853 0
M  V30 2658 O 247.848 -1.58135 -1.64941 0
M  V30 2659 C 248.058 -3.11546 1.5729 0
M  V30 2660 C 249.406 -3.86382 1.76052 0
M  V30 2661 O 250.43 -3.21274 1.53823 0
M  V30 2662 O 249.289 -5.03246 2.13087 0
M  V30 2663 H 246.383 -0.774702 0.289423 0
M  V30 2664 H 248.929 -1.16819 1.23091 0
M  V30 2665 H 247.701 -2.92489 2.59935 0
M  V30 2666 H 247.324 -3.81164 1.13137 0
M  V30 2667 N 248.321 -0.919034 -1.28029 0
M  V30 2668 C 249.567 -0.565221 -1.95389 0
M  V30 2669 C 249.922 0.882325 -1.70976 0
M  V30 2670 O 249.215 1.61988 -1.02325 0
M  V30 2671 C 249.409 -0.816855 -3.4794 0
M  V30 2672 C 249.238 -2.28731 -3.87185 0
M  V30 2673 C 248.008 -2.93841 -4.11079 0
M  V30 2674 C 250.206 -3.26415 -3.97439 0
M  V30 2675 N 248.188 -4.31129 -4.37037 0
M  V30 2676 C 249.559 -4.48884 -4.27672 0
M  V30 2677 C 251.614 -3.21742 -3.79982 0
M  V30 2678 C 250.317 -5.67268 -4.42266 0
M  V30 2679 C 252.343 -4.39431 -3.95796 0
M  V30 2680 C 251.705 -5.60675 -4.26407 0
M  V30 2681 H 247.804 -0.256797 -0.738633 0
M  V30 2682 H 250.388 -1.18386 -1.54573 0
M  V30 2683 H 248.559 -0.227445 -3.87733 0
M  V30 2684 H 250.291 -0.426542 -4.02446 0
M  V30 2685 H 247.046 -2.44547 -4.05578 0
M  V30 2686 H 247.47 -5.02127 -4.5409 0
M  V30 2687 H 252.112 -2.29079 -3.55363 0
M  V30 2688 H 249.83 -6.60406 -4.65714 0
M  V30 2689 H 253.416 -4.37323 -3.83719 0
M  V30 2690 H 252.296 -6.50223 -4.38383 0
M  V30 2691 N 249.799 1.42003 -0.683588 0
M  V30 2692 C 250.729 2.33487 -0.024866 0
M  V30 2693 C 251.71 1.51163 0.779975 0
M  V30 2694 O 252.895 1.79739 0.735362 0
M  V30 2695 C 250.025 3.3487 0.920836 0
M  V30 2696 C 248.979 4.27414 0.223958 0
M  V30 2697 C 248.305 5.19074 1.2832 0
M  V30 2698 C 249.605 5.14445 -0.90242 0
M  V30 2699 H 251.299 2.88819 -0.788921 0
M  V30 2700 H 248.845 1.38873 -0.38083 0
M  V30 2701 H 250.798 3.97787 1.39081 0
M  V30 2702 H 249.522 2.77861 1.71642 0
M  V30 2703 H 248.181 3.65904 -0.225864 0
M  V30 2704 H 247.829 4.58387 2.071 0
M  V30 2705 H 247.529 5.81822 0.821995 0
M  V30 2706 H 249.053 5.84867 1.75392 0
M  V30 2707 H 250.467 5.70998 -0.513272 0
M  V30 2708 H 248.864 5.86072 -1.28997 0
M  V30 2709 H 249.934 4.52322 -1.74737 0
M  V30 2710 N 251.277 0.427512 1.51691 0
M  V30 2711 C 252.224 -0.388867 2.275 0
M  V30 2712 C 253.194 -1.02532 1.30677 0
M  V30 2713 O 254.379 -1.0461 1.59566 0
M  V30 2714 C 251.519 -1.48954 3.11298 0
M  V30 2715 C 250.632 -0.872194 4.23104 0
M  V30 2716 C 249.767 -1.94709 4.94228 0
M  V30 2717 C 248.806 -1.30766 5.97969 0
M  V30 2718 N 247.943 -2.32349 6.62539 0
M  V30 2719 H 252.783 0.263997 2.96828 0
M  V30 2720 H 250.32 0.142033 1.46413 0
M  V30 2721 H 252.278 -2.13887 3.58201 0
M  V30 2722 H 250.908 -2.11217 2.44105 0
M  V30 2723 H 249.96 -0.111419 3.80237 0
M  V30 2724 H 251.272 -0.365264 4.97461 0
M  V30 2725 H 250.426 -2.67327 5.44629 0
M  V30 2726 H 249.165 -2.48773 4.1948 0
M  V30 2727 H 248.17 -0.566902 5.4687 0
M  V30 2728 H 249.395 -0.774483 6.74669 0
M  V30 2729 H 247.341 -2.85511 5.90609 0
M  V30 2730 H 247.258 -1.8652 7.3263 0
M  V30 2731 H 248.526 -3.04481 7.17574 0
M  V30 2732 N 252.755 -1.56801 0.158532 0
M  V30 2733 C 253.702 -2.17337 -0.776729 0
M  V30 2734 C 254.672 -1.1096 -1.23601 0
M  V30 2735 O 255.857 -1.39054 -1.30647 0
M  V30 2736 C 252.997 -2.80822 -2.00582 0
M  V30 2737 C 252.11 -4.01624 -1.59129 0
M  V30 2738 C 251.245 -4.53072 -2.77306 0
M  V30 2739 C 250.284 -5.66314 -2.32282 0
M  V30 2740 N 249.421 -6.12329 -3.43508 0
M  V30 2741 H 254.261 -2.96918 -0.253701 0
M  V30 2742 H 251.798 -1.46661 -0.113504 0
M  V30 2743 H 253.756 -3.15779 -2.72652 0
M  V30 2744 H 252.386 -2.03866 -2.50277 0
M  V30 2745 H 251.438 -3.72571 -0.767806 0
M  V30 2746 H 252.75 -4.83633 -1.2207 0
M  V30 2747 H 251.904 -4.90145 -3.57551 0
M  V30 2748 H 250.643 -3.70095 -3.17617 0
M  V30 2749 H 249.648 -5.28806 -1.5048 0
M  V30 2750 H 250.873 -6.51085 -1.93043 0
M  V30 2751 H 248.819 -5.32284 -3.83418 0
M  V30 2752 H 248.736 -6.89293 -3.105 0
M  V30 2753 H 250.004 -6.5405 -4.24075 0
M  V30 2754 N 254.233 0.115231 -1.57178 0
M  V30 2755 C 255.163 1.1423 -2.03651 0
M  V30 2756 C 256.144 1.42967 -0.921655 0
M  V30 2757 O 257.329 1.53343 -1.19162 0
M  V30 2758 C 254.459 2.4675 -2.44401 0
M  V30 2759 C 253.413 2.32467 -3.59365 0
M  V30 2760 C 252.739 3.69984 -3.86026 0
M  V30 2761 C 254.039 1.78203 -4.90959 0
M  V30 2762 H 255.733 0.755749 -2.89705 0
M  V30 2763 H 253.279 0.362093 -1.39373 0
M  V30 2764 H 255.232 3.18854 -2.75517 0
M  V30 2765 H 253.956 2.87302 -1.55322 0
M  V30 2766 H 252.615 1.62811 -3.28463 0
M  V30 2767 H 252.263 4.08028 -2.94147 0
M  V30 2768 H 251.963 3.61279 -4.63412 0
M  V30 2769 H 253.487 4.43587 -4.19599 0
M  V30 2770 H 254.901 2.40128 -5.20587 0
M  V30 2771 H 253.298 1.8031 -5.72371 0
M  V30 2772 H 254.368 0.739876 -4.79222 0
M  V30 2773 N 255.711 1.52812 0.385517 0
M  V30 2774 C 256.659 1.78482 1.49155 0
M  V30 2775 C 257.653 0.652914 1.56312 0
M  V30 2776 O 258.859 0.835464 1.59436 0
M  V30 2777 H 255.234 0.5648 0.496493 0
M  V30 2778 H 257.205 2.71095 1.24699 0
M  V30 2779 C 255.954 1.97378 2.86247 0
M  V30 2780 H 255.277 2.83907 2.81491 0
M  V30 2781 H 256.717 2.19327 3.62866 0
M  V30 2782 C 255.176 0.74728 3.28508 0
M  V30 2783 O 255.706 -0.0736232 4.01633 0
M  V30 2784 N 253.912 0.576396 2.84826 0
M  V30 2785 H 253.459 1.24555 2.25486 0
M  V30 2786 H 253.417 -0.24288 3.1346 0
M  V30 2787 N 257.189 -0.644168 1.43834 0
M  V30 2788 C 258.119 -1.76814 1.52509 0
M  V30 2789 C 259.1 -1.65823 0.379052 0
M  V30 2790 O 260.285 -1.84781 0.597466 0
M  V30 2791 C 257.415 -3.15288 1.4564 0
M  V30 2792 C 256.369 -3.41053 2.58586 0
M  V30 2793 C 255.695 -4.79421 2.36769 0
M  V30 2794 C 256.995 -3.34902 4.00797 0
M  V30 2795 H 258.689 -1.69812 2.46586 0
M  V30 2796 H 256.235 -0.815542 1.1868 0
M  V30 2797 H 258.188 -3.93681 1.50311 0
M  V30 2798 H 256.912 -3.23043 0.480725 0
M  V30 2799 H 255.571 -2.65035 2.53282 0
M  V30 2800 H 255.219 -4.83863 1.37424 0
M  V30 2801 H 254.919 -4.9762 3.12487 0
M  V30 2802 H 256.443 -5.6006 2.43238 0
M  V30 2803 H 257.857 -4.03218 4.07539 0
M  V30 2804 H 256.254 -3.64637 4.76613 0
M  V30 2805 H 257.324 -2.32928 4.25291 0
M  V30 2806 N 258.668 -1.30515 -0.883378 0
M  V30 2807 C 259.615 -1.17032 -1.98927 0
M  V30 2808 C 260.585 -0.0594241 -1.65994 0
M  V30 2809 O 261.77 -0.229895 -1.8941 0
M  V30 2810 C 258.91 -0.869777 -3.33959 0
M  V30 2811 C 258.023 -2.06271 -3.79574 0
M  V30 2812 C 257.158 -1.70011 -5.03259 0
M  V30 2813 C 256.197 -2.8579 -5.41286 0
M  V30 2814 N 255.334 -2.49816 -6.56153 0
M  V30 2815 H 260.174 -2.1164 -2.09792 0
M  V30 2816 H 257.711 -1.05296 -1.02719 0
M  V30 2817 H 259.669 -0.676138 -4.11685 0
M  V30 2818 H 258.299 0.0394332 -3.22776 0
M  V30 2819 H 257.351 -2.36755 -2.97744 0
M  V30 2820 H 258.663 -2.92971 -4.03694 0
M  V30 2821 H 257.817 -1.47032 -5.88614 0
M  V30 2822 H 256.556 -0.804829 -4.81013 0
M  V30 2823 H 255.561 -3.09434 -4.54456 0
M  V30 2824 H 256.786 -3.76008 -5.65504 0
M  V30 2825 H 254.732 -1.62795 -6.35479 0
M  V30 2826 H 254.649 -3.30048 -6.8015 0
M  V30 2827 H 255.917 -2.30197 -7.44735 0
M  V30 2828 N 260.146 1.09593 -1.13257 0
M  V30 2829 C 261.557 1.63229 -0.906274 0
M  V30 2830 C 261.908 1.8811 0.557578 0
M  V30 2831 O 261.033 1.62953 1.42391 0
M  V30 2832 C 261.628 2.96535 -1.63867 0
M  V30 2833 C 260.187 3.47003 -1.45828 0
M  V30 2834 C 259.334 2.2145 -1.66898 0
M  V30 2835 H 262.285 0.92978 -1.28611 0
M  V30 2836 H 262.306 3.64411 -1.09476 0
M  V30 2837 H 261.818 2.78394 -2.70404 0
M  V30 2838 H 259.919 3.70272 -0.415848 0
M  V30 2839 H 260.032 4.24551 -2.2202 0
M  V30 2840 H 258.396 2.30022 -1.09371 0
M  V30 2841 H 259.179 2.0583 -2.74752 0
M  V30 2842 N 261.624 0.925811 1.2754 0
M  V30 2843 C 263.035 0.610102 1.7645 0
M  V30 2844 C 263.386 -0.874723 1.75622 0
M  V30 2845 O 262.511 -1.68444 1.35851 0
M  V30 2846 C 263.106 1.10073 3.20421 0
M  V30 2847 C 261.665 0.835723 3.67005 0
M  V30 2848 C 260.812 1.26054 2.46993 0
M  V30 2849 H 263.763 1.10579 1.13833 0
M  V30 2850 H 263.784 0.447557 3.77859 0
M  V30 2851 H 263.296 2.18143 3.20991 0
M  V30 2852 H 261.397 -0.231249 3.71882 0
M  V30 2853 H 261.51 1.45193 4.56569 0
M  V30 2854 H 259.874 0.679111 2.45479 0
M  V30 2855 H 260.657 2.34984 2.50275 0
M  V30 2856 N 263.102 -1.41638 0.69111 0
M  V30 2857 C 264.034 -2.29194 -0.0161523 0
M  V30 2858 C 265.047 -1.44549 -0.748955 0
M  V30 2859 O 266.236 -1.681 -0.6004 0
M  V30 2860 C 263.336 -3.22325 -1.0469 0
M  V30 2861 C 262.509 -4.35706 -0.384621 0
M  V30 2862 C 261.568 -5.09443 -1.31737 0
M  V30 2863 O 260.594 -5.63386 -0.811451 0
M  V30 2864 N 261.796 -5.16487 -2.64993 0
M  V30 2865 H 264.561 -2.90534 0.735523 0
M  V30 2866 H 262.122 -1.52742 0.53679 0
M  V30 2867 H 264.114 -3.68522 -1.67252 0
M  V30 2868 H 262.684 -2.62323 -1.70015 0
M  V30 2869 H 261.904 -3.91948 0.420804 0
M  V30 2870 H 263.192 -5.08743 0.0760765 0
M  V30 2871 H 262.59 -4.741 -3.08619 0
M  V30 2872 H 261.147 -5.66276 -3.22761 0
M  V30 2873 N 264.58 -0.43555 -1.51462 0
M  V30 2874 C 265.528 0.391205 -2.29287 0
M  V30 2875 C 266.522 1.02247 -1.35062 0
M  V30 2876 O 267.728 0.957646 -1.52411 0
M  V30 2877 H 264.103 0.144968 -0.737895 0
M  V30 2878 H 266.074 -0.286051 -2.97026 0
M  V30 2879 C 264.823 1.48096 -3.14583 0
M  V30 2880 H 264.146 1.00457 -3.86973 0
M  V30 2881 H 265.586 2.03273 -3.72097 0
M  V30 2882 C 264.045 2.46321 -2.29843 0
M  V30 2883 O 264.575 3.50815 -1.95682 0
M  V30 2884 N 262.781 2.17166 -1.931 0
M  V30 2885 H 262.328 1.32218 -2.21079 0
M  V30 2886 H 262.286 2.83127 -1.36698 0
M  V30 2887 N 266.058 1.56714 -0.166846 0
M  V30 2888 C 267.307 1.95922 0.479318 0
M  V30 2889 C 267.62 1.05529 1.6469 0
M  V30 2890 O 268.826 1.34399 2.35901 0
M  V30 2891 C 267.282 3.48359 0.90412 0
M  V30 2892 C 266.89 4.47369 -0.237621 0
M  V30 2893 C 268.634 3.96394 1.51896 0
M  V30 2894 C 266.541 5.91039 0.206561 0
M  V30 2895 H 265.471 0.731495 0.18284 0
M  V30 2896 H 268.122 1.81728 -0.254363 0
M  V30 2897 H 266.504 3.57955 1.69365 0
M  V30 2898 H 267.678 4.49485 -1.01489 0
M  V30 2899 H 265.993 4.09366 -0.762128 0
M  V30 2900 H 268.59 5.01186 1.86325 0
M  V30 2901 H 268.933 3.39075 2.41524 0
M  V30 2902 H 269.466 3.89796 0.79395 0
M  V30 2903 H 266.205 6.52221 -0.654834 0
M  V30 2904 H 265.725 5.9224 0.949282 0
M  V30 2905 H 267.404 6.43707 0.651939 0
M  V30 2906 N 267.536 -0.106894 1.57237 0
M  V30 2907 C 268.813 -0.843526 1.76477 0
M  V30 2908 C 269.193 -1.97499 0.745464 0
M  V30 2909 O 268.541 -2.27357 -0.228306 0
M  V30 2910 C 268.751 -1.34903 3.21873 0
M  V30 2911 C 270.099 -1.79654 3.8472 0
M  V30 2912 O 271.123 -1.44554 3.2555 0
M  V30 2913 O 269.982 -2.44515 4.88748 0
M  V30 2914 H 267.076 -0.401468 0.723016 0
M  V30 2915 H 269.622 -0.0896927 1.69463 0
M  V30 2916 H 268.394 -0.53781 3.87586 0
M  V30 2917 H 268.017 -2.16522 3.33473 0
M  V30 2918 N 269.014 -1.53014 -0.377408 0
M  V30 2919 C 269.924 -1.81557 -1.48574 0
M  V30 2920 C 270.94 -0.703102 -1.59162 0
M  V30 2921 O 272.116 -0.99192 -1.75279 0
M  V30 2922 C 269.181 -1.9889 -2.83978 0
M  V30 2923 C 268.242 -3.22801 -2.83016 0
M  V30 2924 C 267.475 -3.39298 -4.11962 0
M  V30 2925 O 267.698 -2.60345 -5.0752 0
M  V30 2926 O 266.632 -4.32604 -4.18494 0
M  V30 2927 H 270.458 -2.75695 -1.27382 0
M  V30 2928 H 268.043 -1.38248 -0.566373 0
M  V30 2929 H 269.925 -2.11931 -3.6423 0
M  V30 2930 H 268.6 -1.07942 -3.05172 0
M  V30 2931 H 267.507 -3.15193 -2.01505 0
M  V30 2932 H 268.84 -4.13632 -2.66775 0
M  V30 2933 N 270.492 0.636531 -1.44174 0
M  V30 2934 C 271.422 1.76003 -1.53444 0
M  V30 2935 C 272.403 1.65619 -0.387841 0
M  V30 2936 O 273.588 1.84461 -0.607257 0
M  V30 2937 C 270.718 3.14511 -1.4731 0
M  V30 2938 C 269.672 3.39677 -2.60391 0
M  V30 2939 C 268.998 4.78159 -2.39308 0
M  V30 2940 C 270.298 3.32772 -4.02567 0
M  V30 2941 H 271.992 1.68501 -2.47483 0
M  V30 2942 H 269.538 0.809237 -1.19111 0
M  V30 2943 H 271.491 3.92878 -1.52397 0
M  V30 2944 H 270.215 3.22783 -0.49785 0
M  V30 2945 H 268.874 2.63688 -2.54684 0
M  V30 2946 H 268.522 4.83128 -1.39988 0
M  V30 2947 H 268.222 4.95956 -3.15122 0
M  V30 2948 H 269.746 5.58762 -2.46205 0
M  V30 2949 H 271.16 4.01051 -4.09672 0
M  V30 2950 H 269.557 3.62104 -4.7854 0
M  V30 2951 H 270.627 2.30669 -4.2652 0
M  V30 2952 N 271.97 1.30982 0.876444 0
M  V30 2953 C 273.2 1.23063 1.65949 0
M  V30 2954 C 273.608 -0.207537 1.88058 0
M  V30 2955 O 272.951 -1.14781 1.43426 0
M  V30 2956 C 273.013 1.89768 3.05333 0
M  V30 2957 C 272.677 3.39106 3.0636 0
M  V30 2958 C 273.674 4.3496 2.84791 0
M  V30 2959 C 271.359 3.80693 3.27686 0
M  V30 2960 C 273.353 5.70375 2.84519 0
M  V30 2961 C 271.04 5.16223 3.27043 0
M  V30 2962 C 272.038 6.10875 3.05485 0
M  V30 2963 O 271.726 7.43928 3.04674 0
M  V30 2964 H 271.458 0.426685 0.524324 0
M  V30 2965 H 274.012 1.7329 1.10271 0
M  V30 2966 H 272.242 1.34082 3.6271 0
M  V30 2967 H 273.931 1.75853 3.65829 0
M  V30 2968 H 274.697 4.0416 2.68103 0
M  V30 2969 H 270.576 3.07457 3.43499 0
M  V30 2970 H 274.12 6.44228 2.67611 0
M  V30 2971 H 270.017 5.4666 3.43269 0
M  V30 2972 H 270.785 7.53022 3.2078 0
M  V30 2973 N 273.449 -1.08991 1.13837 0
M  V30 2974 C 274.677 -1.85011 0.926202 0
M  V30 2975 C 275.092 -1.8135 -0.525127 0
M  V30 2976 O 274.449 -1.21287 -1.36366 0
M  V30 2977 C 274.5 -3.32802 1.41155 0
M  V30 2978 O 274.221 -3.36444 2.80601 0
M  V30 2979 C 275.722 -4.25649 1.23847 0
M  V30 2980 H 272.942 -0.584249 0.32999 0
M  V30 2981 H 275.486 -1.37688 1.51202 0
M  V30 2982 H 273.641 -3.77536 0.868631 0
M  V30 2983 H 274.055 -4.28657 3.02248 0
M  V30 2984 H 275.529 -5.27485 1.62675 0
M  V30 2985 H 276.006 -4.38828 0.18065 0
M  V30 2986 H 276.612 -3.86735 1.76964 0
M  V30 2987 N 274.927 -0.932562 -1.27047 0
M  V30 2988 C 276.173 -0.576412 -1.94436 0
M  V30 2989 C 276.506 0.880891 -1.73072 0
M  V30 2990 O 275.781 1.62905 -1.06264 0
M  V30 2991 C 276.064 -0.909031 -3.48437 0
M  V30 2992 C 275.917 -2.42044 -3.79123 0
M  V30 2993 C 277.236 -0.418341 -4.38107 0
M  V30 2994 H 274.355 -0.210888 -0.706184 0
M  V30 2995 H 276.997 -1.16522 -1.50075 0
M  V30 2996 H 275.147 -0.407947 -3.86352 0
M  V30 2997 H 276.819 -2.99359 -3.50973 0
M  V30 2998 H 275.062 -2.86758 -3.25503 0
M  V30 2999 H 275.733 -2.6037 -4.86736 0
M  V30 3000 H 278.209 -0.847856 -4.0737 0
M  V30 3001 H 277.085 -0.679981 -5.44672 0
M  V30 3002 H 277.346 0.681642 -4.36814 0
M  V30 3003 N 276.405 1.4127 -0.698611 0
M  V30 3004 C 277.335 2.33447 -0.049629 0
M  V30 3005 C 278.316 1.51982 0.763898 0
M  V30 3006 O 279.501 1.80509 0.716257 0
M  V30 3007 C 276.631 3.35828 0.885267 0
M  V30 3008 C 275.585 4.27627 0.178613 0
M  V30 3009 C 274.911 5.20406 1.22807 0
M  V30 3010 C 276.211 5.13459 -0.956933 0
M  V30 3011 H 277.905 2.87966 -0.81951 0
M  V30 3012 H 275.451 1.38461 -0.395538 0
M  V30 3013 H 277.404 3.9924 1.34854 0
M  V30 3014 H 276.128 2.79666 1.68685 0
M  V30 3015 H 274.787 3.65643 -0.26466 0
M  V30 3016 H 274.435 4.60558 2.02226 0
M  V30 3017 H 274.135 5.82661 0.760239 0
M  V30 3018 H 275.659 5.86695 1.69179 0
M  V30 3019 H 277.073 5.70421 -0.573805 0
M  V30 3020 H 275.47 5.8467 -1.35205 0
M  V30 3021 H 276.54 4.50443 -1.79524 0
M  V30 3022 N 277.883 0.443576 1.51229 0
M  V30 3023 C 278.83 -0.364716 2.279 0
M  V30 3024 C 279.8 -1.0114 1.31757 0
M  V30 3025 O 280.985 -1.02912 1.60667 0
M  V30 3026 C 278.125 -1.45644 3.12861 0
M  V30 3027 C 277.238 -0.827269 4.24005 0
M  V30 3028 C 276.373 -1.89456 4.96266 0
M  V30 3029 C 275.412 -1.24416 5.99322 0
M  V30 3030 N 274.549 -2.25309 6.64966 0
M  V30 3031 H 279.389 0.295464 2.96532 0
M  V30 3032 H 276.926 0.157554 1.46254 0
M  V30 3033 H 278.884 -2.10076 3.6045 0
M  V30 3034 H 277.514 -2.08616 2.46331 0
M  V30 3035 H 276.566 -0.0710839 3.80334 0
M  V30 3036 H 277.878 -0.312481 4.9782 0
M  V30 3037 H 277.032 -2.61535 5.47434 0
M  V30 3038 H 275.771 -2.4431 4.22095 0
M  V30 3039 H 274.776 -0.508868 5.4744 0
M  V30 3040 H 276.001 -0.702882 6.75453 0
M  V30 3041 H 273.947 -2.79231 5.93604 0
M  V30 3042 H 273.864 -1.78739 7.34567 0
M  V30 3043 H 275.132 -2.96853 7.20763 0
M  V30 3044 N 279.361 -1.56624 0.175154 0
M  V30 3045 C 280.324 -2.16934 -0.739738 0
M  V30 3046 C 281.324 -1.11842 -1.15533 0
M  V30 3047 O 282.514 -1.37335 -1.07167 0
M  V30 3048 C 279.646 -2.75531 -2.00738 0
M  V30 3049 H 280.839 -2.99131 -0.214639 0
M  V30 3050 H 278.392 -1.56123 -0.0744197 0
M  V30 3051 H 279.127 -1.97078 -2.57548 0
M  V30 3052 H 278.912 -3.52444 -1.71831 0
M  V30 3053 H 280.402 -3.21904 -2.66021 0
M  V30 3054 N 280.839 0.0985539 -1.57292 0
M  V30 3055 C 282.086 0.802678 -1.85912 0
M  V30 3056 C 282.414 1.78901 -0.763186 0
M  V30 3057 O 281.669 1.94178 0.243559 0
M  V30 3058 C 281.968 1.56927 -3.21105 0
M  V30 3059 C 281.634 0.725376 -4.45027 0
M  V30 3060 C 280.296 0.492726 -4.78671 0
M  V30 3061 C 282.648 0.138493 -5.21016 0
M  V30 3062 C 279.976 -0.336727 -5.85733 0
M  V30 3063 C 282.328 -0.678264 -6.28953 0
M  V30 3064 C 280.992 -0.921039 -6.61115 0
M  V30 3065 H 280.262 0.293721 -0.680301 0
M  V30 3066 H 282.909 0.0642841 -1.91392 0
M  V30 3067 H 281.214 2.37914 -3.11294 0
M  V30 3068 H 282.911 2.11841 -3.40477 0
M  V30 3069 H 279.501 0.916815 -4.18679 0
M  V30 3070 H 283.685 0.305404 -4.95359 0
M  V30 3071 H 278.941 -0.533836 -6.09065 0
M  V30 3072 H 283.115 -1.1399 -6.87007 0
M  V30 3073 H 280.742 -1.56556 -7.43905 0
M  V30 3074 N 282.317 1.53212 0.369288 0
M  V30 3075 C 283.264 1.79388 1.45219 0
M  V30 3076 C 284.234 0.638059 1.53356 0
M  V30 3077 O 285.419 0.879852 1.69302 0
M  V30 3078 C 282.559 1.98623 2.82211 0
M  V30 3079 C 281.672 3.26337 2.8307 0
M  V30 3080 C 280.807 3.35779 4.11614 0
M  V30 3081 C 279.846 4.5754 4.06601 0
M  V30 3082 N 278.983 4.64155 5.26787 0
M  V30 3083 H 283.823 2.71794 1.22198 0
M  V30 3084 H 281.36 1.34642 0.592444 0
M  V30 3085 H 283.318 2.07761 3.61789 0
M  V30 3086 H 281.948 1.09558 3.03639 0
M  V30 3087 H 281 3.26171 1.95747 0
M  V30 3088 H 282.312 4.15988 2.75237 0
M  V30 3089 H 281.466 3.44208 4.99606 0
M  V30 3090 H 280.205 2.44137 4.22195 0
M  V30 3091 H 279.21 4.49215 3.16996 0
M  V30 3092 H 280.435 5.50519 3.97625 0
M  V30 3093 H 278.381 3.75413 5.3796 0
M  V30 3094 H 278.298 5.47706 5.21109 0
M  V30 3095 H 279.566 4.76863 6.16621 0
M  V30 3096 N 283.795 -0.628877 1.44509 0
M  V30 3097 C 284.705 -1.7694 1.54044 0
M  V30 3098 C 285.721 -1.68705 0.425987 0
M  V30 3099 O 286.897 -1.89442 0.683656 0
M  V30 3100 C 283.962 -3.13332 1.48405 0
M  V30 3101 C 283.023 -3.33181 2.70719 0
M  V30 3102 C 282.256 -4.63067 2.6534 0
M  V30 3103 O 282.479 -5.44017 1.71469 0
M  V30 3104 O 281.413 -4.85167 3.56226 0
M  V30 3105 H 285.239 -1.71848 2.50403 0
M  V30 3106 H 282.824 -0.790378 1.26781 0
M  V30 3107 H 284.706 -3.94634 1.47791 0
M  V30 3108 H 283.381 -3.1896 0.551898 0
M  V30 3109 H 282.288 -2.51549 2.769 0
M  V30 3110 H 283.621 -3.32416 3.62988 0
M  V30 3111 N 285.273 -1.31445 -0.869486 0
M  V30 3112 C 286.22 -1.19135 -1.97675 0
M  V30 3113 C 287.19 -0.0770266 -1.65921 0
M  V30 3114 O 288.375 -0.249972 -1.89155 0
M  V30 3115 C 285.515 -0.905149 -3.33018 0
M  V30 3116 C 284.628 -2.10285 -3.77365 0
M  V30 3117 C 283.763 -1.75339 -5.01427 0
M  V30 3118 C 282.802 -2.91515 -5.38224 0
M  V30 3119 N 281.939 -2.56762 -6.53466 0
M  V30 3120 H 286.779 -2.13853 -2.07535 0
M  V30 3121 H 284.316 -1.06379 -1.01597 0
M  V30 3122 H 286.274 -0.719765 -4.10944 0
M  V30 3123 H 284.904 0.00519624 -3.228 0
M  V30 3124 H 283.956 -2.39899 -2.95216 0
M  V30 3125 H 285.268 -2.97237 -4.00564 0
M  V30 3126 H 284.422 -1.53266 -5.87022 0
M  V30 3127 H 283.161 -0.855801 -4.80133 0
M  V30 3128 H 282.166 -3.14237 -4.51149 0
M  V30 3129 H 283.391 -3.81985 -5.61484 0
M  V30 3130 H 281.337 -1.69526 -6.33717 0
M  V30 3131 H 281.254 -3.37243 -6.76612 0
M  V30 3132 H 282.522 -2.38083 -7.42251 0
M  V30 3133 N 286.751 1.08385 -1.14413 0
M  V30 3134 C 288.028 1.77429 -0.823297 0
M  V30 3135 C 288.408 1.9974 0.683163 0
M  V30 3136 O 287.756 1.60739 1.62405 0
M  V30 3137 C 287.966 3.09004 -1.62227 0
M  V30 3138 C 289.314 3.83532 -1.82177 0
M  V30 3139 O 290.338 3.18786 -1.58915 0
M  V30 3140 O 289.197 4.99792 -2.21067 0
M  V30 3141 H 286.291 0.769999 -0.301712 0
M  V30 3142 H 288.837 1.14846 -1.24934 0
M  V30 3143 H 287.609 2.88316 -2.64555 0
M  V30 3144 H 287.232 3.79316 -1.19187 0
M  V30 3145 N 288.23 0.939286 1.26551 0
M  V30 3146 C 289.641 0.628782 1.75793 0
M  V30 3147 C 289.992 -0.856046 1.7654 0
M  V30 3148 O 289.117 -1.66994 1.3763 0
M  V30 3149 C 289.712 1.13465 3.19235 0
M  V30 3150 C 288.271 0.874601 3.66098 0
M  V30 3151 C 287.418 1.28667 2.45642 0
M  V30 3152 H 290.369 1.1178 1.12654 0
M  V30 3153 H 290.39 0.487609 3.77363 0
M  V30 3154 H 289.902 2.21535 3.1866 0
M  V30 3155 H 288.003 -0.191793 3.72106 0
M  V30 3156 H 288.116 1.50028 4.55004 0
M  V30 3157 H 286.48 0.705109 2.44745 0
M  V30 3158 H 287.263 2.37625 2.47769 0
M  V30 3159 N 289.708 -1.40897 0.706093 0
M  V30 3160 C 290.656 -2.32572 0.0361893 0
M  V30 3161 C 291.65 -1.51532 -0.757266 0
M  V30 3162 O 292.856 -1.67396 -0.661703 0
M  V30 3163 H 289.231 -0.751966 -0.00709935 0
M  V30 3164 H 291.202 -2.86733 0.826249 0
M  V30 3165 C 289.951 -3.36418 -0.87854 0
M  V30 3166 H 289.274 -3.98836 -0.277401 0
M  V30 3167 H 290.714 -4.0308 -1.3154 0
M  V30 3168 C 289.173 -2.71141 -1.99961 0
M  V30 3169 O 289.703 -2.56735 -3.0895 0
M  V30 3170 N 287.909 -2.29671 -1.78043 0
M  V30 3171 H 287.456 -2.41588 -0.894042 0
M  V30 3172 H 287.414 -1.86332 -2.53235 0
M  V30 3173 N 291.186 -0.45159 -1.50991 0
M  V30 3174 C 292.434 0.109857 -2.01801 0
M  V30 3175 C 292.755 1.41958 -1.3369 0
M  V30 3176 O 292.025 1.9003 -0.475951 0
M  V30 3177 H 290.605 0.0435884 -0.745727 0
M  V30 3178 H 293.267 -0.597557 -1.85514 0
M  V30 3179 H 292.363 0.275489 -3.10882 0
M  V30 3180 N 292.664 1.56529 -0.183458 0
M  V30 3181 C 293.612 2.19873 0.758845 0
M  V30 3182 C 294.606 1.16638 1.22849 0
M  V30 3183 O 295.812 1.3481 1.19274 0
M  V30 3184 H 292.187 0.7045 0.263029 0
M  V30 3185 H 294.158 2.97724 0.200755 0
M  V30 3186 C 292.907 2.86314 1.9728 0
M  V30 3187 H 292.23 3.65487 1.62047 0
M  V30 3188 H 293.67 3.3409 2.61075 0
M  V30 3189 C 292.129 1.86729 2.80418 0
M  V30 3190 O 292.659 1.36031 3.77966 0
M  V30 3191 N 290.865 1.55216 2.45675 0
M  V30 3192 H 290.412 1.96636 1.66409 0
M  V30 3193 H 290.37 0.888388 3.01588 0
M  V30 3194 N 294.142 -0.090211 1.57342 0
M  V30 3195 C 295.39 -0.791241 1.85967 0
M  V30 3196 C 295.711 -1.7903 0.772859 0
M  V30 3197 O 294.981 -1.94872 -0.200398 0
M  V30 3198 H 293.561 -0.295205 0.686195 0
M  V30 3199 H 296.223 -0.0706782 1.94772 0
M  V30 3200 H 295.319 -1.31882 2.82867 0
M  V30 3201 N 295.62 -1.53406 -0.361157 0
M  V30 3202 C 296.567 -1.80156 -1.44265 0
M  V30 3203 C 297.537 -0.646183 -1.53015 0
M  V30 3204 O 298.722 -0.888818 -1.68833 0
M  V30 3205 C 295.862 -2.00116 -2.81154 0
M  V30 3206 C 294.975 -3.27833 -2.81335 0
M  V30 3207 C 294.11 -3.37957 -4.09828 0
M  V30 3208 C 293.149 -4.59689 -4.04168 0
M  V30 3209 N 292.286 -4.66942 -5.24318 0
M  V30 3210 H 297.126 -2.72438 -1.20754 0
M  V30 3211 H 294.663 -1.34954 -0.585296 0
M  V30 3212 H 296.621 -2.09677 -3.60682 0
M  V30 3213 H 295.251 -1.11167 -3.03054 0
M  V30 3214 H 294.303 -3.27204 -1.94014 0
M  V30 3215 H 295.615 -4.17442 -2.73027 0
M  V30 3216 H 294.769 -3.46853 -4.97773 0
M  V30 3217 H 293.508 -2.46372 -4.20894 0
M  V30 3218 H 292.513 -4.50889 -3.14609 0
M  V30 3219 H 293.738 -5.5262 -3.947 0
M  V30 3220 H 291.684 -3.7826 -5.35962 0
M  V30 3221 H 291.601 -5.50462 -5.18197 0
M  V30 3222 H 292.869 -4.80127 -6.14084 0
M  V30 3223 N 297.098 0.621204 -1.44841 0
M  V30 3224 C 298.061 1.71459 -1.521 0
M  V30 3225 C 299.061 1.55696 -0.401933 0
M  V30 3226 O 300.251 1.61011 -0.664925 0
M  V30 3227 C 297.383 3.10624 -1.40447 0
M  V30 3228 H 298.576 1.66394 -2.49506 0
M  V30 3229 H 296.129 0.835745 -1.3208 0
M  V30 3230 H 296.864 3.21277 -0.441737 0
M  V30 3231 H 296.649 3.23473 -2.21602 0
M  V30 3232 H 298.139 3.90293 -1.4853 0
M  V30 3233 N 298.576 1.31904 0.862503 0
M  V30 3234 C 299.853 1.12644 1.59908 0
M  V30 3235 C 300.233 -0.316104 2.0872 0
M  V30 3236 O 299.581 -1.31145 1.87118 0
M  V30 3237 C 299.791 2.1472 2.7513 0
M  V30 3238 C 301.139 2.47637 3.44907 0
M  V30 3239 O 302.163 2.13205 2.85346 0
M  V30 3240 O 301.022 3.06632 4.52371 0
M  V30 3241 H 298.116 0.43416 0.703871 0
M  V30 3242 H 300.662 1.43408 0.907314 0
M  V30 3243 H 299.434 3.1172 2.3653 0
M  V30 3244 H 299.057 1.84905 3.51989 0
M  V30 3245 N 300.054 -1.07777 1.14986 0
M  V30 3246 C 300.964 -2.18404 0.856546 0
M  V30 3247 C 301.98 -1.73211 -0.165485 0
M  V30 3248 O 303.156 -2.01399 0.00755219 0
M  V30 3249 C 300.221 -3.44977 0.34526 0
M  V30 3250 C 299.282 -4.0476 1.43065 0
M  V30 3251 C 298.515 -5.25291 0.943663 0
M  V30 3252 O 298.738 -5.70004 -0.212426 0
M  V30 3253 O 297.672 -5.76638 1.72547 0
M  V30 3254 H 301.498 -2.45978 1.78125 0
M  V30 3255 H 299.083 -1.17033 0.928631 0
M  V30 3256 H 300.965 -4.21348 0.0663671 0
M  V30 3257 H 299.64 -3.18965 -0.551631 0
M  V30 3258 H 298.547 -3.29949 1.76309 0
M  V30 3259 H 299.88 -4.35035 2.30229 0
M  V30 3260 N 301.532 -0.945985 -1.26051 0
M  V30 3261 C 302.778 -0.597002 -1.93814 0
M  V30 3262 C 303.111 0.862484 -1.73997 0
M  V30 3263 O 302.386 1.61769 -1.07986 0
M  V30 3264 C 302.669 -0.945937 -3.47454 0
M  V30 3265 C 302.522 -2.46052 -3.76535 0
M  V30 3266 C 303.841 -0.464785 -4.37639 0
M  V30 3267 H 300.96 -0.218366 -0.703907 0
M  V30 3268 H 303.602 -1.18107 -1.48831 0
M  V30 3269 H 301.752 -0.448902 -3.85898 0
M  V30 3270 H 303.424 -3.03065 -3.47778 0
M  V30 3271 H 301.667 -2.90194 -3.22444 0
M  V30 3272 H 302.338 -2.65517 -4.83947 0
M  V30 3273 H 304.814 -0.891016 -4.06448 0
M  V30 3274 H 303.69 -0.737712 -5.4392 0
M  V30 3275 H 303.951 0.635274 -4.37512 0
M  V30 3276 N 303.011 1.40521 -0.713556 0
M  V30 3277 C 304.422 1.83853 -0.324807 0
M  V30 3278 C 304.773 1.59667 1.14021 0
M  V30 3279 O 303.898 1.07649 1.87725 0
M  V30 3280 C 304.493 3.33751 -0.582746 0
M  V30 3281 C 303.052 3.75584 -0.247727 0
M  V30 3282 C 302.199 2.63753 -0.856121 0
M  V30 3283 H 305.15 1.29817 -0.91286 0
M  V30 3284 H 305.171 3.80194 0.152682 0
M  V30 3285 H 304.683 3.51322 -1.64908 0
M  V30 3286 H 302.784 3.63608 0.813624 0
M  V30 3287 H 302.897 4.7373 -0.715307 0
M  V30 3288 H 301.261 2.53108 -0.28432 0
M  V30 3289 H 302.044 2.84137 -1.92668 0
M  V30 3290 N 304.489 0.459591 1.5075 0
M  V30 3291 C 305.736 -0.0993495 2.02256 0
M  V30 3292 C 306.064 -1.40751 1.34237 0
M  V30 3293 O 305.319 -1.90379 0.453228 0
M  V30 3294 C 305.618 -0.342866 3.55752 0
M  V30 3295 C 305.284 0.88218 4.42186 0
M  V30 3296 C 303.946 1.21808 4.65528 0
M  V30 3297 C 306.298 1.69837 4.92752 0
M  V30 3298 C 303.626 2.37045 5.36681 0
M  V30 3299 C 305.978 2.84192 5.65171 0
M  V30 3300 C 304.642 3.1821 5.8677 0
M  V30 3301 H 303.912 -0.0363545 0.740108 0
M  V30 3302 H 306.559 0.611329 1.8148 0
M  V30 3303 H 304.864 -1.13567 3.7498 0
M  V30 3304 H 306.561 -0.789121 3.93159 0
M  V30 3305 H 303.151 0.610467 4.2423 0
M  V30 3306 H 307.335 1.45205 4.74583 0
M  V30 3307 H 302.591 2.63689 5.51614 0
M  V30 3308 H 306.765 3.4779 6.03337 0
M  V30 3309 H 304.392 4.07613 6.41682 0
M  V30 3310 N 305.967 -1.56429 0.191757 0
M  V30 3311 C 307.216 -1.9666 -0.448088 0
M  V30 3312 C 307.529 -1.08136 -1.62991 0
M  V30 3313 O 308.735 -1.38135 -2.33733 0
M  V30 3314 C 307.191 -3.49753 -0.848585 0
M  V30 3315 C 306.799 -4.46935 0.308764 0
M  V30 3316 C 308.543 -3.9876 -1.4557 0
M  V30 3317 C 306.45 -5.91293 -0.112506 0
M  V30 3318 H 305.38 -0.734312 -0.171179 0
M  V30 3319 H 308.031 -1.81301 0.283242 0
M  V30 3320 H 306.413 -3.60604 -1.63649 0
M  V30 3321 H 307.587 -4.47813 1.08627 0
M  V30 3322 H 305.902 -4.08102 0.827158 0
M  V30 3323 H 308.499 -5.04086 -1.78328 0
M  V30 3324 H 308.842 -3.42875 -2.36099 0
M  V30 3325 H 309.375 -3.9101 -0.731836 0
M  V30 3326 H 306.114 -6.51097 0.758514 0
M  V30 3327 H 305.634 -5.93676 -0.854941 0
M  V30 3328 H 307.313 -6.44663 -0.549448 0
M  V30 3329 N 307.445 0.0818655 -1.57387 0
M  V30 3330 C 308.722 0.815343 -1.77796 0
M  V30 3331 C 309.102 1.96289 -0.77679 0
M  V30 3332 O 308.45 2.27691 0.192106 0
M  V30 3333 C 308.66 1.29765 -3.23978 0
M  V30 3334 C 310.008 1.7351 -3.8753 0
M  V30 3335 O 311.032 1.39356 -3.27808 0
M  V30 3336 O 309.891 2.36708 -4.92576 0
M  V30 3337 H 306.985 0.389914 -0.729312 0
M  V30 3338 H 309.531 0.0627213 -1.69584 0
M  V30 3339 H 308.303 0.47608 -3.88393 0
M  V30 3340 H 307.926 2.11189 -3.36875 0
M  V30 3341 N 308.923 1.53595 0.353017 0
M  V30 3342 C 310.339 1.43648 0.695516 0
M  V30 3343 C 310.539 0.585617 1.92802 0
M  V30 3344 O 309.595 0.0729223 2.52395 0
M  V30 3345 C 310.908 2.8701 0.896991 0
M  V30 3346 C 312.456 2.96723 0.996209 0
M  V30 3347 C 312.931 4.41173 1.23007 0
M  V30 3348 N 314.422 4.44657 1.29749 0
M  V30 3349 C 315.157 5.53547 1.49577 0
M  V30 3350 N 314.653 6.72461 1.66639 0
M  V30 3351 N 316.446 5.41145 1.52048 0
M  V30 3352 H 308.597 2.07415 -0.457481 0
M  V30 3353 H 310.86 0.9372 -0.142687 0
M  V30 3354 H 310.566 3.51644 0.0629938 0
M  V30 3355 H 310.44 3.31401 1.80148 0
M  V30 3356 H 312.827 2.32235 1.82074 0
M  V30 3357 H 312.908 2.55707 0.0688331 0
M  V30 3358 H 312.552 5.06238 0.410505 0
M  V30 3359 H 312.482 4.79772 2.17086 0
M  V30 3360 H 314.973 3.58963 1.18126 0
M  V30 3361 H 315.286 7.51214 1.81378 0
M  V30 3362 H 313.631 6.75423 1.63794 0
M  V30 3363 H 316.822 4.47205 1.38294 0
M  V30 3364 H 316.995 6.26068 1.67159 0
M  V30 3365 N 310.401 -0.613514 1.45168 0
M  V30 3366 C 311.351 -1.71871 1.49815 0
M  V30 3367 C 312.335 -1.56774 0.362021 0
M  V30 3368 O 313.527 -1.66212 0.608493 0
M  V30 3369 C 310.656 -3.1061 1.46207 0
M  V30 3370 C 309.742 -3.31114 2.64999 0
M  V30 3371 N 310.133 -3.21904 3.90143 0
M  V30 3372 C 308.431 -3.61966 2.6057 0
M  V30 3373 C 309.132 -3.43577 4.69393 0
M  V30 3374 N 308.108 -3.67287 4.00751 0
M  V30 3375 H 311.91 -1.63235 2.444 0
M  V30 3376 H 309.424 -0.816577 1.40377 0
M  V30 3377 H 311.421 -3.8989 1.4762 0
M  V30 3378 H 310.081 -3.20399 0.52673 0
M  V30 3379 H 311.092 -3.00436 4.21852 0
M  V30 3380 H 307.769 -3.78629 1.75916 0
M  V30 3381 H 309.159 -3.41901 5.78406 0
M  V30 3382 N 311.879 -1.3236 -0.855495 0
M  V30 3383 C 313.29 -1.2056 -1.42556 0
M  V30 3384 C 313.641 0.182209 -1.95352 0
M  V30 3385 O 312.766 1.08088 -1.87472 0
M  V30 3386 C 313.361 -2.1826 -2.59129 0
M  V30 3387 C 311.92 -2.10351 -3.12137 0
M  V30 3388 C 311.067 -2.06674 -1.84882 0
M  V30 3389 H 314.018 -1.442 -0.662727 0
M  V30 3390 H 314.039 -1.78064 -3.36264 0
M  V30 3391 H 313.551 -3.19257 -2.20673 0
M  V30 3392 H 311.652 -1.12599 -3.55179 0
M  V30 3393 H 311.765 -3.00135 -3.73438 0
M  V30 3394 H 310.129 -1.51901 -2.04446 0
M  V30 3395 H 310.912 -3.09451 -1.48643 0
M  V30 3396 N 313.357 1.07166 -1.15556 0
M  V30 3397 C 314.634 1.76546 -0.842069 0
M  V30 3398 C 315.014 2.00453 0.661939 0
M  V30 3399 O 314.362 1.62452 1.60691 0
M  V30 3400 C 314.572 3.07266 -1.65495 0
M  V30 3401 C 315.92 3.81578 -1.86234 0
M  V30 3402 O 316.944 3.17083 -1.62287 0
M  V30 3403 O 315.803 4.97419 -2.26355 0
M  V30 3404 H 312.897 0.766756 -0.309862 0
M  V30 3405 H 315.443 1.13514 -1.26145 0
M  V30 3406 H 314.215 2.85494 -2.67598 0
M  V30 3407 H 313.838 3.7803 -1.23203 0
M  V30 3408 N 314.835 0.952656 1.25548 0
M  V30 3409 C 315.745 0.47782 2.29682 0
M  V30 3410 C 316.761 -0.453859 1.67977 0
M  V30 3411 O 317.937 -0.330587 1.98668 0
M  V30 3412 C 315.002 -0.238655 3.45878 0
M  V30 3413 C 314.063 0.730994 4.23031 0
M  V30 3414 C 313.296 0.0486165 5.33678 0
M  V30 3415 O 313.519 -1.16612 5.58353 0
M  V30 3416 O 312.453 0.733152 5.97418 0
M  V30 3417 H 316.279 1.34312 2.72386 0
M  V30 3418 H 313.864 0.719026 1.30959 0
M  V30 3419 H 315.746 -0.641774 4.16484 0
M  V30 3420 H 314.421 -1.07916 3.05181 0
M  V30 3421 H 313.328 1.18428 3.5486 0
M  V30 3422 H 314.661 1.53946 4.67506 0
M  V30 3423 N 316.313 -1.40141 0.720998 0
M  V30 3424 C 317.559 -2.01084 0.263231 0
M  V30 3425 C 317.892 -1.57052 -1.14229 0
M  V30 3426 O 317.167 -0.793027 -1.77599 0
M  V30 3427 C 317.45 -3.58401 0.349344 0
M  V30 3428 C 317.303 -4.12491 1.79363 0
M  V30 3429 C 318.622 -4.39231 -0.276351 0
M  V30 3430 H 315.741 -0.730572 0.0971228 0
M  V30 3431 H 318.383 -1.66543 0.914518 0
M  V30 3432 H 316.533 -3.87958 -0.205165 0
M  V30 3433 H 318.205 -3.93711 2.40394 0
M  V30 3434 H 316.448 -3.66576 2.31958 0
M  V30 3435 H 317.119 -5.21646 1.80524 0
M  V30 3436 H 319.595 -4.15637 0.196184 0
M  V30 3437 H 318.471 -5.48586 -0.185681 0
M  V30 3438 H 318.732 -4.20643 -1.36059 0
M  V30 3439 N 317.792 -0.46758 -1.50504 0
M  V30 3440 C 319.039 0.0886219 -2.02306 0
M  V30 3441 C 319.367 1.40037 -1.34981 0
M  V30 3442 O 318.622 1.90136 -0.463318 0
M  V30 3443 C 318.921 0.323995 -3.55928 0
M  V30 3444 C 318.587 -0.905618 -4.41712 0
M  V30 3445 C 317.249 -1.24275 -4.64875 0
M  V30 3446 C 319.601 -1.72448 -4.91845 0
M  V30 3447 C 316.929 -2.39888 -5.35417 0
M  V30 3448 C 319.281 -2.87185 -5.63656 0
M  V30 3449 C 317.945 -3.21317 -5.85074 0
M  V30 3450 H 317.215 0.0324291 -0.74029 0
M  V30 3451 H 319.862 -0.620945 -1.81153 0
M  V30 3452 H 318.167 1.11577 -3.75577 0
M  V30 3453 H 319.864 0.76826 -3.93572 0
M  V30 3454 H 316.454 -0.632956 -4.239 0
M  V30 3455 H 320.638 -1.4772 -4.73806 0
M  V30 3456 H 315.894 -2.66611 -5.50208 0
M  V30 3457 H 320.068 -3.50985 -6.01484 0
M  V30 3458 H 317.695 -4.1101 -6.39511 0
M  V30 3459 N 319.27 1.56325 -0.20005 0
M  V30 3460 C 320.686 1.58839 0.155716 0
M  V30 3461 C 320.886 1.21636 1.60645 0
M  V30 3462 O 319.942 0.941437 2.34293 0
M  V30 3463 C 321.255 3.0032 -0.151124 0
M  V30 3464 C 322.803 3.12866 -0.0916284 0
M  V30 3465 C 323.278 4.56488 -0.371845 0
M  V30 3466 N 324.769 4.62089 -0.320641 0
M  V30 3467 C 325.504 5.71116 -0.511243 0
M  V30 3468 N 325 6.88592 -0.762461 0
M  V30 3469 N 326.793 5.60335 -0.445157 0
M  V30 3470 H 318.944 1.78788 -1.14668 0
M  V30 3471 H 321.207 0.829996 -0.458051 0
M  V30 3472 H 320.913 3.32117 -1.15721 0
M  V30 3473 H 320.787 3.73257 0.543986 0
M  V30 3474 H 323.174 2.80878 0.905065 0
M  V30 3475 H 323.255 2.42304 -0.81989 0
M  V30 3476 H 322.899 4.89189 -1.36588 0
M  V30 3477 H 322.829 5.25246 0.377362 0
M  V30 3478 H 325.32 3.77665 -0.13329 0
M  V30 3479 H 325.633 7.67581 -0.896576 0
M  V30 3480 H 323.978 6.90387 -0.799412 0
M  V30 3481 H 327.169 4.67436 -0.249278 0
M  V30 3482 H 327.342 6.45243 -0.597116 0
M  V30 3483 N 320.748 -0.0735177 1.57428 0
M  V30 3484 C 321.678 -1.0879 2.06608 0
M  V30 3485 C 322.659 -1.40473 0.959237 0
M  V30 3486 O 323.844 -1.5013 1.23185 0
M  V30 3487 C 320.974 -2.40183 2.50857 0
M  V30 3488 C 319.928 -2.22858 3.65402 0
M  V30 3489 C 319.254 -3.59619 3.957 0
M  V30 3490 C 320.554 -1.65123 4.95511 0
M  V30 3491 H 322.248 -0.678673 2.91607 0
M  V30 3492 H 319.794 -0.325013 1.40284 0
M  V30 3493 H 321.747 -3.11437 2.83874 0
M  V30 3494 H 320.471 -2.83083 1.62885 0
M  V30 3495 H 319.13 -1.54045 3.32664 0
M  V30 3496 H 318.778 -4.00086 3.04861 0
M  V30 3497 H 318.478 -3.48866 4.72828 0
M  V30 3498 H 320.002 -4.32306 4.31212 0
M  V30 3499 H 321.416 -2.26241 5.26771 0
M  V30 3500 H 319.813 -1.65071 5.7695 0
M  V30 3501 H 320.883 -0.612559 4.81015 0
M  V30 3502 N 322.226 -1.5378 -0.344866 0
M  V30 3503 C 323.472 -1.71216 -1.08687 0
M  V30 3504 C 323.805 -0.473281 -1.88345 0
M  V30 3505 O 323.08 0.52968 -1.87149 0
M  V30 3506 C 323.363 -2.97486 -2.02914 0
M  V30 3507 C 323.216 -4.31579 -1.26727 0
M  V30 3508 C 324.535 -3.19422 -3.0275 0
M  V30 3509 H 321.654 -0.62301 -0.393735 0
M  V30 3510 H 324.296 -1.8645 -0.365563 0
M  V30 3511 H 322.446 -2.84629 -2.64421 0
M  V30 3512 H 324.118 -4.56284 -0.67845 0
M  V30 3513 H 322.361 -4.30049 -0.569273 0
M  V30 3514 H 323.032 -5.16106 -1.95803 0
M  V30 3515 H 325.508 -3.316 -2.51357 0
M  V30 3516 H 324.384 -4.09169 -3.65885 0
M  V30 3517 H 324.645 -2.35656 -3.74057 0
M  V30 3518 N 323.704 0.605807 -1.45491 0
M  V30 3519 C 324.652 1.73754 -1.54636 0
M  V30 3520 C 325.646 1.64207 -0.416219 0
M  V30 3521 O 326.852 1.69979 -0.592199 0
M  V30 3522 H 323.227 0.574073 -0.485741 0
M  V30 3523 H 325.198 1.63169 -2.49837 0
M  V30 3524 C 323.947 3.12135 -1.53189 0
M  V30 3525 H 323.27 3.20141 -2.39478 0
M  V30 3526 H 324.71 3.91147 -1.63645 0
M  V30 3527 C 323.169 3.35921 -0.256616 0
M  V30 3528 O 323.699 3.96194 0.662798 0
M  V30 3529 N 321.905 2.90204 -0.151751 0
M  V30 3530 H 321.452 2.41336 -0.90081 0
M  V30 3531 H 321.41 3.06492 0.700699 0
M  V30 3532 N 325.182 1.32811 0.848464 0
M  V30 3533 C 326.429 1.23724 1.60308 0
M  V30 3534 C 326.757 -0.1994 1.93475 0
M  V30 3535 O 326.012 -1.15406 1.5805 0
M  V30 3536 C 326.311 2.04831 2.92881 0
M  V30 3537 C 325.977 3.54125 2.79117 0
M  V30 3538 C 324.639 3.94829 2.7507 0
M  V30 3539 C 326.991 4.49036 2.64606 0
M  V30 3540 C 324.319 5.28675 2.544 0
M  V30 3541 C 326.671 5.83033 2.4547 0
M  V30 3542 C 325.335 6.22931 2.39819 0
M  V30 3543 H 324.605 0.452737 0.586609 0
M  V30 3544 H 327.252 1.64301 0.983743 0
M  V30 3545 H 325.557 1.57001 3.58968 0
M  V30 3546 H 327.254 1.95164 3.50303 0
M  V30 3547 H 323.844 3.21801 2.83094 0
M  V30 3548 H 328.028 4.18505 2.66772 0
M  V30 3549 H 323.284 5.58637 2.48465 0
M  V30 3550 H 327.458 6.56186 2.33222 0
M  V30 3551 H 325.085 7.26584 2.23562 0
M  V30 3552 N 326.66 -1.06551 1.16123 0
M  V30 3553 C 327.906 -1.79719 0.952505 0
M  V30 3554 C 328.261 -1.85396 -0.514385 0
M  V30 3555 O 327.554 -1.33263 -1.37665 0
M  V30 3556 C 327.748 -3.23911 1.51052 0
M  V30 3557 C 327.577 -3.32284 3.03013 0
M  V30 3558 C 326.347 -3.42371 3.71632 0
M  V30 3559 C 328.545 -3.22363 4.00732 0
M  V30 3560 N 326.527 -3.39732 5.11327 0
M  V30 3561 C 327.898 -3.26937 5.26794 0
M  V30 3562 C 329.953 -3.0623 3.92591 0
M  V30 3563 C 328.656 -3.17035 6.45663 0
M  V30 3564 C 330.682 -2.97665 5.11028 0
M  V30 3565 C 330.044 -3.02858 6.35969 0
M  V30 3566 H 326.143 -0.670585 0.402293 0
M  V30 3567 H 328.727 -1.27125 1.4747 0
M  V30 3568 H 326.898 -3.74907 1.01484 0
M  V30 3569 H 328.63 -3.85242 1.2398 0
M  V30 3570 H 325.385 -3.47058 3.22254 0
M  V30 3571 H 325.809 -3.41919 5.84312 0
M  V30 3572 H 330.451 -3.01063 2.96852 0
M  V30 3573 H 328.169 -3.2096 7.41627 0
M  V30 3574 H 331.755 -2.86273 5.06497 0
M  V30 3575 H 330.635 -2.96286 7.26075 0
M  V30 3576 N 328.138 -0.959301 -1.25041 0
M  V30 3577 C 329.386 -0.615393 -1.92503 0
M  V30 3578 C 329.707 0.850969 -1.75452 0
M  V30 3579 O 328.977 1.60658 -1.12098 0
M  V30 3580 H 327.557 -0.224613 -0.712431 0
M  V30 3581 H 330.219 -1.21855 -1.5211 0
M  V30 3582 H 329.315 -0.848738 -3.00338 0
M  V30 3583 N 329.616 1.39756 -0.72842 0
M  V30 3584 C 330.579 2.29012 -0.0927297 0
M  V30 3585 C 331.579 1.45992 0.674025 0
M  V30 3586 O 332.769 1.66749 0.50402 0
M  V30 3587 C 329.901 3.29396 0.878137 0
M  V30 3588 H 331.094 2.86729 -0.879011 0
M  V30 3589 H 328.647 1.48293 -0.493847 0
M  V30 3590 H 329.382 2.76722 1.69101 0
M  V30 3591 H 329.167 3.907 0.331051 0
M  V30 3592 H 330.657 3.96199 1.3197 0
M  V30 3593 N 331.094 0.475555 1.50254 0
M  V30 3594 C 332.51 0.12997 1.5907 0
M  V30 3595 C 332.71 -1.36385 1.48328 0
M  V30 3596 O 331.766 -2.13754 1.34407 0
M  V30 3597 C 333.079 0.684139 2.92814 0
M  V30 3598 C 334.627 0.647965 3.0622 0
M  V30 3599 C 335.102 1.17975 4.42545 0
M  V30 3600 N 336.593 1.13936 4.48969 0
M  V30 3601 C 337.328 1.52129 5.52851 0
M  V30 3602 N 336.824 1.97793 6.63965 0
M  V30 3603 N 338.617 1.43704 5.4342 0
M  V30 3604 H 330.768 1.44706 1.55479 0
M  V30 3605 H 333.031 0.598691 0.735033 0
M  V30 3606 H 332.737 1.73079 3.06164 0
M  V30 3607 H 332.611 0.130204 3.76975 0
M  V30 3608 H 334.998 -0.38979 2.92514 0
M  V30 3609 H 335.079 1.23876 2.23805 0
M  V30 3610 H 334.723 2.21616 4.57 0
M  V30 3611 H 334.653 0.565138 5.23559 0
M  V30 3612 H 337.144 0.804488 3.69238 0
M  V30 3613 H 337.457 2.25072 7.39299 0
M  V30 3614 H 335.802 2.01749 6.65073 0
M  V30 3615 H 338.993 1.07867 4.55502 0
M  V30 3616 H 339.166 1.73794 6.24259 0
M  V30 3617 N 332.573 -1.56217 0.208337 0
M  V30 3618 C 333.798 -2.02782 -0.435222 0
M  V30 3619 C 334.223 -1.08738 -1.53485 0
M  V30 3620 O 333.581 -0.0731855 -1.81152 0
M  V30 3621 C 333.629 -3.47687 -0.956335 0
M  V30 3622 O 332.733 -3.56773 -2.06849 0
M  V30 3623 H 332.074 -0.656403 -0.100158 0
M  V30 3624 H 334.604 -2.02033 0.3231 0
M  V30 3625 H 334.614 -3.87745 -1.26955 0
M  V30 3626 H 333.289 -4.15624 -0.15143 0
M  V30 3627 H 331.866 -3.28597 -1.76292 0
M  V30 3628 N 334.051 0.0651679 -1.57465 0
M  V30 3629 C 335.276 0.779605 -1.9219 0
M  V30 3630 C 335.701 1.69988 -0.805333 0
M  V30 3631 O 335.059 1.79685 0.241435 0
M  V30 3632 C 335.107 1.54364 -3.2589 0
M  V30 3633 O 334.211 2.65474 -3.1559 0
M  V30 3634 H 333.552 0.212249 -0.629163 0
M  V30 3635 H 336.082 0.0314294 -2.04576 0
M  V30 3636 H 336.092 1.92146 -3.59922 0
M  V30 3637 H 334.767 0.868457 -4.06732 0
M  V30 3638 H 333.344 2.30501 -2.93128 0
M  V30 3639 N 335.529 1.53961 0.336706 0
M  V30 3640 C 336.777 1.71197 1.07405 0
M  V30 3641 C 337.098 0.481475 1.88962 0
M  V30 3642 O 336.368 -0.504585 1.8929 0
M  V30 3643 H 334.948 0.631185 0.399517 0
M  V30 3644 H 337.61 1.91232 0.376323 0
M  V30 3645 H 336.706 2.58587 1.74755 0
M  V30 3646 N 337.007 -0.598083 1.45811 0
M  V30 3647 C 338.232 -1.3881 1.54099 0
M  V30 3648 C 338.657 -1.8726 0.177578 0
M  V30 3649 O 338.015 -1.6069 -0.839541 0
M  V30 3650 C 338.063 -2.56217 2.53743 0
M  V30 3651 O 337.167 -3.5716 2.06182 0
M  V30 3652 H 336.508 -0.414024 0.519115 0
M  V30 3653 H 339.038 -0.726971 1.91249 0
M  V30 3654 H 339.048 -3.03337 2.72856 0
M  V30 3655 H 337.723 -2.20303 3.5276 0
M  V30 3656 H 336.3 -3.16624 1.96987 0
M  V30 3657 N 338.485 -1.33259 -0.841409 0
M  V30 3658 C 339.762 -1.15174 -1.58096 0
M  V30 3659 C 340.142 0.282858 -2.09196 0
M  V30 3660 O 339.49 1.28151 -1.89181 0
M  V30 3661 C 339.7 -2.1907 -2.71679 0
M  V30 3662 C 341.048 -2.53093 -3.40924 0
M  V30 3663 O 342.072 -2.17717 -2.81918 0
M  V30 3664 O 340.931 -3.1379 -4.47435 0
M  V30 3665 H 338.025 -0.445303 -0.696875 0
M  V30 3666 H 340.571 -1.44833 -0.884385 0
M  V30 3667 H 339.343 -3.15443 -2.31541 0
M  V30 3668 H 338.966 -1.90481 -3.49002 0
M  V30 3669 N 339.963 1.05934 -1.16686 0
M  V30 3670 C 340.911 2.15603 -0.872817 0
M  V30 3671 C 341.905 1.68647 0.159576 0
M  V30 3672 O 343.111 1.79995 0.0132125 0
M  V30 3673 H 339.486 0.703885 -0.264671 0
M  V30 3674 H 341.457 2.37613 -1.80507 0
M  V30 3675 C 340.206 3.45457 -0.394344 0
M  V30 3676 H 339.529 3.81984 -1.18019 0
M  V30 3677 H 340.969 4.2339 -0.227408 0
M  V30 3678 C 339.428 3.25021 0.88673 0
M  V30 3679 O 339.958 3.50906 1.95519 0
M  V30 3680 N 338.164 2.78437 0.831925 0
M  V30 3681 H 337.711 2.57572 -0.0377619 0
M  V30 3682 H 337.669 2.65144 1.68956 0
M  V30 3683 N 341.441 0.965919 1.2453 0
M  V30 3684 C 342.671 0.643451 1.96324 0
M  V30 3685 C 343.079 -0.790927 1.71875 0
M  V30 3686 O 342.422 -1.54208 0.998273 0
M  V30 3687 C 342.484 0.836078 3.49643 0
M  V30 3688 C 342.148 2.24975 3.97788 0
M  V30 3689 C 343.145 3.22735 4.07601 0
M  V30 3690 C 340.83 2.57697 4.31158 0
M  V30 3691 C 342.824 4.51303 4.50116 0
M  V30 3692 C 340.511 3.86492 4.73357 0
M  V30 3693 C 341.509 4.83107 4.828 0
M  V30 3694 O 341.197 6.09605 5.24058 0
M  V30 3695 H 340.929 0.239223 0.632257 0
M  V30 3696 H 343.483 1.29587 1.59362 0
M  V30 3697 H 341.713 0.12649 3.86493 0
M  V30 3698 H 343.402 0.512965 4.02646 0
M  V30 3699 H 344.168 2.98783 3.82039 0
M  V30 3700 H 340.047 1.83216 4.23028 0
M  V30 3701 H 343.591 5.26716 4.57401 0
M  V30 3702 H 339.488 4.10245 4.98366 0
M  V30 3703 H 340.256 6.13146 5.42213 0
M  V30 3704 N 342.919 -1.39368 0.735821 0
M  V30 3705 C 343.852 -2.28155 0.0451175 0
M  V30 3706 C 344.83 -1.44433 -0.746852 0
M  V30 3707 O 346.014 -1.73823 -0.729237 0
M  V30 3708 C 343.141 -3.253 -0.943266 0
M  V30 3709 C 342.187 -4.25826 -0.239685 0
M  V30 3710 S 343.02 -5.25166 1.04693 0
M  V30 3711 C 344.176 -6.2587 0.0611639 0
M  V30 3712 H 344.409 -2.86388 0.79807 0
M  V30 3713 H 341.942 -1.45104 0.527653 0
M  V30 3714 H 343.9 -3.81789 -1.50824 0
M  V30 3715 H 342.561 -2.66085 -1.66906 0
M  V30 3716 H 341.754 -4.94229 -0.987596 0
M  V30 3717 H 341.356 -3.73141 0.253274 0
M  V30 3718 H 343.648 -6.73007 -0.778941 0
M  V30 3719 H 344.591 -7.04508 0.712362 0
M  V30 3720 H 344.999 -5.63639 -0.311602 0
M  V30 3721 N 344.397 -0.483516 -1.5 0
M  V30 3722 C 345.674 0.129337 -1.95172 0
M  V30 3723 C 346.054 1.55802 -1.4244 0
M  V30 3724 O 345.402 2.19625 -0.630649 0
M  V30 3725 C 345.612 0.0599251 -3.48949 0
M  V30 3726 C 346.96 0.242617 -4.23906 0
M  V30 3727 O 347.984 0.135933 -3.55941 0
M  V30 3728 O 346.843 0.459454 -5.44565 0
M  V30 3729 H 343.937 0.104887 -0.820322 0
M  V30 3730 H 346.483 -0.544807 -1.60717 0
M  V30 3731 H 345.255 -0.937079 -3.79914 0
M  V30 3732 H 344.878 0.774984 -3.89974 0
M  V30 3733 N 345.875 1.56104 -0.216619 0
M  V30 3734 C 347.122 1.98172 0.416416 0
M  V30 3735 C 347.45 1.10413 1.60122 0
M  V30 3736 O 346.705 0.147967 1.9514 0
M  V30 3737 C 347.004 3.45923 0.898464 0
M  V30 3738 C 346.67 4.50559 -0.175288 0
M  V30 3739 C 345.332 4.78897 -0.470271 0
M  V30 3740 C 347.684 5.1334 -0.901728 0
M  V30 3741 C 345.012 5.67299 -1.4963 0
M  V30 3742 C 347.364 6.02853 -1.91705 0
M  V30 3743 C 346.028 6.29537 -2.21901 0
M  V30 3744 H 345.298 0.725164 0.152377 0
M  V30 3745 H 347.945 1.88839 -0.318103 0
M  V30 3746 H 346.25 3.52434 1.71165 0
M  V30 3747 H 347.947 3.75841 1.39803 0
M  V30 3748 H 344.537 4.28551 0.0647806 0
M  V30 3749 H 348.721 4.91521 -0.687072 0
M  V30 3750 H 343.977 5.86239 -1.73592 0
M  V30 3751 H 348.151 6.50552 -2.48505 0
M  V30 3752 H 345.778 6.97835 -3.01548 0
M  V30 3753 N 347.353 -0.0568162 1.57498 0
M  V30 3754 C 348.583 -0.764515 1.91934 0
M  V30 3755 C 348.991 -1.70877 0.81227 0
M  V30 3756 O 348.334 -1.82351 -0.222213 0
M  V30 3757 C 348.396 -1.5994 3.21962 0
M  V30 3758 C 348.06 -0.822925 4.4953 0
M  V30 3759 C 349.057 -0.135464 5.19723 0
M  V30 3760 C 346.742 -0.785666 4.96117 0
M  V30 3761 C 348.736 0.578861 6.34766 0
M  V30 3762 C 346.423 -0.0675784 6.11063 0
M  V30 3763 C 347.421 0.613471 6.80239 0
M  V30 3764 O 347.109 1.31996 7.92989 0
M  V30 3765 H 346.841 -0.221647 0.63863 0
M  V30 3766 H 349.395 -0.0268218 2.05382 0
M  V30 3767 H 347.625 -2.38026 3.04763 0
M  V30 3768 H 349.314 -2.18715 3.41934 0
M  V30 3769 H 350.08 -0.155458 4.84751 0
M  V30 3770 H 345.959 -1.30524 4.42136 0
M  V30 3771 H 349.503 1.111 6.88696 0
M  V30 3772 H 345.4 -0.0455636 6.45484 0
M  V30 3773 H 346.168 1.23077 8.09194 0
M  V30 3774 N 348.832 -1.54138 -0.328536 0
M  V30 3775 C 350.081 -1.71318 -1.06456 0
M  V30 3776 C 350.394 -0.491109 -1.89334 0
M  V30 3777 O 351.6 -0.54416 -2.65991 0
M  V30 3778 C 350.056 -3.03 -1.94214 0
M  V30 3779 C 349.664 -4.32595 -1.16471 0
M  V30 3780 C 351.408 -3.29544 -2.67583 0
M  V30 3781 C 349.315 -5.55341 -2.03347 0
M  V30 3782 H 348.245 -0.638429 -0.401155 0
M  V30 3783 H 350.896 -1.80633 -0.323106 0
M  V30 3784 H 349.278 -2.87579 -2.72239 0
M  V30 3785 H 350.452 -4.58766 -0.432525 0
M  V30 3786 H 348.767 -4.12777 -0.548063 0
M  V30 3787 H 351.364 -4.18444 -3.3288 0
M  V30 3788 H 351.707 -2.47206 -3.34955 0
M  V30 3789 H 352.24 -3.45809 -1.96623 0
M  V30 3790 H 348.979 -6.40268 -1.40491 0
M  V30 3791 H 348.499 -5.33397 -2.74313 0
M  V30 3792 H 350.178 -5.91557 -2.62049 0
M  V30 3793 N 350.31 0.590341 -1.46126 0
M  V30 3794 C 351.587 1.35029 -1.41515 0
M  V30 3795 C 351.967 2.10888 -0.0946472 0
M  V30 3796 O 351.315 2.08998 0.923693 0
M  V30 3797 C 351.525 2.28269 -2.63997 0
M  V30 3798 C 352.873 2.90338 -3.09821 0
M  V30 3799 O 353.897 2.38585 -2.64492 0
M  V30 3800 O 352.756 3.84321 -3.88535 0
M  V30 3801 H 349.85 0.606317 -0.562413 0
M  V30 3802 H 352.396 0.611994 -1.58281 0
M  V30 3803 H 351.168 1.71591 -3.51671 0
M  V30 3804 H 350.791 3.0945 -2.49652 0
M  V30 3805 N 351.788 1.33704 0.83433 0
M  V30 3806 C 352.736 1.24323 1.96587 0
M  V30 3807 C 353.73 0.143659 1.6879 0
M  V30 3808 O 354.936 0.30791 1.77347 0
M  V30 3809 H 351.311 0.385925 0.645419 0
M  V30 3810 H 353.282 2.19978 2.01624 0
M  V30 3811 C 352.031 1.00394 3.32891 0
M  V30 3812 H 351.354 1.84231 3.54822 0
M  V30 3813 H 352.794 0.97862 4.12552 0
M  V30 3814 C 351.253 -0.293047 3.35623 0
M  V30 3815 O 351.783 -1.29823 3.80143 0
M  V30 3816 N 349.989 -0.322174 2.88809 0
M  V30 3817 H 349.536 0.496379 2.52772 0
M  V30 3818 H 349.494 -1.18977 2.91019 0
M  V30 3819 N 353.266 -1.05314 1.17247 0
M  V30 3820 C 354.514 -1.77941 0.958194 0
M  V30 3821 C 354.835 -1.88089 -0.514556 0
M  V30 3822 O 354.105 -1.39676 -1.37359 0
M  V30 3823 H 352.685 -0.659116 0.351533 0
M  V30 3824 H 355.347 -1.27166 1.47699 0
M  V30 3825 H 354.443 -2.79663 1.38546 0
M  V30 3826 N 354.744 -0.972509 -1.24016 0
M  V30 3827 C 356.16 -0.679827 -1.44397 0
M  V30 3828 C 356.36 0.756716 -1.86751 0
M  V30 3829 O 355.416 1.53007 -2.00861 0
M  V30 3830 C 356.729 -1.66803 -2.50195 0
M  V30 3831 C 358.277 -1.68119 -2.64017 0
M  V30 3832 C 358.752 -2.65748 -3.73017 0
M  V30 3833 N 360.243 -2.64219 -3.8045 0
M  V30 3834 C 360.978 -3.36433 -4.64328 0
M  V30 3835 N 360.474 -4.1818 -5.52356 0
M  V30 3836 N 362.267 -3.25235 -4.58453 0
M  V30 3837 H 354.418 -1.90059 -0.948228 0
M  V30 3838 H 356.681 -0.818527 -0.478245 0
M  V30 3839 H 356.387 -2.69498 -2.25973 0
M  V30 3840 H 356.261 -1.4446 -3.48441 0
M  V30 3841 H 358.648 -0.661319 -2.87594 0
M  V30 3842 H 358.729 -1.94525 -1.66113 0
M  V30 3843 H 358.373 -3.67872 -3.50189 0
M  V30 3844 H 358.303 -2.36619 -4.70446 0
M  V30 3845 H 360.794 -2.04887 -3.17537 0
M  V30 3846 H 361.107 -4.70157 -6.13329 0
M  V30 3847 H 359.452 -4.22273 -5.52006 0
M  V30 3848 H 362.643 -2.60829 -3.88698 0
M  V30 3849 H 362.816 -3.81776 -5.23594 0
M  V30 3850 N 356.222 1.38976 -0.743202 0
M  V30 3851 C 357.468 2.0064 -0.295189 0
M  V30 3852 C 357.801 1.5885 1.11716 0
M  V30 3853 O 357.076 0.821181 1.76315 0
M  V30 3854 C 357.359 3.578 -0.406318 0
M  V30 3855 C 357.212 4.09586 -1.85903 0
M  V30 3856 C 358.531 4.39616 0.206439 0
M  V30 3857 H 355.65 0.728935 -0.108733 0
M  V30 3858 H 358.292 1.65067 -0.940897 0
M  V30 3859 H 356.442 3.88235 0.143419 0
M  V30 3860 H 358.114 3.89837 -2.46627 0
M  V30 3861 H 356.357 3.6284 -2.3776 0
M  V30 3862 H 357.028 5.18708 -1.888 0
M  V30 3863 H 359.504 4.15273 -0.262283 0
M  V30 3864 H 358.38 5.48812 0.0983819 0
M  V30 3865 H 358.641 4.22754 1.2935 0
M  V30 3866 N 357.7 0.491464 1.49741 0
M  V30 3867 C 358.647 -0.292027 2.28945 0
M  V30 3868 C 359.617 -0.968973 1.34908 0
M  V30 3869 O 360.802 -0.97748 1.6386 0
M  V30 3870 C 357.942 -1.35617 3.17336 0
M  V30 3871 C 357.055 -0.691957 4.26422 0
M  V30 3872 C 356.19 -1.73572 5.02042 0
M  V30 3873 C 355.229 -1.05286 6.02977 0
M  V30 3874 N 354.366 -2.0404 6.71798 0
M  V30 3875 H 359.206 0.389654 2.95442 0
M  V30 3876 H 356.743 0.204003 1.45679 0
M  V30 3877 H 358.701 -1.98502 3.66951 0
M  V30 3878 H 357.331 -2.00674 2.52844 0
M  V30 3879 H 356.383 0.0499523 3.80367 0
M  V30 3880 H 357.695 -0.153946 4.98562 0
M  V30 3881 H 356.849 -2.43987 5.55478 0
M  V30 3882 H 355.588 -2.30757 4.29654 0
M  V30 3883 H 354.593 -0.334446 5.48782 0
M  V30 3884 H 355.818 -0.487636 6.77347 0
M  V30 3885 H 353.764 -2.60205 6.02187 0
M  V30 3886 H 353.681 -1.55279 7.39881 0
M  V30 3887 H 354.949 -2.73772 7.29842 0
M  V30 3888 N 359.178 -1.55987 0.224894 0
M  V30 3889 C 360.128 -2.17076 -0.697296 0
M  V30 3890 C 361.112 -1.12006 -1.15514 0
M  V30 3891 O 362.304 -1.37985 -1.10857 0
M  V30 3892 C 359.433 -2.85679 -1.90374 0
M  V30 3893 C 358.519 -3.97977 -1.46543 0
M  V30 3894 N 358.91 -5.00359 -0.739909 0
M  V30 3895 C 357.208 -4.10128 -1.75245 0
M  V30 3896 C 357.909 -5.79407 -0.515939 0
M  V30 3897 N 356.885 -5.32892 -1.07364 0
M  V30 3898 H 360.687 -2.93592 -0.134594 0
M  V30 3899 H 358.201 -1.62379 0.0262885 0
M  V30 3900 H 360.198 -3.27857 -2.57518 0
M  V30 3901 H 358.858 -2.1066 -2.47088 0
M  V30 3902 H 359.869 -5.16412 -0.392253 0
M  V30 3903 H 356.546 -3.46263 -2.33255 0
M  V30 3904 H 357.936 -6.71872 0.0617349 0
M  V30 3905 N 360.656 0.0484629 -1.57525 0
M  V30 3906 C 362.067 0.597486 -1.76881 0
M  V30 3907 C 362.418 1.76664 -0.853475 0
M  V30 3908 O 361.543 2.16357 -0.0433656 0
M  V30 3909 C 362.138 1.09066 -3.20765 0
M  V30 3910 C 360.697 1.58535 -3.41385 0
M  V30 3911 C 359.844 0.514868 -2.72478 0
M  V30 3912 H 362.795 -0.177758 -1.57701 0
M  V30 3913 H 362.816 1.95875 -3.2621 0
M  V30 3914 H 362.328 0.239521 -3.8736 0
M  V30 3915 H 360.429 2.45898 -2.79937 0
M  V30 3916 H 360.542 1.64622 -4.49929 0
M  V30 3917 H 358.906 0.965407 -2.35695 0
M  V30 3918 H 359.689 -0.32648 -3.41744 0
M  V30 3919 N 362.134 1.5431 0.320358 0
M  V30 3920 C 363.38 1.73859 1.05568 0
M  V30 3921 C 363.735 0.507807 1.85578 0
M  V30 3922 O 363.028 -0.499789 1.84967 0
M  V30 3923 C 363.222 2.95639 2.00828 0
M  V30 3924 C 363.051 4.30444 1.30186 0
M  V30 3925 C 361.821 4.94544 1.03703 0
M  V30 3926 C 364.019 5.0929 0.716138 0
M  V30 3927 N 362.001 6.13172 0.298846 0
M  V30 3928 C 363.372 6.19903 0.109729 0
M  V30 3929 C 365.427 4.94034 0.619269 0
M  V30 3930 C 364.13 7.16924 -0.584153 0
M  V30 3931 C 366.156 5.91369 -0.0609184 0
M  V30 3932 C 365.518 7.01336 -0.656258 0
M  V30 3933 H 361.617 0.688988 0.36989 0
M  V30 3934 H 364.201 1.9177 0.336494 0
M  V30 3935 H 362.372 2.79188 2.70016 0
M  V30 3936 H 364.104 3.03802 2.6737 0
M  V30 3937 H 360.859 4.54536 1.33019 0
M  V30 3938 H 361.283 6.76977 -0.0561964 0
M  V30 3939 H 365.925 4.0916 1.06526 0
M  V30 3940 H 363.643 8.01354 -1.04197 0
M  V30 3941 H 367.229 5.81642 -0.135552 0
M  V30 3942 H 366.109 7.75359 -1.17423 0
M  V30 3943 N 363.613 -0.582584 1.46437 0
M  V30 3944 C 364.576 -1.67366 1.56592 0
M  V30 3945 C 365.576 -1.54575 0.443072 0
M  V30 3946 O 366.766 -1.59191 0.707381 0
M  V30 3947 C 363.898 -3.06791 1.48634 0
M  V30 3948 H 365.091 -1.5972 2.5383 0
M  V30 3949 H 362.644 -0.800432 1.34249 0
M  V30 3950 H 363.379 -3.19993 0.526763 0
M  V30 3951 H 363.164 -3.17484 2.30101 0
M  V30 3952 H 364.654 -3.86218 1.58826 0
M  V30 3953 N 365.091 -1.34144 -0.827227 0
M  V30 3954 C 366.001 -1.27428 -1.96975 0
M  V30 3955 C 367.017 -0.182728 -1.73038 0
M  V30 3956 O 368.193 -0.408426 -1.97215 0
M  V30 3957 C 365.258 -1.02526 -3.31194 0
M  V30 3958 C 364.319 -2.20796 -3.68168 0
M  V30 3959 C 363.552 -1.97073 -4.95982 0
M  V30 3960 O 363.775 -0.926822 -5.6282 0
M  V30 3961 O 362.709 -2.83912 -5.30733 0
M  V30 3962 H 366.535 -2.23537 -2.05584 0
M  V30 3963 H 364.12 -1.14307 -0.961989 0
M  V30 3964 H 366.002 -0.904026 -4.11589 0
M  V30 3965 H 364.677 -0.0945389 -3.23562 0
M  V30 3966 H 363.584 -2.38477 -2.88235 0
M  V30 3967 H 364.917 -3.12243 -3.8048 0
M  V30 3968 N 366.569 1.04691 -1.17803 0
M  V30 3969 C 367.797 1.81446 -0.99423 0
M  V30 3970 C 368.212 1.83174 0.457459 0
M  V30 3971 O 367.569 1.26265 1.31771 0
M  V30 3972 C 367.62 3.27334 -1.5341 0
M  V30 3973 O 367.341 3.25798 -2.92895 0
M  V30 3974 C 368.842 4.20759 -1.39559 0
M  V30 3975 H 366.062 0.571599 -0.351447 0
M  V30 3976 H 368.606 1.31982 -1.56208 0
M  V30 3977 H 366.761 3.74052 -1.00815 0
M  V30 3978 H 367.175 4.17144 -3.17949 0
M  V30 3979 H 368.649 5.21084 -1.82141 0
M  V30 3980 H 369.126 4.37856 -0.343394 0
M  V30 3981 H 369.732 3.79901 -1.91195 0
M  V30 3982 N 368.047 0.979072 1.23499 0
M  V30 3983 C 369.01 0.523244 2.23147 0
M  V30 3984 C 370.01 -0.386406 1.56088 0
M  V30 3985 O 371.2 -0.180283 1.73265 0
M  V30 3986 C 368.332 -0.240739 3.40049 0
M  V30 3987 H 369.525 1.40432 2.64989 0
M  V30 3988 H 367.078 0.764824 1.36309 0
M  V30 3989 H 367.813 -1.13841 3.03662 0
M  V30 3990 H 367.598 0.412207 3.89927 0
M  V30 3991 H 369.088 -0.548297 4.13985 0
M  V30 3992 N 369.525 -1.3858 0.750561 0
M  V30 3993 C 370.772 -2.00184 0.305373 0
M  V30 3994 C 371.1 -1.59575 -1.11203 0
M  V30 3995 O 370.355 -0.823236 -1.77542 0
M  V30 3996 C 370.654 -3.55455 0.372373 0
M  V30 3997 C 370.32 -4.15765 1.745 0
M  V30 3998 C 368.982 -4.31951 2.12065 0
M  V30 3999 C 371.334 -4.49067 2.64553 0
M  V30 4000 C 368.662 -4.78734 3.39162 0
M  V30 4001 C 371.014 -4.97265 3.91038 0
M  V30 4002 C 369.678 -5.11658 4.28676 0
M  V30 4003 H 368.948 -0.732526 0.111744 0
M  V30 4004 H 371.595 -1.65673 0.960451 0
M  V30 4005 H 369.9 -3.90084 -0.366272 0
M  V30 4006 H 371.597 -4.00999 0.00953918 0
M  V30 4007 H 368.187 -4.03579 1.44297 0
M  V30 4008 H 372.371 -4.36166 2.36796 0
M  V30 4009 H 367.627 -4.88062 3.68246 0
M  V30 4010 H 371.801 -5.22003 4.60962 0
M  V30 4011 H 369.428 -5.47668 5.27222 0
M  V30 4012 N 371.003 -0.499398 -1.49478 0
M  V30 4013 C 372.419 -0.155261 -1.58843 0
M  V30 4014 C 372.619 1.34008 -1.50479 0
M  V30 4015 O 371.675 2.11589 -1.37791 0
M  V30 4016 C 372.988 -0.730636 -2.91689 0
M  V30 4017 C 374.536 -0.696599 -3.0515 0
M  V30 4018 C 375.011 -1.25001 -4.40612 0
M  V30 4019 N 376.502 -1.21064 -4.47099 0
M  V30 4020 C 377.237 -1.60905 -5.50361 0
M  V30 4021 N 376.733 -2.08331 -6.60735 0
M  V30 4022 N 378.526 -1.52331 -5.41065 0
M  V30 4023 H 370.677 -1.47162 -1.53158 0
M  V30 4024 H 372.94 -0.610309 -0.725415 0
M  V30 4025 H 372.646 -1.77928 -3.03372 0
M  V30 4026 H 372.52 -0.190161 -3.7672 0
M  V30 4027 H 374.907 0.343204 -2.93097 0
M  V30 4028 H 374.988 -1.2742 -2.21806 0
M  V30 4029 H 374.632 -2.28859 -4.53416 0
M  V30 4030 H 374.562 -0.64836 -5.22593 0
M  V30 4031 H 377.053 -0.863128 -3.67911 0
M  V30 4032 H 377.366 -2.36805 -7.35624 0
M  V30 4033 H 375.711 -2.12304 -6.6178 0
M  V30 4034 H 378.902 -1.151 -4.53729 0
M  V30 4035 H 379.075 -1.83704 -6.21415 0
M  V30 4036 N 372.481 1.55866 -0.233164 0
M  V30 4037 C 373.758 1.90471 0.444988 0
M  V30 4038 C 374.138 1.15209 1.7689 0
M  V30 4039 O 373.486 0.265119 2.26957 0
M  V30 4040 C 373.696 3.4333 0.626559 0
M  V30 4041 C 375.044 4.14319 0.92871 0
M  V30 4042 O 376.068 3.48993 0.712926 0
M  V30 4043 O 374.927 5.29846 1.33887 0
M  V30 4044 H 372.021 0.792347 0.236885 0
M  V30 4045 H 374.567 1.67437 -0.276211 0
M  V30 4046 H 373.339 3.90095 -0.306822 0
M  V30 4047 H 372.962 3.72181 1.39881 0
M  V30 4048 N 373.959 -0.0401083 1.57549 0
M  V30 4049 C 375.207 -0.731677 1.8839 0
M  V30 4050 C 375.528 -1.76481 0.829425 0
M  V30 4051 O 374.798 -1.95411 -0.1383 0
M  V30 4052 H 373.378 -0.273225 0.695239 0
M  V30 4053 H 376.04 -0.00867725 1.94898 0
M  V30 4054 H 375.136 -1.22816 2.86919 0
M  V30 4055 N 375.437 -1.54477 -0.31217 0
M  V30 4056 C 376.37 -1.79519 -1.40884 0
M  V30 4057 C 377.348 -0.645753 -1.49227 0
M  V30 4058 O 378.532 -0.884468 -1.66461 0
M  V30 4059 C 375.659 -1.92194 -2.78889 0
M  V30 4060 C 374.705 -3.14555 -2.88023 0
M  V30 4061 S 375.538 -4.72893 -2.51262 0
M  V30 4062 C 376.694 -4.8849 -3.91317 0
M  V30 4063 H 376.927 -2.72256 -1.19432 0
M  V30 4064 H 374.46 -1.45746 -0.509654 0
M  V30 4065 H 376.418 -2.00182 -3.58382 0
M  V30 4066 H 375.079 -1.00414 -2.97617 0
M  V30 4067 H 374.272 -3.20193 -3.89221 0
M  V30 4068 H 373.874 -3.04955 -2.16514 0
M  V30 4069 H 376.166 -4.71826 -4.86196 0
M  V30 4070 H 377.109 -5.90588 -3.90656 0
M  V30 4071 H 377.517 -4.16715 -3.80801 0
M  V30 4072 N 376.915 0.57481 -1.46744 0
M  V30 4073 C 377.862 1.68329 -1.57905 0
M  V30 4074 C 378.832 1.60625 -0.422927 0
M  V30 4075 O 380.017 1.79721 -0.640711 0
M  V30 4076 C 377.157 3.06665 -1.58274 0
M  V30 4077 C 376.27 3.24935 -2.84678 0
M  V30 4078 C 375.405 4.53566 -2.76499 0
M  V30 4079 C 374.444 4.65207 -3.97806 0
M  V30 4080 N 373.581 5.85172 -3.87967 0
M  V30 4081 H 378.421 1.58127 -2.52587 0
M  V30 4082 H 375.958 0.770552 -1.25303 0
M  V30 4083 H 377.916 3.86745 -1.56473 0
M  V30 4084 H 376.546 3.15745 -0.671194 0
M  V30 4085 H 375.598 2.38405 -2.96424 0
M  V30 4086 H 376.91 3.29403 -3.7456 0
M  V30 4087 H 376.064 5.41885 -2.72848 0
M  V30 4088 H 374.803 4.51548 -1.8427 0
M  V30 4089 H 373.808 3.75304 -4.0178 0
M  V30 4090 H 375.033 4.68997 -4.9114 0
M  V30 4091 H 372.979 5.84137 -2.98529 0
M  V30 4092 H 372.896 5.90943 -4.71511 0
M  V30 4093 H 374.164 6.759 -3.88303 0
M  V30 4094 N 378.394 1.34581 0.820102 0
M  V30 4095 C 379.344 1.22943 1.92013 0
M  V30 4096 C 380.328 0.127802 1.60392 0
M  V30 4097 O 381.52 0.357737 1.73347 0
M  V30 4098 C 378.649 0.989938 3.28717 0
M  V30 4099 C 377.735 2.13486 3.66449 0
M  V30 4100 N 378.126 3.38625 3.75722 0
M  V30 4101 C 376.424 2.04573 3.96315 0
M  V30 4102 C 377.125 4.13832 4.08801 0
M  V30 4103 N 376.101 3.42451 4.22171 0
M  V30 4104 H 379.903 2.17771 1.97365 0
M  V30 4105 H 377.417 1.2686 1.01392 0
M  V30 4106 H 379.414 0.887462 4.07345 0
M  V30 4107 H 378.074 0.0503691 3.24661 0
M  V30 4108 H 379.085 3.73143 3.59144 0
M  V30 4109 H 375.762 1.1839 4.00362 0
M  V30 4110 H 377.152 5.21909 4.23156 0
M  V30 4111 N 379.872 -1.04064 1.18357 0
M  V30 4112 C 381.118 -1.77528 0.980397 0
M  V30 4113 C 381.451 -1.87948 -0.48879 0
M  V30 4114 O 380.726 -1.3876 -1.36293 0
M  V30 4115 C 381.009 -3.20797 1.63588 0
M  V30 4116 C 380.862 -3.1832 3.17793 0
M  V30 4117 C 382.181 -4.18911 1.34914 0
M  V30 4118 H 379.3 -0.644443 0.357578 0
M  V30 4119 H 381.942 -1.2156 1.46024 0
M  V30 4120 H 380.092 -3.68586 1.22788 0
M  V30 4121 H 381.764 -2.78521 3.67728 0
M  V30 4122 H 380.007 -2.56351 3.49952 0
M  V30 4123 H 380.678 -4.19489 3.58794 0
M  V30 4124 H 383.154 -3.7967 1.70265 0
M  V30 4125 H 382.03 -5.17374 1.83346 0
M  V30 4126 H 382.291 -4.41262 0.272027 0
M  V30 4127 N 381.35 -0.985608 -1.22978 0
M  V30 4128 C 382.313 -0.535071 -2.22867 0
M  V30 4129 C 383.313 0.378123 -1.56291 0
M  V30 4130 O 384.503 0.171092 -1.73358 0
M  V30 4131 C 381.635 0.222702 -3.40172 0
M  V30 4132 H 382.828 -1.41835 -2.6424 0
M  V30 4133 H 380.381 -0.772042 -1.35901 0
M  V30 4134 H 381.116 1.12229 -3.04262 0
M  V30 4135 H 380.901 -0.43288 -3.89703 0
M  V30 4136 H 382.391 0.526335 -4.1427 0
M  V30 4137 N 382.828 1.3818 -0.7579 0
M  V30 4138 C 383.76 2.2901 -0.0932177 0
M  V30 4139 C 384.773 1.47958 0.679136 0
M  V30 4140 O 385.962 1.70773 0.519514 0
M  V30 4141 C 383.062 3.26953 0.89192 0
M  V30 4142 C 382.235 4.37045 0.176303 0
M  V30 4143 C 381.294 5.15148 1.07281 0
M  V30 4144 O 380.32 5.66616 0.541728 0
M  V30 4145 N 381.522 5.28542 2.40049 0
M  V30 4146 H 384.287 2.86694 -0.873303 0
M  V30 4147 H 381.848 1.50007 -0.609054 0
M  V30 4148 H 383.84 3.76083 1.49479 0
M  V30 4149 H 382.41 2.70136 1.57306 0
M  V30 4150 H 381.63 3.89493 -0.607328 0
M  V30 4151 H 382.918 5.07801 -0.318718 0
M  V30 4152 H 382.316 4.88285 2.85647 0
M  V30 4153 H 380.873 5.8103 2.95376 0
M  V30 4154 N 384.306 0.507319 1.49211 0
M  V30 4155 C 385.552 -0.0269732 2.03382 0
M  V30 4156 C 385.907 -1.34111 1.37957 0
M  V30 4157 O 385.2 -1.84733 0.508351 0
M  V30 4158 C 385.394 -0.229513 3.56662 0
M  V30 4159 C 385.223 1.06344 4.36945 0
M  V30 4160 C 383.993 1.617 4.78729 0
M  V30 4161 C 386.191 1.96833 4.75143 0
M  V30 4162 N 384.173 2.8552 5.43463 0
M  V30 4163 C 385.544 3.0523 5.39661 0
M  V30 4164 C 387.599 1.97434 4.57082 0
M  V30 4165 C 386.302 4.14265 5.88028 0
M  V30 4166 C 388.328 3.05448 5.06414 0
M  V30 4167 C 387.69 4.12564 5.70938 0
M  V30 4168 H 383.789 0.0310673 0.781383 0
M  V30 4169 H 386.373 0.683579 1.82305 0
M  V30 4170 H 384.544 -0.909127 3.7761 0
M  V30 4171 H 386.276 -0.761377 3.97473 0
M  V30 4172 H 383.031 1.16132 4.59141 0
M  V30 4173 H 383.455 3.48499 5.80412 0
M  V30 4174 H 388.097 1.15924 4.06597 0
M  V30 4175 H 385.815 4.96569 6.3753 0
M  V30 4176 H 389.401 3.06941 4.94246 0
M  V30 4177 H 388.281 4.94767 6.0842 0
M  V30 4178 N 385.784 -1.5574 0.241426 0
M  V30 4179 C 387.014 -2.02913 -0.38857 0
M  V30 4180 C 387.422 -1.12014 -1.52478 0
M  V30 4181 O 386.765 -0.125903 -1.83268 0
M  V30 4182 C 386.827 -3.4636 -0.963075 0
M  V30 4183 C 386.491 -4.56982 0.0401916 0
M  V30 4184 C 387.488 -5.12941 0.847766 0
M  V30 4185 C 385.173 -5.0203 0.164699 0
M  V30 4186 C 387.167 -6.12437 1.76636 0
M  V30 4187 C 384.854 -6.01358 1.0868 0
M  V30 4188 C 385.852 -6.5644 1.88616 0
M  V30 4189 O 385.54 -7.53831 2.79273 0
M  V30 4190 H 385.272 -0.668983 -0.0971452 0
M  V30 4191 H 387.826 -2.02198 0.361248 0
M  V30 4192 H 386.056 -3.44206 -1.76235 0
M  V30 4193 H 387.745 -3.77065 -1.50257 0
M  V30 4194 H 388.511 -4.78974 0.762133 0
M  V30 4195 H 384.39 -4.58824 -0.447411 0
M  V30 4196 H 387.934 -6.55355 2.39071 0
M  V30 4197 H 383.831 -6.34746 1.17338 0
M  V30 4198 H 384.599 -7.71428 2.73572 0
M  V30 4199 N 387.262 0.0317525 -1.57568 0
M  V30 4200 C 388.209 1.0332 -2.06382 0
M  V30 4201 C 389.179 1.36082 -0.952414 0
M  V30 4202 O 390.364 1.46466 -1.2228 0
M  V30 4203 C 387.504 2.32989 -2.54578 0
M  V30 4204 C 386.617 2.0641 -3.79498 0
M  V30 4205 C 385.752 3.2993 -4.16317 0
M  V30 4206 C 384.791 2.98893 -5.34162 0
M  V30 4207 N 383.928 4.14857 -5.66426 0
M  V30 4208 H 388.768 0.609982 -2.9169 0
M  V30 4209 H 386.305 0.289573 -1.44222 0
M  V30 4210 H 388.263 3.0875 -2.80587 0
M  V30 4211 H 386.893 2.73039 -1.7219 0
M  V30 4212 H 385.945 1.21158 -3.6059 0
M  V30 4213 H 387.257 1.79513 -4.65378 0
M  V30 4214 H 386.411 4.1406 -4.4344 0
M  V30 4215 H 385.15 3.59938 -3.29083 0
M  V30 4216 H 384.155 2.13164 -5.06795 0
M  V30 4217 H 385.38 2.70165 -6.23047 0
M  V30 4218 H 383.326 4.44821 -4.82151 0
M  V30 4219 H 383.243 3.91374 -6.4681 0
M  V30 4220 H 384.511 4.99868 -5.98124 0
M  V30 4221 N 388.74 1.54641 0.303973 0
M  V30 4222 C 389.65 1.88439 1.39743 0
M  V30 4223 C 390.666 0.778239 1.55626 0
M  V30 4224 O 391.842 1.07442 1.70347 0
M  V30 4225 C 388.907 2.12212 2.74166 0
M  V30 4226 C 387.968 3.35936 2.67293 0
M  V30 4227 C 387.201 3.58566 3.95305 0
M  V30 4228 O 387.424 2.84263 4.9452 0
M  V30 4229 O 386.358 4.52078 3.97378 0
M  V30 4230 H 390.184 2.81458 1.14083 0
M  V30 4231 H 387.769 1.40793 0.499768 0
M  V30 4232 H 389.651 2.29067 3.53704 0
M  V30 4233 H 388.326 1.22379 2.99675 0
M  V30 4234 H 387.233 3.24448 1.86237 0
M  V30 4235 H 388.566 4.2589 2.46736 0
M  V30 4236 N 390.218 -0.567019 1.47046 0
M  V30 4237 C 391.466 -1.322 1.52864 0
M  V30 4238 C 391.787 -1.94088 0.188388 0
M  V30 4239 O 391.057 -1.7941 -0.786693 0
M  V30 4240 H 389.637 -0.490894 0.563056 0
M  V30 4241 H 392.299 -0.662879 1.83281 0
M  V30 4242 H 391.395 -2.12062 2.2899 0
M  V30 4243 N 391.696 -1.35014 -0.812953 0
M  V30 4244 C 392.626 -1.30069 -1.93919 0
M  V30 4245 C 393.607 -0.176275 -1.69184 0
M  V30 4246 O 394.792 -0.370227 -1.90638 0
M  V30 4247 C 391.922 -1.06547 -3.30552 0
M  V30 4248 C 390.876 -2.15561 -3.69753 0
M  V30 4249 C 390.202 -1.77214 -5.04479 0
M  V30 4250 C 391.502 -3.57476 -3.808 0
M  V30 4251 H 393.196 -2.24303 -1.98314 0
M  V30 4252 H 390.742 -1.07977 -0.952736 0
M  V30 4253 H 392.695 -1.01729 -4.08937 0
M  V30 4254 H 391.419 -0.0875719 -3.26483 0
M  V30 4255 H 390.078 -2.19466 -2.9365 0
M  V30 4256 H 389.726 -0.780589 -4.96906 0
M  V30 4257 H 389.426 -2.50184 -5.31678 0
M  V30 4258 H 390.95 -1.7391 -5.8531 0
M  V30 4259 H 392.364 -3.55929 -4.4943 0
M  V30 4260 H 390.761 -4.29152 -4.19462 0
M  V30 4261 H 391.831 -3.94091 -2.82525 0
M  V30 4262 N 393.175 1.03435 -1.18907 0
M  V30 4263 C 394.424 1.76143 -0.982669 0
M  V30 4264 C 394.737 1.89416 0.487953 0
M  V30 4265 O 395.943 2.59041 0.813036 0
M  V30 4266 C 394.399 3.16722 -1.70924 0
M  V30 4267 C 394.007 3.11522 -3.21959 0
M  V30 4268 C 395.751 3.93764 -1.58588 0
M  V30 4269 C 393.658 4.46999 -3.87228 0
M  V30 4270 H 392.588 0.660292 -0.364047 0
M  V30 4271 H 395.239 1.158 -1.42347 0
M  V30 4272 H 393.621 3.775 -1.19623 0
M  V30 4273 H 394.795 2.60158 -3.80335 0
M  V30 4274 H 393.11 2.47978 -3.34508 0
M  V30 4275 H 395.707 4.93963 -2.04707 0
M  V30 4276 H 396.05 4.12794 -0.539142 0
M  V30 4277 H 396.583 3.39576 -2.07203 0
M  V30 4278 H 393.322 4.33174 -4.91976 0
M  V30 4279 H 392.842 4.98441 -3.33642 0
M  V30 4280 H 394.521 5.15898 -3.90459 0
M  V30 4281 N 394.653 0.992116 1.22453 0
M  V30 4282 C 395.93 0.583508 1.86694 0
M  V30 4283 C 396.31 -0.9392 1.89056 0
M  V30 4284 O 395.658 -1.82081 1.38053 0
M  V30 4285 C 395.868 1.20304 3.2761 0
M  V30 4286 C 397.216 1.30308 4.0411 0
M  V30 4287 O 398.24 1.15737 3.36873 0
M  V30 4288 O 397.099 1.53615 5.24466 0
M  V30 4289 H 394.193 0.198129 0.802916 0
M  V30 4290 H 396.739 1.08794 1.30238 0
M  V30 4291 H 395.511 2.24461 3.2052 0
M  V30 4292 H 395.134 0.684144 3.9167 0
M  V30 4293 N 396.131 -1.37776 0.765217 0
M  V30 4294 C 397.078 -2.30342 0.145274 0
M  V30 4295 C 398.048 -1.5077 -0.696971 0
M  V30 4296 O 399.233 -1.79362 -0.650689 0
M  V30 4297 C 396.373 -3.37227 -0.732939 0
M  V30 4298 C 395.486 -4.31819 0.125199 0
M  V30 4299 C 394.621 -5.25777 -0.757107 0
M  V30 4300 C 393.66 -6.12012 0.103963 0
M  V30 4301 N 392.797 -6.98232 -0.735953 0
M  V30 4302 H 397.637 -2.8278 0.940195 0
M  V30 4303 H 395.174 -1.39211 0.475255 0
M  V30 4304 H 397.132 -3.97818 -1.25686 0
M  V30 4305 H 395.762 -2.86171 -1.49353 0
M  V30 4306 H 394.814 -3.7259 0.766865 0
M  V30 4307 H 396.126 -4.92509 0.789683 0
M  V30 4308 H 395.28 -5.91541 -1.34776 0
M  V30 4309 H 394.019 -4.65481 -1.45529 0
M  V30 4310 H 393.024 -5.45233 0.707197 0
M  V30 4311 H 394.249 -6.74379 0.799381 0
M  V30 4312 H 392.195 -6.40472 -1.41887 0
M  V30 4313 H 392.112 -7.55891 -0.128624 0
M  V30 4314 H 393.38 -7.68393 -1.31121 0
M  V30 4315 N 397.609 -0.515225 -1.4894 0
M  V30 4316 C 398.519 0.259774 -2.33157 0
M  V30 4317 C 399.535 0.953501 -1.45548 0
M  V30 4318 O 400.711 0.931735 -1.78552 0
M  V30 4319 C 397.776 1.30193 -3.21326 0
M  V30 4320 C 396.837 0.620129 -4.24797 0
M  V30 4321 C 396.07 1.61263 -5.08753 0
M  V30 4322 O 396.293 2.84389 -4.94448 0
M  V30 4323 O 395.227 1.16013 -5.90614 0
M  V30 4324 H 399.053 -0.429932 -3.00641 0
M  V30 4325 H 396.638 -0.276346 -1.46822 0
M  V30 4326 H 398.52 1.90455 -3.75905 0
M  V30 4327 H 397.195 1.97431 -2.56521 0
M  V30 4328 H 396.102 -0.0226019 -3.74093 0
M  V30 4329 H 397.435 -0.0100493 -4.92199 0
M  V30 4330 N 399.087 1.5561 -0.249682 0
M  V30 4331 C 400.336 1.98187 0.37479 0
M  V30 4332 C 400.649 1.14111 1.58865 0
M  V30 4333 O 401.855 1.46714 2.28445 0
M  V30 4334 C 400.311 3.52661 0.718192 0
M  V30 4335 C 399.919 4.45481 -0.474428 0
M  V30 4336 C 401.663 4.03888 1.3067 0
M  V30 4337 C 399.57 5.91303 -0.107026 0
M  V30 4338 H 398.5 0.740159 0.143808 0
M  V30 4339 H 401.151 1.80125 -0.350336 0
M  V30 4340 H 399.533 3.66429 1.50152 0
M  V30 4341 H 400.707 4.43473 -1.25172 0
M  V30 4342 H 399.022 4.04751 -0.978052 0
M  V30 4343 H 401.619 5.10358 1.59496 0
M  V30 4344 H 401.962 3.51401 2.23211 0
M  V30 4345 H 402.495 3.93457 0.586211 0
M  V30 4346 H 399.234 6.47833 -0.999642 0
M  V30 4347 H 398.754 5.9644 0.634013 0
M  V30 4348 H 400.433 6.46258 0.309807 0
M  V30 4349 N 400.565 -0.0233959 1.57583 0
M  V30 4350 C 401.812 -0.713063 1.8953 0
M  V30 4351 C 402.14 -1.75056 0.847673 0
M  V30 4352 O 401.395 -1.95119 -0.150636 0
M  V30 4353 C 401.694 -1.41428 3.28227 0
M  V30 4354 C 401.36 -0.512222 4.47981 0
M  V30 4355 C 400.022 -0.263785 4.80476 0
M  V30 4356 C 402.374 0.110248 5.21083 0
M  V30 4357 C 399.702 0.615804 5.83459 0
M  V30 4358 C 402.054 0.977573 6.25001 0
M  V30 4359 C 400.718 1.23542 6.55968 0
M  V30 4360 H 399.988 -0.260928 0.69354 0
M  V30 4361 H 402.635 0.0271047 1.91481 0
M  V30 4362 H 400.94 -2.22791 3.22291 0
M  V30 4363 H 402.637 -1.95355 3.50196 0
M  V30 4364 H 399.227 -0.716013 4.22577 0
M  V30 4365 H 403.411 -0.0687137 4.96252 0
M  V30 4366 H 398.667 0.82382 6.05824 0
M  V30 4367 H 402.841 1.46638 6.80786 0
M  V30 4368 H 400.468 1.91871 7.35588 0
M  V30 4369 N 402.043 -1.548 -0.295768 0
M  V30 4370 C 403.271 -1.78327 -1.04914 0
M  V30 4371 C 403.686 -0.545316 -1.80753 0
M  V30 4372 O 403.043 0.485013 -1.75937 0
M  V30 4373 C 403.094 -2.99418 -2.02561 0
M  V30 4374 O 402.815 -4.18431 -1.29798 0
M  V30 4375 C 404.316 -3.35375 -2.89895 0
M  V30 4376 H 401.536 -0.594618 -0.310918 0
M  V30 4377 H 404.08 -2.01763 -0.333454 0
M  V30 4378 H 402.235 -2.78175 -2.69624 0
M  V30 4379 H 402.649 -4.86736 -1.95419 0
M  V30 4380 H 404.123 -4.23332 -3.54251 0
M  V30 4381 H 404.6 -2.53761 -3.58472 0
M  V30 4382 H 405.206 -3.58796 -2.28355 0
M  V30 4383 N 403.521 0.559213 -1.47345 0
M  V30 4384 C 404.937 0.884943 -1.32819 0
M  V30 4385 C 405.137 1.98988 -0.317173 0
M  V30 4386 O 404.193 2.51031 0.272011 0
M  V30 4387 C 405.506 1.28007 -2.72093 0
M  V30 4388 C 407.054 1.39161 -2.80363 0
M  V30 4389 C 407.529 1.82031 -4.20272 0
M  V30 4390 N 409.02 1.89185 -4.22804 0
M  V30 4391 C 409.755 2.2368 -5.27973 0
M  V30 4392 N 409.251 2.56802 -6.43447 0
M  V30 4393 N 411.044 2.24436 -5.15349 0
M  V30 4394 H 403.195 -0.170304 -2.11716 0
M  V30 4395 H 405.458 -0.0135247 -0.947904 0
M  V30 4396 H 405.164 0.542027 -3.47498 0
M  V30 4397 H 405.038 2.23665 -3.03733 0
M  V30 4398 H 407.425 2.12048 -2.05231 0
M  V30 4399 H 407.506 0.41696 -2.52379 0
M  V30 4400 H 407.15 1.09715 -4.95908 0
M  V30 4401 H 407.08 2.80495 -4.45679 0
M  V30 4402 H 409.571 1.65982 -3.39497 0
M  V30 4403 H 409.884 2.82144 -7.19454 0
M  V30 4404 H 408.229 2.54387 -6.46771 0
M  V30 4405 H 411.42 1.97998 -4.24163 0
M  V30 4406 H 411.593 2.50989 -5.97418 0
M  V30 4407 N 404.999 1.35443 0.805782 0
M  V30 4408 C 405.946 1.28431 1.91766 0
M  V30 4409 C 406.916 0.156102 1.65365 0
M  V30 4410 O 408.101 0.339936 1.87747 0
M  V30 4411 C 405.241 1.06301 3.2832 0
M  V30 4412 C 404.354 2.2805 3.66902 0
M  V30 4413 C 403.489 1.99064 4.92491 0
M  V30 4414 C 402.528 3.16863 5.23703 0
M  V30 4415 N 401.665 2.87647 6.40471 0
M  V30 4416 H 406.505 2.23511 1.97096 0
M  V30 4417 H 404.042 1.11105 0.964054 0
M  V30 4418 H 406 0.915012 4.07042 0
M  V30 4419 H 404.63 0.148822 3.22457 0
M  V30 4420 H 403.682 2.53711 2.83434 0
M  V30 4421 H 404.994 3.1601 3.85927 0
M  V30 4422 H 404.148 1.81099 5.7904 0
M  V30 4423 H 402.887 1.0839 4.75503 0
M  V30 4424 H 401.892 3.35404 4.35642 0
M  V30 4425 H 403.117 4.08339 5.4262 0
M  V30 4426 H 401.063 1.99568 6.24907 0
M  V30 4427 H 400.98 3.69141 6.59751 0
M  V30 4428 H 402.248 2.73226 7.30047 0
M  V30 4429 N 406.477 -1.02803 1.19454 0
M  V30 4430 C 407.44 -2.09264 0.934955 0
M  V30 4431 C 408.44 -1.60576 -0.0849015 0
M  V30 4432 O 409.63 -1.73554 0.149933 0
M  V30 4433 C 406.762 -3.38482 0.40531 0
M  V30 4434 H 407.955 -2.33726 1.87916 0
M  V30 4435 H 405.508 -1.19426 1.00832 0
M  V30 4436 H 406.243 -3.19689 -0.544899 0
M  V30 4437 H 406.028 -3.75142 1.14065 0
M  V30 4438 H 407.518 -4.16894 0.242806 0
M  V30 4439 N 407.956 -0.998596 -1.21925 0
M  V30 4440 C 409.372 -0.710303 -1.42923 0
M  V30 4441 C 409.572 0.716933 -1.88314 0
M  V30 4442 O 408.628 1.48712 -2.04062 0
M  V30 4443 C 409.941 -1.72072 -2.466 0
M  V30 4444 C 411.489 -1.73681 -2.60392 0
M  V30 4445 C 411.964 -2.73601 -3.67296 0
M  V30 4446 N 413.455 -2.7223 -3.7476 0
M  V30 4447 C 414.19 -3.46206 -4.57087 0
M  V30 4448 N 413.686 -4.29802 -5.43362 0
M  V30 4449 N 415.479 -3.34886 -4.51451 0
M  V30 4450 H 407.63 -1.92028 -0.9077 0
M  V30 4451 H 409.893 -0.828487 -0.460775 0
M  V30 4452 H 409.599 -2.74231 -2.20206 0
M  V30 4453 H 409.473 -1.51818 -3.45299 0
M  V30 4454 H 411.86 -0.722173 -2.86127 0
M  V30 4455 H 411.941 -1.98005 -1.61949 0
M  V30 4456 H 411.585 -3.75217 -3.42307 0
M  V30 4457 H 411.515 -2.46545 -4.65321 0
M  V30 4458 H 414.006 -2.11576 -3.1312 0
M  V30 4459 H 414.319 -4.83061 -6.03218 0
M  V30 4460 H 412.664 -4.33887 -5.42925 0
M  V30 4461 H 415.855 -2.69015 -3.83078 0
M  V30 4462 H 416.028 -3.92796 -5.15379 0
M  V30 4463 N 409.434 1.37368 -0.772513 0
M  V30 4464 C 410.397 2.28601 -0.165541 0
M  V30 4465 C 411.397 1.48062 0.627238 0
M  V30 4466 O 412.587 1.68268 0.450715 0
M  V30 4467 C 409.719 3.32023 0.772897 0
M  V30 4468 H 410.912 2.83787 -0.969787 0
M  V30 4469 H 408.465 1.46647 -0.540775 0
M  V30 4470 H 409.2 2.81962 1.60212 0
M  V30 4471 H 408.985 3.91555 0.206585 0
M  V30 4472 H 410.475 4.00197 1.19298 0
M  V30 4473 N 410.912 0.523116 1.48665 0
M  V30 4474 C 412.328 0.180511 1.58576 0
M  V30 4475 C 412.528 -1.31597 1.52592 0
M  V30 4476 O 411.584 -2.0937 1.4114 0
M  V30 4477 C 412.897 0.776949 2.90489 0
M  V30 4478 C 414.445 0.745058 3.04003 0
M  V30 4479 C 414.92 1.31995 4.38567 0
M  V30 4480 N 416.411 1.28162 4.45117 0
M  V30 4481 C 417.146 1.6964 5.47731 0
M  V30 4482 N 416.642 2.18816 6.57337 0
M  V30 4483 N 418.435 1.6092 5.38573 0
M  V30 4484 H 410.586 1.4958 1.50797 0
M  V30 4485 H 412.849 0.621772 0.715614 0
M  V30 4486 H 412.555 1.82732 3.00503 0
M  V30 4487 H 412.429 0.25007 3.7637 0
M  V30 4488 H 414.816 -0.296532 2.93606 0
M  V30 4489 H 414.897 1.30933 2.1975 0
M  V30 4490 H 414.541 2.36043 4.49718 0
M  V30 4491 H 414.471 0.731418 5.21496 0
M  V30 4492 H 416.962 0.92155 3.66491 0
M  V30 4493 H 417.275 2.48478 7.31764 0
M  V30 4494 H 415.62 2.22805 6.58318 0
M  V30 4495 H 418.811 1.22304 4.5184 0
M  V30 4496 H 418.984 1.93567 6.18414 0
M  V30 4497 N 412.39 -1.55475 0.257931 0
M  V30 4498 C 413.3 -2.2549 -0.647425 0
M  V30 4499 C 414.316 -1.2748 -1.18427 0
M  V30 4500 O 415.492 -1.6038 -1.2182 0
M  V30 4501 C 412.557 -2.94916 -1.82278 0
M  V30 4502 C 411.618 -4.08363 -1.32432 0
M  V30 4503 C 410.851 -4.74469 -2.44366 0
M  V30 4504 O 411.074 -4.39701 -3.63344 0
M  V30 4505 O 410.008 -5.62763 -2.13497 0
M  V30 4506 H 413.834 -3.03593 -0.0807707 0
M  V30 4507 H 411.419 -1.49377 0.0259962 0
M  V30 4508 H 413.301 -3.38606 -2.50846 0
M  V30 4509 H 411.976 -2.19744 -2.37685 0
M  V30 4510 H 410.883 -3.69166 -0.605605 0
M  V30 4511 H 412.216 -4.85385 -0.816211 0
M  V30 4512 N 413.868 0.0150385 -1.57593 0
M  V30 4513 C 414.8 1.03912 -2.04291 0
M  V30 4514 C 415.813 1.31618 -0.958146 0
M  V30 4515 O 417.002 1.28859 -1.23522 0
M  V30 4516 C 414.102 2.37749 -2.41514 0
M  V30 4517 C 413.275 2.29198 -3.72541 0
M  V30 4518 C 412.334 3.45598 -3.96797 0
M  V30 4519 O 411.36 3.24461 -4.67668 0
M  V30 4520 N 412.562 4.67945 -3.43523 0
M  V30 4521 H 415.327 0.64099 -2.92765 0
M  V30 4522 H 412.888 0.20272 -1.60626 0
M  V30 4523 H 414.88 3.14364 -2.54867 0
M  V30 4524 H 413.45 2.69357 -1.58637 0
M  V30 4525 H 412.67 1.3759 -3.69408 0
M  V30 4526 H 413.958 2.20642 -4.5847 0
M  V30 4527 H 413.356 4.88017 -2.86104 0
M  V30 4528 H 411.913 5.41878 -3.62232 0
M  V30 4529 N 415.346 1.54954 0.287554 0
M  V30 4530 C 416.279 1.81737 1.3801 0
M  V30 4531 C 417.257 0.669412 1.48181 0
M  V30 4532 O 418.441 0.910839 1.65033 0
M  V30 4533 C 415.568 1.96606 2.75796 0
M  V30 4534 C 414.614 3.19098 2.82982 0
M  V30 4535 S 415.447 4.7683 2.43707 0
M  V30 4536 C 416.603 4.94653 3.83496 0
M  V30 4537 H 416.836 2.74122 1.15085 0
M  V30 4538 H 414.369 1.46538 0.486403 0
M  V30 4539 H 416.327 2.05858 3.55152 0
M  V30 4540 H 414.988 1.05136 2.95982 0
M  V30 4541 H 414.181 3.26344 3.84077 0
M  V30 4542 H 413.783 3.08361 2.11635 0
M  V30 4543 H 416.075 4.79502 4.78628 0
M  V30 4544 H 417.018 5.96728 3.8121 0
M  V30 4545 H 417.426 4.2272 3.74123 0
M  V30 4546 N 416.824 -0.551391 1.4764 0
M  V30 4547 C 418.071 -1.3083 1.54563 0
M  V30 4548 C 418.399 -1.93359 0.210361 0
M  V30 4549 O 417.654 -1.78721 -0.797332 0
M  V30 4550 C 417.953 -2.43469 2.61644 0
M  V30 4551 C 417.619 -1.98732 4.04742 0
M  V30 4552 C 416.281 -1.86248 4.43695 0
M  V30 4553 C 418.633 -1.64659 4.94507 0
M  V30 4554 C 415.961 -1.37995 5.70241 0
M  V30 4555 C 418.313 -1.17875 6.21521 0
M  V30 4556 C 416.977 -1.03992 6.5935 0
M  V30 4557 H 416.247 -0.478741 0.565587 0
M  V30 4558 H 418.894 -0.617697 1.81264 0
M  V30 4559 H 417.199 -3.18109 2.28722 0
M  V30 4560 H 418.896 -3.01642 2.64222 0
M  V30 4561 H 415.486 -2.09393 3.73968 0
M  V30 4562 H 419.67 -1.73174 4.65107 0
M  V30 4563 H 414.926 -1.25915 5.98294 0
M  V30 4564 H 419.1 -0.905739 6.90485 0
M  V30 4565 H 416.727 -0.663794 7.57296 0
M  V30 4566 N 418.302 -1.35869 -0.798587 0
M  V30 4567 C 419.55 -1.29332 -1.55298 0
M  V30 4568 C 419.871 0.129729 -1.94568 0
M  V30 4569 O 419.141 1.06796 -1.6423 0
M  V30 4570 H 417.721 -0.475737 -0.57592 0
M  V30 4571 H 420.383 -1.70062 -0.952093 0
M  V30 4572 H 419.479 -1.91458 -2.46476 0
M  V30 4573 N 419.78 1.02168 -1.19998 0
M  V30 4574 C 421.028 1.75338 -1.00504 0
M  V30 4575 C 421.349 1.89387 0.464506 0
M  V30 4576 O 420.619 1.43268 1.33608 0
M  V30 4577 H 419.199 0.649564 -0.368885 0
M  V30 4578 H 421.861 1.23205 -1.51018 0
M  V30 4579 H 420.957 2.75892 -1.45912 0
M  V30 4580 N 421.258 1.00505 1.21394 0
M  V30 4581 C 422.206 0.558623 2.25792 0
M  V30 4582 C 423.2 -0.396848 1.64686 0
M  V30 4583 O 424.406 -0.268035 1.77993 0
M  V30 4584 H 420.781 0.1623 0.734277 0
M  V30 4585 H 422.752 1.4503 2.60785 0
M  V30 4586 C 421.501 -0.0989574 3.47559 0
M  V30 4587 H 420.824 0.627225 3.94849 0
M  V30 4588 H 422.264 -0.3746 4.22342 0
M  V30 4589 C 420.723 -1.33817 3.09184 0
M  V30 4590 O 421.253 -2.43252 3.19674 0
M  V30 4591 N 419.459 -1.21793 2.63846 0
M  V30 4592 H 419.006 -0.32746 2.5551 0
M  V30 4593 H 418.964 -2.04809 2.38539 0
M  V30 4594 N 422.737 -1.36956 0.779787 0
M  V30 4595 C 423.667 -2.32761 0.185651 0
M  V30 4596 C 424.648 -1.56177 -0.673989 0
M  V30 4597 O 425.833 -1.84378 -0.609797 0
M  V30 4598 C 422.963 -3.40418 -0.687964 0
M  V30 4599 C 421.917 -4.27941 0.0710102 0
M  V30 4600 C 421.243 -5.26681 -0.922573 0
M  V30 4601 C 422.543 -5.07006 1.25467 0
M  V30 4602 H 424.237 -2.82698 0.986008 0
M  V30 4603 H 421.783 -1.3592 0.475592 0
M  V30 4604 H 423.736 -4.06423 -1.11348 0
M  V30 4605 H 422.46 -2.89025 -1.52093 0
M  V30 4606 H 421.119 -3.63478 0.47739 0
M  V30 4607 H 420.767 -4.71565 -1.7503 0
M  V30 4608 H 420.467 -5.86103 -0.419237 0
M  V30 4609 H 421.991 -5.9556 -1.34686 0
M  V30 4610 H 423.405 -5.66105 0.905401 0
M  V30 4611 H 421.802 -5.75793 1.69063 0
M  V30 4612 H 422.872 -4.3921 2.05481 0
M  V30 4613 N 424.215 -0.530993 -1.48385 0
M  V30 4614 C 425.463 0.00273189 -2.021 0
M  V30 4615 C 425.784 1.34672 -1.41027 0
M  V30 4616 O 425.054 1.8724 -0.576012 0
M  V30 4617 H 423.634 0.00399774 -0.746989 0
M  V30 4618 H 426.296 -0.695054 -1.82085 0
M  V30 4619 H 425.392 0.11031 -3.11905 0
M  V30 4620 N 425.693 1.55336 -0.266172 0
M  V30 4621 C 426.941 1.99003 0.35246 0
M  V30 4622 C 427.262 1.15591 1.57047 0
M  V30 4623 O 426.532 0.243268 1.94384 0
M  V30 4624 H 425.112 0.735025 0.133217 0
M  V30 4625 H 427.774 1.91367 -0.369434 0
M  V30 4626 H 426.87 3.05289 0.648453 0
M  V30 4627 N 427.171 -0.0066808 1.57599 0
M  V30 4628 C 428.418 -0.69292 1.90276 0
M  V30 4629 C 428.746 -1.74148 0.866192 0
M  V30 4630 O 428.001 -1.95268 -0.129933 0
M  V30 4631 C 428.3 -1.37939 3.29708 0
M  V30 4632 C 427.966 -0.464679 4.48499 0
M  V30 4633 C 426.628 -0.212809 4.80729 0
M  V30 4634 C 428.98 0.16551 5.20937 0
M  V30 4635 C 426.308 0.677653 5.82773 0
M  V30 4636 C 428.66 1.04381 6.23929 0
M  V30 4637 C 427.324 1.30492 6.54621 0
M  V30 4638 H 426.594 -0.253558 0.696268 0
M  V30 4639 H 429.241 0.0474123 1.91441 0
M  V30 4640 H 427.546 -2.1936 3.24636 0
M  V30 4641 H 429.243 -1.9163 3.52249 0
M  V30 4642 H 425.833 -0.671153 4.23313 0
M  V30 4643 H 430.017 -0.0160756 4.96297 0
M  V30 4644 H 425.273 0.88803 6.04917 0
M  V30 4645 H 429.447 1.53851 6.79193 0
M  V30 4646 H 427.074 1.99662 7.33512 0
M  V30 4647 N 428.649 -1.55105 -0.279332 0
M  V30 4648 C 429.877 -1.7943 -1.03017 0
M  V30 4649 C 430.292 -0.564456 -1.80165 0
M  V30 4650 O 429.649 0.466326 -1.76442 0
M  V30 4651 C 429.7 -3.0155 -1.99374 0
M  V30 4652 O 429.421 -4.19784 -1.25352 0
M  V30 4653 C 430.922 -3.3843 -2.86321 0
M  V30 4654 H 428.142 -0.597882 -0.304594 0
M  V30 4655 H 430.686 -2.02105 -0.312035 0
M  V30 4656 H 428.841 -2.81019 -2.66659 0
M  V30 4657 H 429.255 -4.88781 -1.90246 0
M  V30 4658 H 430.729 -4.27066 -3.49741 0
M  V30 4659 H 431.206 -2.57549 -3.5576 0
M  V30 4660 H 431.812 -3.61197 -2.24536 0
M  V30 4661 N 430.127 0.543554 -1.4793 0
M  V30 4662 C 431.077 1.64527 -1.57844 0
M  V30 4663 C 432.061 1.54869 -0.436408 0
M  V30 4664 O 433.253 1.63119 -0.687101 0
M  V30 4665 C 430.382 3.03281 -1.6086 0
M  V30 4666 C 429.468 3.18093 -2.80495 0
M  V30 4667 N 429.859 3.02923 -4.05057 0
M  V30 4668 C 428.157 3.49121 -2.77543 0
M  V30 4669 C 428.858 3.20791 -4.85251 0
M  V30 4670 N 427.834 3.47749 -4.17818 0
M  V30 4671 H 431.636 1.51388 -2.5191 0
M  V30 4672 H 429.15 0.748671 -1.44113 0
M  V30 4673 H 431.147 3.82403 -1.66054 0
M  V30 4674 H 429.807 3.17521 -0.678996 0
M  V30 4675 H 430.818 2.79966 -4.35705 0
M  V30 4676 H 427.495 3.69804 -1.93781 0
M  V30 4677 H 428.885 3.13915 -5.9406 0
M  V30 4678 N 431.605 1.3629 0.791371 0
M  V30 4679 C 432.882 1.20962 1.53712 0
M  V30 4680 C 433.262 -0.205021 2.10102 0
M  V30 4681 O 432.61 -1.21042 1.93807 0
M  V30 4682 C 432.82 2.29002 2.63361 0
M  V30 4683 C 434.168 2.65572 3.31295 0
M  V30 4684 O 435.192 2.2803 2.73643 0
M  V30 4685 O 434.051 3.3018 4.35481 0
M  V30 4686 H 431.145 0.47086 0.679867 0
M  V30 4687 H 433.691 1.48016 0.830021 0
M  V30 4688 H 432.463 3.2382 2.19674 0
M  V30 4689 H 432.086 2.03303 3.41692 0
M  V30 4690 N 433.083 -1.0153 1.20538 0
M  V30 4691 C 434.329 -1.75517 1.02787 0
M  V30 4692 C 434.684 -1.87411 -0.435289 0
M  V30 4693 O 433.977 -1.38982 -1.31889 0
M  V30 4694 C 434.171 -3.17213 1.64654 0
M  V30 4695 C 434 -3.19134 3.16834 0
M  V30 4696 C 432.77 -3.26301 3.85818 0
M  V30 4697 C 434.968 -3.05077 4.14044 0
M  V30 4698 N 432.95 -3.17739 5.25276 0
M  V30 4699 C 434.321 -3.04299 5.40187 0
M  V30 4700 C 436.376 -2.89303 4.05226 0
M  V30 4701 C 435.079 -2.89365 6.58529 0
M  V30 4702 C 437.105 -2.75723 5.23193 0
M  V30 4703 C 436.467 -2.75612 6.48242 0
M  V30 4704 H 432.566 -0.652919 0.430373 0
M  V30 4705 H 435.15 -1.20755 1.52729 0
M  V30 4706 H 433.321 -3.70266 1.17294 0
M  V30 4707 H 435.053 -3.79637 1.40208 0
M  V30 4708 H 431.808 -3.33078 3.36684 0
M  V30 4709 H 432.232 -3.16829 5.98288 0
M  V30 4710 H 436.874 -2.88201 3.09354 0
M  V30 4711 H 434.592 -2.89216 7.54573 0
M  V30 4712 H 438.178 -2.64533 5.18183 0
M  V30 4713 H 437.058 -2.65224 7.37988 0
M  V30 4714 N 434.561 -1.01147 -1.20859 0
M  V30 4715 C 435.808 -0.697865 -1.90095 0
M  V30 4716 C 436.136 0.772014 -1.78522 0
M  V30 4717 O 435.391 1.57595 -1.16027 0
M  V30 4718 C 435.69 -1.0727 -3.40922 0
M  V30 4719 C 435.356 -2.53792 -3.72693 0
M  V30 4720 C 434.018 -2.93829 -3.81075 0
M  V30 4721 C 436.37 -3.48674 -3.87397 0
M  V30 4722 C 433.698 -4.27696 -4.01613 0
M  V30 4723 C 436.05 -4.82223 -4.09444 0
M  V30 4724 C 434.714 -5.21973 -4.16054 0
M  V30 4725 H 433.984 -0.255367 -0.695607 0
M  V30 4726 H 436.631 -1.27111 -1.43231 0
M  V30 4727 H 434.936 -0.417799 -3.89566 0
M  V30 4728 H 436.633 -0.807818 -3.92779 0
M  V30 4729 H 433.223 -2.21768 -3.66765 0
M  V30 4730 H 437.407 -3.18904 -3.80281 0
M  V30 4731 H 432.663 -4.58055 -4.04964 0
M  V30 4732 H 436.837 -5.55672 -4.19763 0
M  V30 4733 H 434.464 -6.25717 -4.31721 0
M  V30 4734 N 436.039 1.36541 -0.78704 0
M  V30 4735 C 437.002 2.28413 -0.189778 0
M  V30 4736 C 438.002 1.48719 0.611499 0
M  V30 4737 O 439.192 1.68737 0.432842 0
M  V30 4738 C 436.324 3.32824 0.737638 0
M  V30 4739 H 437.517 2.82743 -0.999831 0
M  V30 4740 H 435.07 1.46065 -0.556298 0
M  V30 4741 H 435.805 2.83646 1.57212 0
M  V30 4742 H 435.59 3.91752 0.165044 0
M  V30 4743 H 437.08 4.0144 1.15047 0
M  V30 4744 N 437.518 0.538854 1.48102 0
M  V30 4745 C 438.743 0.0102694 2.07397 0
M  V30 4746 C 439.168 -1.26562 1.39153 0
M  V30 4747 O 438.526 -1.75357 0.460387 0
M  V30 4748 C 438.574 -0.187602 3.60112 0
M  V30 4749 O 437.678 -1.25432 3.92862 0
M  V30 4750 H 437.019 0.0430975 0.6626 0
M  V30 4751 H 439.549 0.749301 1.90385 0
M  V30 4752 H 439.559 -0.407517 4.0596 0
M  V30 4753 H 438.234 0.744386 4.09184 0
M  V30 4754 H 436.811 -1.01636 3.58782 0
M  V30 4755 N 438.996 -1.55193 0.274407 0
M  V30 4756 C 440.224 -2.03987 -0.345943 0
M  V30 4757 C 440.639 -1.15279 -1.4952 0
M  V30 4758 O 439.996 -0.172759 -1.8168 0
M  V30 4759 C 440.047 -3.51898 -0.827631 0
M  V30 4760 O 439.768 -4.37231 0.275855 0
M  V30 4761 C 441.269 -4.16577 -1.51587 0
M  V30 4762 H 438.489 -0.666335 -0.0789892 0
M  V30 4763 H 441.033 -2.00423 0.406294 0
M  V30 4764 H 439.188 -3.55909 -1.52996 0
M  V30 4765 H 439.602 -5.24415 -0.0943638 0
M  V30 4766 H 441.076 -5.21678 -1.80433 0
M  V30 4767 H 441.553 -3.64707 -2.44716 0
M  V30 4768 H 442.159 -4.16568 -0.857409 0
M  V30 4769 N 440.474 -0.00167713 -1.576 0
M  V30 4770 C 441.407 1.02317 -2.03977 0
M  V30 4771 C 442.385 1.33381 -0.929963 0
M  V30 4772 O 443.569 1.45517 -1.19822 0
M  V30 4773 C 440.696 2.35035 -2.43878 0
M  V30 4774 C 439.742 2.19621 -3.65607 0
M  V30 4775 S 440.575 1.52068 -5.13455 0
M  V30 4776 C 441.731 2.86212 -5.56627 0
M  V30 4777 H 441.964 0.628285 -2.90585 0
M  V30 4778 H 439.497 0.209239 -1.52976 0
M  V30 4779 H 441.455 3.11345 -2.67534 0
M  V30 4780 H 440.116 2.71663 -1.57665 0
M  V30 4781 H 439.309 3.1767 -3.91282 0
M  V30 4782 H 438.911 1.51455 -3.41961 0
M  V30 4783 H 441.203 3.82509 -5.59189 0
M  V30 4784 H 442.146 2.65235 -6.56549 0
M  V30 4785 H 442.554 2.90199 -4.84195 0
M  V30 4786 N 441.952 1.55251 0.271103 0
M  V30 4787 C 443.18 1.79974 1.02064 0
M  V30 4788 C 443.595 0.574003 1.79863 0
M  V30 4789 O 442.952 -0.456962 1.76686 0
M  V30 4790 C 443.003 3.02603 1.97772 0
M  V30 4791 O 442.724 4.20443 1.23124 0
M  V30 4792 C 444.225 3.39944 2.84522 0
M  V30 4793 H 441.445 0.599489 0.301419 0
M  V30 4794 H 443.989 2.02268 0.301313 0
M  V30 4795 H 442.144 2.8243 2.65165 0
M  V30 4796 H 442.558 4.89783 1.87651 0
M  V30 4797 H 444.032 4.28915 3.47471 0
M  V30 4798 H 444.509 2.59432 3.54389 0
M  V30 4799 H 445.115 3.62383 2.22618 0
M  V30 4800 N 443.43 -0.535701 1.48216 0
M  V30 4801 C 444.677 -1.29183 1.55942 0
M  V30 4802 C 445.005 -1.93125 0.230857 0
M  V30 4803 O 444.26 -1.79556 -0.778331 0
M  V30 4804 C 444.559 -2.4068 2.64212 0
M  V30 4805 C 444.225 -1.94428 4.06827 0
M  V30 4806 C 442.887 -1.81532 4.45645 0
M  V30 4807 C 445.239 -1.59405 4.96225 0
M  V30 4808 C 442.567 -1.31939 5.71672 0
M  V30 4809 C 444.919 -1.11276 6.22736 0
M  V30 4810 C 443.583 -0.969924 6.60416 0
M  V30 4811 H 442.853 -0.472715 0.570632 0
M  V30 4812 H 445.5 -0.598437 1.81909 0
M  V30 4813 H 443.805 -3.15666 2.32083 0
M  V30 4814 H 445.502 -2.98822 2.67407 0
M  V30 4815 H 442.092 -2.05415 3.76168 0
M  V30 4816 H 446.276 -1.68231 4.66917 0
M  V30 4817 H 441.532 -1.19562 5.99596 0
M  V30 4818 H 445.706 -0.832453 6.91407 0
M  V30 4819 H 443.333 -0.583436 7.57958 0
M  V30 4820 N 444.908 -1.36708 -0.784132 0
M  V30 4821 C 445.856 -1.31533 -1.91838 0
M  V30 4822 C 446.85 -0.206205 -1.6814 0
M  V30 4823 O 448.056 -0.373519 -1.76082 0
M  V30 4824 H 444.431 -0.409613 -0.630651 0
M  V30 4825 H 446.402 -2.2731 -1.9332 0
M  V30 4826 C 445.151 -1.12679 -3.28936 0
M  V30 4827 H 444.474 -1.97274 -3.4774 0
M  V30 4828 H 445.914 -1.13106 -4.08636 0
M  V30 4829 C 444.373 0.168281 -3.36479 0
M  V30 4830 O 444.903 1.15625 -3.84699 0
M  V30 4831 N 443.109 0.214762 -2.89805 0
M  V30 4832 H 442.656 -0.589852 -2.50756 0
M  V30 4833 H 442.614 1.08094 -2.95234 0
M  V30 4834 N 446.386 1.0089 -1.21074 0
M  V30 4835 C 447.296 2.13039 -0.982425 0
M  V30 4836 C 448.312 1.73881 0.0642161 0
M  V30 4837 O 449.488 2.01012 -0.12496 0
M  V30 4838 C 446.553 3.42377 -0.545803 0
M  V30 4839 C 445.614 3.95731 -1.6642 0
M  V30 4840 C 444.847 5.18896 -1.24832 0
M  V30 4841 O 445.07 5.70273 -0.120265 0
M  V30 4842 O 444.004 5.65597 -2.05873 0
M  V30 4843 H 447.83 2.35175 -1.92163 0
M  V30 4844 H 445.415 1.1142 -0.995285 0
M  V30 4845 H 447.297 4.20244 -0.311912 0
M  V30 4846 H 445.972 3.21639 0.364727 0
M  V30 4847 H 444.879 3.19108 -1.95246 0
M  V30 4848 H 446.212 4.20872 -2.55201 0
M  V30 4849 N 447.864 1.01787 1.20321 0
M  V30 4850 C 449.112 0.706538 1.89347 0
M  V30 4851 C 449.433 -0.766289 1.79313 0
M  V30 4852 O 448.703 -1.55126 1.19635 0
M  V30 4853 H 447.283 0.258348 0.700903 0
M  V30 4854 H 449.945 1.28974 1.46122 0
M  V30 4855 H 449.041 0.991066 2.95946 0
M  V30 4856 N 449.342 -1.36122 0.79427 0
M  V30 4857 C 450.272 -2.32551 0.210328 0
M  V30 4858 C 451.253 -1.56884 -0.657386 0
M  V30 4859 O 452.438 -1.85014 -0.590207 0
M  V30 4860 C 449.568 -3.41128 -0.651819 0
M  V30 4861 C 448.522 -4.27842 0.116395 0
M  V30 4862 C 447.848 -5.2763 -0.86666 0
M  V30 4863 C 449.148 -5.05647 1.30837 0
M  V30 4864 H 450.842 -2.81636 1.01594 0
M  V30 4865 H 448.388 -1.35407 0.489981 0
M  V30 4866 H 450.341 -4.07581 -1.07031 0
M  V30 4867 H 449.065 -2.90622 -1.49019 0
M  V30 4868 H 447.724 -3.62952 0.515915 0
M  V30 4869 H 447.372 -4.73395 -1.70019 0
M  V30 4870 H 447.072 -5.86514 -0.35705 0
M  V30 4871 H 448.596 -5.96955 -1.28361 0
M  V30 4872 H 450.01 -5.65113 0.965393 0
M  V30 4873 H 448.407 -5.73967 1.75161 0
M  V30 4874 H 449.477 -4.37006 2.10128 0
M  V30 4875 N 450.82 -0.546701 -1.47814 0
M  V30 4876 C 451.783 0.196287 -2.28358 0
M  V30 4877 C 452.783 0.852437 -1.36346 0
M  V30 4878 O 453.973 0.709913 -1.59078 0
M  V30 4879 C 451.105 1.28579 -3.15722 0
M  V30 4880 H 452.298 -0.511086 -2.95513 0
M  V30 4881 H 449.851 -0.303248 -1.5333 0
M  V30 4882 H 450.586 2.0259 -2.53235 0
M  V30 4883 H 450.371 0.820229 -3.83425 0
M  V30 4884 H 451.861 1.80793 -3.76435 0
M  V30 4885 N 452.299 1.55045 -0.282633 0
M  V30 4886 C 453.246 2.22822 0.601566 0
M  V30 4887 C 454.216 1.20431 1.14392 0
M  V30 4888 O 455.401 1.48996 1.19184 0
M  V30 4889 C 452.541 2.95873 1.77632 0
M  V30 4890 C 451.654 4.12999 1.26711 0
M  V30 4891 C 450.789 4.73676 2.40426 0
M  V30 4892 C 449.828 5.82981 1.86545 0
M  V30 4893 N 448.965 6.3769 2.93762 0
M  V30 4894 H 453.805 2.97995 0.0169528 0
M  V30 4895 H 451.342 1.471 -0.00339964 0
M  V30 4896 H 453.3 3.36447 2.46697 0
M  V30 4897 H 451.93 2.2311 2.33285 0
M  V30 4898 H 450.982 3.77494 0.469314 0
M  V30 4899 H 452.294 4.91803 0.832518 0
M  V30 4900 H 451.448 5.17008 3.17471 0
M  V30 4901 H 450.187 3.94164 2.87203 0
M  V30 4902 H 449.192 5.39092 1.07983 0
M  V30 4903 H 450.417 6.64366 1.40694 0
M  V30 4904 H 448.363 5.61069 3.39908 0
M  V30 4905 H 448.28 7.11788 2.54744 0
M  V30 4906 H 449.548 6.8568 3.7076 0
M  V30 4907 N 453.777 0.010035 1.57597 0
M  V30 4908 C 455.005 -0.683413 1.95287 0
M  V30 4909 C 455.42 -1.66747 0.885481 0
M  V30 4910 O 454.777 -1.82003 -0.134629 0
M  V30 4911 C 454.828 -1.40652 3.33015 0
M  V30 4912 O 454.549 -0.461916 4.35658 0
M  V30 4913 C 456.05 -2.19356 3.85225 0
M  V30 4914 H 453.27 -0.189708 0.643624 0
M  V30 4915 H 455.814 0.0641359 2.04399 0
M  V30 4916 H 453.969 -2.10562 3.2518 0
M  V30 4917 H 454.383 -0.973215 5.15392 0
M  V30 4918 H 455.857 -2.65433 4.83993 0
M  V30 4919 H 456.334 -3.02457 3.18459 0
M  V30 4920 H 456.94 -1.54442 3.96267 0
M  V30 4921 N 455.255 -1.55392 -0.262866 0
M  V30 4922 C 456.501 -1.76737 -0.99458 0
M  V30 4923 C 456.834 -0.572453 -1.85571 0
M  V30 4924 O 456.109 0.429732 -1.89693 0
M  V30 4925 C 456.392 -3.07824 -1.8686 0
M  V30 4926 C 456.245 -4.3769 -1.03672 0
M  V30 4927 C 457.564 -3.35021 -2.85393 0
M  V30 4928 H 454.683 -0.643005 -0.360157 0
M  V30 4929 H 457.325 -1.88126 -0.266216 0
M  V30 4930 H 455.475 -2.98245 -2.48962 0
M  V30 4931 H 457.147 -4.59238 -0.43563 0
M  V30 4932 H 455.39 -4.32461 -0.340513 0
M  V30 4933 H 456.061 -5.25759 -1.6817 0
M  V30 4934 H 458.537 -3.44458 -2.33426 0
M  V30 4935 H 457.413 -4.27989 -3.43681 0
M  V30 4936 H 457.674 -2.55153 -3.61039 0
M  V30 4937 N 456.733 0.527833 -1.48498 0
M  V30 4938 C 458.144 1.10975 -1.50138 0
M  V30 4939 C 458.495 1.943 -0.272378 0
M  V30 4940 O 457.62 2.07319 0.620301 0
M  V30 4941 C 458.215 2.01927 -2.72049 0
M  V30 4942 C 456.774 2.55332 -2.76554 0
M  V30 4943 C 455.921 1.32341 -2.43683 0
M  V30 4944 H 458.872 0.312986 -1.55583 0
M  V30 4945 H 458.893 2.86244 -2.50689 0
M  V30 4946 H 458.405 1.41254 -3.61481 0
M  V30 4947 H 456.506 3.19721 -1.91336 0
M  V30 4948 H 456.619 2.94319 -3.78038 0
M  V30 4949 H 454.983 1.63989 -1.94884 0
M  V30 4950 H 455.766 0.734165 -3.35358 0
M  V30 4951 N 458.211 1.37122 0.776871 0
M  V30 4952 C 459.459 1.31787 1.53221 0
M  V30 4953 C 459.78 -0.0987589 1.9475 0
M  V30 4954 O 459.05 -1.0417 1.65908 0
M  V30 4955 H 457.63 0.484839 0.568278 0
M  V30 4956 H 460.292 1.71556 0.924917 0
M  V30 4957 H 459.388 1.95355 2.43398 0
M  V30 4958 N 459.689 -1.00246 1.21608 0
M  V30 4959 C 460.936 -1.74061 1.03485 0
M  V30 4960 C 461.264 -1.89658 -0.431308 0
M  V30 4961 O 460.519 -1.42976 -1.33627 0
M  V30 4962 C 460.818 -3.15448 1.68009 0
M  V30 4963 C 460.484 -3.19792 3.17874 0
M  V30 4964 C 459.146 -3.20685 3.58768 0
M  V30 4965 C 461.498 -3.16835 4.13842 0
M  V30 4966 C 458.826 -3.16309 4.94131 0
M  V30 4967 C 461.178 -3.14001 5.49169 0
M  V30 4968 C 459.842 -3.13204 5.89457 0
M  V30 4969 H 459.112 -0.636934 0.378677 0
M  V30 4970 H 461.759 -1.17473 1.51236 0
M  V30 4971 H 460.064 -3.75284 1.12557 0
M  V30 4972 H 461.761 -3.71285 1.51487 0
M  V30 4973 H 458.351 -3.19842 2.85305 0
M  V30 4974 H 462.535 -3.15303 3.83272 0
M  V30 4975 H 457.791 -3.14032 5.24589 0
M  V30 4976 H 461.965 -3.10667 6.23265 0
M  V30 4977 H 459.592 -3.09568 6.94314 0
M  V30 4978 N 461.167 -1.02423 -1.1978 0
M  V30 4979 C 462.114 -0.601023 -2.22837 0
M  V30 4980 C 463.084 0.382801 -1.61629 0
M  V30 4981 O 464.269 0.280514 -1.88727 0
M  V30 4982 C 461.409 0.0467755 -3.45068 0
M  V30 4983 C 460.522 -0.98253 -4.20678 0
M  V30 4984 C 459.657 -0.304982 -5.30324 0
M  V30 4985 C 458.696 -1.32052 -5.97686 0
M  V30 4986 N 457.833 -0.669105 -6.98904 0
M  V30 4987 H 462.673 -1.48444 -2.58396 0
M  V30 4988 H 460.21 -0.742936 -1.2696 0
M  V30 4989 H 462.168 0.439556 -4.14878 0
M  V30 4990 H 460.798 0.893796 -3.10179 0
M  V30 4991 H 459.85 -1.49341 -3.49859 0
M  V30 4992 H 461.162 -1.75455 -4.66923 0
M  V30 4993 H 460.316 0.142893 -6.06532 0
M  V30 4994 H 459.055 0.499283 -4.85138 0
M  V30 4995 H 458.06 -1.7787 -5.20233 0
M  V30 4996 H 459.285 -2.1262 -6.44957 0
M  V30 4997 H 457.231 0.115152 -6.55899 0
M  V30 4998 H 457.148 -1.37908 -7.43315 0
M  V30 4999 H 458.416 -0.245076 -7.79115 0
M  V30 5000 N 462.645 1.35699 -0.801477 0
M  V30 5001 C 463.575 2.32436 -0.222658 0
M  V30 5002 C 464.556 1.5723 0.649057 0
M  V30 5003 O 465.741 1.85324 0.580387 0
M  V30 5004 C 462.871 3.41469 0.633719 0
M  V30 5005 C 461.825 4.27774 -0.139083 0
M  V30 5006 C 461.151 5.28082 0.838666 0
M  V30 5007 C 462.451 5.04946 -1.33517 0
M  V30 5008 H 464.145 2.81094 -1.03086 0
M  V30 5009 H 461.691 1.35146 -0.497155 0
M  V30 5010 H 463.644 4.08143 1.04868 0
M  V30 5011 H 462.368 2.91408 1.47475 0
M  V30 5012 H 461.027 3.62673 -0.535156 0
M  V30 5013 H 460.675 4.7429 1.67506 0
M  V30 5014 H 460.375 5.86695 0.32594 0
M  V30 5015 H 461.899 5.97628 1.25194 0
M  V30 5016 H 463.313 5.64593 -0.995349 0
M  V30 5017 H 461.71 5.7303 -1.78202 0
M  V30 5018 H 462.78 4.35886 -2.12442 0
M  V30 5019 N 464.123 0.554532 1.47522 0
M  V30 5020 C 465.372 0.0273458 2.01681 0
M  V30 5021 C 465.685 -1.32962 1.43459 0
M  V30 5022 O 466.891 -1.94657 1.89265 0
M  V30 5023 C 465.347 -0.00159057 3.599 0
M  V30 5024 C 464.955 1.35197 4.27113 0
M  V30 5025 C 466.699 -0.476311 4.21819 0
M  V30 5026 C 464.606 1.28229 5.77331 0
M  V30 5027 H 463.536 0.00645269 0.753972 0
M  V30 5028 H 466.187 0.701985 1.69542 0
M  V30 5029 H 464.569 -0.741821 3.8899 0
M  V30 5030 H 465.743 2.1097 4.09668 0
M  V30 5031 H 464.058 1.76441 3.77171 0
M  V30 5032 H 466.655 -0.5468 5.31897 0
M  V30 5033 H 466.998 -1.4877 3.8881 0
M  V30 5034 H 467.531 0.20898 3.97251 0
M  V30 5035 H 464.27 2.26959 6.14955 0
M  V30 5036 H 463.79 0.566314 5.97121 0
M  V30 5037 H 465.469 0.983226 6.39485 0
M  V30 5038 N 465.601 -1.54893 0.290851 0
M  V30 5039 C 467.012 -1.85584 -0.203816 0
M  V30 5040 C 467.363 -1.21285 -1.54222 0
M  V30 5041 O 466.488 -0.506841 -2.10381 0
M  V30 5042 C 467.083 -3.367 -0.376595 0
M  V30 5043 C 465.642 -3.6746 -0.815485 0
M  V30 5044 C 464.789 -2.77178 0.0821087 0
M  V30 5045 H 467.74 -1.50208 0.512175 0
M  V30 5046 H 467.761 -3.60656 -1.21275 0
M  V30 5047 H 467.273 -3.8347 0.59767 0
M  V30 5048 H 465.374 -3.26201 -1.80066 0
M  V30 5049 H 465.487 -4.7478 -0.641905 0
M  V30 5050 H 463.851 -2.50925 -0.436895 0
M  V30 5051 H 464.634 -3.26767 1.05254 0
M  V30 5052 N 467.08 -0.0183926 -1.57589 0
M  V30 5053 C 468.329 0.66185 -1.90532 0
M  V30 5054 C 468.642 1.73904 -0.895366 0
M  V30 5055 O 469.848 2.47518 -1.11566 0
M  V30 5056 C 468.304 1.22844 -3.38286 0
M  V30 5057 C 467.912 0.185103 -4.47617 0
M  V30 5058 C 469.656 1.88581 -3.80312 0
M  V30 5059 C 467.563 0.762723 -5.86461 0
M  V30 5060 H 466.493 0.250972 -0.711006 0
M  V30 5061 H 469.144 -0.0819435 -1.83317 0
M  V30 5062 H 467.526 2.0235 -3.40398 0
M  V30 5063 H 468.7 -0.58671 -4.5705 0
M  V30 5064 H 467.015 -0.372889 -4.14727 0
M  V30 5065 H 469.612 2.32735 -4.81392 0
M  V30 5066 H 469.955 2.72408 -3.14801 0
M  V30 5067 H 470.488 1.15782 -3.80578 0
M  V30 5068 H 467.227 -0.0371713 -6.55489 0
M  V30 5069 H 466.747 1.50327 -5.80656 0
M  V30 5070 H 468.426 1.25576 -6.34697 0
M  V30 5071 N 468.558 1.5553 0.254621 0
M  V30 5072 C 469.521 1.88872 1.29846 0
M  V30 5073 C 470.521 0.764591 1.41459 0
M  V30 5074 O 471.711 1.03265 1.40293 0
M  V30 5075 C 468.843 2.11032 2.67728 0
M  V30 5076 H 470.036 2.82201 1.01502 0
M  V30 5077 H 467.589 1.48303 0.493556 0
M  V30 5078 H 468.324 1.20146 3.01223 0
M  V30 5079 H 468.109 2.92895 2.60682 0
M  V30 5080 H 469.599 2.38038 3.43115 0
M  V30 5081 N 470.036 -0.519951 1.48776 0
M  V30 5082 C 471.447 -1.10177 1.50725 0
M  V30 5083 C 471.798 -1.94153 0.282678 0
M  V30 5084 O 470.923 -2.07645 -0.609298 0
M  V30 5085 C 471.518 -2.00482 2.73116 0
M  V30 5086 C 470.077 -2.53862 2.77905 0
M  V30 5087 C 469.224 -1.31047 2.44381 0
M  V30 5088 H 472.175 -0.30473 1.55747 0
M  V30 5089 H 472.196 -2.8491 2.52203 0
M  V30 5090 H 471.708 -1.39335 3.62225 0
M  V30 5091 H 469.809 -3.18702 1.93029 0
M  V30 5092 H 469.922 -2.9231 3.79594 0
M  V30 5093 H 468.286 -1.62953 1.95751 0
M  V30 5094 H 469.069 -0.71637 3.35743 0
M  V30 5095 N 471.514 -1.37532 -0.769588 0
M  V30 5096 C 472.925 -1.29382 -1.346 0
M  V30 5097 C 473.276 0.0576039 -1.96115 0
M  V30 5098 O 472.401 0.95947 -1.93967 0
M  V30 5099 C 472.996 -2.34298 -2.44724 0
M  V30 5100 C 471.555 -2.29776 -2.98128 0
M  V30 5101 C 470.702 -2.18013 -1.71364 0
M  V30 5102 H 473.653 -1.48123 -0.56968 0
M  V30 5103 H 473.674 -1.99089 -3.24259 0
M  V30 5104 H 473.186 -3.32645 -1.99922 0
M  V30 5105 H 471.287 -1.34959 -3.47299 0
M  V30 5106 H 471.4 -3.23276 -3.53595 0
M  V30 5107 H 469.764 -1.64595 -1.94372 0
M  V30 5108 H 470.547 -3.18278 -1.28662 0
M  V30 5109 N 472.992 0.995999 -1.22138 0
M  V30 5110 C 474.22 1.77066 -1.07029 0
M  V30 5111 C 474.635 1.8495 0.379357 0
M  V30 5112 O 473.992 1.3174 1.26297 0
M  V30 5113 C 474.043 3.20533 -1.67155 0
M  V30 5114 O 473.764 3.13082 -3.06449 0
M  V30 5115 C 475.265 4.14461 -1.5728 0
M  V30 5116 H 472.485 0.556179 -0.375374 0
M  V30 5117 H 475.029 1.25238 -1.61666 0
M  V30 5118 H 473.184 3.6944 -1.16589 0
M  V30 5119 H 473.598 4.03283 -3.35355 0
M  V30 5120 H 475.072 5.1289 -2.04078 0
M  V30 5121 H 475.549 4.36005 -0.528795 0
M  V30 5122 H 476.155 3.71449 -2.07136 0
M  V30 5123 N 474.47 1.03057 1.19235 0
M  V30 5124 C 475.418 0.606391 2.24557 0
M  V30 5125 C 476.412 -0.361826 1.65491 0
M  V30 5126 O 477.618 -0.23022 1.78522 0
M  V30 5127 H 473.993 0.177838 0.730669 0
M  V30 5128 H 475.964 1.50529 2.5765 0
M  V30 5129 C 474.713 -0.0252127 3.47691 0
M  V30 5130 H 474.036 0.710838 3.9343 0
M  V30 5131 H 475.476 -0.284931 4.23042 0
M  V30 5132 C 473.935 -1.27229 3.11953 0
M  V30 5133 O 474.465 -2.36416 3.24762 0
M  V30 5134 N 472.671 -1.16169 2.6637 0
M  V30 5135 H 472.218 -0.273189 2.56147 0
M  V30 5136 H 472.176 -1.99703 2.42829 0
M  V30 5137 N 475.948 -1.35272 0.808662 0
M  V30 5138 C 477.173 -2.03477 0.401475 0
M  V30 5139 C 477.598 -1.60537 -0.980279 0
M  V30 5140 O 476.956 -0.78304 -1.63518 0
M  V30 5141 C 477.004 -3.57181 0.495354 0
M  V30 5142 O 476.108 -4.09474 -0.490397 0
M  V30 5143 H 475.449 -0.642561 0.167366 0
M  V30 5144 H 477.979 -1.72824 1.09512 0
M  V30 5145 H 477.989 -4.06356 0.365912 0
M  V30 5146 H 476.664 -3.87784 1.5032 0
M  V30 5147 H 475.241 -3.71516 -0.321023 0
M  V30 5148 N 477.426 -0.562348 -1.47226 0
M  V30 5149 C 478.373 0.182461 -2.30078 0
M  V30 5150 C 479.343 0.903503 -1.39377 0
M  V30 5151 O 480.528 0.898188 -1.68337 0
M  V30 5152 C 477.668 1.20322 -3.23445 0
M  V30 5153 C 476.781 0.487717 -4.29238 0
M  V30 5154 C 475.916 1.49422 -5.09752 0
M  V30 5155 C 474.955 0.763976 -6.07314 0
M  V30 5156 N 474.092 1.71755 -6.80768 0
M  V30 5157 H 478.932 -0.530169 -2.93246 0
M  V30 5158 H 476.469 -0.273276 -1.44539 0
M  V30 5159 H 478.427 1.80768 -3.76004 0
M  V30 5160 H 477.057 1.88382 -2.6213 0
M  V30 5161 H 476.109 -0.231374 -3.79696 0
M  V30 5162 H 477.421 -0.0841003 -4.98729 0
M  V30 5163 H 476.575 2.17206 -5.66486 0
M  V30 5164 H 475.314 2.09995 -4.40174 0
M  V30 5165 H 474.319 0.0722344 -5.49753 0
M  V30 5166 H 475.544 0.16391 -6.78902 0
M  V30 5167 H 473.49 2.31177 -6.13916 0
M  V30 5168 H 473.407 1.19802 -7.46447 0
M  V30 5169 H 474.675 2.38638 -7.42073 0
M  V30 5170 N 478.904 1.54736 -0.299062 0
M  V30 5171 C 480.152 1.99706 0.31017 0
M  V30 5172 C 480.473 1.18896 1.54559 0
M  V30 5173 O 479.743 0.284445 1.93824 0
M  V30 5174 H 478.323 0.737686 0.117596 0
M  V30 5175 H 480.985 1.9054 -0.409943 0
M  V30 5176 H 480.081 3.06596 0.58355 0
M  V30 5177 N 480.382 0.0267497 1.57577 0
M  V30 5178 C 481.314 -0.984594 2.06974 0
M  V30 5179 C 482.327 -1.29032 0.992705 0
M  V30 5180 O 483.516 -1.25539 1.26895 0
M  V30 5181 C 480.616 -2.31262 2.47732 0
M  V30 5182 C 479.789 -2.1924 3.78487 0
M  V30 5183 C 478.848 -3.34956 4.05821 0
M  V30 5184 O 477.874 -3.11948 4.76106 0
M  V30 5185 N 479.076 -4.58672 3.55809 0
M  V30 5186 H 481.841 -0.563143 2.94362 0
M  V30 5187 H 479.402 -0.160061 1.61107 0
M  V30 5188 H 481.394 -3.07496 2.63112 0
M  V30 5189 H 479.964 -2.65056 1.65723 0
M  V30 5190 H 479.184 -1.27747 3.72927 0
M  V30 5191 H 480.472 -2.08409 4.64158 0
M  V30 5192 H 479.87 -4.8026 2.98942 0
M  V30 5193 H 478.427 -5.32083 3.76472 0
M  V30 5194 N 481.861 -1.55662 -0.24637 0
M  V30 5195 C 483.277 -1.48098 -0.594907 0
M  V30 5196 C 483.477 -0.717044 -1.8831 0
M  V30 5197 O 482.533 -0.246618 -2.51293 0
M  V30 5198 C 483.846 -2.92507 -0.697146 0
M  V30 5199 C 485.394 -3.02881 -0.789436 0
M  V30 5200 C 485.869 -4.48598 -0.923232 0
M  V30 5201 N 487.36 -4.52538 -0.988088 0
M  V30 5202 C 488.095 -5.62536 -1.11089 0
M  V30 5203 N 487.591 -6.82342 -1.19919 0
M  V30 5204 N 489.384 -5.50334 -1.14408 0
M  V30 5205 H 481.535 -2.0377 0.599278 0
M  V30 5206 H 483.798 -0.925145 0.20691 0
M  V30 5207 H 483.504 -3.51242 0.179396 0
M  V30 5208 H 483.378 -3.43024 -1.5689 0
M  V30 5209 H 485.765 -2.44226 -1.65643 0
M  V30 5210 H 485.846 -2.55574 0.107482 0
M  V30 5211 H 485.49 -5.07864 -0.0607927 0
M  V30 5212 H 485.42 -4.93587 -1.8352 0
M  V30 5213 H 487.911 -3.66248 -0.931167 0
M  V30 5214 H 488.224 -7.61924 -1.29197 0
M  V30 5215 H 486.569 -6.85102 -1.16876 0
M  V30 5216 H 489.76 -4.5567 -1.07158 0
M  V30 5217 H 489.933 -6.36096 -1.23634 0
M  V30 5218 N 483.339 0.512053 -1.4905 0
M  V30 5219 C 484.585 1.26613 -1.59187 0
M  V30 5220 C 484.94 1.90494 -0.270163 0
M  V30 5221 O 484.233 1.77204 0.728648 0
M  V30 5222 C 484.427 2.36446 -2.68008 0
M  V30 5223 C 484.256 1.83334 -4.10632 0
M  V30 5224 C 483.026 1.65131 -4.77556 0
M  V30 5225 C 485.224 1.35153 -4.96224 0
M  V30 5226 N 483.206 1.06833 -6.04533 0
M  V30 5227 C 484.577 0.889186 -6.13591 0
M  V30 5228 C 486.632 1.23623 -4.82309 0
M  V30 5229 C 485.335 0.322953 -7.18575 0
M  V30 5230 C 487.361 0.683978 -5.87431 0
M  V30 5231 C 486.723 0.2318 -7.04018 0
M  V30 5232 H 482.822 0.453678 -0.636946 0
M  V30 5233 H 485.406 0.575217 -1.86009 0
M  V30 5234 H 483.577 3.03012 -2.42978 0
M  V30 5235 H 485.309 3.03485 -2.67729 0
M  V30 5236 H 482.064 1.89178 -4.34176 0
M  V30 5237 H 482.488 0.796425 -6.72299 0
M  V30 5238 H 487.13 1.57184 -3.92496 0
M  V30 5239 H 484.848 -0.024943 -8.08096 0
M  V30 5240 H 488.434 0.597694 -5.78722 0
M  V30 5241 H 487.314 -0.188869 -7.83973 0
M  V30 5242 N 484.817 1.37938 0.762283 0
M  V30 5243 C 485.727 1.36681 1.90671 0
M  V30 5244 C 486.743 0.265078 1.71969 0
M  V30 5245 O 487.919 0.502055 1.95042 0
M  V30 5246 C 484.984 1.18211 3.25925 0
M  V30 5247 C 484.045 2.3811 3.57214 0
M  V30 5248 C 483.278 2.20512 4.86014 0
M  V30 5249 O 483.501 1.19429 5.57757 0
M  V30 5250 O 482.435 3.08911 5.16583 0
M  V30 5251 H 486.261 2.33091 1.94685 0
M  V30 5252 H 483.846 1.18767 0.906356 0
M  V30 5253 H 485.728 1.09937 4.06807 0
M  V30 5254 H 484.403 0.248807 3.22742 0
M  V30 5255 H 483.31 2.51958 2.76529 0
M  V30 5256 H 484.643 3.30041 3.65149 0
M  V30 5257 N 486.295 -0.989507 1.22664 0
M  V30 5258 C 487.205 -2.11449 1.01619 0
M  V30 5259 C 488.221 -1.73962 -0.036545 0
M  V30 5260 O 489.397 -2.00788 0.156924 0
M  V30 5261 C 486.462 -3.41465 0.600204 0
M  V30 5262 C 485.523 -3.93033 1.72695 0
M  V30 5263 C 484.756 -5.16844 1.33071 0
M  V30 5264 O 484.979 -5.7001 0.210975 0
M  V30 5265 O 483.913 -5.6225 2.14845 0
M  V30 5266 H 487.739 -2.32088 1.9588 0
M  V30 5267 H 485.324 -1.09823 1.01289 0
M  V30 5268 H 487.206 -4.19695 0.37873 0
M  V30 5269 H 485.881 -3.22178 -0.313511 0
M  V30 5270 H 484.788 -3.15961 2.00298 0
M  V30 5271 H 486.121 -4.16758 2.61865 0
M  V30 5272 N 487.773 -1.03688 -1.18687 0
M  V30 5273 C 489.05 -0.652397 -1.84399 0
M  V30 5274 C 489.43 0.868386 -1.92412 0
M  V30 5275 O 488.778 1.76832 -1.44716 0
M  V30 5276 C 488.988 -1.3238 -3.22919 0
M  V30 5277 C 490.336 -1.45216 -3.98996 0
M  V30 5278 O 491.36 -1.2816 -3.32345 0
M  V30 5279 O 490.219 -1.72975 -5.18403 0
M  V30 5280 H 487.313 -0.227793 -0.795009 0
M  V30 5281 H 489.859 -1.13553 -1.2611 0
M  V30 5282 H 488.631 -2.36202 -3.11968 0
M  V30 5283 H 488.254 -0.829039 -3.88861 0
M  V30 5284 N 489.251 1.34841 -0.815825 0
M  V30 5285 C 490.476 2.03261 -0.41226 0
M  V30 5286 C 490.901 1.61055 0.971751 0
M  V30 5287 O 490.259 0.7917 1.63101 0
M  V30 5288 C 490.307 3.56914 -0.514289 0
M  V30 5289 O 489.411 4.09728 0.468675 0
M  V30 5290 H 488.752 0.641664 -0.170771 0
M  V30 5291 H 491.282 1.72241 -1.10427 0
M  V30 5292 H 491.292 4.06156 -0.387457 0
M  V30 5293 H 489.967 3.86982 -1.52375 0
M  V30 5294 H 488.544 3.71681 0.301316 0
M  V30 5295 N 490.729 0.570148 1.46925 0
M  V30 5296 C 492.145 0.23087 1.57921 0
M  V30 5297 C 492.345 -1.26676 1.56702 0
M  V30 5298 O 491.401 -2.04774 1.47729 0
M  V30 5299 C 492.714 0.868973 2.8787 0
M  V30 5300 C 494.262 0.841397 3.01479 0
M  V30 5301 C 494.737 1.45881 4.34146 0
M  V30 5302 N 496.228 1.42258 4.40814 0
M  V30 5303 C 496.963 1.8698 5.42057 0
M  V30 5304 N 496.459 2.39618 6.50042 0
M  V30 5305 N 498.252 1.77972 5.33181 0
M  V30 5306 H 490.403 1.54301 1.45962 0
M  V30 5307 H 492.666 0.644224 0.69547 0
M  V30 5308 H 492.372 1.922 2.94537 0
M  V30 5309 H 492.246 0.369682 3.75384 0
M  V30 5310 H 494.633 -0.202973 2.94401 0
M  V30 5311 H 494.714 1.37858 2.15474 0
M  V30 5312 H 494.358 2.50231 4.4198 0
M  V30 5313 H 494.288 0.896958 5.18905 0
M  V30 5314 H 496.779 1.03768 3.63374 0
M  V30 5315 H 497.092 2.71633 7.23488 0
M  V30 5316 H 495.437 2.43636 6.50897 0
M  V30 5317 H 498.628 1.36617 4.4772 0
M  V30 5318 H 498.801 2.13143 6.11943 0
M  V30 5319 N 492.207 -1.54576 0.307264 0
M  V30 5320 C 493.139 -2.21212 -0.599807 0
M  V30 5321 C 494.152 -1.20685 -1.09266 0
M  V30 5322 O 495.341 -1.47244 -1.00903 0
M  V30 5323 C 492.441 -2.84994 -1.83389 0
M  V30 5324 C 491.614 -4.11511 -1.48248 0
M  V30 5325 C 490.673 -4.59038 -2.57237 0
M  V30 5326 O 489.699 -5.24095 -2.22065 0
M  V30 5327 N 490.901 -4.31884 -3.87887 0
M  V30 5328 H 493.666 -2.99686 -0.0293075 0
M  V30 5329 H 491.227 -1.61379 0.129738 0
M  V30 5330 H 493.219 -3.1372 -2.5566 0
M  V30 5331 H 491.789 -2.10324 -2.31263 0
M  V30 5332 H 491.009 -3.89728 -0.592122 0
M  V30 5333 H 492.297 -4.93879 -1.22316 0
M  V30 5334 H 491.695 -3.79778 -4.19268 0
M  V30 5335 H 490.252 -4.65304 -4.56438 0
M  V30 5336 N 493.685 -0.035106 -1.57561 0
M  V30 5337 C 494.632 0.94474 -2.10578 0
M  V30 5338 C 495.602 1.3192 -1.00927 0
M  V30 5339 O 496.787 1.41147 -1.28382 0
M  V30 5340 C 493.927 2.21982 -2.64231 0
M  V30 5341 C 493.04 1.90128 -3.87911 0
M  V30 5342 C 492.175 3.11975 -4.29936 0
M  V30 5343 C 491.214 2.75968 -5.46359 0
M  V30 5344 N 490.351 3.90459 -5.83512 0
M  V30 5345 H 495.191 0.485717 -2.94015 0
M  V30 5346 H 492.728 0.228143 -1.4532 0
M  V30 5347 H 494.686 2.96572 -2.9343 0
M  V30 5348 H 493.316 2.6549 -1.83616 0
M  V30 5349 H 492.368 1.05755 -3.65404 0
M  V30 5350 H 493.68 1.59613 -4.72573 0
M  V30 5351 H 492.834 3.9488 -4.60603 0
M  V30 5352 H 491.573 3.45657 -3.44053 0
M  V30 5353 H 490.578 1.91478 -5.1538 0
M  V30 5354 H 491.803 2.43497 -6.33945 0
M  V30 5355 H 489.749 4.23971 -5.00584 0
M  V30 5356 H 489.666 3.63588 -6.62827 0
M  V30 5357 H 490.934 4.7405 -6.18787 0
M  V30 5358 N 495.163 1.55791 0.238111 0
M  V30 5359 C 496.409 1.78297 0.966337 0
M  V30 5360 C 496.742 0.601903 1.84637 0
M  V30 5361 O 496.017 -0.399499 1.90353 0
M  V30 5362 C 496.3 3.10758 1.81939 0
M  V30 5363 C 496.153 4.39283 0.966958 0
M  V30 5364 C 497.472 3.39519 2.80027 0
M  V30 5365 H 494.591 0.648654 0.349882 0
M  V30 5366 H 497.233 1.88525 0.236253 0
M  V30 5367 H 495.383 3.02168 2.44185 0
M  V30 5368 H 497.055 4.59873 0.362514 0
M  V30 5369 H 495.298 4.32948 0.271669 0
M  V30 5370 H 495.969 5.28368 1.59784 0
M  V30 5371 H 498.445 3.48128 2.27917 0
M  V30 5372 H 497.321 4.33402 3.36829 0
M  V30 5373 H 497.582 2.60864 3.56934 0
M  V30 5374 N 496.642 -0.504142 1.49319 0
M  V30 5375 C 498.058 -0.835039 1.36012 0
M  V30 5376 C 498.258 -1.97674 0.390808 0
M  V30 5377 O 497.314 -2.51867 -0.178655 0
M  V30 5378 C 498.627 -1.17821 2.76656 0
M  V30 5379 C 500.175 -1.2866 2.85334 0
M  V30 5380 C 500.65 -1.66307 4.26739 0
M  V30 5381 N 502.141 -1.73362 4.29534 0
M  V30 5382 C 502.876 -2.0393 5.35911 0
M  V30 5383 N 502.372 -2.32744 6.52535 0
M  V30 5384 N 504.165 -2.05155 5.23324 0
M  V30 5385 H 496.316 0.248764 2.10938 0
M  V30 5386 H 498.579 0.0486962 0.946748 0
M  V30 5387 H 498.285 -0.412682 3.4927 0
M  V30 5388 H 498.159 -2.12239 3.11825 0
M  V30 5389 H 500.546 -2.04285 2.1296 0
M  V30 5390 H 500.627 -0.323004 2.53752 0
M  V30 5391 H 500.271 -0.91234 4.99639 0
M  V30 5392 H 500.201 -2.63761 4.55782 0
M  V30 5393 H 502.692 -1.53268 3.45424 0
M  V30 5394 H 503.005 -2.55248 7.2943 0
M  V30 5395 H 501.35 -2.30207 6.55767 0
M  V30 5396 H 504.541 -1.82119 4.3122 0
M  V30 5397 H 504.714 -2.28644 6.06322 0
M  V30 5398 N 498.12 -1.38341 -0.754957 0
M  V30 5399 C 499.531 -1.30803 -1.3322 0
M  V30 5400 C 499.882 0.0368 -1.96165 0
M  V30 5401 O 499.007 0.938844 -1.94974 0
M  V30 5402 C 499.602 -2.3688 -2.42225 0
M  V30 5403 C 498.161 -2.32925 -2.95674 0
M  V30 5404 C 497.308 -2.19819 -1.69042 0
M  V30 5405 H 500.259 -1.48719 -0.553937 0
M  V30 5406 H 500.28 -2.02517 -3.22129 0
M  V30 5407 H 499.792 -3.34747 -1.96383 0
M  V30 5408 H 497.893 -1.38635 -3.45848 0
M  V30 5409 H 498.006 -3.27008 -3.50146 0
M  V30 5410 H 496.37 -1.66648 -1.92615 0
M  V30 5411 H 497.153 -3.19625 -1.25279 0
M  V30 5412 N 499.598 0.982988 -1.23187 0
M  V30 5413 C 500.875 1.69814 -0.970707 0
M  V30 5414 C 501.255 2.04811 0.511424 0
M  V30 5415 O 500.603 1.73924 1.48198 0
M  V30 5416 C 500.813 2.94143 -1.87831 0
M  V30 5417 C 502.161 3.66712 -2.14026 0
M  V30 5418 O 503.185 3.04171 -1.8536 0
M  V30 5419 O 502.044 4.79258 -2.62629 0
M  V30 5420 H 499.138 0.741659 -0.365884 0
M  V30 5421 H 501.684 1.03844 -1.34218 0
M  V30 5422 H 500.456 2.64858 -2.88038 0
M  V30 5423 H 500.079 3.6785 -1.50905 0
M  V30 5424 N 501.076 1.04316 1.18135 0
M  V30 5425 C 502.324 0.746542 1.87806 0
M  V30 5426 C 502.645 -0.728082 1.80898 0
M  V30 5427 O 501.915 -1.52554 1.22899 0
M  V30 5428 H 500.495 0.273157 0.695265 0
M  V30 5429 H 503.157 1.32044 1.43354 0
M  V30 5430 H 502.253 1.05362 2.93778 0
M  V30 5431 N 502.554 -1.34406 0.822964 0
M  V30 5432 C 503.8 -1.98999 0.420847 0
M  V30 5433 C 504.155 -1.64067 -1.00498 0
M  V30 5434 O 503.448 -0.902071 -1.69036 0
M  V30 5435 C 503.642 -3.52981 0.560268 0
M  V30 5436 C 503.471 -4.02873 1.99809 0
M  V30 5437 C 502.241 -4.31463 2.62998 0
M  V30 5438 C 504.439 -4.20241 2.96483 0
M  V30 5439 N 502.421 -4.6739 3.9802 0
M  V30 5440 C 503.792 -4.59348 4.16413 0
M  V30 5441 C 505.847 -4.02489 2.93098 0
M  V30 5442 C 504.55 -4.82559 5.33413 0
M  V30 5443 C 506.576 -4.26866 4.09315 0
M  V30 5444 C 505.938 -4.6626 5.27997 0
M  V30 5445 H 502.037 -0.755432 0.202104 0
M  V30 5446 H 504.621 -1.62815 1.06767 0
M  V30 5447 H 502.792 -3.88359 -0.0566596 0
M  V30 5448 H 504.524 -4.04487 0.131146 0
M  V30 5449 H 501.279 -4.22373 2.14238 0
M  V30 5450 H 501.703 -4.89588 4.67582 0
M  V30 5451 H 506.345 -3.71161 2.02483 0
M  V30 5452 H 504.063 -5.12754 6.24587 0
M  V30 5453 H 507.649 -4.14667 4.08096 0
M  V30 5454 H 506.529 -4.84752 6.16429 0
M  V30 5455 N 504.032 -0.577932 -1.46621 0
M  V30 5456 C 504.995 0.147805 -2.28723 0
M  V30 5457 C 505.995 0.823325 -1.38123 0
M  V30 5458 O 507.185 0.676011 -1.60548 0
M  V30 5459 C 504.317 1.21853 -3.18378 0
M  V30 5460 H 505.51 -0.573654 -2.94362 0
M  V30 5461 H 503.063 -0.335703 -1.52652 0
M  V30 5462 H 503.798 1.97173 -2.57475 0
M  V30 5463 H 503.583 0.738714 -3.85078 0
M  V30 5464 H 505.073 1.72768 -3.80186 0
M  V30 5465 N 505.51 1.54411 -0.315457 0
M  V30 5466 C 506.759 1.99599 0.290395 0
M  V30 5467 C 507.072 1.20746 1.53882 0
M  V30 5468 O 508.278 1.56272 2.22017 0
M  V30 5469 C 506.734 3.5539 0.56797 0
M  V30 5470 C 506.342 4.43068 -0.662945 0
M  V30 5471 C 508.086 4.09067 1.13422 0
M  V30 5472 C 505.993 5.90317 -0.357722 0
M  V30 5473 H 504.923 0.745592 0.112286 0
M  V30 5474 H 507.574 1.78477 -0.426418 0
M  V30 5475 H 505.956 3.72468 1.34476 0
M  V30 5476 H 507.13 4.37765 -1.43869 0
M  V30 5477 H 505.445 4.00238 -1.14884 0
M  V30 5478 H 508.042 5.16663 1.37707 0
M  V30 5479 H 508.385 3.60552 2.08106 0
M  V30 5480 H 508.918 3.95589 0.418805 0
M  V30 5481 H 505.657 6.4301 -1.27351 0
M  V30 5482 H 505.177 5.98592 0.380472 0
M  V30 5483 H 506.856 6.4699 0.0354284 0
M  V30 5484 N 506.988 0.0434614 1.5754 0
M  V30 5485 C 508.216 -0.641835 1.96693 0
M  V30 5486 C 508.631 -1.64832 0.920652 0
M  V30 5487 O 507.988 -1.82247 -0.095993 0
M  V30 5488 C 508.039 -1.33557 3.35924 0
M  V30 5489 O 507.76 -0.369403 4.3654 0
M  V30 5490 C 509.261 -2.11135 3.89791 0
M  V30 5491 H 506.481 -0.176013 0.647503 0
M  V30 5492 H 509.025 0.107478 2.04217 0
M  V30 5493 H 507.18 -2.03617 3.29574 0
M  V30 5494 H 507.594 -0.863674 5.1734 0
M  V30 5495 H 509.068 -2.55107 4.89514 0
M  V30 5496 H 509.545 -2.95634 3.24803 0
M  V30 5497 H 510.151 -1.46002 3.99454 0
M  V30 5498 N 508.466 -1.55915 -0.229846 0
M  V30 5499 C 509.712 -1.78807 -0.956868 0
M  V30 5500 C 510.045 -0.611687 -1.84315 0
M  V30 5501 O 509.32 0.389398 -1.90562 0
M  V30 5502 C 509.603 -3.11718 -1.80288 0
M  V30 5503 C 509.456 -4.3979 -0.943649 0
M  V30 5504 C 510.775 -3.40999 -2.78222 0
M  V30 5505 H 507.894 -0.6505 -0.346437 0
M  V30 5506 H 510.536 -1.88648 -0.226252 0
M  V30 5507 H 508.686 -3.03459 -2.42579 0
M  V30 5508 H 510.358 -4.60059 -0.338121 0
M  V30 5509 H 508.601 -4.33086 -0.248705 0
M  V30 5510 H 509.272 -5.29208 -1.5698 0
M  V30 5511 H 511.748 -3.49332 -2.26067 0
M  V30 5512 H 510.624 -4.35183 -3.34526 0
M  V30 5513 H 510.885 -2.62754 -3.55546 0
M  V30 5514 N 509.944 0.496216 -1.49584 0
M  V30 5515 C 510.891 1.59722 -1.66606 0
M  V30 5516 C 511.861 1.58158 -0.507477 0
M  V30 5517 O 513.046 1.76072 -0.735076 0
M  V30 5518 C 510.186 2.97844 -1.74308 0
M  V30 5519 C 509.299 3.09388 -3.01502 0
M  V30 5520 C 508.434 4.38271 -3.00153 0
M  V30 5521 C 507.473 4.43466 -4.21906 0
M  V30 5522 N 506.61 5.63784 -4.1844 0
M  V30 5523 H 511.45 1.44515 -2.60613 0
M  V30 5524 H 508.987 0.703048 -1.29212 0
M  V30 5525 H 510.945 3.77907 -1.76754 0
M  V30 5526 H 509.575 3.11743 -0.837619 0
M  V30 5527 H 508.627 2.22357 -3.08645 0
M  V30 5528 H 509.939 3.09085 -3.91494 0
M  V30 5529 H 509.093 5.2666 -3.01188 0
M  V30 5530 H 507.832 4.41146 -2.07947 0
M  V30 5531 H 506.837 3.53478 -4.21109 0
M  V30 5532 H 508.062 4.42303 -5.1531 0
M  V30 5533 H 506.008 5.67491 -3.29074 0
M  V30 5534 H 505.925 5.65118 -5.02173 0
M  V30 5535 H 507.193 6.54367 -4.23585 0
M  V30 5536 N 511.423 1.38739 0.74761 0
M  V30 5537 C 512.371 1.36573 1.88283 0
M  V30 5538 C 513.365 0.250712 1.67534 0
M  V30 5539 O 514.571 0.420073 1.7503 0
M  V30 5540 H 510.946 0.42619 0.619569 0
M  V30 5541 H 512.917 2.32356 1.87226 0
M  V30 5542 C 511.666 1.21361 3.25832 0
M  V30 5543 H 510.989 2.06424 3.42388 0
M  V30 5544 H 512.429 1.23901 4.05493 0
M  V30 5545 C 510.888 -0.0790099 3.36807 0
M  V30 5546 O 511.418 -1.05385 3.8763 0
M  V30 5547 N 509.624 -0.13785 2.90273 0
M  V30 5548 H 509.171 0.656128 2.49104 0
M  V30 5549 H 509.129 -1.00228 2.97996 0
M  V30 5550 N 512.901 -0.976442 1.23707 0
M  V30 5551 C 513.848 -2.06952 1.02174 0
M  V30 5552 C 514.818 -1.65984 -0.0621034 0
M  V30 5553 O 516.003 -1.90584 0.0907906 0
M  V30 5554 C 513.143 -3.39425 0.62327 0
M  V30 5555 C 512.256 -3.9364 1.77966 0
M  V30 5556 C 511.391 -5.14343 1.3276 0
M  V30 5557 C 510.43 -5.60733 2.45449 0
M  V30 5558 N 509.567 -6.72662 2.01172 0
M  V30 5559 H 514.407 -2.24704 1.95734 0
M  V30 5560 H 511.944 -1.10143 0.975034 0
M  V30 5561 H 513.902 -4.15526 0.37332 0
M  V30 5562 H 512.532 -3.21624 -0.275329 0
M  V30 5563 H 511.584 -3.14258 2.14351 0
M  V30 5564 H 512.896 -4.24035 2.62671 0
M  V30 5565 H 512.05 -5.97789 1.03601 0
M  V30 5566 H 510.789 -4.8561 0.450975 0
M  V30 5567 H 509.794 -4.75865 2.75378 0
M  V30 5568 H 511.019 -5.91483 3.33654 0
M  V30 5569 H 508.965 -6.45681 1.15895 0
M  V30 5570 H 508.882 -7.02462 2.79434 0
M  V30 5571 H 510.15 -7.59572 1.75129 0
M  V30 5572 N 514.379 -1.04941 -1.1758 0
M  V30 5573 C 515.327 -0.64204 -2.23563 0
M  V30 5574 C 516.321 0.335453 -1.66045 0
M  V30 5575 O 517.527 0.20179 -1.78865 0
M  V30 5576 H 513.902 -0.18944 -0.727748 0
M  V30 5577 H 515.873 -1.54609 -2.55223 0
M  V30 5578 C 514.622 -0.0301051 -3.47687 0
M  V30 5579 H 513.945 -0.773339 -3.92249 0
M  V30 5580 H 515.385 0.217592 -4.23441 0
M  V30 5581 C 513.844 1.2225 -3.13937 0
M  V30 5582 O 514.374 2.3122 -3.28482 0
M  V30 5583 N 512.58 1.11917 -2.68185 0
M  V30 5584 H 512.127 0.232403 -2.5655 0
M  V30 5585 H 512.085 1.95814 -2.45976 0
M  V30 5586 N 515.857 1.33968 -0.830081 0
M  V30 5587 C 517.268 1.80439 -0.479455 0
M  V30 5588 C 517.619 1.68756 1.00079 0
M  V30 5589 O 516.744 1.23171 1.77927 0
M  V30 5590 C 517.339 3.27611 -0.863505 0
M  V30 5591 C 515.898 3.72133 -0.565145 0
M  V30 5592 C 515.045 2.55549 -1.07657 0
M  V30 5593 H 517.996 1.21614 -1.0196 0
M  V30 5594 H 518.017 3.8012 -0.170083 0
M  V30 5595 H 517.529 3.36082 -1.94089 0
M  V30 5596 H 515.63 3.69196 0.502536 0
M  V30 5597 H 515.743 4.65963 -1.11422 0
M  V30 5598 H 514.107 2.49788 -0.497807 0
M  V30 5599 H 514.89 2.66786 -2.16055 0
M  V30 5600 N 517.335 0.585699 1.46312 0
M  V30 5601 C 518.581 0.0725284 2.0267 0
M  V30 5602 C 518.914 -1.28523 1.45586 0
M  V30 5603 O 518.189 -1.84283 0.622101 0
M  V30 5604 C 518.472 0.0099788 3.60099 0
M  V30 5605 C 518.325 1.39685 4.27561 0
M  V30 5606 C 519.644 -0.689117 4.34671 0
M  V30 5607 H 516.763 0.0278307 0.736474 0
M  V30 5608 H 519.405 0.753472 1.74421 0
M  V30 5609 H 517.555 -0.56992 3.84297 0
M  V30 5610 H 519.227 2.02215 4.14617 0
M  V30 5611 H 517.47 1.96374 3.86807 0
M  V30 5612 H 518.141 1.30553 5.36339 0
M  V30 5613 H 520.617 -0.196446 4.15636 0
M  V30 5614 H 519.493 -0.701921 5.44393 0
M  V30 5615 H 519.754 -1.75101 4.05946 0
M  V30 5616 N 518.813 -1.54241 0.323641 0
M  V30 5617 C 519.723 -2.28033 -0.551205 0
M  V30 5618 C 520.739 -1.32388 -1.12913 0
M  V30 5619 O 521.915 -1.65403 -1.14908 0
M  V30 5620 C 518.98 -3.02382 -1.69606 0
M  V30 5621 C 518.041 -4.13612 -1.14993 0
M  V30 5622 C 517.274 -4.84407 -2.24022 0
M  V30 5623 O 517.497 -4.54716 -3.44368 0
M  V30 5624 O 516.431 -5.71312 -1.89436 0
M  V30 5625 H 520.257 -3.03662 0.048066 0
M  V30 5626 H 517.842 -1.49133 0.0893289 0
M  V30 5627 H 519.724 -3.48941 -2.36259 0
M  V30 5628 H 518.399 -2.29628 -2.28151 0
M  V30 5629 H 517.306 -3.71402 -0.448484 0
M  V30 5630 H 518.639 -4.8841 -0.609608 0
M  V30 5631 N 520.291 -0.0518155 -1.57515 0
M  V30 5632 C 521.519 0.631395 -1.9703 0
M  V30 5633 C 521.934 1.64341 -0.92938 0
M  V30 5634 O 521.291 1.82296 0.0863266 0
M  V30 5635 C 521.342 1.31774 -3.36627 0
M  V30 5636 O 521.063 0.346247 -4.3673 0
M  V30 5637 C 522.564 2.09065 -3.90905 0
M  V30 5638 H 519.784 0.172576 -0.648428 0
M  V30 5639 H 522.328 -0.118306 -2.04158 0
M  V30 5640 H 520.483 2.01867 -3.30649 0
M  V30 5641 H 520.897 0.836226 -5.17791 0
M  V30 5642 H 522.371 2.52508 -4.9086 0
M  V30 5643 H 522.848 2.93908 -3.26366 0
M  V30 5644 H 523.454 1.43882 -4.00223 0
M  V30 5645 N 521.769 1.56035 0.221574 0
M  V30 5646 C 523.018 1.78245 0.944016 0
M  V30 5647 C 523.331 0.620371 1.85501 0
M  V30 5648 O 524.537 0.726103 2.6161 0
M  V30 5649 C 522.993 3.15659 1.7288 0
M  V30 5650 C 522.601 4.39591 0.863942 0
M  V30 5651 C 524.345 3.47195 2.44246 0
M  V30 5652 C 522.252 5.6803 1.64607 0
M  V30 5653 H 521.182 0.664547 0.356222 0
M  V30 5654 H 523.833 1.8243 0.197904 0
M  V30 5655 H 522.215 3.0565 2.51781 0
M  V30 5656 H 523.389 4.60655 0.115464 0
M  V30 5657 H 521.704 4.15572 0.262407 0
M  V30 5658 H 524.301 4.40381 3.03263 0
M  V30 5659 H 524.644 2.69693 3.1713 0
M  V30 5660 H 525.177 3.58533 1.72334 0
M  V30 5661 H 521.916 6.48425 0.960507 0
M  V30 5662 H 521.436 5.51027 2.36917 0
M  V30 5663 H 523.115 6.08203 2.20675 0
M  V30 5664 N 523.247 -0.488276 1.49845 0
M  V30 5665 C 524.194 -1.58836 1.67451 0
M  V30 5666 C 525.164 -1.57886 0.515857 0
M  V30 5667 O 526.349 -1.75679 0.744403 0
M  V30 5668 C 523.489 -2.96915 1.75885 0
M  V30 5669 C 522.602 -3.07784 3.03138 0
M  V30 5670 C 521.737 -4.36673 3.02473 0
M  V30 5671 C 520.776 -4.41222 4.24252 0
M  V30 5672 N 519.913 -5.61557 4.21424 0
M  V30 5673 H 524.753 -1.43131 2.61376 0
M  V30 5674 H 522.29 -0.696186 1.29583 0
M  V30 5675 H 524.248 -3.76965 1.78755 0
M  V30 5676 H 522.878 -3.11295 0.85414 0
M  V30 5677 H 521.93 -2.20717 3.09819 0
M  V30 5678 H 523.242 -3.07005 3.93128 0
M  V30 5679 H 522.396 -5.25055 3.03977 0
M  V30 5680 H 521.135 -4.40037 2.10283 0
M  V30 5681 H 520.14 -3.5124 4.22978 0
M  V30 5682 H 521.365 -4.39564 5.17649 0
M  V30 5683 H 519.311 -5.65738 3.32078 0
M  V30 5684 H 519.228 -5.62447 5.05163 0
M  V30 5685 H 520.496 -6.52111 4.2705 0
M  V30 5686 N 524.725 -1.39134 -0.740242 0
M  V30 5687 C 525.972 -1.36071 -1.49969 0
M  V30 5688 C 526.3 0.0450245 -1.94448 0
M  V30 5689 O 525.555 1.02482 -1.66721 0
M  V30 5690 C 525.854 -2.27457 -2.75678 0
M  V30 5691 C 525.52 -3.75185 -2.50094 0
M  V30 5692 C 524.182 -4.15439 -2.42825 0
M  V30 5693 C 526.534 -4.68643 -2.28086 0
M  V30 5694 C 523.862 -5.4722 -2.11584 0
M  V30 5695 C 526.214 -6.00695 -1.98363 0
M  V30 5696 C 524.878 -6.40018 -1.8956 0
M  V30 5697 H 524.148 -0.497921 -0.548777 0
M  V30 5698 H 526.795 -1.71599 -0.85007 0
M  V30 5699 H 525.1 -1.8503 -3.45356 0
M  V30 5700 H 526.797 -2.22384 -3.33686 0
M  V30 5701 H 523.387 -3.43279 -2.56627 0
M  V30 5702 H 527.571 -4.3838 -2.32672 0
M  V30 5703 H 522.827 -5.76615 -2.03287 0
M  V30 5704 H 527.001 -6.72644 -1.80341 0
M  V30 5705 H 524.628 -7.42051 -1.65117 0
M  V30 5706 N 526.204 0.969867 -1.24223 0
M  V30 5707 C 527.451 1.71256 -1.08063 0
M  V30 5708 C 527.779 1.90734 0.380872 0
M  V30 5709 O 527.034 1.46469 1.29789 0
M  V30 5710 C 527.333 3.10883 -1.76314 0
M  V30 5711 C 526.999 3.11252 -3.26241 0
M  V30 5712 C 525.661 3.1106 -3.67144 0
M  V30 5713 C 528.013 3.05751 -4.22097 0
M  V30 5714 C 525.341 3.03097 -5.02344 0
M  V30 5715 C 527.693 2.9933 -5.57301 0
M  V30 5716 C 526.357 2.97466 -5.97554 0
M  V30 5717 H 525.627 0.62667 -0.395431 0
M  V30 5718 H 528.274 1.13422 -1.54297 0
M  V30 5719 H 526.579 3.72168 -1.22468 0
M  V30 5720 H 528.276 3.67138 -1.61277 0
M  V30 5721 H 524.866 3.12165 -2.93685 0
M  V30 5722 H 529.05 3.05031 -3.91497 0
M  V30 5723 H 524.306 3.00013 -5.32731 0
M  V30 5724 H 528.48 2.94033 -6.31283 0
M  V30 5725 H 526.107 2.91051 -7.02277 0
M  V30 5726 N 527.682 1.05563 1.17022 0
M  V30 5727 C 528.959 0.68165 1.83338 0
M  V30 5728 C 529.339 -0.837665 1.93769 0
M  V30 5729 O 528.687 -1.74507 1.47511 0
M  V30 5730 C 528.897 1.375 3.20772 0
M  V30 5731 C 530.245 1.51545 3.96635 0
M  V30 5732 O 531.269 1.33431 3.30264 0
M  V30 5733 O 530.128 1.812 5.15586 0
M  V30 5734 H 527.222 0.240412 0.791285 0
M  V30 5735 H 529.768 1.15545 1.24288 0
M  V30 5736 H 528.54 2.41135 3.08171 0
M  V30 5737 H 528.163 0.890798 3.87493 0
M  V30 5738 N 529.16 -1.33526 0.837174 0
M  V30 5739 C 530.407 -1.97837 0.432064 0
M  V30 5740 C 530.735 -1.66324 -1.00829 0
M  V30 5741 O 529.99 -0.93448 -1.71948 0
M  V30 5742 C 530.289 -3.52367 0.597675 0
M  V30 5743 C 529.955 -4.03826 2.00587 0
M  V30 5744 C 528.617 -4.1759 2.39106 0
M  V30 5745 C 530.969 -4.31333 2.92576 0
M  V30 5746 C 528.297 -4.56195 3.68921 0
M  V30 5747 C 530.649 -4.7139 4.2187 0
M  V30 5748 C 529.313 -4.8336 4.60347 0
M  V30 5749 H 528.583 -0.723937 0.158104 0
M  V30 5750 H 531.23 -1.5923 1.06387 0
M  V30 5751 H 529.535 -3.91624 -0.117452 0
M  V30 5752 H 531.232 -4.00126 0.26454 0
M  V30 5753 H 527.822 -3.93586 1.69671 0
M  V30 5754 H 532.006 -4.20224 2.64056 0
M  V30 5755 H 527.262 -4.63655 3.9854 0
M  V30 5756 H 531.436 -4.91631 4.93226 0
M  V30 5757 H 529.063 -5.1303 5.60985 0
M  V30 5758 N 530.638 -0.59345 -1.46 0
M  V30 5759 C 531.868 -0.0889642 -2.06408 0
M  V30 5760 C 532.276 1.22597 -1.44106 0
M  V30 5761 O 531.619 1.75448 -0.544398 0
M  V30 5762 C 531.681 0.139902 -3.59228 0
M  V30 5763 C 531.345 -1.09107 -4.43784 0
M  V30 5764 C 532.342 -2.00577 -4.79651 0
M  V30 5765 C 530.027 -1.31593 -4.84756 0
M  V30 5766 C 532.021 -3.12873 -5.55328 0
M  V30 5767 C 529.708 -2.44192 -5.60191 0
M  V30 5768 C 530.706 -3.34661 -5.95392 0
M  V30 5769 O 530.394 -4.45302 -6.69299 0
M  V30 5770 H 530.126 -0.0594613 -0.67338 0
M  V30 5771 H 532.68 -0.817 -1.88452 0
M  V30 5772 H 530.91 0.922672 -3.75531 0
M  V30 5773 H 532.599 0.594228 -4.01527 0
M  V30 5774 H 533.365 -1.84425 -4.48567 0
M  V30 5775 H 529.244 -0.620801 -4.56801 0
M  V30 5776 H 532.788 -3.83511 -5.82722 0
M  V30 5777 H 528.685 -2.60303 -5.90688 0
M  V30 5778 H 529.453 -4.43805 -6.87735 0
M  V30 5779 N 532.116 1.54067 -0.331816 0
M  V30 5780 C 533.363 2.00715 0.268269 0
M  V30 5781 C 533.691 1.21986 1.51491 0
M  V30 5782 O 532.946 0.292309 1.93505 0
M  V30 5783 C 533.245 3.51634 0.639392 0
M  V30 5784 C 532.911 4.48018 -0.509019 0
M  V30 5785 C 531.573 4.74089 -0.824209 0
M  V30 5786 C 533.925 5.05237 -1.28003 0
M  V30 5787 C 531.253 5.54637 -1.91298 0
M  V30 5788 C 533.605 5.86972 -2.35895 0
M  V30 5789 C 532.269 6.11342 -2.67987 0
M  V30 5790 H 531.539 0.734469 0.0981667 0
M  V30 5791 H 534.186 1.8596 -0.457304 0
M  V30 5792 H 532.491 3.6416 1.44551 0
M  V30 5793 H 534.188 3.85175 1.11539 0
M  V30 5794 H 530.778 4.27851 -0.253287 0
M  V30 5795 H 534.962 4.8507 -1.04978 0
M  V30 5796 H 530.218 5.71747 -2.16599 0
M  V30 5797 H 534.392 6.30327 -2.96076 0
M  V30 5798 H 532.019 6.73544 -3.5248 0
M  V30 5799 N 533.594 0.0601682 1.57485 0
M  V30 5800 C 534.819 -0.624416 1.97777 0
M  V30 5801 C 535.244 -1.63051 0.937867 0
M  V30 5802 O 534.602 -1.81036 -0.0978845 0
M  V30 5803 C 534.65 -1.27979 3.37126 0
M  V30 5804 O 533.754 -2.39556 3.35688 0
M  V30 5805 H 533.095 -0.161581 0.64404 0
M  V30 5806 H 535.625 0.131237 2.04179 0
M  V30 5807 H 535.635 -1.62937 3.74053 0
M  V30 5808 H 534.31 -0.542501 4.12347 0
M  V30 5809 H 532.887 -2.06478 3.10517 0
M  V30 5810 N 535.072 -1.5615 -0.213296 0
M  V30 5811 C 536.488 -1.49327 -0.56336 0
M  V30 5812 C 536.688 -0.756826 -1.86747 0
M  V30 5813 O 535.744 -0.299866 -2.50713 0
M  V30 5814 C 537.057 -2.9392 -0.634944 0
M  V30 5815 C 538.605 -3.04487 -0.725013 0
M  V30 5816 C 539.08 -4.50456 -0.82787 0
M  V30 5817 N 540.571 -4.54533 -0.891876 0
M  V30 5818 C 541.306 -5.64766 -0.991315 0
M  V30 5819 N 540.802 -6.84733 -1.05419 0
M  V30 5820 N 542.595 -5.52637 -1.02709 0
M  V30 5821 H 534.746 -2.02453 0.642366 0
M  V30 5822 H 537.009 -0.920548 0.226487 0
M  V30 5823 H 536.715 -3.50783 0.253859 0
M  V30 5824 H 536.589 -3.46274 -1.49579 0
M  V30 5825 H 538.976 -2.47685 -1.60425 0
M  V30 5826 H 539.057 -2.55289 0.161669 0
M  V30 5827 H 538.701 -5.07878 0.0469464 0
M  V30 5828 H 538.631 -4.97369 -1.73009 0
M  V30 5829 H 541.122 -3.68141 -0.85327 0
M  V30 5830 H 541.435 -7.64493 -1.13007 0
M  V30 5831 H 539.78 -6.87427 -1.02318 0
M  V30 5832 H 542.971 -4.5784 -0.974687 0
M  V30 5833 H 543.144 -6.38576 -1.10113 0
M  V30 5834 N 536.55 0.480323 -1.50102 0
M  V30 5835 C 537.961 1.06142 -1.53593 0
M  V30 5836 C 538.312 1.93335 -0.334055 0
M  V30 5837 O 537.437 2.09188 0.55403 0
M  V30 5838 C 538.032 1.9317 -2.78336 0
M  V30 5839 C 536.591 2.46405 -2.84538 0
M  V30 5840 C 535.738 1.24521 -2.4777 0
M  V30 5841 H 538.689 0.26333 -1.565 0
M  V30 5842 H 538.71 2.78123 -2.59669 0
M  V30 5843 H 538.222 1.29683 -3.65792 0
M  V30 5844 H 536.323 3.13472 -2.01411 0
M  V30 5845 H 536.436 2.82143 -3.87211 0
M  V30 5846 H 534.8 1.57706 -2.00003 0
M  V30 5847 H 535.583 0.627102 -3.37524 0
M  V30 5848 N 538.028 1.39524 0.732853 0
M  V30 5849 C 539.276 1.36594 1.48951 0
M  V30 5850 C 539.597 -0.0367507 1.94965 0
M  V30 5851 O 538.867 -0.988391 1.69138 0
M  V30 5852 H 537.447 0.502673 0.552566 0
M  V30 5853 H 540.109 1.74411 0.869869 0
M  V30 5854 H 539.205 2.03 2.3706 0
M  V30 5855 N 539.506 -0.963266 1.24736 0
M  V30 5856 C 540.922 -1.23273 1.01371 0
M  V30 5857 C 541.122 -1.99618 -0.274776 0
M  V30 5858 O 540.178 -2.32293 -0.989769 0
M  V30 5859 C 541.491 -2.01554 2.23152 0
M  V30 5860 C 543.039 -2.14629 2.27823 0
M  V30 5861 C 543.514 -2.96307 3.49237 0
M  V30 5862 N 545.005 -3.03887 3.49581 0
M  V30 5863 C 545.74 -3.67456 4.40186 0
M  V30 5864 N 545.236 -4.32706 5.41052 0
M  V30 5865 N 547.029 -3.64511 4.27888 0
M  V30 5866 H 539.18 -0.452294 2.07528 0
M  V30 5867 H 541.443 -0.262521 0.910926 0
M  V30 5868 H 541.149 -1.52847 3.1675 0
M  V30 5869 H 541.023 -3.02278 2.25628 0
M  V30 5870 H 543.41 -2.62537 1.34753 0
M  V30 5871 H 543.491 -1.13238 2.2937 0
M  V30 5872 H 543.135 -2.49091 4.42624 0
M  V30 5873 H 543.065 -3.97905 3.44933 0
M  V30 5874 H 545.556 -2.57477 2.76611 0
M  V30 5875 H 545.869 -4.79042 6.06415 0
M  V30 5876 H 544.214 -4.31361 5.44934 0
M  V30 5877 H 547.405 -3.12715 3.4832 0
M  V30 5878 H 547.578 -4.13768 4.98698 0
M  V30 5879 N 540.985 -1.06182 -1.16461 0
M  V30 5880 C 542.262 -0.691364 -1.82974 0
M  V30 5881 C 542.642 0.827377 -1.9421 0
M  V30 5882 O 541.99 1.73723 -1.48434 0
M  V30 5883 C 542.2 -1.39199 -3.20038 0
M  V30 5884 C 543.548 -1.53647 -3.95825 0
M  V30 5885 O 544.572 -1.35181 -3.29552 0
M  V30 5886 O 543.431 -1.83932 -5.14618 0
M  V30 5887 H 540.525 -0.244605 -0.789998 0
M  V30 5888 H 543.071 -1.16203 -1.23673 0
M  V30 5889 H 541.843 -2.42766 -3.06888 0
M  V30 5890 H 541.466 -0.911335 -3.87015 0
M  V30 5891 N 542.463 1.3308 -0.844243 0
M  V30 5892 C 543.712 1.96868 -0.438833 0
M  V30 5893 C 544.025 1.67599 1.00846 0
M  V30 5894 O 545.231 2.25043 1.51881 0
M  V30 5895 C 543.687 3.5234 -0.73377 0
M  V30 5896 C 543.295 3.90481 -2.1961 0
M  V30 5897 C 545.039 4.22653 -0.395574 0
M  V30 5898 C 542.946 5.38954 -2.43481 0
M  V30 5899 H 541.876 0.736749 -0.160364 0
M  V30 5900 H 544.527 1.51623 -1.03358 0
M  V30 5901 H 542.909 3.95941 -0.068589 0
M  V30 5902 H 544.083 3.57922 -2.90221 0
M  V30 5903 H 542.398 3.33165 -2.4978 0
M  V30 5904 H 544.995 5.31848 -0.551477 0
M  V30 5905 H 545.338 4.11004 0.661921 0
M  V30 5906 H 545.871 3.84601 -1.01621 0
M  V30 5907 H 542.61 5.55612 -3.47816 0
M  V30 5908 H 542.13 5.72954 -1.77437 0
M  V30 5909 H 543.809 6.05907 -2.26905 0
M  V30 5910 N 543.941 0.601185 1.45683 0
M  V30 5911 C 545.166 0.0982245 2.07167 0
M  V30 5912 C 545.591 -1.20546 1.44396 0
M  V30 5913 O 544.949 -1.73247 0.534347 0
M  V30 5914 C 544.997 -0.0346976 3.60583 0
M  V30 5915 O 544.101 -1.08657 3.97828 0
M  V30 5916 H 543.442 0.0711618 0.660176 0
M  V30 5917 H 545.972 0.829376 1.87036 0
M  V30 5918 H 545.982 -0.234969 4.07323 0
M  V30 5919 H 544.657 0.917265 4.05659 0
M  V30 5920 H 543.234 -0.863275 3.6277 0
M  V30 5921 N 545.419 -1.53889 0.339982 0
M  V30 5922 C 546.367 -2.26391 -0.533822 0
M  V30 5923 C 547.361 -1.28404 -1.10493 0
M  V30 5924 O 548.567 -1.46124 -1.05108 0
M  V30 5925 H 544.942 -0.727385 -0.190828 0
M  V30 5926 H 546.913 -2.98233 0.0997484 0
M  V30 5927 C 545.662 -3.04707 -1.67479 0
M  V30 5928 H 544.985 -3.79934 -1.2446 0
M  V30 5929 H 546.425 -3.58657 -2.26144 0
M  V30 5930 C 544.884 -2.13989 -2.60212 0
M  V30 5931 O 545.414 -1.73361 -3.62366 0
M  V30 5932 N 543.62 -1.79141 -2.28816 0
M  V30 5933 H 543.167 -2.12378 -1.45785 0
M  V30 5934 H 543.125 -1.18725 -2.91121 0
M  V30 5935 N 546.897 -0.0685191 -1.57451 0
M  V30 5936 C 548.144 0.601348 -1.93365 0
M  V30 5937 C 548.472 1.69816 -0.948294 0
M  V30 5938 O 547.727 1.95666 0.0366199 0
M  V30 5939 C 548.026 1.22051 -3.35914 0
M  V30 5940 C 547.692 0.250165 -4.50205 0
M  V30 5941 C 546.354 -0.0167954 -4.81197 0
M  V30 5942 C 548.706 -0.413867 -5.19554 0
M  V30 5943 C 546.034 -0.95493 -5.78876 0
M  V30 5944 C 548.386 -1.3403 -6.18238 0
M  V30 5945 C 547.05 -1.61576 -6.47649 0
M  V30 5946 H 546.32 0.220049 -0.707573 0
M  V30 5947 H 548.967 -0.138697 -1.90997 0
M  V30 5948 H 547.272 2.03622 -3.34732 0
M  V30 5949 H 548.969 1.74605 -3.6099 0
M  V30 5950 H 545.559 0.468421 -4.26033 0
M  V30 5951 H 549.743 -0.220733 -4.95809 0
M  V30 5952 H 544.999 -1.17563 -5.99991 0
M  V30 5953 H 549.173 -1.86081 -6.71079 0
M  V30 5954 H 546.8 -2.34431 -7.2315 0
M  V30 5955 N 548.375 1.56261 0.205012 0
M  V30 5956 C 549.623 1.79684 0.925096 0
M  V30 5957 C 549.944 0.63989 1.84202 0
M  V30 5958 O 549.214 -0.342345 1.92885 0
M  V30 5959 H 547.794 0.662774 0.344587 0
M  V30 5960 H 550.456 1.93734 0.212899 0
M  V30 5961 H 549.552 2.72467 1.52211 0
M  V30 5962 N 549.853 -0.472356 1.50355 0
M  V30 5963 C 551.099 -1.22634 1.6152 0
M  V30 5964 C 551.432 -1.91645 0.313995 0
M  V30 5965 O 550.707 -1.82059 -0.684446 0
M  V30 5966 C 550.99 -2.27099 2.7946 0
M  V30 5967 C 550.843 -1.62402 4.19459 0
M  V30 5968 C 552.162 -3.28421 2.92964 0
M  V30 5969 H 549.281 -0.444494 0.587873 0
M  V30 5970 H 551.923 -0.520321 1.82737 0
M  V30 5971 H 550.073 -2.87314 2.61501 0
M  V30 5972 H 551.745 -1.05793 4.49005 0
M  V30 5973 H 549.988 -0.927184 4.23776 0
M  V30 5974 H 550.659 -2.38309 4.97909 0
M  V30 5975 H 553.135 -2.78227 3.09401 0
M  V30 5976 H 552.011 -3.98845 3.77113 0
M  V30 5977 H 552.272 -3.92467 2.03525 0
M  V30 5978 N 551.331 -1.39911 -0.725443 0
M  V30 5979 C 552.742 -1.33599 -1.30415 0
M  V30 5980 C 553.093 -0.00481792 -1.96199 0
M  V30 5981 O 552.218 0.897275 -1.96921 0
M  V30 5982 C 552.813 -2.41965 -2.37146 0
M  V30 5983 C 551.372 -2.39144 -2.90667 0
M  V30 5984 C 550.519 -2.23355 -1.64341 0
M  V30 5985 H 553.47 -1.4986 -0.522267 0
M  V30 5986 H 553.491 -2.09304 -3.17761 0
M  V30 5987 H 553.003 -3.38837 -1.89238 0
M  V30 5988 H 551.104 -1.4594 -3.4283 0
M  V30 5989 H 551.217 -3.34362 -3.43131 0
M  V30 5990 H 549.581 -1.70696 -1.89037 0
M  V30 5991 H 550.364 -3.2221 -1.18471 0
M  V30 5992 N 552.809 0.956637 -1.25245 0
M  V30 5993 C 554.057 1.69764 -1.09657 0
M  V30 5994 C 554.378 1.91583 0.363464 0
M  V30 5995 O 553.648 1.50149 1.25825 0
M  V30 5996 H 552.228 0.629097 -0.402798 0
M  V30 5997 H 554.89 1.15026 -1.57337 0
M  V30 5998 H 553.986 2.67769 -1.60331 0
M  V30 5999 N 554.287 1.06798 1.15896 0
M  V30 6000 C 555.533 0.788934 1.86825 0
M  V30 6001 C 555.866 -0.683084 1.8179 0
M  V30 6002 O 555.141 -1.50086 1.23711 0
M  V30 6003 C 555.424 1.29065 3.36176 0
M  V30 6004 C 555.277 2.8268 3.49874 0
M  V30 6005 C 556.596 0.902655 4.30744 0
M  V30 6006 H 553.715 0.288066 0.678371 0
M  V30 6007 H 556.357 1.32479 1.36195 0
M  V30 6008 H 554.507 0.834806 3.79425 0
M  V30 6009 H 556.179 3.36511 3.15528 0
M  V30 6010 H 554.422 3.21157 2.91617 0
M  V30 6011 H 555.093 3.12852 4.54783 0
M  V30 6012 H 557.569 1.29535 3.95424 0
M  V30 6013 H 556.445 1.28111 5.3374 0
M  V30 6014 H 556.706 -0.191951 4.41683 0
M  V30 6015 N 555.766 -1.3263 0.851289 0
M  V30 6016 C 556.994 -2.01563 0.466899 0
M  V30 6017 C 557.409 -1.63996 -0.935447 0
M  V30 6018 O 556.766 -0.85957 -1.6099 0
M  V30 6019 C 556.817 -3.56613 0.592433 0
M  V30 6020 O 556.538 -3.92828 1.93954 0
M  V30 6021 C 558.039 -4.42818 0.206612 0
M  V30 6022 H 555.259 -0.645307 0.183902 0
M  V30 6023 H 557.803 -1.69285 1.1473 0
M  V30 6024 H 555.958 -3.87379 -0.0401936 0
M  V30 6025 H 556.372 -4.87545 1.9339 0
M  V30 6026 H 557.846 -5.50918 0.345462 0
M  V30 6027 H 558.323 -4.30844 -0.85264 0
M  V30 6028 H 558.929 -4.17434 0.814176 0
M  V30 6029 N 557.244 -0.608902 -1.45362 0
M  V30 6030 C 558.474 -0.110852 -2.06302 0
M  V30 6031 C 558.882 1.21062 -1.45398 0
M  V30 6032 O 558.225 1.74861 -0.562976 0
M  V30 6033 C 558.287 0.101793 -3.59356 0
M  V30 6034 C 557.951 -1.13808 -4.42602 0
M  V30 6035 C 558.948 -2.05653 -4.77496 0
M  V30 6036 C 556.633 -1.36727 -4.83333 0
M  V30 6037 C 558.627 -3.18745 -5.51978 0
M  V30 6038 C 556.314 -2.5012 -5.57569 0
M  V30 6039 C 557.312 -3.40957 -5.91809 0
M  V30 6040 O 557 -4.52376 -6.64538 0
M  V30 6041 H 556.732 -0.0666001 -0.672711 0
M  V30 6042 H 559.286 -0.836942 -1.87575 0
M  V30 6043 H 557.516 0.88279 -3.76489 0
M  V30 6044 H 559.205 0.551607 -4.02134 0
M  V30 6045 H 559.971 -1.89172 -4.46586 0
M  V30 6046 H 555.85 -0.669216 -4.56117 0
M  V30 6047 H 559.394 -3.8967 -5.78622 0
M  V30 6048 H 555.291 -2.66553 -5.87894 0
M  V30 6049 H 556.059 -4.51075 -6.82989 0
M  V30 6050 N 558.722 1.53707 -0.348139 0
M  V30 6051 C 559.999 1.93247 0.302475 0
M  V30 6052 C 560.379 1.28012 1.67857 0
M  V30 6053 O 559.727 0.43274 2.24365 0
M  V30 6054 C 559.937 3.47031 0.370159 0
M  V30 6055 C 561.285 4.20066 0.61882 0
M  V30 6056 O 562.309 3.53319 0.452087 0
M  V30 6057 O 561.168 5.38318 0.94215 0
M  V30 6058 H 558.262 0.807736 0.177458 0
M  V30 6059 H 560.808 1.64927 -0.399651 0
M  V30 6060 H 559.58 3.86745 -0.59534 0
M  V30 6061 H 559.203 3.81532 1.11888 0
M  V30 6062 N 560.2 0.0768682 1.57412 0
M  V30 6063 C 561.449 -0.590679 1.92857 0
M  V30 6064 C 561.762 -1.70461 0.959293 0
M  V30 6065 O 562.968 -2.43207 1.20675 0
M  V30 6066 C 561.424 -1.10204 3.42612 0
M  V30 6067 C 561.032 -0.0188447 4.47996 0
M  V30 6068 C 562.776 -1.74336 3.87049 0
M  V30 6069 C 560.683 -0.544536 5.88888 0
M  V30 6070 H 559.613 -0.224411 0.71983 0
M  V30 6071 H 562.264 0.149924 1.82887 0
M  V30 6072 H 560.646 -1.89577 3.47673 0
M  V30 6073 H 561.82 0.755936 4.54557 0
M  V30 6074 H 560.135 0.526555 4.13057 0
M  V30 6075 H 562.732 -2.14708 4.89699 0
M  V30 6076 H 563.075 -2.60537 3.24694 0
M  V30 6077 H 563.608 -1.01577 3.84613 0
M  V30 6078 H 560.347 0.280426 6.549 0
M  V30 6079 H 559.867 -1.28673 5.85836 0
M  V30 6080 H 561.546 -1.01933 6.3892 0
M  V30 6081 N 561.678 -1.56367 -0.196722 0
M  V30 6082 C 562.625 -1.94417 -1.24382 0
M  V30 6083 C 563.595 -0.804543 -1.45315 0
M  V30 6084 O 564.78 -1.06256 -1.58475 0
M  V30 6085 C 561.92 -2.28757 -2.58388 0
M  V30 6086 C 561.033 -3.55775 -2.45047 0
M  V30 6087 C 560.168 -3.79445 -3.71746 0
M  V30 6088 C 559.207 -4.99894 -3.53231 0
M  V30 6089 N 558.344 -5.19826 -4.71938 0
M  V30 6090 H 563.184 -2.83691 -0.912338 0
M  V30 6091 H 560.721 -1.40392 -0.439135 0
M  V30 6092 H 562.679 -2.46682 -3.36457 0
M  V30 6093 H 561.309 -1.42625 -2.89582 0
M  V30 6094 H 560.361 -3.45905 -1.58284 0
M  V30 6095 H 561.673 -4.44 -2.27299 0
M  V30 6096 H 560.827 -3.97601 -4.58256 0
M  V30 6097 H 559.566 -2.89546 -3.92446 0
M  V30 6098 H 558.571 -4.81662 -2.65107 0
M  V30 6099 H 559.796 -5.913 -3.33978 0
M  V30 6100 H 557.742 -4.32875 -4.92905 0
M  V30 6101 H 557.659 -6.02228 -4.57009 0
M  V30 6102 H 558.927 -5.42439 -5.59803 0
M  V30 6103 N 563.156 0.464375 -1.50603 0
M  V30 6104 C 564.104 1.58224 -1.70493 0
M  V30 6105 C 565.098 1.59492 -0.570836 0
M  V30 6106 O 566.304 1.63561 -0.751517 0
M  V30 6107 H 562.679 0.525161 -0.538247 0
M  V30 6108 H 564.65 1.38613 -2.64252 0
M  V30 6109 C 563.399 2.96113 -1.82243 0
M  V30 6110 H 562.722 2.95858 -2.68901 0
M  V30 6111 H 564.162 3.73769 -2.00182 0
M  V30 6112 C 562.621 3.31946 -0.575628 0
M  V30 6113 O 563.151 4.00708 0.282152 0
M  V30 6114 N 561.357 2.87436 -0.427665 0
M  V30 6115 H 560.904 2.31652 -1.12674 0
M  V30 6116 H 560.862 3.11776 0.405379 0
M  V30 6117 N 564.634 1.40294 0.718013 0
M  V30 6118 C 565.882 1.38167 1.47494 0
M  V30 6119 C 566.203 -0.01607 1.94993 0
M  V30 6120 O 565.473 -0.970396 1.70177 0
M  V30 6121 H 564.053 0.508505 0.547203 0
M  V30 6122 H 566.715 1.75324 0.851322 0
M  V30 6123 H 565.811 2.05503 2.34894 0
M  V30 6124 N 566.112 -0.949982 1.2575 0
M  V30 6125 C 567.059 -2.04738 1.06541 0
M  V30 6126 C 568.029 -1.66078 -0.0268818 0
M  V30 6127 O 569.214 -1.90348 0.131196 0
M  V30 6128 C 566.354 -3.38027 0.695127 0
M  V30 6129 C 565.467 -3.89776 1.86276 0
M  V30 6130 C 564.602 -5.11411 1.4364 0
M  V30 6131 C 563.641 -5.554 2.57287 0
M  V30 6132 N 562.778 -6.68244 2.15395 0
M  V30 6133 H 567.618 -2.20502 2.00457 0
M  V30 6134 H 565.155 -1.0805 0.998178 0
M  V30 6135 H 567.113 -4.14641 0.461375 0
M  V30 6136 H 565.743 -3.22135 -0.207046 0
M  V30 6137 H 564.795 -3.0964 2.20969 0
M  V30 6138 H 566.107 -4.18368 2.71606 0
M  V30 6139 H 565.261 -5.95457 1.16257 0
M  V30 6140 H 564 -4.84545 0.553879 0
M  V30 6141 H 563.005 -4.69916 2.85409 0
M  V30 6142 H 564.23 -5.84272 3.46125 0
M  V30 6143 H 562.176 -6.43078 1.29565 0
M  V30 6144 H 562.093 -6.96377 2.94272 0
M  V30 6145 H 563.361 -7.55687 1.91201 0
M  V30 6146 N 567.59 -1.07411 -1.15328 0
M  V30 6147 C 568.553 -0.698914 -2.18284 0
M  V30 6148 C 569.553 0.261149 -1.58665 0
M  V30 6149 O 570.743 0.0420277 -1.74149 0
M  V30 6150 C 567.875 -0.0302427 -3.40887 0
M  V30 6151 H 569.068 -1.61045 -2.52991 0
M  V30 6152 H 566.621 -0.870724 -1.298 0
M  V30 6153 H 567.356 0.893505 -3.11748 0
M  V30 6154 H 567.141 -0.720759 -3.85419 0
M  V30 6155 H 568.631 0.21759 -4.17033 0
M  V30 6156 N 569.068 1.32177 -0.85831 0
M  V30 6157 C 570.314 1.97417 -0.46417 0
M  V30 6158 C 570.647 1.67746 0.978514 0
M  V30 6159 O 569.922 0.967654 1.68721 0
M  V30 6160 C 570.205 3.53069 -0.708094 0
M  V30 6161 C 570.058 3.92357 -2.19946 0
M  V30 6162 C 571.377 4.39783 -0.166881 0
M  V30 6163 H 568.496 0.717097 -0.17012 0
M  V30 6164 H 571.138 1.56499 -1.07741 0
M  V30 6165 H 569.288 3.88054 -0.186128 0
M  V30 6166 H 570.96 3.67533 -2.78779 0
M  V30 6167 H 569.203 3.41384 -2.67656 0
M  V30 6168 H 569.874 5.00841 -2.32082 0
M  V30 6169 H 572.35 4.11556 -0.613285 0
M  V30 6170 H 571.226 5.47671 -0.367093 0
M  V30 6171 H 571.487 4.32196 0.930559 0
M  V30 6172 N 570.547 0.616602 1.45037 0
M  V30 6173 C 571.794 0.115331 2.02171 0
M  V30 6174 C 572.122 -1.25748 1.48383 0
M  V30 6175 O 571.377 -1.84511 0.652229 0
M  V30 6176 C 571.676 0.0356829 3.57382 0
M  V30 6177 C 571.342 1.34535 4.30362 0
M  V30 6178 C 570.004 1.70408 4.50016 0
M  V30 6179 C 572.356 2.21049 4.72003 0
M  V30 6180 C 569.684 2.92529 5.0857 0
M  V30 6181 C 572.036 3.42427 5.31908 0
M  V30 6182 C 570.7 3.78541 5.49784 0
M  V30 6183 H 569.97 0.0422024 0.739797 0
M  V30 6184 H 572.617 0.80002 1.73988 0
M  V30 6185 H 570.922 -0.732314 3.84895 0
M  V30 6186 H 572.619 -0.368463 3.99304 0
M  V30 6187 H 569.209 1.05615 4.15383 0
M  V30 6188 H 573.393 1.94632 4.56544 0
M  V30 6189 H 568.649 3.20605 5.20598 0
M  V30 6190 H 572.823 4.09709 5.63127 0
M  V30 6191 H 570.45 4.73255 5.94923 0
M  V30 6192 N 572.025 -1.5352 0.356285 0
M  V30 6193 C 572.972 -2.25439 -0.494569 0
M  V30 6194 C 573.942 -1.25752 -1.08516 0
M  V30 6195 O 575.127 -1.54513 -1.1194 0
M  V30 6196 C 572.267 -3.04011 -1.63313 0
M  V30 6197 C 571.38 -4.18574 -1.06862 0
M  V30 6198 C 570.515 -4.84607 -2.17552 0
M  V30 6199 C 569.554 -5.91218 -1.58518 0
M  V30 6200 N 568.691 -6.50979 -2.63003 0
M  V30 6201 H 573.531 -2.97737 0.125244 0
M  V30 6202 H 571.068 -1.46916 0.0735789 0
M  V30 6203 H 573.026 -3.47834 -2.30363 0
M  V30 6204 H 571.656 -2.33986 -2.22374 0
M  V30 6205 H 570.708 -3.79303 -0.288672 0
M  V30 6206 H 572.02 -4.95215 -0.596924 0
M  V30 6207 H 571.174 -5.31566 -2.92442 0
M  V30 6208 H 569.913 -4.07418 -2.6807 0
M  V30 6209 H 568.918 -5.4363 -0.821391 0
M  V30 6210 H 570.143 -6.70322 -1.08836 0
M  V30 6211 H 568.089 -5.76648 -3.12751 0
M  V30 6212 H 568.006 -7.23131 -2.20493 0
M  V30 6213 H 569.274 -7.02589 -3.37623 0
M  V30 6214 N 573.503 -0.0852151 -1.57369 0
M  V30 6215 C 574.78 0.622534 -1.85429 0
M  V30 6216 C 575.16 1.86962 -0.980229 0
M  V30 6217 O 574.508 2.28445 -0.0500219 0
M  V30 6218 C 574.718 0.947374 -3.35896 0
M  V30 6219 C 576.066 1.31509 -4.03721 0
M  V30 6220 O 577.09 1.03869 -3.40719 0
M  V30 6221 O 575.949 1.83231 -5.14868 0
M  V30 6222 H 573.043 0.310513 -0.766492 0
M  V30 6223 H 575.589 -0.117164 -1.69295 0
M  V30 6224 H 574.361 0.0622264 -3.91251 0
M  V30 6225 H 573.984 1.74338 -3.5734 0
M  V30 6226 N 574.981 1.5647 0.188427 0
M  V30 6227 C 576.206 1.85486 0.927891 0
M  V30 6228 C 576.631 0.669575 1.75779 0
M  V30 6229 O 575.989 -0.381573 1.77239 0
M  V30 6230 C 576.037 3.12784 1.7944 0
M  V30 6231 O 575.141 2.93805 2.894 0
M  V30 6232 H 574.482 0.610585 0.260925 0
M  V30 6233 H 577.012 2.037 0.191729 0
M  V30 6234 H 577.022 3.43749 2.19774 0
M  V30 6235 H 575.697 3.98671 1.18468 0
M  V30 6236 H 574.274 2.74153 2.52774 0
M  V30 6237 N 576.459 -0.456382 1.50847 0
M  V30 6238 C 577.705 -1.20914 1.62811 0
M  V30 6239 C 578.038 -1.91301 0.334304 0
M  V30 6240 O 577.313 -1.82775 -0.665098 0
M  V30 6241 C 577.596 -2.24122 2.81853 0
M  V30 6242 C 577.449 -1.57944 4.21158 0
M  V30 6243 C 578.768 -3.25295 2.96431 0
M  V30 6244 H 575.887 -0.438233 0.592554 0
M  V30 6245 H 578.529 -0.50091 1.83278 0
M  V30 6246 H 576.679 -2.84524 2.64534 0
M  V30 6247 H 578.351 -1.01025 4.50102 0
M  V30 6248 H 576.594 -0.882185 4.24735 0
M  V30 6249 H 577.265 -2.33014 5.00408 0
M  V30 6250 H 579.741 -2.7493 3.12335 0
M  V30 6251 H 578.617 -3.94822 3.81322 0
M  V30 6252 H 578.878 -3.90286 2.07676 0
M  V30 6253 N 577.937 -1.40673 -0.710563 0
M  V30 6254 C 578.867 -1.44095 -1.83736 0
M  V30 6255 C 579.848 -0.301286 -1.67411 0
M  V30 6256 O 581.033 -0.510618 -1.87367 0
M  V30 6257 C 578.163 -1.30773 -3.21738 0
M  V30 6258 C 577.117 -2.42395 -3.52745 0
M  V30 6259 C 576.443 -2.14147 -4.89944 0
M  V30 6260 C 577.743 -3.84738 -3.53234 0
M  V30 6261 H 579.437 -2.38396 -1.81129 0
M  V30 6262 H 576.983 -1.14746 -0.870017 0
M  V30 6263 H 578.936 -1.31783 -4.00264 0
M  V30 6264 H 577.66 -0.329507 -3.24934 0
M  V30 6265 H 576.319 -2.40643 -2.76562 0
M  V30 6266 H 575.967 -1.14703 -4.89747 0
M  V30 6267 H 575.667 -2.88934 -5.11655 0
M  V30 6268 H 577.191 -2.16848 -5.70797 0
M  V30 6269 H 578.605 -3.88286 -4.2179 0
M  V30 6270 H 577.002 -4.59085 -3.86473 0
M  V30 6271 H 578.072 -4.13962 -2.52514 0
M  V30 6272 N 579.415 0.9433 -1.26252 0
M  V30 6273 C 580.362 2.0417 -1.07625 0
M  V30 6274 C 581.332 1.6609 0.0180738 0
M  V30 6275 O 582.517 1.90276 -0.141289 0
M  V30 6276 C 579.657 3.37653 -0.713043 0
M  V30 6277 C 578.77 3.88783 -1.8834 0
M  V30 6278 C 577.905 5.10642 -1.4635 0
M  V30 6279 C 576.944 5.54028 -2.60229 0
M  V30 6280 N 576.081 6.67092 -2.18936 0
M  V30 6281 H 580.921 2.19436 -2.01623 0
M  V30 6282 H 578.458 1.07519 -1.00389 0
M  V30 6283 H 580.416 4.14391 -0.483358 0
M  V30 6284 H 579.046 3.22241 0.18996 0
M  V30 6285 H 578.098 3.08464 -2.22608 0
M  V30 6286 H 579.41 4.16922 -2.73821 0
M  V30 6287 H 578.564 5.94832 -1.19414 0
M  V30 6288 H 577.303 4.84244 -0.579568 0
M  V30 6289 H 576.308 4.68396 -2.87898 0
M  V30 6290 H 577.533 5.82429 -3.49219 0
M  V30 6291 H 575.479 6.42381 -1.32974 0
M  V30 6292 H 575.396 6.94806 -2.97961 0
M  V30 6293 H 576.664 7.54662 -1.95206 0
M  V30 6294 N 580.893 1.08022 1.14757 0
M  V30 6295 C 582.118 0.82895 1.90114 0
M  V30 6296 C 582.543 -0.612772 1.77839 0
M  V30 6297 O 581.901 -1.42895 1.11583 0
M  V30 6298 C 581.949 1.25062 3.38219 0
M  V30 6299 O 581.053 0.400119 4.10454 0
M  V30 6300 H 580.394 0.301412 0.591648 0
M  V30 6301 H 582.924 1.44062 1.45284 0
M  V30 6302 H 582.934 1.22977 3.89025 0
M  V30 6303 H 581.609 2.30067 3.46471 0
M  V30 6304 H 580.186 0.484052 3.69745 0
M  V30 6305 N 582.371 -1.3172 0.865308 0
M  V30 6306 C 583.782 -1.79104 0.527126 0
M  V30 6307 C 584.133 -1.7135 -0.955695 0
M  V30 6308 O 583.258 -1.27845 -1.74598 0
M  V30 6309 C 583.853 -3.25207 0.950061 0
M  V30 6310 C 582.412 -3.70504 0.663611 0
M  V30 6311 C 581.559 -2.52605 1.14395 0
M  V30 6312 H 584.51 -1.18868 1.05148 0
M  V30 6313 H 584.531 -3.79535 0.270805 0
M  V30 6314 H 584.043 -3.30818 2.02931 0
M  V30 6315 H 582.144 -3.70398 -0.404474 0
M  V30 6316 H 582.257 -4.62845 1.23737 0
M  V30 6317 H 580.621 -2.4838 0.563859 0
M  V30 6318 H 581.404 -2.60964 2.23053 0
M  V30 6319 N 583.85 -0.624285 -1.44708 0
M  V30 6320 C 584.782 0.12305 -2.28869 0
M  V30 6321 C 585.795 0.81557 -1.40898 0
M  V30 6322 O 586.984 0.678162 -1.65116 0
M  V30 6323 C 584.084 1.19612 -3.1709 0
M  V30 6324 C 583.257 0.587452 -4.33437 0
M  V30 6325 C 582.316 1.55358 -5.02743 0
M  V30 6326 O 581.341 1.07338 -5.58988 0
M  V30 6327 N 582.543 2.88798 -5.03563 0
M  V30 6328 H 585.308 -0.599193 -2.93649 0
M  V30 6329 H 582.87 -0.464954 -1.5508 0
M  V30 6330 H 584.861 1.84261 -3.60319 0
M  V30 6331 H 583.432 1.82067 -2.54107 0
M  V30 6332 H 582.652 -0.237509 -3.93484 0
M  V30 6333 H 583.94 0.161326 -5.08544 0
M  V30 6334 H 583.338 3.30399 -4.59188 0
M  V30 6335 H 581.894 3.48826 -5.50603 0
M  V30 6336 N 585.328 1.53329 -0.364422 0
M  V30 6337 C 586.739 1.86345 0.115039 0
M  V30 6338 C 587.09 1.28505 1.4826 0
M  V30 6339 O 586.215 0.606639 2.07723 0
M  V30 6340 C 586.81 3.38114 0.215522 0
M  V30 6341 C 585.369 3.70932 0.639237 0
M  V30 6342 C 584.516 2.76471 -0.214261 0
M  V30 6343 H 587.467 1.47593 -0.583258 0
M  V30 6344 H 587.488 3.66031 1.0393 0
M  V30 6345 H 587 3.80182 -0.779948 0
M  V30 6346 H 585.101 3.3442 1.64298 0
M  V30 6347 H 585.214 4.77302 0.41465 0
M  V30 6348 H 583.578 2.52724 0.316678 0
M  V30 6349 H 584.361 3.21373 -1.20725 0
M  V30 6350 N 586.806 0.0935595 1.57322 0
M  V30 6351 C 588.052 -0.571355 1.94585 0
M  V30 6352 C 588.385 -1.67929 0.975366 0
M  V30 6353 O 587.66 -1.94498 0.00816206 0
M  V30 6354 C 587.943 -1.12797 3.41978 0
M  V30 6355 C 587.796 -0.0251881 4.49793 0
M  V30 6356 C 589.115 -2.02682 3.90651 0
M  V30 6357 H 586.234 -0.206223 0.70756 0
M  V30 6358 H 588.876 0.163956 1.89291 0
M  V30 6359 H 587.026 -1.75461 3.4662 0
M  V30 6360 H 588.698 0.608979 4.57263 0
M  V30 6361 H 586.941 0.641399 4.29032 0
M  V30 6362 H 587.612 -0.455433 5.50118 0
M  V30 6363 H 590.088 -1.49925 3.88152 0
M  V30 6364 H 588.964 -2.38555 4.94351 0
M  V30 6365 H 589.225 -2.94362 3.29854 0
M  V30 6366 N 588.284 -1.56567 -0.180126 0
M  V30 6367 C 589.232 -1.96632 -1.24251 0
M  V30 6368 C 590.226 -0.853818 -1.46309 0
M  V30 6369 O 591.432 -1.0389 -1.46993 0
M  V30 6370 H 587.807 -0.625476 -0.417473 0
M  V30 6371 H 589.778 -2.85201 -0.877679 0
M  V30 6372 C 588.527 -2.33486 -2.57642 0
M  V30 6373 H 587.85 -3.18626 -2.4149 0
M  V30 6374 H 589.29 -2.65371 -3.30688 0
M  V30 6375 C 587.749 -1.17499 -3.15746 0
M  V30 6376 O 588.279 -0.457956 -3.99081 0
M  V30 6377 N 586.485 -0.94786 -2.74707 0
M  V30 6378 H 586.032 -1.53269 -2.07042 0
M  V30 6379 H 585.99 -0.173626 -3.1392 0
M  V30 6380 N 589.762 0.448376 -1.51087 0
M  V30 6381 C 590.71 1.56407 -1.72161 0
M  V30 6382 C 591.704 1.58878 -0.587721 0
M  V30 6383 O 592.91 1.62755 -0.768822 0
M  V30 6384 H 589.285 0.519423 -0.543786 0
M  V30 6385 H 591.256 1.35803 -2.65707 0
M  V30 6386 C 590.005 2.94163 -1.85373 0
M  V30 6387 H 589.328 2.9299 -2.72024 0
M  V30 6388 H 590.768 3.71625 -2.04135 0
M  V30 6389 C 589.227 3.31317 -0.610803 0
M  V30 6390 O 589.757 4.00985 0.239636 0
M  V30 6391 N 587.963 2.86966 -0.458127 0
M  V30 6392 H 587.51 2.30443 -1.15124 0
M  V30 6393 H 587.468 3.12188 0.372289 0
M  V30 6394 N 591.24 1.41047 0.703093 0
M  V30 6395 C 592.172 1.38228 1.82827 0
M  V30 6396 C 593.185 0.285637 1.60275 0
M  V30 6397 O 594.374 0.54685 1.69917 0
M  V30 6398 C 591.474 1.13136 3.19458 0
M  V30 6399 C 590.647 2.34695 3.69103 0
M  V30 6400 C 589.706 2.05574 4.84382 0
M  V30 6401 O 588.732 2.78549 4.96386 0
M  V30 6402 N 589.934 1.04135 5.71083 0
M  V30 6403 H 592.699 2.35203 1.85741 0
M  V30 6404 H 590.26 1.35562 0.885125 0
M  V30 6405 H 592.252 0.916183 3.94193 0
M  V30 6406 H 590.822 0.247836 3.11616 0
M  V30 6407 H 590.042 2.71963 2.85359 0
M  V30 6408 H 591.33 3.15705 3.99009 0
M  V30 6409 H 590.728 0.43722 5.64008 0
M  V30 6410 H 589.285 0.886078 6.45749 0
M  V30 6411 N 592.718 -0.936591 1.26751 0
M  V30 6412 C 593.648 -2.05315 1.11212 0
M  V30 6413 C 594.629 -1.70092 0.0160262 0
M  V30 6414 O 595.814 -1.93279 0.188894 0
M  V30 6415 C 592.944 -3.39123 0.749171 0
M  V30 6416 C 591.898 -3.88425 1.79751 0
M  V30 6417 C 591.224 -5.18936 1.28876 0
M  V30 6418 C 592.524 -4.12798 3.19992 0
M  V30 6419 H 594.218 -2.18573 2.04613 0
M  V30 6420 H 591.764 -1.05027 0.985159 0
M  V30 6421 H 593.717 -4.16704 0.627323 0
M  V30 6422 H 592.441 -3.25855 -0.220543 0
M  V30 6423 H 591.1 -3.13028 1.90811 0
M  V30 6424 H 590.748 -5.02051 0.308757 0
M  V30 6425 H 590.448 -5.52892 1.98958 0
M  V30 6426 H 591.972 -5.99096 1.17967 0
M  V30 6427 H 593.386 -4.80977 3.11983 0
M  V30 6428 H 591.783 -4.58044 3.87705 0
M  V30 6429 H 592.853 -3.18412 3.65707 0
M  V30 6430 N 594.196 -1.08629 -1.14182 0
M  V30 6431 C 595.426 -0.837673 -1.88856 0
M  V30 6432 C 595.834 0.614024 -1.78959 0
M  V30 6433 O 595.177 1.43384 -1.14833 0
M  V30 6434 C 595.239 -1.18355 -3.39459 0
M  V30 6435 C 594.903 -2.63848 -3.73139 0
M  V30 6436 C 595.9 -3.62099 -3.73069 0
M  V30 6437 C 593.585 -2.99761 -4.03049 0
M  V30 6438 C 595.579 -4.94292 -4.02435 0
M  V30 6439 C 593.266 -4.32147 -4.32078 0
M  V30 6440 C 594.264 -5.29223 -4.31755 0
M  V30 6441 O 593.952 -6.59229 -4.60079 0
M  V30 6442 H 593.684 -0.301609 -0.604986 0
M  V30 6443 H 596.238 -1.44961 -1.45518 0
M  V30 6444 H 594.468 -0.514628 -3.8326 0
M  V30 6445 H 596.157 -0.915391 -3.95443 0
M  V30 6446 H 596.923 -3.35698 -3.50046 0
M  V30 6447 H 592.802 -2.2484 -4.02453 0
M  V30 6448 H 596.346 -5.70055 -4.02098 0
M  V30 6449 H 592.243 -4.58296 -4.54571 0
M  V30 6450 H 593.011 -6.64578 -4.77785 0
M  V30 6451 N 595.674 1.31259 -0.872281 0
M  V30 6452 C 596.951 1.91362 -0.404943 0
M  V30 6453 C 597.331 1.79362 1.11321 0
M  V30 6454 O 596.679 1.20277 1.94283 0
M  V30 6455 C 596.889 3.3749 -0.888893 0
M  V30 6456 C 598.237 4.14593 -0.916384 0
M  V30 6457 O 599.261 3.46282 -0.834701 0
M  V30 6458 O 598.12 5.3661 -1.03498 0
M  V30 6459 H 595.214 0.818016 -0.121569 0
M  V30 6460 H 597.76 1.39912 -0.960346 0
M  V30 6461 H 596.532 3.40249 -1.93251 0
M  V30 6462 H 596.155 3.96375 -0.311932 0
M  V30 6463 N 597.152 0.631951 1.44375 0
M  V30 6464 C 598.085 -0.121822 2.27875 0
M  V30 6465 C 599.063 -0.850457 1.38586 0
M  V30 6466 O 600.247 -0.854378 1.68026 0
M  V30 6467 C 597.374 -1.17859 3.17533 0
M  V30 6468 C 596.42 -0.550391 4.22934 0
M  V30 6469 S 597.253 0.660145 5.31415 0
M  V30 6470 C 598.409 -0.396613 6.24642 0
M  V30 6471 H 598.642 0.586537 2.91457 0
M  V30 6472 H 596.175 0.420146 1.48574 0
M  V30 6473 H 598.133 -1.78335 3.69739 0
M  V30 6474 H 596.794 -1.85915 2.53169 0
M  V30 6475 H 595.987 -1.34631 4.85685 0
M  V30 6476 H 595.589 -0.0202306 3.73995 0
M  V30 6477 H 597.881 -1.26893 6.65511 0
M  V30 6478 H 598.824 0.195345 7.0783 0
M  V30 6479 H 599.232 -0.72288 5.59852 0
M  V30 6480 N 598.631 -1.53133 0.372548 0
M  V30 6481 C 599.879 -2.00958 -0.214534 0
M  V30 6482 C 600.2 -1.26135 -1.48711 0
M  V30 6483 O 599.47 -0.376597 -1.92246 0
M  V30 6484 H 598.05 -0.742456 -0.0822664 0
M  V30 6485 H 600.712 -1.88367 0.500385 0
M  V30 6486 H 599.808 -3.09031 -0.436605 0
M  V30 6487 N 600.109 -0.101901 -1.5727 0
M  V30 6488 C 601.072 0.840129 -2.13247 0
M  V30 6489 C 602.072 1.20625 -1.06331 0
M  V30 6490 O 603.262 1.13456 -1.32186 0
M  V30 6491 C 600.394 2.13372 -2.65867 0
M  V30 6492 H 601.587 0.353945 -2.97804 0
M  V30 6493 H 599.14 0.147167 -1.55606 0
M  V30 6494 H 599.875 2.66461 -1.84849 0
M  V30 6495 H 599.66 1.88085 -3.44044 0
M  V30 6496 H 601.15 2.80748 -3.09145 0
M  V30 6497 N 601.587 1.56661 0.17182 0
M  V30 6498 C 602.519 1.92934 1.2373 0
M  V30 6499 C 603.532 0.822385 1.40502 0
M  V30 6500 O 604.721 1.10083 1.40514 0
M  V30 6501 C 601.821 2.16651 2.60607 0
M  V30 6502 C 600.994 3.47878 2.6514 0
M  V30 6503 C 600.053 3.60429 3.83377 0
M  V30 6504 O 599.079 4.33051 3.69398 0
M  V30 6505 N 600.281 2.95241 4.99813 0
M  V30 6506 H 603.046 2.84931 0.929205 0
M  V30 6507 H 600.607 1.5781 0.361588 0
M  V30 6508 H 602.599 2.22312 3.38171 0
M  V30 6509 H 601.169 1.3104 2.83809 0
M  V30 6510 H 600.389 3.53879 1.73675 0
M  V30 6511 H 601.677 4.34232 2.6518 0
M  V30 6512 H 601.075 2.3611 5.14071 0
M  V30 6513 H 599.632 3.06499 5.75241 0
M  V30 6514 N 603.065 -0.440357 1.51323 0
M  V30 6515 C 604.314 -1.18697 1.63076 0
M  V30 6516 C 604.627 -1.92418 0.35136 0
M  V30 6517 O 605.833 -2.69258 0.348221 0
M  V30 6518 C 604.289 -2.15849 2.87988 0
M  V30 6519 C 603.897 -1.47789 4.22921 0
M  V30 6520 C 605.641 -2.90962 3.09098 0
M  V30 6521 C 603.548 -2.43407 5.38987 0
M  V30 6522 H 602.478 -0.44676 0.607389 0
M  V30 6523 H 605.129 -0.454313 1.77787 0
M  V30 6524 H 603.511 -2.92537 2.66905 0
M  V30 6525 H 604.685 -0.7668 4.54375 0
M  V30 6526 H 603 -0.848404 4.07665 0
M  V30 6527 H 605.597 -3.62584 3.92985 0
M  V30 6528 H 605.94 -3.52133 2.22053 0
M  V30 6529 H 606.473 -2.21381 3.30507 0
M  V30 6530 H 603.212 -1.86929 6.28282 0
M  V30 6531 H 602.732 -3.12579 5.11913 0
M  V30 6532 H 604.411 -3.046 5.70813 0
M  V30 6533 N 604.543 -1.41418 -0.695603 0
M  V30 6534 C 605.954 -1.36335 -1.27552 0
M  V30 6535 C 606.305 -0.0464336 -1.96145 0
M  V30 6536 O 605.43 0.855304 -1.9878 0
M  V30 6537 C 606.025 -2.46941 -2.3196 0
M  V30 6538 C 604.584 -2.45256 -2.85529 0
M  V30 6539 C 603.731 -2.2679 -1.59566 0
M  V30 6540 H 606.682 -1.50934 -0.490362 0
M  V30 6541 H 606.703 -2.15997 -3.1325 0
M  V30 6542 H 606.215 -3.42775 -1.82008 0
M  V30 6543 H 604.316 -1.53179 -3.39657 0
M  V30 6544 H 604.429 -3.41565 -3.35961 0
M  V30 6545 H 602.793 -1.74667 -1.85374 0
M  V30 6546 H 603.576 -3.24651 -1.1161 0
M  V30 6547 N 606.021 0.929856 -1.27246 0
M  V30 6548 C 607.27 1.67182 -1.12842 0
M  V30 6549 C 607.583 1.9287 0.325666 0
M  V30 6550 O 608.789 2.64999 0.590572 0
M  V30 6551 C 607.245 3.01097 -1.97151 0
M  V30 6552 C 606.853 2.83115 -3.47203 0
M  V30 6553 C 608.597 3.78907 -1.91389 0
M  V30 6554 C 606.504 4.12573 -4.23719 0
M  V30 6555 H 605.434 0.627064 -0.418697 0
M  V30 6556 H 608.085 1.0332 -1.51649 0
M  V30 6557 H 606.467 3.66004 -1.51186 0
M  V30 6558 H 607.641 2.26989 -4.01015 0
M  V30 6559 H 605.956 2.18736 -3.54321 0
M  V30 6560 H 608.553 4.74837 -2.45834 0
M  V30 6561 H 608.896 4.0674 -0.887047 0
M  V30 6562 H 609.429 3.20794 -2.35237 0
M  V30 6563 H 606.168 3.8992 -5.26918 0
M  V30 6564 H 605.688 4.68371 -3.74685 0
M  V30 6565 H 607.367 4.8095 -4.32777 0
M  V30 6566 N 607.499 1.09233 1.13605 0
M  V30 6567 C 608.747 0.825525 1.84471 0
M  V30 6568 C 609.068 -0.650702 1.83823 0
M  V30 6569 O 608.338 -1.47204 1.29259 0
M  V30 6570 H 606.918 0.3024 0.683054 0
M  V30 6571 H 609.58 1.38006 1.37624 0
M  V30 6572 H 608.676 1.17727 2.89045 0
M  V30 6573 N 608.977 -1.30795 0.87923 0
M  V30 6574 C 610.224 -1.96362 0.494786 0
M  V30 6575 C 610.552 -1.69448 -0.954868 0
M  V30 6576 O 609.807 -0.988711 -1.68888 0
M  V30 6577 C 610.106 -3.50287 0.709476 0
M  V30 6578 C 609.772 -3.9724 2.13333 0
M  V30 6579 C 608.434 -4.09772 2.52271 0
M  V30 6580 C 610.786 -4.21807 3.06151 0
M  V30 6581 C 608.114 -4.44227 3.83248 0
M  V30 6582 C 610.466 -4.5773 4.36654 0
M  V30 6583 C 609.13 -4.68469 4.75492 0
M  V30 6584 H 608.4 -0.71854 0.181055 0
M  V30 6585 H 611.047 -1.55764 1.11399 0
M  V30 6586 H 609.352 -3.91799 0.0072 0
M  V30 6587 H 611.049 -3.99082 0.391703 0
M  V30 6588 H 607.639 -3.87988 1.82107 0
M  V30 6589 H 611.823 -4.11611 2.77291 0
M  V30 6590 H 607.079 -4.50741 4.13089 0
M  V30 6591 H 611.253 -4.7569 5.08617 0
M  V30 6592 H 608.88 -4.94923 5.77022 0
M  V30 6593 N 610.455 -0.639598 -1.44038 0
M  V30 6594 C 611.701 -0.156248 -2.02799 0
M  V30 6595 C 612.056 1.21145 -1.49471 0
M  V30 6596 O 611.349 1.79406 -0.672608 0
M  V30 6597 C 611.543 -0.0925348 -3.5728 0
M  V30 6598 C 611.372 -1.45252 -4.25596 0
M  V30 6599 C 610.142 -2.04145 -4.62226 0
M  V30 6600 C 612.34 -2.38812 -4.55492 0
M  V30 6601 N 610.322 -3.3329 -5.15549 0
M  V30 6602 C 611.693 -3.52578 -5.09989 0
M  V30 6603 C 613.748 -2.37785 -4.3745 0
M  V30 6604 C 612.451 -4.65525 -5.48342 0
M  V30 6605 C 614.477 -3.49802 -4.76857 0
M  V30 6606 C 613.839 -4.62292 -5.31475 0
M  V30 6607 H 609.938 -0.101292 -0.775412 0
M  V30 6608 H 612.522 -0.844938 -1.75411 0
M  V30 6609 H 610.693 0.565459 -3.84262 0
M  V30 6610 H 612.425 0.400426 -4.02714 0
M  V30 6611 H 609.18 -1.56999 -4.4682 0
M  V30 6612 H 609.604 -3.9934 -5.46678 0
M  V30 6613 H 614.246 -1.52061 -3.94509 0
M  V30 6614 H 611.964 -5.51951 -5.90233 0
M  V30 6615 H 615.55 -3.50193 -4.64603 0
M  V30 6616 H 614.43 -5.47536 -5.61403 0
M  V30 6617 N 611.933 1.52934 -0.380664 0
M  V30 6618 C 612.865 2.23822 0.493581 0
M  V30 6619 C 613.878 1.25761 1.03383 0
M  V30 6620 O 615.067 1.5189 0.937633 0
M  V30 6621 C 612.167 2.9342 1.69582 0
M  V30 6622 C 611.34 4.18115 1.28445 0
M  V30 6623 C 610.399 4.70788 2.35042 0
M  V30 6624 O 609.425 5.34093 1.96807 0
M  V30 6625 N 610.627 4.49899 3.66839 0
M  V30 6626 H 613.392 2.99484 -0.11371 0
M  V30 6627 H 610.953 1.60577 -0.206587 0
M  V30 6628 H 612.945 3.2556 2.40401 0
M  V30 6629 H 611.515 2.21119 2.20965 0
M  V30 6630 H 610.735 3.92109 0.405503 0
M  V30 6631 H 612.023 4.99152 0.986132 0
M  V30 6632 H 611.421 3.99349 4.0067 0
M  V30 6633 H 609.978 4.86551 4.33718 0
M  V30 6634 N 613.412 0.11024 1.57214 0
M  V30 6635 C 614.689 -0.592956 1.86396 0
M  V30 6636 C 615.069 -1.85379 1.00985 0
M  V30 6637 O 614.417 -2.28337 0.0863592 0
M  V30 6638 C 614.627 -0.893816 3.3736 0
M  V30 6639 C 615.975 -1.25069 4.05762 0
M  V30 6640 O 616.999 -0.984356 3.42329 0
M  V30 6641 O 615.858 -1.75017 5.17718 0
M  V30 6642 H 612.952 -0.29828 0.771335 0
M  V30 6643 H 615.498 0.144083 1.69087 0
M  V30 6644 H 614.27 2.6031e-05 3.913 0
M  V30 6645 H 613.893 -1.68631 3.60068 0
M  V30 6646 N 614.89 -1.56749 -0.16351 0
M  V30 6647 C 616.12 -1.86307 -0.892936 0
M  V30 6648 C 616.528 -0.6945 -1.75992 0
M  V30 6649 O 615.871 0.345384 -1.80424 0
M  V30 6650 C 615.933 -3.10372 -1.81409 0
M  V30 6651 C 615.597 -4.42913 -1.12593 0
M  V30 6652 C 616.594 -5.17608 -0.487661 0
M  V30 6653 C 614.279 -4.89646 -1.12035 0
M  V30 6654 C 616.273 -6.3723 0.14699 0
M  V30 6655 C 613.96 -6.09197 -0.481883 0
M  V30 6656 C 614.958 -6.82834 0.150678 0
M  V30 6657 O 614.646 -8.00116 0.779065 0
M  V30 6658 H 614.378 -0.622126 -0.264452 0
M  V30 6659 H 616.932 -2.04728 -0.166063 0
M  V30 6660 H 615.162 -2.87917 -2.58148 0
M  V30 6661 H 616.851 -3.26312 -2.41403 0
M  V30 6662 H 617.617 -4.8258 -0.483888 0
M  V30 6663 H 613.496 -4.32265 -1.60212 0
M  V30 6664 H 617.04 -6.94646 0.641325 0
M  V30 6665 H 612.937 -6.43688 -0.483266 0
M  V30 6666 H 613.705 -8.15678 0.679089 0
M  V30 6667 N 616.368 0.432326 -1.51554 0
M  V30 6668 C 617.645 1.19288 -1.55015 0
M  V30 6669 C 618.025 2.08701 -0.317375 0
M  V30 6670 O 617.373 2.17602 0.697243 0
M  V30 6671 C 617.583 1.99037 -2.86679 0
M  V30 6672 C 618.931 2.55907 -3.38817 0
M  V30 6673 O 619.955 2.09243 -2.88263 0
M  V30 6674 O 618.814 3.41029 -4.27038 0
M  V30 6675 H 615.908 0.543369 -0.623441 0
M  V30 6676 H 618.454 0.440988 -1.6387 0
M  V30 6677 H 617.226 1.33397 -3.6786 0
M  V30 6678 H 616.849 2.81281 -2.8101 0
M  V30 6679 N 617.846 1.41785 0.688094 0
M  V30 6680 C 619.076 1.44705 1.47459 0
M  V30 6681 C 619.484 0.052916 1.89126 0
M  V30 6682 O 618.827 -0.939781 1.57841 0
M  V30 6683 C 618.889 2.29935 2.76352 0
M  V30 6684 C 618.553 3.77996 2.56843 0
M  V30 6685 C 619.55 4.69976 2.22304 0
M  V30 6686 C 617.235 4.2212 2.7225 0
M  V30 6687 C 619.229 6.04068 2.03421 0
M  V30 6688 C 616.916 5.56275 2.52985 0
M  V30 6689 C 617.914 6.47065 2.18621 0
M  V30 6690 O 617.602 7.78744 1.9953 0
M  V30 6691 H 617.334 0.494703 0.460701 0
M  V30 6692 H 619.888 1.86802 0.854057 0
M  V30 6693 H 618.118 1.82664 3.40839 0
M  V30 6694 H 619.807 2.24467 3.38186 0
M  V30 6695 H 620.573 4.37175 2.10008 0
M  V30 6696 H 616.452 3.51752 2.97979 0
M  V30 6697 H 619.996 6.74897 1.76523 0
M  V30 6698 H 615.893 5.88653 2.64873 0
M  V30 6699 H 616.661 7.89966 2.14234 0
M  V30 6700 N 619.324 -0.923095 1.27737 0
M  V30 6701 C 620.234 -2.05765 1.12685 0
M  V30 6702 C 621.25 -1.73911 0.0557197 0
M  V30 6703 O 622.426 -1.99674 0.263137 0
M  V30 6704 C 619.491 -3.37804 0.780363 0
M  V30 6705 C 618.552 -3.83326 1.93286 0
M  V30 6706 C 617.785 -5.09064 1.60281 0
M  V30 6707 O 618.008 -5.6809 0.512828 0
M  V30 6708 O 616.942 -5.50071 2.44347 0
M  V30 6709 H 620.768 -2.21378 2.07907 0
M  V30 6710 H 618.353 -1.04299 1.06968 0
M  V30 6711 H 620.235 -4.17097 0.600668 0
M  V30 6712 H 618.91 -3.23387 -0.142291 0
M  V30 6713 H 617.817 -3.049 2.16764 0
M  V30 6714 H 619.15 -4.02292 2.83588 0
M  V30 6715 N 620.802 -1.09834 -1.13024 0
M  V30 6716 C 622.218 -0.828875 -1.36388 0
M  V30 6717 C 622.418 0.554756 -1.93713 0
M  V30 6718 O 621.474 1.30882 -2.15931 0
M  V30 6719 C 622.787 -1.92352 -2.3113 0
M  V30 6720 C 624.335 -1.95124 -2.44735 0
M  V30 6721 C 624.81 -3.03745 -3.42787 0
M  V30 6722 N 626.301 -3.03012 -3.5034 0
M  V30 6723 C 627.036 -3.83699 -4.26101 0
M  V30 6724 N 626.532 -4.74306 -5.04981 0
M  V30 6725 N 628.325 -3.71942 -4.21445 0
M  V30 6726 H 620.476 -1.99029 -0.74169 0
M  V30 6727 H 622.739 -0.864557 -0.388903 0
M  V30 6728 H 622.445 -2.91906 -1.96172 0
M  V30 6729 H 622.319 -1.80536 -3.3119 0
M  V30 6730 H 624.706 -0.962069 -2.78977 0
M  V30 6731 H 624.787 -2.11018 -1.44586 0
M  V30 6732 H 624.431 -4.02878 -3.09276 0
M  V30 6733 H 624.361 -2.85094 -4.42752 0
M  V30 6734 H 626.852 -2.37352 -2.94062 0
M  V30 6735 H 627.165 -5.32446 -5.60108 0
M  V30 6736 H 625.51 -4.78339 -5.04199 0
M  V30 6737 H 628.701 -3.00513 -3.589 0
M  V30 6738 H 628.874 -4.35062 -4.80235 0
M  V30 6739 N 622.28 1.30327 -0.886154 0
M  V30 6740 C 623.212 2.27079 -0.311072 0
M  V30 6741 C 624.225 1.53758 0.53502 0
M  V30 6742 O 625.414 1.74947 0.354378 0
M  V30 6743 C 622.514 3.33965 0.576228 0
M  V30 6744 C 621.687 4.36735 -0.241064 0
M  V30 6745 C 620.746 5.23028 0.576916 0
M  V30 6746 O 619.772 5.692 -0.000802231 0
M  V30 6747 N 620.974 5.49016 1.88579 0
M  V30 6748 H 623.739 2.77065 -1.14259 0
M  V30 6749 H 621.3 1.43519 -0.749258 0
M  V30 6750 H 623.292 3.88618 1.12953 0
M  V30 6751 H 621.862 2.839 1.30842 0
M  V30 6752 H 621.082 3.81932 -0.975805 0
M  V30 6753 H 622.37 5.02451 -0.801272 0
M  V30 6754 H 621.768 5.13288 2.37806 0
M  V30 6755 H 620.325 6.06539 2.38651 0
M  V30 6756 N 623.758 0.647228 1.43697 0
M  V30 6757 C 625.004 0.167001 2.02713 0
M  V30 6758 C 625.359 -1.20351 1.50111 0
M  V30 6759 O 624.652 -1.79047 0.682113 0
M  V30 6760 C 624.846 0.111481 3.57226 0
M  V30 6761 C 624.675 1.47507 4.2482 0
M  V30 6762 C 623.445 2.06594 4.61137 0
M  V30 6763 C 625.643 2.41224 4.54219 0
M  V30 6764 N 623.625 3.3602 5.13774 0
M  V30 6765 C 624.996 3.55278 5.08112 0
M  V30 6766 C 627.051 2.40102 4.36183 0
M  V30 6767 C 625.754 4.68426 5.45866 0
M  V30 6768 C 627.78 3.52326 4.74995 0
M  V30 6769 C 627.142 4.65104 5.29015 0
M  V30 6770 H 623.241 0.105402 0.774864 0
M  V30 6771 H 625.825 0.854229 1.7496 0
M  V30 6772 H 623.996 -0.545073 3.84556 0
M  V30 6773 H 625.728 -0.379063 4.02921 0
M  V30 6774 H 622.483 1.59366 4.45981 0
M  V30 6775 H 622.907 4.02233 5.44552 0
M  V30 6776 H 627.549 1.54151 3.93697 0
M  V30 6777 H 625.267 5.55074 5.87298 0
M  V30 6778 H 628.853 3.52652 4.6274 0
M  V30 6779 H 627.733 5.50506 5.58492 0
M  V30 6780 N 625.236 -1.5273 0.388769 0
M  V30 6781 C 626.464 -2.05992 -0.193677 0
M  V30 6782 C 626.879 -1.26053 -1.40557 0
M  V30 6783 O 626.236 -0.307049 -1.79898 0
M  V30 6784 C 626.287 -3.57068 -0.564321 0
M  V30 6785 O 626.008 -4.3398 0.599422 0
M  V30 6786 C 627.509 -4.26674 -1.20269 0
M  V30 6787 H 624.729 -0.670358 -0.0293445 0
M  V30 6788 H 627.273 -1.96857 0.553844 0
M  V30 6789 H 625.428 -3.66277 -1.26174 0
M  V30 6790 H 625.842 -5.2367 0.294895 0
M  V30 6791 H 627.316 -5.33625 -1.4124 0
M  V30 6792 H 627.793 -3.81854 -2.16989 0
M  V30 6793 H 628.399 -4.2178 -0.546047 0
M  V30 6794 N 626.714 -0.118576 -1.57153 0
M  V30 6795 C 627.942 0.54726 -1.99531 0
M  V30 6796 C 628.357 1.60251 -0.998246 0
M  V30 6797 O 627.714 1.82498 0.00893106 0
M  V30 6798 C 627.765 1.17378 -3.41913 0
M  V30 6799 O 627.486 0.160703 -4.37805 0
M  V30 6800 C 628.987 1.92297 -3.9942 0
M  V30 6801 H 626.207 0.144919 -0.655164 0
M  V30 6802 H 628.751 -0.20479 -2.03472 0
M  V30 6803 H 626.906 1.87661 -3.38913 0
M  V30 6804 H 627.32 0.61586 -5.20872 0
M  V30 6805 H 628.794 2.31462 -5.01128 0
M  V30 6806 H 629.271 2.79801 -3.38538 0
M  V30 6807 H 629.877 1.26777 -4.05965 0
M  V30 6808 N 628.193 1.56834 0.155195 0
M  V30 6809 C 629.604 1.72421 0.716082 0
M  V30 6810 C 629.955 0.731685 1.82046 0
M  V30 6811 O 629.08 -0.103481 2.16152 0
M  V30 6812 C 629.675 3.12629 1.30571 0
M  V30 6813 C 628.234 3.29846 1.81325 0
M  V30 6814 C 627.381 2.68359 0.698494 0
M  V30 6815 H 630.332 1.58544 -0.0703861 0
M  V30 6816 H 630.353 3.12174 2.1755 0
M  V30 6817 H 629.865 3.84844 0.501701 0
M  V30 6818 H 627.966 2.62614 2.64319 0
M  V30 6819 H 628.079 4.37727 1.9476 0
M  V30 6820 H 626.443 2.28604 1.12305 0
M  V30 6821 H 627.226 3.43171 -0.0939366 0
M  V30 6822 N 629.671 -0.424282 1.51781 0
M  V30 6823 C 630.581 -1.54087 1.76902 0
M  V30 6824 C 631.597 -1.61249 0.653826 0
M  V30 6825 O 632.773 -1.78247 0.937552 0
M  V30 6826 C 629.838 -2.8996 1.90063 0
M  V30 6827 C 628.899 -2.92809 3.13945 0
M  V30 6828 C 628.132 -4.22201 3.26469 0
M  V30 6829 O 628.355 -5.15286 2.44616 0
M  V30 6830 O 627.289 -4.31599 4.1953 0
M  V30 6831 H 631.115 -1.358 2.71647 0
M  V30 6832 H 628.7 -0.608618 1.36441 0
M  V30 6833 H 630.582 -3.70575 2.0063 0
M  V30 6834 H 629.257 -3.08347 0.985067 0
M  V30 6835 H 628.164 -2.11102 3.08847 0
M  V30 6836 H 629.497 -2.79369 4.05233 0
M  V30 6837 N 631.149 -1.42148 -0.680565 0
M  V30 6838 C 632.112 -1.4488 -1.77602 0
M  V30 6839 C 633.112 -0.337209 -1.57224 0
M  V30 6840 O 634.302 -0.597778 -1.63622 0
M  V30 6841 C 631.434 -1.27483 -3.16166 0
M  V30 6842 H 632.627 -2.42412 -1.76568 0
M  V30 6843 H 630.18 -1.28511 -0.889645 0
M  V30 6844 H 630.915 -0.30851 -3.22829 0
M  V30 6845 H 630.7 -2.08037 -3.3236 0
M  V30 6846 H 632.19 -1.32265 -3.96101 0
M  V30 6847 N 632.627 0.916307 -1.28225 0
M  V30 6848 C 633.559 2.02303 -1.07732 0
M  V30 6849 C 634.572 1.62773 -0.0298421 0
M  V30 6850 O 635.761 1.76406 -0.272626 0
M  V30 6851 C 632.861 3.33282 -0.614504 0
M  V30 6852 C 632.034 4.01439 -1.73682 0
M  V30 6853 C 631.093 5.10698 -1.26781 0
M  V30 6854 O 630.119 5.34038 -1.96958 0
M  V30 6855 N 631.321 5.80355 -0.129624 0
M  V30 6856 H 634.086 2.20442 -2.03041 0
M  V30 6857 H 631.647 1.08744 -1.19943 0
M  V30 6858 H 633.639 4.03699 -0.284397 0
M  V30 6859 H 632.209 3.11633 0.245664 0
M  V30 6860 H 631.429 3.24604 -2.23665 0
M  V30 6861 H 632.717 4.43721 -2.48976 0
M  V30 6862 H 632.115 5.6386 0.455847 0
M  V30 6863 H 630.672 6.51647 0.141224 0
M  V30 6864 N 634.105 1.10431 1.1244 0
M  V30 6865 C 635.068 0.756542 2.16354 0
M  V30 6866 C 636.068 -0.21899 1.59302 0
M  V30 6867 O 637.258 0.00415969 1.742 0
M  V30 6868 C 634.39 0.120612 3.40687 0
M  V30 6869 H 635.583 1.67696 2.48632 0
M  V30 6870 H 633.136 0.904832 1.27446 0
M  V30 6871 H 633.871 -0.810536 3.14008 0
M  V30 6872 H 633.656 0.822693 3.83372 0
M  V30 6873 H 635.146 -0.106945 4.17463 0
M  V30 6874 N 635.583 -1.29855 0.893053 0
M  V30 6875 C 636.831 -1.9544 0.514566 0
M  V30 6876 C 637.152 -1.70795 -0.940959 0
M  V30 6877 O 636.422 -1.03601 -1.66264 0
M  V30 6878 H 635.002 -0.723137 0.187302 0
M  V30 6879 H 637.664 -1.58234 1.13789 0
M  V30 6880 H 636.76 -3.04341 0.691581 0
M  V30 6881 N 637.061 -0.65484 -1.43351 0
M  V30 6882 C 638.31 -0.166215 -2.01014 0
M  V30 6883 C 638.623 1.22764 -1.52278 0
M  V30 6884 O 639.829 1.81156 -2.02224 0
M  V30 6885 C 638.285 -0.246341 -3.59056 0
M  V30 6886 C 637.893 -1.64299 -4.16785 0
M  V30 6887 C 639.637 0.184597 -4.24098 0
M  V30 6888 C 637.544 -1.67695 -5.67126 0
M  V30 6889 H 636.474 -0.0583769 -0.751737 0
M  V30 6890 H 639.125 -0.817111 -1.64303 0
M  V30 6891 H 637.507 0.472092 -3.93176 0
M  V30 6892 H 638.681 -2.3869 -3.94162 0
M  V30 6893 H 636.996 -2.02004 -3.6412 0
M  V30 6894 H 639.593 0.179088 -5.344 0
M  V30 6895 H 639.936 1.21632 -3.98135 0
M  V30 6896 H 640.469 -0.482141 -3.94867 0
M  V30 6897 H 637.208 -2.68783 -5.9786 0
M  V30 6898 H 636.728 -0.976313 -5.91801 0
M  V30 6899 H 638.407 -1.42142 -6.31193 0
M  V30 6900 N 638.539 1.52521 -0.396863 0
M  V30 6901 C 639.816 1.94112 0.240842 0
M  V30 6902 C 640.196 1.33288 1.637 0
M  V30 6903 O 639.544 0.503901 2.22875 0
M  V30 6904 C 639.754 3.48033 0.259567 0
M  V30 6905 C 641.102 4.21822 0.484866 0
M  V30 6906 O 642.126 3.54579 0.339453 0
M  V30 6907 O 640.985 5.41042 0.770412 0
M  V30 6908 H 638.079 0.812973 0.151671 0
M  V30 6909 H 640.625 1.63572 -0.451918 0
M  V30 6910 H 639.397 3.84655 -0.718078 0
M  V30 6911 H 639.02 3.84899 0.996937 0
M  V30 6912 N 640.017 0.126909 1.57088 0
M  V30 6913 C 640.95 -0.857844 2.11462 0
M  V30 6914 C 641.928 -1.25569 1.03301 0
M  V30 6915 O 643.112 -1.35535 1.31006 0
M  V30 6916 C 640.239 -2.14912 2.61784 0
M  V30 6917 C 639.285 -1.89874 3.81903 0
M  V30 6918 S 640.118 -1.10785 5.23915 0
M  V30 6919 C 641.274 -2.41075 5.7761 0
M  V30 6920 H 641.507 -0.395384 2.94659 0
M  V30 6921 H 639.04 -0.0870151 1.54155 0
M  V30 6922 H 640.998 -2.89101 2.91429 0
M  V30 6923 H 639.659 -2.58275 1.78754 0
M  V30 6924 H 638.852 -2.85572 4.15289 0
M  V30 6925 H 638.454 -1.23802 3.52915 0
M  V30 6926 H 640.746 -3.36864 5.87817 0
M  V30 6927 H 641.689 -2.12223 6.75549 0
M  V30 6928 H 642.097 -2.50804 5.05725 0
M  V30 6929 N 641.495 -1.56914 -0.146875 0
M  V30 6930 C 642.725 -1.87243 -0.873126 0
M  V30 6931 C 643.133 -0.713127 -1.75246 0
M  V30 6932 O 642.476 0.326228 -1.8078 0
M  V30 6933 C 642.538 -3.12279 -1.78107 0
M  V30 6934 C 642.202 -4.44082 -1.07889 0
M  V30 6935 C 643.199 -5.18096 -0.432734 0
M  V30 6936 C 640.884 -4.90807 -1.06836 0
M  V30 6937 C 642.878 -6.37039 0.214569 0
M  V30 6938 C 640.565 -6.09674 -0.417243 0
M  V30 6939 C 641.563 -6.82636 0.223093 0
M  V30 6940 O 641.251 -7.99245 0.863884 0
M  V30 6941 H 640.983 -0.624896 -0.257839 0
M  V30 6942 H 643.537 -2.04892 -0.14434 0
M  V30 6943 H 641.767 -2.90639 -2.5508 0
M  V30 6944 H 643.456 -3.28854 -2.37929 0
M  V30 6945 H 644.222 -4.83066 -0.432677 0
M  V30 6946 H 640.101 -4.3394 -1.55618 0
M  V30 6947 H 643.645 -6.93927 0.714965 0
M  V30 6948 H 639.542 -6.44165 -0.414967 0
M  V30 6949 H 640.31 -8.14912 0.765564 0
M  V30 6950 N 642.974 0.416227 -1.52004 0
M  V30 6951 C 644.22 1.16555 -1.6596 0
M  V30 6952 C 644.553 1.90347 -0.384906 0
M  V30 6953 O 643.828 1.84474 0.616405 0
M  V30 6954 C 644.111 2.1657 -2.87696 0
M  V30 6955 C 643.964 1.46722 -4.25197 0
M  V30 6956 C 645.283 3.17321 -3.04951 0
M  V30 6957 H 642.402 0.422369 -0.603965 0
M  V30 6958 H 645.044 0.452141 -1.84542 0
M  V30 6959 H 643.194 2.77411 -2.71985 0
M  V30 6960 H 644.866 0.89056 -4.52622 0
M  V30 6961 H 643.109 0.769263 -4.26925 0
M  V30 6962 H 643.78 2.19665 -5.0641 0
M  V30 6963 H 646.256 2.66552 -3.19514 0
M  V30 6964 H 645.132 3.84573 -3.91656 0
M  V30 6965 H 645.393 3.84643 -2.17951 0
M  V30 6966 N 644.452 1.42507 0.673017 0
M  V30 6967 C 645.399 1.46124 1.78651 0
M  V30 6968 C 646.369 0.313007 1.63124 0
M  V30 6969 O 647.554 0.517337 1.83653 0
M  V30 6970 C 644.694 1.3711 3.16694 0
M  V30 6971 C 643.807 2.61983 3.43495 0
M  V30 6972 C 642.942 2.45098 4.71275 0
M  V30 6973 C 641.981 3.65336 4.91117 0
M  V30 6974 N 641.118 3.47383 6.10139 0
M  V30 6975 H 645.958 2.4128 1.74895 0
M  V30 6976 H 643.495 1.19788 0.853766 0
M  V30 6977 H 645.453 1.29881 3.96468 0
M  V30 6978 H 644.083 0.45549 3.1957 0
M  V30 6979 H 643.135 2.79571 2.57961 0
M  V30 6980 H 644.447 3.51355 3.5405 0
M  V30 6981 H 643.601 2.35466 5.59143 0
M  V30 6982 H 642.34 1.53219 4.63007 0
M  V30 6983 H 641.345 3.754 4.0169 0
M  V30 6984 H 642.57 4.58199 5.01229 0
M  V30 6985 H 640.516 2.58222 6.0304 0
M  V30 6986 H 640.433 4.30344 6.21563 0
M  V30 6987 H 641.701 3.41565 7.00681 0
M  V30 6988 N 645.93 -0.909495 1.28709 0
M  V30 6989 C 647.178 -1.65577 1.15882 0
M  V30 6990 C 647.499 -1.928 -0.292108 0
M  V30 6991 O 646.769 -1.54716 -1.20166 0
M  V30 6992 H 645.349 -0.613714 0.425869 0
M  V30 6993 H 648.011 -1.09108 1.61498 0
M  V30 6994 H 647.107 -2.61634 1.70159 0
M  V30 6995 N 647.408 -1.11026 -1.11852 0
M  V30 6996 C 648.355 -0.764662 -2.17765 0
M  V30 6997 C 649.325 0.261854 -1.64023 0
M  V30 6998 O 650.51 0.139748 -1.90288 0
M  V30 6999 C 647.65 -0.209317 -3.44465 0
M  V30 7000 C 646.763 -1.29187 -4.12231 0
M  V30 7001 C 645.898 -0.697523 -5.266 0
M  V30 7002 C 644.937 -1.76023 -5.86244 0
M  V30 7003 N 644.074 -1.18569 -6.92016 0
M  V30 7004 H 648.914 -1.67202 -2.46673 0
M  V30 7005 H 646.451 -0.835065 -1.21099 0
M  V30 7006 H 648.409 0.130599 -4.16996 0
M  V30 7007 H 647.039 0.661251 -3.15955 0
M  V30 7008 H 646.091 -1.74881 -3.37818 0
M  V30 7009 H 647.403 -2.09607 -4.52622 0
M  V30 7010 H 646.557 -0.307412 -6.05921 0
M  V30 7011 H 645.296 0.138044 -4.87505 0
M  V30 7012 H 644.301 -2.1597 -5.05606 0
M  V30 7013 H 645.526 -2.59875 -6.27409 0
M  V30 7014 H 643.472 -0.371695 -6.54946 0
M  V30 7015 H 643.389 -1.92666 -7.31038 0
M  V30 7016 H 644.657 -0.82233 -7.7515 0
M  V30 7017 N 648.886 1.2938 -0.899927 0
M  V30 7018 C 650.116 1.99402 -0.540601 0
M  V30 7019 C 650.524 1.67534 0.87914 0
M  V30 7020 O 649.867 0.916821 1.59186 0
M  V30 7021 C 649.929 3.53514 -0.653326 0
M  V30 7022 C 649.593 4.08937 -2.04009 0
M  V30 7023 C 650.59 4.23815 -3.01126 0
M  V30 7024 C 648.275 4.43962 -2.34953 0
M  V30 7025 C 650.269 4.72951 -4.27313 0
M  V30 7026 C 647.956 4.92795 -3.61382 0
M  V30 7027 C 648.954 5.07244 -4.57376 0
M  V30 7028 O 648.642 5.55017 -5.8156 0
M  V30 7029 H 648.374 0.64383 -0.206057 0
M  V30 7030 H 650.928 1.65878 -1.21134 0
M  V30 7031 H 649.158 3.86628 0.0744449 0
M  V30 7032 H 650.847 4.04767 -0.303118 0
M  V30 7033 H 651.613 3.97043 -2.78535 0
M  V30 7034 H 647.492 4.31974 -1.60994 0
M  V30 7035 H 651.036 4.84144 -5.02245 0
M  V30 7036 H 646.933 5.19004 -3.83804 0
M  V30 7037 H 647.701 5.73331 -5.84153 0
M  V30 7038 N 650.364 0.662433 1.43002 0
M  V30 7039 C 651.61 0.179857 2.02001 0
M  V30 7040 C 651.943 -1.20625 1.52195 0
M  V30 7041 O 651.218 -1.80726 0.718911 0
M  V30 7042 C 651.501 0.200845 3.59539 0
M  V30 7043 C 651.354 1.62153 4.19555 0
M  V30 7044 C 652.673 -0.457738 4.37713 0
M  V30 7045 H 649.792 0.0668305 0.733964 0
M  V30 7046 H 652.434 0.84487 1.70182 0
M  V30 7047 H 650.584 -0.365411 3.86778 0
M  V30 7048 H 652.256 2.23908 4.03315 0
M  V30 7049 H 650.499 2.16601 3.75854 0
M  V30 7050 H 651.17 1.58799 5.28665 0
M  V30 7051 H 653.646 0.0241495 4.16093 0
M  V30 7052 H 652.522 -0.412363 5.47349 0
M  V30 7053 H 652.783 -1.53336 4.14657 0
M  V30 7054 N 651.842 -1.52309 0.404946 0
M  V30 7055 C 652.775 -2.23369 -0.467087 0
M  V30 7056 C 653.753 -1.24034 -1.0514 0
M  V30 7057 O 654.937 -1.53071 -1.10006 0
M  V30 7058 C 652.064 -2.95906 -1.64795 0
M  V30 7059 C 651.11 -4.09637 -1.18743 0
M  V30 7060 S 651.943 -5.35273 -0.156022 0
M  V30 7061 C 653.099 -6.11337 -1.34231 0
M  V30 7062 H 653.332 -2.96987 0.136294 0
M  V30 7063 H 650.865 -1.53236 0.189219 0
M  V30 7064 H 652.823 -3.38304 -2.3251 0
M  V30 7065 H 651.484 -2.21937 -2.22267 0
M  V30 7066 H 650.677 -4.59549 -2.06955 0
M  V30 7067 H 650.279 -3.69333 -0.588981 0
M  V30 7068 H 652.571 -6.38458 -2.26665 0
M  V30 7069 H 653.514 -7.02563 -0.883804 0
M  V30 7070 H 653.922 -5.42338 -1.56621 0
M  V30 7071 N 653.32 -0.135238 -1.57019 0
M  V30 7072 C 654.731 0.387521 -1.82634 0
M  V30 7073 C 655.082 1.65528 -1.05332 0
M  V30 7074 O 654.207 2.14381 -0.294926 0
M  V30 7075 C 654.802 0.709852 -3.3128 0
M  V30 7076 C 653.361 1.17718 -3.57518 0
M  V30 7077 C 652.508 0.194183 -2.76619 0
M  V30 7078 H 655.459 -0.360126 -1.5456 0
M  V30 7079 H 655.48 1.5657 -3.46794 0
M  V30 7080 H 654.992 -0.213024 -3.87515 0
M  V30 7081 H 653.093 2.1164 -3.06658 0
M  V30 7082 H 653.206 1.11128 -4.66034 0
M  V30 7083 H 651.57 0.684478 -2.4533 0
M  V30 7084 H 652.353 -0.722076 -3.3562 0
M  V30 7085 N 654.798 1.5699 0.138552 0
M  V30 7086 C 656.046 1.83446 0.848053 0
M  V30 7087 C 656.367 0.71744 1.81322 0
M  V30 7088 O 655.637 -0.260228 1.94164 0
M  V30 7089 H 654.217 0.676792 0.316166 0
M  V30 7090 H 656.879 1.94462 0.130538 0
M  V30 7091 H 655.975 2.78677 1.40518 0
M  V30 7092 N 656.276 -0.40816 1.52223 0
M  V30 7093 C 657.523 -1.15502 1.66329 0
M  V30 7094 C 657.851 -1.90474 0.393701 0
M  V30 7095 O 657.106 -1.85507 -0.623356 0
M  V30 7096 C 657.405 -2.17422 2.83659 0
M  V30 7097 C 657.071 -1.5925 4.21841 0
M  V30 7098 C 655.733 -1.4311 4.59427 0
M  V30 7099 C 658.085 -1.16776 5.0795 0
M  V30 7100 C 655.413 -0.830148 5.80797 0
M  V30 7101 C 657.765 -0.580988 6.29926 0
M  V30 7102 C 656.429 -0.406729 6.6626 0
M  V30 7103 H 655.699 -0.422653 0.608642 0
M  V30 7104 H 658.346 -0.442114 1.86327 0
M  V30 7105 H 656.651 -2.94861 2.58001 0
M  V30 7106 H 658.348 -2.75084 2.9177 0
M  V30 7107 H 654.938 -1.72796 3.92224 0
M  V30 7108 H 659.122 -1.28055 4.79495 0
M  V30 7109 H 654.378 -0.68316 6.07571 0
M  V30 7110 H 658.552 -0.243488 6.95974 0
M  V30 7111 H 656.179 0.0610366 7.60175 0
M  V30 7112 N 657.755 -1.42862 -0.66545 0
M  V30 7113 C 658.665 -1.49491 -1.80803 0
M  V30 7114 C 659.681 -0.382914 -1.69734 0
M  V30 7115 O 660.857 -0.635223 -1.9112 0
M  V30 7116 C 657.922 -1.40383 -3.17007 0
M  V30 7117 C 656.983 -2.62152 -3.39963 0
M  V30 7118 C 656.216 -2.53469 -4.69669 0
M  V30 7119 O 656.439 -1.57568 -5.48205 0
M  V30 7120 O 655.373 -3.43763 -4.94075 0
M  V30 7121 H 659.199 -2.45949 -1.78165 0
M  V30 7122 H 656.784 -1.24728 -0.822387 0
M  V30 7123 H 658.666 -1.377 -3.98267 0
M  V30 7124 H 657.341 -0.470546 -3.20262 0
M  V30 7125 H 656.248 -2.70409 -2.58515 0
M  V30 7126 H 657.581 -3.54411 -3.41546 0
M  V30 7127 N 659.233 0.902656 -1.29189 0
M  V30 7128 C 660.481 1.6496 -1.16758 0
M  V30 7129 C 660.802 1.92952 0.28188 0
M  V30 7130 O 660.072 1.55351 1.19344 0
M  V30 7131 H 658.652 0.611447 -0.429118 0
M  V30 7132 H 661.314 1.0825 -1.62074 0
M  V30 7133 H 660.41 2.60728 -1.71544 0
M  V30 7134 N 660.711 1.11618 1.11262 0
M  V30 7135 C 661.957 0.867463 1.83311 0
M  V30 7136 C 662.29 -0.605366 1.84524 0
M  V30 7137 O 661.565 -1.44704 1.29965 0
M  V30 7138 C 661.848 1.43207 3.30399 0
M  V30 7139 C 661.701 2.97265 3.3757 0
M  V30 7140 C 663.02 1.08454 4.26528 0
M  V30 7141 H 660.139 0.316578 0.665543 0
M  V30 7142 H 662.781 1.38137 1.30454 0
M  V30 7143 H 660.931 0.994982 3.75543 0
M  V30 7144 H 662.603 3.49591 3.00971 0
M  V30 7145 H 660.846 3.33237 2.77733 0
M  V30 7146 H 661.517 3.31859 4.41105 0
M  V30 7147 H 663.993 1.4619 3.89574 0
M  V30 7148 H 662.869 1.50633 5.27826 0
M  V30 7149 H 663.13 -0.00444568 4.421 0
M  V30 7150 N 662.189 -1.289 0.906776 0
M  V30 7151 C 663.137 -2.29477 0.379873 0
M  V30 7152 C 664.131 -1.61068 -0.524747 0
M  V30 7153 O 665.337 -1.75344 -0.406765 0
M  V30 7154 H 661.712 -0.744742 0.10423 0
M  V30 7155 H 663.683 -2.71353 1.24137 0
M  V30 7156 C 662.432 -3.45713 -0.371154 0
M  V30 7157 H 661.755 -3.98551 0.315716 0
M  V30 7158 H 663.195 -4.18105 -0.704581 0
M  V30 7159 C 661.654 -2.9774 -1.57646 0
M  V30 7160 O 662.184 -2.99618 -2.67567 0
M  V30 7161 N 660.39 -2.53485 -1.42105 0
M  V30 7162 H 659.937 -2.52156 -0.526783 0
M  V30 7163 H 659.895 -2.21747 -2.22881 0
M  V30 7164 N 663.667 -0.670007 -1.42649 0
M  V30 7165 C 664.6 0.0613623 -2.28117 0
M  V30 7166 C 665.578 0.813414 -1.40792 0
M  V30 7167 O 666.762 0.809529 -1.70232 0
M  V30 7168 C 663.889 1.09399 -3.20546 0
M  V30 7169 C 662.935 0.438064 -4.24244 0
M  V30 7170 S 663.768 -0.800808 -5.29478 0
M  V30 7171 C 664.924 0.23086 -6.25474 0
M  V30 7172 H 665.157 -0.663606 -2.89799 0
M  V30 7173 H 662.69 -0.45939 -1.47407 0
M  V30 7174 H 664.648 1.68469 -3.74337 0
M  V30 7175 H 663.309 1.79137 -2.58009 0
M  V30 7176 H 662.502 1.21707 -4.89084 0
M  V30 7177 H 662.104 -0.0789346 -3.73917 0
M  V30 7178 H 664.396 1.09204 -6.68641 0
M  V30 7179 H 665.339 -0.382945 -7.07064 0
M  V30 7180 H 665.747 0.574191 -5.61572 0
M  V30 7181 N 665.145 1.52092 -0.413018 0
M  V30 7182 C 666.373 2.06274 0.160881 0
M  V30 7183 C 666.788 1.28273 1.38533 0
M  V30 7184 O 666.145 0.33563 1.79387 0
M  V30 7185 C 666.196 3.57921 0.507443 0
M  V30 7186 O 665.917 4.32971 -0.668388 0
M  V30 7187 C 667.418 4.28533 1.13465 0
M  V30 7188 H 664.638 0.67074 0.0186759 0
M  V30 7189 H 667.182 1.95951 -0.585092 0
M  V30 7190 H 665.337 3.68238 1.20331 0
M  V30 7191 H 665.751 5.23135 -0.378169 0
M  V30 7192 H 667.225 5.35804 1.32732 0
M  V30 7193 H 667.702 3.85258 2.10886 0
M  V30 7194 H 668.308 4.22595 0.478876 0
M  V30 7195 N 666.623 0.143563 1.56945 0
M  V30 7196 C 668.039 -0.212877 1.58174 0
M  V30 7197 C 668.239 -1.64926 1.15766 0
M  V30 7198 O 667.295 -2.37535 0.856361 0
M  V30 7199 C 668.608 0.0427573 3.0067 0
M  V30 7200 C 670.156 -0.0212221 3.12993 0
M  V30 7201 C 670.631 0.207036 4.57532 0
M  V30 7202 N 672.122 0.153845 4.62944 0
M  V30 7203 C 672.857 0.305018 5.72588 0
M  V30 7204 N 672.353 0.513722 6.90893 0
M  V30 7205 N 674.146 0.242862 5.61575 0
M  V30 7206 H 666.297 1.08148 1.82805 0
M  V30 7207 H 668.56 0.427831 0.84597 0
M  V30 7208 H 668.266 1.03672 3.36073 0
M  V30 7209 H 668.14 -0.678195 3.71053 0
M  V30 7210 H 670.527 -1.00574 2.77433 0
M  V30 7211 H 670.608 0.732004 2.45103 0
M  V30 7212 H 670.252 1.18863 4.93795 0
M  V30 7213 H 670.182 -0.566473 5.23544 0
M  V30 7214 H 672.673 -0.00294866 3.779 0
M  V30 7215 H 672.986 0.619273 7.70315 0
M  V30 7216 H 671.331 0.550001 6.9282 0
M  V30 7217 H 674.522 0.0806015 4.68031 0
M  V30 7218 H 674.695 0.364112 6.46976 0
M  V30 7219 N 668.101 -1.57061 -0.130224 0
M  V30 7220 C 669.011 -2.02802 -1.17934 0
M  V30 7221 C 670.027 -0.946378 -1.46013 0
M  V30 7222 O 671.203 -1.25708 -1.57351 0
M  V30 7223 C 668.268 -2.41368 -2.48882 0
M  V30 7224 C 667.329 -3.63561 -2.28301 0
M  V30 7225 C 666.562 -4.00279 -3.53005 0
M  V30 7226 O 666.785 -3.37463 -4.59864 0
M  V30 7227 O 665.719 -4.93441 -3.44673 0
M  V30 7228 H 669.545 -2.92394 -0.820958 0
M  V30 7229 H 667.13 -1.45475 -0.340197 0
M  V30 7230 H 669.012 -2.66958 -3.26054 0
M  V30 7231 H 667.687 -1.54926 -2.84217 0
M  V30 7232 H 666.594 -3.43136 -1.49025 0
M  V30 7233 H 667.927 -4.50673 -1.97875 0
M  V30 7234 N 669.579 0.400081 -1.52437 0
M  V30 7235 C 670.489 1.51253 -1.79331 0
M  V30 7236 C 671.505 1.60188 -0.679396 0
M  V30 7237 O 672.681 1.76733 -0.965791 0
M  V30 7238 C 669.746 2.869 -1.94652 0
M  V30 7239 C 668.807 2.87777 -3.18564 0
M  V30 7240 C 668.04 4.16954 -3.33145 0
M  V30 7241 O 668.263 5.11329 -2.52783 0
M  V30 7242 O 667.197 4.2487 -4.26343 0
M  V30 7243 H 671.023 1.31461 -2.73773 0
M  V30 7244 H 668.608 0.586834 -1.37392 0
M  V30 7245 H 670.49 3.67336 -2.065 0
M  V30 7246 H 669.165 3.06741 -1.034 0
M  V30 7247 H 668.072 2.06162 -3.12167 0
M  V30 7248 H 669.405 2.72886 -4.09627 0
M  V30 7249 N 671.057 1.43213 0.657864 0
M  V30 7250 C 672.473 1.26511 0.972992 0
M  V30 7251 C 672.673 0.181477 2.00681 0
M  V30 7252 O 671.729 -0.441649 2.48608 0
M  V30 7253 C 673.042 2.62784 1.46168 0
M  V30 7254 C 674.59 2.70278 1.57857 0
M  V30 7255 C 675.065 4.06958 2.10117 0
M  V30 7256 N 676.556 4.08999 2.17426 0
M  V30 7257 C 677.291 5.11585 2.58975 0
M  V30 7258 N 676.787 6.24548 2.99853 0
M  V30 7259 N 678.58 4.9894 2.58873 0
M  V30 7260 H 670.731 2.12384 -0.0263129 0
M  V30 7261 H 672.994 0.946638 0.0507992 0
M  V30 7262 H 672.7 3.43022 0.776474 0
M  V30 7263 H 672.574 2.87863 2.43751 0
M  V30 7264 H 674.961 1.90376 2.25479 0
M  V30 7265 H 675.042 2.4897 0.587179 0
M  V30 7266 H 674.686 4.87325 1.43098 0
M  V30 7267 H 674.616 4.25628 3.10078 0
M  V30 7268 H 677.107 3.27457 1.88627 0
M  V30 7269 H 677.42 6.98661 3.30292 0
M  V30 7270 H 675.765 6.28027 2.97669 0
M  V30 7271 H 678.956 4.09757 2.26311 0
M  V30 7272 H 679.129 5.79019 2.90932 0
M  V30 7273 N 672.536 -0.895792 1.29666 0
M  V30 7274 C 673.499 -1.98189 1.15124 0
M  V30 7275 C 674.499 -1.60572 0.0855717 0
M  V30 7276 O 675.689 -1.70991 0.332826 0
M  V30 7277 C 672.821 -3.32289 0.761372 0
M  V30 7278 H 674.014 -2.12518 2.11603 0
M  V30 7279 H 671.567 -1.0808 1.12908 0
M  V30 7280 H 672.302 -3.23662 -0.203393 0
M  V30 7281 H 672.087 -3.60958 1.53139 0
M  V30 7282 H 673.577 -4.1198 0.682792 0
M  V30 7283 N 674.014 -1.12206 -1.10668 0
M  V30 7284 C 675.263 -0.870595 -1.81944 0
M  V30 7285 C 675.576 0.605447 -1.85994 0
M  V30 7286 O 676.782 0.973433 -2.53449 0
M  V30 7287 C 675.238 -1.50783 -3.26791 0
M  V30 7288 C 674.846 -3.01849 -3.31046 0
M  V30 7289 C 676.59 -1.33653 -4.02911 0
M  V30 7290 C 674.497 -3.58518 -4.70339 0
M  V30 7291 H 673.427 -0.322043 -0.681765 0
M  V30 7292 H 676.078 -1.34827 -1.24475 0
M  V30 7293 H 674.46 -0.957825 -3.84242 0
M  V30 7294 H 675.634 -3.63321 -2.83433 0
M  V30 7295 H 673.949 -3.18346 -2.68411 0
M  V30 7296 H 676.546 -1.73416 -5.05797 0
M  V30 7297 H 676.889 -0.279949 -4.15358 0
M  V30 7298 H 677.422 -1.85562 -3.51868 0
M  V30 7299 H 674.161 -4.63925 -4.63091 0
M  V30 7300 H 673.681 -3.01819 -5.18329 0
M  V30 7301 H 675.36 -3.57434 -5.39305 0
M  V30 7302 N 675.492 1.28418 -0.913599 0
M  V30 7303 C 676.722 1.98817 -0.56172 0
M  V30 7304 C 677.13 1.68457 0.861321 0
M  V30 7305 O 676.473 0.933653 1.58204 0
M  V30 7306 C 676.535 3.52801 -0.690785 0
M  V30 7307 C 676.199 4.0675 -2.08334 0
M  V30 7308 C 677.196 4.20597 -3.05604 0
M  V30 7309 C 674.881 4.41445 -2.39648 0
M  V30 7310 C 676.875 4.68392 -4.32305 0
M  V30 7311 C 674.562 4.88934 -3.66588 0
M  V30 7312 C 675.56 5.02364 -4.6273 0
M  V30 7313 O 675.248 5.48817 -5.87414 0
M  V30 7314 H 674.98 0.641608 -0.212874 0
M  V30 7315 H 677.534 1.64584 -1.22887 0
M  V30 7316 H 675.764 3.86686 0.0334336 0
M  V30 7317 H 677.453 4.04422 -0.346031 0
M  V30 7318 H 678.219 3.94067 -2.8273 0
M  V30 7319 H 674.098 4.30242 -1.65567 0
M  V30 7320 H 677.642 4.7879 -5.07352 0
M  V30 7321 H 673.539 5.14904 -3.89287 0
M  V30 7322 H 674.307 5.67103 -5.90201 0
M  V30 7323 N 676.97 0.677563 1.42291 0
M  V30 7324 C 678.247 0.129803 1.95169 0
M  V30 7325 C 678.627 -1.35605 1.61786 0
M  V30 7326 O 677.975 -2.09361 0.915444 0
M  V30 7327 C 678.185 0.401889 3.46678 0
M  V30 7328 C 679.533 0.319889 4.23393 0
M  V30 7329 O 680.557 0.33579 3.54614 0
M  V30 7330 O 679.416 0.264459 5.4586 0
M  V30 7331 H 676.51 0.00447433 0.826988 0
M  V30 7332 H 679.056 0.752483 1.52105 0
M  V30 7333 H 677.828 1.43108 3.64192 0
M  V30 7334 H 677.451 -0.252662 3.96796 0
M  V30 7335 N 678.448 -1.51871 0.421078 0
M  V30 7336 C 679.395 -2.27334 -0.398508 0
M  V30 7337 C 680.365 -1.30241 -1.03085 0
M  V30 7338 O 681.55 -1.59121 -1.05285 0
M  V30 7339 C 678.69 -3.10664 -1.50272 0
M  V30 7340 C 677.803 -4.2273 -0.890122 0
M  V30 7341 C 676.938 -4.93399 -1.96803 0
M  V30 7342 C 675.977 -5.97409 -1.333 0
M  V30 7343 N 675.114 -6.61548 -2.35156 0
M  V30 7344 H 679.954 -2.96938 0.251411 0
M  V30 7345 H 677.491 -1.46472 0.135825 0
M  V30 7346 H 679.449 -3.57292 -2.15403 0
M  V30 7347 H 678.079 -2.43207 -2.1225 0
M  V30 7348 H 677.131 -3.80186 -0.127537 0
M  V30 7349 H 678.443 -4.97302 -0.386349 0
M  V30 7350 H 677.597 -5.43491 -2.69633 0
M  V30 7351 H 676.336 -4.18421 -2.50549 0
M  V30 7352 H 675.341 -5.46624 -0.59008 0
M  V30 7353 H 676.566 -6.74335 -0.803076 0
M  V30 7354 H 674.512 -5.89394 -2.88012 0
M  V30 7355 H 674.429 -7.31832 -1.89624 0
M  V30 7356 H 675.697 -7.16276 -3.0752 0
M  V30 7357 N 679.926 -0.151884 -1.56866 0
M  V30 7358 C 681.156 0.504081 -2.00356 0
M  V30 7359 C 681.564 1.58639 -1.03103 0
M  V30 7360 O 680.907 1.83688 -0.0207931 0
M  V30 7361 C 680.969 1.15975 -3.40279 0
M  V30 7362 C 680.633 0.221453 -4.56463 0
M  V30 7363 C 681.63 -0.552766 -5.16953 0
M  V30 7364 C 679.315 0.122936 -5.0215 0
M  V30 7365 C 681.309 -1.4129 -6.21543 0
M  V30 7366 C 678.996 -0.740801 -6.06593 0
M  V30 7367 C 679.994 -1.50732 -6.6616 0
M  V30 7368 O 679.682 -2.35666 -7.68581 0
M  V30 7369 H 679.414 0.135279 -0.662326 0
M  V30 7370 H 681.968 -0.244916 -2.03935 0
M  V30 7371 H 680.198 1.95649 -3.33554 0
M  V30 7372 H 681.887 1.71594 -3.67846 0
M  V30 7373 H 682.653 -0.486716 -4.82552 0
M  V30 7374 H 678.532 0.70931 -4.5551 0
M  V30 7375 H 682.076 -2.01166 -6.67966 0
M  V30 7376 H 677.973 -0.808125 -6.40421 0
M  V30 7377 H 678.741 -2.28967 -7.85822 0
M  V30 7378 N 681.404 1.57128 0.121893 0
M  V30 7379 C 682.65 1.85853 0.826451 0
M  V30 7380 C 683.005 0.739262 1.77631 0
M  V30 7381 O 682.298 -0.260959 1.89815 0
M  V30 7382 C 682.492 3.1874 1.61677 0
M  V30 7383 C 682.321 4.43487 0.744944 0
M  V30 7384 C 681.091 5.03707 0.400891 0
M  V30 7385 C 683.289 5.1426 0.0638779 0
M  V30 7386 N 681.271 6.12006 -0.481902 0
M  V30 7387 C 682.642 6.16281 -0.678033 0
M  V30 7388 C 684.697 4.97898 -0.0128424 0
M  V30 7389 C 683.4 7.0371 -1.48946 0
M  V30 7390 C 685.426 5.85812 -0.81108 0
M  V30 7391 C 684.788 6.87333 -1.54119 0
M  V30 7392 H 680.887 0.730367 0.279442 0
M  V30 7393 H 683.471 1.9449 0.0903486 0
M  V30 7394 H 681.642 3.11204 2.32393 0
M  V30 7395 H 683.374 3.35283 2.26644 0
M  V30 7396 H 680.129 4.67744 0.742469 0
M  V30 7397 H 680.553 6.70787 -0.915063 0
M  V30 7398 H 685.195 4.19372 0.537278 0
M  V30 7399 H 682.913 7.81646 -2.05074 0
M  V30 7400 H 686.499 5.75217 -0.872764 0
M  V30 7401 H 685.379 7.54182 -2.14893 0
M  V30 7402 N 682.882 -0.391992 1.52647 0
M  V30 7403 C 683.845 -1.46135 1.7657 0
M  V30 7404 C 684.845 -1.47701 0.635698 0
M  V30 7405 O 686.035 -1.48924 0.903728 0
M  V30 7406 C 683.167 -2.85443 1.86374 0
M  V30 7407 H 684.36 -1.26208 2.72051 0
M  V30 7408 H 681.913 -0.623549 1.43323 0
M  V30 7409 H 682.648 -3.10718 0.928685 0
M  V30 7410 H 682.433 -2.85708 2.68539 0
M  V30 7411 H 683.923 -3.62933 2.06566 0
M  V30 7412 N 684.36 -1.4356 -0.65026 0
M  V30 7413 C 685.637 -1.35811 -1.40765 0
M  V30 7414 C 686.017 -0.00736379 -2.11099 0
M  V30 7415 O 685.365 1.00932 -2.05 0
M  V30 7416 C 685.575 -2.54332 -2.3899 0
M  V30 7417 C 686.923 -2.97551 -3.02901 0
M  V30 7418 O 687.947 -2.544 -2.49317 0
M  V30 7419 O 686.806 -3.72311 -4.00059 0
M  V30 7420 H 683.9 -0.536861 -0.629054 0
M  V30 7421 H 686.446 -1.55615 -0.676919 0
M  V30 7422 H 685.218 -3.44274 -1.85986 0
M  V30 7423 H 684.841 -2.36643 -3.19509 0
M  V30 7424 N 685.838 0.888903 -1.30139 0
M  V30 7425 C 687.084 1.6428 -1.18912 0
M  V30 7426 C 687.417 1.92499 0.256477 0
M  V30 7427 O 686.692 1.54312 1.18397 0
M  V30 7428 C 686.975 2.9851 -2.01405 0
M  V30 7429 C 686.828 2.77288 -3.54163 0
M  V30 7430 C 688.147 3.99383 -1.84882 0
M  V30 7431 H 685.266 0.596148 -0.433333 0
M  V30 7432 H 687.908 1.0289 -1.5973 0
M  V30 7433 H 686.058 3.50907 -1.66722 0
M  V30 7434 H 687.73 2.31709 -3.98884 0
M  V30 7435 H 685.973 2.11867 -3.78543 0
M  V30 7436 H 686.644 3.72717 -4.07168 0
M  V30 7437 H 689.12 3.56132 -2.15196 0
M  V30 7438 H 687.996 4.91222 -2.44934 0
M  V30 7439 H 688.257 4.34674 -0.806902 0
M  V30 7440 N 687.317 1.12792 1.10072 0
M  V30 7441 C 688.733 0.864745 1.34143 0
M  V30 7442 C 688.933 -0.503201 1.95116 0
M  V30 7443 O 687.989 -1.25111 2.19325 0
M  V30 7444 C 689.302 1.98413 2.25949 0
M  V30 7445 C 690.85 2.01545 2.39476 0
M  V30 7446 C 691.325 3.12727 3.34613 0
M  V30 7447 N 692.816 3.12194 3.42183 0
M  V30 7448 C 693.551 3.94862 4.15779 0
M  V30 7449 N 693.047 4.87528 4.92228 0
M  V30 7450 N 694.84 3.82985 4.11435 0
M  V30 7451 H 686.991 2.00926 0.68866 0
M  V30 7452 H 689.254 0.874564 0.365844 0
M  V30 7453 H 688.96 2.97005 1.88364 0
M  V30 7454 H 688.834 1.89254 3.26287 0
M  V30 7455 H 691.221 1.0357 2.76328 0
M  V30 7456 H 691.302 2.14777 1.3894 0
M  V30 7457 H 690.946 4.10936 2.98486 0
M  V30 7458 H 690.876 2.96732 4.35037 0
M  V30 7459 H 693.367 2.45065 2.87666 0
M  V30 7460 H 693.68 5.47109 5.45794 0
M  V30 7461 H 692.025 4.91539 4.9134 0
M  V30 7462 H 695.216 3.09923 3.50807 0
M  V30 7463 H 695.389 4.47641 4.68531 0
M  V30 7464 N 688.795 -1.27931 0.920396 0
M  V30 7465 C 690.023 -1.98805 0.573087 0
M  V30 7466 C 690.438 -1.68724 -0.847201 0
M  V30 7467 O 689.795 -0.943699 -1.56207 0
M  V30 7468 C 689.846 -3.52971 0.780633 0
M  V30 7469 O 689.567 -3.81994 2.14504 0
M  V30 7470 C 691.068 -4.411 0.44105 0
M  V30 7471 H 688.288 -0.634651 0.21785 0
M  V30 7472 H 690.832 -1.62965 1.23542 0
M  V30 7473 H 688.987 -3.87048 0.165204 0
M  V30 7474 H 689.401 -4.76609 2.18962 0
M  V30 7475 H 690.875 -5.48312 0.637006 0
M  V30 7476 H 691.352 -4.34758 -0.62306 0
M  V30 7477 H 691.958 -4.12532 1.0343 0
M  V30 7478 N 690.273 -0.685099 -1.4193 0
M  V30 7479 C 691.503 -0.220052 -2.05425 0
M  V30 7480 C 691.911 1.13185 -1.51611 0
M  V30 7481 O 691.254 1.71631 -0.654875 0
M  V30 7482 C 691.316 -0.0888364 -3.5939 0
M  V30 7483 C 690.98 -1.37109 -4.35947 0
M  V30 7484 C 691.977 -2.30675 -4.65924 0
M  V30 7485 C 689.662 -1.62155 -4.75406 0
M  V30 7486 C 691.656 -3.47556 -5.34306 0
M  V30 7487 C 689.343 -2.79324 -5.43527 0
M  V30 7488 C 690.341 -3.71848 -5.72903 0
M  V30 7489 O 690.029 -4.86966 -6.39624 0
M  V30 7490 H 689.761 -0.102165 -0.668235 0
M  V30 7491 H 692.315 -0.935194 -1.82875 0
M  V30 7492 H 690.545 0.681981 -3.80639 0
M  V30 7493 H 692.234 0.337669 -4.04493 0
M  V30 7494 H 693 -2.12579 -4.3593 0
M  V30 7495 H 688.879 -0.910053 -4.51928 0
M  V30 7496 H 692.423 -4.19794 -5.57153 0
M  V30 7497 H 688.32 -2.97342 -5.72938 0
M  V30 7498 H 689.088 -4.86644 -6.58118 0
M  V30 7499 N 691.751 1.51645 -0.429126 0
M  V30 7500 C 692.684 2.24083 0.431492 0
M  V30 7501 C 693.662 1.25691 1.03153 0
M  V30 7502 O 694.846 1.54802 1.07557 0
M  V30 7503 C 691.973 2.9849 1.60067 0
M  V30 7504 C 691.019 4.11474 1.12211 0
M  V30 7505 S 691.852 5.35453 0.0708449 0
M  V30 7506 C 693.008 6.13395 1.24488 0
M  V30 7507 H 693.241 2.96733 -0.183525 0
M  V30 7508 H 690.774 1.52916 -0.213574 0
M  V30 7509 H 692.732 3.4196 2.27099 0
M  V30 7510 H 691.393 2.25445 2.18708 0
M  V30 7511 H 690.586 4.62784 1.99618 0
M  V30 7512 H 690.188 3.70223 0.530149 0
M  V30 7513 H 692.48 6.41984 2.16479 0
M  V30 7514 H 693.423 7.0388 0.771921 0
M  V30 7515 H 693.831 5.44761 1.47973 0
M  V30 7516 N 693.229 0.160201 1.56784 0
M  V30 7517 C 694.459 -0.493449 2.00621 0
M  V30 7518 C 694.867 -1.5809 1.03943 0
M  V30 7519 O 694.21 -1.83675 0.0305343 0
M  V30 7520 C 694.272 -1.14169 3.4089 0
M  V30 7521 C 693.936 -0.197243 4.56574 0
M  V30 7522 C 694.933 0.580174 5.16653 0
M  V30 7523 C 692.618 -0.0963038 5.02208 0
M  V30 7524 C 694.612 1.44584 6.20785 0
M  V30 7525 C 692.299 0.772959 6.06192 0
M  V30 7526 C 693.297 1.54263 6.65351 0
M  V30 7527 O 692.985 2.39738 7.67321 0
M  V30 7528 H 692.717 -0.131764 0.663034 0
M  V30 7529 H 695.271 0.255728 2.03802 0
M  V30 7530 H 693.501 -1.93877 3.34587 0
M  V30 7531 H 695.19 -1.69641 3.6875 0
M  V30 7532 H 695.956 0.5123 4.82287 0
M  V30 7533 H 691.835 -0.685143 4.5588 0
M  V30 7534 H 695.379 2.04706 6.66889 0
M  V30 7535 H 691.276 0.842077 6.39984 0
M  V30 7536 H 692.044 2.33131 7.84597 0
M  V30 7537 N 694.707 -1.5719 -0.113559 0
M  V30 7538 C 695.617 -2.04041 -1.15777 0
M  V30 7539 C 696.633 -0.961812 -1.45001 0
M  V30 7540 O 697.809 -1.2737 -1.56009 0
M  V30 7541 C 694.874 -2.43994 -2.46308 0
M  V30 7542 C 693.935 -3.65962 -2.24433 0
M  V30 7543 C 693.168 -4.04 -3.4874 0
M  V30 7544 O 693.391 -3.42321 -4.56259 0
M  V30 7545 O 692.325 -4.97069 -3.3942 0
M  V30 7546 H 696.151 -2.93248 -0.789899 0
M  V30 7547 H 693.736 -1.45828 -0.324748 0
M  V30 7548 H 695.618 -2.70401 -3.23204 0
M  V30 7549 H 694.293 -1.57932 -2.82558 0
M  V30 7550 H 693.2 -3.44697 -1.45377 0
M  V30 7551 H 694.533 -4.52746 -1.93084 0
M  V30 7552 N 696.185 0.383891 -1.52853 0
M  V30 7553 C 697.118 1.49105 -1.72751 0
M  V30 7554 C 698.096 1.52077 -0.575438 0
M  V30 7555 O 699.28 1.70406 -0.805854 0
M  V30 7556 C 696.407 2.87551 -1.78975 0
M  V30 7557 C 695.453 3.02383 -3.00777 0
M  V30 7558 S 696.286 2.73048 -4.60657 0
M  V30 7559 C 697.442 4.13678 -4.69704 0
M  V30 7560 H 697.675 1.32002 -2.66388 0
M  V30 7561 H 695.208 0.577088 -1.4321 0
M  V30 7562 H 697.166 3.6733 -1.83246 0
M  V30 7563 H 695.827 3.01977 -0.864215 0
M  V30 7564 H 695.02 4.03733 -3.01688 0
M  V30 7565 H 694.622 2.30504 -2.94523 0
M  V30 7566 H 696.914 5.07676 -4.48633 0
M  V30 7567 H 697.857 4.1778 -5.71721 0
M  V30 7568 H 698.265 3.99825 -3.98497 0
M  V30 7569 N 697.663 1.43903 0.642637 0
M  V30 7570 C 698.911 1.45791 1.39962 0
M  V30 7571 C 699.232 0.0873144 1.94804 0
M  V30 7572 O 698.502 -0.878825 1.75081 0
M  V30 7573 H 697.082 0.536797 0.519479 0
M  V30 7574 H 699.744 1.7959 0.757189 0
M  V30 7575 H 698.84 2.17665 2.2367 0
M  V30 7576 N 699.141 -0.881989 1.30609 0
M  V30 7577 C 700.073 -1.99375 1.13058 0
M  V30 7578 C 701.086 -1.62636 0.0729879 0
M  V30 7579 O 702.275 -1.75621 0.319301 0
M  V30 7580 C 699.375 -3.31536 0.702651 0
M  V30 7581 C 698.548 -3.96693 1.84265 0
M  V30 7582 C 697.607 -5.07158 1.40277 0
M  V30 7583 O 696.633 -5.28628 2.11048 0
M  V30 7584 N 697.835 -5.79808 0.283449 0
M  V30 7585 H 700.6 -2.14981 2.08814 0
M  V30 7586 H 698.161 -1.05526 1.22784 0
M  V30 7587 H 700.153 -4.02804 0.391331 0
M  V30 7588 H 698.723 -3.12175 -0.162954 0
M  V30 7589 H 697.943 -3.1856 2.32192 0
M  V30 7590 H 699.231 -4.36964 2.60653 0
M  V30 7591 H 698.629 -5.64871 -0.306189 0
M  V30 7592 H 697.186 -6.51792 0.0315985 0
M  V30 7593 N 700.619 -1.13374 -1.09472 0
M  V30 7594 C 701.582 -0.813639 -2.14272 0
M  V30 7595 C 702.582 0.176677 -1.59826 0
M  V30 7596 O 703.772 -0.0503441 -1.74127 0
M  V30 7597 C 700.904 -0.210897 -3.40247 0
M  V30 7598 H 702.097 -1.74229 -2.44099 0
M  V30 7599 H 699.65 -0.938304 -1.25002 0
M  V30 7600 H 700.385 0.726998 -3.16046 0
M  V30 7601 H 700.17 -0.924048 -3.81056 0
M  V30 7602 H 701.66 -0.00377603 -4.176 0
M  V30 7603 N 702.098 1.27442 -0.927168 0
M  V30 7604 C 703.344 1.95025 -0.577651 0
M  V30 7605 C 703.699 1.71534 0.871421 0
M  V30 7606 O 702.992 1.03354 1.61333 0
M  V30 7607 C 703.186 3.47413 -0.838994 0
M  V30 7608 C 703.015 3.85721 -2.31192 0
M  V30 7609 C 701.785 4.09199 -2.96452 0
M  V30 7610 C 703.983 3.95352 -3.28939 0
M  V30 7611 N 701.965 4.34283 -4.33903 0
M  V30 7612 C 703.336 4.24805 -4.51598 0
M  V30 7613 C 705.391 3.77926 -3.24155 0
M  V30 7614 C 704.094 4.38645 -5.70073 0
M  V30 7615 C 706.12 3.9299 -4.41942 0
M  V30 7616 C 705.482 4.22829 -5.63379 0
M  V30 7617 H 701.581 0.736983 -0.261495 0
M  V30 7618 H 704.165 1.53816 -1.19368 0
M  V30 7619 H 702.336 3.87581 -0.252129 0
M  V30 7620 H 704.068 4.02166 -0.452158 0
M  V30 7621 H 700.823 4.04013 -2.47125 0
M  V30 7622 H 701.247 4.50883 -5.05008 0
M  V30 7623 H 705.889 3.53897 -2.31337 0
M  V30 7624 H 703.607 4.615 -6.63358 0
M  V30 7625 H 707.193 3.80926 -4.39757 0
M  V30 7626 H 706.073 4.34234 -6.53001 0
M  V30 7627 N 703.576 0.692616 1.41565 0
M  V30 7628 C 704.822 0.222664 2.01574 0
M  V30 7629 C 705.155 -1.1737 1.54719 0
M  V30 7630 O 704.43 -1.79161 0.757084 0
M  V30 7631 C 704.713 0.277064 3.59033 0
M  V30 7632 C 704.566 1.71016 4.16021 0
M  V30 7633 C 705.885 -0.36479 4.38586 0
M  V30 7634 H 703.004 0.0823839 0.732381 0
M  V30 7635 H 705.646 0.880778 1.68352 0
M  V30 7636 H 703.796 -0.283288 3.87466 0
M  V30 7637 H 705.468 2.32413 3.98475 0
M  V30 7638 H 703.711 2.24525 3.71175 0
M  V30 7639 H 704.382 1.69978 5.25178 0
M  V30 7640 H 706.858 0.112404 4.15948 0
M  V30 7641 H 705.734 -0.296169 5.481 0
M  V30 7642 H 705.995 -1.44506 4.17816 0
M  V30 7643 N 705.054 -1.51416 0.437162 0
M  V30 7644 C 705.987 -2.24309 -0.419602 0
M  V30 7645 C 706.965 -1.26236 -1.02485 0
M  V30 7646 O 708.149 -1.5537 -1.06735 0
M  V30 7647 C 705.276 -2.99335 -1.58482 0
M  V30 7648 C 704.322 -4.12064 -1.10027 0
M  V30 7649 S 705.155 -5.35483 -0.0424476 0
M  V30 7650 C 706.311 -6.14047 -1.21234 0
M  V30 7651 H 706.544 -2.96632 0.199259 0
M  V30 7652 H 704.077 -1.528 0.22168 0
M  V30 7653 H 706.035 -3.43159 -2.25282 0
M  V30 7654 H 704.696 -2.26602 -2.17509 0
M  V30 7655 H 703.889 -4.63836 -1.97161 0
M  V30 7656 H 703.491 -3.70499 -0.510507 0
M  V30 7657 H 705.783 -6.43123 -2.13072 0
M  V30 7658 H 706.726 -7.04279 -0.734582 0
M  V30 7659 H 707.134 -5.45538 -1.45082 0
M  V30 7660 N 706.532 -0.168513 -1.56696 0
M  V30 7661 C 707.78 0.476216 -1.96409 0
M  V30 7662 C 708.101 1.63968 -1.05544 0
M  V30 7663 O 707.371 1.95525 -0.121235 0
M  V30 7664 H 705.951 0.178921 -0.725256 0
M  V30 7665 H 708.613 -0.249042 -1.93302 0
M  V30 7666 H 707.709 0.838094 -3.00637 0
M  V30 7667 N 708.01 1.57248 0.105221 0
M  V30 7668 C 709.238 1.89768 0.82437 0
M  V30 7669 C 709.653 0.761192 1.72775 0
M  V30 7670 O 709.01 -0.267342 1.80531 0
M  V30 7671 C 709.061 3.2184 1.64625 0
M  V30 7672 O 708.782 4.31115 0.779217 0
M  V30 7673 C 710.283 3.68155 2.46935 0
M  V30 7674 H 707.503 0.628031 0.236259 0
M  V30 7675 H 710.047 2.04321 0.085485 0
M  V30 7676 H 708.202 3.08915 2.33775 0
M  V30 7677 H 708.616 5.06897 1.34745 0
M  V30 7678 H 710.09 4.6329 3.00111 0
M  V30 7679 H 710.567 2.95492 3.24932 0
M  V30 7680 H 711.173 3.83914 1.83002 0
M  V30 7681 N 709.488 -0.375779 1.53054 0
M  V30 7682 C 710.435 -1.45978 1.78771 0
M  V30 7683 C 711.405 -1.53625 0.631552 0
M  V30 7684 O 712.59 -1.69674 0.872667 0
M  V30 7685 C 709.73 -2.8305 1.97425 0
M  V30 7686 C 708.843 -2.84451 3.25134 0
M  V30 7687 C 707.978 -4.13034 3.34031 0
M  V30 7688 C 707.017 -4.08536 4.55812 0
M  V30 7689 N 706.154 -5.2875 4.61918 0
M  V30 7690 H 710.994 -1.23349 2.71273 0
M  V30 7691 H 708.531 -0.598147 1.3439 0
M  V30 7692 H 710.489 -3.62666 2.06225 0
M  V30 7693 H 709.119 -3.04101 1.0827 0
M  V30 7694 H 708.171 -1.97127 3.25338 0
M  V30 7695 H 709.483 -2.76998 4.14818 0
M  V30 7696 H 708.637 -5.0106 3.42087 0
M  V30 7697 H 707.376 -4.23226 2.42345 0
M  V30 7698 H 706.381 -3.18897 4.47867 0
M  V30 7699 H 707.606 -3.99955 5.48828 0
M  V30 7700 H 705.552 -5.39547 3.73129 0
M  V30 7701 H 705.469 -5.23426 5.45492 0
M  V30 7702 H 706.737 -6.18637 4.74245 0
M  V30 7703 N 710.966 -1.44241 -0.634997 0
M  V30 7704 C 712.243 -1.37296 -1.39317 0
M  V30 7705 C 712.623 -0.0297532 -2.11079 0
M  V30 7706 O 711.971 0.987524 -2.06059 0
M  V30 7707 C 712.181 -2.56853 -2.36279 0
M  V30 7708 C 713.529 -3.00747 -2.99728 0
M  V30 7709 O 714.553 -2.5703 -2.46605 0
M  V30 7710 O 713.412 -3.76533 -3.96087 0
M  V30 7711 H 710.506 -0.543503 -0.623325 0
M  V30 7712 H 713.052 -1.56324 -0.660376 0
M  V30 7713 H 711.824 -3.46228 -1.82324 0
M  V30 7714 H 711.447 -2.40019 -3.16981 0
M  V30 7715 N 712.444 0.87505 -1.31075 0
M  V30 7716 C 713.69 1.63009 -1.20647 0
M  V30 7717 C 714.023 1.9276 0.236045 0
M  V30 7718 O 713.298 1.55559 1.16754 0
M  V30 7719 C 713.581 2.96357 -2.0456 0
M  V30 7720 C 713.434 2.73516 -3.57084 0
M  V30 7721 C 714.753 3.974 -1.89107 0
M  V30 7722 H 711.872 0.591518 -0.439631 0
M  V30 7723 H 714.514 1.0119 -1.60812 0
M  V30 7724 H 712.664 3.49119 -1.70435 0
M  V30 7725 H 714.336 2.27465 -4.01319 0
M  V30 7726 H 712.579 2.0784 -3.80769 0
M  V30 7727 H 713.25 3.68377 -4.11099 0
M  V30 7728 H 715.726 3.5383 -2.18961 0
M  V30 7729 H 714.602 4.88596 -2.5013 0
M  V30 7730 H 714.863 4.33794 -0.85296 0
M  V30 7731 N 713.922 1.13953 1.08869 0
M  V30 7732 C 715.199 0.815768 1.77777 0
M  V30 7733 C 715.579 -0.691624 1.99449 0
M  V30 7734 O 714.927 -1.63085 1.60049 0
M  V30 7735 C 715.137 1.60916 3.09689 0
M  V30 7736 C 716.485 1.80549 3.84301 0
M  V30 7737 O 717.509 1.57562 3.19457 0
M  V30 7738 O 716.368 2.18946 5.00724 0
M  V30 7739 H 713.462 0.298445 0.771271 0
M  V30 7740 H 716.008 1.24446 1.15374 0
M  V30 7741 H 714.78 2.6333 2.89435 0
M  V30 7742 H 714.403 1.17578 3.79817 0
M  V30 7743 N 715.4 -1.26948 0.933913 0
M  V30 7744 C 716.347 -2.26635 0.436484 0
M  V30 7745 C 717.317 -1.58397 -0.499953 0
M  V30 7746 O 718.502 -1.86171 -0.417753 0
M  V30 7747 C 715.642 -3.43803 -0.298951 0
M  V30 7748 C 714.755 -4.26736 0.672316 0
M  V30 7749 C 713.89 -5.31134 -0.0835872 0
M  V30 7750 C 712.929 -6.05742 0.879979 0
M  V30 7751 N 712.066 -7.01926 0.156301 0
M  V30 7752 H 716.906 -2.68558 1.29154 0
M  V30 7753 H 714.443 -1.32052 0.648118 0
M  V30 7754 H 716.401 -4.10554 -0.741723 0
M  V30 7755 H 715.031 -3.02814 -1.1182 0
M  V30 7756 H 714.083 -3.59842 1.23361 0
M  V30 7757 H 715.395 -4.78502 1.40846 0
M  V30 7758 H 714.549 -6.03863 -0.585984 0
M  V30 7759 H 713.288 -4.80188 -0.852661 0
M  V30 7760 H 712.293 -5.31846 1.39357 0
M  V30 7761 H 713.518 -6.58777 1.64894 0
M  V30 7762 H 711.464 -6.53301 -0.594413 0
M  V30 7763 H 711.381 -7.51409 0.831906 0
M  V30 7764 H 712.649 -7.78821 -0.325239 0
M  V30 7765 N 716.879 -0.700114 -1.41195 0
M  V30 7766 C 718.107 -0.242179 -2.05478 0
M  V30 7767 C 718.522 1.11029 -1.52702 0
M  V30 7768 O 717.879 1.69473 -0.677127 0
M  V30 7769 C 717.93 -0.196271 -3.60967 0
M  V30 7770 O 717.651 -1.49532 -4.11791 0
M  V30 7771 C 719.152 0.282102 -4.42401 0
M  V30 7772 H 716.372 -0.111749 -0.661629 0
M  V30 7773 H 718.916 -0.953975 -1.80885 0
M  V30 7774 H 717.071 0.46638 -3.84582 0
M  V30 7775 H 717.485 -1.38545 -5.05871 0
M  V30 7776 H 718.959 0.263093 -5.51373 0
M  V30 7777 H 719.436 1.32174 -4.1884 0
M  V30 7778 H 720.042 -0.349712 -4.2386 0
M  V30 7779 N 718.357 1.51182 -0.445186 0
M  V30 7780 C 719.603 2.03097 0.111049 0
M  V30 7781 C 719.958 1.32293 1.397 0
M  V30 7782 O 719.251 0.431529 1.86677 0
M  V30 7783 C 719.445 3.55408 0.376797 0
M  V30 7784 C 719.274 4.40969 -0.88185 0
M  V30 7785 C 718.044 4.85006 -1.41766 0
M  V30 7786 C 720.242 4.82876 -1.77017 0
M  V30 7787 N 718.224 5.54804 -2.62803 0
M  V30 7788 C 719.595 5.51821 -2.82654 0
M  V30 7789 C 721.65 4.64855 -1.78365 0
M  V30 7790 C 720.353 6.04655 -3.89595 0
M  V30 7791 C 722.379 5.18612 -2.84246 0
M  V30 7792 C 721.741 5.87509 -3.88603 0
M  V30 7793 H 717.84 0.781999 0.0012696 0
M  V30 7794 H 720.424 1.84976 -0.60761 0
M  V30 7795 H 718.595 3.73528 1.06449 0
M  V30 7796 H 720.327 3.93985 0.925082 0
M  V30 7797 H 717.082 4.6355 -0.970476 0
M  V30 7798 H 717.506 5.94326 -3.24201 0
M  V30 7799 H 722.148 4.11043 -0.990119 0
M  V30 7800 H 719.866 6.57518 -4.69782 0
M  V30 7801 H 723.452 5.06515 -2.86241 0
M  V30 7802 H 722.332 6.28358 -4.69186 0
M  V30 7803 N 719.835 0.176821 1.56605 0
M  V30 7804 C 721.112 -0.513365 1.88743 0
M  V30 7805 C 721.492 -1.80929 1.08757 0
M  V30 7806 O 720.84 -2.27765 0.183127 0
M  V30 7807 C 721.05 -0.749925 3.40848 0
M  V30 7808 C 722.398 -1.07747 4.10701 0
M  V30 7809 O 723.422 -0.838277 3.46196 0
M  V30 7810 O 722.281 -1.52901 5.24675 0
M  V30 7811 H 719.375 -0.265296 0.783292 0
M  V30 7812 H 721.921 0.215669 1.68324 0
M  V30 7813 H 720.693 0.16599 3.90948 0
M  V30 7814 H 720.316 -1.53208 3.66897 0
M  V30 7815 N 721.313 -1.57302 -0.09688 0
M  V30 7816 C 722.223 -2.05258 -1.13606 0
M  V30 7817 C 723.239 -0.977137 -1.43972 0
M  V30 7818 O 724.415 -1.29018 -1.54649 0
M  V30 7819 C 721.48 -2.46593 -2.43706 0
M  V30 7820 C 720.541 -3.68322 -2.20538 0
M  V30 7821 C 719.774 -4.07676 -3.44435 0
M  V30 7822 O 719.997 -3.47141 -4.52603 0
M  V30 7823 O 718.931 -5.00641 -3.34129 0
M  V30 7824 H 722.757 -2.94069 -0.758752 0
M  V30 7825 H 720.342 -1.46164 -0.309263 0
M  V30 7826 H 722.224 -2.73814 -3.20318 0
M  V30 7827 H 720.899 -1.6092 -2.80867 0
M  V30 7828 H 719.806 -3.4622 -1.41713 0
M  V30 7829 H 721.139 -4.54769 -1.88271 0
M  V30 7830 N 722.791 0.367657 -1.53252 0
M  V30 7831 C 724.021 1.12955 -1.72988 0
M  V30 7832 C 724.429 1.8358 -0.457708 0
M  V30 7833 O 723.772 1.74336 0.579006 0
M  V30 7834 C 723.834 2.20545 -2.83902 0
M  V30 7835 C 723.498 1.69704 -4.24323 0
M  V30 7836 C 724.495 1.16223 -5.06743 0
M  V30 7837 C 722.18 1.7528 -4.70725 0
M  V30 7838 C 724.174 0.689935 -6.33655 0
M  V30 7839 C 721.861 1.27662 -5.97617 0
M  V30 7840 C 722.859 0.746083 -6.78913 0
M  V30 7841 O 722.547 0.276925 -8.03423 0
M  V30 7842 H 722.279 0.343753 -0.582074 0
M  V30 7843 H 724.833 0.433106 -2.00782 0
M  V30 7844 H 723.063 2.93676 -2.51577 0
M  V30 7845 H 724.752 2.82111 -2.91836 0
M  V30 7846 H 725.518 1.11256 -4.72067 0
M  V30 7847 H 721.397 2.15515 -4.07522 0
M  V30 7848 H 724.941 0.275164 -6.97057 0
M  V30 7849 H 720.838 1.32322 -6.31792 0
M  V30 7850 H 721.606 0.396445 -8.17539 0
M  V30 7851 N 724.269 1.44576 0.627338 0
M  V30 7852 C 725.201 1.47724 1.75243 0
M  V30 7853 C 726.214 0.370193 1.58535 0
M  V30 7854 O 727.403 0.636151 1.66779 0
M  V30 7855 C 724.503 1.2991 3.13012 0
M  V30 7856 C 723.676 2.5393 3.56143 0
M  V30 7857 C 722.735 2.30961 4.72804 0
M  V30 7858 O 721.761 3.04469 4.80923 0
M  V30 7859 N 722.963 1.34261 5.6476 0
M  V30 7860 H 725.728 2.44718 1.73012 0
M  V30 7861 H 723.289 1.40064 0.812022 0
M  V30 7862 H 725.281 1.12385 3.88782 0
M  V30 7863 H 723.851 0.412668 3.09864 0
M  V30 7864 H 723.071 2.86707 2.70542 0
M  V30 7865 H 724.359 3.36411 3.81713 0
M  V30 7866 H 723.757 0.735573 5.60897 0
M  V30 7867 H 722.314 1.22713 6.40144 0
M  V30 7868 N 725.747 -0.868086 1.31537 0
M  V30 7869 C 727.163 -1.15414 1.10235 0
M  V30 7870 C 727.363 -2.01106 -0.125947 0
M  V30 7871 O 726.419 -2.38994 -0.814734 0
M  V30 7872 C 727.732 -1.84445 2.37488 0
M  V30 7873 C 729.28 -1.97139 2.43116 0
M  V30 7874 C 729.755 -2.69585 3.70254 0
M  V30 7875 N 731.246 -2.77119 3.71159 0
M  V30 7876 C 731.981 -3.33791 4.6623 0
M  V30 7877 N 731.477 -3.9138 5.71659 0
M  V30 7878 N 733.27 -3.31767 4.53747 0
M  V30 7879 H 725.421 -0.297109 2.10312 0
M  V30 7880 H 727.684 -0.194227 0.92789 0
M  V30 7881 H 727.39 -1.2893 3.27215 0
M  V30 7882 H 727.264 -2.84709 2.47428 0
M  V30 7883 H 729.651 -2.51818 1.53856 0
M  V30 7884 H 729.732 -0.95912 2.37138 0
M  V30 7885 H 729.376 -2.15572 4.59881 0
M  V30 7886 H 729.306 -3.71223 3.73499 0
M  V30 7887 H 731.797 -2.3625 2.94948 0
M  V30 7888 H 732.11 -4.3274 6.40278 0
M  V30 7889 H 730.455 -3.8975 5.7543 0
M  V30 7890 H 733.646 -2.86016 3.70557 0
M  V30 7891 H 733.819 -3.75636 5.28017 0
M  V30 7892 N 727.225 -1.14528 -1.08264 0
M  V30 7893 C 728.157 -0.791325 -2.15106 0
M  V30 7894 C 729.17 0.192449 -1.61659 0
M  V30 7895 O 730.359 -0.0294704 -1.78476 0
M  V30 7896 C 727.459 -0.154183 -3.38549 0
M  V30 7897 C 726.632 -1.17305 -4.21377 0
M  V30 7898 C 725.691 -0.559401 -5.23218 0
M  V30 7899 O 724.717 -1.22277 -5.55911 0
M  V30 7900 N 725.919 0.663159 -5.767 0
M  V30 7901 H 728.684 -1.71076 -2.46075 0
M  V30 7902 H 726.245 -1.0399 -1.24087 0
M  V30 7903 H 728.237 0.268884 -4.03806 0
M  V30 7904 H 726.807 0.668418 -3.0537 0
M  V30 7905 H 726.027 -1.773 -3.52077 0
M  V30 7906 H 727.315 -1.86128 -4.73533 0
M  V30 7907 H 726.713 1.22066 -5.52373 0
M  V30 7908 H 725.27 1.02871 -6.43631 0
M  V30 7909 N 728.703 1.26451 -0.940633 0
M  V30 7910 C 729.633 2.28773 -0.467479 0
M  V30 7911 C 730.614 1.63218 0.478955 0
M  V30 7912 O 731.799 1.90427 0.380929 0
M  V30 7913 C 728.929 3.46259 0.268656 0
M  V30 7914 C 727.883 4.23898 -0.591171 0
M  V30 7915 C 727.209 5.33993 0.274891 0
M  V30 7916 C 728.509 4.87974 -1.86223 0
M  V30 7917 H 730.203 2.68601 -1.32265 0
M  V30 7918 H 727.749 1.29123 -0.637436 0
M  V30 7919 H 729.702 4.16951 0.610696 0
M  V30 7920 H 728.426 3.05383 1.15796 0
M  V30 7921 H 727.085 3.54969 -0.916098 0
M  V30 7922 H 726.733 4.89358 1.16353 0
M  V30 7923 H 726.433 5.86849 -0.297006 0
M  V30 7924 H 727.957 6.07523 0.612213 0
M  V30 7925 H 729.371 5.50883 -1.58747 0
M  V30 7926 H 727.768 5.50945 -2.37866 0
M  V30 7927 H 728.838 4.10945 -2.57394 0
M  V30 7928 N 730.181 0.707592 1.40822 0
M  V30 7929 C 731.128 0.0499029 2.30746 0
M  V30 7930 C 732.098 -0.758718 1.47759 0
M  V30 7931 O 733.283 -0.724299 1.76518 0
M  V30 7932 C 730.423 -0.871756 3.33908 0
M  V30 7933 C 729.536 -0.0534655 4.31967 0
M  V30 7934 C 728.671 -0.973869 5.22197 0
M  V30 7935 C 727.71 -0.149194 6.11918 0
M  V30 7936 N 726.847 -1.02404 6.94592 0
M  V30 7937 H 731.687 0.822461 2.86426 0
M  V30 7938 H 729.224 0.417285 1.41057 0
M  V30 7939 H 731.182 -1.42028 3.9228 0
M  V30 7940 H 729.812 -1.61058 2.7975 0
M  V30 7941 H 728.864 0.612142 3.75442 0
M  V30 7942 H 730.176 0.585354 4.95353 0
M  V30 7943 H 729.33 -1.59121 5.85462 0
M  V30 7944 H 728.069 -1.64652 4.59065 0
M  V30 7945 H 727.074 0.481137 5.47691 0
M  V30 7946 H 728.299 0.519841 6.77107 0
M  V30 7947 H 726.245 -1.6825 6.34057 0
M  V30 7948 H 726.162 -0.441076 7.54712 0
M  V30 7949 H 727.43 -1.62782 7.62314 0
M  V30 7950 N 731.66 -1.50943 0.453197 0
M  V30 7951 C 732.59 -2.31005 -0.34044 0
M  V30 7952 C 733.571 -1.37112 -1.00669 0
M  V30 7953 O 734.756 -1.66033 -1.0073 0
M  V30 7954 C 731.886 -3.16358 -1.433 0
M  V30 7955 C 730.84 -4.18658 -0.889363 0
M  V30 7956 C 730.166 -4.92633 -2.07887 0
M  V30 7957 C 731.466 -5.22227 0.0871142 0
M  V30 7958 H 733.16 -2.97601 0.327723 0
M  V30 7959 H 730.706 -1.43119 0.159054 0
M  V30 7960 H 732.659 -3.71155 -1.99555 0
M  V30 7961 H 731.383 -2.47613 -2.12968 0
M  V30 7962 H 730.042 -3.64936 -0.348915 0
M  V30 7963 H 729.69 -4.20376 -2.76211 0
M  V30 7964 H 729.39 -5.61819 -1.72143 0
M  V30 7965 H 730.914 -5.50258 -2.64666 0
M  V30 7966 H 732.328 -5.72001 -0.385656 0
M  V30 7967 H 730.725 -5.99032 0.357926 0
M  V30 7968 H 731.795 -4.74077 1.01879 0
M  V30 7969 N 733.138 -0.185124 -1.56509 0
M  V30 7970 C 734.554 0.170865 -1.58683 0
M  V30 7971 C 734.754 1.61799 -1.20098 0
M  V30 7972 O 733.81 2.35181 -0.919038 0
M  V30 7973 C 735.123 -0.122459 -3.00451 0
M  V30 7974 C 736.671 -0.0617699 -3.12939 0
M  V30 7975 C 737.146 -0.328269 -4.56822 0
M  V30 7976 N 738.637 -0.276533 -4.62374 0
M  V30 7977 C 739.372 -0.456722 -5.71578 0
M  V30 7978 N 738.868 -0.69672 -6.89288 0
M  V30 7979 N 740.661 -0.391669 -5.60734 0
M  V30 7980 H 732.812 -1.12956 -1.79874 0
M  V30 7981 H 735.075 -0.45011 -0.834329 0
M  V30 7982 H 734.781 -1.12546 -3.33206 0
M  V30 7983 H 734.655 0.579578 -3.72721 0
M  V30 7984 H 737.042 0.931826 -2.80002 0
M  V30 7985 H 737.123 -0.796732 -2.43076 0
M  V30 7986 H 736.767 -1.31914 -4.9047 0
M  V30 7987 H 736.697 0.427465 -5.24862 0
M  V30 7988 H 739.188 -0.0972458 -3.77775 0
M  V30 7989 H 739.501 -0.823291 -7.68402 0
M  V30 7990 H 737.846 -0.733497 -6.91119 0
M  V30 7991 H 741.037 -0.204663 -4.67652 0
M  V30 7992 H 741.21 -0.535518 -6.45783 0
M  V30 7993 N 734.616 1.57351 0.0885366 0
M  V30 7994 C 735.864 1.86051 0.789262 0
M  V30 7995 C 736.185 0.774763 1.78948 0
M  V30 7996 O 735.455 -0.198324 1.94894 0
M  V30 7997 H 734.035 0.686508 0.294475 0
M  V30 7998 H 736.697 1.94779 0.0686055 0
M  V30 7999 H 735.793 2.83007 1.31581 0
M  V30 8000 N 736.094 -0.359525 1.53444 0
M  V30 8001 C 737.024 -1.44662 1.8329 0
M  V30 8002 C 738.005 -1.55617 0.68683 0
M  V30 8003 O 739.19 -1.70086 0.93725 0
M  V30 8004 C 736.32 -2.81923 2.02822 0
M  V30 8005 C 735.274 -2.85787 3.18606 0
M  V30 8006 C 734.6 -4.25781 3.23442 0
M  V30 8007 C 735.9 -2.52762 4.57065 0
M  V30 8008 H 737.594 -1.19934 2.74329 0
M  V30 8009 H 735.14 -0.575517 1.31999 0
M  V30 8010 H 737.093 -3.58005 2.22285 0
M  V30 8011 H 735.817 -3.08051 1.085 0
M  V30 8012 H 734.476 -2.12157 2.98973 0
M  V30 8013 H 734.124 -4.48994 2.26745 0
M  V30 8014 H 733.824 -4.29281 4.01238 0
M  V30 8015 H 735.348 -5.03727 3.45096 0
M  V30 8016 H 736.762 -3.18557 4.76649 0
M  V30 8017 H 735.159 -2.67569 5.37147 0
M  V30 8018 H 736.229 -1.47993 4.61764 0
M  V30 8019 N 737.572 -1.44907 -0.619662 0
M  V30 8020 C 738.802 -1.51575 -1.40387 0
M  V30 8021 C 739.21 -0.14309 -1.88658 0
M  V30 8022 O 738.553 0.863403 -1.62145 0
M  V30 8023 C 738.615 -2.42858 -2.65067 0
M  V30 8024 C 738.279 -3.8982 -2.38515 0
M  V30 8025 C 739.276 -4.80047 -1.99627 0
M  V30 8026 C 736.961 -4.34628 -2.51801 0
M  V30 8027 C 738.955 -6.13086 -1.74369 0
M  V30 8028 C 736.642 -5.67712 -2.26156 0
M  V30 8029 C 737.64 -6.56759 -1.875 0
M  V30 8030 O 737.328 -7.87377 -1.62148 0
M  V30 8031 H 737.06 -0.51612 -0.436573 0
M  V30 8032 H 739.614 -1.90664 -0.763959 0
M  V30 8033 H 737.844 -1.98717 -3.31735 0
M  V30 8034 H 739.533 -2.40346 -3.27091 0
M  V30 8035 H 740.299 -4.46697 -1.8891 0
M  V30 8036 H 736.178 -3.65568 -2.80857 0
M  V30 8037 H 739.722 -6.8255 -1.44122 0
M  V30 8038 H 735.619 -6.0062 -2.36486 0
M  V30 8039 H 736.387 -7.99288 -1.763 0
M  V30 8040 N 739.05 0.861098 -1.31996 0
M  V30 8041 C 739.982 1.97551 -1.16216 0
M  V30 8042 C 740.995 1.625 -0.0988527 0
M  V30 8043 O 742.184 1.75091 -0.3472 0
M  V30 8044 C 739.284 3.30376 -0.755307 0
M  V30 8045 C 738.457 3.93711 -1.90552 0
M  V30 8046 C 737.516 5.04862 -1.48328 0
M  V30 8047 O 736.542 5.25204 -2.19431 0
M  V30 8048 N 737.744 5.79283 -0.375656 0
M  V30 8049 H 740.509 2.11632 -2.12208 0
M  V30 8050 H 738.07 1.03559 -1.24448 0
M  V30 8051 H 740.062 4.0213 -0.455364 0
M  V30 8052 H 738.632 3.12395 0.113269 0
M  V30 8053 H 737.852 3.14825 -2.37231 0
M  V30 8054 H 739.14 4.32762 -2.67571 0
M  V30 8055 H 738.538 5.65286 0.216284 0
M  V30 8056 H 737.095 6.5166 -0.135289 0
M  V30 8057 N 740.528 1.15101 1.07655 0
M  V30 8058 C 741.774 0.925343 1.80458 0
M  V30 8059 C 742.107 -0.546354 1.86356 0
M  V30 8060 O 741.382 -1.40496 1.34503 0
M  V30 8061 C 741.665 1.53646 3.25676 0
M  V30 8062 C 741.518 3.07854 3.27942 0
M  V30 8063 C 742.837 1.21968 4.22861 0
M  V30 8064 H 739.956 0.337592 0.655134 0
M  V30 8065 H 742.598 1.42217 1.25993 0
M  V30 8066 H 740.748 1.11395 3.72187 0
M  V30 8067 H 742.42 3.58989 2.89697 0
M  V30 8068 H 740.663 3.41904 2.66991 0
M  V30 8069 H 741.334 3.45725 4.30324 0
M  V30 8070 H 743.81 1.5851 3.84726 0
M  V30 8071 H 742.686 1.67349 5.22767 0
M  V30 8072 H 742.947 0.136207 4.4189 0
M  V30 8073 N 742.006 -1.2595 0.947325 0
M  V30 8074 C 742.936 -2.28521 0.479604 0
M  V30 8075 C 743.917 -1.63469 -0.470293 0
M  V30 8076 O 745.102 -1.90627 -0.370824 0
M  V30 8077 C 742.232 -3.46397 -0.250289 0
M  V30 8078 C 741.186 -4.23578 0.613643 0
M  V30 8079 C 740.512 -5.34131 -0.246568 0
M  V30 8080 C 741.812 -4.86979 1.88809 0
M  V30 8081 H 743.506 -2.67895 1.33688 0
M  V30 8082 H 741.052 -1.28783 0.644274 0
M  V30 8083 H 743.005 -4.17269 -0.588576 0
M  V30 8084 H 741.729 -3.05993 -1.14175 0
M  V30 8085 H 740.388 -3.54478 0.93491 0
M  V30 8086 H 740.036 -4.89968 -1.13756 0
M  V30 8087 H 739.736 -5.86683 0.328123 0
M  V30 8088 H 741.26 -6.07839 -0.579986 0
M  V30 8089 H 742.674 -5.50034 1.61666 0
M  V30 8090 H 741.071 -5.49675 2.40784 0
M  V30 8091 H 742.141 -4.09575 2.5957 0
M  V30 8092 N 743.484 -0.715051 -1.40445 0
M  V30 8093 C 744.416 -0.0227516 -2.29189 0
M  V30 8094 C 745.429 0.724313 -1.458 0
M  V30 8095 O 746.618 0.571781 -1.69094 0
M  V30 8096 C 743.718 0.992038 -3.24055 0
M  V30 8097 C 742.891 0.310613 -4.36296 0
M  V30 8098 C 741.95 1.23071 -5.11605 0
M  V30 8099 O 740.976 0.71571 -5.64682 0
M  V30 8100 N 742.178 2.56188 -5.2091 0
M  V30 8101 H 744.943 -0.78473 -2.89244 0
M  V30 8102 H 742.504 -0.562637 -1.51809 0
M  V30 8103 H 744.496 1.60973 -3.71308 0
M  V30 8104 H 743.066 1.65538 -2.65171 0
M  V30 8105 H 742.286 -0.487269 -3.91177 0
M  V30 8106 H 743.574 -0.162415 -5.08541 0
M  V30 8107 H 742.972 3.00527 -4.7927 0
M  V30 8108 H 741.529 3.13103 -5.71673 0
M  V30 8109 N 744.962 1.50701 -0.461195 0
M  V30 8110 C 745.895 2.24948 0.383863 0
M  V30 8111 C 746.873 1.27851 1.00464 0
M  V30 8112 O 748.057 1.57049 1.04249 0
M  V30 8113 C 745.184 3.01818 1.537 0
M  V30 8114 C 744.23 4.13762 1.03457 0
M  V30 8115 S 745.063 5.35483 -0.0427485 0
M  V30 8116 C 746.219 6.15898 1.11449 0
M  V30 8117 H 746.452 2.96277 -0.246425 0
M  V30 8118 H 743.985 1.52428 -0.245961 0
M  V30 8119 H 745.943 3.467 2.19794 0
M  V30 8120 H 744.604 2.30034 2.13877 0
M  V30 8121 H 743.797 4.66914 1.89757 0
M  V30 8122 H 743.399 3.71265 0.4515 0
M  V30 8123 H 745.691 6.46431 2.02813 0
M  V30 8124 H 746.634 7.05359 0.622444 0
M  V30 8125 H 747.042 5.47777 1.36385 0
M  V30 8126 N 746.441 0.193421 1.56409 0
M  V30 8127 C 747.374 -0.767384 2.1491 0
M  V30 8128 C 748.352 -1.21075 1.08534 0
M  V30 8129 O 749.536 -1.29856 1.36637 0
M  V30 8130 C 746.663 -2.03615 2.70663 0
M  V30 8131 C 745.709 -1.73505 3.89613 0
M  V30 8132 S 746.542 -0.884645 5.28142 0
M  V30 8133 C 747.698 -2.1636 5.87315 0
M  V30 8134 H 747.931 -0.270053 2.96071 0
M  V30 8135 H 745.464 -0.0215546 1.54385 0
M  V30 8136 H 747.422 -2.7648 3.03429 0
M  V30 8137 H 746.083 -2.50461 1.89547 0
M  V30 8138 H 745.276 -2.67701 4.27027 0
M  V30 8139 H 744.878 -1.08723 3.57848 0
M  V30 8140 H 747.17 -3.11629 6.01576 0
M  V30 8141 H 748.113 -1.8338 6.83943 0
M  V30 8142 H 748.521 -2.29129 5.15907 0
M  V30 8143 N 747.919 -1.57396 -0.0801906 0
M  V30 8144 C 748.851 -1.9982 -1.12271 0
M  V30 8145 C 749.864 -0.902902 -1.35468 0
M  V30 8146 O 751.053 -1.18088 -1.33856 0
M  V30 8147 C 748.153 -2.31476 -2.47532 0
M  V30 8148 C 747.326 -3.62745 -2.44407 0
M  V30 8149 C 746.385 -3.82168 -3.6171 0
M  V30 8150 O 745.411 -4.53852 -3.43522 0
M  V30 8151 N 746.613 -3.2388 -4.81749 0
M  V30 8152 H 749.378 -2.89864 -0.761501 0
M  V30 8153 H 746.939 -1.5965 -0.268965 0
M  V30 8154 H 748.931 -2.4165 -3.24634 0
M  V30 8155 H 747.501 -1.47364 -2.75686 0
M  V30 8156 H 746.721 -3.63403 -1.52747 0
M  V30 8157 H 748.009 -4.48954 -2.39412 0
M  V30 8158 H 747.407 -2.6568 -4.9943 0
M  V30 8159 H 745.964 -3.39515 -5.56392 0
M  V30 8160 N 749.397 0.351382 -1.53633 0
M  V30 8161 C 750.329 1.45159 -1.77374 0
M  V30 8162 C 751.342 1.4905 -0.654826 0
M  V30 8163 O 752.531 1.52274 -0.931396 0
M  V30 8164 C 749.631 2.83858 -1.85143 0
M  V30 8165 C 748.804 3.03498 -3.14972 0
M  V30 8166 C 747.863 4.22393 -3.138 0
M  V30 8167 O 746.889 4.16885 -3.87551 0
M  V30 8168 N 748.091 5.30533 -2.35617 0
M  V30 8169 H 750.856 1.25167 -2.72311 0
M  V30 8170 H 748.417 0.54121 -1.52586 0
M  V30 8171 H 750.409 3.61557 -1.8182 0
M  V30 8172 H 748.979 2.9703 -0.974275 0
M  V30 8173 H 748.199 2.13336 -3.31484 0
M  V30 8174 H 749.487 3.13498 -4.00745 0
M  V30 8175 H 748.885 5.37875 -1.75235 0
M  V30 8176 H 747.442 6.06756 -2.38098 0
M  V30 8177 N 750.875 1.45233 0.611969 0
M  V30 8178 C 751.838 1.53189 1.70487 0
M  V30 8179 C 752.838 0.411839 1.55437 0
M  V30 8180 O 754.028 0.675164 1.60584 0
M  V30 8181 C 751.16 1.42422 3.09723 0
M  V30 8182 H 752.353 2.5056 1.64802 0
M  V30 8183 H 749.906 1.32609 0.827318 0
M  V30 8184 H 750.641 0.462185 3.2099 0
M  V30 8185 H 750.426 2.23658 3.22055 0
M  V30 8186 H 751.916 1.51012 3.89339 0
M  V30 8187 N 752.353 -0.854086 1.3245 0
M  V30 8188 C 753.583 -1.63836 1.25862 0
M  V30 8189 C 753.991 -1.88383 -0.175588 0
M  V30 8190 O 753.334 -1.45353 -1.1233 0
M  V30 8191 C 753.396 -3.02068 1.94923 0
M  V30 8192 C 753.06 -3.0056 3.44257 0
M  V30 8193 C 754.057 -2.77368 4.39731 0
M  V30 8194 C 751.742 -3.21177 3.862 0
M  V30 8195 C 753.736 -2.74797 5.75122 0
M  V30 8196 C 751.423 -3.18234 5.217 0
M  V30 8197 C 752.421 -2.95072 6.15972 0
M  V30 8198 O 752.109 -2.92003 7.48992 0
M  V30 8199 H 751.841 -0.517007 0.435523 0
M  V30 8200 H 754.395 -1.07314 1.75137 0
M  V30 8201 H 752.625 -3.60382 1.40219 0
M  V30 8202 H 754.314 -3.62791 1.82037 0
M  V30 8203 H 755.08 -2.61205 4.08653 0
M  V30 8204 H 750.959 -3.38231 3.13243 0
M  V30 8205 H 754.503 -2.56638 6.48678 0
M  V30 8206 H 750.4 -3.33941 5.52407 0
M  V30 8207 H 751.168 -3.07953 7.58358 0
M  V30 8208 N 753.831 -1.1567 -1.07043 0
M  V30 8209 C 755.108 -0.843948 -1.76456 0
M  V30 8210 C 755.488 0.659806 -2.00524 0
M  V30 8211 O 754.836 1.60518 -1.62623 0
M  V30 8212 C 755.046 -1.65822 -3.0709 0
M  V30 8213 C 756.394 -1.8664 -3.8138 0
M  V30 8214 O 757.418 -1.62624 -3.1691 0
M  V30 8215 O 756.277 -2.26884 -4.97178 0
M  V30 8216 H 753.371 -0.310677 -0.766426 0
M  V30 8217 H 755.917 -1.26266 -1.1338 0
M  V30 8218 H 754.689 -2.67902 -2.85209 0
M  V30 8219 H 754.312 -1.23605 -3.77899 0
M  V30 8220 N 755.309 1.25446 -0.953992 0
M  V30 8221 C 756.725 1.4539 -0.658316 0
M  V30 8222 C 756.925 1.85607 0.784356 0
M  V30 8223 O 755.981 1.98568 1.55972 0
M  V30 8224 C 757.294 2.52643 -1.6307 0
M  V30 8225 C 758.842 2.66484 -1.64181 0
M  V30 8226 C 759.317 3.76921 -2.60182 0
M  V30 8227 N 760.808 3.84331 -2.58542 0
M  V30 8228 C 761.543 4.69271 -3.29503 0
M  V30 8229 N 761.039 5.58503 -4.09934 0
M  V30 8230 N 762.832 4.6323 -3.18393 0
M  V30 8231 H 754.983 0.976337 -1.8863 0
M  V30 8232 H 757.246 0.490343 -0.811337 0
M  V30 8233 H 756.952 2.29949 -2.66114 0
M  V30 8234 H 756.826 3.50547 -1.39271 0
M  V30 8235 H 759.213 2.88545 -0.618552 0
M  V30 8236 H 759.294 1.68982 -1.92038 0
M  V30 8237 H 758.938 3.55612 -3.62633 0
M  V30 8238 H 758.868 4.73906 -2.29609 0
M  V30 8239 H 761.359 3.20544 -2.0015 0
M  V30 8240 H 761.672 6.20241 -4.61 0
M  V30 8241 H 760.017 5.58214 -4.14032 0
M  V30 8242 H 763.208 3.92527 -2.5503 0
M  V30 8243 H 763.381 5.29204 -3.73961 0
M  V30 8244 N 756.787 0.722489 1.40064 0
M  V30 8245 C 757.719 0.0349057 2.29173 0
M  V30 8246 C 758.732 -0.716571 1.46182 0
M  V30 8247 O 759.921 -0.562806 1.69395 0
M  V30 8248 C 757.021 -0.974839 3.24577 0
M  V30 8249 C 756.194 -0.287471 4.36454 0
M  V30 8250 C 755.253 -1.20356 5.12251 0
M  V30 8251 O 754.279 -0.685753 5.65054 0
M  V30 8252 N 755.481 -2.53422 5.22262 0
M  V30 8253 H 758.246 0.800058 2.88824 0
M  V30 8254 H 755.807 0.57068 1.51509 0
M  V30 8255 H 757.799 -1.59002 3.72157 0
M  V30 8256 H 756.369 -1.6413 2.66046 0
M  V30 8257 H 755.589 0.508008 3.90913 0
M  V30 8258 H 756.877 0.189382 5.08447 0
M  V30 8259 H 756.275 -2.97981 4.80857 0
M  V30 8260 H 754.832 -3.10067 5.73325 0
M  V30 8261 N 758.265 -1.50454 0.469181 0
M  V30 8262 C 759.495 -2.06429 -0.0840913 0
M  V30 8263 C 759.903 -1.3334 -1.34227 0
M  V30 8264 O 759.246 -0.395656 -1.79389 0
M  V30 8265 C 759.308 -3.56797 -0.440049 0
M  V30 8266 C 758.972 -4.51359 0.715838 0
M  V30 8267 C 759.969 -4.94754 1.59732 0
M  V30 8268 C 757.654 -4.94069 0.905621 0
M  V30 8269 C 759.648 -5.79564 2.653 0
M  V30 8270 C 757.335 -5.78662 1.96453 0
M  V30 8271 C 758.333 -6.21311 2.83658 0
M  V30 8272 O 758.021 -7.04218 3.87727 0
M  V30 8273 H 757.753 -0.675994 0.00289751 0
M  V30 8274 H 760.307 -1.94629 0.656417 0
M  V30 8275 H 758.537 -3.66492 -1.23372 0
M  V30 8276 H 760.226 -3.95145 -0.928181 0
M  V30 8277 H 760.992 -4.62428 1.46237 0
M  V30 8278 H 756.871 -4.60394 0.236326 0
M  V30 8279 H 760.415 -6.12774 3.33398 0
M  V30 8280 H 756.312 -6.10401 2.09955 0
M  V30 8281 H 757.08 -7.22464 3.84692 0
M  V30 8282 N 759.743 -0.201713 -1.56304 0
M  V30 8283 C 760.69 0.716499 -2.19397 0
M  V30 8284 C 761.66 1.20494 -1.14326 0
M  V30 8285 O 762.845 1.26763 -1.42604 0
M  V30 8286 C 759.985 1.92762 -2.86246 0
M  V30 8287 C 759.098 1.47993 -4.0586 0
M  V30 8288 C 758.233 2.64706 -4.60547 0
M  V30 8289 C 757.272 2.16576 -5.72504 0
M  V30 8290 N 756.409 3.26491 -6.21569 0
M  V30 8291 H 761.249 0.171724 -2.97505 0
M  V30 8292 H 758.786 0.073016 -1.46919 0
M  V30 8293 H 760.744 2.6384 -3.23178 0
M  V30 8294 H 759.374 2.44559 -2.10691 0
M  V30 8295 H 758.426 0.66477 -3.74546 0
M  V30 8296 H 759.738 1.08686 -4.86815 0
M  V30 8297 H 758.892 3.43898 -4.99819 0
M  V30 8298 H 757.631 3.0729 -3.78713 0
M  V30 8299 H 756.636 1.3584 -5.32755 0
M  V30 8300 H 757.861 1.75015 -6.56161 0
M  V30 8301 H 755.807 3.68594 -5.42655 0
M  V30 8302 H 755.724 2.91374 -6.97594 0
M  V30 8303 H 756.992 4.05877 -6.65495 0
M  V30 8304 N 761.222 1.57436 0.0718424 0
M  V30 8305 C 762.17 2.04725 1.10411 0
M  V30 8306 C 763.164 0.952579 1.4008 0
M  V30 8307 O 764.37 1.13769 1.39487 0
M  V30 8308 H 760.745 0.652749 0.373393 0
M  V30 8309 H 762.716 2.90569 0.679126 0
M  V30 8310 C 761.465 2.5068 2.40946 0
M  V30 8311 H 760.788 3.34505 2.18967 0
M  V30 8312 H 762.228 2.87521 3.11621 0
M  V30 8313 C 760.687 1.38971 3.06902 0
M  V30 8314 O 761.217 0.731786 3.94978 0
M  V30 8315 N 759.423 1.13485 2.67525 0
M  V30 8316 H 758.97 1.67168 1.95991 0
M  V30 8317 H 758.928 0.389467 3.11978 0
M  V30 8318 O 762.739 -0.21545 1.60056 0
M  V30 8319 H 763.43 -0.856115 1.73754 0
M  V30 END ATOM
M  V30 BEGIN BOND
M  V30 END BOND
M  V30 END CTAB
M  END
$$$$
