drugbank_target|Q04759 Protein kinase C theta type (DB02010; DB02482; DB04522; DB12010)
 OpenBabel12092119533D

  0  0  0     0  0            999 V3000
M  V30 BEGIN CTAB
M  V30 COUNTS 11419 11561 0 0 0
M  V30 BEGIN ATOM
M  V30 1 H -0.908 1.98254 -0.117106 0
M  V30 2 N 0 1.576 0 0
M  V30 3 C 0.933 2.03868 1.02534 0
M  V30 4 C 1.911 0.928543 1.3348 0
M  V30 5 O 3.095 1.19667 1.45644 0
M  V30 6 C 0.222 2.43627 2.35294 0
M  V30 7 C -0.732 3.65373 2.2001 0
M  V30 8 S 0.101 5.13292 1.52614 0
M  V30 9 C 1.257 5.56322 2.86805 0
M  V30 10 H 1.49 2.90518 0.631377 0
M  V30 11 H -0.977 1.52953 0.210867 0
M  V30 12 H 0.981 2.67203 3.11629 0
M  V30 13 H -0.358 1.57376 2.7183 0
M  V30 14 H -1.165 3.90944 3.18086 0
M  V30 15 H -1.563 3.418 1.51819 0
M  V30 16 H 0.729 5.58782 3.83104 0
M  V30 17 H 1.672 6.56266 2.65933 0
M  V30 18 H 2.08 4.83886 2.90714 0
M  V30 19 N 1.4781 -0.272755 1.55222 0
M  V30 20 C 2.7031 -1.02683 1.80197 0
M  V30 21 C 3.1281 -1.79142 0.573551 0
M  V30 22 O 2.4861 -1.74917 -0.476849 0
M  V30 23 C 2.5341 -1.9609 3.02624 0
M  V30 24 O 1.6381 -3.04863 2.77727 0
M  V30 25 H 0.9791 -0.293557 0.595584 0
M  V30 26 H 3.5091 -0.30159 2.02365 0
M  V30 27 H 3.5191 -2.38039 3.31363 0
M  V30 28 H 2.1941 -1.39851 3.91682 0
M  V30 29 H 0.7711 -2.67228 2.60084 0
M  V30 30 N 2.9562 -1.48159 -0.537278 0
M  V30 31 C 4.3672 -1.49429 -1.11928 0
M  V30 32 C 4.7182 -0.26 -1.9447 0
M  V30 33 O 3.8432 0.633489 -2.0692 0
M  V30 34 C 4.4382 -2.70758 -2.03656 0
M  V30 35 C 2.9972 -2.74923 -2.57088 0
M  V30 36 C 2.1442 -2.42835 -1.3389 0
M  V30 37 H 5.0952 -1.55381 -0.322886 0
M  V30 38 H 5.1162 -2.48861 -2.87834 0
M  V30 39 H 4.6282 -3.60575 -1.43553 0
M  V30 40 H 2.7292 -1.89296 -3.20933 0
M  V30 41 H 2.8422 -3.76157 -2.9672 0
M  V30 42 H 1.2062 -1.93836 -1.65226 0
M  V30 43 H 1.9892 -3.34884 -0.755504 0
M  V30 44 N 4.4343 0.785586 -1.36625 0
M  V30 45 C 5.6813 1.54362 -1.31067 0
M  V30 46 C 6.0093 1.94195 0.10893 0
M  V30 47 O 5.2643 1.63262 1.07908 0
M  V30 48 C 5.5633 2.83007 -2.1827 0
M  V30 49 C 5.2293 2.62294 -3.6676 0
M  V30 50 C 3.8913 2.56353 -4.0723 0
M  V30 51 C 6.2433 2.43371 -4.6089 0
M  V30 52 C 3.5713 2.29461 -5.39967 0
M  V30 53 C 5.9233 2.18005 -5.93849 0
M  V30 54 C 4.5873 2.105 -6.3344 0
M  V30 55 H 3.8573 0.564851 -0.479609 0
M  V30 56 H 6.5043 0.906028 -1.68711 0
M  V30 57 H 4.8093 3.51253 -1.73576 0
M  V30 58 H 6.5063 3.40817 -2.11292 0
M  V30 59 H 3.0963 2.67774 -3.34656 0
M  V30 60 H 7.2803 2.46959 -4.30494 0
M  V30 61 H 2.5363 2.22135 -5.69619 0
M  V30 62 H 6.7103 2.02359 -6.66351 0
M  V30 63 H 4.3373 1.89425 -7.36222 0
M  V30 64 N 5.9124 1.20967 1.01018 0
M  V30 65 C 6.8424 0.988272 2.11555 0
M  V30 66 C 7.8234 -0.0849778 1.69888 0
M  V30 67 O 9.0084 0.0738202 1.9406 0
M  V30 68 C 6.1384 0.546528 3.42973 0
M  V30 69 C 5.0924 1.56375 3.9841 0
M  V30 70 C 4.4184 0.97842 5.25672 0
M  V30 71 C 5.7184 2.94922 4.31066 0
M  V30 72 H 7.4124 1.91276 2.30334 0
M  V30 73 H 4.9584 0.921073 1.1069 0
M  V30 74 H 6.9114 0.378839 4.19694 0
M  V30 75 H 5.6354 -0.413598 3.23971 0
M  V30 76 H 4.2944 1.71891 3.23804 0
M  V30 77 H 3.9424 0.0101688 5.02999 0
M  V30 78 H 3.6424 1.65784 5.63728 0
M  V30 79 H 5.1664 0.821939 6.05043 0
M  V30 80 H 6.5804 2.8288 4.9865 0
M  V30 81 H 4.9774 3.5983 4.80253 0
M  V30 82 H 6.0474 3.4616 3.39561 0
M  V30 83 N 7.3905 -1.2043 1.01659 0
M  V30 84 C 8.8065 -1.41852 0.731442 0
M  V30 85 C 9.0065 -1.89358 -0.688898 0
M  V30 86 O 8.0625 -2.06247 -1.45666 0
M  V30 87 C 9.3755 -2.44019 1.75714 0
M  V30 88 C 10.9235 -2.57785 1.77527 0
M  V30 89 C 11.3985 -3.63194 2.79023 0
M  V30 90 N 12.8895 -3.70678 2.77763 0
M  V30 91 C 13.6245 -4.51897 3.52954 0
M  V30 92 N 13.1205 -5.36921 4.37821 0
M  V30 93 N 14.9135 -4.4643 3.41551 0
M  V30 94 H 7.0645 -0.879093 1.93354 0
M  V30 95 H 9.3275 -0.448425 0.835236 0
M  V30 96 H 9.0335 -2.1611 2.77469 0
M  V30 97 H 8.9075 -3.43007 1.56927 0
M  V30 98 H 11.2945 -2.85023 0.764569 0
M  V30 99 H 11.3755 -1.58992 2.00387 0
M  V30 100 H 11.0195 -3.36699 3.80258 0
M  V30 101 H 10.9495 -4.61609 2.53425 0
M  V30 102 H 13.4405 -3.09944 2.16201 0
M  V30 103 H 13.7535 -5.95981 4.91962 0
M  V30 104 H 12.0985 -5.36424 4.41899 0
M  V30 105 H 15.2895 -3.79042 2.74672 0
M  V30 106 H 15.4625 -5.09491 4.00404 0
M  V30 107 N 8.8686 -0.792821 -1.36206 0
M  V30 108 C 10.1176 -0.363353 -1.984 0
M  V30 109 C 10.4306 1.07172 -1.63626 0
M  V30 110 O 11.6366 1.60362 -2.19081 0
M  V30 111 C 10.0926 -0.59872 -3.54885 0
M  V30 112 C 9.7006 -2.04543 -3.9858 0
M  V30 113 C 11.4446 -0.233926 -4.23855 0
M  V30 114 C 9.3516 -2.22727 -5.47856 0
M  V30 115 H 8.2816 -0.13212 -0.742334 0
M  V30 116 H 10.9326 -0.974935 -1.55458 0
M  V30 117 H 9.3146 0.0826222 -3.95914 0
M  V30 118 H 10.4886 -2.76345 -3.68741 0
M  V30 119 H 8.8036 -2.36879 -3.42458 0
M  V30 120 H 11.4006 -0.348027 -5.33566 0
M  V30 121 H 11.7436 0.818351 -4.08177 0
M  V30 122 H 12.2766 -0.868639 -3.882 0
M  V30 123 H 9.0156 -3.2635 -5.68486 0
M  V30 124 H 8.5356 -1.55434 -5.7931 0
M  V30 125 H 10.2146 -2.03607 -6.14128 0
M  V30 126 N 10.3467 1.47872 -0.545128 0
M  V30 127 C 11.5947 2.02093 -0.016553 0
M  V30 128 C 11.9157 1.42305 1.3332 0
M  V30 129 O 11.1857 0.593853 1.86682 0
M  V30 130 H 9.7657 0.746993 -0.00313038 0
M  V30 131 H 12.4277 1.81414 -0.712397 0
M  V30 132 H 11.5237 3.11996 0.0805422 0
M  V30 133 N 11.8248 0.280983 1.55075 0
M  V30 134 C 12.7548 -0.597469 2.25727 0
M  V30 135 C 13.7358 -1.15417 1.24952 0
M  V30 136 O 14.9208 -1.18722 1.53684 0
M  V30 137 C 12.0508 -1.7789 2.98283 0
M  V30 138 C 11.0048 -1.35347 4.06036 0
M  V30 139 C 10.3308 -2.61846 4.66198 0
M  V30 140 C 11.6308 -0.499354 5.19907 0
M  V30 141 H 13.3248 -0.00824265 2.99399 0
M  V30 142 H 10.8708 -0.0025244 1.44 0
M  V30 143 H 12.8238 -2.39937 3.46422 0
M  V30 144 H 11.5478 -2.39405 2.22155 0
M  V30 145 H 10.2068 -0.756156 3.58717 0
M  V30 146 H 9.8548 -3.21632 3.86732 0
M  V30 147 H 9.5548 -2.3409 5.38958 0
M  V30 148 H 11.0788 -3.24732 5.1709 0
M  V30 149 H 12.4928 -1.02498 5.64063 0
M  V30 150 H 10.8898 -0.316424 5.99265 0
M  V30 151 H 11.9598 0.480459 4.82514 0
M  V30 152 N 13.3029 -1.57598 0.00835791 0
M  V30 153 C 14.5279 -1.95617 -0.689103 0
M  V30 154 C 14.9529 -0.883753 -1.66046 0
M  V30 155 O 14.3109 0.157352 -1.80616 0
M  V30 156 C 14.3589 -3.32736 -1.38994 0
M  V30 157 O 13.4629 -3.27631 -2.50463 0
M  V30 158 H 12.8039 -0.638379 -0.182668 0
M  V30 159 H 15.3339 -2.045 0.064036 0
M  V30 160 H 15.3439 -3.68494 -1.75147 0
M  V30 161 H 14.0189 -4.1034 -0.677778 0
M  V30 162 H 12.5959 -3.03561 -2.16576 0
M  V30 163 N 14.781 0.264519 -1.55364 0
M  V30 164 C 15.729 1.34702 -1.89626 0
M  V30 165 C 16.723 1.50712 -0.773459 0
M  V30 166 O 17.929 1.52395 -0.957897 0
M  V30 167 H 14.304 0.450682 -0.601988 0
M  V30 168 H 16.275 1.0306 -2.80038 0
M  V30 169 C 15.024 2.6989 -2.19214 0
M  V30 170 H 14.347 2.58365 -3.05103 0
M  V30 171 H 15.787 3.44553 -2.47102 0
M  V30 172 C 14.246 3.21637 -1.00254 0
M  V30 173 O 14.776 4.00973 -0.241501 0
M  V30 174 N 12.982 2.7943 -0.797938 0
M  V30 175 H 12.529 2.15026 -1.4185 0
M  V30 176 H 12.487 3.144 -0.00363422 0
M  V30 177 N 16.2591 1.48442 0.529413 0
M  V30 178 C 17.5061 1.56488 1.28521 0
M  V30 179 C 17.8341 0.239042 1.93025 0
M  V30 180 O 17.0891 -0.770713 1.79885 0
M  V30 181 C 17.3881 2.6523 2.39558 0
M  V30 182 C 17.0541 4.07648 1.92702 0
M  V30 183 C 15.7161 4.46411 1.79641 0
M  V30 184 C 18.0681 4.96896 1.573 0
M  V30 185 C 15.3961 5.72226 1.29514 0
M  V30 186 C 17.7481 6.23202 1.08636 0
M  V30 187 C 16.4121 6.60821 0.941919 0
M  V30 188 H 15.6821 0.572631 0.470292 0
M  V30 189 H 18.3291 1.82161 0.59072 0
M  V30 190 H 16.6341 2.33419 3.14679 0
M  V30 191 H 18.3311 2.68671 2.97686 0
M  V30 192 H 14.9211 3.77036 2.03819 0
M  V30 193 H 19.1051 4.67626 1.66251 0
M  V30 194 H 14.3611 6.00097 1.17019 0
M  V30 195 H 18.5351 6.91753 0.803136 0
M  V30 196 H 16.1621 7.58198 0.5513 0
M  V30 197 N 17.7372 -0.778329 1.37039 0
M  V30 198 C 19.0142 -1.52551 1.22424 0
M  V30 199 C 19.3942 -2.10288 -0.184964 0
M  V30 200 O 18.7422 -1.94953 -1.19187 0
M  V30 201 C 18.9522 -2.61164 2.31504 0
M  V30 202 C 20.3002 -3.28746 2.68721 0
M  V30 203 O 21.3242 -2.71455 2.30631 0
M  V30 204 O 20.1832 -4.3231 3.3432 0
M  V30 205 H 17.2772 -0.675343 0.477326 0
M  V30 206 H 19.8232 -0.815859 1.48801 0
M  V30 207 H 18.5952 -2.16574 3.25901 0
M  V30 208 H 18.2182 -3.39737 2.06554 0
M  V30 209 N 19.2153 -1.21501 -1.00376 0
M  V30 210 C 20.4553 -1.04444 -1.75701 0
M  V30 211 C 20.8193 0.414644 -1.87469 0
M  V30 212 O 22.0203 0.705763 -2.59369 0
M  V30 213 C 20.2913 -1.72389 -3.13077 0
M  V30 214 S 21.8503 -1.70604 -4.04277 0
M  V30 215 H 18.6683 -0.374249 -0.604532 0
M  V30 216 H 21.2703 -1.54267 -1.20091 0
M  V30 217 H 19.9743 -2.77734 -3.02146 0
M  V30 218 H 19.5053 -1.22751 -3.73759 0
M  V30 219 H 21.5203 -0.748012 -4.9053 0
M  V30 220 N 20.6934 1.19889 -1.02296 0
M  V30 221 C 21.9414 1.89046 -0.714558 0
M  V30 222 C 22.2624 1.79636 0.758681 0
M  V30 223 O 21.5324 1.20292 1.54618 0
M  V30 224 H 20.1124 0.699802 -0.261317 0
M  V30 225 H 22.7744 1.45574 -1.29592 0
M  V30 226 H 21.8704 2.95524 -1.0036 0
M  V30 227 N 22.1715 0.800033 1.35784 0
M  V30 228 C 23.3965 0.388511 2.03729 0
M  V30 229 C 23.8215 -0.990481 1.5991 0
M  V30 230 O 23.1795 -1.64013 0.772612 0
M  V30 231 C 23.2275 0.4726 3.5749 0
M  V30 232 O 22.3315 -0.51646 4.09153 0
M  V30 233 H 21.6725 0.163271 0.643614 0
M  V30 234 H 24.2025 1.0841 1.73518 0
M  V30 235 H 24.2125 0.34003 4.06581 0
M  V30 236 H 22.8875 1.47848 3.88734 0
M  V30 237 H 21.4645 -0.344673 3.71304 0
M  V30 238 N 23.6496 -1.47581 0.552962 0
M  V30 239 C 24.8896 -2.04379 0.0296245 0
M  V30 240 C 25.2536 -1.4185 -1.29393 0
M  V30 241 O 26.4546 -1.89669 -1.90471 0
M  V30 242 C 24.7256 -3.57339 -0.0661371 0
M  V30 243 S 26.2846 -4.35511 -0.536213 0
M  V30 244 H 23.1026 -0.710625 0.0230991 0
M  V30 245 H 25.7046 -1.81005 0.738734 0
M  V30 246 H 24.4086 -4.00374 0.901596 0
M  V30 247 H 23.9396 -3.85202 -0.798931 0
M  V30 248 H 25.9546 -4.6253 -1.79668 0
M  V30 249 N 25.1277 -0.289203 -1.54924 0
M  V30 250 C 26.0597 0.625583 -2.20497 0
M  V30 251 C 27.0727 1.10667 -1.19402 0
M  V30 252 O 28.2617 1.02615 -1.46056 0
M  V30 253 C 25.3617 1.86702 -2.82835 0
M  V30 254 C 24.5347 1.5304 -4.09753 0
M  V30 255 C 23.5937 2.62576 -4.56005 0
M  V30 256 O 22.6197 2.28167 -5.21468 0
M  V30 257 N 23.8217 3.92901 -4.27328 0
M  V30 258 H 26.5867 0.0642801 -2.99631 0
M  V30 259 H 24.1477 -0.110896 -1.6152 0
M  V30 260 H 26.1397 2.59304 -3.10715 0
M  V30 261 H 24.7097 2.33702 -2.07611 0
M  V30 262 H 23.9297 0.637564 -3.8901 0
M  V30 263 H 25.2177 1.28072 -4.92418 0
M  V30 264 H 24.6157 4.23671 -3.74859 0
M  V30 265 H 23.1727 4.61837 -4.59946 0
M  V30 266 N 26.6058 1.57591 -0.0167156 0
M  V30 267 C 27.8308 1.9598 0.67872 0
M  V30 268 C 28.2558 0.892546 1.65575 0
M  V30 269 O 27.6138 -0.147772 1.80697 0
M  V30 270 C 27.6618 3.33468 1.37227 0
M  V30 271 O 26.7658 3.28954 2.48722 0
M  V30 272 H 26.1068 0.639339 0.17928 0
M  V30 273 H 28.6368 2.04463 -0.0748802 0
M  V30 274 H 28.6468 3.69417 1.7319 0
M  V30 275 H 27.3218 4.10694 0.656007 0
M  V30 276 H 25.8988 3.04705 2.14963 0
M  V30 277 N 28.0839 -0.256276 1.55502 0
M  V30 278 C 29.3239 -0.993081 1.78654 0
M  V30 279 C 29.6879 -1.8288 0.584724 0
M  V30 280 O 30.8889 -2.59665 0.694822 0
M  V30 281 C 29.1599 -1.83856 3.06483 0
M  V30 282 S 30.7189 -2.63573 3.5082 0
M  V30 283 H 27.5369 -0.334199 0.62756 0
M  V30 284 H 30.1389 -0.26184 1.93739 0
M  V30 285 H 28.8429 -1.21414 3.92029 0
M  V30 286 H 28.3739 -2.61271 2.94111 0
M  V30 287 H 30.3889 -3.86312 3.11412 0
M  V30 288 N 29.562 -1.4872 -0.521534 0
M  V30 289 C 30.494 -1.59968 -1.64143 0
M  V30 290 C 31.507 -0.483463 -1.55456 0
M  V30 291 O 32.696 -0.75467 -1.61762 0
M  V30 292 C 29.796 -1.52127 -3.02838 0
M  V30 293 C 28.969 -2.78932 -3.36921 0
M  V30 294 C 28.028 -2.64428 -4.54933 0
M  V30 295 O 27.054 -3.38331 -4.57735 0
M  V30 296 N 28.256 -1.74606 -5.53618 0
M  V30 297 H 31.021 -2.56548 -1.54929 0
M  V30 298 H 28.582 -1.45551 -0.708988 0
M  V30 299 H 30.574 -1.40106 -3.79674 0
M  V30 300 H 29.144 -0.634868 -3.06085 0
M  V30 301 H 28.364 -3.05455 -2.4918 0
M  V30 302 H 29.652 -3.63041 -3.56481 0
M  V30 303 H 29.05 -1.13782 -5.54139 0
M  V30 304 H 27.607 -1.6852 -6.29638 0
M  V30 305 N 31.0401 0.771051 -1.3745 0
M  V30 306 C 32.2881 1.52661 -1.32435 0
M  V30 307 C 32.6091 1.9479 0.0905024 0
M  V30 308 O 31.8791 1.66348 1.03466 0
M  V30 309 H 30.4591 0.566218 -0.487244 0
M  V30 310 H 33.1211 0.917636 -1.71946 0
M  V30 311 H 32.2171 2.42568 -1.96385 0
M  V30 312 N 32.5182 1.22032 0.997298 0
M  V30 313 C 33.4282 1.00271 2.12092 0
M  V30 314 C 34.4442 -0.047621 1.73935 0
M  V30 315 O 35.6202 0.144136 2.00884 0
M  V30 316 C 32.6852 0.578449 3.4184 0
M  V30 317 C 31.7462 1.70189 3.94125 0
M  V30 318 C 30.9792 1.29778 5.17681 0
M  V30 319 O 31.2022 0.174676 5.70132 0
M  V30 320 O 30.1362 2.11261 5.63607 0
M  V30 321 H 33.9622 1.94398 2.3333 0
M  V30 322 H 31.5472 1.00587 1.10465 0
M  V30 323 H 33.4292 0.351998 4.19927 0
M  V30 324 H 32.1042 -0.334019 3.21972 0
M  V30 325 H 31.0112 1.98282 3.1723 0
M  V30 326 H 32.3442 2.59206 4.18417 0
M  V30 327 N 33.9963 -1.19345 1.0293 0
M  V30 328 C 34.9593 -2.20793 0.615069 0
M  V30 329 C 35.9593 -1.57553 -0.321533 0
M  V30 330 O 37.1493 -1.73862 -0.108483 0
M  V30 331 C 34.2813 -3.40754 -0.0999222 0
M  V30 332 H 35.4743 -2.58955 1.51269 0
M  V30 333 H 33.0273 -1.3303 0.820534 0
M  V30 334 H 33.7623 -3.0811 -1.01187 0
M  V30 335 H 33.5473 -3.87889 0.57309 0
M  V30 336 H 35.0373 -4.15898 -0.376645 0
M  V30 337 N 35.4744 -0.807222 -1.35358 0
M  V30 338 C 36.7204 -0.388463 -1.99045 0
M  V30 339 C 37.0534 1.04184 -1.63888 0
M  V30 340 O 36.3284 1.72292 -0.902535 0
M  V30 341 C 36.6114 -0.572783 -3.55515 0
M  V30 342 C 36.4644 -2.04807 -4.00468 0
M  V30 343 C 37.7834 0.00114064 -4.401 0
M  V30 344 H 34.9024 -0.142619 -0.723069 0
M  V30 345 H 37.5444 -1.01687 -1.60498 0
M  V30 346 H 35.6944 -0.0378425 -3.88482 0
M  V30 347 H 37.3664 -2.64544 -3.77908 0
M  V30 348 H 35.6094 -2.54427 -3.51353 0
M  V30 349 H 36.2804 -2.12792 -5.09337 0
M  V30 350 H 38.7564 -0.455716 -4.13597 0
M  V30 351 H 37.6324 -0.157737 -5.48673 0
M  V30 352 H 37.8934 1.09488 -4.28328 0
M  V30 353 N 36.9525 1.47285 -0.560781 0
M  V30 354 C 37.9005 2.31756 0.197942 0
M  V30 355 C 38.8945 1.43146 0.905854 0
M  V30 356 O 40.1005 1.59891 0.826733 0
M  V30 357 H 36.4755 0.747438 0.0827049 0
M  V30 358 H 38.4465 2.9359 -0.533629 0
M  V30 359 C 37.1955 3.25874 1.21249 0
M  V30 360 H 36.5185 3.94023 0.67719 0
M  V30 361 H 37.9585 3.87803 1.71419 0
M  V30 362 C 36.4175 2.49651 2.26221 0
M  V30 363 O 36.9475 2.24355 3.33208 0
M  V30 364 N 35.1535 2.10597 2.00243 0
M  V30 365 H 34.7005 2.31369 1.13252 0
M  V30 366 H 34.6585 1.59913 2.70694 0
M  V30 367 N 38.4306 0.297415 1.54768 0
M  V30 368 C 39.8416 -0.195947 1.85669 0
M  V30 369 C 40.1926 -1.53707 1.21937 0
M  V30 370 O 39.3176 -2.10164 0.515754 0
M  V30 371 C 39.9126 -0.362318 3.36857 0
M  V30 372 C 38.4716 -0.799901 3.67802 0
M  V30 373 C 37.6186 0.0938578 2.77141 0
M  V30 374 H 40.5696 0.518538 1.4999 0
M  V30 375 H 40.5906 -1.19745 3.61167 0
M  V30 376 H 40.1026 0.613921 3.83214 0
M  V30 377 H 38.2036 -1.78682 3.26961 0
M  V30 378 H 38.3166 -0.621773 4.75048 0
M  V30 379 H 36.6806 -0.426254 2.51108 0
M  V30 380 H 37.4636 1.06639 3.26318 0
M  V30 381 N 39.9087 -1.5758 0.0250728 0
M  V30 382 C 41.1387 -1.95646 -0.663783 0
M  V30 383 C 41.5467 -0.899935 -1.66427 0
M  V30 384 O 40.8897 0.127191 -1.83259 0
M  V30 385 C 40.9517 -3.29835 -1.43 0
M  V30 386 C 40.6157 -4.53197 -0.588305 0
M  V30 387 C 41.6127 -5.19726 0.13469 0
M  V30 388 C 39.2977 -4.99529 -0.526897 0
M  V30 389 C 41.2917 -6.30902 0.90781 0
M  V30 390 C 38.9787 -6.10589 0.24993 0
M  V30 391 C 39.9767 -6.76134 0.965994 0
M  V30 392 O 39.6647 -7.85062 1.7301 0
M  V30 393 H 39.3967 -0.649282 -0.188174 0
M  V30 394 H 41.9507 -2.05245 0.0799006 0
M  V30 395 H 40.1807 -3.16716 -2.21873 0
M  V30 396 H 41.8697 -3.52833 -2.00658 0
M  V30 397 H 42.6357 -4.84904 0.0965562 0
M  V30 398 H 38.5147 -4.48319 -1.07381 0
M  V30 399 H 42.0587 -6.81995 1.46724 0
M  V30 400 H 37.9557 -6.44849 0.289795 0
M  V30 401 H 38.7237 -8.01708 1.64944 0
M  V30 402 N 41.3868 0.248026 -1.55636 0
M  V30 403 C 42.6268 0.983592 -1.79178 0
M  V30 404 C 42.9908 1.82567 -0.594414 0
M  V30 405 O 44.1918 2.59292 -0.708583 0
M  V30 406 C 42.4628 1.82228 -3.07454 0
M  V30 407 S 44.0218 2.61709 -3.52213 0
M  V30 408 H 40.8398 0.330866 -0.629324 0
M  V30 409 H 43.4418 0.251562 -1.93875 0
M  V30 410 H 42.1458 1.19333 -3.92668 0
M  V30 411 H 41.6768 2.59708 -2.95492 0
M  V30 412 H 43.6918 3.84655 -3.13457 0
M  V30 413 N 42.8649 1.48995 0.513639 0
M  V30 414 C 43.8279 1.64229 1.59879 0
M  V30 415 C 44.8279 0.514696 1.5234 0
M  V30 416 O 46.0179 0.78087 1.55718 0
M  V30 417 C 43.1499 1.62783 2.99524 0
M  V30 418 H 44.3429 2.61004 1.47705 0
M  V30 419 H 41.8959 1.37837 0.736936 0
M  V30 420 H 42.6309 0.675461 3.17188 0
M  V30 421 H 42.4159 2.4466 3.06404 0
M  V30 422 H 43.9059 1.76669 3.78388 0
M  V30 423 N 44.343 -0.763751 1.37857 0
M  V30 424 C 45.589 -1.52483 1.33704 0
M  V30 425 C 45.922 -1.94051 -0.0759612 0
M  V30 426 O 45.197 -1.64675 -1.03501 0
M  V30 427 C 45.48 -2.78441 2.28348 0
M  V30 428 C 45.333 -2.43075 3.78463 0
M  V30 429 C 46.652 -3.80415 2.21298 0
M  V30 430 H 43.771 -0.553169 0.487005 0
M  V30 431 H 46.413 -0.875562 1.68624 0
M  V30 432 H 44.563 -3.33842 1.987 0
M  V30 433 H 46.235 -1.93527 4.18742 0
M  V30 434 H 44.478 -1.75666 3.96641 0
M  V30 435 H 45.149 -3.33149 4.40132 0
M  V30 436 H 47.625 -3.34527 2.47449 0
M  V30 437 H 46.501 -4.66257 2.89647 0
M  V30 438 H 46.762 -4.25262 1.20849 0
M  V30 439 N 45.8211 -1.22559 -0.990812 0
M  V30 440 C 46.7511 -1.0218 -2.09956 0
M  V30 441 C 47.7321 0.0579394 -1.70001 0
M  V30 442 O 48.9171 -0.104684 -1.93918 0
M  V30 443 C 46.0471 -0.601023 -3.4206 0
M  V30 444 C 45.0011 -1.62694 -3.95872 0
M  V30 445 C 44.3271 -1.06193 -5.24049 0
M  V30 446 C 45.6271 -3.01743 -4.2632 0
M  V30 447 H 47.3211 -1.94916 -2.27262 0
M  V30 448 H 44.8671 -0.938566 -1.09211 0
M  V30 449 H 46.8201 -0.445561 -4.19038 0
M  V30 450 H 45.5441 0.362005 -3.24588 0
M  V30 451 H 44.2031 -1.77021 -3.21028 0
M  V30 452 H 43.8511 -0.0901903 -5.02919 0
M  V30 453 H 43.5511 -1.74732 -5.61019 0
M  V30 454 H 45.0751 -0.918092 -6.03658 0
M  V30 455 H 46.4891 -2.90777 -4.94087 0
M  V30 456 H 44.8861 -3.67425 -4.74467 0
M  V30 457 H 45.9561 -3.51518 -3.34011 0
M  V30 458 N 47.2992 1.18797 -1.03562 0
M  V30 459 C 48.5452 1.8893 -0.737113 0
M  V30 460 C 48.8782 1.79837 0.732956 0
M  V30 461 O 48.1532 1.19525 1.5344 0
M  V30 462 C 48.4362 3.39607 -1.19745 0
M  V30 463 C 48.2892 3.57537 -2.72924 0
M  V30 464 C 49.6082 4.33069 -0.783526 0
M  V30 465 H 46.7272 0.686057 -0.269249 0
M  V30 466 H 49.3692 1.39797 -1.28673 0
M  V30 467 H 47.5192 3.81583 -0.729855 0
M  V30 468 H 49.1912 3.24688 -3.27682 0
M  V30 469 H 47.4342 3.00363 -3.12993 0
M  V30 470 H 48.1052 4.63238 -3.00191 0
M  V30 471 H 50.5812 3.98846 -1.18581 0
M  V30 472 H 49.4572 5.3707 -1.13343 0
M  V30 473 H 49.7182 4.40986 0.313681 0
M  V30 474 N 48.7773 0.814389 1.34928 0
M  V30 475 C 49.7243 0.22822 2.29669 0
M  V30 476 C 50.6943 -0.642164 1.53184 0
M  V30 477 O 51.8793 -0.585605 1.81591 0
M  V30 478 C 49.0193 -0.61089 3.3965 0
M  V30 479 C 48.1323 0.280792 4.31086 0
M  V30 480 C 47.2673 -0.567067 5.28165 0
M  V30 481 C 46.3063 0.324531 6.11239 0
M  V30 482 N 45.4433 -0.483756 7.00431 0
M  V30 483 H 50.2833 1.04153 2.79206 0
M  V30 484 H 47.8203 0.525133 1.37407 0
M  V30 485 H 49.7783 -1.11263 4.0209 0
M  V30 486 H 48.4083 -1.38939 2.91369 0
M  V30 487 H 47.4603 0.900688 3.69583 0
M  V30 488 H 48.7723 0.966723 4.89342 0
M  V30 489 H 47.9263 -1.13363 5.96015 0
M  V30 490 H 46.6653 -1.28654 4.70425 0
M  V30 491 H 45.6703 0.903298 5.42329 0
M  V30 492 H 46.8953 1.04198 6.71059 0
M  V30 493 H 44.8413 -1.18706 6.45171 0
M  V30 494 H 44.7583 0.143965 7.55863 0
M  V30 495 H 46.0263 -1.03334 7.7262 0
M  V30 496 N 50.2554 -1.46986 0.568584 0
M  V30 497 C 51.1654 -2.33942 -0.17555 0
M  V30 498 C 52.1814 -1.48891 -0.90041 0
M  V30 499 O 53.3574 -1.81794 -0.86676 0
M  V30 500 C 50.4224 -3.25811 -1.18524 0
M  V30 501 C 49.4834 -4.26757 -0.466582 0
M  V30 502 C 48.7164 -5.14236 -1.42817 0
M  V30 503 O 48.9394 -5.04379 -2.66379 0
M  V30 504 O 47.8734 -5.94412 -0.946453 0
M  V30 505 H 51.6994 -2.98896 0.538036 0
M  V30 506 H 49.2844 -1.4573 0.329097 0
M  V30 507 H 51.1664 -3.82527 -1.76779 0
M  V30 508 H 49.8414 -2.63471 -1.88055 0
M  V30 509 H 48.7484 -3.73769 0.157451 0
M  V30 510 H 50.0814 -4.91843 0.187485 0
M  V30 511 N 51.7335 -0.305618 -1.54608 0
M  V30 512 C 52.9635 0.304333 -2.04346 0
M  V30 513 C 53.3715 1.47715 -1.18224 0
M  V30 514 O 52.7145 1.82591 -0.201577 0
M  V30 515 C 52.7765 0.819031 -3.50046 0
M  V30 516 C 52.4405 -0.22912 -4.56425 0
M  V30 517 C 53.4375 -1.05914 -5.08997 0
M  V30 518 C 51.1225 -0.372148 -5.0092 0
M  V30 519 C 53.1165 -2.01809 -6.04609 0
M  V30 520 C 50.8035 -1.33454 -5.9635 0
M  V30 521 C 51.8015 -2.15599 -6.48079 0
M  V30 522 O 51.4895 -3.10205 -7.41639 0
M  V30 523 H 51.2215 0.0693996 -0.672428 0
M  V30 524 H 53.7755 -0.444548 -2.00532 0
M  V30 525 H 52.0055 1.61852 -3.51199 0
M  V30 526 H 53.6945 1.34537 -3.82955 0
M  V30 527 H 54.4605 -0.959538 -4.75413 0
M  V30 528 H 50.3395 0.257304 -4.60281 0
M  V30 529 H 53.8835 -2.65966 -6.44909 0
M  V30 530 H 49.7805 -1.43485 -6.29351 0
M  V30 531 H 50.5485 -3.05237 -7.59455 0
M  V30 532 N 53.2116 1.57565 -0.0334293 0
M  V30 533 C 54.4576 1.92262 0.645226 0
M  V30 534 C 54.7906 0.910543 1.71531 0
M  V30 535 O 54.0656 -0.066099 1.94388 0
M  V30 536 C 54.3486 3.37422 1.2577 0
M  V30 537 C 54.2016 4.49369 0.196891 0
M  V30 538 C 55.5206 3.82628 2.17449 0
M  V30 539 H 52.6396 0.699171 0.233085 0
M  V30 540 H 55.2816 1.89779 -0.0915694 0
M  V30 541 H 53.4316 3.39669 1.88566 0
M  V30 542 H 55.1036 4.59254 -0.433962 0
M  V30 543 H 53.3466 4.31168 -0.477137 0
M  V30 544 H 54.0176 5.47978 0.665124 0
M  V30 545 H 56.4936 3.82145 1.64634 0
M  V30 546 H 55.3696 4.84883 2.57254 0
M  V30 547 H 55.6306 3.18376 3.0674 0
M  V30 548 N 54.6897 -0.239769 1.55765 0
M  V30 549 C 55.5997 -1.31831 1.94056 0
M  V30 550 C 56.6157 -1.52275 0.841925 0
M  V30 551 O 57.7917 -1.65759 1.14394 0
M  V30 552 C 54.8567 -2.65156 2.23368 0
M  V30 553 C 53.9177 -2.53173 3.46701 0
M  V30 554 C 53.1507 -3.8014 3.74606 0
M  V30 555 O 53.3737 -4.82343 3.04469 0
M  V30 556 O 52.3077 -3.78344 4.68123 0
M  V30 557 H 56.1337 -1.02347 2.85935 0
M  V30 558 H 53.7187 -0.441123 1.42739 0
M  V30 559 H 55.6007 -3.43929 2.43497 0
M  V30 560 H 54.2757 -2.94358 1.34666 0
M  V30 561 H 53.1827 -1.72662 3.31871 0
M  V30 562 H 54.5157 -2.28915 4.35728 0
M  V30 563 N 56.1678 -1.49265 -0.50573 0
M  V30 564 C 57.3928 -1.62478 -1.28902 0
M  V30 565 C 57.8178 -0.294332 -1.85783 0
M  V30 566 O 57.1758 0.737412 -1.65626 0
M  V30 567 C 57.2238 -2.69268 -2.39848 0
M  V30 568 O 56.3278 -2.28113 -3.43567 0
M  V30 569 H 55.6688 -0.54399 -0.380751 0
M  V30 570 H 58.1988 -1.95421 -0.605952 0
M  V30 571 H 58.2088 -2.91291 -2.85681 0
M  V30 572 H 56.8838 -3.65846 -1.97812 0
M  V30 573 H 55.4608 -2.16401 -3.03685 0
M  V30 574 N 57.6459 0.756429 -1.3826 0
M  V30 575 C 58.5559 1.9009 -1.37488 0
M  V30 576 C 59.5719 1.71855 -0.272366 0
M  V30 577 O 60.7479 1.94827 -0.510318 0
M  V30 578 C 57.8129 3.25421 -1.19592 0
M  V30 579 C 56.8739 3.56202 -2.39622 0
M  V30 580 C 56.1069 4.85075 -2.2257 0
M  V30 581 O 56.3299 5.57246 -1.21793 0
M  V30 582 O 55.2639 5.15269 -3.11098 0
M  V30 583 H 59.0899 1.93695 -2.33914 0
M  V30 584 H 56.6749 0.901313 -1.1915 0
M  V30 585 H 58.5569 4.06337 -1.11661 0
M  V30 586 H 57.2319 3.22634 -0.262486 0
M  V30 587 H 56.1389 2.75458 -2.53128 0
M  V30 588 H 57.4719 3.63747 -3.31586 0
M  V30 589 N 59.124 1.23083 0.984299 0
M  V30 590 C 60.072 1.00593 2.09723 0
M  V30 591 C 61.066 -0.0538014 1.69315 0
M  V30 592 O 62.272 0.0993719 1.79725 0
M  V30 593 H 58.647 0.30817 0.685956 0
M  V30 594 H 60.618 1.95012 2.2586 0
M  V30 595 C 59.367 0.609601 3.42314 0
M  V30 596 H 58.69 1.41675 3.73856 0
M  V30 597 H 60.13 0.491726 4.21139 0
M  V30 598 C 58.589 -0.681745 3.2993 0
M  V30 599 O 59.119 -1.73192 3.62446 0
M  V30 600 N 57.325 -0.656178 2.83095 0
M  V30 601 H 56.872 0.198759 2.56832 0
M  V30 602 H 56.83 -1.52044 2.75191 0
M  V30 603 N 60.6021 -1.18246 1.0419 0
M  V30 604 C 61.8501 -1.87886 0.744543 0
M  V30 605 C 62.1711 -1.8082 -0.730006 0
M  V30 606 O 61.4411 -1.22736 -1.52685 0
M  V30 607 H 60.0211 -0.695556 0.272417 0
M  V30 608 H 62.6831 -1.43494 1.31892 0
M  V30 609 H 61.7791 -2.9389 1.05049 0
M  V30 610 N 62.0802 -0.821533 -1.34494 0
M  V30 611 C 63.0122 -0.199946 -2.28326 0
M  V30 612 C 64.0252 0.609377 -1.50965 0
M  V30 613 O 65.2142 0.439285 -1.7301 0
M  V30 614 C 62.3142 0.738431 -3.30757 0
M  V30 615 C 61.4872 -0.0277632 -4.37391 0
M  V30 616 C 60.5462 0.831332 -5.19591 0
M  V30 617 O 59.5722 0.276822 -5.68526 0
M  V30 618 N 60.7742 2.15132 -5.39165 0
M  V30 619 H 63.5392 -1.00609 -2.82308 0
M  V30 620 H 61.1002 -0.678366 -1.47003 0
M  V30 621 H 63.0922 1.31773 -3.82646 0
M  V30 622 H 61.6622 1.44533 -2.7718 0
M  V30 623 H 60.8822 -0.788359 -3.86236 0
M  V30 624 H 62.1702 -0.555251 -5.05761 0
M  V30 625 H 61.5682 2.62559 -5.01078 0
M  V30 626 H 60.1252 2.6795 -5.94177 0
M  V30 627 N 63.5583 1.46682 -0.576371 0
M  V30 628 C 64.4913 2.27243 0.208731 0
M  V30 629 C 65.4693 1.35238 0.902746 0
M  V30 630 O 66.6533 1.64641 0.917904 0
M  V30 631 C 63.7803 3.12802 1.29896 0
M  V30 632 C 62.8263 4.20524 0.711457 0
M  V30 633 S 63.6593 5.33548 -0.456781 0
M  V30 634 C 64.8153 6.22673 0.634798 0
M  V30 635 H 65.0483 2.93484 -0.474838 0
M  V30 636 H 62.5813 1.50069 -0.363118 0
M  V30 637 H 64.5393 3.62661 1.92321 0
M  V30 638 H 63.2003 2.45887 1.95444 0
M  V30 639 H 62.3933 4.80191 1.53076 0
M  V30 640 H 61.9953 3.73645 0.162999 0
M  V30 641 H 64.2873 6.60181 1.52209 0
M  V30 642 H 65.2303 7.0806 0.0750311 0
M  V30 643 H 65.6383 5.56684 0.936092 0
M  V30 644 N 65.0364 0.313813 1.54444 0
M  V30 645 C 66.2664 -0.293491 2.04505 0
M  V30 646 C 66.6744 -1.47086 1.19005 0
M  V30 647 O 66.0174 -1.82481 0.211257 0
M  V30 648 C 66.0794 -0.800455 3.50475 0
M  V30 649 C 65.7434 0.253322 4.56297 0
M  V30 650 C 66.7404 1.08612 5.08428 0
M  V30 651 C 64.4254 0.398708 5.00715 0
M  V30 652 C 66.4194 2.05013 6.0353 0
M  V30 653 C 64.1064 1.36614 5.95634 0
M  V30 654 C 65.1044 2.19033 6.46926 0
M  V30 655 O 64.7924 3.14134 7.39983 0
M  V30 656 H 64.5244 -0.0658325 0.672787 0
M  V30 657 H 67.0784 0.455177 2.00293 0
M  V30 658 H 65.3084 -1.59987 3.52053 0
M  V30 659 H 66.9974 -1.32504 3.83663 0
M  V30 660 H 67.7634 0.984736 4.74898 0
M  V30 661 H 63.6424 -0.23289 4.60411 0
M  V30 662 H 67.1864 2.69382 6.4349 0
M  V30 663 H 63.0834 1.4682 6.28581 0
M  V30 664 H 63.8514 3.0926 7.57826 0
M  V30 665 N 66.5145 -1.57545 0.0417849 0
M  V30 666 C 67.7635 -1.91494 -0.633492 0
M  V30 667 C 68.0765 -0.921084 -1.72556 0
M  V30 668 O 69.2825 -1.15228 -2.45835 0
M  V30 669 C 67.7385 -3.40072 -1.17808 0
M  V30 670 C 67.3465 -4.47843 -0.118633 0
M  V30 671 C 69.0905 -3.8307 -1.82915 0
M  V30 672 C 66.9975 -5.87529 -0.675578 0
M  V30 673 H 65.9275 -0.714653 -0.24039 0
M  V30 674 H 68.5785 -1.83175 0.109148 0
M  V30 675 H 66.9605 -3.43364 -1.97274 0
M  V30 676 H 68.1345 -4.56128 0.654494 0
M  V30 677 H 66.4495 -4.14128 0.434414 0
M  V30 678 H 69.0465 -4.84794 -2.25563 0
M  V30 679 H 69.3895 -3.1881 -2.67705 0
M  V30 680 H 69.9225 -3.82255 -1.10119 0
M  V30 681 H 66.6615 -6.55362 0.134475 0
M  V30 682 H 66.1815 -5.82824 -1.4169 0
M  V30 683 H 67.8605 -6.36491 -1.1614 0
M  V30 684 N 67.9926 0.231505 -1.5589 0
M  V30 685 C 68.9246 1.31006 -1.8807 0
M  V30 686 C 69.9376 1.43539 -0.768145 0
M  V30 687 O 71.1266 1.44614 -1.04638 0
M  V30 688 C 68.2266 2.68688 -2.06543 0
M  V30 689 C 67.3996 2.78228 -3.37502 0
M  V30 690 C 66.4586 3.96857 -3.4553 0
M  V30 691 O 65.4846 3.85662 -4.18633 0
M  V30 692 N 66.6866 5.1072 -2.75944 0
M  V30 693 H 69.4516 1.03731 -2.81176 0
M  V30 694 H 67.0126 0.421573 -1.56315 0
M  V30 695 H 69.0046 3.46412 -2.09239 0
M  V30 696 H 67.5746 2.88605 -1.20109 0
M  V30 697 H 66.7946 1.87059 -3.46991 0
M  V30 698 H 68.0826 2.81564 -4.23791 0
M  V30 699 H 67.4806 5.2271 -2.16311 0
M  V30 700 H 66.0376 5.86523 -2.84314 0
M  V30 701 N 69.4707 1.49531 0.497807 0
M  V30 702 C 70.4177 1.66436 1.59899 0
M  V30 703 C 71.3877 0.505793 1.58212 0
M  V30 704 O 72.5727 0.733202 1.7615 0
M  V30 705 C 69.7127 1.7399 2.98029 0
M  V30 706 C 68.8257 3.01172 3.09708 0
M  V30 707 C 67.9607 2.99686 4.38591 0
M  V30 708 C 66.9997 4.21434 4.43914 0
M  V30 709 N 66.1367 4.1784 5.64229 0
M  V30 710 H 70.9767 2.60459 1.44793 0
M  V30 711 H 68.5137 1.29137 0.704423 0
M  V30 712 H 70.4717 1.76352 3.78095 0
M  V30 713 H 69.1017 0.834301 3.11832 0
M  V30 714 H 68.1537 3.08408 2.22685 0
M  V30 715 H 69.4657 3.91165 3.09502 0
M  V30 716 H 68.6197 3.00628 5.2698 0
M  V30 717 H 67.3587 2.07477 4.41367 0
M  V30 718 H 66.3637 4.20733 3.53926 0
M  V30 719 H 67.5887 5.14839 4.42851 0
M  V30 720 H 65.5347 3.28469 5.67841 0
M  V30 721 H 65.4517 5.01571 5.65652 0
M  V30 722 H 66.7197 4.22889 6.54817 0
M  V30 723 N 70.9488 -0.749086 1.3866 0
M  V30 724 C 71.8958 -1.86291 1.36251 0
M  V30 725 C 72.8658 -1.64578 0.224347 0
M  V30 726 O 74.0508 -1.86181 0.417279 0
M  V30 727 C 71.1908 -3.23644 1.19786 0
M  V30 728 C 70.3038 -3.57158 2.43027 0
M  V30 729 C 69.4388 -4.83838 2.19258 0
M  V30 730 C 68.4778 -5.10152 3.38247 0
M  V30 731 N 67.6148 -6.28029 3.13884 0
M  V30 732 H 72.4548 -1.87685 2.3147 0
M  V30 733 H 69.9918 -0.917287 1.14997 0
M  V30 734 H 71.9498 -4.0291 1.08254 0
M  V30 735 H 70.5798 -3.21566 0.282031 0
M  V30 736 H 69.6318 -2.72701 2.65214 0
M  V30 737 H 70.9438 -3.7253 3.31697 0
M  V30 738 H 70.0978 -5.71057 2.04888 0
M  V30 739 H 68.8368 -4.70614 1.2796 0
M  V30 740 H 67.8418 -4.21401 3.53131 0
M  V30 741 H 69.0668 -5.25271 4.30427 0
M  V30 742 H 67.0128 -6.1612 2.25238 0
M  V30 743 H 66.9298 -6.43922 3.96106 0
M  V30 744 H 68.1978 -7.18124 3.03179 0
M  V30 745 N 72.4269 -1.23603 -0.977757 0
M  V30 746 C 73.8379 -1.06424 -1.53398 0
M  V30 747 C 74.1889 0.367578 -1.92726 0
M  V30 748 O 73.3139 1.25465 -1.76316 0
M  V30 749 C 73.9089 -1.92568 -2.78753 0
M  V30 750 C 72.4679 -1.79642 -3.30765 0
M  V30 751 C 71.6149 -1.88111 -2.03739 0
M  V30 752 H 74.5659 -1.37227 -0.797152 0
M  V30 753 H 74.5869 -1.45203 -3.51705 0
M  V30 754 H 74.0989 -2.96771 -2.50098 0
M  V30 755 H 72.1999 -0.782325 -3.64294 0
M  V30 756 H 72.3129 -2.63174 -4.00345 0
M  V30 757 H 70.6769 -1.31723 -2.17994 0
M  V30 758 H 71.4599 -2.93875 -1.77461 0
M  V30 759 N 73.905 1.17692 -1.04816 0
M  V30 760 C 75.133 1.91786 -0.776254 0
M  V30 761 C 75.548 1.76604 0.667577 0
M  V30 762 O 74.905 1.10067 1.45573 0
M  V30 763 C 74.956 3.42967 -1.14263 0
M  V30 764 O 74.677 3.57678 -2.52978 0
M  V30 765 C 76.178 4.34144 -0.896311 0
M  V30 766 H 73.398 0.608624 -0.282519 0
M  V30 767 H 75.942 1.49268 -1.39783 0
M  V30 768 H 74.097 3.83245 -0.565874 0
M  V30 769 H 74.511 4.51319 -2.67229 0
M  V30 770 H 75.985 5.38744 -1.20244 0
M  V30 771 H 76.462 4.38876 0.168636 0
M  V30 772 H 77.068 3.99574 -1.45672 0
M  V30 773 N 75.3831 0.828654 1.34056 0
M  V30 774 C 76.3161 0.199763 2.27324 0
M  V30 775 C 77.2941 -0.647168 1.49166 0
M  V30 776 O 78.4781 -0.609661 1.78369 0
M  V30 777 C 75.6051 -0.720455 3.30949 0
M  V30 778 C 74.6511 0.0496888 4.26471 0
M  V30 779 S 75.4841 1.40072 5.16856 0
M  V30 780 C 76.6401 0.485527 6.24014 0
M  V30 781 H 76.8731 0.990478 2.80316 0
M  V30 782 H 74.4061 0.624857 1.41191 0
M  V30 783 H 76.3641 -1.24581 3.91139 0
M  V30 784 H 75.0251 -1.48474 2.76793 0
M  V30 785 H 74.2181 -0.650104 4.9979 0
M  V30 786 H 73.8201 0.505779 3.70564 0
M  V30 787 H 76.1121 -0.320672 6.76741 0
M  V30 788 H 77.0551 1.18856 6.98054 0
M  V30 789 H 77.4631 0.0714109 5.64455 0
M  V30 790 N 76.8612 -1.46375 0.584142 0
M  V30 791 C 78.0912 -2.06461 0.0758195 0
M  V30 792 C 78.4992 -1.43322 -1.23512 0
M  V30 793 O 77.8422 -0.533216 -1.75791 0
M  V30 794 C 77.9042 -3.59131 -0.162773 0
M  V30 795 C 77.5682 -4.4447 1.06279 0
M  V30 796 C 78.5652 -4.80918 1.97519 0
M  V30 797 C 76.2502 -4.85584 1.28504 0
M  V30 798 C 78.2442 -5.57309 3.09331 0
M  V30 799 C 75.9312 -5.61734 2.4062 0
M  V30 800 C 76.9292 -5.9751 3.30863 0
M  V30 801 O 76.6172 -6.72121 4.41032 0
M  V30 802 H 76.3492 -0.673745 0.0551725 0
M  V30 803 H 78.9032 -1.88969 0.804984 0
M  V30 804 H 77.1332 -3.74936 -0.946565 0
M  V30 805 H 78.8222 -4.0114 -0.619782 0
M  V30 806 H 79.5882 -4.49732 1.81565 0
M  V30 807 H 75.4672 -4.57187 0.591702 0
M  V30 808 H 79.0112 -5.85152 3.79793 0
M  V30 809 H 74.9082 -5.92334 2.56537 0
M  V30 810 H 75.6762 -6.90547 4.39417 0
M  V30 811 N 78.3393 -0.321999 -1.54275 0
M  V30 812 C 79.7503 0.166384 -1.85957 0
M  V30 813 C 80.1013 1.51747 -1.24367 0
M  V30 814 O 79.2263 2.09317 -0.549124 0
M  V30 815 C 79.8213 0.308681 -3.37391 0
M  V30 816 C 78.3803 0.741286 -3.69028 0
M  V30 817 C 77.5273 -0.137937 -2.76957 0
M  V30 818 H 80.4783 -0.542335 -1.49146 0
M  V30 819 H 80.4993 1.13984 -3.63026 0
M  V30 820 H 80.0113 -0.674809 -3.82188 0
M  V30 821 H 78.1123 1.73458 -3.29762 0
M  V30 822 H 78.2253 0.546118 -4.75977 0
M  V30 823 H 76.5893 0.386251 -2.51754 0
M  V30 824 H 77.3723 -1.11816 -3.2458 0
M  V30 825 N 79.8174 1.5752 -0.0501392 0
M  V30 826 C 81.2284 1.80271 0.485705 0
M  V30 827 C 81.5794 0.96228 1.70981 0
M  V30 828 O 80.7044 0.178578 2.15662 0
M  V30 829 C 81.2994 3.26957 0.887938 0
M  V30 830 C 79.8584 3.5063 1.36877 0
M  V30 831 C 79.0054 2.75165 0.343468 0
M  V30 832 H 81.9564 1.56281 -0.276028 0
M  V30 833 H 81.9774 3.37821 1.75093 0
M  V30 834 H 81.4894 3.881 -0.0031809 0
M  V30 835 H 79.5904 2.94766 2.27911 0
M  V30 836 H 79.7034 4.59343 1.36164 0
M  V30 837 H 78.0674 2.4127 0.816128 0
M  V30 838 H 78.8504 3.39034 -0.539548 0
M  V30 839 N 81.2955 -0.223234 1.56011 0
M  V30 840 C 82.5415 -0.944891 1.8012 0
M  V30 841 C 82.8965 -1.82039 0.622862 0
M  V30 842 O 82.1895 -1.8773 -0.383143 0
M  V30 843 C 82.3835 -1.81948 3.0762 0
M  V30 844 C 82.2125 -1.03014 4.37742 0
M  V30 845 C 80.9825 -0.72574 5.00061 0
M  V30 846 C 83.1805 -0.396256 5.12771 0
M  V30 847 N 81.1625 0.0851816 6.13841 0
M  V30 848 C 82.5335 0.278137 6.19376 0
M  V30 849 C 84.5885 -0.309117 4.9694 0
M  V30 850 C 83.2915 1.03133 7.11868 0
M  V30 851 C 85.3175 0.430607 5.8983 0
M  V30 852 C 84.6795 1.09355 6.9586 0
M  V30 853 H 80.7785 -0.326081 0.710771 0
M  V30 854 H 83.3625 -0.215914 1.93499 0
M  V30 855 H 81.5335 -2.52029 2.95527 0
M  V30 856 H 83.2655 -2.47848 3.19927 0
M  V30 857 H 80.0205 -1.04335 4.61964 0
M  V30 858 H 80.4445 0.479428 6.753 0
M  V30 859 H 85.0865 -0.807313 4.15021 0
M  V30 860 H 82.8045 1.54105 7.9327 0
M  V30 861 H 86.3905 0.499012 5.79656 0
M  V30 862 H 85.2705 1.65679 7.66499 0
M  V30 863 N 82.7736 -1.49793 -0.48987 0
M  V30 864 C 84.0506 -1.50348 -1.25119 0
M  V30 865 C 84.4306 -0.237466 -2.0976 0
M  V30 866 O 83.7786 0.77981 -2.14782 0
M  V30 867 C 83.9886 -2.78872 -2.09837 0
M  V30 868 C 85.3366 -3.288 -2.68655 0
M  V30 869 O 86.3606 -2.80065 -2.20096 0
M  V30 870 O 85.2196 -4.13707 -3.57083 0
M  V30 871 H 82.3136 -0.602242 -0.566775 0
M  V30 872 H 84.8596 -1.62067 -0.503229 0
M  V30 873 H 83.6316 -3.62499 -1.47343 0
M  V30 874 H 83.2546 -2.70066 -2.91805 0
M  V30 875 N 84.2517 0.741722 -1.39055 0
M  V30 876 C 85.4767 1.53607 -1.39354 0
M  V30 877 C 85.9017 1.88096 0.0116905 0
M  V30 878 O 85.2597 1.5143 0.996924 0
M  V30 879 C 85.3077 2.80441 -2.26682 0
M  V30 880 O 84.4117 3.76088 -1.69208 0
M  V30 881 H 83.7527 0.464142 -0.474835 0
M  V30 882 H 86.2827 0.915665 -1.82967 0
M  V30 883 H 86.2927 3.29246 -2.40959 0
M  V30 884 H 84.9677 2.5467 -3.2881 0
M  V30 885 H 83.5447 3.34833 -1.64138 0
M  V30 886 N 85.7298 1.2412 0.971189 0
M  V30 887 C 86.9578 1.10575 1.74874 0
M  V30 888 C 87.3728 -0.342017 1.85676 0
M  V30 889 O 86.7298 -1.23617 1.34258 0
M  V30 890 C 86.7808 1.73579 3.171 0
M  V30 891 O 86.5018 3.12695 3.06844 0
M  V30 892 C 88.0028 1.65598 4.11208 0
M  V30 893 H 85.2228 0.386504 0.548503 0
M  V30 894 H 87.7668 1.64156 1.21955 0
M  V30 895 H 85.9218 1.24009 3.67016 0
M  V30 896 H 86.3358 3.43412 3.96445 0
M  V30 897 H 87.8098 2.1437 5.08674 0
M  V30 898 H 88.2868 0.616532 4.34851 0
M  V30 899 H 88.8928 2.14578 3.67201 0
M  V30 900 N 87.2079 -1.17134 1.05439 0
M  V30 901 C 88.4549 -1.87456 0.765942 0
M  V30 902 C 88.7829 -1.81189 -0.707153 0
M  V30 903 O 88.0379 -1.21633 -1.5331 0
M  V30 904 C 88.3369 -3.36833 1.19491 0
M  V30 905 C 88.0029 -3.63301 2.67063 0
M  V30 906 C 86.6649 -3.70234 3.07376 0
M  V30 907 C 89.0169 -3.74575 3.62413 0
M  V30 908 C 86.3449 -3.85933 4.41896 0
M  V30 909 C 88.6969 -3.91793 4.9667 0
M  V30 910 C 87.3609 -3.96966 5.36633 0
M  V30 911 H 86.6309 -0.685948 0.280278 0
M  V30 912 H 89.2779 -1.38556 1.32192 0
M  V30 913 H 87.5829 -3.87807 0.557969 0
M  V30 914 H 89.2799 -3.89611 0.948893 0
M  V30 915 H 85.8699 -3.58532 2.34846 0
M  V30 916 H 90.0539 -3.68537 3.32406 0
M  V30 917 H 85.3099 -3.88187 4.72357 0
M  V30 918 H 89.4839 -3.99458 5.70444 0
M  V30 919 H 87.1109 -4.08883 6.40874 0
M  V30 920 N 88.686 -0.835752 -1.33615 0
M  V30 921 C 89.963 -0.352017 -1.92406 0
M  V30 922 C 90.343 1.16225 -1.76224 0
M  V30 923 O 89.691 1.97526 -1.14873 0
M  V30 924 C 89.901 -0.795485 -3.39813 0
M  V30 925 C 91.249 -0.801703 -4.16963 0
M  V30 926 O 92.273 -0.738889 -3.48452 0
M  V30 927 O 91.132 -0.886607 -5.3926 0
M  V30 928 H 88.226 -0.0989641 -0.821057 0
M  V30 929 H 90.772 -0.921397 -1.42507 0
M  V30 930 H 89.544 -1.83795 -3.45449 0
M  V30 931 H 89.167 -0.202505 -3.97084 0
M  V30 932 N 90.1641 1.46063 -0.591896 0
M  V30 933 C 91.1271 2.28854 0.125973 0
M  V30 934 C 92.1271 1.38903 0.810107 0
M  V30 935 O 93.3171 1.61186 0.66066 0
M  V30 936 C 90.4491 3.19526 1.1881 0
M  V30 937 H 91.6421 2.93802 -0.601717 0
M  V30 938 H 89.1951 1.52325 -0.350254 0
M  V30 939 H 89.9301 2.59345 1.94707 0
M  V30 940 H 89.7151 3.85766 0.701936 0
M  V30 941 H 91.2051 3.81817 1.69132 0
M  V30 942 N 91.6422 0.330177 1.54103 0
M  V30 943 C 92.5922 -0.548456 2.21305 0
M  V30 944 C 93.5762 -1.07651 1.19583 0
M  V30 945 O 94.7682 -1.01243 1.45186 0
M  V30 946 C 91.8972 -1.70559 2.97934 0
M  V30 947 C 90.9832 -1.19212 4.07 0
M  V30 948 N 91.3742 -0.398831 5.04225 0
M  V30 949 C 89.6722 -1.47024 4.2107 0
M  V30 950 C 90.3732 -0.121761 5.81573 0
M  V30 951 N 89.3492 -0.709722 5.38947 0
M  V30 952 H 93.1512 0.0648483 2.93828 0
M  V30 953 H 90.6652 0.136363 1.61826 0
M  V30 954 H 92.6622 -2.34688 3.44568 0
M  V30 955 H 91.3222 -2.32231 2.26934 0
M  V30 956 H 92.3332 -0.0410869 5.17884 0
M  V30 957 H 89.0102 -2.09232 3.61287 0
M  V30 958 H 90.4002 0.517298 6.69906 0
M  V30 959 N 93.1203 -1.57491 0.0584922 0
M  V30 960 C 94.3693 -1.92155 -0.613146 0
M  V30 961 C 94.6823 -0.939334 -1.71569 0
M  V30 962 O 95.8883 -1.17829 -2.44599 0
M  V30 963 C 94.3443 -3.41303 -1.14195 0
M  V30 964 C 93.9523 -4.47944 -0.0711265 0
M  V30 965 C 95.6963 -3.84988 -1.78841 0
M  V30 966 C 93.6033 -5.88212 -0.613225 0
M  V30 967 H 92.5333 -0.717162 -0.232796 0
M  V30 968 H 95.1843 -1.83049 0.12857 0
M  V30 969 H 93.5663 -3.45437 -1.93621 0
M  V30 970 H 94.7403 -4.55408 0.702836 0
M  V30 971 H 93.0553 -4.13644 0.478313 0
M  V30 972 H 95.6523 -4.87159 -2.20408 0
M  V30 973 H 95.9953 -3.21632 -2.64308 0
M  V30 974 H 96.5283 -3.83401 -1.06059 0
M  V30 975 H 93.2673 -6.55183 0.203978 0
M  V30 976 H 92.7873 -5.84294 -1.35501 0
M  V30 977 H 94.4663 -6.37687 -1.09383 0
M  V30 978 N 94.5984 0.214957 -1.56127 0
M  V30 979 C 95.5464 1.28601 -1.93816 0
M  V30 980 C 96.5404 1.48175 -0.821016 0
M  V30 981 O 97.7464 1.49271 -1.0059 0
M  V30 982 H 94.1214 0.431302 -0.616022 0
M  V30 983 H 96.0924 0.940991 -2.83175 0
M  V30 984 C 94.8414 2.62779 -2.27689 0
M  V30 985 H 94.1644 2.48527 -3.13168 0
M  V30 986 H 95.6044 3.36517 -2.57939 0
M  V30 987 C 94.0634 3.18285 -1.10436 0
M  V30 988 O 94.5934 4.00002 -0.368945 0
M  V30 989 N 92.7994 2.7675 -0.886433 0
M  V30 990 H 92.3464 2.10404 -1.48619 0
M  V30 991 H 92.3044 3.14229 -0.103656 0
M  V30 992 N 96.0765 1.50051 0.48192 0
M  V30 993 C 97.0235 1.68122 1.58125 0
M  V30 994 C 97.9935 0.522545 1.57666 0
M  V30 995 O 99.1785 0.751844 1.75362 0
M  V30 996 C 96.3185 1.77142 2.96167 0
M  V30 997 C 95.4315 3.0444 3.06497 0
M  V30 998 C 94.5665 3.04321 4.35387 0
M  V30 999 C 93.6055 4.26118 4.3942 0
M  V30 1000 N 92.7425 4.238 5.59766 0
M  V30 1001 H 97.5825 2.6198 1.42022 0
M  V30 1002 H 95.1195 1.29877 0.690687 0
M  V30 1003 H 97.0775 1.80352 3.76203 0
M  V30 1004 H 95.7075 0.867329 3.1093 0
M  V30 1005 H 94.7595 3.10752 2.19402 0
M  V30 1006 H 96.0715 3.94426 3.05336 0
M  V30 1007 H 95.2255 3.062 5.23762 0
M  V30 1008 H 93.9645 2.12147 4.39141 0
M  V30 1009 H 92.9695 4.24463 3.49444 0
M  V30 1010 H 94.1945 5.19507 4.37366 0
M  V30 1011 H 92.1405 3.34474 5.64326 0
M  V30 1012 H 92.0575 5.07542 5.60301 0
M  V30 1013 H 93.3255 4.2981 6.50295 0
M  V30 1014 N 97.5546 -0.734337 1.39446 0
M  V30 1015 C 98.8026 -1.49096 1.36436 0
M  V30 1016 C 99.1236 -1.94961 -0.0388255 0
M  V30 1017 O 98.3936 -1.69033 -0.990191 0
M  V30 1018 H 96.9736 -0.5531 0.502085 0
M  V30 1019 H 99.6356 -0.871725 1.74319 0
M  V30 1020 H 98.7316 -2.37276 2.02747 0
M  V30 1021 N 99.0327 -1.24633 -0.964593 0
M  V30 1022 C 100.449 -1.01239 -1.2338 0
M  V30 1023 C 100.649 0.2769 -1.99588 0
M  V30 1024 O 99.7047 0.992241 -2.32187 0
M  V30 1025 C 101.018 -2.22937 -2.01791 0
M  V30 1026 C 102.566 -2.27594 -2.14872 0
M  V30 1027 C 103.041 -3.48921 -2.96678 0
M  V30 1028 N 104.532 -3.49257 -3.04259 0
M  V30 1029 C 105.267 -4.39795 -3.67924 0
M  V30 1030 N 104.763 -5.40591 -4.33281 0
M  V30 1031 N 106.556 -4.275 -3.64966 0
M  V30 1032 H 98.7067 -2.0748 -0.454502 0
M  V30 1033 H 100.97 -0.910647 -0.26349 0
M  V30 1034 H 100.676 -3.16587 -1.53184 0
M  V30 1035 H 100.55 -2.25306 -3.02518 0
M  V30 1036 H 102.937 -1.34473 -2.6268 0
M  V30 1037 H 103.018 -2.2925 -1.13482 0
M  V30 1038 H 102.662 -4.42359 -2.49562 0
M  V30 1039 H 102.592 -3.4451 -3.98272 0
M  V30 1040 H 105.083 -2.76337 -2.57771 0
M  V30 1041 H 105.396 -6.05904 -4.79687 0
M  V30 1042 H 103.741 -5.44475 -4.3194 0
M  V30 1043 H 106.932 -3.47987 -3.13086 0
M  V30 1044 H 107.105 -4.98258 -4.14298 0
M  V30 1045 N 100.511 1.16574 -1.06058 0
M  V30 1046 C 101.757 1.87324 -0.777022 0
M  V30 1047 C 102.09 1.81351 0.694645 0
M  V30 1048 O 101.365 1.22753 1.50871 0
M  V30 1049 C 101.648 3.36991 -1.26922 0
M  V30 1050 C 101.501 3.51667 -2.80447 0
M  V30 1051 C 102.82 4.3131 -0.87521 0
M  V30 1052 H 99.9388 0.680191 -0.28374 0
M  V30 1053 H 102.581 1.37036 -1.3161 0
M  V30 1054 H 100.731 3.79949 -0.81063 0
M  V30 1055 H 102.403 3.17664 -3.34495 0
M  V30 1056 H 100.646 2.93656 -3.19294 0
M  V30 1057 H 101.317 4.56766 -3.0995 0
M  V30 1058 H 103.793 3.9624 -1.27014 0
M  V30 1059 H 102.669 5.34545 -1.2471 0
M  V30 1060 H 102.93 4.41552 0.220071 0
M  V30 1061 N 101.989 0.842826 1.3317 0
M  V30 1062 C 102.922 0.223862 2.27099 0
M  V30 1063 C 103.9 -0.631311 1.49844 0
M  V30 1064 O 105.084 -0.590708 1.79005 0
M  V30 1065 C 102.211 -0.685313 3.31694 0
M  V30 1066 C 101.257 0.094919 4.26394 0
M  V30 1067 S 102.09 1.45546 5.15341 0
M  V30 1068 C 103.246 0.551685 6.23464 0
M  V30 1069 H 103.479 1.02015 2.79249 0
M  V30 1070 H 101.012 0.639797 1.4052 0
M  V30 1071 H 102.97 -1.20426 3.92438 0
M  V30 1072 H 101.631 -1.4553 2.78352 0
M  V30 1073 H 100.824 -0.597059 5.00451 0
M  V30 1074 H 100.426 0.545054 3.70007 0
M  V30 1075 H 102.718 -0.248877 6.77043 0
M  V30 1076 H 103.661 1.26253 6.96754 0
M  V30 1077 H 104.069 0.131275 5.64347 0
M  V30 1078 N 103.467 -1.45747 0.599634 0
M  V30 1079 C 104.399 -2.28628 -0.161879 0
M  V30 1080 C 105.412 -1.39494 -0.839367 0
M  V30 1081 O 106.601 -1.63941 -0.706089 0
M  V30 1082 C 103.701 -3.15014 -1.24976 0
M  V30 1083 C 102.874 -4.32378 -0.660935 0
M  V30 1084 C 101.933 -5.00033 -1.63869 0
M  V30 1085 O 100.959 -5.57085 -1.1681 0
M  V30 1086 N 102.161 -4.98589 -2.97303 0
M  V30 1087 H 104.926 -2.94624 0.549265 0
M  V30 1088 H 102.487 -1.55847 0.438565 0
M  V30 1089 H 104.479 -3.5714 -1.9035 0
M  V30 1090 H 103.049 -2.5098 -1.86354 0
M  V30 1091 H 102.269 -3.9383 0.170688 0
M  V30 1092 H 103.557 -5.08197 -0.247619 0
M  V30 1093 H 102.955 -4.53514 -3.38145 0
M  V30 1094 H 101.512 -5.44603 -3.58121 0
M  V30 1095 N 104.945 -0.338344 -1.53925 0
M  V30 1096 C 106.194 0.260732 -2.00008 0
M  V30 1097 C 106.507 1.52073 -1.23017 0
M  V30 1098 O 107.713 2.19672 -1.5955 0
M  V30 1099 C 106.169 0.51515 -3.56194 0
M  V30 1100 C 105.777 -0.728645 -4.42035 0
M  V30 1101 C 107.521 1.07337 -4.10706 0
M  V30 1102 C 105.428 -0.445315 -5.89721 0
M  V30 1103 H 104.358 0.101205 -0.747177 0
M  V30 1104 H 107.009 -0.452866 -1.77824 0
M  V30 1105 H 105.391 1.28932 -3.74423 0
M  V30 1106 H 106.565 -1.50352 -4.35581 0
M  V30 1107 H 104.88 -1.20813 -3.98489 0
M  V30 1108 H 107.477 1.30022 -5.18651 0
M  V30 1109 H 107.82 2.0273 -3.63602 0
M  V30 1110 H 108.353 0.360034 -3.96167 0
M  V30 1111 H 105.092 -1.36883 -6.41049 0
M  V30 1112 H 104.612 0.291569 -5.99091 0
M  V30 1113 H 106.291 -0.0606218 -6.46972 0
M  V30 1114 N 106.423 1.57458 -0.0668435 0
M  V30 1115 C 107.672 1.92477 0.602947 0
M  V30 1116 C 107.985 0.948419 1.71068 0
M  V30 1117 O 109.191 1.19124 2.43971 0
M  V30 1118 C 107.647 3.41903 1.12383 0
M  V30 1119 C 107.255 4.47975 0.04737 0
M  V30 1120 C 108.999 3.85931 1.76797 0
M  V30 1121 C 106.906 5.88529 0.582022 0
M  V30 1122 H 105.836 0.718387 0.22899 0
M  V30 1123 H 108.487 1.82978 -0.138276 0
M  V30 1124 H 106.869 3.46459 1.91787 0
M  V30 1125 H 108.043 4.55029 -0.726978 0
M  V30 1126 H 106.358 4.13384 -0.500243 0
M  V30 1127 H 108.955 4.88322 2.17821 0
M  V30 1128 H 109.298 3.23029 2.62599 0
M  V30 1129 H 109.831 3.83958 1.04024 0
M  V30 1130 H 106.57 6.55065 -0.238721 0
M  V30 1131 H 106.09 5.85004 1.324 0
M  V30 1132 H 107.769 6.38258 1.05999 0
M  V30 1133 N 107.901 -0.206675 1.56239 0
M  V30 1134 C 109.147 -0.930218 1.80208 0
M  V30 1135 C 109.48 -1.83387 0.638981 0
M  V30 1136 O 108.755 -1.91119 -0.361066 0
M  V30 1137 C 109.038 -1.75641 3.1436 0
M  V30 1138 C 108.891 -0.878257 4.41142 0
M  V30 1139 C 110.21 -2.73129 3.45092 0
M  V30 1140 H 107.329 -0.336742 0.655571 0
M  V30 1141 H 109.971 -0.198222 1.88963 0
M  V30 1142 H 108.121 -2.38048 3.07027 0
M  V30 1143 H 109.793 -0.269787 4.6051 0
M  V30 1144 H 108.036 -0.184385 4.33408 0
M  V30 1145 H 108.707 -1.49106 5.3148 0
M  V30 1146 H 111.183 -2.20856 3.52649 0
M  V30 1147 H 110.059 -3.28028 4.40101 0
M  V30 1148 H 110.32 -3.51606 2.68003 0
M  V30 1149 N 109.379 -1.50304 -0.473955 0
M  V30 1150 C 110.326 -1.68959 -1.57231 0
M  V30 1151 C 111.296 -0.530899 -1.57387 0
M  V30 1152 O 112.481 -0.761133 -1.74961 0
M  V30 1153 C 109.621 -1.7871 -2.95223 0
M  V30 1154 C 108.734 -3.06061 -3.04878 0
M  V30 1155 C 107.869 -3.06626 -4.33767 0
M  V30 1156 C 106.908 -4.28443 -4.37154 0
M  V30 1157 N 106.045 -4.26763 -5.5751 0
M  V30 1158 H 110.885 -2.6273 -1.40631 0
M  V30 1159 H 108.422 -1.30241 -0.683789 0
M  V30 1160 H 110.38 -1.82344 -3.75242 0
M  V30 1161 H 109.01 -0.883806 -3.10465 0
M  V30 1162 H 108.062 -3.11911 -2.17751 0
M  V30 1163 H 109.374 -3.96039 -3.0324 0
M  V30 1164 H 108.528 -3.08973 -5.22131 0
M  V30 1165 H 107.267 -2.14473 -4.3801 0
M  V30 1166 H 106.272 -4.2631 -3.47188 0
M  V30 1167 H 107.497 -5.2182 -4.34605 0
M  V30 1168 H 105.443 -3.37462 -5.62544 0
M  V30 1169 H 105.36 -5.10507 -5.57601 0
M  V30 1170 H 106.628 -4.33253 -6.48006 0
M  V30 1171 N 110.857 0.726932 -1.39834 0
M  V30 1172 C 112.105 1.4837 -1.37225 0
M  V30 1173 C 112.426 1.94979 0.0284857 0
M  V30 1174 O 111.696 1.69555 0.981213 0
M  V30 1175 H 110.276 0.55043 -0.505011 0
M  V30 1176 H 112.938 0.862468 -1.74778 0
M  V30 1177 H 112.034 2.36198 -2.04003 0
M  V30 1178 N 112.336 1.25143 0.95797 0
M  V30 1179 C 113.283 1.05235 2.05412 0
M  V30 1180 C 114.253 -0.0374561 1.66058 0
M  V30 1181 O 115.438 0.119073 1.90428 0
M  V30 1182 C 112.578 0.673589 3.38462 0
M  V30 1183 C 111.691 1.8379 3.90954 0
M  V30 1184 C 110.826 1.40381 5.12315 0
M  V30 1185 C 109.865 2.53746 5.57027 0
M  V30 1186 N 109.002 2.11136 6.69601 0
M  V30 1187 H 113.842 1.99048 2.21774 0
M  V30 1188 H 111.379 0.991277 1.08683 0
M  V30 1189 H 113.337 0.434964 4.14926 0
M  V30 1190 H 111.967 -0.227554 3.21997 0
M  V30 1191 H 111.019 2.18992 3.11041 0
M  V30 1192 H 112.331 2.68937 4.20089 0
M  V30 1193 H 111.485 1.12464 5.96185 0
M  V30 1194 H 110.224 0.523015 4.84887 0
M  V30 1195 H 109.229 2.82412 4.71724 0
M  V30 1196 H 110.454 3.42398 5.86464 0
M  V30 1197 H 108.4 1.25468 6.4389 0
M  V30 1198 H 108.317 2.89832 6.98236 0
M  V30 1199 H 109.585 1.86385 7.56889 0
M  V30 1200 N 113.814 -1.1601 1.06675 0
M  V30 1201 C 114.762 -2.22586 0.675157 0
M  V30 1202 C 115.756 -1.66525 -0.310766 0
M  V30 1203 O 116.962 -1.79145 -0.175215 0
M  V30 1204 H 113.337 -0.724855 0.200223 0
M  V30 1205 H 115.308 -2.52899 1.58381 0
M  V30 1206 C 114.057 -3.47604 0.0817162 0
M  V30 1207 H 113.38 -3.91058 0.831484 0
M  V30 1208 H 114.82 -4.23718 -0.154708 0
M  V30 1209 C 113.279 -3.15718 -1.17576 0
M  V30 1210 O 113.809 -3.31878 -2.26318 0
M  V30 1211 N 112.015 -2.69816 -1.07923 0
M  V30 1212 H 111.562 -2.56866 -0.194293 0
M  V30 1213 H 111.52 -2.48855 -1.92141 0
M  V30 1214 N 115.292 -0.849877 -1.32721 0
M  V30 1215 C 116.538 -0.451591 -1.97708 0
M  V30 1216 C 116.871 0.989175 -1.6712 0
M  V30 1217 O 116.146 1.69334 -0.956891 0
M  V30 1218 C 116.429 -0.685598 -3.53513 0
M  V30 1219 C 116.282 -2.17444 -3.93749 0
M  V30 1220 C 117.601 -0.138874 -4.39881 0
M  V30 1221 H 114.72 -0.16555 -0.718166 0
M  V30 1222 H 117.362 -1.06742 -1.57182 0
M  V30 1223 H 115.512 -0.161416 -3.88165 0
M  V30 1224 H 117.184 -2.76433 -3.693 0
M  V30 1225 H 115.427 -2.65476 -3.43081 0
M  V30 1226 H 116.098 -2.28888 -5.02309 0
M  V30 1227 H 118.574 -0.587068 -4.11938 0
M  V30 1228 H 117.45 -0.332213 -5.47894 0
M  V30 1229 H 117.711 0.95806 -4.31594 0
M  V30 1230 N 116.77 1.45427 -0.607355 0
M  V30 1231 C 118.047 1.9557 -0.0344566 0
M  V30 1232 C 118.427 1.54979 1.43334 0
M  V30 1233 O 117.775 0.812241 2.13576 0
M  V30 1234 C 117.985 3.48226 -0.232321 0
M  V30 1235 C 119.333 4.2445 -0.113001 0
M  V30 1236 O 120.357 3.55829 -0.162431 0
M  V30 1237 O 119.216 5.465 0.00209442 0
M  V30 1238 H 116.31 0.826222 0.0358667 0
M  V30 1239 H 118.856 1.55594 -0.6774 0
M  V30 1240 H 117.628 3.70739 -1.25174 0
M  V30 1241 H 117.251 3.95092 0.445896 0
M  V30 1242 N 118.248 0.346503 1.53744 0
M  V30 1243 C 119.178 -0.501193 2.28058 0
M  V30 1244 C 120.159 -1.10014 1.29734 0
M  V30 1245 O 121.344 -1.12097 1.58581 0
M  V30 1246 C 118.474 -1.65078 3.05559 0
M  V30 1247 C 117.428 -1.18003 4.11411 0
M  V30 1248 C 116.754 -2.41837 4.76884 0
M  V30 1249 C 118.054 -0.278394 5.21558 0
M  V30 1250 H 119.748 0.11875 2.99164 0
M  V30 1251 H 117.294 0.0585531 1.43881 0
M  V30 1252 H 119.247 -2.25028 3.56287 0
M  V30 1253 H 117.971 -2.29767 2.32109 0
M  V30 1254 H 116.63 -0.603331 3.61601 0
M  V30 1255 H 116.278 -3.0494 4.00026 0
M  V30 1256 H 115.978 -2.1102 5.48402 0
M  V30 1257 H 117.502 -3.02508 5.30397 0
M  V30 1258 H 118.916 -0.784823 5.67903 0
M  V30 1259 H 117.313 -0.0619707 6.00068 0
M  V30 1260 H 118.383 0.684677 4.80042 0
M  V30 1261 N 119.726 -1.57421 0.075193 0
M  V30 1262 C 120.975 -1.92794 -0.592731 0
M  V30 1263 C 121.288 -0.957478 -1.70563 0
M  V30 1264 O 122.494 -1.20417 -2.43335 0
M  V30 1265 C 120.95 -3.42495 -1.10569 0
M  V30 1266 C 120.558 -4.47994 -0.0236121 0
M  V30 1267 C 122.302 -3.86864 -1.74748 0
M  V30 1268 C 120.209 -5.88829 -0.550803 0
M  V30 1269 H 119.139 -0.719591 -0.225177 0
M  V30 1270 H 121.79 -1.82902 0.147978 0
M  V30 1271 H 120.172 -3.47471 -1.89947 0
M  V30 1272 H 121.346 -4.54637 0.751099 0
M  V30 1273 H 119.661 -4.13113 0.522159 0
M  V30 1274 H 122.258 -4.8947 -2.15229 0
M  V30 1275 H 122.601 -3.24417 -2.60882 0
M  V30 1276 H 123.134 -3.84504 -1.01986 0
M  V30 1277 H 119.873 -6.54929 0.273457 0
M  V30 1278 H 119.393 -5.85698 -1.29296 0
M  V30 1279 H 121.072 -6.38811 -1.02613 0
M  V30 1280 N 121.204 0.198386 -1.56346 0
M  V30 1281 C 122.429 0.939682 -1.84891 0
M  V30 1282 C 122.854 1.76202 -0.658369 0
M  V30 1283 O 122.212 1.76993 0.392851 0
M  V30 1284 C 122.26 1.81428 -3.11635 0
M  V30 1285 O 121.364 2.91265 -2.91956 0
M  V30 1286 H 120.705 0.264807 -0.608912 0
M  V30 1287 H 123.235 0.204695 -2.03573 0
M  V30 1288 H 123.245 2.21958 -3.42343 0
M  V30 1289 H 121.92 1.21004 -3.97908 0
M  V30 1290 H 120.497 2.54514 -2.72538 0
M  V30 1291 N 122.682 1.50554 0.465978 0
M  V30 1292 C 123.592 1.72585 1.58907 0
M  V30 1293 C 124.608 0.60911 1.6299 0
M  V30 1294 O 125.784 0.88804 1.80765 0
M  V30 1295 C 122.849 1.81995 2.95091 0
M  V30 1296 C 121.91 3.05751 3.01355 0
M  V30 1297 C 121.143 3.14702 4.31043 0
M  V30 1298 O 121.366 2.30313 5.21835 0
M  V30 1299 O 120.3 4.07468 4.43005 0
M  V30 1300 H 124.126 2.67799 1.43239 0
M  V30 1301 H 121.711 1.34711 0.646013 0
M  V30 1302 H 123.593 1.90335 3.75966 0
M  V30 1303 H 122.268 0.899659 3.10947 0
M  V30 1304 H 121.175 3.02908 2.19539 0
M  V30 1305 H 122.508 3.97375 2.90437 0
M  V30 1306 N 124.16 -0.719506 1.40217 0
M  V30 1307 C 125.388 -1.50864 1.41589 0
M  V30 1308 C 125.803 -1.88794 0.0145275 0
M  V30 1309 O 125.16 -1.55174 -0.960594 0
M  V30 1310 C 125.211 -2.78646 2.30302 0
M  V30 1311 O 124.932 -2.42321 3.64983 0
M  V30 1312 C 126.433 -3.72569 2.40224 0
M  V30 1313 H 123.653 -0.465709 0.48307 0
M  V30 1314 H 126.197 -0.88785 1.84221 0
M  V30 1315 H 124.352 -3.37019 1.91042 0
M  V30 1316 H 124.766 -3.24514 4.12057 0
M  V30 1317 H 126.24 -4.5908 3.06512 0
M  V30 1318 H 126.717 -4.15403 1.42608 0
M  V30 1319 H 127.323 -3.20109 2.80019 0
M  V30 1320 N 125.638 -1.25649 -0.95132 0
M  V30 1321 C 126.866 -1.13343 -1.73092 0
M  V30 1322 C 127.281 0.312434 -1.86197 0
M  V30 1323 O 126.638 1.21465 -1.36207 0
M  V30 1324 C 126.689 -1.78602 -3.14299 0
M  V30 1325 O 126.41 -3.17537 -3.01831 0
M  V30 1326 C 127.911 -1.72119 -4.08522 0
M  V30 1327 H 125.131 -0.395181 -0.542285 0
M  V30 1328 H 127.675 -1.66076 -1.19328 0
M  V30 1329 H 125.83 -1.29832 -3.64996 0
M  V30 1330 H 126.244 -3.49676 -3.90931 0
M  V30 1331 H 127.718 -2.22435 -5.052 0
M  V30 1332 H 128.195 -0.685635 -4.33815 0
M  V30 1333 H 128.801 -2.20393 -3.63741 0
M  V30 1334 N 127.117 1.15442 -1.07289 0
M  V30 1335 C 128.363 1.86489 -0.796846 0
M  V30 1336 C 128.696 1.82078 0.675371 0
M  V30 1337 O 127.971 1.24346 1.4956 0
M  V30 1338 C 128.254 3.35626 -1.30489 0
M  V30 1339 C 128.107 3.48673 -2.84161 0
M  V30 1340 C 129.426 4.30357 -0.920907 0
M  V30 1341 H 126.545 0.677144 -0.290939 0
M  V30 1342 H 129.187 1.35633 -1.33056 0
M  V30 1343 H 127.337 3.79068 -0.850883 0
M  V30 1344 H 129.009 3.14099 -3.37846 0
M  V30 1345 H 127.252 2.90253 -3.22391 0
M  V30 1346 H 127.923 4.53453 -3.14777 0
M  V30 1347 H 130.399 3.94871 -1.3121 0
M  V30 1348 H 129.275 5.33193 -1.30372 0
M  V30 1349 H 129.536 4.4176 0.173226 0
M  V30 1350 N 128.595 0.856903 1.32268 0
M  V30 1351 C 129.505 0.306131 2.32594 0
M  V30 1352 C 130.521 -0.577209 1.64147 0
M  V30 1353 O 131.697 -0.477043 1.95669 0
M  V30 1354 C 128.762 -0.494561 3.43154 0
M  V30 1355 C 127.823 0.415186 4.27288 0
M  V30 1356 C 127.056 -0.347387 5.32568 0
M  V30 1357 O 127.279 -1.57708 5.48165 0
M  V30 1358 O 126.213 0.287982 6.01211 0
M  V30 1359 H 130.039 1.13737 2.81598 0
M  V30 1360 H 127.624 0.619902 1.35932 0
M  V30 1361 H 129.506 -0.948944 4.10576 0
M  V30 1362 H 128.181 -1.30257 2.96336 0
M  V30 1363 H 127.088 0.917793 3.62667 0
M  V30 1364 H 128.421 1.18844 4.77637 0
M  V30 1365 N 130.073 -1.45103 0.615059 0
M  V30 1366 C 131.003 -2.33339 -0.0865619 0
M  V30 1367 C 131.984 -1.4727 -0.851209 0
M  V30 1368 O 133.169 -1.76026 -0.820281 0
M  V30 1369 C 130.299 -3.30095 -1.07956 0
M  V30 1370 C 129.253 -4.25858 -0.427628 0
M  V30 1371 C 128.579 -5.12361 -1.5294 0
M  V30 1372 C 129.879 -5.18165 0.655944 0
M  V30 1373 H 131.573 -2.92254 0.650224 0
M  V30 1374 H 129.119 -1.40532 0.314138 0
M  V30 1375 H 131.072 -3.90698 -1.57901 0
M  V30 1376 H 129.796 -2.69355 -1.84703 0
M  V30 1377 H 128.455 -3.66564 0.0510292 0
M  V30 1378 H 128.103 -4.47984 -2.28734 0
M  V30 1379 H 127.803 -5.77238 -1.09865 0
M  V30 1380 H 129.327 -5.75833 -2.03098 0
M  V30 1381 H 130.741 -5.72796 0.240257 0
M  V30 1382 H 129.138 -5.91559 1.00888 0
M  V30 1383 H 130.208 -4.60144 1.52957 0
M  V30 1384 N 131.551 -0.354651 -1.53558 0
M  V30 1385 C 132.781 0.239167 -2.05211 0
M  V30 1386 C 133.189 1.43879 -1.22863 0
M  V30 1387 O 132.532 1.81857 -0.259565 0
M  V30 1388 C 132.594 0.707251 -3.52474 0
M  V30 1389 C 132.258 -0.374212 -4.55465 0
M  V30 1390 C 133.255 -1.22054 -5.0537 0
M  V30 1391 C 130.94 -0.531323 -4.99482 0
M  V30 1392 C 132.934 -2.20942 -5.97882 0
M  V30 1393 C 130.621 -1.52358 -5.91802 0
M  V30 1394 C 131.619 -2.36108 -6.40892 0
M  V30 1395 O 131.307 -3.33643 -7.31394 0
M  V30 1396 H 131.039 0.0479716 -0.674296 0
M  V30 1397 H 133.593 -0.508121 -1.99016 0
M  V30 1398 H 131.823 1.50596 -3.56171 0
M  V30 1399 H 133.512 1.22285 -3.87042 0
M  V30 1400 H 134.278 -1.1103 -4.7212 0
M  V30 1401 H 130.157 0.110738 -4.60867 0
M  V30 1402 H 133.701 -2.86348 -6.36121 0
M  V30 1403 H 129.598 -1.63434 -6.24467 0
M  V30 1404 H 130.366 -3.29244 -7.4936 0
M  V30 1405 N 133.029 1.57378 -0.0835403 0
M  V30 1406 C 134.254 1.98682 0.594987 0
M  V30 1407 C 134.679 0.961969 1.61641 0
M  V30 1408 O 134.037 -0.0709989 1.81161 0
M  V30 1409 C 134.085 3.38988 1.2296 0
M  V30 1410 O 133.189 3.39208 2.34546 0
M  V30 1411 H 132.53 0.646368 0.152002 0
M  V30 1412 H 135.06 2.03961 -0.161533 0
M  V30 1413 H 135.07 3.76431 1.57366 0
M  V30 1414 H 133.745 4.13107 0.481228 0
M  V30 1415 H 132.322 3.13548 2.01846 0
M  V30 1416 N 134.507 -0.190092 1.56449 0
M  V30 1417 C 135.437 -1.23816 1.97969 0
M  V30 1418 C 136.418 -1.47201 0.852395 0
M  V30 1419 O 137.603 -1.58854 1.1171 0
M  V30 1420 C 134.733 -2.5813 2.3235 0
M  V30 1421 C 133.687 -2.49348 3.47864 0
M  V30 1422 C 133.013 -3.8798 3.67934 0
M  V30 1423 C 134.313 -2.01424 4.81898 0
M  V30 1424 H 136.007 -0.89311 2.85769 0
M  V30 1425 H 133.553 -0.428177 1.37487 0
M  V30 1426 H 135.506 -3.31637 2.59991 0
M  V30 1427 H 134.23 -2.94386 1.41438 0
M  V30 1428 H 132.889 -1.78297 3.20321 0
M  V30 1429 H 132.537 -4.21597 2.74344 0
M  V30 1430 H 132.237 -3.82978 4.45648 0
M  V30 1431 H 133.761 -4.63101 3.97957 0
M  V30 1432 H 135.175 -2.64693 5.08538 0
M  V30 1433 H 133.572 -2.07413 5.63116 0
M  V30 1434 H 134.642 -0.967677 4.75146 0
M  V30 1435 N 135.985 -1.50799 -0.457987 0
M  V30 1436 C 136.948 -1.7005 -1.53674 0
M  V30 1437 C 137.948 -0.570881 -1.50325 0
M  V30 1438 O 139.138 -0.838126 -1.52712 0
M  V30 1439 C 136.27 -1.73788 -2.93276 0
M  V30 1440 H 137.463 -2.66306 -1.37917 0
M  V30 1441 H 135.016 -1.40477 -0.685271 0
M  V30 1442 H 135.751 -0.792717 -3.14462 0
M  V30 1443 H 135.536 -2.55864 -2.97113 0
M  V30 1444 H 137.026 -1.90591 -3.71571 0
M  V30 1445 N 137.463 0.71206 -1.40597 0
M  V30 1446 C 138.373 1.8562 -1.43466 0
M  V30 1447 C 139.389 1.70902 -0.326902 0
M  V30 1448 O 140.565 1.93105 -0.572043 0
M  V30 1449 C 137.63 3.21451 -1.29884 0
M  V30 1450 C 136.691 3.48398 -2.50833 0
M  V30 1451 C 135.924 4.77749 -2.3789 0
M  V30 1452 O 136.147 5.53089 -1.39459 0
M  V30 1453 O 135.081 5.05111 -3.27333 0
M  V30 1454 H 138.907 1.86155 -2.39958 0
M  V30 1455 H 136.492 0.86295 -1.21957 0
M  V30 1456 H 138.374 4.02579 -1.24531 0
M  V30 1457 H 137.049 3.21636 -0.364997 0
M  V30 1458 H 135.956 2.67265 -2.61763 0
M  V30 1459 H 137.289 3.53014 -3.4299 0
M  V30 1460 N 138.941 1.26152 0.944643 0
M  V30 1461 C 140.357 1.03189 1.21754 0
M  V30 1462 C 140.557 -0.245112 2.00004 0
M  V30 1463 O 139.613 -0.955176 2.33736 0
M  V30 1464 C 140.926 2.26119 1.98219 0
M  V30 1465 C 142.474 2.30984 2.11224 0
M  V30 1466 C 142.949 3.53597 2.91089 0
M  V30 1467 N 144.44 3.54053 2.98664 0
M  V30 1468 C 145.175 4.45593 3.60881 0
M  V30 1469 N 144.671 5.47416 4.24626 0
M  V30 1470 N 146.464 4.33252 3.58119 0
M  V30 1471 H 138.615 2.08177 0.421437 0
M  V30 1472 H 140.878 0.914723 0.248969 0
M  V30 1473 H 140.584 3.18984 1.48128 0
M  V30 1474 H 140.458 2.3009 2.98895 0
M  V30 1475 H 142.845 1.38635 2.60508 0
M  V30 1476 H 142.926 2.31026 1.09821 0
M  V30 1477 H 142.57 4.46273 2.42493 0
M  V30 1478 H 142.5 3.50802 3.92741 0
M  V30 1479 H 144.991 2.80403 2.53343 0
M  V30 1480 H 145.304 6.13459 4.69987 0
M  V30 1481 H 143.649 5.51278 4.23223 0
M  V30 1482 H 146.84 3.52924 3.0751 0
M  V30 1483 H 147.013 5.04786 4.06319 0
M  V30 1484 N 140.419 -1.14872 1.07899 0
M  V30 1485 C 141.659 -1.8745 0.814965 0
M  V30 1486 C 142.023 -1.80758 -0.64733 0
M  V30 1487 O 143.224 -2.48422 -1.02664 0
M  V30 1488 C 141.495 -3.32286 1.31607 0
M  V30 1489 S 143.054 -4.22537 1.18357 0
M  V30 1490 H 139.872 -0.646833 0.295174 0
M  V30 1491 H 142.474 -1.38555 1.37923 0
M  V30 1492 H 141.178 -3.34703 2.37491 0
M  V30 1493 H 140.709 -3.86238 0.747261 0
M  V30 1494 H 142.724 -4.96044 0.124586 0
M  V30 1495 N 141.898 -0.863906 -1.31812 0
M  V30 1496 C 143.314 -0.555004 -1.49639 0
M  V30 1497 C 143.514 0.912266 -1.79666 0
M  V30 1498 O 142.57 1.69479 -1.87171 0
M  V30 1499 C 143.883 -1.44998 -2.63431 0
M  V30 1500 C 145.431 -1.45138 -2.77316 0
M  V30 1501 C 145.906 -2.33179 -3.94197 0
M  V30 1502 N 147.397 -2.31025 -4.01474 0
M  V30 1503 C 148.132 -2.95871 -4.9117 0
M  V30 1504 N 147.628 -3.69863 -5.8581 0
M  V30 1505 N 149.421 -2.85211 -4.84367 0
M  V30 1506 H 141.572 -1.81339 -1.10589 0
M  V30 1507 H 143.835 -0.77505 -0.545895 0
M  V30 1508 H 143.541 -2.49377 -2.48 0
M  V30 1509 H 143.415 -1.14409 -3.59431 0
M  V30 1510 H 145.802 -0.415201 -2.92164 0
M  V30 1511 H 145.883 -1.79747 -1.82001 0
M  V30 1512 H 145.527 -3.3687 -3.80107 0
M  V30 1513 H 145.457 -1.95897 -4.88807 0
M  V30 1514 H 147.948 -1.77238 -3.33759 0
M  V30 1515 H 148.261 -4.16486 -6.50968 0
M  V30 1516 H 146.606 -3.73971 -5.85808 0
M  V30 1517 H 149.797 -2.26948 -4.09405 0
M  V30 1518 H 149.97 -3.36027 -5.54066 0
M  V30 1519 N 143.376 1.44774 -0.622745 0
M  V30 1520 C 144.323 2.30635 0.0871679 0
M  V30 1521 C 145.293 1.42994 0.845097 0
M  V30 1522 O 146.478 1.71907 0.827812 0
M  V30 1523 C 143.618 3.28144 1.06844 0
M  V30 1524 C 142.731 4.30888 0.309809 0
M  V30 1525 C 141.866 5.15494 1.28215 0
M  V30 1526 C 140.905 6.09953 0.512198 0
M  V30 1527 N 140.042 6.87287 1.43458 0
M  V30 1528 H 144.882 2.90803 -0.650974 0
M  V30 1529 H 142.419 1.43286 -0.33281 0
M  V30 1530 H 144.377 3.83157 1.65066 0
M  V30 1531 H 143.007 2.69695 1.77382 0
M  V30 1532 H 142.059 3.78414 -0.388181 0
M  V30 1533 H 143.371 4.97955 -0.290254 0
M  V30 1534 H 142.525 5.74983 1.93596 0
M  V30 1535 H 141.264 4.48481 1.91614 0
M  V30 1536 H 140.269 5.49581 -0.155151 0
M  V30 1537 H 141.494 6.78999 -0.116958 0
M  V30 1538 H 139.44 6.2295 2.05594 0
M  V30 1539 H 139.357 7.50763 0.888335 0
M  V30 1540 H 140.625 7.51306 2.07749 0
M  V30 1541 N 144.854 0.36279 1.53368 0
M  V30 1542 C 145.802 -0.500155 2.27159 0
M  V30 1543 C 146.796 -1.08575 1.3003 0
M  V30 1544 O 148.002 -1.02927 1.47668 0
M  V30 1545 H 144.377 -0.180009 0.730138 0
M  V30 1546 H 146.348 0.14401 2.98052 0
M  V30 1547 C 145.097 -1.62937 3.07159 0
M  V30 1548 H 144.42 -1.18806 3.8174 0
M  V30 1549 H 145.86 -2.20795 3.61975 0
M  V30 1550 C 144.319 -2.57007 2.17829 0
M  V30 1551 O 144.849 -3.59752 1.78721 0
M  V30 1552 N 143.055 -2.26131 1.82518 0
M  V30 1553 H 142.602 -1.42616 2.14519 0
M  V30 1554 H 142.56 -2.89327 1.23034 0
M  V30 1555 N 146.332 -1.57332 0.0918853 0
M  V30 1556 C 147.28 -2.15075 -0.885747 0
M  V30 1557 C 148.274 -1.09277 -1.29441 0
M  V30 1558 O 149.48 -1.27627 -1.26931 0
M  V30 1559 H 145.855 -0.687966 -0.303656 0
M  V30 1560 H 147.826 -2.96047 -0.373995 0
M  V30 1561 C 146.575 -2.74325 -2.13638 0
M  V30 1562 H 145.898 -3.55418 -1.8308 0
M  V30 1563 H 147.338 -3.183 -2.80109 0
M  V30 1564 C 145.797 -1.70062 -2.90827 0
M  V30 1565 O 146.327 -1.13763 -3.85254 0
M  V30 1566 N 144.533 -1.40628 -2.54307 0
M  V30 1567 H 144.08 -1.866 -1.7759 0
M  V30 1568 H 144.038 -0.711043 -3.06254 0
M  V30 1569 N 147.81 0.181792 -1.56548 0
M  V30 1570 C 149.058 0.89832 -1.81038 0
M  V30 1571 C 149.379 1.83232 -0.667164 0
M  V30 1572 O 148.649 1.93372 0.313673 0
M  V30 1573 H 147.229 0.33471 -0.667816 0
M  V30 1574 H 149.891 0.184116 -1.94028 0
M  V30 1575 H 148.987 1.4815 -2.74696 0
M  V30 1576 N 149.288 1.51039 0.449983 0
M  V30 1577 C 150.235 1.71439 1.54523 0
M  V30 1578 C 151.205 0.555871 1.56522 0
M  V30 1579 O 152.39 0.788871 1.73728 0
M  V30 1580 C 149.53 1.83384 2.92343 0
M  V30 1581 C 148.643 3.10873 2.9997 0
M  V30 1582 C 147.778 3.13488 4.28834 0
M  V30 1583 C 146.817 4.35343 4.30282 0
M  V30 1584 N 145.954 4.35579 5.5065 0
M  V30 1585 H 150.794 2.64934 1.36433 0
M  V30 1586 H 148.331 1.31312 0.662982 0
M  V30 1587 H 150.289 1.88291 3.72293 0
M  V30 1588 H 148.919 0.933086 3.0902 0
M  V30 1589 H 147.971 3.15336 2.12761 0
M  V30 1590 H 149.283 4.00814 2.96901 0
M  V30 1591 H 148.437 3.17241 5.17149 0
M  V30 1592 H 147.176 2.21414 4.34543 0
M  V30 1593 H 146.181 4.3178 3.40362 0
M  V30 1594 H 147.406 5.28668 4.26248 0
M  V30 1595 H 145.352 3.46369 5.57104 0
M  V30 1596 H 145.269 5.19313 5.49409 0
M  V30 1597 H 146.537 4.43507 6.41032 0
M  V30 1598 N 150.766 -0.704594 1.40972 0
M  V30 1599 C 151.994 -1.49354 1.43182 0
M  V30 1600 C 152.409 -1.88768 0.0345508 0
M  V30 1601 O 151.766 -1.56184 -0.944081 0
M  V30 1602 C 151.817 -2.76187 2.33244 0
M  V30 1603 O 151.538 -2.38436 3.67532 0
M  V30 1604 C 153.039 -3.7 2.44162 0
M  V30 1605 H 150.259 -0.460559 0.487982 0
M  V30 1606 H 152.803 -0.868261 1.85153 0
M  V30 1607 H 150.958 -3.34974 1.94606 0
M  V30 1608 H 151.372 -3.20126 4.15475 0
M  V30 1609 H 152.846 -4.55803 3.11364 0
M  V30 1610 H 153.323 -4.13867 1.47006 0
M  V30 1611 H 153.929 -3.17121 2.83398 0
M  V30 1612 N 152.244 -1.26651 -0.937939 0
M  V30 1613 C 153.154 -1.10276 -2.07066 0
M  V30 1614 C 154.17 -0.0354197 -1.73964 0
M  V30 1615 O 155.346 -0.239816 -1.99967 0
M  V30 1616 C 152.411 -0.740887 -3.38691 0
M  V30 1617 C 151.472 -1.88799 -3.85556 0
M  V30 1618 C 150.705 -1.54329 -5.10899 0
M  V30 1619 O 150.928 -0.446494 -5.6865 0
M  V30 1620 O 149.862 -2.37911 -5.52885 0
M  V30 1621 H 153.688 -2.05309 -2.23789 0
M  V30 1622 H 151.273 -1.05743 -1.0554 0
M  V30 1623 H 153.155 -0.55195 -4.1777 0
M  V30 1624 H 151.83 0.180022 -3.23199 0
M  V30 1625 H 150.737 -2.13191 -3.07409 0
M  V30 1626 H 152.07 -2.78874 -4.05574 0
M  V30 1627 N 153.722 1.14298 -1.08507 0
M  V30 1628 C 154.971 1.84708 -0.810305 0
M  V30 1629 C 155.284 1.83903 0.666271 0
M  V30 1630 O 156.49 2.50112 1.05624 0
M  V30 1631 C 154.946 3.31572 -1.39957 0
M  V30 1632 C 154.554 3.40791 -2.90801 0
M  V30 1633 C 156.298 4.07087 -1.20334 0
M  V30 1634 C 154.205 4.81872 -3.4286 0
M  V30 1635 H 153.135 0.691985 -0.299454 0
M  V30 1636 H 155.786 1.28841 -1.30661 0
M  V30 1637 H 154.168 3.87183 -0.830976 0
M  V30 1638 H 155.342 2.95225 -3.53806 0
M  V30 1639 H 153.657 2.78732 -3.0935 0
M  V30 1640 H 156.254 5.11225 -1.56693 0
M  V30 1641 H 156.597 4.16054 -0.143237 0
M  V30 1642 H 157.13 3.57779 -1.73893 0
M  V30 1643 H 153.869 4.78094 -4.48449 0
M  V30 1644 H 153.389 5.27972 -2.84615 0
M  V30 1645 H 155.068 5.50765 -3.39509 0
M  V30 1646 N 155.201 0.870884 1.31352 0
M  V30 1647 C 156.447 0.492314 1.97352 0
M  V30 1648 C 156.802 -0.945174 1.67583 0
M  V30 1649 O 156.095 -1.65674 0.962423 0
M  V30 1650 C 156.289 0.687157 3.50732 0
M  V30 1651 C 156.118 2.14203 3.95407 0
M  V30 1652 C 154.888 2.78382 4.21701 0
M  V30 1653 C 157.086 3.1144 4.09279 0
M  V30 1654 N 155.068 4.14611 4.52737 0
M  V30 1655 C 156.439 4.32702 4.44037 0
M  V30 1656 C 158.494 3.07418 3.91661 0
M  V30 1657 C 157.197 5.50463 4.63015 0
M  V30 1658 C 159.223 4.24438 4.11833 0
M  V30 1659 C 158.585 5.44463 4.46923 0
M  V30 1660 H 154.684 0.229206 0.747655 0
M  V30 1661 H 157.268 1.12568 1.5886 0
M  V30 1662 H 155.439 0.083384 3.8831 0
M  V30 1663 H 157.171 0.276883 4.03752 0
M  V30 1664 H 153.926 2.29326 4.14375 0
M  V30 1665 H 154.35 4.84928 4.72413 0
M  V30 1666 H 158.992 2.15732 3.6362 0
M  V30 1667 H 156.71 6.42666 4.89904 0
M  V30 1668 H 160.296 4.2278 3.99685 0
M  V30 1669 H 159.176 6.33504 4.62214 0
M  V30 1670 N 156.679 -1.44442 0.630414 0
M  V30 1671 C 157.609 -2.33418 -0.0618083 0
M  V30 1672 C 158.59 -1.48165 -0.835541 0
M  V30 1673 O 159.775 -1.76886 -0.801564 0
M  V30 1674 C 156.905 -3.31222 -1.04449 0
M  V30 1675 C 155.859 -4.26288 -0.382436 0
M  V30 1676 C 155.185 -5.13954 -1.47497 0
M  V30 1677 C 156.485 -5.1744 0.710865 0
M  V30 1678 H 158.179 -2.91548 0.681184 0
M  V30 1679 H 155.725 -1.40191 0.329026 0
M  V30 1680 H 157.678 -3.92351 -1.53748 0
M  V30 1681 H 156.402 -2.71299 -1.81836 0
M  V30 1682 H 155.061 -3.6649 0.0899054 0
M  V30 1683 H 154.709 -4.50385 -2.2397 0
M  V30 1684 H 154.409 -5.7837 -1.03737 0
M  V30 1685 H 155.933 -5.77955 -1.96979 0
M  V30 1686 H 157.347 -5.72509 0.300996 0
M  V30 1687 H 155.744 -5.90455 1.07156 0
M  V30 1688 H 156.814 -4.58496 1.57829 0
M  V30 1689 N 158.157 -0.370918 -1.53173 0
M  V30 1690 C 159.067 0.480823 -2.2962 0
M  V30 1691 C 160.083 1.08789 -1.35798 0
M  V30 1692 O 161.259 1.09768 -1.68858 0
M  V30 1693 C 158.324 1.60227 -3.07454 0
M  V30 1694 C 157.385 1.0222 -4.16953 0
M  V30 1695 C 156.618 2.0902 -4.91066 0
M  V30 1696 O 156.841 3.30222 -4.65091 0
M  V30 1697 O 155.775 1.71778 -5.76867 0
M  V30 1698 H 159.601 -0.141421 -3.03371 0
M  V30 1699 H 157.186 -0.135146 -1.48787 0
M  V30 1700 H 159.068 2.25417 -3.56041 0
M  V30 1701 H 157.743 2.20982 -2.36535 0
M  V30 1702 H 156.65 0.334064 -3.72605 0
M  V30 1703 H 157.983 0.459131 -4.90054 0
M  V30 1704 N 159.635 1.57281 -0.100228 0
M  V30 1705 C 160.565 2.17328 0.853857 0
M  V30 1706 C 161.546 1.10804 1.2906 0
M  V30 1707 O 162.731 1.38963 1.35657 0
M  V30 1708 C 159.861 2.75772 2.11109 0
M  V30 1709 C 158.815 3.87713 1.81279 0
M  V30 1710 C 158.141 4.32882 3.13874 0
M  V30 1711 C 159.441 5.10677 1.09574 0
M  V30 1712 H 161.135 2.97305 0.353545 0
M  V30 1713 H 158.681 1.43009 0.168612 0
M  V30 1714 H 160.634 3.16433 2.78296 0
M  V30 1715 H 159.358 1.93057 2.63432 0
M  V30 1716 H 158.017 3.476 1.16489 0
M  V30 1717 H 157.665 3.47051 3.64095 0
M  V30 1718 H 157.365 5.08358 2.94696 0
M  V30 1719 H 158.889 4.7618 3.82211 0
M  V30 1720 H 160.303 5.48474 1.66879 0
M  V30 1721 H 158.7 5.91615 1.00557 0
M  V30 1722 H 159.77 4.84835 0.0793299 0
M  V30 1723 N 161.113 -0.173488 1.56642 0
M  V30 1724 C 162.06 -1.21482 1.96242 0
M  V30 1725 C 163.03 -1.44104 0.826027 0
M  V30 1726 O 164.215 -1.5688 1.08597 0
M  V30 1727 C 161.355 -2.54964 2.32567 0
M  V30 1728 C 160.468 -2.39739 3.59373 0
M  V30 1729 C 159.603 -3.66072 3.84921 0
M  V30 1730 C 158.642 -3.45771 5.05083 0
M  V30 1731 N 157.779 -4.64169 5.26775 0
M  V30 1732 H 162.619 -0.870123 2.85014 0
M  V30 1733 H 160.156 -0.418245 1.41029 0
M  V30 1734 H 162.114 -3.32758 2.5165 0
M  V30 1735 H 160.744 -2.87433 1.46908 0
M  V30 1736 H 159.796 -1.53131 3.48217 0
M  V30 1737 H 161.108 -2.20683 4.47326 0
M  V30 1738 H 160.262 -4.52303 4.0436 0
M  V30 1739 H 159.001 -3.88105 2.9534 0
M  V30 1740 H 158.006 -2.57927 4.85545 0
M  V30 1741 H 159.231 -3.25163 5.96193 0
M  V30 1742 H 157.177 -4.86425 4.40144 0
M  V30 1743 H 157.094 -4.48019 6.08946 0
M  V30 1744 H 158.362 -5.51689 5.5069 0
M  V30 1745 N 162.591 -1.51276 -0.441967 0
M  V30 1746 C 164.002 -1.56244 -1.02199 0
M  V30 1747 C 164.353 -0.383149 -1.92422 0
M  V30 1748 O 163.478 0.500613 -2.1053 0
M  V30 1749 C 164.073 -2.83162 -1.86024 0
M  V30 1750 C 162.632 -2.90716 -2.39084 0
M  V30 1751 C 161.779 -2.50858 -1.18175 0
M  V30 1752 H 164.73 -1.5712 -0.223416 0
M  V30 1753 H 164.751 -2.66663 -2.71425 0
M  V30 1754 H 164.263 -3.68974 -1.20331 0
M  V30 1755 H 162.364 -2.09323 -3.08244 0
M  V30 1756 H 162.477 -3.94266 -2.72198 0
M  V30 1757 H 160.841 -2.03951 -1.52565 0
M  V30 1758 H 161.624 -3.3901 -0.541001 0
M  V30 1759 N 164.069 0.697108 -1.41344 0
M  V30 1760 C 165.001 1.8224 -1.39001 0
M  V30 1761 C 166.014 1.60152 -0.292428 0
M  V30 1762 O 167.203 1.69684 -0.554048 0
M  V30 1763 C 164.303 3.18976 -1.14489 0
M  V30 1764 C 163.476 3.68105 -2.36258 0
M  V30 1765 C 162.535 4.83506 -2.07625 0
M  V30 1766 O 161.561 4.95201 -2.8065 0
M  V30 1767 N 162.763 5.70637 -1.06555 0
M  V30 1768 H 165.528 1.84742 -2.35988 0
M  V30 1769 H 163.089 0.87937 -1.35936 0
M  V30 1770 H 165.081 3.93801 -0.932885 0
M  V30 1771 H 163.651 3.11508 -0.261043 0
M  V30 1772 H 162.871 2.84204 -2.7317 0
M  V30 1773 H 164.159 3.97667 -3.17393 0
M  V30 1774 H 163.557 5.63817 -0.461125 0
M  V30 1775 H 162.114 6.45368 -0.913444 0
M  V30 1776 N 165.547 1.27147 0.931209 0
M  V30 1777 C 166.795 1.13055 1.6752 0
M  V30 1778 C 167.116 -0.324791 1.92276 0
M  V30 1779 O 166.386 -1.22775 1.52654 0
M  V30 1780 H 164.966 0.415391 0.620854 0
M  V30 1781 H 167.628 1.59623 1.11833 0
M  V30 1782 H 166.724 1.65694 2.64485 0
M  V30 1783 N 167.025 -1.13721 1.09112 0
M  V30 1784 C 168.441 -1.36914 0.820174 0
M  V30 1785 C 168.641 -1.93356 -0.567079 0
M  V30 1786 O 167.697 -2.15093 -1.32255 0
M  V30 1787 C 169.01 -2.3235 1.90877 0
M  V30 1788 C 170.558 -2.45973 1.93562 0
M  V30 1789 C 171.033 -3.44714 3.01556 0
M  V30 1790 N 172.524 -3.52263 3.00775 0
M  V30 1791 C 173.259 -4.28536 3.80978 0
M  V30 1792 N 172.755 -5.07991 4.71081 0
M  V30 1793 N 174.548 -4.23804 3.69251 0
M  V30 1794 H 166.699 -0.754348 1.98553 0
M  V30 1795 H 168.962 -0.3944 0.862063 0
M  V30 1796 H 168.668 -1.98027 2.90651 0
M  V30 1797 H 168.542 -3.32332 1.78424 0
M  V30 1798 H 170.929 -2.79584 0.944286 0
M  V30 1799 H 171.01 -1.45926 2.10093 0
M  V30 1800 H 170.654 -3.11835 4.00901 0
M  V30 1801 H 170.584 -4.44558 2.82269 0
M  V30 1802 H 173.075 -2.95567 2.35475 0
M  V30 1803 H 173.388 -5.63487 5.28869 0
M  V30 1804 H 171.733 -5.07235 4.75119 0
M  V30 1805 H 174.924 -3.60806 2.98222 0
M  V30 1806 H 175.097 -4.82995 4.31995 0
M  V30 1807 N 168.503 -0.877838 -1.30888 0
M  V30 1808 C 169.436 -0.283995 -2.26426 0
M  V30 1809 C 170.414 0.591361 -1.51465 0
M  V30 1810 O 171.598 0.54304 -1.80509 0
M  V30 1811 C 168.725 0.597129 -3.33395 0
M  V30 1812 C 167.771 -0.207937 -4.25993 0
M  V30 1813 S 168.604 -1.59158 -5.11301 0
M  V30 1814 C 169.76 -0.716791 -6.21782 0
M  V30 1815 H 169.993 -1.09383 -2.76446 0
M  V30 1816 H 167.526 -0.676828 -1.38775 0
M  V30 1817 H 169.484 1.09978 -3.95493 0
M  V30 1818 H 168.145 1.38099 -2.82113 0
M  V30 1819 H 167.338 0.464163 -5.01858 0
M  V30 1820 H 166.94 -0.642963 -3.68432 0
M  V30 1821 H 169.232 0.0692833 -6.77465 0
M  V30 1822 H 170.175 -1.44682 -6.93161 0
M  V30 1823 H 170.583 -0.280855 -5.63801 0
M  V30 1824 N 169.982 1.44106 -0.638065 0
M  V30 1825 C 170.912 2.33448 0.0494287 0
M  V30 1826 C 171.893 1.48606 0.827672 0
M  V30 1827 O 173.078 1.77308 0.792173 0
M  V30 1828 C 170.208 3.31771 1.02691 0
M  V30 1829 C 169.162 4.26485 0.359823 0
M  V30 1830 C 168.488 5.14729 1.44769 0
M  V30 1831 C 169.788 5.17056 -0.738296 0
M  V30 1832 H 171.482 2.91183 -0.696636 0
M  V30 1833 H 169.028 1.40014 -0.336456 0
M  V30 1834 H 170.981 3.93161 1.51666 0
M  V30 1835 H 169.705 2.7226 1.80395 0
M  V30 1836 H 168.364 3.66437 -0.10934 0
M  V30 1837 H 168.012 4.51566 2.21578 0
M  V30 1838 H 167.712 5.78913 1.00668 0
M  V30 1839 H 169.236 5.78991 1.93911 0
M  V30 1840 H 170.65 5.72342 -0.331354 0
M  V30 1841 H 169.047 5.89879 -1.10286 0
M  V30 1842 H 170.117 4.57652 -1.60258 0
M  V30 1843 N 171.46 0.379036 1.52974 0
M  V30 1844 C 172.393 -0.504932 2.22544 0
M  V30 1845 C 173.371 -1.0723 1.22231 0
M  V30 1846 O 174.555 -1.12589 1.51182 0
M  V30 1847 C 171.682 -1.69794 2.93066 0
M  V30 1848 C 170.728 -1.25678 4.07563 0
M  V30 1849 S 171.561 -0.246852 5.34931 0
M  V30 1850 C 172.717 -1.44588 6.08971 0
M  V30 1851 H 172.95 0.0858666 2.97176 0
M  V30 1852 H 170.483 0.163183 1.53535 0
M  V30 1853 H 172.441 -2.38219 3.34308 0
M  V30 1854 H 171.102 -2.26002 2.18133 0
M  V30 1855 H 170.295 -2.14725 4.5597 0
M  V30 1856 H 169.897 -0.651584 3.6828 0
M  V30 1857 H 172.189 -2.37469 6.34519 0
M  V30 1858 H 173.132 -1.00292 7.00962 0
M  V30 1859 H 173.54 -1.65804 5.39601 0
M  V30 1860 N 172.938 -1.57226 0.108567 0
M  V30 1861 C 173.886 -2.16002 -0.862885 0
M  V30 1862 C 174.88 -1.10644 -1.28274 0
M  V30 1863 O 176.086 -1.28966 -1.2557 0
M  V30 1864 H 172.461 -0.691148 -0.296342 0
M  V30 1865 H 174.432 -2.96427 -0.342575 0
M  V30 1866 C 173.181 -2.76576 -2.10716 0
M  V30 1867 H 172.504 -3.5734 -1.793 0
M  V30 1868 H 173.944 -3.21253 -2.76717 0
M  V30 1869 C 172.403 -1.73137 -2.89007 0
M  V30 1870 O 172.933 -1.17842 -3.84026 0
M  V30 1871 N 171.139 -1.43317 -2.52801 0
M  V30 1872 H 170.686 -1.88473 -1.75601 0
M  V30 1873 H 170.644 -0.743485 -3.05483 0
M  V30 1874 N 174.416 0.165178 -1.56732 0
M  V30 1875 C 175.379 1.18822 -1.95995 0
M  V30 1876 C 176.379 1.3685 -0.84431 0
M  V30 1877 O 177.569 1.34152 -1.11126 0
M  V30 1878 C 174.701 2.5521 -2.26011 0
M  V30 1879 H 175.894 0.851825 -2.87548 0
M  V30 1880 H 173.447 0.407857 -1.50885 0
M  V30 1881 H 174.182 2.93852 -1.37191 0
M  V30 1882 H 173.967 2.43489 -3.07336 0
M  V30 1883 H 175.457 3.28927 -2.57288 0
M  V30 1884 N 175.894 1.51508 0.433938 0
M  V30 1885 C 177.31 1.39759 0.770682 0
M  V30 1886 C 177.51 0.482594 1.95636 0
M  V30 1887 O 176.566 -0.0609691 2.52426 0
M  V30 1888 C 177.879 2.81851 1.04787 0
M  V30 1889 C 179.427 2.91025 1.1521 0
M  V30 1890 C 179.902 4.34032 1.46219 0
M  V30 1891 N 181.393 4.37154 1.53136 0
M  V30 1892 C 182.128 5.4484 1.78709 0
M  V30 1893 N 181.624 6.62682 2.02051 0
M  V30 1894 N 183.417 5.32324 1.80519 0
M  V30 1895 H 175.568 2.09548 -0.346892 0
M  V30 1896 H 177.831 0.943446 -0.0928074 0
M  V30 1897 H 177.537 3.50815 0.249304 0
M  V30 1898 H 177.411 3.21386 1.97461 0
M  V30 1899 H 179.798 2.22257 1.94128 0
M  V30 1900 H 179.879 2.54983 0.204281 0
M  V30 1901 H 179.523 5.03351 0.678274 0
M  V30 1902 H 179.453 4.6759 2.42212 0
M  V30 1903 H 181.944 3.52197 1.36987 0
M  V30 1904 H 182.257 7.40543 2.20943 0
M  V30 1905 H 180.602 6.65791 1.99366 0
M  V30 1906 H 183.793 4.39246 1.61805 0
M  V30 1907 H 183.966 6.16328 2.00111 0
M  V30 1908 N 177.372 -0.689602 1.41712 0
M  V30 1909 C 178.602 -1.47613 1.44548 0
M  V30 1910 C 179.01 -1.89132 0.0509034 0
M  V30 1911 O 178.353 -1.57741 -0.94146 0
M  V30 1912 C 178.415 -2.76596 2.2964 0
M  V30 1913 C 178.079 -2.57245 3.77722 0
M  V30 1914 C 179.076 -2.22804 4.69739 0
M  V30 1915 C 176.761 -2.727 4.2183 0
M  V30 1916 C 178.755 -2.04064 6.03851 0
M  V30 1917 C 176.442 -2.53576 5.56006 0
M  V30 1918 C 177.44 -2.1931 6.46832 0
M  V30 1919 O 177.128 -2.00359 7.78532 0
M  V30 1920 H 176.86 -0.461227 0.494212 0
M  V30 1921 H 179.414 -0.856045 1.86711 0
M  V30 1922 H 177.644 -3.41033 1.82301 0
M  V30 1923 H 179.333 -3.38424 2.24107 0
M  V30 1924 H 180.099 -2.10473 4.36951 0
M  V30 1925 H 175.978 -2.98353 3.51435 0
M  V30 1926 H 179.522 -1.77241 6.74708 0
M  V30 1927 H 175.419 -2.65499 5.88371 0
M  V30 1928 H 176.187 -2.15075 7.89737 0
M  V30 1929 N 178.85 -1.27639 -0.924453 0
M  V30 1930 C 180.097 -1.14167 -1.67249 0
M  V30 1931 C 180.425 0.311863 -1.91984 0
M  V30 1932 O 179.68 1.24425 -1.51053 0
M  V30 1933 C 179.979 -1.87407 -3.04325 0
M  V30 1934 C 179.645 -3.37249 -2.99289 0
M  V30 1935 C 178.307 -3.7812 -2.97622 0
M  V30 1936 C 180.659 -4.32845 -2.90336 0
M  V30 1937 C 177.987 -5.12944 -2.8479 0
M  V30 1938 C 180.339 -5.6773 -2.79045 0
M  V30 1939 C 179.003 -6.07889 -2.7573 0
M  V30 1940 H 178.273 -0.417766 -0.612007 0
M  V30 1941 H 180.92 -1.58286 -1.07786 0
M  V30 1942 H 179.225 -1.35805 -3.67511 0
M  V30 1943 H 180.922 -1.74408 -3.61086 0
M  V30 1944 H 177.512 -3.04748 -3.01374 0
M  V30 1945 H 181.696 -4.02239 -2.90719 0
M  V30 1946 H 176.952 -5.432 -2.80612 0
M  V30 1947 H 181.126 -6.41472 -2.71083 0
M  V30 1948 H 178.753 -7.12314 -2.65544 0
M  V30 1949 N 180.328 1.1314 -1.09713 0
M  V30 1950 C 181.258 2.20748 -0.761102 0
M  V30 1951 C 182.239 1.68061 0.262566 0
M  V30 1952 O 183.424 1.93765 0.129977 0
M  V30 1953 C 180.554 3.46812 -0.184054 0
M  V30 1954 C 179.508 4.12606 -1.13757 0
M  V30 1955 C 178.834 5.33031 -0.422083 0
M  V30 1956 C 180.134 4.59603 -2.48118 0
M  V30 1957 H 181.828 2.49113 -1.66082 0
M  V30 1958 H 179.374 1.19734 -0.799987 0
M  V30 1959 H 181.327 4.21353 0.0631215 0
M  V30 1960 H 180.051 3.17851 0.750868 0
M  V30 1961 H 178.71 3.40036 -1.37007 0
M  V30 1962 H 178.358 5.00335 0.517072 0
M  V30 1963 H 178.058 5.77999 -1.05788 0
M  V30 1964 H 179.582 6.10325 -0.183277 0
M  V30 1965 H 180.996 5.25552 -2.29059 0
M  V30 1966 H 179.393 5.15321 -3.07514 0
M  V30 1967 H 180.463 3.73971 -3.08665 0
M  V30 1968 N 181.806 0.884767 1.30421 0
M  V30 1969 C 182.716 0.355398 2.31892 0
M  V30 1970 C 183.732 -0.542261 1.65335 0
M  V30 1971 O 184.908 -0.435432 1.96637 0
M  V30 1972 C 181.973 -0.421661 3.44126 0
M  V30 1973 C 181.034 0.505727 4.26311 0
M  V30 1974 C 180.267 -0.234343 5.33185 0
M  V30 1975 O 180.49 -1.46045 5.51386 0
M  V30 1976 O 179.424 0.415443 6.00465 0
M  V30 1977 H 183.25 1.19685 2.79122 0
M  V30 1978 H 180.835 0.648596 1.34587 0
M  V30 1979 H 182.717 -0.861641 4.12497 0
M  V30 1980 H 181.392 -1.23942 2.99032 0
M  V30 1981 H 180.299 0.994513 3.60639 0
M  V30 1982 H 181.632 1.28948 4.75009 0
M  V30 1983 N 183.284 -1.43765 0.645699 0
M  V30 1984 C 184.217 -2.2798 -0.100072 0
M  V30 1985 C 185.195 -1.39391 -0.837194 0
M  V30 1986 O 186.379 -1.68833 -0.838306 0
M  V30 1987 C 183.506 -3.18643 -1.14823 0
M  V30 1988 C 182.552 -4.2344 -0.510009 0
M  V30 1989 S 183.385 -5.30761 0.710824 0
M  V30 1990 C 184.541 -6.24992 -0.33699 0
M  V30 1991 H 184.774 -2.90884 0.614322 0
M  V30 1992 H 182.307 -1.48166 0.434304 0
M  V30 1993 H 184.265 -3.71424 -1.74799 0
M  V30 1994 H 182.926 -2.54932 -1.8349 0
M  V30 1995 H 182.119 -4.86948 -1.29991 0
M  V30 1996 H 181.721 -3.73997 0.0154577 0
M  V30 1997 H 184.013 -6.66691 -1.20537 0
M  V30 1998 H 184.956 -7.07612 0.262879 0
M  V30 1999 H 185.364 -5.60517 -0.669425 0
M  V30 2000 N 184.763 -0.387143 -1.52771 0
M  V30 2001 C 185.988 0.198407 -2.06449 0
M  V30 2002 C 186.413 1.39918 -1.25716 0
M  V30 2003 O 185.771 1.79099 -0.281657 0
M  V30 2004 C 185.819 0.548893 -3.56398 0
M  V30 2005 O 184.923 1.64315 -3.78252 0
M  V30 2006 H 184.264 0.0237731 -0.663574 0
M  V30 2007 H 186.794 -0.553989 -1.96957 0
M  V30 2008 H 186.804 0.813812 -3.99801 0
M  V30 2009 H 185.479 -0.329005 -4.14597 0
M  V30 2010 H 184.056 1.37211 -3.46738 0
M  V30 2011 N 186.241 1.57166 -0.116904 0
M  V30 2012 C 187.518 1.86645 0.585049 0
M  V30 2013 C 187.898 1.0177 1.84949 0
M  V30 2014 O 187.246 0.0960379 2.28298 0
M  V30 2015 C 187.456 3.37736 0.879507 0
M  V30 2016 C 188.804 4.06289 1.23348 0
M  V30 2017 O 189.828 3.42743 0.969836 0
M  V30 2018 O 188.687 5.18455 1.7282 0
M  V30 2019 H 185.781 0.772593 0.295007 0
M  V30 2020 H 188.327 1.69025 -0.151249 0
M  V30 2021 H 187.099 3.91296 -0.0166136 0
M  V30 2022 H 186.722 3.6078 1.67103 0
M  V30 2023 N 187.719 -0.156864 1.56817 0
M  V30 2024 C 188.947 -0.886316 1.86955 0
M  V30 2025 C 189.362 -1.75185 0.703975 0
M  V30 2026 O 188.719 -1.79555 -0.326552 0
M  V30 2027 C 188.77 -1.75117 3.16253 0
M  V30 2028 O 188.491 -0.920537 4.2832 0
M  V30 2029 C 189.992 -2.58905 3.59837 0
M  V30 2030 H 187.212 -0.25678 0.619923 0
M  V30 2031 H 189.756 -0.152615 2.0393 0
M  V30 2032 H 187.911 -2.43805 3.01062 0
M  V30 2033 H 188.325 -1.51337 5.02192 0
M  V30 2034 H 189.799 -3.1518 4.53172 0
M  V30 2035 H 190.276 -3.34472 2.84649 0
M  V30 2036 H 190.882 -1.95526 3.7769 0
M  V30 2037 N 189.197 -1.51736 -0.425897 0
M  V30 2038 C 190.144 -1.73875 -1.51776 0
M  V30 2039 C 191.114 -0.580702 -1.55618 0
M  V30 2040 O 192.299 -0.81641 -1.72451 0
M  V30 2041 C 189.439 -1.88012 -2.89388 0
M  V30 2042 C 188.552 -3.15606 -2.94986 0
M  V30 2043 C 187.687 -3.20271 -4.23793 0
M  V30 2044 C 186.726 -4.42134 -4.23302 0
M  V30 2045 N 185.863 -4.44284 -5.43651 0
M  V30 2046 H 190.703 -2.67071 -1.32201 0
M  V30 2047 H 188.24 -1.32351 -0.642008 0
M  V30 2048 H 190.198 -1.9419 -3.69251 0
M  V30 2049 H 188.828 -0.98213 -3.07496 0
M  V30 2050 H 187.88 -3.18681 -2.07717 0
M  V30 2051 H 189.192 -4.05486 -2.90486 0
M  V30 2052 H 188.346 -3.25428 -5.12036 0
M  V30 2053 H 187.085 -2.28299 -4.30965 0
M  V30 2054 H 186.09 -4.3714 -3.3345 0
M  V30 2055 H 187.315 -5.35382 -4.17783 0
M  V30 2056 H 185.261 -3.55188 -5.51523 0
M  V30 2057 H 185.178 -5.27988 -5.41078 0
M  V30 2058 H 186.446 -4.53649 -6.33895 0
M  V30 2059 N 190.675 0.682077 -1.42076 0
M  V30 2060 C 191.952 1.43755 -1.32642 0
M  V30 2061 C 192.332 2.11063 0.0396611 0
M  V30 2062 O 191.68 2.02701 1.05474 0
M  V30 2063 C 191.89 2.44596 -2.48946 0
M  V30 2064 C 193.238 3.09454 -2.9073 0
M  V30 2065 O 194.262 2.54922 -2.48783 0
M  V30 2066 O 193.121 4.08253 -3.63307 0
M  V30 2067 H 190.215 0.640857 -0.522715 0
M  V30 2068 H 192.761 0.711415 -1.54068 0
M  V30 2069 H 191.533 1.93609 -3.40046 0
M  V30 2070 H 191.156 3.24701 -2.29467 0
M  V30 2071 N 192.153 1.28127 0.917671 0
M  V30 2072 C 193.086 1.06039 2.02067 0
M  V30 2073 C 194.064 -0.0223285 1.62585 0
M  V30 2074 O 195.248 0.124823 1.88086 0
M  V30 2075 C 192.375 0.610596 3.33151 0
M  V30 2076 C 191.421 1.68937 3.91615 0
M  V30 2077 S 192.254 3.28437 4.22953 0
M  V30 2078 C 193.41 2.85283 5.57103 0
M  V30 2079 H 193.643 1.99425 2.20493 0
M  V30 2080 H 191.176 1.12071 1.06205 0
M  V30 2081 H 193.134 0.357778 4.08938 0
M  V30 2082 H 191.795 -0.303364 3.12632 0
M  V30 2083 H 190.988 1.32619 4.86239 0
M  V30 2084 H 190.59 1.89478 3.2245 0
M  V30 2085 H 192.882 2.3121 6.36827 0
M  V30 2086 H 193.825 3.7869 5.98331 0
M  V30 2087 H 194.233 2.24118 5.18104 0
M  V30 2088 N 193.631 -1.12557 1.10312 0
M  V30 2089 C 194.579 -2.20325 0.745629 0
M  V30 2090 C 195.573 -1.67429 -0.25763 0
M  V30 2091 O 196.779 -1.79612 -0.118132 0
M  V30 2092 H 193.154 -0.718118 0.223182 0
M  V30 2093 H 195.125 -2.47733 1.66346 0
M  V30 2094 C 193.874 -3.47168 0.192262 0
M  V30 2095 H 193.197 -3.88215 0.955475 0
M  V30 2096 H 194.637 -4.23995 -0.0198274 0
M  V30 2097 C 193.096 -3.19298 -1.07472 0
M  V30 2098 O 193.626 -3.3891 -2.15645 0
M  V30 2099 N 191.832 -2.73113 -0.992847 0
M  V30 2100 H 191.379 -2.57354 -0.112474 0
M  V30 2101 H 191.337 -2.54842 -1.84127 0
M  V30 2102 N 195.109 -0.891671 -1.2995 0
M  V30 2103 C 196.019 -0.367691 -2.31701 0
M  V30 2104 C 197.035 0.533486 -1.6562 0
M  V30 2105 O 198.211 0.424997 -1.96865 0
M  V30 2106 C 195.276 0.403406 -3.44345 0
M  V30 2107 C 194.337 -0.528328 -4.26037 0
M  V30 2108 C 193.57 0.206063 -5.33302 0
M  V30 2109 O 193.793 1.43119 -5.52153 0
M  V30 2110 O 192.727 -0.447281 -6.00236 0
M  V30 2111 H 196.553 -1.21163 -2.78484 0
M  V30 2112 H 194.138 -0.655725 -1.34241 0
M  V30 2113 H 196.02 0.839753 -4.12948 0
M  V30 2114 H 194.695 1.22354 -2.99685 0
M  V30 2115 H 193.602 -1.01362 -3.60106 0
M  V30 2116 H 194.935 -1.31465 -4.74318 0
M  V30 2117 N 196.587 1.43421 -0.653314 0
M  V30 2118 C 197.834 2.01812 -0.166745 0
M  V30 2119 C 198.162 1.51535 1.21931 0
M  V30 2120 O 197.417 0.698975 1.82792 0
M  V30 2121 C 197.716 3.57176 -0.126623 0
M  V30 2122 C 197.382 4.26798 -1.45444 0
M  V30 2123 C 196.044 4.45534 -1.81805 0
M  V30 2124 C 198.396 4.66225 -2.32989 0
M  V30 2125 C 195.724 5.00961 -3.05377 0
M  V30 2126 C 198.076 5.23021 -3.55853 0
M  V30 2127 C 196.74 5.39973 -3.9241 0
M  V30 2128 H 196.01 0.738484 -0.0610162 0
M  V30 2129 H 198.657 1.71896 -0.84404 0
M  V30 2130 H 196.962 3.86634 0.634123 0
M  V30 2131 H 198.659 4.00112 0.266723 0
M  V30 2132 H 195.249 4.12561 -1.16153 0
M  V30 2133 H 199.433 4.51443 -2.06187 0
M  V30 2134 H 194.689 5.12271 -3.3375 0
M  V30 2135 H 198.863 5.52518 -4.23907 0
M  V30 2136 H 196.49 5.82687 -4.88242 0
M  V30 2137 N 198.065 0.39524 1.52563 0
M  V30 2138 C 198.975 -0.444232 2.30356 0
M  V30 2139 C 199.991 -1.06615 1.37511 0
M  V30 2140 O 201.167 -1.07067 1.70583 0
M  V30 2141 C 198.232 -1.55315 3.09964 0
M  V30 2142 C 197.293 -0.955734 4.18526 0
M  V30 2143 C 196.526 -2.01181 4.9433 0
M  V30 2144 O 196.749 -3.22781 4.70285 0
M  V30 2145 O 195.683 -1.62579 5.79527 0
M  V30 2146 H 199.509 0.189667 3.03107 0
M  V30 2147 H 197.094 0.1588 1.48554 0
M  V30 2148 H 198.976 -2.19724 3.59582 0
M  V30 2149 H 197.651 -2.17191 2.4002 0
M  V30 2150 H 196.558 -0.274743 3.7309 0
M  V30 2151 H 197.891 -0.381109 4.90722 0
M  V30 2152 N 199.544 -1.57102 0.125237 0
M  V30 2153 C 200.772 -1.99761 -0.538797 0
M  V30 2154 C 201.187 -1.00503 -1.59827 0
M  V30 2155 O 200.544 0.00119474 -1.825 0
M  V30 2156 C 200.595 -3.42408 -1.15927 0
M  V30 2157 O 200.316 -4.37869 -0.142143 0
M  V30 2158 C 201.817 -4.00232 -1.90602 0
M  V30 2159 H 199.037 -0.655772 -0.14214 0
M  V30 2160 H 201.581 -2.03383 0.213413 0
M  V30 2161 H 199.736 -3.39706 -1.86223 0
M  V30 2162 H 200.15 -5.21128 -0.593775 0
M  V30 2163 H 201.624 -5.02105 -2.29335 0
M  V30 2164 H 202.101 -3.39721 -2.78363 0
M  V30 2165 H 202.707 -4.06499 -1.25055 0
M  V30 2166 N 201.022 0.148545 -1.56898 0
M  V30 2167 C 201.932 1.20293 -2.01412 0
M  V30 2168 C 202.948 1.47107 -0.929273 0
M  V30 2169 O 204.124 1.58807 -1.23863 0
M  V30 2170 C 201.189 2.51682 -2.38447 0
M  V30 2171 C 200.25 2.32529 -3.60872 0
M  V30 2172 C 199.483 3.57653 -3.96132 0
M  V30 2173 O 199.706 4.63771 -3.32073 0
M  V30 2174 O 198.64 3.50408 -4.89385 0
M  V30 2175 H 202.466 0.855025 -2.91416 0
M  V30 2176 H 200.051 0.357151 -1.45068 0
M  V30 2177 H 201.933 3.29147 -2.63135 0
M  V30 2178 H 200.608 2.86006 -1.51599 0
M  V30 2179 H 199.515 1.53019 -3.41373 0
M  V30 2180 H 200.848 2.03121 -4.48333 0
M  V30 2181 N 202.5 1.5196 0.417844 0
M  V30 2182 C 203.748 1.65263 1.16329 0
M  V30 2183 C 204.069 0.380634 1.91249 0
M  V30 2184 O 203.339 -0.604214 1.86349 0
M  V30 2185 H 201.919 0.60912 0.432414 0
M  V30 2186 H 204.581 1.88969 0.477162 0
M  V30 2187 H 203.677 2.4896 1.88217 0
M  V30 2188 N 203.978 -0.674533 1.42435 0
M  V30 2189 C 205.225 -1.43459 1.42919 0
M  V30 2190 C 205.553 -1.94446 0.0457312 0
M  V30 2191 O 204.808 -1.7132 -0.94593 0
M  V30 2192 C 205.107 -2.64767 2.40069 0
M  V30 2193 C 204.773 -2.3232 3.86443 0
M  V30 2194 C 203.435 -2.23182 4.26314 0
M  V30 2195 C 205.787 -2.05977 4.78773 0
M  V30 2196 C 203.115 -1.85827 5.56494 0
M  V30 2197 C 205.467 -1.70125 6.09295 0
M  V30 2198 C 204.131 -1.59498 6.48164 0
M  V30 2199 H 203.401 -0.524952 0.522978 0
M  V30 2200 H 206.048 -0.769097 1.75377 0
M  V30 2201 H 204.353 -3.36349 2.00939 0
M  V30 2202 H 206.05 -3.22949 2.37707 0
M  V30 2203 H 202.64 -2.40334 3.54877 0
M  V30 2204 H 206.824 -2.11969 4.48757 0
M  V30 2205 H 202.08 -1.76168 5.8547 0
M  V30 2206 H 206.254 -1.48767 6.80324 0
M  V30 2207 H 203.881 -1.30322 7.48946 0
M  V30 2208 N 205.456 -1.28612 -0.910864 0
M  V30 2209 C 206.703 -1.15934 -1.66029 0
M  V30 2210 C 207.031 0.291483 -1.92303 0
M  V30 2211 O 206.286 1.22816 -1.52364 0
M  V30 2212 C 206.585 -1.90624 -3.0232 0
M  V30 2213 C 206.251 -3.40405 -2.95695 0
M  V30 2214 C 204.913 -3.81255 -2.93595 0
M  V30 2215 C 207.265 -4.359 -2.85728 0
M  V30 2216 C 204.593 -5.15936 -2.79334 0
M  V30 2217 C 206.945 -5.70657 -2.73007 0
M  V30 2218 C 205.609 -6.10779 -2.69267 0
M  V30 2219 H 204.879 -0.424234 -0.607541 0
M  V30 2220 H 207.526 -1.5942 -1.06101 0
M  V30 2221 H 205.831 -1.39696 -3.6605 0
M  V30 2222 H 207.528 -1.78228 -3.59215 0
M  V30 2223 H 204.118 -3.07927 -2.98125 0
M  V30 2224 H 208.302 -4.053 -2.86436 0
M  V30 2225 H 203.558 -5.46146 -2.74835 0
M  V30 2226 H 207.732 -6.44311 -2.64264 0
M  V30 2227 H 205.359 -7.1509 -2.57974 0
M  V30 2228 N 206.934 1.1197 -1.10907 0
M  V30 2229 C 207.897 2.16031 -0.765707 0
M  V30 2230 C 208.897 1.59393 0.212235 0
M  V30 2231 O 210.087 1.74196 -0.0115441 0
M  V30 2232 C 207.219 3.40632 -0.135053 0
M  V30 2233 H 208.412 2.47919 -1.68748 0
M  V30 2234 H 205.965 1.27061 -0.910226 0
M  V30 2235 H 206.7 3.14348 0.797218 0
M  V30 2236 H 206.485 3.8302 -0.838937 0
M  V30 2237 H 207.975 4.17505 0.0892469 0
M  V30 2238 N 208.412 0.89855 1.29475 0
M  V30 2239 C 209.342 0.39201 2.30186 0
M  V30 2240 C 210.323 -0.532359 1.61555 0
M  V30 2241 O 211.508 -0.443331 1.89072 0
M  V30 2242 C 208.638 -0.382353 3.45189 0
M  V30 2243 C 207.592 0.451483 4.25612 0
M  V30 2244 C 206.918 -0.450307 5.328 0
M  V30 2245 C 208.218 1.70079 4.93832 0
M  V30 2246 H 209.912 1.23362 2.72804 0
M  V30 2247 H 207.458 0.594638 1.31149 0
M  V30 2248 H 209.411 -0.747451 4.14718 0
M  V30 2249 H 208.135 -1.25774 3.01411 0
M  V30 2250 H 206.794 0.798897 3.57789 0
M  V30 2251 H 206.442 -1.32379 4.85268 0
M  V30 2252 H 206.142 0.103902 5.87508 0
M  V30 2253 H 207.666 -0.811623 6.05182 0
M  V30 2254 H 209.08 1.40549 5.55805 0
M  V30 2255 H 207.477 2.19623 5.58467 0
M  V30 2256 H 208.547 2.43744 4.19186 0
M  V30 2257 N 209.89 -1.43072 0.660911 0
M  V30 2258 C 210.84 -2.27948 -0.04847 0
M  V30 2259 C 211.824 -1.40325 -0.787246 0
M  V30 2260 O 213.016 -1.63893 -0.668446 0
M  V30 2261 C 210.145 -3.28143 -1.00881 0
M  V30 2262 C 209.231 -4.23252 -0.268108 0
M  V30 2263 N 209.622 -5.00656 0.719528 0
M  V30 2264 C 207.92 -4.43092 -0.508493 0
M  V30 2265 C 208.621 -5.70019 1.15988 0
M  V30 2266 N 207.597 -5.41364 0.492584 0
M  V30 2267 H 211.399 -2.85213 0.709279 0
M  V30 2268 H 208.913 -1.54869 0.488822 0
M  V30 2269 H 210.91 -3.87736 -1.53188 0
M  V30 2270 H 209.57 -2.7244 -1.76654 0
M  V30 2271 H 210.581 -5.06115 1.09855 0
M  V30 2272 H 207.258 -3.98449 -1.24679 0
M  V30 2273 H 208.648 -6.4214 1.97751 0
M  V30 2274 N 211.368 -0.403325 -1.52352 0
M  V30 2275 C 212.3 0.4603 -2.2453 0
M  V30 2276 C 213.313 1.01505 -1.27282 0
M  V30 2277 O 214.502 0.914982 -1.53266 0
M  V30 2278 C 211.602 1.65208 -2.95905 0
M  V30 2279 C 210.775 1.22224 -4.19976 0
M  V30 2280 C 209.834 2.28028 -4.74226 0
M  V30 2281 O 208.86 1.88857 -5.36956 0
M  V30 2282 N 210.062 3.6012 -4.55295 0
M  V30 2283 H 212.827 -0.158156 -2.99282 0
M  V30 2284 H 210.388 -0.230402 -1.60252 0
M  V30 2285 H 212.38 2.35541 -3.29093 0
M  V30 2286 H 210.95 2.17658 -2.24374 0
M  V30 2287 H 210.17 0.34725 -3.92668 0
M  V30 2288 H 211.458 0.911924 -5.00561 0
M  V30 2289 H 210.856 3.94698 -4.05253 0
M  V30 2290 H 209.413 4.26447 -4.92936 0
M  V30 2291 N 212.846 1.57033 -0.133567 0
M  V30 2292 C 214.262 1.58035 0.222944 0
M  V30 2293 C 214.462 1.14713 1.6566 0
M  V30 2294 O 213.518 0.841218 2.38075 0
M  V30 2295 C 214.831 3.00691 -0.0236116 0
M  V30 2296 C 216.379 3.12973 0.0411512 0
M  V30 2297 C 216.854 4.57654 -0.177899 0
M  V30 2298 N 218.345 4.63033 -0.124365 0
M  V30 2299 C 219.08 5.72771 -0.268553 0
M  V30 2300 N 218.576 6.91206 -0.46972 0
M  V30 2301 N 220.369 5.61718 -0.2071 0
M  V30 2302 H 212.52 1.8349 -1.06981 0
M  V30 2303 H 214.783 0.848677 -0.422436 0
M  V30 2304 H 214.489 3.36726 -1.0153 0
M  V30 2305 H 214.363 3.70614 0.701808 0
M  V30 2306 H 216.75 2.76787 1.02338 0
M  V30 2307 H 216.831 2.45564 -0.716383 0
M  V30 2308 H 216.475 4.94542 -1.15717 0
M  V30 2309 H 216.405 5.23173 0.599797 0
M  V30 2310 H 218.896 3.7789 0.027011 0
M  V30 2311 H 219.209 7.70693 -0.570212 0
M  V30 2312 H 217.554 6.93156 -0.505876 0
M  V30 2313 H 220.745 4.68072 -0.0507986 0
M  V30 2314 H 220.918 6.47195 -0.322909 0
M  V30 2315 N 214.325 -0.140222 1.56975 0
M  V30 2316 C 215.741 -0.493088 1.51792 0
M  V30 2317 C 215.941 -1.83013 0.843116 0
M  V30 2318 O 214.997 -2.49041 0.416493 0
M  V30 2319 C 216.31 -0.497144 2.96562 0
M  V30 2320 C 217.858 -0.582186 3.07538 0
M  V30 2321 C 218.333 -0.616838 4.53827 0
M  V30 2322 N 219.824 -0.678873 4.58198 0
M  V30 2323 C 220.559 -0.726782 5.68775 0
M  V30 2324 N 220.055 -0.733623 6.88905 0
M  V30 2325 N 221.848 -0.768179 5.56826 0
M  V30 2326 H 213.999 0.736108 1.99237 0
M  V30 2327 H 216.262 0.269182 0.90898 0
M  V30 2328 H 215.968 0.417217 3.49217 0
M  V30 2329 H 215.842 -1.33263 3.52875 0
M  V30 2330 H 218.229 -1.48697 2.54899 0
M  V30 2331 H 218.31 0.280581 2.54257 0
M  V30 2332 H 217.954 0.283812 5.07106 0
M  V30 2333 H 217.884 -1.49619 5.04898 0
M  V30 2334 H 220.375 -0.68061 3.7172 0
M  V30 2335 H 220.688 -0.772215 7.68932 0
M  V30 2336 H 219.033 -0.701389 6.91452 0
M  V30 2337 H 222.224 -0.760051 4.61888 0
M  V30 2338 H 222.397 -0.80205 6.43017 0
M  V30 2339 N 215.803 -1.52179 -0.40978 0
M  V30 2340 C 217.051 -1.65878 -1.15451 0
M  V30 2341 C 217.372 -0.390771 -1.91044 0
M  V30 2342 O 216.642 0.594323 -1.86667 0
M  V30 2343 H 215.222 -0.611405 -0.429177 0
M  V30 2344 H 217.884 -1.89219 -0.467134 0
M  V30 2345 H 216.98 -2.49954 -1.86894 0
M  V30 2346 N 217.281 0.66697 -1.42791 0
M  V30 2347 C 218.244 1.76211 -1.46568 0
M  V30 2348 C 219.244 1.56896 -0.352196 0
M  V30 2349 O 220.434 1.63044 -0.613364 0
M  V30 2350 C 217.566 3.14935 -1.30494 0
M  V30 2351 H 218.759 1.74247 -2.44086 0
M  V30 2352 H 216.312 0.877342 -1.29354 0
M  V30 2353 H 217.047 3.2252 -0.339301 0
M  V30 2354 H 216.832 3.30359 -2.11199 0
M  V30 2355 H 218.322 3.94821 -1.36038 0
M  V30 2356 N 218.759 1.29093 0.90403 0
M  V30 2357 C 220.008 1.16187 1.64874 0
M  V30 2358 C 220.321 -0.286742 1.93487 0
M  V30 2359 O 221.527 -0.537062 2.66135 0
M  V30 2360 C 219.983 2.03177 2.97064 0
M  V30 2361 C 219.591 3.52836 2.76062 0
M  V30 2362 C 221.335 1.98984 3.74974 0
M  V30 2363 C 219.242 4.31945 4.03952 0
M  V30 2364 H 218.172 0.431246 0.618501 0
M  V30 2365 H 220.823 1.53699 1.00243 0
M  V30 2366 H 219.205 1.5853 3.62883 0
M  V30 2367 H 220.379 4.05507 2.18863 0
M  V30 2368 H 218.694 3.58656 2.11553 0
M  V30 2369 H 221.291 2.55351 4.69787 0
M  V30 2370 H 221.634 0.968815 4.0487 0
M  V30 2371 H 222.167 2.41652 3.15989 0
M  V30 2372 H 218.906 5.34667 3.79225 0
M  V30 2373 H 218.426 3.84045 4.60727 0
M  V30 2374 H 220.105 4.42379 4.72133 0
M  V30 2375 N 220.237 -1.11381 1.11499 0
M  V30 2376 C 221.184 -2.17439 0.773887 0
M  V30 2377 C 222.154 -1.64132 -0.254899 0
M  V30 2378 O 223.339 -1.90345 -0.13168 0
M  V30 2379 C 220.479 -3.44373 0.223917 0
M  V30 2380 C 219.592 -4.1168 1.30934 0
M  V30 2381 C 218.727 -5.263 0.71984 0
M  V30 2382 C 217.766 -5.85493 1.78507 0
M  V30 2383 N 216.903 -6.91507 1.21502 0
M  V30 2384 H 221.743 -2.45962 1.68246 0
M  V30 2385 H 219.28 -1.20744 0.840191 0
M  V30 2386 H 221.238 -4.17047 -0.112921 0
M  V30 2387 H 219.868 -3.16232 -0.647851 0
M  V30 2388 H 218.92 -3.37073 1.76312 0
M  V30 2389 H 220.232 -4.51729 2.11524 0
M  V30 2390 H 219.386 -6.05785 0.333094 0
M  V30 2391 H 218.125 -4.87559 -0.117377 0
M  V30 2392 H 217.13 -5.04686 2.18111 0
M  V30 2393 H 218.355 -6.26301 2.62533 0
M  V30 2394 H 216.301 -6.54783 0.399455 0
M  V30 2395 H 216.218 -7.30214 1.95763 0
M  V30 2396 H 217.486 -7.74795 0.855181 0
M  V30 2397 N 221.715 -0.905404 -1.28997 0
M  V30 2398 C 222.647 -0.344748 -2.26592 0
M  V30 2399 C 223.66 0.512135 -1.54535 0
M  V30 2400 O 224.849 0.328368 -1.75454 0
M  V30 2401 C 221.949 0.526587 -3.34784 0
M  V30 2402 C 221.122 -0.305871 -4.36329 0
M  V30 2403 C 220.181 0.499209 -5.23827 0
M  V30 2404 O 219.207 -0.0853004 -5.69136 0
M  V30 2405 N 220.409 1.80408 -5.51755 0
M  V30 2406 H 223.174 -1.18359 -2.75338 0
M  V30 2407 H 220.735 -0.770481 -1.42391 0
M  V30 2408 H 222.727 1.07171 -3.90252 0
M  V30 2409 H 221.297 1.26613 -2.85811 0
M  V30 2410 H 220.517 -1.0324 -3.80441 0
M  V30 2411 H 221.805 -0.875773 -5.01206 0
M  V30 2412 H 221.203 2.3016 -5.16762 0
M  V30 2413 H 219.76 2.29621 -6.10014 0
M  V30 2414 N 223.193 1.4272 -0.668489 0
M  V30 2415 C 224.156 2.292 0.00448567 0
M  V30 2416 C 225.156 1.43001 0.735339 0
M  V30 2417 O 226.346 1.64461 0.57429 0
M  V30 2418 C 223.478 3.25375 1.01705 0
M  V30 2419 H 224.671 2.90199 -0.756608 0
M  V30 2420 H 222.224 1.50254 -0.430506 0
M  V30 2421 H 222.959 2.69301 1.80686 0
M  V30 2422 H 222.744 3.88944 0.496463 0
M  V30 2423 H 224.234 3.90245 1.48655 0
M  V30 2424 N 224.671 0.411399 1.52136 0
M  V30 2425 C 225.618 -0.412975 2.27075 0
M  V30 2426 C 226.588 -1.03912 1.29582 0
M  V30 2427 O 227.773 -1.06296 1.58448 0
M  V30 2428 C 224.913 -1.52247 3.09701 0
M  V30 2429 C 224.026 -0.917021 4.22155 0
M  V30 2430 C 223.161 -1.9994 4.92135 0
M  V30 2431 C 222.2 -1.37101 5.96548 0
M  V30 2432 N 221.337 -2.39364 6.60038 0
M  V30 2433 H 226.177 0.232499 2.97092 0
M  V30 2434 H 223.714 0.126496 1.46555 0
M  V30 2435 H 225.672 -2.17674 3.55913 0
M  V30 2436 H 224.302 -2.13794 2.41851 0
M  V30 2437 H 223.354 -0.151742 3.80097 0
M  V30 2438 H 224.666 -0.418006 4.97045 0
M  V30 2439 H 223.82 -2.73088 5.41763 0
M  V30 2440 H 222.559 -2.53208 4.16818 0
M  V30 2441 H 221.564 -0.624873 5.46237 0
M  V30 2442 H 222.789 -0.845998 6.7381 0
M  V30 2443 H 220.735 -2.91759 5.87548 0
M  V30 2444 H 220.652 -1.9428 7.3061 0
M  V30 2445 H 221.92 -3.12074 7.14304 0
M  V30 2446 N 226.149 -1.5696 0.141893 0
M  V30 2447 C 227.395 -1.9625 -0.511248 0
M  V30 2448 C 227.728 -1.02654 -1.64851 0
M  V30 2449 O 227.003 -0.0679676 -1.94381 0
M  V30 2450 C 227.286 -3.45285 -1.02227 0
M  V30 2451 C 227.139 -4.49658 0.113138 0
M  V30 2452 C 228.458 -3.96698 -1.90574 0
M  V30 2453 H 225.577 -0.713567 -0.184367 0
M  V30 2454 H 228.219 -1.88698 0.222087 0
M  V30 2455 H 226.369 -3.51852 -1.64719 0
M  V30 2456 H 228.041 -4.55174 0.749302 0
M  V30 2457 H 226.284 -4.26857 0.773026 0
M  V30 2458 H 226.955 -5.51258 -0.286053 0
M  V30 2459 H 229.431 -3.92578 -1.37918 0
M  V30 2460 H 228.307 -5.01453 -2.2324 0
M  V30 2461 H 228.568 -3.3875 -2.84079 0
M  V30 2462 N 227.627 0.131896 -1.57047 0
M  V30 2463 C 228.577 1.1679 -1.95816 0
M  V30 2464 C 229.561 1.37756 -0.831393 0
M  V30 2465 O 230.753 1.39065 -1.09499 0
M  V30 2466 C 227.882 2.49778 -2.35512 0
M  V30 2467 C 226.968 2.32342 -3.54793 0
M  V30 2468 N 227.359 1.8469 -4.70875 0
M  V30 2469 C 225.657 2.63043 -3.60173 0
M  V30 2470 C 226.358 1.80656 -5.52936 0
M  V30 2471 N 225.334 2.24528 -4.95064 0
M  V30 2472 H 229.136 0.791818 -2.83033 0
M  V30 2473 H 226.65 0.339791 -1.58805 0
M  V30 2474 H 228.647 3.24692 -2.61498 0
M  V30 2475 H 227.307 2.88156 -1.49654 0
M  V30 2476 H 228.318 1.54429 -4.9434 0
M  V30 2477 H 224.995 3.05193 -2.84892 0
M  V30 2478 H 226.385 1.45178 -6.56028 0
M  V30 2479 N 229.106 1.52395 0.401703 0
M  V30 2480 C 230.056 1.72649 1.48917 0
M  V30 2481 C 231.04 0.580436 1.50066 0
M  V30 2482 O 232.232 0.83779 1.55917 0
M  V30 2483 C 229.361 1.88729 2.86769 0
M  V30 2484 C 228.447 3.09228 2.90239 0
M  V30 2485 N 228.838 4.31805 2.63396 0
M  V30 2486 C 227.136 3.09214 3.21408 0
M  V30 2487 C 227.837 5.13326 2.73625 0
M  V30 2488 N 226.813 4.48735 3.06819 0
M  V30 2489 H 230.615 2.65058 1.26971 0
M  V30 2490 H 228.129 1.50528 0.609504 0
M  V30 2491 H 230.126 2.01358 3.65049 0
M  V30 2492 H 228.786 0.975252 3.09708 0
M  V30 2493 H 229.797 4.60154 2.37653 0
M  V30 2494 H 226.474 2.27774 3.49893 0
M  V30 2495 H 227.864 6.21003 2.56524 0
M  V30 2496 N 230.584 -0.659388 1.43143 0
M  V30 2497 C 231.83 -1.42145 1.44647 0
M  V30 2498 C 232.163 -1.9408 0.0681907 0
M  V30 2499 O 231.438 -1.71899 -0.910007 0
M  V30 2500 C 231.721 -2.60735 2.48373 0
M  V30 2501 C 231.574 -2.14332 3.95451 0
M  V30 2502 C 232.893 -3.62951 2.48906 0
M  V30 2503 H 230.012 -0.51552 0.526696 0
M  V30 2504 H 232.654 -0.748069 1.74654 0
M  V30 2505 H 230.804 -3.18184 2.22916 0
M  V30 2506 H 232.476 -1.61932 4.31944 0
M  V30 2507 H 230.719 -1.4576 4.08578 0
M  V30 2508 H 231.39 -2.99583 4.63631 0
M  V30 2509 H 233.866 -3.1525 2.71582 0
M  V30 2510 H 232.742 -4.43487 3.23435 0
M  V30 2511 H 233.003 -4.15126 1.52061 0
M  V30 2512 N 232.062 -1.29571 -0.897171 0
M  V30 2513 C 233.009 -1.14916 -2.00158 0
M  V30 2514 C 233.979 -0.0418149 -1.66047 0
M  V30 2515 O 235.164 -0.209793 -1.89643 0
M  V30 2516 C 232.304 -0.834307 -3.34863 0
M  V30 2517 C 231.417 -2.02234 -3.8174 0
M  V30 2518 C 230.552 -1.64664 -5.05034 0
M  V30 2519 C 229.591 -2.80033 -5.44286 0
M  V30 2520 N 228.728 -2.42843 -6.58765 0
M  V30 2521 H 233.568 -2.09403 -2.12025 0
M  V30 2522 H 231.105 -1.042 -1.0383 0
M  V30 2523 H 233.063 -0.632436 -4.12379 0
M  V30 2524 H 231.693 0.0736656 -3.22716 0
M  V30 2525 H 230.745 -2.33583 -3.00238 0
M  V30 2526 H 232.057 -2.88673 -4.06779 0
M  V30 2527 H 231.211 -1.4078 -5.9014 0
M  V30 2528 H 229.95 -0.753766 -4.8184 0
M  V30 2529 H 228.955 -3.04596 -4.57713 0
M  V30 2530 H 230.18 -3.69989 -5.6946 0
M  V30 2531 H 228.126 -1.56046 -6.3717 0
M  V30 2532 H 228.043 -3.22815 -6.83613 0
M  V30 2533 H 229.311 -2.22285 -7.47134 0
M  V30 2534 N 233.54 1.10788 -1.12088 0
M  V30 2535 C 234.78 1.84297 -0.883974 0
M  V30 2536 C 235.144 1.83036 0.579797 0
M  V30 2537 O 236.345 2.52061 0.933734 0
M  V30 2538 C 234.616 3.27173 -1.43849 0
M  V30 2539 S 236.175 4.17853 -1.33957 0
M  V30 2540 H 232.993 0.635433 -0.318977 0
M  V30 2541 H 235.595 1.33341 -1.4297 0
M  V30 2542 H 234.299 3.25658 -2.49749 0
M  V30 2543 H 233.83 3.83198 -0.890096 0
M  V30 2544 H 235.845 4.95239 -0.308603 0
M  V30 2545 N 235.018 0.912232 1.28515 0
M  V30 2546 C 235.968 0.370649 2.24967 0
M  V30 2547 C 236.952 -0.516375 1.52389 0
M  V30 2548 O 238.144 -0.356345 1.73376 0
M  V30 2549 C 235.273 -0.389526 3.41083 0
M  V30 2550 C 234.359 0.51313 4.20984 0
M  V30 2551 N 234.75 1.62604 4.78951 0
M  V30 2552 C 233.048 0.313235 4.44899 0
M  V30 2553 C 233.749 2.18619 5.39055 0
M  V30 2554 N 232.725 1.47765 5.23132 0
M  V30 2555 H 236.527 1.22061 2.67354 0
M  V30 2556 H 234.041 0.764712 1.43269 0
M  V30 2557 H 236.038 -0.794353 4.09262 0
M  V30 2558 H 234.698 -1.2366 3.0023 0
M  V30 2559 H 235.709 2.00864 4.77362 0
M  V30 2560 H 232.386 -0.494452 4.14562 0
M  V30 2561 H 233.776 3.12228 5.94948 0
M  V30 2562 N 236.496 -1.42363 0.676048 0
M  V30 2563 C 237.406 -2.346 -0.00153389 0
M  V30 2564 C 238.422 -1.5516 -0.787485 0
M  V30 2565 O 239.598 -1.87723 -0.729521 0
M  V30 2566 C 236.663 -3.33705 -0.940298 0
M  V30 2567 C 235.724 -4.29042 -0.148739 0
M  V30 2568 C 234.957 -5.23413 -1.04279 0
M  V30 2569 O 235.18 -5.22749 -2.28232 0
M  V30 2570 O 234.114 -5.99795 -0.502925 0
M  V30 2571 H 237.94 -2.94082 0.758268 0
M  V30 2572 H 235.525 -1.42888 0.436289 0
M  V30 2573 H 237.407 -3.94586 -1.47917 0
M  V30 2574 H 236.082 -2.76695 -1.67993 0
M  V30 2575 H 234.989 -3.71571 0.43427 0
M  V30 2576 H 236.322 -4.89097 0.551805 0
M  V30 2577 N 237.974 -0.419461 -1.51915 0
M  V30 2578 C 239.221 0.152939 -2.01922 0
M  V30 2579 C 239.549 1.4426 -1.30458 0
M  V30 2580 O 238.804 1.91514 -0.402593 0
M  V30 2581 C 239.103 0.437067 -3.54717 0
M  V30 2582 C 238.769 -0.764632 -4.44369 0
M  V30 2583 C 237.431 -1.09423 -4.68594 0
M  V30 2584 C 239.783 -1.56713 -4.97082 0
M  V30 2585 C 237.111 -2.22732 -5.42777 0
M  V30 2586 C 239.463 -2.69107 -5.72507 0
M  V30 2587 C 238.127 -3.02541 -5.95 0
M  V30 2588 H 237.397 0.0559644 -0.738884 0
M  V30 2589 H 240.044 -0.562998 -1.83037 0
M  V30 2590 H 238.349 1.23469 -3.71837 0
M  V30 2591 H 240.046 0.893083 -3.90928 0
M  V30 2592 H 236.636 -0.497775 -4.257 0
M  V30 2593 H 240.82 -1.32571 -4.78266 0
M  V30 2594 H 236.076 -2.48971 -5.58411 0
M  V30 2595 H 240.25 -3.31671 -6.12346 0
M  V30 2596 H 237.877 -3.90457 -6.52264 0
M  V30 2597 N 239.452 1.56882 -0.150215 0
M  V30 2598 C 240.68 2.00593 0.506948 0
M  V30 2599 C 241.095 1.03033 1.58208 0
M  V30 2600 O 240.452 0.0278396 1.82479 0
M  V30 2601 C 240.503 3.44209 1.10465 0
M  V30 2602 O 240.224 4.3804 0.0724636 0
M  V30 2603 C 241.725 4.03214 1.84211 0
M  V30 2604 H 238.945 0.65795 0.13169 0
M  V30 2605 H 241.489 2.03018 -0.245743 0
M  V30 2606 H 239.644 3.42625 1.80795 0
M  V30 2607 H 240.058 5.22007 0.510793 0
M  V30 2608 H 241.532 5.0569 2.21318 0
M  V30 2609 H 242.009 3.44107 2.72923 0
M  V30 2610 H 242.615 4.08437 1.18572 0
M  V30 2611 N 240.93 -0.123565 1.57115 0
M  V30 2612 C 241.893 -1.13583 1.99076 0
M  V30 2613 C 242.893 -1.34564 0.880296 0
M  V30 2614 O 244.083 -1.31158 1.14644 0
M  V30 2615 C 241.215 -2.49128 2.32698 0
M  V30 2616 H 242.408 -0.775287 2.89706 0
M  V30 2617 H 239.961 -0.36771 1.51913 0
M  V30 2618 H 240.696 -2.90111 1.44934 0
M  V30 2619 H 240.481 -2.35255 3.13684 0
M  V30 2620 H 241.971 -3.2199 2.65918 0
M  V30 2621 N 242.408 -1.52605 -0.393616 0
M  V30 2622 C 243.636 -1.71294 -1.16043 0
M  V30 2623 C 244.051 -0.429259 -1.83855 0
M  V30 2624 O 243.408 0.595921 -1.72496 0
M  V30 2625 C 243.459 -2.8593 -2.21193 0
M  V30 2626 O 243.18 -4.09329 -1.56146 0
M  V30 2627 C 244.681 -3.16259 -3.10636 0
M  V30 2628 H 241.901 -0.573641 -0.348104 0
M  V30 2629 H 244.445 -1.99234 -0.461092 0
M  V30 2630 H 242.6 -2.60465 -2.86769 0
M  V30 2631 H 243.014 -4.73323 -2.25978 0
M  V30 2632 H 244.488 -3.99946 -3.80456 0
M  V30 2633 H 244.965 -2.3045 -3.73884 0
M  V30 2634 H 245.571 -3.43547 -2.50711 0
M  V30 2635 N 243.887 0.651787 -1.4349 0
M  V30 2636 C 245.134 1.41167 -1.45183 0
M  V30 2637 C 245.462 1.94349 -0.0766601 0
M  V30 2638 O 244.717 1.72804 0.918555 0
M  V30 2639 C 245.016 2.60914 -2.44251 0
M  V30 2640 C 244.682 2.26142 -3.9009 0
M  V30 2641 C 243.344 2.16371 -4.2981 0
M  V30 2642 C 245.696 1.98334 -4.81989 0
M  V30 2643 C 243.024 1.7695 -5.5938 0
M  V30 2644 C 245.376 1.6041 -6.11924 0
M  V30 2645 C 244.04 1.49166 -6.5062 0
M  V30 2646 H 243.31 0.516566 -0.531263 0
M  V30 2647 H 245.957 0.741099 -1.76579 0
M  V30 2648 H 244.262 3.3311 -2.06265 0
M  V30 2649 H 245.959 3.19127 -2.42815 0
M  V30 2650 H 242.549 2.34658 -3.58655 0
M  V30 2651 H 246.733 2.04803 -4.52072 0
M  V30 2652 H 241.989 1.66831 -5.88198 0
M  V30 2653 H 246.163 1.37925 -6.82605 0
M  V30 2654 H 243.79 1.1839 -7.50925 0
M  V30 2655 N 245.365 1.30045 0.890287 0
M  V30 2656 C 246.612 1.18561 1.64163 0
M  V30 2657 C 246.94 -0.260852 1.92743 0
M  V30 2658 O 246.195 -1.20376 1.54299 0
M  V30 2659 C 246.494 1.95409 2.99249 0
M  V30 2660 C 246.16 3.45066 2.90242 0
M  V30 2661 C 244.822 3.85878 2.87492 0
M  V30 2662 C 247.174 4.4039 2.78758 0
M  V30 2663 C 244.502 5.20314 2.7109 0
M  V30 2664 C 246.854 5.74928 2.63894 0
M  V30 2665 C 245.518 6.14986 2.59516 0
M  V30 2666 H 244.788 0.433846 0.600715 0
M  V30 2667 H 247.435 1.61088 1.03552 0
M  V30 2668 H 245.74 1.45501 3.63781 0
M  V30 2669 H 247.437 1.8392 3.56334 0
M  V30 2670 H 244.027 3.12631 2.93189 0
M  V30 2671 H 248.211 4.09806 2.79952 0
M  V30 2672 H 243.467 5.50449 2.66112 0
M  V30 2673 H 247.641 6.48434 2.53981 0
M  V30 2674 H 245.268 7.19104 2.46565 0
M  V30 2675 N 246.843 -1.10192 1.12674 0
M  V30 2676 C 248.254 -1.63707 0.897604 0
M  V30 2677 C 248.605 -1.87812 -0.567546 0
M  V30 2678 O 247.73 -1.62196 -1.43253 0
M  V30 2679 C 248.325 -2.974 1.62292 0
M  V30 2680 C 246.884 -3.47772 1.43986 0
M  V30 2681 C 246.031 -2.22332 1.65722 0
M  V30 2682 H 248.982 -0.936587 1.28116 0
M  V30 2683 H 249.003 -3.64986 1.07541 0
M  V30 2684 H 248.515 -2.79824 2.68924 0
M  V30 2685 H 246.616 -3.70487 0.396206 0
M  V30 2686 H 246.729 -4.25723 2.19765 0
M  V30 2687 H 245.093 -2.30599 1.08149 0
M  V30 2688 H 245.876 -2.07285 2.73657 0
M  V30 2689 N 248.321 -0.919034 -1.28029 0
M  V30 2690 C 249.253 -0.368762 -2.26214 0
M  V30 2691 C 250.266 0.495716 -1.55069 0
M  V30 2692 O 251.455 0.30974 -1.75792 0
M  V30 2693 C 248.555 0.491049 -3.35324 0
M  V30 2694 C 247.728 -0.352133 -4.3598 0
M  V30 2695 C 246.787 0.443622 -5.24327 0
M  V30 2696 O 245.813 -0.14566 -5.69014 0
M  V30 2697 N 247.015 1.74545 -5.53637 0
M  V30 2698 H 249.78 -1.21273 -2.74068 0
M  V30 2699 H 247.341 -0.785541 -1.41566 0
M  V30 2700 H 249.333 1.03026 -3.91366 0
M  V30 2701 H 247.903 1.23574 -2.87138 0
M  V30 2702 H 247.123 -1.07269 -3.79324 0
M  V30 2703 H 248.411 -0.928883 -5.00249 0
M  V30 2704 H 247.809 2.24666 -5.19174 0
M  V30 2705 H 246.366 2.23138 -6.12416 0
M  V30 2706 N 249.799 1.42003 -0.683588 0
M  V30 2707 C 251.21 1.84501 -0.285736 0
M  V30 2708 C 251.561 1.57213 1.17382 0
M  V30 2709 O 250.686 1.03642 1.89966 0
M  V30 2710 C 251.281 3.34912 -0.511821 0
M  V30 2711 C 249.84 3.76025 -0.168005 0
M  V30 2712 C 248.987 2.6551 -0.799983 0
M  V30 2713 H 251.938 1.31724 -0.885119 0
M  V30 2714 H 251.959 3.79784 0.233292 0
M  V30 2715 H 251.471 3.54741 -1.57418 0
M  V30 2716 H 249.572 3.61801 0.890567 0
M  V30 2717 H 249.685 4.75141 -0.614661 0
M  V30 2718 H 248.049 2.53654 -0.230568 0
M  V30 2719 H 248.832 2.8816 -1.86597 0
M  V30 2720 N 251.277 0.427512 1.51691 0
M  V30 2721 C 252.505 -0.141191 2.06418 0
M  V30 2722 C 252.92 -1.37303 1.29589 0
M  V30 2723 O 252.277 -1.79059 0.352732 0
M  V30 2724 C 252.328 -0.473266 3.58389 0
M  V30 2725 O 252.049 0.709673 4.32314 0
M  V30 2726 C 253.55 -1.09371 4.29596 0
M  V30 2727 H 250.77 -0.0122747 0.670888 0
M  V30 2728 H 253.314 0.603764 1.95384 0
M  V30 2729 H 251.469 -1.16812 3.69369 0
M  V30 2730 H 251.883 0.42807 5.2275 0
M  V30 2731 H 253.357 -1.27613 5.37046 0
M  V30 2732 H 253.834 -2.072 3.87253 0
M  V30 2733 H 254.44 -0.43853 4.23033 0
M  V30 2734 N 252.755 -1.56801 0.158532 0
M  V30 2735 C 254.002 -1.9649 -0.489679 0
M  V30 2736 C 254.33 -1.04394 -1.6411 0
M  V30 2737 O 253.585 -0.0754401 -1.95555 0
M  V30 2738 C 253.884 -3.4235 -1.02623 0
M  V30 2739 C 253.55 -4.50899 0.00794526 0
M  V30 2740 C 252.212 -4.80312 0.292207 0
M  V30 2741 C 254.564 -5.16333 0.710584 0
M  V30 2742 C 251.892 -5.72461 1.28472 0
M  V30 2743 C 254.244 -6.09553 1.69199 0
M  V30 2744 C 252.908 -6.37339 1.98383 0
M  V30 2745 H 252.178 -0.719009 -0.179186 0
M  V30 2746 H 254.825 -1.8989 0.247798 0
M  V30 2747 H 253.13 -3.45838 -1.84128 0
M  V30 2748 H 254.827 -3.70393 -1.53656 0
M  V30 2749 H 251.417 -4.28015 -0.22379 0
M  V30 2750 H 255.601 -4.93732 0.504174 0
M  V30 2751 H 250.857 -5.92278 1.51714 0
M  V30 2752 H 255.031 -6.59327 2.24189 0
M  V30 2753 H 252.658 -7.08546 2.7544 0
M  V30 2754 N 254.233 0.115231 -1.57178 0
M  V30 2755 C 255.473 0.828199 -1.8687 0
M  V30 2756 C 255.837 1.76873 -0.747002 0
M  V30 2757 O 257.038 2.52354 -0.925785 0
M  V30 2758 C 255.309 1.55515 -3.21792 0
M  V30 2759 S 256.868 2.30917 -3.73125 0
M  V30 2760 H 253.686 0.27634 -0.655101 0
M  V30 2761 H 256.288 0.0863469 -1.95309 0
M  V30 2762 H 254.992 0.856248 -4.01368 0
M  V30 2763 H 254.523 2.3373 -3.16439 0
M  V30 2764 H 256.538 3.56705 -3.44929 0
M  V30 2765 N 255.711 1.52812 0.385517 0
M  V30 2766 C 256.936 1.72207 1.15583 0
M  V30 2767 C 257.361 0.441034 1.82857 0
M  V30 2768 O 256.719 -0.603465 1.70962 0
M  V30 2769 C 256.767 2.87476 2.17692 0
M  V30 2770 O 255.871 2.54693 3.24354 0
M  V30 2771 H 255.212 0.572526 0.336319 0
M  V30 2772 H 257.742 1.99618 0.448744 0
M  V30 2773 H 257.752 3.13072 2.6163 0
M  V30 2774 H 256.427 3.80408 1.68115 0
M  V30 2775 H 255.004 2.3985 2.85529 0
M  V30 2776 N 257.189 -0.644168 1.43834 0
M  V30 2777 C 258.435 -1.40603 1.46146 0
M  V30 2778 C 258.768 -1.93997 0.0887717 0
M  V30 2779 O 258.043 -1.72854 -0.891724 0
M  V30 2780 C 258.326 -2.58086 2.51124 0
M  V30 2781 C 258.179 -2.10126 3.97702 0
M  V30 2782 C 259.498 -3.60291 2.52742 0
M  V30 2783 H 256.617 -0.509905 0.532134 0
M  V30 2784 H 259.259 -0.729502 1.75437 0
M  V30 2785 H 257.409 -3.15801 2.26278 0
M  V30 2786 H 259.081 -1.57342 4.33637 0
M  V30 2787 H 257.324 -1.41419 4.10101 0
M  V30 2788 H 257.995 -2.94649 4.66783 0
M  V30 2789 H 260.471 -3.12352 2.7491 0
M  V30 2790 H 259.347 -4.40032 3.28121 0
M  V30 2791 H 259.608 -4.1349 1.56455 0
M  V30 2792 N 258.668 -1.30515 -0.883378 0
M  V30 2793 C 259.908 -1.20716 -1.64946 0
M  V30 2794 C 260.272 0.234072 -1.90568 0
M  V30 2795 O 261.473 0.455335 -2.64915 0
M  V30 2796 C 259.744 -2.01444 -2.9522 0
M  V30 2797 S 261.303 -2.0836 -3.86175 0
M  V30 2798 H 258.121 -0.430165 -0.566109 0
M  V30 2799 H 260.723 -1.65011 -1.04841 0
M  V30 2800 H 259.427 -3.05268 -2.74298 0
M  V30 2801 H 258.958 -1.57817 -3.60357 0
M  V30 2802 H 260.973 -1.21215 -4.81167 0
M  V30 2803 N 260.146 1.09593 -1.13257 0
M  V30 2804 C 261.096 2.14345 -0.777179 0
M  V30 2805 C 262.08 1.59277 0.227966 0
M  V30 2806 O 263.272 1.76971 0.0321413 0
M  V30 2807 C 260.401 3.42439 -0.242991 0
M  V30 2808 C 259.487 4.04419 -1.27694 0
M  V30 2809 N 259.878 4.40979 -2.47732 0
M  V30 2810 C 258.176 4.31596 -1.12432 0
M  V30 2811 C 258.877 4.89784 -3.13826 0
M  V30 2812 N 257.853 4.87133 -2.41252 0
M  V30 2813 H 261.655 2.40415 -1.69049 0
M  V30 2814 H 259.169 1.26803 -1.01463 0
M  V30 2815 H 261.166 4.16889 0.0298496 0
M  V30 2816 H 259.826 3.17824 0.66467 0
M  V30 2817 H 260.837 4.32396 -2.85051 0
M  V30 2818 H 257.514 4.16595 -0.274684 0
M  V30 2819 H 258.904 5.2755 -4.16102 0
M  V30 2820 N 261.624 0.925811 1.2754 0
M  V30 2821 C 262.534 0.428993 2.30644 0
M  V30 2822 C 263.55 -0.489387 1.66976 0
M  V30 2823 O 264.726 -0.372653 1.97922 0
M  V30 2824 C 261.791 -0.311967 3.45294 0
M  V30 2825 C 260.852 0.641098 4.24486 0
M  V30 2826 C 260.085 -0.0645955 5.33661 0
M  V30 2827 O 260.308 -1.28429 5.55754 0
M  V30 2828 O 259.242 0.606265 5.98839 0
M  V30 2829 H 263.068 1.28504 2.75173 0
M  V30 2830 H 260.653 0.691086 1.32455 0
M  V30 2831 H 262.535 -0.729972 4.15029 0
M  V30 2832 H 261.21 -1.14365 3.02824 0
M  V30 2833 H 260.117 1.10874 3.57292 0
M  V30 2834 H 261.45 1.43995 4.70666 0
M  V30 2835 N 263.102 -1.41638 0.69111 0
M  V30 2836 C 264.349 -2.01299 0.220193 0
M  V30 2837 C 264.677 -1.54715 -1.17871 0
M  V30 2838 O 263.932 -0.747193 -1.80874 0
M  V30 2839 C 264.231 -3.56714 0.221277 0
M  V30 2840 C 263.897 -4.22792 1.56709 0
M  V30 2841 C 262.559 -4.40557 1.93554 0
M  V30 2842 C 264.911 -4.59883 2.45268 0
M  V30 2843 C 262.239 -4.92688 3.18552 0
M  V30 2844 C 264.591 -5.13403 3.69595 0
M  V30 2845 C 263.255 -5.29379 4.06589 0
M  V30 2846 H 262.525 -0.736606 0.0805743 0
M  V30 2847 H 265.172 -1.69598 0.889319 0
M  V30 2848 H 263.477 -3.8818 -0.531391 0
M  V30 2849 H 265.174 -4.00678 -0.160547 0
M  V30 2850 H 261.764 -4.09336 1.2705 0
M  V30 2851 H 265.948 -4.45817 2.18084 0
M  V30 2852 H 261.204 -5.03242 3.47214 0
M  V30 2853 H 265.378 -5.41084 4.38407 0
M  V30 2854 H 263.005 -5.69537 5.03519 0
M  V30 2855 N 264.58 -0.43555 -1.51462 0
M  V30 2856 C 265.826 0.131709 -2.02372 0
M  V30 2857 C 266.159 1.42516 -1.3192 0
M  V30 2858 O 265.434 1.89606 -0.433573 0
M  V30 2859 C 265.717 0.352301 -3.58373 0
M  V30 2860 C 265.57 -0.959676 -4.39443 0
M  V30 2861 C 266.889 1.12286 -4.25535 0
M  V30 2862 H 264.008 0.0463936 -0.735538 0
M  V30 2863 H 266.65 -0.574197 -1.81116 0
M  V30 2864 H 264.8 0.9536 -3.76615 0
M  V30 2865 H 266.472 -1.59482 -4.32855 0
M  V30 2866 H 264.715 -1.56468 -4.04599 0
M  V30 2867 H 265.386 -0.759394 -5.46752 0
M  V30 2868 H 267.862 0.613545 -4.11552 0
M  V30 2869 H 266.738 1.24598 -5.34571 0
M  V30 2870 H 266.999 2.15048 -3.86273 0
M  V30 2871 N 266.058 1.56714 -0.166846 0
M  V30 2872 C 267.304 1.97813 0.473473 0
M  V30 2873 C 267.659 1.05095 1.61161 0
M  V30 2874 O 266.952 0.0897541 1.9139 0
M  V30 2875 C 267.146 3.42889 1.00806 0
M  V30 2876 C 266.975 4.49635 -0.0767392 0
M  V30 2877 C 265.745 5.02566 -0.524894 0
M  V30 2878 C 267.943 5.06793 -0.875504 0
M  V30 2879 N 265.925 5.9294 -1.59047 0
M  V30 2880 C 267.296 5.93565 -1.79111 0
M  V30 2881 C 269.351 4.89306 -0.921083 0
M  V30 2882 C 268.054 6.64721 -2.74843 0
M  V30 2883 C 270.08 5.61179 -1.86633 0
M  V30 2884 C 269.442 6.47675 -2.76942 0
M  V30 2885 H 265.541 0.769093 0.141489 0
M  V30 2886 H 268.125 1.92874 -0.266031 0
M  V30 2887 H 266.296 3.48382 1.7171 0
M  V30 2888 H 268.028 3.71008 1.61664 0
M  V30 2889 H 264.783 4.73439 -0.123432 0
M  V30 2890 H 265.207 6.42831 -2.12361 0
M  V30 2891 H 269.849 4.22136 -0.23692 0
M  V30 2892 H 267.567 7.31107 -3.44249 0
M  V30 2893 H 271.153 5.49636 -1.90764 0
M  V30 2894 H 270.033 7.02313 -3.48893 0
M  V30 2895 N 267.536 -0.106894 1.57237 0
M  V30 2896 C 268.784 -0.810921 1.85117 0
M  V30 2897 C 269.105 -1.7984 0.753827 0
M  V30 2898 O 268.375 -1.94649 -0.221056 0
M  V30 2899 H 266.955 -0.302466 0.683025 0
M  V30 2900 H 269.617 -0.0913324 1.94686 0
M  V30 2901 H 268.713 -1.34875 2.81452 0
M  V30 2902 N 269.014 -1.53014 -0.377408 0
M  V30 2903 C 269.944 -1.81589 -1.46791 0
M  V30 2904 C 270.925 -0.668622 -1.56408 0
M  V30 2905 O 272.11 -0.917337 -1.71168 0
M  V30 2906 C 269.24 -1.99519 -2.8427 0
M  V30 2907 C 268.194 -3.15249 -2.89486 0
M  V30 2908 C 267.52 -3.18451 -4.29527 0
M  V30 2909 C 268.82 -4.54084 -2.58079 0
M  V30 2910 H 270.514 -2.7291 -1.23127 0
M  V30 2911 H 268.06 -1.31319 -0.590883 0
M  V30 2912 H 270.013 -2.18092 -3.60575 0
M  V30 2913 H 268.737 -1.04897 -3.09296 0
M  V30 2914 H 267.396 -2.96477 -2.15631 0
M  V30 2915 H 267.044 -2.2149 -4.5161 0
M  V30 2916 H 266.744 -3.962 -4.33934 0
M  V30 2917 H 268.268 -3.39193 -5.07721 0
M  V30 2918 H 269.682 -4.72899 -3.24098 0
M  V30 2919 H 268.079 -5.33987 -2.7382 0
M  V30 2920 H 269.149 -4.60006 -1.53372 0
M  V30 2921 N 270.492 0.636531 -1.44174 0
M  V30 2922 C 271.44 1.76995 -1.50915 0
M  V30 2923 C 272.434 1.65053 -0.381295 0
M  V30 2924 O 273.64 1.71197 -0.55601 0
M  V30 2925 H 270.015 0.584247 -0.473455 0
M  V30 2926 H 271.986 1.68432 -2.4632 0
M  V30 2927 C 270.735 3.15314 -1.46534 0
M  V30 2928 H 270.058 3.25149 -2.32633 0
M  V30 2929 H 271.498 3.9453 -1.55312 0
M  V30 2930 C 269.957 3.3639 -0.185305 0
M  V30 2931 O 270.487 3.94699 0.746688 0
M  V30 2932 N 268.693 2.9046 -0.0901606 0
M  V30 2933 H 268.24 2.43193 -0.849416 0
M  V30 2934 H 268.198 3.04937 0.765553 0
M  V30 2935 N 271.97 1.30982 0.876444 0
M  V30 2936 C 272.917 1.18085 1.98304 0
M  V30 2937 C 273.887 0.0682263 1.6596 0
M  V30 2938 O 275.072 0.239937 1.89285 0
M  V30 2939 C 272.212 0.887475 3.33493 0
M  V30 2940 C 271.325 2.08281 3.78475 0
M  V30 2941 C 270.46 1.72678 5.0235 0
M  V30 2942 C 269.499 2.88657 5.39762 0
M  V30 2943 N 268.636 2.53292 6.54819 0
M  V30 2944 H 273.476 2.1275 2.08666 0
M  V30 2945 H 271.013 1.05839 1.02159 0
M  V30 2946 H 272.971 0.697961 4.1132 0
M  V30 2947 H 271.601 -0.022315 3.22792 0
M  V30 2948 H 270.653 2.3833 2.96484 0
M  V30 2949 H 271.965 2.95108 4.02135 0
M  V30 2950 H 271.119 1.50151 5.87826 0
M  V30 2951 H 269.858 0.830327 4.8058 0
M  V30 2952 H 268.863 3.1184 4.52809 0
M  V30 2953 H 270.088 3.79002 5.63502 0
M  V30 2954 H 268.034 1.66163 6.34607 0
M  V30 2955 H 267.951 3.3365 6.7839 0
M  V30 2956 H 269.219 2.34143 7.43503 0
M  V30 2957 N 273.449 -1.08991 1.13837 0
M  V30 2958 C 274.381 -2.15606 0.777612 0
M  V30 2959 C 275.394 -1.61533 -0.202739 0
M  V30 2960 O 276.583 -1.78491 0.0181055 0
M  V30 2961 C 273.683 -3.3864 0.132623 0
M  V30 2962 C 272.856 -4.22115 1.1462 0
M  V30 2963 C 271.915 -5.23564 0.526074 0
M  V30 2964 O 270.941 -5.56678 1.18735 0
M  V30 2965 N 272.143 -5.76266 -0.699866 0
M  V30 2966 H 274.908 -2.47159 1.69506 0
M  V30 2967 H 272.469 -1.24747 1.03198 0
M  V30 2968 H 274.461 -4.03626 -0.29459 0
M  V30 2969 H 273.031 -3.04938 -0.687849 0
M  V30 2970 H 272.251 -3.53199 1.75055 0
M  V30 2971 H 273.539 -4.74709 1.83109 0
M  V30 2972 H 272.937 -5.51585 -1.25581 0
M  V30 2973 H 271.494 -6.42963 -1.06968 0
M  V30 2974 N 274.927 -0.932562 -1.27047 0
M  V30 2975 C 276.175 -0.574422 -1.93765 0
M  V30 2976 C 276.496 0.887993 -1.73608 0
M  V30 2977 O 275.766 1.62999 -1.08665 0
M  V30 2978 H 274.346 -0.209451 -0.717035 0
M  V30 2979 H 277.008 -1.18601 -1.5466 0
M  V30 2980 H 276.104 -0.784841 -3.02071 0
M  V30 2981 N 276.405 1.4127 -0.698611 0
M  V30 2982 C 277.635 2.05205 -0.239644 0
M  V30 2983 C 278.043 1.52684 1.11733 0
M  V30 2984 O 277.386 0.671222 1.70998 0
M  V30 2985 C 277.448 3.59289 -0.123126 0
M  V30 2986 C 277.112 4.34619 -1.41263 0
M  V30 2987 C 278.109 4.63701 -2.35111 0
M  V30 2988 C 275.794 4.73837 -1.66684 0
M  V30 2989 C 277.788 5.30966 -3.52639 0
M  V30 2990 C 275.475 5.40837 -2.84498 0
M  V30 2991 C 276.473 5.69329 -3.77298 0
M  V30 2992 O 276.161 6.34949 -4.93047 0
M  V30 2993 H 275.893 0.66723 -0.108537 0
M  V30 2994 H 278.447 1.81974 -0.952602 0
M  V30 2995 H 276.677 3.81272 0.645628 0
M  V30 2996 H 278.366 4.04797 0.299056 0
M  V30 2997 H 279.132 4.33882 -2.16729 0
M  V30 2998 H 275.011 4.51039 -0.953135 0
M  V30 2999 H 278.555 5.53121 -4.25091 0
M  V30 3000 H 274.452 5.70075 -3.02795 0
M  V30 3001 H 275.22 6.53445 -4.92902 0
M  V30 3002 N 277.883 0.443576 1.51229 0
M  V30 3003 C 278.815 -0.400608 2.25672 0
M  V30 3004 C 279.828 -0.980945 1.29928 0
M  V30 3005 O 281.017 -0.874024 1.55638 0
M  V30 3006 C 278.117 -1.57304 3.00181 0
M  V30 3007 C 277.29 -1.11046 4.23069 0
M  V30 3008 C 276.349 -2.15374 4.80105 0
M  V30 3009 O 275.375 -1.74554 5.41774 0
M  V30 3010 N 276.577 -3.47922 4.64683 0
M  V30 3011 H 279.342 0.23745 2.98758 0
M  V30 3012 H 276.903 0.272809 1.59585 0
M  V30 3013 H 278.895 -2.26733 3.35223 0
M  V30 3014 H 277.465 -2.11632 2.30066 0
M  V30 3015 H 276.685 -0.243019 3.9345 0
M  V30 3016 H 277.973 -0.778888 5.02803 0
M  V30 3017 H 277.371 -3.83815 4.15575 0
M  V30 3018 H 275.928 -4.13228 5.0407 0
M  V30 3019 N 279.361 -1.56624 0.175154 0
M  V30 3020 C 280.601 -1.98894 -0.471221 0
M  V30 3021 C 280.965 -1.05889 -1.60161 0
M  V30 3022 O 282.166 -1.37315 -2.3108 0
M  V30 3023 C 280.437 -3.44865 -0.938241 0
M  V30 3024 S 281.996 -4.09164 -1.58526 0
M  V30 3025 H 278.814 -0.694686 -0.151434 0
M  V30 3026 H 281.416 -1.93577 0.27352 0
M  V30 3027 H 280.12 -4.10265 -0.10518 0
M  V30 3028 H 279.651 -3.53956 -1.71693 0
M  V30 3029 H 281.666 -4.04528 -2.87352 0
M  V30 3030 N 280.839 0.0985539 -1.57292 0
M  V30 3031 C 282.255 0.45267 -1.53046 0
M  V30 3032 C 282.455 1.80713 -0.891342 0
M  V30 3033 O 281.511 2.4785 -0.482375 0
M  V30 3034 C 282.824 0.418341 -2.97776 0
M  V30 3035 C 284.372 0.500443 -3.08973 0
M  V30 3036 C 284.847 0.496297 -4.55303 0
M  V30 3037 N 286.338 0.557151 -4.59837 0
M  V30 3038 C 287.073 0.575726 -5.70502 0
M  V30 3039 N 286.569 0.550714 -6.90608 0
M  V30 3040 N 288.362 0.620277 -5.58667 0
M  V30 3041 H 280.513 -0.788673 -1.97215 0
M  V30 3042 H 282.776 -0.293188 -0.901524 0
M  V30 3043 H 282.482 -0.509659 -3.47988 0
M  V30 3044 H 282.356 1.2386 -3.56284 0
M  V30 3045 H 284.743 1.41886 -2.58751 0
M  V30 3046 H 284.824 -0.347894 -2.53423 0
M  V30 3047 H 284.468 -0.418162 -5.06176 0
M  V30 3048 H 284.398 1.3618 -5.08687 0
M  V30 3049 H 286.889 0.581816 -3.73394 0
M  V30 3050 H 287.202 0.568075 -7.70709 0
M  V30 3051 H 285.547 0.517816 -6.93068 0
M  V30 3052 H 288.738 0.637322 -4.63741 0
M  V30 3053 H 288.911 0.631283 -6.44918 0
M  V30 3054 N 282.317 1.53212 0.369288 0
M  V30 3055 C 283.249 1.75668 1.47219 0
M  V30 3056 C 284.262 0.637387 1.49804 0
M  V30 3057 O 285.451 0.913561 1.5335 0
M  V30 3058 C 282.551 1.81818 2.85999 0
M  V30 3059 C 281.724 3.11409 3.07153 0
M  V30 3060 C 280.783 3.08849 4.26026 0
M  V30 3061 O 279.809 3.82659 4.2138 0
M  V30 3062 N 281.011 2.29409 5.33246 0
M  V30 3063 H 283.776 2.70832 1.28337 0
M  V30 3064 H 281.337 1.51944 0.55898 0
M  V30 3065 H 283.329 1.77588 3.63655 0
M  V30 3066 H 281.899 0.939544 2.98146 0
M  V30 3067 H 281.119 3.28971 2.1719 0
M  V30 3068 H 282.407 3.97059 3.18154 0
M  V30 3069 H 281.805 1.68946 5.39883 0
M  V30 3070 H 280.362 2.31001 6.09493 0
M  V30 3071 N 283.795 -0.628877 1.44509 0
M  V30 3072 C 285.035 -1.39993 1.48934 0
M  V30 3073 C 285.399 -1.91627 0.119604 0
M  V30 3074 O 286.6 -2.68772 0.0385283 0
M  V30 3075 C 284.871 -2.53241 2.52198 0
M  V30 3076 S 286.43 -3.41383 2.75687 0
M  V30 3077 H 283.248 -0.477558 0.526744 0
M  V30 3078 H 285.85 -0.727804 1.81448 0
M  V30 3079 H 284.554 -2.13622 3.50419 0
M  V30 3080 H 284.085 -3.25278 2.21264 0
M  V30 3081 H 286.1 -4.50752 2.07453 0
M  V30 3082 N 285.273 -1.31445 -0.869486 0
M  V30 3083 C 286.221 -1.19067 -1.99814 0
M  V30 3084 C 287.215 -0.0988569 -1.69111 0
M  V30 3085 O 288.421 -0.260781 -1.78101 0
M  V30 3086 H 284.796 -0.368677 -0.655425 0
M  V30 3087 H 286.767 -2.14555 -2.07385 0
M  V30 3088 C 285.516 -0.915323 -3.35436 0
M  V30 3089 H 284.839 -1.74759 -3.59582 0
M  V30 3090 H 286.279 -0.868895 -4.15001 0
M  V30 3091 C 284.738 0.381928 -3.34728 0
M  V30 3092 O 285.268 1.39857 -3.76567 0
M  V30 3093 N 283.474 0.398633 -2.87853 0
M  V30 3094 H 283.021 -0.429186 -2.54 0
M  V30 3095 H 282.979 1.26651 -2.87762 0
M  V30 3096 N 286.751 1.08385 -1.14413 0
M  V30 3097 C 287.714 2.13486 -0.834048 0
M  V30 3098 C 288.714 1.59988 0.161418 0
M  V30 3099 O 289.904 1.74071 -0.0669575 0
M  V30 3100 C 287.036 3.4003 -0.243354 0
M  V30 3101 H 288.229 2.42425 -1.7655 0
M  V30 3102 H 285.782 1.24101 -0.950189 0
M  V30 3103 H 286.517 3.16726 0.696807 0
M  V30 3104 H 286.302 3.80157 -0.960367 0
M  V30 3105 H 287.792 4.17577 -0.0436242 0
M  V30 3106 N 288.23 0.939286 1.26551 0
M  V30 3107 C 289.193 0.451987 2.24699 0
M  V30 3108 C 290.193 -0.435869 1.5478 0
M  V30 3109 O 291.383 -0.235314 1.72603 0
M  V30 3110 C 288.515 -0.348801 3.39111 0
M  V30 3111 H 289.708 1.3193 2.69322 0
M  V30 3112 H 287.261 0.721072 1.38673 0
M  V30 3113 H 287.996 -1.23444 2.99887 0
M  V30 3114 H 287.781 0.287945 3.91041 0
M  V30 3115 H 289.271 -0.679726 4.12031 0
M  V30 3116 N 289.708 -1.40897 0.706093 0
M  V30 3117 C 290.957 -2.00284 0.238574 0
M  V30 3118 C 291.27 -1.56604 -1.17194 0
M  V30 3119 O 292.476 -2.08624 -1.73748 0
M  V30 3120 C 290.932 -3.57934 0.375623 0
M  V30 3121 C 290.54 -4.10591 1.79217 0
M  V30 3122 C 292.284 -4.24488 -0.0315857 0
M  V30 3123 C 290.191 -5.60712 1.88032 0
M  V30 3124 H 289.121 -0.749144 0.0854398 0
M  V30 3125 H 291.772 -1.61251 0.875813 0
M  V30 3126 H 290.154 -3.94622 -0.330042 0
M  V30 3127 H 291.328 -3.85301 2.52745 0
M  V30 3128 H 289.643 -3.56601 2.15 0
M  V30 3129 H 292.24 -5.34698 0.0136842 0
M  V30 3130 H 292.583 -4.02261 -1.072 0
M  V30 3131 H 293.116 -3.92873 0.624181 0
M  V30 3132 H 289.855 -5.87781 2.90161 0
M  V30 3133 H 289.375 -5.87896 1.18903 0
M  V30 3134 H 291.054 -6.25658 1.64805 0
M  V30 3135 N 291.186 -0.45159 -1.50991 0
M  V30 3136 C 292.136 0.370861 -2.24964 0
M  V30 3137 C 293.12 0.978074 -1.2776 0
M  V30 3138 O 294.312 0.893854 -1.52772 0
M  V30 3139 C 291.441 1.46344 -3.10545 0
M  V30 3140 C 290.527 0.864924 -4.15187 0
M  V30 3141 N 290.918 -0.00311354 -5.058 0
M  V30 3142 C 289.216 1.13099 -4.31422 0
M  V30 3143 C 289.917 -0.340772 -5.80701 0
M  V30 3144 N 288.893 0.279203 -5.42883 0
M  V30 3145 H 292.695 -0.298134 -2.92384 0
M  V30 3146 H 290.209 -0.264528 -1.60231 0
M  V30 3147 H 292.206 2.06565 -3.62128 0
M  V30 3148 H 290.866 2.13463 -2.4467 0
M  V30 3149 H 291.877 -0.37058 -5.16572 0
M  V30 3150 H 288.554 1.79861 -3.76771 0
M  V30 3151 H 289.944 -1.048 -6.63677 0
M  V30 3152 N 292.664 1.56529 -0.183458 0
M  V30 3153 C 293.611 2.18546 0.742055 0
M  V30 3154 C 294.581 1.12912 1.2182 0
M  V30 3155 O 295.766 1.41115 1.28418 0
M  V30 3156 C 292.906 2.83977 1.96089 0
M  V30 3157 C 292.019 4.04105 1.52719 0
M  V30 3158 C 291.154 4.57427 2.70063 0
M  V30 3159 C 290.193 5.69938 2.23243 0
M  V30 3160 N 289.33 6.17717 3.33722 0
M  V30 3161 H 294.17 2.97284 0.206432 0
M  V30 3162 H 291.707 1.46823 0.0901571 0
M  V30 3163 H 293.665 3.20077 2.67594 0
M  V30 3164 H 292.295 2.07822 2.47002 0
M  V30 3165 H 291.347 3.73745 0.708436 0
M  V30 3166 H 292.659 4.85513 1.1436 0
M  V30 3167 H 291.813 4.95772 3.49708 0
M  V30 3168 H 290.552 3.75101 3.11689 0
M  V30 3169 H 289.557 5.31133 1.42048 0
M  V30 3170 H 290.782 6.54073 1.82661 0
M  V30 3171 H 288.728 5.38317 3.74902 0
M  V30 3172 H 288.645 6.94146 2.99495 0
M  V30 3173 H 289.913 6.60713 4.13616 0
M  V30 3174 N 294.142 -0.090211 1.57342 0
M  V30 3175 C 295.089 -1.10909 2.02405 0
M  V30 3176 C 296.059 -1.39523 0.901252 0
M  V30 3177 O 297.244 -1.50903 1.1676 0
M  V30 3178 C 294.384 -2.42277 2.45755 0
M  V30 3179 C 293.497 -2.20352 3.71576 0
M  V30 3180 C 292.632 -3.45154 4.03785 0
M  V30 3181 C 291.671 -3.18512 5.22701 0
M  V30 3182 N 290.808 -4.35593 5.50639 0
M  V30 3183 H 295.648 -0.71782 2.89225 0
M  V30 3184 H 293.185 -0.342901 1.43048 0
M  V30 3185 H 295.143 -3.18951 2.68935 0
M  V30 3186 H 293.773 -2.79242 1.61938 0
M  V30 3187 H 292.825 -1.34458 3.55844 0
M  V30 3188 H 294.137 -1.96661 4.58395 0
M  V30 3189 H 293.291 -4.30233 4.27767 0
M  V30 3190 H 292.03 -3.71904 3.15498 0
M  V30 3191 H 291.035 -2.31827 4.98534 0
M  V30 3192 H 292.26 -2.93103 6.12591 0
M  V30 3193 H 290.206 -4.6241 4.6531 0
M  V30 3194 H 290.123 -4.1511 6.31838 0
M  V30 3195 H 291.391 -5.21723 5.7916 0
M  V30 3196 N 295.62 -1.53406 -0.361157 0
M  V30 3197 C 296.86 -1.71507 -1.11197 0
M  V30 3198 C 297.224 -0.459337 -1.86425 0
M  V30 3199 O 298.425 -0.517102 -2.63779 0
M  V30 3200 C 296.696 -2.93307 -2.0422 0
M  V30 3201 S 298.255 -3.32135 -2.86761 0
M  V30 3202 H 295.073 -0.603448 -0.375995 0
M  V30 3203 H 297.675 -1.91516 -0.392642 0
M  V30 3204 H 296.379 -3.82891 -1.47724 0
M  V30 3205 H 295.91 -2.75712 -2.80618 0
M  V30 3206 H 297.925 -2.84493 -4.06544 0
M  V30 3207 N 297.098 0.621204 -1.44841 0
M  V30 3208 C 298.347 1.37658 -1.47422 0
M  V30 3209 C 298.66 1.95264 -0.114629 0
M  V30 3210 O 299.866 2.71494 -0.0180199 0
M  V30 3211 C 298.322 2.49285 -2.59586 0
M  V30 3212 C 297.93 1.98149 -4.01797 0
M  V30 3213 C 299.674 3.26409 -2.71399 0
M  V30 3214 C 297.581 3.07178 -5.05367 0
M  V30 3215 H 296.511 0.517344 -0.548517 0
M  V30 3216 H 299.162 0.667257 -1.70938 0
M  V30 3217 H 297.544 3.22839 -2.29328 0
M  V30 3218 H 298.718 1.31395 -4.41669 0
M  V30 3219 H 297.033 1.33812 -3.94314 0
M  V30 3220 H 299.63 4.07706 -3.45948 0
M  V30 3221 H 299.973 3.76535 -1.77559 0
M  V30 3222 H 300.506 2.5995 -3.01116 0
M  V30 3223 H 297.245 2.61985 -6.00869 0
M  V30 3224 H 296.765 3.72542 -4.70077 0
M  V30 3225 H 298.444 3.71789 -5.29511 0
M  V30 3226 N 298.576 1.31904 0.862503 0
M  V30 3227 C 299.853 1.12644 1.59908 0
M  V30 3228 C 300.233 -0.316104 2.0872 0
M  V30 3229 O 299.581 -1.31145 1.87118 0
M  V30 3230 C 299.791 2.1472 2.7513 0
M  V30 3231 C 301.139 2.47637 3.44907 0
M  V30 3232 O 302.163 2.13205 2.85346 0
M  V30 3233 O 301.022 3.06632 4.52371 0
M  V30 3234 H 298.116 0.43416 0.703871 0
M  V30 3235 H 300.662 1.43408 0.907314 0
M  V30 3236 H 299.434 3.1172 2.3653 0
M  V30 3237 H 299.057 1.84905 3.51989 0
M  V30 3238 N 300.054 -1.07777 1.14986 0
M  V30 3239 C 301.001 -2.14867 0.842672 0
M  V30 3240 C 301.971 -1.6486 -0.202552 0
M  V30 3241 O 303.156 -1.90668 -0.0710568 0
M  V30 3242 C 300.296 -3.43486 0.333363 0
M  V30 3243 C 299.409 -4.07306 1.43965 0
M  V30 3244 C 298.544 -5.23744 0.886914 0
M  V30 3245 C 297.583 -5.79517 1.97043 0
M  V30 3246 N 296.72 -6.87291 1.4344 0
M  V30 3247 H 301.56 -2.40485 1.75986 0
M  V30 3248 H 299.097 -1.1801 0.878179 0
M  V30 3249 H 301.055 -4.17195 0.0198163 0
M  V30 3250 H 299.685 -3.18133 -0.546916 0
M  V30 3251 H 298.737 -3.31293 1.86946 0
M  V30 3252 H 300.049 -4.44771 2.25788 0
M  V30 3253 H 299.203 -6.04419 0.525651 0
M  V30 3254 H 297.942 -4.87685 0.0377957 0
M  V30 3255 H 296.947 -4.97491 2.34057 0
M  V30 3256 H 298.172 -6.17632 2.82325 0
M  V30 3257 H 296.118 -6.5318 0.607567 0
M  V30 3258 H 296.035 -7.23617 2.18895 0
M  V30 3259 H 297.303 -7.71682 1.10124 0
M  V30 3260 N 301.532 -0.945985 -1.26051 0
M  V30 3261 C 302.778 -0.597002 -1.93814 0
M  V30 3262 C 303.111 0.862484 -1.73997 0
M  V30 3263 O 302.386 1.61769 -1.07986 0
M  V30 3264 C 302.669 -0.945937 -3.47454 0
M  V30 3265 C 302.522 -2.46052 -3.76535 0
M  V30 3266 C 303.841 -0.464785 -4.37639 0
M  V30 3267 H 300.96 -0.218366 -0.703907 0
M  V30 3268 H 303.602 -1.18107 -1.48831 0
M  V30 3269 H 301.752 -0.448902 -3.85898 0
M  V30 3270 H 303.424 -3.03065 -3.47778 0
M  V30 3271 H 301.667 -2.90194 -3.22444 0
M  V30 3272 H 302.338 -2.65517 -4.83947 0
M  V30 3273 H 304.814 -0.891016 -4.06448 0
M  V30 3274 H 303.69 -0.737712 -5.4392 0
M  V30 3275 H 303.951 0.635274 -4.37512 0
M  V30 3276 N 303.011 1.40521 -0.713556 0
M  V30 3277 C 304.26 2.00155 -0.249192 0
M  V30 3278 C 304.573 1.57224 1.16362 0
M  V30 3279 O 305.779 2.09542 1.72639 0
M  V30 3280 C 304.235 3.5773 -0.3946 0
M  V30 3281 C 303.843 4.09635 -1.81392 0
M  V30 3282 C 305.587 4.24499 0.00907364 0
M  V30 3283 C 303.494 5.59707 -1.91003 0
M  V30 3284 H 302.424 0.74868 -0.0894114 0
M  V30 3285 H 305.075 1.60784 -0.884352 0
M  V30 3286 H 303.457 3.94792 0.30911 0
M  V30 3287 H 304.631 3.83955 -2.54785 0
M  V30 3288 H 302.946 3.55456 -2.16888 0
M  V30 3289 H 305.543 5.34683 -0.0420404 0
M  V30 3290 H 305.886 4.02824 1.05065 0
M  V30 3291 H 306.419 3.92536 -0.645007 0
M  V30 3292 H 303.158 5.86234 -2.93275 0
M  V30 3293 H 302.678 5.87258 -1.22019 0
M  V30 3294 H 304.357 6.24776 -1.6812 0
M  V30 3295 N 304.489 0.459591 1.5075 0
M  V30 3296 C 305.452 -0.329093 2.26825 0
M  V30 3297 C 306.452 -0.930481 1.31144 0
M  V30 3298 O 307.642 -0.801453 1.54669 0
M  V30 3299 C 304.774 -1.46768 3.07688 0
M  V30 3300 H 305.967 0.337924 2.9799 0
M  V30 3301 H 303.52 0.213336 1.54837 0
M  V30 3302 H 304.255 -2.17009 2.40993 0
M  V30 3303 H 304.04 -1.04238 3.77991 0
M  V30 3304 H 305.53 -2.02433 3.65254 0
M  V30 3305 N 305.967 -1.56429 0.191757 0
M  V30 3306 C 306.914 -2.18936 -0.730454 0
M  V30 3307 C 307.884 -1.13557 -1.21219 0
M  V30 3308 O 309.069 -1.41794 -1.27668 0
M  V30 3309 C 306.209 -2.85013 -1.9458 0
M  V30 3310 C 305.322 -4.04909 -1.50574 0
M  V30 3311 C 304.457 -4.58853 -2.67634 0
M  V30 3312 C 303.496 -5.71114 -2.20217 0
M  V30 3313 N 302.633 -6.19478 -3.30442 0
M  V30 3314 H 307.473 -2.97389 -0.190664 0
M  V30 3315 H 305.01 -1.46869 -0.0823694 0
M  V30 3316 H 306.968 -3.21492 -2.65893 0
M  V30 3317 H 305.598 -2.09129 -2.45896 0
M  V30 3318 H 304.65 -3.74115 -0.688605 0
M  V30 3319 H 305.962 -4.86113 -1.11784 0
M  V30 3320 H 305.116 -4.97619 -3.47074 0
M  V30 3321 H 303.855 -3.76749 -3.09696 0
M  V30 3322 H 302.86 -5.31879 -1.3923 0
M  V30 3323 H 304.085 -6.55033 -1.79189 0
M  V30 3324 H 302.031 -5.40297 -3.72041 0
M  V30 3325 H 301.948 -6.95725 -2.9581 0
M  V30 3326 H 303.216 -6.62898 -4.10106 0
M  V30 3327 N 307.445 0.0818655 -1.57387 0
M  V30 3328 C 308.685 0.788375 -1.88584 0
M  V30 3329 C 309.049 1.75248 -0.784351 0
M  V30 3330 O 310.25 2.50334 -0.979105 0
M  V30 3331 C 308.521 1.48654 -3.25018 0
M  V30 3332 S 310.08 2.22951 -3.7794 0
M  V30 3333 H 306.898 0.262383 -0.660815 0
M  V30 3334 H 309.5 0.0448995 -1.95448 0
M  V30 3335 H 308.204 0.770919 -4.03094 0
M  V30 3336 H 307.735 2.26965 -3.21326 0
M  V30 3337 H 309.75 3.49309 -3.52417 0
M  V30 3338 N 308.923 1.53595 0.353017 0
M  V30 3339 C 310.151 1.74311 1.1146 0
M  V30 3340 C 310.566 0.477854 1.82653 0
M  V30 3341 O 309.923 -0.549977 1.74016 0
M  V30 3342 C 309.974 2.91694 2.13534 0
M  V30 3343 O 309.695 4.13325 1.45238 0
M  V30 3344 C 311.196 3.24384 3.02142 0
M  V30 3345 H 308.416 0.582669 0.332773 0
M  V30 3346 H 310.96 2.00386 0.408107 0
M  V30 3347 H 309.115 2.67977 2.79763 0
M  V30 3348 H 309.529 4.79148 2.13349 0
M  V30 3349 H 311.003 4.09893 3.69718 0
M  V30 3350 H 311.48 2.40282 3.67643 0
M  V30 3351 H 312.086 3.50073 2.41514 0
M  V30 3352 N 310.401 -0.613514 1.45168 0
M  V30 3353 C 311.649 -1.36997 1.48581 0
M  V30 3354 C 311.97 -1.94589 0.126545 0
M  V30 3355 O 311.24 -1.76816 -0.843372 0
M  V30 3356 H 309.82 -0.508558 0.547154 0
M  V30 3357 H 312.482 -0.720853 1.81079 0
M  V30 3358 H 311.578 -2.1924 2.22127 0
M  V30 3359 N 311.879 -1.3236 -0.855495 0
M  V30 3360 C 313.104 -1.2601 -1.64731 0
M  V30 3361 C 313.529 0.169068 -1.87339 0
M  V30 3362 O 312.887 1.12016 -1.42556 0
M  V30 3363 C 312.935 -2.02417 -2.98429 0
M  V30 3364 O 312.039 -1.3714 -3.8893 0
M  V30 3365 H 311.38 -0.434325 -0.502253 0
M  V30 3366 H 313.91 -1.74661 -1.06558 0
M  V30 3367 H 313.92 -2.12559 -3.48257 0
M  V30 3368 H 312.595 -3.06343 -2.81295 0
M  V30 3369 H 311.172 -1.3554 -3.47395 0
M  V30 3370 N 313.357 1.07166 -1.15556 0
M  V30 3371 C 314.32 2.12589 -0.856644 0
M  V30 3372 C 315.32 1.6015 0.14444 0
M  V30 3373 O 316.51 1.7399 -0.0854163 0
M  V30 3374 C 313.642 3.39753 -0.279405 0
M  V30 3375 H 314.835 2.40539 -1.79112 0
M  V30 3376 H 312.388 1.23086 -0.963298 0
M  V30 3377 H 313.123 3.17447 0.663174 0
M  V30 3378 H 312.908 3.79117 -1.00063 0
M  V30 3379 H 314.398 4.17507 -0.0879113 0
M  V30 3380 N 314.835 0.952656 1.25548 0
M  V30 3381 C 316.084 0.602053 1.92505 0
M  V30 3382 C 316.397 -0.864663 1.75451 0
M  V30 3383 O 317.603 -1.32514 2.36965 0
M  V30 3384 C 316.059 1.02607 3.44963 0
M  V30 3385 C 315.667 2.51519 3.70732 0
M  V30 3386 C 317.411 0.747905 4.1786 0
M  V30 3387 C 315.318 2.87732 5.16686 0
M  V30 3388 H 314.248 0.22146 0.720744 0
M  V30 3389 H 316.899 1.15684 1.42441 0
M  V30 3390 H 315.281 0.399712 3.93978 0
M  V30 3391 H 316.455 3.19157 3.32378 0
M  V30 3392 H 314.77 2.76786 3.11092 0
M  V30 3393 H 317.367 0.994647 5.25367 0
M  V30 3394 H 317.71 -0.315629 4.15102 0
M  V30 3395 H 318.243 1.33452 3.74747 0
M  V30 3396 H 314.982 3.93095 5.24554 0
M  V30 3397 H 314.502 2.24765 5.56094 0
M  V30 3398 H 316.181 2.76817 5.84792 0
M  V30 3399 N 316.313 -1.40141 0.720998 0
M  V30 3400 C 317.261 -2.3252 0.0608547 0
M  V30 3401 C 318.255 -1.52326 -0.741152 0
M  V30 3402 O 319.461 -1.68089 -0.643911 0
M  V30 3403 H 315.836 -0.751999 0.000876664 0
M  V30 3404 H 317.807 -2.8584 0.856614 0
M  V30 3405 C 316.556 -3.37331 -0.842809 0
M  V30 3406 H 315.879 -3.99108 -0.235084 0
M  V30 3407 H 317.319 -4.04452 -1.27257 0
M  V30 3408 C 315.778 -2.73246 -1.97074 0
M  V30 3409 O 316.308 -2.59998 -3.06209 0
M  V30 3410 N 314.514 -2.31547 -1.75597 0
M  V30 3411 H 314.061 -2.42522 -0.868368 0
M  V30 3412 H 314.019 -1.89007 -2.51244 0
M  V30 3413 N 317.792 -0.46758 -1.50504 0
M  V30 3414 C 319.017 0.0886943 -2.0721 0
M  V30 3415 C 319.442 1.33057 -1.32956 0
M  V30 3416 O 318.8 1.77354 -0.376197 0
M  V30 3417 C 318.848 0.359202 -3.58806 0
M  V30 3418 O 317.952 1.44034 -3.8643 0
M  V30 3419 H 317.293 -0.0114349 -0.663902 0
M  V30 3420 H 319.823 -0.657613 -1.93744 0
M  V30 3421 H 319.833 0.600742 -4.03553 0
M  V30 3422 H 318.508 -0.548311 -4.1227 0
M  V30 3423 H 317.085 1.18638 -3.53524 0
M  V30 3424 N 319.27 1.56325 -0.20005 0
M  V30 3425 C 320.686 1.58839 0.155716 0
M  V30 3426 C 320.886 1.21636 1.60645 0
M  V30 3427 O 319.942 0.941437 2.34293 0
M  V30 3428 C 321.255 3.0032 -0.151124 0
M  V30 3429 C 322.803 3.12866 -0.0916284 0
M  V30 3430 C 323.278 4.56488 -0.371845 0
M  V30 3431 N 324.769 4.62089 -0.320641 0
M  V30 3432 C 325.504 5.71116 -0.511243 0
M  V30 3433 N 325 6.88592 -0.762461 0
M  V30 3434 N 326.793 5.60335 -0.445157 0
M  V30 3435 H 318.944 1.78788 -1.14668 0
M  V30 3436 H 321.207 0.829996 -0.458051 0
M  V30 3437 H 320.913 3.32117 -1.15721 0
M  V30 3438 H 320.787 3.73257 0.543986 0
M  V30 3439 H 323.174 2.80878 0.905065 0
M  V30 3440 H 323.255 2.42304 -0.81989 0
M  V30 3441 H 322.899 4.89189 -1.36588 0
M  V30 3442 H 322.829 5.25246 0.377362 0
M  V30 3443 H 325.32 3.77665 -0.13329 0
M  V30 3444 H 325.633 7.67581 -0.896576 0
M  V30 3445 H 323.978 6.90387 -0.799412 0
M  V30 3446 H 327.169 4.67436 -0.249278 0
M  V30 3447 H 327.342 6.45243 -0.597116 0
M  V30 3448 N 320.748 -0.0735177 1.57428 0
M  V30 3449 C 321.658 -1.10547 2.06922 0
M  V30 3450 C 322.674 -1.42506 0.998402 0
M  V30 3451 O 323.85 -1.52717 1.31299 0
M  V30 3452 C 320.915 -2.40019 2.50184 0
M  V30 3453 C 319.976 -2.15046 3.71556 0
M  V30 3454 C 319.209 -3.38345 4.12745 0
M  V30 3455 O 319.432 -4.47399 3.53822 0
M  V30 3456 O 318.366 -3.2666 5.05546 0
M  V30 3457 H 322.192 -0.715013 2.95163 0
M  V30 3458 H 319.777 -0.287531 1.46607 0
M  V30 3459 H 321.659 -3.16218 2.78539 0
M  V30 3460 H 320.334 -2.78447 1.65072 0
M  V30 3461 H 319.241 -1.36558 3.48285 0
M  V30 3462 H 320.574 -1.81499 4.57514 0
M  V30 3463 N 322.226 -1.5378 -0.344866 0
M  V30 3464 C 323.454 -1.74899 -1.10534 0
M  V30 3465 C 323.869 -0.487534 -1.82397 0
M  V30 3466 O 323.226 0.540741 -1.74305 0
M  V30 3467 C 323.277 -2.92822 -2.11984 0
M  V30 3468 O 322.998 -4.14089 -1.43044 0
M  V30 3469 C 324.499 -3.25982 -3.00417 0
M  V30 3470 H 321.719 -0.584426 -0.329678 0
M  V30 3471 H 324.263 -2.006 -0.397474 0
M  V30 3472 H 322.418 -2.69457 -2.78338 0
M  V30 3473 H 322.832 -4.80272 -2.10805 0
M  V30 3474 H 324.306 -4.11848 -3.67539 0
M  V30 3475 H 324.783 -2.42228 -3.66363 0
M  V30 3476 H 325.389 -3.51349 -2.39654 0
M  V30 3477 N 323.704 0.605807 -1.45491 0
M  V30 3478 C 324.637 1.73022 -1.48791 0
M  V30 3479 C 325.615 1.58917 -0.344112 0
M  V30 3480 O 326.799 1.80453 -0.544876 0
M  V30 3481 C 323.926 3.10865 -1.34463 0
M  V30 3482 C 322.972 3.43554 -2.5273 0
M  V30 3483 S 323.805 3.38196 -4.15191 0
M  V30 3484 C 324.961 4.78616 -4.03333 0
M  V30 3485 H 325.194 1.69961 -2.43928 0
M  V30 3486 H 322.727 0.782611 -1.33096 0
M  V30 3487 H 324.685 3.90398 -1.26884 0
M  V30 3488 H 323.346 3.1144 -0.40794 0
M  V30 3489 H 322.539 4.43924 -2.38637 0
M  V30 3490 H 322.141 2.71541 -2.5718 0
M  V30 3491 H 324.433 5.68463 -3.68587 0
M  V30 3492 H 325.376 4.97767 -5.03621 0
M  V30 3493 H 325.784 4.54381 -3.34959 0
M  V30 3494 N 325.182 1.32811 0.848464 0
M  V30 3495 C 326.429 1.23724 1.60308 0
M  V30 3496 C 326.757 -0.1994 1.93475 0
M  V30 3497 O 326.012 -1.15406 1.5805 0
M  V30 3498 C 326.311 2.04831 2.92881 0
M  V30 3499 C 325.977 3.54125 2.79117 0
M  V30 3500 C 324.639 3.94829 2.7507 0
M  V30 3501 C 326.991 4.49036 2.64606 0
M  V30 3502 C 324.319 5.28675 2.544 0
M  V30 3503 C 326.671 5.83033 2.4547 0
M  V30 3504 C 325.335 6.22931 2.39819 0
M  V30 3505 H 324.605 0.452737 0.586609 0
M  V30 3506 H 327.252 1.64301 0.983743 0
M  V30 3507 H 325.557 1.57001 3.58968 0
M  V30 3508 H 327.254 1.95164 3.50303 0
M  V30 3509 H 323.844 3.21801 2.83094 0
M  V30 3510 H 328.028 4.18505 2.66772 0
M  V30 3511 H 323.284 5.58637 2.48465 0
M  V30 3512 H 327.458 6.56186 2.33222 0
M  V30 3513 H 325.085 7.26584 2.23562 0
M  V30 3514 N 326.66 -1.06551 1.16123 0
M  V30 3515 C 327.61 -2.12209 0.833736 0
M  V30 3516 C 328.594 -1.59825 -0.185656 0
M  V30 3517 O 329.786 -1.76994 0.0147906 0
M  V30 3518 C 326.915 -3.41674 0.333697 0
M  V30 3519 C 326.001 -4.00892 1.38372 0
M  V30 3520 N 326.392 -4.34256 2.59337 0
M  V30 3521 C 324.69 -4.28463 1.23836 0
M  V30 3522 C 325.391 -4.81291 3.26701 0
M  V30 3523 N 324.367 -4.80565 2.54083 0
M  V30 3524 H 328.169 -2.35849 1.75364 0
M  V30 3525 H 325.683 -1.24068 1.04789 0
M  V30 3526 H 327.68 -4.16822 0.0806918 0
M  V30 3527 H 326.34 -3.19475 -0.58017 0
M  V30 3528 H 327.351 -4.24687 2.96415 0
M  V30 3529 H 324.028 -4.15721 0.38504 0
M  V30 3530 H 325.418 -5.16332 4.29943 0
M  V30 3531 N 328.138 -0.959301 -1.25041 0
M  V30 3532 C 329.085 -0.482057 -2.2571 0
M  V30 3533 C 330.055 0.467939 -1.59372 0
M  V30 3534 O 331.24 0.380159 -1.86974 0
M  V30 3535 C 328.38 0.229623 -3.44335 0
M  V30 3536 C 327.493 -0.758156 -4.25295 0
M  V30 3537 C 326.628 -0.0234403 -5.31195 0
M  V30 3538 C 325.667 -1.00184 -6.03846 0
M  V30 3539 N 324.804 -0.29769 -7.01469 0
M  V30 3540 H 329.644 -1.34538 -2.65901 0
M  V30 3541 H 327.181 -0.674592 -1.3072 0
M  V30 3542 H 329.139 0.658856 -4.11965 0
M  V30 3543 H 327.769 1.05696 -3.05005 0
M  V30 3544 H 326.821 -1.30586 -3.57284 0
M  V30 3545 H 328.133 -1.50458 -4.75567 0
M  V30 3546 H 327.287 0.464201 -6.04922 0
M  V30 3547 H 326.026 0.755741 -4.81809 0
M  V30 3548 H 325.031 -1.50044 -5.2893 0
M  V30 3549 H 326.256 -1.78133 -6.55321 0
M  V30 3550 H 324.202 0.462668 -6.54366 0
M  V30 3551 H 324.119 -0.983128 -7.4958 0
M  V30 3552 H 325.387 0.16826 -7.79318 0
M  V30 3553 N 329.616 1.39756 -0.72842 0
M  V30 3554 C 330.526 2.34444 -0.0855374 0
M  V30 3555 C 331.542 1.57976 0.729356 0
M  V30 3556 O 332.718 1.90301 0.659346 0
M  V30 3557 C 329.783 3.36965 0.815798 0
M  V30 3558 C 328.844 4.29299 -0.0105996 0
M  V30 3559 C 328.077 5.26923 0.84781 0
M  V30 3560 O 328.3 5.30859 2.08673 0
M  V30 3561 O 327.234 6.01249 0.279969 0
M  V30 3562 H 331.06 2.91065 -0.866892 0
M  V30 3563 H 328.645 1.4117 -0.48902 0
M  V30 3564 H 330.527 3.99804 1.33171 0
M  V30 3565 H 329.202 2.82739 1.57608 0
M  V30 3566 H 328.109 3.69703 -0.571877 0
M  V30 3567 H 329.442 4.86712 -0.73295 0
M  V30 3568 N 331.094 0.475555 1.50254 0
M  V30 3569 C 332.51 0.12997 1.5907 0
M  V30 3570 C 332.71 -1.36385 1.48328 0
M  V30 3571 O 331.766 -2.13754 1.34407 0
M  V30 3572 C 333.079 0.684139 2.92814 0
M  V30 3573 C 334.627 0.647965 3.0622 0
M  V30 3574 C 335.102 1.17975 4.42545 0
M  V30 3575 N 336.593 1.13936 4.48969 0
M  V30 3576 C 337.328 1.52129 5.52851 0
M  V30 3577 N 336.824 1.97793 6.63965 0
M  V30 3578 N 338.617 1.43704 5.4342 0
M  V30 3579 H 330.768 1.44706 1.55479 0
M  V30 3580 H 333.031 0.598691 0.735033 0
M  V30 3581 H 332.737 1.73079 3.06164 0
M  V30 3582 H 332.611 0.130204 3.76975 0
M  V30 3583 H 334.998 -0.38979 2.92514 0
M  V30 3584 H 335.079 1.23876 2.23805 0
M  V30 3585 H 334.723 2.21616 4.57 0
M  V30 3586 H 334.653 0.565138 5.23559 0
M  V30 3587 H 337.144 0.804488 3.69238 0
M  V30 3588 H 337.457 2.25072 7.39299 0
M  V30 3589 H 335.802 2.01749 6.65073 0
M  V30 3590 H 338.993 1.07867 4.55502 0
M  V30 3591 H 339.166 1.73794 6.24259 0
M  V30 3592 N 332.573 -1.56217 0.208337 0
M  V30 3593 C 333.82 -1.97949 -0.42692 0
M  V30 3594 C 334.148 -1.09562 -1.60706 0
M  V30 3595 O 333.403 -0.137616 -1.95216 0
M  V30 3596 C 333.702 -3.45441 -0.916797 0
M  V30 3597 C 333.368 -4.50646 0.151391 0
M  V30 3598 C 332.03 -4.79139 0.444867 0
M  V30 3599 C 334.382 -5.13811 0.874492 0
M  V30 3600 C 331.71 -5.68084 1.46619 0
M  V30 3601 C 334.062 -6.03861 1.88506 0
M  V30 3602 C 332.726 -6.30704 2.18559 0
M  V30 3603 H 331.996 -0.724345 -0.156221 0
M  V30 3604 H 334.643 -1.89006 0.308084 0
M  V30 3605 H 332.948 -3.51521 -1.73032 0
M  V30 3606 H 334.645 -3.75094 -1.41794 0
M  V30 3607 H 331.235 -4.28511 -0.0875068 0
M  V30 3608 H 335.419 -4.91879 0.660996 0
M  V30 3609 H 330.675 -5.87151 1.7048 0
M  V30 3610 H 334.849 -6.51861 2.45051 0
M  V30 3611 H 332.476 -6.99424 2.97843 0
M  V30 3612 N 334.051 0.0651679 -1.57465 0
M  V30 3613 C 334.998 1.07675 -2.04144 0
M  V30 3614 C 335.968 1.38071 -0.923335 0
M  V30 3615 O 337.153 1.49026 -1.19146 0
M  V30 3616 C 334.293 2.38337 -2.49579 0
M  V30 3617 C 333.406 2.14413 -3.75035 0
M  V30 3618 C 332.541 3.38686 -4.09225 0
M  V30 3619 C 331.58 3.10156 -5.27702 0
M  V30 3620 N 330.717 4.26778 -5.57499 0
M  V30 3621 H 335.557 0.671716 -2.90331 0
M  V30 3622 H 333.094 0.3201 -1.43575 0
M  V30 3623 H 335.052 3.14632 -2.73975 0
M  V30 3624 H 333.682 2.7663 -1.6636 0
M  V30 3625 H 332.734 1.2878 -3.57939 0
M  V30 3626 H 334.046 1.89344 -4.61466 0
M  V30 3627 H 333.2 4.23373 -4.34558 0
M  V30 3628 H 331.939 3.66837 -3.21374 0
M  V30 3629 H 330.944 2.23866 -5.02159 0
M  V30 3630 H 332.169 2.8332 -6.17176 0
M  V30 3631 H 330.115 4.54948 -4.72608 0
M  V30 3632 H 330.032 4.05005 -6.38362 0
M  V30 3633 H 331.3 5.12443 -5.87386 0
M  V30 3634 N 335.529 1.53961 0.336706 0
M  V30 3635 C 336.778 1.70751 1.07363 0
M  V30 3636 C 337.091 0.481061 1.89592 0
M  V30 3637 O 338.297 0.530046 2.66276 0
M  V30 3638 C 336.753 3.01965 1.95818 0
M  V30 3639 C 336.361 4.31971 1.18764 0
M  V30 3640 C 338.105 3.28121 2.69327 0
M  V30 3641 C 336.012 5.54255 2.06289 0
M  V30 3642 H 334.942 0.636292 0.404535 0
M  V30 3643 H 337.593 1.80459 0.332681 0
M  V30 3644 H 335.975 2.86132 2.7376 0
M  V30 3645 H 337.149 4.5853 0.456849 0
M  V30 3646 H 335.464 4.12481 0.569946 0
M  V30 3647 H 338.061 4.16673 3.35094 0
M  V30 3648 H 338.404 2.45426 3.36261 0
M  V30 3649 H 338.937 3.44762 1.98454 0
M  V30 3650 H 335.676 6.39513 1.43885 0
M  V30 3651 H 335.196 5.31935 2.77138 0
M  V30 3652 H 336.875 5.90159 2.65182 0
M  V30 3653 N 337.007 -0.598083 1.45811 0
M  V30 3654 C 338.284 -1.35777 1.40797 0
M  V30 3655 C 338.664 -2.10935 0.083462 0
M  V30 3656 O 338.012 -2.08505 -0.934763 0
M  V30 3657 C 338.222 -2.29666 2.62783 0
M  V30 3658 C 339.57 -2.91977 3.08277 0
M  V30 3659 O 340.594 -2.39984 2.63223 0
M  V30 3660 O 339.453 -3.86376 3.86491 0
M  V30 3661 H 336.547 -0.609291 0.55919 0
M  V30 3662 H 339.093 -0.620379 1.57954 0
M  V30 3663 H 337.865 -1.73454 3.50756 0
M  V30 3664 H 337.488 -3.1077 2.48008 0
M  V30 3665 N 338.485 -1.33259 -0.841409 0
M  V30 3666 C 339.418 -1.1764 -1.95541 0
M  V30 3667 C 340.396 -0.072501 -1.62438 0
M  V30 3668 O 341.58 -0.23427 -1.87039 0
M  V30 3669 C 338.707 -0.803794 -3.29024 0
M  V30 3670 C 337.753 -1.91482 -3.81099 0
M  V30 3671 S 338.586 -3.52538 -4.03085 0
M  V30 3672 C 339.742 -3.17279 -5.39523 0
M  V30 3673 H 339.975 -2.11941 -2.08491 0
M  V30 3674 H 337.508 -1.18072 -0.9949 0
M  V30 3675 H 339.466 -0.595592 -4.06156 0
M  V30 3676 H 338.127 0.120574 -3.13868 0
M  V30 3677 H 337.32 -1.60742 -4.7768 0
M  V30 3678 H 336.922 -2.07956 -3.10854 0
M  V30 3679 H 339.214 -2.67946 -6.22263 0
M  V30 3680 H 340.157 -4.1293 -5.75234 0
M  V30 3681 H 340.565 -2.53943 -5.04156 0
M  V30 3682 N 339.963 1.05934 -1.16686 0
M  V30 3683 C 341.374 1.60263 -0.957745 0
M  V30 3684 C 341.725 1.89789 0.49745 0
M  V30 3685 O 340.85 1.67401 1.37135 0
M  V30 3686 C 341.445 2.91172 -1.73218 0
M  V30 3687 C 340.004 3.42188 -1.56794 0
M  V30 3688 C 339.151 2.16028 -1.73859 0
M  V30 3689 H 342.102 0.888392 -1.31504 0
M  V30 3690 H 342.123 3.60744 -1.21014 0
M  V30 3691 H 341.635 2.6965 -2.79124 0
M  V30 3692 H 339.736 3.68762 -0.533437 0
M  V30 3693 H 339.849 4.17273 -2.35414 0
M  V30 3694 H 338.213 2.26426 -1.16633 0
M  V30 3695 H 338.996 1.96985 -2.81161 0
M  V30 3696 N 341.441 0.965919 1.2453 0
M  V30 3697 C 342.391 0.465731 2.23193 0
M  V30 3698 C 343.375 -0.451277 1.54442 0
M  V30 3699 O 344.567 -0.282489 1.74731 0
M  V30 3700 C 341.696 -0.244511 3.42428 0
M  V30 3701 C 340.782 0.691222 4.18429 0
M  V30 3702 N 341.173 1.82771 4.71623 0
M  V30 3703 C 339.471 0.501649 4.4317 0
M  V30 3704 C 340.172 2.41285 5.29298 0
M  V30 3705 N 339.148 1.69819 5.16394 0
M  V30 3706 H 342.95 1.33291 2.61937 0
M  V30 3707 H 340.464 0.824789 1.39896 0
M  V30 3708 H 342.461 -0.620056 4.12263 0
M  V30 3709 H 341.121 -1.10815 3.05205 0
M  V30 3710 H 342.132 2.20929 4.68413 0
M  V30 3711 H 338.809 -0.318177 4.16286 0
M  V30 3712 H 340.199 3.37181 5.8117 0
M  V30 3713 N 342.919 -1.39368 0.735821 0
M  V30 3714 C 344.335 -1.54204 0.411492 0
M  V30 3715 C 344.535 -1.70268 -1.07755 0
M  V30 3716 O 343.591 -1.70364 -1.86366 0
M  V30 3717 C 344.904 -2.75925 1.19523 0
M  V30 3718 C 346.452 -2.89761 1.18354 0
M  V30 3719 C 346.927 -4.14421 1.94986 0
M  V30 3720 N 348.418 -4.21462 1.92156 0
M  V30 3721 C 349.153 -5.16871 2.48258 0
M  V30 3722 N 348.649 -6.18063 3.13001 0
M  V30 3723 N 350.442 -5.09093 2.38287 0
M  V30 3724 H 342.593 -1.27189 1.70108 0
M  V30 3725 H 344.856 -0.616517 0.720147 0
M  V30 3726 H 344.562 -2.70401 2.24892 0
M  V30 3727 H 344.436 -3.68614 0.800222 0
M  V30 3728 H 346.823 -2.94777 0.137975 0
M  V30 3729 H 346.904 -1.98133 1.61793 0
M  V30 3730 H 346.548 -4.10166 2.99543 0
M  V30 3731 H 346.478 -5.05095 1.48953 0
M  V30 3732 H 348.969 -3.48979 1.44991 0
M  V30 3733 H 349.282 -6.87326 3.53275 0
M  V30 3734 H 347.627 -6.18448 3.17091 0
M  V30 3735 H 350.818 -4.28973 1.8735 0
M  V30 3736 H 350.991 -5.83272 2.82308 0
M  V30 3737 N 344.397 -0.483516 -1.5 0
M  V30 3738 C 345.644 0.0671597 -2.02389 0
M  V30 3739 C 345.972 1.38597 -1.36459 0
M  V30 3740 O 345.227 1.89634 -0.483458 0
M  V30 3741 C 345.526 0.286226 -3.56252 0
M  V30 3742 C 345.192 -0.952416 -4.40726 0
M  V30 3743 C 343.854 -1.29199 -4.63531 0
M  V30 3744 C 346.206 -1.77655 -4.89988 0
M  V30 3745 C 343.534 -2.45553 -5.32842 0
M  V30 3746 C 345.886 -2.93147 -5.60578 0
M  V30 3747 C 344.55 -3.27505 -5.81633 0
M  V30 3748 H 343.82 0.0245755 -0.740592 0
M  V30 3749 H 346.467 -0.640124 -1.80485 0
M  V30 3750 H 344.772 1.07587 -3.76739 0
M  V30 3751 H 346.469 0.726473 -3.94365 0
M  V30 3752 H 343.059 -0.677881 -4.23205 0
M  V30 3753 H 347.243 -1.52737 -4.72213 0
M  V30 3754 H 342.499 -2.72431 -5.47349 0
M  V30 3755 H 346.673 -3.57344 -5.97727 0
M  V30 3756 H 344.3 -4.1777 -6.35116 0
M  V30 3757 N 345.875 1.56104 -0.216619 0
M  V30 3758 C 346.822 2.2007 0.695531 0
M  V30 3759 C 347.792 1.15471 1.19397 0
M  V30 3760 O 348.977 1.43807 1.25396 0
M  V30 3761 C 346.117 2.88073 1.90021 0
M  V30 3762 C 345.23 4.07253 1.44113 0
M  V30 3763 C 344.365 4.63052 2.603 0
M  V30 3764 C 343.404 5.74545 2.11103 0
M  V30 3765 N 342.541 6.24656 3.20545 0
M  V30 3766 H 347.381 2.97655 0.143327 0
M  V30 3767 H 344.918 1.46982 0.0589934 0
M  V30 3768 H 346.876 3.25681 2.60745 0
M  V30 3769 H 345.506 2.13015 2.42538 0
M  V30 3770 H 344.558 3.75164 0.628999 0
M  V30 3771 H 345.87 4.8783 1.04036 0
M  V30 3772 H 345.024 5.03078 3.39113 0
M  V30 3773 H 343.763 3.81628 3.03663 0
M  V30 3774 H 342.768 5.34027 1.3075 0
M  V30 3775 H 343.993 6.57801 1.68746 0
M  V30 3776 H 341.939 5.46148 3.63399 0
M  V30 3777 H 341.856 7.00343 2.84704 0
M  V30 3778 H 343.124 6.69338 3.99508 0
M  V30 3779 N 347.353 -0.0568162 1.57498 0
M  V30 3780 C 348.599 -0.75422 1.88253 0
M  V30 3781 C 348.932 -1.76461 0.810865 0
M  V30 3782 O 348.207 -1.93691 -0.177259 0
M  V30 3783 C 348.49 -1.44878 3.2967 0
M  V30 3784 C 348.343 -0.453789 4.47505 0
M  V30 3785 C 349.662 -2.38994 3.69554 0
M  V30 3786 H 346.781 -0.272724 0.684683 0
M  V30 3787 H 349.423 -0.0172113 1.89992 0
M  V30 3788 H 347.573 -2.077 3.28318 0
M  V30 3789 H 349.245 0.170371 4.60985 0
M  V30 3790 H 347.488 0.229552 4.33192 0
M  V30 3791 H 348.159 -0.977699 5.43273 0
M  V30 3792 H 350.635 -1.86239 3.72095 0
M  V30 3793 H 349.511 -2.84587 4.69363 0
M  V30 3794 H 349.772 -3.24461 3.00296 0
M  V30 3795 N 348.832 -1.54138 -0.328536 0
M  V30 3796 C 350.062 -1.75807 -1.08516 0
M  V30 3797 C 350.47 -0.50428 -1.82356 0
M  V30 3798 O 349.813 0.534451 -1.75754 0
M  V30 3799 C 349.875 -2.89423 -2.13248 0
M  V30 3800 C 349.539 -4.28504 -1.5885 0
M  V30 3801 C 350.536 -5.09536 -1.03289 0
M  V30 3802 C 348.221 -4.75034 -1.63243 0
M  V30 3803 C 350.215 -6.35206 -0.52845 0
M  V30 3804 C 347.902 -6.00672 -1.12411 0
M  V30 3805 C 348.9 -6.80592 -0.573062 0
M  V30 3806 O 348.588 -8.03867 -0.0723692 0
M  V30 3807 H 348.32 -0.590633 -0.328829 0
M  V30 3808 H 350.874 -2.01819 -0.381868 0
M  V30 3809 H 349.104 -2.5897 -2.87178 0
M  V30 3810 H 350.793 -2.98921 -2.74592 0
M  V30 3811 H 351.559 -4.74745 -0.99206 0
M  V30 3812 H 347.438 -4.12875 -2.05074 0
M  V30 3813 H 350.982 -6.97532 -0.0976774 0
M  V30 3814 H 346.879 -6.34955 -1.162 0
M  V30 3815 H 347.647 -8.18283 -0.188258 0
M  V30 3816 N 350.31 0.590341 -1.46126 0
M  V30 3817 C 351.258 1.72105 -1.5647 0
M  V30 3818 C 352.252 1.63756 -0.433612 0
M  V30 3819 O 353.458 1.69342 -0.610194 0
M  V30 3820 H 349.833 0.568889 -0.491802 0
M  V30 3821 H 351.804 1.6051 -2.51553 0
M  V30 3822 C 350.553 3.10493 -1.56491 0
M  V30 3823 H 349.876 3.17583 -2.4286 0
M  V30 3824 H 351.316 3.8939 -1.67785 0
M  V30 3825 C 349.775 3.3563 -0.292231 0
M  V30 3826 O 350.305 3.96875 0.620739 0
M  V30 3827 N 348.511 2.90026 -0.182523 0
M  V30 3828 H 348.058 2.40367 -0.926356 0
M  V30 3829 H 348.016 3.07218 0.668152 0
M  V30 3830 N 351.788 1.33704 0.83433 0
M  V30 3831 C 353.018 1.28281 1.6195 0
M  V30 3832 C 353.426 -0.147603 1.88623 0
M  V30 3833 O 352.769 -1.1016 1.47005 0
M  V30 3834 C 352.831 1.99386 2.99141 0
M  V30 3835 C 352.495 3.48681 2.95416 0
M  V30 3836 C 353.492 4.438 2.70809 0
M  V30 3837 C 351.177 3.90925 3.15409 0
M  V30 3838 C 353.171 5.79138 2.66229 0
M  V30 3839 C 350.858 5.26366 3.10454 0
M  V30 3840 C 351.856 6.20284 2.85895 0
M  V30 3841 O 351.544 7.53245 2.80852 0
M  V30 3842 H 351.276 0.44315 0.510484 0
M  V30 3843 H 353.83 1.76711 1.04702 0
M  V30 3844 H 352.06 1.45554 3.58261 0
M  V30 3845 H 353.749 1.87403 3.60049 0
M  V30 3846 H 354.515 4.12485 2.5511 0
M  V30 3847 H 350.394 3.18229 3.33543 0
M  V30 3848 H 353.938 6.52416 2.4698 0
M  V30 3849 H 349.835 5.57304 3.25703 0
M  V30 3850 H 350.603 7.62846 2.96661 0
M  V30 3851 N 353.266 -1.05314 1.17247 0
M  V30 3852 C 354.213 -2.13031 0.888058 0
M  V30 3853 C 355.183 -1.65253 -0.167537 0
M  V30 3854 O 356.368 -1.90775 -0.0305974 0
M  V30 3855 C 353.508 -3.42702 0.406147 0
M  V30 3856 C 352.621 -4.04161 1.52572 0
M  V30 3857 C 351.756 -5.21744 0.997808 0
M  V30 3858 C 350.795 -5.75207 2.09291 0
M  V30 3859 N 349.932 -6.84094 1.57986 0
M  V30 3860 H 354.772 -2.36698 1.81048 0
M  V30 3861 H 352.309 -1.16121 0.903013 0
M  V30 3862 H 354.267 -4.17059 0.108305 0
M  V30 3863 H 352.897 -3.19222 -0.479313 0
M  V30 3864 H 351.949 -3.27253 1.93931 0
M  V30 3865 H 353.261 -4.39881 2.35172 0
M  V30 3866 H 352.415 -6.03168 0.653739 0
M  V30 3867 H 351.154 -4.87495 0.141232 0
M  V30 3868 H 350.159 -4.92414 2.44557 0
M  V30 3869 H 351.384 -6.11505 2.95362 0
M  V30 3870 H 349.33 -6.51745 0.74598 0
M  V30 3871 H 349.247 -7.18811 2.34195 0
M  V30 3872 H 350.515 -7.69172 1.26468 0
M  V30 3873 N 354.744 -0.972509 -1.24016 0
M  V30 3874 C 355.969 -0.654417 -1.96805 0
M  V30 3875 C 356.394 0.770398 -1.716 0
M  V30 3876 O 355.752 1.52361 -0.982647 0
M  V30 3877 C 355.8 -0.941031 -3.48105 0
M  V30 3878 O 354.904 -0.0289472 -4.1239 0
M  V30 3879 H 354.245 -0.24692 -0.616382 0
M  V30 3880 H 356.775 -1.30396 -1.57664 0
M  V30 3881 H 356.785 -0.87452 -3.98517 0
M  V30 3882 H 355.46 -1.97939 -3.65777 0
M  V30 3883 H 354.037 -0.149192 -3.72601 0
M  V30 3884 N 356.222 1.38976 -0.743202 0
M  V30 3885 C 357.633 1.83123 -0.363732 0
M  V30 3886 C 357.984 1.6205 1.10609 0
M  V30 3887 O 357.109 1.11606 1.854 0
M  V30 3888 C 357.704 3.32439 -0.653408 0
M  V30 3889 C 356.263 3.74974 -0.327338 0
M  V30 3890 C 355.41 2.61878 -0.911875 0
M  V30 3891 H 358.361 1.27852 -0.940191 0
M  V30 3892 H 358.382 3.80432 0.0720031 0
M  V30 3893 H 357.894 3.47745 -1.72323 0
M  V30 3894 H 355.995 3.65252 0.736314 0
M  V30 3895 H 356.108 4.72106 -0.815631 0
M  V30 3896 H 354.472 2.52448 -0.337944 0
M  V30 3897 H 355.255 2.79987 -1.98651 0
M  V30 3898 N 357.7 0.491464 1.49741 0
M  V30 3899 C 358.928 -0.0535151 2.06831 0
M  V30 3900 C 359.343 -1.31683 1.35296 0
M  V30 3901 O 358.7 -1.77402 0.42836 0
M  V30 3902 C 358.751 -0.320835 3.60073 0
M  V30 3903 O 358.472 0.892394 4.28915 0
M  V30 3904 C 359.973 -0.910519 4.33848 0
M  V30 3905 H 357.193 0.0161909 0.670805 0
M  V30 3906 H 359.737 0.68609 1.92647 0
M  V30 3907 H 357.892 -1.0104 3.73991 0
M  V30 3908 H 358.306 0.649401 5.20464 0
M  V30 3909 H 359.78 -1.04721 5.41976 0
M  V30 3910 H 360.257 -1.90589 3.95692 0
M  V30 3911 H 360.863 -0.258712 4.24512 0
M  V30 3912 N 359.178 -1.55987 0.224894 0
M  V30 3913 C 360.425 -1.9839 -0.4059 0
M  V30 3914 C 360.753 -1.11261 -1.59535 0
M  V30 3915 O 360.008 -0.158314 -1.95059 0
M  V30 3916 C 360.307 -3.46394 -0.880106 0
M  V30 3917 C 359.973 -4.5046 0.19918 0
M  V30 3918 C 358.635 -4.7864 0.495661 0
M  V30 3919 C 360.987 -5.12855 0.928939 0
M  V30 3920 C 358.315 -5.66497 1.52636 0
M  V30 3921 C 360.667 -6.01828 1.949 0
M  V30 3922 C 359.331 -6.28351 2.25236 0
M  V30 3923 H 358.601 -0.725961 -0.148529 0
M  V30 3924 H 361.248 -1.88668 0.328113 0
M  V30 3925 H 359.553 -3.53337 -1.69294 0
M  V30 3926 H 361.25 -3.76577 -1.37808 0
M  V30 3927 H 357.84 -4.28579 -0.0420526 0
M  V30 3928 H 362.024 -4.9115 0.713129 0
M  V30 3929 H 357.28 -5.8531 1.76698 0
M  V30 3930 H 361.454 -6.49225 2.51951 0
M  V30 3931 H 359.081 -6.96226 3.05244 0
M  V30 3932 N 360.656 0.0484629 -1.57525 0
M  V30 3933 C 361.896 0.748196 -1.90214 0
M  V30 3934 C 362.26 1.73545 -0.821347 0
M  V30 3935 O 363.461 2.48201 -1.03198 0
M  V30 3936 C 361.732 1.41727 -3.28098 0
M  V30 3937 S 363.291 2.14884 -3.82584 0
M  V30 3938 H 360.109 0.248307 -0.666232 0
M  V30 3939 H 362.711 0.00343188 -1.955 0
M  V30 3940 H 361.415 0.685244 -4.04639 0
M  V30 3941 H 360.946 2.20099 -3.26068 0
M  V30 3942 H 362.961 3.41755 -3.59747 0
M  V30 3943 N 362.134 1.5431 0.320358 0
M  V30 3944 C 363.044 1.86946 1.41734 0
M  V30 3945 C 364.06 0.761689 1.56443 0
M  V30 3946 O 365.236 1.05629 1.71477 0
M  V30 3947 C 362.301 2.09293 2.76401 0
M  V30 3948 C 361.362 3.33082 2.70841 0
M  V30 3949 C 360.595 3.54353 3.99086 0
M  V30 3950 O 360.818 2.79002 4.97508 0
M  V30 3951 O 359.752 4.47838 4.0215 0
M  V30 3952 H 363.578 2.80232 1.17062 0
M  V30 3953 H 361.163 1.40255 0.514673 0
M  V30 3954 H 363.045 2.25303 3.56113 0
M  V30 3955 H 361.72 1.19194 3.00956 0
M  V30 3956 H 360.627 3.22454 1.89668 0
M  V30 3957 H 361.96 4.23249 2.5124 0
M  V30 3958 N 363.613 -0.582584 1.46437 0
M  V30 3959 C 364.563 -1.68654 1.53426 0
M  V30 3960 C 365.547 -1.55971 0.395194 0
M  V30 3961 O 366.739 -1.64884 0.643612 0
M  V30 3962 C 363.868 -3.07439 1.52762 0
M  V30 3963 C 362.954 -3.25418 2.71963 0
M  V30 3964 N 363.345 -3.13556 3.96883 0
M  V30 3965 C 361.643 -3.56357 2.68189 0
M  V30 3966 C 362.344 -3.33543 4.76575 0
M  V30 3967 N 361.32 -3.58704 4.08451 0
M  V30 3968 H 365.122 -1.58014 2.47808 0
M  V30 3969 H 362.636 -0.786617 1.42078 0
M  V30 3970 H 364.633 -3.86671 1.55857 0
M  V30 3971 H 363.293 -3.1921 0.594573 0
M  V30 3972 H 364.304 -2.9142 4.28129 0
M  V30 3973 H 360.981 -3.74812 1.83908 0
M  V30 3974 H 362.371 -3.29555 5.85528 0
M  V30 3975 N 365.091 -1.34144 -0.827227 0
M  V30 3976 C 366.331 -1.27603 -1.59677 0
M  V30 3977 C 366.695 0.153035 -1.91389 0
M  V30 3978 O 367.896 0.342566 -2.66608 0
M  V30 3979 C 366.167 -2.13784 -2.86411 0
M  V30 3980 S 367.726 -2.24552 -3.76991 0
M  V30 3981 H 364.544 -0.453789 -0.547354 0
M  V30 3982 H 367.146 -1.69309 -0.977479 0
M  V30 3983 H 365.85 -3.16627 -2.61104 0
M  V30 3984 H 365.381 -1.72959 -3.5334 0
M  V30 3985 H 367.396 -1.41514 -4.75593 0
M  V30 3986 N 366.569 1.04691 -1.17803 0
M  V30 3987 C 367.817 1.7743 -0.967617 0
M  V30 3988 C 368.138 1.88359 0.504574 0
M  V30 3989 O 367.408 1.40402 1.36617 0
M  V30 3990 H 365.988 0.657242 -0.355024 0
M  V30 3991 H 368.65 1.2638 -1.48371 0
M  V30 3992 H 367.746 2.78924 -1.40027 0
M  V30 3993 N 368.047 0.979072 1.23499 0
M  V30 3994 C 369.275 0.665202 1.95915 0
M  V30 3995 C 369.69 -0.767571 1.72493 0
M  V30 3996 O 369.047 -1.51635 1.01554 0
M  V30 3997 C 369.098 0.944438 3.48945 0
M  V30 3998 O 368.819 2.3209 3.71572 0
M  V30 3999 C 370.32 0.646336 4.38563 0
M  V30 4000 H 367.54 0.247218 0.623798 0
M  V30 4001 H 370.084 1.31009 1.57025 0
M  V30 4002 H 368.239 0.345575 3.85856 0
M  V30 4003 H 368.653 2.40957 4.65876 0
M  V30 4004 H 370.127 0.892091 5.44744 0
M  V30 4005 H 370.604 -0.419575 4.37191 0
M  V30 4006 H 371.21 1.22562 4.07258 0
M  V30 4007 N 369.525 -1.3858 0.750561 0
M  V30 4008 C 370.455 -2.33102 0.136237 0
M  V30 4009 C 371.436 -1.54713 -0.706965 0
M  V30 4010 O 372.621 -1.83043 -0.648769 0
M  V30 4011 C 369.751 -3.38882 -0.760017 0
M  V30 4012 C 368.705 -4.27995 -0.0197785 0
M  V30 4013 C 368.031 -5.24605 -1.03408 0
M  V30 4014 C 369.331 -5.09554 1.14684 0
M  V30 4015 H 371.025 -2.84726 0.925822 0
M  V30 4016 H 368.571 -1.36898 0.446654 0
M  V30 4017 H 370.524 -4.0397 -1.19943 0
M  V30 4018 H 369.248 -2.85734 -1.58189 0
M  V30 4019 H 367.907 -3.64409 0.400184 0
M  V30 4020 H 367.555 -4.67746 -1.84994 0
M  V30 4021 H 367.255 -5.85081 -0.543464 0
M  V30 4022 H 368.779 -5.9257 -1.47288 0
M  V30 4023 H 370.193 -5.67899 0.785118 0
M  V30 4024 H 368.59 -5.7925 1.56812 0
M  V30 4025 H 369.66 -4.4347 1.96118 0
M  V30 4026 N 371.003 -0.499398 -1.49478 0
M  V30 4027 C 371.933 0.269244 -2.31943 0
M  V30 4028 C 372.914 0.964054 -1.40143 0
M  V30 4029 O 374.099 0.955767 -1.69052 0
M  V30 4030 C 371.229 1.33504 -3.20615 0
M  V30 4031 C 370.183 0.760202 -4.21195 0
M  V30 4032 C 369.509 1.9264 -4.98792 0
M  V30 4033 C 370.809 -0.247661 -5.21712 0
M  V30 4034 H 372.503 -0.419082 -2.96452 0
M  V30 4035 H 370.049 -0.202988 -1.42562 0
M  V30 4036 H 372.002 1.88048 -3.77115 0
M  V30 4037 H 370.726 2.05253 -2.54045 0
M  V30 4038 H 369.385 0.23653 -3.65836 0
M  V30 4039 H 369.033 2.63154 -4.28671 0
M  V30 4040 H 368.733 1.54785 -5.66847 0
M  V30 4041 H 370.257 2.4762 -5.58137 0
M  V30 4042 H 371.671 0.209579 -5.72917 0
M  V30 4043 H 370.068 -0.541962 -5.97648 0
M  V30 4044 H 371.138 -1.16409 -4.7072 0
M  V30 4045 N 372.481 1.55866 -0.233164 0
M  V30 4046 C 373.727 1.99643 0.389148 0
M  V30 4047 C 374.082 1.11836 1.56558 0
M  V30 4048 O 373.375 0.170848 1.90837 0
M  V30 4049 C 373.569 3.46856 0.861724 0
M  V30 4050 C 373.398 4.48904 -0.267376 0
M  V30 4051 C 372.168 4.99888 -0.737577 0
M  V30 4052 C 374.366 5.02624 -1.08966 0
M  V30 4053 N 372.348 5.8566 -1.84052 0
M  V30 4054 C 373.719 5.85434 -2.04125 0
M  V30 4055 C 375.774 4.84959 -1.12779 0
M  V30 4056 C 374.477 6.52466 -3.02789 0
M  V30 4057 C 376.503 5.52759 -2.10266 0
M  V30 4058 C 375.865 6.35346 -3.04162 0
M  V30 4059 H 371.964 0.774402 0.108742 0
M  V30 4060 H 374.548 1.91572 -0.347596 0
M  V30 4061 H 372.719 3.55352 1.5678 0
M  V30 4062 H 374.451 3.77531 1.45783 0
M  V30 4063 H 371.206 4.7249 -0.324122 0
M  V30 4064 H 371.63 6.33246 -2.39434 0
M  V30 4065 H 376.272 4.20751 -0.415749 0
M  V30 4066 H 373.99 7.15849 -3.74948 0
M  V30 4067 H 377.576 5.41051 -2.13905 0
M  V30 4068 H 376.456 6.86883 -3.78366 0
M  V30 4069 N 373.959 -0.0401083 1.57549 0
M  V30 4070 C 375.207 -0.731677 1.8839 0
M  V30 4071 C 375.528 -1.76481 0.829425 0
M  V30 4072 O 374.798 -1.95411 -0.1383 0
M  V30 4073 H 373.378 -0.273225 0.695239 0
M  V30 4074 H 376.04 -0.00867725 1.94898 0
M  V30 4075 H 375.136 -1.22816 2.86919 0
M  V30 4076 N 375.437 -1.54477 -0.31217 0
M  V30 4077 C 376.367 -1.87652 -1.38957 0
M  V30 4078 C 377.348 -0.734358 -1.53431 0
M  V30 4079 O 378.533 -0.98911 -1.67123 0
M  V30 4080 C 375.663 -2.11396 -2.75552 0
M  V30 4081 C 374.617 -3.27243 -2.75855 0
M  V30 4082 C 373.943 -3.36382 -4.15633 0
M  V30 4083 C 375.243 -4.64622 -2.38587 0
M  V30 4084 H 376.937 -2.77887 -1.11442 0
M  V30 4085 H 374.483 -1.33707 -0.534655 0
M  V30 4086 H 376.436 -2.33189 -3.51 0
M  V30 4087 H 375.16 -1.17921 -3.04569 0
M  V30 4088 H 373.819 -3.05356 -2.02863 0
M  V30 4089 H 373.467 -2.40445 -4.41809 0
M  V30 4090 H 373.167 -4.14249 -4.1674 0
M  V30 4091 H 374.691 -3.60422 -4.92877 0
M  V30 4092 H 376.105 -4.86219 -3.03749 0
M  V30 4093 H 374.502 -5.45121 -2.50925 0
M  V30 4094 H 375.572 -4.66097 -1.33723 0
M  V30 4095 N 376.915 0.57481 -1.46744 0
M  V30 4096 C 377.878 1.66533 -1.57478 0
M  V30 4097 C 378.878 1.54338 -0.451263 0
M  V30 4098 O 380.068 1.58814 -0.715813 0
M  V30 4099 C 377.2 3.05999 -1.50259 0
M  V30 4100 H 378.393 1.58372 -2.54673 0
M  V30 4101 H 375.946 0.793301 -1.34672 0
M  V30 4102 H 376.681 3.19709 -0.543725 0
M  V30 4103 H 376.466 3.16259 -2.31781 0
M  V30 4104 H 377.956 3.8537 -1.60872 0
M  V30 4105 N 378.394 1.34581 0.820102 0
M  V30 4106 C 379.81 1.14325 1.11364 0
M  V30 4107 C 380.01 -0.0533648 2.01429 0
M  V30 4108 O 379.066 -0.728044 2.41776 0
M  V30 4109 C 380.379 2.43983 1.75764 0
M  V30 4110 C 381.927 2.50065 1.88246 0
M  V30 4111 C 382.402 3.79732 2.56061 0
M  V30 4112 N 383.893 3.80908 2.63558 0
M  V30 4113 C 384.628 4.77961 3.16766 0
M  V30 4114 N 384.124 5.85397 3.70517 0
M  V30 4115 N 385.917 4.65413 3.15194 0
M  V30 4116 H 378.068 2.11246 0.221096 0
M  V30 4117 H 380.331 0.934289 0.160649 0
M  V30 4118 H 380.037 3.31651 1.1705 0
M  V30 4119 H 379.911 2.57531 2.75604 0
M  V30 4120 H 382.298 1.62834 2.46108 0
M  V30 4121 H 382.379 2.40442 0.873006 0
M  V30 4122 H 382.023 4.67354 1.98853 0
M  V30 4123 H 381.953 3.86639 3.57516 0
M  V30 4124 H 384.444 3.03274 2.25463 0
M  V30 4125 H 384.757 6.55463 4.09376 0
M  V30 4126 H 383.102 5.89107 3.68752 0
M  V30 4127 H 386.293 3.80627 2.72471 0
M  V30 4128 H 386.466 5.41216 3.56356 0
M  V30 4129 N 379.872 -1.04064 1.18357 0
M  V30 4130 C 380.804 -2.12114 0.868358 0
M  V30 4131 C 381.817 -1.62247 -0.134045 0
M  V30 4132 O 383.006 -1.78253 0.0937933 0
M  V30 4133 C 380.106 -3.37773 0.276132 0
M  V30 4134 C 379.279 -4.16874 1.3242 0
M  V30 4135 C 378.338 -5.20861 0.747662 0
M  V30 4136 O 377.364 -5.51141 1.42239 0
M  V30 4137 N 378.566 -5.78715 -0.454823 0
M  V30 4138 H 381.331 -2.39748 1.79836 0
M  V30 4139 H 378.892 -1.20258 1.08396 0
M  V30 4140 H 380.884 -4.04513 -0.123133 0
M  V30 4141 H 379.454 -3.07581 -0.557895 0
M  V30 4142 H 378.674 -3.45456 1.89878 0
M  V30 4143 H 379.962 -4.66516 2.03078 0
M  V30 4144 H 379.36 -5.56415 -1.02073 0
M  V30 4145 H 377.917 -6.46921 -0.79601 0
M  V30 4146 N 381.35 -0.985608 -1.22978 0
M  V30 4147 C 382.598 -0.656087 -1.91154 0
M  V30 4148 C 382.919 0.813561 -1.77218 0
M  V30 4149 O 382.189 1.58244 -1.1548 0
M  V30 4150 H 380.769 -0.239674 -0.707506 0
M  V30 4151 H 383.431 -1.25054 -1.49491 0
M  V30 4152 H 382.527 -0.912253 -2.9847 0
M  V30 4153 N 382.828 1.3818 -0.7579 0
M  V30 4154 C 383.758 2.33027 -0.148597 0
M  V30 4155 C 384.739 1.55085 0.69875 0
M  V30 4156 O 385.924 1.83384 0.639053 0
M  V30 4157 C 383.054 3.3928 0.742034 0
M  V30 4158 C 382.008 4.28 -0.00291946 0
M  V30 4159 C 381.334 5.25146 1.00625 0
M  V30 4160 C 382.634 5.08938 -1.17385 0
M  V30 4161 H 384.328 2.84231 -0.940909 0
M  V30 4162 H 381.874 1.36659 -0.453908 0
M  V30 4163 H 383.827 4.046 1.17799 0
M  V30 4164 H 382.551 2.86569 1.56671 0
M  V30 4165 H 381.21 3.64192 -0.419504 0
M  V30 4166 H 380.858 4.68721 1.8251 0
M  V30 4167 H 380.558 5.85361 0.512428 0
M  V30 4168 H 382.082 5.93342 1.44143 0
M  V30 4169 H 383.496 5.67474 -0.815224 0
M  V30 4170 H 381.893 5.7841 -1.59882 0
M  V30 4171 H 382.963 4.42424 -1.98468 0
M  V30 4172 N 384.306 0.507319 1.49211 0
M  V30 4173 C 385.253 -0.267728 2.29242 0
M  V30 4174 C 386.223 -0.954609 1.35928 0
M  V30 4175 O 387.408 -0.960046 1.64887 0
M  V30 4176 C 384.548 -1.32243 3.18756 0
M  V30 4177 C 383.661 -0.64669 4.27132 0
M  V30 4178 C 382.796 -1.68238 5.03855 0
M  V30 4179 C 381.835 -0.98885 6.0406 0
M  V30 4180 N 380.972 -1.96903 6.73924 0
M  V30 4181 H 385.812 0.420968 2.95012 0
M  V30 4182 H 383.349 0.219443 1.45454 0
M  V30 4183 H 385.307 -1.94599 3.69036 0
M  V30 4184 H 383.937 -1.97981 2.54958 0
M  V30 4185 H 382.989 0.0902926 3.80293 0
M  V30 4186 H 384.301 -0.101058 4.98698 0
M  V30 4187 H 383.455 -2.38081 5.58034 0
M  V30 4188 H 382.194 -2.26187 4.32077 0
M  V30 4189 H 381.199 -0.276222 5.49106 0
M  V30 4190 H 382.424 -0.415767 6.77826 0
M  V30 4191 H 380.37 -2.53803 6.04913 0
M  V30 4192 H 380.287 -1.47423 7.41487 0
M  V30 4193 H 381.555 -2.66015 7.32705 0
M  V30 4194 N 385.784 -1.5574 0.241426 0
M  V30 4195 C 387.024 -2.00714 -0.38644 0
M  V30 4196 C 387.388 -1.12586 -1.55526 0
M  V30 4197 O 388.589 -1.46992 -2.25048 0
M  V30 4198 C 386.86 -3.48534 -0.791128 0
M  V30 4199 S 388.419 -4.15519 -1.41029 0
M  V30 4200 H 385.237 -0.700484 -0.121834 0
M  V30 4201 H 387.839 -1.92243 0.355377 0
M  V30 4202 H 386.543 -4.10342 0.0689225 0
M  V30 4203 H 386.074 -3.6092 -1.56526 0
M  V30 4204 H 388.089 -4.16352 -2.69936 0
M  V30 4205 N 387.262 0.0317525 -1.57568 0
M  V30 4206 C 388.539 0.758366 -1.803 0
M  V30 4207 C 388.919 1.93718 -0.838845 0
M  V30 4208 O 388.267 2.28187 0.119571 0
M  V30 4209 C 388.477 1.19392 -3.27943 0
M  V30 4210 C 389.825 1.61094 -3.92854 0
M  V30 4211 O 390.849 1.28857 -3.32076 0
M  V30 4212 O 389.708 2.20918 -4.99858 0
M  V30 4213 H 386.802 0.366514 -0.741348 0
M  V30 4214 H 389.348 0.00873765 -1.69698 0
M  V30 4215 H 388.12 0.352275 -3.89711 0
M  V30 4216 H 387.743 2.00365 -3.43424 0
M  V30 4217 N 388.74 1.54641 0.303973 0
M  V30 4218 C 389.703 1.84646 1.35789 0
M  V30 4219 C 390.703 0.7192 1.4382 0
M  V30 4220 O 391.893 0.987491 1.43507 0
M  V30 4221 C 389.025 2.02407 2.74307 0
M  V30 4222 H 390.218 2.78829 1.10429 0
M  V30 4223 H 387.771 1.46658 0.540487 0
M  V30 4224 H 388.506 1.10502 3.04893 0
M  V30 4225 H 388.291 2.84453 2.69868 0
M  V30 4226 H 389.781 2.27002 3.50514 0
M  V30 4227 N 390.218 -0.567019 1.47046 0
M  V30 4228 C 391.458 -1.3355 1.54738 0
M  V30 4229 C 391.822 -1.90947 0.200772 0
M  V30 4230 O 393.023 -2.68367 0.152489 0
M  V30 4231 C 391.294 -2.42317 2.62712 0
M  V30 4232 S 392.853 -3.29383 2.89918 0
M  V30 4233 H 389.671 -0.454788 0.546525 0
M  V30 4234 H 392.273 -0.650191 1.84371 0
M  V30 4235 H 390.977 -1.98568 3.59164 0
M  V30 4236 H 390.508 -3.15601 2.34861 0
M  V30 4237 H 392.523 -4.41548 2.26384 0
M  V30 4238 N 391.696 -1.35014 -0.812953 0
M  V30 4239 C 392.944 -1.27678 -1.56661 0
M  V30 4240 C 393.265 0.150359 -1.94419 0
M  V30 4241 O 392.535 1.08532 -1.63088 0
M  V30 4242 H 391.115 -0.469602 -0.580933 0
M  V30 4243 H 393.777 -1.69043 -0.970076 0
M  V30 4244 H 392.873 -1.88833 -2.48492 0
M  V30 4245 N 393.175 1.03435 -1.18907 0
M  V30 4246 C 394.108 2.11162 -0.86521 0
M  V30 4247 C 395.086 1.6165 0.175473 0
M  V30 4248 O 396.27 1.88425 0.0530129 0
M  V30 4249 C 393.397 3.37423 -0.293868 0
M  V30 4250 C 392.443 4.05795 -1.31274 0
M  V30 4251 S 393.276 4.52027 -2.8711 0
M  V30 4252 C 394.432 5.81513 -2.31504 0
M  V30 4253 H 394.665 2.38308 -1.77754 0
M  V30 4254 H 392.198 1.16295 -1.01562 0
M  V30 4255 H 394.156 4.1049 0.0292572 0
M  V30 4256 H 392.817 3.0838 0.596682 0
M  V30 4257 H 392.01 4.96574 -0.86198 0
M  V30 4258 H 391.612 3.38874 -1.58242 0
M  V30 4259 H 393.904 6.55784 -1.70157 0
M  V30 4260 H 394.847 6.3136 -3.20608 0
M  V30 4261 H 395.255 5.36921 -1.74286 0
M  V30 4262 N 394.653 0.992116 1.22453 0
M  V30 4263 C 395.601 0.534644 2.26372 0
M  V30 4264 C 396.595 -0.414293 1.64256 0
M  V30 4265 O 397.801 -0.286899 1.77699 0
M  V30 4266 H 394.176 0.154502 0.735957 0
M  V30 4267 H 396.147 1.42256 2.62309 0
M  V30 4268 C 394.896 -0.135815 3.47435 0
M  V30 4269 H 394.219 0.585311 3.95492 0
M  V30 4270 H 395.659 -0.419374 4.21921 0
M  V30 4271 C 394.118 -1.37089 3.07747 0
M  V30 4272 O 394.648 -2.46629 3.17076 0
M  V30 4273 N 392.854 -1.24585 2.62539 0
M  V30 4274 H 392.401 -0.354542 2.55149 0
M  V30 4275 H 392.359 -2.07327 2.36353 0
M  V30 4276 N 396.131 -1.37776 0.765217 0
M  V30 4277 C 397.377 -2.00145 0.327072 0
M  V30 4278 C 397.71 -1.60607 -1.09175 0
M  V30 4279 O 396.985 -0.849127 -1.74986 0
M  V30 4280 C 397.268 -3.57109 0.46319 0
M  V30 4281 C 397.121 -4.06576 1.92395 0
M  V30 4282 C 398.44 -4.39888 -0.136473 0
M  V30 4283 H 395.559 -0.727113 0.120316 0
M  V30 4284 H 398.201 -1.63549 0.967039 0
M  V30 4285 H 396.351 -3.88414 -0.0816358 0
M  V30 4286 H 398.023 -3.85864 2.52798 0
M  V30 4287 H 396.266 -3.59011 2.43503 0
M  V30 4288 H 396.937 -5.15639 1.97028 0
M  V30 4289 H 399.413 -4.14803 0.328317 0
M  V30 4290 H 398.289 -5.48899 -0.0110582 0
M  V30 4291 H 398.55 -4.24758 -1.22608 0
M  V30 4292 N 397.609 -0.515225 -1.4894 0
M  V30 4293 C 398.559 0.275113 -2.26334 0
M  V30 4294 C 399.543 0.923007 -1.31793 0
M  V30 4295 O 400.735 0.828254 -1.56426 0
M  V30 4296 C 397.864 1.33041 -3.16473 0
M  V30 4297 C 396.95 0.688051 -4.18481 0
M  V30 4298 N 397.341 -0.217638 -5.05332 0
M  V30 4299 C 395.639 0.94699 -4.3583 0
M  V30 4300 C 396.34 -0.58676 -5.78733 0
M  V30 4301 N 395.316 0.0486966 -5.43578 0
M  V30 4302 H 399.118 -0.421876 -2.90856 0
M  V30 4303 H 396.632 -0.332249 -1.58965 0
M  V30 4304 H 398.629 1.9102 -3.70563 0
M  V30 4305 H 397.289 2.02894 -2.53504 0
M  V30 4306 H 398.3 -0.589343 -5.14536 0
M  V30 4307 H 394.977 1.63719 -3.8406 0
M  V30 4308 H 396.367 -1.32855 -6.58634 0
M  V30 4309 N 399.087 1.5561 -0.249682 0
M  V30 4310 C 400.037 2.18157 0.662673 0
M  V30 4311 C 401.021 1.1383 1.13717 0
M  V30 4312 O 402.213 1.39731 1.08648 0
M  V30 4313 C 399.342 2.88672 1.85805 0
M  V30 4314 C 398.428 4.00258 1.40193 0
M  V30 4315 N 398.819 5.01473 0.660213 0
M  V30 4316 C 397.117 4.12864 1.68698 0
M  V30 4317 C 397.818 5.80155 0.423695 0
M  V30 4318 N 396.794 5.34533 0.988721 0
M  V30 4319 H 400.596 2.93769 0.0878688 0
M  V30 4320 H 398.11 1.62316 -0.0521183 0
M  V30 4321 H 400.107 3.31912 2.5227 0
M  V30 4322 H 398.767 2.14564 2.43705 0
M  V30 4323 H 399.778 5.16971 0.310047 0
M  V30 4324 H 396.455 3.4993 2.27717 0
M  V30 4325 H 397.845 6.71688 -0.168616 0
M  V30 4326 N 400.565 -0.0233959 1.57583 0
M  V30 4327 C 401.981 -0.379134 1.55031 0
M  V30 4328 C 402.181 -1.76255 0.976548 0
M  V30 4329 O 401.237 -2.45266 0.600078 0
M  V30 4330 C 402.55 -0.275792 2.99433 0
M  V30 4331 C 404.098 -0.352458 3.11009 0
M  V30 4332 C 404.573 -0.278501 4.57152 0
M  V30 4333 N 406.064 -0.337123 4.61972 0
M  V30 4334 C 406.799 -0.302876 5.726 0
M  V30 4335 N 406.295 -0.220589 6.92449 0
M  V30 4336 N 408.088 -0.353023 5.6099 0
M  V30 4337 H 400.239 0.881869 1.93227 0
M  V30 4338 H 402.502 0.335867 0.886509 0
M  V30 4339 H 402.208 0.675108 3.4516 0
M  V30 4340 H 402.082 -1.06721 3.61788 0
M  V30 4341 H 404.469 -1.29379 2.65226 0
M  V30 4342 H 404.55 0.468409 2.51475 0
M  V30 4343 H 404.194 0.659189 5.03604 0
M  V30 4344 H 404.124 -1.11755 5.14605 0
M  V30 4345 H 406.615 -0.403002 3.75745 0
M  V30 4346 H 406.928 -0.199713 7.72542 0
M  V30 4347 H 405.273 -0.186555 6.9475 0
M  V30 4348 H 408.464 -0.415339 4.66254 0
M  V30 4349 H 408.637 -0.322866 6.47195 0
M  V30 4350 N 402.043 -1.548 -0.295768 0
M  V30 4351 C 403.283 -1.76069 -1.03823 0
M  V30 4352 C 403.647 -0.537992 -1.84309 0
M  V30 4353 O 404.848 -0.628514 -2.61349 0
M  V30 4354 C 403.119 -3.01705 -1.91596 0
M  V30 4355 S 404.678 -3.43998 -2.72416 0
M  V30 4356 H 401.496 -0.618852 -0.350062 0
M  V30 4357 H 404.098 -1.93009 -0.31106 0
M  V30 4358 H 402.802 -3.88812 -1.31351 0
M  V30 4359 H 402.333 -2.87366 -2.68671 0
M  V30 4360 H 404.348 -3.0148 -3.94112 0
M  V30 4361 N 403.521 0.559213 -1.47345 0
M  V30 4362 C 404.453 1.68161 -1.55738 0
M  V30 4363 C 405.466 1.56636 -0.443744 0
M  V30 4364 O 406.655 1.6363 -0.713258 0
M  V30 4365 C 403.755 3.06611 -1.4437 0
M  V30 4366 C 402.928 3.4391 -2.70268 0
M  V30 4367 C 401.987 4.61515 -2.52765 0
M  V30 4368 O 401.013 4.66197 -3.26572 0
M  V30 4369 N 402.215 5.57883 -1.6046 0
M  V30 4370 H 404.98 1.61408 -2.52522 0
M  V30 4371 H 402.541 0.7458 -1.43699 0
M  V30 4372 H 404.533 3.83117 -1.30398 0
M  V30 4373 H 403.103 3.07602 -0.556766 0
M  V30 4374 H 402.323 2.56873 -2.99015 0
M  V30 4375 H 403.611 3.65605 -3.53851 0
M  V30 4376 H 403.009 5.56855 -0.996422 0
M  V30 4377 H 401.566 6.33723 -1.52441 0
M  V30 4378 N 404.999 1.35443 0.805782 0
M  V30 4379 C 406.227 1.31878 1.59423 0
M  V30 4380 C 406.642 -0.103562 1.88516 0
M  V30 4381 O 405.999 -1.05575 1.48863 0
M  V30 4382 C 406.05 2.12426 2.92502 0
M  V30 4383 O 405.771 3.49115 2.6467 0
M  V30 4384 C 407.272 2.16455 3.86862 0
M  V30 4385 H 404.492 0.453002 0.495005 0
M  V30 4386 H 407.036 1.78309 1.00131 0
M  V30 4387 H 405.191 1.69593 3.48306 0
M  V30 4388 H 405.605 3.90957 3.49647 0
M  V30 4389 H 407.079 2.77204 4.77349 0
M  V30 4390 H 407.556 1.16352 4.23508 0
M  V30 4391 H 408.162 2.59453 3.36993 0
M  V30 4392 N 406.477 -1.02803 1.19454 0
M  V30 4393 C 407.424 -2.11099 0.933046 0
M  V30 4394 C 408.394 -1.65571 -0.132447 0
M  V30 4395 O 409.579 -1.90797 0.00987576 0
M  V30 4396 C 406.719 -3.41763 0.478747 0
M  V30 4397 C 405.832 -4.00833 1.6111 0
M  V30 4398 C 404.967 -5.19511 1.10825 0
M  V30 4399 C 404.006 -5.70639 2.21445 0
M  V30 4400 N 403.143 -6.80589 1.72461 0
M  V30 4401 H 407.983 -2.32804 1.86028 0
M  V30 4402 H 405.52 -1.14179 0.927441 0
M  V30 4403 H 407.478 -4.16736 0.196745 0
M  V30 4404 H 406.108 -3.20166 -0.411493 0
M  V30 4405 H 405.16 -3.23066 2.00829 0
M  V30 4406 H 406.472 -4.34794 2.4445 0
M  V30 4407 H 405.626 -6.01645 0.781533 0
M  V30 4408 H 404.365 -4.87086 0.244606 0
M  V30 4409 H 403.37 -4.87116 2.54947 0
M  V30 4410 H 404.595 -6.05102 3.08267 0
M  V30 4411 H 402.541 -6.50016 0.884056 0
M  V30 4412 H 402.458 -7.13681 2.49389 0
M  V30 4413 H 403.726 -7.66317 1.42755 0
M  V30 4414 N 407.956 -0.998596 -1.21925 0
M  V30 4415 C 409.202 -0.678667 -1.91107 0
M  V30 4416 C 409.535 0.78791 -1.77498 0
M  V30 4417 O 408.81 1.57043 -1.1475 0
M  V30 4418 C 409.093 -1.09245 -3.43129 0
M  V30 4419 C 408.946 -2.61801 -3.6576 0
M  V30 4420 C 410.265 -0.649984 -4.35274 0
M  V30 4421 H 407.384 -0.248025 -0.694012 0
M  V30 4422 H 410.026 -1.24314 -1.43688 0
M  V30 4423 H 408.176 -0.612171 -3.83647 0
M  V30 4424 H 409.848 -3.17543 -3.34611 0
M  V30 4425 H 408.091 -3.03609 -3.09845 0
M  V30 4426 H 408.762 -2.85804 -4.7225 0
M  V30 4427 H 411.238 -1.0626 -4.02303 0
M  V30 4428 H 410.114 -0.967743 -5.40302 0
M  V30 4429 H 410.375 0.449139 -4.39813 0
M  V30 4430 N 409.434 1.37368 -0.772513 0
M  V30 4431 C 410.397 2.28601 -0.165541 0
M  V30 4432 C 411.397 1.48062 0.627238 0
M  V30 4433 O 412.587 1.68268 0.450715 0
M  V30 4434 C 409.719 3.32023 0.772897 0
M  V30 4435 H 410.912 2.83787 -0.969787 0
M  V30 4436 H 408.465 1.46647 -0.540775 0
M  V30 4437 H 409.2 2.81962 1.60212 0
M  V30 4438 H 408.985 3.91555 0.206585 0
M  V30 4439 H 410.475 4.00197 1.19298 0
M  V30 4440 N 410.912 0.523116 1.48665 0
M  V30 4441 C 411.86 -0.256859 2.31177 0
M  V30 4442 C 412.854 -0.94199 1.40794 0
M  V30 4443 O 414.06 -0.867157 1.57735 0
M  V30 4444 H 410.435 -0.1017 0.745091 0
M  V30 4445 H 412.406 0.458739 2.94853 0
M  V30 4446 C 411.155 -1.29503 3.22683 0
M  V30 4447 H 410.478 -0.777248 3.92172 0
M  V30 4448 H 411.918 -1.81233 3.83315 0
M  V30 4449 C 410.377 -2.32501 2.43813 0
M  V30 4450 O 410.907 -3.3881 2.15803 0
M  V30 4451 N 409.113 -2.05538 2.05432 0
M  V30 4452 H 408.66 -1.19104 2.28412 0
M  V30 4453 H 408.618 -2.74676 1.52973 0
M  V30 4454 N 412.39 -1.55475 0.257931 0
M  V30 4455 C 413.32 -2.24815 -0.630912 0
M  V30 4456 C 414.301 -1.23224 -1.17259 0
M  V30 4457 O 415.486 -1.51904 -1.20991 0
M  V30 4458 C 412.616 -2.95609 -1.82298 0
M  V30 4459 C 411.57 -4.03982 -1.41359 0
M  V30 4460 C 410.896 -4.6226 -2.68738 0
M  V30 4461 C 412.196 -5.19109 -0.57648 0
M  V30 4462 H 413.89 -2.99354 -0.0526878 0
M  V30 4463 H 411.436 -1.4398 -0.023901 0
M  V30 4464 H 413.389 -3.42822 -2.45054 0
M  V30 4465 H 412.113 -2.18577 -2.42676 0
M  V30 4466 H 410.772 -3.57555 -0.809324 0
M  V30 4467 H 410.42 -3.81915 -3.27338 0
M  V30 4468 H 410.12 -5.35424 -2.42065 0
M  V30 4469 H 411.644 -5.12212 -3.32372 0
M  V30 4470 H 413.058 -5.62479 -1.10861 0
M  V30 4471 H 411.455 -5.98729 -0.405351 0
M  V30 4472 H 412.525 -4.83174 0.408776 0
M  V30 4473 N 413.868 0.0150385 -1.57593 0
M  V30 4474 C 415.108 0.70768 -1.91758 0
M  V30 4475 C 415.472 1.71764 -0.857974 0
M  V30 4476 O 416.673 2.45956 -1.0844 0
M  V30 4477 C 414.944 1.34736 -3.3103 0
M  V30 4478 S 416.503 2.06721 -3.87056 0
M  V30 4479 H 413.321 0.234119 -0.671349 0
M  V30 4480 H 415.923 -0.0380373 -1.95463 0
M  V30 4481 H 414.627 0.59926 -4.06001 0
M  V30 4482 H 414.158 2.13133 -3.30663 0
M  V30 4483 H 416.173 3.34047 -3.66915 0
M  V30 4484 N 415.346 1.54954 0.287554 0
M  V30 4485 C 416.594 1.74528 1.01904 0
M  V30 4486 C 416.915 0.541349 1.87335 0
M  V30 4487 O 416.185 -0.444108 1.908 0
M  V30 4488 H 414.765 0.643576 0.379235 0
M  V30 4489 H 417.427 1.92333 0.315294 0
M  V30 4490 H 416.523 2.64015 1.6644 0
M  V30 4491 N 416.824 -0.551391 1.4764 0
M  V30 4492 C 418.073 -1.30467 1.53822 0
M  V30 4493 C 418.386 -1.94495 0.207661 0
M  V30 4494 O 419.592 -2.71099 0.147533 0
M  V30 4495 C 418.048 -2.36616 2.71184 0
M  V30 4496 C 417.656 -1.78754 4.10793 0
M  V30 4497 C 419.4 -3.13088 2.86663 0
M  V30 4498 C 417.307 -2.82717 5.19447 0
M  V30 4499 H 416.237 -0.490584 0.572576 0
M  V30 4500 H 418.888 -0.58494 1.73927 0
M  V30 4501 H 417.27 -3.11529 2.4447 0
M  V30 4502 H 418.444 -1.10173 4.47435 0
M  V30 4503 H 416.759 -1.14846 4.00249 0
M  V30 4504 H 419.356 -3.90736 3.65007 0
M  V30 4505 H 419.699 -3.67635 1.95321 0
M  V30 4506 H 420.232 -2.45288 3.13175 0
M  V30 4507 H 416.971 -2.33018 6.12685 0
M  V30 4508 H 416.491 -3.4969 4.87316 0
M  V30 4509 H 418.17 -3.46102 5.46646 0
M  V30 4510 N 418.302 -1.35869 -0.798587 0
M  V30 4511 C 419.25 -1.29491 -1.93222 0
M  V30 4512 C 420.244 -0.18836 -1.6835 0
M  V30 4513 O 421.45 -0.354822 -1.76468 0
M  V30 4514 H 417.825 -0.402901 -0.63496 0
M  V30 4515 H 419.796 -2.25247 -1.9572 0
M  V30 4516 C 418.545 -1.09184 -3.30112 0
M  V30 4517 H 417.868 -1.93574 -3.49813 0
M  V30 4518 H 419.308 -1.08766 -4.09812 0
M  V30 4519 C 417.767 0.203959 -3.36282 0
M  V30 4520 O 418.297 1.19699 -3.83451 0
M  V30 4521 N 416.503 0.245488 -2.89561 0
M  V30 4522 H 416.05 -0.563223 -2.51367 0
M  V30 4523 H 416.008 1.11219 -2.94071 0
M  V30 4524 N 419.78 1.02168 -1.19998 0
M  V30 4525 C 420.712 2.10705 -0.901994 0
M  V30 4526 C 421.725 1.6244 0.108216 0
M  V30 4527 O 422.914 1.78082 -0.12214 0
M  V30 4528 C 420.014 3.37291 -0.329834 0
M  V30 4529 C 419.187 4.14714 -1.39035 0
M  V30 4530 C 418.246 5.19606 -0.830432 0
M  V30 4531 O 417.272 5.48809 -1.50989 0
M  V30 4532 N 418.474 5.79366 0.362696 0
M  V30 4533 H 421.239 2.36856 -1.83628 0
M  V30 4534 H 418.8 1.18518 -1.10296 0
M  V30 4535 H 420.792 4.04657 0.0587633 0
M  V30 4536 H 419.362 3.0843 0.508891 0
M  V30 4537 H 418.582 3.42392 -1.9535 0
M  V30 4538 H 419.87 4.63226 -2.10474 0
M  V30 4539 H 419.268 5.57968 0.932081 0
M  V30 4540 H 417.825 6.48106 0.69299 0
M  V30 4541 N 421.258 1.00505 1.21394 0
M  V30 4542 C 422.205 0.565496 2.23765 0
M  V30 4543 C 423.175 -0.408466 1.60999 0
M  V30 4544 O 424.36 -0.310503 1.88257 0
M  V30 4545 C 421.5 -0.101667 3.4495 0
M  V30 4546 C 420.613 0.915479 4.22188 0
M  V30 4547 C 419.748 0.220574 5.30742 0
M  V30 4548 C 418.787 1.22527 5.99711 0
M  V30 4549 N 417.924 0.557831 6.9988 0
M  V30 4550 H 422.764 1.44314 2.60725 0
M  V30 4551 H 420.301 0.722643 1.28126 0
M  V30 4552 H 422.259 -0.505504 4.14126 0
M  V30 4553 H 420.889 -0.94303 3.08718 0
M  V30 4554 H 419.941 1.43756 3.52191 0
M  V30 4555 H 421.253 1.68005 4.69655 0
M  V30 4556 H 420.407 -0.239368 6.06228 0
M  V30 4557 H 419.146 -0.576401 4.84282 0
M  V30 4558 H 418.151 1.69571 5.22997 0
M  V30 4559 H 419.376 2.02332 6.48258 0
M  V30 4560 H 417.322 -0.219486 6.55633 0
M  V30 4561 H 417.239 1.26065 7.45415 0
M  V30 4562 H 418.507 0.121095 7.79406 0
M  V30 4563 N 422.737 -1.36956 0.779787 0
M  V30 4564 C 423.667 -2.32761 0.185651 0
M  V30 4565 C 424.648 -1.56177 -0.673989 0
M  V30 4566 O 425.833 -1.84378 -0.609797 0
M  V30 4567 C 422.963 -3.40418 -0.687964 0
M  V30 4568 C 421.917 -4.27941 0.0710102 0
M  V30 4569 C 421.243 -5.26681 -0.922573 0
M  V30 4570 C 422.543 -5.07006 1.25467 0
M  V30 4571 H 424.237 -2.82698 0.986008 0
M  V30 4572 H 421.783 -1.3592 0.475592 0
M  V30 4573 H 423.736 -4.06423 -1.11348 0
M  V30 4574 H 422.46 -2.89025 -1.52093 0
M  V30 4575 H 421.119 -3.63478 0.47739 0
M  V30 4576 H 420.767 -4.71565 -1.7503 0
M  V30 4577 H 420.467 -5.86103 -0.419237 0
M  V30 4578 H 421.991 -5.9556 -1.34686 0
M  V30 4579 H 423.405 -5.66105 0.905401 0
M  V30 4580 H 421.802 -5.75793 1.69063 0
M  V30 4581 H 422.872 -4.3921 2.05481 0
M  V30 4582 N 424.215 -0.530993 -1.48385 0
M  V30 4583 C 425.148 0.278511 -2.26494 0
M  V30 4584 C 426.126 0.943905 -1.32398 0
M  V30 4585 O 427.31 0.968098 -1.61741 0
M  V30 4586 C 424.437 1.39453 -3.08659 0
M  V30 4587 C 423.483 0.840434 -4.18137 0
M  V30 4588 S 424.316 -0.292496 -5.34701 0
M  V30 4589 C 425.472 0.825973 -6.20426 0
M  V30 4590 H 425.705 -0.384365 -2.94805 0
M  V30 4591 H 423.238 -0.316799 -1.51115 0
M  V30 4592 H 425.196 2.03382 -3.56575 0
M  V30 4593 H 423.857 2.02913 -2.3976 0
M  V30 4594 H 423.05 1.67769 -4.75257 0
M  V30 4595 H 422.652 0.277819 -3.72967 0
M  V30 4596 H 424.944 1.72438 -6.55188 0
M  V30 4597 H 425.887 0.292728 -7.07495 0
M  V30 4598 H 426.295 1.10683 -5.53543 0
M  V30 4599 N 425.693 1.55336 -0.266172 0
M  V30 4600 C 426.656 2.20878 0.612001 0
M  V30 4601 C 427.656 1.18388 1.08816 0
M  V30 4602 O 428.846 1.4335 0.989774 0
M  V30 4603 C 425.978 2.86765 1.84332 0
M  V30 4604 H 427.171 2.99873 0.0398718 0
M  V30 4605 H 424.724 1.56291 -0.0167309 0
M  V30 4606 H 425.459 2.11759 2.45619 0
M  V30 4607 H 425.244 3.61862 1.5099 0
M  V30 4608 H 426.734 3.36867 2.46801 0
M  V30 4609 N 427.171 -0.0066808 1.57599 0
M  V30 4610 C 428.081 -1.01671 2.11424 0
M  V30 4611 C 429.097 -1.38143 1.05795 0
M  V30 4612 O 430.273 -1.47011 1.37658 0
M  V30 4613 C 427.338 -2.29192 2.60139 0
M  V30 4614 C 426.399 -1.99094 3.80342 0
M  V30 4615 C 425.632 -3.20535 4.26724 0
M  V30 4616 O 425.855 -4.3199 3.72479 0
M  V30 4617 O 424.789 -3.04924 5.18946 0
M  V30 4618 H 428.615 -0.589181 2.9793 0
M  V30 4619 H 426.2 -0.225091 1.47695 0
M  V30 4620 H 428.082 -3.0412 2.917 0
M  V30 4621 H 426.757 -2.71195 1.76733 0
M  V30 4622 H 425.664 -1.21663 3.53764 0
M  V30 4623 H 426.997 -1.61931 4.648 0
M  V30 4624 N 428.649 -1.55105 -0.279332 0
M  V30 4625 C 429.612 -1.86783 -1.32834 0
M  V30 4626 C 430.612 -0.74199 -1.42657 0
M  V30 4627 O 431.802 -1.0102 -1.41918 0
M  V30 4628 C 428.934 -2.06746 -2.71052 0
M  V30 4629 H 430.127 -2.8055 -1.05979 0
M  V30 4630 H 427.68 -1.47499 -0.517087 0
M  V30 4631 H 428.415 -1.15339 -3.03097 0
M  V30 4632 H 428.2 -2.88711 -2.65309 0
M  V30 4633 H 429.69 -2.32549 -3.46858 0
M  V30 4634 N 430.127 0.543554 -1.4793 0
M  V30 4635 C 431.057 1.65888 -1.64327 0
M  V30 4636 C 432.038 1.62818 -0.492383 0
M  V30 4637 O 433.223 1.80226 -0.723338 0
M  V30 4638 C 430.353 3.04506 -1.67013 0
M  V30 4639 C 429.307 3.2243 -2.81466 0
M  V30 4640 C 428.633 4.61972 -2.69233 0
M  V30 4641 C 429.933 3.06496 -4.22915 0
M  V30 4642 H 431.627 1.52421 -2.57698 0
M  V30 4643 H 429.173 0.731849 -1.24016 0
M  V30 4644 H 431.126 3.82391 -1.77074 0
M  V30 4645 H 429.85 3.18964 -0.70212 0
M  V30 4646 H 428.509 2.46957 -2.70938 0
M  V30 4647 H 428.157 4.73247 -1.7043 0
M  V30 4648 H 427.857 4.74911 -3.46025 0
M  V30 4649 H 429.381 5.41974 -2.81242 0
M  V30 4650 H 430.795 3.74186 -4.34348 0
M  V30 4651 H 429.192 3.30938 -5.006 0
M  V30 4652 H 430.262 2.03077 -4.40327 0
M  V30 4653 N 431.605 1.3629 0.791371 0
M  V30 4654 C 432.568 1.30309 1.88553 0
M  V30 4655 C 433.568 0.211204 1.59407 0
M  V30 4656 O 434.758 0.465865 1.67855 0
M  V30 4657 C 431.89 1.01956 3.25297 0
M  V30 4658 H 433.083 2.27614 1.95273 0
M  V30 4659 H 430.636 1.21035 0.988953 0
M  V30 4660 H 431.371 0.050998 3.2426 0
M  V30 4661 H 431.156 1.80968 3.4784 0
M  V30 4662 H 432.646 1.0037 4.05359 0
M  V30 4663 N 433.083 -1.0153 1.20538 0
M  V30 4664 C 434.016 -2.09759 0.898695 0
M  V30 4665 C 434.994 -1.61909 -0.149733 0
M  V30 4666 O 436.178 -1.88486 -0.0230293 0
M  V30 4667 C 433.305 -3.36913 0.347512 0
M  V30 4668 C 432.351 -4.03655 1.37713 0
M  V30 4669 S 433.184 -4.47402 2.94265 0
M  V30 4670 C 434.34 -5.77756 2.40726 0
M  V30 4671 H 434.573 -2.3545 1.81523 0
M  V30 4672 H 432.106 -1.14665 1.03399 0
M  V30 4673 H 434.064 -4.10484 0.0360518 0
M  V30 4674 H 432.725 -3.09291 -0.547546 0
M  V30 4675 H 431.918 -4.9514 0.940872 0
M  V30 4676 H 431.52 -3.36313 1.63614 0
M  V30 4677 H 433.812 -6.52994 1.80569 0
M  V30 4678 H 434.755 -6.2618 3.30612 0
M  V30 4679 H 435.163 -5.34081 1.82806 0
M  V30 4680 N 434.561 -1.01147 -1.20859 0
M  V30 4681 C 435.81 -0.693214 -1.89413 0
M  V30 4682 C 436.123 0.779969 -1.79376 0
M  V30 4683 O 437.329 1.21057 -2.43017 0
M  V30 4684 C 435.785 -1.18949 -3.39675 0
M  V30 4685 C 435.393 -2.68921 -3.58309 0
M  V30 4686 C 437.137 -0.94642 -4.13815 0
M  V30 4687 C 435.044 -3.12056 -5.0237 0
M  V30 4688 H 433.974 -0.255595 -0.709357 0
M  V30 4689 H 436.625 -1.22349 -1.36759 0
M  V30 4690 H 435.007 -0.587228 -3.91622 0
M  V30 4691 H 436.181 -3.34652 -3.16772 0
M  V30 4692 H 434.496 -2.91314 -2.97532 0
M  V30 4693 H 437.093 -1.24417 -5.20023 0
M  V30 4694 H 437.436 0.117219 -4.16135 0
M  V30 4695 H 437.969 -1.5118 -3.67953 0
M  V30 4696 H 434.708 -4.17674 -5.05202 0
M  V30 4697 H 434.228 -2.51041 -5.44737 0
M  V30 4698 H 435.907 -3.04403 -5.70918 0
M  V30 4699 N 436.039 1.36541 -0.78704 0
M  V30 4700 C 436.949 2.3387 -0.184896 0
M  V30 4701 C 437.965 1.60927 0.661697 0
M  V30 4702 O 439.141 1.92927 0.57804 0
M  V30 4703 C 436.206 3.40122 0.672145 0
M  V30 4704 C 435.267 4.28867 -0.19267 0
M  V30 4705 C 434.5 5.30045 0.623561 0
M  V30 4706 O 434.723 5.39232 1.8597 0
M  V30 4707 O 433.657 6.01895 0.0247068 0
M  V30 4708 H 437.483 2.87126 -0.989562 0
M  V30 4709 H 435.068 1.38969 -0.548455 0
M  V30 4710 H 436.95 4.05093 1.16094 0
M  V30 4711 H 435.625 2.89169 1.45474 0
M  V30 4712 H 434.532 3.66945 -0.728166 0
M  V30 4713 H 435.865 4.83165 -0.938722 0
M  V30 4714 N 437.518 0.538854 1.48102 0
M  V30 4715 C 438.743 0.0102694 2.07397 0
M  V30 4716 C 439.168 -1.26562 1.39153 0
M  V30 4717 O 438.526 -1.75357 0.460387 0
M  V30 4718 C 438.574 -0.187602 3.60112 0
M  V30 4719 O 437.678 -1.25432 3.92862 0
M  V30 4720 H 437.019 0.0430975 0.6626 0
M  V30 4721 H 439.549 0.749301 1.90385 0
M  V30 4722 H 439.559 -0.407517 4.0596 0
M  V30 4723 H 438.234 0.744386 4.09184 0
M  V30 4724 H 436.811 -1.01636 3.58782 0
M  V30 4725 N 438.996 -1.55193 0.274407 0
M  V30 4726 C 440.224 -2.03987 -0.345943 0
M  V30 4727 C 440.639 -1.15279 -1.4952 0
M  V30 4728 O 439.996 -0.172759 -1.8168 0
M  V30 4729 C 440.047 -3.51898 -0.827631 0
M  V30 4730 O 439.768 -4.37231 0.275855 0
M  V30 4731 C 441.269 -4.16577 -1.51587 0
M  V30 4732 H 438.489 -0.666335 -0.0789892 0
M  V30 4733 H 441.033 -2.00423 0.406294 0
M  V30 4734 H 439.188 -3.55909 -1.52996 0
M  V30 4735 H 439.602 -5.24415 -0.0943638 0
M  V30 4736 H 441.076 -5.21678 -1.80433 0
M  V30 4737 H 441.553 -3.64707 -2.44716 0
M  V30 4738 H 442.159 -4.16568 -0.857409 0
M  V30 4739 N 440.474 -0.00167713 -1.576 0
M  V30 4740 C 441.406 1.0174 -2.05382 0
M  V30 4741 C 442.419 1.30595 -0.972052 0
M  V30 4742 O 443.608 1.27542 -1.24882 0
M  V30 4743 C 440.708 2.35174 -2.44022 0
M  V30 4744 C 439.881 2.25234 -3.74951 0
M  V30 4745 C 438.94 3.4137 -4.00441 0
M  V30 4746 O 437.966 3.19483 -4.71083 0
M  V30 4747 N 439.168 4.64275 -3.48467 0
M  V30 4748 H 441.933 0.609902 -2.93428 0
M  V30 4749 H 439.494 0.185672 -1.60832 0
M  V30 4750 H 441.486 3.11643 -2.58187 0
M  V30 4751 H 440.056 2.67659 -1.61485 0
M  V30 4752 H 439.276 1.33664 -3.70847 0
M  V30 4753 H 440.564 2.15767 -4.60784 0
M  V30 4754 H 439.962 4.84955 -2.91264 0
M  V30 4755 H 438.519 5.38005 -3.67959 0
M  V30 4756 N 441.952 1.55251 0.271103 0
M  V30 4757 C 442.884 1.84675 1.35749 0
M  V30 4758 C 443.897 0.731366 1.45447 0
M  V30 4759 O 445.086 1.00924 1.4723 0
M  V30 4760 C 442.186 1.99638 2.73857 0
M  V30 4761 C 441.359 3.30312 2.86727 0
M  V30 4762 C 440.418 3.35318 4.05522 0
M  V30 4763 O 439.444 4.08682 3.96191 0
M  V30 4764 N 440.646 2.62857 5.17577 0
M  V30 4765 H 443.411 2.78445 1.10853 0
M  V30 4766 H 440.972 1.55191 0.461218 0
M  V30 4767 H 442.964 2.00355 3.51625 0
M  V30 4768 H 441.534 1.12725 2.91568 0
M  V30 4769 H 440.754 3.42118 1.95829 0
M  V30 4770 H 442.042 4.16488 2.92258 0
M  V30 4771 H 441.44 2.02939 5.28046 0
M  V30 4772 H 439.997 2.69295 5.93568 0
M  V30 4773 N 443.43 -0.535701 1.48216 0
M  V30 4774 C 444.393 -1.623 1.61838 0
M  V30 4775 C 445.393 -1.53087 0.492024 0
M  V30 4776 O 446.583 -1.5686 0.757668 0
M  V30 4777 C 443.715 -3.01907 1.58319 0
M  V30 4778 H 444.908 -1.51564 2.58783 0
M  V30 4779 H 442.461 -0.757317 1.36727 0
M  V30 4780 H 443.196 -3.18155 0.628299 0
M  V30 4781 H 442.981 -3.10003 2.40085 0
M  V30 4782 H 444.471 -3.80969 1.71033 0
M  V30 4783 N 444.908 -1.36708 -0.784132 0
M  V30 4784 C 446.324 -1.17237 -1.08294 0
M  V30 4785 C 446.524 -5.93947e-05 -2.015 0
M  V30 4786 O 445.58 0.663686 -2.43622 0
M  V30 4787 C 446.893 -2.48557 -1.69233 0
M  V30 4788 C 448.441 -2.54968 -1.8155 0
M  V30 4789 C 448.916 -3.86388 -2.45904 0
M  V30 4790 N 450.407 -3.87762 -2.53367 0
M  V30 4791 C 451.142 -4.86191 -3.03983 0
M  V30 4792 N 450.638 -5.95015 -3.54866 0
M  V30 4793 N 452.431 -4.73606 -3.02743 0
M  V30 4794 H 444.582 -2.11758 -0.16501 0
M  V30 4795 H 446.845 -0.93822 -0.135822 0
M  V30 4796 H 446.551 -3.34638 -1.08215 0
M  V30 4797 H 446.425 -2.64748 -2.68679 0
M  V30 4798 H 448.812 -1.69302 -2.41704 0
M  V30 4799 H 448.893 -2.42672 -0.80895 0
M  V30 4800 H 448.537 -4.72462 -1.86392 0
M  V30 4801 H 448.467 -3.95982 -3.4714 0
M  V30 4802 H 450.958 -3.09145 -2.17343 0
M  V30 4803 H 451.271 -6.66086 -3.91854 0
M  V30 4804 H 449.616 -5.98676 -3.53003 0
M  V30 4805 H 452.807 -3.87717 -2.62284 0
M  V30 4806 H 452.98 -5.50473 -3.41881 0
M  V30 4807 N 446.386 1.0089 -1.21074 0
M  V30 4808 C 447.626 1.76142 -1.03699 0
M  V30 4809 C 447.99 1.87292 0.422587 0
M  V30 4810 O 449.191 2.59068 0.716752 0
M  V30 4811 C 447.462 3.13805 -1.7106 0
M  V30 4812 S 449.021 4.04996 -1.68889 0
M  V30 4813 H 445.839 0.606113 -0.371683 0
M  V30 4814 H 448.441 1.20744 -1.53756 0
M  V30 4815 H 447.145 3.0332 -2.76451 0
M  V30 4816 H 446.676 3.74276 -1.21166 0
M  V30 4817 H 448.691 4.90842 -0.727211 0
M  V30 4818 N 447.864 1.01787 1.20321 0
M  V30 4819 C 448.794 0.609625 2.25401 0
M  V30 4820 C 449.775 -0.375951 1.65893 0
M  V30 4821 O 450.96 -0.261101 1.92437 0
M  V30 4822 C 448.09 -0.0515995 3.47262 0
M  V30 4823 C 447.044 0.855095 4.19371 0
M  V30 4824 C 446.37 0.0595757 5.34667 0
M  V30 4825 C 447.67 2.16374 4.75373 0
M  V30 4826 H 449.364 1.48803 2.59804 0
M  V30 4827 H 446.91 0.716934 1.24884 0
M  V30 4828 H 448.863 -0.348764 4.19954 0
M  V30 4829 H 447.587 -0.964726 3.12027 0
M  V30 4830 H 446.246 1.13628 3.48546 0
M  V30 4831 H 445.894 -0.85524 4.95676 0
M  V30 4832 H 445.594 0.663406 5.83843 0
M  V30 4833 H 447.118 -0.231105 6.10162 0
M  V30 4834 H 448.532 1.92885 5.39878 0
M  V30 4835 H 446.929 2.71853 5.34991 0
M  V30 4836 H 447.999 2.82589 3.94045 0
M  V30 4837 N 449.342 -1.36122 0.79427 0
M  V30 4838 C 450.758 -1.5232 0.476525 0
M  V30 4839 C 450.958 -1.74685 -1.00436 0
M  V30 4840 O 450.014 -1.78115 -1.78973 0
M  V30 4841 C 451.327 -2.70607 1.31119 0
M  V30 4842 C 452.875 -2.8448 1.30537 0
M  V30 4843 C 453.35 -4.05778 2.12387 0
M  V30 4844 N 454.841 -4.12933 2.09859 0
M  V30 4845 C 455.576 -5.05876 2.69957 0
M  V30 4846 N 455.072 -6.04232 3.38934 0
M  V30 4847 N 456.865 -4.98528 2.59665 0
M  V30 4848 H 449.016 -1.1986 1.75349 0
M  V30 4849 H 451.279 -0.585418 0.745647 0
M  V30 4850 H 450.985 -2.60619 2.36158 0
M  V30 4851 H 450.859 -3.64888 0.955843 0
M  V30 4852 H 453.246 -2.93927 0.262876 0
M  V30 4853 H 453.327 -1.91093 1.70051 0
M  V30 4854 H 452.971 -3.97092 3.1667 0
M  V30 4855 H 452.901 -4.98323 1.70242 0
M  V30 4856 H 455.392 -3.42515 1.59662 0
M  V30 4857 H 455.705 -6.71724 3.82109 0
M  V30 4858 H 454.05 -6.04443 3.43036 0
M  V30 4859 H 457.241 -4.20641 2.05375 0
M  V30 4860 H 457.414 -5.70773 3.06793 0
M  V30 4861 N 450.82 -0.546701 -1.47814 0
M  V30 4862 C 452.097 0.0464413 -1.95545 0
M  V30 4863 C 452.477 1.4962 -1.48919 0
M  V30 4864 O 451.825 2.16752 -0.723232 0
M  V30 4865 C 452.035 -0.0881298 -3.48889 0
M  V30 4866 C 453.383 0.0626059 -4.24554 0
M  V30 4867 O 454.407 -0.0151555 -3.56197 0
M  V30 4868 O 453.266 0.228071 -5.46024 0
M  V30 4869 H 450.36 0.0700004 -0.824032 0
M  V30 4870 H 452.906 -0.612482 -1.58262 0
M  V30 4871 H 451.678 -1.09737 -3.75597 0
M  V30 4872 H 451.301 0.608886 -3.9291 0
M  V30 4873 N 452.299 1.55045 -0.282633 0
M  V30 4874 C 453.527 2.04168 0.33512 0
M  V30 4875 C 453.942 1.16071 1.48906 0
M  V30 4876 O 453.299 0.182391 1.81586 0
M  V30 4877 C 453.35 3.52332 0.808957 0
M  V30 4878 O 453.071 4.37078 -0.299038 0
M  V30 4879 C 454.572 4.17375 1.49375 0
M  V30 4880 H 451.792 0.666744 0.0754543 0
M  V30 4881 H 454.336 2.00205 -0.416918 0
M  V30 4882 H 452.491 3.56715 1.51106 0
M  V30 4883 H 452.905 5.24458 0.0665514 0
M  V30 4884 H 454.379 5.22627 1.77664 0
M  V30 4885 H 454.856 3.65999 2.42778 0
M  V30 4886 H 455.462 4.17016 0.835305 0
M  V30 4887 N 453.777 0.010035 1.57597 0
M  V30 4888 C 454.687 -0.994226 2.12491 0
M  V30 4889 C 455.703 -1.37013 1.07254 0
M  V30 4890 O 456.879 -1.45542 1.3921 0
M  V30 4891 C 453.944 -2.2642 2.62555 0
M  V30 4892 C 453.005 -1.95049 3.82432 0
M  V30 4893 C 452.238 -3.15991 4.30099 0
M  V30 4894 O 452.461 -4.28015 3.7704 0
M  V30 4895 O 451.395 -2.99403 5.22151 0
M  V30 4896 H 455.221 -0.557549 2.98538 0
M  V30 4897 H 452.806 -0.209413 1.47925 0
M  V30 4898 H 454.688 -3.01009 2.9491 0
M  V30 4899 H 453.363 -2.69306 1.796 0
M  V30 4900 H 452.27 -1.17904 3.55034 0
M  V30 4901 H 453.603 -1.56992 4.66491 0
M  V30 4902 N 455.255 -1.55392 -0.262866 0
M  V30 4903 C 456.187 -1.85392 -1.34768 0
M  V30 4904 C 457.2 -0.739069 -1.45057 0
M  V30 4905 O 458.389 -1.01703 -1.46693 0
M  V30 4906 C 455.489 -2.01088 -2.72795 0
M  V30 4907 C 454.662 -3.31828 -2.84972 0
M  V30 4908 C 453.721 -3.37464 -4.03738 0
M  V30 4909 O 452.747 -4.10778 -3.94018 0
M  V30 4910 N 453.949 -2.65599 -5.16176 0
M  V30 4911 H 456.714 -2.79029 -1.09375 0
M  V30 4912 H 454.275 -1.55434 -0.452981 0
M  V30 4913 H 456.267 -2.02217 -3.50557 0
M  V30 4914 H 454.837 -1.1427 -2.90966 0
M  V30 4915 H 454.057 -3.43152 -1.94012 0
M  V30 4916 H 455.345 -4.18032 -2.90045 0
M  V30 4917 H 454.743 -2.05736 -5.26962 0
M  V30 4918 H 453.3 -2.72439 -5.92132 0
M  V30 4919 N 456.733 0.527833 -1.48498 0
M  V30 4920 C 457.982 1.28003 -1.55878 0
M  V30 4921 C 458.295 1.9414 -0.238577 0
M  V30 4922 O 459.501 2.7083 -0.190643 0
M  V30 4923 C 457.957 2.32272 -2.74914 0
M  V30 4924 C 457.565 1.72196 -4.13585 0
M  V30 4925 C 459.309 3.08488 -2.91608 0
M  V30 4926 C 457.216 2.74417 -5.23879 0
M  V30 4927 H 456.146 0.481413 -0.580308 0
M  V30 4928 H 458.797 0.557195 -1.74836 0
M  V30 4929 H 457.179 3.07601 -2.49395 0
M  V30 4930 H 458.353 1.03041 -4.49132 0
M  V30 4931 H 456.668 1.08464 -4.02025 0
M  V30 4932 H 459.265 3.84879 -3.71177 0
M  V30 4933 H 459.608 3.64481 -2.01145 0
M  V30 4934 H 460.141 2.40274 -3.17038 0
M  V30 4935 H 456.88 2.23242 -6.16314 0
M  V30 4936 H 456.4 3.41893 -4.92818 0
M  V30 4937 H 458.079 3.37362 -5.52083 0
M  V30 4938 N 458.211 1.37122 0.776871 0
M  V30 4939 C 459.458 1.32047 1.53524 0
M  V30 4940 C 459.786 -0.0965631 1.9426 0
M  V30 4941 O 459.041 -1.06866 1.63945 0
M  V30 4942 C 459.34 2.20068 2.81611 0
M  V30 4943 C 459.006 3.68423 2.59953 0
M  V30 4944 C 457.668 4.08854 2.53755 0
M  V30 4945 C 460.02 4.62431 2.40431 0
M  V30 4946 C 457.348 5.41417 2.26018 0
M  V30 4947 C 459.7 5.95225 2.14219 0
M  V30 4948 C 458.364 6.34767 2.06462 0
M  V30 4949 H 457.634 0.483196 0.561785 0
M  V30 4950 H 460.281 1.69284 0.895268 0
M  V30 4951 H 458.586 1.75809 3.50141 0
M  V30 4952 H 460.283 2.13458 3.39465 0
M  V30 4953 H 456.873 3.36354 2.65638 0
M  V30 4954 H 461.057 4.32057 2.44213 0
M  V30 4955 H 456.313 5.71022 2.18504 0
M  V30 4956 H 460.487 6.67626 1.98112 0
M  V30 4957 H 458.114 7.37413 1.84733 0
M  V30 4958 N 459.689 -1.00246 1.21608 0
M  V30 4959 C 461.105 -1.26435 0.973975 0
M  V30 4960 C 461.305 -1.98642 -0.338143 0
M  V30 4961 O 460.361 -2.29026 -1.06317 0
M  V30 4962 C 461.674 -2.08551 2.16626 0
M  V30 4963 C 463.222 -2.21769 2.20879 0
M  V30 4964 C 463.697 -3.07267 3.39633 0
M  V30 4965 N 465.188 -3.14855 3.39736 0
M  V30 4966 C 465.923 -3.81274 4.28273 0
M  V30 4967 N 465.419 -4.497 5.27012 0
M  V30 4968 N 467.212 -3.7794 4.16074 0
M  V30 4969 H 459.363 -0.518089 2.05984 0
M  V30 4970 H 461.626 -0.291368 0.902113 0
M  V30 4971 H 461.332 -1.62847 3.11727 0
M  V30 4972 H 461.206 -3.09303 2.15897 0
M  V30 4973 H 463.593 -2.66691 1.26332 0
M  V30 4974 H 463.674 -1.20478 2.25652 0
M  V30 4975 H 463.318 -2.63047 4.34475 0
M  V30 4976 H 463.248 -4.08678 3.321 0
M  V30 4977 H 465.739 -2.66147 2.6828 0
M  V30 4978 H 466.052 -4.98092 5.90867 0
M  V30 4979 H 464.397 -4.48479 5.30935 0
M  V30 4980 H 467.588 -3.23638 3.38195 0
M  V30 4981 H 467.761 -4.29424 4.85282 0
M  V30 4982 N 461.167 -1.02423 -1.1978 0
M  V30 4983 C 462.077 -0.610919 -2.26506 0
M  V30 4984 C 463.093 0.355152 -1.70337 0
M  V30 4985 O 464.269 0.214195 -2.00258 0
M  V30 4986 C 461.334 0.0365921 -3.46681 0
M  V30 4987 C 460.395 -0.976389 -4.18049 0
M  V30 4988 C 459.628 -0.359683 -5.32487 0
M  V30 4989 O 459.851 0.838601 -5.64202 0
M  V30 4990 O 458.785 -1.08022 -5.92127 0
M  V30 4991 H 462.611 -1.49965 -2.64091 0
M  V30 4992 H 460.196 -0.794156 -1.26545 0
M  V30 4993 H 462.078 0.39786 -4.19518 0
M  V30 4994 H 460.753 0.899398 -3.10954 0
M  V30 4995 H 459.66 -1.38916 -3.47352 0
M  V30 4996 H 460.993 -1.80941 -4.57735 0
M  V30 4997 N 462.645 1.35699 -0.801477 0
M  V30 4998 C 463.893 1.9852 -0.37871 0
M  V30 4999 C 464.214 1.63907 1.05638 0
M  V30 5000 O 463.484 0.919013 1.73006 0
M  V30 5001 H 462.064 0.734322 -0.137042 0
M  V30 5002 H 464.726 1.65697 -1.02619 0
M  V30 5003 H 463.822 3.08382 -0.480284 0
M  V30 5004 N 464.123 0.554532 1.47522 0
M  V30 5005 C 465.534 0.120446 1.86311 0
M  V30 5006 C 465.885 -1.30904 1.46145 0
M  V30 5007 O 465.01 -1.98434 0.863294 0
M  V30 5008 C 465.605 0.211808 3.38137 0
M  V30 5009 C 464.164 -0.167224 3.76028 0
M  V30 5010 C 463.311 0.560576 2.71575 0
M  V30 5011 H 466.262 0.764408 1.39077 0
M  V30 5012 H 466.283 -0.570275 3.76202 0
M  V30 5013 H 465.795 1.25232 3.6734 0
M  V30 5014 H 463.896 -1.20894 3.52442 0
M  V30 5015 H 464.009 0.189473 4.78725 0
M  V30 5016 H 462.373 0.00396836 2.547 0
M  V30 5017 H 463.156 1.60219 3.0362 0
M  V30 5018 N 465.601 -1.54893 0.290851 0
M  V30 5019 C 466.847 -2.0023 -0.321867 0
M  V30 5020 C 467.18 -1.179 -1.54316 0
M  V30 5021 O 466.455 -0.25293 -1.92848 0
M  V30 5022 C 466.738 -3.53456 -0.688515 0
M  V30 5023 C 466.591 -4.46532 0.541209 0
M  V30 5024 C 467.91 -4.13057 -1.51895 0
M  V30 5025 H 465.029 -0.727891 -0.115515 0
M  V30 5026 H 467.671 -1.85722 0.400931 0
M  V30 5027 H 465.821 -3.6595 -1.30433 0
M  V30 5028 H 467.493 -4.4596 1.17973 0
M  V30 5029 H 465.736 -4.17545 1.17636 0
M  V30 5030 H 466.407 -5.51475 0.240675 0
M  V30 5031 H 468.883 -4.03937 -0.99872 0
M  V30 5032 H 467.759 -5.20448 -1.74429 0
M  V30 5033 H 468.02 -3.64284 -2.50498 0
M  V30 5034 N 467.08 -0.0183926 -1.57589 0
M  V30 5035 C 467.99 0.982943 -2.13015 0
M  V30 5036 C 469.006 1.36443 -1.07979 0
M  V30 5037 O 470.182 1.44802 -1.3998 0
M  V30 5038 C 467.247 2.25024 -2.63752 0
M  V30 5039 C 466.308 1.93018 -3.83461 0
M  V30 5040 C 465.541 3.13706 -4.31769 0
M  V30 5041 O 465.764 4.2601 -3.79305 0
M  V30 5042 O 464.698 2.96629 -5.23732 0
M  V30 5043 H 468.524 0.541709 -2.9883 0
M  V30 5044 H 466.109 0.201565 -1.48034 0
M  V30 5045 H 467.991 2.99441 -2.96502 0
M  V30 5046 H 466.666 2.68349 -1.81026 0
M  V30 5047 H 465.573 1.16019 -3.55655 0
M  V30 5048 H 466.906 1.54516 -4.67317 0
M  V30 5049 N 468.558 1.5553 0.254621 0
M  V30 5050 C 469.807 1.76202 0.981612 0
M  V30 5051 C 470.12 0.580883 1.86776 0
M  V30 5052 O 471.326 0.670448 2.63092 0
M  V30 5053 C 469.782 3.11921 1.79537 0
M  V30 5054 C 469.39 4.37659 0.956991 0
M  V30 5055 C 471.134 3.41936 2.51555 0
M  V30 5056 C 469.041 5.64411 1.76619 0
M  V30 5057 H 467.971 0.656841 0.370237 0
M  V30 5058 H 470.622 1.81969 0.236556 0
M  V30 5059 H 469.004 3.00241 2.58208 0
M  V30 5060 H 470.178 4.60307 0.21315 0
M  V30 5061 H 468.493 4.14922 0.350497 0
M  V30 5062 H 471.09 4.33849 3.12536 0
M  V30 5063 H 471.433 2.62905 3.22779 0
M  V30 5064 H 471.966 3.54797 1.799 0
M  V30 5065 H 468.705 6.46241 1.09783 0
M  V30 5066 H 468.225 5.45877 2.48551 0
M  V30 5067 H 469.904 6.03386 2.33527 0
M  V30 5068 N 470.036 -0.519951 1.48776 0
M  V30 5069 C 471.284 -1.2727 1.56993 0
M  V30 5070 C 471.605 -1.9339 0.25004 0
M  V30 5071 O 470.875 -1.81822 -0.729216 0
M  V30 5072 H 469.455 -0.472732 0.578389 0
M  V30 5073 H 472.117 -0.604234 1.85297 0
M  V30 5074 H 471.213 -2.04669 2.3562 0
M  V30 5075 N 471.514 -1.37532 -0.769588 0
M  V30 5076 C 472.444 -1.36172 -1.89682 0
M  V30 5077 C 473.425 -0.23001 -1.68538 0
M  V30 5078 O 474.61 -0.43069 -1.89364 0
M  V30 5079 C 471.74 -1.1701 -3.26995 0
M  V30 5080 C 470.694 -2.27216 -3.62708 0
M  V30 5081 C 470.02 -1.93174 -4.98586 0
M  V30 5082 C 471.32 -3.6941 -3.69234 0
M  V30 5083 H 473.014 -2.30499 -1.91078 0
M  V30 5084 H 470.56 -1.10953 -0.917902 0
M  V30 5085 H 472.513 -1.14688 -4.05493 0
M  V30 5086 H 471.237 -0.191395 -3.26039 0
M  V30 5087 H 469.896 -2.28697 -2.86519 0
M  V30 5088 H 469.544 -0.938281 -4.94171 0
M  V30 5089 H 469.244 -2.66973 -5.23449 0
M  V30 5090 H 470.768 -1.92443 -5.79481 0
M  V30 5091 H 472.182 -3.70047 -4.37879 0
M  V30 5092 H 470.579 -4.4228 -4.05597 0
M  V30 5093 H 471.649 -4.0288 -2.69844 0
M  V30 5094 N 472.992 0.995999 -1.22138 0
M  V30 5095 C 474.403 1.54961 -1.04135 0
M  V30 5096 C 474.754 1.92159 0.396147 0
M  V30 5097 O 473.879 1.74435 1.28069 0
M  V30 5098 C 474.474 2.81581 -1.88408 0
M  V30 5099 C 473.033 3.33396 -1.74712 0
M  V30 5100 C 472.18 2.06509 -1.85066 0
M  V30 5101 H 475.131 0.817436 -1.36028 0
M  V30 5102 H 475.152 3.53822 -1.39966 0
M  V30 5103 H 474.664 2.54476 -2.93025 0
M  V30 5104 H 472.765 3.65416 -0.728159 0
M  V30 5105 H 472.878 4.04208 -2.57202 0
M  V30 5106 H 471.242 2.19925 -1.28472 0
M  V30 5107 H 472.025 1.81804 -2.91208 0
M  V30 5108 N 474.47 1.03057 1.19235 0
M  V30 5109 C 475.71 0.736757 1.9066 0
M  V30 5110 C 476.074 -0.721521 1.77927 0
M  V30 5111 O 477.275 -1.12849 2.43964 0
M  V30 5112 C 475.546 1.17755 3.37444 0
M  V30 5113 S 477.105 1.00783 4.27069 0
M  V30 5114 H 473.923 0.268174 0.658486 0
M  V30 5115 H 476.525 1.32076 1.4414 0
M  V30 5116 H 475.229 2.23448 3.44237 0
M  V30 5117 H 474.76 0.586912 3.88997 0
M  V30 5118 H 476.775 -0.0806356 4.96134 0
M  V30 5119 N 475.948 -1.35272 0.808662 0
M  V30 5120 C 477.173 -2.03477 0.401475 0
M  V30 5121 C 477.598 -1.60537 -0.980279 0
M  V30 5122 O 476.956 -0.78304 -1.63518 0
M  V30 5123 C 477.004 -3.57181 0.495354 0
M  V30 5124 O 476.108 -4.09474 -0.490397 0
M  V30 5125 H 475.449 -0.642561 0.167366 0
M  V30 5126 H 477.979 -1.72824 1.09512 0
M  V30 5127 H 477.989 -4.06356 0.365912 0
M  V30 5128 H 476.664 -3.87784 1.5032 0
M  V30 5129 H 475.241 -3.71516 -0.321023 0
M  V30 5130 N 477.426 -0.562348 -1.47226 0
M  V30 5131 C 478.675 -0.038041 -2.01664 0
M  V30 5132 C 478.988 1.32199 -1.44162 0
M  V30 5133 O 480.194 1.9365 -1.90294 0
M  V30 5134 C 478.65 -0.0174958 -3.59896 0
M  V30 5135 C 478.258 -1.3746 -4.2639 0
M  V30 5136 C 480.002 0.453934 -4.22066 0
M  V30 5137 C 477.909 -1.31289 -5.76643 0
M  V30 5138 H 476.839 -0.0104511 -0.753928 0
M  V30 5139 H 479.49 -0.710966 -1.69167 0
M  V30 5140 H 477.872 0.721182 -3.89378 0
M  V30 5141 H 479.046 -2.1314 -4.08544 0
M  V30 5142 H 477.361 -1.78438 -3.7623 0
M  V30 5143 H 479.958 0.518584 -5.32179 0
M  V30 5144 H 480.301 1.46706 -3.89594 0
M  V30 5145 H 480.834 -0.230044 -3.97134 0
M  V30 5146 H 477.573 -2.30217 -6.13743 0
M  V30 5147 H 477.093 -0.597973 -5.96812 0
M  V30 5148 H 478.772 -1.01713 -6.38955 0
M  V30 5149 N 478.904 1.54736 -0.299062 0
M  V30 5150 C 479.851 2.23448 0.577899 0
M  V30 5151 C 480.821 1.21637 1.13109 0
M  V30 5152 O 482.006 1.50252 1.17597 0
M  V30 5153 C 479.146 2.9774 1.74484 0
M  V30 5154 C 478.259 4.1432 1.22323 0
M  V30 5155 C 477.394 4.76199 2.35388 0
M  V30 5156 C 476.433 5.84927 1.80351 0
M  V30 5157 N 475.57 6.4077 2.86982 0
M  V30 5158 H 480.41 2.97996 -0.0146545 0
M  V30 5159 H 477.947 1.47088 -0.0190013 0
M  V30 5160 H 479.905 3.39045 2.43114 0
M  V30 5161 H 478.535 2.25572 2.30905 0
M  V30 5162 H 477.587 3.7797 0.429249 0
M  V30 5163 H 478.899 4.92659 0.780309 0
M  V30 5164 H 478.053 5.20346 3.11969 0
M  V30 5165 H 476.792 3.97188 2.83006 0
M  V30 5166 H 475.797 5.40207 1.02259 0
M  V30 5167 H 477.022 6.65821 1.3364 0
M  V30 5168 H 474.968 5.64643 3.33938 0
M  V30 5169 H 474.885 7.1445 2.4718 0
M  V30 5170 H 476.153 6.89574 3.63466 0
M  V30 5171 N 480.382 0.0267497 1.57577 0
M  V30 5172 C 481.33 -0.973923 2.11229 0
M  V30 5173 C 482.324 -1.33849 1.03831 0
M  V30 5174 O 483.53 -1.321 1.22269 0
M  V30 5175 H 479.905 -0.331844 0.674821 0
M  V30 5176 H 481.876 -0.496092 2.94247 0
M  V30 5177 C 480.625 -2.24798 2.65257 0
M  V30 5178 H 479.948 -1.9762 3.47543 0
M  V30 5179 H 481.388 -2.93031 3.06445 0
M  V30 5180 C 479.847 -2.97611 1.57891 0
M  V30 5181 O 480.377 -3.89629 0.97735 0
M  V30 5182 N 478.583 -2.59905 1.29992 0
M  V30 5183 H 478.13 -1.85154 1.79097 0
M  V30 5184 H 478.088 -3.08932 0.583798 0
M  V30 5185 N 481.861 -1.55662 -0.24637 0
M  V30 5186 C 482.771 -1.93495 -1.32653 0
M  V30 5187 C 483.787 -0.835462 -1.5263 0
M  V30 5188 O 484.963 -1.1369 -1.66242 0
M  V30 5189 C 482.028 -2.22242 -2.66101 0
M  V30 5190 C 481.089 -3.45625 -2.54641 0
M  V30 5191 C 480.322 -3.72991 -3.81724 0
M  V30 5192 O 480.545 -3.02421 -4.8363 0
M  V30 5193 O 479.479 -4.66515 -3.80325 0
M  V30 5194 H 483.305 -2.85498 -1.03559 0
M  V30 5195 H 480.89 -1.42551 -0.44717 0
M  V30 5196 H 482.772 -2.42037 -3.44958 0
M  V30 5197 H 481.447 -1.33417 -2.94926 0
M  V30 5198 H 480.354 -3.31136 -1.74067 0
M  V30 5199 H 481.687 -4.34754 -2.3076 0
M  V30 5200 N 483.339 0.512053 -1.4905 0
M  V30 5201 C 484.302 1.59704 -1.64399 0
M  V30 5202 C 485.302 1.52285 -0.516317 0
M  V30 5203 O 486.492 1.55635 -0.782527 0
M  V30 5204 C 483.624 2.9935 -1.63102 0
M  V30 5205 H 484.817 1.47428 -2.61161 0
M  V30 5206 H 482.37 0.735469 -1.37915 0
M  V30 5207 H 483.105 3.17116 -0.678836 0
M  V30 5208 H 482.89 3.06144 -2.44986 0
M  V30 5209 H 484.38 3.782 -1.77072 0
M  V30 5210 N 484.817 1.37938 0.762283 0
M  V30 5211 C 486.233 1.18945 1.06415 0
M  V30 5212 C 486.433 0.0321163 2.01474 0
M  V30 5213 O 485.489 -0.624844 2.44647 0
M  V30 5214 C 486.802 2.51218 1.65258 0
M  V30 5215 C 488.35 2.57824 1.7747 0
M  V30 5216 C 488.825 3.90251 2.39725 0
M  V30 5217 N 490.316 3.91744 2.47166 0
M  V30 5218 C 491.051 4.90966 2.96209 0
M  V30 5219 N 490.547 6.00585 3.45354 0
M  V30 5220 N 492.34 4.78363 2.9517 0
M  V30 5221 H 484.491 2.11994 0.131301 0
M  V30 5222 H 486.754 0.940262 0.120879 0
M  V30 5223 H 486.46 3.36317 1.02878 0
M  V30 5224 H 486.334 2.68989 2.64433 0
M  V30 5225 H 488.721 1.73126 2.3898 0
M  V30 5226 H 488.802 2.43928 0.770241 0
M  V30 5227 H 488.446 4.75368 1.78852 0
M  V30 5228 H 488.376 4.01454 3.40796 0
M  V30 5229 H 490.867 3.12563 2.12397 0
M  V30 5230 H 491.18 6.72236 3.81207 0
M  V30 5231 H 489.525 6.04217 3.43434 0
M  V30 5232 H 492.716 3.91841 2.56082 0
M  V30 5233 H 492.889 5.55843 3.33081 0
M  V30 5234 N 486.295 -0.989507 1.22664 0
M  V30 5235 C 487.706 -1.54406 1.04955 0
M  V30 5236 C 488.057 -1.92366 -0.385951 0
M  V30 5237 O 487.182 -1.75111 -1.27142 0
M  V30 5238 C 487.777 -2.80578 1.89899 0
M  V30 5239 C 486.336 -3.32464 1.76478 0
M  V30 5240 C 485.483 -2.05524 1.86159 0
M  V30 5241 H 488.434 -0.810211 1.3646 0
M  V30 5242 H 488.455 -3.53075 1.4184 0
M  V30 5243 H 487.967 -2.52918 2.94371 0
M  V30 5244 H 486.068 -3.65024 0.747528 0
M  V30 5245 H 486.181 -4.02838 2.59342 0
M  V30 5246 H 484.545 -2.19241 1.29636 0
M  V30 5247 H 485.328 -1.80258 2.92168 0
M  V30 5248 N 487.773 -1.03688 -1.18687 0
M  V30 5249 C 489.184 -0.766488 -1.70241 0
M  V30 5250 C 489.535 0.713052 -1.82784 0
M  V30 5251 O 488.66 1.55529 -1.50465 0
M  V30 5252 C 489.255 -1.38475 -3.09209 0
M  V30 5253 C 487.814 -1.16276 -3.5799 0
M  V30 5254 C 486.961 -1.4778 -2.34641 0
M  V30 5255 H 489.912 -1.20378 -1.03415 0
M  V30 5256 H 489.933 -0.785939 -3.72295 0
M  V30 5257 H 489.445 -2.46157 -3.00048 0
M  V30 5258 H 487.546 -0.104508 -3.72453 0
M  V30 5259 H 487.659 -1.8571 -4.41643 0
M  V30 5260 H 486.023 -0.897366 -2.38368 0
M  V30 5261 H 486.806 -2.56562 -2.28102 0
M  V30 5262 N 489.251 1.34841 -0.815825 0
M  V30 5263 C 490.491 2.00321 -0.406297 0
M  V30 5264 C 490.855 1.63293 1.00992 0
M  V30 5265 O 492.056 2.21563 1.52195 0
M  V30 5266 C 490.327 3.52421 -0.594469 0
M  V30 5267 S 491.886 4.37926 -0.276735 0
M  V30 5268 H 488.704 0.694155 -0.153848 0
M  V30 5269 H 491.306 1.64263 -1.06009 0
M  V30 5270 H 490.01 3.76858 -1.625 0
M  V30 5271 H 489.541 3.9333 0.0743157 0
M  V30 5272 H 491.556 4.87743 0.912215 0
M  V30 5273 N 490.729 0.570148 1.46925 0
M  V30 5274 C 491.659 -0.158274 2.32963 0
M  V30 5275 C 492.64 -0.896093 1.44583 0
M  V30 5276 O 493.825 -0.874022 1.7342 0
M  V30 5277 C 490.955 -1.18055 3.26619 0
M  V30 5278 C 489.909 -0.558379 4.24342 0
M  V30 5279 C 489.235 -1.68623 5.07415 0
M  V30 5280 C 490.535 0.496295 5.19937 0
M  V30 5281 H 492.229 0.560046 2.94115 0
M  V30 5282 H 489.775 0.270775 1.41431 0
M  V30 5283 H 491.728 -1.69841 3.85658 0
M  V30 5284 H 490.452 -1.92899 2.63548 0
M  V30 5285 H 489.111 -0.0617157 3.66548 0
M  V30 5286 H 488.759 -2.42402 4.40738 0
M  V30 5287 H 488.459 -1.27564 5.73586 0
M  V30 5288 H 489.983 -2.20709 5.69315 0
M  V30 5289 H 491.397 0.0640052 5.73264 0
M  V30 5290 H 489.794 0.82649 5.94381 0
M  V30 5291 H 490.864 1.38735 4.6463 0
M  V30 5292 N 492.207 -1.54576 0.307264 0
M  V30 5293 C 493.618 -1.8579 -0.184121 0
M  V30 5294 C 493.969 -1.22914 -1.52927 0
M  V30 5295 O 493.094 -0.529126 -2.09831 0
M  V30 5296 C 493.689 -3.37081 -0.340862 0
M  V30 5297 C 492.248 -3.68304 -0.776465 0
M  V30 5298 C 491.395 -2.77076 0.111503 0
M  V30 5299 H 494.346 -1.49656 0.528078 0
M  V30 5300 H 494.367 -3.61922 -1.17443 0
M  V30 5301 H 493.879 -3.82815 0.638309 0
M  V30 5302 H 491.98 -3.28092 -1.76596 0
M  V30 5303 H 492.093 -4.75434 -0.591512 0
M  V30 5304 H 490.457 -2.51374 -0.410256 0
M  V30 5305 H 491.24 -3.25632 1.08714 0
M  V30 5306 N 493.685 -0.035106 -1.57561 0
M  V30 5307 C 494.913 0.652258 -1.9635 0
M  V30 5308 C 495.328 1.65317 -0.911897 0
M  V30 5309 O 494.685 1.82194 0.105657 0
M  V30 5310 C 494.736 1.35337 -3.35211 0
M  V30 5311 O 494.457 0.392548 -4.36338 0
M  V30 5312 C 495.958 2.13199 -3.88666 0
M  V30 5313 H 493.178 0.179444 -0.646561 0
M  V30 5314 H 495.722 -0.0966459 -2.04271 0
M  V30 5315 H 493.877 2.05362 -3.28489 0
M  V30 5316 H 494.291 0.891097 -5.16875 0
M  V30 5317 H 495.765 2.577 -4.88154 0
M  V30 5318 H 496.242 2.97353 -3.23231 0
M  V30 5319 H 496.848 1.48118 -3.98674 0
M  V30 5320 N 495.163 1.55791 0.238111 0
M  V30 5321 C 496.574 1.68383 0.806472 0
M  V30 5322 C 496.925 0.634157 1.85669 0
M  V30 5323 O 496.05 -0.217913 2.153 0
M  V30 5324 C 496.645 3.05268 1.46959 0
M  V30 5325 C 495.204 3.1977 1.98555 0
M  V30 5326 C 494.351 2.64279 0.839763 0
M  V30 5327 H 497.302 1.58694 0.0137535 0
M  V30 5328 H 497.323 3.00203 2.33792 0
M  V30 5329 H 496.835 3.81643 0.704993 0
M  V30 5330 H 494.936 2.48234 2.77868 0
M  V30 5331 H 495.049 4.26788 2.17689 0
M  V30 5332 H 493.413 2.22329 1.24265 0
M  V30 5333 H 494.196 3.43187 0.0881032 0
M  V30 5334 N 496.642 -0.504142 1.49319 0
M  V30 5335 C 497.89 -1.25598 1.58334 0
M  V30 5336 C 498.211 -1.93114 0.270538 0
M  V30 5337 O 497.481 -1.82585 -0.709891 0
M  V30 5338 H 496.061 -0.466571 0.58337 0
M  V30 5339 H 498.723 -0.584547 1.85928 0
M  V30 5340 H 497.819 -2.02159 2.37778 0
M  V30 5341 N 498.12 -1.38341 -0.754957 0
M  V30 5342 C 499.067 -1.3546 -1.86867 0
M  V30 5343 C 500.037 -0.217369 -1.64672 0
M  V30 5344 O 501.222 -0.409383 -1.86356 0
M  V30 5345 C 498.362 -1.18413 -3.24149 0
M  V30 5346 C 497.475 -2.41511 -3.58185 0
M  V30 5347 C 496.61 -2.17205 -4.84763 0
M  V30 5348 C 495.649 -3.36081 -5.11582 0
M  V30 5349 N 494.786 -3.11219 -6.29354 0
M  V30 5350 H 499.626 -2.30672 -1.88664 0
M  V30 5351 H 497.163 -1.14607 -0.922154 0
M  V30 5352 H 499.121 -1.06545 -4.03366 0
M  V30 5353 H 497.751 -0.268397 -3.21682 0
M  V30 5354 H 496.803 -2.64056 -2.73822 0
M  V30 5355 H 498.115 -3.30115 -3.73932 0
M  V30 5356 H 497.269 -2.02465 -5.7192 0
M  V30 5357 H 496.008 -1.25964 -4.71152 0
M  V30 5358 H 495.013 -3.51341 -4.22894 0
M  V30 5359 H 496.238 -4.28196 -5.27091 0
M  V30 5360 H 494.184 -2.22624 -6.17069 0
M  V30 5361 H 494.101 -3.93373 -6.45596 0
M  V30 5362 H 495.369 -3.00132 -7.19403 0
M  V30 5363 N 499.598 0.982988 -1.23187 0
M  V30 5364 C 501.014 1.2487 -0.993967 0
M  V30 5365 C 501.214 1.99155 0.306498 0
M  V30 5366 O 500.27 2.30688 1.0266 0
M  V30 5367 C 501.583 2.05078 -2.19917 0
M  V30 5368 C 503.131 2.18227 -2.2438 0
M  V30 5369 C 503.606 3.01825 -3.44479 0
M  V30 5370 N 505.097 3.09411 -3.44702 0
M  V30 5371 C 505.832 3.74412 -4.34285 0
M  V30 5372 N 505.328 4.41259 -5.341 0
M  V30 5373 N 507.121 3.71273 -4.22035 0
M  V30 5374 H 499.272 0.485253 -2.06783 0
M  V30 5375 H 501.535 0.276979 -0.906635 0
M  V30 5376 H 501.241 1.57867 -3.14279 0
M  V30 5377 H 501.115 3.05829 -2.2079 0
M  V30 5378 H 503.502 2.64648 -1.30559 0
M  V30 5379 H 503.583 1.16873 -2.2754 0
M  V30 5380 H 503.227 2.56102 -4.38605 0
M  V30 5381 H 503.157 4.03342 -3.38559 0
M  V30 5382 H 505.648 2.61845 -2.7248 0
M  V30 5383 H 505.961 4.88629 -5.98717 0
M  V30 5384 H 504.306 4.39975 -5.38002 0
M  V30 5385 H 507.497 3.18217 -3.43301 0
M  V30 5386 H 507.67 4.21649 -4.92053 0
M  V30 5387 N 501.076 1.04316 1.18135 0
M  V30 5388 C 501.986 0.646876 2.25505 0
M  V30 5389 C 503.002 -0.328008 1.7088 0
M  V30 5390 O 504.178 -0.182309 2.00573 0
M  V30 5391 C 501.243 0.0185664 3.46695 0
M  V30 5392 C 500.304 1.04277 4.16443 0
M  V30 5393 C 499.537 0.444352 5.31847 0
M  V30 5394 O 499.76 -0.748735 5.65465 0
M  V30 5395 O 498.694 1.17428 5.90334 0
M  V30 5396 H 502.52 1.54147 2.61672 0
M  V30 5397 H 500.105 0.814188 1.25265 0
M  V30 5398 H 501.987 -0.331068 4.20097 0
M  V30 5399 H 500.662 -0.849814 3.12346 0
M  V30 5400 H 499.569 1.44425 3.45098 0
M  V30 5401 H 500.902 1.882 4.54798 0
M  V30 5402 N 502.554 -1.34406 0.822964 0
M  V30 5403 C 503.965 -1.8069 0.469879 0
M  V30 5404 C 504.316 -1.68223 -1.00972 0
M  V30 5405 O 503.441 -1.22226 -1.78577 0
M  V30 5406 C 504.036 -3.28064 0.846118 0
M  V30 5407 C 502.595 -3.72428 0.545402 0
M  V30 5408 C 501.742 -2.56116 1.06301 0
M  V30 5409 H 504.693 -1.22153 1.01313 0
M  V30 5410 H 504.714 -3.80205 0.149922 0
M  V30 5411 H 504.226 -3.37107 1.92304 0
M  V30 5412 H 502.327 -3.68924 -0.522109 0
M  V30 5413 H 502.44 -4.66548 1.0895 0
M  V30 5414 H 500.804 -2.50048 0.484554 0
M  V30 5415 H 501.587 -2.67928 2.14638 0
M  V30 5416 N 504.032 -0.577932 -1.46621 0
M  V30 5417 C 504.964 0.195801 -2.28362 0
M  V30 5418 C 505.977 0.859983 -1.38232 0
M  V30 5419 O 507.166 0.730349 -1.62875 0
M  V30 5420 C 504.266 1.29639 -3.13124 0
M  V30 5421 C 503.439 0.725049 -4.31349 0
M  V30 5422 C 502.498 1.71274 -4.97546 0
M  V30 5423 O 501.524 1.25067 -5.5529 0
M  V30 5424 N 502.726 3.04672 -4.94121 0
M  V30 5425 H 505.491 -0.505468 -2.95407 0
M  V30 5426 H 503.052 -0.415381 -1.56481 0
M  V30 5427 H 505.044 1.95631 -3.54275 0
M  V30 5428 H 503.614 1.90059 -2.48186 0
M  V30 5429 H 502.834 -0.112205 -3.9404 0
M  V30 5430 H 504.122 0.323034 -5.07774 0
M  V30 5431 H 503.52 3.4484 -4.48444 0
M  V30 5432 H 502.077 3.66166 -5.39227 0
M  V30 5433 N 505.51 1.54411 -0.315457 0
M  V30 5434 C 506.758 2.00023 0.288971 0
M  V30 5435 C 507.079 1.20529 1.5329 0
M  V30 5436 O 506.349 0.304986 1.93511 0
M  V30 5437 H 504.929 0.738891 0.109766 0
M  V30 5438 H 507.591 1.90094 -0.430129 0
M  V30 5439 H 506.687 3.07198 0.550999 0
M  V30 5440 N 506.988 0.0434614 1.5754 0
M  V30 5441 C 508.237 -0.631454 1.91561 0
M  V30 5442 C 508.55 -1.72457 0.92292 0
M  V30 5443 O 509.756 -2.45712 1.15489 0
M  V30 5444 C 508.212 -1.17447 3.40197 0
M  V30 5445 C 507.82 -0.113867 4.47855 0
M  V30 5446 C 509.564 -1.82507 3.83264 0
M  V30 5447 C 507.471 -0.669326 5.876 0
M  V30 5448 H 506.401 -0.239629 0.714908 0
M  V30 5449 H 509.052 0.111097 1.83163 0
M  V30 5450 H 507.434 -1.96909 3.43574 0
M  V30 5451 H 508.608 0.659348 4.56058 0
M  V30 5452 H 506.923 0.438821 4.14081 0
M  V30 5453 H 509.52 -2.25047 4.85034 0
M  V30 5454 H 509.863 -2.67365 3.19095 0
M  V30 5455 H 510.396 -1.09712 3.82372 0
M  V30 5456 H 507.135 0.141449 6.55347 0
M  V30 5457 H 506.655 -1.4107 5.82974 0
M  V30 5458 H 508.334 -1.15463 6.36614 0
M  V30 5459 N 508.466 -1.55915 -0.229846 0
M  V30 5460 C 509.691 -1.8296 -0.976743 0
M  V30 5461 C 510.116 -0.622735 -1.77493 0
M  V30 5462 O 509.474 0.428431 -1.76165 0
M  V30 5463 C 509.522 -3.07916 -1.8767 0
M  V30 5464 O 508.626 -2.86028 -2.97088 0
M  V30 5465 H 507.967 -0.603453 -0.277021 0
M  V30 5466 H 510.497 -2.0312 -0.245669 0
M  V30 5467 H 510.507 -3.37802 -2.2881 0
M  V30 5468 H 509.182 -3.95389 -1.28996 0
M  V30 5469 H 507.759 -2.67355 -2.59954 0
M  V30 5470 N 509.944 0.496216 -1.49584 0
M  V30 5471 C 511.19 1.24918 -1.60521 0
M  V30 5472 C 511.545 1.90197 -0.290352 0
M  V30 5473 O 510.838 1.77967 0.709813 0
M  V30 5474 C 511.032 2.3359 -2.705 0
M  V30 5475 C 510.861 1.78969 -4.12553 0
M  V30 5476 C 509.631 1.60057 -4.79281 0
M  V30 5477 C 511.829 1.29883 -4.97629 0
M  V30 5478 N 509.811 1.00415 -6.05632 0
M  V30 5479 C 511.182 0.824057 -6.14499 0
M  V30 5480 C 513.237 1.18501 -4.83593 0
M  V30 5481 C 511.94 0.246721 -7.18877 0
M  V30 5482 C 513.966 0.621634 -5.88124 0
M  V30 5483 C 513.328 0.157116 -7.04225 0
M  V30 5484 H 509.427 0.446896 -0.641722 0
M  V30 5485 H 512.011 0.555456 -1.86609 0
M  V30 5486 H 510.182 3.00418 -2.46178 0
M  V30 5487 H 511.914 3.00628 -2.70933 0
M  V30 5488 H 508.669 1.84562 -4.36158 0
M  V30 5489 H 509.093 0.725074 -6.73106 0
M  V30 5490 H 513.735 1.53012 -3.94141 0
M  V30 5491 H 511.453 -0.110651 -8.08024 0
M  V30 5492 H 515.039 0.536279 -5.79323 0
M  V30 5493 H 513.919 -0.272009 -7.83728 0
M  V30 5494 N 511.423 1.38739 0.74761 0
M  V30 5495 C 512.333 1.38696 1.89211 0
M  V30 5496 C 513.349 0.283303 1.71678 0
M  V30 5497 O 514.525 0.522713 1.94498 0
M  V30 5498 C 511.59 1.21662 3.24653 0
M  V30 5499 C 510.651 2.41886 3.54669 0
M  V30 5500 C 509.884 2.25655 4.83648 0
M  V30 5501 O 510.107 1.25339 5.56459 0
M  V30 5502 O 509.041 3.14372 5.13277 0
M  V30 5503 H 512.867 2.35143 1.92202 0
M  V30 5504 H 510.452 1.19721 0.893708 0
M  V30 5505 H 512.334 1.14246 4.05618 0
M  V30 5506 H 511.009 0.283024 3.2246 0
M  V30 5507 H 509.916 2.54877 2.73841 0
M  V30 5508 H 511.249 3.33895 3.61628 0
M  V30 5509 N 512.901 -0.976442 1.23707 0
M  V30 5510 C 514.126 -1.75875 1.09922 0
M  V30 5511 C 514.551 -1.84911 -0.34489 0
M  V30 5512 O 513.909 -1.31363 -1.24954 0
M  V30 5513 C 513.957 -3.16179 1.73388 0
M  V30 5514 O 513.061 -4.00124 0.99871 0
M  V30 5515 H 512.402 -0.540954 0.385052 0
M  V30 5516 H 514.932 -1.22546 1.6384 0
M  V30 5517 H 514.942 -3.66741 1.78788 0
M  V30 5518 H 513.617 -3.08917 2.78466 0
M  V30 5519 H 512.194 -3.58624 1.02193 0
M  V30 5520 N 514.379 -1.04941 -1.1758 0
M  V30 5521 C 515.79 -0.784501 -1.69418 0
M  V30 5522 C 516.141 0.693625 -1.8353 0
M  V30 5523 O 515.266 1.53925 -1.52106 0
M  V30 5524 C 515.861 -1.41746 -3.07723 0
M  V30 5525 C 514.42 -1.20066 -3.56737 0
M  V30 5526 C 513.567 -1.5026 -2.33061 0
M  V30 5527 H 516.518 -1.21469 -1.02133 0
M  V30 5528 H 516.539 -0.825381 -3.7144 0
M  V30 5529 H 516.051 -2.49325 -2.9742 0
M  V30 5530 H 514.152 -0.144006 -3.72322 0
M  V30 5531 H 514.265 -1.90384 -4.39648 0
M  V30 5532 H 512.629 -0.922598 -2.37403 0
M  V30 5533 H 513.412 -2.58967 -2.25368 0
M  V30 5534 N 515.857 1.33968 -0.830081 0
M  V30 5535 C 516.787 2.31911 -0.271911 0
M  V30 5536 C 517.768 1.58571 0.61556 0
M  V30 5537 O 518.953 1.86514 0.540946 0
M  V30 5538 C 516.083 3.42737 0.561146 0
M  V30 5539 C 515.037 4.27383 -0.229789 0
M  V30 5540 C 514.363 5.29742 0.726463 0
M  V30 5541 C 515.663 5.02 -1.44197 0
M  V30 5542 H 517.357 2.78844 -1.09025 0
M  V30 5543 H 514.903 1.34061 -0.52571 0
M  V30 5544 H 516.856 4.10276 0.961867 0
M  V30 5545 H 515.58 2.94471 1.41261 0
M  V30 5546 H 514.239 3.61456 -0.611964 0
M  V30 5547 H 513.887 4.77736 1.57408 0
M  V30 5548 H 513.587 5.87255 0.20142 0
M  V30 5549 H 515.111 6.00149 1.12489 0
M  V30 5550 H 516.525 5.62355 -1.11488 0
M  V30 5551 H 514.922 5.69122 -1.90317 0
M  V30 5552 H 515.992 4.31281 -2.2164 0
M  V30 5553 N 517.335 0.585699 1.46312 0
M  V30 5554 C 518.612 0.00542031 1.95599 0
M  V30 5555 C 518.992 -1.45619 1.52834 0
M  V30 5556 O 518.34 -2.14759 0.780446 0
M  V30 5557 C 518.55 0.180601 3.48532 0
M  V30 5558 C 519.898 0.049979 4.24571 0
M  V30 5559 O 520.922 0.109589 3.56031 0
M  V30 5560 O 519.781 -0.0832226 5.46437 0
M  V30 5561 H 516.875 -0.0481281 0.825598 0
M  V30 5562 H 519.421 0.654227 1.56582 0
M  V30 5563 H 518.193 1.19657 3.72556 0
M  V30 5564 H 517.816 -0.504498 3.94386 0
M  V30 5565 N 518.813 -1.54241 0.323641 0
M  V30 5566 C 519.723 -2.28033 -0.551205 0
M  V30 5567 C 520.739 -1.32388 -1.12913 0
M  V30 5568 O 521.915 -1.65403 -1.14908 0
M  V30 5569 C 518.98 -3.02382 -1.69606 0
M  V30 5570 C 518.041 -4.13612 -1.14993 0
M  V30 5571 C 517.274 -4.84407 -2.24022 0
M  V30 5572 O 517.497 -4.54716 -3.44368 0
M  V30 5573 O 516.431 -5.71312 -1.89436 0
M  V30 5574 H 520.257 -3.03662 0.048066 0
M  V30 5575 H 517.842 -1.49133 0.0893289 0
M  V30 5576 H 519.724 -3.48941 -2.36259 0
M  V30 5577 H 518.399 -2.29628 -2.28151 0
M  V30 5578 H 517.306 -3.71402 -0.448484 0
M  V30 5579 H 518.639 -4.8841 -0.609608 0
M  V30 5580 N 520.291 -0.0518155 -1.57515 0
M  V30 5581 C 521.537 0.622745 -1.93002 0
M  V30 5582 C 521.87 1.70456 -0.930499 0
M  V30 5583 O 521.145 1.94452 0.0434086 0
M  V30 5584 C 521.428 1.21824 -3.38867 0
M  V30 5585 C 521.281 0.144434 -4.49568 0
M  V30 5586 C 522.6 2.12968 -3.8514 0
M  V30 5587 H 519.719 0.22491 -0.701844 0
M  V30 5588 H 522.361 -0.113711 -1.89659 0
M  V30 5589 H 520.511 1.8459 -3.41846 0
M  V30 5590 H 522.183 -0.48753 -4.58717 0
M  V30 5591 H 520.426 -0.527424 -4.30582 0
M  V30 5592 H 521.097 0.601127 -5.48717 0
M  V30 5593 H 523.573 1.60163 -3.8404 0
M  V30 5594 H 522.449 2.51578 -4.87852 0
M  V30 5595 H 522.71 3.03004 -3.21934 0
M  V30 5596 N 521.769 1.56035 0.221574 0
M  V30 5597 C 523.046 1.69837 0.970301 0
M  V30 5598 C 523.426 0.599065 2.02421 0
M  V30 5599 O 522.774 -0.393929 2.25079 0
M  V30 5600 C 522.984 3.11148 1.58076 0
M  V30 5601 C 524.332 3.70555 2.07302 0
M  V30 5602 O 525.356 3.14109 1.6797 0
M  V30 5603 O 524.215 4.69562 2.79596 0
M  V30 5604 H 521.309 0.691727 0.453257 0
M  V30 5605 H 523.855 1.68353 0.213358 0
M  V30 5606 H 522.627 3.82617 0.819759 0
M  V30 5607 H 522.25 3.16749 2.40324 0
M  V30 5608 N 523.247 -0.488276 1.49845 0
M  V30 5609 C 524.194 -1.58836 1.67451 0
M  V30 5610 C 525.164 -1.57886 0.515857 0
M  V30 5611 O 526.349 -1.75679 0.744403 0
M  V30 5612 C 523.489 -2.96915 1.75885 0
M  V30 5613 C 522.602 -3.07784 3.03138 0
M  V30 5614 C 521.737 -4.36673 3.02473 0
M  V30 5615 C 520.776 -4.41222 4.24252 0
M  V30 5616 N 519.913 -5.61557 4.21424 0
M  V30 5617 H 524.753 -1.43131 2.61376 0
M  V30 5618 H 522.29 -0.696186 1.29583 0
M  V30 5619 H 524.248 -3.76965 1.78755 0
M  V30 5620 H 522.878 -3.11295 0.85414 0
M  V30 5621 H 521.93 -2.20717 3.09819 0
M  V30 5622 H 523.242 -3.07005 3.93128 0
M  V30 5623 H 522.396 -5.25055 3.03977 0
M  V30 5624 H 521.135 -4.40037 2.10283 0
M  V30 5625 H 520.14 -3.5124 4.22978 0
M  V30 5626 H 521.365 -4.39564 5.17649 0
M  V30 5627 H 519.311 -5.65738 3.32078 0
M  V30 5628 H 519.228 -5.62447 5.05163 0
M  V30 5629 H 520.496 -6.52111 4.2705 0
M  V30 5630 N 524.725 -1.39134 -0.740242 0
M  V30 5631 C 525.658 -1.3182 -1.86276 0
M  V30 5632 C 526.636 -0.192794 -1.61453 0
M  V30 5633 O 527.82 -0.372365 -1.84786 0
M  V30 5634 C 524.947 -1.04564 -3.22155 0
M  V30 5635 C 523.993 -2.19224 -3.65846 0
M  V30 5636 S 524.826 -3.81466 -3.75824 0
M  V30 5637 C 525.982 -3.56425 -5.14502 0
M  V30 5638 H 526.215 -2.26822 -1.92195 0
M  V30 5639 H 523.748 -1.25127 -0.904576 0
M  V30 5640 H 525.706 -0.895228 -4.00619 0
M  V30 5641 H 524.367 -0.112578 -3.13898 0
M  V30 5642 H 523.56 -1.95732 -4.6444 0
M  V30 5643 H 523.162 -2.30441 -2.94572 0
M  V30 5644 H 525.454 -3.13366 -6.00673 0
M  V30 5645 H 526.397 -4.54462 -5.43019 0
M  V30 5646 H 526.805 -2.90641 -4.8393 0
M  V30 5647 N 526.204 0.969867 -1.24223 0
M  V30 5648 C 527.444 1.72754 -1.0925 0
M  V30 5649 C 527.808 1.88541 0.362787 0
M  V30 5650 O 529.009 2.61217 0.633969 0
M  V30 5651 C 527.28 3.08204 -1.80957 0
M  V30 5652 S 528.839 3.99418 -1.81688 0
M  V30 5653 H 525.657 0.593981 -0.390778 0
M  V30 5654 H 528.259 1.15792 -1.5752 0
M  V30 5655 H 526.963 2.94372 -2.85961 0
M  V30 5656 H 526.494 3.70232 -1.33012 0
M  V30 5657 H 528.509 4.8828 -0.883001 0
M  V30 5658 N 527.682 1.05563 1.17022 0
M  V30 5659 C 528.632 0.630007 2.19123 0
M  V30 5660 C 529.616 -0.335472 1.57364 0
M  V30 5661 O 530.808 -0.1521 1.76345 0
M  V30 5662 C 527.937 0.0101676 3.43298 0
M  V30 5663 C 527.023 0.999698 4.12149 0
M  V30 5664 N 527.414 2.17251 4.56766 0
M  V30 5665 C 525.712 0.829 4.38228 0
M  V30 5666 C 526.413 2.79883 5.09942 0
M  V30 5667 N 525.389 2.07656 5.02374 0
M  V30 5668 H 529.191 1.52353 2.51328 0
M  V30 5669 H 526.705 0.926288 1.33393 0
M  V30 5670 H 528.702 -0.312541 4.15727 0
M  V30 5671 H 527.362 -0.878707 3.12584 0
M  V30 5672 H 528.373 2.55067 4.50734 0
M  V30 5673 H 525.05 -0.00850974 4.17499 0
M  V30 5674 H 526.44 3.79362 5.54558 0
M  V30 5675 N 529.16 -1.33526 0.837174 0
M  V30 5676 C 530.09 -2.31764 0.284206 0
M  V30 5677 C 531.071 -1.58896 -0.607142 0
M  V30 5678 O 532.256 -1.86798 -0.531047 0
M  V30 5679 C 529.386 -3.43029 -0.542962 0
M  V30 5680 C 528.34 -4.27255 0.252451 0
M  V30 5681 C 527.666 -5.3012 -0.69836 0
M  V30 5682 C 528.966 -5.01229 1.46858 0
M  V30 5683 H 530.66 -2.78262 1.10502 0
M  V30 5684 H 528.206 -1.3378 0.532812 0
M  V30 5685 H 530.159 -4.1078 -0.940096 0
M  V30 5686 H 528.883 -2.95216 -1.39697 0
M  V30 5687 H 527.542 -3.61127 0.631124 0
M  V30 5688 H 527.19 -4.78564 -1.54872 0
M  V30 5689 H 526.89 -5.87353 -0.170274 0
M  V30 5690 H 528.414 -6.00737 -1.09305 0
M  V30 5691 H 529.828 -5.61756 1.14469 0
M  V30 5692 H 528.225 -5.68104 1.93333 0
M  V30 5693 H 529.295 -4.301 2.23924 0
M  V30 5694 N 530.638 -0.59345 -1.46 0
M  V30 5695 C 532.049 -0.169801 -1.85926 0
M  V30 5696 C 532.4 1.26984 -1.49565 0
M  V30 5697 O 531.525 1.96076 -0.915602 0
M  V30 5698 C 532.12 -0.301385 -3.37457 0
M  V30 5699 C 530.679 0.0674684 -3.7634 0
M  V30 5700 C 529.826 -0.632383 -2.69993 0
M  V30 5701 H 532.777 -0.801014 -1.37002 0
M  V30 5702 H 532.798 0.470331 -3.77582 0
M  V30 5703 H 532.31 -1.34927 -3.63891 0
M  V30 5704 H 530.411 1.11507 -3.55523 0
M  V30 5705 H 530.524 -0.316332 -4.78055 0
M  V30 5706 H 528.888 -0.0714961 -2.546 0
M  V30 5707 H 529.671 -1.68212 -2.99265 0
M  V30 5708 N 532.116 1.54067 -0.331816 0
M  V30 5709 C 533.026 2.28322 0.539104 0
M  V30 5710 C 534.042 1.32985 1.1221 0
M  V30 5711 O 535.218 1.6601 1.1403 0
M  V30 5712 C 532.283 3.03277 1.68 0
M  V30 5713 C 531.344 4.14216 1.12798 0
M  V30 5714 C 530.577 4.85588 2.2145 0
M  V30 5715 O 530.8 4.56536 3.41952 0
M  V30 5716 O 529.734 5.72309 1.86404 0
M  V30 5717 H 533.56 3.03632 -0.0641692 0
M  V30 5718 H 531.145 1.49083 -0.0972365 0
M  V30 5719 H 533.027 3.50189 2.34405 0
M  V30 5720 H 531.702 2.30834 2.2693 0
M  V30 5721 H 530.609 3.71635 0.428782 0
M  V30 5722 H 531.942 4.88727 0.583698 0
M  V30 5723 N 533.594 0.0601682 1.57485 0
M  V30 5724 C 535.005 -0.474217 1.80577 0
M  V30 5725 C 535.356 -1.70365 0.973147 0
M  V30 5726 O 534.481 -2.15544 0.192306 0
M  V30 5727 C 535.076 -0.867102 3.27516 0
M  V30 5728 C 533.635 -1.34642 3.51495 0
M  V30 5729 C 532.782 -0.32594 2.75378 0
M  V30 5730 H 535.733 0.285973 1.56102 0
M  V30 5731 H 535.754 -1.72938 3.38929 0
M  V30 5732 H 535.266 0.0278927 3.8809 0
M  V30 5733 H 533.367 -2.2603 2.96212 0
M  V30 5734 H 533.48 -1.33237 4.60201 0
M  V30 5735 H 531.844 -0.800749 2.41785 0
M  V30 5736 H 532.627 0.561125 3.38683 0
M  V30 5737 N 535.072 -1.5615 -0.213296 0
M  V30 5738 C 535.982 -1.96265 -1.28519 0
M  V30 5739 C 536.998 -0.86765 -1.50824 0
M  V30 5740 O 538.174 -1.17191 -1.63793 0
M  V30 5741 C 535.239 -2.27836 -2.61327 0
M  V30 5742 C 534.3 -3.50949 -2.47252 0
M  V30 5743 C 533.533 -3.81004 -3.73727 0
M  V30 5744 O 533.756 -3.12612 -4.77106 0
M  V30 5745 O 532.69 -4.74477 -3.70344 0
M  V30 5746 H 536.516 -2.87631 -0.974795 0
M  V30 5747 H 534.101 -1.43467 -0.416832 0
M  V30 5748 H 535.983 -2.49299 -3.39747 0
M  V30 5749 H 534.658 -1.39643 -2.9203 0
M  V30 5750 H 533.565 -3.34754 -1.67004 0
M  V30 5751 H 534.898 -4.39551 -2.21486 0
M  V30 5752 N 536.55 0.480323 -1.50102 0
M  V30 5753 C 537.48 1.58769 -1.71215 0
M  V30 5754 C 538.461 1.60583 -0.560997 0
M  V30 5755 O 539.646 1.76996 -0.799127 0
M  V30 5756 C 536.776 2.97148 -1.79778 0
M  V30 5757 C 535.73 3.10201 -2.94888 0
M  V30 5758 C 535.056 4.50137 -2.88584 0
M  V30 5759 C 536.356 2.88283 -4.35534 0
M  V30 5760 H 538.05 1.41354 -2.6393 0
M  V30 5761 H 535.596 0.678591 -1.27008 0
M  V30 5762 H 537.549 3.74536 -1.93133 0
M  V30 5763 H 536.273 3.15699 -0.836772 0
M  V30 5764 H 534.932 2.35244 -2.81169 0
M  V30 5765 H 534.58 4.65593 -1.90349 0
M  V30 5766 H 534.28 4.59808 -3.65856 0
M  V30 5767 H 535.804 5.29558 -3.03976 0
M  V30 5768 H 537.218 3.55427 -4.49827 0
M  V30 5769 H 535.615 3.09408 -5.14186 0
M  V30 5770 H 536.685 1.84219 -4.48544 0
M  V30 5771 N 538.028 1.39524 0.732853 0
M  V30 5772 C 538.976 1.38563 1.86824 0
M  V30 5773 C 539.97 0.268467 1.67259 0
M  V30 5774 O 541.176 0.438613 1.74574 0
M  V30 5775 H 537.551 0.432737 0.615014 0
M  V30 5776 H 539.522 2.34328 1.84751 0
M  V30 5777 C 538.271 1.2481 3.24527 0
M  V30 5778 H 537.594 2.10044 3.40179 0
M  V30 5779 H 539.034 1.28194 4.04156 0
M  V30 5780 C 537.493 -0.0432825 3.36872 0
M  V30 5781 O 538.023 -1.01268 3.88726 0
M  V30 5782 N 536.229 -0.107055 2.90403 0
M  V30 5783 H 535.776 0.682512 2.48394 0
M  V30 5784 H 535.734 -0.970618 2.99042 0
M  V30 5785 N 539.506 -0.963266 1.24736 0
M  V30 5786 C 540.453 -2.05857 1.04363 0
M  V30 5787 C 541.423 -1.6604 -0.0444951 0
M  V30 5788 O 542.608 -1.90477 0.110999 0
M  V30 5789 C 539.748 -3.38745 0.659235 0
M  V30 5790 C 538.861 -3.9173 1.82131 0
M  V30 5791 C 537.996 -5.12906 1.38208 0
M  V30 5792 C 537.035 -5.58098 2.51382 0
M  V30 5793 N 536.172 -6.7049 2.08295 0
M  V30 5794 H 541.012 -2.22616 1.98107 0
M  V30 5795 H 538.549 -1.09103 0.986661 0
M  V30 5796 H 540.507 -4.15107 0.417371 0
M  V30 5797 H 539.137 -3.21898 -0.241201 0
M  V30 5798 H 538.189 -3.11966 2.17672 0
M  V30 5799 H 539.501 -4.21225 2.67153 0
M  V30 5800 H 538.655 -5.96657 1.09935 0
M  V30 5801 H 537.394 -4.85105 0.502456 0
M  V30 5802 H 536.399 -4.72917 2.80409 0
M  V30 5803 H 537.624 -5.87911 3.39909 0
M  V30 5804 H 535.57 -6.44416 1.22737 0
M  V30 5805 H 535.487 -6.99458 2.86869 0
M  V30 5806 H 536.755 -7.57672 1.83175 0
M  V30 5807 N 540.985 -1.06182 -1.16461 0
M  V30 5808 C 541.895 -0.682671 -2.24448 0
M  V30 5809 C 542.911 0.30078 -1.71381 0
M  V30 5810 O 544.087 0.150376 -2.00838 0
M  V30 5811 C 541.152 -0.0737202 -3.46622 0
M  V30 5812 C 540.213 -1.10889 -4.14731 0
M  V30 5813 C 539.446 -0.528908 -5.31073 0
M  V30 5814 O 539.669 0.65868 -5.66584 0
M  V30 5815 O 538.603 -1.26805 -5.88391 0
M  V30 5816 H 542.429 -1.58291 -2.59187 0
M  V30 5817 H 540.014 -0.834013 -1.23954 0
M  V30 5818 H 541.896 0.264192 -4.20571 0
M  V30 5819 H 540.571 0.800015 -3.13658 0
M  V30 5820 H 539.478 -1.49896 -3.42756 0
M  V30 5821 H 540.811 -1.95412 -4.51747 0
M  V30 5822 N 542.463 1.3308 -0.844243 0
M  V30 5823 C 543.879 1.50447 -0.532729 0
M  V30 5824 C 544.079 1.78292 0.938837 0
M  V30 5825 O 543.135 1.84635 1.72239 0
M  V30 5826 C 544.448 2.65555 -1.41072 0
M  V30 5827 C 545.996 2.7944 -1.41005 0
M  V30 5828 C 546.471 3.97616 -2.27301 0
M  V30 5829 N 547.962 4.0486 -2.2504 0
M  V30 5830 C 548.697 4.95508 -2.88547 0
M  V30 5831 N 548.193 5.91236 -3.61126 0
M  V30 5832 N 549.986 4.88548 -2.77989 0
M  V30 5833 H 542.137 1.13269 -1.79677 0
M  V30 5834 H 544.4 0.55734 -0.766861 0
M  V30 5835 H 544.106 2.51675 -2.45668 0
M  V30 5836 H 543.98 3.61089 -1.09061 0
M  V30 5837 H 546.367 2.92749 -0.371784 0
M  V30 5838 H 546.448 1.8465 -1.77026 0
M  V30 5839 H 546.092 3.85066 -3.3119 0
M  V30 5840 H 546.022 4.91661 -1.88619 0
M  V30 5841 H 548.513 3.36353 -1.72264 0
M  V30 5842 H 548.826 6.57079 -4.06776 0
M  V30 5843 H 547.171 5.91295 -3.65234 0
M  V30 5844 H 550.362 4.12729 -2.20846 0
M  V30 5845 H 550.535 5.58994 -3.27765 0
M  V30 5846 N 543.941 0.601185 1.45683 0
M  V30 5847 C 545.352 0.179659 1.85834 0
M  V30 5848 C 545.703 -1.26189 1.50236 0
M  V30 5849 O 544.828 -1.95587 0.925987 0
M  V30 5850 C 545.423 0.319277 3.37292 0
M  V30 5851 C 543.982 -0.0475092 3.7637 0
M  V30 5852 C 543.129 0.646692 2.69654 0
M  V30 5853 H 546.08 0.808268 1.36575 0
M  V30 5854 H 546.101 -0.4503 3.77826 0
M  V30 5855 H 545.613 1.36855 3.6317 0
M  V30 5856 H 543.714 -1.0962 3.5611 0
M  V30 5857 H 543.827 0.34168 4.7788 0
M  V30 5858 H 542.191 0.0849971 2.54558 0
M  V30 5859 H 542.974 1.69797 2.98369 0
M  V30 5860 N 545.419 -1.53889 0.339982 0
M  V30 5861 C 546.644 -2.05741 -0.261798 0
M  V30 5862 C 547.069 -1.21354 -1.43718 0
M  V30 5863 O 546.427 -0.22645 -1.7988 0
M  V30 5864 C 546.475 -3.54542 -0.658228 0
M  V30 5865 O 545.579 -3.7302 -1.75869 0
M  V30 5866 H 544.92 -0.662529 -0.0441672 0
M  V30 5867 H 547.45 -1.98568 0.493161 0
M  V30 5868 H 547.46 -3.9711 -0.936368 0
M  V30 5869 H 546.135 -4.15412 0.201358 0
M  V30 5870 H 544.712 -3.42355 -1.47809 0
M  V30 5871 N 546.897 -0.0685191 -1.57451 0
M  V30 5872 C 547.827 0.89747 -2.15564 0
M  V30 5873 C 548.808 1.31266 -1.08181 0
M  V30 5874 O 549.993 1.38429 -1.36202 0
M  V30 5875 C 547.123 2.16623 -2.71463 0
M  V30 5876 C 546.077 1.89054 -3.83982 0
M  V30 5877 C 545.403 3.22532 -4.26471 0
M  V30 5878 C 546.703 1.1984 -5.08366 0
M  V30 5879 H 548.397 0.413373 -2.96533 0
M  V30 5880 H 545.943 0.197391 -1.42641 0
M  V30 5881 H 547.896 2.84614 -3.10761 0
M  V30 5882 H 546.62 2.67269 -1.8771 0
M  V30 5883 H 545.279 1.23469 -3.45183 0
M  V30 5884 H 544.927 3.71013 -3.39644 0
M  V30 5885 H 544.627 3.04879 -5.02317 0
M  V30 5886 H 546.151 3.91727 -4.68383 0
M  V30 5887 H 547.565 1.77896 -5.45001 0
M  V30 5888 H 545.962 1.12456 -5.89469 0
M  V30 5889 H 547.032 0.176996 -4.84577 0
M  V30 5890 N 548.375 1.56261 0.205012 0
M  V30 5891 C 549.307 1.90266 1.27795 0
M  V30 5892 C 550.32 0.792397 1.42214 0
M  V30 5893 O 551.509 1.07077 1.42817 0
M  V30 5894 C 548.609 2.11074 2.65143 0
M  V30 5895 C 547.782 3.42176 2.7246 0
M  V30 5896 C 546.841 3.52216 3.90936 0
M  V30 5897 O 545.867 4.25119 3.78501 0
M  V30 5898 N 547.069 2.84573 5.05963 0
M  V30 5899 H 549.834 2.82896 0.989434 0
M  V30 5900 H 547.395 1.57008 0.394981 0
M  V30 5901 H 549.387 2.15089 3.4281 0
M  V30 5902 H 547.957 1.2499 2.86524 0
M  V30 5903 H 547.177 3.50116 1.81142 0
M  V30 5904 H 548.465 4.28509 2.74331 0
M  V30 5905 H 547.863 2.25152 5.18963 0
M  V30 5906 H 546.42 2.94228 5.81613 0
M  V30 5907 N 549.853 -0.472356 1.50355 0
M  V30 5908 C 551.102 -1.2213 1.60522 0
M  V30 5909 C 551.415 -1.9312 0.310466 0
M  V30 5910 O 552.621 -2.69936 0.291029 0
M  V30 5911 C 551.077 -2.21909 2.83345 0
M  V30 5912 C 550.685 -1.56727 4.19691 0
M  V30 5913 C 552.429 -2.97453 3.02856 0
M  V30 5914 C 550.336 -2.54785 5.33703 0
M  V30 5915 H 549.266 -0.459543 0.597776 0
M  V30 5916 H 551.917 -0.491922 1.76783 0
M  V30 5917 H 550.299 -2.98133 2.60639 0
M  V30 5918 H 551.473 -0.863007 4.52646 0
M  V30 5919 H 549.788 -0.934685 4.05774 0
M  V30 5920 H 552.385 -3.70838 3.85205 0
M  V30 5921 H 552.728 -3.56764 2.14534 0
M  V30 5922 H 553.261 -2.28342 3.25737 0
M  V30 5923 H 550 -2.00214 6.24175 0
M  V30 5924 H 549.52 -3.23367 5.05167 0
M  V30 5925 H 551.199 -3.16639 5.64224 0
M  V30 5926 N 551.331 -1.39911 -0.725443 0
M  V30 5927 C 552.278 -1.39393 -1.83952 0
M  V30 5928 C 553.248 -0.252249 -1.64173 0
M  V30 5929 O 554.433 -0.44882 -1.85446 0
M  V30 5930 C 551.573 -1.25262 -3.21564 0
M  V30 5931 C 550.686 -2.49054 -3.52982 0
M  V30 5932 C 549.821 -2.27439 -4.80047 0
M  V30 5933 C 548.86 -3.46857 -5.04338 0
M  V30 5934 N 547.997 -3.24499 -6.22611 0
M  V30 5935 H 552.837 -2.34622 -1.83729 0
M  V30 5936 H 550.374 -1.16537 -0.897636 0
M  V30 5937 H 552.332 -1.15077 -4.01015 0
M  V30 5938 H 550.962 -0.33657 -3.21041 0
M  V30 5939 H 550.014 -2.69805 -2.6816 0
M  V30 5940 H 551.326 -3.37973 -3.66846 0
M  V30 5941 H 550.48 -2.14551 -5.67497 0
M  V30 5942 H 549.219 -1.35929 -4.68374 0
M  V30 5943 H 548.224 -3.60232 -4.15346 0
M  V30 5944 H 549.449 -4.3928 -5.17889 0
M  V30 5945 H 547.395 -2.35663 -6.12208 0
M  V30 5946 H 547.312 -4.06978 -6.37106 0
M  V30 5947 H 548.58 -3.15325 -7.12875 0
M  V30 5948 N 552.809 0.956637 -1.25245 0
M  V30 5949 C 553.739 2.07058 -1.07931 0
M  V30 5950 C 554.72 1.70096 0.0110361 0
M  V30 5951 O 555.905 1.93555 -0.158121 0
M  V30 5952 C 553.035 3.40272 -0.695124 0
M  V30 5953 C 551.989 3.91235 -1.73549 0
M  V30 5954 C 551.315 5.20921 -1.20604 0
M  V30 5955 C 552.615 4.17837 -3.13385 0
M  V30 5956 H 554.309 2.218 -2.01109 0
M  V30 5957 H 551.855 1.06581 -0.968326 0
M  V30 5958 H 553.808 4.1765 -0.560949 0
M  V30 5959 H 552.532 3.25462 0.272355 0
M  V30 5960 H 551.191 3.16025 -1.85807 0
M  V30 5961 H 550.839 5.02479 -0.228846 0
M  V30 5962 H 550.539 5.55987 -1.90136 0
M  V30 5963 H 552.063 6.00897 -1.08421 0
M  V30 5964 H 553.477 4.8588 -3.04292 0
M  V30 5965 H 551.874 4.64154 -3.80369 0
M  V30 5966 H 552.944 3.2419 -3.60595 0
M  V30 5967 N 554.287 1.06798 1.15896 0
M  V30 5968 C 555.234 0.683314 2.20453 0
M  V30 5969 C 556.204 -0.32255 1.62938 0
M  V30 5970 O 557.389 -0.210276 1.89638 0
M  V30 5971 C 554.529 0.0813266 3.45004 0
M  V30 5972 C 553.642 1.13799 4.16742 0
M  V30 5973 C 552.777 0.501598 5.28826 0
M  V30 5974 C 551.816 1.54144 5.92373 0
M  V30 5975 N 550.953 0.928038 6.9594 0
M  V30 5976 H 555.793 1.57932 2.52708 0
M  V30 5977 H 553.33 0.789544 1.24115 0
M  V30 5978 H 555.288 -0.285274 4.16224 0
M  V30 5979 H 553.918 -0.77806 3.13283 0
M  V30 5980 H 552.97 1.62223 3.44075 0
M  V30 5981 H 554.282 1.92664 4.60089 0
M  V30 5982 H 553.436 0.0823162 6.06644 0
M  V30 5983 H 552.175 -0.318883 4.86656 0
M  V30 5984 H 551.18 1.97056 5.13273 0
M  V30 5985 H 552.405 2.3641 6.36621 0
M  V30 5986 H 550.351 0.12836 6.55874 0
M  V30 5987 H 550.268 1.65401 7.37685 0
M  V30 5988 H 551.536 0.534071 7.77668 0
M  V30 5989 N 555.766 -1.3263 0.851289 0
M  V30 5990 C 557.015 -1.96633 0.449267 0
M  V30 5991 C 557.328 -1.68131 -0.999562 0
M  V30 5992 O 558.534 -2.25845 -1.50685 0
M  V30 5993 C 556.99 -3.51946 0.752446 0
M  V30 5994 C 556.598 -3.89311 2.21678 0
M  V30 5995 C 558.342 -4.22437 0.417983 0
M  V30 5996 C 556.249 -5.37655 2.46336 0
M  V30 5997 H 555.179 -0.735888 0.164269 0
M  V30 5998 H 557.83 -1.51073 1.0416 0
M  V30 5999 H 556.212 -3.95899 0.0895858 0
M  V30 6000 H 557.386 -3.56378 2.92115 0
M  V30 6001 H 555.701 -3.31836 2.51543 0
M  V30 6002 H 558.298 -5.31549 0.579674 0
M  V30 6003 H 558.641 -4.11349 -0.640115 0
M  V30 6004 H 559.174 -3.84057 1.03659 0
M  V30 6005 H 555.913 -5.5376 3.50757 0
M  V30 6006 H 555.433 -5.72005 1.80473 0
M  V30 6007 H 557.112 -6.04695 2.30115 0
M  V30 6008 N 557.244 -0.608902 -1.45362 0
M  V30 6009 C 558.154 0.110969 -2.34337 0
M  V30 6010 C 559.17 0.859007 -1.51318 0
M  V30 6011 O 560.346 0.816296 -1.84116 0
M  V30 6012 C 557.411 1.09494 -3.28956 0
M  V30 6013 C 556.472 0.348718 -4.27881 0
M  V30 6014 C 555.705 1.28582 -5.17979 0
M  V30 6015 O 555.928 2.52369 -5.11533 0
M  V30 6016 O 554.862 0.782172 -5.96796 0
M  V30 6017 H 558.688 -0.620258 -2.97299 0
M  V30 6018 H 556.273 -0.36916 -1.44767 0
M  V30 6019 H 558.155 1.66163 -3.87257 0
M  V30 6020 H 556.83 1.80717 -2.68557 0
M  V30 6021 H 555.737 -0.260465 -3.73192 0
M  V30 6022 H 557.07 -0.323049 -4.91139 0
M  V30 6023 N 558.722 1.53707 -0.348139 0
M  V30 6024 C 559.999 1.93247 0.302475 0
M  V30 6025 C 560.379 1.28012 1.67857 0
M  V30 6026 O 559.727 0.43274 2.24365 0
M  V30 6027 C 559.937 3.47031 0.370159 0
M  V30 6028 C 561.285 4.20066 0.61882 0
M  V30 6029 O 562.309 3.53319 0.452087 0
M  V30 6030 O 561.168 5.38318 0.94215 0
M  V30 6031 H 558.262 0.807736 0.177458 0
M  V30 6032 H 560.808 1.64927 -0.399651 0
M  V30 6033 H 559.58 3.86745 -0.59534 0
M  V30 6034 H 559.203 3.81532 1.11888 0
M  V30 6035 N 560.2 0.0768682 1.57412 0
M  V30 6036 C 561.447 -0.591085 1.93681 0
M  V30 6037 C 561.775 -1.69311 0.957286 0
M  V30 6038 O 561.03 -1.95682 -0.0262428 0
M  V30 6039 C 561.329 -1.20268 3.36557 0
M  V30 6040 C 560.995 -0.226286 4.50332 0
M  V30 6041 C 559.657 0.0423142 4.81181 0
M  V30 6042 C 562.009 0.441415 5.19327 0
M  V30 6043 C 559.337 0.985616 5.78362 0
M  V30 6044 C 561.689 1.37307 6.17519 0
M  V30 6045 C 560.353 1.65009 6.46783 0
M  V30 6046 H 559.623 -0.216293 0.70873 0
M  V30 6047 H 562.27 0.148824 1.90921 0
M  V30 6048 H 560.575 -2.01844 3.35807 0
M  V30 6049 H 562.272 -1.72688 3.61911 0
M  V30 6050 H 558.862 -0.445821 4.26275 0
M  V30 6051 H 563.046 0.247023 4.95685 0
M  V30 6052 H 558.302 1.20743 5.99359 0
M  V30 6053 H 562.476 1.89637 6.70083 0
M  V30 6054 H 560.103 2.38263 7.21897 0
M  V30 6055 N 561.678 -1.56367 -0.196722 0
M  V30 6056 C 562.927 -1.79724 -0.915539 0
M  V30 6057 C 563.24 -0.649804 -1.84491 0
M  V30 6058 O 564.446 -0.767631 -2.60422 0
M  V30 6059 C 562.902 -3.18369 -1.67836 0
M  V30 6060 C 562.51 -4.4091 -0.793897 0
M  V30 6061 C 564.254 -3.51037 -2.38691 0
M  V30 6062 C 562.161 -5.70577 -1.55549 0
M  V30 6063 H 561.091 -0.67013 -0.345604 0
M  V30 6064 H 563.742 -1.82721 -0.168856 0
M  V30 6065 H 562.124 -3.09617 -2.46887 0
M  V30 6066 H 563.298 -4.60781 -0.042163 0
M  V30 6067 H 561.613 -4.15937 -0.19626 0
M  V30 6068 H 564.21 -4.4515 -2.96219 0
M  V30 6069 H 564.553 -2.74704 -3.12799 0
M  V30 6070 H 565.086 -3.61229 -1.66608 0
M  V30 6071 H 561.825 -6.49871 -0.857226 0
M  V30 6072 H 561.345 -5.54726 -2.2812 0
M  V30 6073 H 563.024 -6.11637 -2.10971 0
M  V30 6074 N 563.156 0.464375 -1.50603 0
M  V30 6075 C 564.086 1.56944 -1.72889 0
M  V30 6076 C 565.067 1.59979 -0.577997 0
M  V30 6077 O 566.252 1.76138 -0.817855 0
M  V30 6078 C 563.382 2.95225 -1.8292 0
M  V30 6079 C 562.336 3.07056 -2.98162 0
M  V30 6080 C 561.662 4.47051 -2.93343 0
M  V30 6081 C 562.962 2.83648 -4.38567 0
M  V30 6082 H 564.656 1.38547 -2.65415 0
M  V30 6083 H 562.202 0.665082 -1.27721 0
M  V30 6084 H 564.155 3.72467 -1.97095 0
M  V30 6085 H 562.879 3.14793 -0.870209 0
M  V30 6086 H 561.538 2.32248 -2.83648 0
M  V30 6087 H 561.186 4.63547 -1.95276 0
M  V30 6088 H 560.886 4.55902 -3.70712 0
M  V30 6089 H 562.41 5.26304 -3.09575 0
M  V30 6090 H 563.824 3.50636 -4.53572 0
M  V30 6091 H 562.221 3.03937 -5.17438 0
M  V30 6092 H 563.291 1.79451 -4.50472 0
M  V30 6093 N 564.634 1.40294 0.718013 0
M  V30 6094 C 565.584 1.36847 1.82365 0
M  V30 6095 C 566.568 0.246424 1.59002 0
M  V30 6096 O 567.76 0.485336 1.70216 0
M  V30 6097 C 564.889 1.23105 3.20469 0
M  V30 6098 C 563.975 2.4008 3.49603 0
M  V30 6099 N 564.366 3.65562 3.49568 0
M  V30 6100 C 562.664 2.33407 3.80049 0
M  V30 6101 C 563.365 4.43015 3.76978 0
M  V30 6102 N 562.341 3.72823 3.95606 0
M  V30 6103 H 566.143 2.31811 1.80668 0
M  V30 6104 H 563.657 1.34031 0.91703 0
M  V30 6105 H 565.654 1.18718 3.9964 0
M  V30 6106 H 564.314 0.291056 3.23393 0
M  V30 6107 H 565.325 3.98756 3.30476 0
M  V30 6108 H 562.002 1.47762 3.90478 0
M  V30 6109 H 563.392 5.51859 3.83276 0
M  V30 6110 N 566.112 -0.949982 1.2575 0
M  V30 6111 C 567.059 -2.04738 1.06541 0
M  V30 6112 C 568.029 -1.66078 -0.0268818 0
M  V30 6113 O 569.214 -1.90348 0.131196 0
M  V30 6114 C 566.354 -3.38027 0.695127 0
M  V30 6115 C 565.467 -3.89776 1.86276 0
M  V30 6116 C 564.602 -5.11411 1.4364 0
M  V30 6117 C 563.641 -5.554 2.57287 0
M  V30 6118 N 562.778 -6.68244 2.15395 0
M  V30 6119 H 567.618 -2.20502 2.00457 0
M  V30 6120 H 565.155 -1.0805 0.998178 0
M  V30 6121 H 567.113 -4.14641 0.461375 0
M  V30 6122 H 565.743 -3.22135 -0.207046 0
M  V30 6123 H 564.795 -3.0964 2.20969 0
M  V30 6124 H 566.107 -4.18368 2.71606 0
M  V30 6125 H 565.261 -5.95457 1.16257 0
M  V30 6126 H 564 -4.84545 0.553879 0
M  V30 6127 H 563.005 -4.69916 2.85409 0
M  V30 6128 H 564.23 -5.84272 3.46125 0
M  V30 6129 H 562.176 -6.43078 1.29565 0
M  V30 6130 H 562.093 -6.96377 2.94272 0
M  V30 6131 H 563.361 -7.55687 1.91201 0
M  V30 6132 N 567.59 -1.07411 -1.15328 0
M  V30 6133 C 568.523 -0.63913 -2.19067 0
M  V30 6134 C 569.501 0.343929 -1.58921 0
M  V30 6135 O 570.685 0.250207 -1.86832 0
M  V30 6136 C 567.812 0.0613977 -3.38644 0
M  V30 6137 C 566.858 -0.880201 -4.17318 0
M  V30 6138 S 567.691 -2.38152 -4.79629 0
M  V30 6139 C 568.847 -1.69281 -6.02573 0
M  V30 6140 H 569.08 -1.51799 -2.55626 0
M  V30 6141 H 566.613 -0.888138 -1.26299 0
M  V30 6142 H 568.571 0.459323 -4.07922 0
M  V30 6143 H 567.232 0.916605 -3.00428 0
M  V30 6144 H 566.425 -0.336781 -5.02874 0
M  V30 6145 H 566.027 -1.21854 -3.53592 0
M  V30 6146 H 568.319 -1.00488 -6.70006 0
M  V30 6147 H 569.262 -2.52671 -6.61485 0
M  V30 6148 H 569.67 -1.17053 -5.52231 0
M  V30 6149 N 569.068 1.32177 -0.85831 0
M  V30 6150 C 569.998 2.31282 -0.321041 0
M  V30 6151 C 570.979 1.59841 0.581786 0
M  V30 6152 O 572.164 1.87619 0.501262 0
M  V30 6153 C 569.294 3.4385 0.48832 0
M  V30 6154 C 568.248 4.26799 -0.320391 0
M  V30 6155 C 567.574 5.31164 0.613934 0
M  V30 6156 C 568.874 4.98829 -1.54813 0
M  V30 6157 H 570.568 2.76469 -1.14915 0
M  V30 6158 H 568.114 1.32916 -0.554028 0
M  V30 6159 H 570.067 4.12224 0.874626 0
M  V30 6160 H 568.791 2.97401 1.34983 0
M  V30 6161 H 567.45 3.60077 -0.688497 0
M  V30 6162 H 567.098 4.80967 1.47239 0
M  V30 6163 H 566.798 5.8755 0.0768097 0
M  V30 6164 H 568.322 6.024 0.997336 0
M  V30 6165 H 569.736 5.59864 -1.23392 0
M  V30 6166 H 568.133 5.64957 -2.02346 0
M  V30 6167 H 569.203 4.26483 -2.30739 0
M  V30 6168 N 570.547 0.616602 1.45037 0
M  V30 6169 C 571.795 0.115103 2.01772 0
M  V30 6170 C 572.116 -1.2622 1.48639 0
M  V30 6171 O 571.386 -1.83563 0.684199 0
M  V30 6172 H 569.966 0.0395607 0.745952 0
M  V30 6173 H 572.628 0.800032 1.77723 0
M  V30 6174 H 571.724 0.0717274 3.12018 0
M  V30 6175 N 572.025 -1.5352 0.356285 0
M  V30 6176 C 572.972 -2.25439 -0.494569 0
M  V30 6177 C 573.942 -1.25752 -1.08516 0
M  V30 6178 O 575.127 -1.54513 -1.1194 0
M  V30 6179 C 572.267 -3.04011 -1.63313 0
M  V30 6180 C 571.38 -4.18574 -1.06862 0
M  V30 6181 C 570.515 -4.84607 -2.17552 0
M  V30 6182 C 569.554 -5.91218 -1.58518 0
M  V30 6183 N 568.691 -6.50979 -2.63003 0
M  V30 6184 H 573.531 -2.97737 0.125244 0
M  V30 6185 H 571.068 -1.46916 0.0735789 0
M  V30 6186 H 573.026 -3.47834 -2.30363 0
M  V30 6187 H 571.656 -2.33986 -2.22374 0
M  V30 6188 H 570.708 -3.79303 -0.288672 0
M  V30 6189 H 572.02 -4.95215 -0.596924 0
M  V30 6190 H 571.174 -5.31566 -2.92442 0
M  V30 6191 H 569.913 -4.07418 -2.6807 0
M  V30 6192 H 568.918 -5.4363 -0.821391 0
M  V30 6193 H 570.143 -6.70322 -1.08836 0
M  V30 6194 H 568.089 -5.76648 -3.12751 0
M  V30 6195 H 568.006 -7.23131 -2.20493 0
M  V30 6196 H 569.274 -7.02589 -3.37623 0
M  V30 6197 N 573.503 -0.0852151 -1.57369 0
M  V30 6198 C 574.751 0.579658 -1.93609 0
M  V30 6199 C 575.072 1.69332 -0.967043 0
M  V30 6200 O 574.342 1.95892 -0.0174215 0
M  V30 6201 H 572.922 0.217113 -0.714752 0
M  V30 6202 H 575.584 -0.146226 -1.94351 0
M  V30 6203 H 574.68 0.996276 -2.95771 0
M  V30 6204 N 574.981 1.5647 0.188427 0
M  V30 6205 C 576.206 1.85486 0.927891 0
M  V30 6206 C 576.631 0.669575 1.75779 0
M  V30 6207 O 575.989 -0.381573 1.77239 0
M  V30 6208 C 576.037 3.12784 1.7944 0
M  V30 6209 O 575.141 2.93805 2.894 0
M  V30 6210 H 574.482 0.610585 0.260925 0
M  V30 6211 H 577.012 2.037 0.191729 0
M  V30 6212 H 577.022 3.43749 2.19774 0
M  V30 6213 H 575.697 3.98671 1.18468 0
M  V30 6214 H 574.274 2.74153 2.52774 0
M  V30 6215 N 576.459 -0.456382 1.50847 0
M  V30 6216 C 577.706 -1.20736 1.62571 0
M  V30 6217 C 578.034 -1.9163 0.332904 0
M  V30 6218 O 577.289 -1.8343 -0.682058 0
M  V30 6219 C 577.588 -2.26336 2.76599 0
M  V30 6220 C 577.254 -1.7259 4.16562 0
M  V30 6221 C 575.916 -1.57654 4.54641 0
M  V30 6222 C 578.268 -1.32877 5.03977 0
M  V30 6223 C 575.596 -1.0145 5.77862 0
M  V30 6224 C 577.948 -0.7811 6.27759 0
M  V30 6225 C 576.612 -0.618488 6.64628 0
M  V30 6226 H 575.882 -0.441803 0.594888 0
M  V30 6227 H 578.529 -0.501169 1.84826 0
M  V30 6228 H 576.834 -3.0292 2.48489 0
M  V30 6229 H 578.531 -2.84227 2.82871 0
M  V30 6230 H 575.121 -1.85187 3.86528 0
M  V30 6231 H 579.305 -1.43245 4.75179 0
M  V30 6232 H 574.561 -0.876109 6.0509 0
M  V30 6233 H 578.735 -0.464783 6.94847 0
M  V30 6234 H 576.362 -0.180838 7.59985 0
M  V30 6235 N 577.937 -1.40673 -0.710563 0
M  V30 6236 C 579.185 -1.38947 -1.46759 0
M  V30 6237 C 579.506 0.00572879 -1.94999 0
M  V30 6238 O 578.776 0.961358 -1.70689 0
M  V30 6239 H 577.356 -0.5114 -0.544499 0
M  V30 6240 H 580.018 -1.75773 -0.842012 0
M  V30 6241 H 579.114 -2.06745 -2.33801 0
M  V30 6242 N 579.415 0.9433 -1.26252 0
M  V30 6243 C 580.362 2.0417 -1.07625 0
M  V30 6244 C 581.332 1.6609 0.0180738 0
M  V30 6245 O 582.517 1.90276 -0.141289 0
M  V30 6246 C 579.657 3.37653 -0.713043 0
M  V30 6247 C 578.77 3.88783 -1.8834 0
M  V30 6248 C 577.905 5.10642 -1.4635 0
M  V30 6249 C 576.944 5.54028 -2.60229 0
M  V30 6250 N 576.081 6.67092 -2.18936 0
M  V30 6251 H 580.921 2.19436 -2.01623 0
M  V30 6252 H 578.458 1.07519 -1.00389 0
M  V30 6253 H 580.416 4.14391 -0.483358 0
M  V30 6254 H 579.046 3.22241 0.18996 0
M  V30 6255 H 578.098 3.08464 -2.22608 0
M  V30 6256 H 579.41 4.16922 -2.73821 0
M  V30 6257 H 578.564 5.94832 -1.19414 0
M  V30 6258 H 577.303 4.84244 -0.579568 0
M  V30 6259 H 576.308 4.68396 -2.87898 0
M  V30 6260 H 577.533 5.82429 -3.49219 0
M  V30 6261 H 575.479 6.42381 -1.32974 0
M  V30 6262 H 575.396 6.94806 -2.97961 0
M  V30 6263 H 576.664 7.54662 -1.95206 0
M  V30 6264 N 580.893 1.08022 1.14757 0
M  V30 6265 C 582.139 0.808705 1.85978 0
M  V30 6266 C 582.472 -0.663764 1.82504 0
M  V30 6267 O 581.747 -1.48765 1.25296 0
M  V30 6268 C 582.03 1.32623 3.34788 0
M  V30 6269 C 581.883 2.86375 3.46856 0
M  V30 6270 C 583.202 0.948291 4.29762 0
M  V30 6271 H 580.321 0.295244 0.675278 0
M  V30 6272 H 582.963 1.33917 1.34783 0
M  V30 6273 H 581.113 0.875002 3.78518 0
M  V30 6274 H 582.785 3.39839 3.11941 0
M  V30 6275 H 581.028 3.24232 2.88194 0
M  V30 6276 H 581.699 3.17658 4.51439 0
M  V30 6277 H 584.175 1.33722 3.94028 0
M  V30 6278 H 583.051 1.33765 5.32352 0
M  V30 6279 H 583.312 -0.145094 4.41862 0
M  V30 6280 N 582.371 -1.3172 0.865308 0
M  V30 6281 C 583.618 -1.96876 0.473931 0
M  V30 6282 C 583.946 -1.68425 -0.972786 0
M  V30 6283 O 583.201 -0.970742 -1.69927 0
M  V30 6284 C 583.5 -3.5102 0.672283 0
M  V30 6285 C 583.166 -3.9948 2.09108 0
M  V30 6286 C 581.828 -4.12425 2.4791 0
M  V30 6287 C 584.18 -4.2503 3.0166 0
M  V30 6288 C 581.508 -4.48267 3.78515 0
M  V30 6289 C 583.86 -4.62335 4.31774 0
M  V30 6290 C 582.524 -4.73486 4.70497 0
M  V30 6291 H 581.794 -0.72042 0.173424 0
M  V30 6292 H 584.441 -1.56937 1.0974 0
M  V30 6293 H 582.746 -3.91785 -0.034356 0
M  V30 6294 H 584.443 -3.99475 0.349353 0
M  V30 6295 H 581.033 -3.89898 1.77981 0
M  V30 6296 H 585.217 -4.14529 2.7291 0
M  V30 6297 H 580.473 -4.55097 4.08285 0
M  V30 6298 H 584.647 -4.81058 5.03543 0
M  V30 6299 H 582.274 -5.01016 5.71741 0
M  V30 6300 N 583.85 -0.624285 -1.44708 0
M  V30 6301 C 584.779 0.0717025 -2.3339 0
M  V30 6302 C 585.76 0.841814 -1.47809 0
M  V30 6303 O 586.946 0.809056 -1.76544 0
M  V30 6304 C 584.076 1.05852 -3.30776 0
M  V30 6305 C 583.029 0.400503 -4.26122 0
M  V30 6306 C 582.356 1.49674 -5.13324 0
M  V30 6307 C 583.656 -0.688924 -5.17737 0
M  V30 6308 H 585.35 -0.668819 -2.91834 0
M  V30 6309 H 582.896 -0.32308 -1.40329 0
M  V30 6310 H 584.849 1.5541 -3.91696 0
M  V30 6311 H 583.572 1.82984 -2.70526 0
M  V30 6312 H 582.231 -0.0743687 -3.66525 0
M  V30 6313 H 581.88 2.25877 -4.49431 0
M  V30 6314 H 581.58 1.06188 -5.77926 0
M  V30 6315 H 583.104 1.99427 -5.77115 0
M  V30 6316 H 584.518 -0.276724 -5.72632 0
M  V30 6317 H 582.915 -1.04652 -5.90904 0
M  V30 6318 H 583.985 -1.55884 -4.5916 0
M  V30 6319 N 585.328 1.53329 -0.364422 0
M  V30 6320 C 586.291 2.24323 0.470292 0
M  V30 6321 C 587.291 1.25068 1.01067 0
M  V30 6322 O 588.481 1.49354 0.896605 0
M  V30 6323 C 585.613 2.97908 1.65722 0
M  V30 6324 H 586.806 2.9952 -0.150917 0
M  V30 6325 H 584.359 1.55868 -0.116092 0
M  V30 6326 H 585.094 2.2695 2.31655 0
M  V30 6327 H 584.879 3.70732 1.27671 0
M  V30 6328 H 586.369 3.5188 2.24878 0
M  V30 6329 N 586.806 0.0935595 1.57322 0
M  V30 6330 C 587.716 -0.880192 2.17462 0
M  V30 6331 C 588.732 -1.31135 1.14366 0
M  V30 6332 O 589.908 -1.37958 1.46729 0
M  V30 6333 C 586.973 -2.12184 2.74188 0
M  V30 6334 C 586.034 -1.74503 3.92234 0
M  V30 6335 C 585.267 -2.92748 4.46245 0
M  V30 6336 O 585.49 -4.07427 3.99198 0
M  V30 6337 O 584.424 -2.71303 5.37288 0
M  V30 6338 H 588.25 -0.398516 3.01074 0
M  V30 6339 H 585.835 -0.130707 1.48827 0
M  V30 6340 H 587.717 -2.84953 3.10451 0
M  V30 6341 H 586.392 -2.59407 1.93623 0
M  V30 6342 H 585.299 -0.989186 3.60785 0
M  V30 6343 H 586.632 -1.32044 4.74157 0
M  V30 6344 N 588.284 -1.56567 -0.180126 0
M  V30 6345 C 589.531 -1.81492 -0.898167 0
M  V30 6346 C 589.859 -0.669225 -1.82624 0
M  V30 6347 O 589.114 0.344096 -1.92651 0
M  V30 6348 C 589.413 -3.1252 -1.73395 0
M  V30 6349 C 589.079 -4.40658 -0.955567 0
M  V30 6350 C 587.741 -4.75465 -0.740707 0
M  V30 6351 C 590.093 -5.19593 -0.408948 0
M  V30 6352 C 587.421 -5.86691 0.0320128 0
M  V30 6353 C 589.773 -6.31627 0.350638 0
M  V30 6354 C 588.437 -6.65007 0.576378 0
M  V30 6355 H 587.707 -0.664125 -0.328662 0
M  V30 6356 H 590.354 -1.908 -0.163616 0
M  V30 6357 H 588.659 -2.98515 -2.53763 0
M  V30 6358 H 590.356 -3.29013 -2.29241 0
M  V30 6359 H 586.946 -4.13352 -1.13306 0
M  V30 6360 H 591.13 -4.93104 -0.562307 0
M  V30 6361 H 586.386 -6.11016 0.216735 0
M  V30 6362 H 590.56 -6.92001 0.781497 0
M  V30 6363 H 588.187 -7.51033 1.17703 0
M  V30 6364 N 589.762 0.448376 -1.51087 0
M  V30 6365 C 590.709 1.54341 -1.71603 0
M  V30 6366 C 591.679 1.56463 -0.557536 0
M  V30 6367 O 592.864 1.73644 -0.79072 0
M  V30 6368 C 590.004 2.92148 -1.83695 0
M  V30 6369 C 589.117 2.99639 -3.11192 0
M  V30 6370 C 588.252 4.285 -3.13944 0
M  V30 6371 C 587.291 4.29819 -4.35801 0
M  V30 6372 N 586.428 5.50186 -4.36164 0
M  V30 6373 H 591.268 1.36151 -2.65079 0
M  V30 6374 H 588.805 0.661585 -1.31383 0
M  V30 6375 H 590.763 3.72093 -1.88687 0
M  V30 6376 H 589.393 3.0892 -0.936374 0
M  V30 6377 H 588.445 2.12425 -3.15562 0
M  V30 6378 H 589.757 2.96474 -4.01129 0
M  V30 6379 H 588.911 5.16811 -3.17791 0
M  V30 6380 H 587.65 4.34307 -2.21876 0
M  V30 6381 H 586.655 3.39902 -4.32142 0
M  V30 6382 H 587.88 4.25685 -5.29121 0
M  V30 6383 H 585.826 5.56735 -3.46961 0
M  V30 6384 H 585.743 5.48856 -5.19897 0
M  V30 6385 H 587.011 6.40559 -4.44189 0
M  V30 6386 N 591.24 1.41047 0.703093 0
M  V30 6387 C 592.187 1.42302 1.81711 0
M  V30 6388 C 593.157 0.278336 1.63751 0
M  V30 6389 O 594.342 0.478266 1.84709 0
M  V30 6390 C 591.482 1.30362 3.19531 0
M  V30 6391 C 590.595 2.54638 3.48975 0
M  V30 6392 C 589.73 2.35047 4.76368 0
M  V30 6393 C 588.769 3.54837 4.98756 0
M  V30 6394 N 587.906 3.34363 6.1737 0
M  V30 6395 H 592.746 2.37516 1.79973 0
M  V30 6396 H 590.283 1.1795 0.878983 0
M  V30 6397 H 592.241 1.21443 3.99134 0
M  V30 6398 H 590.871 0.387602 3.20464 0
M  V30 6399 H 589.923 2.74037 2.63833 0
M  V30 6400 H 591.235 3.43766 3.61423 0
M  V30 6401 H 590.389 2.23552 5.64012 0
M  V30 6402 H 589.128 1.43363 4.66153 0
M  V30 6403 H 588.133 3.66795 4.09563 0
M  V30 6404 H 589.358 4.47464 5.10835 0
M  V30 6405 H 587.304 2.45373 6.08382 0
M  V30 6406 H 587.221 4.17063 6.30551 0
M  V30 6407 H 588.489 3.26626 7.07768 0
M  V30 6408 N 592.718 -0.936591 1.26751 0
M  V30 6409 C 593.946 -1.71758 1.15355 0
M  V30 6410 C 594.361 -1.86549 -0.290683 0
M  V30 6411 O 593.718 -1.37616 -1.19868 0
M  V30 6412 C 593.769 -3.12193 1.82258 0
M  V30 6413 O 593.49 -2.98105 3.21038 0
M  V30 6414 C 594.991 -4.06485 1.76875 0
M  V30 6415 H 592.211 -0.537636 0.401483 0
M  V30 6416 H 594.755 -1.17382 1.67457 0
M  V30 6417 H 592.91 -3.63456 1.34083 0
M  V30 6418 H 593.324 -3.86824 3.54214 0
M  V30 6419 H 594.798 -5.02569 2.28316 0
M  V30 6420 H 595.275 -4.32986 0.736216 0
M  V30 6421 H 595.881 -3.61144 2.24623 0
M  V30 6422 N 594.196 -1.08629 -1.14182 0
M  V30 6423 C 595.144 -0.71284 -2.21408 0
M  V30 6424 C 596.138 0.282457 -1.67029 0
M  V30 6425 O 597.344 0.144783 -1.79417 0
M  V30 6426 H 593.719 -0.212497 -0.721352 0
M  V30 6427 H 595.69 -1.6265 -2.50175 0
M  V30 6428 C 594.439 -0.140704 -3.47415 0
M  V30 6429 H 593.762 -0.897739 -3.8959 0
M  V30 6430 H 595.202 0.0827677 -4.23919 0
M  V30 6431 C 593.661 1.122 -3.17668 0
M  V30 6432 O 594.191 2.20652 -3.35672 0
M  V30 6433 N 592.397 1.03328 -2.71609 0
M  V30 6434 H 591.944 0.150666 -2.57159 0
M  V30 6435 H 591.902 1.8789 -2.52081 0
M  V30 6436 N 595.674 1.31259 -0.872281 0
M  V30 6437 C 596.606 2.27396 -0.28697 0
M  V30 6438 C 597.619 1.53181 0.551297 0
M  V30 6439 O 598.808 1.74561 0.372914 0
M  V30 6440 C 595.908 3.33335 0.611617 0
M  V30 6441 C 595.081 4.36966 -0.194729 0
M  V30 6442 C 594.14 5.22387 0.632358 0
M  V30 6443 O 593.166 5.69169 0.0595691 0
M  V30 6444 N 594.368 5.46985 1.94391 0
M  V30 6445 H 597.133 2.78261 -1.11314 0
M  V30 6446 H 594.694 1.44306 -0.733994 0
M  V30 6447 H 596.686 3.87398 1.17068 0
M  V30 6448 H 595.256 2.82496 1.33846 0
M  V30 6449 H 594.476 3.82945 -0.935241 0
M  V30 6450 H 595.764 5.03273 -0.747935 0
M  V30 6451 H 595.162 5.10737 2.43237 0
M  V30 6452 H 593.719 6.03973 2.45071 0
M  V30 6453 N 597.152 0.631951 1.44375 0
M  V30 6454 C 598.399 0.136767 2.02038 0
M  V30 6455 C 598.727 -1.24168 1.49709 0
M  V30 6456 O 597.982 -1.83809 0.671763 0
M  V30 6457 C 598.281 0.0735861 3.57324 0
M  V30 6458 C 597.947 1.39092 4.28911 0
M  V30 6459 C 596.609 1.75171 4.48184 0
M  V30 6460 C 598.961 2.26042 4.69632 0
M  V30 6461 C 596.289 2.97907 5.05439 0
M  V30 6462 C 598.641 3.4805 5.28246 0
M  V30 6463 C 597.305 3.84351 5.45738 0
M  V30 6464 H 596.575 0.0500466 0.739308 0
M  V30 6465 H 599.222 0.818429 1.7313 0
M  V30 6466 H 597.527 -0.691449 3.8565 0
M  V30 6467 H 599.224 -0.326091 3.99672 0
M  V30 6468 H 595.814 1.10015 4.1424 0
M  V30 6469 H 599.998 1.99463 4.54454 0
M  V30 6470 H 595.254 3.26108 5.17169 0
M  V30 6471 H 599.428 4.15658 5.5875 0
M  V30 6472 H 597.055 4.79538 5.8987 0
M  V30 6473 N 598.631 -1.53133 0.372548 0
M  V30 6474 C 599.878 -2.01356 -0.214959 0
M  V30 6475 C 600.206 -1.2596 -1.48204 0
M  V30 6476 O 599.461 -0.343511 -1.92662 0
M  V30 6477 C 599.76 -3.53206 -0.545938 0
M  V30 6478 C 599.426 -4.46511 0.627624 0
M  V30 6479 C 598.088 -4.71737 0.949615 0
M  V30 6480 C 600.44 -5.01666 1.41353 0
M  V30 6481 C 597.768 -5.4937 2.05936 0
M  V30 6482 C 600.12 -5.80511 2.51375 0
M  V30 6483 C 598.784 -6.04022 2.84101 0
M  V30 6484 H 598.054 -0.736813 -0.078659 0
M  V30 6485 H 600.701 -1.84682 0.506447 0
M  V30 6486 H 599.006 -3.67864 -1.34845 0
M  V30 6487 H 600.703 -3.87997 -1.01287 0
M  V30 6488 H 597.293 -4.27029 0.366635 0
M  V30 6489 H 601.477 -4.82117 1.17802 0
M  V30 6490 H 596.733 -5.65803 2.31682 0
M  V30 6491 H 600.907 -6.22255 3.12684 0
M  V30 6492 H 598.534 -6.63962 3.70214 0
M  V30 6493 N 600.109 -0.101901 -1.5727 0
M  V30 6494 C 601.072 0.840129 -2.13247 0
M  V30 6495 C 602.072 1.20625 -1.06331 0
M  V30 6496 O 603.262 1.13456 -1.32186 0
M  V30 6497 C 600.394 2.13372 -2.65867 0
M  V30 6498 H 601.587 0.353945 -2.97804 0
M  V30 6499 H 599.14 0.147167 -1.55606 0
M  V30 6500 H 599.875 2.66461 -1.84849 0
M  V30 6501 H 599.66 1.88085 -3.44044 0
M  V30 6502 H 601.15 2.80748 -3.09145 0
M  V30 6503 N 601.587 1.56661 0.17182 0
M  V30 6504 C 602.836 1.81158 0.886831 0
M  V30 6505 C 603.149 0.679072 1.83434 0
M  V30 6506 O 604.355 0.808964 2.59168 0
M  V30 6507 C 602.811 3.20999 1.6275 0
M  V30 6508 C 602.419 4.42117 0.723652 0
M  V30 6509 C 604.163 3.5479 2.33076 0
M  V30 6510 C 602.07 5.7298 1.46452 0
M  V30 6511 H 601 0.675543 0.334899 0
M  V30 6512 H 603.651 1.82967 0.139765 0
M  V30 6513 H 602.033 3.13506 2.4193 0
M  V30 6514 H 603.207 4.60789 -0.0311485 0
M  V30 6515 H 601.522 4.16197 0.130063 0
M  V30 6516 H 604.119 4.49806 2.89099 0
M  V30 6517 H 604.462 2.79646 3.08389 0
M  V30 6518 H 604.995 3.63834 1.6084 0
M  V30 6519 H 601.734 6.51152 0.753729 0
M  V30 6520 H 601.254 5.58285 2.19266 0
M  V30 6521 H 602.933 6.14916 2.01214 0
M  V30 6522 N 603.065 -0.440357 1.51323 0
M  V30 6523 C 604.012 -1.53429 1.72419 0
M  V30 6524 C 604.982 -1.56165 0.565826 0
M  V30 6525 O 606.167 -1.73222 0.799917 0
M  V30 6526 C 603.307 -2.91169 1.85242 0
M  V30 6527 C 602.42 -2.97985 3.12777 0
M  V30 6528 C 601.555 -4.26829 3.16212 0
M  V30 6529 C 600.594 -4.27501 4.38074 0
M  V30 6530 N 599.731 -5.47866 4.39076 0
M  V30 6531 H 604.571 -1.34743 2.65797 0
M  V30 6532 H 602.108 -0.654608 1.31732 0
M  V30 6533 H 604.066 -3.71087 1.90658 0
M  V30 6534 H 602.696 -3.0842 0.952744 0
M  V30 6535 H 601.748 -2.10749 3.16685 0
M  V30 6536 H 603.06 -2.94342 4.02696 0
M  V30 6537 H 602.214 -5.15118 3.20527 0
M  V30 6538 H 600.953 -4.33124 2.24176 0
M  V30 6539 H 599.958 -3.37606 4.33938 0
M  V30 6540 H 601.183 -4.22873 5.31371 0
M  V30 6541 H 599.129 -5.54887 3.49909 0
M  V30 6542 H 599.046 -5.46091 5.22801 0
M  V30 6543 H 600.314 -6.38195 4.4758 0
M  V30 6544 N 604.543 -1.41418 -0.695603 0
M  V30 6545 C 605.506 -1.42988 -1.79129 0
M  V30 6546 C 606.506 -0.320514 -1.57573 0
M  V30 6547 O 607.696 -0.58039 -1.64247 0
M  V30 6548 C 604.828 -1.24122 -3.175 0
M  V30 6549 H 606.021 -2.40526 -1.7913 0
M  V30 6550 H 603.574 -1.2756 -0.903225 0
M  V30 6551 H 604.309 -0.274253 -3.23138 0
M  V30 6552 H 604.094 -2.045 -3.34547 0
M  V30 6553 H 605.584 -1.28056 -3.97481 0
M  V30 6554 N 606.021 0.929856 -1.27246 0
M  V30 6555 C 606.951 2.04722 -1.12299 0
M  V30 6556 C 607.932 1.70082 -0.0250464 0
M  V30 6557 O 609.117 1.93176 -0.199141 0
M  V30 6558 C 606.247 3.38721 -0.767145 0
M  V30 6559 C 605.201 3.87466 -1.81808 0
M  V30 6560 C 604.527 5.18246 -1.31626 0
M  V30 6561 C 605.827 4.11095 -3.22177 0
M  V30 6562 H 607.521 2.17485 -2.05769 0
M  V30 6563 H 605.067 1.04503 -0.990715 0
M  V30 6564 H 607.02 4.16366 -0.649413 0
M  V30 6565 H 605.744 3.25967 0.203259 0
M  V30 6566 H 604.403 3.12012 -1.92468 0
M  V30 6567 H 604.051 5.01881 -0.335378 0
M  V30 6568 H 603.751 5.51829 -2.01887 0
M  V30 6569 H 605.275 5.98462 -1.21143 0
M  V30 6570 H 606.689 4.79316 -3.1453 0
M  V30 6571 H 605.086 4.55982 -3.90129 0
M  V30 6572 H 606.156 3.16468 -3.67391 0
M  V30 6573 N 607.499 1.09233 1.13605 0
M  V30 6574 C 608.446 0.729921 2.18954 0
M  V30 6575 C 609.416 -0.287916 1.63586 0
M  V30 6576 O 610.601 -0.170003 1.90041 0
M  V30 6577 C 607.741 0.154489 3.44754 0
M  V30 6578 C 606.854 1.22613 4.14234 0
M  V30 6579 C 605.989 0.613657 5.27644 0
M  V30 6580 C 605.028 1.66674 5.8897 0
M  V30 6581 N 604.165 1.07545 6.93814 0
M  V30 6582 H 609.005 1.63257 2.49302 0
M  V30 6583 H 606.542 0.815693 1.22413 0
M  V30 6584 H 608.5 -0.196923 4.16735 0
M  V30 6585 H 607.13 -0.711433 3.14863 0
M  V30 6586 H 606.182 1.69485 3.40557 0
M  V30 6587 H 607.494 2.0238 4.55899 0
M  V30 6588 H 606.648 0.210976 6.06333 0
M  V30 6589 H 605.387 -0.215584 4.87223 0
M  V30 6590 H 604.392 2.07899 5.08978 0
M  V30 6591 H 605.617 2.49861 6.31464 0
M  V30 6592 H 603.563 0.267451 6.55455 0
M  V30 6593 H 603.48 1.81011 7.3401 0
M  V30 6594 H 604.748 0.698906 7.7636 0
M  V30 6595 N 608.977 -1.30795 0.87923 0
M  V30 6596 C 609.924 -2.28282 0.339968 0
M  V30 6597 C 610.894 -1.56134 -0.566685 0
M  V30 6598 O 612.079 -1.84231 -0.496338 0
M  V30 6599 C 609.219 -3.42225 -0.444501 0
M  V30 6600 C 608.332 -4.29204 0.490717 0
M  V30 6601 C 607.467 -5.30302 -0.308784 0
M  V30 6602 C 606.506 -6.08929 0.622272 0
M  V30 6603 N 605.643 -7.01957 -0.14155 0
M  V30 6604 H 610.483 -2.73794 1.17647 0
M  V30 6605 H 608.02 -1.34682 0.591527 0
M  V30 6606 H 609.978 -4.07038 -0.915186 0
M  V30 6607 H 608.608 -2.97799 -1.24562 0
M  V30 6608 H 607.66 -3.6475 1.07988 0
M  V30 6609 H 608.972 -4.84045 1.20425 0
M  V30 6610 H 608.126 -6.00835 -0.841575 0
M  V30 6611 H 606.865 -4.7614 -1.05556 0
M  V30 6612 H 605.87 -5.37278 1.16674 0
M  V30 6613 H 607.095 -6.65178 1.36804 0
M  V30 6614 H 605.041 -6.50192 -0.870966 0
M  V30 6615 H 604.958 -7.54261 0.51246 0
M  V30 6616 H 606.226 -7.76741 -0.655271 0
M  V30 6617 N 610.455 -0.639598 -1.44038 0
M  V30 6618 C 611.732 -0.078012 -1.95444 0
M  V30 6619 C 612.112 1.39847 -1.58133 0
M  V30 6620 O 611.46 2.11714 -0.859614 0
M  V30 6621 C 611.67 -0.309832 -3.47622 0
M  V30 6622 C 613.018 -0.207521 -4.24093 0
M  V30 6623 O 614.042 -0.241653 -3.55379 0
M  V30 6624 O 612.901 -0.119641 -5.46369 0
M  V30 6625 H 609.995 0.0174534 -0.826816 0
M  V30 6626 H 612.541 -0.711891 -1.54046 0
M  V30 6627 H 611.313 -1.33401 -3.67858 0
M  V30 6628 H 610.936 0.357777 -3.95987 0
M  V30 6629 N 611.933 1.52934 -0.380664 0
M  V30 6630 C 613.179 2.01765 0.20458 0
M  V30 6631 C 613.512 1.26696 1.47179 0
M  V30 6632 O 612.787 0.364936 1.91046 0
M  V30 6633 C 613.07 3.56869 0.481269 0
M  V30 6634 C 612.923 4.42617 -0.800629 0
M  V30 6635 C 614.242 4.2121 1.27554 0
M  V30 6636 H 611.361 0.733388 0.0728803 0
M  V30 6637 H 614.003 1.83068 -0.50853 0
M  V30 6638 H 612.153 3.72932 1.08875 0
M  V30 6639 H 613.825 4.38323 -1.43773 0
M  V30 6640 H 612.068 4.09977 -1.4178 0
M  V30 6641 H 612.739 5.49134 -0.561791 0
M  V30 6642 H 615.215 4.09072 0.761514 0
M  V30 6643 H 614.091 5.29732 1.43788 0
M  V30 6644 H 614.352 3.78269 2.28833 0
M  V30 6645 N 613.412 0.11024 1.57214 0
M  V30 6646 C 614.658 -0.550684 1.9518 0
M  V30 6647 C 614.991 -1.66885 0.993122 0
M  V30 6648 O 614.266 -1.94479 0.0287907 0
M  V30 6649 C 614.549 -1.09163 3.43155 0
M  V30 6650 C 614.402 0.0225198 4.49794 0
M  V30 6651 C 615.721 -1.98527 3.92778 0
M  V30 6652 H 612.84 -0.198706 0.709708 0
M  V30 6653 H 615.482 0.184024 1.89107 0
M  V30 6654 H 613.632 -1.71775 3.48462 0
M  V30 6655 H 615.304 0.657443 4.56591 0
M  V30 6656 H 613.547 0.686868 4.28328 0
M  V30 6657 H 614.218 -0.39706 5.5057 0
M  V30 6658 H 616.694 -1.458 3.8972 0
M  V30 6659 H 615.57 -2.33298 4.96853 0
M  V30 6660 H 615.831 -2.90846 3.32958 0
M  V30 6661 N 614.89 -1.56749 -0.16351 0
M  V30 6662 C 615.82 -2.00042 -1.20438 0
M  V30 6663 C 616.801 -0.877256 -1.45733 0
M  V30 6664 O 617.986 -1.1439 -1.56935 0
M  V30 6665 C 615.116 -2.36697 -2.54149 0
M  V30 6666 C 614.07 -3.52046 -2.43408 0
M  V30 6667 C 613.396 -3.74466 -3.81679 0
M  V30 6668 C 614.696 -4.85247 -1.93216 0
M  V30 6669 H 616.39 -2.87244 -0.844477 0
M  V30 6670 H 613.936 -1.38194 -0.40478 0
M  V30 6671 H 615.889 -2.65582 -3.27176 0
M  V30 6672 H 614.613 -1.46414 -2.91943 0
M  V30 6673 H 613.272 -3.23301 -1.72834 0
M  V30 6674 H 612.92 -2.81461 -4.1688 0
M  V30 6675 H 612.62 -4.52084 -3.75359 0
M  V30 6676 H 614.144 -4.0576 -4.5628 0
M  V30 6677 H 615.558 -5.12957 -2.56023 0
M  V30 6678 H 613.955 -5.66556 -1.97825 0
M  V30 6679 H 615.025 -4.7672 -0.88689 0
M  V30 6680 N 616.368 0.432326 -1.51554 0
M  V30 6681 C 617.301 1.54525 -1.6792 0
M  V30 6682 C 618.279 1.53831 -0.526764 0
M  V30 6683 O 619.463 1.72884 -0.751233 0
M  V30 6684 C 616.59 2.931 -1.69736 0
M  V30 6685 C 615.636 3.11799 -2.91005 0
M  V30 6686 S 616.469 2.87565 -4.51737 0
M  V30 6687 C 617.625 4.28412 -4.56305 0
M  V30 6688 H 617.858 1.4041 -2.62054 0
M  V30 6689 H 615.391 0.622357 -1.41301 0
M  V30 6690 H 617.349 3.72974 -1.71467 0
M  V30 6691 H 616.01 3.04574 -0.767705 0
M  V30 6692 H 615.203 4.13127 -2.8869 0
M  V30 6693 H 614.805 2.39757 -2.87041 0
M  V30 6694 H 617.097 5.21692 -4.32254 0
M  V30 6695 H 618.04 4.35758 -5.58141 0
M  V30 6696 H 618.448 4.12301 -3.85576 0
M  V30 6697 N 617.846 1.41785 0.688094 0
M  V30 6698 C 619.123 1.32031 1.44316 0
M  V30 6699 C 619.503 -0.0486079 2.11044 0
M  V30 6700 O 618.851 -1.06332 2.02252 0
M  V30 6701 C 619.061 2.47906 2.45649 0
M  V30 6702 C 620.409 2.89415 3.10683 0
M  V30 6703 O 621.433 2.477 2.55975 0
M  V30 6704 O 620.292 3.61573 4.09789 0
M  V30 6705 H 617.386 0.519994 0.643067 0
M  V30 6706 H 619.932 1.53765 0.71794 0
M  V30 6707 H 618.704 3.39222 1.95048 0
M  V30 6708 H 618.327 2.28089 3.25671 0
M  V30 6709 N 619.324 -0.923095 1.27737 0
M  V30 6710 C 620.601 -1.64989 1.05062 0
M  V30 6711 C 620.981 -2.07018 -0.413124 0
M  V30 6712 O 620.329 -1.80797 -1.39731 0
M  V30 6713 C 620.539 -2.84847 2.01652 0
M  V30 6714 C 621.887 -3.56083 2.31279 0
M  V30 6715 O 622.911 -2.94981 1.99662 0
M  V30 6716 O 621.77 -4.66182 2.85196 0
M  V30 6717 H 618.864 -0.723357 0.400853 0
M  V30 6718 H 621.41 -0.973224 1.3902 0
M  V30 6719 H 620.182 -2.50814 3.00347 0
M  V30 6720 H 619.805 -3.60231 1.68284 0
M  V30 6721 N 620.802 -1.09834 -1.13024 0
M  V30 6722 C 622.079 -0.749225 -1.80682 0
M  V30 6723 C 622.459 0.765171 -1.96744 0
M  V30 6724 O 621.807 1.68912 -1.53886 0
M  V30 6725 C 622.017 -1.49311 -3.15448 0
M  V30 6726 C 623.365 -1.66162 -3.90737 0
M  V30 6727 O 624.389 -1.45597 -3.25085 0
M  V30 6728 O 623.248 -2.00211 -5.08505 0
M  V30 6729 H 620.342 -0.269614 -0.781817 0
M  V30 6730 H 622.888 -1.20078 -1.19914 0
M  V30 6731 H 621.66 -2.52407 -2.99009 0
M  V30 6732 H 621.283 -1.034 -3.8392 0
M  V30 6733 N 622.28 1.30327 -0.886154 0
M  V30 6734 C 623.526 1.96388 -0.505941 0
M  V30 6735 C 623.859 1.69784 0.942712 0
M  V30 6736 O 623.134 1.00322 1.6663 0
M  V30 6737 C 623.417 3.51488 -0.782826 0
M  V30 6738 C 623.27 3.87603 -2.28219 0
M  V30 6739 C 624.589 4.39331 -0.260128 0
M  V30 6740 H 621.708 0.713327 -0.185292 0
M  V30 6741 H 624.35 1.54178 -1.11036 0
M  V30 6742 H 622.5 3.87572 -0.268399 0
M  V30 6743 H 624.172 3.61537 -2.86512 0
M  V30 6744 H 622.415 3.3563 -2.74837 0
M  V30 6745 H 623.086 4.95806 -2.42653 0
M  V30 6746 H 625.562 4.10162 -0.700444 0
M  V30 6747 H 624.438 5.46769 -0.483179 0
M  V30 6748 H 624.699 4.34072 0.838674 0
M  V30 6749 N 623.758 0.647228 1.43697 0
M  V30 6750 C 624.668 -0.0487997 2.34549 0
M  V30 6751 C 625.684 -0.818586 1.53542 0
M  V30 6752 O 626.86 -0.767195 1.86215 0
M  V30 6753 C 623.925 -1.00734 3.31743 0
M  V30 6754 C 622.986 -0.23515 4.28655 0
M  V30 6755 C 622.219 -1.14803 5.21206 0
M  V30 6756 O 622.442 -2.38717 5.18045 0
M  V30 6757 O 621.376 -0.623667 5.9866 0
M  V30 6758 H 625.202 0.698863 2.9555 0
M  V30 6759 H 622.787 0.407412 1.43738 0
M  V30 6760 H 624.669 -1.55837 3.91526 0
M  V30 6761 H 623.344 -1.73534 2.73254 0
M  V30 6762 H 622.251 0.359319 3.7237 0
M  V30 6763 H 623.584 0.453152 4.9011 0
M  V30 6764 N 625.236 -1.5273 0.388769 0
M  V30 6765 C 626.476 -2.03483 -0.193372 0
M  V30 6766 C 626.84 -1.26897 -1.44087 0
M  V30 6767 O 628.041 -1.67773 -2.10014 0
M  V30 6768 C 626.312 -3.54488 -0.455325 0
M  V30 6769 S 627.871 -4.27069 -1.00783 0
M  V30 6770 H 624.689 -0.708907 -0.0545131 0
M  V30 6771 H 627.291 -1.8798 0.536993 0
M  V30 6772 H 625.995 -4.07817 0.459722 0
M  V30 6773 H 625.526 -3.74196 -1.21413 0
M  V30 6774 H 627.541 -4.40185 -2.29023 0
M  V30 6775 N 626.714 -0.118576 -1.57153 0
M  V30 6776 C 627.942 0.54726 -1.99531 0
M  V30 6777 C 628.357 1.60251 -0.998246 0
M  V30 6778 O 627.714 1.82498 0.00893106 0
M  V30 6779 C 627.765 1.17378 -3.41913 0
M  V30 6780 O 627.486 0.160703 -4.37805 0
M  V30 6781 C 628.987 1.92297 -3.9942 0
M  V30 6782 H 626.207 0.144919 -0.655164 0
M  V30 6783 H 628.751 -0.20479 -2.03472 0
M  V30 6784 H 626.906 1.87661 -3.38913 0
M  V30 6785 H 627.32 0.61586 -5.20872 0
M  V30 6786 H 628.794 2.31462 -5.01128 0
M  V30 6787 H 629.271 2.79801 -3.38538 0
M  V30 6788 H 629.877 1.26777 -4.05965 0
M  V30 6789 N 628.193 1.56834 0.155195 0
M  V30 6790 C 629.126 1.9278 1.22111 0
M  V30 6791 C 630.104 0.792588 1.41975 0
M  V30 6792 O 631.288 1.04743 1.5672 0
M  V30 6793 C 628.415 2.19273 2.58142 0
M  V30 6794 C 627.461 3.41932 2.54921 0
M  V30 6795 S 628.294 4.95769 2.02418 0
M  V30 6796 C 629.45 5.25375 3.40194 0
M  V30 6797 H 629.683 2.82889 0.914393 0
M  V30 6798 H 627.216 1.50133 0.360461 0
M  V30 6799 H 629.174 2.35217 3.36427 0
M  V30 6800 H 627.835 1.29843 2.86007 0
M  V30 6801 H 627.028 3.57721 3.55038 0
M  V30 6802 H 626.63 3.25188 1.8474 0
M  V30 6803 H 628.922 5.1834 4.36268 0
M  V30 6804 H 629.865 6.26889 3.29266 0
M  V30 6805 H 630.273 4.52906 3.36951 0
M  V30 6806 N 629.671 -0.424282 1.51781 0
M  V30 6807 C 630.917 -1.17434 1.6534 0
M  V30 6808 C 631.25 -1.90549 0.374806 0
M  V30 6809 O 630.525 -1.84145 -0.626179 0
M  V30 6810 C 630.808 -2.18093 2.86544 0
M  V30 6811 C 630.661 -1.48975 4.24413 0
M  V30 6812 C 631.98 -3.18934 3.03264 0
M  V30 6813 H 629.099 -0.425566 0.601716 0
M  V30 6814 H 631.741 -0.461921 1.84299 0
M  V30 6815 H 629.891 -2.78849 2.7051 0
M  V30 6816 H 631.563 -0.914551 4.52143 0
M  V30 6817 H 629.806 -0.791893 4.26511 0
M  V30 6818 H 630.477 -2.22347 5.05238 0
M  V30 6819 H 632.953 -2.68243 3.18096 0
M  V30 6820 H 631.829 -3.86645 3.89611 0
M  V30 6821 H 632.09 -3.85793 2.15908 0
M  V30 6822 N 631.149 -1.42148 -0.680565 0
M  V30 6823 C 632.059 -1.47565 -1.82378 0
M  V30 6824 C 633.075 -0.36489 -1.70131 0
M  V30 6825 O 634.251 -0.614916 -1.91783 0
M  V30 6826 C 631.316 -1.37013 -3.18478 0
M  V30 6827 C 630.377 -2.58532 -3.42724 0
M  V30 6828 C 629.61 -2.48473 -4.72331 0
M  V30 6829 O 629.833 -1.51745 -5.49845 0
M  V30 6830 O 628.767 -3.38503 -4.97694 0
M  V30 6831 H 632.593 -2.44045 -1.80764 0
M  V30 6832 H 630.178 -1.23849 -0.835569 0
M  V30 6833 H 632.06 -1.33468 -3.99705 0
M  V30 6834 H 630.735 -0.436552 -3.20743 0
M  V30 6835 H 629.642 -2.67652 -2.61368 0
M  V30 6836 H 630.975 -3.50769 -3.45286 0
M  V30 6837 N 632.627 0.916307 -1.28225 0
M  V30 6838 C 633.574 2.01841 -1.11932 0
M  V30 6839 C 634.544 1.66091 -0.0171604 0
M  V30 6840 O 635.729 1.89934 -0.181617 0
M  V30 6841 C 632.869 3.36065 -0.784504 0
M  V30 6842 C 631.982 3.847 -1.96544 0
M  V30 6843 C 631.117 5.07423 -1.57149 0
M  V30 6844 C 630.156 5.48384 -2.71922 0
M  V30 6845 N 629.293 6.62298 -2.33037 0
M  V30 6846 H 634.133 2.1511 -2.06232 0
M  V30 6847 H 631.67 1.05366 -1.02647 0
M  V30 6848 H 633.628 4.13272 -0.571148 0
M  V30 6849 H 632.258 3.22571 0.121565 0
M  V30 6850 H 631.31 3.03673 -2.291 0
M  V30 6851 H 632.622 4.1102 -2.82603 0
M  V30 6852 H 631.776 5.92165 -1.32004 0
M  V30 6853 H 630.515 4.82906 -0.682153 0
M  V30 6854 H 629.52 4.62184 -2.97768 0
M  V30 6855 H 630.745 5.7489 -3.61494 0
M  V30 6856 H 628.691 6.39416 -1.4657 0
M  V30 6857 H 628.608 6.8833 -3.12631 0
M  V30 6858 H 629.876 7.50352 -2.11169 0
M  V30 6859 N 634.105 1.10431 1.1244 0
M  V30 6860 C 635.521 0.836096 1.35947 0
M  V30 6861 C 635.721 -0.544475 1.94004 0
M  V30 6862 O 634.777 -1.29735 2.16622 0
M  V30 6863 C 636.09 1.93575 2.30107 0
M  V30 6864 C 637.638 1.9642 2.43697 0
M  V30 6865 C 638.113 3.05559 3.41171 0
M  V30 6866 N 639.604 3.04865 3.48728 0
M  V30 6867 C 640.339 3.85954 4.24061 0
M  V30 6868 N 639.835 4.76977 5.02458 0
M  V30 6869 N 641.628 3.74172 4.19466 0
M  V30 6870 H 633.779 1.9942 0.731124 0
M  V30 6871 H 636.042 0.866607 0.384312 0
M  V30 6872 H 635.748 2.92943 1.94621 0
M  V30 6873 H 635.622 1.8229 3.30227 0
M  V30 6874 H 638.009 0.97685 2.78463 0
M  V30 6875 H 638.09 2.11782 1.43465 0
M  V30 6876 H 637.734 4.04513 3.07135 0
M  V30 6877 H 637.664 2.87438 4.41234 0
M  V30 6878 H 640.155 2.38908 2.92799 0
M  V30 6879 H 640.468 5.35409 5.57277 0
M  V30 6880 H 638.813 4.81006 5.01655 0
M  V30 6881 H 642.004 3.02412 3.57302 0
M  V30 6882 H 642.177 4.37602 4.77921 0
M  V30 6883 N 635.583 -1.29855 0.893053 0
M  V30 6884 C 636.829 -1.96116 0.516349 0
M  V30 6885 C 637.162 -1.70281 -0.933695 0
M  V30 6886 O 636.437 -1.01205 -1.66096 0
M  V30 6887 C 636.72 -3.51068 0.801455 0
M  V30 6888 C 636.573 -3.86387 2.30272 0
M  V30 6889 C 637.892 -4.39186 0.283423 0
M  V30 6890 H 635.011 -0.712335 0.189072 0
M  V30 6891 H 637.653 -1.53587 1.11852 0
M  V30 6892 H 635.803 -3.87424 0.288949 0
M  V30 6893 H 637.475 -3.60012 2.88425 0
M  V30 6894 H 635.718 -3.34167 2.76613 0
M  V30 6895 H 636.389 -4.94512 2.45279 0
M  V30 6896 H 638.865 -4.09785 0.722187 0
M  V30 6897 H 637.741 -5.46505 0.512169 0
M  V30 6898 H 638.002 -4.34511 -0.815643 0
M  V30 6899 N 637.061 -0.65484 -1.43351 0
M  V30 6900 C 637.991 0.0221809 -2.33489 0
M  V30 6901 C 638.972 0.810272 -1.49561 0
M  V30 6902 O 640.157 0.771426 -1.78221 0
M  V30 6903 C 637.287 0.988117 -3.32947 0
M  V30 6904 C 636.241 0.310026 -4.26876 0
M  V30 6905 C 635.567 1.38752 -5.16384 0
M  V30 6906 C 636.867 -0.798589 -5.16159 0
M  V30 6907 H 638.561 -0.730571 -2.9035 0
M  V30 6908 H 636.107 -0.352773 -1.39612 0
M  V30 6909 H 638.06 1.47067 -3.94904 0
M  V30 6910 H 636.784 1.77205 -2.74346 0
M  V30 6911 H 635.443 -0.152097 -3.66284 0
M  V30 6912 H 635.091 2.16293 -4.54121 0
M  V30 6913 H 634.791 0.939051 -5.80048 0
M  V30 6914 H 636.315 1.87141 -5.81215 0
M  V30 6915 H 637.729 -0.398126 -5.71916 0
M  V30 6916 H 636.126 -1.17163 -5.88552 0
M  V30 6917 H 637.196 -1.65588 -4.55751 0
M  V30 6918 N 638.539 1.52521 -0.396863 0
M  V30 6919 C 639.764 2.06571 0.185258 0
M  V30 6920 C 640.189 1.26605 1.39115 0
M  V30 6921 O 639.547 0.293055 1.78916 0
M  V30 6922 C 639.595 3.5674 0.526189 0
M  V30 6923 O 638.699 3.7929 1.61903 0
M  V30 6924 H 638.04 0.663712 0.0195474 0
M  V30 6925 H 640.57 1.966 -0.566519 0
M  V30 6926 H 640.58 4.00311 0.788338 0
M  V30 6927 H 639.255 4.14379 -0.355397 0
M  V30 6928 H 637.832 3.47605 1.35 0
M  V30 6929 N 640.017 0.126909 1.57088 0
M  V30 6930 C 640.947 -0.816847 2.18746 0
M  V30 6931 C 641.928 -1.27161 1.12979 0
M  V30 6932 O 643.113 -1.33279 1.41246 0
M  V30 6933 C 640.243 -2.06398 2.79315 0
M  V30 6934 C 639.197 -1.74673 3.90735 0
M  V30 6935 C 638.523 -3.06482 4.38147 0
M  V30 6936 C 639.823 -1.0089 5.12463 0
M  V30 6937 H 641.517 -0.303032 2.97863 0
M  V30 6938 H 639.063 -0.144314 1.43275 0
M  V30 6939 H 641.016 -2.72885 3.2111 0
M  V30 6940 H 639.74 -2.60118 1.975 0
M  V30 6941 H 638.399 -1.10572 3.49527 0
M  V30 6942 H 638.047 -3.58152 3.5318 0
M  V30 6943 H 637.747 -2.86025 5.13287 0
M  V30 6944 H 639.271 -3.74073 4.82599 0
M  V30 6945 H 640.685 -1.57546 5.51228 0
M  V30 6946 H 639.082 -0.905006 5.93237 0
M  V30 6947 H 640.152 0.00297335 4.849 0
M  V30 6948 N 641.495 -1.56914 -0.146875 0
M  V30 6949 C 642.458 -1.97368 -1.16526 0
M  V30 6950 C 643.458 -0.860223 -1.35856 0
M  V30 6951 O 644.648 -1.12684 -1.32846 0
M  V30 6952 C 641.78 -2.28974 -2.52555 0
M  V30 6953 H 642.973 -2.88523 -0.818209 0
M  V30 6954 H 640.526 -1.5135 -0.390221 0
M  V30 6955 H 641.261 -1.40611 -2.92231 0
M  V30 6956 H 641.046 -3.10157 -2.39886 0
M  V30 6957 H 642.536 -2.61109 -3.25902 0
M  V30 6958 N 642.974 0.416227 -1.52004 0
M  V30 6959 C 644.22 1.16233 -1.66917 0
M  V30 6960 C 644.575 1.8839 -0.390763 0
M  V30 6961 O 643.868 1.81479 0.614478 0
M  V30 6962 C 644.062 2.18923 -2.82502 0
M  V30 6963 C 643.891 1.56849 -4.2146 0
M  V30 6964 C 642.661 1.34426 -4.87091 0
M  V30 6965 C 644.859 1.03322 -5.03815 0
M  V30 6966 N 642.841 0.681703 -6.10103 0
M  V30 6967 C 644.212 0.497165 -6.18003 0
M  V30 6968 C 646.267 0.926997 -4.89194 0
M  V30 6969 C 644.97 -0.134687 -7.19174 0
M  V30 6970 C 646.996 0.309009 -5.90592 0
M  V30 6971 C 646.358 -0.216399 -7.04068 0
M  V30 6972 H 642.457 0.412252 -0.664509 0
M  V30 6973 H 645.041 0.455758 -1.89291 0
M  V30 6974 H 643.212 2.86946 -2.61756 0
M  V30 6975 H 644.944 2.85844 -2.86488 0
M  V30 6976 H 641.699 1.61183 -4.45328 0
M  V30 6977 H 642.123 0.367256 -6.76003 0
M  V30 6978 H 646.765 1.31904 -4.01698 0
M  V30 6979 H 644.483 -0.538811 -8.06302 0
M  V30 6980 H 648.069 0.228438 -5.81351 0
M  V30 6981 H 646.949 -0.687064 -7.81184 0
M  V30 6982 N 644.452 1.42507 0.673017 0
M  V30 6983 C 645.362 1.4853 1.81593 0
M  V30 6984 C 646.378 0.373907 1.69935 0
M  V30 6985 O 647.554 0.625078 1.91454 0
M  V30 6986 C 644.619 1.387 3.17747 0
M  V30 6987 C 643.68 2.60346 3.41348 0
M  V30 6988 C 642.913 2.50975 4.71007 0
M  V30 6989 O 643.136 1.54659 5.49033 0
M  V30 6990 O 642.07 3.41138 4.95892 0
M  V30 6991 H 645.896 2.45001 1.79467 0
M  V30 6992 H 643.481 1.2429 0.82899 0
M  V30 6993 H 645.363 1.35586 3.98992 0
M  V30 6994 H 644.038 0.453555 3.20507 0
M  V30 6995 H 642.945 2.69034 2.59945 0
M  V30 6996 H 644.278 3.52595 3.43421 0
M  V30 6997 N 645.93 -0.909495 1.28709 0
M  V30 6998 C 646.88 -1.9991 1.09636 0
M  V30 6999 C 647.864 -1.60889 0.01872 0
M  V30 7000 O 649.056 -1.75374 0.239338 0
M  V30 7001 C 646.185 -3.34675 0.764702 0
M  V30 7002 C 645.271 -3.80085 1.8814 0
M  V30 7003 N 645.662 -3.97824 3.12361 0
M  V30 7004 C 643.96 -4.09278 1.77221 0
M  V30 7005 C 644.661 -4.35928 3.85151 0
M  V30 7006 N 643.637 -4.44426 3.13028 0
M  V30 7007 H 647.439 -2.11681 2.03883 0
M  V30 7008 H 644.953 -1.09763 1.1969 0
M  V30 7009 H 646.95 -4.12426 0.609132 0
M  V30 7010 H 645.61 -3.24255 -0.169952 0
M  V30 7011 H 646.621 -3.83626 3.47925 0
M  V30 7012 H 643.298 -4.0747 0.909621 0
M  V30 7013 H 644.688 -4.57581 4.92006 0
M  V30 7014 N 647.408 -1.11026 -1.11852 0
M  V30 7015 C 648.819 -0.873203 -1.65021 0
M  V30 7016 C 649.17 0.595364 -1.86949 0
M  V30 7017 O 648.295 1.45645 -1.60051 0
M  V30 7018 C 648.89 -1.57859 -2.99777 0
M  V30 7019 C 647.449 -1.38807 -3.49871 0
M  V30 7020 C 646.596 -1.62403 -2.24768 0
M  V30 7021 H 649.547 -1.26712 -0.955503 0
M  V30 7022 H 649.568 -1.02111 -3.66543 0
M  V30 7023 H 649.08 -2.6474 -2.83786 0
M  V30 7024 H 647.181 -0.341163 -3.71035 0
M  V30 7025 H 647.294 -2.13421 -4.28938 0
M  V30 7026 H 645.658 -1.04714 -2.32179 0
M  V30 7027 H 646.441 -2.70549 -2.11324 0
M  V30 7028 N 648.886 1.2938 -0.899927 0
M  V30 7029 C 650.133 1.9555 -0.525963 0
M  V30 7030 C 650.461 1.70945 0.927789 0
M  V30 7031 O 649.716 1.01545 1.67293 0
M  V30 7032 C 650.015 3.49114 -0.765113 0
M  V30 7033 C 649.681 3.93796 -2.19626 0
M  V30 7034 C 648.343 4.05707 -2.58758 0
M  V30 7035 C 650.695 4.16883 -3.12823 0
M  V30 7036 C 648.023 4.38074 -3.90267 0
M  V30 7037 C 650.375 4.50725 -4.4388 0
M  V30 7038 C 649.039 4.60845 -4.82885 0
M  V30 7039 H 648.309 0.715569 -0.192463 0
M  V30 7040 H 650.956 1.53972 -1.13863 0
M  V30 7041 H 649.261 3.91738 -0.069531 0
M  V30 7042 H 650.958 3.98409 -0.455144 0
M  V30 7043 H 647.548 3.85042 -1.88256 0
M  V30 7044 H 651.732 4.07147 -2.83804 0
M  V30 7045 H 646.988 4.44112 -4.20207 0
M  V30 7046 H 651.162 4.67538 -5.16121 0
M  V30 7047 H 648.789 4.85681 -5.84823 0
M  V30 7048 N 650.364 0.662433 1.43002 0
M  V30 7049 C 651.294 -0.00979809 2.33498 0
M  V30 7050 C 652.275 -0.802329 1.49989 0
M  V30 7051 O 653.46 -0.761964 1.78627 0
M  V30 7052 C 650.59 -0.970446 3.33466 0
M  V30 7053 C 649.544 -0.287383 4.27034 0
M  V30 7054 C 648.87 -1.36012 5.17112 0
M  V30 7055 C 650.17 0.82595 5.15728 0
M  V30 7056 H 651.864 0.745959 2.89958 0
M  V30 7057 H 649.41 0.360172 1.39423 0
M  V30 7058 H 651.363 -1.44971 3.95679 0
M  V30 7059 H 650.087 -1.75748 2.75282 0
M  V30 7060 H 648.746 0.17152 3.66199 0
M  V30 7061 H 648.394 -2.13882 4.55262 0
M  V30 7062 H 648.094 -0.908276 5.80538 0
M  V30 7063 H 649.618 -1.84056 5.82199 0
M  V30 7064 H 651.032 0.42845 5.71697 0
M  V30 7065 H 649.429 1.20282 5.87922 0
M  V30 7066 H 650.499 1.68003 4.54866 0
M  V30 7067 N 651.842 -1.52309 0.404946 0
M  V30 7068 C 653.07 -2.06185 -0.171818 0
M  V30 7069 C 653.485 -1.27536 -1.39212 0
M  V30 7070 O 652.842 -0.326112 -1.79563 0
M  V30 7071 C 652.893 -3.57647 -0.526417 0
M  V30 7072 O 652.614 -4.3332 0.645417 0
M  V30 7073 C 654.115 -4.27925 -1.15736 0
M  V30 7074 H 651.335 -0.670632 -0.0222328 0
M  V30 7075 H 653.879 -1.96259 0.574692 0
M  V30 7076 H 652.034 -3.67595 -1.22282 0
M  V30 7077 H 652.448 -5.23328 0.35042 0
M  V30 7078 H 653.922 -5.35093 -1.35572 0
M  V30 7079 H 654.399 -3.84134 -2.12926 0
M  V30 7080 H 655.005 -4.22335 -0.501281 0
M  V30 7081 N 653.32 -0.135238 -1.57019 0
M  V30 7082 C 654.27 0.820408 -2.12728 0
M  V30 7083 C 655.254 1.21735 -1.05211 0
M  V30 7084 O 656.446 1.18574 -1.31413 0
M  V30 7085 C 653.575 2.06414 -2.74314 0
M  V30 7086 C 652.661 1.69083 -3.88937 0
M  V30 7087 N 653.052 1.0251 -4.95303 0
M  V30 7088 C 651.35 1.98434 -3.99425 0
M  V30 7089 C 652.051 0.846749 -5.75504 0
M  V30 7090 N 651.027 1.3769 -5.25873 0
M  V30 7091 H 654.829 0.302426 -2.9234 0
M  V30 7092 H 652.343 0.0667009 -1.62263 0
M  V30 7093 H 654.34 2.75863 -3.12579 0
M  V30 7094 H 653 2.58741 -1.96171 0
M  V30 7095 H 654.011 0.687207 -5.1332 0
M  V30 7096 H 650.688 2.52693 -3.32344 0
M  V30 7097 H 652.078 0.322949 -6.71123 0
M  V30 7098 N 654.798 1.5699 0.138552 0
M  V30 7099 C 655.731 1.94064 1.2006 0
M  V30 7100 C 656.709 0.807601 1.41126 0
M  V30 7101 O 657.893 1.06399 1.556 0
M  V30 7102 C 655.02 2.21999 2.55801 0
M  V30 7103 C 654.066 3.44617 2.5128 0
M  V30 7104 S 654.899 4.97888 1.97149 0
M  V30 7105 C 656.055 5.28954 3.34602 0
M  V30 7106 H 656.288 2.83843 0.884337 0
M  V30 7107 H 653.821 1.50507 0.344517 0
M  V30 7108 H 655.779 2.38772 3.33914 0
M  V30 7109 H 654.44 1.32869 2.84613 0
M  V30 7110 H 653.633 3.61466 3.51224 0
M  V30 7111 H 653.235 3.27129 1.8128 0
M  V30 7112 H 655.527 5.22938 4.30745 0
M  V30 7113 H 656.47 6.30346 3.22598 0
M  V30 7114 H 656.878 4.56455 3.32128 0
M  V30 7115 N 656.276 -0.40816 1.52223 0
M  V30 7116 C 657.523 -1.15502 1.66329 0
M  V30 7117 C 657.851 -1.90474 0.393701 0
M  V30 7118 O 657.106 -1.85507 -0.623356 0
M  V30 7119 C 657.405 -2.17422 2.83659 0
M  V30 7120 C 657.071 -1.5925 4.21841 0
M  V30 7121 C 655.733 -1.4311 4.59427 0
M  V30 7122 C 658.085 -1.16776 5.0795 0
M  V30 7123 C 655.413 -0.830148 5.80797 0
M  V30 7124 C 657.765 -0.580988 6.29926 0
M  V30 7125 C 656.429 -0.406729 6.6626 0
M  V30 7126 H 655.699 -0.422653 0.608642 0
M  V30 7127 H 658.346 -0.442114 1.86327 0
M  V30 7128 H 656.651 -2.94861 2.58001 0
M  V30 7129 H 658.348 -2.75084 2.9177 0
M  V30 7130 H 654.938 -1.72796 3.92224 0
M  V30 7131 H 659.122 -1.28055 4.79495 0
M  V30 7132 H 654.378 -0.68316 6.07571 0
M  V30 7133 H 658.552 -0.243488 6.95974 0
M  V30 7134 H 656.179 0.0610366 7.60175 0
M  V30 7135 N 657.755 -1.42862 -0.66545 0
M  V30 7136 C 658.995 -1.45323 -1.43738 0
M  V30 7137 C 659.359 -0.0707969 -1.91869 0
M  V30 7138 O 660.56 0.0298852 -2.68783 0
M  V30 7139 C 658.831 -2.45671 -2.59577 0
M  V30 7140 S 660.39 -2.6691 -3.48288 0
M  V30 7141 H 657.208 -0.51442 -0.490809 0
M  V30 7142 H 659.81 -1.79537 -0.773745 0
M  V30 7143 H 658.514 -3.44869 -2.22471 0
M  V30 7144 H 658.045 -2.12914 -3.30804 0
M  V30 7145 H 660.06 -1.95914 -4.55886 0
M  V30 7146 N 659.233 0.902656 -1.29189 0
M  V30 7147 C 660.461 1.68639 -1.19869 0
M  V30 7148 C 660.876 1.87254 0.241121 0
M  V30 7149 O 660.233 1.40745 1.16177 0
M  V30 7150 C 660.284 3.07251 -1.90471 0
M  V30 7151 O 660.005 2.89488 -3.28829 0
M  V30 7152 C 661.506 4.01653 -1.8759 0
M  V30 7153 H 658.726 0.526802 -0.415596 0
M  V30 7154 H 661.27 1.12901 -1.7051 0
M  V30 7155 H 659.425 3.59774 -1.43672 0
M  V30 7156 H 659.839 3.77296 -3.64346 0
M  V30 7157 H 661.313 4.96339 -2.4156 0
M  V30 7158 H 661.79 4.30881 -0.850756 0
M  V30 7159 H 662.396 3.55061 -2.34119 0
M  V30 7160 N 660.711 1.11618 1.11262 0
M  V30 7161 C 661.958 0.86618 1.8304 0
M  V30 7162 C 662.286 -0.608149 1.84748 0
M  V30 7163 O 661.541 -1.46508 1.29745 0
M  V30 7164 C 661.84 1.37529 3.2988 0
M  V30 7165 C 661.506 2.86317 3.4833 0
M  V30 7166 C 660.168 3.26945 3.53073 0
M  V30 7167 C 662.52 3.82136 3.54431 0
M  V30 7168 C 659.848 4.62117 3.61475 0
M  V30 7169 C 662.2 5.17128 3.64365 0
M  V30 7170 C 660.864 5.57312 3.67369 0
M  V30 7171 H 660.134 0.316958 0.66979 0
M  V30 7172 H 662.781 1.3949 1.31205 0
M  V30 7173 H 661.086 0.766842 3.84222 0
M  V30 7174 H 662.783 1.15817 3.83911 0
M  V30 7175 H 659.373 2.53889 3.45309 0
M  V30 7176 H 663.557 3.51847 3.50025 0
M  V30 7177 H 658.813 4.92655 3.62079 0
M  V30 7178 H 662.987 5.91208 3.68029 0
M  V30 7179 H 660.614 6.62045 3.73632 0
M  V30 7180 N 662.189 -1.289 0.906776 0
M  V30 7181 C 663.121 -2.26556 0.347159 0
M  V30 7182 C 664.134 -1.54589 -0.51049 0
M  V30 7183 O 665.323 -1.75489 -0.326501 0
M  V30 7184 C 662.423 -3.3484 -0.523024 0
M  V30 7185 C 661.596 -4.36296 0.310515 0
M  V30 7186 C 660.655 -5.23879 -0.493634 0
M  V30 7187 O 659.681 -5.69127 0.0913569 0
M  V30 7188 N 660.883 -5.51946 -1.7982 0
M  V30 7189 H 663.648 -2.75212 1.18652 0
M  V30 7190 H 661.209 -1.42309 0.771996 0
M  V30 7191 H 663.201 -3.90366 -1.06756 0
M  V30 7192 H 661.771 -2.85946 -1.26309 0
M  V30 7193 H 660.991 -3.80331 1.03644 0
M  V30 7194 H 662.279 -5.01113 0.881106 0
M  V30 7195 H 661.677 -5.17006 -2.2961 0
M  V30 7196 H 660.234 -6.10258 -2.28971 0
M  V30 7197 N 663.667 -0.670007 -1.42649 0
M  V30 7198 C 664.895 -0.19854 -2.05945 0
M  V30 7199 C 665.31 1.14243 -1.50313 0
M  V30 7200 O 664.667 1.70872 -0.641027 0
M  V30 7201 C 664.718 -0.11966 -3.61302 0
M  V30 7202 O 664.439 -1.40764 -4.1487 0
M  V30 7203 C 665.94 0.375878 -4.41704 0
M  V30 7204 H 663.16 -0.0976894 -0.663851 0
M  V30 7205 H 665.704 -0.915392 -1.82868 0
M  V30 7206 H 663.859 0.547851 -3.83507 0
M  V30 7207 H 664.273 -1.27784 -5.08696 0
M  V30 7208 H 665.747 0.379988 -5.50691 0
M  V30 7209 H 666.224 1.41028 -4.15942 0
M  V30 7210 H 666.83 -0.259727 -4.24506 0
M  V30 7211 N 665.145 1.52092 -0.413018 0
M  V30 7212 C 666.092 2.27119 0.410558 0
M  V30 7213 C 667.062 1.29692 1.03774 0
M  V30 7214 O 668.247 1.58561 1.06128 0
M  V30 7215 C 665.387 3.09863 1.51918 0
M  V30 7216 C 664.5 4.22252 0.912528 0
M  V30 7217 C 663.635 4.92348 1.99417 0
M  V30 7218 C 662.674 5.96694 1.36466 0
M  V30 7219 N 661.811 6.60292 2.38661 0
M  V30 7220 H 666.651 2.97067 -0.235661 0
M  V30 7221 H 664.188 1.46542 -0.128055 0
M  V30 7222 H 666.146 3.56144 2.17295 0
M  V30 7223 H 664.776 2.42078 2.13537 0
M  V30 7224 H 663.828 3.80113 0.147697 0
M  V30 7225 H 665.14 4.9709 0.412717 0
M  V30 7226 H 664.294 5.42054 2.72512 0
M  V30 7227 H 663.033 4.17087 2.52764 0
M  V30 7228 H 662.038 5.46304 0.61906 0
M  V30 7229 H 663.263 6.73899 0.838827 0
M  V30 7230 H 661.209 5.87858 2.91134 0
M  V30 7231 H 661.126 7.30816 1.93503 0
M  V30 7232 H 662.394 7.14635 3.11314 0
M  V30 7233 N 666.623 0.143563 1.56945 0
M  V30 7234 C 667.533 -0.810562 2.20152 0
M  V30 7235 C 668.549 -1.27431 1.1848 0
M  V30 7236 O 669.725 -1.33221 1.51044 0
M  V30 7237 C 666.79 -2.03353 2.80799 0
M  V30 7238 C 665.851 -1.61936 3.97587 0
M  V30 7239 C 665.084 -2.78403 4.55332 0
M  V30 7240 O 665.307 -3.94521 4.11958 0
M  V30 7241 O 664.241 -2.54073 5.45647 0
M  V30 7242 H 668.067 -0.30253 3.02189 0
M  V30 7243 H 665.652 -0.0832925 1.49168 0
M  V30 7244 H 667.534 -2.74932 3.19359 0
M  V30 7245 H 666.209 -2.53116 2.01777 0
M  V30 7246 H 665.116 -0.873904 3.6375 0
M  V30 7247 H 666.449 -1.16892 4.78118 0
M  V30 7248 N 668.101 -1.57061 -0.130224 0
M  V30 7249 C 669.049 -2.00486 -1.17933 0
M  V30 7250 C 670.043 -0.899933 -1.43519 0
M  V30 7251 O 671.249 -1.08514 -1.43613 0
M  V30 7252 H 667.624 -0.638441 -0.397363 0
M  V30 7253 H 669.595 -2.87848 -0.786501 0
M  V30 7254 C 668.344 -2.41565 -2.50084 0
M  V30 7255 H 667.667 -3.26148 -2.31231 0
M  V30 7256 H 669.107 -2.75757 -3.22078 0
M  V30 7257 C 667.566 -1.27485 -3.11848 0
M  V30 7258 O 668.096 -0.584688 -3.97422 0
M  V30 7259 N 666.302 -1.03478 -2.71552 0
M  V30 7260 H 665.849 -1.59779 -2.02061 0
M  V30 7261 H 665.807 -0.27341 -3.13209 0
M  V30 7262 N 669.579 0.400081 -1.52437 0
M  V30 7263 C 670.509 1.4947 -1.7939 0
M  V30 7264 C 671.49 1.57383 -0.645329 0
M  V30 7265 O 672.675 1.72511 -0.891826 0
M  V30 7266 C 669.805 2.87201 -1.95276 0
M  V30 7267 C 668.759 2.94134 -3.10917 0
M  V30 7268 C 668.085 4.34207 -3.1204 0
M  V30 7269 C 669.385 2.64791 -4.50203 0
M  V30 7270 H 671.079 1.27165 -2.71052 0
M  V30 7271 H 668.625 0.610312 -1.30427 0
M  V30 7272 H 670.578 3.63772 -2.12715 0
M  V30 7273 H 669.302 3.10819 -1.00294 0
M  V30 7274 H 667.961 2.20009 -2.93243 0
M  V30 7275 H 667.609 4.54848 -2.14761 0
M  V30 7276 H 667.309 4.39768 -3.89715 0
M  V30 7277 H 668.833 5.127 -3.31619 0
M  V30 7278 H 670.247 3.31083 -4.68035 0
M  V30 7279 H 668.644 2.81717 -5.29864 0
M  V30 7280 H 669.714 1.60184 -4.57678 0
M  V30 7281 N 671.057 1.43213 0.657864 0
M  V30 7282 C 672.304 1.44584 1.41781 0
M  V30 7283 C 672.632 0.0684208 1.9438 0
M  V30 7284 O 671.887 -0.925872 1.72413 0
M  V30 7285 C 672.186 2.43143 2.61947 0
M  V30 7286 C 671.852 3.89128 2.27794 0
M  V30 7287 C 670.514 4.28889 2.18191 0
M  V30 7288 C 672.866 4.81144 2.00375 0
M  V30 7289 C 670.194 5.58625 1.79319 0
M  V30 7290 C 672.546 6.11239 1.63003 0
M  V30 7291 C 671.21 6.49981 1.51922 0
M  V30 7292 H 670.48 0.529069 0.518813 0
M  V30 7293 H 673.127 1.76263 0.748577 0
M  V30 7294 H 671.432 2.04851 3.33981 0
M  V30 7295 H 673.129 2.4146 3.20153 0
M  V30 7296 H 669.719 3.57657 2.36176 0
M  V30 7297 H 673.903 4.512 2.06718 0
M  V30 7298 H 669.159 5.87486 1.69323 0
M  V30 7299 H 673.333 6.82014 1.40817 0
M  V30 7300 H 670.96 7.50416 1.21572 0
M  V30 7301 N 672.536 -0.895792 1.29666 0
M  V30 7302 C 673.783 -1.64664 1.17864 0
M  V30 7303 C 674.111 -1.92631 -0.26902 0
M  V30 7304 O 673.366 -1.53787 -1.21029 0
M  V30 7305 C 673.665 -3.00075 1.94139 0
M  V30 7306 C 673.331 -2.91702 3.43833 0
M  V30 7307 C 671.993 -2.89126 3.84656 0
M  V30 7308 C 674.345 -2.80622 4.39205 0
M  V30 7309 C 671.673 -2.73293 5.1916 0
M  V30 7310 C 674.025 -2.66329 5.73805 0
M  V30 7311 C 672.689 -2.62121 6.1388 0
M  V30 7312 H 671.959 -0.602549 0.431295 0
M  V30 7313 H 674.606 -1.04234 1.60648 0
M  V30 7314 H 672.911 -3.64394 1.43958 0
M  V30 7315 H 674.608 -3.57111 1.82408 0
M  V30 7316 H 671.198 -2.94511 3.11386 0
M  V30 7317 H 675.382 -2.81686 4.08615 0
M  V30 7318 H 670.638 -2.68443 5.49316 0
M  V30 7319 H 674.812 -2.56727 6.47352 0
M  V30 7320 H 672.439 -2.49611 7.18052 0
M  V30 7321 N 674.014 -1.12206 -1.10668 0
M  V30 7322 C 675.26 -0.877172 -1.82848 0
M  V30 7323 C 675.593 0.595571 -1.84842 0
M  V30 7324 O 674.868 1.44013 -1.30731 0
M  V30 7325 C 675.151 -1.44957 -3.29635 0
M  V30 7326 C 675.004 -2.99051 -3.35989 0
M  V30 7327 C 676.323 -1.10714 -4.25946 0
M  V30 7328 H 673.442 -0.320103 -0.663854 0
M  V30 7329 H 676.084 -1.38827 -1.2972 0
M  V30 7330 H 674.234 -1.01488 -3.7501 0
M  V30 7331 H 675.906 -3.51182 -2.99113 0
M  V30 7332 H 674.149 -3.34705 -2.75962 0
M  V30 7333 H 674.82 -3.34194 -4.39339 0
M  V30 7334 H 677.296 -1.48254 -3.88793 0
M  V30 7335 H 676.172 -1.5343 -5.2702 0
M  V30 7336 H 676.433 -0.019 -4.42096 0
M  V30 7337 N 675.492 1.28418 -0.913599 0
M  V30 7338 C 676.425 2.25557 -0.346328 0
M  V30 7339 C 677.403 1.53038 0.549366 0
M  V30 7340 O 678.587 1.81937 0.493055 0
M  V30 7341 C 675.714 3.34915 0.504961 0
M  V30 7342 C 674.76 4.25257 -0.325334 0
M  V30 7343 S 675.593 5.06718 -1.73198 0
M  V30 7344 C 676.749 6.19569 -0.887988 0
M  V30 7345 H 676.982 2.73325 -1.16965 0
M  V30 7346 H 674.515 1.36855 -0.714841 0
M  V30 7347 H 676.473 3.98376 0.990301 0
M  V30 7348 H 675.134 2.85814 1.30267 0
M  V30 7349 H 674.327 5.02947 0.325589 0
M  V30 7350 H 673.929 3.66519 -0.744321 0
M  V30 7351 H 676.221 6.77398 -0.117568 0
M  V30 7352 H 677.164 6.88908 -1.63742 0
M  V30 7353 H 677.572 5.62812 -0.436228 0
M  V30 7354 N 676.97 0.677563 1.42291 0
M  V30 7355 C 677.88 0.000962654 2.346 0
M  V30 7356 C 678.896 -0.785833 1.55244 0
M  V30 7357 O 680.072 -0.727523 1.87801 0
M  V30 7358 C 677.137 -0.936746 3.33805 0
M  V30 7359 C 676.198 -0.144173 4.29058 0
M  V30 7360 C 675.431 -1.03722 5.23524 0
M  V30 7361 O 675.654 -2.27675 5.22992 0
M  V30 7362 O 674.588 -0.496542 5.99848 0
M  V30 7363 H 678.414 0.761397 2.94001 0
M  V30 7364 H 675.999 0.43781 1.42841 0
M  V30 7365 H 677.881 -1.47497 3.94744 0
M  V30 7366 H 676.556 -1.67698 2.76874 0
M  V30 7367 H 675.463 0.438224 3.71524 0
M  V30 7368 H 676.796 0.55701 4.89038 0
M  V30 7369 N 678.448 -1.51871 0.421078 0
M  V30 7370 C 679.678 -2.06057 -0.149723 0
M  V30 7371 C 680.086 -1.29002 -1.38402 0
M  V30 7372 O 679.429 -0.338385 -1.80556 0
M  V30 7373 C 679.491 -3.55216 -0.553339 0
M  V30 7374 C 679.155 -4.53408 0.571879 0
M  V30 7375 C 680.152 -4.99586 1.4391 0
M  V30 7376 C 677.837 -4.967 0.747979 0
M  V30 7377 C 679.831 -5.87711 2.46727 0
M  V30 7378 C 677.518 -5.84619 1.77944 0
M  V30 7379 C 678.516 -6.30021 2.63748 0
M  V30 7380 O 678.204 -7.16197 3.65126 0
M  V30 7381 H 677.936 -0.675744 -0.0186102 0
M  V30 7382 H 680.49 -1.96618 0.594166 0
M  V30 7383 H 678.72 -3.62381 -1.34969 0
M  V30 7384 H 680.409 -3.91992 -1.05342 0
M  V30 7385 H 681.175 -4.66846 1.31451 0
M  V30 7386 H 677.054 -4.60913 0.0897357 0
M  V30 7387 H 680.598 -6.2307 3.13734 0
M  V30 7388 H 676.495 -6.16771 1.90429 0
M  V30 7389 H 677.263 -7.34337 3.61512 0
M  V30 7390 N 679.926 -0.151884 -1.56866 0
M  V30 7391 C 680.856 0.781943 -2.20018 0
M  V30 7392 C 681.837 1.25347 -1.14987 0
M  V30 7393 O 683.022 1.31015 -1.43348 0
M  V30 7394 C 680.152 2.01928 -2.82564 0
M  V30 7395 C 679.106 1.68434 -3.93464 0
M  V30 7396 C 678.432 2.99472 -4.42968 0
M  V30 7397 C 679.732 0.927244 -5.14003 0
M  V30 7398 H 681.426 0.255607 -2.98307 0
M  V30 7399 H 678.972 0.121502 -1.43486 0
M  V30 7400 H 680.925 2.67741 -3.25411 0
M  V30 7401 H 679.649 2.56943 -2.01614 0
M  V30 7402 H 678.308 1.04998 -3.51242 0
M  V30 7403 H 677.956 3.52488 -3.58834 0
M  V30 7404 H 677.656 2.77823 -5.17772 0
M  V30 7405 H 679.18 3.66348 -4.88489 0
M  V30 7406 H 680.594 1.48756 -5.53665 0
M  V30 7407 H 678.991 0.810513 -5.94601 0
M  V30 7408 H 680.061 -0.0801163 -4.84834 0
M  V30 7409 N 681.404 1.57128 0.121893 0
M  V30 7410 C 682.352 2.01109 1.16868 0
M  V30 7411 C 683.346 0.907532 1.43039 0
M  V30 7412 O 684.552 1.09274 1.43036 0
M  V30 7413 H 680.927 0.640539 0.393971 0
M  V30 7414 H 682.898 2.88261 0.771224 0
M  V30 7415 C 681.647 2.42887 2.48799 0
M  V30 7416 H 680.97 3.2737 2.29498 0
M  V30 7417 H 682.41 2.77461 3.20611 0
M  V30 7418 C 680.869 1.29137 3.11168 0
M  V30 7419 O 681.399 0.605756 3.97106 0
M  V30 7420 N 679.605 1.04916 2.71 0
M  V30 7421 H 679.152 1.60848 2.01211 0
M  V30 7422 H 679.11 0.290016 3.1306 0
M  V30 7423 N 682.882 -0.391992 1.52647 0
M  V30 7424 C 684.13 -1.13507 1.67214 0
M  V30 7425 C 684.451 -1.90575 0.41304 0
M  V30 7426 O 683.721 -1.87348 -0.572498 0
M  V30 7427 H 682.301 -0.422013 0.616372 0
M  V30 7428 H 684.963 -0.44502 1.89751 0
M  V30 7429 H 684.059 -1.83964 2.52118 0
M  V30 7430 N 684.36 -1.4356 -0.65026 0
M  V30 7431 C 685.608 -1.45046 -1.40734 0
M  V30 7432 C 685.929 -0.0769822 -1.94848 0
M  V30 7433 O 685.199 0.888098 -1.74613 0
M  V30 7434 H 683.779 -0.534034 -0.522318 0
M  V30 7435 H 686.441 -1.79186 -0.766703 0
M  V30 7436 H 685.537 -2.16476 -2.24822 0
M  V30 7437 N 685.838 0.888903 -1.30139 0
M  V30 7438 C 687.115 1.62145 -1.094 0
M  V30 7439 C 687.495 2.08041 0.358091 0
M  V30 7440 O 686.843 1.84438 1.34888 0
M  V30 7441 C 687.053 2.794 -2.09133 0
M  V30 7442 C 688.401 3.49826 -2.40638 0
M  V30 7443 O 689.425 2.89583 -2.07412 0
M  V30 7444 O 688.284 4.58457 -2.97455 0
M  V30 7445 H 685.378 0.712475 -0.41989 0
M  V30 7446 H 687.924 0.936023 -1.41551 0
M  V30 7447 H 686.696 2.42762 -3.06891 0
M  V30 7448 H 686.319 3.55643 -1.77776 0
M  V30 7449 N 687.317 1.12792 1.10072 0
M  V30 7450 C 688.247 0.821688 2.18565 0
M  V30 7451 C 689.228 -0.21612 1.68721 0
M  V30 7452 O 690.413 -0.0764932 1.94049 0
M  V30 7453 C 687.543 0.279624 3.46172 0
M  V30 7454 C 686.497 1.25092 4.09312 0
M  V30 7455 C 685.823 0.568916 5.31665 0
M  V30 7456 C 687.123 2.60699 4.52585 0
M  V30 7457 H 688.817 1.72888 2.44438 0
M  V30 7458 H 686.363 0.832702 1.17482 0
M  V30 7459 H 688.316 0.053099 4.21367 0
M  V30 7460 H 687.04 -0.662929 3.19801 0
M  V30 7461 H 685.699 1.46332 3.36129 0
M  V30 7462 H 685.347 -0.378898 5.01571 0
M  V30 7463 H 685.047 1.21687 5.74862 0
M  V30 7464 H 686.571 0.351517 6.09587 0
M  V30 7465 H 687.985 2.43465 5.19035 0
M  V30 7466 H 686.382 3.21608 5.06644 0
M  V30 7467 H 687.452 3.1886 3.65317 0
M  V30 7468 N 688.795 -1.27931 0.920396 0
M  V30 7469 C 689.728 -2.2537 0.358285 0
M  V30 7470 C 690.706 -1.53328 -0.541242 0
M  V30 7471 O 691.89 -1.82196 -0.483399 0
M  V30 7472 C 689.017 -3.35178 -0.487193 0
M  V30 7473 C 688.063 -4.25079 0.347881 0
M  V30 7474 S 688.896 -5.05792 1.75883 0
M  V30 7475 C 690.052 -6.19089 0.920832 0
M  V30 7476 H 690.285 -2.72701 1.18413 0
M  V30 7477 H 687.818 -1.36474 0.722088 0
M  V30 7478 H 689.776 -3.98895 -0.96916 0
M  V30 7479 H 688.437 -2.865 -1.28749 0
M  V30 7480 H 687.63 -5.03113 -0.298912 0
M  V30 7481 H 687.232 -3.66119 0.763748 0
M  V30 7482 H 689.524 -6.77326 0.15349 0
M  V30 7483 H 690.467 -6.8803 1.67394 0
M  V30 7484 H 690.875 -5.62573 0.466069 0
M  V30 7485 N 690.273 -0.685099 -1.4193 0
M  V30 7486 C 691.503 -0.220052 -2.05425 0
M  V30 7487 C 691.911 1.13185 -1.51611 0
M  V30 7488 O 691.254 1.71631 -0.654875 0
M  V30 7489 C 691.316 -0.0888364 -3.5939 0
M  V30 7490 C 690.98 -1.37109 -4.35947 0
M  V30 7491 C 691.977 -2.30675 -4.65924 0
M  V30 7492 C 689.662 -1.62155 -4.75406 0
M  V30 7493 C 691.656 -3.47556 -5.34306 0
M  V30 7494 C 689.343 -2.79324 -5.43527 0
M  V30 7495 C 690.341 -3.71848 -5.72903 0
M  V30 7496 O 690.029 -4.86966 -6.39624 0
M  V30 7497 H 689.761 -0.102165 -0.668235 0
M  V30 7498 H 692.315 -0.935194 -1.82875 0
M  V30 7499 H 690.545 0.681981 -3.80639 0
M  V30 7500 H 692.234 0.337669 -4.04493 0
M  V30 7501 H 693 -2.12579 -4.3593 0
M  V30 7502 H 688.879 -0.910053 -4.51928 0
M  V30 7503 H 692.423 -4.19794 -5.57153 0
M  V30 7504 H 688.32 -2.97342 -5.72938 0
M  V30 7505 H 689.088 -4.86644 -6.58118 0
M  V30 7506 N 691.751 1.51645 -0.429126 0
M  V30 7507 C 692.701 2.24388 0.404217 0
M  V30 7508 C 693.685 1.26294 0.996933 0
M  V30 7509 O 694.877 1.51428 0.916434 0
M  V30 7510 C 692.006 3.08338 1.50938 0
M  V30 7511 C 691.092 4.13857 0.926464 0
M  V30 7512 N 691.483 5.05749 0.0719732 0
M  V30 7513 C 689.781 4.29695 1.19491 0
M  V30 7514 C 690.482 5.81143 -0.254528 0
M  V30 7515 N 689.458 5.42408 0.359763 0
M  V30 7516 H 693.26 2.92794 -0.254697 0
M  V30 7517 H 690.774 1.60606 -0.240712 0
M  V30 7518 H 692.771 3.59022 2.11918 0
M  V30 7519 H 691.431 2.41475 2.17072 0
M  V30 7520 H 692.442 5.17066 -0.293854 0
M  V30 7521 H 689.119 3.74059 1.85434 0
M  V30 7522 H 690.509 6.65159 -0.949365 0
M  V30 7523 N 693.229 0.160201 1.56784 0
M  V30 7524 C 694.478 -0.487619 1.95717 0
M  V30 7525 C 694.791 -1.65136 1.0483 0
M  V30 7526 O 695.997 -2.36468 1.33398 0
M  V30 7527 C 694.453 -0.91888 3.47972 0
M  V30 7528 C 694.061 0.218655 4.47466 0
M  V30 7529 C 695.805 -1.53575 3.95746 0
M  V30 7530 C 693.712 -0.231614 5.90946 0
M  V30 7531 H 692.642 -0.185939 0.730714 0
M  V30 7532 H 695.293 0.246657 1.81835 0
M  V30 7533 H 693.675 -1.70881 3.57234 0
M  V30 7534 H 694.849 0.995825 4.49911 0
M  V30 7535 H 693.164 0.744767 4.09685 0
M  V30 7536 H 695.761 -1.88448 5.00391 0
M  V30 7537 H 696.104 -2.42959 3.38048 0
M  V30 7538 H 696.637 -0.810467 3.89456 0
M  V30 7539 H 693.376 0.62718 6.52493 0
M  V30 7540 H 692.896 -0.974379 5.91833 0
M  V30 7541 H 694.575 -0.67922 6.43425 0
M  V30 7542 N 694.707 -1.5719 -0.113559 0
M  V30 7543 C 695.639 -1.97393 -1.16484 0
M  V30 7544 C 696.652 -0.873964 -1.37352 0
M  V30 7545 O 697.841 -1.15222 -1.36331 0
M  V30 7546 C 694.941 -2.26174 -2.52386 0
M  V30 7547 C 694.114 -3.57479 -2.52046 0
M  V30 7548 C 693.173 -3.74409 -3.69735 0
M  V30 7549 O 692.199 -4.46463 -3.53071 0
M  V30 7550 N 693.401 -3.13588 -4.88511 0
M  V30 7551 H 696.166 -2.88184 -0.822814 0
M  V30 7552 H 693.727 -1.59044 -0.302769 0
M  V30 7553 H 695.719 -2.3471 -3.29687 0
M  V30 7554 H 694.289 -1.41483 -2.7875 0
M  V30 7555 H 693.509 -3.60081 -1.60421 0
M  V30 7556 H 694.797 -4.43775 -2.48881 0
M  V30 7557 H 694.195 -2.55026 -5.04953 0
M  V30 7558 H 692.752 -3.27637 -5.63469 0
M  V30 7559 N 696.185 0.383891 -1.52853 0
M  V30 7560 C 697.41 1.154 -1.7233 0
M  V30 7561 C 697.835 1.82809 -0.44298 0
M  V30 7562 O 697.193 1.71026 0.601645 0
M  V30 7563 C 697.241 2.17386 -2.87708 0
M  V30 7564 O 696.345 3.24082 -2.55038 0
M  V30 7565 H 695.686 0.335709 -0.572883 0
M  V30 7566 H 698.216 0.44662 -1.99666 0
M  V30 7567 H 698.226 2.61296 -3.1335 0
M  V30 7568 H 696.901 1.6771 -3.80587 0
M  V30 7569 H 695.478 2.85273 -2.40153 0
M  V30 7570 N 697.663 1.43903 0.642637 0
M  V30 7571 C 698.903 1.47591 1.41408 0
M  V30 7572 C 699.267 0.101313 1.91733 0
M  V30 7573 O 700.468 0.0128797 2.68797 0
M  V30 7574 C 698.739 2.4977 2.55636 0
M  V30 7575 S 700.298 2.72417 3.43998 0
M  V30 7576 H 697.116 0.522163 0.482563 0
M  V30 7577 H 699.718 1.80745 0.745085 0
M  V30 7578 H 698.422 3.48365 2.16956 0
M  V30 7579 H 697.953 2.1815 3.27375 0
M  V30 7580 H 699.968 2.03142 4.52712 0
M  V30 7581 N 699.141 -0.881989 1.30609 0
M  V30 7582 C 700.091 -1.97539 1.13852 0
M  V30 7583 C 701.075 -1.60813 0.0528428 0
M  V30 7584 O 702.267 -1.74827 0.276484 0
M  V30 7585 C 699.396 -3.32977 0.835519 0
M  V30 7586 C 698.482 -3.76008 1.96159 0
M  V30 7587 N 698.873 -3.91109 3.20729 0
M  V30 7588 C 697.171 -4.05427 1.85863 0
M  V30 7589 C 697.872 -4.27661 3.94311 0
M  V30 7590 N 696.848 -4.37686 3.22385 0
M  V30 7591 H 700.65 -2.07309 2.08327 0
M  V30 7592 H 698.164 -1.072 1.21992 0
M  V30 7593 H 700.161 -4.11041 0.696477 0
M  V30 7594 H 698.821 -3.24542 -0.101135 0
M  V30 7595 H 699.832 -3.7616 3.55984 0
M  V30 7596 H 696.509 -4.05449 0.995847 0
M  V30 7597 H 697.899 -4.47042 5.01601 0
M  V30 7598 N 700.619 -1.13374 -1.09472 0
M  V30 7599 C 701.566 -0.810682 -2.16094 0
M  V30 7600 C 702.536 0.227003 -1.64541 0
M  V30 7601 O 703.721 0.0993538 -1.90541 0
M  V30 7602 C 700.861 -0.282336 -3.43943 0
M  V30 7603 C 699.974 -1.37902 -4.09398 0
M  V30 7604 C 699.109 -0.809066 -5.25002 0
M  V30 7605 C 698.148 -1.88419 -5.82379 0
M  V30 7606 N 697.285 -1.33221 -6.89345 0
M  V30 7607 H 702.125 -1.72397 -2.43071 0
M  V30 7608 H 699.662 -0.860564 -1.19301 0
M  V30 7609 H 701.62 0.0421189 -4.17179 0
M  V30 7610 H 700.25 0.594083 -3.17286 0
M  V30 7611 H 699.302 -1.82008 -3.34032 0
M  V30 7612 H 700.614 -2.19161 -4.48074 0
M  V30 7613 H 699.768 -0.435867 -6.05132 0
M  V30 7614 H 698.507 0.0346058 -4.87688 0
M  V30 7615 H 697.512 -2.26646 -5.00911 0
M  V30 7616 H 698.737 -2.73125 -6.21755 0
M  V30 7617 H 696.683 -0.510535 -6.5401 0
M  V30 7618 H 696.6 -2.08129 -7.26786 0
M  V30 7619 H 697.868 -0.986565 -7.73232 0
M  V30 7620 N 702.098 1.27442 -0.927168 0
M  V30 7621 C 703.345 1.94391 -0.567324 0
M  V30 7622 C 703.673 1.72875 0.891321 0
M  V30 7623 O 702.928 1.05071 1.65102 0
M  V30 7624 C 703.227 3.47413 -0.838994 0
M  V30 7625 C 702.893 3.89049 -2.2793 0
M  V30 7626 C 701.555 4.00127 -2.67305 0
M  V30 7627 C 703.907 4.10154 -3.21595 0
M  V30 7628 C 701.235 4.29697 -3.99471 0
M  V30 7629 C 703.587 4.41208 -4.53341 0
M  V30 7630 C 702.251 4.50499 -4.92551 0
M  V30 7631 H 701.521 0.711325 -0.207598 0
M  V30 7632 H 704.168 1.51523 -1.17103 0
M  V30 7633 H 702.473 3.91503 -0.152609 0
M  V30 7634 H 704.17 3.97354 -0.53955 0
M  V30 7635 H 700.76 3.80962 -1.96381 0
M  V30 7636 H 704.944 4.01036 -2.92377 0
M  V30 7637 H 700.2 4.35099 -4.29533 0
M  V30 7638 H 704.374 4.56486 -5.25922 0
M  V30 7639 H 702.001 4.73167 -5.94994 0
M  V30 7640 N 703.576 0.692616 1.41565 0
M  V30 7641 C 704.853 0.150496 1.9502 0
M  V30 7642 C 705.233 -1.33881 1.63215 0
M  V30 7643 O 704.581 -2.08378 0.937598 0
M  V30 7644 C 704.791 0.438636 3.46233 0
M  V30 7645 C 706.139 0.364777 4.2303 0
M  V30 7646 O 707.163 0.373383 3.54238 0
M  V30 7647 O 706.022 0.32234 5.45549 0
M  V30 7648 H 703.116 0.0132454 0.826894 0
M  V30 7649 H 705.662 0.768574 1.51298 0
M  V30 7650 H 704.434 1.46962 3.62654 0
M  V30 7651 H 704.057 -0.210562 3.97042 0
M  V30 7652 N 705.054 -1.51416 0.437162 0
M  V30 7653 C 705.984 -2.30631 -0.364922 0
M  V30 7654 C 706.965 -1.36037 -1.02118 0
M  V30 7655 O 708.15 -1.64956 -1.02485 0
M  V30 7656 C 705.28 -3.1482 -1.46648 0
M  V30 7657 C 704.234 -4.17691 -0.933717 0
M  V30 7658 C 703.56 -4.904 -2.13101 0
M  V30 7659 C 704.86 -5.2229 0.0317201 0
M  V30 7660 H 706.554 -2.97932 0.29614 0
M  V30 7661 H 704.1 -1.4328 0.143865 0
M  V30 7662 H 706.053 -3.69017 -2.03481 0
M  V30 7663 H 704.777 -2.4534 -2.15583 0
M  V30 7664 H 703.436 -3.64545 -0.387602 0
M  V30 7665 H 703.084 -4.17423 -2.80654 0
M  V30 7666 H 702.784 -5.59962 -1.78092 0
M  V30 7667 H 704.308 -5.4742 -2.70487 0
M  V30 7668 H 705.722 -5.7156 -0.446302 0
M  V30 7669 H 704.119 -5.99378 0.29437 0
M  V30 7670 H 705.189 -4.75131 0.968447 0
M  V30 7671 N 706.532 -0.168513 -1.56696 0
M  V30 7672 C 707.757 0.486688 -2.01609 0
M  V30 7673 C 708.182 1.56203 -1.04796 0
M  V30 7674 O 707.54 1.8128 -0.0270596 0
M  V30 7675 C 707.588 1.04451 -3.45141 0
M  V30 7676 O 706.692 2.15862 -3.51393 0
M  V30 7677 H 706.033 0.116831 -0.653641 0
M  V30 7678 H 708.563 -0.271579 -2.0279 0
M  V30 7679 H 708.573 1.36782 -3.84389 0
M  V30 7680 H 707.248 0.257155 -4.15104 0
M  V30 7681 H 705.825 1.84597 -3.24004 0
M  V30 7682 N 708.01 1.57248 0.105221 0
M  V30 7683 C 709.426 1.52853 0.459153 0
M  V30 7684 C 709.626 0.883674 1.8109 0
M  V30 7685 O 708.682 0.471864 2.48052 0
M  V30 7686 C 709.995 2.97596 0.43096 0
M  V30 7687 C 711.543 3.08758 0.513536 0
M  V30 7688 C 712.018 4.55089 0.515593 0
M  V30 7689 N 713.509 4.59597 0.576639 0
M  V30 7690 C 714.244 5.70253 0.599904 0
M  V30 7691 N 713.74 6.90368 0.579985 0
M  V30 7692 N 715.533 5.58399 0.643953 0
M  V30 7693 H 707.684 1.97547 -0.780306 0
M  V30 7694 H 709.947 0.902758 -0.289363 0
M  V30 7695 H 709.653 3.48201 -0.494903 0
M  V30 7696 H 709.527 3.55756 1.2537 0
M  V30 7697 H 711.914 2.58148 1.42982 0
M  V30 7698 H 711.995 2.53568 -0.337148 0
M  V30 7699 H 711.639 5.06348 -0.396701 0
M  V30 7700 H 711.569 5.08105 1.38335 0
M  V30 7701 H 714.06 3.73144 0.597639 0
M  V30 7702 H 714.373 7.70462 0.600741 0
M  V30 7703 H 712.718 6.92843 0.547191 0
M  V30 7704 H 715.909 4.63467 0.656975 0
M  V30 7705 H 716.082 6.44644 0.658616 0
M  V30 7706 N 709.488 -0.375779 1.53054 0
M  V30 7707 C 710.451 -1.44254 1.7811 0
M  V30 7708 C 711.451 -1.47018 0.651328 0
M  V30 7709 O 712.641 -1.47957 0.919472 0
M  V30 7710 C 709.773 -2.8345 1.89391 0
M  V30 7711 H 710.966 -1.23316 2.73374 0
M  V30 7712 H 708.519 -0.608312 1.43977 0
M  V30 7713 H 709.254 -3.09716 0.961589 0
M  V30 7714 H 709.039 -2.82844 2.71555 0
M  V30 7715 H 710.529 -3.60722 2.10404 0
M  V30 7716 N 710.966 -1.44241 -0.634997 0
M  V30 7717 C 712.194 -1.50296 -1.42193 0
M  V30 7718 C 712.609 -0.12658 -1.88375 0
M  V30 7719 O 711.966 0.86678 -1.60603 0
M  V30 7720 C 712.017 -2.46437 -2.64482 0
M  V30 7721 O 711.738 -3.78724 -2.20226 0
M  V30 7722 C 713.239 -2.61918 -3.57651 0
M  V30 7723 H 710.459 -0.509865 -0.43621 0
M  V30 7724 H 713.003 -1.89167 -0.776921 0
M  V30 7725 H 711.158 -2.10712 -3.25083 0
M  V30 7726 H 711.572 -4.30595 -2.9948 0
M  V30 7727 H 713.046 -3.33225 -4.40074 0
M  V30 7728 H 713.523 -1.67017 -4.06204 0
M  V30 7729 H 714.129 -2.98528 -3.02921 0
M  V30 7730 N 712.444 0.87505 -1.31075 0
M  V30 7731 C 713.691 1.62768 -1.20469 0
M  V30 7732 C 714.019 1.93034 0.23834 0
M  V30 7733 O 713.274 1.55693 1.18567 0
M  V30 7734 C 713.573 2.96948 -1.98888 0
M  V30 7735 C 713.239 2.86195 -3.4843 0
M  V30 7736 C 711.901 2.82969 -3.89207 0
M  V30 7737 C 714.253 2.73599 -4.43614 0
M  V30 7738 C 711.581 2.64999 -5.23443 0
M  V30 7739 C 713.933 2.57166 -5.77969 0
M  V30 7740 C 712.597 2.52321 -6.17973 0
M  V30 7741 H 711.867 0.595611 -0.440827 0
M  V30 7742 H 714.514 1.01665 -1.62285 0
M  V30 7743 H 712.819 3.62058 -1.49737 0
M  V30 7744 H 714.516 3.54164 -1.88067 0
M  V30 7745 H 711.106 2.8952 -3.16032 0
M  V30 7746 H 715.29 2.7515 -4.13045 0
M  V30 7747 H 710.546 2.5967 -5.53517 0
M  V30 7748 H 714.72 2.46396 -6.51354 0
M  V30 7749 H 712.347 2.38156 -7.21932 0
M  V30 7750 N 713.922 1.13953 1.08869 0
M  V30 7751 C 715.152 0.926825 1.84644 0
M  V30 7752 C 715.56 -0.527941 1.81685 0
M  V30 7753 O 714.903 -1.37742 1.21543 0
M  V30 7754 C 714.965 1.34416 3.33426 0
M  V30 7755 C 714.629 2.81351 3.60126 0
M  V30 7756 C 715.626 3.79486 3.55368 0
M  V30 7757 C 713.311 3.1865 3.88288 0
M  V30 7758 C 715.305 5.1293 3.78393 0
M  V30 7759 C 712.992 4.5227 4.10968 0
M  V30 7760 C 713.99 5.4922 4.06013 0
M  V30 7761 O 713.678 6.80429 4.28102 0
M  V30 7762 H 713.41 0.33013 0.589907 0
M  V30 7763 H 715.964 1.51738 1.38436 0
M  V30 7764 H 714.194 0.696901 3.80368 0
M  V30 7765 H 715.883 1.10302 3.90626 0
M  V30 7766 H 716.649 3.52017 3.3363 0
M  V30 7767 H 712.528 2.43785 3.91267 0
M  V30 7768 H 716.072 5.88591 3.74442 0
M  V30 7769 H 711.969 4.79462 4.32188 0
M  V30 7770 H 712.737 6.86617 4.45533 0
M  V30 7771 N 715.4 -1.26948 0.933913 0
M  V30 7772 C 716.363 -2.24889 0.442457 0
M  V30 7773 C 717.363 -1.54594 -0.442426 0
M  V30 7774 O 718.553 -1.72502 -0.242629 0
M  V30 7775 C 715.685 -3.3896 -0.363173 0
M  V30 7776 H 716.878 -2.69879 1.30787 0
M  V30 7777 H 714.431 -1.38978 0.715187 0
M  V30 7778 H 715.166 -2.99361 -1.24714 0
M  V30 7779 H 714.951 -3.9116 0.271366 0
M  V30 7780 H 716.441 -4.11739 -0.697186 0
M  V30 7781 N 716.879 -0.700114 -1.41195 0
M  V30 7782 C 717.842 -0.0465706 -2.29153 0
M  V30 7783 C 718.842 0.703302 -1.44604 0
M  V30 7784 O 720.032 0.537513 -1.657 0
M  V30 7785 C 717.164 0.944324 -3.2756 0
M  V30 7786 H 718.357 -0.821064 -2.88442 0
M  V30 7787 H 715.91 -0.463869 -1.49258 0
M  V30 7788 H 716.645 1.74642 -2.73259 0
M  V30 7789 H 716.43 0.409701 -3.89954 0
M  V30 7790 H 717.92 1.39925 -3.9346 0
M  V30 7791 N 718.357 1.51182 -0.445186 0
M  V30 7792 C 719.267 2.31692 0.368255 0
M  V30 7793 C 720.283 1.40942 1.02036 0
M  V30 7794 O 721.459 1.74011 1.01401 0
M  V30 7795 C 718.524 3.14903 1.45041 0
M  V30 7796 C 717.585 4.21442 0.817615 0
M  V30 7797 C 716.818 5.00677 1.8482 0
M  V30 7798 O 717.041 4.80644 3.07145 0
M  V30 7799 O 715.975 5.84559 1.43438 0
M  V30 7800 H 719.801 3.0232 -0.289219 0
M  V30 7801 H 717.386 1.47951 -0.207555 0
M  V30 7802 H 719.268 3.66612 2.07783 0
M  V30 7803 H 717.943 2.47031 2.09182 0
M  V30 7804 H 716.85 3.73791 0.151931 0
M  V30 7805 H 718.183 4.9171 0.219564 0
M  V30 7806 N 719.835 0.176821 1.56605 0
M  V30 7807 C 721.084 -0.466833 1.96223 0
M  V30 7808 C 721.397 -1.64015 1.06576 0
M  V30 7809 O 722.603 -2.3504 1.35898 0
M  V30 7810 C 721.059 -0.881921 3.48927 0
M  V30 7811 C 720.667 0.266102 4.47209 0
M  V30 7812 C 722.411 -1.49368 3.97353 0
M  V30 7813 C 720.318 -0.168923 5.91159 0
M  V30 7814 H 719.248 -0.178178 0.732645 0
M  V30 7815 H 721.899 0.265929 1.81563 0
M  V30 7816 H 720.281 -1.67082 3.59026 0
M  V30 7817 H 721.455 1.04349 4.4883 0
M  V30 7818 H 719.77 0.788178 4.08872 0
M  V30 7819 H 722.367 -1.8313 5.02362 0
M  V30 7820 H 722.71 -2.3936 3.40606 0
M  V30 7821 H 723.243 -0.769114 3.90294 0
M  V30 7822 H 719.982 0.696351 6.51791 0
M  V30 7823 H 719.502 -0.911552 5.92833 0
M  V30 7824 H 721.181 -0.610938 6.44109 0
M  V30 7825 N 721.313 -1.57302 -0.09688 0
M  V30 7826 C 722.562 -1.85183 -0.799388 0
M  V30 7827 C 722.875 -0.765818 -1.79985 0
M  V30 7828 O 724.081 -0.931696 -2.55013 0
M  V30 7829 C 722.537 -3.28399 -1.47249 0
M  V30 7830 C 722.145 -4.45066 -0.511888 0
M  V30 7831 C 723.889 -3.65506 -2.15883 0
M  V30 7832 C 721.796 -5.79315 -1.18948 0
M  V30 7833 H 720.726 -0.690752 -0.302287 0
M  V30 7834 H 723.377 -1.83425 -0.0523104 0
M  V30 7835 H 721.759 -3.24692 -2.26697 0
M  V30 7836 H 722.933 -4.60116 0.250962 0
M  V30 7837 H 721.248 -4.16343 0.0686576 0
M  V30 7838 H 723.845 -4.63087 -2.67309 0
M  V30 7839 H 724.188 -2.94041 -2.94696 0
M  V30 7840 H 724.721 -3.71094 -1.43298 0
M  V30 7841 H 721.46 -6.54007 -0.442198 0
M  V30 7842 H 720.98 -5.68111 -1.9238 0
M  V30 7843 H 722.659 -6.23816 -1.71646 0
M  V30 7844 N 722.791 0.367657 -1.53252 0
M  V30 7845 C 723.721 1.45632 -1.8252 0
M  V30 7846 C 724.702 1.55979 -0.678568 0
M  V30 7847 O 725.887 1.70581 -0.928217 0
M  V30 7848 C 723.017 2.82994 -2.01325 0
M  V30 7849 C 721.971 2.87473 -3.17086 0
M  V30 7850 C 721.297 4.2749 -3.21179 0
M  V30 7851 C 722.597 2.55182 -4.55719 0
M  V30 7852 H 724.291 1.21387 -2.73689 0
M  V30 7853 H 721.837 0.58251 -1.31692 0
M  V30 7854 H 723.79 3.59179 -2.20383 0
M  V30 7855 H 722.514 3.08622 -1.06864 0
M  V30 7856 H 721.173 2.13739 -2.97844 0
M  V30 7857 H 720.821 4.5019 -2.24361 0
M  V30 7858 H 720.521 4.31403 -3.98955 0
M  V30 7859 H 722.045 5.0555 -3.42419 0
M  V30 7860 H 723.459 3.21081 -4.74953 0
M  V30 7861 H 721.856 2.70414 -5.3572 0
M  V30 7862 H 722.926 1.5044 -4.60973 0
M  V30 7863 N 724.269 1.44576 0.627338 0
M  V30 7864 C 725.517 1.47267 1.38408 0
M  V30 7865 C 725.838 0.107971 1.94701 0
M  V30 7866 O 725.108 -0.860206 1.76004 0
M  V30 7867 H 723.688 0.542276 0.513756 0
M  V30 7868 H 726.35 1.80383 0.738099 0
M  V30 7869 H 725.446 2.20025 2.21349 0
M  V30 7870 N 725.747 -0.868086 1.31537 0
M  V30 7871 C 726.677 -1.99131 1.21939 0
M  V30 7872 C 727.658 -1.69768 0.106166 0
M  V30 7873 O 728.843 -1.92006 0.291081 0
M  V30 7874 C 725.973 -3.34676 0.927879 0
M  V30 7875 C 724.927 -3.7835 2.00088 0
M  V30 7876 C 724.253 -5.11375 1.56203 0
M  V30 7877 C 725.553 -3.95256 3.41424 0
M  V30 7878 H 727.247 -2.07419 2.15911 0
M  V30 7879 H 724.793 -0.996569 1.03945 0
M  V30 7880 H 726.746 -4.12793 0.847327 0
M  V30 7881 H 725.47 -3.26565 -0.0475042 0
M  V30 7882 H 724.129 -3.02474 2.07135 0
M  V30 7883 H 723.777 -4.99709 0.57445 0
M  V30 7884 H 723.477 -5.41568 2.27985 0
M  V30 7885 H 725.001 -5.92001 1.49558 0
M  V30 7886 H 726.415 -4.63764 3.3704 0
M  V30 7887 H 724.812 -4.36849 4.1144 0
M  V30 7888 H 725.882 -2.98579 3.82072 0
M  V30 7889 N 727.225 -1.14528 -1.08264 0
M  V30 7890 C 728.157 -0.791325 -2.15106 0
M  V30 7891 C 729.17 0.192449 -1.61659 0
M  V30 7892 O 730.359 -0.0294704 -1.78476 0
M  V30 7893 C 727.459 -0.154183 -3.38549 0
M  V30 7894 C 726.632 -1.17305 -4.21377 0
M  V30 7895 C 725.691 -0.559401 -5.23218 0
M  V30 7896 O 724.717 -1.22277 -5.55911 0
M  V30 7897 N 725.919 0.663159 -5.767 0
M  V30 7898 H 728.684 -1.71076 -2.46075 0
M  V30 7899 H 726.245 -1.0399 -1.24087 0
M  V30 7900 H 728.237 0.268884 -4.03806 0
M  V30 7901 H 726.807 0.668418 -3.0537 0
M  V30 7902 H 726.027 -1.773 -3.52077 0
M  V30 7903 H 727.315 -1.86128 -4.73533 0
M  V30 7904 H 726.713 1.22066 -5.52373 0
M  V30 7905 H 725.27 1.02871 -6.43631 0
M  V30 7906 N 728.703 1.26451 -0.940633 0
M  V30 7907 C 729.95 1.93778 -0.587909 0
M  V30 7908 C 730.278 1.73811 0.872935 0
M  V30 7909 O 729.533 1.06816 1.63978 0
M  V30 7910 C 729.832 3.46503 -0.875794 0
M  V30 7911 C 729.498 3.86609 -2.32043 0
M  V30 7912 C 728.16 3.97269 -2.71534 0
M  V30 7913 C 730.512 4.0672 -3.25927 0
M  V30 7914 C 727.84 4.25436 -4.04006 0
M  V30 7915 C 730.192 4.36375 -4.57995 0
M  V30 7916 C 728.856 4.45249 -4.97302 0
M  V30 7917 H 728.126 0.709084 -0.215131 0
M  V30 7918 H 730.773 1.50272 -1.18704 0
M  V30 7919 H 729.078 3.91319 -0.194124 0
M  V30 7920 H 730.775 3.96759 -0.581665 0
M  V30 7921 H 727.365 3.78858 -2.00411 0
M  V30 7922 H 731.549 3.97912 -2.96614 0
M  V30 7923 H 726.805 4.30519 -4.34124 0
M  V30 7924 H 730.979 4.50882 -5.30734 0
M  V30 7925 H 728.606 4.66829 -5.99979 0
M  V30 7926 N 730.181 0.707592 1.40822 0
M  V30 7927 C 731.111 0.0644925 2.33411 0
M  V30 7928 C 732.092 -0.754205 1.52466 0
M  V30 7929 O 733.277 -0.704749 1.80961 0
M  V30 7930 C 730.407 -0.863865 3.36385 0
M  V30 7931 C 729.361 -0.15138 4.27732 0
M  V30 7932 C 728.687 -1.19491 5.21177 0
M  V30 7933 C 729.987 0.989607 5.12839 0
M  V30 7934 H 731.681 0.837829 2.87438 0
M  V30 7935 H 729.227 0.404346 1.38207 0
M  V30 7936 H 731.18 -1.32309 4.0009 0
M  V30 7937 H 729.904 -1.66901 2.80734 0
M  V30 7938 H 728.563 0.287937 3.65467 0
M  V30 7939 H 728.211 -1.9929 4.61836 0
M  V30 7940 H 727.911 -0.723123 5.83134 0
M  V30 7941 H 729.435 -1.6544 5.8776 0
M  V30 7942 H 730.849 0.610114 5.70044 0
M  V30 7943 H 729.246 1.38926 5.83798 0
M  V30 7944 H 730.316 1.82389 4.49291 0
M  V30 7945 N 731.66 -1.50943 0.453197 0
M  V30 7946 C 732.61 -2.25003 -0.368467 0
M  V30 7947 C 733.594 -1.27864 -0.976714 0
M  V30 7948 O 734.786 -1.52867 -0.892228 0
M  V30 7949 C 731.915 -3.10701 -1.46014 0
M  V30 7950 C 731.001 -4.15278 -0.860506 0
M  V30 7951 N 731.392 -5.05799 0.00849611 0
M  V30 7952 C 729.69 -4.31542 -1.1264 0
M  V30 7953 C 730.391 -5.80664 0.346951 0
M  V30 7954 N 729.367 -5.42912 -0.273426 0
M  V30 7955 H 733.169 -2.92352 0.301246 0
M  V30 7956 H 730.683 -1.60203 0.266233 0
M  V30 7957 H 732.68 -3.62348 -2.06179 0
M  V30 7958 H 731.34 -2.44898 -2.13202 0
M  V30 7959 H 732.351 -5.16533 0.376077 0
M  V30 7960 H 729.028 -3.76962 -1.7946 0
M  V30 7961 H 730.418 -6.63565 1.05507 0
M  V30 7962 N 733.138 -0.185124 -1.56509 0
M  V30 7963 C 734.363 0.465278 -2.02114 0
M  V30 7964 C 734.788 1.55083 -1.06447 0
M  V30 7965 O 734.146 1.81241 -0.0462852 0
M  V30 7966 C 734.194 1.00784 -3.46229 0
M  V30 7967 O 733.298 2.12123 -3.53663 0
M  V30 7968 H 732.639 0.109891 -0.654843 0
M  V30 7969 H 735.169 -0.293072 -2.0249 0
M  V30 7970 H 735.179 1.32697 -3.85818 0
M  V30 7971 H 733.854 0.213113 -4.15354 0
M  V30 7972 H 732.431 1.8115 -3.25943 0
M  V30 7973 N 734.616 1.57351 0.0885366 0
M  V30 7974 C 735.563 2.02523 1.10693 0
M  V30 7975 C 736.533 0.902736 1.39427 0
M  V30 7976 O 737.718 1.16921 1.50779 0
M  V30 7977 C 734.858 2.46013 2.42016 0
M  V30 7978 C 733.971 3.7181 2.19957 0
M  V30 7979 C 733.106 4.04152 3.44724 0
M  V30 7980 C 732.145 5.2304 3.17956 0
M  V30 7981 N 731.282 5.51102 4.35007 0
M  V30 7982 H 736.122 2.89302 0.714742 0
M  V30 7983 H 733.659 1.43084 0.341378 0
M  V30 7984 H 735.617 2.69274 3.18665 0
M  V30 7985 H 734.247 1.62235 2.79069 0
M  V30 7986 H 733.299 3.55987 1.34079 0
M  V30 7987 H 734.611 4.58604 1.96173 0
M  V30 7988 H 733.765 4.28225 4.29777 0
M  V30 7989 H 732.504 3.15893 3.71568 0
M  V30 7990 H 731.509 4.98781 2.31296 0
M  V30 7991 H 732.734 6.12902 2.92451 0
M  V30 7992 H 730.68 4.65802 4.61914 0
M  V30 7993 H 730.597 6.3228 4.14437 0
M  V30 7994 H 731.865 5.79714 5.21106 0
M  V30 7995 N 736.094 -0.359525 1.53444 0
M  V30 7996 C 737.342 -1.09935 1.69584 0
M  V30 7997 C 737.663 -1.89656 0.453371 0
M  V30 7998 O 736.933 -1.8852 -0.53263 0
M  V30 7999 H 735.513 -0.408843 0.625185 0
M  V30 8000 H 738.175 -0.40467 1.90653 0
M  V30 8001 H 737.271 -1.78575 2.55964 0
M  V30 8002 N 737.572 -1.44907 -0.619662 0
M  V30 8003 C 738.821 -1.47569 -1.37501 0
M  V30 8004 C 739.134 -0.116707 -1.95252 0
M  V30 8005 O 740.34 -0.020909 -2.71492 0
M  V30 8006 C 738.796 -2.59851 -2.49009 0
M  V30 8007 C 738.404 -4.02008 -1.97722 0
M  V30 8008 C 740.148 -2.71746 -3.2612 0
M  V30 8009 C 738.055 -5.05693 -3.0664 0
M  V30 8010 H 736.985 -0.549068 -0.51676 0
M  V30 8011 H 739.636 -1.71009 -0.665437 0
M  V30 8012 H 738.018 -2.29671 -3.22594 0
M  V30 8013 H 739.192 -4.41809 -1.30925 0
M  V30 8014 H 737.507 -3.94456 -1.33392 0
M  V30 8015 H 740.104 -3.46382 -4.07337 0
M  V30 8016 H 740.447 -1.77959 -3.76346 0
M  V30 8017 H 740.98 -3.01392 -2.5963 0
M  V30 8018 H 737.719 -6.01148 -2.61345 0
M  V30 8019 H 737.239 -4.70473 -3.72042 0
M  V30 8020 H 738.918 -5.29906 -3.71226 0
M  V30 8021 N 739.05 0.861098 -1.31996 0
M  V30 8022 C 740.296 1.61721 -1.22369 0
M  V30 8023 C 740.629 1.93 0.215587 0
M  V30 8024 O 739.904 1.56789 1.15098 0
M  V30 8025 C 740.187 2.9417 -2.07691 0
M  V30 8026 C 740.04 2.69714 -3.59965 0
M  V30 8027 C 741.359 3.95372 -1.93312 0
M  V30 8028 H 738.478 0.586822 -0.44588 0
M  V30 8029 H 741.12 0.994788 -1.61876 0
M  V30 8030 H 739.27 3.47292 -1.74128 0
M  V30 8031 H 740.942 2.23196 -4.03709 0
M  V30 8032 H 739.185 2.03789 -3.82952 0
M  V30 8033 H 739.856 3.63996 -4.14983 0
M  V30 8034 H 742.332 3.51487 -2.22701 0
M  V30 8035 H 741.208 4.85916 -2.55298 0
M  V30 8036 H 741.469 4.32865 -0.898922 0
M  V30 8037 N 740.528 1.15101 1.07655 0
M  V30 8038 C 741.758 0.946357 1.83651 0
M  V30 8039 C 742.166 -0.508641 1.82235 0
M  V30 8040 O 741.509 -1.36445 1.22997 0
M  V30 8041 C 741.571 1.37945 3.31981 0
M  V30 8042 C 741.235 2.85155 3.57122 0
M  V30 8043 C 742.232 3.83234 3.51323 0
M  V30 8044 C 739.917 3.2275 3.84887 0
M  V30 8045 C 741.911 5.16914 3.72932 0
M  V30 8046 C 739.598 4.56604 4.06148 0
M  V30 8047 C 740.596 5.53495 4.00165 0
M  V30 8048 O 740.284 6.84931 4.20861 0
M  V30 8049 H 740.016 0.336368 0.586372 0
M  V30 8050 H 742.57 1.53198 1.36819 0
M  V30 8051 H 740.8 0.737205 3.79608 0
M  V30 8052 H 742.489 1.14439 3.89434 0
M  V30 8053 H 743.255 3.55535 3.29878 0
M  V30 8054 H 739.134 2.47921 3.88659 0
M  V30 8055 H 742.678 5.92529 3.68178 0
M  V30 8056 H 738.575 4.84019 4.27078 0
M  V30 8057 H 739.343 6.91304 4.38226 0
M  V30 8058 N 742.006 -1.2595 0.947325 0
M  V30 8059 C 743.422 -1.45737 0.650597 0
M  V30 8060 C 743.622 -1.85189 -0.794188 0
M  V30 8061 O 742.678 -1.97738 -1.57022 0
M  V30 8062 C 743.991 -2.53505 1.61728 0
M  V30 8063 C 745.539 -2.67351 1.62765 0
M  V30 8064 C 746.014 -3.78296 2.58179 0
M  V30 8065 N 747.505 -3.85696 2.56501 0
M  V30 8066 C 748.24 -4.71012 3.2701 0
M  V30 8067 N 747.736 -5.60669 4.06966 0
M  V30 8068 N 749.529 -4.64912 3.15932 0
M  V30 8069 H 741.68 -0.986327 1.8811 0
M  V30 8070 H 743.943 -0.494639 0.808725 0
M  V30 8071 H 743.649 -2.31357 2.6489 0
M  V30 8072 H 743.523 -3.51281 1.3741 0
M  V30 8073 H 745.91 -2.88869 0.603241 0
M  V30 8074 H 745.991 -1.69998 1.91139 0
M  V30 8075 H 745.635 -3.5753 3.60742 0
M  V30 8076 H 745.565 -4.75117 2.27093 0
M  V30 8077 H 748.056 -3.21601 1.98447 0
M  V30 8078 H 748.369 -6.22677 4.57704 0
M  V30 8079 H 746.714 -5.60402 4.11066 0
M  V30 8080 H 749.905 -3.93874 2.52945 0
M  V30 8081 H 750.078 -5.3118 3.71149 0
M  V30 8082 N 743.484 -0.715051 -1.40445 0
M  V30 8083 C 744.761 -0.181503 -1.94756 0
M  V30 8084 C 745.141 1.31268 -1.65324 0
M  V30 8085 O 744.489 2.0686 -0.970631 0
M  V30 8086 C 744.699 -0.493663 -3.45491 0
M  V30 8087 C 746.047 -0.432032 -4.22396 0
M  V30 8088 O 747.071 -0.429692 -3.53599 0
M  V30 8089 O 745.93 -0.409091 -5.44967 0
M  V30 8090 H 743.024 -0.0263989 -0.826579 0
M  V30 8091 H 745.57 -0.792546 -1.50056 0
M  V30 8092 H 744.342 -1.52713 -3.6027 0
M  V30 8093 H 743.965 0.14737 -3.97327 0
M  V30 8094 N 744.962 1.50701 -0.461195 0
M  V30 8095 C 745.892 2.31182 0.328184 0
M  V30 8096 C 746.873 1.37644 0.999408 0
M  V30 8097 O 748.058 1.66565 0.99848 0
M  V30 8098 C 745.188 3.17113 1.41621 0
M  V30 8099 C 744.142 4.19124 0.867148 0
M  V30 8100 C 743.468 4.93728 2.05272 0
M  V30 8101 C 744.768 5.22174 -0.114808 0
M  V30 8102 H 746.462 2.97423 -0.343501 0
M  V30 8103 H 744.008 1.43033 -0.166641 0
M  V30 8104 H 745.961 3.72208 1.97584 0
M  V30 8105 H 744.685 2.48739 2.11652 0
M  V30 8106 H 743.344 3.65116 0.329557 0
M  V30 8107 H 742.992 4.21835 2.73978 0
M  V30 8108 H 742.692 5.62724 1.69161 0
M  V30 8109 H 744.216 5.51654 2.61744 0
M  V30 8110 H 745.63 5.72198 0.355316 0
M  V30 8111 H 744.027 5.98833 -0.389689 0
M  V30 8112 H 745.097 4.7353 -1.04391 0
M  V30 8113 N 746.441 0.193421 1.56409 0
M  V30 8114 C 747.388 -0.728124 2.19014 0
M  V30 8115 C 748.358 -1.21098 1.13686 0
M  V30 8116 O 749.543 -1.27517 1.4193 0
M  V30 8117 C 746.683 -1.94277 2.8522 0
M  V30 8118 C 745.796 -1.50143 4.05069 0
M  V30 8119 C 744.931 -2.67145 4.59137 0
M  V30 8120 C 743.97 -2.19609 5.71348 0
M  V30 8121 N 743.107 -3.29782 6.19829 0
M  V30 8122 H 747.947 -0.187499 2.9741 0
M  V30 8123 H 745.484 -0.0808064 1.46878 0
M  V30 8124 H 747.442 -2.65551 3.21774 0
M  V30 8125 H 746.072 -2.45673 2.09391 0
M  V30 8126 H 745.124 -0.684624 3.74189 0
M  V30 8127 H 746.436 -1.11266 4.86232 0
M  V30 8128 H 745.59 -3.46544 4.97988 0
M  V30 8129 H 744.329 -3.09295 3.77078 0
M  V30 8130 H 743.334 -1.38664 5.32027 0
M  V30 8131 H 744.559 -1.78492 6.55223 0
M  V30 8132 H 742.505 -3.71466 5.40693 0
M  V30 8133 H 742.422 -2.95069 6.96039 0
M  V30 8134 H 743.69 -4.094 6.63334 0
M  V30 8135 N 747.919 -1.57396 -0.0801906 0
M  V30 8136 C 748.849 -2.06145 -1.09665 0
M  V30 8137 C 749.83 -0.953273 -1.40878 0
M  V30 8138 O 751.015 -1.22548 -1.50651 0
M  V30 8139 C 748.145 -2.49836 -2.41245 0
M  V30 8140 C 747.099 -3.64454 -2.24405 0
M  V30 8141 C 746.425 -3.94172 -3.61293 0
M  V30 8142 C 747.725 -4.94807 -1.67223 0
M  V30 8143 H 749.419 -2.91316 -0.691028 0
M  V30 8144 H 746.965 -1.40145 -0.330957 0
M  V30 8145 H 748.918 -2.82552 -3.12638 0
M  V30 8146 H 747.642 -1.61683 -2.83771 0
M  V30 8147 H 746.301 -3.32008 -1.55454 0
M  V30 8148 H 745.949 -3.03163 -4.01374 0
M  V30 8149 H 745.649 -4.71345 -3.50867 0
M  V30 8150 H 747.173 -4.29376 -4.3413 0
M  V30 8151 H 748.587 -5.25807 -2.28472 0
M  V30 8152 H 746.984 -5.76245 -1.67515 0
M  V30 8153 H 748.054 -4.80751 -0.632944 0
M  V30 8154 N 749.397 0.351382 -1.53633 0
M  V30 8155 C 750.674 1.10903 -1.6112 0
M  V30 8156 C 751.054 2.06725 -0.427556 0
M  V30 8157 O 750.402 2.20992 0.580916 0
M  V30 8158 C 750.612 1.83561 -2.96827 0
M  V30 8159 C 751.96 2.37587 -3.51906 0
M  V30 8160 O 752.984 1.93669 -2.9895 0
M  V30 8161 O 751.843 3.17913 -4.44515 0
M  V30 8162 H 748.937 0.509558 -0.651368 0
M  V30 8163 H 751.483 0.353504 -1.65977 0
M  V30 8164 H 750.255 1.1371 -3.74414 0
M  V30 8165 H 749.878 2.6599 -2.95525 0
M  V30 8166 N 750.875 1.45233 0.611969 0
M  V30 8167 C 751.823 1.53898 1.74408 0
M  V30 8168 C 752.817 0.409254 1.64382 0
M  V30 8169 O 754.023 0.584988 1.70229 0
M  V30 8170 H 750.398 0.483303 0.576127 0
M  V30 8171 H 752.369 2.49143 1.64227 0
M  V30 8172 C 751.118 1.51865 3.12782 0
M  V30 8173 H 750.441 2.38118 3.21154 0
M  V30 8174 H 751.881 1.61986 3.91838 0
M  V30 8175 C 750.34 0.242374 3.36027 0
M  V30 8176 O 750.87 -0.679587 3.9591 0
M  V30 8177 N 749.076 0.139448 2.90265 0
M  V30 8178 H 748.623 0.890571 2.41716 0
M  V30 8179 H 748.581 -0.713686 3.06193 0
M  V30 8180 N 752.353 -0.854086 1.3245 0
M  V30 8181 C 753.602 -1.60318 1.22397 0
M  V30 8182 C 753.915 -1.9444 -0.212664 0
M  V30 8183 O 755.121 -2.67991 -0.435066 0
M  V30 8184 C 753.577 -2.8909 2.1437 0
M  V30 8185 C 753.185 -2.62391 3.63119 0
M  V30 8186 C 754.929 -3.67104 2.13155 0
M  V30 8187 C 752.836 -3.87167 4.47052 0
M  V30 8188 H 751.766 -0.601586 0.454544 0
M  V30 8189 H 754.417 -0.943023 1.57415 0
M  V30 8190 H 752.799 -3.56567 1.72268 0
M  V30 8191 H 753.973 -2.03222 4.13567 0
M  V30 8192 H 752.288 -1.97706 3.66471 0
M  V30 8193 H 754.885 -4.59696 2.731 0
M  V30 8194 H 755.228 -4.00876 1.12268 0
M  V30 8195 H 755.761 -3.06533 2.5354 0
M  V30 8196 H 752.5 -3.58536 5.48755 0
M  V30 8197 H 752.02 -4.45729 4.01355 0
M  V30 8198 H 753.699 -4.549 4.60081 0
M  V30 8199 N 753.831 -1.1567 -1.07043 0
M  V30 8200 C 754.761 -0.879348 -2.16309 0
M  V30 8201 C 755.742 0.171311 -1.69235 0
M  V30 8202 O 756.927 0.0250175 -1.94184 0
M  V30 8203 C 754.057 -0.371307 -3.45309 0
M  V30 8204 C 753.011 -1.359 -4.05851 0
M  V30 8205 C 752.337 -0.709678 -5.29969 0
M  V30 8206 C 753.637 -2.72606 -4.45514 0
M  V30 8207 H 755.331 -1.79308 -2.39768 0
M  V30 8208 H 752.877 -0.863558 -1.15233 0
M  V30 8209 H 754.83 -0.164798 -4.21078 0
M  V30 8210 H 753.554 0.577906 -3.21446 0
M  V30 8211 H 752.213 -1.55193 -3.32131 0
M  V30 8212 H 751.861 0.245782 -5.02399 0
M  V30 8213 H 751.561 -1.36886 -5.71433 0
M  V30 8214 H 753.085 -0.513015 -6.08441 0
M  V30 8215 H 754.499 -2.57141 -5.12398 0
M  V30 8216 H 752.896 -3.34927 -4.97939 0
M  V30 8217 H 753.966 -3.28434 -3.56734 0
M  V30 8218 N 755.309 1.25446 -0.953992 0
M  V30 8219 C 756.239 2.28264 -0.491717 0
M  V30 8220 C 757.22 1.63717 0.461617 0
M  V30 8221 O 758.405 1.90821 0.36071 0
M  V30 8222 C 755.535 3.46525 0.231915 0
M  V30 8223 C 754.489 4.23247 -0.636098 0
M  V30 8224 C 753.815 5.34254 0.218238 0
M  V30 8225 C 755.115 4.85971 -1.91389 0
M  V30 8226 H 756.809 2.67183 -1.35106 0
M  V30 8227 H 754.355 1.2844 -0.651095 0
M  V30 8228 H 756.308 4.17576 0.566439 0
M  V30 8229 H 755.032 3.06594 1.12551 0
M  V30 8230 H 753.691 3.53978 -0.953696 0
M  V30 8231 H 753.339 4.90564 1.11156 0
M  V30 8232 H 753.039 5.86501 -0.359232 0
M  V30 8233 H 754.563 6.08138 0.547743 0
M  V30 8234 H 755.977 5.49168 -1.64581 0
M  V30 8235 H 754.374 5.48391 -2.43696 0
M  V30 8236 H 755.444 4.08192 -2.61738 0
M  V30 8237 N 756.787 0.722489 1.40064 0
M  V30 8238 C 758.064 0.191829 1.94657 0
M  V30 8239 C 758.444 -1.30389 1.66018 0
M  V30 8240 O 757.792 -2.06342 0.981588 0
M  V30 8241 C 758.002 0.511978 3.45224 0
M  V30 8242 C 759.35 0.454426 4.22161 0
M  V30 8243 O 760.374 0.448438 3.53366 0
M  V30 8244 O 759.233 0.437986 5.44742 0
M  V30 8245 H 756.327 0.0307821 0.826427 0
M  V30 8246 H 758.873 0.800493 1.49634 0
M  V30 8247 H 757.645 1.54622 3.59455 0
M  V30 8248 H 757.268 -0.126296 3.97399 0
M  V30 8249 N 758.265 -1.50454 0.469181 0
M  V30 8250 C 759.212 -2.28486 -0.325982 0
M  V30 8251 C 760.182 -1.33455 -0.988893 0
M  V30 8252 O 761.367 -1.6239 -1.0017 0
M  V30 8253 C 758.507 -3.15288 -1.40313 0
M  V30 8254 C 757.62 -4.25348 -0.755183 0
M  V30 8255 C 756.755 -4.9941 -1.81006 0
M  V30 8256 C 755.794 -6.01348 -1.14226 0
M  V30 8257 N 754.931 -6.68695 -2.1399 0
M  V30 8258 H 759.771 -2.95987 0.345753 0
M  V30 8259 H 757.308 -1.45965 0.182355 0
M  V30 8260 H 759.266 -3.63964 -2.03927 0
M  V30 8261 H 757.896 -2.49837 -2.04405 0
M  V30 8262 H 756.948 -3.80399 -0.00651901 0
M  V30 8263 H 758.26 -4.98279 -0.227941 0
M  V30 8264 H 757.414 -5.51794 -2.52206 0
M  V30 8265 H 756.153 -4.26181 -2.3711 0
M  V30 8266 H 755.158 -5.48225 -0.415876 0
M  V30 8267 H 756.383 -6.76548 -0.588135 0
M  V30 8268 H 754.329 -5.98258 -2.69115 0
M  V30 8269 H 754.246 -7.37495 -1.66246 0
M  V30 8270 H 755.514 -7.25697 -2.84576 0
M  V30 8271 N 759.743 -0.201713 -1.56304 0
M  V30 8272 C 761.02 0.483273 -1.89536 0
M  V30 8273 C 761.4 1.79176 -1.11621 0
M  V30 8274 O 760.748 2.27445 -0.219339 0
M  V30 8275 C 760.958 0.695604 -3.41998 0
M  V30 8276 C 762.306 1.012 -4.12364 0
M  V30 8277 O 763.33 0.783094 -3.47485 0
M  V30 8278 O 762.189 1.44534 -5.27041 0
M  V30 8279 H 759.283 0.252801 -0.787414 0
M  V30 8280 H 761.829 -0.24242 -1.6796 0
M  V30 8281 H 760.601 -0.228165 -3.90634 0
M  V30 8282 H 760.224 1.47351 -3.69288 0
M  V30 8283 N 761.222 1.57436 0.0718424 0
M  V30 8284 C 762.47 1.86878 0.769484 0
M  V30 8285 C 762.791 0.7937 1.78116 0
M  V30 8286 O 762.061 -0.177642 1.95093 0
M  V30 8287 H 760.641 0.689593 0.287177 0
M  V30 8288 H 763.303 1.94841 0.0479427 0
M  V30 8289 H 762.399 2.84387 1.28572 0
M  V30 8290 N 762.7 -0.34323 1.53817 0
M  V30 8291 C 763.65 -1.42217 1.78208 0
M  V30 8292 C 764.634 -1.4774 0.637304 0
M  V30 8293 O 765.826 -1.52605 0.896705 0
M  V30 8294 C 762.955 -2.79354 1.9954 0
M  V30 8295 C 762.041 -2.78222 3.20084 0
M  V30 8296 N 762.432 -2.46719 4.41547 0
M  V30 8297 C 760.73 -3.09368 3.21259 0
M  V30 8298 C 761.431 -2.53828 5.23399 0
M  V30 8299 N 760.407 -2.89464 4.60121 0
M  V30 8300 H 764.209 -1.16759 2.69712 0
M  V30 8301 H 761.723 -0.551592 1.52746 0
M  V30 8302 H 763.72 -3.57095 2.15148 0
M  V30 8303 H 762.38 -3.05759 1.09278 0
M  V30 8304 H 763.391 -2.19912 4.68891 0
M  V30 8305 H 760.068 -3.40942 2.40966 0
M  V30 8306 H 761.458 -2.32629 6.30344 0
M  V30 8307 N 764.178 -1.45556 -0.604258 0
M  V30 8308 C 765.427 -1.49019 -1.35928 0
M  V30 8309 C 765.74 -0.137409 -1.95117 0
M  V30 8310 O 766.946 -0.0497032 -2.71455 0
M  V30 8311 C 765.402 -2.62477 -2.46239 0
M  V30 8312 C 765.01 -4.04082 -1.93447 0
M  V30 8313 C 766.754 -2.7519 -3.23219 0
M  V30 8314 C 764.661 -5.08917 -3.0126 0
M  V30 8315 H 763.591 -0.554518 -0.510907 0
M  V30 8316 H 766.242 -1.71705 -0.647262 0
M  V30 8317 H 764.624 -2.3308 -3.2014 0
M  V30 8318 H 765.798 -4.43173 -1.26232 0
M  V30 8319 H 764.113 -3.95849 -1.29201 0
M  V30 8320 H 766.71 -3.50683 -4.0364 0
M  V30 8321 H 767.053 -1.81941 -3.74437 0
M  V30 8322 H 767.586 -3.04129 -2.56418 0
M  V30 8323 H 764.325 -6.03886 -2.54955 0
M  V30 8324 H 763.845 -4.74393 -3.67031 0
M  V30 8325 H 765.524 -5.33814 -3.65584 0
M  V30 8326 N 765.656 0.84705 -1.32902 0
M  V30 8327 C 766.603 1.95624 -1.22473 0
M  V30 8328 C 767.573 1.65767 -0.105178 0
M  V30 8329 O 768.758 1.88704 -0.282042 0
M  V30 8330 C 765.898 3.31434 -0.961542 0
M  V30 8331 C 765.011 3.73741 -2.1666 0
M  V30 8332 C 764.146 4.98379 -1.83825 0
M  V30 8333 C 763.185 5.33199 -3.00609 0
M  V30 8334 N 762.322 6.49014 -2.67816 0
M  V30 8335 H 767.162 2.03875 -2.17345 0
M  V30 8336 H 764.699 0.997764 -1.08088 0
M  V30 8337 H 766.657 4.09663 -0.789411 0
M  V30 8338 H 765.287 3.22762 -0.0495938 0
M  V30 8339 H 764.339 2.91102 -2.44875 0
M  V30 8340 H 765.651 3.95462 -3.03993 0
M  V30 8341 H 764.805 5.84336 -1.63208 0
M  V30 8342 H 763.544 4.78611 -0.937172 0
M  V30 8343 H 762.549 4.4575 -3.21849 0
M  V30 8344 H 763.774 5.5492 -3.9146 0
M  V30 8345 H 761.72 6.30748 -1.80258 0
M  V30 8346 H 761.637 6.7079 -3.48679 0
M  V30 8347 H 762.905 7.38103 -2.50647 0
M  V30 8348 N 767.134 1.16236 1.06428 0
M  V30 8349 C 768.383 0.937523 1.78587 0
M  V30 8350 C 768.696 -0.536 1.88113 0
M  V30 8351 O 769.902 -0.878697 2.56887 0
M  V30 8352 C 768.358 1.62808 3.2097 0
M  V30 8353 C 767.966 3.13927 3.19615 0
M  V30 8354 C 769.71 1.48515 3.97673 0
M  V30 8355 C 767.617 3.75727 4.56709 0
M  V30 8356 H 766.547 0.347125 0.669343 0
M  V30 8357 H 769.198 1.39353 1.19385 0
M  V30 8358 H 767.58 1.09977 3.80422 0
M  V30 8359 H 768.754 3.7359 2.69753 0
M  V30 8360 H 767.069 3.28089 2.56411 0
M  V30 8361 H 769.666 1.92069 4.99013 0
M  V30 8362 H 770.009 0.433913 4.14032 0
M  V30 8363 H 770.542 1.98494 3.44739 0
M  V30 8364 H 767.281 4.80793 4.45554 0
M  V30 8365 H 766.801 3.20849 5.0677 0
M  V30 8366 H 768.48 3.77203 5.25668 0
M  V30 8367 N 768.612 -1.24939 0.960631 0
M  V30 8368 C 769.575 -2.239 0.49006 0
M  V30 8369 C 770.575 -1.55497 -0.409535 0
M  V30 8370 O 771.765 -1.72978 -0.205984 0
M  V30 8371 C 768.897 -3.39654 -0.291193 0
M  V30 8372 H 770.09 -2.67044 1.36482 0
M  V30 8373 H 767.643 -1.37429 0.744505 0
M  V30 8374 H 768.378 -3.01939 -1.18336 0
M  V30 8375 H 768.163 -3.90496 0.354276 0
M  V30 8376 H 769.653 -4.13125 -0.609693 0
M  V30 8377 N 770.09 -0.729906 -1.39679 0
M  V30 8378 C 771.367 -0.202149 -1.94553 0
M  V30 8379 C 771.747 1.29507 -1.66707 0
M  V30 8380 O 771.095 2.05819 -0.992517 0
M  V30 8381 C 771.305 -0.530279 -3.44948 0
M  V30 8382 C 772.653 -0.476808 -4.21914 0
M  V30 8383 O 773.677 -0.467171 -3.53123 0
M  V30 8384 O 772.536 -0.466869 -5.44502 0
M  V30 8385 H 769.63 -0.0351644 -0.826252 0
M  V30 8386 H 772.176 -0.808417 -1.49207 0
M  V30 8387 H 770.948 -1.56526 -3.5863 0
M  V30 8388 H 770.571 0.10522 -3.97461 0
M  V30 8389 N 771.568 1.50203 -0.477153 0
M  V30 8390 C 772.815 2.02358 0.0757385 0
M  V30 8391 C 773.143 1.3587 1.39174 0
M  V30 8392 O 772.398 0.475415 1.89838 0
M  V30 8393 C 772.697 3.56127 0.301325 0
M  V30 8394 C 772.363 4.41126 -0.933725 0
M  V30 8395 C 771.025 4.64075 -1.27233 0
M  V30 8396 C 773.377 4.90737 -1.75576 0
M  V30 8397 C 770.705 5.33878 -2.43292 0
M  V30 8398 C 773.057 5.61816 -2.90768 0
M  V30 8399 C 771.721 5.83016 -3.25036 0
M  V30 8400 H 770.991 0.740482 0.0277147 0
M  V30 8401 H 773.638 1.80754 -0.632467 0
M  V30 8402 H 771.943 3.76279 1.09183 0
M  V30 8403 H 773.64 3.94053 0.743184 0
M  V30 8404 H 770.23 4.23489 -0.659935 0
M  V30 8405 H 774.414 4.72856 -1.50734 0
M  V30 8406 H 769.67 5.48499 -2.70109 0
M  V30 8407 H 773.844 5.99237 -3.54807 0
M  V30 8408 H 771.471 6.36881 -4.15074 0
M  V30 8409 N 773.046 0.209999 1.56195 0
M  V30 8410 C 774.294 -0.423974 1.97603 0
M  V30 8411 C 774.615 -1.61112 1.09854 0
M  V30 8412 O 773.885 -1.95134 0.173032 0
M  V30 8413 H 772.465 -0.159629 0.729745 0
M  V30 8414 H 775.127 0.300205 1.92574 0
M  V30 8415 H 774.223 -0.75809 3.02753 0
M  V30 8416 N 774.524 -1.57472 -0.0634922 0
M  V30 8417 C 775.457 -1.99571 -1.10664 0
M  V30 8418 C 776.435 -0.874015 -1.37112 0
M  V30 8419 O 777.619 -1.13702 -1.50347 0
M  V30 8420 C 774.746 -2.3395 -2.44918 0
M  V30 8421 C 773.792 -3.56213 -2.34551 0
M  V30 8422 S 774.625 -5.06727 -1.73169 0
M  V30 8423 C 775.781 -5.44316 -3.08984 0
M  V30 8424 H 776.014 -2.87739 -0.747905 0
M  V30 8425 H 773.547 -1.5198 -0.272316 0
M  V30 8426 H 775.505 -2.54431 -3.22141 0
M  V30 8427 H 774.166 -1.46297 -2.7795 0
M  V30 8428 H 773.359 -3.77812 -3.33578 0
M  V30 8429 H 772.961 -3.35406 -1.65466 0
M  V30 8430 H 775.253 -5.42894 -4.05305 0
M  V30 8431 H 776.196 -6.4502 -2.92156 0
M  V30 8432 H 776.604 -4.71781 -3.09972 0
M  V30 8433 N 776.003 0.335068 -1.53997 0
M  V30 8434 C 777.243 1.0827 -1.7337 0
M  V30 8435 C 777.607 1.85618 -0.490913 0
M  V30 8436 O 778.808 2.62864 -0.561799 0
M  V30 8437 C 777.079 1.99212 -2.96731 0
M  V30 8438 S 778.638 2.81083 -3.36954 0
M  V30 8439 H 775.456 0.365698 -0.609743 0
M  V30 8440 H 778.058 0.360079 -1.92155 0
M  V30 8441 H 776.762 1.41204 -3.85344 0
M  V30 8442 H 776.293 2.75898 -2.80436 0
M  V30 8443 H 778.308 4.01657 -2.91352 0
M  V30 8444 N 777.481 1.45874 0.596531 0
M  V30 8445 C 778.428 1.55389 1.70655 0
M  V30 8446 C 779.398 0.399036 1.61236 0
M  V30 8447 O 780.583 0.61396 1.80652 0
M  V30 8448 C 777.723 1.53705 3.0898 0
M  V30 8449 C 776.836 2.79823 3.29125 0
M  V30 8450 C 775.971 2.69735 4.5762 0
M  V30 8451 C 775.01 3.90856 4.71061 0
M  V30 8452 N 774.147 3.79237 5.90867 0
M  V30 8453 H 778.987 2.50211 1.61859 0
M  V30 8454 H 776.524 1.24146 0.789069 0
M  V30 8455 H 778.482 1.50715 3.89026 0
M  V30 8456 H 777.112 0.624247 3.16706 0
M  V30 8457 H 776.164 2.92852 2.42779 0
M  V30 8458 H 777.476 3.69628 3.34927 0
M  V30 8459 H 776.63 2.64773 5.45875 0
M  V30 8460 H 775.369 1.77547 4.54234 0
M  V30 8461 H 774.374 3.96164 3.81227 0
M  V30 8462 H 775.599 4.84124 4.76236 0
M  V30 8463 H 773.545 2.89825 5.88504 0
M  V30 8464 H 773.462 4.62686 5.97877 0
M  V30 8465 H 774.73 3.78227 6.8159 0
M  V30 8466 N 778.959 -0.83999 1.33349 0
M  V30 8467 C 779.869 -1.98182 1.25543 0
M  V30 8468 C 780.885 -1.73204 0.166208 0
M  V30 8469 O 782.061 -1.97596 0.389589 0
M  V30 8470 C 779.126 -3.32157 0.993614 0
M  V30 8471 C 778.187 -3.70258 2.17273 0
M  V30 8472 C 777.42 -4.9784 1.92331 0
M  V30 8473 O 777.643 -5.63679 0.873074 0
M  V30 8474 O 776.577 -5.33418 2.78835 0
M  V30 8475 H 780.403 -2.07708 2.21565 0
M  V30 8476 H 777.988 -0.972852 1.13384 0
M  V30 8477 H 779.87 -4.12433 0.864711 0
M  V30 8478 H 778.545 -3.23637 0.0636596 0
M  V30 8479 H 777.452 -2.90497 2.35716 0
M  V30 8480 H 778.785 -3.83442 3.08598 0
M  V30 8481 N 780.437 -1.16799 -1.0581 0
M  V30 8482 C 781.385 -0.875111 -2.1551 0
M  V30 8483 C 782.379 0.157781 -1.68664 0
M  V30 8484 O 783.585 0.011297 -1.79996 0
M  V30 8485 H 779.96 -0.26542 -0.703602 0
M  V30 8486 H 781.931 -1.8076 -2.37421 0
M  V30 8487 C 780.68 -0.39802 -3.45414 0
M  V30 8488 H 780.003 -1.18425 -3.81858 0
M  V30 8489 H 781.443 -0.231913 -4.23365 0
M  V30 8490 C 779.902 0.88327 -3.25115 0
M  V30 8491 O 780.432 1.95145 -3.51114 0
M  V30 8492 N 778.638 0.828961 -2.78526 0
M  V30 8493 H 778.185 -0.0405029 -2.57568 0
M  V30 8494 H 778.143 1.68673 -2.65324 0
M  V30 8495 N 781.915 1.24427 -0.967243 0
M  V30 8496 C 782.848 2.23885 -0.441683 0
M  V30 8497 C 783.826 1.55231 0.483963 0
M  V30 8498 O 785.01 1.83865 0.415445 0
M  V30 8499 C 782.137 3.36755 0.362458 0
M  V30 8500 C 781.183 4.23495 -0.505407 0
M  V30 8501 S 782.016 4.98916 -1.94534 0
M  V30 8502 C 783.172 6.15245 -1.14997 0
M  V30 8503 H 783.405 2.68118 -1.28453 0
M  V30 8504 H 780.938 1.337 -0.772243 0
M  V30 8505 H 782.896 4.02218 0.820445 0
M  V30 8506 H 781.557 2.91081 1.18027 0
M  V30 8507 H 780.75 5.03876 0.111979 0
M  V30 8508 H 780.352 3.63032 -0.899104 0
M  V30 8509 H 782.644 6.7629 -0.404769 0
M  V30 8510 H 783.587 6.81343 -1.92814 0
M  V30 8511 H 783.995 5.60455 -0.674543 0
M  V30 8512 N 783.393 0.737304 1.3929 0
M  V30 8513 C 784.323 0.113988 2.33222 0
M  V30 8514 C 785.304 -0.721695 1.54031 0
M  V30 8515 O 786.489 -0.666206 1.82415 0
M  V30 8516 C 783.619 -0.792319 3.38141 0
M  V30 8517 C 782.573 -0.0606178 4.27957 0
M  V30 8518 C 781.899 -1.08409 5.23595 0
M  V30 8519 C 783.199 1.09817 5.10625 0
M  V30 8520 H 784.893 0.898611 2.85596 0
M  V30 8521 H 782.439 0.433571 1.37318 0
M  V30 8522 H 784.392 -1.23793 4.02807 0
M  V30 8523 H 783.116 -1.60908 2.84211 0
M  V30 8524 H 781.775 0.365393 3.64775 0
M  V30 8525 H 781.423 -1.89449 4.6596 0
M  V30 8526 H 781.123 -0.599269 5.84536 0
M  V30 8527 H 782.647 -1.52936 5.91137 0
M  V30 8528 H 784.061 0.730892 5.68622 0
M  V30 8529 H 782.458 1.51278 5.80719 0
M  V30 8530 H 783.528 1.91878 4.45321 0
M  V30 8531 N 784.871 -1.49948 0.485112 0
M  V30 8532 C 786.119 -2.01996 -0.0648775 0
M  V30 8533 C 786.44 -1.36819 -1.38945 0
M  V30 8534 O 785.71 -0.518163 -1.88923 0
M  V30 8535 H 784.29 -0.746513 -0.0269662 0
M  V30 8536 H 786.952 -1.84136 0.638733 0
M  V30 8537 H 786.048 -3.11418 -0.20617 0
M  V30 8538 N 786.349 -0.21828 -1.56081 0
M  V30 8539 C 787.626 0.463143 -1.90038 0
M  V30 8540 C 788.006 1.77982 -1.13515 0
M  V30 8541 O 787.354 2.27199 -0.24345 0
M  V30 8542 C 787.564 0.659292 -3.42716 0
M  V30 8543 C 788.912 0.968203 -4.13414 0
M  V30 8544 O 789.936 0.746195 -3.48296 0
M  V30 8545 O 788.795 1.38936 -5.28544 0
M  V30 8546 H 785.889 0.244435 -0.790051 0
M  V30 8547 H 788.435 -0.260221 -1.67693 0
M  V30 8548 H 787.207 -0.269584 -3.9037 0
M  V30 8549 H 786.83 1.43426 -3.7083 0
M  V30 8550 N 787.827 1.57504 0.0551401 0
M  V30 8551 C 788.79 2.03826 1.04821 0
M  V30 8552 C 789.79 0.937968 1.30609 0
M  V30 8553 O 790.98 1.20237 1.2605 0
M  V30 8554 C 788.112 2.43309 2.38775 0
M  V30 8555 H 789.305 2.92802 0.6486 0
M  V30 8556 H 786.858 1.53368 0.301315 0
M  V30 8557 H 787.593 1.5741 2.83536 0
M  V30 8558 H 787.378 3.23615 2.21395 0
M  V30 8559 H 788.868 2.79666 3.10124 0
M  V30 8560 N 789.305 -0.326896 1.54172 0
M  V30 8561 C 790.252 -1.40216 1.83325 0
M  V30 8562 C 791.222 -1.51538 0.680107 0
M  V30 8563 O 792.407 -1.66811 0.926206 0
M  V30 8564 C 789.547 -2.76626 2.0633 0
M  V30 8565 C 788.66 -2.73963 3.34019 0
M  V30 8566 C 787.795 -4.02198 3.47002 0
M  V30 8567 C 786.834 -3.93828 4.68578 0
M  V30 8568 N 785.971 -5.13787 4.78506 0
M  V30 8569 H 790.811 -1.14656 2.7506 0
M  V30 8570 H 788.348 -0.555089 1.36225 0
M  V30 8571 H 790.306 -3.55922 2.17659 0
M  V30 8572 H 788.936 -3.00503 1.1789 0
M  V30 8573 H 787.988 -1.86677 3.31445 0
M  V30 8574 H 789.3 -2.6366 4.2342 0
M  V30 8575 H 788.454 -4.89923 3.57855 0
M  V30 8576 H 787.193 -4.15302 2.55687 0
M  V30 8577 H 786.198 -3.04487 4.57786 0
M  V30 8578 H 787.423 -3.82292 5.61275 0
M  V30 8579 H 785.369 -5.27403 3.90105 0
M  V30 8580 H 785.286 -5.05807 5.61868 0
M  V30 8581 H 786.554 -6.03236 4.93686 0
M  V30 8582 N 790.784 -1.46188 -0.588786 0
M  V30 8583 C 792.012 -1.54743 -1.37339 0
M  V30 8584 C 792.427 -0.186446 -1.87877 0
M  V30 8585 O 791.784 0.815247 -1.63279 0
M  V30 8586 C 791.835 -2.54727 -2.56508 0
M  V30 8587 O 791.556 -3.85539 -2.08066 0
M  V30 8588 C 793.057 -2.73163 -3.49137 0
M  V30 8589 H 790.277 -0.523484 -0.419768 0
M  V30 8590 H 792.821 -1.91543 -0.716345 0
M  V30 8591 H 790.976 -2.20948 -3.18215 0
M  V30 8592 H 791.39 -4.39905 -2.85629 0
M  V30 8593 H 792.864 -3.47057 -4.2925 0
M  V30 8594 H 793.341 -1.79856 -4.00685 0
M  V30 8595 H 793.947 -3.08014 -2.9327 0
M  V30 8596 N 792.262 0.832906 -1.33792 0
M  V30 8597 C 793.21 1.96455 -1.24532 0
M  V30 8598 C 794.204 1.68774 -0.145455 0
M  V30 8599 O 795.41 1.77314 -0.309797 0
M  V30 8600 H 791.785 0.645008 -0.386611 0
M  V30 8601 H 793.756 2.01389 -2.20193 0
M  V30 8602 C 792.505 3.32784 -1.00748 0
M  V30 8603 H 791.828 3.54626 -1.84609 0
M  V30 8604 H 793.268 4.12447 -0.98301 0
M  V30 8605 C 791.727 3.35654 0.289475 0
M  V30 8606 O 792.257 3.80281 1.29419 0
M  V30 8607 N 790.463 2.88843 0.3191 0
M  V30 8608 H 790.01 2.52719 -0.499069 0
M  V30 8609 H 789.968 2.91145 1.18667 0
M  V30 8610 N 793.74 1.17359 1.05189 0
M  V30 8611 C 794.968 0.986529 1.81866 0
M  V30 8612 C 795.383 -0.46522 1.82979 0
M  V30 8613 O 794.74 -1.32305 1.25705 0
M  V30 8614 C 794.791 1.52021 3.27982 0
M  V30 8615 O 794.512 2.91511 3.27037 0
M  V30 8616 C 796.013 1.37774 4.21347 0
M  V30 8617 H 793.233 0.349021 0.573084 0
M  V30 8618 H 795.777 1.55648 1.32643 0
M  V30 8619 H 793.932 0.992287 3.74476 0
M  V30 8620 H 794.346 3.16178 4.18488 0
M  V30 8621 H 795.82 1.7993 5.21852 0
M  V30 8622 H 796.297 0.32483 4.37997 0
M  V30 8623 H 796.903 1.89583 3.80708 0
M  V30 8624 N 795.218 -1.23913 0.973828 0
M  V30 8625 C 796.465 -1.92151 0.639079 0
M  V30 8626 C 796.793 -1.76064 -0.826545 0
M  V30 8627 O 796.048 -1.11126 -1.61088 0
M  V30 8628 C 796.347 -3.4406 0.967356 0
M  V30 8629 C 796.013 -3.80321 2.42212 0
M  V30 8630 C 794.675 -3.8993 2.81971 0
M  V30 8631 C 797.027 -3.97935 3.36596 0
M  V30 8632 C 794.355 -4.14575 4.15144 0
M  V30 8633 C 796.707 -4.24079 4.69404 0
M  V30 8634 C 795.371 -4.31908 5.08932 0
M  V30 8635 H 794.641 -0.70313 0.233856 0
M  V30 8636 H 797.288 -1.47072 1.22646 0
M  V30 8637 H 795.593 -3.90667 0.297807 0
M  V30 8638 H 797.29 -3.95077 0.686654 0
M  V30 8639 H 793.88 -3.73411 2.10385 0
M  V30 8640 H 798.064 -3.89908 3.07059 0
M  V30 8641 H 793.32 -4.18858 4.45385 0
M  V30 8642 H 797.494 -4.36652 5.42502 0
M  V30 8643 H 795.121 -4.50758 6.12145 0
M  V30 8644 N 796.696 -0.74468 -1.38897 0
M  V30 8645 C 797.936 -0.301691 -2.02161 0
M  V30 8646 C 798.3 1.09338 -1.57826 0
M  V30 8647 O 799.501 1.63499 -2.13358 0
M  V30 8648 C 797.772 -0.410601 -3.55034 0
M  V30 8649 S 799.331 -0.0488802 -4.38773 0
M  V30 8650 H 796.149 -0.117583 -0.70121 0
M  V30 8651 H 798.751 -0.973334 -1.69548 0
M  V30 8652 H 797.455 -1.42705 -3.8479 0
M  V30 8653 H 796.986 0.278531 -3.92413 0
M  V30 8654 H 799.001 1.16434 -4.82346 0
M  V30 8655 N 798.174 1.49689 -0.493057 0
M  V30 8656 C 799.422 2.02027 0.0541642 0
M  V30 8657 C 799.743 1.37554 1.38217 0
M  V30 8658 O 799.013 0.528174 1.88646 0
M  V30 8659 H 797.593 0.746646 0.0230069 0
M  V30 8660 H 800.255 1.83795 -0.648489 0
M  V30 8661 H 799.351 3.11523 0.189652 0
M  V30 8662 N 799.652 0.226554 1.55963 0
M  V30 8663 C 800.88 -0.408507 2.02827 0
M  V30 8664 C 801.295 -1.52994 1.10627 0
M  V30 8665 O 800.652 -1.82126 0.116809 0
M  V30 8666 C 800.703 -0.93545 3.49187 0
M  V30 8667 O 800.424 0.141273 4.37872 0
M  V30 8668 C 801.925 -1.64325 4.11719 0
M  V30 8669 H 799.145 -0.099442 0.66359 0
M  V30 8670 H 801.689 0.344471 2.01578 0
M  V30 8671 H 799.844 -1.63868 3.51036 0
M  V30 8672 H 800.258 -0.25558 5.23877 0
M  V30 8673 H 801.732 -1.9639 5.15883 0
M  V30 8674 H 802.209 -2.55815 3.57009 0
M  V30 8675 H 802.815 -0.9851 4.13734 0
M  V30 8676 N 801.13 -1.57531 -0.0467866 0
M  V30 8677 C 802.541 -1.76945 -0.595603 0
M  V30 8678 C 802.892 -0.855354 -1.76573 0
M  V30 8679 O 802.017 -0.045668 -2.16352 0
M  V30 8680 C 802.612 -3.20881 -1.08725 0
M  V30 8681 C 801.171 -3.41553 -1.58172 0
M  V30 8682 C 800.318 -2.72533 -0.511968 0
M  V30 8683 H 803.269 -1.57682 0.179436 0
M  V30 8684 H 803.29 -3.26419 -1.95528 0
M  V30 8685 H 802.802 -3.87385 -0.235398 0
M  V30 8686 H 800.903 -2.80199 -2.456 0
M  V30 8687 H 801.016 -4.50104 -1.64143 0
M  V30 8688 H 799.38 -2.35797 -0.962899 0
M  V30 8689 H 800.163 -3.41709 0.330117 0
M  V30 8690 N 802.608 0.318715 -1.54344 0
M  V30 8691 C 803.885 1.07461 -1.63437 0
M  V30 8692 C 804.265 2.05771 -0.47131 0
M  V30 8693 O 803.613 2.22175 0.53391 0
M  V30 8694 C 803.823 1.77224 -3.00654 0
M  V30 8695 C 805.171 2.30069 -3.56866 0
M  V30 8696 O 806.195 1.87284 -3.0299 0
M  V30 8697 O 805.054 3.08412 -4.51159 0
M  V30 8698 H 802.148 0.495627 -0.66203 0
M  V30 8699 H 804.694 0.318218 -1.6669 0
M  V30 8700 H 803.466 1.05742 -3.76742 0
M  V30 8701 H 803.089 2.59662 -3.01101 0
M  V30 8702 N 804.086 1.46499 0.581025 0
M  V30 8703 C 805.316 1.55244 1.36319 0
M  V30 8704 C 805.724 0.193059 1.88212 0
M  V30 8705 O 805.067 -0.820109 1.64377 0
M  V30 8706 C 805.129 2.498 2.58535 0
M  V30 8707 C 804.793 3.96007 2.28096 0
M  V30 8708 C 805.79 4.85171 1.8683 0
M  V30 8709 C 803.475 4.41152 2.40189 0
M  V30 8710 C 805.469 6.17493 1.58053 0
M  V30 8711 C 803.156 5.73508 2.11024 0
M  V30 8712 C 804.154 6.615 1.70021 0
M  V30 8713 O 803.842 7.914 1.41215 0
M  V30 8714 H 803.574 0.527513 0.422736 0
M  V30 8715 H 806.128 1.92623 0.713139 0
M  V30 8716 H 804.358 2.07443 3.2635 0
M  V30 8717 H 806.047 2.48934 3.20604 0
M  V30 8718 H 806.813 4.51548 1.77001 0
M  V30 8719 H 802.692 3.72886 2.71066 0
M  V30 8720 H 806.236 6.86131 1.25974 0
M  V30 8721 H 802.133 6.06679 2.20478 0
M  V30 8722 H 802.901 8.03681 1.55046 0
M  V30 8723 N 805.565 -0.825799 1.34232 0
M  V30 8724 C 806.814 -1.57686 1.2577 0
M  V30 8725 C 807.127 -1.94848 -0.171372 0
M  V30 8726 O 808.333 -2.68854 -0.378123 0
M  V30 8727 C 806.789 -2.84478 2.20454 0
M  V30 8728 C 806.397 -2.54629 3.68603 0
M  V30 8729 C 808.141 -3.625 2.20893 0
M  V30 8730 C 806.048 -3.77597 4.55164 0
M  V30 8731 H 804.978 -0.591809 0.467203 0
M  V30 8732 H 807.629 -0.909421 1.59379 0
M  V30 8733 H 806.011 -3.52832 1.79793 0
M  V30 8734 H 807.185 -1.94404 4.17784 0
M  V30 8735 H 805.5 -1.89888 3.70582 0
M  V30 8736 H 808.097 -4.538 2.82789 0
M  V30 8737 H 808.44 -3.98404 1.20746 0
M  V30 8738 H 808.973 -3.01086 2.59985 0
M  V30 8739 H 805.712 -3.46815 5.56237 0
M  V30 8740 H 805.232 -4.37116 4.10719 0
M  V30 8741 H 806.911 -4.45039 4.69627 0
M  V30 8742 N 807.043 -1.17915 -1.04565 0
M  V30 8743 C 808.006 -0.903787 -2.10628 0
M  V30 8744 C 809.006 0.10873 -1.60432 0
M  V30 8745 O 810.196 -0.124152 -1.73757 0
M  V30 8746 C 807.328 -0.355017 -3.39046 0
M  V30 8747 H 808.521 -1.84425 -2.3649 0
M  V30 8748 H 806.074 -0.990477 -1.2091 0
M  V30 8749 H 806.809 0.592297 -3.18845 0
M  V30 8750 H 806.594 -1.08484 -3.76794 0
M  V30 8751 H 808.084 -0.180891 -4.17208 0
M  V30 8752 N 808.521 1.23394 -0.980386 0
M  V30 8753 C 809.932 1.73631 -0.686239 0
M  V30 8754 C 810.283 1.79259 0.797541 0
M  V30 8755 O 809.408 1.43046 1.62379 0
M  V30 8756 C 810.003 3.15332 -1.239 0
M  V30 8757 C 808.562 3.63024 -0.994494 0
M  V30 8758 C 807.709 2.41279 -1.36673 0
M  V30 8759 H 810.66 1.08918 -1.15423 0
M  V30 8760 H 810.681 3.75556 -0.611414 0
M  V30 8761 H 810.193 3.11204 -2.31892 0
M  V30 8762 H 808.294 3.72535 0.0693492 0
M  V30 8763 H 808.407 4.49825 -1.64906 0
M  V30 8764 H 806.771 2.42295 -0.785195 0
M  V30 8765 H 807.554 2.39822 -2.45642 0
M  V30 8766 N 809.999 0.752036 1.385 0
M  V30 8767 C 810.909 0.125318 2.34265 0
M  V30 8768 C 811.925 -0.702437 1.59191 0
M  V30 8769 O 813.101 -0.626951 1.91393 0
M  V30 8770 C 810.166 -0.758486 3.38301 0
M  V30 8771 C 809.227 0.0834636 4.29219 0
M  V30 8772 C 808.46 -0.758252 5.28286 0
M  V30 8773 O 808.683 -1.99632 5.34325 0
M  V30 8774 O 807.617 -0.177878 6.01637 0
M  V30 8775 H 811.443 0.91617 2.89551 0
M  V30 8776 H 809.028 0.512911 1.4032 0
M  V30 8777 H 810.91 -1.26365 4.02007 0
M  V30 8778 H 809.585 -1.52786 2.85374 0
M  V30 8779 H 808.492 0.634545 3.68679 0
M  V30 8780 H 809.825 0.815455 4.85398 0
M  V30 8781 N 811.477 -1.49425 0.500989 0
M  V30 8782 C 812.726 -2.01649 -0.04538 0
M  V30 8783 C 813.039 -1.38572 -1.38047 0
M  V30 8784 O 814.245 -1.82124 -2.01353 0
M  V30 8785 C 812.701 -3.5966 -0.131337 0
M  V30 8786 C 812.309 -4.3171 1.19711 0
M  V30 8787 C 814.053 -4.19828 -0.628071 0
M  V30 8788 C 811.96 -5.81579 1.07332 0
M  V30 8789 H 810.89 -0.753715 -0.0207329 0
M  V30 8790 H 813.541 -1.71962 0.640407 0
M  V30 8791 H 811.923 -3.86063 -0.881574 0
M  V30 8792 H 813.097 -4.17008 1.96064 0
M  V30 8793 H 811.412 -3.83286 1.62729 0
M  V30 8794 H 814.009 -5.2958 -0.738198 0
M  V30 8795 H 814.352 -3.83194 -1.6269 0
M  V30 8796 H 814.885 -3.97746 0.0656314 0
M  V30 8797 H 811.624 -6.22738 2.04642 0
M  V30 8798 H 811.144 -5.98774 0.350679 0
M  V30 8799 H 812.823 -6.42614 0.752047 0
M  V30 8800 N 812.955 -0.234822 -1.55841 0
M  V30 8801 C 813.885 0.664217 -2.23854 0
M  V30 8802 C 814.866 1.19076 -1.2147 0
M  V30 8803 O 816.051 1.23232 -1.50091 0
M  V30 8804 C 813.181 1.86666 -2.9287 0
M  V30 8805 C 812.135 1.47341 -4.01839 0
M  V30 8806 C 811.461 2.75571 -4.58219 0
M  V30 8807 C 812.761 0.653479 -5.18196 0
M  V30 8808 H 814.455 0.0971213 -2.99242 0
M  V30 8809 H 812.001 0.0452724 -1.43929 0
M  V30 8810 H 813.954 2.50116 -3.39146 0
M  V30 8811 H 812.678 2.45894 -2.1495 0
M  V30 8812 H 811.337 0.862314 -3.56314 0
M  V30 8813 H 810.985 3.32971 -3.77014 0
M  V30 8814 H 810.685 2.49987 -5.31771 0
M  V30 8815 H 812.209 3.39939 -5.07221 0
M  V30 8816 H 813.623 1.19198 -5.60771 0
M  V30 8817 H 812.02 0.494188 -5.98062 0
M  V30 8818 H 813.09 -0.337004 -4.83728 0
M  V30 8819 N 814.433 1.57553 0.0384317 0
M  V30 8820 C 815.363 2.0898 1.04161 0
M  V30 8821 C 816.344 0.99029 1.38301 0
M  V30 8822 O 817.529 1.26499 1.47349 0
M  V30 8823 C 814.659 2.56145 2.34536 0
M  V30 8824 C 813.613 3.70275 2.14663 0
M  V30 8825 C 812.939 4.03612 3.50715 0
M  V30 8826 C 814.239 4.99067 1.54045 0
M  V30 8827 H 815.933 2.93046 0.613548 0
M  V30 8828 H 813.479 1.40973 0.293684 0
M  V30 8829 H 815.432 2.90741 3.05037 0
M  V30 8830 H 814.156 1.6915 2.79385 0
M  V30 8831 H 812.815 3.36013 1.46597 0
M  V30 8832 H 812.463 3.13698 3.93195 0
M  V30 8833 H 812.163 4.80482 3.38247 0
M  V30 8834 H 813.687 4.40735 4.22593 0
M  V30 8835 H 815.101 5.3168 2.14451 0
M  V30 8836 H 813.498 5.80484 1.52178 0
M  V30 8837 H 814.568 4.8226 0.505259 0
M  V30 8838 N 815.911 -0.310526 1.54511 0
M  V30 8839 C 817.159 -1.04484 1.72996 0
M  V30 8840 C 817.48 -1.88118 0.513479 0
M  V30 8841 O 816.75 -1.90119 -0.472384 0
M  V30 8842 H 815.33 -0.388747 0.637875 0
M  V30 8843 H 817.992 -0.343811 1.91844 0
M  V30 8844 H 817.088 -1.70341 2.61515 0
M  V30 8845 N 817.389 -1.46805 -0.573248 0
M  V30 8846 C 818.321 -1.54127 -1.6964 0
M  V30 8847 C 819.334 -0.428778 -1.57052 0
M  V30 8848 O 820.523 -0.697612 -1.64303 0
M  V30 8849 C 817.623 -1.41438 -3.07975 0
M  V30 8850 C 816.796 -2.66974 -3.46474 0
M  V30 8851 C 815.855 -2.48349 -4.63906 0
M  V30 8852 O 814.881 -3.22109 -4.69292 0
M  V30 8853 N 816.083 -1.55129 -5.59388 0
M  V30 8854 H 818.848 -2.50971 -1.6381 0
M  V30 8855 H 816.409 -1.42981 -0.759479 0
M  V30 8856 H 818.401 -1.26737 -3.84343 0
M  V30 8857 H 816.971 -0.527388 -3.08119 0
M  V30 8858 H 816.191 -2.9655 -2.59715 0
M  V30 8859 H 817.479 -3.50347 -3.68964 0
M  V30 8860 H 816.877 -0.94324 -5.57781 0
M  V30 8861 H 815.434 -1.46387 -6.35149 0
M  V30 8862 N 818.867 0.818669 -1.34668 0
M  V30 8863 C 819.814 1.92983 -1.26595 0
M  V30 8864 C 820.784 1.65506 -0.140315 0
M  V30 8865 O 821.969 1.88063 -0.322005 0
M  V30 8866 C 819.109 3.2932 -1.03163 0
M  V30 8867 C 818.222 3.69061 -2.24539 0
M  V30 8868 C 817.357 4.94368 -1.94355 0
M  V30 8869 C 816.396 5.26702 -3.11851 0
M  V30 8870 N 815.533 6.43187 -2.81522 0
M  V30 8871 H 820.373 1.99219 -2.2162 0
M  V30 8872 H 817.91 0.974612 -1.1018 0
M  V30 8873 H 819.868 4.07897 -0.87613 0
M  V30 8874 H 818.498 3.22584 -0.118045 0
M  V30 8875 H 817.55 2.85842 -2.50995 0
M  V30 8876 H 818.862 3.88924 -3.12313 0
M  V30 8877 H 818.016 5.80742 -1.75566 0
M  V30 8878 H 816.755 4.76515 -1.03848 0
M  V30 8879 H 815.76 4.38823 -3.31231 0
M  V30 8880 H 816.985 5.46492 -4.03142 0
M  V30 8881 H 814.931 6.26783 -1.93596 0
M  V30 8882 H 814.848 6.63243 -3.62829 0
M  V30 8883 H 816.116 7.32621 -2.66247 0
M  V30 8884 N 820.346 1.18468 1.03938 0
M  V30 8885 C 821.576 1.0043 1.80547 0
M  V30 8886 C 821.984 -0.450407 1.83761 0
M  V30 8887 O 821.327 -1.32463 1.27276 0
M  V30 8888 C 821.389 1.48437 3.27424 0
M  V30 8889 C 821.053 2.96372 3.47869 0
M  V30 8890 C 822.05 3.94217 3.38953 0
M  V30 8891 C 819.735 3.34831 3.74424 0
M  V30 8892 C 821.729 5.28517 3.56298 0
M  V30 8893 C 819.416 4.69294 3.91416 0
M  V30 8894 C 820.414 5.65946 3.82354 0
M  V30 8895 O 820.102 6.97974 3.98858 0
M  V30 8896 H 819.834 0.354853 0.575374 0
M  V30 8897 H 822.388 1.57473 1.31876 0
M  V30 8898 H 820.618 0.857601 3.7707 0
M  V30 8899 H 822.307 1.2677 3.85596 0
M  V30 8900 H 823.073 3.6585 3.184 0
M  V30 8901 H 818.952 2.60161 3.80575 0
M  V30 8902 H 822.496 6.03943 3.49141 0
M  V30 8903 H 818.393 4.97361 4.11463 0
M  V30 8904 H 819.161 7.04895 4.1601 0
M  V30 8905 N 821.824 -1.22873 0.986916 0
M  V30 8906 C 822.772 -2.26597 0.525043 0
M  V30 8907 C 823.766 -1.64079 -0.421252 0
M  V30 8908 O 824.972 -1.77576 -0.294429 0
M  V30 8909 H 821.347 -0.736606 0.151381 0
M  V30 8910 H 823.318 -2.62909 1.41142 0
M  V30 8911 C 822.067 -3.47374 -0.150542 0
M  V30 8912 H 821.39 -3.95737 0.568541 0
M  V30 8913 H 822.83 -4.21739 -0.437256 0
M  V30 8914 C 821.289 -3.07163 -1.38392 0
M  V30 8915 O 821.819 -3.16028 -2.47971 0
M  V30 8916 N 820.025 -2.62009 -1.25697 0
M  V30 8917 H 819.572 -2.54996 -0.365355 0
M  V30 8918 H 819.53 -2.35472 -2.08327 0
M  V30 8919 N 823.302 -0.75937 -1.38099 0
M  V30 8920 C 824.252 -0.111098 -2.27729 0
M  V30 8921 C 825.236 0.687161 -1.45489 0
M  V30 8922 O 826.428 0.552167 -1.68167 0
M  V30 8923 C 823.557 0.776809 -3.34396 0
M  V30 8924 C 822.643 -0.0286108 -4.2409 0
M  V30 8925 N 823.034 -1.06797 -4.94397 0
M  V30 8926 C 821.332 0.197307 -4.45563 0
M  V30 8927 C 822.033 -1.55576 -5.6051 0
M  V30 8928 N 821.009 -0.870059 -5.36592 0
M  V30 8929 H 824.811 -0.907047 -2.79553 0
M  V30 8930 H 822.325 -0.595954 -1.5107 0
M  V30 8931 H 824.322 1.25691 -3.97502 0
M  V30 8932 H 822.982 1.57164 -2.84129 0
M  V30 8933 H 823.993 -1.44988 -4.97191 0
M  V30 8934 H 820.67 0.965028 -4.06194 0
M  V30 8935 H 822.06 -2.42184 -6.26735 0
M  V30 8936 N 824.78 1.49157 -0.508906 0
M  V30 8937 C 826.005 2.07376 0.0315182 0
M  V30 8938 C 826.43 1.36575 1.2934 0
M  V30 8939 O 825.788 0.424963 1.76249 0
M  V30 8940 C 825.836 3.59661 0.260118 0
M  V30 8941 O 824.94 3.90255 1.33322 0
M  V30 8942 H 824.281 0.663334 -0.029739 0
M  V30 8943 H 826.811 1.91857 -0.710791 0
M  V30 8944 H 826.821 4.05056 0.489225 0
M  V30 8945 H 825.496 4.10601 -0.661794 0
M  V30 8946 H 824.073 3.56661 1.08844 0
M  V30 8947 N 826.258 0.243083 1.55714 0
M  V30 8948 C 827.504 -0.383287 1.99145 0
M  V30 8949 C 827.837 -1.57868 1.13098 0
M  V30 8950 O 827.112 -1.93535 0.193509 0
M  V30 8951 C 827.395 -0.796879 3.51172 0
M  V30 8952 C 827.248 0.403642 4.47985 0
M  V30 8953 C 828.567 -1.64525 4.08191 0
M  V30 8954 H 825.686 -0.137843 0.723995 0
M  V30 8955 H 828.328 0.343631 1.86867 0
M  V30 8956 H 826.478 -1.41625 3.61766 0
M  V30 8957 H 828.15 1.04204 4.49376 0
M  V30 8958 H 826.393 1.04741 4.20965 0
M  V30 8959 H 827.064 0.0709794 5.51954 0
M  V30 8960 H 829.54 -1.12246 4.00674 0
M  V30 8961 H 828.416 -1.9035 5.14838 0
M  V30 8962 H 828.677 -2.61582 3.56409 0
M  V30 8963 N 827.736 -1.57571 -0.0300757 0
M  V30 8964 C 829.013 -1.80381 -0.756447 0
M  V30 8965 C 829.393 -0.840906 -1.93628 0
M  V30 8966 O 828.741 0.117143 -2.282 0
M  V30 8967 C 828.951 -3.2807 -1.19043 0
M  V30 8968 C 830.299 -3.93025 -1.60676 0
M  V30 8969 O 831.323 -3.32213 -1.28503 0
M  V30 8970 O 830.182 -5.00092 -2.20386 0
M  V30 8971 H 827.276 -0.741737 -0.365725 0
M  V30 8972 H 829.822 -1.69699 -0.00693177 0
M  V30 8973 H 828.594 -3.89748 -0.348128 0
M  V30 8974 H 828.217 -3.43637 -1.99999 0
M  V30 8975 N 829.214 0.302327 -1.54673 0
M  V30 8976 C 830.46 1.03532 -1.75079 0
M  V30 8977 C 830.815 1.84972 -0.52943 0
M  V30 8978 O 830.108 1.85537 0.478169 0
M  V30 8979 C 830.302 1.97365 -2.97963 0
M  V30 8980 C 830.131 1.25154 -4.31934 0
M  V30 8981 C 828.901 0.979243 -4.95721 0
M  V30 8982 C 831.099 0.656653 -5.10091 0
M  V30 8983 N 829.081 0.227265 -6.13479 0
M  V30 8984 C 830.452 0.0373759 -6.19989 0
M  V30 8985 C 832.507 0.561571 -4.94723 0
M  V30 8986 C 831.21 -0.667782 -7.16194 0
M  V30 8987 C 833.236 -0.12993 -5.91257 0
M  V30 8988 C 832.598 -0.738063 -7.00523 0
M  V30 8989 H 828.697 0.361824 -0.693258 0
M  V30 8990 H 831.281 0.314091 -1.9215 0
M  V30 8991 H 829.452 2.66739 -2.8232 0
M  V30 8992 H 831.184 2.63806 -3.06902 0
M  V30 8993 H 827.939 1.27706 -4.56057 0
M  V30 8994 H 828.363 -0.135199 -6.76865 0
M  V30 8995 H 833.005 1.01744 -4.10375 0
M  V30 8996 H 830.723 -1.13542 -8.00084 0
M  V30 8997 H 834.309 -0.203423 -5.81444 0
M  V30 8998 H 833.189 -1.26463 -7.73936 0
M  V30 8999 N 830.692 1.47107 0.565454 0
M  V30 9000 C 831.938 1.54519 1.3227 0
M  V30 9001 C 832.293 0.201313 1.91344 0
M  V30 9002 O 831.586 -0.792058 1.74462 0
M  V30 9003 C 831.78 2.59309 2.45954 0
M  V30 9004 C 831.609 4.03756 1.98019 0
M  V30 9005 C 830.379 4.71293 1.8224 0
M  V30 9006 C 832.577 4.91029 1.52955 0
M  V30 9007 N 830.559 6.00288 1.28557 0
M  V30 9008 C 831.93 6.09986 1.10981 0
M  V30 9009 C 833.985 4.77539 1.4093 0
M  V30 9010 C 832.688 7.16943 0.581796 0
M  V30 9011 C 834.714 5.84584 0.895307 0
M  V30 9012 C 834.076 7.02725 0.485454 0
M  V30 9013 H 830.175 0.620177 0.476345 0
M  V30 9014 H 832.759 1.83814 0.641901 0
M  V30 9015 H 830.93 2.31896 3.11575 0
M  V30 9016 H 832.662 2.56614 3.1294 0
M  V30 9017 H 829.417 4.27074 2.04707 0
M  V30 9018 H 829.841 6.68991 1.03828 0
M  V30 9019 H 834.483 3.86574 1.71231 0
M  V30 9020 H 832.201 8.07661 0.266399 0
M  V30 9021 H 835.787 5.76191 0.805939 0
M  V30 9022 H 834.667 7.84144 0.0938828 0
M  V30 9023 N 832.17 -0.811516 1.35101 0
M  V30 9024 C 833.395 -1.60499 1.31358 0
M  V30 9025 C 833.82 -1.87793 -0.107383 0
M  V30 9026 O 833.178 -1.46161 -1.07268 0
M  V30 9027 C 833.226 -2.91612 2.12119 0
M  V30 9028 O 832.33 -3.84211 1.49853 0
M  V30 9029 H 831.671 -0.487702 0.450603 0
M  V30 9030 H 834.201 -1.00758 1.7807 0
M  V30 9031 H 834.211 -3.4108 2.23894 0
M  V30 9032 H 832.886 -2.71071 3.15426 0
M  V30 9033 H 831.463 -3.42751 1.46889 0
M  V30 9034 N 833.648 -1.19017 -1.03309 0
M  V30 9035 C 834.895 -0.990214 -1.76638 0
M  V30 9036 C 835.223 0.479435 -1.88498 0
M  V30 9037 O 834.478 1.37223 -1.39529 0
M  V30 9038 C 834.777 -1.59927 -3.19622 0
M  V30 9039 C 834.443 -3.09632 -3.27779 0
M  V30 9040 C 833.105 -3.50491 -3.29712 0
M  V30 9041 C 835.457 -4.05644 -3.27264 0
M  V30 9042 C 832.785 -4.85921 -3.28782 0
M  V30 9043 C 835.137 -5.41 -3.27875 0
M  V30 9044 C 833.801 -5.81295 -3.28104 0
M  V30 9045 H 833.071 -0.362345 -0.646364 0
M  V30 9046 H 835.718 -1.48197 -1.21284 0
M  V30 9047 H 834.023 -1.0297 -3.78027 0
M  V30 9048 H 835.72 -1.41989 -3.7502 0
M  V30 9049 H 832.31 -2.77073 -3.26999 0
M  V30 9050 H 836.494 -3.75124 -3.24955 0
M  V30 9051 H 831.75 -5.16427 -3.27281 0
M  V30 9052 H 835.924 -6.15157 -3.26428 0
M  V30 9053 H 833.551 -6.86211 -3.27138 0
M  V30 9054 N 835.127 1.22348 -0.993418 0
M  V30 9055 C 836.375 1.90733 -0.668246 0
M  V30 9056 C 836.696 1.77732 0.802261 0
M  V30 9057 O 835.966 1.16486 1.57505 0
M  V30 9058 H 834.546 0.705966 -0.244174 0
M  V30 9059 H 837.208 1.48691 -1.26004 0
M  V30 9060 H 836.304 2.97883 -0.931239 0
M  V30 9061 N 836.605 0.766683 1.37694 0
M  V30 9062 C 837.851 0.329201 2.0011 0
M  V30 9063 C 838.184 -1.09004 1.60723 0
M  V30 9064 O 837.459 -1.74895 0.850989 0
M  V30 9065 C 837.742 0.466989 3.57059 0
M  V30 9066 C 837.595 1.92828 4.06371 0
M  V30 9067 C 838.914 -0.131792 4.39903 0
M  V30 9068 H 836.033 0.12109 0.726984 0
M  V30 9069 H 838.675 0.968779 1.63446 0
M  V30 9070 H 836.825 -0.0775023 3.88423 0
M  V30 9071 H 838.497 2.53208 3.85595 0
M  V30 9072 H 836.74 2.43884 3.58752 0
M  V30 9073 H 837.411 1.97577 5.15429 0
M  V30 9074 H 839.887 0.332731 4.14768 0
M  V30 9075 H 838.763 -0.005217 5.489 0
M  V30 9076 H 839.024 -1.22156 4.24889 0
M  V30 9077 N 838.083 -1.48885 0.516809 0
M  V30 9078 C 839.013 -2.32241 -0.242157 0
M  V30 9079 C 839.994 -1.41258 -0.947633 0
M  V30 9080 O 841.179 -1.70156 -0.935973 0
M  V30 9081 C 838.309 -3.22151 -1.29754 0
M  V30 9082 C 837.263 -4.22053 -0.710995 0
M  V30 9083 C 836.589 -5.01007 -1.86806 0
M  V30 9084 C 837.889 -5.21388 0.30853 0
M  V30 9085 H 839.583 -2.95943 0.453651 0
M  V30 9086 H 837.129 -1.42316 0.219612 0
M  V30 9087 H 839.082 -3.79284 -1.83634 0
M  V30 9088 H 837.806 -2.56423 -2.02274 0
M  V30 9089 H 836.465 -3.66087 -0.193819 0
M  V30 9090 H 836.113 -4.31713 -2.58133 0
M  V30 9091 H 835.813 -5.68615 -1.48159 0
M  V30 9092 H 837.337 -5.60989 -2.4109 0
M  V30 9093 H 838.751 -5.73122 -0.142703 0
M  V30 9094 H 837.148 -5.96975 0.611673 0
M  V30 9095 H 838.218 -4.69329 1.21894 0
M  V30 9096 N 839.561 -0.251338 -1.55583 0
M  V30 9097 C 840.491 0.640437 -2.24545 0
M  V30 9098 C 841.472 1.17781 -1.22726 0
M  V30 9099 O 842.657 1.21633 -1.5139 0
M  V30 9100 C 839.787 1.8355 -2.94834 0
M  V30 9101 C 838.741 1.4307 -4.03379 0
M  V30 9102 C 838.067 2.70695 -4.61116 0
M  V30 9103 C 839.367 0.59848 -5.1886 0
M  V30 9104 H 841.061 0.0653772 -2.99329 0
M  V30 9105 H 838.607 0.0300042 -1.43969 0
M  V30 9106 H 840.56 2.46505 -3.4178 0
M  V30 9107 H 839.284 2.43601 -2.17546 0
M  V30 9108 H 837.943 0.824474 -3.57209 0
M  V30 9109 H 837.591 3.28954 -3.80524 0
M  V30 9110 H 837.291 2.44332 -5.34393 0
M  V30 9111 H 838.815 3.34541 -5.10798 0
M  V30 9112 H 840.229 1.13244 -5.62004 0
M  V30 9113 H 838.626 0.430728 -5.98552 0
M  V30 9114 H 839.696 -0.38829 -4.83343 0
M  V30 9115 N 841.039 1.57585 0.0217189 0
M  V30 9116 C 842.269 1.9359 0.721572 0
M  V30 9117 C 842.677 0.850132 1.69025 0
M  V30 9118 O 842.02 -0.181539 1.82801 0
M  V30 9119 C 842.082 3.25445 1.52729 0
M  V30 9120 C 841.746 4.51251 0.722586 0
M  V30 9121 C 842.743 5.19896 0.0196598 0
M  V30 9122 C 840.428 4.97745 0.674959 0
M  V30 9123 C 842.422 6.33319 -0.720114 0
M  V30 9124 C 840.109 6.11062 -0.068555 0
M  V30 9125 C 841.107 6.78704 -0.764845 0
M  V30 9126 O 840.795 7.89852 -1.49627 0
M  V30 9127 H 840.527 0.643409 0.207366 0
M  V30 9128 H 843.081 2.05391 -0.0189346 0
M  V30 9129 H 841.311 3.0999 2.31178 0
M  V30 9130 H 843 3.46721 2.11044 0
M  V30 9131 H 843.766 4.84977 0.0474394 0
M  V30 9132 H 839.645 4.44934 1.20643 0
M  V30 9133 H 843.189 6.86051 -1.26413 0
M  V30 9134 H 839.086 6.45425 -0.0982318 0
M  V30 9135 H 839.854 8.06251 -1.41071 0
M  V30 9136 N 842.517 -0.29412 1.54831 0
M  V30 9137 C 843.427 -1.3854 1.89325 0
M  V30 9138 C 844.443 -1.55127 0.788133 0
M  V30 9139 O 845.619 -1.6966 1.08524 0
M  V30 9140 C 842.684 -2.72809 2.13954 0
M  V30 9141 C 841.745 -2.65148 3.37631 0
M  V30 9142 C 840.978 -3.93014 3.61076 0
M  V30 9143 O 841.201 -4.927 2.87406 0
M  V30 9144 O 840.135 -3.94491 4.54599 0
M  V30 9145 H 843.961 -1.12289 2.82179 0
M  V30 9146 H 841.546 -0.490793 1.41108 0
M  V30 9147 H 843.428 -3.52238 2.31315 0
M  V30 9148 H 842.103 -2.9889 1.24285 0
M  V30 9149 H 841.01 -1.84168 3.25627 0
M  V30 9150 H 842.343 -2.4402 4.27452 0
M  V30 9151 N 843.995 -1.47404 -0.557645 0
M  V30 9152 C 844.928 -1.54399 -1.68036 0
M  V30 9153 C 845.906 -0.396175 -1.577 0
M  V30 9154 O 847.09 -0.603911 -1.78564 0
M  V30 9155 C 844.217 -1.44611 -3.06277 0
M  V30 9156 C 843.263 -2.63889 -3.35059 0
M  V30 9157 S 844.096 -4.26086 -3.24362 0
M  V30 9158 C 845.252 -4.1885 -4.65097 0
M  V30 9159 H 845.485 -2.49384 -1.61849 0
M  V30 9160 H 843.018 -1.35597 -0.738429 0
M  V30 9161 H 844.976 -1.39651 -3.86015 0
M  V30 9162 H 843.637 -0.510114 -3.0993 0
M  V30 9163 H 842.83 -2.53103 -4.35838 0
M  V30 9164 H 842.432 -2.65969 -2.62938 0
M  V30 9165 H 844.724 -3.87077 -5.56037 0
M  V30 9166 H 845.667 -5.19714 -4.8094 0
M  V30 9167 H 846.075 -3.49717 -4.43123 0
M  V30 9168 N 845.473 0.80434 -1.35529 0
M  V30 9169 C 846.403 1.93086 -1.31301 0
M  V30 9170 C 847.384 1.69068 -0.187044 0
M  V30 9171 O 848.569 1.90399 -0.382359 0
M  V30 9172 C 845.699 3.29867 -1.0865 0
M  V30 9173 C 844.653 3.68373 -2.17911 0
M  V30 9174 C 843.979 5.0334 -1.80423 0
M  V30 9175 C 845.279 3.78516 -3.59893 0
M  V30 9176 H 846.973 1.96882 -2.25561 0
M  V30 9177 H 844.519 0.945841 -1.08581 0
M  V30 9178 H 846.472 4.08281 -1.04331 0
M  V30 9179 H 845.196 3.2642 -0.108359 0
M  V30 9180 H 843.855 2.92247 -2.21331 0
M  V30 9181 H 843.503 4.96399 -0.812213 0
M  V30 9182 H 843.203 5.30074 -2.53565 0
M  V30 9183 H 844.727 5.84191 -1.77633 0
M  V30 9184 H 846.141 4.47155 -3.58783 0
M  V30 9185 H 844.538 4.16721 -4.31814 0
M  V30 9186 H 845.608 2.8001 -3.95882 0
M  V30 9187 N 846.951 1.19563 1.02676 0
M  V30 9188 C 848.2 0.993864 1.75514 0
M  V30 9189 C 848.513 -0.475882 1.89723 0
M  V30 9190 O 849.719 -0.796525 2.59553 0
M  V30 9191 C 848.175 1.72937 3.15628 0
M  V30 9192 C 847.783 3.23937 3.09466 0
M  V30 9193 C 849.527 1.61092 3.92746 0
M  V30 9194 C 847.434 3.90067 4.44524 0
M  V30 9195 H 846.364 0.368244 0.657961 0
M  V30 9196 H 849.015 1.43081 1.14891 0
M  V30 9197 H 847.397 1.22025 3.76731 0
M  V30 9198 H 848.571 3.81983 2.57731 0
M  V30 9199 H 846.886 3.3608 2.45843 0
M  V30 9200 H 849.483 2.07848 4.92649 0
M  V30 9201 H 849.826 0.565415 4.12442 0
M  V30 9202 H 850.359 2.09361 3.3825 0
M  V30 9203 H 847.098 4.94725 4.30032 0
M  V30 9204 H 846.618 3.36809 4.96306 0
M  V30 9205 H 848.297 3.93736 5.13401 0
M  V30 9206 N 848.429 -1.21819 0.999893 0
M  V30 9207 C 849.677 -1.90375 0.678351 0
M  V30 9208 C 849.998 -1.78155 -0.792824 0
M  V30 9209 O 849.268 -1.17319 -1.56885 0
M  V30 9210 H 847.848 -0.704661 0.247915 0
M  V30 9211 H 850.51 -1.48021 1.2679 0
M  V30 9212 H 849.606 -2.97385 0.947023 0
M  V30 9213 N 849.908 -0.773975 -1.37286 0
M  V30 9214 C 850.84 -0.119938 -2.28886 0
M  V30 9215 C 851.853 0.661822 -1.48741 0
M  V30 9216 O 853.042 0.499548 -1.71367 0
M  V30 9217 C 850.142 0.853703 -3.27971 0
M  V30 9218 C 849.315 0.125286 -4.37221 0
M  V30 9219 C 848.374 1.01261 -5.16365 0
M  V30 9220 O 847.4 0.475565 -5.6721 0
M  V30 9221 N 848.602 2.33864 -5.31308 0
M  V30 9222 H 851.367 -0.906702 -2.85655 0
M  V30 9223 H 848.928 -0.626519 -1.49286 0
M  V30 9224 H 850.92 1.4508 -3.77801 0
M  V30 9225 H 849.49 1.54142 -2.71954 0
M  V30 9226 H 848.71 -0.652742 -3.88758 0
M  V30 9227 H 849.998 -0.377959 -5.07394 0
M  V30 9228 H 849.396 2.79929 -4.91585 0
M  V30 9229 H 847.953 2.88575 -5.84438 0
M  V30 9230 N 851.386 1.48609 -0.524698 0
M  V30 9231 C 852.611 2.07398 0.00952139 0
M  V30 9232 C 853.036 1.37939 1.27884 0
M  V30 9233 O 852.394 0.443633 1.75788 0
M  V30 9234 C 852.442 3.59916 0.221956 0
M  V30 9235 O 851.546 3.91647 1.29175 0
M  V30 9236 H 850.887 0.662981 -0.0367729 0
M  V30 9237 H 853.417 1.91092 -0.7311 0
M  V30 9238 H 853.427 4.05552 0.446236 0
M  V30 9239 H 852.102 4.09876 -0.705306 0
M  V30 9240 H 850.679 3.57796 1.05055 0
M  V30 9241 N 852.864 0.259585 1.55447 0
M  V30 9242 C 854.275 -0.241165 1.85136 0
M  V30 9243 C 854.626 -1.56634 1.18153 0
M  V30 9244 O 853.751 -2.11359 0.464351 0
M  V30 9245 C 854.346 -0.444355 3.35873 0
M  V30 9246 C 852.905 -0.889354 3.65742 0
M  V30 9247 C 852.052 0.0262474 2.77288 0
M  V30 9248 H 855.003 0.481808 1.51209 0
M  V30 9249 H 855.024 -1.28517 3.58139 0
M  V30 9250 H 854.536 0.520289 3.84597 0
M  V30 9251 H 852.637 -1.86602 3.22507 0
M  V30 9252 H 852.75 -0.737432 4.73391 0
M  V30 9253 H 851.114 -0.487361 2.49994 0
M  V30 9254 H 851.897 0.986494 3.28821 0
M  V30 9255 N 854.342 -1.57594 -0.0133615 0
M  V30 9256 C 855.589 -1.8998 -0.70098 0
M  V30 9257 C 855.917 -0.858802 -1.74513 0
M  V30 9258 O 855.172 0.138209 -1.95211 0
M  V30 9259 C 855.471 -3.29121 -1.39336 0
M  V30 9260 C 855.137 -4.48298 -0.483687 0
M  V30 9261 C 853.799 -4.80635 -0.233186 0
M  V30 9262 C 856.151 -5.21003 0.143426 0
M  V30 9263 C 853.479 -5.83055 0.652943 0
M  V30 9264 C 855.831 -6.24366 1.01735 0
M  V30 9265 C 854.495 -6.55168 1.27716 0
M  V30 9266 H 853.765 -0.695187 -0.256507 0
M  V30 9267 H 856.412 -1.9146 0.0392965 0
M  V30 9268 H 854.717 -3.23703 -2.20735 0
M  V30 9269 H 856.414 -3.51433 -1.93121 0
M  V30 9270 H 853.004 -4.23024 -0.689092 0
M  V30 9271 H 857.188 -4.96286 -0.0371139 0
M  V30 9272 H 852.444 -6.05288 0.862379 0
M  V30 9273 H 856.618 -6.79839 1.5097 0
M  V30 9274 H 854.245 -7.34351 1.9655 0
M  V30 9275 N 855.82 0.285905 -1.54985 0
M  V30 9276 C 856.77 1.35505 -1.83364 0
M  V30 9277 C 857.754 1.45273 -0.691698 0
M  V30 9278 O 858.946 1.49172 -0.952725 0
M  V30 9279 C 856.075 2.71756 -2.0977 0
M  V30 9280 C 855.161 2.6615 -3.30189 0
M  V30 9281 N 855.552 2.30161 -4.50399 0
M  V30 9282 C 853.85 2.97232 -3.3252 0
M  V30 9283 C 854.551 2.34228 -5.32459 0
M  V30 9284 N 853.527 2.72187 -4.70548 0
M  V30 9285 H 857.329 1.06668 -2.7386 0
M  V30 9286 H 854.843 0.494521 -1.54688 0
M  V30 9287 H 856.84 3.48864 -2.28253 0
M  V30 9288 H 855.5 3.01492 -1.20551 0
M  V30 9289 H 856.511 2.02358 -4.7673 0
M  V30 9290 H 853.188 3.31764 -2.53454 0
M  V30 9291 H 854.578 2.09074 -6.38543 0
M  V30 9292 N 857.298 1.47698 0.54982 0
M  V30 9293 C 858.546 1.54397 1.30407 0
M  V30 9294 C 858.867 0.211026 1.93855 0
M  V30 9295 O 858.137 -0.765701 1.80316 0
M  V30 9296 H 856.717 0.568747 0.484289 0
M  V30 9297 H 859.379 1.84042 0.641444 0
M  V30 9298 H 858.475 2.31449 2.09375 0
M  V30 9299 N 858.776 -0.797141 1.35954 0
M  V30 9300 C 859.708 -1.91782 1.25509 0
M  V30 9301 C 860.721 -1.61843 0.176271 0
M  V30 9302 O 861.91 -1.73235 0.430343 0
M  V30 9303 C 859.01 -3.26396 0.912073 0
M  V30 9304 C 858.183 -3.84171 2.0912 0
M  V30 9305 C 857.242 -4.9721 1.72246 0
M  V30 9306 O 856.268 -5.14136 2.44239 0
M  V30 9307 N 857.47 -5.76831 0.651611 0
M  V30 9308 H 860.235 -2.01266 2.22063 0
M  V30 9309 H 857.796 -0.975033 1.29247 0
M  V30 9310 H 859.788 -3.99499 0.646707 0
M  V30 9311 H 858.358 -3.12579 0.0359079 0
M  V30 9312 H 857.578 -3.03148 2.51982 0
M  V30 9313 H 858.866 -4.19503 2.87914 0
M  V30 9314 H 858.264 -5.65675 0.0536678 0
M  V30 9315 H 856.821 -6.50272 0.44605 0
M  V30 9316 N 860.254 -1.20106 -1.0204 0
M  V30 9317 C 861.531 -0.918029 -1.72718 0
M  V30 9318 C 861.911 0.574163 -2.03142 0
M  V30 9319 O 861.259 1.53476 -1.69285 0
M  V30 9320 C 861.469 -1.78698 -2.9978 0
M  V30 9321 C 862.817 -2.02648 -3.7312 0
M  V30 9322 O 863.841 -1.75919 -3.09727 0
M  V30 9323 O 862.7 -2.47767 -4.87107 0
M  V30 9324 H 859.794 -0.342904 -0.752559 0
M  V30 9325 H 862.34 -1.30961 -1.07923 0
M  V30 9326 H 861.112 -2.79757 -2.7359 0
M  V30 9327 H 860.735 -1.39522 -3.72316 0
M  V30 9328 N 861.732 1.21287 -1.00634 0
M  V30 9329 C 862.642 2.27388 -0.577226 0
M  V30 9330 C 863.658 1.69791 0.380399 0
M  V30 9331 O 864.834 1.99918 0.2439 0
M  V30 9332 C 861.899 3.46588 0.0880532 0
M  V30 9333 C 860.96 4.19453 -0.914222 0
M  V30 9334 C 860.193 5.32962 -0.280596 0
M  V30 9335 O 860.416 5.62895 0.922265 0
M  V30 9336 O 859.35 5.93666 -0.992196 0
M  V30 9337 H 863.176 2.66289 -1.46028 0
M  V30 9338 H 860.761 1.2771 -0.775283 0
M  V30 9339 H 862.643 4.18881 0.460094 0
M  V30 9340 H 861.318 3.09585 0.945461 0
M  V30 9341 H 860.225 3.49376 -1.33744 0
M  V30 9342 H 861.558 4.6037 -1.74126 0
M  V30 9343 N 863.21 0.781244 1.36873 0
M  V30 9344 C 864.12 0.174981 2.33947 0
M  V30 9345 C 865.136 -0.668512 1.60645 0
M  V30 9346 O 866.312 -0.586213 1.9268 0
M  V30 9347 C 863.377 -0.686557 3.39834 0
M  V30 9348 C 862.438 0.174489 4.28945 0
M  V30 9349 C 861.671 -0.646024 5.29776 0
M  V30 9350 O 861.894 -1.88254 5.38439 0
M  V30 9351 O 860.828 -0.0502214 6.01879 0
M  V30 9352 H 864.654 0.977382 2.87543 0
M  V30 9353 H 862.239 0.542559 1.392 0
M  V30 9354 H 864.121 -1.1781 4.04597 0
M  V30 9355 H 862.796 -1.46699 2.8855 0
M  V30 9356 H 861.703 0.712604 3.6725 0
M  V30 9357 H 863.036 0.918232 4.83559 0
M  V30 9358 N 864.689 -1.48329 0.532571 0
M  V30 9359 C 865.599 -2.33445 -0.232546 0
M  V30 9360 C 866.615 -1.46651 -0.93645 0
M  V30 9361 O 867.791 -1.79627 -0.910834 0
M  V30 9362 C 864.856 -3.22824 -1.26434 0
M  V30 9363 C 863.917 -4.25492 -0.570511 0
M  V30 9364 C 863.15 -5.10601 -1.55315 0
M  V30 9365 O 863.373 -4.97733 -2.78599 0
M  V30 9366 O 862.307 -5.91927 -1.09112 0
M  V30 9367 H 866.133 -3.00119 0.464988 0
M  V30 9368 H 863.718 -1.46489 0.293462 0
M  V30 9369 H 865.6 -3.78103 -1.86055 0
M  V30 9370 H 864.275 -2.58807 -1.94424 0
M  V30 9371 H 863.182 -3.74041 0.0662587 0
M  V30 9372 H 864.515 -4.92154 0.0674904 0
M  V30 9373 N 866.167 -0.267825 -1.55308 0
M  V30 9374 C 867.097 0.616585 -2.25212 0
M  V30 9375 C 868.078 1.16472 -1.23969 0
M  V30 9376 O 869.263 1.20021 -1.52672 0
M  V30 9377 C 866.393 1.80412 -2.96764 0
M  V30 9378 C 865.347 1.38784 -4.04874 0
M  V30 9379 C 864.673 2.65789 -4.63961 0
M  V30 9380 C 865.973 0.543415 -5.19465 0
M  V30 9381 H 867.667 0.0336257 -2.99381 0
M  V30 9382 H 865.213 0.0147328 -1.43992 0
M  V30 9383 H 867.166 2.42866 -3.44375 0
M  V30 9384 H 865.89 2.4128 -2.20118 0
M  V30 9385 H 864.549 0.786541 -3.58063 0
M  V30 9386 H 864.197 3.24899 -3.83992 0
M  V30 9387 H 863.897 2.38651 -5.36954 0
M  V30 9388 H 865.421 3.29104 -5.14318 0
M  V30 9389 H 866.835 1.07277 -5.63174 0
M  V30 9390 H 865.232 0.367219 -5.98975 0
M  V30 9391 H 866.302 -0.439534 -4.82904 0
M  V30 9392 N 867.645 1.57599 0.00500368 0
M  V30 9393 C 868.892 1.90349 0.690895 0
M  V30 9394 C 869.22 0.868045 1.74055 0
M  V30 9395 O 868.475 -0.127855 1.95282 0
M  V30 9396 C 868.774 3.29855 1.37588 0
M  V30 9397 C 868.44 4.48548 0.459906 0
M  V30 9398 C 867.102 4.80752 0.207693 0
M  V30 9399 C 869.454 5.20919 -0.171054 0
M  V30 9400 C 866.782 5.82701 -0.683855 0
M  V30 9401 C 869.134 6.23818 -1.05045 0
M  V30 9402 C 867.798 6.54481 -1.31189 0
M  V30 9403 H 867.068 0.696538 0.252816 0
M  V30 9404 H 869.715 1.91436 -0.0494495 0
M  V30 9405 H 868.02 3.24869 2.19015 0
M  V30 9406 H 869.717 3.52452 1.91255 0
M  V30 9407 H 866.307 4.23384 0.666648 0
M  V30 9408 H 870.491 4.96299 0.0107942 0
M  V30 9409 H 865.747 6.04822 -0.894467 0
M  V30 9410 H 869.921 6.79029 -1.54574 0
M  V30 9411 H 867.548 7.33299 -2.00442 0
M  V30 9412 N 869.123 -0.277682 1.55134 0
M  V30 9413 C 870.073 -1.34531 1.8408 0
M  V30 9414 C 871.057 -1.44904 0.699393 0
M  V30 9415 O 872.249 -1.48664 0.960623 0
M  V30 9416 C 869.378 -2.7064 2.11208 0
M  V30 9417 C 868.464 -2.64396 3.31596 0
M  V30 9418 N 868.855 -2.2777 4.51613 0
M  V30 9419 C 867.153 -2.95464 3.34091 0
M  V30 9420 C 867.854 -2.31401 5.33693 0
M  V30 9421 N 866.83 -2.69688 4.71984 0
M  V30 9422 H 870.632 -1.05214 2.74421 0
M  V30 9423 H 868.146 -0.486311 1.54948 0
M  V30 9424 H 870.143 -3.47649 2.301 0
M  V30 9425 H 868.803 -3.00849 1.22148 0
M  V30 9426 H 869.814 -1.99827 4.77797 0
M  V30 9427 H 866.491 -3.30415 2.5521 0
M  V30 9428 H 867.881 -2.05685 6.39643 0
M  V30 9429 N 870.601 -1.47988 -0.541979 0
M  V30 9430 C 871.826 -1.59286 -1.32826 0
M  V30 9431 C 872.251 -0.24894 -1.86445 0
M  V30 9432 O 871.609 0.777581 -1.63778 0
M  V30 9433 C 871.657 -2.6334 -2.46343 0
M  V30 9434 O 870.761 -2.19667 -3.49028 0
M  V30 9435 H 870.102 -0.534543 -0.393903 0
M  V30 9436 H 872.632 -1.93885 -0.653427 0
M  V30 9437 H 872.642 -2.84238 -2.92699 0
M  V30 9438 H 871.317 -3.60913 -2.06675 0
M  V30 9439 H 869.894 -2.08932 -3.08872 0
M  V30 9440 N 872.079 0.78992 -1.36375 0
M  V30 9441 C 873.328 1.54296 -1.29906 0
M  V30 9442 C 873.641 1.95234 0.119651 0
M  V30 9443 O 874.847 2.69762 0.306708 0
M  V30 9444 C 873.303 2.78533 -2.27919 0
M  V30 9445 C 872.911 2.44767 -3.75224 0
M  V30 9446 C 874.655 3.56516 -2.30427 0
M  V30 9447 C 872.562 3.65397 -4.65015 0
M  V30 9448 H 871.492 0.579214 -0.482729 0
M  V30 9449 H 874.143 0.866845 -1.61735 0
M  V30 9450 H 872.525 3.47941 -1.89084 0
M  V30 9451 H 873.699 1.83259 -4.22792 0
M  V30 9452 H 872.014 1.79996 -3.75487 0
M  V30 9453 H 874.611 4.46143 -2.94722 0
M  V30 9454 H 874.954 3.95063 -1.31266 0
M  V30 9455 H 875.487 2.94087 -2.67876 0
M  V30 9456 H 872.226 3.31946 -5.65236 0
M  V30 9457 H 871.746 4.26072 -4.22164 0
M  V30 9458 H 873.425 4.32431 -4.81261 0
M  V30 9459 N 873.557 1.20646 1.01402 0
M  V30 9460 C 874.973 0.961866 1.27359 0
M  V30 9461 C 875.173 -0.357083 1.98311 0
M  V30 9462 O 874.229 -1.08498 2.28001 0
M  V30 9463 C 875.542 2.14627 2.10609 0
M  V30 9464 C 877.09 2.18753 2.23866 0
M  V30 9465 C 877.565 3.36686 3.10494 0
M  V30 9466 N 879.056 3.36716 3.18083 0
M  V30 9467 C 879.791 4.24615 3.85343 0
M  V30 9468 N 879.287 5.22697 4.54708 0
M  V30 9469 N 881.08 4.12449 3.81893 0
M  V30 9470 H 873.231 2.05481 0.537721 0
M  V30 9471 H 875.494 0.899292 0.299963 0
M  V30 9472 H 875.2 3.10159 1.65814 0
M  V30 9473 H 875.074 2.12935 3.11349 0
M  V30 9474 H 877.461 1.23782 2.67885 0
M  V30 9475 H 877.542 2.24492 1.22626 0
M  V30 9476 H 877.186 4.31945 2.67181 0
M  V30 9477 H 877.116 3.28185 4.11828 0
M  V30 9478 H 879.607 2.65728 2.68695 0
M  V30 9479 H 879.92 5.86087 5.03708 0
M  V30 9480 H 878.265 5.26631 4.53525 0
M  V30 9481 H 881.456 3.35091 3.26851 0
M  V30 9482 H 881.629 4.81162 4.34035 0
M  V30 9483 N 875.035 -1.20752 1.01276 0
M  V30 9484 C 875.968 -2.22091 0.524472 0
M  V30 9485 C 876.946 -1.5692 -0.426017 0
M  V30 9486 O 878.13 -1.8528 -0.346919 0
M  V30 9487 C 875.257 -3.37868 -0.237224 0
M  V30 9488 C 874.303 -4.21327 0.662236 0
M  V30 9489 S 875.136 -4.91352 2.12916 0
M  V30 9490 C 876.292 -6.10553 1.37752 0
M  V30 9491 H 876.525 -2.63166 1.38315 0
M  V30 9492 H 874.058 -1.30742 0.821332 0
M  V30 9493 H 876.016 -4.04985 -0.670599 0
M  V30 9494 H 874.677 -2.95261 -1.07143 0
M  V30 9495 H 873.87 -5.03944 0.0751085 0
M  V30 9496 H 873.472 -3.59445 1.03322 0
M  V30 9497 H 875.764 -6.74322 0.655491 0
M  V30 9498 H 876.707 -6.73717 2.17969 0
M  V30 9499 H 877.115 -5.57566 0.882088 0
M  V30 9500 N 876.513 -0.788492 -1.36457 0
M  V30 9501 C 877.79 -0.284484 -1.9352 0
M  V30 9502 C 878.17 1.2232 -1.7205 0
M  V30 9503 O 877.518 2.01424 -1.07892 0
M  V30 9504 C 877.728 -0.676106 -3.42388 0
M  V30 9505 C 879.076 -0.655327 -4.19512 0
M  V30 9506 O 880.1 -0.616523 -3.50824 0
M  V30 9507 O 878.959 -0.697391 -5.42032 0
M  V30 9508 H 876.053 -0.0701769 -0.824017 0
M  V30 9509 H 878.599 -0.870974 -1.45644 0
M  V30 9510 H 877.371 -1.71596 -3.51668 0
M  V30 9511 H 876.994 -0.0634517 -3.97549 0
M  V30 9512 N 877.991 1.48044 -0.54043 0
M  V30 9513 C 878.939 2.31461 0.229862 0
M  V30 9514 C 879.933 1.41884 0.925495 0
M  V30 9515 O 881.139 1.58736 0.848689 0
M  V30 9516 H 877.514 0.746227 0.0929975 0
M  V30 9517 H 879.485 2.94297 -0.493118 0
M  V30 9518 C 878.234 3.24172 1.25729 0
M  V30 9519 H 877.557 3.93052 0.731426 0
M  V30 9520 H 878.997 3.85404 1.76747 0
M  V30 9521 C 877.456 2.4651 2.2964 0
M  V30 9522 O 877.986 2.19742 3.36268 0
M  V30 9523 N 876.192 2.07817 2.03127 0
M  V30 9524 H 875.739 2.29786 1.1643 0
M  V30 9525 H 875.697 1.56168 2.72872 0
M  V30 9526 N 879.47 0.276058 1.55163 0
M  V30 9527 C 880.881 -0.221516 1.85381 0
M  V30 9528 C 881.232 -1.55372 1.19808 0
M  V30 9529 O 880.357 -2.10855 0.486742 0
M  V30 9530 C 880.952 -0.408706 3.36326 0
M  V30 9531 C 879.511 -0.850512 3.66665 0
M  V30 9532 C 878.658 0.055656 2.77244 0
M  V30 9533 H 881.609 0.497819 1.5069 0
M  V30 9534 H 881.63 -1.24711 3.59482 0
M  V30 9535 H 881.142 0.561052 3.84023 0
M  V30 9536 H 879.243 -1.83171 3.24468 0
M  V30 9537 H 879.356 -0.687181 4.74146 0
M  V30 9538 H 877.72 -0.460819 2.50497 0
M  V30 9539 H 878.503 1.02131 3.27756 0
M  V30 9540 N 880.948 -1.576 0.00335426 0
M  V30 9541 C 882.195 -1.90713 -0.680791 0
M  V30 9542 C 882.523 -0.877263 -1.73592 0
M  V30 9543 O 881.778 0.117497 -1.95347 0
M  V30 9544 C 882.077 -3.3058 -1.35837 0
M  V30 9545 C 881.743 -4.48786 -0.436111 0
M  V30 9546 C 880.405 -4.80855 -0.182195 0
M  V30 9547 C 882.757 -5.20821 0.198677 0
M  V30 9548 C 880.085 -5.8233 0.714747 0
M  V30 9549 C 882.437 -6.23252 1.08351 0
M  V30 9550 C 881.101 -6.53776 1.34658 0
M  V30 9551 H 880.371 -0.697869 -0.249119 0
M  V30 9552 H 883.018 -1.91407 0.0596011 0
M  V30 9553 H 881.323 -3.26026 -2.17289 0
M  V30 9554 H 883.02 -3.53462 -1.89383 0
M  V30 9555 H 879.61 -4.23731 -0.644186 0
M  V30 9556 H 883.794 -4.96298 0.0155259 0
M  V30 9557 H 879.05 -6.04339 0.926529 0
M  V30 9558 H 883.224 -6.78199 1.58172 0
M  V30 9559 H 880.851 -7.32225 2.04328 0
M  V30 9560 N 882.426 0.269451 -1.5528 0
M  V30 9561 C 883.656 1.01724 -1.79821 0
M  V30 9562 C 884.064 1.80298 -0.573532 0
M  V30 9563 O 883.407 1.77666 0.466963 0
M  V30 9564 C 883.469 2.02043 -2.97353 0
M  V30 9565 C 883.133 1.42375 -4.34256 0
M  V30 9566 C 884.13 0.837611 -5.13108 0
M  V30 9567 C 881.815 1.44988 -4.8092 0
M  V30 9568 C 883.809 0.285557 -6.3676 0
M  V30 9569 C 881.496 0.893969 -6.04526 0
M  V30 9570 C 882.494 0.312809 -6.82283 0
M  V30 9571 O 882.182 -0.234582 -8.03558 0
M  V30 9572 H 881.914 0.30604 -0.602757 0
M  V30 9573 H 884.468 0.30454 -2.0313 0
M  V30 9574 H 882.698 2.77082 -2.69745 0
M  V30 9575 H 884.387 2.6298 -3.09187 0
M  V30 9576 H 885.153 0.81009 -4.78187 0
M  V30 9577 H 881.032 1.89162 -4.20403 0
M  V30 9578 H 884.576 -0.168696 -6.97396 0
M  V30 9579 H 880.473 0.918742 -6.38928 0
M  V30 9580 H 881.241 -0.124282 -8.18406 0
M  V30 9581 N 883.904 1.48273 0.534124 0
M  V30 9582 C 885.315 1.49667 1.1161 0
M  V30 9583 C 885.666 0.264139 1.94414 0
M  V30 9584 O 884.791 -0.629084 2.07054 0
M  V30 9585 C 885.386 2.71191 2.03079 0
M  V30 9586 C 883.945 2.7547 2.56502 0
M  V30 9587 C 883.092 2.43119 1.33373 0
M  V30 9588 H 886.043 1.55449 0.319578 0
M  V30 9589 H 886.064 2.49473 2.87304 0
M  V30 9590 H 885.576 3.60879 1.42785 0
M  V30 9591 H 883.677 1.89979 3.20529 0
M  V30 9592 H 883.79 3.76787 2.95919 0
M  V30 9593 H 882.154 1.94187 1.64813 0
M  V30 9594 H 882.937 3.35044 0.748375 0
M  V30 9595 N 885.382 -0.782676 1.36792 0
M  V30 9596 C 886.798 -1.08169 1.17352 0
M  V30 9597 C 886.998 -2.015 0.0022037 0
M  V30 9598 O 886.054 -2.43692 -0.661093 0
M  V30 9599 C 887.367 -1.68969 2.48737 0
M  V30 9600 C 888.915 -1.81278 2.55161 0
M  V30 9601 C 889.39 -2.45492 3.86649 0
M  V30 9602 N 890.881 -2.52954 3.88032 0
M  V30 9603 C 891.616 -3.03465 4.86515 0
M  V30 9604 N 891.112 -3.54232 5.95392 0
M  V30 9605 N 892.905 -3.02239 4.73928 0
M  V30 9606 H 885.056 -0.162757 2.11775 0
M  V30 9607 H 887.319 -0.134823 0.938364 0
M  V30 9608 H 887.025 -1.07859 3.34753 0
M  V30 9609 H 886.899 -2.68397 2.65034 0
M  V30 9610 H 889.286 -2.41524 1.69559 0
M  V30 9611 H 889.367 -0.806367 2.42758 0
M  V30 9612 H 889.011 -1.85889 4.7266 0
M  V30 9613 H 888.941 -3.46718 3.96351 0
M  V30 9614 H 891.432 -2.17014 3.09376 0
M  V30 9615 H 891.745 -3.91145 6.66503 0
M  V30 9616 H 890.09 -3.52366 5.99052 0
M  V30 9617 H 893.281 -2.61871 3.87996 0
M  V30 9618 H 893.454 -3.41295 5.50837 0
M  V30 9619 N 886.86 -1.21182 -1.00761 0
M  V30 9620 C 888.106 -1.03903 -1.74859 0
M  V30 9621 C 888.461 0.423347 -1.87685 0
M  V30 9622 O 887.754 1.31001 -1.39819 0
M  V30 9623 C 887.948 -1.6667 -3.16158 0
M  V30 9624 C 887.777 -3.1886 -3.1711 0
M  V30 9625 C 886.547 -3.87888 -3.23838 0
M  V30 9626 C 888.745 -4.15978 -3.02434 0
M  V30 9627 N 886.727 -5.27289 -3.14388 0
M  V30 9628 C 888.098 -5.42114 -3.00854 0
M  V30 9629 C 890.153 -4.0706 -2.86717 0
M  V30 9630 C 888.856 -6.60358 -2.85166 0
M  V30 9631 C 890.882 -5.24938 -2.72386 0
M  V30 9632 C 890.244 -6.49983 -2.71479 0
M  V30 9633 H 886.343 -0.434522 -0.650165 0
M  V30 9634 H 888.927 -1.53495 -1.1978 0
M  V30 9635 H 887.098 -1.19649 -3.69511 0
M  V30 9636 H 888.83 -1.42622 -3.78736 0
M  V30 9637 H 885.585 -3.38798 -3.30927 0
M  V30 9638 H 886.009 -6.00293 -3.13013 0
M  V30 9639 H 890.651 -3.11183 -2.86226 0
M  V30 9640 H 888.369 -7.56399 -2.84405 0
M  V30 9641 H 891.955 -5.19857 -2.61228 0
M  V30 9642 H 890.835 -7.39662 -2.6052 0
M  V30 9643 N 888.338 1.20213 -1.01915 0
M  V30 9644 C 889.268 2.25336 -0.612023 0
M  V30 9645 C 890.249 1.65933 0.374186 0
M  V30 9646 O 891.434 1.92464 0.259053 0
M  V30 9647 C 888.564 3.47267 0.047904 0
M  V30 9648 C 887.518 4.1928 -0.859557 0
M  V30 9649 C 886.844 5.3466 -0.0652655 0
M  V30 9650 C 888.144 4.75143 -2.1688 0
M  V30 9651 H 889.838 2.59645 -1.49079 0
M  V30 9652 H 887.384 1.24808 -0.718263 0
M  V30 9653 H 889.337 4.19991 0.344294 0
M  V30 9654 H 888.061 3.12129 0.961404 0
M  V30 9655 H 886.72 3.48425 -1.13999 0
M  V30 9656 H 886.368 4.95767 0.849964 0
M  V30 9657 H 886.068 5.83772 -0.669618 0
M  V30 9658 H 887.592 6.10187 0.224612 0
M  V30 9659 H 889.006 5.39672 -1.9346 0
M  V30 9660 H 887.403 5.34702 -2.72422 0
M  V30 9661 H 888.473 3.93744 -2.83008 0
M  V30 9662 N 889.816 0.795718 1.36037 0
M  V30 9663 C 890.726 0.199784 2.33748 0
M  V30 9664 C 891.742 -0.651436 1.61345 0
M  V30 9665 O 892.918 -0.565743 1.93291 0
M  V30 9666 C 889.983 -0.650475 3.40543 0
M  V30 9667 C 889.044 0.219974 4.28736 0
M  V30 9668 C 888.277 -0.589798 5.30431 0
M  V30 9669 O 888.5 -1.82532 5.40406 0
M  V30 9670 O 887.434 0.0136187 6.01898 0
M  V30 9671 H 891.26 1.00782 2.8649 0
M  V30 9672 H 888.845 0.557293 1.38617 0
M  V30 9673 H 890.727 -1.13512 4.05824 0
M  V30 9674 H 889.402 -1.4363 2.9009 0
M  V30 9675 H 888.309 0.751516 3.66474 0
M  V30 9676 H 889.642 0.969468 4.82558 0
M  V30 9677 N 891.294 -1.47756 0.548274 0
M  V30 9678 C 892.241 -2.29893 -0.204408 0
M  V30 9679 C 893.211 -1.38509 -0.916761 0
M  V30 9680 O 894.396 -1.67472 -0.91421 0
M  V30 9681 C 891.536 -3.22282 -1.23403 0
M  V30 9682 C 890.649 -4.28753 -0.528654 0
M  V30 9683 C 889.784 -5.08303 -1.54279 0
M  V30 9684 C 888.823 -6.06557 -0.821893 0
M  V30 9685 N 887.96 -6.79098 -1.78243 0
M  V30 9686 H 892.8 -2.93739 0.502163 0
M  V30 9687 H 890.337 -1.44793 0.259471 0
M  V30 9688 H 892.295 -3.74262 -1.84348 0
M  V30 9689 H 890.925 -2.6032 -1.90875 0
M  V30 9690 H 889.977 -3.79899 0.195132 0
M  V30 9691 H 891.289 -4.98787 0.0365066 0
M  V30 9692 H 890.443 -5.64388 -2.22602 0
M  V30 9693 H 889.182 -4.3815 -2.14186 0
M  V30 9694 H 888.187 -5.49659 -0.12469 0
M  V30 9695 H 889.412 -6.78715 -0.228685 0
M  V30 9696 H 887.358 -6.11682 -2.37025 0
M  V30 9697 H 887.275 -7.4527 -1.26919 0
M  V30 9698 H 888.543 -7.39762 -2.45709 0
M  V30 9699 N 892.772 -0.284283 -1.55015 0
M  V30 9700 C 893.682 0.60906 -2.26556 0
M  V30 9701 C 894.698 1.16246 -1.29472 0
M  V30 9702 O 895.874 1.1908 -1.62425 0
M  V30 9703 C 892.939 1.77246 -2.97968 0
M  V30 9704 C 892 1.25482 -4.10552 0
M  V30 9705 C 891.233 2.36277 -4.78549 0
M  V30 9706 O 891.456 3.55829 -4.45805 0
M  V30 9707 O 890.39 2.03914 -5.66306 0
M  V30 9708 H 894.216 0.0292298 -3.03686 0
M  V30 9709 H 891.801 -0.0513466 -1.49312 0
M  V30 9710 H 893.683 2.45062 -3.42815 0
M  V30 9711 H 892.358 2.33921 -2.23747 0
M  V30 9712 H 891.265 0.542859 -3.7014 0
M  V30 9713 H 892.598 0.733708 -4.86701 0
M  V30 9714 N 894.251 1.57596 -0.0117121 0
M  V30 9715 C 895.214 2.08089 0.960816 0
M  V30 9716 C 896.214 0.992519 1.26514 0
M  V30 9717 O 897.404 1.25475 1.20837 0
M  V30 9718 C 894.536 2.53217 2.28241 0
M  V30 9719 H 895.729 2.9529 0.523829 0
M  V30 9720 H 893.282 1.54508 0.235995 0
M  V30 9721 H 894.017 1.69294 2.76604 0
M  V30 9722 H 893.802 3.32714 2.0747 0
M  V30 9723 H 895.292 2.92568 2.97983 0
M  V30 9724 N 895.729 -0.261212 1.5542 0
M  V30 9725 C 896.676 -1.32315 1.89107 0
M  V30 9726 C 897.646 -1.48517 0.743767 0
M  V30 9727 O 898.831 -1.62733 0.996123 0
M  V30 9728 C 895.971 -2.67626 2.17877 0
M  V30 9729 C 895.084 -2.59549 3.45338 0
M  V30 9730 C 894.219 -3.87118 3.63748 0
M  V30 9731 C 893.258 -3.736 4.8486 0
M  V30 9732 N 892.395 -4.93029 4.99867 0
M  V30 9733 H 897.235 -1.02886 2.79675 0
M  V30 9734 H 894.772 -0.496812 1.38456 0
M  V30 9735 H 896.73 -3.4637 2.32559 0
M  V30 9736 H 895.36 -2.95232 1.30529 0
M  V30 9737 H 894.412 -1.72452 3.39064 0
M  V30 9738 H 895.724 -2.45465 4.34222 0
M  V30 9739 H 894.878 -4.74305 3.78312 0
M  V30 9740 H 893.617 -4.04084 2.73071 0
M  V30 9741 H 892.622 -2.84797 4.70288 0
M  V30 9742 H 893.847 -3.58143 5.76984 0
M  V30 9743 H 891.793 -5.10383 4.12123 0
M  V30 9744 H 891.71 -4.81521 5.82815 0
M  V30 9745 H 892.978 -5.81754 5.18828 0
M  V30 9746 N 897.207 -1.48554 -0.526253 0
M  V30 9747 C 898.484 -1.47252 -1.28748 0
M  V30 9748 C 898.864 -0.186245 -2.10277 0
M  V30 9749 O 898.212 0.831954 -2.12816 0
M  V30 9750 C 898.422 -2.73672 -2.16575 0
M  V30 9751 C 899.77 -3.22151 -2.76593 0
M  V30 9752 O 900.794 -2.74614 -2.2686 0
M  V30 9753 O 899.653 -4.04877 -3.67066 0
M  V30 9754 H 896.747 -0.588242 -0.581292 0
M  V30 9755 H 899.293 -1.60792 -0.5426 0
M  V30 9756 H 898.065 -3.58798 -1.56139 0
M  V30 9757 H 897.688 -2.6287 -2.98304 0
M  V30 9758 N 898.685 0.775411 -1.37205 0
M  V30 9759 C 899.615 1.90258 -1.35367 0
M  V30 9760 C 900.596 1.68634 -0.222864 0
M  V30 9761 O 901.781 1.89545 -0.422659 0
M  V30 9762 C 898.911 3.27488 -1.15623 0
M  V30 9763 C 897.865 3.63668 -2.25676 0
M  V30 9764 C 897.191 4.994 -1.91059 0
M  V30 9765 C 898.491 3.70797 -3.67841 0
M  V30 9766 H 900.185 1.92053 -2.29687 0
M  V30 9767 H 897.731 0.922597 -1.10563 0
M  V30 9768 H 899.684 4.05976 -1.12968 0
M  V30 9769 H 898.408 3.26117 -0.177573 0
M  V30 9770 H 897.067 2.87486 -2.2748 0
M  V30 9771 H 896.715 4.94565 -0.917324 0
M  V30 9772 H 896.415 5.24576 -2.64751 0
M  V30 9773 H 897.939 5.80291 -1.89985 0
M  V30 9774 H 899.353 4.39444 -3.68187 0
M  V30 9775 H 897.75 4.07468 -4.40556 0
M  V30 9776 H 898.82 2.71549 -4.01732 0
M  V30 9777 N 900.163 1.21714 1.00117 0
M  V30 9778 C 901.093 1.00397 2.10815 0
M  V30 9779 C 902.074 -0.0723502 1.69946 0
M  V30 9780 O 903.259 0.0882398 1.93999 0
M  V30 9781 C 900.389 0.572001 3.42557 0
M  V30 9782 C 899.343 1.59331 3.97237 0
M  V30 9783 C 898.669 1.01746 5.2493 0
M  V30 9784 C 899.969 2.98117 4.28863 0
M  V30 9785 H 901.663 1.92983 2.28906 0
M  V30 9786 H 899.209 0.929273 1.10002 0
M  V30 9787 H 901.162 0.410018 4.19401 0
M  V30 9788 H 899.886 -0.38951 3.24269 0
M  V30 9789 H 898.545 1.74293 3.22518 0
M  V30 9790 H 898.193 0.0475491 5.02978 0
M  V30 9791 H 897.893 1.69969 5.62481 0
M  V30 9792 H 899.417 0.866881 6.04415 0
M  V30 9793 H 900.831 2.86578 4.96534 0
M  V30 9794 H 899.228 3.63389 4.77565 0
M  V30 9795 H 900.298 3.48674 3.36979 0
M  V30 9796 N 901.641 -1.19671 1.02551 0
M  V30 9797 C 902.887 -1.89548 0.721069 0
M  V30 9798 C 903.22 -1.79209 -0.748176 0
M  V30 9799 O 902.495 -1.1822 -1.54448 0
M  V30 9800 C 902.778 -3.4061 1.16861 0
M  V30 9801 C 902.631 -3.59838 2.69883 0
M  V30 9802 C 903.95 -4.33718 0.746782 0
M  V30 9803 H 901.069 -0.688315 0.263422 0
M  V30 9804 H 903.711 -1.40883 1.27483 0
M  V30 9805 H 901.861 -3.82188 0.697477 0
M  V30 9806 H 903.533 -3.27454 3.24917 0
M  V30 9807 H 901.776 -3.03005 3.10435 0
M  V30 9808 H 902.447 -4.65766 2.96253 0
M  V30 9809 H 904.923 -3.99837 1.15195 0
M  V30 9810 H 903.799 -5.38012 1.08786 0
M  V30 9811 H 904.06 -4.40704 -0.351057 0
M  V30 9812 N 903.119 -0.802921 -1.35613 0
M  V30 9813 C 904.066 -0.20874 -2.29854 0
M  V30 9814 C 905.036 0.655128 -1.52634 0
M  V30 9815 O 906.221 0.600979 -1.81088 0
M  V30 9816 C 903.361 0.639663 -3.3912 0
M  V30 9817 C 902.474 -0.244234 -4.31309 0
M  V30 9818 C 901.609 0.611825 -5.27665 0
M  V30 9819 C 900.648 -0.272698 -6.11492 0
M  V30 9820 N 899.785 0.543122 -6.99996 0
M  V30 9821 H 904.625 -1.01782 -2.80079 0
M  V30 9822 H 902.162 -0.513465 -1.37848 0
M  V30 9823 H 904.12 1.14668 -4.01132 0
M  V30 9824 H 902.75 1.41404 -2.9018 0
M  V30 9825 H 901.802 -0.869322 -3.70334 0
M  V30 9826 H 903.114 -0.925202 -4.90144 0
M  V30 9827 H 902.268 1.18412 -5.95032 0
M  V30 9828 H 901.007 1.32637 -4.69317 0
M  V30 9829 H 900.012 -0.857287 -5.43075 0
M  V30 9830 H 901.237 -0.985051 -6.71918 0
M  V30 9831 H 899.183 1.24171 -6.44141 0
M  V30 9832 H 899.1 -0.0798767 -7.55958 0
M  V30 9833 H 900.368 1.09881 -7.71717 0
M  V30 9834 N 904.597 1.47463 -0.556102 0
M  V30 9835 C 905.527 2.32801 0.180497 0
M  V30 9836 C 906.508 1.43721 0.909848 0
M  V30 9837 O 907.693 1.72578 0.89053 0
M  V30 9838 C 904.823 3.25478 1.21167 0
M  V30 9839 C 903.777 4.2379 0.598846 0
M  V30 9840 C 903.103 5.05783 1.73457 0
M  V30 9841 C 904.403 5.20387 -0.446659 0
M  V30 9842 H 906.097 2.94636 -0.531956 0
M  V30 9843 H 903.643 1.41683 -0.257267 0
M  V30 9844 H 905.596 3.8402 1.73513 0
M  V30 9845 H 904.32 2.61695 1.95405 0
M  V30 9846 H 902.979 3.66472 0.0966897 0
M  V30 9847 H 902.627 4.38405 2.46596 0
M  V30 9848 H 902.327 5.72343 1.33031 0
M  V30 9849 H 903.851 5.67183 2.26131 0
M  V30 9850 H 905.265 5.73299 -0.00930019 0
M  V30 9851 H 903.662 5.95143 -0.769735 0
M  V30 9852 H 904.732 4.65932 -1.34295 0
M  V30 9853 N 906.075 0.2925 1.54862 0
M  V30 9854 C 907.322 -0.319263 1.99967 0
M  V30 9855 C 907.65 -1.54547 1.18092 0
M  V30 9856 O 906.905 -1.94186 0.242969 0
M  V30 9857 C 907.204 -0.728674 3.49893 0
M  V30 9858 C 906.87 0.394836 4.49168 0
M  V30 9859 C 905.532 0.703289 4.76033 0
M  V30 9860 C 907.884 1.15103 5.08331 0
M  V30 9861 C 905.212 1.77121 5.59325 0
M  V30 9862 C 907.564 2.20881 5.92785 0
M  V30 9863 C 906.228 2.52342 6.17964 0
M  V30 9864 H 905.498 -0.116827 0.731733 0
M  V30 9865 H 908.145 0.40983 1.87063 0
M  V30 9866 H 906.45 -1.53772 3.60363 0
M  V30 9867 H 908.147 -1.21305 3.82212 0
M  V30 9868 H 904.737 0.144319 4.28357 0
M  V30 9869 H 908.921 0.92599 4.87585 0
M  V30 9870 H 904.177 2.01978 5.77074 0
M  V30 9871 H 908.351 2.79939 6.37657 0
M  V30 9872 H 905.978 3.35225 6.82296 0
M  V30 9873 N 907.553 -1.57587 0.0200696 0
M  V30 9874 C 908.799 -1.91708 -0.661503 0
M  V30 9875 C 909.132 -0.895968 -1.72296 0
M  V30 9876 O 908.407 0.082577 -1.94325 0
M  V30 9877 C 908.69 -3.36344 -1.28627 0
M  V30 9878 C 908.543 -4.49186 -0.234982 0
M  V30 9879 C 909.862 -3.80771 -2.20685 0
M  V30 9880 H 906.981 -0.69717 -0.239005 0
M  V30 9881 H 909.623 -1.8985 0.0754764 0
M  V30 9882 H 907.773 -3.38058 -1.91439 0
M  V30 9883 H 909.445 -4.59606 0.395011 0
M  V30 9884 H 907.688 -4.31557 0.440565 0
M  V30 9885 H 908.359 -5.47395 -0.711558 0
M  V30 9886 H 910.835 -3.80735 -1.67868 0
M  V30 9887 H 909.711 -4.82685 -2.61356 0
M  V30 9888 H 909.972 -3.15764 -3.09428 0
M  V30 9889 N 909.032 0.252966 -1.55557 0
M  V30 9890 C 910.448 0.60118 -1.47844 0
M  V30 9891 C 910.648 1.88612 -0.709055 0
M  V30 9892 O 909.704 2.51395 -0.235964 0
M  V30 9893 C 911.017 0.709539 -2.92209 0
M  V30 9894 C 912.565 0.802269 -3.02544 0
M  V30 9895 C 913.04 0.94224 -4.48203 0
M  V30 9896 N 914.531 1.00726 -4.52116 0
M  V30 9897 C 915.266 1.13472 -5.6206 0
M  V30 9898 N 914.762 1.22811 -6.81828 0
M  V30 9899 N 916.555 1.1674 -5.49844 0
M  V30 9900 H 908.706 -0.590635 -2.04023 0
M  V30 9901 H 910.969 -0.202986 -0.926013 0
M  V30 9902 H 910.675 -0.164505 -3.51315 0
M  V30 9903 H 910.549 1.58343 -3.42356 0
M  V30 9904 H 912.936 1.66677 -2.43522 0
M  V30 9905 H 913.017 -0.0966469 -2.55617 0
M  V30 9906 H 912.661 0.0823209 -5.07833 0
M  V30 9907 H 912.591 1.85611 -4.92805 0
M  V30 9908 H 915.082 0.946684 -3.6585 0
M  V30 9909 H 915.395 1.32426 -7.61369 0
M  V30 9910 H 913.74 1.19779 -6.84601 0
M  V30 9911 H 916.931 1.09089 -4.55211 0
M  V30 9912 H 917.104 1.26329 -6.35567 0
M  V30 9913 N 910.51 1.48831 0.518367 0
M  V30 9914 C 911.42 1.6692 1.64848 0
M  V30 9915 C 912.436 0.551711 1.65022 0
M  V30 9916 O 913.612 0.824251 1.83761 0
M  V30 9917 C 910.677 1.71559 3.01278 0
M  V30 9918 C 909.738 2.9502 3.11868 0
M  V30 9919 C 908.971 2.99428 4.4179 0
M  V30 9920 O 909.194 2.11914 5.29574 0
M  V30 9921 O 908.128 3.91719 4.5699 0
M  V30 9922 H 911.954 2.62623 1.52521 0
M  V30 9923 H 909.539 1.32368 0.692749 0
M  V30 9924 H 911.421 1.77064 3.82396 0
M  V30 9925 H 910.096 0.790316 3.13904 0
M  V30 9926 H 909.003 2.95042 2.30003 0
M  V30 9927 H 910.336 3.8697 3.04163 0
M  V30 9928 N 911.988 -0.768124 1.37614 0
M  V30 9929 C 913.399 -1.34462 1.29525 0
M  V30 9930 C 913.75 -1.96121 -0.0555168 0
M  V30 9931 O 912.875 -1.94069 -0.957406 0
M  V30 9932 C 913.47 -2.44475 2.34558 0
M  V30 9933 C 912.029 -2.97883 2.30093 0
M  V30 9934 C 911.176 -1.71131 2.18196 0
M  V30 9935 H 914.127 -0.568103 1.48183 0
M  V30 9936 H 914.148 -3.24047 1.99434 0
M  V30 9937 H 913.66 -1.99568 3.32858 0
M  V30 9938 H 911.761 -3.47156 1.35328 0
M  V30 9939 H 911.874 -3.53251 3.23652 0
M  V30 9940 H 910.238 -1.94197 1.64802 0
M  V30 9941 H 911.021 -1.28323 3.18415 0
M  V30 9942 N 913.466 -1.22244 -0.994698 0
M  V30 9943 C 914.376 -1.00722 -2.11878 0
M  V30 9944 C 915.392 0.043919 -1.73945 0
M  V30 9945 O 916.568 -0.148411 -2.00852 0
M  V30 9946 C 913.633 -0.585723 -3.41717 0
M  V30 9947 C 912.694 -1.71027 -3.93762 0
M  V30 9948 C 911.927 -1.30879 -5.17403 0
M  V30 9949 O 912.15 -0.18681 -5.70094 0
M  V30 9950 O 911.084 -2.1246 -5.63156 0
M  V30 9951 H 914.91 -1.94894 -2.32916 0
M  V30 9952 H 912.495 -1.00822 -1.10251 0
M  V30 9953 H 914.377 -0.360935 -4.19851 0
M  V30 9954 H 913.052 0.327166 -3.22042 0
M  V30 9955 H 911.959 -1.98956 -3.16808 0
M  V30 9956 H 913.292 -2.60096 -4.17865 0
M  V30 9957 N 914.944 1.19125 -1.03184 0
M  V30 9958 C 915.891 2.2245 -0.6152 0
M  V30 9959 C 916.861 1.61869 0.372502 0
M  V30 9960 O 918.046 1.88901 0.268491 0
M  V30 9961 C 915.186 3.45091 0.0248027 0
M  V30 9962 C 914.299 4.20044 -1.0093 0
M  V30 9963 C 913.434 5.30119 -0.338744 0
M  V30 9964 C 912.473 5.96833 -1.35855 0
M  V30 9965 N 911.61 6.98464 -0.713594 0
M  V30 9966 H 916.45 2.57445 -1.50086 0
M  V30 9967 H 913.987 1.26485 -0.751005 0
M  V30 9968 H 915.945 4.15149 0.413131 0
M  V30 9969 H 914.575 3.10742 0.874028 0
M  V30 9970 H 913.627 3.48901 -1.51566 0
M  V30 9971 H 914.939 4.65796 -1.78425 0
M  V30 9972 H 914.093 6.0661 0.104269 0
M  V30 9973 H 912.832 4.85446 0.468382 0
M  V30 9974 H 911.837 5.1909 -1.81179 0
M  V30 9975 H 913.062 6.4359 -2.16722 0
M  V30 9976 H 911.008 6.55959 0.0733863 0
M  V30 9977 H 910.925 7.42422 -1.42638 0
M  V30 9978 H 912.193 7.78943 -0.294681 0
M  V30 9979 N 916.422 0.810101 1.35185 0
M  V30 9980 C 917.838 0.494269 1.51754 0
M  V30 9981 C 918.038 -0.983907 1.75845 0
M  V30 9982 O 917.094 -1.76882 1.80191 0
M  V30 9983 C 918.407 1.34268 2.69059 0
M  V30 9984 C 919.955 1.33848 2.82938 0
M  V30 9985 C 920.43 2.17109 4.03271 0
M  V30 9986 N 921.921 2.14664 4.10456 0
M  V30 9987 C 922.656 2.75843 5.02691 0
M  V30 9988 N 922.152 3.45962 6.00235 0
M  V30 9989 N 923.945 2.65465 4.95464 0
M  V30 9990 H 916.096 1.76736 1.17805 0
M  V30 9991 H 918.359 0.752429 0.576676 0
M  V30 9992 H 918.065 2.39183 2.57845 0
M  V30 9993 H 917.939 0.998362 3.63748 0
M  V30 9994 H 920.326 0.29716 2.936 0
M  V30 9995 H 920.407 1.72269 1.89095 0
M  V30 9996 H 920.051 3.21283 3.93369 0
M  V30 9997 H 919.981 1.76046 4.96302 0
M  V30 9998 H 922.472 1.63648 3.40628 0
M  V30 9999 H 922.785 3.89922 6.67219 0
M  V30 10000 H 921.13 3.50067 6.00398 0
M  V30 10001 H 924.321 2.1027 4.18215 0
M  V30 10002 H 924.494 3.13433 5.67154 0
M  V30 10003 N 917.9 -1.47166 0.563914 0
M  V30 10004 C 918.83 -2.32894 -0.168148 0
M  V30 10005 C 919.811 -1.44202 -0.902214 0
M  V30 10006 O 920.996 -1.73048 -0.881365 0
M  V30 10007 C 918.126 -3.26116 -1.19439 0
M  V30 10008 C 917.08 -4.24101 -0.576363 0
M  V30 10009 C 916.406 -5.06696 -1.70772 0
M  V30 10010 C 917.706 -5.20142 0.47425 0
M  V30 10011 H 919.4 -2.9435 0.547573 0
M  V30 10012 H 916.946 -1.41545 0.264778 0
M  V30 10013 H 918.899 -3.84935 -1.71474 0
M  V30 10014 H 917.623 -2.62728 -1.94014 0
M  V30 10015 H 916.282 -3.66519 -0.0772534 0
M  V30 10016 H 915.93 -4.39707 -2.44268 0
M  V30 10017 H 915.63 -5.7304 -1.29994 0
M  V30 10018 H 917.154 -5.68375 -2.2312 0
M  V30 10019 H 918.568 -5.73286 0.0397035 0
M  V30 10020 H 916.965 -5.94726 0.801287 0
M  V30 10021 H 918.035 -4.65214 1.36764 0
M  V30 10022 N 919.378 -0.300708 -1.54705 0
M  V30 10023 C 920.626 0.308044 -1.99739 0
M  V30 10024 C 920.947 1.54433 -1.19061 0
M  V30 10025 O 920.217 1.93794 -0.286507 0
M  V30 10026 H 918.797 0.116811 -0.73781 0
M  V30 10027 H 921.459 -0.41197 -1.90496 0
M  V30 10028 H 920.555 0.580287 -3.06658 0
M  V30 10029 N 920.856 1.57574 -0.0284266 0
M  V30 10030 C 922.102 1.92056 0.651327 0
M  V30 10031 C 922.435 0.905092 1.71819 0
M  V30 10032 O 921.71 -0.0722703 1.94366 0
M  V30 10033 C 921.993 3.37021 1.26841 0
M  V30 10034 C 921.846 4.49304 0.211157 0
M  V30 10035 C 923.165 3.81936 2.18662 0
M  V30 10036 H 920.284 0.698428 0.235304 0
M  V30 10037 H 922.926 1.89807 -0.0855435 0
M  V30 10038 H 921.076 3.39068 1.89644 0
M  V30 10039 H 922.748 4.5939 -0.419379 0
M  V30 10040 H 920.991 4.31317 -0.463445 0
M  V30 10041 H 921.662 5.47764 0.682518 0
M  V30 10042 H 924.138 3.8162 1.65847 0
M  V30 10043 H 923.014 4.84064 2.58792 0
M  V30 10044 H 923.275 3.174 3.07749 0
M  V30 10045 N 922.334 -0.244713 1.55689 0
M  V30 10046 C 923.75 -0.593331 1.48161 0
M  V30 10047 C 923.95 -1.88234 0.719047 0
M  V30 10048 O 923.006 -2.51266 0.249292 0
M  V30 10049 C 924.319 -0.694032 2.92581 0
M  V30 10050 C 925.867 -0.786213 3.02965 0
M  V30 10051 C 926.342 -0.918457 4.48696 0
M  V30 10052 N 927.833 -0.983272 4.52643 0
M  V30 10053 C 928.568 -1.1049 5.62654 0
M  V30 10054 N 928.064 -1.19193 6.8247 0
M  V30 10055 N 929.857 -1.13823 5.50455 0
M  V30 10056 H 922.008 0.601446 2.03707 0
M  V30 10057 H 924.271 0.207894 0.924924 0
M  V30 10058 H 923.977 0.183133 3.51223 0
M  V30 10059 H 923.851 -1.56525 3.4319 0
M  V30 10060 H 926.238 -1.65383 2.44402 0
M  V30 10061 H 926.319 0.110202 2.55563 0
M  V30 10062 H 925.963 -0.0553881 5.0787 0
M  V30 10063 H 925.893 -1.82994 4.93782 0
M  V30 10064 H 928.384 -0.927269 3.66347 0
M  V30 10065 H 928.697 -1.28387 7.62061 0
M  V30 10066 H 927.042 -1.16147 6.85226 0
M  V30 10067 H 930.233 -1.06673 4.55783 0
M  V30 10068 H 930.406 -1.22957 6.36228 0
M  V30 10069 N 923.813 -1.49104 -0.510467 0
M  V30 10070 C 925.061 -1.578 -1.26268 0
M  V30 10071 C 925.382 -0.262349 -1.93227 0
M  V30 10072 O 924.652 0.717624 -1.82283 0
M  V30 10073 H 923.232 -0.581387 -0.46904 0
M  V30 10074 H 925.894 -1.85678 -0.592423 0
M  V30 10075 H 924.99 -2.36919 -2.03165 0
M  V30 10076 N 925.291 0.760815 -1.38019 0
M  V30 10077 C 926.568 1.5098 -1.24356 0
M  V30 10078 C 926.948 2.10507 0.158169 0
M  V30 10079 O 926.296 1.96455 1.16695 0
M  V30 10080 C 926.506 2.58195 -2.34811 0
M  V30 10081 C 927.854 3.25297 -2.72886 0
M  V30 10082 O 928.878 2.68496 -2.34069 0
M  V30 10083 O 927.737 4.28018 -3.39799 0
M  V30 10084 H 924.831 0.66921 -0.485888 0
M  V30 10085 H 927.377 0.796844 -1.49828 0
M  V30 10086 H 926.149 2.12406 -3.28633 0
M  V30 10087 H 925.772 3.37079 -2.10864 0
M  V30 10088 N 926.769 1.22769 0.988202 0
M  V30 10089 C 928.018 1.0492 1.72263 0
M  V30 10090 C 928.331 -0.415282 1.91141 0
M  V30 10091 O 929.537 -0.713547 2.61956 0
M  V30 10092 C 927.993 1.82891 3.09966 0
M  V30 10093 C 927.601 3.33618 2.99003 0
M  V30 10094 C 929.345 1.73505 3.87423 0
M  V30 10095 C 927.252 4.04012 4.3189 0
M  V30 10096 H 926.182 0.38899 0.645912 0
M  V30 10097 H 928.833 1.46664 1.10281 0
M  V30 10098 H 927.215 1.33948 3.72658 0
M  V30 10099 H 928.389 3.8999 2.45448 0
M  V30 10100 H 926.704 3.43732 2.35027 0
M  V30 10101 H 929.301 2.23416 4.85787 0
M  V30 10102 H 929.644 0.696344 4.10435 0
M  V30 10103 H 930.177 2.20016 3.31418 0
M  V30 10104 H 926.916 5.08155 4.14075 0
M  V30 10105 H 926.436 3.52428 4.8534 0
M  V30 10106 H 928.115 4.0987 5.00615 0
M  V30 10107 N 928.247 -1.18576 1.03814 0
M  V30 10108 C 929.663 -1.4051 0.756909 0
M  V30 10109 C 929.863 -1.9057 -0.654631 0
M  V30 10110 O 928.919 -2.0884 -1.41922 0
M  V30 10111 C 930.232 -2.4081 1.80087 0
M  V30 10112 C 931.78 -2.54541 1.82148 0
M  V30 10113 C 932.255 -3.58102 2.85529 0
M  V30 10114 N 933.746 -3.65607 2.84404 0
M  V30 10115 C 934.481 -4.45458 3.61047 0
M  V30 10116 N 933.977 -5.28937 4.47434 0
M  V30 10117 N 935.77 -4.40196 3.49548 0
M  V30 10118 H 927.921 -0.844075 1.94908 0
M  V30 10119 H 930.184 -0.433287 0.843188 0
M  V30 10120 H 929.89 -2.1107 2.81322 0
M  V30 10121 H 929.764 -3.4012 1.63089 0
M  V30 10122 H 932.151 -2.83598 0.815855 0
M  V30 10123 H 932.232 -1.55352 2.03223 0
M  V30 10124 H 931.876 -3.29786 3.86269 0
M  V30 10125 H 931.806 -4.56963 2.6171 0
M  V30 10126 H 934.297 -3.05994 2.21756 0
M  V30 10127 H 934.61 -5.8701 5.02632 0
M  V30 10128 H 932.955 -5.28366 4.51503 0
M  V30 10129 H 936.146 -3.74026 2.81464 0
M  V30 10130 H 936.319 -5.02186 4.09528 0
M  V30 10131 N 929.725 -0.817259 -1.34754 0
M  V30 10132 C 930.657 -0.192695 -2.28389 0
M  V30 10133 C 931.67 0.614167 -1.50771 0
M  V30 10134 O 932.859 0.444776 -1.7287 0
M  V30 10135 C 929.959 0.748929 -3.30521 0
M  V30 10136 C 929.132 -0.0138762 -4.37398 0
M  V30 10137 C 928.191 0.847825 -5.19325 0
M  V30 10138 O 927.217 0.29487 -5.68436 0
M  V30 10139 N 928.419 2.16843 -5.38479 0
M  V30 10140 H 931.184 -0.997122 -2.82626 0
M  V30 10141 H 928.745 -0.673696 -1.47217 0
M  V30 10142 H 930.737 1.32987 -3.82226 0
M  V30 10143 H 929.307 1.45412 -2.7672 0
M  V30 10144 H 928.527 -0.776093 -3.86485 0
M  V30 10145 H 929.815 -0.539191 -5.05935 0
M  V30 10146 H 929.213 2.64148 -5.00242 0
M  V30 10147 H 927.77 2.69835 -5.93323 0
M  V30 10148 N 931.203 1.46865 -0.571711 0
M  V30 10149 C 932.153 2.27219 0.188503 0
M  V30 10150 C 933.137 1.35221 0.872019 0
M  V30 10151 O 934.329 1.59474 0.76793 0
M  V30 10152 C 931.458 3.21321 1.20862 0
M  V30 10153 C 930.544 4.20803 0.527783 0
M  V30 10154 N 930.935 5.04132 -0.410403 0
M  V30 10155 C 929.233 4.39128 0.779909 0
M  V30 10156 C 929.934 5.76071 -0.80728 0
M  V30 10157 N 928.91 5.43368 -0.158865 0
M  V30 10158 H 932.712 2.89034 -0.532611 0
M  V30 10159 H 930.226 1.57581 -0.392696 0
M  V30 10160 H 932.223 3.77586 1.76733 0
M  V30 10161 H 930.883 2.61065 1.93067 0
M  V30 10162 H 931.894 5.11911 -0.785351 0
M  V30 10163 H 928.571 3.90031 1.48937 0
M  V30 10164 H 929.961 6.53082 -1.57903 0
M  V30 10165 N 932.681 0.308908 1.54543 0
M  V30 10166 C 934.092 -0.182144 1.85809 0
M  V30 10167 C 934.443 -1.52796 1.23076 0
M  V30 10168 O 933.568 -2.09775 0.531358 0
M  V30 10169 C 934.163 -0.337275 3.37117 0
M  V30 10170 C 932.722 -0.772545 3.68387 0
M  V30 10171 C 931.869 0.114451 2.77064 0
M  V30 10172 H 934.82 0.529671 1.496 0
M  V30 10173 H 934.841 -1.17058 3.62046 0
M  V30 10174 H 934.353 0.642382 3.82747 0
M  V30 10175 H 932.454 -1.76247 3.2828 0
M  V30 10176 H 932.567 -0.586453 4.75497 0
M  V30 10177 H 930.931 -0.407581 2.51418 0
M  V30 10178 H 931.714 1.09061 3.25516 0
M  V30 10179 N 934.159 -1.57557 0.0367827 0
M  V30 10180 C 935.089 -2.13712 -0.940719 0
M  V30 10181 C 936.07 -1.05515 -1.33419 0
M  V30 10182 O 937.255 -1.33385 -1.41146 0
M  V30 10183 C 934.385 -2.67043 -2.22048 0
M  V30 10184 C 933.339 -3.80096 -1.96752 0
M  V30 10185 C 932.665 -4.19886 -3.31059 0
M  V30 10186 C 933.965 -5.05848 -1.30058 0
M  V30 10187 H 935.659 -2.9564 -0.473033 0
M  V30 10188 H 933.205 -1.42214 -0.226089 0
M  V30 10189 H 935.158 -3.04964 -2.90818 0
M  V30 10190 H 933.882 -1.82287 -2.70996 0
M  V30 10191 H 932.541 -3.42625 -1.30398 0
M  V30 10192 H 932.189 -3.32101 -3.77781 0
M  V30 10193 H 931.889 -4.96073 -3.14937 0
M  V30 10194 H 933.413 -4.60395 -4.01084 0
M  V30 10195 H 934.827 -5.41306 -1.8884 0
M  V30 10196 H 933.224 -5.87084 -1.24309 0
M  V30 10197 H 934.294 -4.84122 -0.274591 0
M  V30 10198 N 935.637 0.236453 -1.55816 0
M  V30 10199 C 936.884 0.963012 -1.78136 0
M  V30 10200 C 937.212 1.84918 -0.602952 0
M  V30 10201 O 936.467 1.91285 0.413325 0
M  V30 10202 C 936.766 1.84549 -3.06066 0
M  V30 10203 C 936.432 1.11381 -4.36927 0
M  V30 10204 C 935.094 0.911635 -4.72486 0
M  V30 10205 C 937.446 0.596 -5.17781 0
M  V30 10206 C 934.774 0.179515 -5.86425 0
M  V30 10207 C 937.126 -0.122702 -6.32481 0
M  V30 10208 C 935.79 -0.336263 -6.66652 0
M  V30 10209 H 935.06 0.352391 -0.651845 0
M  V30 10210 H 937.707 0.232295 -1.90086 0
M  V30 10211 H 936.012 2.6436 -2.89173 0
M  V30 10212 H 937.709 2.40953 -3.20535 0
M  V30 10213 H 934.299 1.28134 -4.08998 0
M  V30 10214 H 938.483 0.73971 -4.90757 0
M  V30 10215 H 933.739 0.00368224 -6.114 0
M  V30 10216 H 937.913 -0.531516 -6.94369 0
M  V30 10217 H 935.54 -0.905507 -7.54788 0
M  V30 10218 N 937.115 1.49373 0.502552 0
M  V30 10219 C 938.531 1.36101 0.833591 0
M  V30 10220 C 938.731 0.392911 1.97632 0
M  V30 10221 O 937.787 -0.175975 2.51886 0
M  V30 10222 C 939.1 2.76782 1.17526 0
M  V30 10223 C 940.648 2.85471 1.28356 0
M  V30 10224 C 941.123 4.26915 1.65853 0
M  V30 10225 N 942.614 4.29719 1.72905 0
M  V30 10226 C 943.349 5.36127 2.0336 0
M  V30 10227 N 942.845 6.52782 2.32049 0
M  V30 10228 N 944.638 5.23542 2.04598 0
M  V30 10229 H 936.789 2.10912 -0.251008 0
M  V30 10230 H 939.052 0.946696 -0.0497037 0
M  V30 10231 H 938.758 3.49314 0.408965 0
M  V30 10232 H 938.632 3.1205 2.11907 0
M  V30 10233 H 941.019 2.13177 2.04058 0
M  V30 10234 H 941.1 2.53787 0.320304 0
M  V30 10235 H 940.744 4.99735 0.907022 0
M  V30 10236 H 940.674 4.56063 2.63276 0
M  V30 10237 H 943.165 3.45586 1.529 0
M  V30 10238 H 943.478 7.29701 2.54471 0
M  V30 10239 H 941.823 6.56011 2.29509 0
M  V30 10240 H 945.014 4.31413 1.8166 0
M  V30 10241 H 945.187 6.06565 2.27998 0
M  V30 10242 N 938.594 -0.753485 1.38421 0
M  V30 10243 C 939.504 -1.89797 1.37892 0
M  V30 10244 C 940.52 -1.71797 0.276023 0
M  V30 10245 O 941.696 -1.94718 0.514464 0
M  V30 10246 C 938.761 -3.25166 1.20284 0
M  V30 10247 C 937.822 -3.55691 2.4038 0
M  V30 10248 C 937.055 -4.84601 2.23602 0
M  V30 10249 O 937.278 -5.56985 1.22979 0
M  V30 10250 O 936.212 -5.14605 3.12194 0
M  V30 10251 H 940.038 -1.93197 2.34326 0
M  V30 10252 H 937.623 -0.898775 1.19342 0
M  V30 10253 H 939.505 -4.06099 1.12525 0
M  V30 10254 H 938.18 -3.22577 0.269352 0
M  V30 10255 H 937.087 -2.74919 2.53714 0
M  V30 10256 H 938.42 -3.6304 3.32359 0
M  V30 10257 N 940.072 -1.23292 -0.981677 0
M  V30 10258 C 941.321 -1.05832 -1.71705 0
M  V30 10259 C 941.634 0.40514 -1.91358 0
M  V30 10260 O 942.84 0.699645 -2.6233 0
M  V30 10261 C 941.296 -1.84532 -3.08992 0
M  V30 10262 C 940.904 -3.35199 -2.9723 0
M  V30 10263 C 942.648 -1.75557 -3.86497 0
M  V30 10264 C 940.555 -4.06296 -4.29741 0
M  V30 10265 H 939.485 -0.39241 -0.64384 0
M  V30 10266 H 942.136 -1.47247 -1.09502 0
M  V30 10267 H 940.518 -1.35923 -3.71942 0
M  V30 10268 H 941.692 -3.91286 -2.43377 0
M  V30 10269 H 940.007 -3.44973 -2.332 0
M  V30 10270 H 942.604 -2.25989 -4.84596 0
M  V30 10271 H 942.947 -0.718101 -4.1006 0
M  V30 10272 H 943.48 -2.21771 -3.30246 0
M  V30 10273 H 940.219 -5.10344 -4.11375 0
M  V30 10274 H 939.739 -3.54997 -4.83464 0
M  V30 10275 H 941.418 -4.12519 -4.98434 0
M  V30 10276 N 941.55 1.18024 -1.04442 0
M  V30 10277 C 942.498 2.23834 -0.632557 0
M  V30 10278 C 943.492 1.65902 0.342488 0
M  V30 10279 O 944.698 1.78778 0.20937 0
M  V30 10280 H 941.073 0.728544 -0.186353 0
M  V30 10281 H 943.044 2.55876 -1.53526 0
M  V30 10282 C 941.793 3.47697 -0.0153661 0
M  V30 10283 H 941.116 3.92574 -0.756704 0
M  V30 10284 H 942.556 4.23345 0.235541 0
M  V30 10285 C 941.015 3.13416 1.23579 0
M  V30 10286 O 941.545 3.27499 2.3261 0
M  V30 10287 N 939.751 2.67708 1.13053 0
M  V30 10288 H 939.298 2.56449 0.243277 0
M  V30 10289 H 939.256 2.45143 1.96855 0
M  V30 10290 N 943.028 0.824394 1.34319 0
M  V30 10291 C 944.274 0.422964 1.98954 0
M  V30 10292 C 944.629 -1.00323 1.64174 0
M  V30 10293 O 943.922 -1.6894 0.903869 0
M  V30 10294 C 944.116 0.564024 3.52921 0
M  V30 10295 C 943.945 2.00238 4.0266 0
M  V30 10296 C 942.715 2.63457 4.31183 0
M  V30 10297 C 944.913 2.9693 4.19925 0
M  V30 10298 N 942.895 3.98518 4.66966 0
M  V30 10299 C 944.266 4.16901 4.58904 0
M  V30 10300 C 946.321 2.93527 4.02177 0
M  V30 10301 C 945.024 5.33926 4.81991 0
M  V30 10302 C 947.05 4.09769 4.26431 0
M  V30 10303 C 946.412 5.28493 4.65698 0
M  V30 10304 H 942.511 0.202907 0.755217 0
M  V30 10305 H 945.095 1.0694 1.62702 0
M  V30 10306 H 943.266 -0.0525268 3.88364 0
M  V30 10307 H 944.998 0.135451 4.04473 0
M  V30 10308 H 941.753 2.14688 4.22145 0
M  V30 10309 H 942.177 4.68103 4.8909 0
M  V30 10310 H 946.819 2.02878 3.70945 0
M  V30 10311 H 944.537 6.25132 5.12089 0
M  V30 10312 H 948.123 4.08537 4.14233 0
M  V30 10313 H 947.003 6.16945 4.84096 0
M  V30 10314 N 944.506 -1.46559 0.579492 0
M  V30 10315 C 945.416 -2.34066 -0.15816 0
M  V30 10316 C 946.432 -1.49556 -0.88932 0
M  V30 10317 O 947.608 -1.82434 -0.853226 0
M  V30 10318 C 944.673 -3.26683 -1.161 0
M  V30 10319 C 943.734 -4.27092 -0.434855 0
M  V30 10320 C 942.967 -5.15283 -1.38992 0
M  V30 10321 O 943.19 -5.06345 -2.62623 0
M  V30 10322 O 942.124 -5.95099 -0.902253 0
M  V30 10323 H 945.95 -2.98488 0.560234 0
M  V30 10324 H 943.535 -1.45482 0.339918 0
M  V30 10325 H 945.417 -3.8383 -1.73932 0
M  V30 10326 H 944.092 -2.64862 -1.86091 0
M  V30 10327 H 942.999 -3.73641 0.185224 0
M  V30 10328 H 944.332 -4.9169 0.224031 0
M  V30 10329 N 945.984 -0.3171 -1.54377 0
M  V30 10330 C 946.894 0.560867 -2.27797 0
M  V30 10331 C 947.91 1.13473 -1.31908 0
M  V30 10332 O 949.086 1.15608 -1.64914 0
M  V30 10333 C 946.151 1.70886 -3.0166 0
M  V30 10334 C 945.212 1.16745 -4.13121 0
M  V30 10335 C 944.445 2.26073 -4.83453 0
M  V30 10336 O 944.668 3.46292 -4.53252 0
M  V30 10337 O 943.602 1.91856 -5.70504 0
M  V30 10338 H 947.428 -0.035193 -3.0368 0
M  V30 10339 H 945.013 -0.0830062 -1.49169 0
M  V30 10340 H 946.895 2.37736 -3.47936 0
M  V30 10341 H 945.57 2.29122 -2.28658 0
M  V30 10342 H 944.477 0.464224 -3.71209 0
M  V30 10343 H 945.81 0.630307 -4.88147 0
M  V30 10344 N 947.462 1.57535 -0.0451378 0
M  V30 10345 C 948.392 2.14208 0.929372 0
M  V30 10346 C 949.373 1.06221 1.32858 0
M  V30 10347 O 950.558 1.34132 1.40436 0
M  V30 10348 C 947.688 2.68217 2.20629 0
M  V30 10349 C 946.642 3.81134 1.94734 0
M  V30 10350 C 945.968 4.21636 3.28828 0
M  V30 10351 C 947.268 5.06531 1.27374 0
M  V30 10352 H 948.962 2.95886 0.457348 0
M  V30 10353 H 946.508 1.42332 0.218544 0
M  V30 10354 H 948.461 3.06502 2.89196 0
M  V30 10355 H 947.185 1.83722 2.70026 0
M  V30 10356 H 945.844 3.43312 1.28579 0
M  V30 10357 H 945.492 3.34099 3.76014 0
M  V30 10358 H 945.192 4.97736 3.12302 0
M  V30 10359 H 946.716 4.62516 3.98637 0
M  V30 10360 H 948.13 5.423 1.85967 0
M  V30 10361 H 946.527 5.87735 1.21194 0
M  V30 10362 H 947.597 4.84261 0.248913 0
M  V30 10363 N 948.94 -0.228186 1.55939 0
M  V30 10364 C 949.85 -1.30386 1.9503 0
M  V30 10365 C 950.866 -1.51645 0.853218 0
M  V30 10366 O 952.042 -1.64904 1.15623 0
M  V30 10367 C 949.107 -2.63489 2.25332 0
M  V30 10368 C 948.168 -2.5059 3.48573 0
M  V30 10369 C 947.401 -3.77345 3.7742 0
M  V30 10370 O 947.624 -4.80067 3.08045 0
M  V30 10371 O 946.558 -3.74855 4.70922 0
M  V30 10372 H 950.384 -1.0022 2.86687 0
M  V30 10373 H 947.969 -0.430503 1.43063 0
M  V30 10374 H 949.851 -3.4211 2.46046 0
M  V30 10375 H 948.526 -2.93349 1.3685 0
M  V30 10376 H 947.433 -1.70191 3.33145 0
M  V30 10377 H 948.766 -2.2567 4.37417 0
M  V30 10378 N 950.418 -1.49637 -0.494624 0
M  V30 10379 C 951.834 -1.36541 -0.826361 0
M  V30 10380 C 952.034 -0.403386 -1.97421 0
M  V30 10381 O 951.09 0.162614 -2.51976 0
M  V30 10382 C 952.403 -2.77401 -1.16057 0
M  V30 10383 C 953.951 -2.86148 -1.26841 0
M  V30 10384 C 954.426 -4.27789 -1.63587 0
M  V30 10385 N 955.917 -4.3063 -1.70624 0
M  V30 10386 C 956.652 -5.37198 -2.00514 0
M  V30 10387 N 956.148 -6.54004 -2.28584 0
M  V30 10388 N 957.941 -5.2462 -2.01818 0
M  V30 10389 H 950.092 -2.10776 0.26219 0
M  V30 10390 H 952.355 -0.946419 0.0547235 0
M  V30 10391 H 952.061 -3.49526 -0.390434 0
M  V30 10392 H 951.935 -3.1317 -2.10249 0
M  V30 10393 H 954.322 -2.14256 -2.02925 0
M  V30 10394 H 954.403 -2.53953 -0.30684 0
M  V30 10395 H 954.047 -5.00209 -0.880507 0
M  V30 10396 H 953.977 -4.57453 -2.60854 0
M  V30 10397 H 956.468 -3.46393 -1.51065 0
M  V30 10398 H 956.781 -7.31041 -2.50598 0
M  V30 10399 H 955.126 -6.57219 -2.26027 0
M  V30 10400 H 958.317 -4.32371 -1.79369 0
M  V30 10401 H 958.49 -6.07765 -2.24778 0
M  V30 10402 N 951.896 0.746133 -1.38819 0
M  V30 10403 C 952.843 1.86001 -1.36647 0
M  V30 10404 C 953.813 1.6453 -0.227849 0
M  V30 10405 O 954.998 1.86092 -0.421241 0
M  V30 10406 C 952.138 3.23388 -1.20474 0
M  V30 10407 C 951.251 3.5664 -2.43786 0
M  V30 10408 C 950.386 4.8337 -2.20287 0
M  V30 10409 C 949.425 5.09431 -3.39332 0
M  V30 10410 N 948.562 6.2736 -3.1522 0
M  V30 10411 H 953.402 1.87192 -2.31869 0
M  V30 10412 H 950.939 0.914838 -1.15192 0
M  V30 10413 H 952.897 4.02679 -1.09112 0
M  V30 10414 H 951.527 3.21505 -0.288874 0
M  V30 10415 H 950.579 2.72135 -2.65794 0
M  V30 10416 H 951.891 3.71823 -3.3249 0
M  V30 10417 H 951.045 5.70619 -2.06103 0
M  V30 10418 H 949.784 4.70341 -1.28961 0
M  V30 10419 H 948.789 4.20648 -3.54027 0
M  V30 10420 H 950.014 5.24354 -4.31544 0
M  V30 10421 H 947.96 6.15639 -2.26549 0
M  V30 10422 H 947.877 6.43078 -3.97476 0
M  V30 10423 H 949.145 7.17477 -3.04707 0
M  V30 10424 N 953.375 1.23811 0.975125 0
M  V30 10425 C 954.285 1.0408 2.10249 0
M  V30 10426 C 955.301 -0.0162404 1.73992 0
M  V30 10427 O 956.477 0.180346 2.00591 0
M  V30 10428 C 953.542 0.640013 3.40741 0
M  V30 10429 C 952.603 1.7727 3.90991 0
M  V30 10430 C 951.836 1.39094 5.15256 0
M  V30 10431 O 952.059 0.277483 5.69725 0
M  V30 10432 O 950.993 2.21392 5.59704 0
M  V30 10433 H 954.819 1.98575 2.29786 0
M  V30 10434 H 952.404 1.02563 1.08633 0
M  V30 10435 H 954.286 0.427684 4.19224 0
M  V30 10436 H 952.961 -0.27589 3.22522 0
M  V30 10437 H 951.868 2.03971 3.13602 0
M  V30 10438 H 953.201 2.66711 4.13674 0
M  V30 10439 N 954.853 -1.17469 1.05066 0
M  V30 10440 C 956.102 -1.87032 0.755114 0
M  V30 10441 C 956.415 -1.81844 -0.720572 0
M  V30 10442 O 957.621 -2.46866 -1.13002 0
M  V30 10443 C 956.077 -3.35581 1.30052 0
M  V30 10444 C 955.685 -3.49274 2.80556 0
M  V30 10445 C 957.429 -4.1048 1.08196 0
M  V30 10446 C 955.336 -4.91838 3.28404 0
M  V30 10447 H 954.266 -0.70057 0.278779 0
M  V30 10448 H 956.917 -1.32663 1.26779 0
M  V30 10449 H 955.299 -3.89479 0.715667 0
M  V30 10450 H 956.473 -3.05598 3.44886 0
M  V30 10451 H 954.788 -2.87793 3.00939 0
M  V30 10452 H 957.385 -5.15652 1.41447 0
M  V30 10453 H 957.728 -4.16295 0.0196603 0
M  V30 10454 H 958.261 -3.62784 1.63195 0
M  V30 10455 H 955 -4.91196 4.34058 0
M  V30 10456 H 954.52 -5.36189 2.68815 0
M  V30 10457 H 956.199 -5.60602 3.23009 0
M  V30 10458 N 956.331 -0.831506 -1.3388 0
M  V30 10459 C 957.608 -0.345907 -1.92517 0
M  V30 10460 C 957.988 1.16784 -1.75854 0
M  V30 10461 O 957.336 1.97889 -1.14245 0
M  V30 10462 C 957.546 -0.784692 -3.40064 0
M  V30 10463 C 958.894 -0.78846 -4.17215 0
M  V30 10464 O 959.918 -0.727823 -3.48685 0
M  V30 10465 O 958.777 -0.869481 -5.39539 0
M  V30 10466 H 955.871 -0.0963568 -0.821367 0
M  V30 10467 H 958.417 -0.916868 -1.42799 0
M  V30 10468 H 957.189 -1.82697 -3.46031 0
M  V30 10469 H 956.812 -0.189897 -3.97146 0
M  V30 10470 N 957.809 1.4625 -0.587256 0
M  V30 10471 C 959.22 1.85997 -0.161918 0
M  V30 10472 C 959.571 1.49025 1.27616 0
M  V30 10473 O 958.696 0.907282 1.96462 0
M  V30 10474 C 959.291 3.37582 -0.287077 0
M  V30 10475 C 957.85 3.76308 0.0834211 0
M  V30 10476 C 956.997 2.70259 -0.620932 0
M  V30 10477 H 959.948 1.3734 -0.795199 0
M  V30 10478 H 959.969 3.77379 0.486333 0
M  V30 10479 H 959.481 3.64459 -1.33383 0
M  V30 10480 H 957.582 3.55047 1.13013 0
M  V30 10481 H 957.695 4.78184 -0.296064 0
M  V30 10482 H 956.059 2.54628 -0.0607027 0
M  V30 10483 H 956.842 2.99975 -1.66942 0
M  V30 10484 N 959.287 0.325282 1.54207 0
M  V30 10485 C 960.698 -0.162426 1.85992 0
M  V30 10486 C 961.049 -1.51482 1.2469 0
M  V30 10487 O 960.174 -2.092 0.553578 0
M  V30 10488 C 960.769 -0.3015 3.37456 0
M  V30 10489 C 959.328 -0.73343 3.69185 0
M  V30 10490 C 958.475 0.143831 2.76927 0
M  V30 10491 H 961.426 0.545508 1.4903 0
M  V30 10492 H 961.447 -1.13212 3.63268 0
M  V30 10493 H 960.959 0.682942 3.82044 0
M  V30 10494 H 959.06 -1.72755 3.30131 0
M  V30 10495 H 959.173 -0.535987 4.76092 0
M  V30 10496 H 957.537 -0.380892 2.51836 0
M  V30 10497 H 958.32 1.12507 3.24341 0
M  V30 10498 N 960.765 -1.57509 0.0534917 0
M  V30 10499 C 962.012 -1.92782 -0.619772 0
M  V30 10500 C 962.34 -0.932046 -1.70714 0
M  V30 10501 O 961.595 0.0552891 -1.95622 0
M  V30 10502 C 961.894 -3.34734 -1.25251 0
M  V30 10503 C 961.56 -4.49946 -0.293113 0
M  V30 10504 C 960.222 -4.81191 -0.0291223 0
M  V30 10505 C 962.574 -5.19925 0.364271 0
M  V30 10506 C 959.902 -5.79761 0.899649 0
M  V30 10507 C 962.254 -6.19489 1.28125 0
M  V30 10508 C 960.918 -6.49161 1.55389 0
M  V30 10509 H 960.188 -0.705441 -0.226791 0
M  V30 10510 H 962.835 -1.91121 0.120466 0
M  V30 10511 H 961.14 -3.32774 -2.06807 0
M  V30 10512 H 962.837 -3.59308 -1.78042 0
M  V30 10513 H 959.427 -4.25566 -0.509053 0
M  V30 10514 H 963.611 -4.95997 0.173411 0
M  V30 10515 H 958.867 -6.01085 1.11833 0
M  V30 10516 H 963.041 -6.72824 1.79669 0
M  V30 10517 H 960.668 -7.25354 2.2752 0
M  V30 10518 N 962.243 0.219913 -1.56058 0
M  V30 10519 C 963.659 0.569685 -1.49086 0
M  V30 10520 C 963.859 1.87066 -0.748903 0
M  V30 10521 O 962.915 2.50838 -0.289235 0
M  V30 10522 C 964.228 0.647397 -2.93648 0
M  V30 10523 C 965.776 0.737914 -3.04177 0
M  V30 10524 C 966.251 0.846957 -4.50101 0
M  V30 10525 N 967.742 0.911136 -4.5415 0
M  V30 10526 C 968.477 1.01525 -5.64341 0
M  V30 10527 N 967.973 1.0832 -6.8428 0
M  V30 10528 N 969.766 1.05051 -5.52196 0
M  V30 10529 H 961.917 -0.633778 -2.02724 0
M  V30 10530 H 964.18 -0.222583 -0.921499 0
M  V30 10531 H 963.886 -0.238987 -3.50887 0
M  V30 10532 H 963.76 1.51046 -3.45637 0
M  V30 10533 H 966.147 1.61474 -2.47002 0
M  V30 10534 H 966.228 -0.150845 -2.55355 0
M  V30 10535 H 965.872 -0.0254166 -5.07894 0
M  V30 10536 H 965.802 1.75116 -4.96631 0
M  V30 10537 H 968.293 0.868869 -3.67776 0
M  V30 10538 H 968.606 1.16247 -7.64007 0
M  V30 10539 H 966.951 1.05231 -6.86987 0
M  V30 10540 H 970.142 0.994086 -4.57423 0
M  V30 10541 H 970.315 1.12819 -6.38103 0
M  V30 10542 N 963.721 1.49897 0.486681 0
M  V30 10543 C 965.132 1.53142 1.06792 0
M  V30 10544 C 965.483 0.325856 1.93475 0
M  V30 10545 O 964.608 -0.562893 2.08951 0
M  V30 10546 C 965.203 2.77514 1.94348 0
M  V30 10547 C 963.762 2.83491 2.47609 0
M  V30 10548 C 962.909 2.47239 1.2557 0
M  V30 10549 H 965.86 1.56387 0.269962 0
M  V30 10550 H 965.881 2.58487 2.79221 0
M  V30 10551 H 965.393 3.65239 1.31232 0
M  V30 10552 H 963.494 2.0008 3.14323 0
M  V30 10553 H 963.607 3.86011 2.83782 0
M  V30 10554 H 961.971 1.99332 1.58552 0
M  V30 10555 H 962.754 3.37255 0.641404 0
M  V30 10556 N 965.199 -0.738761 1.39212 0
M  V30 10557 C 966.146 -1.85273 1.37631 0
M  V30 10558 C 967.116 -1.64407 0.236572 0
M  V30 10559 O 968.301 -1.85866 0.431104 0
M  V30 10560 C 965.441 -3.22745 1.22188 0
M  V30 10561 C 964.554 -3.55342 2.45674 0
M  V30 10562 C 963.689 -4.82195 2.22847 0
M  V30 10563 C 962.728 -5.07625 3.42029 0
M  V30 10564 N 961.865 -6.25679 3.18543 0
M  V30 10565 H 966.705 -1.85959 2.32859 0
M  V30 10566 H 964.242 -0.908716 1.15675 0
M  V30 10567 H 966.2 -4.02095 1.11245 0
M  V30 10568 H 964.83 -3.21347 0.30592 0
M  V30 10569 H 963.882 -2.70722 2.67233 0
M  V30 10570 H 965.194 -3.70054 3.34457 0
M  V30 10571 H 964.348 -5.69518 2.09126 0
M  V30 10572 H 963.087 -4.6965 1.31454 0
M  V30 10573 H 962.092 -4.18765 3.56253 0
M  V30 10574 H 963.317 -5.22058 4.34319 0
M  V30 10575 H 961.263 -6.14429 2.2981 0
M  V30 10576 H 961.18 -6.40961 4.0088 0
M  V30 10577 H 962.448 -7.15851 3.08508 0
M  V30 10578 N 966.677 -1.24326 -0.968545 0
M  V30 10579 C 967.923 -1.08406 -1.71394 0
M  V30 10580 C 968.256 0.376353 -1.90518 0
M  V30 10581 O 967.531 1.27816 -1.46606 0
M  V30 10582 C 967.814 -1.82344 -3.1052 0
M  V30 10583 C 967.667 -3.3613 -2.98893 0
M  V30 10584 C 968.986 -1.59545 -4.10163 0
M  V30 10585 H 966.105 -0.395205 -0.622079 0
M  V30 10586 H 968.747 -1.52983 -1.12677 0
M  V30 10587 H 966.897 -1.44452 -3.60646 0
M  V30 10588 H 968.569 -3.83614 -2.56199 0
M  V30 10589 H 966.812 -3.64553 -2.35124 0
M  V30 10590 H 967.483 -3.83064 -3.97449 0
M  V30 10591 H 969.959 -1.92504 -3.68892 0
M  V30 10592 H 968.835 -2.13736 -5.05577 0
M  V30 10593 H 969.096 -0.533503 -4.38869 0
M  V30 10594 N 968.156 1.1691 -1.05688 0
M  V30 10595 C 969.103 2.21095 -0.662246 0
M  V30 10596 C 970.073 1.62623 0.338083 0
M  V30 10597 O 971.258 1.89428 0.228362 0
M  V30 10598 C 968.398 3.45066 -0.0484018 0
M  V30 10599 C 967.511 4.17809 -1.09817 0
M  V30 10600 C 966.646 5.29281 -0.451114 0
M  V30 10601 C 965.685 5.93817 -1.48484 0
M  V30 10602 N 964.822 6.96793 -0.861588 0
M  V30 10603 H 969.662 2.54204 -1.55513 0
M  V30 10604 H 967.199 1.24863 -0.777665 0
M  V30 10605 H 969.157 4.15932 0.324978 0
M  V30 10606 H 967.787 3.12526 0.807918 0
M  V30 10607 H 966.839 3.45608 -1.58932 0
M  V30 10608 H 968.151 4.61907 -1.88265 0
M  V30 10609 H 967.305 6.06695 -0.0244251 0
M  V30 10610 H 966.044 4.8633 0.365306 0
M  V30 10611 H 965.049 5.1513 -1.92149 0
M  V30 10612 H 966.274 6.38848 -2.30325 0
M  V30 10613 H 964.22 6.55967 -0.0657688 0
M  V30 10614 H 964.137 7.39229 -1.58354 0
M  V30 10615 H 965.405 7.78142 -0.45984 0
M  V30 10616 N 969.634 0.838594 1.33437 0
M  V30 10617 C 970.859 0.446701 2.02532 0
M  V30 10618 C 971.284 -0.944275 1.62681 0
M  V30 10619 O 970.642 -1.61733 0.81927 0
M  V30 10620 C 970.69 0.574794 3.55989 0
M  V30 10621 O 969.794 -0.399063 4.10465 0
M  V30 10622 H 969.135 0.181637 0.638674 0
M  V30 10623 H 971.665 1.13335 1.70342 0
M  V30 10624 H 971.675 0.456339 4.0544 0
M  V30 10625 H 970.35 1.58921 3.8434 0
M  V30 10626 H 968.927 -0.238187 3.72139 0
M  V30 10627 N 971.112 -1.45937 0.595003 0
M  V30 10628 C 972.523 -1.85908 0.171779 0
M  V30 10629 C 972.874 -1.497 -1.26824 0
M  V30 10630 O 971.999 -0.917688 -1.95978 0
M  V30 10631 C 972.594 -3.37425 0.304976 0
M  V30 10632 C 971.153 -3.76346 -0.0634635 0
M  V30 10633 C 970.3 -2.69926 0.635255 0
M  V30 10634 H 973.251 -1.36916 0.802471 0
M  V30 10635 H 973.272 -3.77632 -0.466313 0
M  V30 10636 H 972.784 -3.63747 1.35314 0
M  V30 10637 H 970.885 -3.55642 -1.11129 0
M  V30 10638 H 970.998 -4.78021 0.321419 0
M  V30 10639 H 969.362 -2.54592 0.0742054 0
M  V30 10640 H 970.145 -2.99086 1.68531 0
M  V30 10641 N 972.59 -0.333456 -1.54032 0
M  V30 10642 C 973.837 0.266133 -2.00744 0
M  V30 10643 C 974.165 1.51361 -1.22148 0
M  V30 10644 O 973.42 1.93473 -0.294368 0
M  V30 10645 C 973.719 0.63565 -3.51702 0
M  V30 10646 C 973.385 -0.513786 -4.47963 0
M  V30 10647 C 972.047 -0.829253 -4.74001 0
M  V30 10648 C 974.399 -1.2854 -5.05101 0
M  V30 10649 C 971.727 -1.91888 -5.54433 0
M  V30 10650 C 974.079 -2.3652 -5.86721 0
M  V30 10651 C 972.743 -2.68637 -6.11057 0
M  V30 10652 H 972.013 0.097385 -0.734573 0
M  V30 10653 H 974.66 -0.459282 -1.85911 0
M  V30 10654 H 972.965 1.44163 -3.64313 0
M  V30 10655 H 974.662 1.11129 -3.85294 0
M  V30 10656 H 971.252 -0.25784 -4.27824 0
M  V30 10657 H 975.436 -1.05494 -4.84958 0
M  V30 10658 H 970.692 -2.17208 -5.71516 0
M  V30 10659 H 974.866 -2.96747 -6.30011 0
M  V30 10660 H 972.493 -3.53197 -6.73169 0
M  V30 10661 N 974.068 1.57479 -0.061844 0
M  V30 10662 C 975.345 1.84484 0.649993 0
M  V30 10663 C 975.725 0.952366 1.88396 0
M  V30 10664 O 975.073 0.0161035 2.28494 0
M  V30 10665 C 975.283 3.34452 0.997133 0
M  V30 10666 C 976.631 4.01724 1.37488 0
M  V30 10667 O 977.655 3.3914 1.08916 0
M  V30 10668 O 976.514 5.12091 1.90854 0
M  V30 10669 H 973.608 0.761798 0.321858 0
M  V30 10670 H 976.154 1.6945 -0.0920192 0
M  V30 10671 H 974.926 3.91115 0.120301 0
M  V30 10672 H 974.549 3.54713 1.79624 0
M  V30 10673 N 975.546 -0.211634 1.56173 0
M  V30 10674 C 976.786 -0.941505 1.81425 0
M  V30 10675 C 977.15 -1.8113 0.636862 0
M  V30 10676 O 978.351 -2.57568 0.768907 0
M  V30 10677 C 976.622 -1.75002 3.11623 0
M  V30 10678 S 978.181 -2.53418 3.58225 0
M  V30 10679 H 974.999 -0.316088 0.636875 0
M  V30 10680 H 977.601 -0.206244 1.94409 0
M  V30 10681 H 976.305 -1.10136 3.95346 0
M  V30 10682 H 975.836 -2.5274 3.01473 0
M  V30 10683 H 977.851 -3.77234 3.22349 0
M  V30 10684 N 977.024 -1.50153 -0.478725 0
M  V30 10685 C 978.249 -1.64776 -1.2595 0
M  V30 10686 C 978.674 -0.327794 -1.85222 0
M  V30 10687 O 978.032 0.707418 -1.66929 0
M  V30 10688 C 978.08 -2.73551 -2.34952 0
M  V30 10689 O 977.184 -2.34273 -3.39397 0
M  V30 10690 H 976.525 -0.550769 -0.370877 0
M  V30 10691 H 979.055 -1.96482 -0.570605 0
M  V30 10692 H 979.065 -2.96397 -2.8038 0
M  V30 10693 H 977.74 -3.69354 -1.91181 0
M  V30 10694 H 976.317 -2.21844 -2.99733 0
M  V30 10695 N 978.502 0.731368 -1.39602 0
M  V30 10696 C 979.45 1.86676 -1.38761 0
M  V30 10697 C 980.444 1.6723 -0.270247 0
M  V30 10698 O 981.65 1.74528 -0.440471 0
M  V30 10699 H 978.025 0.614553 -0.433391 0
M  V30 10700 H 979.996 1.84501 -2.34525 0
M  V30 10701 C 978.745 3.24394 -1.25155 0
M  V30 10702 H 978.068 3.39955 -2.10406 0
M  V30 10703 H 979.508 4.04019 -1.28625 0
M  V30 10704 C 977.967 3.36877 0.0396976 0
M  V30 10705 O 978.497 3.88833 1.00854 0
M  V30 10706 N 976.703 2.90414 0.103965 0
M  V30 10707 H 976.25 2.48321 -0.685155 0
M  V30 10708 H 976.208 2.99146 0.967435 0
M  V30 10709 N 979.98 1.24838 0.961938 0
M  V30 10710 C 981.227 1.09151 1.70564 0
M  V30 10711 C 981.555 -0.368719 1.90973 0
M  V30 10712 O 980.81 -1.28854 1.47293 0
M  V30 10713 C 981.109 1.78289 3.09754 0
M  V30 10714 C 980.775 3.28216 3.09169 0
M  V30 10715 C 979.437 3.69118 3.08716 0
M  V30 10716 C 981.789 4.24035 3.03058 0
M  V30 10717 C 979.117 5.04263 2.99892 0
M  V30 10718 C 981.469 5.59195 2.95776 0
M  V30 10719 C 980.133 5.99436 2.93655 0
M  V30 10720 H 979.403 0.399414 0.624139 0
M  V30 10721 H 982.05 1.55016 1.12438 0
M  V30 10722 H 980.355 1.24835 3.7138 0
M  V30 10723 H 982.052 1.63612 3.66104 0
M  V30 10724 H 978.642 2.95667 3.10289 0
M  V30 10725 H 982.826 3.93431 3.02532 0
M  V30 10726 H 978.082 5.3463 2.96615 0
M  V30 10727 H 982.256 6.33142 2.90007 0
M  V30 10728 H 979.883 7.04116 2.86573 0
M  V30 10729 N 981.458 -1.16348 1.06306 0
M  V30 10730 C 982.735 -1.829 0.69331 0
M  V30 10731 C 983.115 -1.94298 -0.82531 0
M  V30 10732 O 982.463 -1.48619 -1.73565 0
M  V30 10733 C 982.673 -3.1989 1.3954 0
M  V30 10734 C 984.021 -3.95662 1.54068 0
M  V30 10735 O 985.045 -3.29408 1.35532 0
M  V30 10736 O 983.904 -5.14422 1.84479 0
M  V30 10737 H 980.998 -0.789738 0.245445 0
M  V30 10738 H 983.544 -1.23549 1.16334 0
M  V30 10739 H 982.316 -3.06629 2.43093 0
M  V30 10740 H 981.939 -3.86918 0.915453 0
M  V30 10741 N 982.937 -0.845659 -1.3299 0
M  V30 10742 C 983.884 -0.281761 -2.29074 0
M  V30 10743 C 984.854 0.606237 -1.54641 0
M  V30 10744 O 986.039 0.543063 -1.82908 0
M  V30 10745 C 983.179 0.531451 -3.40983 0
M  V30 10746 C 982.292 -0.381328 -4.30314 0
M  V30 10747 C 981.427 0.443643 -5.29344 0
M  V30 10748 C 980.466 -0.467101 -6.10315 0
M  V30 10749 N 979.603 0.320148 -7.0137 0
M  V30 10750 H 984.443 -1.10641 -2.76699 0
M  V30 10751 H 981.98 -0.55706 -1.36144 0
M  V30 10752 H 983.938 1.01848 -4.04577 0
M  V30 10753 H 982.568 1.32101 -2.94532 0
M  V30 10754 H 981.62 -0.986701 -3.6738 0
M  V30 10755 H 982.932 -1.08067 -4.86953 0
M  V30 10756 H 982.086 0.994212 -5.98498 0
M  V30 10757 H 980.825 1.17639 -4.73299 0
M  V30 10758 H 979.83 -1.02963 -5.40073 0
M  V30 10759 H 981.055 -1.19832 -6.68444 0
M  V30 10760 H 979.001 1.03615 -6.47765 0
M  V30 10761 H 978.918 -0.320338 -7.55321 0
M  V30 10762 H 980.186 0.852735 -7.74822 0
M  V30 10763 N 984.415 1.45619 -0.602734 0
M  V30 10764 C 985.325 2.34288 0.120902 0
M  V30 10765 C 986.341 1.50952 0.865414 0
M  V30 10766 O 987.517 1.83768 0.824094 0
M  V30 10767 C 984.582 3.28489 1.10888 0
M  V30 10768 C 983.643 4.2773 0.366853 0
M  V30 10769 C 982.876 5.17429 1.30776 0
M  V30 10770 O 983.099 5.10459 2.54535 0
M  V30 10771 O 982.033 5.96459 0.807464 0
M  V30 10772 H 985.859 2.97559 -0.60765 0
M  V30 10773 H 983.444 1.44922 -0.363019 0
M  V30 10774 H 985.326 3.86549 1.67803 0
M  V30 10775 H 984.001 2.67789 1.81854 0
M  V30 10776 H 982.908 3.73299 -0.244643 0
M  V30 10777 H 984.241 4.91271 -0.302226 0
M  V30 10778 N 985.893 0.34162 1.53853 0
M  V30 10779 C 987.14 -0.255484 2.00882 0
M  V30 10780 C 987.468 -1.50711 1.22949 0
M  V30 10781 O 986.723 -1.93315 0.304625 0
M  V30 10782 C 987.022 -0.616989 3.52034 0
M  V30 10783 C 986.688 0.537536 4.47684 0
M  V30 10784 C 985.35 0.854379 4.73554 0
M  V30 10785 C 987.702 1.31217 5.04412 0
M  V30 10786 C 985.03 1.94826 5.53407 0
M  V30 10787 C 987.382 2.39628 5.85458 0
M  V30 10788 C 986.046 2.71874 6.09623 0
M  V30 10789 H 985.316 -0.0934881 0.735079 0
M  V30 10790 H 987.963 0.469135 1.85665 0
M  V30 10791 H 986.268 -1.42229 3.65073 0
M  V30 10792 H 987.965 -1.09084 3.85878 0
M  V30 10793 H 984.555 0.280524 4.27681 0
M  V30 10794 H 988.739 1.08064 4.84392 0
M  V30 10795 H 983.995 2.20235 5.70356 0
M  V30 10796 H 988.169 3.00084 6.28429 0
M  V30 10797 H 985.796 3.56762 6.71286 0
M  V30 10798 N 987.371 -1.57444 0.0701946 0
M  V30 10799 C 988.301 -2.15659 -0.895176 0
M  V30 10800 C 989.282 -1.08321 -1.31151 0
M  V30 10801 O 990.467 -1.36349 -1.38284 0
M  V30 10802 C 987.597 -2.71693 -2.16334 0
M  V30 10803 C 986.551 -3.84183 -1.88645 0
M  V30 10804 C 985.877 -4.26814 -3.22078 0
M  V30 10805 C 987.177 -5.08493 -1.19299 0
M  V30 10806 H 988.871 -2.96576 -0.410217 0
M  V30 10807 H 986.417 -1.42662 -0.195872 0
M  V30 10808 H 988.37 -3.11064 -2.84284 0
M  V30 10809 H 987.094 -1.87994 -2.67069 0
M  V30 10810 H 985.753 -3.45314 -1.23101 0
M  V30 10811 H 985.401 -3.40039 -3.70651 0
M  V30 10812 H 985.101 -5.02642 -3.04344 0
M  V30 10813 H 986.625 -4.68799 -3.91228 0
M  V30 10814 H 988.039 -5.4519 -1.77316 0
M  V30 10815 H 986.436 -5.89588 -1.11828 0
M  V30 10816 H 987.506 -4.84595 -0.171839 0
M  V30 10817 N 988.849 0.203349 -1.56283 0
M  V30 10818 C 989.797 1.27157 -1.94766 0
M  V30 10819 C 990.791 1.4756 -0.832005 0
M  V30 10820 O 991.997 1.48519 -1.01696 0
M  V30 10821 H 988.372 0.426712 -0.61921 0
M  V30 10822 H 990.343 0.919921 -2.83866 0
M  V30 10823 C 989.092 2.6108 -2.29636 0
M  V30 10824 H 988.415 2.46193 -3.15006 0
M  V30 10825 H 989.855 3.34591 -2.60433 0
M  V30 10826 C 988.314 3.17456 -1.12799 0
M  V30 10827 O 988.844 3.99717 -0.398661 0
M  V30 10828 N 987.05 2.76084 -0.906975 0
M  V30 10829 H 986.597 2.09294 -1.50179 0
M  V30 10830 H 986.555 3.14143 -0.127005 0
M  V30 10831 N 990.327 1.50405 0.470755 0
M  V30 10832 C 991.237 1.7208 1.59454 0
M  V30 10833 C 992.253 0.603932 1.63183 0
M  V30 10834 O 993.429 0.882296 1.81046 0
M  V30 10835 C 990.494 1.81057 2.95667 0
M  V30 10836 C 989.555 3.04792 3.02324 0
M  V30 10837 C 988.788 3.13332 4.3204 0
M  V30 10838 O 989.011 2.28655 5.22564 0
M  V30 10839 O 987.945 4.0606 4.44296 0
M  V30 10840 H 991.771 2.67343 1.44089 0
M  V30 10841 H 989.356 1.34505 0.650286 0
M  V30 10842 H 991.238 1.8914 3.76569 0
M  V30 10843 H 989.913 0.889782 3.11231 0
M  V30 10844 H 988.82 3.0221 2.205 0
M  V30 10845 H 990.153 3.96451 2.91698 0
M  V30 10846 N 991.805 -0.723954 1.39988 0
M  V30 10847 C 992.752 -1.83803 1.39589 0
M  V30 10848 C 993.722 -1.64146 0.253996 0
M  V30 10849 O 994.907 -1.85398 0.450793 0
M  V30 10850 C 992.047 -3.21431 1.25604 0
M  V30 10851 C 991.16 -3.52717 2.49429 0
M  V30 10852 C 990.295 -4.79805 2.27949 0
M  V30 10853 C 989.334 -5.03968 3.47394 0
M  V30 10854 N 988.471 -6.22266 3.25161 0
M  V30 10855 H 993.311 -1.83479 2.34818 0
M  V30 10856 H 990.848 -0.896396 1.16633 0
M  V30 10857 H 992.806 -4.00892 1.15504 0
M  V30 10858 H 991.436 -3.21005 0.339986 0
M  V30 10859 H 990.488 -2.67872 2.7009 0
M  V30 10860 H 991.8 -3.66486 3.38363 0
M  V30 10861 H 990.954 -5.67268 2.15155 0
M  V30 10862 H 989.693 -4.68229 1.36428 0
M  V30 10863 H 988.698 -4.14963 3.60674 0
M  V30 10864 H 989.923 -5.17422 4.39831 0
M  V30 10865 H 987.869 -6.11957 2.36314 0
M  V30 10866 H 987.786 -6.36673 4.07656 0
M  V30 10867 H 989.054 -7.12539 3.16083 0
M  V30 10868 N 993.283 -1.25346 -0.955304 0
M  V30 10869 C 994.694 -1.09173 -1.51453 0
M  V30 10870 C 995.045 0.332755 -1.93358 0
M  V30 10871 O 994.17 1.22264 -1.78551 0
M  V30 10872 C 994.765 -1.97564 -2.75234 0
M  V30 10873 C 993.324 -1.85579 -3.27471 0
M  V30 10874 C 992.471 -1.91755 -2.00313 0
M  V30 10875 H 995.422 -1.38642 -0.772271 0
M  V30 10876 H 995.443 -1.51523 -3.49029 0
M  V30 10877 H 994.955 -3.01233 -2.44704 0
M  V30 10878 H 993.056 -0.847906 -3.62824 0
M  V30 10879 H 993.169 -2.70353 -3.95533 0
M  V30 10880 H 991.533 -1.35633 -2.15582 0
M  V30 10881 H 992.316 -2.97028 -1.72132 0
M  V30 10882 N 994.761 1.15782 -1.06922 0
M  V30 10883 C 996.177 1.38454 -0.793896 0
M  V30 10884 C 996.377 1.92238 0.603875 0
M  V30 10885 O 995.433 2.1253 1.36335 0
M  V30 10886 C 996.746 2.3595 -1.86408 0
M  V30 10887 C 998.294 2.49622 -1.88833 0
M  V30 10888 C 998.769 3.50406 -2.94923 0
M  V30 10889 N 1000.26 3.57938 -2.93997 0
M  V30 10890 C 1001 4.35728 -3.72731 0
M  V30 10891 N 1000.49 5.16888 -4.61301 0
M  V30 10892 N 1002.28 4.30774 -3.61096 0
M  V30 10893 H 994.435 0.792101 -1.97077 0
M  V30 10894 H 996.698 0.410779 -0.85438 0
M  V30 10895 H 996.404 2.03537 -2.86819 0
M  V30 10896 H 996.278 3.35677 -1.72049 0
M  V30 10897 H 998.665 2.81335 -0.890759 0
M  V30 10898 H 998.746 1.49909 -2.0727 0
M  V30 10899 H 998.39 3.19429 -3.94877 0
M  V30 10900 H 998.32 4.49864 -2.73734 0
M  V30 10901 H 1000.81 3.00007 -2.29791 0
M  V30 10902 H 1001.12 5.73477 -5.18019 0
M  V30 10903 H 999.469 5.16209 -4.65353 0
M  V30 10904 H 1002.66 3.66432 -2.91282 0
M  V30 10905 H 1002.83 4.91151 -4.22699 0
M  V30 10906 N 996.239 0.8527 1.3254 0
M  V30 10907 C 997.169 0.311234 2.31416 0
M  V30 10908 C 998.15 -0.588557 1.59593 0
M  V30 10909 O 999.335 -0.509211 1.87405 0
M  V30 10910 C 996.465 -0.502892 3.4364 0
M  V30 10911 C 995.419 0.302296 4.26931 0
M  V30 10912 C 994.745 -0.636445 5.30899 0
M  V30 10913 C 996.045 1.52697 4.99481 0
M  V30 10914 H 997.739 1.13742 2.76953 0
M  V30 10915 H 995.285 0.548389 1.33149 0
M  V30 10916 H 997.238 -0.892092 4.11849 0
M  V30 10917 H 995.962 -1.36242 2.96826 0
M  V30 10918 H 994.621 0.673226 3.60365 0
M  V30 10919 H 994.269 -1.49277 4.80339 0
M  V30 10920 H 993.969 -0.101716 5.87512 0
M  V30 10921 H 995.493 -1.02286 6.01972 0
M  V30 10922 H 996.907 1.21017 5.60382 0
M  V30 10923 H 995.304 1.9995 5.65809 0
M  V30 10924 H 996.374 2.28929 4.27457 0
M  V30 10925 N 997.718 -1.45297 0.610449 0
M  V30 10926 C 998.943 -2.07101 0.111414 0
M  V30 10927 C 999.368 -1.45161 -1.19625 0
M  V30 10928 O 998.726 -0.545368 -1.72903 0
M  V30 10929 C 998.774 -3.60598 -0.0117372 0
M  V30 10930 O 997.878 -3.98512 -1.06122 0
M  V30 10931 H 997.219 -0.659709 0.075364 0
M  V30 10932 H 999.749 -1.86504 0.841269 0
M  V30 10933 H 999.759 -4.07464 -0.209028 0
M  V30 10934 H 998.434 -4.05067 0.943076 0
M  V30 10935 H 997.011 -3.63312 -0.840158 0
M  V30 10936 N 999.196 -0.349774 -1.5367 0
M  V30 10937 C 1000.44 0.244827 -2.01015 0
M  V30 10938 C 1000.77 1.50057 -1.23746 0
M  V30 10939 O 1000.03 1.9315 -0.314872 0
M  V30 10940 C 1000.32 0.598311 -3.52356 0
M  V30 10941 C 999.991 -0.56127 -4.47393 0
M  V30 10942 C 998.653 -0.879481 -4.73095 0
M  V30 10943 C 1001 -1.3389 -5.03709 0
M  V30 10944 C 998.333 -1.97758 -5.52366 0
M  V30 10945 C 1000.68 -2.4273 -5.84179 0
M  V30 10946 C 999.349 -2.75103 -6.08173 0
M  V30 10947 H 998.619 0.0895884 -0.735564 0
M  V30 10948 H 1001.27 -0.478975 -1.85413 0
M  V30 10949 H 999.571 1.40291 -3.65822 0
M  V30 10950 H 1001.27 1.07036 -3.86451 0
M  V30 10951 H 997.858 -0.303201 -4.27526 0
M  V30 10952 H 1002.04 -1.10632 -4.83812 0
M  V30 10953 H 997.298 -2.23257 -5.6918 0
M  V30 10954 H 1001.47 -3.03412 -6.26828 0
M  V30 10955 H 999.099 -3.60317 -6.69385 0
M  V30 10956 N 1000.67 1.57404 -0.0785433 0
M  V30 10957 C 1001.64 2.11977 0.871693 0
M  V30 10958 C 1002.64 1.04529 1.2219 0
M  V30 10959 O 1003.83 1.30488 1.15406 0
M  V30 10960 C 1000.96 2.6267 2.17296 0
M  V30 10961 H 1002.15 2.97246 0.398115 0
M  V30 10962 H 999.705 1.5537 0.170251 0
M  V30 10963 H 1000.44 1.80873 2.69175 0
M  V30 10964 H 1000.22 3.41214 1.93171 0
M  V30 10965 H 1001.71 3.04943 2.85306 0
M  V30 10966 N 1002.15 -0.195058 1.56388 0
M  V30 10967 C 1003.43 -0.941335 1.71459 0
M  V30 10968 C 1003.81 -2.01375 0.633336 0
M  V30 10969 O 1003.16 -2.25715 -0.35567 0
M  V30 10970 C 1003.37 -1.52772 3.13786 0
M  V30 10971 C 1004.71 -2.00983 3.7402 0
M  V30 10972 O 1005.74 -1.62614 3.16915 0
M  V30 10973 O 1004.6 -2.71586 4.7424 0
M  V30 10974 H 1001.69 -0.441451 0.699321 0
M  V30 10975 H 1004.24 -0.184752 1.68691 0
M  V30 10976 H 1003.01 -0.754699 3.83953 0
M  V30 10977 H 1002.63 -2.34914 3.20782 0
M  V30 10978 N 1003.63 -1.50653 -0.462772 0
M  V30 10979 C 1005.05 -1.38263 -0.797213 0
M  V30 10980 C 1005.25 -0.445172 -1.96521 0
M  V30 10981 O 1004.3 0.10913 -2.52264 0
M  V30 10982 C 1005.61 -2.798 -1.10146 0
M  V30 10983 C 1007.16 -2.88774 -1.20742 0
M  V30 10984 C 1007.64 -4.31163 -1.54476 0
M  V30 10985 N 1009.13 -4.34152 -1.61451 0
M  V30 10986 C 1009.86 -5.4133 -1.89074 0
M  V30 10987 N 1009.36 -6.58705 -2.1466 0
M  V30 10988 N 1011.15 -5.28783 -1.90645 0
M  V30 10989 H 1003.3 -2.10172 0.30684 0
M  V30 10990 H 1005.57 -0.945046 0.0747862 0
M  V30 10991 H 1005.27 -3.50276 -0.316207 0
M  V30 10992 H 1005.15 -3.17559 -2.03559 0
M  V30 10993 H 1007.53 -2.18512 -1.98334 0
M  V30 10994 H 1007.61 -2.54547 -0.252904 0
M  V30 10995 H 1007.26 -5.01965 -0.774207 0
M  V30 10996 H 1007.19 -4.62883 -2.51092 0
M  V30 10997 H 1009.68 -3.49519 -1.43684 0
M  V30 10998 H 1009.99 -7.36192 -2.35035 0
M  V30 10999 H 1008.34 -6.61866 -2.12035 0
M  V30 11000 H 1011.53 -4.36078 -1.70158 0
M  V30 11001 H 1011.7 -6.12396 -2.11836 0
M  V30 11002 N 1005.11 0.71652 -1.4037 0
M  V30 11003 C 1006.07 1.81231 -1.40313 0
M  V30 11004 C 1007.07 1.58032 -0.297087 0
M  V30 11005 O 1008.26 1.65091 -0.555944 0
M  V30 11006 C 1005.39 3.19308 -1.19395 0
M  V30 11007 H 1006.59 1.8268 -2.3784 0
M  V30 11008 H 1004.14 0.922062 -1.26205 0
M  V30 11009 H 1004.87 3.2351 -0.226252 0
M  V30 11010 H 1004.66 3.37546 -1.99512 0
M  V30 11011 H 1006.15 3.99339 -1.22141 0
M  V30 11012 N 1006.59 1.25851 0.948643 0
M  V30 11013 C 1007.52 1.09248 2.06367 0
M  V30 11014 C 1008.5 -0.000205168 1.701 0
M  V30 11015 O 1009.68 0.170442 1.93451 0
M  V30 11016 C 1006.81 0.716777 3.39823 0
M  V30 11017 C 1005.77 1.76036 3.90122 0
M  V30 11018 C 1005.09 1.23918 5.20143 0
M  V30 11019 C 1006.39 3.16039 4.15833 0
M  V30 11020 H 1008.09 2.02518 2.20515 0
M  V30 11021 H 1005.63 0.975093 1.05962 0
M  V30 11022 H 1007.59 0.587531 4.17284 0
M  V30 11023 H 1006.31 -0.251626 3.25629 0
M  V30 11024 H 1004.97 1.87815 3.14835 0
M  V30 11025 H 1004.62 0.260836 5.02323 0
M  V30 11026 H 1004.32 1.93673 5.54765 0
M  V30 11027 H 1005.84 1.12245 6.00194 0
M  V30 11028 H 1007.25 3.0738 4.83933 0
M  V30 11029 H 1005.65 3.83317 4.61723 0
M  V30 11030 H 1006.72 3.62652 3.21887 0
M  V30 11031 N 1008.06 -1.15214 1.07534 0
M  V30 11032 C 1009.31 -1.85388 0.794617 0
M  V30 11033 C 1009.63 -1.83331 -0.681838 0
M  V30 11034 O 1010.83 -2.49207 -1.0774 0
M  V30 11035 C 1009.29 -3.32747 1.37141 0
M  V30 11036 C 1008.9 -3.43244 2.87902 0
M  V30 11037 C 1010.64 -4.08093 1.16879 0
M  V30 11038 C 1008.55 -4.84762 3.38763 0
M  V30 11039 H 1007.48 -0.694499 0.293577 0
M  V30 11040 H 1010.13 -1.29944 1.29564 0
M  V30 11041 H 1008.51 -3.87874 0.798121 0
M  V30 11042 H 1009.68 -2.98214 3.51291 0
M  V30 11043 H 1008 -2.81345 3.06975 0
M  V30 11044 H 1010.6 -5.12535 1.52353 0
M  V30 11045 H 1010.94 -4.1616 0.107958 0
M  V30 11046 H 1011.47 -3.59241 1.70854 0
M  V30 11047 H 1008.21 -4.81879 4.4438 0
M  V30 11048 H 1007.73 -5.30366 2.80128 0
M  V30 11049 H 1009.41 -5.53624 3.34827 0
M  V30 11050 N 1009.54 -0.859717 -1.32086 0
M  V30 11051 C 1010.49 -0.296897 -2.30697 0
M  V30 11052 C 1011.48 0.582473 -1.59071 0
M  V30 11053 O 1012.69 0.469713 -1.73763 0
M  V30 11054 H 1009.07 -0.0773132 -0.748015 0
M  V30 11055 H 1011.04 -1.14273 -2.75652 0
M  V30 11056 C 1009.79 0.495546 -3.44151 0
M  V30 11057 H 1009.11 -0.171829 -3.99431 0
M  V30 11058 H 1010.55 0.854854 -4.15293 0
M  V30 11059 C 1009.01 1.68278 -2.91863 0
M  V30 11060 O 1009.54 2.78194 -2.89777 0
M  V30 11061 N 1007.74 1.51151 -2.48197 0
M  V30 11062 H 1007.29 0.617345 -2.50093 0
M  V30 11063 H 1007.25 2.3073 -2.13567 0
M  V30 11064 N 1011.02 1.44971 -0.618145 0
M  V30 11065 C 1012.25 2.07039 -0.122395 0
M  V30 11066 C 1012.67 1.45793 1.18853 0
M  V30 11067 O 1012.03 0.55453 1.72611 0
M  V30 11068 C 1012.08 3.60599 -0.0073864 0
M  V30 11069 O 1011.18 3.99069 1.04007 0
M  V30 11070 H 1010.52 0.6593 -0.0788615 0
M  V30 11071 H 1013.05 1.86055 -0.851147 0
M  V30 11072 H 1013.06 4.07569 0.187417 0
M  V30 11073 H 1011.74 4.04561 -0.964544 0
M  V30 11074 H 1010.31 3.63753 0.820879 0
M  V30 11075 N 1012.5 0.357919 1.53482 0
M  V30 11076 C 1013.43 -0.535553 2.21827 0
M  V30 11077 C 1014.41 -1.08904 1.20742 0
M  V30 11078 O 1015.59 -1.14661 1.49616 0
M  V30 11079 C 1012.72 -1.73817 2.90698 0
M  V30 11080 C 1011.77 -1.31283 4.05792 0
M  V30 11081 S 1012.6 -0.320548 5.3454 0
M  V30 11082 C 1013.76 -1.52967 6.0692 0
M  V30 11083 H 1013.99 0.0449045 2.97266 0
M  V30 11084 H 1011.52 0.142009 1.53746 0
M  V30 11085 H 1013.48 -2.42803 3.30994 0
M  V30 11086 H 1012.14 -2.28987 2.14998 0
M  V30 11087 H 1011.33 -2.20989 4.52968 0
M  V30 11088 H 1010.94 -0.702275 3.67347 0
M  V30 11089 H 1013.23 -2.46191 6.31186 0
M  V30 11090 H 1014.17 -1.09943 6.99513 0
M  V30 11091 H 1014.58 -1.73224 5.37265 0
M  V30 11092 N 1013.98 -1.5736 0.0868897 0
M  V30 11093 C 1015.25 -1.85495 -0.620561 0
M  V30 11094 C 1015.63 -0.982218 -1.86857 0
M  V30 11095 O 1014.98 -0.0524529 -2.2844 0
M  V30 11096 C 1015.19 -3.35996 -0.943798 0
M  V30 11097 C 1016.54 -4.03861 -1.31079 0
M  V30 11098 O 1017.56 -3.4083 -1.03507 0
M  V30 11099 O 1016.42 -5.15062 -1.82683 0
M  V30 11100 H 1013.52 -0.766822 -0.309697 0
M  V30 11101 H 1016.06 -1.69282 0.118966 0
M  V30 11102 H 1014.83 -3.91257 -0.0580628 0
M  V30 11103 H 1014.46 -3.57525 -1.73958 0
M  V30 11104 N 1015.45 0.186762 -1.56489 0
M  V30 11105 C 1016.39 1.25565 -1.91745 0
M  V30 11106 C 1017.4 1.4128 -0.80894 0
M  V30 11107 O 1018.59 1.41558 -1.08737 0
M  V30 11108 C 1015.69 2.62662 -2.14154 0
M  V30 11109 C 1014.86 2.68448 -3.45333 0
M  V30 11110 C 1013.92 3.86798 -3.56754 0
M  V30 11111 O 1012.95 3.73514 -4.29507 0
M  V30 11112 N 1014.15 5.02607 -2.90459 0
M  V30 11113 H 1016.91 0.956351 -2.84032 0
M  V30 11114 H 1014.47 0.376631 -1.57458 0
M  V30 11115 H 1016.47 3.40277 -2.19075 0
M  V30 11116 H 1015.04 2.85046 -1.28326 0
M  V30 11117 H 1014.26 1.77044 -3.52206 0
M  V30 11118 H 1015.54 2.69311 -4.31682 0
M  V30 11119 H 1014.94 5.163 -2.31194 0
M  V30 11120 H 1013.5 5.78139 -3.00996 0
M  V30 11121 N 1016.93 1.50896 0.454776 0
M  V30 11122 C 1017.88 1.71497 1.57136 0
M  V30 11123 C 1018.87 0.58098 1.59126 0
M  V30 11124 O 1020.08 0.761916 1.63079 0
M  V30 11125 H 1016.46 0.54158 0.521724 0
M  V30 11126 H 1018.43 2.65129 1.36928 0
M  V30 11127 C 1017.18 1.84125 2.94947 0
M  V30 11128 H 1016.5 2.7078 2.9414 0
M  V30 11129 H 1017.94 2.02558 3.72487 0
M  V30 11130 C 1016.4 0.596752 3.31573 0
M  V30 11131 O 1016.93 -0.256632 4.00879 0
M  V30 11132 N 1015.13 0.445958 2.87158 0
M  V30 11133 H 1014.68 1.14146 2.30929 0
M  V30 11134 H 1014.64 -0.385519 3.12027 0
M  V30 11135 N 1018.41 -0.709066 1.40748 0
M  V30 11136 C 1019.34 -1.83293 1.35937 0
M  V30 11137 C 1020.32 -1.60983 0.22871 0
M  V30 11138 O 1021.51 -1.8391 0.413435 0
M  V30 11139 C 1018.63 -3.19746 1.11714 0
M  V30 11140 C 1017.68 -3.60872 2.27319 0
M  V30 11141 S 1018.51 -3.67233 3.89743 0
M  V30 11142 C 1019.67 -5.06434 3.67797 0
M  V30 11143 H 1019.9 -1.87095 2.31047 0
M  V30 11144 H 1017.43 -0.876479 1.27111 0
M  V30 11145 H 1019.39 -3.98526 0.984245 0
M  V30 11146 H 1018.05 -3.1357 0.182472 0
M  V30 11147 H 1017.25 -4.59965 2.06029 0
M  V30 11148 H 1016.85 -2.89366 2.36946 0
M  V30 11149 H 1019.14 -5.93544 3.26668 0
M  V30 11150 H 1020.08 -5.32761 4.66445 0
M  V30 11151 H 1020.49 -4.77336 3.01348 0
M  V30 11152 N 1019.89 -1.26353 -0.941956 0
M  V30 11153 C 1021.14 -1.11851 -1.68806 0
M  V30 11154 C 1021.46 0.33829 -1.91535 0
M  V30 11155 O 1020.72 1.26495 -1.49324 0
M  V30 11156 C 1021.02 -1.83195 -3.06879 0
M  V30 11157 C 1020.68 -3.33093 -3.03908 0
M  V30 11158 C 1019.35 -3.73982 -3.02805 0
M  V30 11159 C 1021.7 -4.28803 -2.96273 0
M  V30 11160 C 1019.03 -5.08971 -2.91832 0
M  V30 11161 C 1021.38 -5.6383 -2.86842 0
M  V30 11162 C 1020.04 -6.04032 -2.84081 0
M  V30 11163 H 1019.31 -0.409293 -0.617706 0
M  V30 11164 H 1021.96 -1.56785 -1.09957 0
M  V30 11165 H 1020.26 -1.30728 -3.69347 0
M  V30 11166 H 1021.96 -1.69416 -3.63455 0
M  V30 11167 H 1018.55 -3.00566 -3.05546 0
M  V30 11168 H 1022.74 -3.98195 -2.96234 0
M  V30 11169 H 1017.99 -5.39282 -2.88072 0
M  V30 11170 H 1022.17 -6.37676 -2.79898 0
M  V30 11171 H 1019.79 -7.08586 -2.75335 0
M  V30 11172 N 1021.37 1.14642 -1.08144 0
M  V30 11173 C 1022.78 1.37604 -0.808537 0
M  V30 11174 C 1022.98 1.92868 0.583452 0
M  V30 11175 O 1022.04 2.13964 1.34073 0
M  V30 11176 C 1023.35 2.3396 -1.889 0
M  V30 11177 C 1024.9 2.47605 -1.9147 0
M  V30 11178 C 1025.38 3.47258 -2.98623 0
M  V30 11179 N 1026.87 3.548 -2.97777 0
M  V30 11180 C 1027.6 4.31751 -3.77331 0
M  V30 11181 N 1027.1 5.11966 -4.66757 0
M  V30 11182 N 1028.89 4.2692 -3.65645 0
M  V30 11183 H 1021.04 0.771154 -1.97906 0
M  V30 11184 H 1023.3 0.401694 -0.858688 0
M  V30 11185 H 1023.01 2.00484 -2.88962 0
M  V30 11186 H 1022.88 3.33833 -1.756 0
M  V30 11187 H 1025.27 2.80375 -0.920548 0
M  V30 11188 H 1025.35 1.47702 -2.08848 0
M  V30 11189 H 1025 3.15223 -3.98243 0
M  V30 11190 H 1024.93 4.46935 -2.7849 0
M  V30 11191 H 1027.42 2.97553 -2.3296 0
M  V30 11192 H 1027.73 5.67951 -5.24072 0
M  V30 11193 H 1026.08 5.11245 -4.70801 0
M  V30 11194 H 1029.27 3.63322 -2.95152 0
M  V30 11195 H 1029.44 4.8664 -4.27885 0
M  V30 11196 N 1022.85 0.866709 1.31628 0
M  V30 11197 C 1023.79 0.309128 2.30537 0
M  V30 11198 C 1024.79 -0.574028 1.59378 0
M  V30 11199 O 1025.99 -0.460491 1.7401 0
M  V30 11200 H 1022.37 0.081279 0.747595 0
M  V30 11201 H 1024.34 1.15734 2.75042 0
M  V30 11202 C 1023.09 -0.477287 3.44409 0
M  V30 11203 H 1022.41 0.19301 3.99334 0
M  V30 11204 H 1023.85 -0.832818 4.1574 0
M  V30 11205 C 1022.31 -1.66727 2.92752 0
M  V30 11206 O 1022.84 -2.76654 2.91248 0
M  V30 11207 N 1021.05 -1.49833 2.48995 0
M  V30 11208 H 1020.59 -0.604073 2.50417 0
M  V30 11209 H 1020.55 -2.29594 2.14788 0
M  V30 11210 N 1024.32 -1.44642 0.625825 0
M  V30 11211 C 1025.57 -2.02094 0.128201 0
M  V30 11212 C 1025.9 -1.49181 -1.24801 0
M  V30 11213 O 1025.15 -0.663965 -1.84092 0
M  V30 11214 C 1025.45 -3.57352 0.0584381 0
M  V30 11215 C 1025.12 -4.29496 1.37272 0
M  V30 11216 C 1023.78 -4.48922 1.7327 0
M  V30 11217 C 1026.13 -4.70586 2.2405 0
M  V30 11218 C 1023.46 -5.06697 2.95762 0
M  V30 11219 C 1025.81 -5.29717 3.45807 0
M  V30 11220 C 1024.48 -5.47363 3.82034 0
M  V30 11221 H 1023.75 -0.739514 0.0469122 0
M  V30 11222 H 1026.39 -1.73475 0.811083 0
M  V30 11223 H 1024.7 -3.85354 -0.707791 0
M  V30 11224 H 1026.4 -3.9953 -0.34303 0
M  V30 11225 H 1022.99 -4.14702 1.08258 0
M  V30 11226 H 1027.17 -4.55295 1.97535 0
M  V30 11227 H 1022.43 -5.18546 3.23913 0
M  V30 11228 H 1026.6 -5.60507 4.13286 0
M  V30 11229 H 1024.23 -5.91898 4.77033 0
M  V30 11230 N 1025.8 -0.366053 -1.5329 0
M  V30 11231 C 1027.03 0.226839 -2.06156 0
M  V30 11232 C 1027.45 1.41637 -1.23776 0
M  V30 11233 O 1026.81 1.7947 -0.256948 0
M  V30 11234 C 1026.86 0.597956 -3.55608 0
M  V30 11235 O 1025.96 1.69512 -3.75951 0
M  V30 11236 H 1025.3 0.0329156 -0.663184 0
M  V30 11237 H 1027.83 -0.526793 -1.97702 0
M  V30 11238 H 1027.84 0.868831 -3.98642 0
M  V30 11239 H 1026.52 -0.271838 -4.15011 0
M  V30 11240 H 1025.09 1.41976 -3.44815 0
M  V30 11241 N 1027.28 1.57312 -0.0952337 0
M  V30 11242 C 1028.53 1.94358 0.568442 0
M  V30 11243 C 1028.85 0.97698 1.68182 0
M  V30 11244 O 1028.11 -0.00340398 1.957 0
M  V30 11245 C 1028.41 3.37937 1.16332 0
M  V30 11246 C 1028.07 4.50565 0.173715 0
M  V30 11247 C 1026.74 4.81099 -0.0984673 0
M  V30 11248 C 1029.09 5.18777 -0.501992 0
M  V30 11249 C 1026.42 5.77172 -1.05305 0
M  V30 11250 C 1028.77 6.15874 -1.44505 0
M  V30 11251 C 1027.43 6.44813 -1.72546 0
M  V30 11252 H 1026.7 0.711206 0.208007 0
M  V30 11253 H 1029.35 1.90734 -0.171096 0
M  V30 11254 H 1027.65 3.3814 1.97911 0
M  V30 11255 H 1029.35 3.63902 1.68453 0
M  V30 11256 H 1025.94 4.26766 0.396042 0
M  V30 11257 H 1030.13 4.95363 -0.304855 0
M  V30 11258 H 1025.38 5.97909 -1.2773 0
M  V30 11259 H 1029.56 6.67824 -1.97444 0
M  V30 11260 H 1027.18 7.19067 -2.46671 0
M  V30 11261 N 1028.76 -0.17846 1.56586 0
M  V30 11262 C 1029.69 -1.2496 1.90946 0
M  V30 11263 C 1030.67 -1.43136 0.771424 0
M  V30 11264 O 1031.85 -1.58258 1.02405 0
M  V30 11265 C 1028.98 -2.61368 2.15417 0
M  V30 11266 C 1028.03 -2.59969 3.3811 0
M  V30 11267 S 1028.86 -2.09756 4.9271 0
M  V30 11268 C 1030.01 -3.47956 5.20267 0
M  V30 11269 H 1030.25 -0.956287 2.815 0
M  V30 11270 H 1027.78 -0.382709 1.49582 0
M  V30 11271 H 1029.74 -3.39882 2.30197 0
M  V30 11272 H 1028.4 -2.87903 1.25582 0
M  V30 11273 H 1027.59 -3.60309 3.52411 0
M  V30 11274 H 1027.19 -1.89547 3.2241 0
M  V30 11275 H 1029.49 -4.43914 5.11807 0
M  V30 11276 H 1030.43 -3.38536 6.21932 0
M  V30 11277 H 1030.84 -3.43637 4.47855 0
M  V30 11278 N 1030.24 -1.51135 -0.446768 0
M  V30 11279 C 1031.18 -1.72328 -1.56224 0
M  V30 11280 C 1032.18 -0.589411 -1.58815 0
M  V30 11281 O 1033.38 -0.770554 -1.62673 0
M  V30 11282 H 1029.76 -0.544339 -0.518844 0
M  V30 11283 H 1031.73 -2.65851 -1.3552 0
M  V30 11284 C 1030.48 -1.85686 -2.93966 0
M  V30 11285 H 1029.8 -2.72336 -2.927 0
M  V30 11286 H 1031.24 -2.0453 -3.71407 0
M  V30 11287 C 1029.7 -0.614328 -3.31252 0
M  V30 11288 O 1030.23 0.235369 -4.0101 0
M  V30 11289 N 1028.44 -0.461181 -2.86917 0
M  V30 11290 H 1027.98 -1.15369 -2.30321 0
M  V30 11291 H 1027.94 0.368966 -3.12227 0
M  V30 11292 N 1031.71 0.701592 -1.41122 0
M  V30 11293 C 1033.12 1.28129 -1.35793 0
M  V30 11294 C 1033.48 1.96163 -0.0381185 0
M  V30 11295 O 1032.6 1.98416 0.863723 0
M  V30 11296 C 1033.2 2.33005 -2.45955 0
M  V30 11297 C 1031.75 2.86566 -2.44043 0
M  V30 11298 C 1030.9 1.60526 -2.26112 0
M  V30 11299 H 1033.85 0.496756 -1.50725 0
M  V30 11300 H 1033.87 3.14163 -2.14667 0
M  V30 11301 H 1033.39 1.8346 -3.42 0
M  V30 11302 H 1031.49 3.40304 -1.51737 0
M  V30 11303 H 1031.6 3.37406 -3.40138 0
M  V30 11304 H 1029.96 1.86113 -1.7388 0
M  V30 11305 H 1030.75 1.12985 -3.24175 0
M  V30 11306 N 1033.19 1.2685 0.935242 0
M  V30 11307 C 1034.44 1.12522 1.67878 0
M  V30 11308 C 1034.76 -0.330894 1.92172 0
M  V30 11309 O 1034.03 -1.23259 1.52263 0
M  V30 11310 H 1032.61 0.413418 0.622169 0
M  V30 11311 H 1035.27 1.59267 1.12339 0
M  V30 11312 H 1034.37 1.64853 2.65009 0
M  V30 11313 N 1034.67 -1.14067 1.0875 0
M  V30 11314 C 1035.6 -2.18306 0.664652 0
M  V30 11315 C 1036.58 -1.59312 -0.325359 0
M  V30 11316 O 1037.77 -1.87111 -0.228385 0
M  V30 11317 C 1034.89 -3.38693 -0.0218723 0
M  V30 11318 C 1033.94 -4.16263 0.928844 0
M  V30 11319 S 1034.77 -4.76817 2.43734 0
M  V30 11320 C 1035.93 -6.00557 1.76302 0
M  V30 11321 H 1036.16 -2.53837 1.54772 0
M  V30 11322 H 1033.69 -1.25254 0.902817 0
M  V30 11323 H 1035.65 -4.0843 -0.411686 0
M  V30 11324 H 1034.31 -3.01478 -0.881481 0
M  V30 11325 H 1033.51 -5.02446 0.395446 0
M  V30 11326 H 1033.11 -3.52146 1.25972 0
M  V30 11327 H 1035.4 -6.68788 1.08301 0
M  V30 11328 H 1036.34 -6.58492 2.60373 0
M  V30 11329 H 1036.75 -5.50827 1.23489 0
M  V30 11330 N 1036.15 -0.873678 -1.31166 0
M  V30 11331 C 1037.06 -0.335726 -2.32185 0
M  V30 11332 C 1038.07 0.556259 -1.64869 0
M  V30 11333 O 1039.25 0.452087 -1.9626 0
M  V30 11334 C 1036.32 0.450822 -3.43756 0
M  V30 11335 C 1035.38 -0.469565 -4.26724 0
M  V30 11336 C 1034.61 0.279538 -5.32967 0
M  V30 11337 O 1034.83 1.50715 -5.50128 0
M  V30 11338 O 1033.77 -0.36452 -6.00795 0
M  V30 11339 H 1037.59 -1.17314 -2.80127 0
M  V30 11340 H 1035.18 -0.637163 -1.35132 0
M  V30 11341 H 1037.06 0.896582 -4.11752 0
M  V30 11342 H 1035.73 1.26472 -2.9797 0
M  V30 11343 H 1034.64 -0.963902 -3.61469 0
M  V30 11344 H 1035.97 -1.24916 -4.76085 0
M  V30 11345 N 1037.63 1.44308 -0.633487 0
M  V30 11346 C 1039.04 1.56768 -0.29931 0
M  V30 11347 C 1039.24 1.62061 1.19743 0
M  V30 11348 O 1038.3 1.56492 1.98158 0
M  V30 11349 C 1039.61 2.8382 -0.993307 0
M  V30 11350 C 1041.16 2.97536 -0.971674 0
M  V30 11351 C 1041.63 4.27393 -1.64618 0
M  V30 11352 N 1043.13 4.34212 -1.61288 0
M  V30 11353 C 1043.86 5.33415 -2.1037 0
M  V30 11354 N 1043.36 6.3901 -2.67653 0
M  V30 11355 N 1045.15 5.24939 -2.00985 0
M  V30 11356 H 1037.3 1.39115 -1.60501 0
M  V30 11357 H 1039.56 0.666804 -0.673852 0
M  V30 11358 H 1039.27 2.85902 -2.04823 0
M  V30 11359 H 1039.14 3.73422 -0.532537 0
M  V30 11360 H 1041.53 2.95005 0.0747854 0
M  V30 11361 H 1041.61 2.09276 -1.47096 0
M  V30 11362 H 1041.26 4.30683 -2.6921 0
M  V30 11363 H 1041.19 5.14515 -1.12171 0
M  V30 11364 H 1043.68 3.58519 -1.19468 0
M  V30 11365 H 1043.99 7.10994 -3.02831 0
M  V30 11366 H 1042.33 6.39689 -2.71705 0
M  V30 11367 H 1045.53 4.41357 -1.55953 0
M  V30 11368 H 1045.7 6.02097 -2.39547 0
M  V30 11369 N 1039.1 0.374177 1.53094 0
M  V30 11370 C 1040.03 -0.459976 2.28925 0
M  V30 11371 C 1041.02 -1.07656 1.31698 0
M  V30 11372 O 1042.2 -1.09219 1.60577 0
M  V30 11373 C 1039.33 -1.5954 3.08487 0
M  V30 11374 C 1038.28 -1.10563 4.13473 0
M  V30 11375 C 1037.61 -2.33196 4.81169 0
M  V30 11376 C 1038.91 -0.184275 5.21975 0
M  V30 11377 H 1040.6 0.172692 2.98902 0
M  V30 11378 H 1038.15 0.0844956 1.43752 0
M  V30 11379 H 1040.1 -2.18565 3.60288 0
M  V30 11380 H 1038.83 -2.25543 2.36216 0
M  V30 11381 H 1037.49 -0.53801 3.62631 0
M  V30 11382 H 1037.13 -2.97675 4.05461 0
M  V30 11383 H 1036.83 -2.01094 5.52119 0
M  V30 11384 H 1038.36 -2.92892 5.35767 0
M  V30 11385 H 1039.77 -0.682262 5.69226 0
M  V30 11386 H 1038.17 0.0462746 6.00082 0
M  V30 11387 H 1039.24 0.771152 4.78729 0
M  V30 11388 N 1040.58 -1.57259 0.103575 0
M  V30 11389 C 1041.83 -1.93832 -0.55786 0
M  V30 11390 C 1042.14 -0.988087 -1.68808 0
M  V30 11391 O 1043.35 -1.24786 -2.41124 0
M  V30 11392 C 1041.81 -3.44433 -1.04373 0
M  V30 11393 C 1041.41 -4.47963 0.0571971 0
M  V30 11394 C 1043.16 -3.89953 -1.67742 0
M  V30 11395 C 1041.07 -5.89727 -0.444505 0
M  V30 11396 H 1040 -0.723536 -0.212161 0
M  V30 11397 H 1042.65 -1.82606 0.180944 0
M  V30 11398 H 1041.03 -3.50841 -1.83648 0
M  V30 11399 H 1042.2 -4.53209 0.83298 0
M  V30 11400 H 1040.52 -4.12104 0.596588 0
M  V30 11401 H 1043.11 -4.93272 -2.06365 0
M  V30 11402 H 1043.46 -3.2907 -2.54988 0
M  V30 11403 H 1043.99 -3.86281 -0.950342 0
M  V30 11404 H 1040.73 -6.5433 0.391543 0
M  V30 11405 H 1040.25 -5.87935 -1.18711 0
M  V30 11406 H 1041.93 -6.40558 -0.910739 0
M  V30 11407 N 1042.06 0.170153 -1.56679 0
M  V30 11408 C 1043.29 0.90618 -1.86556 0
M  V30 11409 C 1043.71 1.74986 -0.690044 0
M  V30 11410 O 1043.07 1.77672 0.360862 0
M  V30 11411 C 1043.12 1.75777 -3.14857 0
M  V30 11412 O 1042.22 2.85952 -2.97162 0
M  V30 11413 H 1041.56 0.253781 -0.613589 0
M  V30 11414 H 1044.09 0.167943 -2.0391 0
M  V30 11415 H 1044.1 2.15747 -3.46291 0
M  V30 11416 H 1042.78 1.13807 -4.00026 0
M  V30 11417 H 1041.35 2.49557 -2.77084 0
M  V30 11418 O 1043.58 1.58396 0.315119 0
M  V30 11419 H 1044.27 1.6806 0.963095 0
M  V30 END ATOM
M  V30 BEGIN BOND
M  V30 END BOND
M  V30 END CTAB
M  END
$$$$
