drugbank_target|P00497 Amidophosphoribosyltransferase (DB01972)
 OpenBabel12092119533D

  0  0  0     0  0            999 V3000
M  V30 BEGIN CTAB
M  V30 COUNTS 7242 7300 0 0 0
M  V30 BEGIN ATOM
M  V30 1 H -0.908 1.98254 -0.117106 0
M  V30 2 N 0 1.576 0 0
M  V30 3 C 0.933 2.03868 1.02534 0
M  V30 4 C 1.911 0.928543 1.3348 0
M  V30 5 O 3.095 1.19667 1.45644 0
M  V30 6 C 0.222 2.43627 2.35294 0
M  V30 7 C -0.732 3.65373 2.2001 0
M  V30 8 S 0.101 5.13292 1.52614 0
M  V30 9 C 1.257 5.56322 2.86805 0
M  V30 10 H 1.49 2.90518 0.631377 0
M  V30 11 H -0.977 1.52953 0.210867 0
M  V30 12 H 0.981 2.67203 3.11629 0
M  V30 13 H -0.358 1.57376 2.7183 0
M  V30 14 H -1.165 3.90944 3.18086 0
M  V30 15 H -1.563 3.418 1.51819 0
M  V30 16 H 0.729 5.58782 3.83104 0
M  V30 17 H 1.672 6.56266 2.65933 0
M  V30 18 H 2.08 4.83886 2.90714 0
M  V30 19 N 1.4781 -0.272755 1.55222 0
M  V30 20 C 2.4081 -1.34136 1.91127 0
M  V30 21 C 3.3891 -1.51513 0.773168 0
M  V30 22 O 4.5741 -1.64552 1.03132 0
M  V30 23 C 1.7041 -2.70083 2.1834 0
M  V30 24 C 0.6581 -2.67437 3.34158 0
M  V30 25 C -0.0159 -4.06938 3.46851 0
M  V30 26 C 1.2841 -2.26686 4.70543 0
M  V30 27 H 2.9781 -1.04333 2.80633 0
M  V30 28 H 0.5241 -0.500454 1.35024 0
M  V30 29 H 2.4771 -3.44952 2.42046 0
M  V30 30 H 1.2011 -3.01469 1.25634 0
M  V30 31 H -0.1399 -1.95026 3.1042 0
M  V30 32 H -0.4919 -4.35547 2.51611 0
M  V30 33 H -0.7919 -4.06062 4.2472 0
M  V30 34 H 0.7321 -4.83545 3.72849 0
M  V30 35 H 2.1461 -2.91277 4.93792 0
M  V30 36 H 0.5431 -2.36971 5.5133 0
M  V30 37 H 1.6131 -1.21818 4.69349 0
M  V30 38 N 2.9562 -1.48159 -0.537278 0
M  V30 39 C 3.9192 -1.61665 -1.62472 0
M  V30 40 C 4.9192 -0.490395 -1.5314 0
M  V30 41 O 6.1092 -0.755998 -1.5694 0
M  V30 42 C 3.2412 -1.57997 -3.02076 0
M  V30 43 H 4.4342 -2.58621 -1.51839 0
M  V30 44 H 1.9872 -1.36647 -0.758771 0
M  V30 45 H 2.7222 -0.624913 -3.18222 0
M  V30 46 H 2.5072 -2.39755 -3.10258 0
M  V30 47 H 3.9972 -1.70627 -3.81151 0
M  V30 48 N 4.4343 0.785586 -1.36625 0
M  V30 49 C 5.3443 1.92964 -1.33425 0
M  V30 50 C 6.3603 1.72394 -0.235851 0
M  V30 51 O 7.5363 1.95866 -0.468878 0
M  V30 52 C 4.6013 3.27884 -1.12662 0
M  V30 53 C 3.6623 3.61204 -2.32013 0
M  V30 54 C 2.8953 4.89687 -2.12231 0
M  V30 55 O 3.1183 5.59704 -1.09945 0
M  V30 56 O 2.0523 5.21752 -3.00098 0
M  V30 57 H 5.8783 1.98613 -2.29753 0
M  V30 58 H 3.4633 0.926384 -1.17211 0
M  V30 59 H 5.3453 4.08614 -1.03016 0
M  V30 60 H 4.0203 3.23118 -0.193991 0
M  V30 61 H 2.9273 2.80765 -2.47228 0
M  V30 62 H 4.2603 3.70698 -3.23796 0
M  V30 63 N 5.9124 1.20967 1.01018 0
M  V30 64 C 7.1614 1.01796 1.74128 0
M  V30 65 C 7.4744 -0.449691 1.90361 0
M  V30 66 O 8.6804 -0.76068 2.60626 0
M  V30 67 C 7.1364 1.7727 3.13215 0
M  V30 68 C 6.7444 3.28171 3.04972 0
M  V30 69 C 8.4884 1.66489 3.90489 0
M  V30 70 C 6.3954 3.96156 4.39107 0
M  V30 71 H 5.3254 0.377276 0.652824 0
M  V30 72 H 7.9764 1.44651 1.12909 0
M  V30 73 H 6.3584 1.27205 3.75013 0
M  V30 74 H 7.5324 3.85499 2.52443 0
M  V30 75 H 5.8474 3.39437 2.41188 0
M  V30 76 H 8.4444 2.14617 4.89738 0
M  V30 77 H 8.7874 0.6222 4.11624 0
M  V30 78 H 9.3204 2.14003 3.35332 0
M  V30 79 H 6.0594 5.00604 4.23174 0
M  V30 80 H 5.5794 3.43617 4.91617 0
M  V30 81 H 7.2584 4.00774 5.07926 0
M  V30 82 N 7.3905 -1.2043 1.01659 0
M  V30 83 C 8.3375 -2.23215 0.586822 0
M  V30 84 C 9.3075 -1.61382 -0.393085 0
M  V30 85 O 10.4925 -1.88544 -0.292525 0
M  V30 86 C 7.6325 -3.45032 -0.0687464 0
M  V30 87 C 6.7455 -4.21296 0.955724 0
M  V30 88 C 5.8805 -5.30507 0.271208 0
M  V30 89 C 4.9195 -5.98515 1.28244 0
M  V30 90 N 4.0565 -6.99316 0.62459 0
M  V30 91 H 8.8965 -2.59336 1.46796 0
M  V30 92 H 6.4335 -1.27431 0.734836 0
M  V30 93 H 8.3915 -4.1459 -0.465965 0
M  V30 94 H 7.0215 -3.09604 -0.913529 0
M  V30 95 H 6.0735 -3.50803 1.4711 0
M  V30 96 H 7.3855 -4.6803 1.72479 0
M  V30 97 H 6.5395 -6.06428 -0.18151 0
M  V30 98 H 5.2785 -4.8481 -0.530163 0
M  V30 99 H 4.2835 -5.21355 1.74554 0
M  V30 100 H 5.5085 -6.46298 2.08509 0
M  V30 101 H 3.4545 -6.55812 -0.156914 0
M  V30 102 H 3.3715 -7.44178 1.33172 0
M  V30 103 H 4.6395 -7.79255 0.195462 0
M  V30 104 N 8.8686 -0.792821 -1.36206 0
M  V30 105 C 10.1166 -0.366062 -1.98757 0
M  V30 106 C 10.4376 1.0668 -1.63231 0
M  V30 107 O 9.7076 1.73587 -0.907978 0
M  V30 108 H 8.2876 -0.132364 -0.735179 0
M  V30 109 H 10.9496 -1.01562 -1.66347 0
M  V30 110 H 10.0456 -0.460638 -3.08682 0
M  V30 111 N 10.3467 1.47872 -0.545128 0
M  V30 112 C 11.2767 2.32661 0.197793 0
M  V30 113 C 12.2577 1.43041 0.920504 0
M  V30 114 O 13.4427 1.71912 0.90333 0
M  V30 115 C 10.5727 3.24569 1.23582 0
M  V30 116 C 9.5267 4.23333 0.630323 0
M  V30 117 C 8.8527 5.0448 1.77211 0
M  V30 118 C 10.1527 5.20704 -0.407974 0
M  V30 119 H 11.8467 2.95024 -0.510045 0
M  V30 120 H 9.3927 1.4187 -0.246731 0
M  V30 121 H 11.3457 3.8272 1.76362 0
M  V30 122 H 10.0697 2.60236 1.97344 0
M  V30 123 H 8.7287 3.6639 0.123922 0
M  V30 124 H 8.3767 4.36561 2.49847 0
M  V30 125 H 8.0767 5.71339 1.37281 0
M  V30 126 H 9.6007 5.65487 2.3034 0
M  V30 127 H 11.0147 5.7329 0.033305 0
M  V30 128 H 9.4117 5.95699 -0.725486 0
M  V30 129 H 10.4817 4.66917 -1.30828 0
M  V30 130 N 11.8248 0.280983 1.55075 0
M  V30 131 C 12.7728 -0.619864 2.24188 0
M  V30 132 C 13.7668 -1.15315 1.24092 0
M  V30 133 O 14.9728 -1.1061 1.42005 0
M  V30 134 H 11.3478 -0.218459 0.719569 0
M  V30 135 H 13.3188 -0.0141831 2.98397 0
M  V30 136 C 12.0678 -1.7899 2.98091 0
M  V30 137 H 11.3908 -1.38874 3.74905 0
M  V30 138 H 12.8308 -2.39672 3.49762 0
M  V30 139 C 11.2898 -2.68192 2.03899 0
M  V30 140 O 11.8198 -3.6872 1.594 0
M  V30 141 N 10.0258 -2.35488 1.70275 0
M  V30 142 H 9.5728 -1.53787 2.06658 0
M  V30 143 H 9.5308 -2.95442 1.07524 0
M  V30 144 N 13.3029 -1.57598 0.00835791 0
M  V30 145 C 14.2129 -2.12385 -0.996487 0
M  V30 146 C 15.2289 -1.07108 -1.37127 0
M  V30 147 O 16.4049 -1.39055 -1.4569 0
M  V30 148 C 13.4699 -2.62314 -2.26699 0
M  V30 149 C 12.5309 -3.82225 -1.95456 0
M  V30 150 C 11.7639 -4.29763 -3.16449 0
M  V30 151 O 11.9869 -3.76584 -4.28416 0
M  V30 152 O 10.9209 -5.21832 -2.99958 0
M  V30 153 H 14.7469 -2.98479 -0.560725 0
M  V30 154 H 12.3319 -1.47903 -0.210987 0
M  V30 155 H 14.2139 -2.94589 -3.01322 0
M  V30 156 H 12.8889 -1.79313 -2.69497 0
M  V30 157 H 11.7959 -3.54909 -1.18282 0
M  V30 158 H 13.1289 -4.66324 -1.57489 0
M  V30 159 N 14.781 0.264519 -1.55364 0
M  V30 160 C 15.691 1.34902 -1.91934 0
M  V30 161 C 16.707 1.53595 -0.817593 0
M  V30 162 O 17.883 1.67558 -1.11742 0
M  V30 163 C 14.948 2.68676 -2.19121 0
M  V30 164 C 14.009 2.58657 -3.4263 0
M  V30 165 C 13.242 3.86051 -3.68511 0
M  V30 166 O 13.465 4.87126 -2.96757 0
M  V30 167 O 12.399 3.85744 -4.62045 0
M  V30 168 H 16.225 1.06883 -2.8427 0
M  V30 169 H 13.81 0.463775 -1.42019 0
M  V30 170 H 15.692 3.47759 -2.37995 0
M  V30 171 H 14.367 2.96463 -1.29966 0
M  V30 172 H 13.274 1.7792 -3.29082 0
M  V30 173 H 14.607 2.35818 -4.32031 0
M  V30 174 N 16.2591 1.48442 0.529413 0
M  V30 175 C 17.4991 1.58086 1.29569 0
M  V30 176 C 17.8631 0.249302 1.90375 0
M  V30 177 O 19.0641 0.220738 2.67892 0
M  V30 178 C 17.3351 2.68793 2.35552 0
M  V30 179 S 18.8941 2.98207 3.21898 0
M  V30 180 H 15.7121 0.557922 0.440732 0
M  V30 181 H 18.3141 1.85966 0.603059 0
M  V30 182 H 17.0181 3.64102 1.89363 0
M  V30 183 H 16.5491 2.42817 3.09522 0
M  V30 184 H 18.5641 2.37548 4.35644 0
M  V30 185 N 17.7372 -0.778329 1.37039 0
M  V30 186 C 18.9852 -1.53361 1.31623 0
M  V30 187 C 19.3062 -1.94739 -0.100831 0
M  V30 188 O 18.5762 -1.65797 -1.04347 0
M  V30 189 H 17.1562 -0.568794 0.484234 0
M  V30 190 H 19.8182 -0.926742 1.71457 0
M  V30 191 H 18.9142 -2.43606 1.95096 0
M  V30 192 N 19.2153 -1.21501 -1.00376 0
M  V30 193 C 20.4613 -1.03452 -1.74429 0
M  V30 194 C 20.7943 0.430764 -1.89362 0
M  V30 195 O 20.0693 1.31962 -1.42886 0
M  V30 196 C 20.3523 -1.73375 -3.15615 0
M  V30 197 C 20.2053 -3.27431 -3.08397 0
M  V30 198 C 21.5243 -1.47732 -4.14564 0
M  V30 199 H 18.6433 -0.377226 -0.633143 0
M  V30 200 H 21.2853 -1.49693 -1.17013 0
M  V30 201 H 19.4353 -1.34064 -3.64636 0
M  V30 202 H 21.1073 -3.76119 -2.67081 0
M  V30 203 H 19.3503 -3.5767 -2.45468 0
M  V30 204 H 20.0213 -3.71524 -4.08258 0
M  V30 205 H 22.4973 -1.8186 -3.74254 0
M  V30 206 H 21.3733 -1.99169 -5.11491 0
M  V30 207 H 21.6343 -0.407589 -4.40217 0
M  V30 208 N 20.6934 1.19889 -1.02296 0
M  V30 209 C 21.9404 1.8942 -0.715972 0
M  V30 210 C 22.2684 1.79251 0.754944 0
M  V30 211 O 21.5234 1.17526 1.56481 0
M  V30 212 C 21.8224 3.39883 -1.10518 0
M  V30 213 C 21.4884 3.70254 -2.57337 0
M  V30 214 C 20.1504 3.78254 -2.97452 0
M  V30 215 C 22.5024 3.84052 -3.52354 0
M  V30 216 C 19.8304 3.97514 -4.31509 0
M  V30 217 C 22.1824 4.04824 -4.86108 0
M  V30 218 C 20.8464 4.11054 -5.25919 0
M  V30 219 H 20.1164 0.693138 -0.261993 0
M  V30 220 H 22.7634 1.42012 -1.28472 0
M  V30 221 H 21.0684 3.8915 -0.454953 0
M  V30 222 H 22.7654 3.9199 -0.845261 0
M  V30 223 H 19.3554 3.64632 -2.25258 0
M  V30 224 H 23.5394 3.77221 -3.22518 0
M  V30 225 H 18.7954 4.00574 -4.61898 0
M  V30 226 H 22.9694 4.14442 -5.59653 0
M  V30 227 H 20.5964 4.2573 -6.29808 0
M  V30 228 N 22.1715 0.800033 1.35784 0
M  V30 229 C 23.4195 0.376597 1.9856 0
M  V30 230 C 23.7405 -1.05812 1.63795 0
M  V30 231 O 23.0105 -1.73103 0.917171 0
M  V30 232 H 21.5905 0.136261 0.734467 0
M  V30 233 H 24.2525 1.02442 1.65806 0
M  V30 234 H 23.3485 0.477002 3.08433 0
M  V30 235 N 23.6496 -1.47581 0.552962 0
M  V30 236 C 24.8986 -2.01684 0.0251995 0
M  V30 237 C 25.2116 -1.43317 -1.33115 0
M  V30 238 O 26.4176 -1.89057 -1.94858 0
M  V30 239 C 24.8736 -3.599 -0.00542052 0
M  V30 240 C 24.4816 -4.27257 1.34742 0
M  V30 241 C 26.2256 -4.21768 -0.4808 0
M  V30 242 C 24.1326 -5.77467 1.27614 0
M  V30 243 H 23.0626 -0.753979 0.00565033 0
M  V30 244 H 25.7136 -1.69616 0.70018 0
M  V30 245 H 24.0956 -3.88911 -0.745961 0
M  V30 246 H 25.2696 -4.09893 2.10534 0
M  V30 247 H 23.5846 -3.77358 1.76039 0
M  V30 248 H 26.1816 -5.31838 -0.55246 0
M  V30 249 H 26.5246 -3.88651 -1.49184 0
M  V30 250 H 27.0576 -3.97273 0.204752 0
M  V30 251 H 23.7966 -6.15196 2.26304 0
M  V30 252 H 23.3166 -5.9718 0.55996 0
M  V30 253 H 24.9956 -6.3959 0.976421 0
M  V30 254 N 25.1277 -0.289203 -1.54924 0
M  V30 255 C 26.3737 0.316922 -2.00916 0
M  V30 256 C 26.7287 1.52424 -1.17408 0
M  V30 257 O 26.0217 1.90097 -0.239536 0
M  V30 258 C 26.2157 0.736119 -3.49737 0
M  V30 259 C 26.0447 -0.429036 -4.47649 0
M  V30 260 C 24.8147 -0.917311 -4.96904 0
M  V30 261 C 27.0127 -1.27016 -4.98369 0
M  V30 262 N 24.9947 -2.05046 -5.78644 0
M  V30 263 C 26.3657 -2.25097 -5.77695 0
M  V30 264 C 28.4207 -1.30188 -4.80578 0
M  V30 265 C 27.1237 -3.26114 -6.41126 0
M  V30 266 C 29.1497 -2.30057 -5.44819 0
M  V30 267 C 28.5117 -3.2687 -6.23968 0
M  V30 268 H 24.6107 0.0807535 -0.777819 0
M  V30 269 H 27.1947 -0.416434 -1.90194 0
M  V30 270 H 25.3657 1.43867 -3.60773 0
M  V30 271 H 27.0977 1.32078 -3.82541 0
M  V30 272 H 23.8527 -0.494248 -4.71014 0
M  V30 273 H 24.2767 -2.62108 -6.24202 0
M  V30 274 H 28.9187 -0.567163 -4.18979 0
M  V30 275 H 26.6367 -4.00512 -7.01866 0
M  V30 276 H 30.2227 -2.33271 -5.32988 0
M  V30 277 H 29.1027 -4.02883 -6.72796 0
M  V30 278 N 26.6058 1.57591 -0.0167156 0
M  V30 279 C 27.8538 1.90906 0.663285 0
M  V30 280 C 28.1748 0.892509 1.73376 0
M  V30 281 O 27.4448 -0.0677623 1.95783 0
M  V30 282 H 26.0248 0.704637 0.247983 0
M  V30 283 H 28.6868 1.94803 -0.0615909 0
M  V30 284 H 27.7828 2.9116 1.12393 0
M  V30 285 N 28.0839 -0.256276 1.55502 0
M  V30 286 C 29.0339 -1.31981 1.85916 0
M  V30 287 C 30.0179 -1.43927 0.719296 0
M  V30 288 O 31.2099 -1.47326 0.981019 0
M  V30 289 C 28.3389 -2.67703 2.14918 0
M  V30 290 C 27.4249 -2.59801 3.35208 0
M  V30 291 N 27.8159 -2.21524 4.54709 0
M  V30 292 C 26.1139 -2.90832 3.38131 0
M  V30 293 C 26.8149 -2.24024 5.36832 0
M  V30 294 N 25.7909 -2.63158 4.75656 0
M  V30 295 H 29.5929 -1.01423 2.75845 0
M  V30 296 H 27.1069 -0.464911 1.55603 0
M  V30 297 H 29.1039 -3.44445 2.34869 0
M  V30 298 H 27.7639 -2.99137 1.26282 0
M  V30 299 H 28.7749 -1.93223 4.80505 0
M  V30 300 H 25.4519 -3.26867 2.59739 0
M  V30 301 H 26.8419 -1.9685 6.42417 0
M  V30 302 N 29.562 -1.4872 -0.521534 0
M  V30 303 C 30.472 -1.66569 -1.65203 0
M  V30 304 C 31.488 -0.548197 -1.65139 0
M  V30 305 O 32.664 -0.820339 -1.83936 0
M  V30 306 C 29.729 -1.70917 -3.01642 0
M  V30 307 C 28.79 -2.94356 -3.12495 0
M  V30 308 C 28.023 -2.98487 -4.42426 0
M  V30 309 O 28.246 -2.10786 -5.30024 0
M  V30 310 O 27.18 -3.90746 -4.57822 0
M  V30 311 H 31.006 -2.62298 -1.5308 0
M  V30 312 H 28.591 -1.3222 -0.695565 0
M  V30 313 H 30.473 -1.7625 -3.82771 0
M  V30 314 H 29.148 -0.783633 -3.14071 0
M  V30 315 H 28.055 -2.94552 -2.3063 0
M  V30 316 H 29.388 -3.86322 -3.04986 0
M  V30 317 N 31.0401 0.771051 -1.3745 0
M  V30 318 C 31.9501 1.91538 -1.35464 0
M  V30 319 C 32.9661 1.72134 -0.254123 0
M  V30 320 O 34.1421 1.95358 -0.489626 0
M  V30 321 C 31.2071 3.26671 -1.16134 0
M  V30 322 C 30.2681 3.58723 -2.35831 0
M  V30 323 C 29.5011 4.87409 -2.17413 0
M  V30 324 O 29.7241 5.58506 -1.15876 0
M  V30 325 O 28.6581 5.18539 -3.05615 0
M  V30 326 H 32.4841 1.96165 -2.31847 0
M  V30 327 H 30.0691 0.9139 -1.18187 0
M  V30 328 H 31.9511 4.07499 -1.07345 0
M  V30 329 H 30.6261 3.22894 -0.228251 0
M  V30 330 H 29.5331 2.78127 -2.50192 0
M  V30 331 H 30.8661 3.67243 -3.27709 0
M  V30 332 N 32.5182 1.22032 0.997298 0
M  V30 333 C 33.4812 0.987909 2.06816 0
M  V30 334 C 34.4812 -0.0440084 1.6074 0
M  V30 335 O 35.6712 0.194053 1.73116 0
M  V30 336 C 32.8032 0.49132 3.37341 0
M  V30 337 H 33.9962 1.93803 2.28868 0
M  V30 338 H 31.5492 1.03838 1.16822 0
M  V30 339 H 32.2842 -0.463364 3.20973 0
M  V30 340 H 32.0692 1.23575 3.72118 0
M  V30 341 H 33.5592 0.348824 4.16141 0
M  V30 342 N 33.9963 -1.19345 1.0293 0
M  V30 343 C 35.4073 -1.70725 0.755633 0
M  V30 344 C 35.7583 -1.82326 -0.724676 0
M  V30 345 O 34.8833 -1.49471 -1.56484 0
M  V30 346 C 35.4783 -3.10084 1.36503 0
M  V30 347 C 34.0373 -3.58723 1.13994 0
M  V30 348 C 33.1843 -2.35577 1.46283 0
M  V30 349 H 36.1353 -1.0418 1.19718 0
M  V30 350 H 36.1563 -3.72787 0.762217 0
M  V30 351 H 35.6683 -3.01609 2.44241 0
M  V30 352 H 33.7693 -3.72512 0.0807901 0
M  V30 353 H 33.8823 -4.42816 1.82894 0
M  V30 354 H 32.2463 -2.38935 0.88217 0
M  V30 355 H 33.0293 -2.29731 2.55105 0
M  V30 356 N 35.4744 -0.807222 -1.35358 0
M  V30 357 C 36.4064 -0.175717 -2.28525 0
M  V30 358 C 37.4194 0.625354 -1.5031 0
M  V30 359 O 38.6084 0.457611 -1.72535 0
M  V30 360 C 35.7084 0.773471 -3.29956 0
M  V30 361 C 34.8814 0.0186296 -4.37396 0
M  V30 362 C 33.9404 0.886395 -5.18681 0
M  V30 363 O 32.9664 0.337106 -5.68201 0
M  V30 364 N 34.1684 2.20839 -5.36852 0
M  V30 365 H 36.9334 -0.976091 -2.83359 0
M  V30 366 H 34.4944 -0.662737 -1.47714 0
M  V30 367 H 36.4864 1.35824 -3.81227 0
M  V30 368 H 35.0564 1.47465 -2.75632 0
M  V30 369 H 34.2764 -0.747349 -3.87051 0
M  V30 370 H 35.5644 -0.501577 -5.06322 0
M  V30 371 H 34.9624 2.67858 -4.98265 0
M  V30 372 H 33.5194 2.74237 -5.91301 0
M  V30 373 N 36.9525 1.47285 -0.560781 0
M  V30 374 C 38.2015 2.01668 -0.035895 0
M  V30 375 C 38.5145 1.44021 1.32353 0
M  V30 376 O 39.7205 1.90088 1.93853 0
M  V30 377 C 38.1765 3.59897 -0.0136659 0
M  V30 378 C 37.7845 4.26536 -1.37006 0
M  V30 379 C 39.5285 4.22017 0.458425 0
M  V30 380 C 37.4355 5.76782 -1.30675 0
M  V30 381 H 36.3655 0.753938 -0.00964879 0
M  V30 382 H 39.0165 1.69243 -0.709166 0
M  V30 383 H 37.3985 3.89301 0.725325 0
M  V30 384 H 38.5725 4.0877 -2.12705 0
M  V30 385 H 36.8875 3.76419 -1.78038 0
M  V30 386 H 39.4845 5.32124 0.524247 0
M  V30 387 H 39.8275 3.89437 1.4712 0
M  V30 388 H 40.3605 3.97159 -0.225818 0
M  V30 389 H 37.0995 6.13988 -2.29564 0
M  V30 390 H 36.6195 5.96875 -0.591622 0
M  V30 391 H 38.2985 6.39063 -1.01033 0
M  V30 392 N 38.4306 0.297415 1.54768 0
M  V30 393 C 39.6586 -0.315623 2.04478 0
M  V30 394 C 40.0736 -1.47792 1.17486 0
M  V30 395 O 39.4306 -1.81404 0.19971 0
M  V30 396 C 39.4816 -0.7753 3.53088 0
M  V30 397 O 39.2026 0.340732 4.36773 0
M  V30 398 C 40.7036 -1.45386 4.18781 0
M  V30 399 H 37.9236 -0.0690887 0.667434 0
M  V30 400 H 40.4676 0.436003 1.99798 0
M  V30 401 H 38.6226 -1.47696 3.58141 0
M  V30 402 H 39.0366 -0.0165035 5.24497 0
M  V30 403 H 40.5106 -1.72669 5.24299 0
M  V30 404 H 40.9876 -2.39275 3.68299 0
M  V30 405 H 41.5936 -0.795475 4.17795 0
M  V30 406 N 39.9087 -1.5758 0.0250728 0
M  V30 407 C 41.1387 -1.95646 -0.663783 0
M  V30 408 C 41.5467 -0.899935 -1.66427 0
M  V30 409 O 40.8897 0.127191 -1.83259 0
M  V30 410 C 40.9517 -3.29835 -1.43 0
M  V30 411 C 40.6157 -4.53197 -0.588305 0
M  V30 412 C 41.6127 -5.19726 0.13469 0
M  V30 413 C 39.2977 -4.99529 -0.526897 0
M  V30 414 C 41.2917 -6.30902 0.90781 0
M  V30 415 C 38.9787 -6.10589 0.24993 0
M  V30 416 C 39.9767 -6.76134 0.965994 0
M  V30 417 O 39.6647 -7.85062 1.7301 0
M  V30 418 H 39.3967 -0.649282 -0.188174 0
M  V30 419 H 41.9507 -2.05245 0.0799006 0
M  V30 420 H 40.1807 -3.16716 -2.21873 0
M  V30 421 H 41.8697 -3.52833 -2.00658 0
M  V30 422 H 42.6357 -4.84904 0.0965562 0
M  V30 423 H 38.5147 -4.48319 -1.07381 0
M  V30 424 H 42.0587 -6.81995 1.46724 0
M  V30 425 H 37.9557 -6.44849 0.289795 0
M  V30 426 H 38.7237 -8.01708 1.64944 0
M  V30 427 N 41.3868 0.248026 -1.55636 0
M  V30 428 C 42.6168 0.992367 -1.81206 0
M  V30 429 C 43.0248 1.7949 -0.598324 0
M  V30 430 O 42.3678 1.78292 0.442434 0
M  V30 431 C 42.4298 1.97926 -3.00109 0
M  V30 432 C 42.0938 1.36377 -4.36177 0
M  V30 433 C 43.0908 0.76682 -5.14214 0
M  V30 434 C 40.7758 1.38347 -4.82872 0
M  V30 435 C 42.7698 0.197778 -6.37093 0
M  V30 436 C 40.4568 0.810574 -6.057 0
M  V30 437 C 41.4548 0.218754 -6.8265 0
M  V30 438 O 41.1428 -0.345298 -8.03158 0
M  V30 439 H 40.8748 0.297704 -0.606917 0
M  V30 440 H 43.4288 0.276517 -2.0353 0
M  V30 441 H 41.6588 2.73339 -2.73538 0
M  V30 442 H 43.3478 2.58694 -3.12781 0
M  V30 443 H 44.1138 0.744114 -4.79258 0
M  V30 444 H 39.9928 1.8335 -4.2297 0
M  V30 445 H 43.5368 -0.264788 -6.97097 0
M  V30 446 H 39.4338 0.830604 -6.40134 0
M  V30 447 H 40.2018 -0.237055 -8.18157 0
M  V30 448 N 42.8649 1.48995 0.513639 0
M  V30 449 C 44.1129 1.57531 1.26604 0
M  V30 450 C 44.4339 0.258236 1.93283 0
M  V30 451 O 43.7039 -0.721502 1.8213 0
M  V30 452 H 42.2839 0.580387 0.470276 0
M  V30 453 H 44.9459 1.85552 0.596373 0
M  V30 454 H 44.0419 2.36486 2.03669 0
M  V30 455 N 44.343 -0.763751 1.37857 0
M  V30 456 C 45.273 -1.89103 1.36975 0
M  V30 457 C 46.254 -1.68439 0.237152 0
M  V30 458 O 47.439 -1.8918 0.438713 0
M  V30 459 C 44.569 -3.26496 1.18395 0
M  V30 460 C 43.523 -3.61741 2.28751 0
M  V30 461 C 42.849 -4.97762 1.95286 0
M  V30 462 C 44.149 -3.67665 3.70972 0
M  V30 463 H 45.843 -1.90099 2.31307 0
M  V30 464 H 43.389 -0.91319 1.11341 0
M  V30 465 H 45.342 -4.05003 1.16406 0
M  V30 466 H 44.066 -3.25955 0.205215 0
M  V30 467 H 42.725 -2.85547 2.29909 0
M  V30 468 H 42.373 -4.93769 0.959221 0
M  V30 469 H 42.073 -5.22313 2.69189 0
M  V30 470 H 43.597 -5.7866 1.94898 0
M  V30 471 H 45.011 -4.36307 3.719 0
M  V30 472 H 43.408 -4.03718 4.43995 0
M  V30 473 H 44.478 -2.68134 4.0402 0
M  V30 474 N 45.8211 -1.22559 -0.990812 0
M  V30 475 C 46.7711 -0.964807 -2.0658 0
M  V30 476 C 47.7551 0.0853472 -1.60673 0
M  V30 477 O 48.9471 -0.125443 -1.76555 0
M  V30 478 C 46.0761 -0.546707 -3.38919 0
M  V30 479 C 45.1621 -1.6317 -3.91454 0
M  V30 480 N 45.5531 -2.85985 -4.17189 0
M  V30 481 C 43.8511 -1.50387 -4.19881 0
M  V30 482 C 44.5521 -3.56159 -4.59919 0
M  V30 483 N 43.5281 -2.83637 -4.63736 0
M  V30 484 H 47.3301 -1.89769 -2.24421 0
M  V30 485 H 44.8441 -1.12343 -1.17273 0
M  V30 486 H 46.8411 -0.34119 -4.15502 0
M  V30 487 H 45.5011 0.379254 -3.22478 0
M  V30 488 H 46.5121 -3.22392 -4.05319 0
M  V30 489 H 43.1891 -0.644254 -4.12499 0
M  V30 490 H 44.5791 -4.6139 -4.88435 0
M  V30 491 N 47.2992 1.18797 -1.03562 0
M  V30 492 C 48.5242 1.9314 -0.755764 0
M  V30 493 C 48.9492 1.7537 0.68022 0
M  V30 494 O 48.3072 1.06046 1.47051 0
M  V30 495 C 48.3552 3.42747 -1.12058 0
M  V30 496 O 47.4592 4.11683 -0.243124 0
M  V30 497 H 46.8002 0.602724 -0.278604 0
M  V30 498 H 49.3302 1.50678 -1.3841 0
M  V30 499 H 49.3402 3.93437 -1.08035 0
M  V30 500 H 48.0152 3.55002 -2.16672 0
M  V30 501 H 46.5922 3.71323 -0.342539 0
M  V30 502 N 48.7773 0.814389 1.34928 0
M  V30 503 C 49.7073 0.244827 2.32213 0
M  V30 504 C 50.6883 -0.634024 1.57842 0
M  V30 505 O 51.8733 -0.562676 1.8587 0
M  V30 506 C 49.0033 -0.601106 3.42058 0
M  V30 507 C 47.9573 0.179896 4.27622 0
M  V30 508 C 47.2833 -0.788237 5.28858 0
M  V30 509 C 48.5833 1.38329 5.03649 0
M  V30 510 H 50.2773 1.05763 2.80097 0
M  V30 511 H 47.8233 0.510029 1.34665 0
M  V30 512 H 49.7763 -1.00968 4.09125 0
M  V30 513 H 48.5003 -1.44688 2.92802 0
M  V30 514 H 47.1593 0.569739 3.62146 0
M  V30 515 H 46.8073 -1.62973 4.75866 0
M  V30 516 H 46.5073 -0.269942 5.8698 0
M  V30 517 H 48.0313 -1.19485 5.98795 0
M  V30 518 H 49.4453 1.04918 5.63618 0
M  V30 519 H 47.8423 1.83662 5.71304 0
M  V30 520 H 48.9123 2.16592 4.33839 0
M  V30 521 N 50.2554 -1.46986 0.568584 0
M  V30 522 C 51.1874 -2.28233 -0.210337 0
M  V30 523 C 52.2004 -1.37682 -0.868767 0
M  V30 524 O 53.3894 -1.62406 -0.740705 0
M  V30 525 C 50.4894 -3.12293 -1.3163 0
M  V30 526 C 49.6624 -4.30878 -0.7525 0
M  V30 527 C 48.7214 -4.96445 -1.74439 0
M  V30 528 O 47.7474 -5.54482 -1.286 0
M  V30 529 N 48.9494 -4.92171 -3.07812 0
M  V30 530 H 51.7144 -2.95723 0.486648 0
M  V30 531 H 49.2754 -1.56742 0.405409 0
M  V30 532 H 51.2674 -3.53022 -1.97883 0
M  V30 533 H 49.8374 -2.46971 -1.91636 0
M  V30 534 H 49.0574 -3.94104 0.0871128 0
M  V30 535 H 50.3454 -5.07558 -0.35536 0
M  V30 536 H 49.7434 -4.46239 -3.47688 0
M  V30 537 H 48.3004 -5.36884 -3.69592 0
M  V30 538 N 51.7335 -0.305618 -1.54608 0
M  V30 539 C 52.6835 0.583595 -2.20405 0
M  V30 540 C 53.6675 1.09539 -1.17856 0
M  V30 541 O 54.8595 1.0354 -1.43557 0
M  V30 542 C 51.9885 1.75277 -2.95183 0
M  V30 543 C 51.0745 1.25672 -4.05052 0
M  V30 544 N 51.4655 0.478998 -5.03527 0
M  V30 545 C 49.7635 1.53704 -4.18678 0
M  V30 546 C 50.4645 0.214269 -5.81305 0
M  V30 547 N 49.4405 0.795374 -5.3775 0
M  V30 548 H 53.2425 -0.0180946 -2.93894 0
M  V30 549 H 50.7565 -0.110601 -1.62023 0
M  V30 550 H 52.7535 2.4014 -3.40791 0
M  V30 551 H 51.4135 2.35812 -2.23211 0
M  V30 552 H 52.4245 0.123473 -5.17753 0
M  V30 553 H 49.1015 2.14954 -3.57912 0
M  V30 554 H 50.4915 -0.410656 -6.70644 0
M  V30 555 N 53.2116 1.57565 -0.0334293 0
M  V30 556 C 54.6276 1.56297 0.322997 0
M  V30 557 C 54.8276 1.03945 1.7262 0
M  V30 558 O 53.8836 0.688109 2.42943 0
M  V30 559 C 55.1966 3.00232 0.167664 0
M  V30 560 C 56.7446 3.12078 0.240107 0
M  V30 561 C 57.2196 4.57859 0.113513 0
M  V30 562 N 58.7106 4.62887 0.170359 0
M  V30 563 C 59.4456 5.73319 0.0962517 0
M  V30 564 N 58.9416 6.92794 -0.0291881 0
M  V30 565 N 60.7346 5.61898 0.150551 0
M  V30 566 H 52.8856 1.89923 -0.950956 0
M  V30 567 H 55.1486 0.873824 -0.367608 0
M  V30 568 H 54.8546 3.42501 -0.799102 0
M  V30 569 H 54.7286 3.654 0.936083 0
M  V30 570 H 57.1156 2.69718 1.19733 0
M  V30 571 H 57.1966 2.49623 -0.558763 0
M  V30 572 H 56.8406 5.009 -0.840314 0
M  V30 573 H 56.7706 5.18299 0.931302 0
M  V30 574 H 59.2616 3.76954 0.26728 0
M  V30 575 H 59.5746 7.7276 -0.0789252 0
M  V30 576 H 57.9196 6.94971 -0.0640299 0
M  V30 577 H 61.1106 4.67448 0.246981 0
M  V30 578 H 61.2836 6.47938 0.0893365 0
M  V30 579 N 54.6897 -0.239769 1.55765 0
M  V30 580 C 55.9377 -0.964892 1.77579 0
M  V30 581 C 56.2587 -1.85582 0.598699 0
M  V30 582 O 55.5287 -1.92075 -0.385226 0
M  V30 583 H 54.1087 -0.359265 0.654933 0
M  V30 584 H 56.7707 -0.256001 1.93211 0
M  V30 585 H 55.8667 -1.58243 2.69009 0
M  V30 586 N 56.1678 -1.49265 -0.50573 0
M  V30 587 C 57.0998 -1.617 -1.62437 0
M  V30 588 C 58.1128 -0.499924 -1.54934 0
M  V30 589 O 59.3018 -0.771785 -1.60953 0
M  V30 590 C 56.4018 -1.5533 -3.01207 0
M  V30 591 C 55.5748 -2.8249 -3.33943 0
M  V30 592 C 54.6338 -2.69238 -4.52103 0
M  V30 593 O 53.6598 -3.43167 -4.5412 0
M  V30 594 N 54.8618 -1.80468 -5.51735 0
M  V30 595 H 57.6268 -2.58177 -1.52199 0
M  V30 596 H 55.1878 -1.46294 -0.693511 0
M  V30 597 H 57.1798 -1.44125 -3.78167 0
M  V30 598 H 55.7498 -0.667297 -3.05395 0
M  V30 599 H 54.9698 -3.08081 -2.45926 0
M  V30 600 H 56.2578 -3.66802 -3.5261 0
M  V30 601 H 55.6558 -1.19653 -5.52901 0
M  V30 602 H 54.2128 -1.75188 -6.27816 0
M  V30 603 N 57.6459 0.756429 -1.3826 0
M  V30 604 C 58.5559 1.9009 -1.37488 0
M  V30 605 C 59.5719 1.71855 -0.272366 0
M  V30 606 O 60.7479 1.94827 -0.510318 0
M  V30 607 C 57.8129 3.25421 -1.19592 0
M  V30 608 C 56.8739 3.56202 -2.39622 0
M  V30 609 C 56.1069 4.85075 -2.2257 0
M  V30 610 O 56.3299 5.57246 -1.21793 0
M  V30 611 O 55.2639 5.15269 -3.11098 0
M  V30 612 H 59.0899 1.93695 -2.33914 0
M  V30 613 H 56.6749 0.901313 -1.1915 0
M  V30 614 H 58.5569 4.06337 -1.11661 0
M  V30 615 H 57.2319 3.22634 -0.262486 0
M  V30 616 H 56.1389 2.75458 -2.53128 0
M  V30 617 H 57.4719 3.63747 -3.31586 0
M  V30 618 N 59.124 1.23083 0.984299 0
M  V30 619 C 60.372 1.05848 1.72165 0
M  V30 620 C 60.693 -0.406049 1.90726 0
M  V30 621 O 59.963 -1.29139 1.47309 0
M  V30 622 H 58.543 0.388685 0.637913 0
M  V30 623 H 61.205 1.54736 1.18503 0
M  V30 624 H 60.301 1.54327 2.71274 0
M  V30 625 N 60.6021 -1.18246 1.0419 0
M  V30 626 C 61.5651 -2.20128 0.638452 0
M  V30 627 C 62.5651 -1.57885 -0.304805 0
M  V30 628 O 63.7551 -1.73967 -0.0900369 0
M  V30 629 C 60.8871 -3.4084 -0.0637751 0
M  V30 630 H 62.0801 -2.57336 1.54007 0
M  V30 631 H 59.6331 -1.32152 0.834598 0
M  V30 632 H 60.3681 -3.09166 -0.979136 0
M  V30 633 H 60.1531 -3.8726 0.614198 0
M  V30 634 H 61.6431 -4.16274 -0.332512 0
M  V30 635 N 62.0802 -0.821533 -1.34494 0
M  V30 636 C 63.3282 -0.408139 -1.97936 0
M  V30 637 C 63.6492 1.03193 -1.65457 0
M  V30 638 O 62.9192 1.71622 -0.944595 0
M  V30 639 H 61.4992 -0.147928 -0.732206 0
M  V30 640 H 64.1612 -1.05067 -1.64155 0
M  V30 641 H 63.2572 -0.52601 -3.07635 0
M  V30 642 N 63.5583 1.46682 -0.576371 0
M  V30 643 C 64.8073 2.01619 -0.0572825 0
M  V30 644 C 65.1203 1.45417 1.30818 0
M  V30 645 O 66.3263 1.92133 1.91825 0
M  V30 646 C 64.7823 3.59863 -0.0518371 0
M  V30 647 C 64.3903 4.25059 -1.41523 0
M  V30 648 C 66.1343 4.2248 0.413639 0
M  V30 649 C 64.0413 5.75364 -1.36785 0
M  V30 650 H 62.9713 0.753794 -0.0176448 0
M  V30 651 H 65.6223 1.68481 -0.727076 0
M  V30 652 H 64.0043 3.90048 0.683994 0
M  V30 653 H 65.1783 4.06491 -2.17029 0
M  V30 654 H 63.4933 3.7451 -1.8202 0
M  V30 655 H 66.0903 5.3265 0.467779 0
M  V30 656 H 66.4333 3.90976 1.42982 0
M  V30 657 H 66.9663 3.96897 -0.267929 0
M  V30 658 H 63.7053 6.11518 -2.36063 0
M  V30 659 H 63.2253 5.96214 -0.654895 0
M  V30 660 H 64.9043 6.37955 -1.07805 0
M  V30 661 N 65.0364 0.313813 1.54444 0
M  V30 662 C 66.2824 -0.292108 2.00685 0
M  V30 663 C 66.6154 -1.52548 1.20177 0
M  V30 664 O 65.8904 -1.92452 0.281531 0
M  V30 665 C 66.1734 -0.635968 3.5444 0
M  V30 666 C 66.0264 0.607437 4.4568 0
M  V30 667 C 67.3454 -1.45747 4.15266 0
M  V30 668 H 64.4644 -0.104697 0.729526 0
M  V30 669 H 67.1064 0.428457 1.85106 0
M  V30 670 H 65.2564 -1.24986 3.67846 0
M  V30 671 H 66.9284 1.24581 4.44159 0
M  V30 672 H 65.1714 1.23822 4.15753 0
M  V30 673 H 65.8424 0.322515 5.51057 0
M  V30 674 H 68.3184 -0.938645 4.05375 0
M  V30 675 H 67.1944 -1.66683 5.2298 0
M  V30 676 H 67.4554 -2.45063 3.67963 0
M  V30 677 N 66.5145 -1.57545 0.0417849 0
M  V30 678 C 67.4775 -2.09885 -0.92093 0
M  V30 679 C 68.4775 -1.01648 -1.24596 0
M  V30 680 O 69.6675 -1.27759 -1.1842 0
M  V30 681 C 66.7995 -2.57527 -2.23367 0
M  V30 682 H 67.9925 -2.96236 -0.467382 0
M  V30 683 H 65.5455 -1.5493 -0.206467 0
M  V30 684 H 66.2805 -1.74542 -2.73323 0
M  V30 685 H 66.0655 -3.36613 -2.01083 0
M  V30 686 H 67.5555 -2.98201 -2.92346 0
M  V30 687 N 67.9926 0.231505 -1.5589 0
M  V30 688 C 69.2206 0.974505 -1.82513 0
M  V30 689 C 69.6356 1.78344 -0.619591 0
M  V30 690 O 68.9926 1.77792 0.411848 0
M  V30 691 C 69.0436 1.90007 -3.07538 0
M  V30 692 O 68.7646 1.12385 -4.2344 0
M  V30 693 C 70.2656 2.75779 -3.47075 0
M  V30 694 H 67.4856 0.286065 -0.606966 0
M  V30 695 H 70.0296 0.249739 -2.02969 0
M  V30 696 H 68.1846 2.57891 -2.89086 0
M  V30 697 H 68.5986 1.75125 -4.944 0
M  V30 698 H 70.0726 3.36443 -4.37619 0
M  V30 699 H 70.5496 3.47672 -2.68367 0
M  V30 700 H 71.1556 2.13323 -3.67931 0
M  V30 701 N 69.4707 1.49531 0.497807 0
M  V30 702 C 70.7477 1.49682 1.25915 0
M  V30 703 C 71.1277 0.226339 2.09883 0
M  V30 704 O 70.4757 -0.791189 2.14365 0
M  V30 705 C 70.6857 2.77755 2.11313 0
M  V30 706 C 72.0337 3.27371 2.70395 0
M  V30 707 O 73.0577 2.78894 2.21578 0
M  V30 708 O 71.9167 4.11808 3.59272 0
M  V30 709 H 69.0107 0.599228 0.56996 0
M  V30 710 H 71.5567 1.61798 0.511816 0
M  V30 711 H 70.3287 3.61713 1.49264 0
M  V30 712 H 69.9517 2.68515 2.93233 0
M  V30 713 N 70.9488 -0.749086 1.3866 0
M  V30 714 C 72.1968 -1.50535 1.34847 0
M  V30 715 C 72.5178 -1.94909 -0.0595016 0
M  V30 716 O 71.7878 -1.67973 -1.00806 0
M  V30 717 H 70.3678 -0.558395 0.49619 0
M  V30 718 H 73.0298 -0.890165 1.73384 0
M  V30 719 H 72.1258 -2.39413 2.00219 0
M  V30 720 N 72.4269 -1.23603 -0.977757 0
M  V30 721 C 73.3369 -1.03632 -2.1047 0
M  V30 722 C 74.3529 0.0199435 -1.73989 0
M  V30 723 O 75.5289 -0.176076 -2.00629 0
M  V30 724 C 72.5939 -0.63276 -3.40877 0
M  V30 725 C 71.6549 -1.76437 -3.91367 0
M  V30 726 C 70.8879 -1.37997 -5.15551 0
M  V30 727 O 71.1109 -0.265357 -5.69782 0
M  V30 728 O 70.0449 -2.20201 -5.60174 0
M  V30 729 H 73.8709 -1.98086 -2.30208 0
M  V30 730 H 71.4559 -1.02332 -1.08851 0
M  V30 731 H 73.3379 -0.418761 -4.19314 0
M  V30 732 H 72.0129 0.282754 -3.22463 0
M  V30 733 H 70.9199 -2.03304 -3.14036 0
M  V30 734 H 72.2529 -2.6583 -4.14241 0
M  V30 735 N 73.905 1.17692 -1.04816 0
M  V30 736 C 74.852 2.21581 -0.645797 0
M  V30 737 C 75.822 1.62367 0.350159 0
M  V30 738 O 77.007 1.89254 0.242433 0
M  V30 739 C 74.147 3.45092 -0.0227568 0
M  V30 740 C 73.26 4.18613 -1.06709 0
M  V30 741 C 72.395 5.29602 -0.411767 0
M  V30 742 C 71.434 5.94904 -1.44067 0
M  V30 743 N 70.571 6.97414 -0.809781 0
M  V30 744 H 75.411 2.55353 -1.5362 0
M  V30 745 H 72.948 1.25438 -0.768364 0
M  V30 746 H 74.906 4.15679 0.35588 0
M  V30 747 H 73.536 3.11917 0.831122 0
M  V30 748 H 72.588 3.46779 -1.5636 0
M  V30 749 H 73.9 4.63293 -1.84827 0
M  V30 750 H 73.054 6.06696 0.0206623 0
M  V30 751 H 71.793 4.86045 0.401438 0
M  V30 752 H 70.798 5.16544 -1.88316 0
M  V30 753 H 72.023 6.40542 -2.25571 0
M  V30 754 H 69.969 6.55998 -0.0170186 0
M  V30 755 H 69.886 7.40386 -1.52856 0
M  V30 756 H 71.154 7.78463 -0.401999 0
M  V30 757 N 75.3831 0.828654 1.34056 0
M  V30 758 C 76.3131 0.269443 2.3194 0
M  V30 759 C 77.2941 -0.617247 1.58506 0
M  V30 760 O 78.4791 -0.542931 1.86456 0
M  V30 761 C 75.6091 -0.564793 3.42677 0
M  V30 762 C 74.5631 0.225241 4.27407 0
M  V30 763 C 73.8891 -0.7321 5.29664 0
M  V30 764 C 75.1891 1.43663 5.02154 0
M  V30 765 H 76.8831 1.08728 2.7896 0
M  V30 766 H 74.4291 0.524283 1.34117 0
M  V30 767 H 76.3821 -0.966233 4.10173 0
M  V30 768 H 75.1061 -1.41574 2.9432 0
M  V30 769 H 73.7651 0.608117 3.61521 0
M  V30 770 H 73.4131 -1.57916 4.77568 0
M  V30 771 H 73.1131 -0.20767 5.87233 0
M  V30 772 H 74.6371 -1.13128 6.00029 0
M  V30 773 H 76.0511 1.1089 5.62473 0
M  V30 774 H 74.4481 1.89711 5.69324 0
M  V30 775 H 75.5181 2.21181 4.31517 0
M  V30 776 N 76.8612 -1.46375 0.584142 0
M  V30 777 C 78.0892 -2.06761 0.0759296 0
M  V30 778 C 78.5042 -1.43266 -1.22965 0
M  V30 779 O 77.8612 -0.538458 -1.74376 0
M  V30 780 C 77.9122 -3.61375 -0.0950384 0
M  V30 781 O 77.6332 -4.22495 1.15887 0
M  V30 782 C 79.1342 -4.38693 -0.637434 0
M  V30 783 H 76.3542 -0.668479 0.0581075 0
M  V30 784 H 78.8982 -1.8798 0.805218 0
M  V30 785 H 77.0532 -3.79578 -0.774554 0
M  V30 786 H 77.4672 -5.15385 0.973598 0
M  V30 787 H 78.9412 -5.47464 -0.706237 0
M  V30 788 H 79.4182 -4.06836 -1.65472 0
M  V30 789 H 80.0242 -4.25299 0.00725967 0
M  V30 790 N 78.3393 -0.321999 -1.54275 0
M  V30 791 C 79.3023 0.531975 -2.22941 0
M  V30 792 C 80.3023 1.04478 -1.22234 0
M  V30 793 O 81.4923 0.937452 -1.46825 0
M  V30 794 C 78.6243 1.73874 -2.93224 0
M  V30 795 H 79.8173 -0.0682612 -2.99822 0
M  V30 796 H 77.3703 -0.0730644 -1.56129 0
M  V30 797 H 78.1053 2.37825 -2.20476 0
M  V30 798 H 77.8903 1.37847 -3.6707 0
M  V30 799 H 79.3803 2.34496 -3.45545 0
M  V30 800 N 79.8174 1.5752 -0.0501392 0
M  V30 801 C 80.7674 2.07981 0.934231 0
M  V30 802 C 81.7514 0.984745 1.27246 0
M  V30 803 O 82.9434 1.24809 1.25506 0
M  V30 804 C 80.0724 2.62751 2.20945 0
M  V30 805 C 79.1584 3.79225 1.89865 0
M  V30 806 N 79.5494 4.89036 1.29142 0
M  V30 807 C 77.8474 3.88111 2.19741 0
M  V30 808 C 78.5484 5.70084 1.15669 0
M  V30 809 N 77.5244 5.17659 1.65923 0
M  V30 810 H 81.3264 2.90277 0.460053 0
M  V30 811 H 78.8404 1.61665 0.15434 0
M  V30 812 H 80.8374 2.97205 2.9236 0
M  V30 813 H 79.4974 1.81894 2.6897 0
M  V30 814 H 80.5084 5.08854 0.963756 0
M  V30 815 H 77.1854 3.18194 2.70293 0
M  V30 816 H 78.5754 6.68395 0.685356 0
M  V30 817 N 81.2955 -0.223234 1.56011 0
M  V30 818 C 82.2425 -1.27664 1.92277 0
M  V30 819 C 83.2125 -1.46659 0.779763 0
M  V30 820 O 84.3975 -1.60256 1.03551 0
M  V30 821 C 81.5375 -2.62234 2.24338 0
M  V30 822 C 80.6505 -2.51051 3.51564 0
M  V30 823 C 79.7855 -3.78133 3.7308 0
M  V30 824 C 78.8245 -3.61665 4.93827 0
M  V30 825 N 77.9615 -4.80693 5.11741 0
M  V30 826 H 82.8015 -0.960358 2.82101 0
M  V30 827 H 80.3385 -0.462901 1.39627 0
M  V30 828 H 82.2965 -3.40596 2.40936 0
M  V30 829 H 80.9265 -2.91961 1.3769 0
M  V30 830 H 79.9785 -1.64132 3.43169 0
M  V30 831 H 81.2905 -2.34803 4.40079 0
M  V30 832 H 80.4445 -4.64938 3.89766 0
M  V30 833 H 79.1835 -3.97304 2.82844 0
M  V30 834 H 78.1885 -2.73244 4.77093 0
M  V30 835 H 79.4135 -3.43966 5.85546 0
M  V30 836 H 77.3595 -5.00181 4.24446 0
M  V30 837 H 77.2765 -4.67165 5.94384 0
M  V30 838 H 78.5445 -5.6893 5.3286 0
M  V30 839 N 82.7736 -1.49793 -0.48987 0
M  V30 840 C 84.0216 -1.59525 -1.24081 0
M  V30 841 C 84.3426 -0.288953 -1.92847 0
M  V30 842 O 83.6126 0.692436 -1.83254 0
M  V30 843 H 82.1926 -0.587796 -0.460983 0
M  V30 844 H 84.8546 -1.86477 -0.566778 0
M  V30 845 H 83.9506 -2.39696 -1.99881 0
M  V30 846 N 84.2517 0.741722 -1.39055 0
M  V30 847 C 85.1837 1.8657 -1.33133 0
M  V30 848 C 86.1967 1.61001 -0.241329 0
M  V30 849 O 87.3857 1.7136 -0.499784 0
M  V30 850 C 84.4857 3.22457 -1.04283 0
M  V30 851 C 83.6587 3.75435 -2.24427 0
M  V30 852 C 82.7177 4.89867 -1.92138 0
M  V30 853 O 81.7437 5.03879 -2.64754 0
M  V30 854 N 82.9457 5.73738 -0.88347 0
M  V30 855 H 85.7107 1.92156 -2.29991 0
M  V30 856 H 83.2717 0.922172 -1.3307 0
M  V30 857 H 85.2637 3.9657 -0.807128 0
M  V30 858 H 83.8337 3.12181 -0.161807 0
M  V30 859 H 83.0537 2.92751 -2.6399 0
M  V30 860 H 84.3417 4.07563 -3.04581 0
M  V30 861 H 83.7397 5.64999 -0.281517 0
M  V30 862 H 82.2967 6.47947 -0.707662 0
M  V30 863 N 85.7298 1.2412 0.971189 0
M  V30 864 C 86.9778 1.07668 1.71032 0
M  V30 865 C 87.2988 -0.385797 1.91146 0
M  V30 866 O 86.5688 -1.27569 1.4867 0
M  V30 867 H 85.1488 0.395429 0.633755 0
M  V30 868 H 87.8108 1.55984 1.16855 0
M  V30 869 H 86.9068 1.57195 2.69622 0
M  V30 870 N 87.2079 -1.17134 1.05439 0
M  V30 871 C 88.1379 -2.2342 0.678649 0
M  V30 872 C 89.1189 -1.66971 -0.32476 0
M  V30 873 O 90.3039 -1.93149 -0.201802 0
M  V30 874 C 87.4339 -3.47256 0.0552099 0
M  V30 875 C 86.3879 -4.16543 0.98365 0
M  V30 876 C 85.7139 -5.34231 0.223961 0
M  V30 877 C 87.0139 -4.68495 2.3089 0
M  V30 878 H 88.7079 -2.55105 1.56722 0
M  V30 879 H 86.2539 -1.2262 0.754998 0
M  V30 880 H 88.2069 -4.20828 -0.21946 0
M  V30 881 H 86.9309 -3.14846 -0.868319 0
M  V30 882 H 85.5899 -3.44887 1.24293 0
M  V30 883 H 85.2379 -4.98071 -0.702412 0
M  V30 884 H 84.9379 -5.81527 0.842627 0
M  V30 885 H 86.4619 -6.10585 -0.0433671 0
M  V30 886 H 87.8759 -5.33691 2.09396 0
M  V30 887 H 86.2729 -5.26379 2.88176 0
M  V30 888 H 87.3429 -3.85169 2.94572 0
M  V30 889 N 88.686 -0.835752 -1.33615 0
M  V30 890 C 89.935 -0.426289 -1.97144 0
M  V30 891 C 90.248 1.01912 -1.66953 0
M  V30 892 O 91.454 1.53311 -2.24072 0
M  V30 893 C 89.91 -0.711321 -3.52801 0
M  V30 894 C 89.518 -2.1712 -3.91871 0
M  V30 895 C 91.262 -0.368654 -4.22896 0
M  V30 896 C 89.169 -2.40044 -5.40493 0
M  V30 897 H 88.099 -0.15567 -0.737755 0
M  V30 898 H 90.75 -1.0239 -1.52278 0
M  V30 899 H 89.132 -0.0433766 -3.95976 0
M  V30 900 H 90.306 -2.87936 -3.59763 0
M  V30 901 H 88.621 -2.47654 -3.34749 0
M  V30 902 H 91.218 -0.517601 -5.32189 0
M  V30 903 H 91.561 0.688078 -4.10574 0
M  V30 904 H 92.094 -0.991702 -3.8524 0
M  V30 905 H 88.833 -3.44271 -5.57815 0
M  V30 906 H 88.353 -1.73785 -5.74072 0
M  V30 907 H 90.032 -2.23042 -6.0734 0
M  V30 908 N 90.1641 1.46063 -0.591896 0
M  V30 909 C 91.3921 2.06717 -0.0868936 0
M  V30 910 C 91.8071 1.43916 1.22203 0
M  V30 911 O 91.1641 0.547698 1.74088 0
M  V30 912 C 91.2151 3.6142 0.0758725 0
M  V30 913 O 90.9361 4.21874 -1.18126 0
M  V30 914 C 92.4371 4.39025 0.61416 0
M  V30 915 H 89.6571 0.668162 -0.0616518 0
M  V30 916 H 92.2011 1.8755 -0.815175 0
M  V30 917 H 90.3561 3.79983 0.754413 0
M  V30 918 H 90.7701 5.14861 -1.00092 0
M  V30 919 H 92.2441 5.4783 0.677193 0
M  V30 920 H 92.7211 4.07708 1.63312 0
M  V30 921 H 93.3271 4.2529 -0.0298142 0
M  V30 922 N 91.6422 0.330177 1.54103 0
M  V30 923 C 92.5522 -0.541534 2.28264 0
M  V30 924 C 93.5682 -1.12351 1.32866 0
M  V30 925 O 94.7442 -1.14206 1.65888 0
M  V30 926 C 91.8092 -1.68322 3.03098 0
M  V30 927 C 90.8702 -1.13238 4.14096 0
M  V30 928 C 90.1032 -2.21966 4.85352 0
M  V30 929 O 90.3262 -3.42437 4.56172 0
M  V30 930 O 89.2602 -1.87013 5.7211 0
M  V30 931 H 93.0862 0.060938 3.03639 0
M  V30 932 H 90.6712 0.09565 1.49093 0
M  V30 933 H 92.5532 -2.34777 3.49939 0
M  V30 934 H 91.2282 -2.27176 2.30593 0
M  V30 935 H 90.1352 -0.432736 3.71589 0
M  V30 936 H 91.4682 -0.588898 4.88664 0
M  V30 937 N 93.1203 -1.57491 0.0584922 0
M  V30 938 C 94.3663 -1.93264 -0.614558 0
M  V30 939 C 94.6993 -0.937717 -1.7006 0
M  V30 940 O 93.9743 0.0351652 -1.94468 0
M  V30 941 C 94.2573 -3.3938 -1.20386 0
M  V30 942 C 94.1103 -4.49625 -0.125375 0
M  V30 943 C 95.4293 -3.86039 -2.11334 0
M  V30 944 H 92.5483 -0.702791 -0.221933 0
M  V30 945 H 95.1903 -1.8961 0.12175 0
M  V30 946 H 93.3403 -3.42626 -1.83139 0
M  V30 947 H 95.0123 -4.58506 0.506971 0
M  V30 948 H 93.2553 -4.30354 0.545672 0
M  V30 949 H 93.9263 -5.48967 -0.577861 0
M  V30 950 H 96.4023 -3.84716 -1.58534 0
M  V30 951 H 95.2783 -4.88914 -2.49507 0
M  V30 952 H 95.5393 -3.23215 -3.01636 0
M  V30 953 N 94.5984 0.214957 -1.56127 0
M  V30 954 C 95.8454 0.938372 -1.79446 0
M  V30 955 C 96.1734 1.8407 -0.628378 0
M  V30 956 O 95.4284 1.91837 0.386925 0
M  V30 957 C 95.7274 1.80314 -3.0858 0
M  V30 958 C 95.3934 1.05349 -4.3842 0
M  V30 959 C 94.0554 0.846435 -4.73697 0
M  V30 960 C 96.4074 0.524588 -5.18553 0
M  V30 961 C 93.7354 0.098683 -5.86617 0
M  V30 962 C 96.0874 -0.209853 -6.32252 0
M  V30 963 C 94.7514 -0.428102 -6.66126 0
M  V30 964 H 94.0214 0.343375 -0.656639 0
M  V30 965 H 96.6684 0.206077 -1.90388 0
M  V30 966 H 94.9734 2.6035 -2.92789 0
M  V30 967 H 96.6704 2.36513 -3.23825 0
M  V30 968 H 93.2604 1.22486 -4.10725 0
M  V30 969 H 97.4444 0.672008 -4.91729 0
M  V30 970 H 92.7004 -0.0805753 -6.11347 0
M  V30 971 H 96.8744 -0.627157 -6.9357 0
M  V30 972 H 94.5014 -1.00944 -7.53468 0
M  V30 973 N 96.0765 1.50051 0.48192 0
M  V30 974 C 97.0085 1.64263 1.59844 0
M  V30 975 C 98.0215 0.52451 1.54119 0
M  V30 976 O 99.2105 0.797293 1.59704 0
M  V30 977 C 96.3105 1.60102 2.98698 0
M  V30 978 C 95.4835 2.87767 3.29407 0
M  V30 979 C 94.5425 2.76397 4.47762 0
M  V30 980 O 93.5685 3.50348 4.48603 0
M  V30 981 N 94.7705 1.89222 5.48794 0
M  V30 982 H 97.5355 2.60566 1.48073 0
M  V30 983 H 95.0965 1.47379 0.670149 0
M  V30 984 H 97.0885 1.50123 3.75826 0
M  V30 985 H 95.6585 0.715798 3.04294 0
M  V30 986 H 94.8785 3.11954 2.40994 0
M  V30 987 H 96.1665 3.72365 3.4673 0
M  V30 988 H 95.5645 1.28434 5.50928 0
M  V30 989 H 94.1215 1.85154 6.24949 0
M  V30 990 N 97.5546 -0.734337 1.39446 0
M  V30 991 C 98.5026 -1.86971 1.38364 0
M  V30 992 C 99.4966 -1.67288 0.266687 0
M  V30 993 O 100.703 -1.74621 0.436755 0
M  V30 994 H 97.0776 -0.615474 0.432082 0
M  V30 995 H 99.0486 -1.85 2.34132 0
M  V30 996 C 97.7976 -3.2466 1.24465 0
M  V30 997 H 97.1206 -3.40402 2.09682 0
M  V30 998 H 98.5606 -4.04292 1.27764 0
M  V30 999 C 97.0196 -3.36867 -0.0468674 0
M  V30 1000 O 97.5496 -3.88618 -1.01681 0
M  V30 1001 N 95.7556 -2.90391 -0.110145 0
M  V30 1002 H 95.3026 -2.48466 0.679868 0
M  V30 1003 H 95.2606 -2.98939 -0.973799 0
M  V30 1004 N 99.0327 -1.24633 -0.964593 0
M  V30 1005 C 100.281 -1.08573 -1.70459 0
M  V30 1006 C 100.602 0.375655 -1.91347 0
M  V30 1007 O 99.8717 1.26779 -1.49345 0
M  V30 1008 H 98.4517 -0.398784 -0.631649 0
M  V30 1009 H 101.114 -1.56601 -1.16026 0
M  V30 1010 H 100.21 -1.58623 -2.68785 0
M  V30 1011 N 100.511 1.16574 -1.06058 0
M  V30 1012 C 101.421 2.2452 -0.680282 0
M  V30 1013 C 102.437 1.71348 0.302604 0
M  V30 1014 O 103.613 2.00822 0.152513 0
M  V30 1015 C 100.678 3.46629 -0.0700315 0
M  V30 1016 C 99.7388 4.14849 -1.10448 0
M  V30 1017 C 98.9718 5.31129 -0.523256 0
M  V30 1018 O 99.1948 5.66514 0.664709 0
M  V30 1019 O 98.1288 5.88526 -1.26179 0
M  V30 1020 H 101.955 2.59355 -1.58015 0
M  V30 1021 H 99.5398 1.24043 -0.832694 0
M  V30 1022 H 101.422 4.20543 0.268667 0
M  V30 1023 H 100.097 3.13573 0.803353 0
M  V30 1024 H 99.0038 3.42916 -1.49532 0
M  V30 1025 H 100.337 4.51954 -1.94931 0
M  V30 1026 N 101.989 0.842826 1.3317 0
M  V30 1027 C 102.919 0.294028 2.31641 0
M  V30 1028 C 103.9 -0.600401 1.59151 0
M  V30 1029 O 105.085 -0.523124 1.87022 0
M  V30 1030 C 102.215 -0.528416 3.43257 0
M  V30 1031 C 101.169 0.27056 4.27144 0
M  V30 1032 C 100.495 -0.675881 5.30411 0
M  V30 1033 C 101.795 1.48981 5.00602 0
M  V30 1034 H 103.489 1.11681 2.77791 0
M  V30 1035 H 101.035 0.538478 1.33553 0
M  V30 1036 H 102.988 -0.922674 4.11175 0
M  V30 1037 H 101.712 -1.38445 2.95805 0
M  V30 1038 H 100.371 0.646427 3.60856 0
M  V30 1039 H 100.019 -1.52842 4.79216 0
M  V30 1040 H 99.7189 -0.145374 5.8742 0
M  V30 1041 H 101.243 -1.06757 6.01195 0
M  V30 1042 H 102.657 1.16849 5.61266 0
M  V30 1043 H 101.054 1.95739 5.6728 0
M  V30 1044 H 102.124 2.25746 4.29147 0
M  V30 1045 N 103.467 -1.45747 0.599634 0
M  V30 1046 C 104.692 -2.07178 0.0960198 0
M  V30 1047 C 105.117 -1.44268 -1.207 0
M  V30 1048 O 104.475 -0.532503 -1.73303 0
M  V30 1049 C 104.523 -3.60579 -0.0385348 0
M  V30 1050 O 103.627 -3.97713 -1.0908 0
M  V30 1051 H 102.968 -0.660251 0.0704593 0
M  V30 1052 H 105.498 -1.87124 0.827385 0
M  V30 1053 H 105.508 -4.07298 -0.239304 0
M  V30 1054 H 104.183 -4.05756 0.912947 0
M  V30 1055 H 102.76 -3.62678 -0.867135 0
M  V30 1056 N 104.945 -0.338344 -1.53925 0
M  V30 1057 C 105.892 0.520845 -2.24846 0
M  V30 1058 C 106.862 1.09976 -1.24477 0
M  V30 1059 O 108.047 1.13735 -1.53196 0
M  V30 1060 C 105.187 1.6685 -3.02084 0
M  V30 1061 C 104.3 1.11739 -4.17299 0
M  V30 1062 C 103.435 2.23193 -4.82036 0
M  V30 1063 C 102.474 1.65407 -5.89328 0
M  V30 1064 N 101.611 2.70582 -6.47866 0
M  V30 1065 H 106.451 -0.0904881 -2.97863 0
M  V30 1066 H 103.988 -0.0564282 -1.46992 0
M  V30 1067 H 105.946 2.34407 -3.45122 0
M  V30 1068 H 104.576 2.2509 -2.31375 0
M  V30 1069 H 103.628 0.332919 -3.7894 0
M  V30 1070 H 104.94 0.654677 -4.94485 0
M  V30 1071 H 104.094 2.98626 -5.28117 0
M  V30 1072 H 102.833 2.72807 -4.04262 0
M  V30 1073 H 101.838 0.884779 -5.42634 0
M  V30 1074 H 103.063 1.16652 -6.69006 0
M  V30 1075 H 101.009 3.1946 -5.72959 0
M  V30 1076 H 100.926 2.28917 -7.20509 0
M  V30 1077 H 102.194 3.45799 -6.98601 0
M  V30 1078 N 106.423 1.57458 -0.0668435 0
M  V30 1079 C 107.669 1.93587 0.6043 0
M  V30 1080 C 108.002 0.946722 1.69561 0
M  V30 1081 O 107.277 -0.0248516 1.94484 0
M  V30 1082 C 107.56 3.40014 1.18585 0
M  V30 1083 C 107.413 4.49685 0.101529 0
M  V30 1084 C 108.732 3.87154 2.09284 0
M  V30 1085 H 105.851 0.703958 0.218202 0
M  V30 1086 H 108.493 1.89542 -0.131804 0
M  V30 1087 H 106.643 3.43592 1.81319 0
M  V30 1088 H 108.315 4.5823 -0.531279 0
M  V30 1089 H 106.558 4.30059 -0.568487 0
M  V30 1090 H 107.229 5.49266 0.54874 0
M  V30 1091 H 109.705 3.85551 1.56491 0
M  V30 1092 H 108.581 4.90231 2.46911 0
M  V30 1093 H 108.842 3.2481 2.99918 0
M  V30 1094 N 107.901 -0.206675 1.56239 0
M  V30 1095 C 108.848 -1.25617 1.93621 0
M  V30 1096 C 109.818 -1.45824 0.795274 0
M  V30 1097 O 111.003 -1.59148 1.05245 0
M  V30 1098 C 108.143 -2.59839 2.27107 0
M  V30 1099 C 107.256 -2.47308 3.54207 0
M  V30 1100 C 106.391 -3.74155 3.7707 0
M  V30 1101 C 105.43 -3.56407 4.97635 0
M  V30 1102 N 104.567 -4.75238 5.1681 0
M  V30 1103 H 109.407 -0.930383 2.83104 0
M  V30 1104 H 106.944 -0.448065 1.4011 0
M  V30 1105 H 108.902 -3.38021 2.44535 0
M  V30 1106 H 107.532 -2.90485 1.40778 0
M  V30 1107 H 106.584 -1.60483 3.4489 0
M  V30 1108 H 107.896 -2.30122 4.42544 0
M  V30 1109 H 107.05 -4.60778 3.94675 0
M  V30 1110 H 105.789 -3.94282 2.87042 0
M  V30 1111 H 104.794 -2.68168 4.79964 0
M  V30 1112 H 106.019 -3.37736 5.89161 0
M  V30 1113 H 103.965 -4.95651 4.29728 0
M  V30 1114 H 103.882 -4.60835 5.99306 0
M  V30 1115 H 105.15 -5.63246 5.38864 0
M  V30 1116 N 109.379 -1.50304 -0.473955 0
M  V30 1117 C 110.627 -1.60832 -1.22382 0
M  V30 1118 C 110.948 -0.30939 -1.9253 0
M  V30 1119 O 110.218 0.67296 -1.83978 0
M  V30 1120 H 108.798 -0.592652 -0.454723 0
M  V30 1121 H 111.46 -1.87068 -0.546968 0
M  V30 1122 H 110.556 -2.41803 -1.97327 0
M  V30 1123 N 110.857 0.726932 -1.39834 0
M  V30 1124 C 111.804 1.841 -1.39197 0
M  V30 1125 C 112.774 1.642 -0.250502 0
M  V30 1126 O 113.959 1.85494 -0.446846 0
M  V30 1127 C 111.099 3.21697 -1.24919 0
M  V30 1128 C 110.212 3.53247 -2.48678 0
M  V30 1129 C 109.347 4.80289 -2.26928 0
M  V30 1130 C 108.386 5.04707 -3.4632 0
M  V30 1131 N 107.523 6.22956 -3.23836 0
M  V30 1132 H 112.363 1.83979 -2.34427 0
M  V30 1133 H 109.9 0.898876 -1.16442 0
M  V30 1134 H 111.858 4.01137 -1.1465 0
M  V30 1135 H 110.488 3.21076 -0.333153 0
M  V30 1136 H 109.54 2.68447 -2.69519 0
M  V30 1137 H 110.852 3.67205 -3.37582 0
M  V30 1138 H 110.006 5.67725 -2.13947 0
M  V30 1139 H 108.745 4.68519 -1.35431 0
M  V30 1140 H 107.75 4.1573 -3.5979 0
M  V30 1141 H 108.975 5.18357 -4.38729 0
M  V30 1142 H 106.921 6.12459 -2.35011 0
M  V30 1143 H 106.838 6.37539 -4.063 0
M  V30 1144 H 108.106 7.1321 -3.14566 0
M  V30 1145 N 112.336 1.25143 0.95797 0
M  V30 1146 C 113.584 1.09476 1.69881 0
M  V30 1147 C 113.905 -0.365502 1.91544 0
M  V30 1148 O 113.175 -1.25985 1.50015 0
M  V30 1149 H 111.755 0.402128 0.629525 0
M  V30 1150 H 114.417 1.57214 1.15194 0
M  V30 1151 H 113.513 1.60046 2.6794 0
M  V30 1152 N 113.814 -1.1601 1.06675 0
M  V30 1153 C 114.777 -2.18724 0.685001 0
M  V30 1154 C 115.777 -1.58496 -0.271246 0
M  V30 1155 O 116.967 -1.74119 -0.0531156 0
M  V30 1156 C 114.099 -3.40899 0.00853648 0
M  V30 1157 H 115.292 -2.54011 1.59431 0
M  V30 1158 H 112.845 -1.30352 0.862441 0
M  V30 1159 H 113.58 -3.11173 -0.913337 0
M  V30 1160 H 113.365 -3.8587 0.696204 0
M  V30 1161 H 114.855 -4.16886 -0.24414 0
M  V30 1162 N 115.292 -0.849877 -1.32721 0
M  V30 1163 C 116.541 -0.447175 -1.96681 0
M  V30 1164 C 116.854 1.00135 -1.68025 0
M  V30 1165 O 118.06 1.50926 -2.25685 0
M  V30 1166 C 116.516 -0.7487 -3.52026 0
M  V30 1167 C 116.124 -2.21264 -3.89546 0
M  V30 1168 C 117.868 -0.413487 -4.22481 0
M  V30 1169 C 115.775 -2.45763 -5.37917 0
M  V30 1170 H 114.705 -0.163486 -0.736063 0
M  V30 1171 H 117.356 -1.03999 -1.51183 0
M  V30 1172 H 115.738 -0.0853727 -3.95908 0
M  V30 1173 H 116.912 -2.91736 -3.56689 0
M  V30 1174 H 115.227 -2.5119 -3.32103 0
M  V30 1175 H 117.824 -0.574017 -5.3161 0
M  V30 1176 H 118.167 0.644492 -4.11281 0
M  V30 1177 H 118.7 -1.03251 -3.84167 0
M  V30 1178 H 115.439 -3.50168 -5.54132 0
M  V30 1179 H 114.959 -1.79864 -5.72197 0
M  V30 1180 H 116.638 -2.29471 -6.0494 0
M  V30 1181 N 116.77 1.45427 -0.607355 0
M  V30 1182 C 118.018 2.01841 -0.102253 0
M  V30 1183 C 118.339 1.47832 1.27164 0
M  V30 1184 O 117.609 0.672497 1.83995 0
M  V30 1185 H 116.189 0.746188 -0.0348101 0
M  V30 1186 H 118.851 1.78229 -0.7887 0
M  V30 1187 H 117.947 3.12057 -0.0518585 0
M  V30 1188 N 118.248 0.346503 1.53744 0
M  V30 1189 C 119.198 -0.524953 2.21874 0
M  V30 1190 C 120.182 -1.06376 1.20718 0
M  V30 1191 O 121.374 -0.996972 1.46251 0
M  V30 1192 C 118.503 -1.6739 2.99726 0
M  V30 1193 C 117.589 -1.14888 4.08242 0
M  V30 1194 N 117.98 -0.345329 5.0462 0
M  V30 1195 C 116.278 -1.4255 4.22606 0
M  V30 1196 C 116.979 -0.0600706 5.81669 0
M  V30 1197 N 115.955 -0.65252 5.39669 0
M  V30 1198 H 119.757 0.0960091 2.93743 0
M  V30 1199 H 117.271 0.15352 1.61673 0
M  V30 1200 H 119.268 -2.3102 3.47038 0
M  V30 1201 H 117.928 -2.29811 2.29384 0
M  V30 1202 H 118.939 0.0138439 5.17898 0
M  V30 1203 H 115.616 -2.05389 3.63486 0
M  V30 1204 H 117.006 0.588321 6.69319 0
M  V30 1205 N 119.726 -1.57421 0.075193 0
M  V30 1206 C 120.972 -1.93905 -0.594025 0
M  V30 1207 C 121.305 -0.955701 -1.69056 0
M  V30 1208 O 120.58 0.0145373 -1.94495 0
M  V30 1209 C 120.863 -3.40638 -1.1678 0
M  V30 1210 C 120.716 -4.49733 -0.0776792 0
M  V30 1211 C 122.035 -3.88259 -2.07228 0
M  V30 1212 H 119.154 -0.705105 -0.214466 0
M  V30 1213 H 121.796 -1.8947 0.141854 0
M  V30 1214 H 119.946 -3.44549 -1.79494 0
M  V30 1215 H 121.618 -4.57942 0.555573 0
M  V30 1216 H 119.861 -4.29751 0.591286 0
M  V30 1217 H 120.532 -5.49549 -0.519603 0
M  V30 1218 H 123.008 -3.86376 -1.54445 0
M  V30 1219 H 121.884 -4.91533 -2.44308 0
M  V30 1220 H 122.145 -3.26396 -2.98191 0
M  V30 1221 N 121.204 0.198386 -1.56346 0
M  V30 1222 C 122.62 0.549085 -1.49857 0
M  V30 1223 C 122.82 1.86016 -0.774611 0
M  V30 1224 O 121.876 2.50416 -0.323776 0
M  V30 1225 C 123.189 0.606868 -2.94512 0
M  V30 1226 C 124.737 0.695925 -3.05165 0
M  V30 1227 C 125.212 0.784848 -4.51225 0
M  V30 1228 N 126.703 0.848463 -4.55363 0
M  V30 1229 C 127.438 0.937378 -5.65686 0
M  V30 1230 N 126.934 0.9888 -6.85707 0
M  V30 1231 N 128.727 0.974312 -5.53592 0
M  V30 1232 H 120.878 -0.661655 -2.01831 0
M  V30 1233 H 123.141 -0.235261 -0.918344 0
M  V30 1234 H 122.847 -0.28732 -3.50524 0
M  V30 1235 H 122.721 1.46268 -3.47686 0
M  V30 1236 H 125.108 1.58055 -2.49204 0
M  V30 1237 H 125.189 -0.186022 -2.55123 0
M  V30 1238 H 124.833 -0.0954072 -5.0781 0
M  V30 1239 H 124.763 1.68255 -4.98997 0
M  V30 1240 H 127.254 0.818103 -3.68938 0
M  V30 1241 H 127.567 1.05707 -7.65536 0
M  V30 1242 H 125.912 0.957534 -6.88372 0
M  V30 1243 H 129.103 0.930954 -4.58749 0
M  V30 1244 H 129.276 1.04015 -6.39597 0
M  V30 1245 N 122.682 1.50554 0.465978 0
M  V30 1246 C 123.912 1.65323 1.23903 0
M  V30 1247 C 124.32 0.338051 1.86155 0
M  V30 1248 O 123.663 -0.690518 1.70228 0
M  V30 1249 C 123.725 2.69048 2.3844 0
M  V30 1250 C 123.389 4.12462 1.96784 0
M  V30 1251 C 124.386 4.98168 1.48745 0
M  V30 1252 C 122.071 4.58407 2.05349 0
M  V30 1253 C 124.065 6.27868 1.0982 0
M  V30 1254 C 121.752 5.88112 1.66035 0
M  V30 1255 C 122.75 6.72668 1.18349 0
M  V30 1256 O 122.438 7.99951 0.795825 0
M  V30 1257 H 122.17 0.558629 0.38067 0
M  V30 1258 H 124.724 1.97561 0.562022 0
M  V30 1259 H 122.954 2.32062 3.09328 0
M  V30 1260 H 124.643 2.72985 3.0039 0
M  V30 1261 H 125.409 4.63885 1.41546 0
M  V30 1262 H 121.288 3.92735 2.41414 0
M  V30 1263 H 124.832 6.93819 0.725293 0
M  V30 1264 H 120.729 6.21914 1.72895 0
M  V30 1265 H 121.497 8.13265 0.924222 0
M  V30 1266 N 124.16 -0.719506 1.40217 0
M  V30 1267 C 125.123 -1.8153 1.39927 0
M  V30 1268 C 126.123 -1.58095 0.293723 0
M  V30 1269 O 127.313 -1.65209 0.552429 0
M  V30 1270 C 124.445 -3.19561 1.18716 0
M  V30 1271 H 125.638 -1.83186 2.37451 0
M  V30 1272 H 123.191 -0.924746 1.26008 0
M  V30 1273 H 123.926 -3.23557 0.219366 0
M  V30 1274 H 123.711 -3.3797 1.98793 0
M  V30 1275 H 125.201 -3.99598 1.21291 0
M  V30 1276 N 125.638 -1.25649 -0.95132 0
M  V30 1277 C 126.866 -1.13343 -1.73092 0
M  V30 1278 C 127.281 0.312434 -1.86197 0
M  V30 1279 O 126.638 1.21465 -1.36207 0
M  V30 1280 C 126.689 -1.78602 -3.14299 0
M  V30 1281 O 126.41 -3.17537 -3.01831 0
M  V30 1282 C 127.911 -1.72119 -4.08522 0
M  V30 1283 H 125.131 -0.395181 -0.542285 0
M  V30 1284 H 127.675 -1.66076 -1.19328 0
M  V30 1285 H 125.83 -1.29832 -3.64996 0
M  V30 1286 H 126.244 -3.49676 -3.90931 0
M  V30 1287 H 127.718 -2.22435 -5.052 0
M  V30 1288 H 128.195 -0.685635 -4.33815 0
M  V30 1289 H 128.801 -2.20393 -3.63741 0
M  V30 1290 N 127.117 1.15442 -1.07289 0
M  V30 1291 C 128.08 2.18358 -0.696591 0
M  V30 1292 C 129.08 1.58637 0.262837 0
M  V30 1293 O 130.27 1.74145 0.0438809 0
M  V30 1294 C 127.402 3.4089 -0.0266151 0
M  V30 1295 H 128.595 2.53162 -1.60776 0
M  V30 1296 H 126.148 1.29893 -0.869342 0
M  V30 1297 H 126.883 3.11653 0.896822 0
M  V30 1298 H 126.668 3.85495 -0.716657 0
M  V30 1299 H 128.158 4.17009 0.222028 0
M  V30 1300 N 128.595 0.856903 1.32268 0
M  V30 1301 C 129.843 0.460474 1.96784 0
M  V30 1302 C 130.164 -0.987701 1.68135 0
M  V30 1303 O 129.434 -1.69058 0.989765 0
M  V30 1304 H 128.014 0.167289 0.728027 0
M  V30 1305 H 130.676 1.09383 1.61312 0
M  V30 1306 H 129.772 0.60739 3.06133 0
M  V30 1307 N 130.073 -1.45103 0.615059 0
M  V30 1308 C 131.321 -2.01784 0.112955 0
M  V30 1309 C 131.642 -1.48504 -1.26378 0
M  V30 1310 O 130.912 -0.682245 -1.83636 0
M  V30 1311 H 129.492 -0.745993 0.0387668 0
M  V30 1312 H 132.154 -1.77808 0.798141 0
M  V30 1313 H 131.25 -3.12025 0.0684069 0
M  V30 1314 N 131.551 -0.354651 -1.53558 0
M  V30 1315 C 132.799 0.237972 -2.00694 0
M  V30 1316 C 133.12 1.50173 -1.24391 0
M  V30 1317 O 132.39 1.92673 -0.354135 0
M  V30 1318 H 130.97 0.0909256 -0.741446 0
M  V30 1319 H 133.632 -0.478368 -1.88938 0
M  V30 1320 H 132.728 0.47264 -3.085 0
M  V30 1321 N 133.029 1.57378 -0.0835403 0
M  V30 1322 C 134.277 1.93547 0.581718 0
M  V30 1323 C 134.598 0.96524 1.69435 0
M  V30 1324 O 133.868 0.0153369 1.95894 0
M  V30 1325 H 132.448 0.714521 0.217874 0
M  V30 1326 H 135.11 1.94366 -0.144158 0
M  V30 1327 H 134.206 2.95665 0.999423 0
M  V30 1328 N 134.507 -0.190092 1.56449 0
M  V30 1329 C 135.737 -0.92443 1.84764 0
M  V30 1330 C 136.145 -1.77146 0.664529 0
M  V30 1331 O 135.488 -1.79812 -0.375957 0
M  V30 1332 C 135.55 -1.86651 3.07248 0
M  V30 1333 C 135.214 -1.20094 4.40938 0
M  V30 1334 C 136.211 -0.575445 5.16706 0
M  V30 1335 C 133.896 -1.2033 4.87674 0
M  V30 1336 C 135.89 0.0388111 6.37388 0
M  V30 1337 C 133.577 -0.585214 6.08291 0
M  V30 1338 C 134.575 0.0347578 6.82991 0
M  V30 1339 O 134.263 0.643147 8.01323 0
M  V30 1340 H 133.995 -0.274974 0.617548 0
M  V30 1341 H 136.549 -0.200788 2.04416 0
M  V30 1342 H 134.779 -2.62998 2.83494 0
M  V30 1343 H 136.468 -2.46907 3.22167 0
M  V30 1344 H 137.234 -0.565728 4.81689 0
M  V30 1345 H 133.113 -1.67526 4.29484 0
M  V30 1346 H 136.657 0.523329 6.95634 0
M  V30 1347 H 132.554 -0.592451 6.42775 0
M  V30 1348 H 133.322 0.540545 8.16713 0
M  V30 1349 N 135.985 -1.50799 -0.457987 0
M  V30 1350 C 136.895 -1.73426 -1.57989 0
M  V30 1351 C 137.911 -0.617745 -1.62665 0
M  V30 1352 O 139.087 -0.897614 -1.80291 0
M  V30 1353 C 136.152 -1.83557 -2.94122 0
M  V30 1354 C 135.213 -3.07345 -2.99729 0
M  V30 1355 C 134.446 -3.16983 -4.29368 0
M  V30 1356 O 134.669 -2.33077 -5.20607 0
M  V30 1357 O 133.603 -4.09812 -4.40837 0
M  V30 1358 H 137.429 -2.68555 -1.41817 0
M  V30 1359 H 135.014 -1.35052 -0.638859 0
M  V30 1360 H 136.896 -1.92326 -3.74952 0
M  V30 1361 H 135.571 -0.916137 -3.10465 0
M  V30 1362 H 134.478 -3.04068 -2.1793 0
M  V30 1363 H 135.811 -3.9891 -2.88326 0
M  V30 1364 N 137.463 0.71206 -1.40597 0
M  V30 1365 C 138.411 1.84746 -1.41321 0
M  V30 1366 C 139.405 1.66842 -0.293268 0
M  V30 1367 O 140.611 1.73904 -0.464481 0
M  V30 1368 H 136.986 0.608522 -0.441819 0
M  V30 1369 H 138.957 1.81252 -2.37045 0
M  V30 1370 C 137.706 3.22638 -1.29614 0
M  V30 1371 H 137.029 3.37023 -2.15071 0
M  V30 1372 H 138.469 4.02209 -1.3418 0
M  V30 1373 C 136.928 3.36899 -0.00673121 0
M  V30 1374 O 137.458 3.90186 0.954859 0
M  V30 1375 N 135.664 2.9053 0.0639327 0
M  V30 1376 H 135.211 2.47353 -0.719311 0
M  V30 1377 H 135.169 3.0045 0.926118 0
M  V30 1378 N 138.941 1.26152 0.944643 0
M  V30 1379 C 140.187 1.11657 1.69294 0
M  V30 1380 C 140.52 -0.339926 1.91202 0
M  V30 1381 O 139.795 -1.24994 1.49019 0
M  V30 1382 C 140.078 1.88236 3.06984 0
M  V30 1383 C 139.931 3.41772 2.92424 0
M  V30 1384 C 141.25 1.67343 4.07043 0
M  V30 1385 H 138.369 0.407004 0.614424 0
M  V30 1386 H 141.011 1.55106 1.09737 0
M  V30 1387 H 139.161 1.51308 3.57824 0
M  V30 1388 H 140.833 3.88433 2.48832 0
M  V30 1389 H 139.076 3.68974 2.28124 0
M  V30 1390 H 139.747 3.90579 3.90067 0
M  V30 1391 H 142.223 1.99509 3.65151 0
M  V30 1392 H 141.099 2.23346 5.01406 0
M  V30 1393 H 141.36 0.617158 4.37771 0
M  V30 1394 N 140.419 -1.14872 1.07899 0
M  V30 1395 C 141.351 -2.19425 0.662231 0
M  V30 1396 C 142.364 -1.60231 -0.288079 0
M  V30 1397 O 143.553 -1.78336 -0.076534 0
M  V30 1398 C 140.653 -3.38867 -0.0470695 0
M  V30 1399 C 139.826 -4.27597 0.920831 0
M  V30 1400 C 138.885 -5.25616 0.247805 0
M  V30 1401 O 137.911 -5.62189 0.890599 0
M  V30 1402 N 139.113 -5.71746 -1.00435 0
M  V30 1403 H 141.878 -2.55797 1.56166 0
M  V30 1404 H 139.439 -1.30042 0.964404 0
M  V30 1405 H 141.431 -4.01497 -0.50813 0
M  V30 1406 H 140.001 -3.00864 -0.848523 0
M  V30 1407 H 139.221 -3.61982 1.56087 0
M  V30 1408 H 140.509 -4.83748 1.57688 0
M  V30 1409 H 139.907 -5.44153 -1.54642 0
M  V30 1410 H 138.464 -6.36389 -1.40899 0
M  V30 1411 N 141.898 -0.863906 -1.31812 0
M  V30 1412 C 143.309 -0.52522 -1.7916 0
M  V30 1413 C 143.66 0.957518 -1.71248 0
M  V30 1414 O 142.785 1.74734 -1.27659 0
M  V30 1415 C 143.38 -0.9466 -3.25307 0
M  V30 1416 C 141.939 -0.659668 -3.70574 0
M  V30 1417 C 141.086 -1.14126 -2.52726 0
M  V30 1418 H 144.037 -1.05022 -1.1898 0
M  V30 1419 H 144.058 -0.266766 -3.79564 0
M  V30 1420 H 143.57 -2.02579 -3.31034 0
M  V30 1421 H 141.671 0.408416 -3.70355 0
M  V30 1422 H 141.784 -1.23245 -4.62977 0
M  V30 1423 H 140.148 -0.561216 -2.4844 0
M  V30 1424 H 140.931 -2.22775 -2.61201 0
M  V30 1425 N 143.376 1.44774 -0.622745 0
M  V30 1426 C 144.306 2.33382 0.0741861 0
M  V30 1427 C 145.287 1.47719 0.843387 0
M  V30 1428 O 146.472 1.76458 0.810934 0
M  V30 1429 C 143.602 3.30663 1.06204 0
M  V30 1430 C 142.556 4.26079 0.405037 0
M  V30 1431 C 141.882 5.13165 1.5022 0
M  V30 1432 C 143.182 5.1781 -0.683414 0
M  V30 1433 H 144.876 2.91905 -0.665713 0
M  V30 1434 H 142.422 1.40363 -0.321587 0
M  V30 1435 H 144.375 3.9153 1.55827 0
M  V30 1436 H 143.099 2.70331 1.83272 0
M  V30 1437 H 141.758 3.66532 -0.0704683 0
M  V30 1438 H 141.406 4.49191 2.26355 0
M  V30 1439 H 141.106 5.77812 1.06803 0
M  V30 1440 H 142.63 5.76902 2.00041 0
M  V30 1441 H 144.044 5.72661 -0.270631 0
M  V30 1442 H 142.441 5.91015 -1.04023 0
M  V30 1443 H 143.511 4.59326 -1.55395 0
M  V30 1444 N 144.854 0.36279 1.53368 0
M  V30 1445 C 145.784 -0.476976 2.28576 0
M  V30 1446 C 146.765 -1.08631 1.30894 0
M  V30 1447 O 147.95 -1.10409 1.59761 0
M  V30 1448 C 145.08 -1.61828 3.07293 0
M  V30 1449 C 144.034 -1.13633 4.1264 0
M  V30 1450 C 143.36 -2.36766 4.79423 0
M  V30 1451 C 144.66 -0.223061 5.21823 0
M  V30 1452 H 146.354 0.150474 2.99022 0
M  V30 1453 H 143.9 0.0738103 1.43811 0
M  V30 1454 H 145.853 -2.21237 3.58653 0
M  V30 1455 H 144.577 -2.27292 2.34533 0
M  V30 1456 H 143.236 -0.564945 3.62221 0
M  V30 1457 H 142.884 -3.0068 4.03238 0
M  V30 1458 H 142.584 -2.05192 5.50609 0
M  V30 1459 H 144.108 -2.96865 5.33576 0
M  V30 1460 H 145.522 -0.724545 5.68703 0
M  V30 1461 H 143.919 0.001678 6.001 0
M  V30 1462 H 144.989 0.735553 4.79289 0
M  V30 1463 N 146.332 -1.57332 0.0918853 0
M  V30 1464 C 147.579 -1.94236 -0.572577 0
M  V30 1465 C 147.907 -0.973398 -1.6839 0
M  V30 1466 O 147.162 0.00756912 -1.95699 0
M  V30 1467 C 147.461 -3.37689 -1.17051 0
M  V30 1468 C 147.127 -4.50527 -0.183304 0
M  V30 1469 C 145.789 -4.81119 0.0882276 0
M  V30 1470 C 148.141 -5.18883 0.49095 0
M  V30 1471 C 145.469 -5.77395 1.04076 0
M  V30 1472 C 147.821 -6.1618 1.43193 0
M  V30 1473 C 146.485 -6.45179 1.71173 0
M  V30 1474 H 145.755 -0.710762 -0.209521 0
M  V30 1475 H 148.402 -1.9077 0.167036 0
M  V30 1476 H 146.707 -3.37718 -1.9863 0
M  V30 1477 H 148.404 -3.63543 -1.69227 0
M  V30 1478 H 144.994 -4.26681 -0.405124 0
M  V30 1479 H 149.178 -4.95427 0.294312 0
M  V30 1480 H 144.434 -5.98179 1.26457 0
M  V30 1481 H 148.608 -6.68243 1.96023 0
M  V30 1482 H 146.235 -7.1959 2.4514 0
M  V30 1483 N 147.81 0.181792 -1.56548 0
M  V30 1484 C 149.226 0.53316 -1.50431 0
M  V30 1485 C 149.426 1.85184 -0.794297 0
M  V30 1486 O 148.482 2.50058 -0.350318 0
M  V30 1487 C 149.795 0.575597 -2.9514 0
M  V30 1488 C 151.343 0.663519 -3.05886 0
M  V30 1489 C 151.818 0.736946 -4.52032 0
M  V30 1490 N 153.309 0.800118 -4.56237 0
M  V30 1491 C 154.044 0.877327 -5.66649 0
M  V30 1492 N 153.54 0.916016 -6.86718 0
M  V30 1493 N 155.333 0.915542 -5.54594 0
M  V30 1494 H 147.484 -0.683025 -2.01118 0
M  V30 1495 H 149.747 -0.244988 -0.915797 0
M  V30 1496 H 149.453 -0.324482 -3.502 0
M  V30 1497 H 149.327 1.42572 -3.49218 0
M  V30 1498 H 151.714 1.55403 -2.50867 0
M  V30 1499 H 151.795 -0.21307 -2.54911 0
M  V30 1500 H 151.439 -0.149262 -5.07681 0
M  V30 1501 H 151.369 1.62953 -5.00753 0
M  V30 1502 H 153.86 0.778926 -3.69785 0
M  V30 1503 H 154.173 0.975813 -7.66614 0
M  V30 1504 H 152.518 0.884469 -6.89349 0
M  V30 1505 H 155.709 0.882245 -4.59711 0
M  V30 1506 H 155.882 0.972253 -6.40665 0
M  V30 1507 N 149.288 1.51039 0.449983 0
M  V30 1508 C 150.513 1.6715 1.22783 0
M  V30 1509 C 150.938 0.363081 1.84563 0
M  V30 1510 O 150.296 -0.675433 1.68249 0
M  V30 1511 C 150.344 2.77985 2.29689 0
M  V30 1512 O 149.448 2.40707 3.34864 0
M  V30 1513 H 148.789 0.557746 0.360299 0
M  V30 1514 H 151.319 1.97535 0.533005 0
M  V30 1515 H 151.329 3.01693 2.74673 0
M  V30 1516 H 150.004 3.72935 1.84098 0
M  V30 1517 H 148.581 2.27523 2.95445 0
M  V30 1518 N 150.766 -0.704594 1.40972 0
M  V30 1519 C 151.698 -1.82974 1.38033 0
M  V30 1520 C 152.711 -1.60305 0.283931 0
M  V30 1521 O 153.9 -1.69975 0.545042 0
M  V30 1522 C 151 -3.19578 1.12795 0
M  V30 1523 C 150.173 -3.69352 2.34302 0
M  V30 1524 C 149.232 -4.84601 2.05058 0
M  V30 1525 O 148.258 -4.96682 2.7802 0
M  V30 1526 N 149.46 -5.71194 1.03528 0
M  V30 1527 H 152.225 -1.85991 2.35005 0
M  V30 1528 H 149.786 -0.886567 1.35468 0
M  V30 1529 H 151.778 -3.9429 0.911987 0
M  V30 1530 H 150.348 -3.11642 0.24452 0
M  V30 1531 H 149.568 -2.85649 2.71659 0
M  V30 1532 H 150.856 -3.99345 3.1528 0
M  V30 1533 H 150.254 -5.64054 0.431217 0
M  V30 1534 H 148.811 -6.45843 0.879205 0
M  V30 1535 N 152.244 -1.26651 -0.937939 0
M  V30 1536 C 153.192 -1.08308 -2.05845 0
M  V30 1537 C 154.186 -0.0090757 -1.69398 0
M  V30 1538 O 155.392 -0.166007 -1.79233 0
M  V30 1539 H 151.767 -0.333416 -0.674046 0
M  V30 1540 H 153.738 -2.03261 -2.18467 0
M  V30 1541 C 152.487 -0.736229 -3.39816 0
M  V30 1542 H 151.81 -1.55453 -3.6834 0
M  V30 1543 H 153.25 -0.64769 -4.19024 0
M  V30 1544 C 151.709 0.558824 -3.32233 0
M  V30 1545 O 152.239 1.59621 -3.68624 0
M  V30 1546 N 150.445 0.550657 -2.85335 0
M  V30 1547 H 149.992 -0.293943 -2.55917 0
M  V30 1548 H 149.95 1.41726 -2.80644 0
M  V30 1549 N 153.722 1.14298 -1.08507 0
M  V30 1550 C 154.67 2.21483 -0.710483 0
M  V30 1551 C 155.664 1.66998 0.284234 0
M  V30 1552 O 156.87 1.79401 0.146692 0
M  V30 1553 H 153.245 0.721578 -0.211729 0
M  V30 1554 H 155.216 2.50348 -1.62384 0
M  V30 1555 C 153.965 3.4743 -0.137007 0
M  V30 1556 H 153.288 3.89686 -0.893592 0
M  V30 1557 H 154.728 4.2391 0.0872789 0
M  V30 1558 C 153.187 3.17548 1.12538 0
M  V30 1559 O 153.717 3.35437 2.21009 0
M  V30 1560 N 151.923 2.71499 1.03617 0
M  V30 1561 H 151.47 2.57143 0.153403 0
M  V30 1562 H 151.428 2.51881 1.88158 0
M  V30 1563 N 155.201 0.870884 1.31352 0
M  V30 1564 C 156.449 0.48132 1.96285 0
M  V30 1565 C 156.77 -0.969813 1.69173 0
M  V30 1566 O 156.04 -1.67998 1.00764 0
M  V30 1567 H 154.62 0.175002 0.726212 0
M  V30 1568 H 157.282 1.11087 1.60143 0
M  V30 1569 H 156.378 0.639825 3.05471 0
M  V30 1570 N 156.679 -1.44442 0.630414 0
M  V30 1571 C 157.904 -2.06927 0.139944 0
M  V30 1572 C 158.329 -1.46795 -1.17613 0
M  V30 1573 O 157.687 -0.569144 -1.72135 0
M  V30 1574 C 157.735 -3.6058 0.0379581 0
M  V30 1575 O 156.839 -3.99937 -1.0062 0
M  V30 1576 H 156.18 -0.658608 0.0844483 0
M  V30 1577 H 158.71 -1.85327 0.866891 0
M  V30 1578 H 158.72 -4.07714 -0.152856 0
M  V30 1579 H 157.395 -4.03728 0.998809 0
M  V30 1580 H 155.972 -3.64436 -0.79001 0
M  V30 1581 N 158.157 -0.370918 -1.53173 0
M  V30 1582 C 159.087 0.464847 -2.28826 0
M  V30 1583 C 160.068 1.07936 -1.31468 0
M  V30 1584 O 161.253 1.0956 -1.60344 0
M  V30 1585 C 158.383 1.60196 -3.08147 0
M  V30 1586 C 157.337 1.11443 -4.13237 0
M  V30 1587 C 156.663 2.3422 -4.80672 0
M  V30 1588 C 157.963 0.195384 -5.21934 0
M  V30 1589 H 159.657 -0.166329 -2.98938 0
M  V30 1590 H 157.203 -0.0814359 -1.4377 0
M  V30 1591 H 159.156 2.19332 -3.59822 0
M  V30 1592 H 157.88 2.26045 -2.35735 0
M  V30 1593 H 156.539 0.545727 -3.62515 0
M  V30 1594 H 156.187 2.98537 -4.04827 0
M  V30 1595 H 155.887 2.02269 -5.51689 0
M  V30 1596 H 157.411 2.94032 -5.35143 0
M  V30 1597 H 158.825 0.694375 -5.69079 0
M  V30 1598 H 157.222 -0.0335027 -6.00091 0
M  V30 1599 H 158.292 -0.760961 -4.78892 0
M  V30 1600 N 159.635 1.57281 -0.100228 0
M  V30 1601 C 160.598 2.13158 0.842398 0
M  V30 1602 C 161.598 1.06202 1.20738 0
M  V30 1603 O 162.788 1.32066 1.13597 0
M  V30 1604 C 159.92 2.65639 2.13655 0
M  V30 1605 H 161.113 2.97766 0.357114 0
M  V30 1606 H 158.666 1.5559 0.148823 0
M  V30 1607 H 159.401 1.84566 2.66657 0
M  V30 1608 H 159.186 3.43844 1.88451 0
M  V30 1609 H 160.676 3.08846 2.81077 0
M  V30 1610 N 161.113 -0.173488 1.56642 0
M  V30 1611 C 162.043 -1.2171 1.99271 0
M  V30 1612 C 163.024 -1.46289 0.867959 0
M  V30 1613 O 164.209 -1.5766 1.13388 0
M  V30 1614 C 161.339 -2.55651 2.35074 0
M  V30 1615 C 160.293 -2.45645 3.50489 0
M  V30 1616 C 159.619 -3.84056 3.72028 0
M  V30 1617 C 160.919 -1.96302 4.84007 0
M  V30 1618 H 162.613 -0.86275 2.867 0
M  V30 1619 H 160.159 -0.413571 1.37933 0
M  V30 1620 H 162.112 -3.2886 2.63494 0
M  V30 1621 H 160.836 -2.92869 1.44552 0
M  V30 1622 H 159.495 -1.7489 3.22194 0
M  V30 1623 H 159.143 -4.18664 2.788 0
M  V30 1624 H 158.843 -3.7823 4.49684 0
M  V30 1625 H 160.367 -4.58854 4.02846 0
M  V30 1626 H 161.781 -2.59284 5.11317 0
M  V30 1627 H 160.178 -2.01429 5.65284 0
M  V30 1628 H 161.248 -0.917226 4.76146 0
M  V30 1629 N 162.591 -1.51276 -0.441967 0
M  V30 1630 C 163.554 -1.7167 -1.51862 0
M  V30 1631 C 164.554 -0.586793 -1.49711 0
M  V30 1632 O 165.744 -0.854276 -1.51815 0
M  V30 1633 C 162.876 -1.76889 -2.91416 0
M  V30 1634 H 164.069 -2.67754 -1.35084 0
M  V30 1635 H 161.622 -1.41196 -0.670333 0
M  V30 1636 H 162.357 -0.826026 -3.13604 0
M  V30 1637 H 162.142 -2.59001 -2.94382 0
M  V30 1638 H 163.632 -1.94522 -3.69528 0
M  V30 1639 N 164.069 0.697108 -1.41344 0
M  V30 1640 C 165.019 1.80313 -1.39539 0
M  V30 1641 C 166.003 1.58618 -0.270001 0
M  V30 1642 O 167.195 1.69477 -0.510551 0
M  V30 1643 C 164.324 3.18606 -1.27848 0
M  V30 1644 C 163.41 3.46001 -2.45244 0
M  V30 1645 N 163.801 3.44103 -3.70711 0
M  V30 1646 C 162.099 3.76542 -2.39023 0
M  V30 1647 C 162.8 3.7036 -4.48563 0
M  V30 1648 N 161.776 3.90027 -3.78655 0
M  V30 1649 H 165.578 1.77207 -2.34468 0
M  V30 1650 H 163.092 0.897031 -1.35378 0
M  V30 1651 H 165.089 3.97833 -1.24637 0
M  V30 1652 H 163.749 3.22925 -0.339032 0
M  V30 1653 H 164.76 3.2452 -4.03618 0
M  V30 1654 H 161.437 3.88241 -1.53542 0
M  V30 1655 H 162.827 3.75042 -5.57488 0
M  V30 1656 N 165.547 1.27147 0.931209 0
M  V30 1657 C 166.495 1.09398 2.05268 0
M  V30 1658 C 167.489 0.0180591 1.6939 0
M  V30 1659 O 168.695 0.17551 1.79142 0
M  V30 1660 H 165.07 0.336986 0.672268 0
M  V30 1661 H 167.041 2.04416 2.17386 0
M  V30 1662 C 165.79 0.75424 3.39421 0
M  V30 1663 H 165.113 1.57404 3.67511 0
M  V30 1664 H 166.553 0.669903 4.18674 0
M  V30 1665 C 165.012 -0.541197 3.32525 0
M  V30 1666 O 165.542 -1.57664 3.69466 0
M  V30 1667 N 163.748 -0.535517 2.85623 0
M  V30 1668 H 163.295 0.307511 2.55758 0
M  V30 1669 H 163.253 -1.40236 2.81392 0
M  V30 1670 N 167.025 -1.13721 1.09112 0
M  V30 1671 C 168.273 -1.84559 0.823562 0
M  V30 1672 C 168.594 -1.83754 -0.652658 0
M  V30 1673 O 167.864 -1.29102 -1.47342 0
M  V30 1674 H 166.444 -0.683376 0.301673 0
M  V30 1675 H 169.106 -1.37771 1.37859 0
M  V30 1676 H 168.202 -2.8917 1.17419 0
M  V30 1677 N 168.503 -0.877838 -1.30888 0
M  V30 1678 C 169.451 -0.328662 -2.30266 0
M  V30 1679 C 170.445 0.560496 -1.59859 0
M  V30 1680 O 171.651 0.445722 -1.74394 0
M  V30 1681 H 168.026 -0.0876142 -0.746879 0
M  V30 1682 H 169.997 -1.18061 -2.74051 0
M  V30 1683 C 168.746 0.448071 -3.44801 0
M  V30 1684 H 168.069 -0.226859 -3.99156 0
M  V30 1685 H 169.509 0.797541 -4.16432 0
M  V30 1686 C 167.968 1.64239 -2.94155 0
M  V30 1687 O 168.498 2.74175 -2.93583 0
M  V30 1688 N 166.704 1.47716 -2.50256 0
M  V30 1689 H 166.251 0.582821 -2.5092 0
M  V30 1690 H 166.209 2.27765 -2.16727 0
M  V30 1691 N 169.982 1.44106 -0.638065 0
M  V30 1692 C 170.912 2.33448 0.0494287 0
M  V30 1693 C 171.893 1.48606 0.827672 0
M  V30 1694 O 173.078 1.77308 0.792173 0
M  V30 1695 C 170.208 3.31771 1.02691 0
M  V30 1696 C 169.162 4.26485 0.359823 0
M  V30 1697 C 168.488 5.14729 1.44769 0
M  V30 1698 C 169.788 5.17056 -0.738296 0
M  V30 1699 H 171.482 2.91183 -0.696636 0
M  V30 1700 H 169.028 1.40014 -0.336456 0
M  V30 1701 H 170.981 3.93161 1.51666 0
M  V30 1702 H 169.705 2.7226 1.80395 0
M  V30 1703 H 168.364 3.66437 -0.10934 0
M  V30 1704 H 168.012 4.51566 2.21578 0
M  V30 1705 H 167.712 5.78913 1.00668 0
M  V30 1706 H 169.236 5.78991 1.93911 0
M  V30 1707 H 170.65 5.72342 -0.331354 0
M  V30 1708 H 169.047 5.89879 -1.10286 0
M  V30 1709 H 170.117 4.57652 -1.60258 0
M  V30 1710 N 171.46 0.379036 1.52974 0
M  V30 1711 C 172.706 -0.206727 2.01744 0
M  V30 1712 C 173.039 -1.47314 1.26539 0
M  V30 1713 O 172.314 -1.91084 0.362903 0
M  V30 1714 C 172.597 -0.485066 3.56818 0
M  V30 1715 C 172.45 0.795919 4.42702 0
M  V30 1716 C 173.769 -1.28003 4.21074 0
M  V30 1717 H 170.888 -0.0736607 0.73331 0
M  V30 1718 H 173.53 0.506581 1.83122 0
M  V30 1719 H 171.68 -1.09272 3.72816 0
M  V30 1720 H 173.352 1.43307 4.38476 0
M  V30 1721 H 171.595 1.41344 4.10127 0
M  V30 1722 H 172.266 0.555947 5.49193 0
M  V30 1723 H 174.742 -0.765867 4.08991 0
M  V30 1724 H 173.618 -1.44352 5.29579 0
M  V30 1725 H 173.879 -2.29236 3.78026 0
M  V30 1726 N 172.938 -1.57226 0.108567 0
M  V30 1727 C 173.886 -2.16002 -0.862885 0
M  V30 1728 C 174.88 -1.10644 -1.28274 0
M  V30 1729 O 176.086 -1.28966 -1.2557 0
M  V30 1730 H 172.461 -0.691148 -0.296342 0
M  V30 1731 H 174.432 -2.96427 -0.342575 0
M  V30 1732 C 173.181 -2.76576 -2.10716 0
M  V30 1733 H 172.504 -3.5734 -1.793 0
M  V30 1734 H 173.944 -3.21253 -2.76717 0
M  V30 1735 C 172.403 -1.73137 -2.89007 0
M  V30 1736 O 172.933 -1.17842 -3.84026 0
M  V30 1737 N 171.139 -1.43317 -2.52801 0
M  V30 1738 H 170.686 -1.88473 -1.75601 0
M  V30 1739 H 170.644 -0.743485 -3.05483 0
M  V30 1740 N 174.416 0.165178 -1.56732 0
M  V30 1741 C 175.379 1.18822 -1.95995 0
M  V30 1742 C 176.379 1.3685 -0.84431 0
M  V30 1743 O 177.569 1.34152 -1.11126 0
M  V30 1744 C 174.701 2.5521 -2.26011 0
M  V30 1745 H 175.894 0.851825 -2.87548 0
M  V30 1746 H 173.447 0.407857 -1.50885 0
M  V30 1747 H 174.182 2.93852 -1.37191 0
M  V30 1748 H 173.967 2.43489 -3.07336 0
M  V30 1749 H 175.457 3.28927 -2.57288 0
M  V30 1750 N 175.894 1.51508 0.433938 0
M  V30 1751 C 177.122 1.68157 1.20543 0
M  V30 1752 C 177.537 0.380362 1.84929 0
M  V30 1753 O 176.894 -0.641446 1.70856 0
M  V30 1754 C 176.945 2.79965 2.28696 0
M  V30 1755 O 176.666 4.05045 1.66943 0
M  V30 1756 C 178.167 3.07912 3.18912 0
M  V30 1757 H 175.387 0.56421 0.363191 0
M  V30 1758 H 177.931 1.97941 0.513754 0
M  V30 1759 H 176.086 2.5277 2.93574 0
M  V30 1760 H 176.5 4.67165 2.38448 0
M  V30 1761 H 177.974 3.89719 3.90926 0
M  V30 1762 H 178.451 2.20456 3.79863 0
M  V30 1763 H 179.057 3.36779 2.59731 0
M  V30 1764 N 177.372 -0.689602 1.41712 0
M  V30 1765 C 178.304 -1.815 1.39966 0
M  V30 1766 C 179.317 -1.59995 0.300917 0
M  V30 1767 O 180.506 -1.69387 0.563039 0
M  V30 1768 C 177.606 -3.18364 1.16179 0
M  V30 1769 C 176.779 -3.66847 2.38206 0
M  V30 1770 C 175.838 -4.82398 2.10186 0
M  V30 1771 O 174.864 -4.93706 2.83272 0
M  V30 1772 N 176.066 -5.70064 1.0958 0
M  V30 1773 H 178.831 -1.83488 2.36965 0
M  V30 1774 H 176.392 -0.872149 1.36401 0
M  V30 1775 H 178.384 -3.93301 0.953756 0
M  V30 1776 H 176.954 -3.11365 0.27756 0
M  V30 1777 H 176.174 -2.82751 2.74673 0
M  V30 1778 H 177.462 -3.95978 3.19498 0
M  V30 1779 H 176.86 -5.63565 0.491019 0
M  V30 1780 H 175.417 -6.44874 0.947656 0
M  V30 1781 N 178.85 -1.27639 -0.924453 0
M  V30 1782 C 179.78 -1.13166 -2.04244 0
M  V30 1783 C 180.761 -0.032256 -1.70069 0
M  V30 1784 O 181.946 -0.207328 -1.9309 0
M  V30 1785 C 179.076 -0.781496 -3.38393 0
M  V30 1786 C 178.03 -1.83449 -3.86692 0
M  V30 1787 C 177.356 -1.33822 -5.17683 0
M  V30 1788 C 178.656 -3.23917 -4.09726 0
M  V30 1789 H 180.35 -2.06689 -2.1661 0
M  V30 1790 H 177.896 -0.995136 -1.04082 0
M  V30 1791 H 179.849 -0.667057 -4.16087 0
M  V30 1792 H 178.573 0.189439 -3.2605 0
M  V30 1793 H 177.232 -1.93789 -3.11193 0
M  V30 1794 H 176.88 -0.35665 -5.01734 0
M  V30 1795 H 176.58 -2.04224 -5.50968 0
M  V30 1796 H 178.104 -1.23679 -5.97943 0
M  V30 1797 H 179.518 -3.16559 -4.77978 0
M  V30 1798 H 177.915 -3.92059 -4.54324 0
M  V30 1799 H 178.985 -3.68729 -3.14908 0
M  V30 1800 N 180.328 1.1314 -1.09713 0
M  V30 1801 C 181.275 2.18642 -0.739196 0
M  V30 1802 C 182.245 1.63706 0.280978 0
M  V30 1803 O 183.43 1.90111 0.161946 0
M  V30 1804 C 180.57 3.44685 -0.169102 0
M  V30 1805 C 179.683 4.13711 -1.24367 0
M  V30 1806 C 178.818 5.27379 -0.636019 0
M  V30 1807 C 177.857 5.88259 -1.69169 0
M  V30 1808 N 176.994 6.93352 -1.10485 0
M  V30 1809 H 181.834 2.48607 -1.64312 0
M  V30 1810 H 179.371 1.22066 -0.820875 0
M  V30 1811 H 181.329 4.16815 0.179256 0
M  V30 1812 H 179.959 3.15161 0.698079 0
M  V30 1813 H 179.011 3.39835 -1.70927 0
M  V30 1814 H 180.323 4.55037 -2.04311 0
M  V30 1815 H 179.477 6.06238 -0.236677 0
M  V30 1816 H 178.216 4.8731 0.194928 0
M  V30 1817 H 177.221 5.08092 -2.10055 0
M  V30 1818 H 178.446 6.30399 -2.52536 0
M  V30 1819 H 176.392 6.55335 -0.295234 0
M  V30 1820 H 176.309 7.33236 -1.84121 0
M  V30 1821 H 177.577 7.76057 -0.73181 0
M  V30 1822 N 181.806 0.884767 1.30421 0
M  V30 1823 C 182.738 0.308655 2.27112 0
M  V30 1824 C 183.751 -0.536655 1.53701 0
M  V30 1825 O 184.94 -0.35624 1.74909 0
M  V30 1826 C 182.04 -0.579782 3.33904 0
M  V30 1827 C 181.213 0.236417 4.36761 0
M  V30 1828 C 180.272 -0.582482 5.22966 0
M  V30 1829 O 179.298 -0.00525502 5.692 0
M  V30 1830 N 180.5 -1.89163 5.48815 0
M  V30 1831 H 183.265 1.13964 2.77186 0
M  V30 1832 H 180.826 0.747731 1.43599 0
M  V30 1833 H 182.818 -1.13366 3.88497 0
M  V30 1834 H 181.388 -1.31144 2.83761 0
M  V30 1835 H 180.608 0.97174 3.82035 0
M  V30 1836 H 181.896 0.795924 5.02536 0
M  V30 1837 H 181.294 -2.38352 5.13035 0
M  V30 1838 H 179.851 -2.39296 6.06284 0
M  V30 1839 N 183.284 -1.43765 0.645699 0
M  V30 1840 C 184.216 -2.29027 -0.0890605 0
M  V30 1841 C 185.229 -1.42093 -0.794563 0
M  V30 1842 O 186.418 -1.66104 -0.653575 0
M  V30 1843 C 183.518 -3.18831 -1.14891 0
M  V30 1844 C 182.691 -4.34261 -0.523043 0
M  V30 1845 C 181.75 -5.04994 -1.47878 0
M  V30 1846 O 180.776 -5.6052 -0.990277 0
M  V30 1847 N 181.978 -5.07795 -2.81291 0
M  V30 1848 H 184.743 -2.92727 0.64272 0
M  V30 1849 H 182.304 -1.54373 0.487924 0
M  V30 1850 H 184.296 -3.63015 -1.78892 0
M  V30 1851 H 182.866 -2.56782 -1.78275 0
M  V30 1852 H 182.086 -3.93088 0.295896 0
M  V30 1853 H 183.374 -5.08728 -0.0858147 0
M  V30 1854 H 182.772 -4.64042 -3.23546 0
M  V30 1855 H 181.329 -5.55721 -3.40614 0
M  V30 1856 N 184.763 -0.387143 -1.52771 0
M  V30 1857 C 185.693 0.440551 -2.29306 0
M  V30 1858 C 186.674 1.06535 -1.32606 0
M  V30 1859 O 187.859 1.07853 -1.61497 0
M  V30 1860 C 184.989 1.56919 -3.09829 0
M  V30 1861 C 183.943 1.07054 -4.14395 0
M  V30 1862 C 183.269 2.29109 -4.83129 0
M  V30 1863 C 184.569 0.140015 -5.22112 0
M  V30 1864 H 186.263 -0.198026 -2.98744 0
M  V30 1865 H 183.809 -0.09668 -1.43675 0
M  V30 1866 H 185.762 2.15503 -3.62128 0
M  V30 1867 H 184.486 2.23532 -2.3812 0
M  V30 1868 H 183.145 0.507247 -3.63074 0
M  V30 1869 H 182.793 2.94227 -4.0797 0
M  V30 1870 H 182.493 1.96406 -5.53804 0
M  V30 1871 H 184.017 2.88339 -5.38231 0
M  V30 1872 H 185.431 0.633978 -5.69784 0
M  V30 1873 H 183.828 -0.0971485 -6.00021 0
M  V30 1874 H 184.898 -0.811711 -4.78058 0
M  V30 1875 N 186.241 1.57166 -0.116904 0
M  V30 1876 C 187.151 2.18745 0.847812 0
M  V30 1877 C 188.167 1.163 1.29423 0
M  V30 1878 O 189.343 1.48761 1.35765 0
M  V30 1879 C 186.408 2.77307 2.0809 0
M  V30 1880 C 185.469 3.94781 1.68661 0
M  V30 1881 C 184.702 4.50541 2.86091 0
M  V30 1882 O 184.925 4.05202 4.01456 0
M  V30 1883 O 183.859 5.41256 2.63298 0
M  V30 1884 H 187.685 3.01632 0.353778 0
M  V30 1885 H 185.27 1.49005 0.108599 0
M  V30 1886 H 187.152 3.14647 2.80313 0
M  V30 1887 H 185.827 1.97452 2.56504 0
M  V30 1888 H 184.734 3.62214 0.935518 0
M  V30 1889 H 186.067 4.76065 1.24991 0
M  V30 1890 N 187.719 -0.156864 1.56817 0
M  V30 1891 C 188.667 -1.21319 1.98455 0
M  V30 1892 C 189.661 -1.45025 0.875444 0
M  V30 1893 O 190.867 -1.45435 1.0606 0
M  V30 1894 H 187.242 -0.408142 0.631605 0
M  V30 1895 H 189.213 -0.835244 2.86472 0
M  V30 1896 C 187.962 -2.54148 2.37285 0
M  V30 1897 H 187.285 -2.36733 3.22176 0
M  V30 1898 H 188.725 -3.26712 2.70251 0
M  V30 1899 C 187.184 -3.13967 1.22173 0
M  V30 1900 O 187.714 -3.98357 0.517149 0
M  V30 1901 N 185.92 -2.7327 0.988536 0
M  V30 1902 H 185.467 -2.04744 1.56326 0
M  V30 1903 H 185.425 -3.13628 0.220209 0
M  V30 1904 N 189.197 -1.51736 -0.425897 0
M  V30 1905 C 190.129 -1.70083 -1.53638 0
M  V30 1906 C 191.142 -0.581349 -1.52066 0
M  V30 1907 O 192.331 -0.856017 -1.56635 0
M  V30 1908 C 189.431 -1.71078 -2.9255 0
M  V30 1909 C 188.604 -2.99795 -3.185 0
M  V30 1910 C 187.663 -2.92825 -4.37196 0
M  V30 1911 O 186.689 -3.66756 -4.35291 0
M  V30 1912 N 187.891 -2.0946 -5.41393 0
M  V30 1913 H 190.656 -2.65882 -1.383 0
M  V30 1914 H 188.217 -1.49765 -0.614988 0
M  V30 1915 H 190.209 -1.63969 -3.69995 0
M  V30 1916 H 188.779 -0.828242 -3.01428 0
M  V30 1917 H 187.999 -3.20684 -2.2925 0
M  V30 1918 H 189.287 -3.84977 -3.32671 0
M  V30 1919 H 188.685 -1.48792 -5.45781 0
M  V30 1920 H 187.242 -2.08221 -6.17647 0
M  V30 1921 N 190.675 0.682077 -1.42076 0
M  V30 1922 C 191.923 1.4393 -1.41876 0
M  V30 1923 C 192.244 1.94971 -0.0335599 0
M  V30 1924 O 191.514 1.72591 0.926773 0
M  V30 1925 H 190.094 0.534085 -0.522267 0
M  V30 1926 H 192.756 0.806427 -1.77434 0
M  V30 1927 H 191.852 2.29588 -2.11414 0
M  V30 1928 N 192.153 1.28127 0.917671 0
M  V30 1929 C 193.378 1.18007 1.70555 0
M  V30 1930 C 193.803 -0.258257 1.86319 0
M  V30 1931 O 193.161 -1.1869 1.37049 0
M  V30 1932 C 193.209 1.87948 3.07746 0
M  V30 1933 O 192.313 1.18427 3.9503 0
M  V30 1934 H 191.654 0.409867 0.522403 0
M  V30 1935 H 194.184 1.69379 1.1477 0
M  V30 1936 H 194.194 1.95701 3.58001 0
M  V30 1937 H 192.869 2.92573 2.95591 0
M  V30 1938 H 191.446 1.18811 3.53466 0
M  V30 1939 N 193.631 -1.12557 1.10312 0
M  V30 1940 C 194.88 -1.83395 0.839588 0
M  V30 1941 C 195.193 -1.84939 -0.636929 0
M  V30 1942 O 196.399 -2.51761 -1.01631 0
M  V30 1943 C 194.855 -3.29303 1.45215 0
M  V30 1944 C 194.463 -3.36122 2.96186 0
M  V30 1945 C 196.207 -4.05121 1.26796 0
M  V30 1946 C 194.114 -4.76357 3.50483 0
M  V30 1947 H 193.044 -0.687133 0.310425 0
M  V30 1948 H 195.695 -1.26746 1.32694 0
M  V30 1949 H 194.077 -3.85812 0.892469 0
M  V30 1950 H 195.251 -2.89559 3.58458 0
M  V30 1951 H 193.566 -2.73776 3.13745 0
M  V30 1952 H 196.163 -5.08668 1.64806 0
M  V30 1953 H 196.506 -4.15773 0.209409 0
M  V30 1954 H 197.039 -3.54967 1.79563 0
M  V30 1955 H 193.778 -4.70899 4.55998 0
M  V30 1956 H 193.298 -5.23377 2.92978 0
M  V30 1957 H 194.977 -5.45294 3.48228 0
M  V30 1958 N 195.109 -0.891671 -1.2995 0
M  V30 1959 C 196.356 -0.513501 -1.95881 0
M  V30 1960 C 196.684 0.938655 -1.70351 0
M  V30 1961 O 195.939 1.67936 -1.00478 0
M  V30 1962 C 196.238 -0.742868 -3.49594 0
M  V30 1963 C 195.904 -2.17114 -3.95186 0
M  V30 1964 C 194.566 -2.56169 -4.07346 0
M  V30 1965 C 196.918 -3.10162 -4.18866 0
M  V30 1966 C 194.246 -3.87469 -4.4055 0
M  V30 1967 C 196.598 -4.41001 -4.53542 0
M  V30 1968 C 195.262 -4.79941 -4.63911 0
M  V30 1969 H 194.532 -0.187903 -0.71678 0
M  V30 1970 H 197.179 -1.1288 -1.54694 0
M  V30 1971 H 195.484 -0.044586 -3.91775 0
M  V30 1972 H 197.181 -0.429767 -3.9869 0
M  V30 1973 H 193.771 -1.85801 -3.86233 0
M  V30 1974 H 197.955 -2.81206 -4.08946 0
M  V30 1975 H 193.211 -4.17371 -4.46779 0
M  V30 1976 H 197.385 -5.13133 -4.70815 0
M  V30 1977 H 195.012 -5.81719 -4.89395 0
M  V30 1978 N 196.587 1.43421 -0.653314 0
M  V30 1979 C 197.519 2.29071 0.0769134 0
M  V30 1980 C 198.532 1.42513 0.787017 0
M  V30 1981 O 199.721 1.66449 0.644757 0
M  V30 1982 C 196.821 3.19436 1.13199 0
M  V30 1983 C 195.994 4.34533 0.500006 0
M  V30 1984 C 195.053 5.05771 1.45198 0
M  V30 1985 O 194.079 5.61037 0.960538 0
M  V30 1986 N 195.281 5.0928 2.78594 0
M  V30 1987 H 198.046 2.92382 -0.658235 0
M  V30 1988 H 195.607 1.54112 -0.496104 0
M  V30 1989 H 197.599 3.63958 1.76964 0
M  V30 1990 H 196.169 2.57724 1.7691 0
M  V30 1991 H 195.389 3.92925 -0.316738 0
M  V30 1992 H 196.677 5.08766 0.0588345 0
M  V30 1993 H 196.075 4.65751 3.2108 0
M  V30 1994 H 194.632 5.57519 3.37662 0
M  V30 1995 N 198.065 0.39524 1.52563 0
M  V30 1996 C 199.293 -0.184943 2.06072 0
M  V30 1997 C 199.708 -1.40021 1.26647 0
M  V30 1998 O 199.065 -1.79767 0.314672 0
M  V30 1999 C 199.116 -0.549179 3.57304 0
M  V30 2000 O 198.837 0.617813 4.33722 0
M  V30 2001 C 200.338 -1.18459 4.2718 0
M  V30 2002 H 197.558 -0.0265025 0.670476 0
M  V30 2003 H 200.102 0.562184 1.96621 0
M  V30 2004 H 198.257 -1.2462 3.66809 0
M  V30 2005 H 198.671 0.317091 5.23541 0
M  V30 2006 H 200.145 -1.38976 5.34219 0
M  V30 2007 H 200.622 -2.15368 3.82771 0
M  V30 2008 H 201.228 -0.528163 4.22008 0
M  V30 2009 N 199.544 -1.57102 0.125237 0
M  V30 2010 C 200.769 -2.0019 -0.542101 0
M  V30 2011 C 201.194 -1.00449 -1.59034 0
M  V30 2012 O 200.552 0.0229423 -1.81285 0
M  V30 2013 C 200.6 -3.42129 -1.13929 0
M  V30 2014 O 199.704 -3.45307 -2.2547 0
M  V30 2015 H 199.045 -0.650171 -0.134812 0
M  V30 2016 H 201.575 -2.03461 0.215553 0
M  V30 2017 H 201.585 -3.80471 -1.4733 0
M  V30 2018 H 200.26 -4.14237 -0.371531 0
M  V30 2019 H 198.837 -3.1879 -1.93462 0
M  V30 2020 N 201.022 0.148545 -1.56898 0
M  V30 2021 C 202.247 0.880385 -1.87787 0
M  V30 2022 C 202.672 1.74018 -0.714093 0
M  V30 2023 O 202.03 1.78153 0.336343 0
M  V30 2024 C 202.078 1.71422 -3.17249 0
M  V30 2025 O 201.182 2.8183 -3.01074 0
M  V30 2026 H 200.523 0.245301 -0.617028 0
M  V30 2027 H 203.053 0.139826 -2.04122 0
M  V30 2028 H 203.063 2.10954 -3.49231 0
M  V30 2029 H 201.738 1.08284 -4.01556 0
M  V30 2030 H 200.315 2.45715 -2.80497 0
M  V30 2031 N 202.5 1.5196 0.417844 0
M  V30 2032 C 203.777 1.56146 1.17803 0
M  V30 2033 C 204.157 0.337275 2.08388 0
M  V30 2034 O 203.505 -0.676447 2.18258 0
M  V30 2035 C 203.715 2.88566 1.96293 0
M  V30 2036 C 205.063 3.41244 2.52662 0
M  V30 2037 O 206.087 2.90247 2.06483 0
M  V30 2038 O 204.946 4.30273 3.36938 0
M  V30 2039 H 202.04 0.628598 0.537395 0
M  V30 2040 H 204.586 1.64283 0.425331 0
M  V30 2041 H 203.358 3.69116 1.2988 0
M  V30 2042 H 202.981 2.83681 2.78587 0
M  V30 2043 N 203.978 -0.674533 1.42435 0
M  V30 2044 C 205.206 -1.46283 1.46317 0
M  V30 2045 C 205.621 -1.88653 0.0745836 0
M  V30 2046 O 204.978 -1.58151 -0.91074 0
M  V30 2047 C 205.029 -2.71178 2.3905 0
M  V30 2048 O 204.75 -2.30586 3.72507 0
M  V30 2049 C 206.251 -3.64738 2.51955 0
M  V30 2050 H 203.471 -0.450104 0.497642 0
M  V30 2051 H 206.015 -0.828792 1.86953 0
M  V30 2052 H 204.17 -3.3077 2.01667 0
M  V30 2053 H 204.584 -3.11241 4.22172 0
M  V30 2054 H 206.058 -4.49096 3.20962 0
M  V30 2055 H 206.535 -4.10656 1.55752 0
M  V30 2056 H 207.141 -3.11038 2.90061 0
M  V30 2057 N 205.456 -1.28612 -0.910864 0
M  V30 2058 C 206.366 -1.14643 -2.0468 0
M  V30 2059 C 207.382 -0.0723121 -1.7385 0
M  V30 2060 O 208.558 -0.282178 -1.99413 0
M  V30 2061 C 205.623 -0.812561 -3.37044 0
M  V30 2062 C 204.684 -1.96935 -3.81465 0
M  V30 2063 C 203.917 -1.65131 -5.07511 0
M  V30 2064 O 204.14 -0.567013 -5.67575 0
M  V30 2065 O 203.074 -2.49585 -5.47714 0
M  V30 2066 H 206.9 -2.1001 -2.19384 0
M  V30 2067 H 204.485 -1.07958 -1.03274 0
M  V30 2068 H 206.367 -0.640441 -4.16505 0
M  V30 2069 H 205.042 0.111426 -3.23508 0
M  V30 2070 H 203.949 -2.19664 -3.02818 0
M  V30 2071 H 205.282 -2.87414 -3.99567 0
M  V30 2072 N 206.934 1.1197 -1.10907 0
M  V30 2073 C 208.18 1.8386 -0.855773 0
M  V30 2074 C 208.513 1.84134 0.617103 0
M  V30 2075 O 207.788 1.29041 1.45529 0
M  V30 2076 C 208.071 3.31305 -1.411 0
M  V30 2077 C 207.924 3.39456 -2.9511 0
M  V30 2078 C 209.243 4.2721 -1.05736 0
M  V30 2079 H 206.362 0.667545 -0.312334 0
M  V30 2080 H 209.004 1.31331 -1.37303 0
M  V30 2081 H 207.154 3.76169 -0.97105 0
M  V30 2082 H 208.826 3.03191 -3.47668 0
M  V30 2083 H 207.069 2.79849 -3.31462 0
M  V30 2084 H 207.74 4.43209 -3.29044 0
M  V30 2085 H 210.216 3.90497 -1.43706 0
M  V30 2086 H 209.092 5.28775 -1.47269 0
M  V30 2087 H 209.353 4.42088 0.0325958 0
M  V30 2088 N 208.412 0.89855 1.29475 0
M  V30 2089 C 209.342 0.39201 2.30186 0
M  V30 2090 C 210.323 -0.532359 1.61555 0
M  V30 2091 O 211.508 -0.443331 1.89072 0
M  V30 2092 C 208.638 -0.382353 3.45189 0
M  V30 2093 C 207.592 0.451483 4.25612 0
M  V30 2094 C 206.918 -0.450307 5.328 0
M  V30 2095 C 208.218 1.70079 4.93832 0
M  V30 2096 H 209.912 1.23362 2.72804 0
M  V30 2097 H 207.458 0.594638 1.31149 0
M  V30 2098 H 209.411 -0.747451 4.14718 0
M  V30 2099 H 208.135 -1.25774 3.01411 0
M  V30 2100 H 206.794 0.798897 3.57789 0
M  V30 2101 H 206.442 -1.32379 4.85268 0
M  V30 2102 H 206.142 0.103902 5.87508 0
M  V30 2103 H 207.666 -0.811623 6.05182 0
M  V30 2104 H 209.08 1.40549 5.55805 0
M  V30 2105 H 207.477 2.19623 5.58467 0
M  V30 2106 H 208.547 2.43744 4.19186 0
M  V30 2107 N 209.89 -1.43072 0.660911 0
M  V30 2108 C 210.853 -2.29194 -0.0166406 0
M  V30 2109 C 211.853 -1.42609 -0.742912 0
M  V30 2110 O 213.043 -1.64155 -0.583004 0
M  V30 2111 C 210.175 -3.24831 -1.0343 0
M  V30 2112 H 211.368 -2.90596 0.741208 0
M  V30 2113 H 208.921 -1.5048 0.422532 0
M  V30 2114 H 209.656 -2.68339 -1.82111 0
M  V30 2115 H 209.441 -3.88676 -0.517082 0
M  V30 2116 H 210.931 -3.89451 -1.50723 0
M  V30 2117 N 211.368 -0.403325 -1.52352 0
M  V30 2118 C 212.318 0.442244 -2.2367 0
M  V30 2119 C 213.302 1.01823 -1.24583 0
M  V30 2120 O 214.494 0.942005 -1.49851 0
M  V30 2121 C 211.623 1.5615 -3.05732 0
M  V30 2122 C 210.709 0.996575 -4.12225 0
M  V30 2123 N 211.1 0.157804 -5.05554 0
M  V30 2124 C 209.398 1.26767 -4.27605 0
M  V30 2125 C 210.099 -0.155853 -5.81491 0
M  V30 2126 N 209.075 0.451775 -5.41719 0
M  V30 2127 H 212.877 -0.204964 -2.93184 0
M  V30 2128 H 210.391 -0.213418 -1.60992 0
M  V30 2129 H 212.388 2.17981 -3.55373 0
M  V30 2130 H 211.048 2.21139 -2.37755 0
M  V30 2131 H 212.059 -0.206049 -5.1749 0
M  V30 2132 H 208.736 1.91757 -3.70858 0
M  V30 2133 H 210.126 -0.836329 -6.66675 0
M  V30 2134 N 212.846 1.57033 -0.133567 0
M  V30 2135 C 213.776 2.1909 0.807567 0
M  V30 2136 C 214.757 1.13517 1.26681 0
M  V30 2137 O 215.942 1.41809 1.32679 0
M  V30 2138 C 213.072 2.80188 2.05212 0
M  V30 2139 C 212.026 3.91471 1.73015 0
M  V30 2140 C 211.352 4.39443 3.04622 0
M  V30 2141 C 212.652 5.12886 0.987168 0
M  V30 2142 H 214.346 2.97988 0.290403 0
M  V30 2143 H 211.892 1.43335 0.138239 0
M  V30 2144 H 213.845 3.22264 2.71521 0
M  V30 2145 H 212.569 1.98601 2.59278 0
M  V30 2146 H 211.228 3.49993 1.0909 0
M  V30 2147 H 210.876 3.54695 3.56651 0
M  V30 2148 H 210.576 5.14495 2.83847 0
M  V30 2149 H 212.1 4.8418 3.72024 0
M  V30 2150 H 213.514 5.51891 1.55208 0
M  V30 2151 H 211.911 5.93615 0.87985 0
M  V30 2152 H 212.981 4.84894 -0.0235286 0
M  V30 2153 N 214.325 -0.140222 1.56975 0
M  V30 2154 C 215.574 -0.850152 1.82908 0
M  V30 2155 C 215.887 -1.82028 0.715892 0
M  V30 2156 O 217.093 -2.57485 0.861016 0
M  V30 2157 C 215.549 -1.5625 3.24213 0
M  V30 2158 C 215.157 -0.63443 4.43485 0
M  V30 2159 C 216.901 -2.25881 3.59413 0
M  V30 2160 C 214.808 -1.34879 5.75814 0
M  V30 2161 H 213.738 -0.321221 0.682153 0
M  V30 2162 H 216.389 -0.102874 1.83211 0
M  V30 2163 H 214.771 -2.35565 3.18316 0
M  V30 2164 H 215.945 0.12398 4.60633 0
M  V30 2165 H 214.26 -0.0461836 4.16374 0
M  V30 2166 H 216.857 -2.79978 4.5554 0
M  V30 2167 H 217.2 -3.02693 2.85802 0
M  V30 2168 H 217.733 -1.53477 3.67001 0
M  V30 2169 H 214.472 -0.622385 6.52539 0
M  V30 2170 H 213.992 -2.07974 5.6259 0
M  V30 2171 H 215.671 -1.88784 6.18845 0
M  V30 2172 N 215.803 -1.52179 -0.40978 0
M  V30 2173 C 216.75 -1.75475 -1.49924 0
M  V30 2174 C 217.72 -0.597175 -1.54994 0
M  V30 2175 O 218.905 -0.834655 -1.71575 0
M  V30 2176 C 216.045 -1.9107 -2.87378 0
M  V30 2177 C 215.158 -3.18717 -2.91622 0
M  V30 2178 C 214.293 -3.24747 -4.20372 0
M  V30 2179 C 213.332 -4.46598 -4.18588 0
M  V30 2180 N 212.469 -4.50025 -5.38908 0
M  V30 2181 H 217.309 -2.68458 -1.29361 0
M  V30 2182 H 214.846 -1.33024 -0.627934 0
M  V30 2183 H 216.804 -1.98096 -3.6717 0
M  V30 2184 H 215.434 -1.01469 -3.06437 0
M  V30 2185 H 214.486 -3.20866 -2.04326 0
M  V30 2186 H 215.798 -4.08544 -2.86169 0
M  V30 2187 H 214.952 -3.30841 -5.08556 0
M  V30 2188 H 213.691 -2.32857 -4.28519 0
M  V30 2189 H 212.696 -4.40652 -3.28794 0
M  V30 2190 H 213.921 -5.39783 -4.12081 0
M  V30 2191 H 211.867 -3.61017 -5.47725 0
M  V30 2192 H 211.784 -5.33697 -5.35447 0
M  V30 2193 H 213.052 -4.60347 -6.29048 0
M  V30 2194 N 217.281 0.66697 -1.42791 0
M  V30 2195 C 218.697 0.981027 -1.25889 0
M  V30 2196 C 218.897 2.00793 -0.168695 0
M  V30 2197 O 217.953 2.48321 0.45747 0
M  V30 2198 C 219.266 1.47838 -2.61848 0
M  V30 2199 C 220.814 1.59575 -2.69267 0
M  V30 2200 C 221.289 2.12704 -4.05612 0
M  V30 2201 N 222.78 2.20026 -4.07606 0
M  V30 2202 C 223.515 2.62227 -5.09926 0
M  V30 2203 N 223.011 3.03824 -6.22626 0
M  V30 2204 N 224.804 2.62045 -4.97281 0
M  V30 2205 H 216.955 -0.0127891 -2.12396 0
M  V30 2206 H 219.218 0.0568258 -0.946295 0
M  V30 2207 H 218.924 0.798299 -3.4252 0
M  V30 2208 H 218.798 2.45579 -2.86305 0
M  V30 2209 H 221.185 2.26687 -1.88936 0
M  V30 2210 H 221.266 0.60302 -2.48591 0
M  V30 2211 H 220.91 1.46198 -4.86404 0
M  V30 2212 H 220.84 3.12782 -4.23645 0
M  V30 2213 H 223.331 1.90708 -3.2625 0
M  V30 2214 H 223.644 3.34734 -6.96544 0
M  V30 2215 H 221.989 3.01662 -6.26119 0
M  V30 2216 H 225.18 2.28916 -4.08308 0
M  V30 2217 H 225.353 2.94613 -5.77154 0
M  V30 2218 N 218.759 1.29093 0.90403 0
M  V30 2219 C 219.984 1.19809 1.69294 0
M  V30 2220 C 220.409 -0.238481 1.86582 0
M  V30 2221 O 219.767 -1.1723 1.383 0
M  V30 2222 C 219.815 1.91202 3.05736 0
M  V30 2223 O 218.919 1.22611 3.93752 0
M  V30 2224 H 218.26 0.415385 0.518027 0
M  V30 2225 H 220.79 1.70586 1.12967 0
M  V30 2226 H 220.8 1.99487 3.55906 0
M  V30 2227 H 219.475 2.95692 2.92471 0
M  V30 2228 H 218.052 1.22554 3.52186 0
M  V30 2229 N 220.237 -1.11381 1.11499 0
M  V30 2230 C 221.485 -1.8277 0.862524 0
M  V30 2231 C 221.806 -1.85097 -0.613534 0
M  V30 2232 O 221.076 -1.32198 -1.4457 0
M  V30 2233 H 219.656 -0.676823 0.316101 0
M  V30 2234 H 222.318 -1.34816 1.4075 0
M  V30 2235 H 221.414 -2.86614 1.23527 0
M  V30 2236 N 221.715 -0.905404 -1.28997 0
M  V30 2237 C 222.665 -0.358713 -2.25161 0
M  V30 2238 C 223.649 0.524449 -1.52113 0
M  V30 2239 O 224.841 0.365534 -1.73184 0
M  V30 2240 C 221.97 0.407609 -3.40872 0
M  V30 2241 C 221.056 -0.490797 -4.21251 0
M  V30 2242 N 221.447 -1.60061 -4.79806 0
M  V30 2243 C 219.745 -0.289636 -4.45059 0
M  V30 2244 C 220.446 -2.15757 -5.40207 0
M  V30 2245 N 219.422 -1.44988 -5.23908 0
M  V30 2246 H 223.224 -1.20642 -2.67998 0
M  V30 2247 H 220.738 -0.757103 -1.43672 0
M  V30 2248 H 222.735 0.816046 -4.08835 0
M  V30 2249 H 221.395 1.25251 -2.9957 0
M  V30 2250 H 222.406 -1.98329 -4.7842 0
M  V30 2251 H 219.083 0.51643 -4.14294 0
M  V30 2252 H 220.473 -3.09069 -5.96595 0
M  V30 2253 N 223.193 1.4272 -0.668489 0
M  V30 2254 C 224.44 2.01624 -0.18814 0
M  V30 2255 C 224.768 1.5282 1.20317 0
M  V30 2256 O 224.023 0.718323 1.8204 0
M  V30 2257 C 224.322 3.57021 -0.164499 0
M  V30 2258 C 223.988 4.25232 -1.49962 0
M  V30 2259 C 222.65 4.4358 -1.8652 0
M  V30 2260 C 225.002 4.63727 -2.37921 0
M  V30 2261 C 222.33 4.97694 -3.10674 0
M  V30 2262 C 224.682 5.19218 -3.6138 0
M  V30 2263 C 223.346 5.3578 -3.98115 0
M  V30 2264 H 222.616 0.737795 -0.0688454 0
M  V30 2265 H 225.263 1.70991 -0.862225 0
M  V30 2266 H 223.568 3.87285 0.593079 0
M  V30 2267 H 225.265 4.00372 0.224271 0
M  V30 2268 H 221.855 4.11306 -1.20522 0
M  V30 2269 H 226.039 4.4923 -2.10964 0
M  V30 2270 H 221.295 5.08702 -3.39164 0
M  V30 2271 H 225.469 5.4799 -4.29743 0
M  V30 2272 H 223.096 5.77475 -4.94395 0
M  V30 2273 N 224.671 0.411399 1.52136 0
M  V30 2274 C 225.899 -0.163076 2.06256 0
M  V30 2275 C 226.314 -1.3867 1.28125 0
M  V30 2276 O 225.671 -1.79423 0.333721 0
M  V30 2277 C 225.722 -0.511252 3.57867 0
M  V30 2278 O 225.443 0.66378 4.33042 0
M  V30 2279 C 226.944 -1.13921 4.28412 0
M  V30 2280 H 224.164 -0.0193897 0.67072 0
M  V30 2281 H 226.708 0.583007 1.96013 0
M  V30 2282 H 224.863 -1.20723 3.6811 0
M  V30 2283 H 225.277 0.372601 5.23175 0
M  V30 2284 H 226.751 -1.33302 5.35663 0
M  V30 2285 H 227.228 -2.11296 3.85033 0
M  V30 2286 H 227.834 -0.483373 4.22544 0
M  V30 2287 N 226.149 -1.5696 0.141893 0
M  V30 2288 C 227.079 -2.19516 -0.795936 0
M  V30 2289 C 228.06 -1.14187 -1.26077 0
M  V30 2290 O 229.245 -1.42511 -1.31925 0
M  V30 2291 C 226.375 -2.81272 -2.03723 0
M  V30 2292 C 225.329 -3.92384 -1.70936 0
M  V30 2293 C 224.655 -4.41052 -3.02287 0
M  V30 2294 C 225.955 -5.13403 -0.959954 0
M  V30 2295 H 227.649 -2.98138 -0.274596 0
M  V30 2296 H 225.195 -1.43406 -0.130636 0
M  V30 2297 H 227.148 -3.237 -2.69808 0
M  V30 2298 H 225.872 -1.99973 -2.58221 0
M  V30 2299 H 224.531 -3.50566 -1.07232 0
M  V30 2300 H 224.179 -3.56582 -3.54765 0
M  V30 2301 H 223.879 -5.15993 -2.81114 0
M  V30 2302 H 225.403 -4.86146 -3.69451 0
M  V30 2303 H 226.817 -5.52706 -1.52279 0
M  V30 2304 H 225.214 -5.94073 -0.848357 0
M  V30 2305 H 226.284 -4.84875 0.0492434 0
M  V30 2306 N 227.627 0.131896 -1.57047 0
M  V30 2307 C 228.574 1.16236 -1.99393 0
M  V30 2308 C 229.544 1.41863 -0.863943 0
M  V30 2309 O 230.729 1.53946 -1.12718 0
M  V30 2310 C 227.869 2.48708 -2.39245 0
M  V30 2311 C 226.982 2.30127 -3.65603 0
M  V30 2312 C 226.117 3.55738 -3.94492 0
M  V30 2313 C 225.156 3.32259 -5.14073 0
M  V30 2314 N 224.293 4.50039 -5.38896 0
M  V30 2315 H 229.133 0.794251 -2.87221 0
M  V30 2316 H 226.67 0.380707 -1.42088 0
M  V30 2317 H 228.628 3.25969 -2.60384 0
M  V30 2318 H 227.258 2.83437 -1.54478 0
M  V30 2319 H 226.31 1.43845 -3.52154 0
M  V30 2320 H 227.622 2.08746 -4.5302 0
M  V30 2321 H 226.776 4.41423 -4.1621 0
M  V30 2322 H 225.515 3.80138 -3.05526 0
M  V30 2323 H 224.52 2.44963 -4.92212 0
M  V30 2324 H 225.745 3.09242 -6.04604 0
M  V30 2325 H 223.691 4.74584 -4.52886 0
M  V30 2326 H 223.608 4.31716 -6.2061 0
M  V30 2327 H 224.876 5.36895 -5.65123 0
M  V30 2328 N 229.106 1.52395 0.401703 0
M  V30 2329 C 230.383 1.57387 1.16141 0
M  V30 2330 C 230.763 0.359359 2.08019 0
M  V30 2331 O 230.111 -0.65326 2.18963 0
M  V30 2332 C 230.321 2.90631 1.93221 0
M  V30 2333 C 231.669 3.43904 2.49028 0
M  V30 2334 O 232.693 2.92421 2.03393 0
M  V30 2335 O 231.552 4.33823 3.32356 0
M  V30 2336 H 228.646 0.634262 0.530698 0
M  V30 2337 H 231.192 1.64725 0.407883 0
M  V30 2338 H 229.964 3.70473 1.25958 0
M  V30 2339 H 229.587 2.8662 2.75563 0
M  V30 2340 N 230.584 -0.659388 1.43143 0
M  V30 2341 C 231.516 -1.7849 1.43784 0
M  V30 2342 C 232.529 -1.5932 0.334787 0
M  V30 2343 O 233.718 -1.68155 0.598842 0
M  V30 2344 C 230.818 -3.15828 1.22906 0
M  V30 2345 C 229.991 -3.61711 2.45934 0
M  V30 2346 C 229.05 -4.77831 2.20371 0
M  V30 2347 O 228.076 -4.87586 2.93681 0
M  V30 2348 N 229.278 -5.67611 1.21647 0
M  V30 2349 H 232.043 -1.7842 2.40803 0
M  V30 2350 H 229.604 -0.84302 1.3822 0
M  V30 2351 H 231.596 -3.91189 1.03697 0
M  V30 2352 H 230.166 -3.10707 0.343542 0
M  V30 2353 H 229.386 -2.76861 2.80609 0
M  V30 2354 H 230.674 -3.89112 3.27825 0
M  V30 2355 H 230.072 -5.62397 0.610449 0
M  V30 2356 H 228.629 -6.42719 1.08423 0
M  V30 2357 N 232.062 -1.29571 -0.897171 0
M  V30 2358 C 233.311 -1.1706 -1.64256 0
M  V30 2359 C 233.624 0.276476 -1.93636 0
M  V30 2360 O 234.83 0.52294 -2.66416 0
M  V30 2361 C 233.286 -2.0475 -2.95982 0
M  V30 2362 C 232.894 -3.54295 -2.74187 0
M  V30 2363 C 234.638 -2.0097 -3.73914 0
M  V30 2364 C 232.545 -4.34081 -4.01656 0
M  V30 2365 H 231.475 -0.43452 -0.616205 0
M  V30 2366 H 234.126 -1.54229 -0.994268 0
M  V30 2367 H 232.508 -1.60452 -3.62038 0
M  V30 2368 H 233.682 -4.06662 -2.1671 0
M  V30 2369 H 231.997 -3.59773 -2.09648 0
M  V30 2370 H 234.594 -2.57838 -4.68427 0
M  V30 2371 H 234.937 -0.990273 -4.0435 0
M  V30 2372 H 235.47 -2.43325 -3.14703 0
M  V30 2373 H 232.209 -5.36671 -3.76384 0
M  V30 2374 H 231.729 -3.86483 -4.58684 0
M  V30 2375 H 233.408 -4.44877 -4.69781 0
M  V30 2376 N 233.54 1.10788 -1.12088 0
M  V30 2377 C 234.487 2.17025 -0.785407 0
M  V30 2378 C 235.457 1.64265 0.246191 0
M  V30 2379 O 236.642 1.90412 0.121584 0
M  V30 2380 C 233.782 3.44249 -0.242177 0
M  V30 2381 C 232.895 4.1098 -1.33115 0
M  V30 2382 C 232.03 5.25911 -0.747741 0
M  V30 2383 C 231.069 5.84538 -1.81609 0
M  V30 2384 N 230.206 6.90853 -1.25167 0
M  V30 2385 H 235.046 2.45066 -1.69548 0
M  V30 2386 H 232.583 1.20297 -0.846582 0
M  V30 2387 H 234.541 4.17101 0.0908026 0
M  V30 2388 H 233.171 3.16571 0.631072 0
M  V30 2389 H 232.223 3.36133 -1.78097 0
M  V30 2390 H 233.535 4.50601 -2.13917 0
M  V30 2391 H 232.689 6.056 -0.365216 0
M  V30 2392 H 231.428 4.87614 0.0915188 0
M  V30 2393 H 230.433 5.03522 -2.20785 0
M  V30 2394 H 231.658 6.249 -2.6585 0
M  V30 2395 H 229.604 6.54562 -0.434174 0
M  V30 2396 H 229.521 7.29166 -1.99633 0
M  V30 2397 H 230.789 7.7433 -0.896259 0
M  V30 2398 N 235.018 0.912232 1.28515 0
M  V30 2399 C 235.966 0.389597 2.29314 0
M  V30 2400 C 236.96 -0.517915 1.61289 0
M  V30 2401 O 238.166 -0.399328 1.75515 0
M  V30 2402 H 234.541 0.107386 0.744293 0
M  V30 2403 H 236.512 1.25286 2.70825 0
M  V30 2404 C 235.261 -0.356496 3.45868 0
M  V30 2405 H 234.584 0.332608 3.98414 0
M  V30 2406 H 236.024 -0.686851 4.184 0
M  V30 2407 C 234.483 -1.56383 2.98406 0
M  V30 2408 O 235.013 -2.66294 3.00749 0
M  V30 2409 N 233.219 -1.41029 2.54085 0
M  V30 2410 H 232.766 -0.516089 2.52377 0
M  V30 2411 H 232.724 -2.21939 2.22689 0
M  V30 2412 N 236.496 -1.42363 0.676048 0
M  V30 2413 C 237.721 -2.06377 0.205705 0
M  V30 2414 C 238.146 -1.50463 -1.12883 0
M  V30 2415 O 237.504 -0.623619 -1.70237 0
M  V30 2416 C 237.552 -3.60277 0.152655 0
M  V30 2417 O 236.656 -4.02935 -0.87845 0
M  V30 2418 H 235.997 -0.655588 0.105359 0
M  V30 2419 H 238.527 -1.82475 0.925412 0
M  V30 2420 H 238.537 -4.07993 -0.0230675 0
M  V30 2421 H 237.212 -4.00346 1.12675 0
M  V30 2422 H 235.789 -3.66764 -0.673668 0
M  V30 2423 N 237.974 -0.419461 -1.51915 0
M  V30 2424 C 238.904 0.391813 -2.30189 0
M  V30 2425 C 239.885 1.03699 -1.34836 0
M  V30 2426 O 241.07 1.04403 -1.63748 0
M  V30 2427 C 238.2 1.50312 -3.13087 0
M  V30 2428 C 237.154 0.9824 -4.16573 0
M  V30 2429 C 236.48 2.18809 -4.8788 0
M  V30 2430 C 237.78 0.0292356 -5.22292 0
M  V30 2431 H 239.474 -0.26135 -2.98257 0
M  V30 2432 H 237.02 -0.127134 -1.43438 0
M  V30 2433 H 238.973 2.07773 -3.66617 0
M  V30 2434 H 237.697 2.18431 -2.42807 0
M  V30 2435 H 236.356 0.430119 -3.64068 0
M  V30 2436 H 236.004 2.85507 -4.14119 0
M  V30 2437 H 235.704 1.84615 -5.57845 0
M  V30 2438 H 237.228 2.76858 -5.44226 0
M  V30 2439 H 238.642 0.512976 -5.71 0
M  V30 2440 H 237.039 -0.2244 -5.9968 0
M  V30 2441 H 238.109 -0.912931 -4.76228 0
M  V30 2442 N 239.452 1.56882 -0.150215 0
M  V30 2443 C 240.677 2.01027 0.510184 0
M  V30 2444 C 241.102 1.02966 1.57415 0
M  V30 2445 O 240.46 0.00590158 1.81299 0
M  V30 2446 C 240.508 3.43899 1.08472 0
M  V30 2447 O 239.612 3.4885 2.19948 0
M  V30 2448 H 238.953 0.652233 0.124451 0
M  V30 2449 H 241.483 2.03093 -0.247894 0
M  V30 2450 H 241.493 3.82766 1.41259 0
M  V30 2451 H 240.168 4.14776 0.305582 0
M  V30 2452 H 238.745 3.21827 1.88366 0
M  V30 2453 N 240.93 -0.123565 1.57115 0
M  V30 2454 C 241.863 -1.18202 1.95201 0
M  V30 2455 C 242.841 -1.40349 0.821031 0
M  V30 2456 O 244.025 -1.54578 1.07879 0
M  V30 2457 C 241.152 -2.53671 2.24429 0
M  V30 2458 C 240.198 -2.4798 3.46999 0
M  V30 2459 S 241.031 -1.92389 4.99747 0
M  V30 2460 C 242.187 -3.2954 5.32123 0
M  V30 2461 H 242.42 -0.857212 2.84674 0
M  V30 2462 H 239.953 -0.33014 1.50829 0
M  V30 2463 H 241.911 -3.3162 2.41947 0
M  V30 2464 H 240.572 -2.83332 1.35579 0
M  V30 2465 H 239.765 -3.47758 3.64801 0
M  V30 2466 H 239.367 -1.7815 3.28844 0
M  V30 2467 H 241.659 -4.25736 5.27025 0
M  V30 2468 H 242.602 -3.16569 6.33395 0
M  V30 2469 H 243.01 -3.27758 4.59603 0
M  V30 2470 N 242.408 -1.52605 -0.393616 0
M  V30 2471 C 243.338 -1.80022 -1.48709 0
M  V30 2472 C 244.319 -0.651995 -1.57108 0
M  V30 2473 O 245.504 -0.89913 -1.72132 0
M  V30 2474 C 242.634 -1.96492 -2.86371 0
M  V30 2475 C 241.588 -3.12161 -2.92813 0
M  V30 2476 C 240.914 -3.13877 -4.3288 0
M  V30 2477 C 242.214 -4.51322 -2.6288 0
M  V30 2478 H 243.908 -2.71589 -1.26015 0
M  V30 2479 H 241.454 -1.30684 -0.604778 0
M  V30 2480 H 243.407 -2.14255 -3.62867 0
M  V30 2481 H 242.131 -1.01611 -3.10391 0
M  V30 2482 H 240.79 -2.94173 -2.18764 0
M  V30 2483 H 240.438 -2.16687 -4.53933 0
M  V30 2484 H 240.138 -3.91576 -4.38112 0
M  V30 2485 H 241.662 -3.33789 -5.1129 0
M  V30 2486 H 243.076 -4.69435 -3.29096 0
M  V30 2487 H 241.473 -5.31053 -2.79468 0
M  V30 2488 H 242.543 -4.58353 -1.58242 0
M  V30 2489 N 243.887 0.651787 -1.4349 0
M  V30 2490 C 244.834 1.76462 -1.4876 0
M  V30 2491 C 245.804 1.62641 -0.337189 0
M  V30 2492 O 246.989 1.82864 -0.544544 0
M  V30 2493 C 244.129 3.14623 -1.41796 0
M  V30 2494 C 243.242 3.39568 -2.67053 0
M  V30 2495 C 242.377 4.67585 -2.52068 0
M  V30 2496 C 241.416 4.85639 -3.72587 0
M  V30 2497 N 240.553 6.04915 -3.56402 0
M  V30 2498 H 245.393 1.71293 -2.43849 0
M  V30 2499 H 242.93 0.835889 -1.21043 0
M  V30 2500 H 244.888 3.94496 -1.35753 0
M  V30 2501 H 243.518 3.18859 -0.50288 0
M  V30 2502 H 242.57 2.53783 -2.8337 0
M  V30 2503 H 243.882 3.48795 -3.56572 0
M  V30 2504 H 243.036 5.55586 -2.4374 0
M  V30 2505 H 241.775 4.60681 -1.60075 0
M  V30 2506 H 240.78 3.96073 -3.81321 0
M  V30 2507 H 242.005 4.94372 -4.65589 0
M  V30 2508 H 239.951 5.9914 -2.67146 0
M  V30 2509 H 239.868 6.15106 -4.39524 0
M  V30 2510 H 241.136 6.95533 -3.51929 0
M  V30 2511 N 245.365 1.30045 0.890287 0
M  V30 2512 C 246.613 1.18327 1.63839 0
M  V30 2513 C 246.934 -0.263455 1.93212 0
M  V30 2514 O 246.204 -1.17856 1.56482 0
M  V30 2515 H 244.784 0.434933 0.607324 0
M  V30 2516 H 247.446 1.631 1.06698 0
M  V30 2517 H 246.542 1.74024 2.59079 0
M  V30 2518 N 246.843 -1.10192 1.12674 0
M  V30 2519 C 247.806 -2.14786 0.799979 0
M  V30 2520 C 248.806 -1.59711 -0.18685 0
M  V30 2521 O 249.996 -1.74156 0.0392558 0
M  V30 2522 C 247.128 -3.40374 0.189228 0
M  V30 2523 H 248.321 -2.45203 1.72671 0
M  V30 2524 H 245.874 -1.25597 0.930326 0
M  V30 2525 H 246.609 -3.15577 -0.747107 0
M  V30 2526 H 246.394 -3.81637 0.899766 0
M  V30 2527 H 247.884 -4.17594 -0.0228143 0
M  V30 2528 N 248.321 -0.919034 -1.28029 0
M  V30 2529 C 249.551 -0.570143 -1.98577 0
M  V30 2530 C 249.959 0.854172 -1.68821 0
M  V30 2531 O 249.302 1.57807 -0.940351 0
M  V30 2532 C 249.364 -0.705734 -3.52505 0
M  V30 2533 C 249.028 -2.10057 -4.05863 0
M  V30 2534 C 250.025 -3.07385 -4.19298 0
M  V30 2535 C 247.71 -2.41517 -4.40426 0
M  V30 2536 C 249.704 -4.34287 -4.66555 0
M  V30 2537 C 247.391 -3.68657 -4.87376 0
M  V30 2538 C 248.389 -4.64856 -5.00398 0
M  V30 2539 O 248.077 -5.89735 -5.46322 0
M  V30 2540 H 247.809 -0.215592 -0.6407 0
M  V30 2541 H 250.363 -1.23583 -1.64062 0
M  V30 2542 H 248.593 0.0170414 -3.86696 0
M  V30 2543 H 250.282 -0.363172 -4.04272 0
M  V30 2544 H 251.048 -2.84398 -3.92865 0
M  V30 2545 H 246.927 -1.67389 -4.29537 0
M  V30 2546 H 250.471 -5.09377 -4.76635 0
M  V30 2547 H 246.368 -3.91466 -5.13249 0
M  V30 2548 H 247.136 -5.92599 -5.64596 0
M  V30 2549 N 249.799 1.42003 -0.683588 0
M  V30 2550 C 250.762 2.29191 -0.0198243 0
M  V30 2551 C 251.762 1.43773 0.72013 0
M  V30 2552 O 252.952 1.65061 0.556815 0
M  V30 2553 C 250.084 3.26435 0.982487 0
M  V30 2554 H 251.277 2.8938 -0.787345 0
M  V30 2555 H 248.83 1.49789 -0.446418 0
M  V30 2556 H 249.565 2.71203 1.77819 0
M  V30 2557 H 249.35 3.89449 0.455182 0
M  V30 2558 H 250.84 3.918 1.44508 0
M  V30 2559 N 251.277 0.427512 1.51691 0
M  V30 2560 C 252.524 -0.142229 2.02 0
M  V30 2561 C 252.852 -1.43566 1.31221 0
M  V30 2562 O 252.107 -1.91298 0.412744 0
M  V30 2563 C 252.406 -0.418249 3.54944 0
M  V30 2564 C 252.072 0.788187 4.43958 0
M  V30 2565 C 250.734 1.11906 4.68007 0
M  V30 2566 C 253.086 1.59347 4.96244 0
M  V30 2567 C 250.414 2.25608 5.41588 0
M  V30 2568 C 252.766 2.7214 5.71072 0
M  V30 2569 C 251.43 3.05692 5.93387 0
M  V30 2570 H 250.7 -0.0520451 0.73917 0
M  V30 2571 H 253.347 0.572697 1.82736 0
M  V30 2572 H 251.652 -1.21496 3.72486 0
M  V30 2573 H 253.349 -0.872339 3.91397 0
M  V30 2574 H 249.939 0.520344 4.2543 0
M  V30 2575 H 254.123 1.35106 4.77556 0
M  V30 2576 H 249.379 2.51929 5.57083 0
M  V30 2577 H 253.553 3.34914 6.10578 0
M  V30 2578 H 251.18 3.9391 6.50184 0
M  V30 2579 N 252.755 -1.56801 0.158532 0
M  V30 2580 C 253.685 -2.20347 -0.772609 0
M  V30 2581 C 254.666 -1.15518 -1.24859 0
M  V30 2582 O 255.851 -1.43902 -1.30406 0
M  V30 2583 C 252.981 -2.83417 -2.00729 0
M  V30 2584 C 251.935 -3.94174 -1.66765 0
M  V30 2585 C 251.261 -4.44233 -2.97592 0
M  V30 2586 C 252.561 -5.14392 -0.905447 0
M  V30 2587 H 254.255 -2.98413 -0.242959 0
M  V30 2588 H 251.801 -1.43537 -0.115419 0
M  V30 2589 H 253.754 -3.26543 -2.6636 0
M  V30 2590 H 252.478 -2.02701 -2.56086 0
M  V30 2591 H 251.137 -3.51684 -1.03508 0
M  V30 2592 H 250.785 -3.60325 -3.50963 0
M  V30 2593 H 250.485 -5.18945 -2.75626 0
M  V30 2594 H 252.009 -4.90037 -3.64274 0
M  V30 2595 H 253.423 -5.5429 -1.46408 0
M  V30 2596 H 251.82 -5.9494 -0.7853 0
M  V30 2597 H 252.89 -4.84795 0.100668 0
M  V30 2598 N 254.233 0.115231 -1.57178 0
M  V30 2599 C 255.482 0.820945 -1.84237 0
M  V30 2600 C 255.795 1.80866 -0.744761 0
M  V30 2601 O 257.001 2.56083 -0.901871 0
M  V30 2602 C 255.457 1.51072 -3.26658 0
M  V30 2603 C 255.065 0.563795 -4.44438 0
M  V30 2604 C 256.809 2.20134 -3.62962 0
M  V30 2605 C 254.716 1.25701 -5.77887 0
M  V30 2606 H 253.646 0.310328 -0.687177 0
M  V30 2607 H 256.297 0.0737134 -1.83352 0
M  V30 2608 H 254.679 2.30471 -3.22024 0
M  V30 2609 H 255.853 -0.197247 -4.60378 0
M  V30 2610 H 254.168 -0.0200638 -4.16395 0
M  V30 2611 H 256.765 2.72696 -4.59936 0
M  V30 2612 H 257.108 2.98107 -2.90582 0
M  V30 2613 H 257.641 1.47619 -3.69396 0
M  V30 2614 H 254.38 0.518493 -6.53446 0
M  V30 2615 H 253.9 1.98997 -5.65827 0
M  V30 2616 H 255.579 1.78915 -6.2177 0
M  V30 2617 N 255.711 1.52812 0.385517 0
M  V30 2618 C 256.644 1.72592 1.49289 0
M  V30 2619 C 257.622 0.573819 1.52138 0
M  V30 2620 O 258.806 0.80404 1.70492 0
M  V30 2621 C 255.933 1.78669 2.87741 0
M  V30 2622 C 254.979 3.00455 3.02703 0
M  V30 2623 S 255.812 4.60366 2.73538 0
M  V30 2624 C 256.968 4.69263 4.14177 0
M  V30 2625 H 257.201 2.66248 1.32285 0
M  V30 2626 H 254.734 1.43148 0.578611 0
M  V30 2627 H 256.692 1.82855 3.67524 0
M  V30 2628 H 255.353 0.861 3.02069 0
M  V30 2629 H 254.546 3.01258 4.04054 0
M  V30 2630 H 254.148 2.94278 2.30817 0
M  V30 2631 H 256.44 4.48092 5.08153 0
M  V30 2632 H 257.383 5.71276 4.18388 0
M  V30 2633 H 257.791 3.98072 4.00249 0
M  V30 2634 N 257.189 -0.644168 1.43834 0
M  V30 2635 C 258.417 -1.43147 1.49387 0
M  V30 2636 C 258.832 -1.88452 0.114583 0
M  V30 2637 O 258.189 -1.60047 -0.876989 0
M  V30 2638 C 258.24 -2.66046 2.44748 0
M  V30 2639 O 257.961 -2.22633 3.77314 0
M  V30 2640 C 259.462 -3.59311 2.59635 0
M  V30 2641 H 256.682 -0.439447 0.507077 0
M  V30 2642 H 259.226 -0.78895 1.88669 0
M  V30 2643 H 257.381 -3.26418 2.08638 0
M  V30 2644 H 257.795 -3.02216 4.28679 0
M  V30 2645 H 259.269 -4.42187 3.30416 0
M  V30 2646 H 259.746 -4.07259 1.64427 0
M  V30 2647 H 260.352 -3.04816 2.96593 0
M  V30 2648 N 258.668 -1.30515 -0.883378 0
M  V30 2649 C 259.578 -1.18959 -2.02203 0
M  V30 2650 C 260.594 -0.109172 -1.73657 0
M  V30 2651 O 261.77 -0.324413 -1.9877 0
M  V30 2652 C 258.835 -0.883871 -3.35244 0
M  V30 2653 C 257.896 -2.04982 -3.77201 0
M  V30 2654 C 257.129 -1.75859 -5.03894 0
M  V30 2655 O 257.352 -0.687276 -5.66244 0
M  V30 2656 O 256.286 -2.61146 -5.42297 0
M  V30 2657 H 260.112 -2.14616 -2.1488 0
M  V30 2658 H 257.697 -1.10124 -1.0096 0
M  V30 2659 H 259.579 -0.728644 -4.15053 0
M  V30 2660 H 258.254 0.0427798 -3.23672 0
M  V30 2661 H 257.161 -2.26038 -2.9809 0
M  V30 2662 H 258.494 -2.95825 -3.93381 0
M  V30 2663 N 260.146 1.09593 -1.13257 0
M  V30 2664 C 261.374 1.855 -0.916378 0
M  V30 2665 C 261.789 1.81069 0.534738 0
M  V30 2666 O 261.146 1.20562 1.37007 0
M  V30 2667 C 261.197 3.33546 -1.39388 0
M  V30 2668 O 260.918 3.37927 -2.78813 0
M  V30 2669 C 262.419 4.26299 -1.21588 0
M  V30 2670 H 259.639 0.585991 -0.326887 0
M  V30 2671 H 262.183 1.38488 -1.5047 0
M  V30 2672 H 260.338 3.77992 -0.848597 0
M  V30 2673 H 260.752 4.30254 -2.9997 0
M  V30 2674 H 262.226 5.28341 -1.59876 0
M  V30 2675 H 262.703 4.38918 -0.157376 0
M  V30 2676 H 263.309 3.87668 -1.7491 0
M  V30 2677 N 261.624 0.925811 1.2754 0
M  V30 2678 C 262.534 0.428993 2.30644 0
M  V30 2679 C 263.55 -0.489387 1.66976 0
M  V30 2680 O 264.726 -0.372653 1.97922 0
M  V30 2681 C 261.791 -0.311967 3.45294 0
M  V30 2682 C 260.852 0.641098 4.24486 0
M  V30 2683 C 260.085 -0.0645955 5.33661 0
M  V30 2684 O 260.308 -1.28429 5.55754 0
M  V30 2685 O 259.242 0.606265 5.98839 0
M  V30 2686 H 263.068 1.28504 2.75173 0
M  V30 2687 H 260.653 0.691086 1.32455 0
M  V30 2688 H 262.535 -0.729972 4.15029 0
M  V30 2689 H 261.21 -1.14365 3.02824 0
M  V30 2690 H 260.117 1.10874 3.57292 0
M  V30 2691 H 261.45 1.43995 4.70666 0
M  V30 2692 N 263.102 -1.41638 0.69111 0
M  V30 2693 C 264.035 -2.28183 -0.0274913 0
M  V30 2694 C 265.013 -1.41984 -0.792424 0
M  V30 2695 O 266.197 -1.71415 -0.784169 0
M  V30 2696 C 263.324 -3.22135 -1.04628 0
M  V30 2697 C 262.37 -4.24848 -0.375037 0
M  V30 2698 S 263.203 -5.28231 0.879321 0
M  V30 2699 C 264.359 -6.25748 -0.137983 0
M  V30 2700 H 264.592 -2.88782 0.706553 0
M  V30 2701 H 262.125 -1.46709 0.481222 0
M  V30 2702 H 264.083 -3.76797 -1.62894 0
M  V30 2703 H 262.744 -2.6064 -1.75287 0
M  V30 2704 H 261.937 -4.90837 -1.14433 0
M  V30 2705 H 261.539 -3.73758 0.134434 0
M  V30 2706 H 263.831 -6.70188 -0.992659 0
M  V30 2707 H 264.774 -7.06417 0.487867 0
M  V30 2708 H 265.182 -5.62363 -0.490762 0
M  V30 2709 N 264.58 -0.43555 -1.51462 0
M  V30 2710 C 265.829 0.133007 -2.01261 0
M  V30 2711 C 266.142 1.43942 -1.32439 0
M  V30 2712 O 267.348 2.09081 -1.73198 0
M  V30 2713 C 265.804 0.287581 -3.58749 0
M  V30 2714 C 265.412 -1.00829 -4.36506 0
M  V30 2715 C 267.156 0.810004 -4.167 0
M  V30 2716 C 265.063 -0.819454 -5.85695 0
M  V30 2717 H 263.993 0.0534822 -0.752101 0
M  V30 2718 H 266.644 -0.565038 -1.74584 0
M  V30 2719 H 265.026 1.04859 -3.81865 0
M  V30 2720 H 266.2 -1.77749 -4.25138 0
M  V30 2721 H 264.515 -1.45911 -3.89999 0
M  V30 2722 H 267.112 0.967743 -5.2587 0
M  V30 2723 H 267.455 1.79196 -3.75758 0
M  V30 2724 H 267.988 0.107357 -3.97655 0
M  V30 2725 H 264.727 -1.77374 -6.31046 0
M  V30 2726 H 264.247 -0.0900208 -5.99732 0
M  V30 2727 H 265.926 -0.471949 -6.45276 0
M  V30 2728 N 266.058 1.56714 -0.166846 0
M  V30 2729 C 267.304 1.97039 0.479962 0
M  V30 2730 C 267.637 1.05264 1.63197 0
M  V30 2731 O 266.912 0.0988833 1.94248 0
M  V30 2732 C 267.195 3.46867 0.967212 0
M  V30 2733 C 267.048 4.49421 -0.18466 0
M  V30 2734 C 268.367 3.9968 1.84238 0
M  V30 2735 H 265.486 0.71641 0.172992 0
M  V30 2736 H 268.128 1.8832 -0.252079 0
M  V30 2737 H 266.278 3.54428 1.59101 0
M  V30 2738 H 267.95 4.53924 -0.821621 0
M  V30 2739 H 266.193 4.25573 -0.840837 0
M  V30 2740 H 266.864 5.51644 0.198317 0
M  V30 2741 H 269.34 3.94723 1.31655 0
M  V30 2742 H 268.216 5.04941 2.15234 0
M  V30 2743 H 268.477 3.43226 2.78654 0
M  V30 2744 N 267.536 -0.106894 1.57237 0
M  V30 2745 C 268.499 -1.11466 2.0027 0
M  V30 2746 C 269.499 -1.33623 0.894519 0
M  V30 2747 O 270.689 -1.29935 1.16028 0
M  V30 2748 C 267.821 -2.46646 2.35327 0
M  V30 2749 H 269.014 -0.744516 2.90512 0
M  V30 2750 H 266.567 -0.351576 1.52295 0
M  V30 2751 H 267.302 -2.88558 1.48003 0
M  V30 2752 H 267.087 -2.31915 3.16161 0
M  V30 2753 H 268.577 -3.19151 2.69318 0
M  V30 2754 N 269.014 -1.53014 -0.377408 0
M  V30 2755 C 269.944 -1.81589 -1.46791 0
M  V30 2756 C 270.925 -0.668622 -1.56408 0
M  V30 2757 O 272.11 -0.917337 -1.71168 0
M  V30 2758 C 269.24 -1.99519 -2.8427 0
M  V30 2759 C 268.194 -3.15249 -2.89486 0
M  V30 2760 C 267.52 -3.18451 -4.29527 0
M  V30 2761 C 268.82 -4.54084 -2.58079 0
M  V30 2762 H 270.514 -2.7291 -1.23127 0
M  V30 2763 H 268.06 -1.31319 -0.590883 0
M  V30 2764 H 270.013 -2.18092 -3.60575 0
M  V30 2765 H 268.737 -1.04897 -3.09296 0
M  V30 2766 H 267.396 -2.96477 -2.15631 0
M  V30 2767 H 267.044 -2.2149 -4.5161 0
M  V30 2768 H 266.744 -3.962 -4.33934 0
M  V30 2769 H 268.268 -3.39193 -5.07721 0
M  V30 2770 H 269.682 -4.72899 -3.24098 0
M  V30 2771 H 268.079 -5.33987 -2.7382 0
M  V30 2772 H 269.149 -4.60006 -1.53372 0
M  V30 2773 N 270.492 0.636531 -1.44174 0
M  V30 2774 C 271.769 1.39463 -1.37148 0
M  V30 2775 C 272.149 2.11082 -0.027507 0
M  V30 2776 O 271.497 2.05954 0.989716 0
M  V30 2777 C 271.707 2.36552 -2.56601 0
M  V30 2778 C 273.055 3.00048 -3.00427 0
M  V30 2779 O 274.079 2.46878 -2.56767 0
M  V30 2780 O 272.938 3.96488 -3.76111 0
M  V30 2781 H 270.032 0.623903 -0.542839 0
M  V30 2782 H 272.578 0.662039 -1.56253 0
M  V30 2783 H 271.35 1.82692 -3.46034 0
M  V30 2784 H 270.973 3.17236 -2.39681 0
M  V30 2785 N 271.97 1.30982 0.876444 0
M  V30 2786 C 273.381 1.18277 1.44456 0
M  V30 2787 C 273.732 -0.213265 1.95037 0
M  V30 2788 O 272.857 -1.11057 1.85729 0
M  V30 2789 C 273.452 2.1411 2.62569 0
M  V30 2790 C 272.011 2.05358 3.15444 0
M  V30 2791 C 271.158 2.03706 1.88146 0
M  V30 2792 H 274.109 1.43127 0.685584 0
M  V30 2793 H 274.13 1.72692 3.39054 0
M  V30 2794 H 273.642 3.15706 2.25724 0
M  V30 2795 H 271.743 1.06934 3.56926 0
M  V30 2796 H 271.856 2.94156 3.78166 0
M  V30 2797 H 270.22 1.48629 2.06837 0
M  V30 2798 H 271.003 3.07047 1.53547 0
M  V30 2799 N 273.449 -1.08991 1.13837 0
M  V30 2800 C 274.397 -2.17841 0.815347 0
M  V30 2801 C 275.391 -1.68164 -0.204233 0
M  V30 2802 O 276.597 -1.79897 -0.0609304 0
M  V30 2803 H 272.972 -0.710654 0.245915 0
M  V30 2804 H 274.943 -2.42315 1.74143 0
M  V30 2805 C 273.692 -3.46381 0.302614 0
M  V30 2806 H 273.015 -3.84979 1.0785 0
M  V30 2807 H 274.455 -4.23844 0.115074 0
M  V30 2808 C 272.914 -3.22556 -0.972591 0
M  V30 2809 O 273.444 -3.45599 -2.04754 0
M  V30 2810 N 271.65 -2.76134 -0.905455 0
M  V30 2811 H 271.197 -2.57582 -0.0305421 0
M  V30 2812 H 271.155 -2.60571 -1.75926 0
M  V30 2813 N 274.927 -0.932562 -1.27047 0
M  V30 2814 C 276.175 -0.574422 -1.93765 0
M  V30 2815 C 276.496 0.887993 -1.73608 0
M  V30 2816 O 275.766 1.62999 -1.08665 0
M  V30 2817 H 274.346 -0.209451 -0.717035 0
M  V30 2818 H 277.008 -1.18601 -1.5466 0
M  V30 2819 H 276.104 -0.784841 -3.02071 0
M  V30 2820 N 276.405 1.4127 -0.698611 0
M  V30 2821 C 277.335 2.33447 -0.049629 0
M  V30 2822 C 278.316 1.51982 0.763898 0
M  V30 2823 O 279.501 1.80509 0.716257 0
M  V30 2824 C 276.631 3.35828 0.885267 0
M  V30 2825 C 275.585 4.27627 0.178613 0
M  V30 2826 C 274.911 5.20406 1.22807 0
M  V30 2827 C 276.211 5.13459 -0.956933 0
M  V30 2828 H 277.905 2.87966 -0.81951 0
M  V30 2829 H 275.451 1.38461 -0.395538 0
M  V30 2830 H 277.404 3.9924 1.34854 0
M  V30 2831 H 276.128 2.79666 1.68685 0
M  V30 2832 H 274.787 3.65643 -0.26466 0
M  V30 2833 H 274.435 4.60558 2.02226 0
M  V30 2834 H 274.135 5.82661 0.760239 0
M  V30 2835 H 275.659 5.86695 1.69179 0
M  V30 2836 H 277.073 5.70421 -0.573805 0
M  V30 2837 H 275.47 5.8467 -1.35205 0
M  V30 2838 H 276.54 4.50443 -1.79524 0
M  V30 2839 N 277.883 0.443576 1.51229 0
M  V30 2840 C 279.299 0.0962001 1.5931 0
M  V30 2841 C 279.499 -1.39501 1.45402 0
M  V30 2842 O 278.555 -2.16557 1.29843 0
M  V30 2843 C 279.868 0.621875 2.94199 0
M  V30 2844 C 281.416 0.582865 3.07525 0
M  V30 2845 C 281.891 1.08562 4.44948 0
M  V30 2846 N 283.382 1.04387 4.51284 0
M  V30 2847 C 284.117 1.40368 5.55954 0
M  V30 2848 N 283.613 1.83664 6.68011 0
M  V30 2849 N 285.406 1.32145 5.46346 0
M  V30 2850 H 277.557 1.41376 1.58514 0
M  V30 2851 H 279.82 0.582965 0.747567 0
M  V30 2852 H 279.526 1.66546 3.09767 0
M  V30 2853 H 279.4 0.0502125 3.77167 0
M  V30 2854 H 281.787 -0.451749 2.91622 0
M  V30 2855 H 281.868 1.191 2.26382 0
M  V30 2856 H 281.512 2.11873 4.61598 0
M  V30 2857 H 281.442 0.453956 5.2464 0
M  V30 2858 H 283.933 0.725986 3.70861 0
M  V30 2859 H 284.246 2.0934 7.43906 0
M  V30 2860 H 282.591 1.87596 6.69203 0
M  V30 2861 H 285.782 0.981808 4.57688 0
M  V30 2862 H 285.955 1.60514 6.27805 0
M  V30 2863 N 279.361 -1.56624 0.175154 0
M  V30 2864 C 280.772 -1.83561 -0.340916 0
M  V30 2865 C 281.123 -1.09511 -1.62794 0
M  V30 2866 O 280.248 -0.349389 -2.13561 0
M  V30 2867 C 280.843 -3.32979 -0.625313 0
M  V30 2868 C 279.402 -3.60399 -1.08581 0
M  V30 2869 C 278.549 -2.77024 -0.123722 0
M  V30 2870 H 281.5 -1.53593 0.399344 0
M  V30 2871 H 281.521 -3.50666 -1.47694 0
M  V30 2872 H 281.033 -3.86847 0.311575 0
M  V30 2873 H 279.134 -3.11945 -2.03767 0
M  V30 2874 H 279.247 -4.68711 -0.992317 0
M  V30 2875 H 277.611 -2.46993 -0.621821 0
M  V30 2876 H 278.394 -3.33674 0.807256 0
M  V30 2877 N 280.839 0.0985539 -1.57292 0
M  V30 2878 C 281.769 1.12064 -2.04851 0
M  V30 2879 C 282.75 1.41981 -0.936767 0
M  V30 2880 O 283.935 1.52071 -1.20781 0
M  V30 2881 C 281.065 2.44144 -2.47004 0
M  V30 2882 C 280.019 2.28643 -3.6181 0
M  V30 2883 C 279.345 3.65869 -3.89929 0
M  V30 2884 C 280.645 1.72986 -4.92822 0
M  V30 2885 H 282.339 0.724979 -2.9049 0
M  V30 2886 H 279.885 0.34729 -1.39749 0
M  V30 2887 H 281.838 3.15914 -2.78884 0
M  V30 2888 H 280.562 2.85639 -1.5836 0
M  V30 2889 H 279.221 1.59318 -3.30172 0
M  V30 2890 H 278.869 4.04885 -2.98458 0
M  V30 2891 H 278.569 3.56344 -4.67218 0
M  V30 2892 H 280.093 4.39112 -4.2428 0
M  V30 2893 H 281.507 2.34593 -5.23105 0
M  V30 2894 H 279.904 1.74229 -5.74251 0
M  V30 2895 H 280.974 0.689007 -4.7998 0
M  V30 2896 N 282.317 1.53212 0.369288 0
M  V30 2897 C 283.542 1.73423 1.1375 0
M  V30 2898 C 283.967 0.460404 1.82378 0
M  V30 2899 O 283.325 -0.585298 1.71592 0
M  V30 2900 C 283.373 2.89769 2.1463 0
M  V30 2901 O 282.477 2.58119 3.21634 0
M  V30 2902 H 281.818 0.576061 0.330227 0
M  V30 2903 H 284.348 2.00083 0.427547 0
M  V30 2904 H 284.358 3.15829 2.58294 0
M  V30 2905 H 283.033 3.8217 1.64071 0
M  V30 2906 H 281.61 2.42864 2.82969 0
M  V30 2907 N 283.795 -0.628877 1.44509 0
M  V30 2908 C 285.044 -1.38437 1.4669 0
M  V30 2909 C 285.357 -1.95322 0.104272 0
M  V30 2910 O 286.563 -2.715 0.00362163 0
M  V30 2911 C 285.019 -2.50659 2.5826 0
M  V30 2912 C 284.627 -2.00277 4.0074 0
M  V30 2913 C 286.371 -3.27844 2.69664 0
M  V30 2914 C 284.278 -3.09854 5.0373 0
M  V30 2915 H 283.208 -0.520245 0.545766 0
M  V30 2916 H 285.859 -0.676313 1.70582 0
M  V30 2917 H 284.241 -3.2405 2.27612 0
M  V30 2918 H 285.415 -1.33736 4.40966 0
M  V30 2919 H 283.73 -1.35901 3.93599 0
M  V30 2920 H 286.327 -4.09534 3.43781 0
M  V30 2921 H 286.67 -3.77471 1.75559 0
M  V30 2922 H 287.203 -2.61543 2.99733 0
M  V30 2923 H 283.942 -2.65168 5.99472 0
M  V30 2924 H 283.462 -3.7503 4.68095 0
M  V30 2925 H 285.141 -3.74592 5.27532 0
M  V30 2926 N 285.273 -1.31445 -0.869486 0
M  V30 2927 C 286.521 -1.20918 -1.61936 0
M  V30 2928 C 286.842 0.232683 -1.93607 0
M  V30 2929 O 286.112 1.15352 -1.58338 0
M  V30 2930 H 284.692 -0.44454 -0.600328 0
M  V30 2931 H 287.354 -1.64776 -1.0409 0
M  V30 2932 H 286.45 -1.78124 -2.56278 0
M  V30 2933 N 286.751 1.08385 -1.14413 0
M  V30 2934 C 287.684 2.14642 -0.774871 0
M  V30 2935 C 288.662 1.60761 0.243876 0
M  V30 2936 O 289.846 1.88031 0.132883 0
M  V30 2937 C 286.973 3.38366 -0.150491 0
M  V30 2938 C 286.019 4.10997 -1.13945 0
M  V30 2939 S 286.852 4.63797 -2.67679 0
M  V30 2940 C 288.008 5.90808 -2.06631 0
M  V30 2941 H 288.241 2.45633 -1.67487 0
M  V30 2942 H 285.774 1.20498 -0.96538 0
M  V30 2943 H 287.732 4.09996 0.203334 0
M  V30 2944 H 286.393 3.05572 0.72694 0
M  V30 2945 H 285.586 4.99783 -0.65059 0
M  V30 2946 H 285.188 3.4528 -1.43727 0
M  V30 2947 H 287.48 6.62411 -1.4219 0
M  V30 2948 H 288.423 6.4439 -2.93542 0
M  V30 2949 H 288.831 5.4383 -1.51357 0
M  V30 2950 N 288.23 0.939286 1.26551 0
M  V30 2951 C 289.163 0.391702 2.24813 0
M  V30 2952 C 290.141 -0.518421 1.54114 0
M  V30 2953 O 291.325 -0.456299 1.82894 0
M  V30 2954 C 288.452 -0.437382 3.35864 0
M  V30 2955 C 287.498 0.410946 4.24516 0
M  V30 2956 S 288.331 1.83372 5.03125 0
M  V30 2957 C 289.487 1.01264 6.17654 0
M  V30 2958 H 289.72 1.22448 2.70913 0
M  V30 2959 H 287.253 0.742269 1.35387 0
M  V30 2960 H 289.211 -0.909837 4.0029 0
M  V30 2961 H 287.872 -1.24482 2.8838 0
M  V30 2962 H 287.065 -0.224191 5.03501 0
M  V30 2963 H 286.667 0.818014 3.64945 0
M  V30 2964 H 288.959 0.254023 6.77024 0
M  V30 2965 H 289.902 1.77589 6.85469 0
M  V30 2966 H 290.31 0.549532 5.61819 0
M  V30 2967 N 289.708 -1.40897 0.706093 0
M  V30 2968 C 290.956 -2.00657 0.241054 0
M  V30 2969 C 291.277 -1.56241 -1.16678 0
M  V30 2970 O 290.547 -0.79765 -1.78926 0
M  V30 2971 H 289.127 -0.742018 0.0861308 0
M  V30 2972 H 291.789 -1.72372 0.909604 0
M  V30 2973 H 290.885 -3.10958 0.266705 0
M  V30 2974 N 291.186 -0.45159 -1.50991 0
M  V30 2975 C 292.463 0.170707 -1.94854 0
M  V30 2976 C 292.843 1.58788 -1.39103 0
M  V30 2977 O 292.191 2.20913 -0.583921 0
M  V30 2978 C 292.401 0.133929 -3.48743 0
M  V30 2979 C 293.749 0.33248 -4.23296 0
M  V30 2980 O 294.773 0.211403 -3.55572 0
M  V30 2981 O 293.632 0.57486 -5.43468 0
M  V30 2982 H 290.726 0.122264 -0.817912 0
M  V30 2983 H 293.272 -0.510594 -1.61836 0
M  V30 2984 H 292.044 -0.856283 -3.81816 0
M  V30 2985 H 291.667 0.857529 -3.88242 0
M  V30 2986 N 292.664 1.56529 -0.183458 0
M  V30 2987 C 293.627 2.17324 0.728223 0
M  V30 2988 C 294.627 1.12453 1.14939 0
M  V30 2989 O 295.817 1.37902 1.06437 0
M  V30 2990 C 292.949 2.76591 1.99274 0
M  V30 2991 H 294.142 2.99241 0.198772 0
M  V30 2992 H 291.695 1.5616 0.0661391 0
M  V30 2993 H 292.43 1.98441 2.56499 0
M  V30 2994 H 292.215 3.5335 1.69959 0
M  V30 2995 H 293.705 3.23311 2.6431 0
M  V30 2996 N 294.142 -0.090211 1.57342 0
M  V30 2997 C 295.372 -0.805055 1.90269 0
M  V30 2998 C 295.78 -1.72561 0.775842 0
M  V30 2999 O 295.123 -1.81839 -0.260843 0
M  V30 3000 C 295.185 -1.66734 3.18497 0
M  V30 3001 C 294.849 -0.918092 4.47683 0
M  V30 3002 C 295.846 -0.245674 5.19319 0
M  V30 3003 C 293.531 -0.890724 4.94339 0
M  V30 3004 C 295.525 0.444088 6.35851 0
M  V30 3005 C 293.212 -0.197179 6.10782 0
M  V30 3006 C 294.21 0.469044 6.81388 0
M  V30 3007 O 293.898 1.15146 7.95611 0
M  V30 3008 H 293.63 -0.235143 0.633785 0
M  V30 3009 H 296.184 -0.0703805 2.05279 0
M  V30 3010 H 294.414 -2.44437 2.99646 0
M  V30 3011 H 296.103 -2.25919 3.37217 0
M  V30 3012 H 296.869 -0.258246 4.84312 0
M  V30 3013 H 292.748 -1.39873 4.39268 0
M  V30 3014 H 296.292 0.964667 6.90898 0
M  V30 3015 H 292.189 -0.18247 6.45242 0
M  V30 3016 H 292.957 1.05885 8.11622 0
M  V30 3017 N 295.62 -1.53406 -0.361157 0
M  V30 3018 C 296.866 -1.70054 -1.10496 0
M  V30 3019 C 297.199 -0.453278 -1.88836 0
M  V30 3020 O 296.474 0.5495 -1.86576 0
M  V30 3021 C 296.757 -2.95317 -2.06058 0
M  V30 3022 C 296.61 -4.3021 -1.31298 0
M  V30 3023 C 297.929 -3.16193 -3.06121 0
M  V30 3024 H 295.048 -0.618799 -0.400321 0
M  V30 3025 H 297.69 -1.86052 -0.385318 0
M  V30 3026 H 295.84 -2.81809 -2.67425 0
M  V30 3027 H 297.512 -4.55538 -0.726807 0
M  V30 3028 H 295.755 -4.29421 -0.614853 0
M  V30 3029 H 296.426 -5.14 -2.01265 0
M  V30 3030 H 298.902 -3.28916 -2.5486 0
M  V30 3031 H 297.778 -4.05266 -3.70204 0
M  V30 3032 H 298.039 -2.31676 -3.76535 0
M  V30 3033 N 297.098 0.621204 -1.44841 0
M  V30 3034 C 298.344 1.3826 -1.48365 0
M  V30 3035 C 298.677 1.93831 -0.119624 0
M  V30 3036 O 297.952 1.74251 0.864111 0
M  V30 3037 C 298.235 2.54058 -2.55199 0
M  V30 3038 C 298.088 2.03772 -4.00995 0
M  V30 3039 C 299.407 3.56225 -2.58442 0
M  V30 3040 H 296.526 0.501374 -0.540179 0
M  V30 3041 H 299.168 0.7015 -1.76576 0
M  V30 3042 H 297.318 3.12162 -2.31274 0
M  V30 3043 H 298.99 1.50423 -4.36086 0
M  V30 3044 H 297.233 1.34876 -4.12299 0
M  V30 3045 H 297.904 2.87185 -4.71411 0
M  V30 3046 H 300.38 3.07939 -2.79844 0
M  V30 3047 H 299.256 4.34756 -3.3508 0
M  V30 3048 H 299.517 4.10949 -1.63013 0
M  V30 3049 N 298.576 1.31904 0.862503 0
M  V30 3050 C 299.539 1.20131 1.95195 0
M  V30 3051 C 300.539 0.126409 1.60302 0
M  V30 3052 O 301.729 0.376234 1.70089 0
M  V30 3053 C 298.861 0.845691 3.30244 0
M  V30 3054 H 300.054 2.16943 2.07064 0
M  V30 3055 H 297.607 1.15622 1.05172 0
M  V30 3056 H 298.342 -0.120957 3.24074 0
M  V30 3057 H 298.127 1.62276 3.56944 0
M  V30 3058 H 299.617 0.787418 4.10109 0
M  V30 3059 N 300.054 -1.07777 1.14986 0
M  V30 3060 C 301.279 -1.84558 0.946213 0
M  V30 3061 C 301.704 -1.81323 -0.500362 0
M  V30 3062 O 301.062 -1.20301 -1.35637 0
M  V30 3063 C 301.11 -3.29736 1.45968 0
M  V30 3064 O 300.214 -4.07149 0.65601 0
M  V30 3065 H 299.555 -0.571641 0.33782 0
M  V30 3066 H 302.085 -1.35991 1.52865 0
M  V30 3067 H 302.095 -3.80574 1.47063 0
M  V30 3068 H 300.77 -3.31406 2.51283 0
M  V30 3069 H 299.347 -3.65994 0.714322 0
M  V30 3070 N 301.532 -0.945985 -1.26051 0
M  V30 3071 C 302.442 -0.465633 -2.29933 0
M  V30 3072 C 303.458 0.462761 -1.67733 0
M  V30 3073 O 304.634 0.341118 -1.9849 0
M  V30 3074 C 301.699 0.256994 -3.45746 0
M  V30 3075 C 300.76 -0.708549 -4.23412 0
M  V30 3076 C 299.993 -0.0203135 -5.33696 0
M  V30 3077 O 300.216 1.19571 -5.57726 0
M  V30 3078 O 299.15 -0.701459 -5.97799 0
M  V30 3079 H 302.976 -1.32866 -2.73094 0
M  V30 3080 H 300.561 -0.712071 -1.31339 0
M  V30 3081 H 302.443 0.663852 -4.16138 0
M  V30 3082 H 301.118 1.09533 -3.04605 0
M  V30 3083 H 300.025 -1.16545 -3.55483 0
M  V30 3084 H 301.358 -1.51465 -4.68315 0
M  V30 3085 N 303.011 1.40521 -0.713556 0
M  V30 3086 C 304.239 2.05237 -0.261775 0
M  V30 3087 C 304.654 1.53755 1.09567 0
M  V30 3088 O 304.011 0.693268 1.6882 0
M  V30 3089 C 304.062 3.60763 -0.230706 0
M  V30 3090 O 303.783 4.10345 -1.53455 0
M  V30 3091 C 305.284 4.42651 0.239874 0
M  V30 3092 H 302.504 0.660533 -0.118057 0
M  V30 3093 H 305.048 1.79967 -0.971192 0
M  V30 3094 H 303.203 3.8501 0.429661 0
M  V30 3095 H 303.617 5.04526 -1.43366 0
M  V30 3096 H 305.091 5.51599 0.210468 0
M  V30 3097 H 305.568 4.20082 1.28171 0
M  V30 3098 H 306.174 4.23507 -0.390142 0
M  V30 3099 N 304.489 0.459591 1.5075 0
M  V30 3100 C 305.729 -0.09824 2.04164 0
M  V30 3101 C 306.093 -1.3801 1.33481 0
M  V30 3102 O 307.294 -2.01959 1.77387 0
M  V30 3103 C 305.565 -0.289467 3.56226 0
M  V30 3104 S 307.124 -0.807507 4.31306 0
M  V30 3105 H 303.942 -0.0213845 0.710678 0
M  V30 3106 H 306.544 0.624098 1.85271 0
M  V30 3107 H 305.248 0.649461 4.05229 0
M  V30 3108 H 304.779 -1.03825 3.79452 0
M  V30 3109 H 306.794 -2.0824 4.50389 0
M  V30 3110 N 305.967 -1.56429 0.191757 0
M  V30 3111 C 306.93 -2.17707 -0.716688 0
M  V30 3112 C 307.93 -1.13061 -1.14341 0
M  V30 3113 O 309.12 -1.38464 -1.05704 0
M  V30 3114 C 306.252 -2.77644 -1.97804 0
M  V30 3115 H 307.445 -2.99342 -0.1829 0
M  V30 3116 H 304.998 -1.56193 -0.0578566 0
M  V30 3117 H 305.733 -1.99799 -2.55443 0
M  V30 3118 H 305.518 -3.54246 -1.68083 0
M  V30 3119 H 307.008 -3.24708 -2.62592 0
M  V30 3120 N 307.445 0.0818655 -1.57387 0
M  V30 3121 C 308.692 0.782914 -1.86753 0
M  V30 3122 C 309.02 1.78082 -0.782118 0
M  V30 3123 O 308.275 1.94426 0.22295 0
M  V30 3124 C 308.574 1.53513 -3.22752 0
M  V30 3125 C 308.24 0.678134 -4.45771 0
M  V30 3126 C 306.902 0.441929 -4.79166 0
M  V30 3127 C 309.254 0.0832243 -5.21134 0
M  V30 3128 C 306.582 -0.398833 -5.85343 0
M  V30 3129 C 308.934 -0.744935 -6.28199 0
M  V30 3130 C 307.598 -0.991107 -6.60101 0
M  V30 3131 H 306.868 0.286489 -0.683378 0
M  V30 3132 H 309.515 0.0439808 -1.91449 0
M  V30 3133 H 307.82 2.34599 -3.138 0
M  V30 3134 H 309.517 2.08218 -3.42705 0
M  V30 3135 H 306.107 0.872357 -4.19628 0
M  V30 3136 H 310.291 0.252847 -4.95655 0
M  V30 3137 H 305.547 -0.598405 -6.08465 0
M  V30 3138 H 309.721 -1.21271 -6.8576 0
M  V30 3139 H 307.348 -1.64437 -7.42202 0
M  V30 3140 N 308.923 1.53595 0.353017 0
M  V30 3141 C 310.2 1.61002 1.11075 0
M  V30 3142 C 310.58 0.425356 2.0677 0
M  V30 3143 O 309.928 -0.583267 2.2093 0
M  V30 3144 C 310.138 2.96631 1.83877 0
M  V30 3145 C 311.486 3.51653 2.37961 0
M  V30 3146 O 312.51 2.98743 1.93987 0
M  V30 3147 O 311.369 4.44177 3.18386 0
M  V30 3148 H 308.463 0.650825 0.510251 0
M  V30 3149 H 311.009 1.6594 0.35527 0
M  V30 3150 H 309.781 3.74293 1.14108 0
M  V30 3151 H 309.404 2.95242 2.66304 0
M  V30 3152 N 310.401 -0.613514 1.45168 0
M  V30 3153 C 311.647 -1.37471 1.49096 0
M  V30 3154 C 311.98 -1.93765 0.129901 0
M  V30 3155 O 311.255 -1.74707 -0.854858 0
M  V30 3156 C 311.538 -2.52701 2.56542 0
M  V30 3157 C 311.391 -2.01643 4.0207 0
M  V30 3158 C 312.71 -3.54849 2.60327 0
M  V30 3159 H 309.829 -0.498502 0.54283 0
M  V30 3160 H 312.471 -0.692125 1.76945 0
M  V30 3161 H 310.621 -3.10931 2.32926 0
M  V30 3162 H 312.293 -1.48108 4.36877 0
M  V30 3163 H 310.536 -1.32688 4.13009 0
M  V30 3164 H 311.207 -2.84681 4.72928 0
M  V30 3165 H 313.683 -3.0645 2.81474 0
M  V30 3166 H 312.559 -4.32973 3.37381 0
M  V30 3167 H 312.82 -4.10079 1.6519 0
M  V30 3168 N 311.879 -1.3236 -0.855495 0
M  V30 3169 C 313.125 -1.23054 -1.612 0
M  V30 3170 C 313.458 0.207404 -1.93089 0
M  V30 3171 O 312.733 1.14432 -1.57275 0
M  V30 3172 C 313.016 -2.08937 -2.93287 0
M  V30 3173 C 312.869 -3.61105 -2.68185 0
M  V30 3174 C 314.188 -1.94986 -3.94549 0
M  V30 3175 H 311.307 -0.448364 -0.584926 0
M  V30 3176 H 313.949 -1.62297 -0.987917 0
M  V30 3177 H 312.099 -1.75599 -3.46551 0
M  V30 3178 H 313.771 -4.04652 -2.21483 0
M  V30 3179 H 312.014 -3.83813 -2.02164 0
M  V30 3180 H 312.685 -4.16522 -3.62234 0
M  V30 3181 H 315.161 -2.24189 -3.5054 0
M  V30 3182 H 314.037 -2.57356 -4.84829 0
M  V30 3183 H 314.298 -0.917263 -4.3248 0
M  V30 3184 N 313.357 1.07166 -1.15556 0
M  V30 3185 C 314.605 1.79443 -0.929764 0
M  V30 3186 C 314.926 1.87246 0.544414 0
M  V30 3187 O 314.196 1.37473 1.39564 0
M  V30 3188 H 312.776 0.664625 -0.341003 0
M  V30 3189 H 315.438 1.29499 -1.45657 0
M  V30 3190 H 314.534 2.81832 -1.34079 0
M  V30 3191 N 314.835 0.952656 1.25548 0
M  V30 3192 C 315.798 0.475794 2.24207 0
M  V30 3193 C 316.798 -0.419428 1.55234 0
M  V30 3194 O 317.988 -0.216994 1.72843 0
M  V30 3195 C 315.12 -0.312814 3.39462 0
M  V30 3196 H 316.313 1.34779 2.67908 0
M  V30 3197 H 313.866 0.735739 1.37901 0
M  V30 3198 H 314.601 -1.20257 3.01179 0
M  V30 3199 H 314.386 0.329404 3.90714 0
M  V30 3200 H 315.876 -0.635986 4.12729 0
M  V30 3201 N 316.313 -1.40141 0.720998 0
M  V30 3202 C 317.541 -2.05096 0.272656 0
M  V30 3203 C 317.956 -1.54334 -1.0875 0
M  V30 3204 O 317.313 -0.702211 -1.6845 0
M  V30 3205 C 317.364 -3.60636 0.249835 0
M  V30 3206 O 317.085 -4.09526 1.55629 0
M  V30 3207 C 318.586 -4.42772 -0.216396 0
M  V30 3208 H 315.806 -0.659897 0.121558 0
M  V30 3209 H 318.35 -1.79449 0.980723 0
M  V30 3210 H 316.505 -3.85232 -0.409237 0
M  V30 3211 H 316.919 -5.03758 1.4604 0
M  V30 3212 H 318.393 -5.51702 -0.181212 0
M  V30 3213 H 318.87 -4.20756 -1.25941 0
M  V30 3214 H 319.476 -4.23294 0.412596 0
M  V30 3215 N 317.792 -0.46758 -1.50504 0
M  V30 3216 C 319.022 0.086288 -2.0642 0
M  V30 3217 C 319.43 1.34369 -1.33197 0
M  V30 3218 O 318.773 1.79431 -0.393747 0
M  V30 3219 C 318.835 0.443846 -3.5675 0
M  V30 3220 C 318.499 -0.711035 -4.51435 0
M  V30 3221 C 319.496 -1.59205 -4.94924 0
M  V30 3222 C 317.181 -0.900363 -4.94165 0
M  V30 3223 C 319.175 -2.64683 -5.79846 0
M  V30 3224 C 316.862 -1.95837 -5.7887 0
M  V30 3225 C 317.86 -2.82997 -6.21612 0
M  V30 3226 O 317.548 -3.86977 -7.0463 0
M  V30 3227 H 317.28 -0.00217814 -0.675996 0
M  V30 3228 H 319.834 -0.654346 -1.94698 0
M  V30 3229 H 318.064 1.23762 -3.6636 0
M  V30 3230 H 319.753 0.932386 -3.95046 0
M  V30 3231 H 320.519 -1.45745 -4.62583 0
M  V30 3232 H 316.398 -0.231427 -4.60419 0
M  V30 3233 H 319.942 -3.32745 -6.13128 0
M  V30 3234 H 315.839 -2.09305 -6.10624 0
M  V30 3235 H 316.607 -3.83923 -7.22873 0
M  V30 3236 N 319.27 1.56325 -0.20005 0
M  V30 3237 C 320.2 2.22318 0.713916 0
M  V30 3238 C 321.181 1.18788 1.21752 0
M  V30 3239 O 322.366 1.47309 1.26545 0
M  V30 3240 C 319.496 2.88639 1.93144 0
M  V30 3241 C 318.45 3.98457 1.56255 0
M  V30 3242 C 317.776 4.51967 2.85709 0
M  V30 3243 C 319.076 5.16612 0.768747 0
M  V30 3244 H 320.77 2.98952 0.163755 0
M  V30 3245 H 318.316 1.43792 0.0773219 0
M  V30 3246 H 320.269 3.33491 2.57608 0
M  V30 3247 H 318.993 2.09419 2.50621 0
M  V30 3248 H 317.652 3.54305 0.941471 0
M  V30 3249 H 317.3 3.69503 3.41287 0
M  V30 3250 H 317 5.26071 2.6177 0
M  V30 3251 H 318.524 4.99523 3.51154 0
M  V30 3252 H 319.938 5.57977 1.3166 0
M  V30 3253 H 318.335 5.96812 0.627286 0
M  V30 3254 H 319.405 4.84358 -0.229168 0
M  V30 3255 N 320.748 -0.0735177 1.57428 0
M  V30 3256 C 322.164 -0.428264 1.53747 0
M  V30 3257 C 322.364 -1.79272 0.91998 0
M  V30 3258 O 321.42 -2.47051 0.521745 0
M  V30 3259 C 322.733 -0.370914 2.98404 0
M  V30 3260 C 324.281 -0.451224 3.0973 0
M  V30 3261 C 324.756 -0.4238 4.56035 0
M  V30 3262 N 326.247 -0.483925 4.60665 0
M  V30 3263 C 326.982 -0.484891 5.71346 0
M  V30 3264 N 326.478 -0.440775 6.91396 0
M  V30 3265 N 328.271 -0.531319 5.59583 0
M  V30 3266 H 320.422 0.819949 1.95935 0
M  V30 3267 H 322.685 0.307493 0.896745 0
M  V30 3268 H 322.391 0.564956 3.47133 0
M  V30 3269 H 322.265 -1.18176 3.5821 0
M  V30 3270 H 324.652 -1.37752 2.60976 0
M  V30 3271 H 324.733 0.388167 2.52838 0
M  V30 3272 H 324.377 0.498638 5.05446 0
M  V30 3273 H 324.307 -1.2807 5.10789 0
M  V30 3274 H 326.798 -0.522338 3.74273 0
M  V30 3275 H 327.111 -0.44539 7.71515 0
M  V30 3276 H 325.456 -0.40749 6.93804 0
M  V30 3277 H 328.647 -0.563464 4.64696 0
M  V30 3278 H 328.82 -0.528603 6.4584 0
M  V30 3279 N 322.226 -1.5378 -0.344866 0
M  V30 3280 C 323.136 -1.84667 -1.4469 0
M  V30 3281 C 324.152 -0.736704 -1.57635 0
M  V30 3282 O 325.328 -1.02888 -1.73136 0
M  V30 3283 C 322.393 -2.04869 -2.79696 0
M  V30 3284 C 321.454 -3.28731 -2.76106 0
M  V30 3285 C 320.687 -3.4796 -4.04673 0
M  V30 3286 O 320.91 -2.71052 -5.01883 0
M  V30 3287 O 319.844 -4.41383 -4.09224 0
M  V30 3288 H 323.67 -2.78334 -1.21506 0
M  V30 3289 H 321.255 -1.39418 -0.536921 0
M  V30 3290 H 323.137 -2.19609 -3.59652 0
M  V30 3291 H 321.812 -1.14391 -3.02814 0
M  V30 3292 H 320.719 -3.19396 -1.94774 0
M  V30 3293 H 322.052 -4.19198 -2.57941 0
M  V30 3294 N 323.704 0.605807 -1.45491 0
M  V30 3295 C 324.95 1.36679 -1.49823 0
M  V30 3296 C 325.283 1.93693 -0.140175 0
M  V30 3297 O 324.558 1.75158 0.845581 0
M  V30 3298 C 324.841 2.51337 -2.57879 0
M  V30 3299 C 324.694 1.99508 -4.03134 0
M  V30 3300 C 326.013 3.53463 -2.62205 0
M  V30 3301 H 323.132 0.495617 -0.545466 0
M  V30 3302 H 325.774 0.682732 -1.7731 0
M  V30 3303 H 323.924 3.09691 -2.34571 0
M  V30 3304 H 325.596 1.45789 -4.37656 0
M  V30 3305 H 323.839 1.30496 -4.13707 0
M  V30 3306 H 324.51 2.82169 -4.74431 0
M  V30 3307 H 326.986 3.04953 -2.83095 0
M  V30 3308 H 325.862 4.31178 -3.39672 0
M  V30 3309 H 326.123 4.09197 -1.67363 0
M  V30 3310 N 325.182 1.32811 0.848464 0
M  V30 3311 C 326.092 1.24278 1.98978 0
M  V30 3312 C 327.108 0.155176 1.73307 0
M  V30 3313 O 328.284 0.376999 1.9784 0
M  V30 3314 C 325.349 0.972444 3.32783 0
M  V30 3315 C 324.41 2.14911 3.71634 0
M  V30 3316 C 323.643 1.89157 4.99054 0
M  V30 3317 O 323.866 0.837165 5.64223 0
M  V30 3318 O 322.8 2.75433 5.35183 0
M  V30 3319 H 326.626 2.20238 2.09115 0
M  V30 3320 H 324.211 1.12762 0.980052 0
M  V30 3321 H 326.093 0.838432 4.12975 0
M  V30 3322 H 324.768 0.043051 3.23671 0
M  V30 3323 H 323.675 2.33862 2.91992 0
M  V30 3324 H 325.008 3.06151 3.85399 0
M  V30 3325 N 326.66 -1.06551 1.16123 0
M  V30 3326 C 328.071 -1.60768 0.949232 0
M  V30 3327 C 328.422 -1.89523 -0.507508 0
M  V30 3328 O 327.547 -1.66671 -1.38021 0
M  V30 3329 C 328.142 -2.92086 1.71671 0
M  V30 3330 C 326.701 -3.43015 1.54977 0
M  V30 3331 C 325.848 -2.16947 1.72711 0
M  V30 3332 H 328.799 -0.895354 1.31031 0
M  V30 3333 H 328.82 -3.6138 1.19099 0
M  V30 3334 H 328.332 -2.71127 2.7769 0
M  V30 3335 H 326.433 -3.69039 0.513873 0
M  V30 3336 H 326.546 -4.18516 2.33198 0
M  V30 3337 H 324.91 -2.27041 1.15431 0
M  V30 3338 H 325.693 -1.98473 2.80113 0
M  V30 3339 N 328.138 -0.959301 -1.25041 0
M  V30 3340 C 329.386 -0.615393 -1.92503 0
M  V30 3341 C 329.707 0.850969 -1.75452 0
M  V30 3342 O 328.977 1.60658 -1.12098 0
M  V30 3343 H 327.557 -0.224613 -0.712431 0
M  V30 3344 H 330.219 -1.21855 -1.5211 0
M  V30 3345 H 329.315 -0.848738 -3.00338 0
M  V30 3346 N 329.616 1.39756 -0.72842 0
M  V30 3347 C 330.526 2.34444 -0.0855374 0
M  V30 3348 C 331.542 1.57976 0.729356 0
M  V30 3349 O 332.718 1.90301 0.659346 0
M  V30 3350 C 329.783 3.36965 0.815798 0
M  V30 3351 C 328.844 4.29299 -0.0105996 0
M  V30 3352 C 328.077 5.26923 0.84781 0
M  V30 3353 O 328.3 5.30859 2.08673 0
M  V30 3354 O 327.234 6.01249 0.279969 0
M  V30 3355 H 331.06 2.91065 -0.866892 0
M  V30 3356 H 328.645 1.4117 -0.48902 0
M  V30 3357 H 330.527 3.99804 1.33171 0
M  V30 3358 H 329.202 2.82739 1.57608 0
M  V30 3359 H 328.109 3.69703 -0.571877 0
M  V30 3360 H 329.442 4.86712 -0.73295 0
M  V30 3361 N 331.094 0.475555 1.50254 0
M  V30 3362 C 332.027 -0.362381 2.25304 0
M  V30 3363 C 333.005 -0.992393 1.28803 0
M  V30 3364 O 334.189 -1.02746 1.58036 0
M  V30 3365 C 331.316 -1.50813 3.03271 0
M  V30 3366 C 330.362 -0.995044 4.1473 0
M  V30 3367 S 331.195 0.0938436 5.35418 0
M  V30 3368 C 332.351 -1.05567 6.16933 0
M  V30 3369 H 332.584 0.274686 2.96028 0
M  V30 3370 H 330.117 0.260495 1.52187 0
M  V30 3371 H 332.075 -2.16476 3.48781 0
M  V30 3372 H 330.736 -2.11672 2.32064 0
M  V30 3373 H 329.929 -1.85293 4.68703 0
M  V30 3374 H 329.531 -0.416052 3.71679 0
M  V30 3375 H 331.823 -1.96636 6.48337 0
M  V30 3376 H 332.766 -0.555109 7.05921 0
M  V30 3377 H 333.174 -1.31151 5.49053 0
M  V30 3378 N 332.573 -1.56217 0.208337 0
M  V30 3379 C 333.503 -2.22694 -0.702116 0
M  V30 3380 C 334.484 -1.19432 -1.2112 0
M  V30 3381 O 335.669 -1.47978 -1.25762 0
M  V30 3382 C 332.799 -2.8966 -1.9161 0
M  V30 3383 C 331.753 -3.9928 -1.5414 0
M  V30 3384 C 331.079 -4.53476 -2.83308 0
M  V30 3385 C 332.379 -5.17012 -0.741339 0
M  V30 3386 H 334.073 -2.99034 -0.147898 0
M  V30 3387 H 331.619 -1.43831 -0.0696951 0
M  V30 3388 H 333.572 -3.34852 -2.55836 0
M  V30 3389 H 332.296 -2.10746 -2.49507 0
M  V30 3390 H 330.955 -3.54799 -0.922668 0
M  V30 3391 H 330.603 -3.71308 -3.39322 0
M  V30 3392 H 330.303 -5.27451 -2.58976 0
M  V30 3393 H 331.827 -5.01378 -3.485 0
M  V30 3394 H 333.241 -5.58667 -1.28699 0
M  V30 3395 H 331.638 -5.97137 -0.595627 0
M  V30 3396 H 332.708 -4.8423 0.254851 0
M  V30 3397 N 334.051 0.0651679 -1.57465 0
M  V30 3398 C 335.3 0.761916 -1.86756 0
M  V30 3399 C 335.613 1.78406 -0.801925 0
M  V30 3400 O 336.819 2.53084 -0.982885 0
M  V30 3401 C 335.275 1.40603 -3.31299 0
M  V30 3402 C 334.883 0.422115 -4.46007 0
M  V30 3403 C 336.627 2.08476 -3.69781 0
M  V30 3404 C 334.534 1.07252 -5.81593 0
M  V30 3405 H 333.464 0.288308 -0.696702 0
M  V30 3406 H 336.115 0.015344 -1.83494 0
M  V30 3407 H 334.497 2.20109 -3.29193 0
M  V30 3408 H 335.671 -0.343613 -4.59517 0
M  V30 3409 H 333.986 -0.152527 -4.16121 0
M  V30 3410 H 336.583 2.57925 -4.68379 0
M  V30 3411 H 336.926 2.88712 -2.99919 0
M  V30 3412 H 337.459 1.35792 -3.73905 0
M  V30 3413 H 334.198 0.310342 -6.54765 0
M  V30 3414 H 333.718 1.80895 -5.71872 0
M  V30 3415 H 335.397 1.59043 -6.27148 0
M  V30 3416 N 335.529 1.53961 0.336706 0
M  V30 3417 C 336.778 1.70751 1.07363 0
M  V30 3418 C 337.091 0.481061 1.89592 0
M  V30 3419 O 338.297 0.530046 2.66276 0
M  V30 3420 C 336.753 3.01965 1.95818 0
M  V30 3421 C 336.361 4.31971 1.18764 0
M  V30 3422 C 338.105 3.28121 2.69327 0
M  V30 3423 C 336.012 5.54255 2.06289 0
M  V30 3424 H 334.942 0.636292 0.404535 0
M  V30 3425 H 337.593 1.80459 0.332681 0
M  V30 3426 H 335.975 2.86132 2.7376 0
M  V30 3427 H 337.149 4.5853 0.456849 0
M  V30 3428 H 335.464 4.12481 0.569946 0
M  V30 3429 H 338.061 4.16673 3.35094 0
M  V30 3430 H 338.404 2.45426 3.36261 0
M  V30 3431 H 338.937 3.44762 1.98454 0
M  V30 3432 H 335.676 6.39513 1.43885 0
M  V30 3433 H 335.196 5.31935 2.77138 0
M  V30 3434 H 336.875 5.90159 2.65182 0
M  V30 3435 N 337.007 -0.598083 1.45811 0
M  V30 3436 C 337.955 -1.72932 1.55555 0
M  V30 3437 C 338.949 -1.63984 0.424921 0
M  V30 3438 O 340.155 -1.69663 0.601205 0
M  V30 3439 H 336.53 -0.571489 0.488779 0
M  V30 3440 H 338.501 -1.61842 2.50699 0
M  V30 3441 C 337.25 -3.11318 1.54843 0
M  V30 3442 H 336.573 -3.18867 2.41172 0
M  V30 3443 H 338.013 -3.90274 1.65717 0
M  V30 3444 C 336.472 -3.3578 0.274427 0
M  V30 3445 O 337.002 -3.9654 -0.641778 0
M  V30 3446 N 335.208 -2.90119 0.167139 0
M  V30 3447 H 334.755 -2.40855 0.913596 0
M  V30 3448 H 334.713 -3.0686 -0.684435 0
M  V30 3449 N 338.485 -1.33259 -0.841409 0
M  V30 3450 C 339.762 -1.15174 -1.58096 0
M  V30 3451 C 340.142 0.282858 -2.09196 0
M  V30 3452 O 339.49 1.28151 -1.89181 0
M  V30 3453 C 339.7 -2.1907 -2.71679 0
M  V30 3454 C 341.048 -2.53093 -3.40924 0
M  V30 3455 O 342.072 -2.17717 -2.81918 0
M  V30 3456 O 340.931 -3.1379 -4.47435 0
M  V30 3457 H 338.025 -0.445303 -0.696875 0
M  V30 3458 H 340.571 -1.44833 -0.884385 0
M  V30 3459 H 339.343 -3.15443 -2.31541 0
M  V30 3460 H 338.966 -1.90481 -3.49002 0
M  V30 3461 N 339.963 1.05934 -1.16686 0
M  V30 3462 C 340.873 2.17014 -0.891183 0
M  V30 3463 C 341.889 1.73453 0.137907 0
M  V30 3464 O 343.065 2.01361 -0.039592 0
M  V30 3465 C 340.13 3.44384 -0.400099 0
M  V30 3466 C 339.191 4.02433 -1.49486 0
M  V30 3467 C 338.424 5.23723 -1.02711 0
M  V30 3468 O 338.647 5.7027 0.121716 0
M  V30 3469 O 337.581 5.7382 -1.81699 0
M  V30 3470 H 341.407 2.43113 -1.82015 0
M  V30 3471 H 338.992 1.15541 -0.947132 0
M  V30 3472 H 340.874 4.21189 -0.133392 0
M  V30 3473 H 339.549 3.19802 0.500817 0
M  V30 3474 H 338.456 3.27102 -1.81535 0
M  V30 3475 H 339.789 4.31317 -2.37121 0
M  V30 3476 N 341.441 0.965919 1.2453 0
M  V30 3477 C 342.689 0.625593 1.92174 0
M  V30 3478 C 343.01 -0.841652 1.75901 0
M  V30 3479 O 342.28 -1.60061 1.12948 0
M  V30 3480 H 340.86 0.228388 0.71123 0
M  V30 3481 H 343.522 1.2266 1.51461 0
M  V30 3482 H 342.618 0.864653 2.99884 0
M  V30 3483 N 342.919 -1.39368 0.735821 0
M  V30 3484 C 343.852 -2.28155 0.0451175 0
M  V30 3485 C 344.83 -1.44433 -0.746852 0
M  V30 3486 O 346.014 -1.73823 -0.729237 0
M  V30 3487 C 343.141 -3.253 -0.943266 0
M  V30 3488 C 342.187 -4.25826 -0.239685 0
M  V30 3489 S 343.02 -5.25166 1.04693 0
M  V30 3490 C 344.176 -6.2587 0.0611639 0
M  V30 3491 H 344.409 -2.86388 0.79807 0
M  V30 3492 H 341.942 -1.45104 0.527653 0
M  V30 3493 H 343.9 -3.81789 -1.50824 0
M  V30 3494 H 342.561 -2.66085 -1.66906 0
M  V30 3495 H 341.754 -4.94229 -0.987596 0
M  V30 3496 H 341.356 -3.73141 0.253274 0
M  V30 3497 H 343.648 -6.73007 -0.778941 0
M  V30 3498 H 344.591 -7.04508 0.712362 0
M  V30 3499 H 344.999 -5.63639 -0.311602 0
M  V30 3500 N 344.397 -0.483516 -1.5 0
M  V30 3501 C 345.344 0.304164 -2.28787 0
M  V30 3502 C 346.314 0.976114 -1.34392 0
M  V30 3503 O 347.499 0.986156 -1.63339 0
M  V30 3504 C 344.639 1.37298 -3.16612 0
M  V30 3505 C 343.752 0.714561 -4.26049 0
M  V30 3506 C 342.887 1.76232 -5.01114 0
M  V30 3507 C 341.926 1.08483 -6.0241 0
M  V30 3508 N 341.063 2.076 -6.70706 0
M  V30 3509 H 345.903 -0.373981 -2.95644 0
M  V30 3510 H 343.44 -0.196275 -1.45785 0
M  V30 3511 H 345.398 2.00445 -3.65893 0
M  V30 3512 H 344.028 2.02012 -2.51776 0
M  V30 3513 H 343.08 -0.0297798 -3.80388 0
M  V30 3514 H 344.392 0.180383 -4.98474 0
M  V30 3515 H 343.546 2.46929 -5.54176 0
M  V30 3516 H 342.285 2.33033 -4.28424 0
M  V30 3517 H 341.29 0.363545 -5.48597 0
M  V30 3518 H 342.515 0.523551 -6.77079 0
M  V30 3519 H 340.461 2.63394 -6.00799 0
M  V30 3520 H 340.378 1.59201 -7.39047 0
M  V30 3521 H 341.646 2.77639 -7.2838 0
M  V30 3522 N 345.875 1.56104 -0.216619 0
M  V30 3523 C 347.1 2.0301 0.424462 0
M  V30 3524 C 347.525 1.0955 1.52907 0
M  V30 3525 O 346.883 0.0827914 1.81111 0
M  V30 3526 C 346.931 3.4819 0.937883 0
M  V30 3527 O 346.035 3.57865 2.04955 0
M  V30 3528 H 345.376 0.656925 0.0966755 0
M  V30 3529 H 347.906 2.01859 -0.33381 0
M  V30 3530 H 347.916 3.88413 1.24897 0
M  V30 3531 H 346.591 4.15699 0.129387 0
M  V30 3532 H 345.168 3.29527 1.74546 0
M  V30 3533 N 347.353 -0.0568162 1.57498 0
M  V30 3534 C 348.263 -1.08346 2.08083 0
M  V30 3535 C 349.279 -1.41439 1.01346 0
M  V30 3536 O 350.455 -1.51316 1.32912 0
M  V30 3537 C 347.52 -2.37352 2.52715 0
M  V30 3538 C 346.581 -2.11093 3.73816 0
M  V30 3539 C 345.814 -3.33949 4.1631 0
M  V30 3540 O 346.037 -4.43622 3.58547 0
M  V30 3541 O 344.971 -3.21279 5.08983 0
M  V30 3542 H 348.797 -0.683667 2.95905 0
M  V30 3543 H 346.382 -0.271965 1.46904 0
M  V30 3544 H 348.264 -3.13246 2.81877 0
M  V30 3545 H 346.939 -2.76681 1.68016 0
M  V30 3546 H 345.846 -1.32856 3.49714 0
M  V30 3547 H 347.179 -1.76637 4.59413 0
M  V30 3548 N 348.832 -1.54138 -0.328536 0
M  V30 3549 C 350.248 -1.44736 -0.672574 0
M  V30 3550 C 350.448 -0.616217 -1.91846 0
M  V30 3551 O 349.504 -0.113067 -2.52247 0
M  V30 3552 C 350.817 -2.884 -0.851217 0
M  V30 3553 C 352.365 -2.98271 -0.948877 0
M  V30 3554 C 352.84 -4.43074 -1.15973 0
M  V30 3555 N 354.331 -4.46665 -1.22658 0
M  V30 3556 C 355.066 -5.55857 -1.40751 0
M  V30 3557 N 354.562 -6.75026 -1.5592 0
M  V30 3558 N 356.355 -5.43495 -1.4342 0
M  V30 3559 H 348.506 -2.06661 0.490421 0
M  V30 3560 H 350.769 -0.934812 0.157579 0
M  V30 3561 H 350.475 -3.51699 -0.00704236 0
M  V30 3562 H 350.349 -3.34225 -1.74853 0
M  V30 3563 H 352.736 -2.35102 -1.78356 0
M  V30 3564 H 352.817 -2.55785 -0.0281435 0
M  V30 3565 H 352.461 -5.06827 -0.329915 0
M  V30 3566 H 352.391 -4.83165 -2.09426 0
M  V30 3567 H 354.882 -3.60797 -1.124 0
M  V30 3568 H 355.195 -7.54004 -1.69404 0
M  V30 3569 H 353.54 -6.77944 -1.53027 0
M  V30 3570 H 356.731 -4.49349 -1.31162 0
M  V30 3571 H 356.904 -6.28649 -1.57178 0
M  V30 3572 N 350.31 0.590341 -1.46126 0
M  V30 3573 C 351.557 1.34882 -1.5104 0
M  V30 3574 C 351.885 1.93849 -0.159021 0
M  V30 3575 O 351.14 1.76544 0.844436 0
M  V30 3576 C 351.439 2.5032 -2.55097 0
M  V30 3577 C 351.105 2.09394 -3.99331 0
M  V30 3578 C 349.767 1.97947 -4.38601 0
M  V30 3579 C 352.119 1.77712 -4.89967 0
M  V30 3580 C 349.447 1.53065 -5.66381 0
M  V30 3581 C 351.799 1.34312 -6.18177 0
M  V30 3582 C 350.463 1.21436 -6.56361 0
M  V30 3583 H 349.733 0.493568 -0.552695 0
M  V30 3584 H 352.38 0.665539 -1.79563 0
M  V30 3585 H 350.685 3.24062 -2.20207 0
M  V30 3586 H 352.382 3.08541 -2.56132 0
M  V30 3587 H 348.972 2.19235 -3.68285 0
M  V30 3588 H 353.156 1.85445 -4.60352 0
M  V30 3589 H 348.412 1.41733 -5.94745 0
M  V30 3590 H 352.586 1.08849 -6.87841 0
M  V30 3591 H 350.213 0.864345 -7.5527 0
M  V30 3592 N 351.788 1.33704 0.83433 0
M  V30 3593 C 353.013 1.28615 1.62705 0
M  V30 3594 C 353.438 -0.139242 1.87584 0
M  V30 3595 O 352.796 -1.09734 1.4432 0
M  V30 3596 C 352.844 2.07139 2.95171 0
M  V30 3597 O 351.948 1.4331 3.86699 0
M  V30 3598 H 351.289 0.44226 0.49528 0
M  V30 3599 H 353.819 1.76335 1.03766 0
M  V30 3600 H 353.829 2.18073 3.44831 0
M  V30 3601 H 352.504 3.10779 2.76386 0
M  V30 3602 H 351.081 1.4105 3.45195 0
M  V30 3603 N 353.266 -1.05314 1.17247 0
M  V30 3604 C 354.199 -2.12512 0.831507 0
M  V30 3605 C 355.177 -1.61351 -0.201168 0
M  V30 3606 O 356.361 -1.88317 -0.0829831 0
M  V30 3607 C 353.488 -3.37848 0.24015 0
M  V30 3608 C 352.534 -4.07832 1.24801 0
M  V30 3609 S 353.367 -4.56537 2.79882 0
M  V30 3610 C 354.523 -5.85122 2.22223 0
M  V30 3611 H 354.756 -2.41106 1.7394 0
M  V30 3612 H 352.289 -1.17896 0.996988 0
M  V30 3613 H 354.247 -4.10391 -0.0945588 0
M  V30 3614 H 352.908 -3.07392 -0.645668 0
M  V30 3615 H 352.101 -4.97883 0.78287 0
M  V30 3616 H 351.703 -3.41348 1.52831 0
M  V30 3617 H 353.995 -6.58408 1.59703 0
M  V30 3618 H 354.938 -6.36381 3.10523 0
M  V30 3619 H 355.346 -5.39626 1.65722 0
M  V30 3620 N 354.744 -0.972509 -1.24016 0
M  V30 3621 C 355.692 -0.498562 -2.27194 0
M  V30 3622 C 356.686 0.440372 -1.63576 0
M  V30 3623 O 357.892 0.315133 -1.7722 0
M  V30 3624 H 354.267 -0.142775 -0.738322 0
M  V30 3625 H 356.238 -1.38065 -2.64539 0
M  V30 3626 C 354.987 0.191072 -3.47175 0
M  V30 3627 H 354.31 -0.522318 -3.96373 0
M  V30 3628 H 355.75 0.486445 -4.212 0
M  V30 3629 C 354.209 1.41967 -3.05527 0
M  V30 3630 O 354.739 2.51642 -3.13112 0
M  V30 3631 N 352.945 1.28746 -2.60524 0
M  V30 3632 H 352.492 0.395089 -2.54552 0
M  V30 3633 H 352.45 2.11061 -2.33025 0
M  V30 3634 N 356.222 1.38976 -0.743202 0
M  V30 3635 C 357.471 1.99581 -0.291592 0
M  V30 3636 C 357.784 1.59656 1.13001 0
M  V30 3637 O 358.99 2.13157 1.68156 0
M  V30 3638 C 357.446 3.56813 -0.470391 0
M  V30 3639 C 357.054 4.05695 -1.90041 0
M  V30 3640 C 358.798 4.24423 -0.0809709 0
M  V30 3641 C 356.705 5.5553 -2.02832 0
M  V30 3642 H 355.635 0.746615 -0.105272 0
M  V30 3643 H 358.286 1.58872 -0.918258 0
M  V30 3644 H 356.668 3.95359 0.225299 0
M  V30 3645 H 357.842 3.78464 -2.62872 0
M  V30 3646 H 356.157 3.50775 -2.24379 0
M  V30 3647 H 358.754 5.34474 -0.155445 0
M  V30 3648 H 359.097 4.04962 0.96497 0
M  V30 3649 H 359.63 3.9108 -0.728124 0
M  V30 3650 H 356.369 5.79881 -3.05643 0
M  V30 3651 H 355.889 5.84537 -1.34448 0
M  V30 3652 H 357.568 6.21069 -1.81335 0
M  V30 3653 N 357.7 0.491464 1.49741 0
M  V30 3654 C 358.648 -0.305837 2.30581 0
M  V30 3655 C 359.642 -0.971642 1.38764 0
M  V30 3656 O 360.848 -0.90042 1.5586 0
M  V30 3657 H 357.223 -0.117482 0.742767 0
M  V30 3658 H 359.194 0.396093 2.95759 0
M  V30 3659 C 357.943 -1.36319 3.19863 0
M  V30 3660 H 357.266 -0.860258 3.90435 0
M  V30 3661 H 358.706 -1.89323 3.79385 0
M  V30 3662 C 357.165 -2.37621 2.38826 0
M  V30 3663 O 357.695 -3.43311 2.08567 0
M  V30 3664 N 355.901 -2.09849 2.01026 0
M  V30 3665 H 355.448 -1.23922 2.25834 0
M  V30 3666 H 355.406 -2.77859 1.47112 0
M  V30 3667 N 359.178 -1.55987 0.224894 0
M  V30 3668 C 360.594 -1.59066 -0.130426 0
M  V30 3669 C 360.794 -1.24176 -1.5869 0
M  V30 3670 O 359.85 -0.978592 -2.32766 0
M  V30 3671 C 361.163 -3.00042 0.198883 0
M  V30 3672 C 362.711 -3.1268 0.141391 0
M  V30 3673 C 363.186 -4.55839 0.444422 0
M  V30 3674 N 364.677 -4.6152 0.394115 0
M  V30 3675 C 365.412 -5.70231 0.602038 0
M  V30 3676 N 364.908 -6.87291 0.871914 0
M  V30 3677 N 366.701 -5.59555 0.534245 0
M  V30 3678 H 358.852 -1.76941 1.17497 0
M  V30 3679 H 361.115 -0.822604 0.471197 0
M  V30 3680 H 360.821 -3.30234 1.2099 0
M  V30 3681 H 360.695 -3.74075 -0.484535 0
M  V30 3682 H 363.082 -2.82283 -0.860265 0
M  V30 3683 H 363.163 -2.40969 0.858335 0
M  V30 3684 H 362.807 -4.86954 1.44353 0
M  V30 3685 H 362.737 -5.2578 -0.293752 0
M  V30 3686 H 365.228 -3.77405 0.193356 0
M  V30 3687 H 365.541 -7.66058 1.01858 0
M  V30 3688 H 363.886 -6.89028 0.909145 0
M  V30 3689 H 367.077 -4.6698 0.323612 0
M  V30 3690 H 367.25 -6.44211 0.699693 0
M  V30 3691 N 360.656 0.0484629 -1.57525 0
M  V30 3692 C 361.881 0.759177 -1.93006 0
M  V30 3693 C 362.306 1.69125 -0.823317 0
M  V30 3694 O 361.664 1.79931 0.222364 0
M  V30 3695 C 361.712 1.50899 -3.27509 0
M  V30 3696 O 360.816 2.62112 -3.18388 0
M  V30 3697 H 360.157 0.205564 -0.631379 0
M  V30 3698 H 362.687 0.00972959 -2.04598 0
M  V30 3699 H 362.697 1.88317 -3.6194 0
M  V30 3700 H 361.372 0.825269 -4.0763 0
M  V30 3701 H 359.949 2.27379 -2.95556 0
M  V30 3702 N 362.134 1.5431 0.320358 0
M  V30 3703 C 363.383 1.7188 1.05546 0
M  V30 3704 C 363.696 0.501143 1.89071 0
M  V30 3705 O 364.902 0.558258 2.65699 0
M  V30 3706 C 363.358 3.04025 1.92605 0
M  V30 3707 C 362.966 4.33207 1.14176 0
M  V30 3708 C 364.71 3.30959 2.65832 0
M  V30 3709 C 362.617 5.56412 2.00399 0
M  V30 3710 H 361.547 0.640547 0.397763 0
M  V30 3711 H 364.198 1.80802 0.313522 0
M  V30 3712 H 362.58 2.89019 2.7071 0
M  V30 3713 H 363.754 4.58989 0.40819 0
M  V30 3714 H 362.069 4.13062 0.526165 0
M  V30 3715 H 364.666 4.20203 3.30656 0
M  V30 3716 H 365.009 2.48979 3.33639 0
M  V30 3717 H 365.542 3.46847 1.94787 0
M  V30 3718 H 362.281 6.41004 1.37094 0
M  V30 3719 H 361.801 5.34844 2.7148 0
M  V30 3720 H 363.48 5.92938 2.58908 0
M  V30 3721 N 363.613 -0.582584 1.46437 0
M  V30 3722 C 364.853 -1.35184 1.53312 0
M  V30 3723 C 365.217 -1.9115 0.180508 0
M  V30 3724 O 366.418 -2.68514 0.124017 0
M  V30 3725 C 364.689 -2.45089 2.60127 0
M  V30 3726 S 366.248 -3.32439 2.86408 0
M  V30 3727 H 363.066 -0.460559 0.54167 0
M  V30 3728 H 365.668 -0.669709 1.83671 0
M  V30 3729 H 364.372 -2.02366 3.57038 0
M  V30 3730 H 363.903 -3.18074 2.315 0
M  V30 3731 H 365.918 -4.43924 2.21688 0
M  V30 3732 N 365.091 -1.34144 -0.827227 0
M  V30 3733 C 366.316 -1.29476 -1.62021 0
M  V30 3734 C 366.741 0.129292 -1.87655 0
M  V30 3735 O 366.099 1.08967 -1.449 0
M  V30 3736 C 366.147 -2.08702 -2.94068 0
M  V30 3737 O 365.251 -1.45359 -3.85933 0
M  V30 3738 H 364.592 -0.444881 -0.492927 0
M  V30 3739 H 367.122 -1.76882 -1.02829 0
M  V30 3740 H 367.132 -2.19898 -3.43669 0
M  V30 3741 H 365.807 -3.12241 -2.74734 0
M  V30 3742 H 364.384 -1.42879 -3.44442 0
M  V30 3743 N 366.569 1.04691 -1.17803 0
M  V30 3744 C 367.502 2.12068 -0.842765 0
M  V30 3745 C 368.48 1.61455 0.192608 0
M  V30 3746 O 369.664 1.88359 0.072995 0
M  V30 3747 C 366.791 3.37715 -0.258063 0
M  V30 3748 C 365.837 4.07164 -1.26962 0
M  V30 3749 S 366.67 4.55047 -2.82299 0
M  V30 3750 C 367.826 5.83935 -2.25323 0
M  V30 3751 H 368.059 2.4018 -1.75217 0
M  V30 3752 H 365.592 1.17366 -1.00323 0
M  V30 3753 H 367.55 4.10435 0.0727935 0
M  V30 3754 H 366.211 3.0773 0.629357 0
M  V30 3755 H 365.404 4.9746 -0.809263 0
M  V30 3756 H 365.006 3.40533 -1.54639 0
M  V30 3757 H 367.298 6.57552 -1.63192 0
M  V30 3758 H 368.241 6.34725 -3.13894 0
M  V30 3759 H 368.649 5.3874 -1.68582 0
M  V30 3760 N 368.047 0.979072 1.23499 0
M  V30 3761 C 368.957 0.526431 2.28617 0
M  V30 3762 C 369.973 -0.418126 1.68901 0
M  V30 3763 O 371.149 -0.288372 1.99325 0
M  V30 3764 C 368.214 -0.165235 3.46306 0
M  V30 3765 C 367.275 0.82056 4.21385 0
M  V30 3766 C 366.508 0.161807 5.33455 0
M  V30 3767 O 366.731 -1.04742 5.60701 0
M  V30 3768 O 365.665 0.859708 5.95729 0
M  V30 3769 H 369.491 1.4006 2.69475 0
M  V30 3770 H 367.076 0.746643 1.29405 0
M  V30 3771 H 368.958 -0.553287 4.17752 0
M  V30 3772 H 367.633 -1.01419 3.07402 0
M  V30 3773 H 366.54 1.25929 3.52268 0
M  V30 3774 H 367.873 1.63828 4.64135 0
M  V30 3775 N 369.525 -1.3858 0.750561 0
M  V30 3776 C 370.755 -2.04175 0.31564 0
M  V30 3777 C 371.163 -1.56726 -1.05989 0
M  V30 3778 O 370.506 -0.734225 -1.68389 0
M  V30 3779 C 370.568 -3.58585 0.256389 0
M  V30 3780 C 370.232 -4.29077 1.57296 0
M  V30 3781 C 371.229 -4.54656 2.52159 0
M  V30 3782 C 368.914 -4.67324 1.84156 0
M  V30 3783 C 370.908 -5.17512 3.72103 0
M  V30 3784 C 368.595 -5.29905 3.04374 0
M  V30 3785 C 369.593 -5.54933 3.98168 0
M  V30 3786 O 369.281 -6.16212 5.16273 0
M  V30 3787 H 369.013 -0.662742 0.133226 0
M  V30 3788 H 371.567 -1.78313 1.01948 0
M  V30 3789 H 369.797 -3.83406 -0.503677 0
M  V30 3790 H 371.486 -4.05628 -0.148612 0
M  V30 3791 H 372.252 -4.25539 2.32683 0
M  V30 3792 H 368.131 -4.47191 1.11988 0
M  V30 3793 H 371.675 -5.36963 4.45327 0
M  V30 3794 H 367.572 -5.58444 3.23745 0
M  V30 3795 H 368.34 -6.34701 5.16815 0
M  V30 3796 N 371.003 -0.499398 -1.49478 0
M  V30 3797 C 372.252 0.0475259 -2.01644 0
M  V30 3798 C 372.565 1.38195 -1.38425 0
M  V30 3799 O 373.771 2.01547 -1.8191 0
M  V30 3800 C 372.227 0.135164 -3.59646 0
M  V30 3801 C 371.835 -1.19252 -4.31837 0
M  V30 3802 C 373.579 0.632538 -4.19761 0
M  V30 3803 C 371.486 -1.06713 -5.81693 0
M  V30 3804 H 370.416 0.0215349 -0.753692 0
M  V30 3805 H 373.067 -0.638577 -1.7203 0
M  V30 3806 H 371.449 0.885681 -3.85969 0
M  V30 3807 H 372.623 -1.9562 -4.17216 0
M  V30 3808 H 370.938 -1.62321 -3.83459 0
M  V30 3809 H 373.535 0.743833 -5.29501 0
M  V30 3810 H 373.878 1.63098 -3.83021 0
M  V30 3811 H 374.411 -0.0613987 -3.97753 0
M  V30 3812 H 371.15 -2.03979 -6.22955 0
M  V30 3813 H 370.67 -0.344307 -5.98811 0
M  V30 3814 H 372.349 -0.745208 -6.42694 0
M  V30 3815 N 372.481 1.55866 -0.233164 0
M  V30 3816 C 373.711 2.02704 0.399325 0
M  V30 3817 C 374.119 1.11204 1.53069 0
M  V30 3818 O 373.462 0.116182 1.83332 0
M  V30 3819 C 373.524 3.45844 0.981429 0
M  V30 3820 C 373.188 4.56997 -0.0159561 0
M  V30 3821 C 374.185 5.13384 -0.820552 0
M  V30 3822 C 371.87 5.0211 -0.138072 0
M  V30 3823 C 373.864 6.13365 -1.73386 0
M  V30 3824 C 371.551 6.01926 -1.0549 0
M  V30 3825 C 372.549 6.57431 -1.85132 0
M  V30 3826 O 372.237 7.55302 -2.75272 0
M  V30 3827 H 371.969 0.668459 0.100692 0
M  V30 3828 H 374.523 2.02387 -0.35052 0
M  V30 3829 H 372.753 3.43267 1.78058 0
M  V30 3830 H 374.442 3.76262 1.52255 0
M  V30 3831 H 375.208 4.79372 -0.736721 0
M  V30 3832 H 371.087 4.5858 0.471737 0
M  V30 3833 H 374.631 6.56614 -2.35592 0
M  V30 3834 H 370.528 6.35359 -1.1397 0
M  V30 3835 H 371.296 7.72867 -2.69477 0
M  V30 3836 N 373.959 -0.0401083 1.57549 0
M  V30 3837 C 375.206 -0.733125 1.88763 0
M  V30 3838 C 375.534 -1.75946 0.829058 0
M  V30 3839 O 374.789 -1.94949 -0.171323 0
M  V30 3840 C 375.088 -1.44902 3.26708 0
M  V30 3841 C 374.754 -0.559707 4.47413 0
M  V30 3842 C 373.416 -0.314731 4.8017 0
M  V30 3843 C 375.768 0.0549743 5.21171 0
M  V30 3844 C 373.096 0.553886 5.8408 0
M  V30 3845 C 375.448 0.911229 6.26003 0
M  V30 3846 C 374.112 1.16577 6.57241 0
M  V30 3847 H 373.382 -0.268269 0.690733 0
M  V30 3848 H 376.029 0.00679408 1.91499 0
M  V30 3849 H 374.334 -2.26197 3.1991 0
M  V30 3850 H 376.031 -1.99058 3.48105 0
M  V30 3851 H 372.621 -0.760793 4.21794 0
M  V30 3852 H 376.805 -0.121344 4.96152 0
M  V30 3853 H 372.061 0.759518 6.06664 0
M  V30 3854 H 376.235 1.3941 6.82303 0
M  V30 3855 H 373.862 1.84058 7.37582 0
M  V30 3856 N 375.437 -1.54477 -0.31217 0
M  V30 3857 C 376.662 -1.77526 -1.07235 0
M  V30 3858 C 377.087 -0.527775 -1.80544 0
M  V30 3859 O 376.445 0.52121 -1.73646 0
M  V30 3860 C 376.493 -2.97535 -2.03728 0
M  V30 3861 O 375.597 -2.69878 -3.11833 0
M  V30 3862 H 374.938 -0.58792 -0.30862 0
M  V30 3863 H 377.468 -2.01532 -0.352993 0
M  V30 3864 H 377.478 -3.25198 -2.46395 0
M  V30 3865 H 376.153 -3.87996 -1.49774 0
M  V30 3866 H 374.73 -2.53199 -2.7376 0
M  V30 3867 N 376.915 0.57481 -1.46744 0
M  V30 3868 C 378.331 0.898981 -1.31873 0
M  V30 3869 C 378.531 1.99313 -0.29605 0
M  V30 3870 O 377.587 2.50728 0.298621 0
M  V30 3871 C 378.9 1.30886 -2.7072 0
M  V30 3872 C 380.448 1.42127 -2.78871 0
M  V30 3873 C 380.923 1.86478 -4.18318 0
M  V30 3874 N 382.414 1.93658 -4.20774 0
M  V30 3875 C 383.149 2.29267 -5.2557 0
M  V30 3876 N 382.645 2.63612 -6.40688 0
M  V30 3877 N 384.438 2.29889 -5.1294 0
M  V30 3878 H 376.589 -0.147839 -2.11885 0
M  V30 3879 H 378.852 -0.00347013 -0.947994 0
M  V30 3880 H 378.558 0.578853 -3.46904 0
M  V30 3881 H 378.432 2.26874 -3.01343 0
M  V30 3882 H 380.819 2.14213 -2.0297 0
M  V30 3883 H 380.9 0.443705 -2.51922 0
M  V30 3884 H 380.544 1.14968 -4.94717 0
M  V30 3885 H 380.474 2.85207 -4.42679 0
M  V30 3886 H 382.965 1.69574 -3.37718 0
M  V30 3887 H 383.278 2.89759 -7.16421 0
M  V30 3888 H 381.623 2.61232 -6.44036 0
M  V30 3889 H 384.814 2.02485 -4.22039 0
M  V30 3890 H 384.987 2.57312 -5.94722 0
M  V30 3891 N 378.394 1.34581 0.820102 0
M  V30 3892 C 379.805 1.24298 1.39309 0
M  V30 3893 C 380.156 -0.130351 1.95767 0
M  V30 3894 O 379.281 -1.0308 1.90272 0
M  V30 3895 C 379.876 2.25054 2.53251 0
M  V30 3896 C 378.435 2.18552 3.0645 0
M  V30 3897 C 377.582 2.11503 1.79337 0
M  V30 3898 H 380.533 1.45906 0.624262 0
M  V30 3899 H 380.554 1.86917 3.31425 0
M  V30 3900 H 380.066 3.24996 2.1213 0
M  V30 3901 H 378.167 1.21976 3.52069 0
M  V30 3902 H 378.28 3.0993 3.65349 0
M  V30 3903 H 376.644 1.57268 2.00347 0
M  V30 3904 H 377.427 3.13284 1.40386 0
M  V30 3905 N 379.872 -1.04064 1.18357 0
M  V30 3906 C 381.149 -1.74252 0.888581 0
M  V30 3907 C 381.529 -2.02138 -0.60856 0
M  V30 3908 O 380.877 -1.66656 -1.56327 0
M  V30 3909 C 381.087 -3.0277 1.73584 0
M  V30 3910 C 382.435 -3.76506 1.96286 0
M  V30 3911 O 383.459 -3.12668 1.70637 0
M  V30 3912 O 382.318 -4.91243 2.39464 0
M  V30 3913 H 379.412 -0.758271 0.330082 0
M  V30 3914 H 381.958 -1.1013 1.2911 0
M  V30 3915 H 380.73 -2.78299 2.75073 0
M  V30 3916 H 380.353 -3.74631 1.33183 0
M  V30 3917 N 381.35 -0.985608 -1.22978 0
M  V30 3918 C 382.575 -0.675254 -1.961 0
M  V30 3919 C 383 0.752154 -1.72407 0
M  V30 3920 O 382.358 1.5131 -0.998751 0
M  V30 3921 C 382.406 -0.977899 -3.47087 0
M  V30 3922 O 381.51 -0.072685 -4.12336 0
M  V30 3923 H 380.851 -0.253443 -0.613728 0
M  V30 3924 H 383.381 -1.32061 -1.56272 0
M  V30 3925 H 383.391 -0.916739 -3.97567 0
M  V30 3926 H 382.066 -2.01807 -3.63657 0
M  V30 3927 H 380.643 -0.188703 -3.72422 0
M  V30 3928 N 382.828 1.3818 -0.7579 0
M  V30 3929 C 383.776 2.32277 -0.122482 0
M  V30 3930 C 384.77 1.54238 0.700505 0
M  V30 3931 O 385.976 1.69737 0.599119 0
M  V30 3932 H 382.351 0.751712 -0.0208143 0
M  V30 3933 H 384.322 2.83469 -0.932099 0
M  V30 3934 C 383.071 3.39447 0.753076 0
M  V30 3935 H 382.394 3.99591 0.129184 0
M  V30 3936 H 383.834 4.07684 1.16489 0
M  V30 3937 C 382.293 2.78375 1.8976 0
M  V30 3938 O 382.823 2.68025 2.99208 0
M  V30 3939 N 381.029 2.36121 1.69397 0
M  V30 3940 H 380.576 2.4474 0.803762 0
M  V30 3941 H 380.534 1.95602 2.46145 0
M  V30 3942 N 384.306 0.507319 1.49211 0
M  V30 3943 C 385.555 -0.0368315 2.01666 0
M  V30 3944 C 385.868 -1.37459 1.39156 0
M  V30 3945 O 387.074 -2.00579 1.82976 0
M  V30 3946 C 385.53 -0.116089 3.59713 0
M  V30 3947 C 385.138 1.2154 4.31198 0
M  V30 3948 C 386.882 -0.610268 4.2009 0
M  V30 3949 C 384.789 1.09796 5.81119 0
M  V30 3950 H 383.719 -0.0175376 0.753796 0
M  V30 3951 H 386.37 0.647691 1.71689 0
M  V30 3952 H 384.752 -0.8652 3.86433 0
M  V30 3953 H 385.926 1.9783 4.16173 0
M  V30 3954 H 384.241 1.64352 3.82593 0
M  V30 3955 H 386.838 -0.715742 5.29888 0
M  V30 3956 H 387.181 -1.61064 3.8388 0
M  V30 3957 H 387.714 0.0824916 3.97714 0
M  V30 3958 H 384.453 2.0728 6.21864 0
M  V30 3959 H 383.973 0.376058 5.9862 0
M  V30 3960 H 385.652 0.779281 6.4229 0
M  V30 3961 N 385.784 -1.5574 0.241426 0
M  V30 3962 C 387.061 -1.90704 -0.434881 0
M  V30 3963 C 387.441 -1.16145 -1.76277 0
M  V30 3964 O 386.789 -0.277152 -2.26813 0
M  V30 3965 C 386.999 -3.43657 -0.608343 0
M  V30 3966 C 388.347 -4.14806 -0.906725 0
M  V30 3967 O 389.371 -3.49366 -0.694408 0
M  V30 3968 O 388.23 -5.30548 -1.31075 0
M  V30 3969 H 385.324 -0.793592 -0.23268 0
M  V30 3970 H 387.87 -1.67288 0.285086 0
M  V30 3971 H 386.642 -3.89927 0.327505 0
M  V30 3972 H 386.265 -3.72918 -1.37906 0
M  V30 3973 N 387.262 0.0317525 -1.57568 0
M  V30 3974 C 388.51 0.721676 -1.88776 0
M  V30 3975 C 388.831 1.76039 -0.838772 0
M  V30 3976 O 388.101 1.95482 0.127935 0
M  V30 3977 H 386.681 0.269534 -0.696678 0
M  V30 3978 H 389.343 -0.00165879 -1.949 0
M  V30 3979 H 388.439 1.21293 -2.87566 0
M  V30 3980 N 388.74 1.54641 0.303973 0
M  V30 3981 C 389.989 1.7299 1.03717 0
M  V30 3982 C 390.302 0.521168 1.88529 0
M  V30 3983 O 391.508 0.586408 2.65092 0
M  V30 3984 C 389.964 3.06051 1.89369 0
M  V30 3985 C 389.572 4.34393 1.09574 0
M  V30 3986 C 391.316 3.3376 2.62306 0
M  V30 3987 C 389.223 5.58506 1.94486 0
M  V30 3988 H 388.153 0.64473 0.390947 0
M  V30 3989 H 390.804 1.81124 0.294328 0
M  V30 3990 H 389.186 2.91874 2.67629 0
M  V30 3991 H 390.36 4.59396 0.359485 0
M  V30 3992 H 388.675 4.13597 0.482324 0
M  V30 3993 H 391.272 4.23687 3.26181 0
M  V30 3994 H 391.615 2.52503 3.3098 0
M  V30 3995 H 392.148 3.48894 1.91097 0
M  V30 3996 H 388.887 6.42422 1.30287 0
M  V30 3997 H 388.407 5.37694 2.65792 0
M  V30 3998 H 390.086 5.95651 2.52605 0
M  V30 3999 N 390.218 -0.567019 1.47046 0
M  V30 4000 C 391.166 -1.69593 1.59188 0
M  V30 4001 C 392.16 -1.63046 0.459609 0
M  V30 4002 O 393.366 -1.6835 0.637058 0
M  V30 4003 H 389.741 -0.560993 0.500791 0
M  V30 4004 H 391.712 -1.56488 2.54075 0
M  V30 4005 C 390.461 -3.07964 1.61411 0
M  V30 4006 H 389.784 -3.13679 2.47881 0
M  V30 4007 H 391.224 -3.86671 1.73958 0
M  V30 4008 C 389.683 -3.35123 0.34559 0
M  V30 4009 O 390.213 -3.97812 -0.557521 0
M  V30 4010 N 388.419 -2.89699 0.22864 0
M  V30 4011 H 387.966 -2.38863 0.964479 0
M  V30 4012 H 387.924 -3.08242 -0.619192 0
M  V30 4013 N 391.696 -1.35014 -0.812953 0
M  V30 4014 C 392.942 -1.2812 -1.57204 0
M  V30 4015 C 393.275 0.145869 -1.93651 0
M  V30 4016 O 392.55 1.0937 -1.60836 0
M  V30 4017 C 392.833 -2.18162 -2.86492 0
M  V30 4018 C 392.686 -3.69454 -2.56561 0
M  V30 4019 C 394.005 -2.07439 -3.88145 0
M  V30 4020 H 391.124 -0.466746 -0.570366 0
M  V30 4021 H 393.766 -1.65357 -0.935783 0
M  V30 4022 H 391.916 -1.86535 -3.40789 0
M  V30 4023 H 393.588 -4.11493 -2.08497 0
M  V30 4024 H 391.831 -3.9005 -1.89851 0
M  V30 4025 H 392.502 -4.27835 -3.48799 0
M  V30 4026 H 394.978 -2.35228 -3.4323 0
M  V30 4027 H 393.854 -2.7265 -4.76396 0
M  V30 4028 H 394.115 -1.05439 -4.29343 0
M  V30 4029 N 393.175 1.03435 -1.18907 0
M  V30 4030 C 394.125 2.09924 -0.889706 0
M  V30 4031 C 395.109 1.60261 0.143216 0
M  V30 4032 O 396.301 1.76892 -0.0617122 0
M  V30 4033 C 393.43 3.40669 -0.424168 0
M  V30 4034 C 392.516 3.97082 -1.48952 0
M  V30 4035 N 392.907 4.27227 -2.70759 0
M  V30 4036 C 391.205 4.25029 -1.35152 0
M  V30 4037 C 391.906 4.7246 -3.39347 0
M  V30 4038 N 390.882 4.7366 -2.66735 0
M  V30 4039 H 394.684 2.31116 -1.81555 0
M  V30 4040 H 392.198 1.21246 -1.08042 0
M  V30 4041 H 394.195 4.16461 -0.191176 0
M  V30 4042 H 392.855 3.20901 0.495263 0
M  V30 4043 H 393.866 4.16678 -3.0757 0
M  V30 4044 H 390.543 4.14554 -0.495126 0
M  V30 4045 H 391.933 5.04751 -4.43481 0
M  V30 4046 N 394.653 0.992116 1.22453 0
M  V30 4047 C 395.878 0.685644 1.95739 0
M  V30 4048 C 396.303 -0.743 1.72804 0
M  V30 4049 O 395.661 -1.50778 1.00676 0
M  V30 4050 C 395.709 0.996293 3.46564 0
M  V30 4051 O 394.813 0.0945512 4.12292 0
M  V30 4052 H 394.154 0.256694 0.612376 0
M  V30 4053 H 396.684 1.32888 1.5557 0
M  V30 4054 H 396.694 0.93781 3.97076 0
M  V30 4055 H 395.369 2.03733 3.62582 0
M  V30 4056 H 393.946 0.208451 3.72317 0
M  V30 4057 N 396.131 -1.37776 0.765217 0
M  V30 4058 C 397.094 -2.28686 0.153416 0
M  V30 4059 C 398.094 -1.47727 -0.635081 0
M  V30 4060 O 399.284 -1.68027 -0.459632 0
M  V30 4061 C 396.416 -3.31608 -0.790495 0
M  V30 4062 H 397.609 -2.84297 0.954723 0
M  V30 4063 H 395.162 -1.46932 0.53299 0
M  V30 4064 H 395.897 -2.81109 -1.61705 0
M  V30 4065 H 395.682 -3.9144 -0.227348 0
M  V30 4066 H 397.172 -3.99559 -1.21419 0
M  V30 4067 N 397.609 -0.515225 -1.4894 0
M  V30 4068 C 399.025 -0.172099 -1.58669 0
M  V30 4069 C 399.225 1.32405 -1.51892 0
M  V30 4070 O 398.281 2.10116 -1.40027 0
M  V30 4071 C 399.594 -0.761533 -2.90897 0
M  V30 4072 C 401.142 -0.728926 -3.04394 0
M  V30 4073 C 401.617 -1.29667 -4.39261 0
M  V30 4074 N 403.108 -1.25799 -4.4579 0
M  V30 4075 C 403.843 -1.66733 -5.48623 0
M  V30 4076 N 403.339 -2.15327 -6.58488 0
M  V30 4077 N 405.132 -1.58061 -5.39419 0
M  V30 4078 H 397.283 -1.48778 -1.51588 0
M  V30 4079 H 399.546 -0.617968 -0.718901 0
M  V30 4080 H 399.252 -1.81136 -3.01468 0
M  V30 4081 H 399.126 -0.230106 -3.76497 0
M  V30 4082 H 401.513 0.312098 -2.93445 0
M  V30 4083 H 401.594 -1.29766 -2.20442 0
M  V30 4084 H 401.238 -2.33655 -4.50963 0
M  V30 4085 H 401.168 -0.703752 -5.21876 0
M  V30 4086 H 403.659 -0.902102 -3.66975 0
M  V30 4087 H 403.972 -2.44594 -7.33071 0
M  V30 4088 H 402.317 -2.19311 -6.59491 0
M  V30 4089 H 405.508 -1.19906 -4.52482 0
M  V30 4090 H 405.681 -1.90284 -6.19432 0
M  V30 4091 N 399.087 1.5561 -0.249682 0
M  V30 4092 C 400.034 2.21496 0.648694 0
M  V30 4093 C 401.004 1.17977 1.16921 0
M  V30 4094 O 402.189 1.46434 1.22318 0
M  V30 4095 C 399.329 2.92039 1.83868 0
M  V30 4096 C 398.442 4.10219 1.35442 0
M  V30 4097 C 397.577 4.6847 2.50419 0
M  V30 4098 C 396.616 5.78893 1.98869 0
M  V30 4099 N 395.753 6.31315 3.07223 0
M  V30 4100 H 400.593 2.97892 0.0801582 0
M  V30 4101 H 398.13 1.47074 0.0278031 0
M  V30 4102 H 400.088 3.31138 2.53778 0
M  V30 4103 H 398.718 2.18111 2.37965 0
M  V30 4104 H 397.77 3.76413 0.54928 0
M  V30 4105 H 399.082 4.89927 0.936649 0
M  V30 4106 H 398.236 5.10158 3.28366 0
M  V30 4107 H 396.975 3.87984 2.95499 0
M  V30 4108 H 395.98 5.3668 1.19393 0
M  V30 4109 H 397.205 6.61232 1.54755 0
M  V30 4110 H 395.151 5.53733 3.51732 0
M  V30 4111 H 395.068 7.06224 2.69784 0
M  V30 4112 H 396.336 6.77662 3.8522 0
M  V30 4113 N 400.565 -0.0233959 1.57583 0
M  V30 4114 C 401.513 -1.04063 2.08023 0
M  V30 4115 C 402.507 -1.37084 0.995204 0
M  V30 4116 O 403.713 -1.35923 1.18004 0
M  V30 4117 H 400.088 -0.353144 0.663922 0
M  V30 4118 H 402.059 -0.589453 2.9252 0
M  V30 4119 C 400.808 -2.33123 2.57971 0
M  V30 4120 H 400.131 -2.08577 3.4108 0
M  V30 4121 H 401.571 -3.02632 2.96967 0
M  V30 4122 C 400.03 -3.02483 1.48342 0
M  V30 4123 O 400.56 -3.92541 0.852898 0
M  V30 4124 N 398.766 -2.63909 1.21658 0
M  V30 4125 H 398.313 -1.90758 1.73116 0
M  V30 4126 H 398.271 -3.10633 0.485218 0
M  V30 4127 N 402.043 -1.548 -0.295768 0
M  V30 4128 C 402.973 -1.89115 -1.36959 0
M  V30 4129 C 403.954 -0.75059 -1.52644 0
M  V30 4130 O 405.139 -1.00678 -1.66065 0
M  V30 4131 C 402.269 -2.14307 -2.73295 0
M  V30 4132 C 401.223 -3.30151 -2.72368 0
M  V30 4133 C 400.549 -3.40772 -4.12042 0
M  V30 4134 C 401.849 -4.67126 -2.33646 0
M  V30 4135 H 403.543 -2.79053 -1.08488 0
M  V30 4136 H 401.089 -1.34266 -0.520443 0
M  V30 4137 H 403.042 -2.36898 -3.48507 0
M  V30 4138 H 401.766 -1.21145 -3.03301 0
M  V30 4139 H 400.425 -3.0749 -1.99613 0
M  V30 4140 H 400.073 -2.45117 -4.39234 0
M  V30 4141 H 399.773 -4.18645 -4.12322 0
M  V30 4142 H 401.297 -3.6563 -4.89027 0
M  V30 4143 H 402.711 -4.89414 -2.98575 0
M  V30 4144 H 401.108 -5.47751 -2.45129 0
M  V30 4145 H 402.178 -4.67489 -1.28772 0
M  V30 4146 N 403.521 0.559213 -1.47345 0
M  V30 4147 C 404.769 1.31388 -1.53563 0
M  V30 4148 C 405.09 1.93985 -0.198678 0
M  V30 4149 O 404.36 1.79825 0.777167 0
M  V30 4150 H 402.94 0.487901 -0.565652 0
M  V30 4151 H 405.602 0.65315 -1.8363 0
M  V30 4152 H 404.698 2.10844 -2.30111 0
M  V30 4153 N 404.999 1.35443 0.805782 0
M  V30 4154 C 405.946 1.28431 1.91766 0
M  V30 4155 C 406.916 0.156102 1.65365 0
M  V30 4156 O 408.101 0.339936 1.87747 0
M  V30 4157 C 405.241 1.06301 3.2832 0
M  V30 4158 C 404.354 2.2805 3.66902 0
M  V30 4159 C 403.489 1.99064 4.92491 0
M  V30 4160 C 402.528 3.16863 5.23703 0
M  V30 4161 N 401.665 2.87647 6.40471 0
M  V30 4162 H 406.505 2.23511 1.97096 0
M  V30 4163 H 404.042 1.11105 0.964054 0
M  V30 4164 H 406 0.915012 4.07042 0
M  V30 4165 H 404.63 0.148822 3.22457 0
M  V30 4166 H 403.682 2.53711 2.83434 0
M  V30 4167 H 404.994 3.1601 3.85927 0
M  V30 4168 H 404.148 1.81099 5.7904 0
M  V30 4169 H 402.887 1.0839 4.75503 0
M  V30 4170 H 401.892 3.35404 4.35642 0
M  V30 4171 H 403.117 4.08339 5.4262 0
M  V30 4172 H 401.063 1.99568 6.24907 0
M  V30 4173 H 400.98 3.69141 6.59751 0
M  V30 4174 H 402.248 2.73226 7.30047 0
M  V30 4175 N 406.477 -1.02803 1.19454 0
M  V30 4176 C 407.41 -2.107 0.876396 0
M  V30 4177 C 408.388 -1.61741 -0.166897 0
M  V30 4178 O 409.572 -1.88451 -0.0430195 0
M  V30 4179 C 406.699 -3.37262 0.311758 0
M  V30 4180 C 405.745 -4.05093 1.33424 0
M  V30 4181 S 406.578 -4.50498 2.89503 0
M  V30 4182 C 407.734 -5.80277 2.34584 0
M  V30 4183 H 407.967 -2.37362 1.79016 0
M  V30 4184 H 405.5 -1.15755 1.02177 0
M  V30 4185 H 407.458 -4.10499 -0.00748752 0
M  V30 4186 H 406.119 -3.08693 -0.58032 0
M  V30 4187 H 405.312 -4.9611 0.888302 0
M  V30 4188 H 404.914 -3.3803 1.60037 0
M  V30 4189 H 407.206 -6.54873 1.73633 0
M  V30 4190 H 408.149 -6.29651 3.23952 0
M  V30 4191 H 408.557 -5.3599 1.77131 0
M  V30 4192 N 407.956 -0.998596 -1.21925 0
M  V30 4193 C 408.886 -0.573688 -2.26343 0
M  V30 4194 C 409.867 0.402296 -1.65274 0
M  V30 4195 O 411.052 0.291683 -1.91997 0
M  V30 4196 C 408.182 0.106839 -3.47136 0
M  V30 4197 C 407.136 -0.788269 -4.20678 0
M  V30 4198 C 406.462 0.0254927 -5.34694 0
M  V30 4199 C 407.762 -2.08784 -4.78755 0
M  V30 4200 H 409.456 -1.44651 -2.62138 0
M  V30 4201 H 407.002 -0.696975 -1.26009 0
M  V30 4202 H 408.955 0.415531 -4.19346 0
M  V30 4203 H 407.679 1.01424 -3.10452 0
M  V30 4204 H 406.338 -1.08069 -3.50309 0
M  V30 4205 H 405.986 0.933989 -4.94253 0
M  V30 4206 H 405.686 -0.570437 -5.84825 0
M  V30 4207 H 407.21 0.328147 -6.09718 0
M  V30 4208 H 408.624 -1.84272 -5.42878 0
M  V30 4209 H 407.021 -2.63307 -5.39249 0
M  V30 4210 H 408.091 -2.76284 -3.98491 0
M  V30 4211 N 409.434 1.37368 -0.772513 0
M  V30 4212 C 410.397 2.28601 -0.165541 0
M  V30 4213 C 411.397 1.48062 0.627238 0
M  V30 4214 O 412.587 1.68268 0.450715 0
M  V30 4215 C 409.719 3.32023 0.772897 0
M  V30 4216 H 410.912 2.83787 -0.969787 0
M  V30 4217 H 408.465 1.46647 -0.540775 0
M  V30 4218 H 409.2 2.81962 1.60212 0
M  V30 4219 H 408.985 3.91555 0.206585 0
M  V30 4220 H 410.475 4.00197 1.19298 0
M  V30 4221 N 410.912 0.523116 1.48665 0
M  V30 4222 C 411.844 -0.280421 2.27478 0
M  V30 4223 C 412.857 -0.910694 1.34945 0
M  V30 4224 O 414.046 -0.790295 1.60052 0
M  V30 4225 C 411.146 -1.41171 3.08097 0
M  V30 4226 C 410.319 -0.884642 4.28361 0
M  V30 4227 C 409.378 -1.89622 4.90846 0
M  V30 4228 O 408.404 -1.4559 5.50265 0
M  V30 4229 N 409.606 -3.22801 4.82472 0
M  V30 4230 H 412.371 0.395481 2.97079 0
M  V30 4231 H 409.932 0.357018 1.57915 0
M  V30 4232 H 411.924 -2.08645 3.4677 0
M  V30 4233 H 410.494 -1.99139 2.40961 0
M  V30 4234 H 409.714 -0.0341177 3.94185 0
M  V30 4235 H 411.002 -0.511268 5.06225 0
M  V30 4236 H 410.4 -3.61246 4.35336 0
M  V30 4237 H 408.957 -3.85927 5.25265 0
M  V30 4238 N 412.39 -1.55475 0.257931 0
M  V30 4239 C 413.3 -2.2549 -0.647425 0
M  V30 4240 C 414.316 -1.2748 -1.18427 0
M  V30 4241 O 415.492 -1.6038 -1.2182 0
M  V30 4242 C 412.557 -2.94916 -1.82278 0
M  V30 4243 C 411.618 -4.08363 -1.32432 0
M  V30 4244 C 410.851 -4.74469 -2.44366 0
M  V30 4245 O 411.074 -4.39701 -3.63344 0
M  V30 4246 O 410.008 -5.62763 -2.13497 0
M  V30 4247 H 413.834 -3.03593 -0.0807707 0
M  V30 4248 H 411.419 -1.49377 0.0259962 0
M  V30 4249 H 413.301 -3.38606 -2.50846 0
M  V30 4250 H 411.976 -2.19744 -2.37685 0
M  V30 4251 H 410.883 -3.69166 -0.605605 0
M  V30 4252 H 412.216 -4.85385 -0.816211 0
M  V30 4253 N 413.868 0.0150385 -1.57593 0
M  V30 4254 C 415.093 0.718067 -1.94573 0
M  V30 4255 C 415.518 1.6734 -0.859005 0
M  V30 4256 O 414.876 1.80362 0.184147 0
M  V30 4257 C 414.924 1.43918 -3.30636 0
M  V30 4258 O 414.028 2.55299 -3.23876 0
M  V30 4259 H 413.369 0.192125 -0.635597 0
M  V30 4260 H 415.899 -0.0336708 -2.04572 0
M  V30 4261 H 415.909 1.80598 -3.65853 0
M  V30 4262 H 414.584 0.738619 -4.09289 0
M  V30 4263 H 413.161 2.21058 -3.00312 0
M  V30 4264 N 415.346 1.54954 0.287554 0
M  V30 4265 C 416.309 1.86076 1.33823 0
M  V30 4266 C 417.309 0.734414 1.43049 0
M  V30 4267 O 418.499 1.00266 1.42452 0
M  V30 4268 C 415.631 2.05305 2.72144 0
M  V30 4269 H 416.824 2.79984 1.07465 0
M  V30 4270 H 414.377 1.47223 0.524902 0
M  V30 4271 H 415.112 1.1373 3.03704 0
M  V30 4272 H 414.897 2.873 2.66836 0
M  V30 4273 H 416.387 2.30706 3.48087 0
M  V30 4274 N 416.824 -0.551391 1.4764 0
M  V30 4275 C 418.07 -1.31024 1.54792 0
M  V30 4276 C 418.403 -1.9304 0.211967 0
M  V30 4277 O 417.678 -1.78175 -0.77999 0
M  V30 4278 C 417.961 -2.41593 2.67029 0
M  V30 4279 C 417.814 -1.84408 4.10261 0
M  V30 4280 C 419.133 -3.43488 2.75143 0
M  V30 4281 H 416.252 -0.475031 0.563485 0
M  V30 4282 H 418.894 -0.616454 1.79722 0
M  V30 4283 H 417.044 -3.00772 2.45904 0
M  V30 4284 H 418.716 -1.29445 4.42766 0
M  V30 4285 H 416.959 -1.15051 4.18265 0
M  V30 4286 H 417.63 -2.64367 4.84576 0
M  V30 4287 H 420.106 -2.94236 2.94218 0
M  V30 4288 H 418.982 -4.18274 3.55441 0
M  V30 4289 H 419.243 -4.02703 1.82435 0
M  V30 4290 N 418.302 -1.35869 -0.798587 0
M  V30 4291 C 419.212 -1.31578 -1.94228 0
M  V30 4292 C 420.228 -0.21939 -1.72611 0
M  V30 4293 O 421.404 -0.450167 -1.96305 0
M  V30 4294 C 418.469 -1.09528 -3.28944 0
M  V30 4295 C 417.53 -2.28556 -3.63402 0
M  V30 4296 C 416.763 -2.07549 -4.9169 0
M  V30 4297 O 416.986 -1.046 -5.60727 0
M  V30 4298 O 415.92 -2.95106 -5.24591 0
M  V30 4299 H 419.746 -2.27847 -2.00796 0
M  V30 4300 H 417.331 -1.16322 -0.937526 0
M  V30 4301 H 419.213 -0.991127 -4.09579 0
M  V30 4302 H 417.888 -0.16315 -3.23289 0
M  V30 4303 H 416.795 -2.44538 -2.83112 0
M  V30 4304 H 418.128 -3.20244 -3.73771 0
M  V30 4305 N 419.78 1.02168 -1.19998 0
M  V30 4306 C 420.743 2.08765 -0.94604 0
M  V30 4307 C 421.743 1.60618 0.0763846 0
M  V30 4308 O 422.933 1.73472 -0.159135 0
M  V30 4309 C 420.065 3.38262 -0.423255 0
M  V30 4310 H 421.258 2.32726 -1.89153 0
M  V30 4311 H 418.811 1.1889 -1.01464 0
M  V30 4312 H 419.546 3.19974 0.527938 0
M  V30 4313 H 419.331 3.74532 -1.16053 0
M  V30 4314 H 420.821 4.16759 -0.264911 0
M  V30 4315 N 421.258 1.00505 1.21394 0
M  V30 4316 C 422.535 0.603277 1.86064 0
M  V30 4317 C 422.915 -0.919095 1.90042 0
M  V30 4318 O 422.263 -1.80607 1.39977 0
M  V30 4319 C 422.473 1.23772 3.26315 0
M  V30 4320 C 423.821 1.34586 4.02705 0
M  V30 4321 O 424.845 1.19304 3.35626 0
M  V30 4322 O 423.704 1.59169 5.22807 0
M  V30 4323 H 420.798 0.206634 0.800769 0
M  V30 4324 H 423.344 1.1017 1.29076 0
M  V30 4325 H 422.116 2.27848 3.18121 0
M  V30 4326 H 421.739 0.725648 3.90922 0
M  V30 4327 N 422.737 -1.36956 0.779787 0
M  V30 4328 C 423.983 -1.99787 0.348281 0
M  V30 4329 C 424.316 -1.61756 -1.07465 0
M  V30 4330 O 423.591 -0.867639 -1.74075 0
M  V30 4331 C 423.874 -3.56597 0.50104 0
M  V30 4332 C 423.727 -4.04513 1.96697 0
M  V30 4333 C 425.046 -4.40008 -0.0898097 0
M  V30 4334 H 422.165 -0.725796 0.128022 0
M  V30 4335 H 424.807 -1.62514 0.984331 0
M  V30 4336 H 422.957 -3.88479 -0.0404347 0
M  V30 4337 H 424.629 -3.83161 2.56876 0
M  V30 4338 H 422.872 -3.56408 2.47297 0
M  V30 4339 H 423.543 -5.1352 2.02486 0
M  V30 4340 H 426.019 -4.14431 0.372293 0
M  V30 4341 H 424.895 -5.4888 0.0471605 0
M  V30 4342 H 425.156 -4.26035 -1.18096 0
M  V30 4343 N 424.215 -0.530993 -1.48385 0
M  V30 4344 C 425.461 0.00274135 -2.028 0
M  V30 4345 C 425.794 1.33838 -1.40716 0
M  V30 4346 O 425.069 1.86465 -0.553277 0
M  V30 4347 C 425.352 0.123676 -3.59888 0
M  V30 4348 C 425.205 -1.2372 -4.3245 0
M  V30 4349 C 426.524 0.849967 -4.31814 0
M  V30 4350 H 423.643 -0.000477758 -0.737 0
M  V30 4351 H 426.285 -0.688217 -1.77098 0
M  V30 4352 H 424.435 0.712157 -3.81917 0
M  V30 4353 H 426.107 -1.86687 -4.21836 0
M  V30 4354 H 424.35 -1.81882 -3.93829 0
M  V30 4355 H 425.021 -1.10557 -5.40815 0
M  V30 4356 H 427.497 0.350572 -4.14621 0
M  V30 4357 H 426.373 0.903486 -5.41413 0
M  V30 4358 H 426.634 1.90047 -3.99167 0
M  V30 4359 N 425.693 1.55336 -0.266172 0
M  V30 4360 C 426.921 2.03801 0.356756 0
M  V30 4361 C 427.336 1.14485 1.50129 0
M  V30 4362 O 426.693 0.163121 1.8177 0
M  V30 4363 C 426.744 3.51455 0.846281 0
M  V30 4364 O 426.465 4.37371 -0.252663 0
M  V30 4365 C 427.966 4.15767 1.53794 0
M  V30 4366 H 425.186 0.665906 0.0825218 0
M  V30 4367 H 427.73 2.00636 -0.39566 0
M  V30 4368 H 425.885 3.55092 1.54881 0
M  V30 4369 H 426.299 5.24358 0.122173 0
M  V30 4370 H 427.773 5.20714 1.83198 0
M  V30 4371 H 428.25 3.63404 2.46646 0
M  V30 4372 H 428.856 4.16107 0.879488 0
M  V30 4373 N 427.171 -0.0066808 1.57599 0
M  V30 4374 C 428.419 -0.691552 1.899 0
M  V30 4375 C 428.74 -1.74682 0.866672 0
M  V30 4376 O 428.01 -1.95661 -0.0968189 0
M  V30 4377 H 426.59 -0.258416 0.700878 0
M  V30 4378 H 429.252 0.0326655 1.94873 0
M  V30 4379 H 428.348 -1.16702 2.8946 0
M  V30 4380 N 428.649 -1.55105 -0.279332 0
M  V30 4381 C 429.895 -1.75672 -1.01327 0
M  V30 4382 C 430.228 -0.552739 -1.86168 0
M  V30 4383 O 429.503 0.449827 -1.89227 0
M  V30 4384 C 429.786 -3.05825 -1.90114 0
M  V30 4385 C 429.639 -4.36565 -1.08309 0
M  V30 4386 C 430.958 -3.31975 -2.8893 0
M  V30 4387 H 428.077 -0.639149 -0.366957 0
M  V30 4388 H 430.719 -1.87833 -0.286154 0
M  V30 4389 H 428.869 -2.95588 -2.52111 0
M  V30 4390 H 430.541 -4.58751 -0.484314 0
M  V30 4391 H 428.784 -4.32076 -0.386362 0
M  V30 4392 H 429.455 -5.23946 -1.73737 0
M  V30 4393 H 431.931 -3.41963 -2.37067 0
M  V30 4394 H 430.807 -4.2432 -3.48201 0
M  V30 4395 H 431.068 -2.51309 -3.63725 0
M  V30 4396 N 430.127 0.543554 -1.4793 0
M  V30 4397 C 431.538 1.12561 -1.48953 0
M  V30 4398 C 431.889 1.94578 -0.251754 0
M  V30 4399 O 431.014 2.0665 0.642255 0
M  V30 4400 C 431.609 2.04801 -2.69892 0
M  V30 4401 C 430.168 2.58251 -2.73831 0
M  V30 4402 C 429.315 1.34918 -2.42265 0
M  V30 4403 H 432.266 0.32947 -1.55242 0
M  V30 4404 H 432.287 2.88886 -2.47639 0
M  V30 4405 H 431.799 1.4508 -3.59963 0
M  V30 4406 H 429.9 3.21732 -1.87934 0
M  V30 4407 H 430.013 2.98312 -3.74895 0
M  V30 4408 H 428.377 1.66046 -1.93134 0
M  V30 4409 H 429.16 0.769693 -3.3456 0
M  V30 4410 N 431.605 1.3629 0.791371 0
M  V30 4411 C 432.882 1.20962 1.53712 0
M  V30 4412 C 433.262 -0.205021 2.10102 0
M  V30 4413 O 432.61 -1.21042 1.93807 0
M  V30 4414 C 432.82 2.29002 2.63361 0
M  V30 4415 C 434.168 2.65572 3.31295 0
M  V30 4416 O 435.192 2.2803 2.73643 0
M  V30 4417 O 434.051 3.3018 4.35481 0
M  V30 4418 H 431.145 0.47086 0.679867 0
M  V30 4419 H 433.691 1.48016 0.830021 0
M  V30 4420 H 432.463 3.2382 2.19674 0
M  V30 4421 H 432.086 2.03303 3.41692 0
M  V30 4422 N 433.083 -1.0153 1.20538 0
M  V30 4423 C 434.308 -1.79283 1.04271 0
M  V30 4424 C 434.733 -1.8372 -0.403544 0
M  V30 4425 O 434.091 -1.27321 -1.2907 0
M  V30 4426 C 434.139 -3.21535 1.63241 0
M  V30 4427 O 433.243 -4.03099 0.870908 0
M  V30 4428 H 432.584 -0.55293 0.367647 0
M  V30 4429 H 435.114 -1.27696 1.59859 0
M  V30 4430 H 435.124 -3.72243 1.6703 0
M  V30 4431 H 433.799 -3.1762 2.68497 0
M  V30 4432 H 432.376 -3.61693 0.907323 0
M  V30 4433 N 434.561 -1.01147 -1.20859 0
M  V30 4434 C 435.786 -0.716698 -1.94623 0
M  V30 4435 C 436.211 0.715415 -1.73964 0
M  V30 4436 O 435.569 1.49157 -1.03062 0
M  V30 4437 C 435.617 -1.0513 -3.44935 0
M  V30 4438 O 434.721 -0.160131 -4.12089 0
M  V30 4439 H 434.062 -0.266404 -0.608214 0
M  V30 4440 H 436.592 -1.35346 -1.53436 0
M  V30 4441 H 436.602 -1.00086 -3.95533 0
M  V30 4442 H 435.277 -2.09475 -3.59295 0
M  V30 4443 H 433.854 -0.267657 -3.71938 0
M  V30 4444 N 436.039 1.36541 -0.78704 0
M  V30 4445 C 437.288 1.98552 -0.35494 0
M  V30 4446 C 437.601 1.63171 1.07864 0
M  V30 4447 O 438.807 2.18399 1.61289 0
M  V30 4448 C 437.263 3.55136 -0.583671 0
M  V30 4449 C 436.871 3.99444 -2.02851 0
M  V30 4450 C 438.615 4.2395 -0.215957 0
M  V30 4451 C 436.522 5.48796 -2.20403 0
M  V30 4452 H 435.452 0.742888 -0.128972 0
M  V30 4453 H 438.103 1.5587 -0.968337 0
M  V30 4454 H 436.485 3.95875 0.0994046 0
M  V30 4455 H 437.659 3.6991 -2.74779 0
M  V30 4456 H 435.974 3.43459 -2.35425 0
M  V30 4457 H 438.571 5.33709 -0.325405 0
M  V30 4458 H 438.914 4.07827 0.835646 0
M  V30 4459 H 439.447 3.88565 -0.852175 0
M  V30 4460 H 436.186 5.69864 -3.23937 0
M  V30 4461 H 435.706 5.79964 -1.52977 0
M  V30 4462 H 437.385 6.14986 -2.01002 0
M  V30 4463 N 437.518 0.538854 1.48102 0
M  V30 4464 C 438.743 0.0102694 2.07397 0
M  V30 4465 C 439.168 -1.26562 1.39153 0
M  V30 4466 O 438.526 -1.75357 0.460387 0
M  V30 4467 C 438.574 -0.187602 3.60112 0
M  V30 4468 O 437.678 -1.25432 3.92862 0
M  V30 4469 H 437.019 0.0430975 0.6626 0
M  V30 4470 H 439.549 0.749301 1.90385 0
M  V30 4471 H 439.559 -0.407517 4.0596 0
M  V30 4472 H 438.234 0.744386 4.09184 0
M  V30 4473 H 436.811 -1.01636 3.58782 0
M  V30 4474 N 438.996 -1.55193 0.274407 0
M  V30 4475 C 439.959 -2.212 -0.600279 0
M  V30 4476 C 440.959 -1.18963 -1.08187 0
M  V30 4477 O 442.149 -1.43873 -0.982158 0
M  V30 4478 C 439.281 -2.87739 -1.82809 0
M  V30 4479 H 440.474 -2.9989 -0.0239682 0
M  V30 4480 H 438.027 -1.5628 0.0250192 0
M  V30 4481 H 438.762 -2.13058 -2.44493 0
M  V30 4482 H 438.547 -3.62658 -1.49069 0
M  V30 4483 H 440.037 -3.38171 -2.45011 0
M  V30 4484 N 440.474 -0.00167713 -1.576 0
M  V30 4485 C 441.437 0.974046 -2.07473 0
M  V30 4486 C 442.437 1.27143 -0.984444 0
M  V30 4487 O 443.627 1.21633 -1.24703 0
M  V30 4488 C 440.759 2.29849 -2.51759 0
M  V30 4489 H 441.952 0.54262 -2.9495 0
M  V30 4490 H 439.505 0.245829 -1.54355 0
M  V30 4491 H 440.24 2.77677 -1.67529 0
M  V30 4492 H 440.025 2.09584 -3.31386 0
M  V30 4493 H 441.515 2.9984 -2.90664 0
M  V30 4494 N 441.952 1.55251 0.271103 0
M  V30 4495 C 443.201 1.75151 1.00025 0
M  V30 4496 C 443.514 0.561041 1.87381 0
M  V30 4497 O 444.72 0.642506 2.63788 0
M  V30 4498 C 443.176 3.09999 1.82835 0
M  V30 4499 C 442.784 4.3662 1.00336 0
M  V30 4500 C 444.528 3.39249 2.55168 0
M  V30 4501 C 442.435 5.62506 1.82595 0
M  V30 4502 H 441.365 0.652877 0.377183 0
M  V30 4503 H 444.016 1.81708 0.255843 0
M  V30 4504 H 442.398 2.97485 2.61378 0
M  V30 4505 H 443.572 4.60055 0.261959 0
M  V30 4506 H 441.887 4.14527 0.394486 0
M  V30 4507 H 444.484 4.3051 3.1712 0
M  V30 4508 H 444.827 2.59467 3.2555 0
M  V30 4509 H 445.36 3.52869 1.83653 0
M  V30 4510 H 442.099 6.45041 1.16631 0
M  V30 4511 H 441.619 5.43211 2.54327 0
M  V30 4512 H 443.298 6.00875 2.39913 0
M  V30 4513 N 443.43 -0.535701 1.48216 0
M  V30 4514 C 444.678 -1.28928 1.55634 0
M  V30 4515 C 444.999 -1.93645 0.229514 0
M  V30 4516 O 444.269 -1.81038 -0.74846 0
M  V30 4517 H 442.849 -0.47884 0.573342 0
M  V30 4518 H 445.511 -0.623853 1.84646 0
M  V30 4519 H 444.607 -2.07157 2.33436 0
M  V30 4520 N 444.908 -1.36708 -0.784132 0
M  V30 4521 C 446.138 -1.34203 -1.57077 0
M  V30 4522 C 446.546 0.0774945 -1.89041 0
M  V30 4523 O 445.889 1.04628 -1.50992 0
M  V30 4524 C 445.951 -2.10351 -2.91535 0
M  V30 4525 C 445.615 -3.59405 -2.82272 0
M  V30 4526 C 446.612 -4.53545 -2.54151 0
M  V30 4527 C 444.297 -4.02362 -3.00683 0
M  V30 4528 C 446.291 -5.8862 -2.44551 0
M  V30 4529 C 443.978 -5.37526 -2.90704 0
M  V30 4530 C 444.976 -6.30468 -2.62677 0
M  V30 4531 O 444.664 -7.63149 -2.52702 0
M  V30 4532 H 444.396 -0.461791 -0.493685 0
M  V30 4533 H 446.95 -1.80475 -0.980712 0
M  V30 4534 H 445.18 -1.5875 -3.52612 0
M  V30 4535 H 446.869 -2.00636 -3.52845 0
M  V30 4536 H 447.635 -4.21669 -2.39625 0
M  V30 4537 H 443.514 -3.30389 -3.21503 0
M  V30 4538 H 447.058 -6.61133 -2.22596 0
M  V30 4539 H 442.955 -5.69008 -3.04795 0
M  V30 4540 H 443.723 -7.73331 -2.68144 0
M  V30 4541 N 446.386 1.0089 -1.21074 0
M  V30 4542 C 447.349 2.0775 -0.968129 0
M  V30 4543 C 448.349 1.6069 0.0593445 0
M  V30 4544 O 449.539 1.73293 -0.177525 0
M  V30 4545 C 446.671 3.37794 -0.459108 0
M  V30 4546 H 447.864 2.30707 -1.9161 0
M  V30 4547 H 445.417 1.17807 -1.02719 0
M  V30 4548 H 446.152 3.20516 0.49397 0
M  V30 4549 H 445.937 3.7328 -1.20019 0
M  V30 4550 H 447.427 4.16454 -0.309099 0
M  V30 4551 N 447.864 1.01787 1.20321 0
M  V30 4552 C 448.774 0.598898 2.26827 0
M  V30 4553 C 449.79 -0.36418 1.70146 0
M  V30 4554 O 450.966 -0.224812 2.00141 0
M  V30 4555 C 448.031 -0.0549769 3.46656 0
M  V30 4556 C 447.092 0.954205 4.18561 0
M  V30 4557 C 446.325 0.331439 5.3267 0
M  V30 4558 O 446.548 -0.86851 5.63749 0
M  V30 4559 O 445.482 1.0488 5.92692 0
M  V30 4560 H 449.308 1.48562 2.64883 0
M  V30 4561 H 446.893 0.787434 1.26964 0
M  V30 4562 H 448.775 -0.420102 4.19301 0
M  V30 4563 H 447.45 -0.915876 3.10473 0
M  V30 4564 H 446.357 1.37072 3.48083 0
M  V30 4565 H 447.69 1.78511 4.58688 0
M  V30 4566 N 449.342 -1.36122 0.79427 0
M  V30 4567 C 450.305 -2.28309 0.201889 0
M  V30 4568 C 451.305 -1.49041 -0.603603 0
M  V30 4569 O 452.495 -1.68964 -0.423888 0
M  V30 4570 C 449.627 -3.3321 -0.719978 0
M  V30 4571 H 450.82 -2.82208 1.01481 0
M  V30 4572 H 448.373 -1.45768 0.564037 0
M  V30 4573 H 449.108 -2.84475 -1.55706 0
M  V30 4574 H 448.893 -3.91835 -0.144266 0
M  V30 4575 H 450.383 -4.02044 -1.12916 0
M  V30 4576 N 450.82 -0.546701 -1.47814 0
M  V30 4577 C 452.048 -0.0232857 -2.06887 0
M  V30 4578 C 452.463 1.26571 -1.4009 0
M  V30 4579 O 451.82 1.7569 -0.493906 0
M  V30 4580 C 451.871 0.186975 -3.61016 0
M  V30 4581 O 451.592 -1.05097 -4.25307 0
M  V30 4582 C 453.093 0.748872 -4.36929 0
M  V30 4583 H 450.313 -0.0410763 -0.669742 0
M  V30 4584 H 452.857 -0.757117 -1.89968 0
M  V30 4585 H 451.012 0.870903 -3.77484 0
M  V30 4586 H 451.426 -0.842121 -5.17695 0
M  V30 4587 H 452.9 0.845334 -5.45489 0
M  V30 4588 H 453.377 1.75772 -4.02493 0
M  V30 4589 H 453.983 0.100979 -4.2518 0
M  V30 4590 N 452.299 1.55045 -0.282633 0
M  V30 4591 C 453.547 1.99365 0.331334 0
M  V30 4592 C 453.868 1.1725 1.55812 0
M  V30 4593 O 453.138 0.263871 1.94115 0
M  V30 4594 H 451.718 0.736397 0.125414 0
M  V30 4595 H 454.38 1.90964 -0.389711 0
M  V30 4596 H 453.476 3.0596 0.616036 0
M  V30 4597 N 453.777 0.010035 1.57597 0
M  V30 4598 C 455.026 -0.671945 1.90178 0
M  V30 4599 C 455.339 -1.74376 0.886131 0
M  V30 4600 O 456.545 -2.48107 1.10252 0
M  V30 4601 C 455.001 -1.24636 3.3763 0
M  V30 4602 C 454.609 -0.208838 4.47513 0
M  V30 4603 C 456.353 -1.90595 3.79307 0
M  V30 4604 C 454.26 -0.793814 5.86048 0
M  V30 4605 H 453.19 -0.25474 0.709665 0
M  V30 4606 H 455.841 0.0722206 1.83358 0
M  V30 4607 H 454.223 -2.04152 3.3932 0
M  V30 4608 H 455.397 0.562463 4.57354 0
M  V30 4609 H 453.712 0.350889 4.14919 0
M  V30 4610 H 456.309 -2.35284 4.80151 0
M  V30 4611 H 456.652 -2.74074 3.13352 0
M  V30 4612 H 457.185 -1.17798 3.79958 0
M  V30 4613 H 453.924 0.00240855 6.555 0
M  V30 4614 H 453.444 -1.53404 5.79851 0
M  V30 4615 H 455.123 -1.2894 6.34022 0
M  V30 4616 N 455.255 -1.55392 -0.262866 0
M  V30 4617 C 456.666 -1.67079 -0.833158 0
M  V30 4618 C 457.017 -0.604539 -1.86654 0
M  V30 4619 O 456.142 0.252138 -2.14926 0
M  V30 4620 C 456.737 -3.02891 -1.51797 0
M  V30 4621 C 455.296 -3.16571 -2.03617 0
M  V30 4622 C 454.443 -2.62909 -0.881701 0
M  V30 4623 H 457.394 -1.58652 -0.0389986 0
M  V30 4624 H 457.415 -2.96445 -2.38538 0
M  V30 4625 H 456.927 -3.80473 -0.765619 0
M  V30 4626 H 455.028 -2.43782 -2.81782 0
M  V30 4627 H 455.141 -4.23271 -2.24452 0
M  V30 4628 H 453.505 -2.20324 -1.27786 0
M  V30 4629 H 454.288 -3.43003 -0.14269 0
M  V30 4630 N 456.733 0.527833 -1.48498 0
M  V30 4631 C 457.963 1.30633 -1.60058 0
M  V30 4632 C 458.371 1.87394 -0.260786 0
M  V30 4633 O 457.714 1.67227 0.760317 0
M  V30 4634 C 457.776 2.49361 -2.58958 0
M  V30 4635 C 457.44 2.13671 -4.03972 0
M  V30 4636 C 458.437 1.69217 -4.91591 0
M  V30 4637 C 456.122 2.24129 -4.49524 0
M  V30 4638 C 458.116 1.35689 -6.2279 0
M  V30 4639 C 455.803 1.90212 -5.80743 0
M  V30 4640 C 456.801 1.46063 -6.67199 0
M  V30 4641 O 456.489 1.12593 -7.95976 0
M  V30 4642 H 456.221 0.403444 -0.54241 0
M  V30 4643 H 458.775 0.643233 -1.95068 0
M  V30 4644 H 457.005 3.18659 -2.19073 0
M  V30 4645 H 458.694 3.11421 -2.6033 0
M  V30 4646 H 459.46 1.60607 -4.57636 0
M  V30 4647 H 455.339 2.57447 -3.82416 0
M  V30 4648 H 458.883 1.01157 -6.90227 0
M  V30 4649 H 454.78 1.98464 -6.14233 0
M  V30 4650 H 455.548 1.25972 -8.08748 0
M  V30 4651 N 458.211 1.37122 0.776871 0
M  V30 4652 C 459.121 1.34651 1.9211 0
M  V30 4653 C 460.137 0.246824 1.7224 0
M  V30 4654 O 461.313 0.48134 1.95563 0
M  V30 4655 C 458.378 1.14748 3.2716 0
M  V30 4656 C 457.439 2.34308 3.5972 0
M  V30 4657 C 456.672 2.15345 4.88326 0
M  V30 4658 O 456.895 1.13507 5.58992 0
M  V30 4659 O 455.829 3.03414 5.1983 0
M  V30 4660 H 459.655 2.31013 1.97146 0
M  V30 4661 H 457.24 1.17799 0.918901 0
M  V30 4662 H 459.122 1.05616 4.0795 0
M  V30 4663 H 457.797 0.214562 3.22988 0
M  V30 4664 H 456.704 2.49011 2.79185 0
M  V30 4665 H 458.037 3.26149 3.68629 0
M  V30 4666 N 459.689 -1.00246 1.21608 0
M  V30 4667 C 460.619 -2.10921 1.00172 0
M  V30 4668 C 461.6 -1.69938 -0.0741587 0
M  V30 4669 O 462.785 -1.94009 0.0861753 0
M  V30 4670 C 459.915 -3.42618 0.568355 0
M  V30 4671 C 458.869 -3.97407 1.58909 0
M  V30 4672 C 458.195 -5.25038 1.01187 0
M  V30 4673 C 459.495 -4.2918 2.97661 0
M  V30 4674 H 461.189 -2.29112 1.92739 0
M  V30 4675 H 458.735 -1.10101 0.928102 0
M  V30 4676 H 460.688 -4.19444 0.405555 0
M  V30 4677 H 459.412 -3.24227 -0.392961 0
M  V30 4678 H 458.071 -3.22703 1.73949 0
M  V30 4679 H 457.719 -5.02982 0.0421965 0
M  V30 4680 H 457.419 -5.62661 1.6937 0
M  V30 4681 H 458.943 -6.04507 0.860448 0
M  V30 4682 H 460.357 -4.96839 2.86049 0
M  V30 4683 H 458.754 -4.77952 3.6288 0
M  V30 4684 H 459.824 -3.3735 3.48315 0
M  V30 4685 N 461.167 -1.02423 -1.1978 0
M  V30 4686 C 462.415 -0.716569 -1.8897 0
M  V30 4687 C 462.736 0.756769 -1.79716 0
M  V30 4688 O 462.006 1.5449 -1.20456 0
M  V30 4689 H 460.586 -0.262062 -0.699523 0
M  V30 4690 H 463.248 -1.29747 -1.45436 0
M  V30 4691 H 462.344 -1.00675 -2.95417 0
M  V30 4692 N 462.645 1.35699 -0.801477 0
M  V30 4693 C 463.575 2.32436 -0.222658 0
M  V30 4694 C 464.556 1.5723 0.649057 0
M  V30 4695 O 465.741 1.85324 0.580387 0
M  V30 4696 C 462.871 3.41469 0.633719 0
M  V30 4697 C 461.825 4.27774 -0.139083 0
M  V30 4698 C 461.151 5.28082 0.838666 0
M  V30 4699 C 462.451 5.04946 -1.33517 0
M  V30 4700 H 464.145 2.81094 -1.03086 0
M  V30 4701 H 461.691 1.35146 -0.497155 0
M  V30 4702 H 463.644 4.08143 1.04868 0
M  V30 4703 H 462.368 2.91408 1.47475 0
M  V30 4704 H 461.027 3.62673 -0.535156 0
M  V30 4705 H 460.675 4.7429 1.67506 0
M  V30 4706 H 460.375 5.86695 0.32594 0
M  V30 4707 H 461.899 5.97628 1.25194 0
M  V30 4708 H 463.313 5.64593 -0.995349 0
M  V30 4709 H 461.71 5.7303 -1.78202 0
M  V30 4710 H 462.78 4.35886 -2.12442 0
M  V30 4711 N 464.123 0.554532 1.47522 0
M  V30 4712 C 465.372 0.0273458 2.01681 0
M  V30 4713 C 465.685 -1.32962 1.43459 0
M  V30 4714 O 466.891 -1.94657 1.89265 0
M  V30 4715 C 465.347 -0.00159057 3.599 0
M  V30 4716 C 464.955 1.35197 4.27113 0
M  V30 4717 C 466.699 -0.476311 4.21819 0
M  V30 4718 C 464.606 1.28229 5.77331 0
M  V30 4719 H 463.536 0.00645269 0.753972 0
M  V30 4720 H 466.187 0.701985 1.69542 0
M  V30 4721 H 464.569 -0.741821 3.8899 0
M  V30 4722 H 465.743 2.1097 4.09668 0
M  V30 4723 H 464.058 1.76441 3.77171 0
M  V30 4724 H 466.655 -0.5468 5.31897 0
M  V30 4725 H 466.998 -1.4877 3.8881 0
M  V30 4726 H 467.531 0.20898 3.97251 0
M  V30 4727 H 464.27 2.26959 6.14955 0
M  V30 4728 H 463.79 0.566314 5.97121 0
M  V30 4729 H 465.469 0.983226 6.39485 0
M  V30 4730 N 465.601 -1.54893 0.290851 0
M  V30 4731 C 466.548 -2.23138 -0.58974 0
M  V30 4732 C 467.518 -1.21036 -1.13752 0
M  V30 4733 O 468.703 -1.49626 -1.18392 0
M  V30 4734 C 465.843 -2.96811 -1.76061 0
M  V30 4735 C 464.956 -4.13665 -1.24519 0
M  V30 4736 C 464.091 -4.74944 -2.3791 0
M  V30 4737 C 463.13 -5.83963 -1.83451 0
M  V30 4738 N 462.267 -6.39239 -2.90376 0
M  V30 4739 H 467.107 -2.98 -0.00114915 0
M  V30 4740 H 464.644 -1.47096 0.0112006 0
M  V30 4741 H 466.602 -3.37751 -2.44909 0
M  V30 4742 H 465.232 -2.24344 -2.32098 0
M  V30 4743 H 464.284 -3.77737 -0.449288 0
M  V30 4744 H 465.596 -4.92238 -0.806424 0
M  V30 4745 H 464.75 -5.18684 -3.14724 0
M  V30 4746 H 463.489 -3.95682 -2.85109 0
M  V30 4747 H 462.494 -5.39657 -1.05122 0
M  V30 4748 H 463.719 -6.65103 -1.37169 0
M  V30 4749 H 461.665 -5.62864 -3.36927 0
M  V30 4750 H 461.582 -7.13129 -2.50965 0
M  V30 4751 H 462.85 -6.87637 -3.67118 0
M  V30 4752 N 467.08 -0.0183926 -1.57589 0
M  V30 4753 C 468.028 0.985111 -2.10709 0
M  V30 4754 C 469.022 1.34397 -1.0312 0
M  V30 4755 O 470.228 1.32746 -1.21567 0
M  V30 4756 H 466.603 0.335418 -0.673052 0
M  V30 4757 H 468.574 0.511689 -2.9398 0
M  V30 4758 C 467.323 2.26202 -2.64061 0
M  V30 4759 H 466.646 1.9946 -3.4649 0
M  V30 4760 H 468.086 2.94652 -3.04887 0
M  V30 4761 C 466.545 2.98444 -1.5631 0
M  V30 4762 O 467.075 3.90142 -0.956674 0
M  V30 4763 N 465.281 2.6059 -1.28612 0
M  V30 4764 H 464.828 1.86101 -1.78112 0
M  V30 4765 H 464.786 3.09238 -0.567406 0
M  V30 4766 N 468.558 1.5553 0.254621 0
M  V30 4767 C 469.974 1.4778 0.602753 0
M  V30 4768 C 470.174 0.707047 1.88688 0
M  V30 4769 O 469.23 0.233288 2.5142 0
M  V30 4770 C 470.543 2.92133 0.712648 0
M  V30 4771 C 472.091 3.02458 0.805488 0
M  V30 4772 C 472.566 4.48102 0.947009 0
M  V30 4773 N 474.057 4.52008 1.01207 0
M  V30 4774 C 474.792 5.61939 1.1407 0
M  V30 4775 N 474.288 6.81697 1.23536 0
M  V30 4776 N 476.081 5.49719 1.17325 0
M  V30 4777 H 468.232 2.04085 -0.588463 0
M  V30 4778 H 470.495 0.926229 -0.202001 0
M  V30 4779 H 470.201 3.51332 -0.160766 0
M  V30 4780 H 470.075 3.42187 1.58707 0
M  V30 4781 H 472.462 2.43344 1.66936 0
M  V30 4782 H 472.543 2.55627 -0.0939266 0
M  V30 4783 H 472.187 5.07824 0.087725 0
M  V30 4784 H 472.117 4.92607 1.86135 0
M  V30 4785 H 474.608 3.65749 0.950577 0
M  V30 4786 H 474.921 7.61228 1.33236 0
M  V30 4787 H 473.266 6.84473 1.20508 0
M  V30 4788 H 476.457 4.55095 1.09573 0
M  V30 4789 H 476.63 6.35432 1.27005 0
M  V30 4790 N 470.036 -0.519951 1.48776 0
M  V30 4791 C 471.266 -1.29783 1.60748 0
M  V30 4792 C 471.674 -1.87253 0.27072 0
M  V30 4793 O 471.017 -1.67628 -0.751438 0
M  V30 4794 C 471.079 -2.47984 2.60277 0
M  V30 4795 C 470.743 -2.11526 4.051 0
M  V30 4796 C 471.74 -1.66608 4.92481 0
M  V30 4797 C 469.425 -2.21742 4.50706 0
M  V30 4798 C 471.419 -1.32384 6.23501 0
M  V30 4799 C 469.106 -1.87129 5.81744 0
M  V30 4800 C 470.104 -1.42523 6.67964 0
M  V30 4801 O 469.792 -1.0837 7.96562 0
M  V30 4802 H 469.524 -0.400562 0.544542 0
M  V30 4803 H 472.078 -0.632879 1.95407 0
M  V30 4804 H 470.308 -3.17493 2.2076 0
M  V30 4805 H 471.997 -3.10036 2.61978 0
M  V30 4806 H 472.763 -1.58178 4.58481 0
M  V30 4807 H 468.642 -2.55415 3.83776 0
M  V30 4808 H 472.186 -0.974949 6.90754 0
M  V30 4809 H 468.083 -1.95204 6.15277 0
M  V30 4810 H 468.851 -1.21681 8.09405 0
M  V30 4811 N 471.514 -1.37532 -0.769588 0
M  V30 4812 C 472.76 -1.33057 -1.53048 0
M  V30 4813 C 473.093 0.0841865 -1.94017 0
M  V30 4814 O 472.368 1.04198 -1.64235 0
M  V30 4815 C 472.651 -2.27166 -2.79406 0
M  V30 4816 C 472.504 -3.77429 -2.44677 0
M  V30 4817 C 473.823 -2.19683 -3.81349 0
M  V30 4818 H 470.942 -0.484655 -0.555228 0
M  V30 4819 H 473.584 -1.68251 -0.882702 0
M  V30 4820 H 471.734 -1.97283 -3.34682 0
M  V30 4821 H 473.406 -4.17918 -1.953 0
M  V30 4822 H 471.649 -3.95892 -1.77346 0
M  V30 4823 H 472.32 -4.38716 -3.35011 0
M  V30 4824 H 474.796 -2.46029 -3.35573 0
M  V30 4825 H 473.672 -2.87668 -4.67481 0
M  V30 4826 H 473.933 -1.19045 -4.25771 0
M  V30 4827 N 472.992 0.995999 -1.22138 0
M  V30 4828 C 474.24 1.73167 -1.042 0
M  V30 4829 C 474.561 1.90329 0.42423 0
M  V30 4830 O 473.831 1.4607 1.30539 0
M  V30 4831 H 472.411 0.641593 -0.38258 0
M  V30 4832 H 475.073 1.19974 -1.53598 0
M  V30 4833 H 474.169 2.72734 -1.51731 0
M  V30 4834 N 474.47 1.03057 1.19235 0
M  V30 4835 C 475.886 0.747947 1.40989 0
M  V30 4836 C 476.086 -0.666752 1.90149 0
M  V30 4837 O 475.142 -1.43249 2.07933 0
M  V30 4838 C 476.455 1.7855 2.41951 0
M  V30 4839 C 478.003 1.80524 2.55695 0
M  V30 4840 C 478.478 2.83243 3.59913 0
M  V30 4841 N 479.969 2.8207 3.67411 0
M  V30 4842 C 480.704 3.58204 4.47747 0
M  V30 4843 N 480.2 4.44057 5.31775 0
M  V30 4844 N 481.993 3.46738 4.42413 0
M  V30 4845 H 474.144 1.94367 0.856468 0
M  V30 4846 H 476.407 0.840412 0.438647 0
M  V30 4847 H 476.113 2.79973 2.12857 0
M  V30 4848 H 475.987 1.6092 3.41152 0
M  V30 4849 H 478.374 0.79778 2.84112 0
M  V30 4850 H 478.455 2.02229 1.56643 0
M  V30 4851 H 478.099 3.84161 3.32239 0
M  V30 4852 H 478.029 2.58795 4.5862 0
M  V30 4853 H 480.52 2.19803 3.074 0
M  V30 4854 H 480.833 4.98884 5.90199 0
M  V30 4855 H 479.178 4.48129 5.3123 0
M  V30 4856 H 482.369 2.79077 3.75811 0
M  V30 4857 H 482.542 4.06322 5.04783 0
M  V30 4858 N 475.948 -1.35272 0.808662 0
M  V30 4859 C 477.176 -2.02946 0.402537 0
M  V30 4860 C 477.591 -1.60937 -0.987147 0
M  V30 4861 O 476.948 -0.807917 -1.63643 0
M  V30 4862 C 476.999 -3.58317 0.47868 0
M  V30 4863 O 476.72 -3.98799 1.81358 0
M  V30 4864 C 478.221 -4.43251 0.0656281 0
M  V30 4865 H 475.441 -0.650831 0.163279 0
M  V30 4866 H 477.985 -1.72849 1.09286 0
M  V30 4867 H 476.14 -3.87055 -0.163415 0
M  V30 4868 H 476.554 -4.93451 1.77781 0
M  V30 4869 H 478.028 -5.51738 0.170017 0
M  V30 4870 H 478.505 -4.27913 -0.989278 0
M  V30 4871 H 479.111 -4.19813 0.68096 0
M  V30 4872 N 477.426 -0.562348 -1.47226 0
M  V30 4873 C 478.673 -0.0402165 -2.0246 0
M  V30 4874 C 479.001 1.31169 -1.43614 0
M  V30 4875 O 478.256 1.86805 -0.5833 0
M  V30 4876 C 478.555 0.0969817 -3.57268 0
M  V30 4877 C 478.221 -1.1847 -4.35058 0
M  V30 4878 C 476.883 -1.53588 -4.56031 0
M  V30 4879 C 479.235 -2.03378 -4.79882 0
M  V30 4880 C 476.563 -2.73452 -5.19077 0
M  V30 4881 C 478.915 -3.2245 -5.44251 0
M  V30 4882 C 477.579 -3.57876 -5.63455 0
M  V30 4883 H 476.849 -0.0147163 -0.740854 0
M  V30 4884 H 479.496 -0.734895 -1.76838 0
M  V30 4885 H 477.801 0.87466 -3.81912 0
M  V30 4886 H 479.498 0.516408 -3.97661 0
M  V30 4887 H 476.088 -0.90126 -4.19017 0
M  V30 4888 H 480.272 -1.77553 -4.63453 0
M  V30 4889 H 475.528 -3.01062 -5.32139 0
M  V30 4890 H 479.702 -3.88526 -5.77945 0
M  V30 4891 H 477.329 -4.50849 -6.12078 0
M  V30 4892 N 478.904 1.54736 -0.299062 0
M  V30 4893 C 480.153 1.99279 0.311549 0
M  V30 4894 C 480.466 1.19107 1.55154 0
M  V30 4895 O 481.672 1.53908 2.23662 0
M  V30 4896 C 480.128 3.54768 0.605632 0
M  V30 4897 C 479.736 4.43746 -0.615914 0
M  V30 4898 C 481.48 4.07841 1.17754 0
M  V30 4899 C 479.387 5.90663 -0.29509 0
M  V30 4900 H 478.317 0.744359 0.120187 0
M  V30 4901 H 480.968 1.78919 -0.407464 0
M  V30 4902 H 479.35 3.71021 1.38419 0
M  V30 4903 H 480.524 4.39267 -1.39218 0
M  V30 4904 H 478.839 4.01434 -1.10633 0
M  V30 4905 H 481.436 5.15174 1.43179 0
M  V30 4906 H 481.779 3.58324 2.11918 0
M  V30 4907 H 482.312 3.95123 0.460739 0
M  V30 4908 H 479.051 6.44325 -1.20524 0
M  V30 4909 H 478.571 5.98155 0.44394 0
M  V30 4910 H 480.25 6.46916 0.104048 0
M  V30 4911 N 480.382 0.0267497 1.57577 0
M  V30 4912 C 481.314 -0.984594 2.06974 0
M  V30 4913 C 482.327 -1.29032 0.992705 0
M  V30 4914 O 483.516 -1.25539 1.26895 0
M  V30 4915 C 480.616 -2.31262 2.47732 0
M  V30 4916 C 479.789 -2.1924 3.78487 0
M  V30 4917 C 478.848 -3.34956 4.05821 0
M  V30 4918 O 477.874 -3.11948 4.76106 0
M  V30 4919 N 479.076 -4.58672 3.55809 0
M  V30 4920 H 481.841 -0.563143 2.94362 0
M  V30 4921 H 479.402 -0.160061 1.61107 0
M  V30 4922 H 481.394 -3.07496 2.63112 0
M  V30 4923 H 479.964 -2.65056 1.65723 0
M  V30 4924 H 479.184 -1.27747 3.72927 0
M  V30 4925 H 480.472 -2.08409 4.64158 0
M  V30 4926 H 479.87 -4.8026 2.98942 0
M  V30 4927 H 478.427 -5.32083 3.76472 0
M  V30 4928 N 481.861 -1.55662 -0.24637 0
M  V30 4929 C 483.272 -1.67953 -0.81539 0
M  V30 4930 C 483.623 -0.624302 -1.86002 0
M  V30 4931 O 482.748 0.229328 -2.15181 0
M  V30 4932 C 483.343 -3.04484 -1.48576 0
M  V30 4933 C 481.902 -3.18713 -2.00248 0
M  V30 4934 C 481.049 -2.6383 -0.853766 0
M  V30 4935 H 484 -1.58685 -0.0221692 0
M  V30 4936 H 484.021 -2.98959 -2.3538 0
M  V30 4937 H 483.533 -3.81264 -0.725222 0
M  V30 4938 H 481.634 -2.46757 -2.79181 0
M  V30 4939 H 481.747 -4.25628 -2.1995 0
M  V30 4940 H 480.111 -2.21667 -1.25442 0
M  V30 4941 H 480.894 -3.43135 -0.106302 0
M  V30 4942 N 483.339 0.512053 -1.4905 0
M  V30 4943 C 484.564 1.2959 -1.6193 0
M  V30 4944 C 484.989 1.85906 -0.286454 0
M  V30 4945 O 484.347 1.65312 0.744426 0
M  V30 4946 C 484.395 2.40987 -2.68249 0
M  V30 4947 O 483.499 3.44531 -2.26654 0
M  V30 4948 H 482.84 0.383053 -0.542371 0
M  V30 4949 H 485.37 0.614231 -1.95162 0
M  V30 4950 H 485.38 2.86913 -2.90078 0
M  V30 4951 H 484.055 1.99361 -3.65004 0
M  V30 4952 H 482.632 3.046 -2.15112 0
M  V30 4953 N 484.817 1.37938 0.762283 0
M  V30 4954 C 485.749 1.30349 1.88525 0
M  V30 4955 C 486.762 0.217402 1.61342 0
M  V30 4956 O 487.951 0.474291 1.72084 0
M  V30 4957 C 485.051 0.994844 3.23969 0
M  V30 4958 C 484.224 2.18829 3.78725 0
M  V30 4959 C 483.283 1.84844 4.92665 0
M  V30 4960 O 482.309 2.57244 5.07754 0
M  V30 4961 N 483.511 0.798201 5.74986 0
M  V30 4962 H 486.276 2.27114 1.95549 0
M  V30 4963 H 483.837 1.31686 0.941825 0
M  V30 4964 H 485.829 0.748168 3.97724 0
M  V30 4965 H 484.399 0.115446 3.12387 0
M  V30 4966 H 483.619 2.59615 2.96637 0
M  V30 4967 H 484.907 2.98497 4.1204 0
M  V30 4968 H 484.305 0.197611 5.65355 0
M  V30 4969 H 482.862 0.611396 6.48926 0
M  V30 4970 N 486.295 -0.989507 1.22664 0
M  V30 4971 C 487.258 -2.06183 1.00106 0
M  V30 4972 C 488.258 -1.60765 -0.0337726 0
M  V30 4973 O 489.448 -1.72989 0.205072 0
M  V30 4974 C 486.58 -3.37021 0.51279 0
M  V30 4975 H 487.773 -2.27629 1.95256 0
M  V30 4976 H 485.326 -1.16158 1.0458 0
M  V30 4977 H 486.061 -3.21261 -0.442917 0
M  V30 4978 H 485.846 -3.71323 1.25942 0
M  V30 4979 H 487.336 -4.1591 0.375315 0
M  V30 4980 N 487.773 -1.03688 -1.18687 0
M  V30 4981 C 488.703 -0.645407 -2.24403 0
M  V30 4982 C 489.684 0.349511 -1.66471 0
M  V30 4983 O 490.869 0.230453 -1.92828 0
M  V30 4984 C 487.999 -0.00365337 -3.473 0
M  V30 4985 C 486.953 -0.921705 -4.17958 0
M  V30 4986 C 486.279 -0.144629 -5.34504 0
M  V30 4987 C 487.579 -2.23909 -4.71871 0
M  V30 4988 H 489.273 -1.52917 -2.57404 0
M  V30 4989 H 486.819 -0.736711 -1.23728 0
M  V30 4990 H 488.772 0.281908 -4.20456 0
M  V30 4991 H 487.496 0.914963 -3.13522 0
M  V30 4992 H 486.155 -1.19159 -3.46694 0
M  V30 4993 H 485.803 0.776274 -4.96974 0
M  V30 4994 H 485.503 -0.756206 -5.82714 0
M  V30 4995 H 487.027 0.134004 -6.10453 0
M  V30 4996 H 488.441 -2.0145 -5.36741 0
M  V30 4997 H 486.838 -2.8033 -5.30599 0
M  V30 4998 H 487.908 -2.88822 -3.895 0
M  V30 4999 N 489.251 1.34841 -0.815825 0
M  V30 5000 C 490.667 1.51543 -0.500697 0
M  V30 5001 C 490.867 1.76261 0.976444 0
M  V30 5002 O 489.923 1.8094 1.76117 0
M  V30 5003 C 491.236 2.68487 -1.35407 0
M  V30 5004 C 492.784 2.82368 -1.35046 0
M  V30 5005 C 493.259 4.02347 -2.18816 0
M  V30 5006 N 494.75 4.09542 -2.16402 0
M  V30 5007 C 495.485 5.01517 -2.77971 0
M  V30 5008 N 494.981 5.98763 -3.48503 0
M  V30 5009 N 496.774 4.94334 -2.67563 0
M  V30 5010 H 488.925 1.17055 -1.77234 0
M  V30 5011 H 491.188 0.573481 -0.754866 0
M  V30 5012 H 490.894 2.56829 -2.40274 0
M  V30 5013 H 490.768 3.63321 -1.01377 0
M  V30 5014 H 493.155 2.93471 -0.309604 0
M  V30 5015 H 493.236 1.88363 -1.73069 0
M  V30 5016 H 492.88 3.92004 -3.22948 0
M  V30 5017 H 492.81 4.95551 -1.78148 0
M  V30 5018 H 495.301 3.39932 -1.65091 0
M  V30 5019 H 495.614 6.6556 -3.92747 0
M  V30 5020 H 493.959 5.98909 -3.52609 0
M  V30 5021 H 497.15 4.1732 -2.12041 0
M  V30 5022 H 497.323 5.6582 -3.15834 0
M  V30 5023 N 490.729 0.570148 1.46925 0
M  V30 5024 C 491.639 -0.173061 2.33961 0
M  V30 5025 C 492.655 -0.898825 1.48987 0
M  V30 5026 O 493.831 -0.864825 1.81887 0
M  V30 5027 C 490.896 -1.18177 3.25937 0
M  V30 5028 C 489.957 -0.462041 4.26806 0
M  V30 5029 C 489.19 -1.4227 5.14388 0
M  V30 5030 O 489.413 -2.65842 5.04662 0
M  V30 5031 O 488.347 -0.940127 5.94513 0
M  V30 5032 H 492.173 0.541216 2.98839 0
M  V30 5033 H 489.758 0.330647 1.45695 0
M  V30 5034 H 491.64 -1.76372 3.82715 0
M  V30 5035 H 490.315 -1.87774 2.63671 0
M  V30 5036 H 489.222 0.161429 3.73752 0
M  V30 5037 H 490.555 0.192719 4.91823 0
M  V30 5038 N 492.207 -1.54576 0.307264 0
M  V30 5039 C 493.139 -2.21212 -0.599807 0
M  V30 5040 C 494.152 -1.20685 -1.09266 0
M  V30 5041 O 495.341 -1.47244 -1.00903 0
M  V30 5042 C 492.441 -2.84994 -1.83389 0
M  V30 5043 C 491.614 -4.11511 -1.48248 0
M  V30 5044 C 490.673 -4.59038 -2.57237 0
M  V30 5045 O 489.699 -5.24095 -2.22065 0
M  V30 5046 N 490.901 -4.31884 -3.87887 0
M  V30 5047 H 493.666 -2.99686 -0.0293075 0
M  V30 5048 H 491.227 -1.61379 0.129738 0
M  V30 5049 H 493.219 -3.1372 -2.5566 0
M  V30 5050 H 491.789 -2.10324 -2.31263 0
M  V30 5051 H 491.009 -3.89728 -0.592122 0
M  V30 5052 H 492.297 -4.93879 -1.22316 0
M  V30 5053 H 491.695 -3.79778 -4.19268 0
M  V30 5054 H 490.252 -4.65304 -4.56438 0
M  V30 5055 N 493.685 -0.035106 -1.57561 0
M  V30 5056 C 494.933 0.64096 -1.91667 0
M  V30 5057 C 495.254 1.72323 -0.912681 0
M  V30 5058 O 494.524 1.95849 0.0449089 0
M  V30 5059 H 493.104 0.239743 -0.707483 0
M  V30 5060 H 495.766 -0.084321 -1.94718 0
M  V30 5061 H 494.862 1.08987 -2.92452 0
M  V30 5062 N 495.163 1.55791 0.238111 0
M  V30 5063 C 496.409 1.78297 0.966337 0
M  V30 5064 C 496.742 0.601903 1.84637 0
M  V30 5065 O 496.017 -0.399499 1.90353 0
M  V30 5066 C 496.3 3.10758 1.81939 0
M  V30 5067 C 496.153 4.39283 0.966958 0
M  V30 5068 C 497.472 3.39519 2.80027 0
M  V30 5069 H 494.591 0.648654 0.349882 0
M  V30 5070 H 497.233 1.88525 0.236253 0
M  V30 5071 H 495.383 3.02168 2.44185 0
M  V30 5072 H 497.055 4.59873 0.362514 0
M  V30 5073 H 495.298 4.32948 0.271669 0
M  V30 5074 H 495.969 5.28368 1.59784 0
M  V30 5075 H 498.445 3.48128 2.27917 0
M  V30 5076 H 497.321 4.33402 3.36829 0
M  V30 5077 H 497.582 2.60864 3.56934 0
M  V30 5078 N 496.642 -0.504142 1.49319 0
M  V30 5079 C 498.058 -0.835039 1.36012 0
M  V30 5080 C 498.258 -1.97674 0.390808 0
M  V30 5081 O 497.314 -2.51867 -0.178655 0
M  V30 5082 C 498.627 -1.17821 2.76656 0
M  V30 5083 C 500.175 -1.2866 2.85334 0
M  V30 5084 C 500.65 -1.66307 4.26739 0
M  V30 5085 N 502.141 -1.73362 4.29534 0
M  V30 5086 C 502.876 -2.0393 5.35911 0
M  V30 5087 N 502.372 -2.32744 6.52535 0
M  V30 5088 N 504.165 -2.05155 5.23324 0
M  V30 5089 H 496.316 0.248764 2.10938 0
M  V30 5090 H 498.579 0.0486962 0.946748 0
M  V30 5091 H 498.285 -0.412682 3.4927 0
M  V30 5092 H 498.159 -2.12239 3.11825 0
M  V30 5093 H 500.546 -2.04285 2.1296 0
M  V30 5094 H 500.627 -0.323004 2.53752 0
M  V30 5095 H 500.271 -0.91234 4.99639 0
M  V30 5096 H 500.201 -2.63761 4.55782 0
M  V30 5097 H 502.692 -1.53268 3.45424 0
M  V30 5098 H 503.005 -2.55248 7.2943 0
M  V30 5099 H 501.35 -2.30207 6.55767 0
M  V30 5100 H 504.541 -1.82119 4.3122 0
M  V30 5101 H 504.714 -2.28644 6.06322 0
M  V30 5102 N 498.12 -1.38341 -0.754957 0
M  V30 5103 C 499.053 -1.29837 -1.87663 0
M  V30 5104 C 500.031 -0.175659 -1.61648 0
M  V30 5105 O 501.215 -0.352745 -1.8517 0
M  V30 5106 C 498.342 -1.01141 -3.23246 0
M  V30 5107 C 497.388 -2.15331 -3.6815 0
M  V30 5108 S 498.221 -3.77459 -3.79849 0
M  V30 5109 C 499.377 -3.50948 -5.18253 0
M  V30 5110 H 499.61 -2.24771 -1.9459 0
M  V30 5111 H 497.143 -1.24161 -0.917796 0
M  V30 5112 H 499.101 -0.852687 -4.01546 0
M  V30 5113 H 497.762 -0.0792784 -3.14 0
M  V30 5114 H 496.955 -1.90795 -4.6649 0
M  V30 5115 H 496.557 -2.27304 -2.97 0
M  V30 5116 H 498.849 -3.06977 -6.03963 0
M  V30 5117 H 499.792 -4.48677 -5.47809 0
M  V30 5118 H 500.2 -2.85492 -4.86985 0
M  V30 5119 N 499.598 0.982988 -1.23187 0
M  V30 5120 C 500.545 2.07491 -1.01075 0
M  V30 5121 C 501.515 1.65949 0.070905 0
M  V30 5122 O 502.7 1.90629 -0.0806822 0
M  V30 5123 C 499.84 3.39751 -0.605261 0
M  V30 5124 C 498.953 3.94578 -1.75876 0
M  V30 5125 C 498.088 5.15039 -1.3003 0
M  V30 5126 C 497.127 5.62027 -2.42472 0
M  V30 5127 N 496.264 6.73719 -1.97602 0
M  V30 5128 H 501.104 2.25739 -1.9454 0
M  V30 5129 H 498.641 1.10659 -0.969179 0
M  V30 5130 H 500.599 4.15719 -0.351279 0
M  V30 5131 H 499.229 3.21473 0.292382 0
M  V30 5132 H 498.281 3.1539 -2.12681 0
M  V30 5133 H 499.593 4.25422 -2.60418 0
M  V30 5134 H 498.747 5.9833 -1.00429 0
M  V30 5135 H 497.486 4.85843 -0.425216 0
M  V30 5136 H 496.491 4.77318 -2.7285 0
M  V30 5137 H 497.716 5.93244 -3.30512 0
M  V30 5138 H 495.662 6.46287 -1.1247 0
M  V30 5139 H 495.579 7.03934 -2.75705 0
M  V30 5140 H 496.847 7.6049 -1.71098 0
M  V30 5141 N 501.076 1.04316 1.18135 0
M  V30 5142 C 502.006 0.657299 2.24058 0
M  V30 5143 C 502.987 -0.340678 1.66654 0
M  V30 5144 O 504.172 -0.220223 1.92947 0
M  V30 5145 C 501.302 0.0220715 3.47293 0
M  V30 5146 C 500.256 0.943857 4.17463 0
M  V30 5147 C 499.582 0.172973 5.3442 0
M  V30 5148 C 500.882 2.26409 4.70677 0
M  V30 5149 H 502.576 1.5428 2.56589 0
M  V30 5150 H 500.122 0.743263 1.23335 0
M  V30 5151 H 502.075 -0.259607 4.206 0
M  V30 5152 H 500.799 -0.898323 3.14003 0
M  V30 5153 H 499.458 1.20996 3.46057 0
M  V30 5154 H 499.106 -0.749907 4.97379 0
M  V30 5155 H 498.806 0.787098 5.82304 0
M  V30 5156 H 500.33 -0.101628 6.10515 0
M  V30 5157 H 501.744 2.04294 5.35665 0
M  V30 5158 H 500.141 2.8314 5.29105 0
M  V30 5159 H 501.211 2.90883 3.87962 0
M  V30 5160 N 502.554 -1.34406 0.822964 0
M  V30 5161 C 503.779 -2.0304 0.423034 0
M  V30 5162 C 504.204 -1.61568 -0.963196 0
M  V30 5163 O 503.562 -0.800339 -1.62678 0
M  V30 5164 C 503.61 -3.56636 0.53321 0
M  V30 5165 O 502.714 -4.09971 -0.446939 0
M  V30 5166 H 502.055 -0.64075 0.174171 0
M  V30 5167 H 504.585 -1.71653 1.11339 0
M  V30 5168 H 504.595 -4.05945 0.408991 0
M  V30 5169 H 503.27 -3.86168 1.54425 0
M  V30 5170 H 501.847 -3.71835 -0.281601 0
M  V30 5171 N 504.032 -0.577932 -1.46621 0
M  V30 5172 C 504.995 0.147805 -2.28723 0
M  V30 5173 C 505.995 0.823325 -1.38123 0
M  V30 5174 O 507.185 0.676011 -1.60548 0
M  V30 5175 C 504.317 1.21853 -3.18378 0
M  V30 5176 H 505.51 -0.573654 -2.94362 0
M  V30 5177 H 503.063 -0.335703 -1.52652 0
M  V30 5178 H 503.798 1.97173 -2.57475 0
M  V30 5179 H 503.583 0.738714 -3.85078 0
M  V30 5180 H 505.073 1.72768 -3.80186 0
M  V30 5181 N 505.51 1.54411 -0.315457 0
M  V30 5182 C 506.756 2.00716 0.289972 0
M  V30 5183 C 507.089 1.2034 1.5242 0
M  V30 5184 O 506.364 0.283579 1.92422 0
M  V30 5185 C 506.647 3.54507 0.632196 0
M  V30 5186 C 506.5 4.45615 -0.61218 0
M  V30 5187 C 507.819 4.15421 1.45305 0
M  V30 5188 H 504.938 0.729637 0.10392 0
M  V30 5189 H 507.58 1.8506 -0.430427 0
M  V30 5190 H 505.73 3.67979 1.24595 0
M  V30 5191 H 507.402 4.44026 -1.25053 0
M  V30 5192 H 505.645 4.15621 -1.24264 0
M  V30 5193 H 506.316 5.51022 -0.328379 0
M  V30 5194 H 508.792 4.05474 0.934331 0
M  V30 5195 H 507.668 5.23157 1.66127 0
M  V30 5196 H 507.929 3.68223 2.44671 0
M  V30 5197 N 506.988 0.0434614 1.5754 0
M  V30 5198 C 508.404 -0.313039 1.565 0
M  V30 5199 C 508.604 -1.71954 1.05043 0
M  V30 5200 O 507.66 -2.425 0.703564 0
M  V30 5201 C 508.973 -0.148544 3.00333 0
M  V30 5202 C 510.521 -0.220231 3.12224 0
M  V30 5203 C 510.996 -0.0843565 4.57922 0
M  V30 5204 N 512.487 -0.140881 4.62986 0
M  V30 5205 C 513.222 -0.0597443 5.73369 0
M  V30 5206 N 512.718 0.0733004 6.92761 0
M  V30 5207 N 514.511 -0.11477 5.61983 0
M  V30 5208 H 506.662 0.96303 1.89313 0
M  V30 5209 H 508.925 0.373164 0.871466 0
M  V30 5210 H 508.631 0.820894 3.41986 0
M  V30 5211 H 508.505 -0.912798 3.65989 0
M  V30 5212 H 510.892 -1.18014 2.70475 0
M  V30 5213 H 510.973 0.574646 2.49262 0
M  V30 5214 H 510.617 0.872192 5.00355 0
M  V30 5215 H 510.547 -0.898281 5.18882 0
M  V30 5216 H 513.038 -0.243273 3.77116 0
M  V30 5217 H 513.351 0.128128 7.72694 0
M  V30 5218 H 511.696 0.10828 6.94916 0
M  V30 5219 H 514.887 -0.217212 4.67596 0
M  V30 5220 H 515.06 -0.0480779 6.47982 0
M  V30 5221 N 508.466 -1.55915 -0.229846 0
M  V30 5222 C 509.714 -1.7819 -0.953565 0
M  V30 5223 C 510.035 -0.610504 -1.85197 0
M  V30 5224 O 509.305 0.372988 -1.92316 0
M  V30 5225 H 507.885 -0.657208 -0.355087 0
M  V30 5226 H 510.547 -1.9337 -0.243693 0
M  V30 5227 H 509.643 -2.70011 -1.56527 0
M  V30 5228 N 509.944 0.496216 -1.49584 0
M  V30 5229 C 511.19 1.25189 -1.59548 0
M  V30 5230 C 511.523 1.9212 -0.283466 0
M  V30 5231 O 510.798 1.80947 0.713324 0
M  V30 5232 C 511.081 2.31516 -2.75812 0
M  V30 5233 C 510.934 1.69054 -4.16822 0
M  V30 5234 C 512.253 3.3304 -2.87702 0
M  V30 5235 H 509.372 0.45379 -0.580727 0
M  V30 5236 H 512.014 0.549327 -1.81886 0
M  V30 5237 H 510.164 2.91438 -2.56897 0
M  V30 5238 H 511.836 1.12923 -4.47265 0
M  V30 5239 H 510.079 0.994485 -4.22247 0
M  V30 5240 H 510.75 2.462 -4.94054 0
M  V30 5241 H 513.226 2.83114 -3.04936 0
M  V30 5242 H 512.102 4.04794 -3.7072 0
M  V30 5243 H 512.363 3.95655 -1.97255 0
M  V30 5244 N 511.423 1.38739 0.74761 0
M  V30 5245 C 512.669 1.35475 1.50912 0
M  V30 5246 C 513.002 -0.0533093 1.94127 0
M  V30 5247 O 512.277 -1.01572 1.65871 0
M  V30 5248 C 512.56 2.31582 2.75757 0
M  V30 5249 C 512.413 3.81274 2.38642 0
M  V30 5250 C 513.732 2.25722 3.77806 0
M  V30 5251 H 510.851 0.493427 0.547447 0
M  V30 5252 H 513.493 1.69634 0.855823 0
M  V30 5253 H 511.643 2.02582 3.31501 0
M  V30 5254 H 513.315 4.20972 1.88626 0
M  V30 5255 H 511.558 3.98664 1.71025 0
M  V30 5256 H 512.229 4.4399 3.27989 0
M  V30 5257 H 514.705 2.51336 3.31616 0
M  V30 5258 H 513.581 2.95069 4.62845 0
M  V30 5259 H 513.842 1.25803 4.23823 0
M  V30 5260 N 512.901 -0.976442 1.23707 0
M  V30 5261 C 513.811 -2.10359 1.03856 0
M  V30 5262 C 514.827 -1.73991 -0.0180919 0
M  V30 5263 O 516.003 -2.0061 0.178211 0
M  V30 5264 C 513.068 -3.40809 0.636387 0
M  V30 5265 C 512.129 -3.91179 1.76854 0
M  V30 5266 C 511.362 -5.15404 1.38546 0
M  V30 5267 O 511.585 -5.69754 0.27142 0
M  V30 5268 O 510.519 -5.5994 2.20797 0
M  V30 5269 H 514.345 -2.29997 1.98331 0
M  V30 5270 H 511.93 -1.08742 1.02448 0
M  V30 5271 H 513.812 -4.19269 0.423223 0
M  V30 5272 H 512.487 -3.22493 -0.279322 0
M  V30 5273 H 511.394 -3.13819 2.03638 0
M  V30 5274 H 512.727 -4.13958 2.6627 0
M  V30 5275 N 514.379 -1.04941 -1.1758 0
M  V30 5276 C 515.627 -0.756492 -1.87408 0
M  V30 5277 C 515.948 0.718478 -1.81281 0
M  V30 5278 O 515.218 1.519 -1.23706 0
M  V30 5279 H 513.798 -0.276841 -0.693807 0
M  V30 5280 H 516.46 -1.32803 -1.42652 0
M  V30 5281 H 515.556 -1.06918 -2.93215 0
M  V30 5282 N 515.857 1.33968 -0.830081 0
M  V30 5283 C 516.804 2.29387 -0.255008 0
M  V30 5284 C 517.774 1.53923 0.624243 0
M  V30 5285 O 518.959 1.82262 0.564372 0
M  V30 5286 C 516.099 3.4034 0.571209 0
M  V30 5287 C 515.212 4.30729 -0.331083 0
M  V30 5288 C 514.347 5.2879 0.505389 0
M  V30 5289 C 513.386 6.10819 -0.395843 0
M  V30 5290 N 512.523 7.00948 0.401979 0
M  V30 5291 H 517.363 2.77972 -1.07404 0
M  V30 5292 H 514.9 1.36785 -0.541133 0
M  V30 5293 H 516.858 4.03361 1.06562 0
M  V30 5294 H 515.488 2.9297 1.35529 0
M  V30 5295 H 514.54 3.68507 -0.943759 0
M  V30 5296 H 515.852 4.88181 -1.02377 0
M  V30 5297 H 515.006 5.97297 1.06399 0
M  V30 5298 H 513.745 4.71894 1.23155 0
M  V30 5299 H 512.75 5.41238 -0.966529 0
M  V30 5300 H 513.975 6.69797 -1.12023 0
M  V30 5301 H 511.921 6.46512 1.11168 0
M  V30 5302 H 511.838 7.55643 -0.232167 0
M  V30 5303 H 513.106 7.73774 0.943102 0
M  V30 5304 N 517.335 0.585699 1.46312 0
M  V30 5305 C 518.751 0.247607 1.57668 0
M  V30 5306 C 518.951 -1.25007 1.58037 0
M  V30 5307 O 518.007 -2.03196 1.49893 0
M  V30 5308 C 519.32 0.899456 2.86933 0
M  V30 5309 C 520.868 0.873326 3.00569 0
M  V30 5310 C 521.343 1.50477 4.32574 0
M  V30 5311 N 522.834 1.46925 4.3928 0
M  V30 5312 C 523.569 1.92719 5.40044 0
M  V30 5313 N 523.065 2.46499 6.47464 0
M  V30 5314 N 524.858 1.83617 5.31264 0
M  V30 5315 H 517.009 1.55841 1.44317 0
M  V30 5316 H 519.272 0.651564 0.688599 0
M  V30 5317 H 518.978 1.95313 2.92482 0
M  V30 5318 H 518.852 0.409476 3.74971 0
M  V30 5319 H 521.239 -0.171736 2.946 0
M  V30 5320 H 521.32 1.40136 2.13999 0
M  V30 5321 H 520.964 2.54905 4.39302 0
M  V30 5322 H 520.894 0.951944 5.17924 0
M  V30 5323 H 523.385 1.07616 3.62253 0
M  V30 5324 H 523.698 2.79291 7.20567 0
M  V30 5325 H 522.043 2.50526 6.48276 0
M  V30 5326 H 525.234 1.41358 4.46246 0
M  V30 5327 H 525.407 2.19622 6.09648 0
M  V30 5328 N 518.813 -1.54241 0.323641 0
M  V30 5329 C 520.059 -2.00867 -0.279323 0
M  V30 5330 C 520.392 -1.21146 -1.5178 0
M  V30 5331 O 519.667 -0.29378 -1.92269 0
M  V30 5332 C 519.95 -3.54837 -0.613387 0
M  V30 5333 C 519.803 -4.45284 0.635803 0
M  V30 5334 C 521.122 -4.16186 -1.43099 0
M  V30 5335 H 518.241 -0.730177 -0.100049 0
M  V30 5336 H 520.883 -1.84829 0.440235 0
M  V30 5337 H 519.033 -3.68634 -1.22641 0
M  V30 5338 H 520.705 -4.43357 1.27406 0
M  V30 5339 H 518.948 -4.14956 1.26466 0
M  V30 5340 H 519.619 -5.5084 0.357597 0
M  V30 5341 H 522.095 -4.05964 -0.912814 0
M  V30 5342 H 520.971 -5.24031 -1.6335 0
M  V30 5343 H 521.232 -3.69516 -2.42715 0
M  V30 5344 N 520.291 -0.0518155 -1.57515 0
M  V30 5345 C 521.537 0.622745 -1.93002 0
M  V30 5346 C 521.87 1.70456 -0.930499 0
M  V30 5347 O 521.145 1.94452 0.0434086 0
M  V30 5348 C 521.428 1.21824 -3.38867 0
M  V30 5349 C 521.281 0.144434 -4.49568 0
M  V30 5350 C 522.6 2.12968 -3.8514 0
M  V30 5351 H 519.719 0.22491 -0.701844 0
M  V30 5352 H 522.361 -0.113711 -1.89659 0
M  V30 5353 H 520.511 1.8459 -3.41846 0
M  V30 5354 H 522.183 -0.48753 -4.58717 0
M  V30 5355 H 520.426 -0.527424 -4.30582 0
M  V30 5356 H 521.097 0.601127 -5.48717 0
M  V30 5357 H 523.573 1.60163 -3.8404 0
M  V30 5358 H 522.449 2.51578 -4.87852 0
M  V30 5359 H 522.71 3.03004 -3.21934 0
M  V30 5360 N 521.769 1.56035 0.221574 0
M  V30 5361 C 522.702 1.87427 1.30178 0
M  V30 5362 C 523.68 0.731658 1.45209 0
M  V30 5363 O 524.864 0.980016 1.61022 0
M  V30 5364 C 521.991 2.08127 2.67209 0
M  V30 5365 C 521.037 3.30813 2.69194 0
M  V30 5366 S 521.87 4.86738 2.23263 0
M  V30 5367 C 523.026 5.10474 3.62171 0
M  V30 5368 H 523.259 2.78756 1.03355 0
M  V30 5369 H 520.792 1.48469 0.423813 0
M  V30 5370 H 522.75 2.20736 3.46101 0
M  V30 5371 H 521.411 1.17595 2.91256 0
M  V30 5372 H 520.604 3.42341 3.6989 0
M  V30 5373 H 520.206 3.1706 1.98366 0
M  V30 5374 H 522.498 4.9937 4.5786 0
M  V30 5375 H 523.441 6.12359 3.55558 0
M  V30 5376 H 523.849 4.38208 3.55857 0
M  V30 5377 N 523.247 -0.488276 1.49845 0
M  V30 5378 C 524.493 -1.24341 1.6021 0
M  V30 5379 C 524.826 -1.91967 0.293651 0
M  V30 5380 O 524.101 -1.81323 -0.703718 0
M  V30 5381 C 524.384 -2.3005 2.77036 0
M  V30 5382 C 524.237 -1.66842 4.17713 0
M  V30 5383 C 525.556 -3.31509 2.89464 0
M  V30 5384 H 522.675 -0.450704 0.583125 0
M  V30 5385 H 525.317 -0.539673 1.82174 0
M  V30 5386 H 523.467 -2.90071 2.58439 0
M  V30 5387 H 525.139 -1.1055 4.47858 0
M  V30 5388 H 523.382 -0.972079 4.22768 0
M  V30 5389 H 524.053 -2.43576 4.95353 0
M  V30 5390 H 526.529 -2.81493 3.06433 0
M  V30 5391 H 525.405 -4.02822 3.72861 0
M  V30 5392 H 525.666 -3.94603 1.99351 0
M  V30 5393 N 524.725 -1.39134 -0.740242 0
M  V30 5394 C 526.002 -1.26584 -1.49117 0
M  V30 5395 C 526.382 0.126902 -2.10718 0
M  V30 5396 O 525.73 1.13765 -1.98166 0
M  V30 5397 C 525.94 -2.38619 -2.54681 0
M  V30 5398 C 527.288 -2.77685 -3.21211 0
M  V30 5399 O 528.312 -2.38029 -2.64991 0
M  V30 5400 O 527.171 -3.46115 -4.22926 0
M  V30 5401 H 524.265 -0.495769 -0.661923 0
M  V30 5402 H 526.811 -1.50995 -0.774514 0
M  V30 5403 H 525.583 -3.3175 -2.07504 0
M  V30 5404 H 525.206 -2.15845 -3.33911 0
M  V30 5405 N 526.204 0.969867 -1.24223 0
M  V30 5406 C 527.481 1.68774 -0.988664 0
M  V30 5407 C 527.861 2.05342 0.489673 0
M  V30 5408 O 527.209 1.75486 1.46345 0
M  V30 5409 C 527.419 2.92135 -1.90941 0
M  V30 5410 C 528.767 3.64422 -2.17903 0
M  V30 5411 O 529.791 3.02188 -1.88576 0
M  V30 5412 O 528.65 4.76446 -2.67697 0
M  V30 5413 H 525.744 0.737736 -0.37373 0
M  V30 5414 H 528.29 1.02415 -1.35312 0
M  V30 5415 H 527.062 2.61788 -2.90831 0
M  V30 5416 H 526.685 3.66228 -1.54798 0
M  V30 5417 N 527.682 1.05563 1.17022 0
M  V30 5418 C 528.907 0.788437 1.91829 0
M  V30 5419 C 529.332 -0.650356 1.76499 0
M  V30 5420 O 528.69 -1.45229 1.08527 0
M  V30 5421 C 528.738 1.1786 3.40795 0
M  V30 5422 O 527.842 0.312965 4.11211 0
M  V30 5423 H 527.183 0.288794 0.597908 0
M  V30 5424 H 529.713 1.40948 1.48307 0
M  V30 5425 H 529.723 1.14697 3.91546 0
M  V30 5426 H 528.398 2.22666 3.51273 0
M  V30 5427 H 526.975 0.405515 3.70689 0
M  V30 5428 N 529.16 -1.33526 0.837174 0
M  V30 5429 C 530.409 -1.97098 0.428387 0
M  V30 5430 C 530.722 -1.67062 -1.01734 0
M  V30 5431 O 531.928 -2.24235 -1.53072 0
M  V30 5432 C 530.384 -3.52725 0.715075 0
M  V30 5433 C 529.992 -3.9164 2.17537 0
M  V30 5434 C 531.736 -4.22857 0.373154 0
M  V30 5435 C 529.643 -5.40237 2.40619 0
M  V30 5436 H 528.573 -0.737589 0.156455 0
M  V30 5437 H 531.224 -1.52169 1.02552 0
M  V30 5438 H 529.606 -3.95971 0.0475904 0
M  V30 5439 H 530.78 -3.59456 2.88319 0
M  V30 5440 H 529.095 -3.34485 2.4801 0
M  V30 5441 H 531.692 -5.32133 0.523264 0
M  V30 5442 H 532.035 -4.10647 -0.683708 0
M  V30 5443 H 532.568 -3.85135 0.995801 0
M  V30 5444 H 529.307 -5.57449 3.44864 0
M  V30 5445 H 528.827 -5.73887 1.74396 0
M  V30 5446 H 530.506 -6.07102 2.23688 0
M  V30 5447 N 530.638 -0.59345 -1.46 0
M  V30 5448 C 531.884 -0.0832754 -2.02629 0
M  V30 5449 C 532.217 1.27749 -1.46266 0
M  V30 5450 O 531.492 1.8395 -0.631866 0
M  V30 5451 C 531.775 -0.0290756 -3.60088 0
M  V30 5452 C 531.628 -1.41951 -4.26814 0
M  V30 5453 C 532.947 0.666055 -4.35031 0
M  V30 5454 H 530.066 -0.031736 -0.736316 0
M  V30 5455 H 532.708 -0.762711 -1.74019 0
M  V30 5456 H 530.858 0.549532 -3.84594 0
M  V30 5457 H 532.53 -2.04411 -4.13538 0
M  V30 5458 H 530.773 -1.98422 -3.8576 0
M  V30 5459 H 531.444 -1.33395 -5.3564 0
M  V30 5460 H 533.92 0.174401 -4.15734 0
M  V30 5461 H 532.796 0.673041 -5.44758 0
M  V30 5462 H 533.057 1.72946 -4.06869 0
M  V30 5463 N 532.116 1.54067 -0.331816 0
M  V30 5464 C 533.532 1.59587 0.0205388 0
M  V30 5465 C 533.732 1.34813 1.49759 0
M  V30 5466 O 532.788 1.13661 2.25471 0
M  V30 5467 C 534.101 2.97959 -0.405103 0
M  V30 5468 C 535.649 3.10964 -0.356454 0
M  V30 5469 C 536.124 4.51694 -0.757384 0
M  V30 5470 N 537.615 4.57709 -0.71111 0
M  V30 5471 C 538.35 5.64729 -0.993427 0
M  V30 5472 N 537.846 6.79652 -1.3433 0
M  V30 5473 N 539.639 5.54546 -0.918442 0
M  V30 5474 H 531.79 1.68426 -1.29407 0
M  V30 5475 H 534.053 0.78819 -0.526745 0
M  V30 5476 H 533.759 3.21115 -1.43451 0
M  V30 5477 H 533.633 3.76524 0.225692 0
M  V30 5478 H 536.02 2.87538 0.663763 0
M  V30 5479 H 536.101 2.34484 -1.02229 0
M  V30 5480 H 535.745 4.75853 -1.77555 0
M  V30 5481 H 535.675 5.26555 -0.0691444 0
M  V30 5482 H 538.166 3.75176 -0.452883 0
M  V30 5483 H 538.479 7.57221 -1.54388 0
M  V30 5484 H 536.824 6.81128 -1.38164 0
M  V30 5485 H 540.015 4.63641 -0.644536 0
M  V30 5486 H 540.188 6.37861 -1.14181 0
M  V30 5487 N 533.594 0.0601682 1.57485 0
M  V30 5488 C 534.842 -0.610386 1.92662 0
M  V30 5489 C 535.163 -1.70849 0.939981 0
M  V30 5490 O 534.433 -1.95895 -0.0137455 0
M  V30 5491 H 533.013 -0.228457 0.711208 0
M  V30 5492 H 535.675 0.115288 1.94559 0
M  V30 5493 H 534.771 -1.0432 2.94149 0
M  V30 5494 N 535.072 -1.5615 -0.213296 0
M  V30 5495 C 536.3 -1.83638 -0.953139 0
M  V30 5496 C 536.715 -0.640362 -1.77609 0
M  V30 5497 O 536.072 0.391071 -1.78261 0
M  V30 5498 C 536.123 -3.09735 -1.86405 0
M  V30 5499 O 535.844 -4.24723 -1.07435 0
M  V30 5500 C 537.345 -3.5027 -2.71709 0
M  V30 5501 H 534.565 -0.610263 -0.278962 0
M  V30 5502 H 537.109 -2.03247 -0.226035 0
M  V30 5503 H 535.264 -2.92077 -2.545 0
M  V30 5504 H 535.678 -4.9641 -1.69343 0
M  V30 5505 H 537.152 -4.41515 -3.31313 0
M  V30 5506 H 537.629 -2.72406 -3.44516 0
M  V30 5507 H 538.235 -3.70396 -2.09015 0
M  V30 5508 N 536.55 0.480323 -1.50102 0
M  V30 5509 C 537.778 1.25657 -1.64371 0
M  V30 5510 C 538.193 1.86011 -0.323316 0
M  V30 5511 O 537.55 1.68803 0.693682 0
M  V30 5512 C 537.601 2.37197 -2.728 0
M  V30 5513 O 537.322 1.7932 -3.9972 0
M  V30 5514 C 538.823 3.2823 -2.9796 0
M  V30 5515 H 536.043 0.380369 -0.552775 0
M  V30 5516 H 538.587 0.574379 -1.96268 0
M  V30 5517 H 536.742 3.01208 -2.43623 0
M  V30 5518 H 537.156 2.52701 -4.59611 0
M  V30 5519 H 538.63 4.02725 -3.77513 0
M  V30 5520 H 539.107 3.86462 -2.08671 0
M  V30 5521 H 539.713 2.69964 -3.28633 0
M  V30 5522 N 538.028 1.39524 0.732853 0
M  V30 5523 C 539.253 1.40329 1.52717 0
M  V30 5524 C 539.678 0.000286574 1.881 0
M  V30 5525 O 539.036 -0.987262 1.52062 0
M  V30 5526 C 539.084 2.28464 2.78992 0
M  V30 5527 O 538.188 1.716 3.75003 0
M  V30 5528 H 537.529 0.47778 0.461109 0
M  V30 5529 H 540.059 1.83546 0.903996 0
M  V30 5530 H 540.069 2.43051 3.27705 0
M  V30 5531 H 538.744 3.30425 2.52572 0
M  V30 5532 H 537.321 1.66267 3.33781 0
M  V30 5533 N 539.506 -0.963266 1.24736 0
M  V30 5534 C 540.922 -1.23273 1.01371 0
M  V30 5535 C 541.122 -1.99618 -0.274776 0
M  V30 5536 O 540.178 -2.32293 -0.989769 0
M  V30 5537 C 541.491 -2.01554 2.23152 0
M  V30 5538 C 543.039 -2.14629 2.27823 0
M  V30 5539 C 543.514 -2.96307 3.49237 0
M  V30 5540 N 545.005 -3.03887 3.49581 0
M  V30 5541 C 545.74 -3.67456 4.40186 0
M  V30 5542 N 545.236 -4.32706 5.41052 0
M  V30 5543 N 547.029 -3.64511 4.27888 0
M  V30 5544 H 539.18 -0.452294 2.07528 0
M  V30 5545 H 541.443 -0.262521 0.910926 0
M  V30 5546 H 541.149 -1.52847 3.1675 0
M  V30 5547 H 541.023 -3.02278 2.25628 0
M  V30 5548 H 543.41 -2.62537 1.34753 0
M  V30 5549 H 543.491 -1.13238 2.2937 0
M  V30 5550 H 543.135 -2.49091 4.42624 0
M  V30 5551 H 543.065 -3.97905 3.44933 0
M  V30 5552 H 545.556 -2.57477 2.76611 0
M  V30 5553 H 545.869 -4.79042 6.06415 0
M  V30 5554 H 544.214 -4.31361 5.44934 0
M  V30 5555 H 547.405 -3.12715 3.4832 0
M  V30 5556 H 547.578 -4.13768 4.98698 0
M  V30 5557 N 540.985 -1.06182 -1.16461 0
M  V30 5558 C 542.401 -0.785065 -1.38956 0
M  V30 5559 C 542.601 0.616103 -1.9185 0
M  V30 5560 O 541.657 1.37686 -2.11657 0
M  V30 5561 C 542.97 -1.84902 -2.37132 0
M  V30 5562 C 544.518 -1.8724 -2.50819 0
M  V30 5563 C 544.993 -2.92686 -3.52277 0
M  V30 5564 N 546.484 -2.91712 -3.59803 0
M  V30 5565 C 547.219 -3.69949 -4.38093 0
M  V30 5566 N 546.715 -4.58 -5.19815 0
M  V30 5567 N 548.508 -3.58346 -4.33064 0
M  V30 5568 H 540.659 -1.96569 -0.804634 0
M  V30 5569 H 542.922 -0.851747 -0.416211 0
M  V30 5570 H 542.628 -2.85518 -2.0536 0
M  V30 5571 H 542.502 -1.69908 -3.36766 0
M  V30 5572 H 544.889 -0.872827 -2.81897 0
M  V30 5573 H 544.97 -2.06311 -1.51226 0
M  V30 5574 H 544.614 -3.92835 -3.21937 0
M  V30 5575 H 544.544 -2.70864 -4.51598 0
M  V30 5576 H 547.035 -2.27876 -3.01464 0
M  V30 5577 H 547.348 -5.14357 -5.76764 0
M  V30 5578 H 545.693 -4.62056 -5.19162 0
M  V30 5579 H 548.884 -2.88943 -3.68279 0
M  V30 5580 H 549.057 -4.19563 -4.93833 0
M  V30 5581 N 542.463 1.3308 -0.844243 0
M  V30 5582 C 543.712 1.96868 -0.438833 0
M  V30 5583 C 544.025 1.67599 1.00846 0
M  V30 5584 O 545.231 2.25043 1.51881 0
M  V30 5585 C 543.687 3.5234 -0.73377 0
M  V30 5586 C 543.295 3.90481 -2.1961 0
M  V30 5587 C 545.039 4.22653 -0.395574 0
M  V30 5588 C 542.946 5.38954 -2.43481 0
M  V30 5589 H 541.876 0.736749 -0.160364 0
M  V30 5590 H 544.527 1.51623 -1.03358 0
M  V30 5591 H 542.909 3.95941 -0.068589 0
M  V30 5592 H 544.083 3.57922 -2.90221 0
M  V30 5593 H 542.398 3.33165 -2.4978 0
M  V30 5594 H 544.995 5.31848 -0.551477 0
M  V30 5595 H 545.338 4.11004 0.661921 0
M  V30 5596 H 545.871 3.84601 -1.01621 0
M  V30 5597 H 542.61 5.55612 -3.47816 0
M  V30 5598 H 542.13 5.72954 -1.77437 0
M  V30 5599 H 543.809 6.05907 -2.26905 0
M  V30 5600 N 543.941 0.601185 1.45683 0
M  V30 5601 C 545.187 0.0940202 2.02582 0
M  V30 5602 C 545.52 -1.26972 1.46941 0
M  V30 5603 O 544.795 -1.83613 0.641612 0
M  V30 5604 C 545.078 0.0481715 3.60068 0
M  V30 5605 C 544.931 1.44212 4.26055 0
M  V30 5606 C 546.25 -0.642975 4.35378 0
M  V30 5607 H 543.369 0.0356404 0.736138 0
M  V30 5608 H 546.011 0.771929 1.73612 0
M  V30 5609 H 544.161 -0.529128 3.8488 0
M  V30 5610 H 545.833 2.06601 4.12449 0
M  V30 5611 H 544.076 2.00465 3.84703 0
M  V30 5612 H 544.747 1.36234 5.34925 0
M  V30 5613 H 547.223 -0.152351 4.15821 0
M  V30 5614 H 546.099 -0.644141 5.45107 0
M  V30 5615 H 546.36 -1.70785 4.0778 0
M  V30 5616 N 545.419 -1.53889 0.339982 0
M  V30 5617 C 546.647 -2.05271 -0.259114 0
M  V30 5618 C 547.062 -1.21517 -1.44496 0
M  V30 5619 O 546.419 -0.24966 -1.80784 0
M  V30 5620 C 546.47 -3.55092 -0.677634 0
M  V30 5621 O 546.191 -4.35667 0.461051 0
M  V30 5622 C 547.692 -4.22631 -1.33782 0
M  V30 5623 H 544.912 -0.669085 -0.0506566 0
M  V30 5624 H 547.456 -1.9852 0.490935 0
M  V30 5625 H 545.611 -3.62077 -1.37763 0
M  V30 5626 H 546.025 -5.24343 0.128144 0
M  V30 5627 H 547.499 -5.28861 -1.58145 0
M  V30 5628 H 547.976 -3.74758 -2.29027 0
M  V30 5629 H 548.582 -4.19829 -0.679957 0
M  V30 5630 N 546.897 -0.0685191 -1.57451 0
M  V30 5631 C 547.83 0.935736 -2.08133 0
M  V30 5632 C 548.808 1.29317 -0.985698 0
M  V30 5633 O 549.992 1.40304 -1.25886 0
M  V30 5634 C 547.119 2.2448 -2.53627 0
M  V30 5635 C 546.165 2.03917 -3.74593 0
M  V30 5636 S 546.998 1.30154 -5.19442 0
M  V30 5637 C 548.154 2.62346 -5.68265 0
M  V30 5638 H 548.387 0.504473 -2.92989 0
M  V30 5639 H 545.92 0.144169 -1.53725 0
M  V30 5640 H 547.878 2.99718 -2.80499 0
M  V30 5641 H 546.539 2.64731 -1.69045 0
M  V30 5642 H 545.732 3.00788 -4.04404 0
M  V30 5643 H 545.334 1.36815 -3.48077 0
M  V30 5644 H 547.626 3.58448 -5.7491 0
M  V30 5645 H 548.569 2.3715 -6.67207 0
M  V30 5646 H 548.977 2.69401 -4.96068 0
M  V30 5647 N 548.375 1.56261 0.205012 0
M  V30 5648 C 549.305 1.96779 1.257 0
M  V30 5649 C 550.286 0.838309 1.48008 0
M  V30 5650 O 551.471 1.10189 1.59913 0
M  V30 5651 C 548.601 2.29876 2.60335 0
M  V30 5652 C 547.555 3.45469 2.52656 0
M  V30 5653 C 546.881 3.64215 3.91473 0
M  V30 5654 C 548.181 4.79954 2.06014 0
M  V30 5655 H 549.875 2.84904 0.920338 0
M  V30 5656 H 547.421 1.37072 0.441277 0
M  V30 5657 H 549.374 2.56814 3.34102 0
M  V30 5658 H 548.098 1.38622 2.95722 0
M  V30 5659 H 546.757 3.18605 1.81345 0
M  V30 5660 H 546.405 2.70309 4.24196 0
M  V30 5661 H 546.105 4.41973 3.87213 0
M  V30 5662 H 547.629 3.93519 4.66878 0
M  V30 5663 H 549.043 5.05989 2.69533 0
M  V30 5664 H 547.44 5.61111 2.12777 0
M  V30 5665 H 548.51 4.74201 1.01297 0
M  V30 5666 N 549.853 -0.472356 1.50355 0
M  V30 5667 C 551.269 -0.806001 1.37753 0
M  V30 5668 C 551.469 -1.968 0.432649 0
M  V30 5669 O 550.525 -2.52189 -0.12519 0
M  V30 5670 C 551.838 -1.11926 2.79093 0
M  V30 5671 C 553.386 -1.22579 2.87999 0
M  V30 5672 C 553.861 -1.57218 4.3017 0
M  V30 5673 N 555.352 -1.64212 4.33115 0
M  V30 5674 C 556.087 -1.92517 5.40116 0
M  V30 5675 N 555.583 -2.1885 6.57325 0
M  V30 5676 N 557.376 -1.94008 5.27558 0
M  V30 5677 H 549.527 0.293451 2.10363 0
M  V30 5678 H 551.79 0.0687672 0.945503 0
M  V30 5679 H 551.496 -0.338504 3.50067 0
M  V30 5680 H 551.37 -2.05577 3.16256 0
M  V30 5681 H 553.757 -1.99722 2.17245 0
M  V30 5682 H 553.838 -0.269107 2.54381 0
M  V30 5683 H 553.482 -0.806154 5.01461 0
M  V30 5684 H 553.412 -2.54034 4.61275 0
M  V30 5685 H 555.903 -1.45906 3.48597 0
M  V30 5686 H 556.216 -2.39718 7.3468 0
M  V30 5687 H 554.561 -2.16245 6.60502 0
M  V30 5688 H 557.752 -1.72931 4.34986 0
M  V30 5689 H 557.925 -2.15731 6.11035 0
M  V30 5690 N 551.331 -1.39911 -0.725443 0
M  V30 5691 C 552.241 -1.41688 -1.8698 0
M  V30 5692 C 553.257 -0.310579 -1.71206 0
M  V30 5693 O 554.433 -0.55359 -1.93642 0
M  V30 5694 C 551.498 -1.26811 -3.22676 0
M  V30 5695 C 550.559 -2.47497 -3.50776 0
M  V30 5696 C 549.792 -2.3332 -4.79997 0
M  V30 5697 O 550.015 -1.34175 -5.54394 0
M  V30 5698 O 548.949 -3.22498 -5.08211 0
M  V30 5699 H 552.775 -2.38171 -1.88436 0
M  V30 5700 H 550.36 -1.21128 -0.874548 0
M  V30 5701 H 552.242 -1.20684 -4.03749 0
M  V30 5702 H 550.917 -0.334289 -3.21969 0
M  V30 5703 H 549.824 -2.59201 -2.69751 0
M  V30 5704 H 551.157 -3.39606 -3.5627 0
M  V30 5705 N 552.809 0.956637 -1.25245 0
M  V30 5706 C 553.772 2.03457 -1.05537 0
M  V30 5707 C 554.772 1.60798 -0.00886317 0
M  V30 5708 O 555.962 1.72384 -0.250865 0
M  V30 5709 C 553.094 3.35543 -0.601965 0
M  V30 5710 H 554.287 2.22372 -2.01223 0
M  V30 5711 H 551.84 1.13344 -1.07623 0
M  V30 5712 H 552.575 3.22323 0.357584 0
M  V30 5713 H 552.36 3.67854 -1.35743 0
M  V30 5714 H 553.85 4.14769 -0.485454 0
M  V30 5715 N 554.287 1.06798 1.15896 0
M  V30 5716 C 555.535 0.786211 1.8618 0
M  V30 5717 C 555.856 -0.689547 1.82401 0
M  V30 5718 O 555.126 -1.49913 1.26107 0
M  V30 5719 H 553.706 0.287843 0.689315 0
M  V30 5720 H 556.368 1.35055 1.40521 0
M  V30 5721 H 555.464 1.1157 2.91477 0
M  V30 5722 N 555.766 -1.3263 0.851289 0
M  V30 5723 C 556.729 -2.27247 0.298541 0
M  V30 5724 C 557.729 -1.51467 -0.539847 0
M  V30 5725 O 558.919 -1.7061 -0.351843 0
M  V30 5726 C 556.051 -3.35964 -0.578004 0
M  V30 5727 H 557.244 -2.7765 1.13359 0
M  V30 5728 H 554.797 -1.43245 0.625354 0
M  V30 5729 H 555.532 -2.90823 -1.435 0
M  V30 5730 H 555.317 -3.92094 0.0220539 0
M  V30 5731 H 556.807 -4.06472 -0.957626 0
M  V30 5732 N 557.244 -0.608902 -1.45362 0
M  V30 5733 C 558.472 -0.111013 -2.06602 0
M  V30 5734 C 558.887 1.20516 -1.45332 0
M  V30 5735 O 558.244 1.73437 -0.567978 0
M  V30 5736 C 558.295 0.033688 -3.61484 0
M  V30 5737 O 558.016 -1.23041 -4.20467 0
M  V30 5738 C 559.517 0.562882 -4.39712 0
M  V30 5739 H 556.737 -0.0694453 -0.667397 0
M  V30 5740 H 559.281 -0.837008 -1.86586 0
M  V30 5741 H 557.436 0.710016 -3.80838 0
M  V30 5742 H 557.85 -1.06094 -5.13658 0
M  V30 5743 H 559.324 0.613213 -5.48583 0
M  V30 5744 H 559.801 1.58543 -4.09586 0
M  V30 5745 H 560.407 -0.0794454 -4.25226 0
M  V30 5746 N 558.722 1.53707 -0.348139 0
M  V30 5747 C 559.632 2.28881 0.514857 0
M  V30 5748 C 560.648 1.34168 1.10793 0
M  V30 5749 O 561.824 1.6721 1.12262 0
M  V30 5750 C 558.889 3.05042 1.64774 0
M  V30 5751 C 557.95 4.15389 1.08398 0
M  V30 5752 C 557.183 4.87909 2.16287 0
M  V30 5753 O 557.406 4.60137 3.3709 0
M  V30 5754 O 556.34 5.74254 1.80323 0
M  V30 5755 H 560.166 3.03547 -0.0963699 0
M  V30 5756 H 557.751 1.48972 -0.113043 0
M  V30 5757 H 559.633 3.52656 2.30677 0
M  V30 5758 H 558.308 2.33228 2.24469 0
M  V30 5759 H 557.215 3.72068 0.389341 0
M  V30 5760 H 558.548 4.89318 0.531829 0
M  V30 5761 N 560.2 0.0768682 1.57412 0
M  V30 5762 C 561.446 -0.591961 1.93968 0
M  V30 5763 C 561.779 -1.68954 0.9575 0
M  V30 5764 O 561.054 -1.94496 -0.0124675 0
M  V30 5765 C 561.337 -1.16418 3.40762 0
M  V30 5766 C 561.19 -0.0728933 4.49741 0
M  V30 5767 C 562.509 -2.06814 3.88479 0
M  V30 5768 H 559.628 -0.213716 0.705333 0
M  V30 5769 H 562.27 0.14387 1.89455 0
M  V30 5770 H 560.42 -1.79128 3.4474 0
M  V30 5771 H 562.092 0.560446 4.57883 0
M  V30 5772 H 560.335 0.595859 4.29688 0
M  V30 5773 H 561.006 -0.513755 5.49604 0
M  V30 5774 H 563.482 -1.54033 3.8654 0
M  V30 5775 H 562.358 -2.43785 4.91793 0
M  V30 5776 H 562.619 -2.97844 3.26713 0
M  V30 5777 N 561.678 -1.56367 -0.196722 0
M  V30 5778 C 562.628 -1.9082 -1.24787 0
M  V30 5779 C 563.612 -0.773719 -1.41076 0
M  V30 5780 O 564.804 -1.03655 -1.43474 0
M  V30 5781 C 561.933 -2.24982 -2.59303 0
M  V30 5782 C 561.019 -3.44882 -2.46814 0
M  V30 5783 N 561.41 -4.62835 -2.04003 0
M  V30 5784 C 559.708 -3.48988 -2.77711 0
M  V30 5785 C 560.409 -5.44993 -2.03366 0
M  V30 5786 N 559.385 -4.85356 -2.44807 0
M  V30 5787 H 563.187 -2.79516 -0.908175 0
M  V30 5788 H 560.701 -1.57265 -0.405166 0
M  V30 5789 H 562.698 -2.47848 -3.35227 0
M  V30 5790 H 561.358 -1.37611 -2.94098 0
M  V30 5791 H 562.369 -4.87532 -1.74738 0
M  V30 5792 H 559.046 -2.72029 -3.16712 0
M  V30 5793 H 560.436 -6.49464 -1.72181 0
M  V30 5794 N 563.156 0.464375 -1.50603 0
M  V30 5795 C 564.402 1.21776 -1.62168 0
M  V30 5796 C 564.735 1.91476 -0.324154 0
M  V30 5797 O 564.01 1.8242 0.674782 0
M  V30 5798 C 564.293 2.25614 -2.80661 0
M  V30 5799 C 564.146 1.60175 -4.20314 0
M  V30 5800 C 565.465 3.26862 -2.94702 0
M  V30 5801 H 562.584 0.44137 -0.590222 0
M  V30 5802 H 565.226 0.510623 -1.8301 0
M  V30 5803 H 563.376 2.85923 -2.63021 0
M  V30 5804 H 565.048 1.03411 -4.4956 0
M  V30 5805 H 563.291 0.904697 -4.24261 0
M  V30 5806 H 563.962 2.35665 -4.99165 0
M  V30 5807 H 566.438 2.76582 -3.10872 0
M  V30 5808 H 565.314 3.96839 -3.79223 0
M  V30 5809 H 565.575 3.91382 -2.05603 0
M  V30 5810 N 564.634 1.40294 0.718013 0
M  V30 5811 C 565.581 1.40367 1.8321 0
M  V30 5812 C 566.551 0.260952 1.64037 0
M  V30 5813 O 567.736 0.458648 1.85205 0
M  V30 5814 C 564.876 1.26965 3.20895 0
M  V30 5815 C 563.989 2.50922 3.51656 0
M  V30 5816 C 563.124 2.29981 4.78834 0
M  V30 5817 C 562.163 3.49527 5.02491 0
M  V30 5818 N 561.3 3.27796 6.20882 0
M  V30 5819 H 566.14 2.35593 1.82482 0
M  V30 5820 H 563.677 1.17012 0.891444 0
M  V30 5821 H 565.635 1.17202 4.00399 0
M  V30 5822 H 564.265 0.353591 3.20858 0
M  V30 5823 H 563.317 2.71223 2.66725 0
M  V30 5824 H 564.629 3.39913 3.65048 0
M  V30 5825 H 563.783 2.17558 5.66351 0
M  V30 5826 H 562.522 1.38411 4.67647 0
M  V30 5827 H 561.527 3.6243 4.1343 0
M  V30 5828 H 562.752 4.42021 5.15553 0
M  V30 5829 H 560.698 2.38906 6.1095 0
M  V30 5830 H 560.615 4.10351 6.34939 0
M  V30 5831 H 561.883 3.19101 7.11193 0
M  V30 5832 N 566.112 -0.949982 1.2575 0
M  V30 5833 C 567.361 -1.68956 1.10168 0
M  V30 5834 C 567.674 -1.92327 -0.356309 0
M  V30 5835 O 568.88 -2.64026 -0.632657 0
M  V30 5836 C 567.336 -3.04196 1.92336 0
M  V30 5837 C 566.944 -2.88603 3.42655 0
M  V30 5838 C 568.688 -3.81904 1.85336 0
M  V30 5839 C 566.595 -4.19262 4.17101 0
M  V30 5840 H 565.525 -0.633645 0.408668 0
M  V30 5841 H 568.176 -1.05719 1.49986 0
M  V30 5842 H 566.558 -3.68363 1.45344 0
M  V30 5843 H 567.732 -2.3334 3.97353 0
M  V30 5844 H 566.047 -2.24345 3.50796 0
M  V30 5845 H 568.644 -4.78688 2.38248 0
M  V30 5846 H 568.987 -4.08099 0.822226 0
M  V30 5847 H 569.52 -3.24495 2.30104 0
M  V30 5848 H 566.259 -3.98254 5.20648 0
M  V30 5849 H 565.779 -4.74273 3.67186 0
M  V30 5850 H 567.458 -4.87775 4.25071 0
M  V30 5851 N 567.59 -1.07411 -1.15328 0
M  V30 5852 C 568.815 -0.818856 -1.90551 0
M  V30 5853 C 569.24 0.622194 -1.77512 0
M  V30 5854 O 568.598 1.43484 -1.10824 0
M  V30 5855 C 568.646 -1.23267 -3.38877 0
M  V30 5856 O 567.75 -0.378345 -4.10661 0
M  V30 5857 H 567.091 -0.29827 -0.593238 0
M  V30 5858 H 569.621 -1.43289 -1.46046 0
M  V30 5859 H 569.631 -1.20912 -3.89672 0
M  V30 5860 H 568.306 -2.28226 -3.47686 0
M  V30 5861 H 566.883 -0.464437 -3.69996 0
M  V30 5862 N 569.068 1.32177 -0.85831 0
M  V30 5863 C 570.293 2.01847 -0.476718 0
M  V30 5864 C 570.718 1.64065 0.920021 0
M  V30 5865 O 570.076 0.843189 1.60499 0
M  V30 5866 C 570.124 3.55097 -0.627578 0
M  V30 5867 O 569.228 4.11012 0.338086 0
M  V30 5868 H 568.569 0.635907 -0.191099 0
M  V30 5869 H 571.099 1.68641 -1.15851 0
M  V30 5870 H 571.109 4.04718 -0.516476 0
M  V30 5871 H 569.784 3.81938 -1.64609 0
M  V30 5872 H 568.361 3.72451 0.182917 0
M  V30 5873 N 570.547 0.616602 1.45037 0
M  V30 5874 C 571.958 0.199359 1.85633 0
M  V30 5875 C 572.309 -1.24588 1.51566 0
M  V30 5876 O 571.434 -1.94594 0.94668 0
M  V30 5877 C 572.029 0.355033 3.36935 0
M  V30 5878 C 570.588 -0.00758748 3.76399 0
M  V30 5879 C 569.735 0.675256 2.68953 0
M  V30 5880 H 572.686 0.822708 1.3571 0
M  V30 5881 H 572.707 -0.410201 3.78282 0
M  V30 5882 H 572.219 1.40699 3.61698 0
M  V30 5883 H 570.32 -1.05837 3.57252 0
M  V30 5884 H 570.433 0.392346 4.77491 0
M  V30 5885 H 568.797 0.111992 2.54454 0
M  V30 5886 H 569.58 1.72952 2.96551 0
M  V30 5887 N 572.025 -1.5352 0.356285 0
M  V30 5888 C 573.436 -1.86282 -0.12492 0
M  V30 5889 C 573.787 -1.27717 -1.48939 0
M  V30 5890 O 572.912 -0.595614 -2.08042 0
M  V30 5891 C 573.507 -3.37995 -0.23345 0
M  V30 5892 C 572.066 -3.70588 -0.658899 0
M  V30 5893 C 571.213 -2.76581 0.199596 0
M  V30 5894 H 574.164 -1.47901 0.575423 0
M  V30 5895 H 574.185 -3.65475 -1.0587 0
M  V30 5896 H 573.697 -3.8059 0.759776 0
M  V30 5897 H 571.798 -3.33544 -1.66069 0
M  V30 5898 H 571.911 -4.77076 -0.439957 0
M  V30 5899 H 570.275 -2.52552 -0.330076 0
M  V30 5900 H 571.058 -3.22008 1.19019 0
M  V30 5901 N 573.503 -0.0852151 -1.57369 0
M  V30 5902 C 574.752 0.580443 -1.93168 0
M  V30 5903 C 575.065 1.6995 -0.968319 0
M  V30 5904 O 576.271 2.42564 -1.21963 0
M  V30 5905 C 574.727 1.08386 -3.43192 0
M  V30 5906 C 574.335 -0.00491388 -4.48 0
M  V30 5907 C 576.079 1.72281 -3.87968 0
M  V30 5908 C 573.986 0.513299 -5.89168 0
M  V30 5909 H 572.916 0.22059 -0.72101 0
M  V30 5910 H 575.567 -0.159621 -1.82804 0
M  V30 5911 H 573.949 1.8773 -3.48674 0
M  V30 5912 H 575.123 -0.780032 -4.5415 0
M  V30 5913 H 573.438 -0.548453 -4.12772 0
M  V30 5914 H 576.035 2.12108 -4.9083 0
M  V30 5915 H 576.378 2.58811 -3.26071 0
M  V30 5916 H 576.911 0.995359 -3.85146 0
M  V30 5917 H 573.65 -0.315153 -6.54742 0
M  V30 5918 H 573.17 1.25564 -5.8651 0
M  V30 5919 H 574.849 0.985433 -6.39451 0
M  V30 5920 N 574.981 1.5647 0.188427 0
M  V30 5921 C 575.944 1.9421 1.21718 0
M  V30 5922 C 576.944 0.823901 1.38089 0
M  V30 5923 O 578.134 1.09122 1.35787 0
M  V30 5924 C 575.266 2.22197 2.58537 0
M  V30 5925 H 576.459 2.86252 0.894418 0
M  V30 5926 H 574.012 1.50263 0.430211 0
M  V30 5927 H 574.747 1.32814 2.95856 0
M  V30 5928 H 574.532 3.03688 2.48025 0
M  V30 5929 H 576.022 2.52376 3.3271 0
M  V30 5930 N 576.459 -0.456382 1.50847 0
M  V30 5931 C 577.409 -1.55045 1.67168 0
M  V30 5932 C 578.393 -1.52061 0.525958 0
M  V30 5933 O 579.585 -1.58836 0.781036 0
M  V30 5934 C 576.714 -2.93386 1.78268 0
M  V30 5935 C 575.8 -3.01198 2.98564 0
M  V30 5936 N 576.191 -2.78792 4.22029 0
M  V30 5937 C 574.489 -3.32346 2.97426 0
M  V30 5938 C 575.19 -2.91953 5.03128 0
M  V30 5939 N 574.166 -3.22797 4.37382 0
M  V30 5940 H 577.968 -1.36444 2.60308 0
M  V30 5941 H 575.482 -0.663375 1.48233 0
M  V30 5942 H 577.479 -3.72071 1.88067 0
M  V30 5943 H 576.139 -3.13022 0.862965 0
M  V30 5944 H 577.15 -2.54087 4.51287 0
M  V30 5945 H 573.827 -3.57877 2.15012 0
M  V30 5946 H 575.217 -2.78745 6.11351 0
M  V30 5947 N 577.937 -1.40673 -0.710563 0
M  V30 5948 C 579.348 -1.34975 -1.28991 0
M  V30 5949 C 579.699 -0.0256272 -1.96183 0
M  V30 5950 O 578.824 0.876339 -1.97862 0
M  V30 5951 C 579.419 -2.44467 -2.34567 0
M  V30 5952 C 577.978 -2.42213 -2.88114 0
M  V30 5953 C 577.125 -2.25085 -1.61963 0
M  V30 5954 H 580.076 -1.50406 -0.506343 0
M  V30 5955 H 580.097 -2.12663 -3.15523 0
M  V30 5956 H 579.609 -3.40825 -1.85634 0
M  V30 5957 H 577.71 -1.49568 -3.41263 0
M  V30 5958 H 577.823 -3.37983 -3.39565 0
M  V30 5959 H 576.187 -1.72691 -1.87216 0
M  V30 5960 H 576.97 -3.23449 -1.15047 0
M  V30 5961 N 579.415 0.9433 -1.26252 0
M  V30 5962 C 580.655 1.70397 -1.1289 0
M  V30 5963 C 581.019 1.89268 0.322713 0
M  V30 5964 O 582.22 2.62503 0.578418 0
M  V30 5965 C 580.491 3.04296 -1.87453 0
M  V30 5966 S 582.05 3.95475 -1.90119 0
M  V30 5967 H 578.868 0.585559 -0.403289 0
M  V30 5968 H 581.47 1.12424 -1.59941 0
M  V30 5969 H 580.174 2.8824 -2.9214 0
M  V30 5970 H 579.705 3.67327 -1.40835 0
M  V30 5971 H 581.72 4.86297 -0.986373 0
M  V30 5972 N 580.893 1.08022 1.14757 0
M  V30 5973 C 582.14 0.807509 1.85703 0
M  V30 5974 C 582.468 -0.666617 1.8272 0
M  V30 5975 O 581.723 -1.50562 1.25018 0
M  V30 5976 C 582.022 1.26964 3.34088 0
M  V30 5977 C 581.688 2.7509 3.57262 0
M  V30 5978 C 580.35 3.15547 3.63296 0
M  V30 5979 C 582.702 3.70667 3.66409 0
M  V30 5980 C 580.03 4.50384 3.75994 0
M  V30 5981 C 582.382 5.05274 3.80632 0
M  V30 5982 C 581.046 5.45342 3.84913 0
M  V30 5983 H 580.316 0.295488 0.679535 0
M  V30 5984 H 582.963 1.35245 1.35577 0
M  V30 5985 H 581.268 0.644216 3.86467 0
M  V30 5986 H 582.965 1.03544 3.87401 0
M  V30 5987 H 579.555 2.42775 3.53212 0
M  V30 5988 H 583.739 3.40533 3.61041 0
M  V30 5989 H 578.995 4.80886 3.77569 0
M  V30 5990 H 583.169 5.79201 3.86652 0
M  V30 5991 H 580.796 6.49823 3.94505 0
M  V30 5992 N 582.371 -1.3172 0.865308 0
M  V30 5993 C 583.601 -2.00765 0.487543 0
M  V30 5994 C 584.009 -1.65145 -0.92325 0
M  V30 5995 O 583.352 -0.874294 -1.61561 0
M  V30 5996 C 583.414 -3.55122 0.559369 0
M  V30 5997 C 583.078 -4.14202 1.93095 0
M  V30 5998 C 584.075 -4.3165 2.89784 0
M  V30 5999 C 581.76 -4.50036 2.23099 0
M  V30 6000 C 583.754 -4.84114 4.14623 0
M  V30 6001 C 581.441 -5.02203 3.48189 0
M  V30 6002 C 582.439 -5.19192 4.43767 0
M  V30 6003 O 582.127 -5.70241 5.6664 0
M  V30 6004 H 581.859 -0.649066 0.188915 0
M  V30 6005 H 584.413 -1.69032 1.16694 0
M  V30 6006 H 582.643 -3.86295 -0.176926 0
M  V30 6007 H 584.332 -4.05428 0.195694 0
M  V30 6008 H 585.098 -4.04288 2.6791 0
M  V30 6009 H 580.977 -4.36091 1.49485 0
M  V30 6010 H 584.521 -4.9729 4.89233 0
M  V30 6011 H 580.418 -5.28997 3.69908 0
M  V30 6012 H 581.186 -5.88617 5.68746 0
M  V30 6013 N 583.85 -0.624285 -1.44708 0
M  V30 6014 C 585.098 -0.125802 -2.01708 0
M  V30 6015 C 585.418 1.2543 -1.49306 0
M  V30 6016 O 584.689 1.83198 -0.693924 0
M  V30 6017 H 583.269 -0.0435161 -0.745731 0
M  V30 6018 H 585.931 -0.809446 -1.77296 0
M  V30 6019 H 585.027 -0.0882734 -3.11975 0
M  V30 6020 N 585.328 1.53329 -0.364422 0
M  V30 6021 C 586.577 2.00421 0.226747 0
M  V30 6022 C 586.89 1.25581 1.49963 0
M  V30 6023 O 588.096 1.63256 2.16933 0
M  V30 6024 C 586.552 3.57017 0.454618 0
M  V30 6025 C 586.16 4.40734 -0.803568 0
M  V30 6026 C 587.904 4.12468 1.00351 0
M  V30 6027 C 585.811 5.8888 -0.545345 0
M  V30 6028 H 584.741 0.748787 0.0885082 0
M  V30 6029 H 587.392 1.7703 -0.482983 0
M  V30 6030 H 585.774 3.76558 1.22558 0
M  V30 6031 H 586.948 4.32967 -1.57723 0
M  V30 6032 H 585.263 3.96381 -1.27559 0
M  V30 6033 H 587.86 5.20783 1.212 0
M  V30 6034 H 588.203 3.6699 1.9653 0
M  V30 6035 H 588.736 3.96721 0.29274 0
M  V30 6036 H 585.475 6.38633 -1.47743 0
M  V30 6037 H 584.995 5.99499 0.189842 0
M  V30 6038 H 586.674 6.46776 -0.170425 0
M  V30 6039 N 586.806 0.0935595 1.57322 0
M  V30 6040 C 588.083 -0.612692 1.85756 0
M  V30 6041 C 588.463 -1.86439 0.99013 0
M  V30 6042 O 587.811 -2.28416 0.0621362 0
M  V30 6043 C 588.021 -0.929547 3.36393 0
M  V30 6044 C 589.369 -1.29366 4.04413 0
M  V30 6045 O 590.393 -1.02061 3.41265 0
M  V30 6046 O 589.252 -1.80498 5.15832 0
M  V30 6047 H 586.346 -0.306444 0.768128 0
M  V30 6048 H 588.892 0.126141 1.69231 0
M  V30 6049 H 587.664 -0.0414766 3.91278 0
M  V30 6050 H 587.287 -1.72441 3.5826 0
M  V30 6051 N 588.284 -1.56567 -0.180126 0
M  V30 6052 C 589.512 -1.85618 -0.913972 0
M  V30 6053 C 589.927 -0.677892 -1.7621 0
M  V30 6054 O 589.284 0.353171 -1.7905 0
M  V30 6055 C 589.335 -3.13619 -1.79793 0
M  V30 6056 O 589.056 -4.26906 -0.98402 0
M  V30 6057 C 590.557 -3.55954 -2.64219 0
M  V30 6058 H 587.777 -0.616043 -0.265954 0
M  V30 6059 H 590.321 -2.03681 -0.182872 0
M  V30 6060 H 588.476 -2.97409 -2.48247 0
M  V30 6061 H 588.89 -4.9989 -1.58776 0
M  V30 6062 H 590.364 -4.48444 -3.21873 0
M  V30 6063 H 590.841 -2.79653 -3.38661 0
M  V30 6064 H 591.447 -3.74746 -2.01111 0
M  V30 6065 N 589.762 0.448376 -1.51087 0
M  V30 6066 C 590.987 1.22605 -1.6728 0
M  V30 6067 C 591.412 1.84524 -0.365045 0
M  V30 6068 O 590.77 1.6832 0.673642 0
M  V30 6069 C 590.818 2.29393 -2.78229 0
M  V30 6070 O 589.922 3.34608 -2.41063 0
M  V30 6071 H 589.263 0.359705 -0.558129 0
M  V30 6072 H 591.793 0.530903 -1.97592 0
M  V30 6073 H 591.803 2.74352 -3.01986 0
M  V30 6074 H 590.478 1.83701 -3.73131 0
M  V30 6075 H 589.055 2.95202 -2.27838 0
M  V30 6076 N 591.24 1.41047 0.703093 0
M  V30 6077 C 592.468 1.4334 1.49202 0
M  V30 6078 C 592.883 0.0365596 1.88765 0
M  V30 6079 O 592.24 -0.942419 1.56284 0
M  V30 6080 C 592.291 2.33538 2.75939 0
M  V30 6081 O 592.012 3.67786 2.38045 0
M  V30 6082 C 593.513 2.44555 3.6974 0
M  V30 6083 H 590.733 0.488472 0.460039 0
M  V30 6084 H 593.277 1.85245 0.86629 0
M  V30 6085 H 591.432 1.94962 3.34766 0
M  V30 6086 H 591.846 4.15816 3.19683 0
M  V30 6087 H 593.32 3.11849 4.55471 0
M  V30 6088 H 593.797 1.47447 4.1371 0
M  V30 6089 H 594.403 2.83735 3.16819 0
M  V30 6090 N 592.718 -0.936591 1.26751 0
M  V30 6091 C 593.668 -2.0219 1.05371 0
M  V30 6092 C 594.652 -1.60893 -0.0154112 0
M  V30 6093 O 595.844 -1.75843 0.202085 0
M  V30 6094 C 592.973 -3.36222 0.693541 0
M  V30 6095 C 592.059 -3.8399 1.80035 0
M  V30 6096 N 592.45 -4.0436 3.03852 0
M  V30 6097 C 590.748 -4.12945 1.685 0
M  V30 6098 C 591.449 -4.44 3.75818 0
M  V30 6099 N 590.425 -4.50966 3.03531 0
M  V30 6100 H 594.227 -2.15958 1.99347 0
M  V30 6101 H 591.741 -1.12277 1.17335 0
M  V30 6102 H 593.738 -4.13625 0.521513 0
M  V30 6103 H 592.398 -3.23821 -0.238693 0
M  V30 6104 H 593.409 -3.9092 3.39709 0
M  V30 6105 H 590.086 -4.09308 0.822986 0
M  V30 6106 H 591.476 -4.67914 4.82189 0
M  V30 6107 N 594.196 -1.08629 -1.14182 0
M  V30 6108 C 595.106 -0.730126 -2.22949 0
M  V30 6109 C 596.122 0.26436 -1.7198 0
M  V30 6110 O 597.298 0.107742 -2.01112 0
M  V30 6111 C 594.363 -0.147227 -3.46387 0
M  V30 6112 C 593.424 -1.19662 -4.12286 0
M  V30 6113 C 592.657 -0.641437 -5.29831 0
M  V30 6114 O 592.88 0.538351 -5.67854 0
M  V30 6115 O 591.814 -1.39257 -5.85569 0
M  V30 6116 H 595.64 -1.63753 -2.55771 0
M  V30 6117 H 593.225 -0.860118 -1.22157 0
M  V30 6118 H 595.107 0.174923 -4.21037 0
M  V30 6119 H 593.782 0.733304 -3.15285 0
M  V30 6120 H 592.689 -1.57133 -3.395 0
M  V30 6121 H 594.022 -2.0495 -4.475 0
M  V30 6122 N 595.674 1.31259 -0.872281 0
M  V30 6123 C 596.584 2.32221 -0.333255 0
M  V30 6124 C 597.6 1.6481 0.558013 0
M  V30 6125 O 598.776 1.96212 0.454175 0
M  V30 6126 C 595.841 3.43708 0.454479 0
M  V30 6127 C 594.902 4.26774 -0.465024 0
M  V30 6128 C 594.135 5.32937 0.28521 0
M  V30 6129 O 594.358 5.49968 1.513 0
M  V30 6130 O 593.292 6.00834 -0.358126 0
M  V30 6131 H 597.118 2.80252 -1.17016 0
M  V30 6132 H 594.703 1.352 -0.635724 0
M  V30 6133 H 596.585 4.11656 0.900963 0
M  V30 6134 H 595.26 2.97836 1.26789 0
M  V30 6135 H 594.167 3.61571 -0.960055 0
M  V30 6136 H 595.5 4.76217 -1.2441 0
M  V30 6137 N 597.152 0.631951 1.44375 0
M  V30 6138 C 598.082 -0.0593243 2.33425 0
M  V30 6139 C 599.063 -0.833964 1.48253 0
M  V30 6140 O 600.248 -0.799682 1.76971 0
M  V30 6141 C 597.378 -1.04096 3.31333 0
M  V30 6142 C 596.332 -0.377899 4.26328 0
M  V30 6143 C 595.658 -1.4695 5.14111 0
M  V30 6144 C 596.958 0.716371 5.17364 0
M  V30 6145 H 598.652 0.684287 2.91475 0
M  V30 6146 H 596.198 0.330518 1.40156 0
M  V30 6147 H 598.151 -1.53331 3.92514 0
M  V30 6148 H 596.875 -1.81547 2.71493 0
M  V30 6149 H 595.534 0.0938054 3.6648 0
M  V30 6150 H 595.182 -2.2349 4.50623 0
M  V30 6151 H 594.882 -1.03121 5.78481 0
M  V30 6152 H 596.406 -1.96363 5.78164 0
M  V30 6153 H 597.82 0.307089 5.72477 0
M  V30 6154 H 596.217 1.07784 5.90341 0
M  V30 6155 H 597.287 1.58316 4.58327 0
M  V30 6156 N 598.631 -1.53133 0.372548 0
M  V30 6157 C 599.88 -2.00539 -0.216115 0
M  V30 6158 C 600.193 -1.26374 -1.49295 0
M  V30 6159 O 601.399 -1.64404 -2.16064 0
M  V30 6160 C 599.855 -3.57253 -0.435678 0
M  V30 6161 C 599.463 -4.40302 0.82693 0
M  V30 6162 C 601.207 -4.12995 -0.981618 0
M  V30 6163 C 599.114 -5.88583 0.576567 0
M  V30 6164 H 598.044 -0.749246 -0.084536 0
M  V30 6165 H 600.695 -1.76771 0.492364 0
M  V30 6166 H 599.077 -3.77202 -1.20559 0
M  V30 6167 H 600.251 -4.32124 1.60017 0
M  V30 6168 H 598.566 -3.95699 1.29659 0
M  V30 6169 H 601.163 -5.21418 -1.18436 0
M  V30 6170 H 601.506 -3.68027 -1.94581 0
M  V30 6171 H 602.039 -3.96871 -0.271696 0
M  V30 6172 H 598.778 -6.37841 1.51128 0
M  V30 6173 H 598.298 -5.99592 -0.158047 0
M  V30 6174 H 599.977 -6.46676 0.204722 0
M  V30 6175 N 600.109 -0.101901 -1.5727 0
M  V30 6176 C 601.072 0.840129 -2.13247 0
M  V30 6177 C 602.072 1.20625 -1.06331 0
M  V30 6178 O 603.262 1.13456 -1.32186 0
M  V30 6179 C 600.394 2.13372 -2.65867 0
M  V30 6180 H 601.587 0.353945 -2.97804 0
M  V30 6181 H 599.14 0.147167 -1.55606 0
M  V30 6182 H 599.875 2.66461 -1.84849 0
M  V30 6183 H 599.66 1.88085 -3.44044 0
M  V30 6184 H 601.15 2.80748 -3.09145 0
M  V30 6185 N 601.587 1.56661 0.17182 0
M  V30 6186 C 602.812 1.86459 0.908165 0
M  V30 6187 C 603.237 0.688181 1.75059 0
M  V30 6188 O 602.595 -0.362753 1.77634 0
M  V30 6189 C 602.643 3.14669 1.76112 0
M  V30 6190 O 601.747 2.96858 2.86268 0
M  V30 6191 H 601.088 0.613318 0.254434 0
M  V30 6192 H 603.618 2.03892 0.170113 0
M  V30 6193 H 603.628 3.46061 2.16115 0
M  V30 6194 H 602.303 3.99905 1.14233 0
M  V30 6195 H 600.88 2.76819 2.49852 0
M  V30 6196 N 603.065 -0.440357 1.51323 0
M  V30 6197 C 604.29 -1.21716 1.67928 0
M  V30 6198 C 604.715 -1.84328 0.374826 0
M  V30 6199 O 604.073 -1.68675 -0.664706 0
M  V30 6200 C 604.121 -2.27914 2.79442 0
M  V30 6201 O 603.225 -3.33325 2.42834 0
M  V30 6202 H 602.566 -0.35674 0.560029 0
M  V30 6203 H 605.096 -0.520417 1.97871 0
M  V30 6204 H 605.106 -2.72746 3.03436 0
M  V30 6205 H 603.781 -1.8172 3.741 0
M  V30 6206 H 602.358 -2.9399 2.294 0
M  V30 6207 N 604.543 -1.41418 -0.695603 0
M  V30 6208 C 605.493 -1.39731 -1.80165 0
M  V30 6209 C 606.477 -0.271689 -1.5859 0
M  V30 6210 O 607.669 -0.512354 -1.69422 0
M  V30 6211 C 604.798 -1.28187 -3.1847 0
M  V30 6212 C 603.884 -2.45612 -3.45739 0
M  V30 6213 N 604.275 -3.71077 -3.43708 0
M  V30 6214 C 602.573 -2.39424 -3.76288 0
M  V30 6215 C 603.274 -4.48957 -3.69882 0
M  V30 6216 N 602.25 -3.7907 -3.89624 0
M  V30 6217 H 606.052 -2.34656 -1.76957 0
M  V30 6218 H 603.566 -1.35473 -0.89559 0
M  V30 6219 H 605.563 -1.2506 -3.977 0
M  V30 6220 H 604.223 -0.342468 -3.22889 0
M  V30 6221 H 605.234 -4.03963 -3.2409 0
M  V30 6222 H 601.911 -1.53955 -3.88077 0
M  V30 6223 H 603.301 -5.57887 -3.74448 0
M  V30 6224 N 606.021 0.929856 -1.27246 0
M  V30 6225 C 607.246 1.71674 -1.16374 0
M  V30 6226 C 607.671 1.86064 0.276024 0
M  V30 6227 O 607.029 1.3591 1.19992 0
M  V30 6228 C 607.077 3.09526 -1.85003 0
M  V30 6229 O 606.181 3.96142 -1.14653 0
M  V30 6230 H 605.522 0.52629 -0.404863 0
M  V30 6231 H 608.052 1.16381 -1.68276 0
M  V30 6232 H 608.062 3.59852 -1.92276 0
M  V30 6233 H 606.737 2.98369 -2.89739 0
M  V30 6234 H 605.314 3.54584 -1.15433 0
M  V30 6235 N 607.499 1.09233 1.13605 0
M  V30 6236 C 608.745 0.828385 1.8511 0
M  V30 6237 C 609.078 -0.64437 1.83198 0
M  V30 6238 O 608.353 -1.47428 1.26867 0
M  V30 6239 C 608.636 1.36167 3.33363 0
M  V30 6240 C 608.489 2.90038 3.438 0
M  V30 6241 C 609.808 0.993819 4.28732 0
M  V30 6242 H 606.927 0.30239 0.672108 0
M  V30 6243 H 609.569 1.35339 1.33355 0
M  V30 6244 H 607.719 0.9151 3.77569 0
M  V30 6245 H 609.391 3.43128 3.08319 0
M  V30 6246 H 607.634 3.27271 2.84739 0
M  V30 6247 H 608.305 3.22428 4.48045 0
M  V30 6248 H 610.781 1.37893 3.92587 0
M  V30 6249 H 609.657 1.39403 5.30903 0
M  V30 6250 H 609.918 -0.0982206 4.41991 0
M  V30 6251 N 608.977 -1.30795 0.87923 0
M  V30 6252 C 609.887 -2.32041 0.345565 0
M  V30 6253 C 610.903 -1.65103 -0.549265 0
M  V30 6254 O 612.079 -1.9645 -0.443763 0
M  V30 6255 C 609.144 -3.43944 -0.436245 0
M  V30 6256 C 608.205 -4.26521 0.48765 0
M  V30 6257 C 607.438 -5.33081 -0.256943 0
M  V30 6258 O 607.661 -5.50762 -1.48381 0
M  V30 6259 O 606.595 -6.00635 0.389985 0
M  V30 6260 H 610.421 -2.79627 1.18501 0
M  V30 6261 H 608.006 -1.3486 0.642885 0
M  V30 6262 H 609.888 -4.12128 -0.879119 0
M  V30 6263 H 608.563 -2.98504 -1.25208 0
M  V30 6264 H 607.47 -3.61057 0.979216 0
M  V30 6265 H 608.803 -4.75551 1.26933 0
M  V30 6266 N 610.455 -0.639598 -1.44038 0
M  V30 6267 C 611.365 0.0612377 -2.3452 0
M  V30 6268 C 612.381 0.826717 -1.53106 0
M  V30 6269 O 613.557 0.777059 -1.85806 0
M  V30 6270 C 610.622 1.02492 -3.31204 0
M  V30 6271 C 609.683 0.25788 -4.28525 0
M  V30 6272 C 608.916 1.17566 -5.2059 0
M  V30 6273 O 609.139 2.41461 -5.16771 0
M  V30 6274 O 608.073 0.655407 -5.98321 0
M  V30 6275 H 611.899 -0.68318 -2.95916 0
M  V30 6276 H 609.484 -0.399784 -1.43952 0
M  V30 6277 H 611.366 1.57911 -3.90694 0
M  V30 6278 H 610.041 1.7498 -2.7233 0
M  V30 6279 H 608.948 -0.339566 -3.72556 0
M  V30 6280 H 610.281 -0.427154 -4.90343 0
M  V30 6281 N 611.933 1.52934 -0.380664 0
M  V30 6282 C 613.182 2.00651 0.205477 0
M  V30 6283 C 613.495 1.27164 1.48623 0
M  V30 6284 O 614.701 1.65547 2.15189 0
M  V30 6285 C 613.157 3.57479 0.416726 0
M  V30 6286 C 612.765 4.39857 -0.850268 0
M  V30 6287 C 614.509 4.13509 0.959702 0
M  V30 6288 C 612.416 5.88269 -0.607773 0
M  V30 6289 H 611.346 0.749684 0.0805614 0
M  V30 6290 H 613.997 1.76508 -0.501732 0
M  V30 6291 H 612.379 3.77836 1.18557 0
M  V30 6292 H 613.553 4.31269 -1.62307 0
M  V30 6293 H 611.868 3.95005 -1.31756 0
M  V30 6294 H 614.465 5.22039 1.15669 0
M  V30 6295 H 614.808 3.69054 1.92626 0
M  V30 6296 H 615.341 3.9701 0.250645 0
M  V30 6297 H 612.08 6.3703 -1.54509 0
M  V30 6298 H 611.6 5.99667 0.126247 0
M  V30 6299 H 613.279 6.46558 -0.239014 0
M  V30 6300 N 613.412 0.11024 1.57214 0
M  V30 6301 C 614.828 -0.24638 1.57687 0
M  V30 6302 C 615.028 -1.67344 1.12241 0
M  V30 6303 O 614.084 -2.39298 0.805783 0
M  V30 6304 C 615.397 -0.0210288 3.00693 0
M  V30 6305 C 616.945 -0.0876077 3.12877 0
M  V30 6306 C 617.42 0.10994 4.57868 0
M  V30 6307 N 618.911 0.0556135 4.63167 0
M  V30 6308 C 619.646 0.183495 5.73106 0
M  V30 6309 N 619.142 0.367058 6.91827 0
M  V30 6310 N 620.935 0.123689 5.61964 0
M  V30 6311 H 613.086 1.04246 1.85058 0
M  V30 6312 H 615.349 0.40979 0.854854 0
M  V30 6313 H 615.055 0.965203 3.38196 0
M  V30 6314 H 614.929 -0.756748 3.69531 0
M  V30 6315 H 617.316 -1.06436 2.75237 0
M  V30 6316 H 617.397 0.67985 2.466 0
M  V30 6317 H 617.041 1.08362 4.96206 0
M  V30 6318 H 616.971 -0.677397 5.22225 0
M  V30 6319 H 619.462 -0.0831062 3.77809 0
M  V30 6320 H 619.775 0.455739 7.71455 0
M  V30 6321 H 618.12 0.40292 6.93831 0
M  V30 6322 H 621.311 -0.0186928 4.68096 0
M  V30 6323 H 621.484 0.226797 6.47603 0
M  V30 6324 N 614.89 -1.56749 -0.16351 0
M  V30 6325 C 615.822 -1.93587 -1.22705 0
M  V30 6326 C 616.835 -0.829824 -1.40063 0
M  V30 6327 O 618.024 -1.10826 -1.39928 0
M  V30 6328 C 615.124 -2.1803 -2.59454 0
M  V30 6329 C 614.297 -3.4928 -2.63292 0
M  V30 6330 C 613.356 -3.62457 -3.8146 0
M  V30 6331 O 612.382 -4.35004 -3.67096 0
M  V30 6332 N 613.584 -2.97888 -4.9824 0
M  V30 6333 H 616.349 -2.8542 -0.914081 0
M  V30 6334 H 613.91 -1.58 -0.353214 0
M  V30 6335 H 615.902 -2.24102 -3.36987 0
M  V30 6336 H 614.472 -1.32543 -2.8311 0
M  V30 6337 H 613.692 -3.54795 -1.71796 0
M  V30 6338 H 614.98 -4.35632 -2.62873 0
M  V30 6339 H 614.378 -2.38833 -5.12811 0
M  V30 6340 H 612.935 -3.09545 -5.73607 0
M  V30 6341 N 616.368 0.432326 -1.51554 0
M  V30 6342 C 617.278 1.55023 -1.76082 0
M  V30 6343 C 618.294 1.61593 -0.645265 0
M  V30 6344 O 619.47 1.78742 -0.928086 0
M  V30 6345 C 616.535 2.90964 -1.88523 0
M  V30 6346 C 615.596 2.9447 -3.12388 0
M  V30 6347 C 614.829 4.23926 -3.24225 0
M  V30 6348 O 615.052 5.16576 -2.4188 0
M  V30 6349 O 613.986 4.33818 -4.17235 0
M  V30 6350 H 617.812 1.37238 -2.70923 0
M  V30 6351 H 615.397 0.615845 -1.36117 0
M  V30 6352 H 617.279 3.71633 -1.98662 0
M  V30 6353 H 615.954 3.08865 -0.9687 0
M  V30 6354 H 614.861 2.12737 -3.07723 0
M  V30 6355 H 616.194 2.81514 -4.03746 0
M  V30 6356 N 617.846 1.41785 0.688094 0
M  V30 6357 C 619.095 1.4084 1.44385 0
M  V30 6358 C 619.408 0.0234166 1.95586 0
M  V30 6359 O 620.614 -0.108647 2.71283 0
M  V30 6360 C 619.07 2.47675 2.61123 0
M  V30 6361 C 618.678 3.92116 2.16677 0
M  V30 6362 C 620.422 2.55877 3.38714 0
M  V30 6363 C 618.329 4.90487 3.30419 0
M  V30 6364 H 617.259 0.523787 0.542368 0
M  V30 6365 H 619.91 1.6764 0.74627 0
M  V30 6366 H 618.292 2.14018 3.33185 0
M  V30 6367 H 619.466 4.35059 1.51856 0
M  V30 6368 H 617.781 3.87642 1.5206 0
M  V30 6369 H 620.378 3.26553 4.234 0
M  V30 6370 H 620.721 1.59801 3.84408 0
M  V30 6371 H 621.254 2.88662 2.73714 0
M  V30 6372 H 617.993 5.87994 2.89729 0
M  V30 6373 H 617.513 4.52187 3.94065 0
M  V30 6374 H 619.192 5.11591 3.96085 0
M  V30 6375 N 619.324 -0.923095 1.27737 0
M  V30 6376 C 620.572 -1.66797 1.14119 0
M  V30 6377 C 620.893 -1.92479 -0.312541 0
M  V30 6378 O 620.163 -1.53432 -1.218 0
M  V30 6379 H 618.743 -0.618196 0.419336 0
M  V30 6380 H 621.405 -1.10815 1.60331 0
M  V30 6381 H 620.501 -2.63424 1.67374 0
M  V30 6382 N 620.802 -1.09834 -1.13024 0
M  V30 6383 C 621.765 -0.745058 -2.16752 0
M  V30 6384 C 622.765 0.227435 -1.59183 0
M  V30 6385 O 623.955 0.0050786 -1.74199 0
M  V30 6386 C 621.087 -0.102543 -3.40746 0
M  V30 6387 H 622.28 -1.66375 -2.49518 0
M  V30 6388 H 619.833 -0.898061 -1.27924 0
M  V30 6389 H 620.568 0.827177 -3.13573 0
M  V30 6390 H 620.353 -0.80235 -3.83803 0
M  V30 6391 H 621.843 0.129082 -4.174 0
M  V30 6392 N 622.28 1.30327 -0.886154 0
M  V30 6393 C 623.557 1.90922 -0.425217 0
M  V30 6394 C 623.937 1.80533 1.09413 0
M  V30 6395 O 623.285 1.2233 1.92996 0
M  V30 6396 C 623.495 3.36529 -0.924638 0
M  V30 6397 C 624.843 4.13598 -0.960305 0
M  V30 6398 O 625.867 3.45377 -0.871382 0
M  V30 6399 O 624.726 5.35482 -1.09184 0
M  V30 6400 H 621.82 0.81668 -0.130238 0
M  V30 6401 H 624.366 1.38886 -0.975132 0
M  V30 6402 H 623.138 3.38181 -1.96849 0
M  V30 6403 H 622.761 3.96021 -0.353955 0
M  V30 6404 N 623.758 0.647228 1.43697 0
M  V30 6405 C 624.986 0.16575 2.06235 0
M  V30 6406 C 625.401 -1.1662 1.48476 0
M  V30 6407 O 624.758 -1.7187 0.613762 0
M  V30 6408 C 624.809 0.0621651 3.61447 0
M  V30 6409 O 624.53 1.34146 4.17057 0
M  V30 6410 C 626.031 -0.446102 4.4105 0
M  V30 6411 H 623.251 0.0871158 0.665321 0
M  V30 6412 H 625.795 0.886183 1.84301 0
M  V30 6413 H 623.95 -0.608794 3.82587 0
M  V30 6414 H 624.364 1.19675 5.10664 0
M  V30 6415 H 625.838 -0.46755 5.50016 0
M  V30 6416 H 626.315 -1.47627 4.13646 0
M  V30 6417 H 626.921 0.192159 4.24866 0
M  V30 6418 N 625.236 -1.5273 0.388769 0
M  V30 6419 C 626.166 -2.29353 -0.438111 0
M  V30 6420 C 627.147 -1.32719 -1.06394 0
M  V30 6421 O 628.332 -1.61612 -1.07681 0
M  V30 6422 C 625.462 -3.09995 -1.56589 0
M  V30 6423 C 624.416 -4.14509 -1.06613 0
M  V30 6424 C 623.742 -4.83372 -2.28594 0
M  V30 6425 C 625.042 -5.22127 -0.134459 0
M  V30 6426 H 626.736 -2.98723 0.201206 0
M  V30 6427 H 624.282 -1.43665 0.0982089 0
M  V30 6428 H 626.235 -3.62357 -2.15118 0
M  V30 6429 H 624.959 -2.38357 -2.23279 0
M  V30 6430 H 623.618 -3.63128 -0.503383 0
M  V30 6431 H 623.266 -4.08283 -2.93792 0
M  V30 6432 H 622.966 -5.54012 -1.95817 0
M  V30 6433 H 624.49 -5.38538 -2.87766 0
M  V30 6434 H 625.904 -5.69851 -0.627914 0
M  V30 6435 H 624.301 -6.00011 0.103534 0
M  V30 6436 H 625.371 -4.77971 0.816798 0
M  V30 6437 N 626.714 -0.118576 -1.57153 0
M  V30 6438 C 627.939 0.550582 -1.99958 0
M  V30 6439 C 628.364 1.59458 -0.997736 0
M  V30 6440 O 627.722 1.81274 0.0306269 0
M  V30 6441 C 627.77 1.15379 -3.41643 0
M  V30 6442 O 626.874 2.26932 -3.44348 0
M  V30 6443 H 626.215 0.137567 -0.649593 0
M  V30 6444 H 628.745 -0.206926 -2.03551 0
M  V30 6445 H 628.755 1.48942 -3.79843 0
M  V30 6446 H 627.43 0.389087 -4.14076 0
M  V30 6447 H 626.007 1.94812 -3.17967 0
M  V30 6448 N 628.193 1.56834 0.155195 0
M  V30 6449 C 629.44 1.82898 0.869179 0
M  V30 6450 C 629.768 0.698194 1.81537 0
M  V30 6451 O 629.023 -0.313404 1.93174 0
M  V30 6452 C 629.322 3.15239 1.68402 0
M  V30 6453 C 628.988 4.42123 0.885341 0
M  V30 6454 C 627.65 4.76583 0.664971 0
M  V30 6455 C 630.002 5.20178 0.326234 0
M  V30 6456 C 627.33 5.86566 -0.125346 0
M  V30 6457 C 629.682 6.3099 -0.45108 0
M  V30 6458 C 628.346 6.64006 -0.682102 0
M  V30 6459 H 627.616 0.66927 0.318055 0
M  V30 6460 H 630.263 1.91036 0.133241 0
M  V30 6461 H 628.568 3.02515 2.48982 0
M  V30 6462 H 630.265 3.32618 2.23978 0
M  V30 6463 H 626.855 4.15102 1.06716 0
M  V30 6464 H 631.039 4.93936 0.483787 0
M  V30 6465 H 626.295 6.10594 -0.313915 0
M  V30 6466 H 630.469 6.9067 -0.89149 0
M  V30 6467 H 628.096 7.49065 -1.29636 0
M  V30 6468 N 629.671 -0.424282 1.51781 0
M  V30 6469 C 630.601 -1.52305 1.7699 0
M  V30 6470 C 631.582 -1.5839 0.620209 0
M  V30 6471 O 632.767 -1.73908 0.864268 0
M  V30 6472 C 629.897 -2.90271 1.90683 0
M  V30 6473 C 628.851 -2.99043 3.06198 0
M  V30 6474 C 628.177 -4.39116 3.05092 0
M  V30 6475 C 629.477 -2.7192 4.45934 0
M  V30 6476 H 631.171 -1.31461 2.68995 0
M  V30 6477 H 628.717 -0.630985 1.29439 0
M  V30 6478 H 630.67 -3.6711 2.06901 0
M  V30 6479 H 629.394 -3.12376 0.953365 0
M  V30 6480 H 628.053 -2.24646 2.89706 0
M  V30 6481 H 627.701 -4.58207 2.07498 0
M  V30 6482 H 627.401 -4.45912 3.82669 0
M  V30 6483 H 628.925 -5.17911 3.2342 0
M  V30 6484 H 630.339 -3.38487 4.62709 0
M  V30 6485 H 628.736 -2.90111 5.25315 0
M  V30 6486 H 629.806 -1.67445 4.55072 0
M  V30 6487 N 631.149 -1.42148 -0.680565 0
M  V30 6488 C 632.374 -1.45901 -1.47403 0
M  V30 6489 C 632.799 -0.0700985 -1.87969 0
M  V30 6490 O 632.157 0.930145 -1.55621 0
M  V30 6491 C 632.205 -2.38661 -2.70321 0
M  V30 6492 O 631.309 -1.85399 -3.68376 0
M  V30 6493 H 630.65 -0.494565 -0.443059 0
M  V30 6494 H 633.18 -1.86774 -0.835251 0
M  V30 6495 H 633.19 -2.55046 -3.18458 0
M  V30 6496 H 631.865 -3.39571 -2.40134 0
M  V30 6497 H 630.442 -1.78541 -3.2738 0
M  V30 6498 N 632.627 0.916307 -1.28225 0
M  V30 6499 C 633.873 1.66765 -1.154 0
M  V30 6500 C 634.206 1.91912 0.297251 0
M  V30 6501 O 633.481 1.51766 1.21644 0
M  V30 6502 C 633.764 3.02715 -1.95028 0
M  V30 6503 C 633.617 2.84738 -3.48201 0
M  V30 6504 C 634.936 4.03215 -1.76369 0
M  V30 6505 H 632.055 0.605205 -0.42059 0
M  V30 6506 H 634.697 1.06255 -1.57512 0
M  V30 6507 H 632.847 3.54365 -1.59242 0
M  V30 6508 H 634.519 2.40118 -3.9388 0
M  V30 6509 H 632.762 2.19848 -3.73964 0
M  V30 6510 H 633.433 3.8127 -3.99171 0
M  V30 6511 H 635.909 3.60617 -2.07593 0
M  V30 6512 H 634.785 4.96306 -2.34459 0
M  V30 6513 H 635.046 4.36288 -0.71452 0
M  V30 6514 N 634.105 1.10431 1.1244 0
M  V30 6515 C 635.015 0.765502 2.21759 0
M  V30 6516 C 636.031 -0.236966 1.72379 0
M  V30 6517 O 637.207 -0.0757329 2.01258 0
M  V30 6518 C 634.272 0.202316 3.46109 0
M  V30 6519 C 633.333 1.26205 4.1033 0
M  V30 6520 C 632.566 0.725648 5.28744 0
M  V30 6521 O 632.789 -0.447942 5.68638 0
M  V30 6522 O 631.723 1.48555 5.83279 0
M  V30 6523 H 635.549 1.67801 2.53133 0
M  V30 6524 H 633.134 0.879443 1.20773 0
M  V30 6525 H 635.016 -0.107918 4.21262 0
M  V30 6526 H 633.691 -0.683052 3.16411 0
M  V30 6527 H 632.598 1.62514 3.36957 0
M  V30 6528 H 633.931 2.12044 4.44183 0
M  V30 6529 N 635.583 -1.29855 0.893053 0
M  V30 6530 C 636.831 -1.9544 0.514566 0
M  V30 6531 C 637.152 -1.70795 -0.940959 0
M  V30 6532 O 636.422 -1.03601 -1.66264 0
M  V30 6533 H 635.002 -0.723137 0.187302 0
M  V30 6534 H 637.664 -1.58234 1.13789 0
M  V30 6535 H 636.76 -3.04341 0.691581 0
M  V30 6536 N 637.061 -0.65484 -1.43351 0
M  V30 6537 C 637.991 0.0221809 -2.33489 0
M  V30 6538 C 638.972 0.810272 -1.49561 0
M  V30 6539 O 640.157 0.771426 -1.78221 0
M  V30 6540 C 637.287 0.988117 -3.32947 0
M  V30 6541 C 636.241 0.310026 -4.26876 0
M  V30 6542 C 635.567 1.38752 -5.16384 0
M  V30 6543 C 636.867 -0.798589 -5.16159 0
M  V30 6544 H 638.561 -0.730571 -2.9035 0
M  V30 6545 H 636.107 -0.352773 -1.39612 0
M  V30 6546 H 638.06 1.47067 -3.94904 0
M  V30 6547 H 636.784 1.77205 -2.74346 0
M  V30 6548 H 635.443 -0.152097 -3.66284 0
M  V30 6549 H 635.091 2.16293 -4.54121 0
M  V30 6550 H 634.791 0.939051 -5.80048 0
M  V30 6551 H 636.315 1.87141 -5.81215 0
M  V30 6552 H 637.729 -0.398126 -5.71916 0
M  V30 6553 H 636.126 -1.17163 -5.88552 0
M  V30 6554 H 637.196 -1.65588 -4.55751 0
M  V30 6555 N 638.539 1.52521 -0.396863 0
M  V30 6556 C 639.469 2.29582 0.425941 0
M  V30 6557 C 640.45 1.33281 1.05689 0
M  V30 6558 O 641.635 1.62181 1.06823 0
M  V30 6559 C 638.765 3.10821 1.54943 0
M  V30 6560 C 637.719 4.15069 1.04413 0
M  V30 6561 C 637.045 4.84578 2.26028 0
M  V30 6562 C 638.345 5.22191 0.106767 0
M  V30 6563 H 640.039 2.98612 -0.217045 0
M  V30 6564 H 637.585 1.43611 -0.105826 0
M  V30 6565 H 639.538 3.63492 2.13193 0
M  V30 6566 H 638.262 2.39538 2.22011 0
M  V30 6567 H 636.921 3.63389 0.484118 0
M  V30 6568 H 636.569 4.09835 2.91623 0
M  V30 6569 H 636.269 5.55043 1.92876 0
M  V30 6570 H 637.793 5.40056 2.84906 0
M  V30 6571 H 639.207 5.70176 0.597685 0
M  V30 6572 H 637.604 5.99947 -0.135352 0
M  V30 6573 H 638.674 4.77531 -0.842134 0
M  V30 6574 N 640.017 0.126909 1.57088 0
M  V30 6575 C 640.964 -0.82036 2.15728 0
M  V30 6576 C 641.934 -1.25811 1.08447 0
M  V30 6577 O 643.119 -1.33422 1.36393 0
M  V30 6578 C 640.259 -2.06199 2.76724 0
M  V30 6579 C 639.372 -1.67188 3.98337 0
M  V30 6580 C 638.507 -2.86378 4.47393 0
M  V30 6581 C 637.546 -2.43644 5.61519 0
M  V30 6582 N 636.683 -3.55775 6.05284 0
M  V30 6583 H 641.523 -0.313472 2.96347 0
M  V30 6584 H 639.06 -0.14303 1.46403 0
M  V30 6585 H 641.018 -2.78959 3.10222 0
M  V30 6586 H 639.648 -2.54333 1.98782 0
M  V30 6587 H 638.7 -0.842714 3.70948 0
M  V30 6588 H 640.012 -1.31789 4.81075 0
M  V30 6589 H 639.166 -3.67353 4.82842 0
M  V30 6590 H 637.905 -3.25009 3.63621 0
M  V30 6591 H 636.91 -1.61104 5.25667 0
M  V30 6592 H 638.135 -2.06122 6.47063 0
M  V30 6593 H 636.081 -3.94065 5.24451 0
M  V30 6594 H 635.998 -3.24325 6.82898 0
M  V30 6595 H 637.266 -4.37166 6.45373 0
M  V30 6596 N 641.495 -1.56914 -0.146875 0
M  V30 6597 C 642.743 -1.82994 -0.85777 0
M  V30 6598 C 643.064 -0.707814 -1.817 0
M  V30 6599 O 642.334 0.270521 -1.94023 0
M  V30 6600 H 640.914 -0.675106 -0.319751 0
M  V30 6601 H 643.576 -1.9439 -0.140849 0
M  V30 6602 H 642.672 -2.77928 -1.41994 0
M  V30 6603 N 642.974 0.416227 -1.52004 0
M  V30 6604 C 644.223 1.16088 -1.64944 0
M  V30 6605 C 644.536 1.91835 -0.381928 0
M  V30 6606 O 645.742 2.6867 -0.391013 0
M  V30 6607 C 644.198 2.1124 -2.91386 0
M  V30 6608 C 643.806 1.41042 -4.25219 0
M  V30 6609 C 645.55 2.86008 -3.13688 0
M  V30 6610 C 643.457 2.34801 -5.42791 0
M  V30 6611 H 642.387 0.437041 -0.61442 0
M  V30 6612 H 645.038 0.425971 -1.78487 0
M  V30 6613 H 643.42 2.88254 -2.71525 0
M  V30 6614 H 644.594 0.694416 -4.55538 0
M  V30 6615 H 642.909 0.78344 -4.08964 0
M  V30 6616 H 645.506 3.56286 -3.98703 0
M  V30 6617 H 645.849 3.48556 -2.27628 0
M  V30 6618 H 646.382 2.16095 -3.33988 0
M  V30 6619 H 643.121 1.7691 -6.31176 0
M  V30 6620 H 642.641 3.04395 -5.16821 0
M  V30 6621 H 644.32 2.9548 -5.75587 0
M  V30 6622 N 644.452 1.42507 0.673017 0
M  V30 6623 C 645.7 1.42789 1.43023 0
M  V30 6624 C 646.021 0.0459738 1.94946 0
M  V30 6625 O 645.291 -0.915765 1.73178 0
M  V30 6626 H 643.871 0.525657 0.530748 0
M  V30 6627 H 646.533 1.77944 0.795113 0
M  V30 6628 H 645.629 2.12872 2.28237 0
M  V30 6629 N 645.93 -0.909495 1.28709 0
M  V30 6630 C 647.346 -1.18862 1.06508 0
M  V30 6631 C 647.546 -2.00604 -0.189864 0
M  V30 6632 O 646.602 -2.36281 -0.890355 0
M  V30 6633 C 647.915 -1.91908 2.31499 0
M  V30 6634 C 649.463 -2.04773 2.36721 0
M  V30 6635 C 649.938 -2.81228 3.6149 0
M  V30 6636 N 651.429 -2.88787 3.62155 0
M  V30 6637 C 652.164 -3.48455 4.55375 0
M  V30 6638 N 651.66 -4.09369 5.58918 0
M  V30 6639 N 653.453 -3.46035 4.42963 0
M  V30 6640 H 645.604 -0.363867 2.0926 0
M  V30 6641 H 647.867 -0.223649 0.921241 0
M  V30 6642 H 647.573 -1.39275 3.22948 0
M  V30 6643 H 647.447 -2.92436 2.38245 0
M  V30 6644 H 649.834 -2.56585 1.45767 0
M  V30 6645 H 649.915 -1.03408 2.33967 0
M  V30 6646 H 649.559 -2.30094 4.5279 0
M  V30 6647 H 649.489 -3.82917 3.61499 0
M  V30 6648 H 651.98 -2.45514 2.87283 0
M  V30 6649 H 652.293 -4.52891 6.26187 0
M  V30 6650 H 650.638 -4.0786 5.62739 0
M  V30 6651 H 653.829 -2.9766 3.6127 0
M  V30 6652 H 654.002 -3.92244 5.15799 0
M  V30 6653 N 647.408 -1.11026 -1.11852 0
M  V30 6654 C 648.355 -0.764662 -2.17765 0
M  V30 6655 C 649.325 0.261854 -1.64023 0
M  V30 6656 O 650.51 0.139748 -1.90288 0
M  V30 6657 C 647.65 -0.209317 -3.44465 0
M  V30 6658 C 646.763 -1.29187 -4.12231 0
M  V30 6659 C 645.898 -0.697523 -5.266 0
M  V30 6660 C 644.937 -1.76023 -5.86244 0
M  V30 6661 N 644.074 -1.18569 -6.92016 0
M  V30 6662 H 648.914 -1.67202 -2.46673 0
M  V30 6663 H 646.451 -0.835065 -1.21099 0
M  V30 6664 H 648.409 0.130599 -4.16996 0
M  V30 6665 H 647.039 0.661251 -3.15955 0
M  V30 6666 H 646.091 -1.74881 -3.37818 0
M  V30 6667 H 647.403 -2.09607 -4.52622 0
M  V30 6668 H 646.557 -0.307412 -6.05921 0
M  V30 6669 H 645.296 0.138044 -4.87505 0
M  V30 6670 H 644.301 -2.1597 -5.05606 0
M  V30 6671 H 645.526 -2.59875 -6.27409 0
M  V30 6672 H 643.472 -0.371695 -6.54946 0
M  V30 6673 H 643.389 -1.92666 -7.31038 0
M  V30 6674 H 644.657 -0.82233 -7.7515 0
M  V30 6675 N 648.886 1.2938 -0.899927 0
M  V30 6676 C 650.116 1.99402 -0.540601 0
M  V30 6677 C 650.524 1.67534 0.87914 0
M  V30 6678 O 649.867 0.916821 1.59186 0
M  V30 6679 C 649.929 3.53514 -0.653326 0
M  V30 6680 C 649.593 4.08937 -2.04009 0
M  V30 6681 C 650.59 4.23815 -3.01126 0
M  V30 6682 C 648.275 4.43962 -2.34953 0
M  V30 6683 C 650.269 4.72951 -4.27313 0
M  V30 6684 C 647.956 4.92795 -3.61382 0
M  V30 6685 C 648.954 5.07244 -4.57376 0
M  V30 6686 O 648.642 5.55017 -5.8156 0
M  V30 6687 H 648.374 0.64383 -0.206057 0
M  V30 6688 H 650.928 1.65878 -1.21134 0
M  V30 6689 H 649.158 3.86628 0.0744449 0
M  V30 6690 H 650.847 4.04767 -0.303118 0
M  V30 6691 H 651.613 3.97043 -2.78535 0
M  V30 6692 H 647.492 4.31974 -1.60994 0
M  V30 6693 H 651.036 4.84144 -5.02245 0
M  V30 6694 H 646.933 5.19004 -3.83804 0
M  V30 6695 H 647.701 5.73331 -5.84153 0
M  V30 6696 N 650.364 0.662433 1.43002 0
M  V30 6697 C 651.641 0.109096 1.95296 0
M  V30 6698 C 652.021 -1.37313 1.60338 0
M  V30 6699 O 651.369 -2.1032 0.893187 0
M  V30 6700 C 651.579 0.365096 3.47085 0
M  V30 6701 C 652.927 0.274964 4.23709 0
M  V30 6702 O 653.951 0.29816 3.5495 0
M  V30 6703 O 652.81 0.206549 5.4611 0
M  V30 6704 H 649.904 -0.00429724 0.826989 0
M  V30 6705 H 652.45 0.736308 1.52894 0
M  V30 6706 H 651.222 1.39237 3.65689 0
M  V30 6707 H 650.845 -0.294733 3.96506 0
M  V30 6708 N 651.842 -1.52309 0.404946 0
M  V30 6709 C 653.119 -1.94237 -0.230544 0
M  V30 6710 C 653.499 -1.34154 -1.6299 0
M  V30 6711 O 652.847 -0.515713 -2.22604 0
M  V30 6712 C 653.057 -3.48166 -0.241106 0
M  V30 6713 C 654.405 -4.22074 -0.462488 0
M  V30 6714 O 655.429 -3.54754 -0.320644 0
M  V30 6715 O 654.288 -5.41443 -0.741708 0
M  V30 6716 H 651.382 -0.813766 -0.147358 0
M  V30 6717 H 653.928 -1.6333 0.460587 0
M  V30 6718 H 652.7 -3.84269 0.738467 0
M  V30 6719 H 652.323 -3.85422 -0.97651 0
M  V30 6720 N 653.32 -0.135238 -1.57019 0
M  V30 6721 C 654.545 0.529343 -2.00531 0
M  V30 6722 C 654.97 1.58391 -1.01459 0
M  V30 6723 O 654.328 1.81296 0.0113986 0
M  V30 6724 C 654.376 1.11748 -3.42848 0
M  V30 6725 O 653.48 2.23267 -3.46736 0
M  V30 6726 H 652.821 0.130669 -0.651016 0
M  V30 6727 H 655.351 -0.228503 -2.0332 0
M  V30 6728 H 655.361 1.44905 -3.81401 0
M  V30 6729 H 654.036 0.345147 -4.14465 0
M  V30 6730 H 652.613 1.91428 -3.20015 0
M  V30 6731 N 654.798 1.5699 0.138552 0
M  V30 6732 C 655.746 1.99858 1.18994 0
M  V30 6733 C 656.74 0.89231 1.43994 0
M  V30 6734 O 657.946 1.0775 1.44187 0
M  V30 6735 H 654.321 0.636325 0.400743 0
M  V30 6736 H 656.292 2.87427 0.801755 0
M  V30 6737 C 655.041 2.40235 2.51361 0
M  V30 6738 H 654.364 3.24917 2.32957 0
M  V30 6739 H 655.804 2.74045 3.23535 0
M  V30 6740 C 654.263 1.25829 3.1252 0
M  V30 6741 O 654.793 0.563604 3.97727 0
M  V30 6742 N 652.999 1.02036 2.72097 0
M  V30 6743 H 652.546 1.58705 2.02905 0
M  V30 6744 H 652.504 0.256796 3.1335 0
M  V30 6745 N 656.276 -0.40816 1.52223 0
M  V30 6746 C 657.516 -1.16418 1.68006 0
M  V30 6747 C 657.88 -1.87749 0.401793 0
M  V30 6748 O 659.081 -2.65245 0.435743 0
M  V30 6749 C 657.352 -2.13143 2.86889 0
M  V30 6750 S 658.911 -2.96839 3.2316 0
M  V30 6751 H 655.729 -0.394373 0.5916 0
M  V30 6752 H 658.331 -0.451349 1.90219 0
M  V30 6753 H 657.035 -1.59428 3.78168 0
M  V30 6754 H 656.566 -2.88963 2.66953 0
M  V30 6755 H 658.581 -4.151 2.71857 0
M  V30 6756 N 657.755 -1.42862 -0.66545 0
M  V30 6757 C 659.003 -1.43546 -1.42264 0
M  V30 6758 C 659.324 -0.0563116 -1.94919 0
M  V30 6759 O 658.594 0.906568 -1.73661 0
M  V30 6760 H 657.174 -0.528464 -0.527953 0
M  V30 6761 H 659.836 -1.78363 -0.785665 0
M  V30 6762 H 658.932 -2.14079 -2.27105 0
M  V30 6763 N 659.233 0.902656 -1.29189 0
M  V30 6764 C 660.165 2.01149 -1.09872 0
M  V30 6765 C 661.178 1.62732 -0.0471046 0
M  V30 6766 O 662.367 1.76107 -0.29132 0
M  V30 6767 C 659.467 3.32612 -0.649818 0
M  V30 6768 C 658.64 3.99574 -1.7793 0
M  V30 6769 C 657.699 5.09325 -1.32191 0
M  V30 6770 O 656.725 5.31919 -2.02611 0
M  V30 6771 N 657.927 5.80185 -0.191171 0
M  V30 6772 H 660.692 2.18276 -2.05368 0
M  V30 6773 H 658.253 1.07466 -1.2109 0
M  V30 6774 H 660.245 4.03375 -0.327199 0
M  V30 6775 H 658.815 3.11876 0.212597 0
M  V30 6776 H 658.035 3.22213 -2.27095 0
M  V30 6777 H 659.323 4.41056 -2.53668 0
M  V30 6778 H 658.721 5.64312 0.396016 0
M  V30 6779 H 657.278 6.5176 0.0721001 0
M  V30 6780 N 660.711 1.11618 1.11262 0
M  V30 6781 C 661.951 0.876154 1.8467 0
M  V30 6782 C 662.315 -0.587551 1.82789 0
M  V30 6783 O 663.516 -0.944411 2.51663 0
M  V30 6784 C 661.787 1.42461 3.2778 0
M  V30 6785 S 663.346 1.32185 4.18417 0
M  V30 6786 H 660.164 0.31628 0.636779 0
M  V30 6787 H 662.766 1.42404 1.33946 0
M  V30 6788 H 661.47 2.48367 3.26714 0
M  V30 6789 H 661.001 0.873844 3.83572 0
M  V30 6790 H 663.016 0.287607 4.95366 0
M  V30 6791 N 662.189 -1.289 0.906776 0
M  V30 6792 C 663.119 -2.29932 0.406659 0
M  V30 6793 C 664.1 -1.6189 -0.522061 0
M  V30 6794 O 665.285 -1.8935 -0.431283 0
M  V30 6795 C 662.415 -3.45425 -0.360366 0
M  V30 6796 C 661.369 -4.25316 0.478574 0
M  V30 6797 C 660.695 -5.33076 -0.416373 0
M  V30 6798 C 661.995 -4.92739 1.7322 0
M  V30 6799 H 663.689 -2.72013 1.25097 0
M  V30 6800 H 661.235 -1.30768 0.602977 0
M  V30 6801 H 663.188 -4.15186 -0.721029 0
M  V30 6802 H 661.912 -3.02206 -1.23852 0
M  V30 6803 H 660.571 -3.57273 0.821662 0
M  V30 6804 H 660.219 -4.86101 -1.29287 0
M  V30 6805 H 659.919 -5.8743 0.141309 0
M  V30 6806 H 661.443 -6.05686 -0.773072 0
M  V30 6807 H 662.857 -5.54898 1.44086 0
M  V30 6808 H 661.254 -5.57057 2.23175 0
M  V30 6809 H 662.324 -4.17625 2.46408 0
M  V30 6810 N 663.667 -0.670007 -1.42649 0
M  V30 6811 C 664.63 0.00204659 -2.292 0
M  V30 6812 C 665.63 0.733817 -1.4308 0
M  V30 6813 O 666.82 0.57254 -1.64522 0
M  V30 6814 C 663.952 1.01359 -3.25483 0
M  V30 6815 H 665.145 -0.759696 -2.90118 0
M  V30 6816 H 662.698 -0.432105 -1.50208 0
M  V30 6817 H 663.433 1.80399 -2.69493 0
M  V30 6818 H 663.218 0.492323 -3.88997 0
M  V30 6819 H 664.708 1.4824 -3.90403 0
M  V30 6820 N 665.145 1.52092 -0.413018 0
M  V30 6821 C 666.385 2.03765 0.160975 0
M  V30 6822 C 666.749 1.29174 1.4205 0
M  V30 6823 O 667.95 1.71093 2.07318 0
M  V30 6824 C 666.221 3.55167 0.398871 0
M  V30 6825 S 667.78 4.28619 0.939755 0
M  V30 6826 H 664.598 0.709685 0.0432281 0
M  V30 6827 H 667.2 1.87102 -0.566831 0
M  V30 6828 H 665.904 4.07034 -0.524544 0
M  V30 6829 H 665.435 3.7608 1.15444 0
M  V30 6830 H 667.45 4.43773 2.21991 0
M  V30 6831 N 666.623 0.143563 1.56945 0
M  V30 6832 C 667.87 -0.508407 1.96014 0
M  V30 6833 C 668.198 -1.65099 1.02824 0
M  V30 6834 O 667.453 -1.95618 0.0567764 0
M  V30 6835 C 667.752 -1.05885 3.41355 0
M  V30 6836 C 667.418 -0.0350809 4.50886 0
M  V30 6837 C 666.08 0.246362 4.80569 0
M  V30 6838 C 668.432 0.661282 5.16988 0
M  V30 6839 C 665.76 1.23003 5.73661 0
M  V30 6840 C 668.112 1.63375 6.11139 0
M  V30 6841 C 666.776 1.92292 6.39203 0
M  V30 6842 H 666.046 -0.186039 0.717266 0
M  V30 6843 H 668.693 0.229667 1.90118 0
M  V30 6844 H 666.998 -1.87419 3.44066 0
M  V30 6845 H 668.695 -1.57183 3.6891 0
M  V30 6846 H 665.285 -0.264622 4.27782 0
M  V30 6847 H 669.469 0.457038 4.94191 0
M  V30 6848 H 664.725 1.46056 5.93698 0
M  V30 6849 H 668.899 2.17887 6.61436 0
M  V30 6850 H 666.526 2.68666 7.11142 0
M  V30 6851 N 668.101 -1.57061 -0.130224 0
M  V30 6852 C 669.329 -1.88432 -0.854456 0
M  V30 6853 C 669.744 -0.733608 -1.73964 0
M  V30 6854 O 669.101 0.296029 -1.80083 0
M  V30 6855 C 669.152 -3.1918 -1.69724 0
M  V30 6856 O 668.873 -4.2982 -0.847705 0
M  V30 6857 C 670.374 -3.6418 -2.5276 0
M  V30 6858 H 667.594 -0.624193 -0.246221 0
M  V30 6859 H 670.138 -2.04159 -0.11798 0
M  V30 6860 H 668.293 -3.05156 -2.3866 0
M  V30 6861 H 668.707 -5.04689 -1.42792 0
M  V30 6862 H 670.181 -4.58457 -3.07443 0
M  V30 6863 H 670.658 -2.90285 -3.29592 0
M  V30 6864 H 671.264 -3.80954 -1.89087 0
M  V30 6865 N 669.579 0.400081 -1.52437 0
M  V30 6866 C 670.827 1.14392 -1.6661 0
M  V30 6867 C 671.148 1.90792 -0.402927 0
M  V30 6868 O 670.418 1.87042 0.582425 0
M  V30 6869 H 668.998 0.425275 -0.614125 0
M  V30 6870 H 671.66 0.455076 -1.89513 0
M  V30 6871 H 670.756 1.85298 -2.51139 0
M  V30 6872 N 671.057 1.43213 0.657864 0
M  V30 6873 C 672.004 1.48011 1.77092 0
M  V30 6874 C 672.974 0.330291 1.62783 0
M  V30 6875 O 674.159 0.536787 1.83094 0
M  V30 6876 C 671.299 1.40461 3.15222 0
M  V30 6877 C 670.412 2.65612 3.40697 0
M  V30 6878 C 669.547 2.50083 4.68649 0
M  V30 6879 C 668.586 3.70525 4.87214 0
M  V30 6880 N 667.723 3.53835 6.0642 0
M  V30 6881 H 672.563 2.43121 1.72326 0
M  V30 6882 H 670.1 1.20687 0.841013 0
M  V30 6883 H 672.058 1.34079 3.95068 0
M  V30 6884 H 670.688 0.489359 3.19069 0
M  V30 6885 H 669.74 2.82292 2.54982 0
M  V30 6886 H 671.052 3.5509 3.50303 0
M  V30 6887 H 670.206 2.41383 5.56614 0
M  V30 6888 H 668.945 1.58121 4.61356 0
M  V30 6889 H 667.95 3.79639 3.97686 0
M  V30 6890 H 669.175 4.63489 4.96341 0
M  V30 6891 H 667.121 2.64604 6.00267 0
M  V30 6892 H 667.038 4.36912 6.16963 0
M  V30 6893 H 668.306 3.48978 6.97019 0
M  V30 6894 N 672.536 -0.895792 1.29666 0
M  V30 6895 C 673.766 -1.67757 1.20586 0
M  V30 6896 C 674.174 -1.87729 -0.235432 0
M  V30 6897 O 673.517 -1.41706 -1.16898 0
M  V30 6898 C 673.579 -3.08117 1.85215 0
M  V30 6899 C 673.243 -3.1136 3.3452 0
M  V30 6900 C 674.24 -2.91217 4.30684 0
M  V30 6901 C 671.925 -3.33302 3.75786 0
M  V30 6902 C 673.919 -2.92955 5.66089 0
M  V30 6903 C 671.606 -3.3467 5.11311 0
M  V30 6904 C 672.604 -3.14519 6.06273 0
M  V30 6905 O 672.292 -3.15684 7.39323 0
M  V30 6906 H 672.024 -0.530601 0.418854 0
M  V30 6907 H 674.578 -1.12831 1.71634 0
M  V30 6908 H 672.808 -3.64661 1.28683 0
M  V30 6909 H 674.497 -3.68399 1.70403 0
M  V30 6910 H 675.263 -2.74074 4.00136 0
M  V30 6911 H 671.142 -3.48025 3.02324 0
M  V30 6912 H 674.686 -2.77145 6.40185 0
M  V30 6913 H 670.583 -3.51346 5.41504 0
M  V30 6914 H 671.351 -3.31924 7.48177 0
M  V30 6915 N 674.014 -1.12206 -1.10668 0
M  V30 6916 C 675.425 -0.890657 -1.64086 0
M  V30 6917 C 675.776 0.575502 -1.8757 0
M  V30 6918 O 674.901 1.4394 -1.61587 0
M  V30 6919 C 675.496 -1.61029 -2.98085 0
M  V30 6920 C 674.055 -1.4251 -3.48379 0
M  V30 6921 C 673.202 -1.64778 -2.23033 0
M  V30 6922 H 676.153 -1.27718 -0.94201 0
M  V30 6923 H 676.174 -1.05993 -3.65439 0
M  V30 6924 H 675.686 -2.67735 -2.80962 0
M  V30 6925 H 673.787 -0.380497 -3.70652 0
M  V30 6926 H 673.9 -2.17959 -4.26651 0
M  V30 6927 H 672.264 -1.07171 -2.31055 0
M  V30 6928 H 673.047 -2.72776 -2.08443 0
M  V30 6929 N 675.492 1.28418 -0.913599 0
M  V30 6930 C 676.72 1.99106 -0.562536 0
M  V30 6931 C 677.135 1.68273 0.856137 0
M  V30 6932 O 676.492 0.935401 1.56705 0
M  V30 6933 C 676.543 3.5338 -0.761903 0
M  V30 6934 O 676.264 3.83127 -2.12475 0
M  V30 6935 C 677.765 4.41328 -0.417651 0
M  V30 6936 H 674.985 0.635798 -0.214481 0
M  V30 6937 H 677.529 1.63618 -1.22676 0
M  V30 6938 H 675.684 3.8713 -0.144676 0
M  V30 6939 H 676.098 4.77763 -2.16431 0
M  V30 6940 H 677.572 5.48642 -0.607919 0
M  V30 6941 H 678.049 4.34422 0.646108 0
M  V30 6942 H 678.655 4.13074 -1.01241 0
M  V30 6943 N 676.97 0.677563 1.42291 0
M  V30 6944 C 677.88 0.000962654 2.346 0
M  V30 6945 C 678.896 -0.785833 1.55244 0
M  V30 6946 O 680.072 -0.727523 1.87801 0
M  V30 6947 C 677.137 -0.936746 3.33805 0
M  V30 6948 C 676.198 -0.144173 4.29058 0
M  V30 6949 C 675.431 -1.03722 5.23524 0
M  V30 6950 O 675.654 -2.27675 5.22992 0
M  V30 6951 O 674.588 -0.496542 5.99848 0
M  V30 6952 H 678.414 0.761397 2.94001 0
M  V30 6953 H 675.999 0.43781 1.42841 0
M  V30 6954 H 677.881 -1.47497 3.94744 0
M  V30 6955 H 676.556 -1.67698 2.76874 0
M  V30 6956 H 675.463 0.438224 3.71524 0
M  V30 6957 H 676.796 0.55701 4.89038 0
M  V30 6958 N 678.448 -1.51871 0.421078 0
M  V30 6959 C 679.697 -2.01125 -0.152206 0
M  V30 6960 C 680.01 -1.3106 -1.45199 0
M  V30 6961 O 681.216 -1.71195 -2.10724 0
M  V30 6962 C 679.672 -3.58458 -0.3218 0
M  V30 6963 C 679.28 -4.37448 0.96659 0
M  V30 6964 C 681.024 -4.15908 -0.84973 0
M  V30 6965 C 678.931 -5.86451 0.763529 0
M  V30 6966 H 677.861 -0.751556 -0.0606565 0
M  V30 6967 H 680.512 -1.75115 0.548354 0
M  V30 6968 H 678.894 -3.80847 -1.08498 0
M  V30 6969 H 680.068 -4.26814 1.73684 0
M  V30 6970 H 678.383 -3.91373 1.42183 0
M  V30 6971 H 680.98 -5.24922 -1.01788 0
M  V30 6972 H 681.323 -3.74031 -1.82774 0
M  V30 6973 H 681.856 -3.97535 -0.145297 0
M  V30 6974 H 678.595 -6.3271 1.71344 0
M  V30 6975 H 678.115 -5.99791 0.0327889 0
M  V30 6976 H 679.794 -6.45697 0.410354 0
M  V30 6977 N 679.926 -0.151884 -1.56866 0
M  V30 6978 C 681.156 0.504081 -2.00356 0
M  V30 6979 C 681.564 1.58639 -1.03103 0
M  V30 6980 O 680.907 1.83688 -0.0207931 0
M  V30 6981 C 680.969 1.15975 -3.40279 0
M  V30 6982 C 680.633 0.221453 -4.56463 0
M  V30 6983 C 681.63 -0.552766 -5.16953 0
M  V30 6984 C 679.315 0.122936 -5.0215 0
M  V30 6985 C 681.309 -1.4129 -6.21543 0
M  V30 6986 C 678.996 -0.740801 -6.06593 0
M  V30 6987 C 679.994 -1.50732 -6.6616 0
M  V30 6988 O 679.682 -2.35666 -7.68581 0
M  V30 6989 H 679.414 0.135279 -0.662326 0
M  V30 6990 H 681.968 -0.244916 -2.03935 0
M  V30 6991 H 680.198 1.95649 -3.33554 0
M  V30 6992 H 681.887 1.71594 -3.67846 0
M  V30 6993 H 682.653 -0.486716 -4.82552 0
M  V30 6994 H 678.532 0.70931 -4.5551 0
M  V30 6995 H 682.076 -2.01166 -6.67966 0
M  V30 6996 H 677.973 -0.808125 -6.40421 0
M  V30 6997 H 678.741 -2.28967 -7.85822 0
M  V30 6998 N 681.404 1.57128 0.121893 0
M  V30 6999 C 682.336 1.96773 1.17529 0
M  V30 7000 C 683.349 0.866668 1.37814 0
M  V30 7001 O 684.538 1.14497 1.3694 0
M  V30 7002 C 681.638 2.24832 2.53582 0
M  V30 7003 C 680.811 3.56138 2.53939 0
M  V30 7004 C 679.87 3.72443 3.71716 0
M  V30 7005 O 678.896 4.44584 3.55434 0
M  V30 7006 N 680.098 3.10993 4.90167 0
M  V30 7007 H 682.863 2.87743 0.838086 0
M  V30 7008 H 680.424 1.58881 0.311199 0
M  V30 7009 H 682.416 2.32958 3.30927 0
M  V30 7010 H 680.986 1.40002 2.79496 0
M  V30 7011 H 680.206 3.59226 1.62329 0
M  V30 7012 H 681.494 4.42448 2.51231 0
M  V30 7013 H 680.892 2.52345 5.06299 0
M  V30 7014 H 679.449 3.24644 5.65198 0
M  V30 7015 N 682.882 -0.391992 1.52647 0
M  V30 7016 C 684.159 -1.15136 1.58123 0
M  V30 7017 C 684.539 -2.07786 0.372597 0
M  V30 7018 O 683.887 -2.19374 -0.639304 0
M  V30 7019 C 684.097 -1.91367 2.91856 0
M  V30 7020 C 685.445 -2.46833 3.45483 0
M  V30 7021 O 686.469 -2.01527 2.9371 0
M  V30 7022 O 685.328 -3.29587 4.3593 0
M  V30 7023 H 682.422 -0.526649 0.637629 0
M  V30 7024 H 684.968 -0.397386 1.64982 0
M  V30 7025 H 683.74 -1.23597 3.71268 0
M  V30 7026 H 683.363 -2.73732 2.88369 0
M  V30 7027 N 684.36 -1.4356 -0.65026 0
M  V30 7028 C 685.588 -1.48779 -1.43779 0
M  V30 7029 C 686.003 -0.106593 -1.88499 0
M  V30 7030 O 685.36 0.883766 -1.59674 0
M  V30 7031 C 685.411 -2.43618 -2.67081 0
M  V30 7032 O 685.132 -3.76367 -2.24231 0
M  V30 7033 C 686.633 -2.5811 -3.60409 0
M  V30 7034 H 683.853 -0.50521 -0.441593 0
M  V30 7035 H 686.397 -1.88332 -0.796941 0
M  V30 7036 H 684.552 -2.07253 -3.273 0
M  V30 7037 H 684.966 -4.27394 -3.0403 0
M  V30 7038 H 686.44 -3.28539 -4.43583 0
M  V30 7039 H 686.917 -1.627 -4.07953 0
M  V30 7040 H 687.523 -2.95298 -3.0607 0
M  V30 7041 N 685.838 0.888903 -1.30139 0
M  V30 7042 C 687.084 1.6428 -1.18912 0
M  V30 7043 C 687.417 1.92499 0.256477 0
M  V30 7044 O 686.692 1.54312 1.18397 0
M  V30 7045 C 686.975 2.9851 -2.01405 0
M  V30 7046 C 686.828 2.77288 -3.54163 0
M  V30 7047 C 688.147 3.99383 -1.84882 0
M  V30 7048 H 685.266 0.596148 -0.433333 0
M  V30 7049 H 687.908 1.0289 -1.5973 0
M  V30 7050 H 686.058 3.50907 -1.66722 0
M  V30 7051 H 687.73 2.31709 -3.98884 0
M  V30 7052 H 685.973 2.11867 -3.78543 0
M  V30 7053 H 686.644 3.72717 -4.07168 0
M  V30 7054 H 689.12 3.56132 -2.15196 0
M  V30 7055 H 687.996 4.91222 -2.44934 0
M  V30 7056 H 688.257 4.34674 -0.806902 0
M  V30 7057 N 687.317 1.12792 1.10072 0
M  V30 7058 C 688.247 0.821688 2.18565 0
M  V30 7059 C 689.228 -0.21612 1.68721 0
M  V30 7060 O 690.413 -0.0764932 1.94049 0
M  V30 7061 C 687.543 0.279624 3.46172 0
M  V30 7062 C 686.497 1.25092 4.09312 0
M  V30 7063 C 685.823 0.568916 5.31665 0
M  V30 7064 C 687.123 2.60699 4.52585 0
M  V30 7065 H 688.817 1.72888 2.44438 0
M  V30 7066 H 686.363 0.832702 1.17482 0
M  V30 7067 H 688.316 0.053099 4.21367 0
M  V30 7068 H 687.04 -0.662929 3.19801 0
M  V30 7069 H 685.699 1.46332 3.36129 0
M  V30 7070 H 685.347 -0.378898 5.01571 0
M  V30 7071 H 685.047 1.21687 5.74862 0
M  V30 7072 H 686.571 0.351517 6.09587 0
M  V30 7073 H 687.985 2.43465 5.19035 0
M  V30 7074 H 686.382 3.21608 5.06644 0
M  V30 7075 H 687.452 3.1886 3.65317 0
M  V30 7076 N 688.795 -1.27931 0.920396 0
M  V30 7077 C 690.206 -1.76707 0.602616 0
M  V30 7078 C 690.557 -1.75249 -0.882159 0
M  V30 7079 O 689.682 -1.35135 -1.69019 0
M  V30 7080 C 690.277 -3.20884 1.08714 0
M  V30 7081 C 688.836 -3.67356 0.820157 0
M  V30 7082 C 687.983 -2.47525 1.25006 0
M  V30 7083 H 690.934 -1.14301 1.10095 0
M  V30 7084 H 690.955 -3.78045 0.431535 0
M  V30 7085 H 690.467 -3.21913 2.1678 0
M  V30 7086 H 688.568 -3.7178 -0.247012 0
M  V30 7087 H 688.681 -4.57181 1.43257 0
M  V30 7088 H 687.045 -2.45765 0.668698 0
M  V30 7089 H 687.828 -2.51269 2.3392 0
M  V30 7090 N 690.273 -0.685099 -1.4193 0
M  V30 7091 C 691.223 0.00977295 -2.27998 0
M  V30 7092 C 692.207 0.763315 -1.41641 0
M  V30 7093 O 693.399 0.640532 -1.65004 0
M  V30 7094 C 690.528 0.952972 -3.29808 0
M  V30 7095 C 689.614 0.196231 -4.23646 0
M  V30 7096 N 690.005 -0.804401 -4.99363 0
M  V30 7097 C 688.303 0.433213 -4.43891 0
M  V30 7098 C 689.004 -1.25646 -5.67968 0
M  V30 7099 N 687.98 -0.5844 -5.4045 0
M  V30 7100 H 691.782 -0.757586 -2.83968 0
M  V30 7101 H 689.296 -0.515037 -1.54017 0
M  V30 7102 H 691.293 1.46585 -3.9028 0
M  V30 7103 H 689.953 1.72004 -2.75399 0
M  V30 7104 H 690.964 -1.18429 -5.04177 0
M  V30 7105 H 687.641 1.17899 -4.00507 0
M  V30 7106 H 689.031 -2.08622 -6.38691 0
M  V30 7107 N 691.751 1.51645 -0.429126 0
M  V30 7108 C 692.997 2.02314 0.140286 0
M  V30 7109 C 693.33 1.31314 1.43074 0
M  V30 7110 O 692.605 0.425531 1.89788 0
M  V30 7111 C 692.888 3.5822 0.36749 0
M  V30 7112 C 692.741 4.39846 -0.941039 0
M  V30 7113 C 694.06 4.25055 1.14089 0
M  V30 7114 H 691.179 0.735335 0.0495112 0
M  V30 7115 H 693.821 1.81358 -0.566514 0
M  V30 7116 H 691.971 3.76207 0.969556 0
M  V30 7117 H 693.643 4.33527 -1.57646 0
M  V30 7118 H 691.886 4.05259 -1.54751 0
M  V30 7119 H 692.557 5.47069 -0.73621 0
M  V30 7120 H 695.033 4.11288 0.630986 0
M  V30 7121 H 693.909 5.34038 1.26863 0
M  V30 7122 H 694.17 3.85358 2.16683 0
M  V30 7123 N 693.229 0.160201 1.56784 0
M  V30 7124 C 694.176 -0.774416 2.1742 0
M  V30 7125 C 695.146 -1.23483 1.11091 0
M  V30 7126 O 696.331 -1.30499 1.39193 0
M  V30 7127 C 693.471 -2.00283 2.81035 0
M  V30 7128 C 692.584 -1.58701 4.01793 0
M  V30 7129 C 691.719 -2.76824 4.53367 0
M  V30 7130 C 690.758 -2.31679 5.66561 0
M  V30 7131 N 689.895 -3.42856 6.12694 0
M  V30 7132 H 694.735 -0.250542 2.96945 0
M  V30 7133 H 692.272 -0.111943 1.46673 0
M  V30 7134 H 694.23 -2.72316 3.16069 0
M  V30 7135 H 692.86 -2.5006 2.04132 0
M  V30 7136 H 691.912 -0.76384 3.72652 0
M  V30 7137 H 693.224 -1.21555 4.83762 0
M  V30 7138 H 692.378 -3.57029 4.90525 0
M  V30 7139 H 691.117 -3.17223 3.70433 0
M  V30 7140 H 690.122 -1.49917 5.28966 0
M  V30 7141 H 691.347 -1.9235 6.5129 0
M  V30 7142 H 689.293 -3.82852 5.32692 0
M  V30 7143 H 689.21 -3.09767 6.89624 0
M  V30 7144 H 690.478 -4.23379 6.545 0
M  V30 7145 N 694.707 -1.5719 -0.113559 0
M  V30 7146 C 695.617 -2.04041 -1.15777 0
M  V30 7147 C 696.633 -0.961812 -1.45001 0
M  V30 7148 O 697.809 -1.2737 -1.56009 0
M  V30 7149 C 694.874 -2.43994 -2.46308 0
M  V30 7150 C 693.935 -3.65962 -2.24433 0
M  V30 7151 C 693.168 -4.04 -3.4874 0
M  V30 7152 O 693.391 -3.42321 -4.56259 0
M  V30 7153 O 692.325 -4.97069 -3.3942 0
M  V30 7154 H 696.151 -2.93248 -0.789899 0
M  V30 7155 H 693.736 -1.45828 -0.324748 0
M  V30 7156 H 695.618 -2.70401 -3.23204 0
M  V30 7157 H 694.293 -1.57932 -2.82558 0
M  V30 7158 H 693.2 -3.44697 -1.45377 0
M  V30 7159 H 694.533 -4.52746 -1.93084 0
M  V30 7160 N 696.185 0.383891 -1.52853 0
M  V30 7161 C 697.148 1.45197 -1.77343 0
M  V30 7162 C 698.148 1.47362 -0.643522 0
M  V30 7163 O 699.338 1.48443 -0.911613 0
M  V30 7164 C 696.47 2.8445 -1.87885 0
M  V30 7165 H 697.663 1.24764 -2.72716 0
M  V30 7166 H 695.216 0.615939 -1.43652 0
M  V30 7167 H 695.951 3.10222 -0.94515 0
M  V30 7168 H 695.736 2.8428 -2.70051 0
M  V30 7169 H 697.226 3.61832 -2.08488 0
M  V30 7170 N 697.663 1.43903 0.642637 0
M  V30 7171 C 698.909 1.46296 1.40447 0
M  V30 7172 C 699.242 0.0908361 1.93987 0
M  V30 7173 O 698.517 -0.889884 1.72949 0
M  V30 7174 C 698.8 2.51399 2.57819 0
M  V30 7175 C 698.653 3.97926 2.09702 0
M  V30 7176 C 699.972 2.53125 3.60022 0
M  V30 7177 H 697.091 0.532676 0.509338 0
M  V30 7178 H 699.733 1.75515 0.727635 0
M  V30 7179 H 697.883 2.26614 3.1556 0
M  V30 7180 H 699.555 4.33804 1.5688 0
M  V30 7181 H 697.798 4.10252 1.40982 0
M  V30 7182 H 698.469 4.67096 2.94152 0
M  V30 7183 H 700.945 2.75242 3.12059 0
M  V30 7184 H 699.821 3.28589 4.39682 0
M  V30 7185 H 700.082 1.56895 4.13324 0
M  V30 7186 N 699.141 -0.881989 1.30609 0
M  V30 7187 C 700.071 -2.00413 1.1982 0
M  V30 7188 C 701.052 -1.69871 0.0881538 0
M  V30 7189 O 702.237 -1.92304 0.2707 0
M  V30 7190 C 699.367 -3.35641 0.89233 0
M  V30 7191 C 698.321 -3.80451 1.96064 0
M  V30 7192 C 697.647 -5.13003 1.5077 0
M  V30 7193 C 698.947 -3.98855 3.37213 0
M  V30 7194 H 700.641 -2.09698 2.13699 0
M  V30 7195 H 698.187 -1.00754 1.02882 0
M  V30 7196 H 700.14 -4.13669 0.803497 0
M  V30 7197 H 698.864 -3.26497 -0.0821381 0
M  V30 7198 H 697.523 -3.04654 2.03916 0
M  V30 7199 H 697.171 -5.0029 0.521417 0
M  V30 7200 H 696.871 -5.43956 2.22229 0
M  V30 7201 H 698.395 -5.93554 1.43271 0
M  V30 7202 H 699.809 -4.67312 3.32103 0
M  V30 7203 H 698.206 -4.41188 4.06784 0
M  V30 7204 H 699.276 -3.02614 3.78883 0
M  V30 7205 N 700.619 -1.13374 -1.09472 0
M  V30 7206 C 701.847 -0.918351 -1.85402 0
M  V30 7207 C 702.262 0.53281 -1.81126 0
M  V30 7208 O 701.619 1.36879 -1.20708 0
M  V30 7209 C 701.67 -1.39743 -3.33398 0
M  V30 7210 O 701.391 -2.79172 -3.37631 0
M  V30 7211 C 702.892 -1.22042 -4.2617 0
M  V30 7212 H 700.112 -0.327511 -0.585643 0
M  V30 7213 H 702.656 -1.50617 -1.38328 0
M  V30 7214 H 700.811 -0.852619 -3.77901 0
M  V30 7215 H 701.225 -3.00428 -4.29934 0
M  V30 7216 H 702.699 -1.60438 -5.2817 0
M  V30 7217 H 703.176 -0.162047 -4.38901 0
M  V30 7218 H 703.782 -1.75323 -3.87482 0
M  V30 7219 N 702.098 1.27442 -0.927168 0
M  V30 7220 C 703.045 2.26863 -0.424459 0
M  V30 7221 C 704.015 1.5813 0.508346 0
M  V30 7222 O 705.2 1.85946 0.42762 0
M  V30 7223 C 702.34 3.43639 0.31718 0
M  V30 7224 C 701.453 4.27087 -0.649675 0
M  V30 7225 C 700.588 5.31082 0.111753 0
M  V30 7226 C 699.627 6.062 -0.847843 0
M  V30 7227 N 698.764 7.01999 -0.119074 0
M  V30 7228 H 703.604 2.69239 -1.27728 0
M  V30 7229 H 701.141 1.32394 -0.641106 0
M  V30 7230 H 703.099 4.10155 0.763486 0
M  V30 7231 H 701.729 3.02217 1.13424 0
M  V30 7232 H 700.781 3.60491 -1.21451 0
M  V30 7233 H 702.093 4.79242 -1.38307 0
M  V30 7234 H 701.247 6.03544 0.618 0
M  V30 7235 H 699.986 4.7973 0.878114 0
M  V30 7236 H 698.991 5.32577 -1.36534 0
M  V30 7237 H 700.216 6.59642 -1.61398 0
M  V30 7238 H 698.162 6.52977 0.629051 0
M  V30 7239 H 698.079 7.5184 -0.792046 0
M  V30 7240 H 699.347 7.78638 0.366537 0
M  V30 7241 O 703.615 0.831378 1.38457 0
M  V30 7242 H 704.306 0.416578 1.89167 0
M  V30 END ATOM
M  V30 BEGIN BOND
M  V30 END BOND
M  V30 END CTAB
M  END
$$$$
