drugbank_target|Q8XB74 Sulfoxide reductase catalytic subunit YedY (DB03904)
 OpenBabel12092120033D

  0  0  0     0  0            999 V3000
M  V30 BEGIN CTAB
M  V30 COUNTS 5275 5354 0 0 0
M  V30 BEGIN ATOM
M  V30 1 H -0.908 1.98254 -0.117106 0
M  V30 2 N 0 1.576 0 0
M  V30 3 C 0.933 2.03868 1.02534 0
M  V30 4 C 1.911 0.928543 1.3348 0
M  V30 5 O 3.095 1.19667 1.45644 0
M  V30 6 C 0.222 2.43627 2.35294 0
M  V30 7 C -0.732 3.65373 2.2001 0
M  V30 8 S 0.101 5.13292 1.52614 0
M  V30 9 C 1.257 5.56322 2.86805 0
M  V30 10 H 1.49 2.90518 0.631377 0
M  V30 11 H -0.977 1.52953 0.210867 0
M  V30 12 H 0.981 2.67203 3.11629 0
M  V30 13 H -0.358 1.57376 2.7183 0
M  V30 14 H -1.165 3.90944 3.18086 0
M  V30 15 H -1.563 3.418 1.51819 0
M  V30 16 H 0.729 5.58782 3.83104 0
M  V30 17 H 1.672 6.56266 2.65933 0
M  V30 18 H 2.08 4.83886 2.90714 0
M  V30 19 N 1.4781 -0.272755 1.55222 0
M  V30 20 C 2.4251 -1.33716 1.88119 0
M  V30 21 C 3.3951 -1.49066 0.73271 0
M  V30 22 O 4.5801 -1.63469 0.984002 0
M  V30 23 C 1.7201 -2.69238 2.15882 0
M  V30 24 C 0.8331 -2.62108 3.43399 0
M  V30 25 C -0.0319 -3.89811 3.60861 0
M  V30 26 C -0.9929 -3.77193 4.8207 0
M  V30 27 N -1.8559 -4.9673 4.96189 0
M  V30 28 H 2.9841 -1.04962 2.78903 0
M  V30 29 H 0.5211 -0.507088 1.38083 0
M  V30 30 H 2.4791 -3.48089 2.29978 0
M  V30 31 H 1.1091 -2.96194 1.28331 0
M  V30 32 H 0.1611 -1.74967 3.37773 0
M  V30 33 H 1.4731 -2.48685 4.32386 0
M  V30 34 H 0.6271 -4.77103 3.74777 0
M  V30 35 H -0.6339 -4.06102 2.7006 0
M  V30 36 H -1.6289 -2.88284 4.68159 0
M  V30 37 H -0.4039 -3.62421 5.74307 0
M  V30 38 H -2.4579 -5.13431 4.08319 0
M  V30 39 H -2.5409 -4.85839 5.79221 0
M  V30 40 H -1.2729 -5.85594 5.1449 0
M  V30 41 N 2.9562 -1.48159 -0.537278 0
M  V30 42 C 3.9032 -1.62138 -1.64256 0
M  V30 43 C 4.8732 -0.463668 -1.59497 0
M  V30 44 O 6.0582 -0.686241 -1.78032 0
M  V30 45 C 3.1982 -1.66028 -3.02537 0
M  V30 46 C 2.3112 -2.92855 -3.17585 0
M  V30 47 C 1.4462 -2.87952 -4.46382 0
M  V30 48 C 0.4852 -4.09516 -4.54932 0
M  V30 49 N -0.3778 -4.02733 -5.75109 0
M  V30 50 H 4.4622 -2.56529 -1.51647 0
M  V30 51 H 1.9992 -1.27224 -0.738414 0
M  V30 52 H 3.9572 -1.66265 -3.82638 0
M  V30 53 H 2.5872 -0.751331 -3.13934 0
M  V30 54 H 1.6392 -3.02395 -2.30784 0
M  V30 55 H 2.9512 -3.82822 -3.19764 0
M  V30 56 H 2.1052 -2.8655 -5.34765 0
M  V30 57 H 0.8442 -1.95702 -4.46712 0
M  V30 58 H -0.1508 -4.11201 -3.64957 0
M  V30 59 H 1.0742 -5.02917 -4.56346 0
M  V30 60 H -0.9798 -3.13299 -5.76351 0
M  V30 61 H -1.0628 -4.86397 -5.78752 0
M  V30 62 H 0.2052 -4.05379 -6.65799 0
M  V30 63 N 4.4343 0.785586 -1.36625 0
M  V30 64 C 5.3823 1.91978 -1.31329 0
M  V30 65 C 6.3763 1.68162 -0.204416 0
M  V30 66 O 7.5823 1.76122 -0.371645 0
M  V30 67 H 3.9573 0.631087 -0.408942 0
M  V30 68 H 5.9283 1.93562 -2.27104 0
M  V30 69 C 4.6773 3.29055 -1.12329 0
M  V30 70 H 4.0003 3.4795 -1.96903 0
M  V30 71 H 5.4403 4.08756 -1.12671 0
M  V30 72 C 3.8993 3.36461 0.171861 0
M  V30 73 O 4.4293 3.84576 1.16035 0
M  V30 74 N 2.6353 2.89782 0.217846 0
M  V30 75 H 2.1823 2.50819 -0.587183 0
M  V30 76 H 2.1403 2.95119 1.08408 0
M  V30 77 N 5.9124 1.20967 1.01018 0
M  V30 78 C 6.8444 0.922059 2.09835 0
M  V30 79 C 7.8574 -0.0927106 1.62536 0
M  V30 80 O 9.0464 0.139127 1.77957 0
M  V30 81 C 6.1464 0.362004 3.36961 0
M  V30 82 C 5.3194 1.42986 4.13369 0
M  V30 83 C 4.3784 0.879976 5.1879 0
M  V30 84 O 3.4044 1.56219 5.47343 0
M  V30 85 N 4.6064 -0.307396 5.79686 0
M  V30 86 H 7.3714 1.8588 2.35093 0
M  V30 87 H 4.9324 1.11422 1.1746 0
M  V30 88 H 6.9244 -0.0201474 4.04695 0
M  V30 89 H 5.4944 -0.479437 3.08902 0
M  V30 90 H 4.7144 1.98608 3.40512 0
M  V30 91 H 6.0024 2.14885 4.61196 0
M  V30 92 H 5.4004 -0.878796 5.58832 0
M  V30 93 H 3.9574 -0.631115 6.48737 0
M  V30 94 N 7.3905 -1.2043 1.01659 0
M  V30 95 C 8.6375 -1.89797 0.705917 0
M  V30 96 C 8.9655 -1.78848 -0.764439 0
M  V30 97 O 8.2205 -1.16694 -1.57102 0
M  V30 98 C 8.5195 -3.40464 1.08714 0
M  V30 99 C 8.1855 -3.71614 2.5537 0
M  V30 100 C 6.8475 -3.79826 2.95441 0
M  V30 101 C 9.1995 -3.85915 3.50313 0
M  V30 102 C 6.5275 -3.99797 4.29394 0
M  V30 103 C 8.8795 -4.07396 4.83954 0
M  V30 104 C 7.5435 -4.13837 5.23732 0
M  V30 105 H 6.8135 -0.694518 0.258313 0
M  V30 106 H 9.4605 -1.42691 1.27717 0
M  V30 107 H 7.7655 -3.89385 0.434309 0
M  V30 108 H 9.4625 -3.92433 0.824461 0
M  V30 109 H 6.0525 -3.65822 2.23321 0
M  V30 110 H 10.2365 -3.78926 3.20513 0
M  V30 111 H 5.4925 -4.03018 4.59768 0
M  V30 112 H 9.6665 -4.17404 5.57447 0
M  V30 113 H 7.2935 -4.29064 6.27541 0
M  V30 114 N 8.8686 -0.792821 -1.36206 0
M  V30 115 C 9.7986 -0.207853 -2.32573 0
M  V30 116 C 10.7796 0.659055 -1.56813 0
M  V30 117 O 11.9646 0.592176 -1.84951 0
M  V30 118 C 9.0946 0.655449 -3.41059 0
M  V30 119 C 8.0486 -0.111842 -4.27854 0
M  V30 120 C 7.3746 0.872274 -5.27537 0
M  V30 121 C 8.6746 -1.30299 -5.05786 0
M  V30 122 H 10.3686 -1.01294 -2.81744 0
M  V30 123 H 7.9146 -0.48854 -1.3546 0
M  V30 124 H 9.8676 1.07464 -4.07467 0
M  V30 125 H 8.5916 1.49328 -2.90463 0
M  V30 126 H 7.2506 -0.512053 -3.63006 0
M  V30 127 H 6.8986 1.70523 -4.73214 0
M  V30 128 H 6.5986 0.363291 -5.86476 0
M  V30 129 H 8.1226 1.28996 -5.96818 0
M  V30 130 H 9.5366 -0.959379 -5.65216 0
M  V30 131 H 7.9336 -1.7455 -5.74154 0
M  V30 132 H 9.0036 -2.09663 -4.37229 0
M  V30 133 N 10.3467 1.47872 -0.545128 0
M  V30 134 C 11.2937 2.29849 0.2093 0
M  V30 135 C 12.2637 1.38313 0.919707 0
M  V30 136 O 13.4487 1.67277 0.917772 0
M  V30 137 C 10.5887 3.22019 1.24088 0
M  V30 138 C 9.7017 4.2864 0.537778 0
M  V30 139 C 8.8367 5.07973 1.5536 0
M  V30 140 C 7.8757 6.06381 0.8348 0
M  V30 141 N 7.0127 6.78717 1.79688 0
M  V30 142 H 11.8527 2.93845 -0.49591 0
M  V30 143 H 9.3897 1.44848 -0.256389 0
M  V30 144 H 11.3477 3.73868 1.85144 0
M  V30 145 H 9.9777 2.59914 1.91428 0
M  V30 146 H 9.0297 3.7994 -0.187046 0
M  V30 147 H 10.3417 4.98793 -0.0258907 0
M  V30 148 H 9.4957 5.63912 2.23803 0
M  V30 149 H 8.2347 4.37693 2.15118 0
M  V30 150 H 7.2397 5.49631 0.136388 0
M  V30 151 H 8.4647 6.78665 0.24313 0
M  V30 152 H 6.4107 6.11177 2.38326 0
M  V30 153 H 6.3277 7.44998 1.28505 0
M  V30 154 H 7.5957 7.39237 2.47282 0
M  V30 155 N 11.8248 0.280983 1.55075 0
M  V30 156 C 12.7348 -0.61388 2.26426 0
M  V30 157 C 13.7508 -1.16521 1.29224 0
M  V30 158 O 14.9268 -1.19426 1.62171 0
M  V30 159 C 11.9918 -1.7788 2.9759 0
M  V30 160 C 11.0528 -1.26355 4.10284 0
M  V30 161 C 10.2858 -2.37295 4.78045 0
M  V30 162 O 10.5088 -3.56777 4.45047 0
M  V30 163 O 9.4428 -2.05119 5.65871 0
M  V30 164 H 13.2688 -0.0356932 3.03679 0
M  V30 165 H 10.8538 0.0481686 1.49322 0
M  V30 166 H 12.7358 -2.45791 3.42293 0
M  V30 167 H 11.4108 -2.34397 2.23249 0
M  V30 168 H 10.3178 -0.550735 3.70024 0
M  V30 169 H 11.6508 -0.744065 4.86543 0
M  V30 170 N 13.3029 -1.57598 0.00835791 0
M  V30 171 C 14.5279 -1.95617 -0.689103 0
M  V30 172 C 14.9529 -0.883753 -1.66046 0
M  V30 173 O 14.3109 0.157352 -1.80616 0
M  V30 174 C 14.3589 -3.32736 -1.38994 0
M  V30 175 O 13.4629 -3.27631 -2.50463 0
M  V30 176 H 12.8039 -0.638379 -0.182668 0
M  V30 177 H 15.3339 -2.045 0.064036 0
M  V30 178 H 15.3439 -3.68494 -1.75147 0
M  V30 179 H 14.0189 -4.1034 -0.677778 0
M  V30 180 H 12.5959 -3.03561 -2.16576 0
M  V30 181 N 14.781 0.264519 -1.55364 0
M  V30 182 C 16.058 1.01677 -1.67096 0
M  V30 183 C 16.438 2.03996 -0.543015 0
M  V30 184 O 15.786 2.23907 0.45585 0
M  V30 185 C 15.996 1.66596 -3.0667 0
M  V30 186 C 17.344 2.17442 -3.64697 0
M  V30 187 O 18.368 1.76568 -3.09358 0
M  V30 188 O 17.227 2.92439 -4.61673 0
M  V30 189 H 14.321 0.472161 -0.678965 0
M  V30 190 H 16.867 0.259703 -1.67701 0
M  V30 191 H 15.639 0.924962 -3.80211 0
M  V30 192 H 15.262 2.48968 -3.10001 0
M  V30 193 N 16.2591 1.48442 0.529413 0
M  V30 194 C 17.5051 1.5672 1.28711 0
M  V30 195 C 17.8381 0.2406 1.92704 0
M  V30 196 O 17.1131 -0.753454 1.79313 0
M  V30 197 C 17.3961 2.70587 2.37603 0
M  V30 198 C 17.2491 4.12953 1.78297 0
M  V30 199 C 18.5681 2.80212 3.39366 0
M  V30 200 H 15.6871 0.570474 0.466613 0
M  V30 201 H 18.3291 1.80617 0.589706 0
M  V30 202 H 16.4791 2.50342 2.97088 0
M  V30 203 H 18.1511 4.44639 1.22858 0
M  V30 204 H 16.3941 4.19927 1.0883 0
M  V30 205 H 17.0651 4.88448 2.57144 0
M  V30 206 H 19.5411 2.98553 2.89836 0
M  V30 207 H 18.4171 3.61611 4.12951 0
M  V30 208 H 18.6781 1.88393 3.99951 0
M  V30 209 N 17.7372 -0.778329 1.37039 0
M  V30 210 C 18.9652 -1.56734 1.35063 0
M  V30 211 C 19.3802 -1.88686 -0.0655597 0
M  V30 212 O 18.7372 -1.5096 -1.02554 0
M  V30 213 C 18.7882 -2.88163 2.18276 0
M  V30 214 O 18.5092 -2.57583 3.54376 0
M  V30 215 C 20.0102 -3.82422 2.24206 0
M  V30 216 H 17.2302 -0.485778 0.462883 0
M  V30 217 H 19.7742 -0.965185 1.8029 0
M  V30 218 H 17.9292 -3.44818 1.76576 0
M  V30 219 H 18.3432 -3.41699 3.97922 0
M  V30 220 H 19.8172 -4.71667 2.86765 0
M  V30 221 H 20.2942 -4.21078 1.24861 0
M  V30 222 H 20.9002 -3.31697 2.6619 0
M  V30 223 N 19.2153 -1.21501 -1.00376 0
M  V30 224 C 20.1783 -0.976927 -2.07337 0
M  V30 225 C 21.1783 0.0525322 -1.60714 0
M  V30 226 O 22.3683 -0.184869 -1.73216 0
M  V30 227 C 19.5003 -0.473423 -3.37597 0
M  V30 228 H 20.6933 -1.92587 -2.29892 0
M  V30 229 H 18.2463 -1.03217 -1.17371 0
M  V30 230 H 18.9813 0.480379 -3.20722 0
M  V30 231 H 18.7663 -1.216 -3.72768 0
M  V30 232 H 20.2563 -0.32675 -4.1632 0
M  V30 233 N 20.6934 1.19889 -1.02296 0
M  V30 234 C 21.6034 2.26571 -0.608508 0
M  V30 235 C 22.6194 1.70299 0.356964 0
M  V30 236 O 23.7954 2.00235 0.216326 0
M  V30 237 C 20.8604 3.46677 0.0402814 0
M  V30 238 C 19.9214 4.18153 -0.97194 0
M  V30 239 C 19.1544 5.32525 -0.354016 0
M  V30 240 O 19.3774 5.64112 0.844604 0
M  V30 241 O 18.3114 5.92242 -1.07391 0
M  V30 242 H 22.1374 2.64251 -1.49684 0
M  V30 243 H 19.7224 1.26629 -0.792809 0
M  V30 244 H 21.6044 4.19475 0.402324 0
M  V30 245 H 20.2794 3.10858 0.902707 0
M  V30 246 H 19.1864 3.47499 -1.38546 0
M  V30 247 H 20.5194 4.57927 -1.80454 0
M  V30 248 N 22.1715 0.800033 1.35784 0
M  V30 249 C 23.3965 0.388511 2.03729 0
M  V30 250 C 23.8215 -0.990481 1.5991 0
M  V30 251 O 23.1795 -1.64013 0.772612 0
M  V30 252 C 23.2275 0.4726 3.5749 0
M  V30 253 O 22.3315 -0.51646 4.09153 0
M  V30 254 H 21.6725 0.163271 0.643614 0
M  V30 255 H 24.2025 1.0841 1.73518 0
M  V30 256 H 24.2125 0.34003 4.06581 0
M  V30 257 H 22.8875 1.47848 3.88734 0
M  V30 258 H 21.4645 -0.344673 3.71304 0
M  V30 259 N 23.6496 -1.47581 0.552962 0
M  V30 260 C 24.8956 -2.02782 0.0273648 0
M  V30 261 C 25.2286 -1.42687 -1.31734 0
M  V30 262 O 24.5036 -0.580897 -1.85623 0
M  V30 263 C 24.7866 -3.60031 -0.0702371 0
M  V30 264 C 24.6396 -4.30566 1.30126 0
M  V30 265 C 25.9586 -4.33028 -0.785771 0
M  V30 266 H 23.0776 -0.736912 0.0114185 0
M  V30 267 H 25.7196 -1.76056 0.714432 0
M  V30 268 H 23.8696 -3.82932 -0.655382 0
M  V30 269 H 25.5416 -4.19018 1.92929 0
M  V30 270 H 23.7846 -3.91086 1.87709 0
M  V30 271 H 24.4556 -5.39114 1.18573 0
M  V30 272 H 26.9316 -4.15095 -0.288982 0
M  V30 273 H 25.8076 -5.42695 -0.823013 0
M  V30 274 H 26.0686 -4.01945 -1.841 0
M  V30 275 N 25.1277 -0.289203 -1.54924 0
M  V30 276 C 26.3747 0.323519 -1.99899 0
M  V30 277 C 26.7027 1.54797 -1.17762 0
M  V30 278 O 25.9577 1.94237 -0.238835 0
M  V30 279 C 26.2567 0.736119 -3.49737 0
M  V30 280 C 25.9227 -0.385276 -4.49251 0
M  V30 281 C 24.5847 -0.693156 -4.76181 0
M  V30 282 C 26.9367 -1.14021 -5.08575 0
M  V30 283 C 24.2647 -1.7593 -5.59701 0
M  V30 284 C 26.6167 -2.19619 -5.93254 0
M  V30 285 C 25.2807 -2.51026 -6.185 0
M  V30 286 H 24.5507 0.118384 -0.731482 0
M  V30 287 H 27.1977 -0.405847 -1.8715 0
M  V30 288 H 25.5027 1.54539 -3.60035 0
M  V30 289 H 27.1997 1.22118 -3.81953 0
M  V30 290 H 23.7897 -0.135202 -4.28387 0
M  V30 291 H 27.9737 -0.915611 -4.87781 0
M  V30 292 H 23.2297 -2.0075 -5.77503 0
M  V30 293 H 27.4037 -2.78581 -6.38252 0
M  V30 294 H 25.0307 -3.33772 -6.83008 0
M  V30 295 N 26.6058 1.57591 -0.0167156 0
M  V30 296 C 27.8528 1.91283 0.664597 0
M  V30 297 C 28.1808 0.891949 1.72842 0
M  V30 298 O 27.4358 -0.100931 1.9544 0
M  V30 299 C 27.7348 3.3172 1.33029 0
M  V30 300 C 27.4008 4.4914 0.398047 0
M  V30 301 C 26.0628 4.80992 0.141421 0
M  V30 302 C 28.4148 5.20634 -0.242825 0
M  V30 303 C 25.7428 5.81703 -0.764092 0
M  V30 304 C 28.0948 6.22311 -1.13632 0
M  V30 305 C 26.7588 6.52611 -1.40196 0
M  V30 306 H 26.0288 0.699956 0.243193 0
M  V30 307 H 28.6758 1.9135 -0.0758267 0
M  V30 308 H 26.9808 3.27856 2.14517 0
M  V30 309 H 28.6778 3.55055 1.86379 0
M  V30 310 H 25.2678 4.24262 0.608238 0
M  V30 311 H 29.4518 4.96267 -0.0576019 0
M  V30 312 H 24.7078 6.03532 -0.977732 0
M  V30 313 H 28.8818 6.76834 -1.63917 0
M  V30 314 H 26.5088 7.30467 -2.10529 0
M  V30 315 N 28.0839 -0.256276 1.55502 0
M  V30 316 C 29.0169 -1.34321 1.84481 0
M  V30 317 C 29.9949 -1.46802 0.699131 0
M  V30 318 O 31.1789 -1.63165 0.943904 0
M  V30 319 C 28.3059 -2.71779 2.02123 0
M  V30 320 C 27.3519 -2.76496 3.24734 0
M  V30 321 S 28.1849 -2.3405 4.81644 0
M  V30 322 C 29.3409 -3.73452 5.02279 0
M  V30 323 H 29.5739 -1.09539 2.76385 0
M  V30 324 H 27.1069 -0.45678 1.47489 0
M  V30 325 H 29.0649 -3.50932 2.12972 0
M  V30 326 H 27.7259 -2.93803 1.11078 0
M  V30 327 H 26.9189 -3.77424 3.34016 0
M  V30 328 H 26.5209 -2.05379 3.12563 0
M  V30 329 H 28.8129 -4.6887 4.89047 0
M  V30 330 H 29.7559 -3.6911 6.04287 0
M  V30 331 H 30.1639 -3.6553 4.30172 0
M  V30 332 N 29.562 -1.4872 -0.521534 0
M  V30 333 C 30.509 -1.63871 -1.62527 0
M  V30 334 C 31.479 -0.480559 -1.58996 0
M  V30 335 O 32.664 -0.705085 -1.77294 0
M  V30 336 C 29.804 -1.69227 -3.00759 0
M  V30 337 C 28.917 -2.96207 -3.14461 0
M  V30 338 C 28.052 -2.92671 -4.43303 0
M  V30 339 C 27.091 -4.14318 -4.50563 0
M  V30 340 N 26.228 -4.0881 -5.70805 0
M  V30 341 H 31.068 -2.58123 -1.48918 0
M  V30 342 H 28.605 -1.28 -0.724878 0
M  V30 343 H 30.563 -1.70314 -3.80853 0
M  V30 344 H 29.193 -0.784586 -3.1312 0
M  V30 345 H 28.245 -3.04826 -2.27564 0
M  V30 346 H 29.557 -3.86192 -3.15686 0
M  V30 347 H 28.711 -2.92206 -5.31696 0
M  V30 348 H 27.45 -2.00429 -4.44612 0
M  V30 349 H 26.455 -4.15049 -3.60575 0
M  V30 350 H 27.68 -5.07729 -4.50986 0
M  V30 351 H 25.626 -3.19394 -5.72995 0
M  V30 352 H 25.543 -4.92509 -5.7356 0
M  V30 353 H 26.811 -4.12418 -6.61462 0
M  V30 354 N 31.0401 0.771051 -1.3745 0
M  V30 355 C 32.4561 1.07171 -1.18265 0
M  V30 356 C 32.6561 2.01491 -0.019287 0
M  V30 357 O 31.7121 2.44244 0.640408 0
M  V30 358 C 33.0251 1.66854 -2.50161 0
M  V30 359 C 34.5731 1.79109 -2.56689 0
M  V30 360 C 35.0481 2.42205 -3.88717 0
M  V30 361 N 36.5391 2.49655 -3.90162 0
M  V30 362 C 37.2741 2.9933 -4.8907 0
M  V30 363 N 36.7701 3.49172 -5.98374 0
M  V30 364 N 38.5631 2.9821 -4.76474 0
M  V30 365 H 30.7141 0.144796 -2.11906 0
M  V30 366 H 32.9771 0.126863 -0.939473 0
M  V30 367 H 32.6831 1.05017 -3.35655 0
M  V30 368 H 32.5571 2.6614 -2.673 0
M  V30 369 H 34.9441 2.40077 -1.71601 0
M  V30 370 H 35.0251 0.785757 -2.43433 0
M  V30 371 H 34.6691 1.81875 -4.74219 0
M  V30 372 H 34.5991 3.43345 -3.99276 0
M  V30 373 H 37.0901 2.14383 -3.11205 0
M  V30 374 H 37.4031 3.8548 -6.69795 0
M  V30 375 H 35.7481 3.47275 -6.02018 0
M  V30 376 H 38.9391 2.58572 -3.90203 0
M  V30 377 H 39.1121 3.36613 -5.53711 0
M  V30 378 N 32.5182 1.22032 0.997298 0
M  V30 379 C 33.9342 0.979326 1.26021 0
M  V30 380 C 34.1342 -0.32972 1.98784 0
M  V30 381 O 33.1902 -1.05345 2.29475 0
M  V30 382 C 34.5032 2.17509 2.07631 0
M  V30 383 C 36.0512 2.21817 2.2083 0
M  V30 384 C 36.5262 3.40933 3.05825 0
M  V30 385 N 38.0172 3.41067 3.13412 0
M  V30 386 C 38.7522 4.29885 3.79455 0
M  V30 387 N 38.2482 5.28914 4.47462 0
M  V30 388 N 40.0412 4.17673 3.76173 0
M  V30 389 H 32.1922 2.06202 0.509352 0
M  V30 390 H 34.4552 0.90334 0.287541 0
M  V30 391 H 34.1612 3.12415 1.61524 0
M  V30 392 H 34.0352 2.17206 3.08385 0
M  V30 393 H 36.4222 1.27462 2.66153 0
M  V30 394 H 36.5032 2.2616 1.1952 0
M  V30 395 H 36.1472 4.35586 2.61203 0
M  V30 396 H 36.0772 3.33829 4.07266 0
M  V30 397 H 38.5682 2.69406 2.65007 0
M  V30 398 H 38.8812 5.92973 4.95583 0
M  V30 399 H 37.2262 5.32831 4.46224 0
M  V30 400 H 40.4172 3.39564 3.22202 0
M  V30 401 H 40.5902 4.87098 4.27363 0
M  V30 402 N 33.9963 -1.19345 1.0293 0
M  V30 403 C 34.9283 -2.22036 0.56857 0
M  V30 404 C 35.9413 -1.58865 -0.355779 0
M  V30 405 O 37.1303 -1.77851 -0.152103 0
M  V30 406 C 34.2303 -3.38363 -0.190752 0
M  V30 407 C 33.4033 -4.31118 0.738643 0
M  V30 408 C 32.4623 -5.26194 0.0246497 0
M  V30 409 O 31.4883 -5.65461 0.651354 0
M  V30 410 N 32.6903 -5.66971 -1.24594 0
M  V30 411 H 35.4553 -2.6219 1.45177 0
M  V30 412 H 33.0163 -1.34015 0.908381 0
M  V30 413 H 35.0083 -3.98981 -0.677961 0
M  V30 414 H 33.5783 -2.96994 -0.975366 0
M  V30 415 H 32.7983 -3.68276 1.40593 0
M  V30 416 H 34.0863 -4.90001 1.37029 0
M  V30 417 H 33.4843 -5.37104 -1.77583 0
M  V30 418 H 32.0413 -6.2984 -1.67764 0
M  V30 419 N 35.4744 -0.807222 -1.35358 0
M  V30 420 C 36.7204 -0.388463 -1.99045 0
M  V30 421 C 37.0534 1.04184 -1.63888 0
M  V30 422 O 36.3284 1.72292 -0.902535 0
M  V30 423 C 36.6114 -0.572783 -3.55515 0
M  V30 424 C 36.4644 -2.04807 -4.00468 0
M  V30 425 C 37.7834 0.00114064 -4.401 0
M  V30 426 H 34.9024 -0.142619 -0.723069 0
M  V30 427 H 37.5444 -1.01687 -1.60498 0
M  V30 428 H 35.6944 -0.0378425 -3.88482 0
M  V30 429 H 37.3664 -2.64544 -3.77908 0
M  V30 430 H 35.6094 -2.54427 -3.51353 0
M  V30 431 H 36.2804 -2.12792 -5.09337 0
M  V30 432 H 38.7564 -0.455716 -4.13597 0
M  V30 433 H 37.6324 -0.157737 -5.48673 0
M  V30 434 H 37.8934 1.09488 -4.28328 0
M  V30 435 N 36.9525 1.47285 -0.560781 0
M  V30 436 C 37.8825 2.32857 0.173105 0
M  V30 437 C 38.8635 1.44009 0.905281 0
M  V30 438 O 40.0485 1.7286 0.885046 0
M  V30 439 C 37.1785 3.25861 1.20133 0
M  V30 440 C 36.1325 4.23978 0.585388 0
M  V30 441 C 35.4585 5.06332 1.7185 0
M  V30 442 C 36.7585 5.20242 -0.463178 0
M  V30 443 H 38.4525 2.94466 -0.541307 0
M  V30 444 H 35.9985 1.41601 -0.261764 0
M  V30 445 H 37.9515 3.84569 1.72293 0
M  V30 446 H 36.6755 2.62315 1.94573 0
M  V30 447 H 35.3345 3.66501 0.085054 0
M  V30 448 H 34.9825 4.39186 2.45203 0
M  V30 449 H 34.6825 5.72762 1.31213 0
M  V30 450 H 36.2065 5.67899 2.24329 0
M  V30 451 H 37.6205 5.73293 -0.027502 0
M  V30 452 H 36.0175 5.94896 -0.788627 0
M  V30 453 H 37.0875 4.65504 -1.35773 0
M  V30 454 N 38.4306 0.297415 1.54768 0
M  V30 455 C 39.3776 -0.580276 2.23386 0
M  V30 456 C 40.3476 -1.13238 1.21517 0
M  V30 457 O 41.5326 -1.17757 1.50126 0
M  V30 458 C 38.6726 -1.74801 2.97555 0
M  V30 459 C 37.7856 -1.22764 4.1419 0
M  V30 460 C 36.9206 -2.35895 4.75949 0
M  V30 461 C 35.9596 -1.80974 5.84735 0
M  V30 462 N 35.0966 -2.87664 6.40464 0
M  V30 463 H 39.9366 0.0114833 2.97998 0
M  V30 464 H 37.4736 0.0174361 1.4709 0
M  V30 465 H 39.4316 -2.43475 3.38786 0
M  V30 466 H 38.0616 -2.31145 2.25326 0
M  V30 467 H 37.1136 -0.433271 3.77924 0
M  V30 468 H 38.4256 -0.785551 4.92575 0
M  V30 469 H 37.5796 -3.12523 5.20014 0
M  V30 470 H 36.3186 -2.83429 3.96887 0
M  V30 471 H 35.3236 -1.02834 5.40097 0
M  V30 472 H 36.5486 -1.34348 6.65678 0
M  V30 473 H 34.4946 -3.34538 5.64287 0
M  V30 474 H 34.4116 -2.4794 7.14186 0
M  V30 475 H 35.6796 -3.642 6.89187 0
M  V30 476 N 39.9087 -1.5758 0.0250728 0
M  V30 477 C 40.8717 -2.08896 -0.943139 0
M  V30 478 C 41.8717 -1.00321 -1.25668 0
M  V30 479 O 43.0617 -1.26495 -1.19769 0
M  V30 480 C 40.1937 -2.55143 -2.26086 0
M  V30 481 H 41.3867 -2.95723 -0.498775 0
M  V30 482 H 38.9397 -1.54703 -0.222888 0
M  V30 483 H 39.6747 -1.71633 -2.75159 0
M  V30 484 H 39.4597 -3.34461 -2.04641 0
M  V30 485 H 40.9497 -2.95083 -2.95492 0
M  V30 486 N 41.3868 0.248026 -1.55636 0
M  V30 487 C 42.3168 1.31079 -1.93237 0
M  V30 488 C 43.2978 1.50264 -0.797174 0
M  V30 489 O 44.4828 1.62891 -1.05737 0
M  V30 490 C 41.6128 2.66575 -2.22609 0
M  V30 491 C 40.5668 2.62087 -3.3837 0
M  V30 492 C 39.8928 4.01369 -3.53281 0
M  V30 493 C 41.1928 2.19171 -4.7409 0
M  V30 494 H 42.8868 0.998556 -2.82257 0
M  V30 495 H 40.4328 0.47891 -1.35803 0
M  V30 496 H 42.3858 3.41057 -2.47503 0
M  V30 497 H 41.1098 2.99432 -1.30414 0
M  V30 498 H 39.7688 1.90063 -3.13483 0
M  V30 499 H 39.4168 4.31489 -2.58508 0
M  V30 500 H 39.1168 3.99254 -4.31127 0
M  V30 501 H 40.6408 4.77552 -3.80495 0
M  V30 502 H 42.0548 2.83384 -4.98363 0
M  V30 503 H 40.4518 2.2817 -5.5503 0
M  V30 504 H 41.5218 1.14336 -4.71227 0
M  V30 505 N 42.8649 1.48995 0.513639 0
M  V30 506 C 44.1129 1.57531 1.26604 0
M  V30 507 C 44.4339 0.258236 1.93283 0
M  V30 508 O 43.7039 -0.721502 1.8213 0
M  V30 509 H 42.2839 0.580387 0.470276 0
M  V30 510 H 44.9459 1.85552 0.596373 0
M  V30 511 H 44.0419 2.36486 2.03669 0
M  V30 512 N 44.343 -0.763751 1.37857 0
M  V30 513 C 45.592 -1.51789 1.32827 0
M  V30 514 C 45.905 -1.95426 -0.0823719 0
M  V30 515 O 47.111 -2.70298 -0.255172 0
M  V30 516 C 45.567 -2.74133 2.33193 0
M  V30 517 C 45.175 -2.37562 3.79827 0
M  V30 518 C 46.919 -3.52054 2.37188 0
M  V30 519 C 44.826 -3.56456 4.71904 0
M  V30 520 H 43.756 -0.569896 0.493695 0
M  V30 521 H 46.407 -0.835822 1.63359 0
M  V30 522 H 44.789 -3.4427 1.9569 0
M  V30 523 H 45.963 -1.75157 4.26212 0
M  V30 524 H 44.278 -1.72798 3.78853 0
M  V30 525 H 46.875 -4.40437 3.03182 0
M  V30 526 H 47.218 -3.92486 1.38782 0
M  V30 527 H 47.751 -2.88921 2.7344 0
M  V30 528 H 44.49 -3.21099 5.71468 0
M  V30 529 H 44.01 -4.17938 4.30218 0
M  V30 530 H 45.689 -4.23168 4.89426 0
M  V30 531 N 45.8211 -1.22559 -0.990812 0
M  V30 532 C 47.0461 -1.07862 -1.77145 0
M  V30 533 C 47.4711 0.366447 -1.84496 0
M  V30 534 O 46.8291 1.26478 -1.29896 0
M  V30 535 C 46.8771 -1.69686 -3.18181 0
M  V30 536 O 45.9811 -0.951946 -4.01263 0
M  V30 537 H 45.3221 -0.378712 -0.545411 0
M  V30 538 H 47.8521 -1.62399 -1.2445 0
M  V30 539 H 47.8621 -1.74496 -3.68802 0
M  V30 540 H 46.5371 -2.74841 -3.12146 0
M  V30 541 H 45.1141 -0.980011 -3.59792 0
M  V30 542 N 47.2992 1.18797 -1.03562 0
M  V30 543 C 48.2622 2.20464 -0.626769 0
M  V30 544 C 49.2622 1.57721 0.313173 0
M  V30 545 O 50.4522 1.73917 0.0992615 0
M  V30 546 C 47.5842 3.40802 0.0818498 0
M  V30 547 H 48.7772 2.58149 -1.5264 0
M  V30 548 H 46.3302 1.32593 -0.827578 0
M  V30 549 H 47.0652 3.08642 0.995518 0
M  V30 550 H 46.8502 3.8758 -0.593652 0
M  V30 551 H 48.3402 4.16092 0.354584 0
M  V30 552 N 48.7773 0.814389 1.34928 0
M  V30 553 C 49.7403 0.235759 2.27984 0
M  V30 554 C 50.7403 -0.581412 1.49921 0
M  V30 555 O 51.9303 -0.398758 1.69575 0
M  V30 556 C 49.0623 -0.670433 3.34242 0
M  V30 557 H 50.2553 1.05659 2.80671 0
M  V30 558 H 47.8083 0.585614 1.44915 0
M  V30 559 H 48.5433 -1.51466 2.86755 0
M  V30 560 H 48.3283 -0.0860822 3.92005 0
M  V30 561 H 49.8183 -1.06935 4.03676 0
M  V30 562 N 50.2554 -1.46986 0.568584 0
M  V30 563 C 51.2184 -2.28624 -0.162366 0
M  V30 564 C 52.2184 -1.37596 -0.832103 0
M  V30 565 O 53.4084 -1.60115 -0.68622 0
M  V30 566 C 50.5404 -3.17596 -1.23878 0
M  V30 567 H 51.7334 -2.94722 0.554899 0
M  V30 568 H 49.2864 -1.52863 0.325976 0
M  V30 569 H 50.0214 -2.56214 -1.98808 0
M  V30 570 H 49.8064 -3.846 -0.763219 0
M  V30 571 H 51.2964 -3.79078 -1.75185 0
M  V30 572 N 51.7335 -0.305618 -1.54608 0
M  V30 573 C 52.6635 0.561482 -2.26649 0
M  V30 574 C 53.6445 1.13415 -1.26772 0
M  V30 575 O 54.8295 1.16262 -1.55553 0
M  V30 576 C 51.9595 1.73122 -3.01075 0
M  V30 577 C 50.9135 1.2887 -4.08138 0
M  V30 578 C 50.2395 2.54396 -4.70305 0
M  V30 579 C 51.5395 0.416578 -5.20636 0
M  V30 580 H 53.2335 -0.0393902 -2.99374 0
M  V30 581 H 50.7795 -0.020385 -1.43986 0
M  V30 582 H 52.7325 2.34396 -3.50195 0
M  V30 583 H 51.4565 2.3584 -2.25936 0
M  V30 584 H 50.1155 0.698991 -3.59875 0
M  V30 585 H 49.7635 3.15439 -3.918 0
M  V30 586 H 49.4635 2.25486 -5.42614 0
M  V30 587 H 50.9875 3.16464 -5.2219 0
M  V30 588 H 52.4015 0.935116 -5.65622 0
M  V30 589 H 50.7985 0.221046 -5.99693 0
M  V30 590 H 51.8685 -0.557162 -4.81688 0
M  V30 591 N 53.2116 1.57565 -0.0334293 0
M  V30 592 C 54.4366 1.96689 0.657895 0
M  V30 593 C 54.8616 0.910057 1.64619 0
M  V30 594 O 54.2196 -0.128598 1.80843 0
M  V30 595 C 54.2676 3.34905 1.33683 0
M  V30 596 O 53.3716 3.31574 2.45219 0
M  V30 597 H 52.7126 0.641205 0.172489 0
M  V30 598 H 55.2426 2.04372 -0.0965621 0
M  V30 599 H 55.2526 3.71234 1.69262 0
M  V30 600 H 53.9276 4.11366 0.612411 0
M  V30 601 H 52.5046 3.06968 2.11719 0
M  V30 602 N 54.6897 -0.239769 1.55765 0
M  V30 603 C 55.6197 -1.30052 1.9393 0
M  V30 604 C 56.6007 -1.49839 0.805132 0
M  V30 605 O 57.7857 -1.62328 1.06599 0
M  V30 606 C 54.9157 -2.65391 2.2402 0
M  V30 607 C 53.8697 -2.60289 3.39755 0
M  V30 608 C 53.1957 -3.99489 3.55405 0
M  V30 609 C 54.4957 -2.16654 4.75246 0
M  V30 610 H 56.1897 -0.983573 2.82783 0
M  V30 611 H 53.7357 -0.471701 1.36055 0
M  V30 612 H 55.6887 -3.3974 2.49308 0
M  V30 613 H 54.4127 -2.98736 1.32 0
M  V30 614 H 53.0717 -1.88398 3.14487 0
M  V30 615 H 52.7197 -4.30112 2.60793 0
M  V30 616 H 52.4197 -3.96962 4.33238 0
M  V30 617 H 53.9437 -4.75528 3.83022 0
M  V30 618 H 55.3577 -2.80737 4.99859 0
M  V30 619 H 53.7547 -2.25223 5.56232 0
M  V30 620 H 54.8247 -1.11835 4.71827 0
M  V30 621 N 56.1678 -1.49265 -0.50573 0
M  V30 622 C 57.5788 -1.51769 -1.08734 0
M  V30 623 C 57.9298 -0.301192 -1.93874 0
M  V30 624 O 57.0548 0.589456 -2.08217 0
M  V30 625 C 57.6498 -2.75017 -1.97867 0
M  V30 626 C 56.2088 -2.80314 -2.51199 0
M  V30 627 C 55.3558 -2.4562 -1.28709 0
M  V30 628 H 58.3068 -1.56031 -0.289855 0
M  V30 629 H 58.3278 -2.5491 -2.82491 0
M  V30 630 H 57.8398 -3.63539 -1.35873 0
M  V30 631 H 55.9408 -1.96061 -3.16845 0
M  V30 632 H 56.0538 -3.82366 -2.88675 0
M  V30 633 H 54.4178 -1.97297 -1.61078 0
M  V30 634 H 55.2008 -3.36411 -0.6843 0
M  V30 635 N 57.6459 0.756429 -1.3826 0
M  V30 636 C 58.5959 1.86069 -1.31766 0
M  V30 637 C 59.5799 1.59621 -0.202483 0
M  V30 638 O 60.7719 1.7149 -0.438211 0
M  V30 639 C 57.9009 3.23742 -1.1422 0
M  V30 640 C 56.9869 3.56091 -2.30348 0
M  V30 641 N 57.3779 3.59517 -3.55783 0
M  V30 642 C 55.6759 3.86341 -2.22838 0
M  V30 643 C 56.3769 3.89052 -4.32451 0
M  V30 644 N 55.3529 4.05736 -3.61772 0
M  V30 645 H 59.1549 1.86992 -2.26741 0
M  V30 646 H 56.6689 0.953643 -1.31451 0
M  V30 647 H 58.6659 4.02761 -1.07652 0
M  V30 648 H 57.3259 3.24073 -0.201763 0
M  V30 649 H 58.3369 3.41347 -3.89491 0
M  V30 650 H 55.0139 3.94404 -1.36937 0
M  V30 651 H 56.4039 3.98349 -5.4108 0
M  V30 652 N 59.124 1.23083 0.984299 0
M  V30 653 C 60.087 1.00979 2.05757 0
M  V30 654 C 61.087 -0.0269573 1.60777 0
M  V30 655 O 62.277 0.212403 1.729 0
M  V30 656 C 59.409 0.527072 3.36801 0
M  V30 657 H 60.602 1.9622 2.26799 0
M  V30 658 H 58.155 1.05072 1.15714 0
M  V30 659 H 58.89 -0.429294 3.21446 0
M  V30 660 H 58.675 1.27515 3.70786 0
M  V30 661 H 60.165 0.392942 4.15747 0
M  V30 662 N 60.6021 -1.18246 1.0419 0
M  V30 663 C 61.5651 -2.20128 0.638452 0
M  V30 664 C 62.5651 -1.57885 -0.304805 0
M  V30 665 O 63.7551 -1.73967 -0.0900369 0
M  V30 666 C 60.8871 -3.4084 -0.0637751 0
M  V30 667 H 62.0801 -2.57336 1.54007 0
M  V30 668 H 59.6331 -1.32152 0.834598 0
M  V30 669 H 60.3681 -3.09166 -0.979136 0
M  V30 670 H 60.1531 -3.8726 0.614198 0
M  V30 671 H 61.6431 -4.16274 -0.332512 0
M  V30 672 N 62.0802 -0.821533 -1.34494 0
M  V30 673 C 63.0302 -0.214793 -2.26986 0
M  V30 674 C 64.0142 0.620125 -1.4847 0
M  V30 675 O 65.2062 0.474933 -1.70509 0
M  V30 676 C 62.3352 0.623566 -3.37589 0
M  V30 677 C 61.4212 -0.221904 -4.23519 0
M  V30 678 N 61.8122 -1.29223 -4.89014 0
M  V30 679 C 60.1102 -0.00600922 -4.46 0
M  V30 680 C 60.8112 -1.80965 -5.52835 0
M  V30 681 N 59.7872 -1.11376 -5.32068 0
M  V30 682 H 63.5892 -1.03354 -2.75128 0
M  V30 683 H 61.1032 -0.6642 -1.48196 0
M  V30 684 H 63.1002 1.0744 -4.02818 0
M  V30 685 H 61.7602 1.44049 -2.90998 0
M  V30 686 H 62.7712 -1.67502 -4.90065 0
M  V30 687 H 59.4482 0.77886 -4.10171 0
M  V30 688 H 60.8382 -2.70502 -6.15043 0
M  V30 689 N 63.5583 1.46682 -0.576371 0
M  V30 690 C 64.5213 2.28707 0.150239 0
M  V30 691 C 65.5213 1.38035 0.824794 0
M  V30 692 O 66.7113 1.60476 0.677719 0
M  V30 693 C 63.8433 3.18248 1.22192 0
M  V30 694 H 65.0363 2.94423 -0.570521 0
M  V30 695 H 62.5893 1.52688 -0.334078 0
M  V30 696 H 63.3243 2.57265 1.97447 0
M  V30 697 H 63.1093 3.85 0.742812 0
M  V30 698 H 64.5993 3.80001 1.73172 0
M  V30 699 N 65.0364 0.313813 1.54444 0
M  V30 700 C 66.3134 -0.345447 1.92525 0
M  V30 701 C 66.6934 -1.70667 1.24242 0
M  V30 702 O 66.0414 -2.25273 0.382654 0
M  V30 703 C 66.2514 -0.44737 3.46121 0
M  V30 704 C 67.5994 -0.712238 4.18584 0
M  V30 705 O 68.6234 -0.530678 3.52225 0
M  V30 706 O 67.4824 -1.06183 5.36085 0
M  V30 707 H 64.5764 -0.195407 0.803583 0
M  V30 708 H 67.1224 0.362813 1.65776 0
M  V30 709 H 65.8944 0.509043 3.87975 0
M  V30 710 H 65.5174 -1.20359 3.78945 0
M  V30 711 N 66.5145 -1.57545 0.0417849 0
M  V30 712 C 67.4445 -2.14009 -0.933929 0
M  V30 713 C 68.4255 -1.05938 -1.33083 0
M  V30 714 O 69.6105 -1.33833 -1.40721 0
M  V30 715 C 66.7405 -2.67747 -2.21199 0
M  V30 716 C 65.6945 -3.80718 -1.95544 0
M  V30 717 C 65.0205 -4.20935 -3.29724 0
M  V30 718 C 66.3205 -5.06258 -1.28452 0
M  V30 719 H 68.0145 -2.95788 -0.463645 0
M  V30 720 H 65.5605 -1.42285 -0.221573 0
M  V30 721 H 67.5135 -3.05886 -2.89848 0
M  V30 722 H 66.2375 -1.83147 -2.70416 0
M  V30 723 H 64.8965 -3.43037 -1.2931 0
M  V30 724 H 64.5445 -3.33298 -3.76724 0
M  V30 725 H 64.2445 -4.9707 -3.13361 0
M  V30 726 H 65.7685 -4.61666 -3.9962 0
M  V30 727 H 67.1825 -5.41903 -1.8712 0
M  V30 728 H 65.5795 -5.87475 -1.22445 0
M  V30 729 H 66.6495 -4.84207 -0.259219 0
M  V30 730 N 67.9926 0.231505 -1.5589 0
M  V30 731 C 68.9226 1.29022 -1.94617 0
M  V30 732 C 69.9036 1.4941 -0.813067 0
M  V30 733 O 71.0886 1.6176 -1.07459 0
M  V30 734 C 68.2186 2.64199 -2.25424 0
M  V30 735 C 67.1726 2.58484 -3.41131 0
M  V30 736 C 66.4986 3.97599 -3.57518 0
M  V30 737 C 67.7986 2.1413 -4.76388 0
M  V30 738 H 69.4926 0.968563 -2.83301 0
M  V30 739 H 67.0386 0.464479 -1.36303 0
M  V30 740 H 68.9916 3.38413 -2.51107 0
M  V30 741 H 67.7156 2.98032 -1.33583 0
M  V30 742 H 66.3746 1.86727 -3.15481 0
M  V30 743 H 66.0226 4.28723 -2.6307 0
M  V30 744 H 65.7226 3.94659 -4.35337 0
M  V30 745 H 67.2466 4.7349 -3.85538 0
M  V30 746 H 68.6606 2.78083 -5.01341 0
M  V30 747 H 67.0576 2.2227 -5.57419 0
M  V30 748 H 68.1276 1.09331 -4.72414 0
M  V30 749 N 69.4707 1.49531 0.497807 0
M  V30 750 C 70.6957 1.63159 1.28039 0
M  V30 751 C 71.1207 0.30418 1.85624 0
M  V30 752 O 70.4787 -0.728618 1.66015 0
M  V30 753 C 70.5267 2.70537 2.38416 0
M  V30 754 O 69.6307 2.29931 3.42353 0
M  V30 755 H 68.9717 0.546001 0.377861 0
M  V30 756 H 71.5017 1.9574 0.59558 0
M  V30 757 H 71.5117 2.92802 2.84132 0
M  V30 758 H 70.1867 3.6689 1.95869 0
M  V30 759 H 68.7637 2.18009 3.02533 0
M  V30 760 N 70.9488 -0.749086 1.3866 0
M  V30 761 C 72.1948 -1.50959 1.36319 0
M  V30 762 C 72.5498 -1.92347 -0.0452451 0
M  V30 763 O 71.8428 -1.6289 -1.00884 0
M  V30 764 C 72.0368 -2.7712 2.25697 0
M  V30 765 C 71.8658 -2.48067 3.7509 0
M  V30 766 C 70.6358 -2.41062 4.44091 0
M  V30 767 C 72.8338 -2.14544 4.67414 0
M  V30 768 N 70.8158 -2.04331 5.78897 0
M  V30 769 C 72.1868 -1.88141 5.90765 0
M  V30 770 C 74.2418 -2.00892 4.55573 0
M  V30 771 C 72.9448 -1.49463 7.036 0
M  V30 772 C 74.9708 -1.63616 5.68317 0
M  V30 773 C 74.3328 -1.38088 6.90732 0
M  V30 774 H 70.4318 -0.551804 0.554108 0
M  V30 775 H 73.0158 -0.871886 1.74087 0
M  V30 776 H 71.1868 -3.38693 1.9011 0
M  V30 777 H 72.9188 -3.4321 2.1445 0
M  V30 778 H 69.6738 -2.57685 3.9736 0
M  V30 779 H 70.0978 -1.88598 6.502 0
M  V30 780 H 74.7398 -2.19301 3.61479 0
M  V30 781 H 72.4578 -1.29794 7.97608 0
M  V30 782 H 76.0438 -1.53678 5.61137 0
M  V30 783 H 74.9238 -1.09674 7.76493 0
M  V30 784 N 72.4269 -1.23603 -0.977757 0
M  V30 785 C 73.6739 -1.06971 -1.71941 0
M  V30 786 C 74.0019 0.393009 -1.90488 0
M  V30 787 O 73.2569 1.30719 -1.4564 0
M  V30 788 C 73.5559 -1.7433 -3.11999 0
M  V30 789 C 73.2219 -3.24252 -3.13323 0
M  V30 790 C 71.8839 -3.65156 -3.13392 0
M  V30 791 C 74.2359 -4.20141 -3.08433 0
M  V30 792 C 71.5639 -5.00403 -3.0629 0
M  V30 793 C 73.9159 -5.55384 -3.02873 0
M  V30 794 C 72.5799 -5.95647 -3.01265 0
M  V30 795 H 71.8499 -0.391433 -0.629175 0
M  V30 796 H 74.4969 -1.53572 -1.14403 0
M  V30 797 H 72.8019 -1.20096 -3.7294 0
M  V30 798 H 74.4989 -1.58936 -3.68158 0
M  V30 799 H 71.0889 -2.91692 -3.14029 0
M  V30 800 H 75.2729 -3.89547 -3.07517 0
M  V30 801 H 70.5289 -5.3081 -3.03399 0
M  V30 802 H 74.7029 -6.29398 -2.98046 0
M  V30 803 H 72.3299 -7.0041 -2.95516 0
M  V30 804 N 73.905 1.17692 -1.04816 0
M  V30 805 C 74.852 2.21581 -0.645797 0
M  V30 806 C 75.822 1.62367 0.350159 0
M  V30 807 O 77.007 1.89254 0.242433 0
M  V30 808 C 74.147 3.45092 -0.0227568 0
M  V30 809 C 73.26 4.18613 -1.06709 0
M  V30 810 C 72.395 5.29602 -0.411767 0
M  V30 811 C 71.434 5.94904 -1.44067 0
M  V30 812 N 70.571 6.97414 -0.809781 0
M  V30 813 H 75.411 2.55353 -1.5362 0
M  V30 814 H 72.948 1.25438 -0.768364 0
M  V30 815 H 74.906 4.15679 0.35588 0
M  V30 816 H 73.536 3.11917 0.831122 0
M  V30 817 H 72.588 3.46779 -1.5636 0
M  V30 818 H 73.9 4.63293 -1.84827 0
M  V30 819 H 73.054 6.06696 0.0206623 0
M  V30 820 H 71.793 4.86045 0.401438 0
M  V30 821 H 70.798 5.16544 -1.88316 0
M  V30 822 H 72.023 6.40542 -2.25571 0
M  V30 823 H 69.969 6.55998 -0.0170186 0
M  V30 824 H 69.886 7.40386 -1.52856 0
M  V30 825 H 71.154 7.78463 -0.401999 0
M  V30 826 N 75.3831 0.828654 1.34056 0
M  V30 827 C 76.6311 0.41863 1.97717 0
M  V30 828 C 76.9521 -1.02314 1.66002 0
M  V30 829 O 76.2221 -1.71119 0.953683 0
M  V30 830 H 74.8021 0.151809 0.731412 0
M  V30 831 H 77.4641 1.05936 1.63596 0
M  V30 832 H 76.5601 0.542318 3.07352 0
M  V30 833 N 76.8612 -1.46375 0.584142 0
M  V30 834 C 77.8092 -2.32042 -0.161047 0
M  V30 835 C 78.8032 -1.44569 -0.882966 0
M  V30 836 O 80.0092 -1.61186 -0.801191 0
M  V30 837 H 76.3842 -0.748659 -0.0708033 0
M  V30 838 H 78.3552 -2.92704 0.580269 0
M  V30 839 C 77.1042 -3.27762 -1.1605 0
M  V30 840 H 76.4272 -3.95051 -0.614419 0
M  V30 841 H 77.8672 -3.90481 -1.65228 0
M  V30 842 C 76.3262 -2.53218 -2.22221 0
M  V30 843 O 76.8562 -2.29628 -3.29597 0
M  V30 844 N 75.0622 -2.13756 -1.96868 0
M  V30 845 H 74.6092 -2.33142 -1.09557 0
M  V30 846 H 74.5672 -1.642 -2.68115 0
M  V30 847 N 78.3393 -0.321999 -1.54275 0
M  V30 848 C 79.6163 0.335232 -1.92706 0
M  V30 849 C 79.9963 1.70006 -1.25145 0
M  V30 850 O 79.3443 2.25067 -0.394596 0
M  V30 851 C 79.5543 0.429008 -3.46353 0
M  V30 852 C 80.9023 0.690029 -4.18956 0
M  V30 853 O 81.9263 0.511992 -3.52501 0
M  V30 854 O 80.7853 1.03338 -5.36641 0
M  V30 855 H 77.8793 0.191143 -0.804608 0
M  V30 856 H 80.4253 -0.3716 -1.65581 0
M  V30 857 H 79.1973 -0.529611 -3.87699 0
M  V30 858 H 78.8203 1.18348 -3.79578 0
M  V30 859 N 79.8174 1.5752 -0.0501392 0
M  V30 860 C 81.2334 1.56631 0.306402 0
M  V30 861 C 81.4334 1.0577 1.71508 0
M  V30 862 O 80.4894 0.713837 2.422 0
M  V30 863 C 81.8024 3.00393 0.135811 0
M  V30 864 C 83.3504 3.12315 0.206993 0
M  V30 865 C 83.8254 4.57954 0.064944 0
M  V30 866 N 85.3164 4.63041 0.121254 0
M  V30 867 C 86.0514 5.73389 0.0354381 0
M  V30 868 N 85.5474 6.92724 -0.102666 0
M  V30 869 N 87.3404 5.62026 0.090946 0
M  V30 870 H 79.4914 1.88903 -0.971046 0
M  V30 871 H 81.7544 0.869876 -0.376855 0
M  V30 872 H 81.4604 3.41635 -0.835384 0
M  V30 873 H 81.3344 3.66373 0.897275 0
M  V30 874 H 83.7214 2.70973 1.16866 0
M  V30 875 H 83.8024 2.49016 -0.585208 0
M  V30 876 H 83.4464 4.99981 -0.893394 0
M  V30 877 H 83.3764 5.19258 0.876277 0
M  V30 878 H 85.8674 3.77216 0.227284 0
M  V30 879 H 86.1804 7.72633 -0.160882 0
M  V30 880 H 84.5254 6.94864 -0.137737 0
M  V30 881 H 87.7164 4.67684 0.197388 0
M  V30 882 H 87.8894 6.47997 0.0206089 0
M  V30 883 N 81.2955 -0.223234 1.56011 0
M  V30 884 C 82.7065 -0.790368 1.69145 0
M  V30 885 C 83.0575 -1.85055 0.651845 0
M  V30 886 O 82.1825 -2.15498 -0.197359 0
M  V30 887 C 82.7775 -1.4404 3.06656 0
M  V30 888 C 81.3365 -1.95494 3.2165 0
M  V30 889 C 80.4835 -0.814506 2.65068 0
M  V30 890 H 83.4345 0.00139011 1.587 0
M  V30 891 H 83.4555 -2.30916 3.0242 0
M  V30 892 H 82.9675 -0.668543 3.82298 0
M  V30 893 H 81.0685 -2.75487 2.50874 0
M  V30 894 H 81.1815 -2.13607 4.28846 0
M  V30 895 H 79.5455 -1.22137 2.23505 0
M  V30 896 H 80.3285 -0.0553515 3.43255 0
M  V30 897 N 82.7736 -1.49793 -0.48987 0
M  V30 898 C 84.1846 -1.52914 -1.07118 0
M  V30 899 C 84.5356 -0.321738 -1.93544 0
M  V30 900 O 83.6606 0.567338 -2.08831 0
M  V30 901 C 84.2556 -2.771 -1.94938 0
M  V30 902 C 82.8146 -2.82963 -2.48212 0
M  V30 903 C 81.9616 -2.46972 -1.26096 0
M  V30 904 H 84.9126 -1.56329 -0.273289 0
M  V30 905 H 84.9336 -2.57892 -2.79771 0
M  V30 906 H 84.4456 -3.64959 -1.32009 0
M  V30 907 H 82.5466 -1.99411 -3.14748 0
M  V30 908 H 82.6596 -3.85406 -2.84603 0
M  V30 909 H 81.0236 -1.98994 -1.58976 0
M  V30 910 H 81.8066 -3.37118 -0.648581 0
M  V30 911 N 84.2517 0.741722 -1.39055 0
M  V30 912 C 85.2147 1.83733 -1.37021 0
M  V30 913 C 86.2147 1.58542 -0.268534 0
M  V30 914 O 87.4047 1.66067 -0.526076 0
M  V30 915 C 84.5367 3.2141 -1.13617 0
M  V30 916 H 85.7297 1.86941 -2.34506 0
M  V30 917 H 83.2827 0.944676 -1.24521 0
M  V30 918 H 84.0177 3.23865 -0.167863 0
M  V30 919 H 83.8027 3.4109 -1.93391 0
M  V30 920 H 85.2927 4.01477 -1.14918 0
M  V30 921 N 85.7298 1.2412 0.971189 0
M  V30 922 C 87.1408 1.07236 1.52831 0
M  V30 923 C 87.4918 -0.357352 1.92918 0
M  V30 924 O 86.6168 -1.24528 1.76979 0
M  V30 925 C 87.2118 1.94043 2.77728 0
M  V30 926 C 85.7708 1.81394 3.29808 0
M  V30 927 C 84.9178 1.89189 2.02738 0
M  V30 928 H 87.8688 1.37648 0.789864 0
M  V30 929 H 87.8898 1.47066 3.5093 0
M  V30 930 H 87.4018 2.98093 2.4852 0
M  V30 931 H 85.5028 0.801634 3.63874 0
M  V30 932 H 85.6158 2.65294 3.98944 0
M  V30 933 H 83.9798 1.32877 2.17292 0
M  V30 934 H 84.7628 2.94812 1.759 0
M  V30 935 N 87.2079 -1.17134 1.05439 0
M  V30 936 C 88.1709 -2.19439 0.661764 0
M  V30 937 C 89.1709 -1.58199 -0.288042 0
M  V30 938 O 90.3609 -1.74053 -0.0715803 0
M  V30 939 C 87.4929 -3.40889 -0.0276209 0
M  V30 940 H 88.6859 -2.55688 1.56728 0
M  V30 941 H 86.2389 -1.31259 0.848567 0
M  V30 942 H 86.9739 -3.10187 -0.94629 0
M  V30 943 H 86.7589 -3.86586 0.655238 0
M  V30 944 H 88.2489 -4.16603 -0.288342 0
M  V30 945 N 88.686 -0.835752 -1.33615 0
M  V30 946 C 89.934 -0.429109 -1.97492 0
M  V30 947 C 90.255 1.01433 -1.66543 0
M  V30 948 O 89.525 1.70611 -0.962744 0
M  V30 949 H 88.105 -0.155686 -0.730596 0
M  V30 950 H 90.767 -1.06802 -1.63031 0
M  V30 951 H 89.863 -0.55861 -3.0706 0
M  V30 952 N 90.1641 1.46063 -0.591896 0
M  V30 953 C 91.1111 2.30399 0.136069 0
M  V30 954 C 92.0811 1.41169 0.875238 0
M  V30 955 O 93.2661 1.70112 0.86409 0
M  V30 956 C 90.4061 3.25804 1.13781 0
M  V30 957 C 89.5191 4.30134 0.401137 0
M  V30 958 C 88.6541 5.12659 1.39121 0
M  V30 959 C 87.6931 6.0873 0.641462 0
M  V30 960 N 86.8301 6.8409 1.58004 0
M  V30 961 H 91.6701 2.92118 -0.589144 0
M  V30 962 H 89.2071 1.43959 -0.302342 0
M  V30 963 H 91.1651 3.79569 1.73156 0
M  V30 964 H 89.7951 2.65872 1.83062 0
M  V30 965 H 88.8471 3.79152 -0.307826 0
M  V30 966 H 90.1591 4.98458 -0.184565 0
M  V30 967 H 89.3131 5.70747 2.05749 0
M  V30 968 H 88.0521 4.44316 2.01084 0
M  V30 969 H 87.0571 5.49786 -0.0385419 0
M  V30 970 H 88.2821 6.79095 0.0270945 0
M  V30 971 H 86.2281 6.18449 2.18761 0
M  V30 972 H 86.1451 7.48709 1.04738 0
M  V30 973 H 87.4131 7.4673 2.23639 0
M  V30 974 N 91.6422 0.330177 1.54103 0
M  V30 975 C 92.6052 -0.520144 2.2322 0
M  V30 976 C 93.6052 -1.03828 1.22786 0
M  V30 977 O 94.7952 -0.929652 1.4732 0
M  V30 978 C 91.9272 -1.72317 2.94142 0
M  V30 979 H 93.1202 0.0841605 2.99782 0
M  V30 980 H 90.6732 0.0813433 1.56088 0
M  V30 981 H 91.4082 -2.36653 2.21734 0
M  V30 982 H 91.1932 -1.35898 3.67796 0
M  V30 983 H 92.6832 -2.3266 3.46784 0
M  V30 984 N 93.1203 -1.57491 0.0584922 0
M  V30 985 C 94.0503 -2.14988 -0.911178 0
M  V30 986 C 95.0313 -1.07343 -1.31952 0
M  V30 987 O 96.2163 -1.35318 -1.39294 0
M  V30 988 C 93.3463 -2.70078 -2.18347 0
M  V30 989 C 92.3003 -3.82771 -1.91495 0
M  V30 990 C 91.6263 -4.24408 -3.25241 0
M  V30 991 C 92.9263 -5.07592 -1.23075 0
M  V30 992 H 94.6203 -2.96263 -0.432246 0
M  V30 993 H 92.1663 -1.42512 -0.206469 0
M  V30 994 H 94.1193 -3.08943 -2.86587 0
M  V30 995 H 92.8433 -1.86005 -2.68458 0
M  V30 996 H 91.5023 -3.44389 -1.25664 0
M  V30 997 H 91.1503 -3.37275 -3.73168 0
M  V30 998 H 90.8503 -5.00366 -3.08071 0
M  V30 999 H 92.3743 -4.65879 -3.94701 0
M  V30 1000 H 93.7883 -5.43857 -1.81362 0
M  V30 1001 H 92.1853 -5.88741 -1.16207 0
M  V30 1002 H 93.2553 -4.84454 -0.207847 0
M  V30 1003 N 94.5984 0.214957 -1.56127 0
M  V30 1004 C 95.5084 1.28727 -1.96129 0
M  V30 1005 C 96.5244 1.50916 -0.866044 0
M  V30 1006 O 97.7004 1.63918 -1.17016 0
M  V30 1007 C 94.7654 2.61569 -2.27558 0
M  V30 1008 C 93.8264 2.47625 -3.50685 0
M  V30 1009 C 93.0594 3.74132 -3.80606 0
M  V30 1010 O 93.2824 4.77438 -3.12104 0
M  V30 1011 O 92.2164 3.70849 -4.74083 0
M  V30 1012 H 96.0424 0.977855 -2.87527 0
M  V30 1013 H 93.6274 0.418358 -1.43423 0
M  V30 1014 H 95.5094 3.40012 -2.48938 0
M  V30 1015 H 94.1844 2.92178 -1.39332 0
M  V30 1016 H 93.0914 1.67361 -3.34576 0
M  V30 1017 H 94.4244 2.21954 -4.39315 0
M  V30 1018 N 96.0765 1.50051 0.48192 0
M  V30 1019 C 97.3235 1.60498 1.23477 0
M  V30 1020 C 97.6515 0.300331 1.92167 0
M  V30 1021 O 96.9065 -0.713094 1.82246 0
M  V30 1022 C 97.2055 2.72717 2.30998 0
M  V30 1023 C 96.8715 4.13572 1.79636 0
M  V30 1024 C 95.5335 4.519 1.65348 0
M  V30 1025 C 97.8855 5.01649 1.41412 0
M  V30 1026 C 95.2135 5.76057 1.11244 0
M  V30 1027 C 97.5655 6.26343 0.887538 0
M  V30 1028 C 96.2295 6.63483 0.731207 0
M  V30 1029 H 95.4995 0.587303 0.451836 0
M  V30 1030 H 98.1465 1.83948 0.532468 0
M  V30 1031 H 96.4515 2.43312 3.07094 0
M  V30 1032 H 98.1485 2.78006 2.88988 0
M  V30 1033 H 94.7385 3.83329 1.91721 0
M  V30 1034 H 98.9225 4.72679 1.51289 0
M  V30 1035 H 94.1785 6.03516 0.978686 0
M  V30 1036 H 98.3525 6.93958 0.582654 0
M  V30 1037 H 95.9795 7.59568 0.309806 0
M  V30 1038 N 97.5546 -0.734337 1.39446 0
M  V30 1039 C 98.7796 -1.52866 1.40167 0
M  V30 1040 C 99.2046 -1.881 -0.00171513 0
M  V30 1041 O 98.5626 -1.51957 -0.988879 0
M  V30 1042 C 98.6106 -2.79235 2.28167 0
M  V30 1043 O 97.7146 -3.75185 1.71201 0
M  V30 1044 H 97.0556 -0.461618 0.477289 0
M  V30 1045 H 99.5856 -0.905949 1.8345 0
M  V30 1046 H 99.5956 -3.27963 2.42702 0
M  V30 1047 H 98.2706 -2.52923 3.30156 0
M  V30 1048 H 96.8476 -3.33958 1.65912 0
M  V30 1049 N 99.0327 -1.24633 -0.964593 0
M  V30 1050 C 99.9797 -1.04144 -2.05968 0
M  V30 1051 C 100.95 0.046262 -1.66036 0
M  V30 1052 O 102.135 -0.108972 -1.90489 0
M  V30 1053 C 99.2747 -0.65563 -3.38815 0
M  V30 1054 C 98.3877 -1.81714 -3.91923 0
M  V30 1055 C 97.5227 -1.37662 -5.13052 0
M  V30 1056 C 96.5617 -2.50788 -5.58365 0
M  V30 1057 N 95.6987 -2.07582 -6.70712 0
M  V30 1058 H 100.539 -1.9787 -2.22827 0
M  V30 1059 H 98.0757 -0.9855 -1.09208 0
M  V30 1060 H 100.034 -0.412954 -4.15151 0
M  V30 1061 H 98.6637 0.244627 -3.21872 0
M  V30 1062 H 97.7157 -2.1734 -3.12198 0
M  V30 1063 H 99.0277 -2.66705 -4.21509 0
M  V30 1064 H 98.1817 -1.093 -5.96773 0
M  V30 1065 H 96.9207 -0.497293 -4.85158 0
M  V30 1066 H 95.9257 -2.79906 -4.73215 0
M  V30 1067 H 97.1507 -3.39283 -5.88272 0
M  V30 1068 H 95.0967 -1.22051 -6.44546 0
M  V30 1069 H 95.0137 -2.86125 -6.99763 0
M  V30 1070 H 96.2817 -1.82369 -7.57867 0
M  V30 1071 N 100.511 1.16574 -1.06058 0
M  V30 1072 C 101.922 1.68662 -0.800632 0
M  V30 1073 C 102.273 1.84184 0.67608 0
M  V30 1074 O 101.398 1.53568 1.52466 0
M  V30 1075 C 101.993 3.06356 -1.44676 0
M  V30 1076 C 100.552 3.55575 -1.23465 0
M  V30 1077 C 99.6988 2.31616 -1.52477 0
M  V30 1078 H 102.65 1.00969 -1.22438 0
M  V30 1079 H 102.671 3.70636 -0.860788 0
M  V30 1080 H 102.183 2.95027 -2.52152 0
M  V30 1081 H 100.284 3.72167 -0.179527 0
M  V30 1082 H 100.397 4.37812 -1.94571 0
M  V30 1083 H 98.7608 2.36512 -0.945209 0
M  V30 1084 H 99.5438 2.22887 -2.61106 0
M  V30 1085 N 101.989 0.842826 1.3317 0
M  V30 1086 C 102.952 0.284065 2.27433 0
M  V30 1087 C 103.952 -0.54948 1.5112 0
M  V30 1088 O 105.142 -0.362699 1.70382 0
M  V30 1089 C 102.274 -0.599384 3.35589 0
M  V30 1090 H 103.467 1.11589 2.78366 0
M  V30 1091 H 101.02 0.616221 1.4364 0
M  V30 1092 H 101.755 -1.45349 2.89904 0
M  V30 1093 H 101.54 -0.00291266 3.921 0
M  V30 1094 H 103.03 -0.983488 4.05854 0
M  V30 1095 N 103.467 -1.45747 0.599634 0
M  V30 1096 C 104.43 -2.28917 -0.113835 0
M  V30 1097 C 105.43 -1.3933 -0.802729 0
M  V30 1098 O 106.62 -1.61534 -0.652103 0
M  V30 1099 C 103.752 -3.20152 -1.17114 0
M  V30 1100 H 104.945 -2.93478 0.617289 0
M  V30 1101 H 102.498 -1.52137 0.358327 0
M  V30 1102 H 103.233 -2.60374 -1.93329 0
M  V30 1103 H 103.018 -3.86133 -0.681468 0
M  V30 1104 H 104.508 -3.82708 -1.67105 0
M  V30 1105 N 104.945 -0.338344 -1.53925 0
M  V30 1106 C 106.191 0.252842 -2.01822 0
M  V30 1107 C 106.546 1.48612 -1.22197 0
M  V30 1108 O 105.839 1.89238 -0.299892 0
M  V30 1109 C 106.033 0.62448 -3.51902 0
M  V30 1110 C 105.862 -0.571235 -4.46057 0
M  V30 1111 C 104.632 -1.07493 -4.93734 0
M  V30 1112 C 106.83 -1.42807 -4.94076 0
M  V30 1113 N 104.812 -2.23351 -5.71828 0
M  V30 1114 C 106.183 -2.43362 -5.70241 0
M  V30 1115 C 108.238 -1.45412 -4.76193 0
M  V30 1116 C 106.941 -3.46346 -6.30426 0
M  V30 1117 C 108.967 -2.47274 -5.37224 0
M  V30 1118 C 108.329 -3.46555 -6.13253 0
M  V30 1119 H 104.428 0.0559669 -0.779995 0
M  V30 1120 H 107.012 -0.476732 -1.88773 0
M  V30 1121 H 105.183 1.32317 -3.65167 0
M  V30 1122 H 106.915 1.19841 -3.86549 0
M  V30 1123 H 103.67 -0.643848 -4.69203 0
M  V30 1124 H 104.094 -2.81834 -6.15548 0
M  V30 1125 H 108.736 -0.700171 -4.16962 0
M  V30 1126 H 106.454 -4.22638 -6.88769 0
M  V30 1127 H 110.04 -2.50109 -5.25297 0
M  V30 1128 H 108.92 -4.24083 -6.59638 0
M  V30 1129 N 106.423 1.57458 -0.0668435 0
M  V30 1130 C 107.355 2.09413 0.931601 0
M  V30 1131 C 108.368 1.02522 1.26464 0
M  V30 1132 O 109.557 1.30049 1.22269 0
M  V30 1133 C 106.657 2.53537 2.24882 0
M  V30 1134 C 105.83 3.83944 2.09537 0
M  V30 1135 C 104.889 4.14214 3.2452 0
M  V30 1136 O 103.915 4.83891 2.9973 0
M  V30 1137 N 105.117 3.67367 4.49469 0
M  V30 1138 H 107.882 2.95699 0.488048 0
M  V30 1139 H 105.443 1.61462 0.119009 0
M  V30 1140 H 107.435 2.70853 3.00701 0
M  V30 1141 H 106.005 1.72415 2.60753 0
M  V30 1142 H 105.225 3.76057 1.18215 0
M  V30 1143 H 106.513 4.69312 1.96529 0
M  V30 1144 H 105.911 3.11068 4.72497 0
M  V30 1145 H 104.468 3.89891 5.2233 0
M  V30 1146 N 107.901 -0.206675 1.56239 0
M  V30 1147 C 108.849 -1.27571 1.94495 0
M  V30 1148 C 109.843 -1.47737 0.828862 0
M  V30 1149 O 111.049 -1.48735 1.0138 0
M  V30 1150 H 107.424 -0.428029 0.6183 0
M  V30 1151 H 109.395 -0.925961 2.8367 0
M  V30 1152 C 108.144 -2.61568 2.29079 0
M  V30 1153 H 107.467 -2.46863 3.14482 0
M  V30 1154 H 108.907 -3.35144 2.5972 0
M  V30 1155 C 107.366 -3.17695 1.12123 0
M  V30 1156 O 107.896 -3.99801 0.390153 0
M  V30 1157 N 106.102 -2.76276 0.901097 0
M  V30 1158 H 105.649 -2.09613 1.49733 0
M  V30 1159 H 105.607 -3.1417 0.120319 0
M  V30 1160 N 109.379 -1.50304 -0.473955 0
M  V30 1161 C 110.327 -1.69482 -1.59307 0
M  V30 1162 C 111.321 -0.560669 -1.59853 0
M  V30 1163 O 112.527 -0.741087 -1.64036 0
M  V30 1164 H 108.902 -0.534892 -0.528578 0
M  V30 1165 H 110.873 -2.63364 -1.40293 0
M  V30 1166 C 109.622 -1.80354 -2.97267 0
M  V30 1167 H 108.945 -2.67012 -2.97564 0
M  V30 1168 H 110.385 -1.97798 -3.75036 0
M  V30 1169 C 108.844 -0.55448 -3.32306 0
M  V30 1170 O 109.374 0.307661 -4.0052 0
M  V30 1171 N 107.58 -0.409354 -2.87702 0
M  V30 1172 H 107.127 -1.11196 -2.32364 0
M  V30 1173 H 107.085 0.425223 -3.11511 0
M  V30 1174 N 110.857 0.726932 -1.39834 0
M  V30 1175 C 111.787 1.85405 -1.41941 0
M  V30 1176 C 112.768 1.67751 -0.281728 0
M  V30 1177 O 113.953 1.8795 -0.488717 0
M  V30 1178 C 111.083 3.23243 -1.2701 0
M  V30 1179 C 110.037 3.55549 -2.38262 0
M  V30 1180 C 109.363 4.9241 -2.08415 0
M  V30 1181 C 110.663 3.577 -3.80589 0
M  V30 1182 H 112.357 1.83899 -2.36266 0
M  V30 1183 H 109.903 0.883349 -1.13723 0
M  V30 1184 H 111.856 4.01775 -1.27103 0
M  V30 1185 H 110.58 3.25296 -0.291564 0
M  V30 1186 H 109.239 2.79351 -2.37399 0
M  V30 1187 H 108.887 4.91052 -1.0898 0
M  V30 1188 H 108.587 5.14992 -2.82943 0
M  V30 1189 H 110.111 5.73289 -2.10171 0
M  V30 1190 H 111.525 4.26293 -3.83337 0
M  V30 1191 H 109.922 3.91804 -4.54543 0
M  V30 1192 H 110.992 2.57328 -4.10987 0
M  V30 1193 N 112.336 1.25143 0.95797 0
M  V30 1194 C 113.747 1.08851 1.51685 0
M  V30 1195 C 114.098 -0.33687 1.93286 0
M  V30 1196 O 113.223 -1.22644 1.7829 0
M  V30 1197 C 113.818 1.96978 2.75654 0
M  V30 1198 C 112.377 1.84881 3.27866 0
M  V30 1199 C 111.524 1.91329 2.0072 0
M  V30 1200 H 114.475 1.38478 0.77522 0
M  V30 1201 H 114.496 1.5078 3.4935 0
M  V30 1202 H 114.008 3.00712 2.45345 0
M  V30 1203 H 112.109 0.840182 3.63004 0
M  V30 1204 H 112.222 2.6951 3.96107 0
M  V30 1205 H 110.586 1.35174 2.15871 0
M  V30 1206 H 111.369 2.96661 1.72764 0
M  V30 1207 N 113.814 -1.1601 1.06675 0
M  V30 1208 C 114.744 -2.22688 0.702307 0
M  V30 1209 C 115.725 -1.67306 -0.307032 0
M  V30 1210 O 116.91 -1.93352 -0.181305 0
M  V30 1211 C 114.04 -3.47178 0.092038 0
M  V30 1212 C 112.994 -4.15477 1.02777 0
M  V30 1213 C 112.32 -5.33963 0.28061 0
M  V30 1214 C 113.62 -4.66019 2.35846 0
M  V30 1215 H 115.314 -2.53429 1.59419 0
M  V30 1216 H 112.86 -1.21813 0.767961 0
M  V30 1217 H 114.813 -4.21037 -0.174814 0
M  V30 1218 H 113.537 -3.15749 -0.834877 0
M  V30 1219 H 112.196 -3.43549 1.27944 0
M  V30 1220 H 111.844 -4.98788 -0.649545 0
M  V30 1221 H 111.544 -5.806 0.904258 0
M  V30 1222 H 113.068 -6.10596 0.021396 0
M  V30 1223 H 114.482 -5.3144 2.15045 0
M  V30 1224 H 112.879 -5.23293 2.93743 0
M  V30 1225 H 113.949 -3.82023 2.98641 0
M  V30 1226 N 115.292 -0.849877 -1.32721 0
M  V30 1227 C 116.52 -0.464754 -2.01613 0
M  V30 1228 C 116.935 0.937191 -1.63897 0
M  V30 1229 O 116.292 1.61081 -0.857856 0
M  V30 1230 C 116.343 -0.588638 -3.56675 0
M  V30 1231 O 116.064 -1.93535 -3.93034 0
M  V30 1232 C 117.565 -0.2019 -4.4284 0
M  V30 1233 H 114.785 -0.183215 -0.645502 0
M  V30 1234 H 117.329 -1.1455 -1.69407 0
M  V30 1235 H 115.484 0.0443159 -3.87375 0
M  V30 1236 H 115.898 -1.92871 -4.87751 0
M  V30 1237 H 117.372 -0.339599 -5.50954 0
M  V30 1238 H 117.849 0.857224 -4.30753 0
M  V30 1239 H 118.455 -0.809733 -4.17521 0
M  V30 1240 N 116.77 1.45427 -0.607355 0
M  V30 1241 C 118.181 1.85756 -0.187535 0
M  V30 1242 C 118.532 1.5077 1.25551 0
M  V30 1243 O 117.657 0.93427 1.95193 0
M  V30 1244 C 118.252 3.37154 -0.333572 0
M  V30 1245 C 116.811 3.76387 0.0315542 0
M  V30 1246 C 115.958 2.69377 -0.658117 0
M  V30 1247 H 118.909 1.36231 -0.81405 0
M  V30 1248 H 118.93 3.78014 0.43428 0
M  V30 1249 H 118.442 3.62586 -1.38393 0
M  V30 1250 H 116.543 3.56571 1.0811 0
M  V30 1251 H 116.656 4.77731 -0.361935 0
M  V30 1252 H 115.02 2.5452 -0.0957873 0
M  V30 1253 H 115.803 2.97646 -1.7106 0
M  V30 1254 N 118.248 0.346503 1.53744 0
M  V30 1255 C 119.211 -0.496439 2.23759 0
M  V30 1256 C 120.211 -1.0252 1.2388 0
M  V30 1257 O 121.401 -0.913974 1.48297 0
M  V30 1258 C 118.533 -1.69187 2.95954 0
M  V30 1259 H 119.726 0.115952 2.99676 0
M  V30 1260 H 117.279 0.0978939 1.55993 0
M  V30 1261 H 118.014 -2.34288 2.24231 0
M  V30 1262 H 117.799 -1.31989 3.69217 0
M  V30 1263 H 119.289 -2.28969 3.49232 0
M  V30 1264 N 119.726 -1.57421 0.075193 0
M  V30 1265 C 121.003 -1.85029 -0.634329 0
M  V30 1266 C 121.383 -0.968305 -1.87582 0
M  V30 1267 O 120.731 -0.0354749 -2.28472 0
M  V30 1268 C 120.941 -3.35286 -0.968742 0
M  V30 1269 C 122.289 -4.02875 -1.34077 0
M  V30 1270 O 123.313 -3.40051 -1.06037 0
M  V30 1271 O 122.172 -5.13691 -1.86506 0
M  V30 1272 H 119.266 -0.7645 -0.315387 0
M  V30 1273 H 121.812 -1.69366 0.106382 0
M  V30 1274 H 120.584 -3.91203 -0.0871376 0
M  V30 1275 H 120.207 -3.56223 -1.7661 0
M  V30 1276 N 121.204 0.198386 -1.56346 0
M  V30 1277 C 122.151 1.24589 -1.94284 0
M  V30 1278 C 123.121 1.454 -0.802997 0
M  V30 1279 O 124.306 1.58588 -1.06087 0
M  V30 1280 C 121.446 2.58631 -2.28482 0
M  V30 1281 C 120.559 2.45426 -3.55514 0
M  V30 1282 C 119.694 3.7215 -3.79049 0
M  V30 1283 C 118.733 3.53763 -4.99518 0
M  V30 1284 N 117.87 4.72491 -5.19323 0
M  V30 1285 H 122.71 0.915356 -2.83593 0
M  V30 1286 H 120.247 0.440629 -1.40346 0
M  V30 1287 H 122.205 3.3672 -2.46324 0
M  V30 1288 H 120.835 2.89734 -1.42317 0
M  V30 1289 H 119.887 1.58652 -3.45737 0
M  V30 1290 H 121.199 2.27772 -4.43758 0
M  V30 1291 H 120.353 4.58679 -3.97113 0
M  V30 1292 H 119.092 3.92754 -2.89129 0
M  V30 1293 H 118.097 2.65619 -4.8138 0
M  V30 1294 H 119.322 3.34607 -5.90944 0
M  V30 1295 H 117.268 4.93365 -4.3235 0
M  V30 1296 H 117.185 4.5765 -6.01741 0
M  V30 1297 H 118.453 5.6038 -5.41843 0
M  V30 1298 N 122.682 1.50554 0.465978 0
M  V30 1299 C 123.928 1.62038 1.21949 0
M  V30 1300 C 124.261 0.322116 1.9151 0
M  V30 1301 O 123.536 -0.676723 1.82348 0
M  V30 1302 C 123.819 2.80421 2.25912 0
M  V30 1303 C 123.672 4.20144 1.60622 0
M  V30 1304 C 124.991 2.94354 3.27176 0
M  V30 1305 H 122.11 0.589752 0.441998 0
M  V30 1306 H 124.752 1.82956 0.51257 0
M  V30 1307 H 122.902 2.62717 2.86203 0
M  V30 1308 H 124.574 4.49449 1.03889 0
M  V30 1309 H 122.817 4.24165 0.909211 0
M  V30 1310 H 123.488 4.98914 2.36196 0
M  V30 1311 H 125.964 3.10578 2.76913 0
M  V30 1312 H 124.84 3.788 3.97242 0
M  V30 1313 H 125.101 2.05186 3.916 0
M  V30 1314 N 124.16 -0.719506 1.40217 0
M  V30 1315 C 125.385 -1.51371 1.4178 0
M  V30 1316 C 125.81 -1.88091 0.0182355 0
M  V30 1317 O 125.168 -1.52997 -0.972707 0
M  V30 1318 C 125.216 -2.768 2.31115 0
M  V30 1319 O 124.32 -3.73349 1.7517 0
M  V30 1320 H 123.661 -0.456529 0.482159 0
M  V30 1321 H 126.191 -0.88644 1.844 0
M  V30 1322 H 126.201 -3.25371 2.46167 0
M  V30 1323 H 124.876 -2.49407 3.3282 0
M  V30 1324 H 123.453 -3.32179 1.69444 0
M  V30 1325 N 125.638 -1.25649 -0.95132 0
M  V30 1326 C 126.886 -1.10375 -1.69298 0
M  V30 1327 C 127.207 0.355339 -1.91735 0
M  V30 1328 O 126.477 1.25188 -1.50681 0
M  V30 1329 H 125.057 -0.405461 -0.627384 0
M  V30 1330 H 127.719 -1.57823 -1.14358 0
M  V30 1331 H 126.815 -1.61465 -2.67087 0
M  V30 1332 N 127.117 1.15442 -1.07289 0
M  V30 1333 C 128.347 1.89821 -0.815576 0
M  V30 1334 C 128.755 1.7823 0.634867 0
M  V30 1335 O 128.098 1.13152 1.44715 0
M  V30 1336 C 128.16 3.40817 -1.14385 0
M  V30 1337 C 127.824 3.76193 -2.59476 0
M  V30 1338 C 128.821 3.77269 -3.57721 0
M  V30 1339 C 126.506 4.0652 -2.95037 0
M  V30 1340 C 128.5 4.08176 -4.89562 0
M  V30 1341 C 126.187 4.37092 -4.27076 0
M  V30 1342 C 127.185 4.37902 -5.24148 0
M  V30 1343 O 126.873 4.67741 -6.53815 0
M  V30 1344 H 126.605 0.608465 -0.294528 0
M  V30 1345 H 129.159 1.472 -1.43252 0
M  V30 1346 H 127.389 3.83835 -0.469865 0
M  V30 1347 H 129.078 3.96485 -0.869179 0
M  V30 1348 H 129.844 3.5394 -3.3159 0
M  V30 1349 H 125.723 4.05049 -2.20128 0
M  V30 1350 H 129.267 4.08723 -5.65324 0
M  V30 1351 H 125.164 4.59889 -4.5296 0
M  V30 1352 H 125.932 4.85509 -6.58957 0
M  V30 1353 N 128.595 0.856903 1.32268 0
M  V30 1354 C 129.543 0.291987 2.3076 0
M  V30 1355 C 130.537 -0.585857 1.58947 0
M  V30 1356 O 131.743 -0.47341 1.73663 0
M  V30 1357 H 128.118 0.075721 0.748178 0
M  V30 1358 H 130.089 1.13687 2.75895 0
M  V30 1359 C 128.838 -0.502869 3.44044 0
M  V30 1360 H 128.161 0.163328 3.99466 0
M  V30 1361 H 129.601 -0.863691 4.1511 0
M  V30 1362 C 128.06 -1.68898 2.91505 0
M  V30 1363 O 128.59 -2.78811 2.89184 0
M  V30 1364 N 126.796 -1.51679 2.47875 0
M  V30 1365 H 126.343 -0.622666 2.49961 0
M  V30 1366 H 126.301 -2.31184 2.13076 0
M  V30 1367 N 130.073 -1.45103 0.615059 0
M  V30 1368 C 131.021 -2.32331 -0.111791 0
M  V30 1369 C 132.015 -1.46409 -0.852102 0
M  V30 1370 O 133.221 -1.62849 -0.766821 0
M  V30 1371 H 129.596 -0.749993 -0.0549072 0
M  V30 1372 H 131.567 -2.91407 0.642225 0
M  V30 1373 C 130.316 -3.3015 -1.09071 0
M  V30 1374 H 129.639 -3.96265 -0.530485 0
M  V30 1375 H 131.079 -3.93898 -1.56908 0
M  V30 1376 C 129.538 -2.57875 -2.168 0
M  V30 1377 O 130.068 -2.36567 -3.24652 0
M  V30 1378 N 128.274 -2.17884 -1.92289 0
M  V30 1379 H 127.821 -2.35413 -1.04587 0
M  V30 1380 H 127.779 -1.6985 -2.64572 0
M  V30 1381 N 131.551 -0.354651 -1.53558 0
M  V30 1382 C 132.798 0.238443 -2.01091 0
M  V30 1383 C 133.126 1.49663 -1.24222 0
M  V30 1384 O 132.381 1.93049 -0.321003 0
M  V30 1385 C 132.68 0.587121 -3.52545 0
M  V30 1386 C 132.346 -0.575472 -4.47213 0
M  V30 1387 C 131.008 -0.894497 -4.72813 0
M  V30 1388 C 133.36 -1.35489 -5.03281 0
M  V30 1389 C 130.688 -1.99511 -5.51736 0
M  V30 1390 C 133.04 -2.44583 -5.83405 0
M  V30 1391 C 131.704 -2.77033 -6.07296 0
M  V30 1392 H 130.974 0.0872526 -0.735845 0
M  V30 1393 H 133.621 -0.484859 -1.8526 0
M  V30 1394 H 131.926 1.39129 -3.66265 0
M  V30 1395 H 133.623 1.05809 -3.86789 0
M  V30 1396 H 130.213 -0.316774 -4.27428 0
M  V30 1397 H 134.397 -1.12167 -4.83459 0
M  V30 1398 H 129.653 -2.25063 -5.68469 0
M  V30 1399 H 133.827 -3.05401 -6.25862 0
M  V30 1400 H 131.454 -3.6244 -6.68237 0
M  V30 1401 N 133.029 1.57378 -0.0835403 0
M  V30 1402 C 134.259 1.97975 0.590713 0
M  V30 1403 C 134.667 0.961083 1.62972 0
M  V30 1404 O 134.01 -0.0590879 1.83605 0
M  V30 1405 C 134.072 3.34915 1.3066 0
M  V30 1406 C 133.736 4.55069 0.419698 0
M  V30 1407 C 134.733 5.18868 -0.32749 0
M  V30 1408 C 132.418 5.0114 0.341137 0
M  V30 1409 C 134.412 6.27098 -1.14134 0
M  V30 1410 C 132.099 6.0924 -0.476374 0
M  V30 1411 C 133.097 6.72083 -1.21627 0
M  V30 1412 O 132.785 7.781 -2.02028 0
M  V30 1413 H 132.517 0.655818 0.163947 0
M  V30 1414 H 135.071 2.04807 -0.156021 0
M  V30 1415 H 133.301 3.24733 2.09966 0
M  V30 1416 H 134.99 3.60037 1.87424 0
M  V30 1417 H 135.756 4.84211 -0.276459 0
M  V30 1418 H 131.635 4.51996 0.90668 0
M  V30 1419 H 135.179 6.7608 -1.71935 0
M  V30 1420 H 131.076 6.43329 -0.528927 0
M  V30 1421 H 131.844 7.95034 -1.94586 0
M  V30 1422 N 134.507 -0.190092 1.56449 0
M  V30 1423 C 135.417 -1.25591 1.98152 0
M  V30 1424 C 136.433 -1.49519 0.889944 0
M  V30 1425 O 137.609 -1.62036 1.19609 0
M  V30 1426 C 134.674 -2.57916 2.3169 0
M  V30 1427 C 133.735 -2.42015 3.5458 0
M  V30 1428 C 132.968 -3.6803 3.8651 0
M  V30 1429 O 133.191 -4.72413 3.1966 0
M  V30 1430 O 132.125 -3.6326 4.79923 0
M  V30 1431 H 135.951 -0.931988 2.89046 0
M  V30 1432 H 133.536 -0.395488 1.4407 0
M  V30 1433 H 135.418 -3.36008 2.54316 0
M  V30 1434 H 134.093 -2.89925 1.43963 0
M  V30 1435 H 133 -1.62017 3.37196 0
M  V30 1436 H 134.333 -2.14937 4.4279 0
M  V30 1437 N 135.985 -1.50799 -0.457987 0
M  V30 1438 C 137.232 -1.62442 -1.20908 0
M  V30 1439 C 137.56 -0.330865 -1.91665 0
M  V30 1440 O 136.815 0.68401 -1.83357 0
M  V30 1441 C 137.114 -2.76358 -2.2663 0
M  V30 1442 C 136.78 -4.16378 -1.73033 0
M  V30 1443 C 135.442 -4.54473 -1.58138 0
M  V30 1444 C 137.794 -5.03836 -1.33413 0
M  V30 1445 C 135.122 -5.77754 -1.02065 0
M  V30 1446 C 137.474 -6.27676 -0.78778 0
M  V30 1447 C 136.138 -6.64562 -0.625561 0
M  V30 1448 H 135.408 -0.594417 -0.442435 0
M  V30 1449 H 138.055 -1.84772 -0.503136 0
M  V30 1450 H 136.36 -2.48167 -3.03184 0
M  V30 1451 H 138.057 -2.82568 -2.84528 0
M  V30 1452 H 134.647 -3.86331 -1.85598 0
M  V30 1453 H 138.831 -4.75026 -1.4375 0
M  V30 1454 H 134.087 -6.04997 -0.882547 0
M  V30 1455 H 138.261 -6.94797 -0.472177 0
M  V30 1456 H 135.888 -7.59965 -0.188926 0
M  V30 1457 N 137.463 0.71206 -1.40597 0
M  V30 1458 C 138.711 1.46907 -1.38791 0
M  V30 1459 C 139.032 1.94998 0.00780391 0
M  V30 1460 O 138.302 1.70587 0.963174 0
M  V30 1461 H 136.882 0.545043 -0.51082 0
M  V30 1462 H 139.544 0.843882 -1.75683 0
M  V30 1463 H 138.64 2.34021 -2.06496 0
M  V30 1464 N 138.941 1.26152 0.944643 0
M  V30 1465 C 139.871 1.09902 2.06019 0
M  V30 1466 C 140.852 0.00519538 1.70099 0
M  V30 1467 O 142.037 0.176583 1.93396 0
M  V30 1468 C 139.167 0.727562 3.39594 0
M  V30 1469 C 138.121 1.77274 3.89561 0
M  V30 1470 C 137.447 1.25569 5.19747 0
M  V30 1471 C 138.747 3.17357 4.14827 0
M  V30 1472 H 140.441 2.03217 2.19871 0
M  V30 1473 H 137.987 0.978452 1.05652 0
M  V30 1474 H 139.94 0.600777 4.17095 0
M  V30 1475 H 138.664 -0.241287 3.25707 0
M  V30 1476 H 137.323 1.88814 3.14237 0
M  V30 1477 H 136.971 0.276783 5.02238 0
M  V30 1478 H 136.671 1.95433 5.54148 0
M  V30 1479 H 138.195 1.1415 5.99835 0
M  V30 1480 H 139.609 3.08914 4.82954 0
M  V30 1481 H 138.006 3.84781 4.60504 0
M  V30 1482 H 139.076 3.63673 3.20734 0
M  V30 1483 N 140.419 -1.14872 1.07899 0
M  V30 1484 C 141.696 -1.81928 0.71845 0
M  V30 1485 C 142.076 -1.95417 -0.798455 0
M  V30 1486 O 141.424 -1.50997 -1.715 0
M  V30 1487 C 141.634 -3.17937 1.43935 0
M  V30 1488 C 142.982 -3.93501 1.59506 0
M  V30 1489 O 144.006 -3.27509 1.40058 0
M  V30 1490 O 142.865 -5.1183 1.91551 0
M  V30 1491 H 139.959 -0.78628 0.256305 0
M  V30 1492 H 142.505 -1.21934 1.18026 0
M  V30 1493 H 141.277 -3.0325 2.47295 0
M  V30 1494 H 140.9 -3.85619 0.968687 0
M  V30 1495 N 141.898 -0.863906 -1.31812 0
M  V30 1496 C 142.845 -0.313303 -2.28664 0
M  V30 1497 C 143.815 0.584868 -1.55462 0
M  V30 1498 O 145 0.517805 -1.83639 0
M  V30 1499 C 142.14 0.48441 -3.41683 0
M  V30 1500 C 141.253 -0.440594 -4.29747 0
M  V30 1501 C 140.388 0.370652 -5.29905 0
M  V30 1502 C 139.427 -0.551164 -6.09613 0
M  V30 1503 N 138.564 0.223462 -7.01744 0
M  V30 1504 H 143.404 -1.14444 -2.75148 0
M  V30 1505 H 140.941 -0.575769 -1.35364 0
M  V30 1506 H 142.899 0.962627 -4.05943 0
M  V30 1507 H 141.529 1.28029 -2.96325 0
M  V30 1508 H 140.581 -1.03724 -3.65986 0
M  V30 1509 H 141.893 -1.14767 -4.85417 0
M  V30 1510 H 141.047 0.911638 -5.99812 0
M  V30 1511 H 139.786 1.11105 -4.74876 0
M  V30 1512 H 138.791 -1.10396 -5.38603 0
M  V30 1513 H 140.016 -1.29032 -6.66729 0
M  V30 1514 H 137.962 0.946787 -6.49132 0
M  V30 1515 H 137.879 -0.424399 -7.54808 0
M  V30 1516 H 139.147 0.745876 -7.75923 0
M  V30 1517 N 143.376 1.44774 -0.622745 0
M  V30 1518 C 144.339 2.29069 0.0774015 0
M  V30 1519 C 145.339 1.4059 0.780461 0
M  V30 1520 O 146.529 1.62551 0.626322 0
M  V30 1521 C 143.661 3.21974 1.12006 0
M  V30 1522 H 144.854 2.92459 -0.663901 0
M  V30 1523 H 142.407 1.51548 -0.382486 0
M  V30 1524 H 143.142 2.63417 1.89162 0
M  V30 1525 H 142.927 3.87168 0.619951 0
M  V30 1526 H 144.417 3.85318 1.60995 0
M  V30 1527 N 144.854 0.36279 1.53368 0
M  V30 1528 C 146.131 -0.284021 1.93527 0
M  V30 1529 C 146.511 -1.66628 1.29608 0
M  V30 1530 O 145.859 -2.23942 0.45413 0
M  V30 1531 C 146.069 -0.337028 3.47369 0
M  V30 1532 C 147.417 -0.578708 4.20638 0
M  V30 1533 O 148.441 -0.418352 3.53735 0
M  V30 1534 O 147.3 -0.89074 5.39192 0
M  V30 1535 H 144.394 -0.169743 0.809393 0
M  V30 1536 H 146.94 0.41537 1.64538 0
M  V30 1537 H 145.712 0.632217 3.86159 0
M  V30 1538 H 145.335 -1.08243 3.82582 0
M  V30 1539 N 146.332 -1.57332 0.0918853 0
M  V30 1540 C 147.743 -1.81496 -0.437739 0
M  V30 1541 C 148.094 -1.00727 -1.6837 0
M  V30 1542 O 147.219 -0.235694 -2.15113 0
M  V30 1543 C 147.814 -3.29197 -0.800939 0
M  V30 1544 C 146.373 -3.54136 -1.27532 0
M  V30 1545 C 145.52 -2.75979 -0.270392 0
M  V30 1546 H 148.471 -1.55494 0.317366 0
M  V30 1547 H 148.492 -3.42344 -1.66074 0
M  V30 1548 H 148.004 -3.87955 0.106078 0
M  V30 1549 H 146.105 -3.00705 -2.20016 0
M  V30 1550 H 146.218 -4.62792 -1.23938 0
M  V30 1551 H 144.582 -2.43349 -0.751872 0
M  V30 1552 H 145.365 -3.37484 0.629248 0
M  V30 1553 N 147.81 0.181792 -1.56548 0
M  V30 1554 C 148.773 1.20894 -1.94724 0
M  V30 1555 C 149.773 1.37738 -0.829747 0
M  V30 1556 O 150.963 1.35323 -1.09697 0
M  V30 1557 C 148.095 2.57593 -2.23291 0
M  V30 1558 H 149.288 0.882275 -2.86629 0
M  V30 1559 H 146.841 0.423838 -1.50444 0
M  V30 1560 H 147.576 2.95291 -1.34067 0
M  V30 1561 H 147.361 2.46735 -3.04736 0
M  V30 1562 H 148.851 3.31637 -2.53785 0
M  V30 1563 N 149.288 1.51039 0.449983 0
M  V30 1564 C 150.251 1.70863 1.5277 0
M  V30 1565 C 151.251 0.578846 1.5002 0
M  V30 1566 O 152.441 0.846213 1.52266 0
M  V30 1567 C 149.573 1.75341 2.9235 0
M  V30 1568 H 150.766 2.67034 1.36502 0
M  V30 1569 H 148.319 1.40838 0.677812 0
M  V30 1570 H 149.054 0.809383 3.14037 0
M  V30 1571 H 148.839 2.57436 2.95752 0
M  V30 1572 H 150.329 1.92559 3.70555 0
M  V30 1573 N 150.766 -0.704594 1.40972 0
M  V30 1574 C 151.714 -1.83994 1.42299 0
M  V30 1575 C 152.708 -1.66684 0.302111 0
M  V30 1576 O 153.914 -1.73655 0.473697 0
M  V30 1577 H 150.289 -0.606171 0.44504 0
M  V30 1578 H 152.26 -1.79992 2.38003 0
M  V30 1579 C 151.009 -3.21946 1.31323 0
M  V30 1580 H 150.332 -3.35878 2.16855 0
M  V30 1581 H 151.772 -4.01491 1.36311 0
M  V30 1582 C 150.231 -3.36891 0.0245977 0
M  V30 1583 O 150.761 -3.90687 -0.934153 0
M  V30 1584 N 148.967 -2.90559 -0.0485243 0
M  V30 1585 H 148.514 -2.46968 0.732419 0
M  V30 1586 H 148.472 -3.00937 -0.910171 0
M  V30 1587 N 152.244 -1.26651 -0.937939 0
M  V30 1588 C 153.207 -1.08546 -2.01867 0
M  V30 1589 C 154.207 -0.0327327 -1.60767 0
M  V30 1590 O 155.397 -0.276427 -1.71993 0
M  V30 1591 C 152.529 -0.651711 -3.34613 0
M  V30 1592 H 153.722 -2.04502 -2.1936 0
M  V30 1593 H 151.275 -1.09294 -1.11734 0
M  V30 1594 H 152.01 0.309696 -3.22818 0
M  V30 1595 H 151.795 -1.41189 -3.65798 0
M  V30 1596 H 153.285 -0.546973 -4.14002 0
M  V30 1597 N 153.722 1.14298 -1.08507 0
M  V30 1598 C 154.97 1.84993 -0.813763 0
M  V30 1599 C 155.291 1.83405 0.662393 0
M  V30 1600 O 154.561 1.28319 1.48024 0
M  V30 1601 H 153.141 0.684966 -0.298045 0
M  V30 1602 H 155.803 1.385 -1.37126 0
M  V30 1603 H 154.899 2.89788 -1.15884 0
M  V30 1604 N 155.201 0.870884 1.31352 0
M  V30 1605 C 156.426 0.495957 2.01383 0
M  V30 1606 C 156.851 -0.904324 1.64935 0
M  V30 1607 O 156.209 -1.59687 0.858466 0
M  V30 1608 C 156.257 0.661433 3.54482 0
M  V30 1609 O 155.361 -0.298851 4.11316 0
M  V30 1610 H 154.702 0.197158 0.634054 0
M  V30 1611 H 157.232 1.17455 1.67527 0
M  V30 1612 H 157.242 0.555072 4.04207 0
M  V30 1613 H 155.917 1.68246 3.8035 0
M  V30 1614 H 154.494 -0.147368 3.72609 0
M  V30 1615 N 156.679 -1.44442 0.630414 0
M  V30 1616 C 157.609 -2.33418 -0.0618083 0
M  V30 1617 C 158.59 -1.48165 -0.835541 0
M  V30 1618 O 159.775 -1.76886 -0.801564 0
M  V30 1619 C 156.905 -3.31222 -1.04449 0
M  V30 1620 C 155.859 -4.26288 -0.382436 0
M  V30 1621 C 155.185 -5.13954 -1.47497 0
M  V30 1622 C 156.485 -5.1744 0.710865 0
M  V30 1623 H 158.179 -2.91548 0.681184 0
M  V30 1624 H 155.725 -1.40191 0.329026 0
M  V30 1625 H 157.678 -3.92351 -1.53748 0
M  V30 1626 H 156.402 -2.71299 -1.81836 0
M  V30 1627 H 155.061 -3.6649 0.0899054 0
M  V30 1628 H 154.709 -4.50385 -2.2397 0
M  V30 1629 H 154.409 -5.7837 -1.03737 0
M  V30 1630 H 155.933 -5.77955 -1.96979 0
M  V30 1631 H 157.347 -5.72509 0.300996 0
M  V30 1632 H 155.744 -5.90455 1.07156 0
M  V30 1633 H 156.814 -4.58496 1.57829 0
M  V30 1634 N 158.157 -0.370918 -1.53173 0
M  V30 1635 C 159.104 0.473035 -2.259 0
M  V30 1636 C 160.074 1.07311 -1.26781 0
M  V30 1637 O 161.259 1.1046 -1.55574 0
M  V30 1638 C 158.399 1.60405 -3.05556 0
M  V30 1639 C 157.512 1.02863 -4.19575 0
M  V30 1640 C 156.647 2.12918 -4.86661 0
M  V30 1641 C 155.686 1.52869 -5.92704 0
M  V30 1642 N 154.823 2.56779 -6.53459 0
M  V30 1643 H 159.663 -0.153649 -2.97604 0
M  V30 1644 H 157.2 -0.0875946 -1.46839 0
M  V30 1645 H 159.158 2.27034 -3.50016 0
M  V30 1646 H 157.788 2.20131 -2.36097 0
M  V30 1647 H 156.84 0.252465 -3.79561 0
M  V30 1648 H 158.152 0.549642 -4.95762 0
M  V30 1649 H 157.306 2.87356 -5.34333 0
M  V30 1650 H 156.045 2.6417 -4.09958 0
M  V30 1651 H 155.05 0.769479 -5.44389 0
M  V30 1652 H 156.275 1.02435 -6.7133 0
M  V30 1653 H 154.221 3.07235 -5.79606 0
M  V30 1654 H 154.138 2.13583 -7.25202 0
M  V30 1655 H 155.406 3.30903 -7.05779 0
M  V30 1656 N 159.635 1.57281 -0.100228 0
M  V30 1657 C 160.863 1.98879 0.570509 0
M  V30 1658 C 161.278 0.979476 1.61405 0
M  V30 1659 O 160.635 -0.0302288 1.82475 0
M  V30 1660 C 160.686 3.4052 1.2136 0
M  V30 1661 O 160.407 4.37588 0.211786 0
M  V30 1662 C 161.908 3.97149 1.96945 0
M  V30 1663 H 159.128 0.653428 0.152555 0
M  V30 1664 H 161.672 2.03697 -0.18103 0
M  V30 1665 H 159.827 3.367 1.91603 0
M  V30 1666 H 160.241 5.20118 0.676607 0
M  V30 1667 H 161.715 4.98393 2.37294 0
M  V30 1668 H 162.192 3.3525 2.83733 0
M  V30 1669 H 162.798 4.04458 1.31506 0
M  V30 1670 N 161.113 -0.173488 1.56642 0
M  V30 1671 C 162.39 -0.917617 1.7274 0
M  V30 1672 C 162.77 -2.00484 0.661027 0
M  V30 1673 O 162.118 -2.26184 -0.32453 0
M  V30 1674 C 162.328 -1.48433 3.15862 0
M  V30 1675 C 163.676 -1.95809 3.76754 0
M  V30 1676 O 164.7 -1.58231 3.19126 0
M  V30 1677 O 163.559 -2.65024 4.77938 0
M  V30 1678 H 160.653 -0.431772 0.705338 0
M  V30 1679 H 163.199 -0.161487 1.6893 0
M  V30 1680 H 161.971 -0.701715 3.84957 0
M  V30 1681 H 161.594 -2.30471 3.23989 0
M  V30 1682 N 162.591 -1.51276 -0.441967 0
M  V30 1683 C 164.002 -1.56244 -1.02199 0
M  V30 1684 C 164.353 -0.383149 -1.92422 0
M  V30 1685 O 163.478 0.500613 -2.1053 0
M  V30 1686 C 164.073 -2.83162 -1.86024 0
M  V30 1687 C 162.632 -2.90716 -2.39084 0
M  V30 1688 C 161.779 -2.50858 -1.18175 0
M  V30 1689 H 164.73 -1.5712 -0.223416 0
M  V30 1690 H 164.751 -2.66663 -2.71425 0
M  V30 1691 H 164.263 -3.68974 -1.20331 0
M  V30 1692 H 162.364 -2.09323 -3.08244 0
M  V30 1693 H 162.477 -3.94266 -2.72198 0
M  V30 1694 H 160.841 -2.03951 -1.52565 0
M  V30 1695 H 161.624 -3.3901 -0.541001 0
M  V30 1696 N 164.069 0.697108 -1.41344 0
M  V30 1697 C 165.315 1.45796 -1.41828 0
M  V30 1698 C 165.67 1.92382 -0.0261743 0
M  V30 1699 O 164.963 1.66522 0.947688 0
M  V30 1700 C 165.157 2.68553 -2.35826 0
M  V30 1701 C 164.986 2.33975 -3.84039 0
M  V30 1702 C 163.756 2.24414 -4.52732 0
M  V30 1703 C 165.954 1.97048 -4.75054 0
M  V30 1704 N 163.936 1.82705 -5.86082 0
M  V30 1705 C 165.307 1.66086 -5.9734 0
M  V30 1706 C 167.362 1.83845 -4.62715 0
M  V30 1707 C 166.065 1.23246 -7.08663 0
M  V30 1708 C 168.091 1.4241 -5.73998 0
M  V30 1709 C 167.453 1.12357 -6.95381 0
M  V30 1710 H 163.552 0.530859 -0.574206 0
M  V30 1711 H 166.136 0.806674 -1.77203 0
M  V30 1712 H 164.307 3.31404 -2.02549 0
M  V30 1713 H 166.039 3.35015 -2.2704 0
M  V30 1714 H 162.794 2.4276 -4.0665 0
M  V30 1715 H 163.218 1.64337 -6.56751 0
M  V30 1716 H 167.86 2.05734 -3.69369 0
M  V30 1717 H 165.578 1.00102 -8.01876 0
M  V30 1718 H 169.164 1.32746 -5.66454 0
M  V30 1719 H 168.044 0.807795 -7.80028 0
M  V30 1720 N 165.547 1.27147 0.931209 0
M  V30 1721 C 166.775 1.16082 1.71267 0
M  V30 1722 C 167.19 -0.282772 1.8667 0
M  V30 1723 O 166.547 -1.19283 1.38122 0
M  V30 1724 C 166.598 1.8358 3.11417 0
M  V30 1725 O 166.319 3.22299 2.96741 0
M  V30 1726 C 167.82 1.78597 4.05732 0
M  V30 1727 H 165.04 0.403758 0.535929 0
M  V30 1728 H 167.584 1.67953 1.16671 0
M  V30 1729 H 165.739 1.35623 3.62885 0
M  V30 1730 H 166.153 3.55851 3.85319 0
M  V30 1731 H 167.627 2.30444 5.01597 0
M  V30 1732 H 168.104 0.754564 4.3267 0
M  V30 1733 H 168.71 2.26152 3.60188 0
M  V30 1734 N 167.025 -1.13721 1.09112 0
M  V30 1735 C 167.955 -2.21148 0.749385 0
M  V30 1736 C 168.936 -1.6792 -0.271475 0
M  V30 1737 O 170.121 -1.93693 -0.140251 0
M  V30 1738 C 167.251 -3.46905 0.165659 0
M  V30 1739 C 166.205 -4.13203 1.11567 0
M  V30 1740 C 165.531 -5.33248 0.393809 0
M  V30 1741 C 166.831 -4.60912 2.45678 0
M  V30 1742 H 168.525 -2.4999 1.64758 0
M  V30 1743 H 166.071 -1.20156 0.793626 0
M  V30 1744 H 168.024 -4.21313 -0.085466 0
M  V30 1745 H 166.748 -3.17449 -0.767714 0
M  V30 1746 H 165.407 -3.40758 1.35202 0
M  V30 1747 H 165.055 -5.00054 -0.543599 0
M  V30 1748 H 164.755 -5.78552 1.02721 0
M  V30 1749 H 166.279 -6.10413 0.150908 0
M  V30 1750 H 167.693 -5.26759 2.26269 0
M  V30 1751 H 166.09 -5.16944 3.04776 0
M  V30 1752 H 167.16 -3.75603 3.06677 0
M  V30 1753 N 168.503 -0.877838 -1.30888 0
M  V30 1754 C 169.45 -0.337538 -2.28318 0
M  V30 1755 C 170.42 0.568346 -1.56074 0
M  V30 1756 O 171.605 0.498298 -1.84178 0
M  V30 1757 C 168.745 0.448142 -3.42178 0
M  V30 1758 C 167.858 -0.48615 -4.29256 0
M  V30 1759 C 166.993 0.314427 -5.30269 0
M  V30 1760 C 166.032 -0.615791 -6.08995 0
M  V30 1761 N 165.169 0.14902 -7.01942 0
M  V30 1762 H 170.009 -1.17356 -2.73919 0
M  V30 1763 H 167.546 -0.590094 -1.34745 0
M  V30 1764 H 169.504 0.919517 -4.06941 0
M  V30 1765 H 168.134 1.24879 -2.97666 0
M  V30 1766 H 167.186 -1.076 -3.64865 0
M  V30 1767 H 168.498 -1.19909 -4.84173 0
M  V30 1768 H 167.652 0.847969 -6.00745 0
M  V30 1769 H 166.391 1.06062 -4.76027 0
M  V30 1770 H 165.396 -1.16102 -5.37401 0
M  V30 1771 H 166.621 -1.36097 -6.65323 0
M  V30 1772 H 164.567 0.877884 -6.50099 0
M  V30 1773 H 164.484 -0.504433 -7.54315 0
M  V30 1774 H 165.752 0.663537 -7.76671 0
M  V30 1775 N 169.982 1.44106 -0.638065 0
M  V30 1776 C 171.231 2.01194 -0.142744 0
M  V30 1777 C 171.544 1.50835 1.24532 0
M  V30 1778 O 172.75 2.00096 1.83504 0
M  V30 1779 C 171.206 3.59319 -0.20442 0
M  V30 1780 C 170.814 4.18674 -1.59423 0
M  V30 1781 C 172.558 4.23854 0.234079 0
M  V30 1782 C 170.465 5.69045 -1.61065 0
M  V30 1783 H 169.395 0.752367 -0.0495998 0
M  V30 1784 H 172.046 1.65246 -0.797881 0
M  V30 1785 H 170.428 3.92598 0.517946 0
M  V30 1786 H 171.602 3.96921 -2.34074 0
M  V30 1787 H 169.917 3.66453 -1.97741 0
M  V30 1788 H 172.514 5.34155 0.241443 0
M  V30 1789 H 172.857 3.96688 1.2627 0
M  V30 1790 H 173.39 3.95403 -0.436025 0
M  V30 1791 H 170.129 6.00956 -2.61787 0
M  V30 1792 H 169.649 5.929 -0.90718 0
M  V30 1793 H 171.328 6.32809 -1.34766 0
M  V30 1794 N 171.46 0.379036 1.52974 0
M  V30 1795 C 172.685 -0.209353 2.06341 0
M  V30 1796 C 173.11 -1.40583 1.24972 0
M  V30 1797 O 172.468 -1.79246 0.272155 0
M  V30 1798 C 172.516 -0.567786 3.56102 0
M  V30 1799 O 171.62 -1.66318 3.77375 0
M  V30 1800 H 170.961 -0.0272919 0.663439 0
M  V30 1801 H 173.491 0.543536 1.97248 0
M  V30 1802 H 173.501 -0.835003 3.99364 0
M  V30 1803 H 172.176 0.307013 4.14765 0
M  V30 1804 H 170.753 -1.39048 3.46006 0
M  V30 1805 N 172.938 -1.57226 0.108567 0
M  V30 1806 C 174.186 -1.94448 -0.550853 0
M  V30 1807 C 174.507 -0.992074 -1.67878 0
M  V30 1808 O 173.777 -0.0465 -1.95845 0
M  V30 1809 H 172.357 -0.717897 -0.206479 0
M  V30 1810 H 175.019 -1.94112 0.175062 0
M  V30 1811 H 174.115 -2.97218 -0.952259 0
M  V30 1812 N 174.416 0.165178 -1.56732 0
M  V30 1813 C 175.326 1.22423 -2.00125 0
M  V30 1814 C 176.342 1.48084 -0.913619 0
M  V30 1815 O 177.518 1.60112 -1.22172 0
M  V30 1816 C 174.583 2.54197 -2.35764 0
M  V30 1817 C 173.644 2.36343 -3.58386 0
M  V30 1818 C 172.877 3.61834 -3.92316 0
M  V30 1819 O 173.1 4.67267 -3.27135 0
M  V30 1820 O 172.034 3.55579 -4.85641 0
M  V30 1821 H 175.86 0.885886 -2.90492 0
M  V30 1822 H 173.445 0.372518 -1.44681 0
M  V30 1823 H 175.327 3.3192 -2.59629 0
M  V30 1824 H 174.002 2.87598 -1.48557 0
M  V30 1825 H 172.909 1.56632 -3.39731 0
M  V30 1826 H 174.242 2.07865 -4.46154 0
M  V30 1827 N 175.894 1.51508 0.433938 0
M  V30 1828 C 177.14 1.64588 1.18484 0
M  V30 1829 C 177.473 0.362666 1.90784 0
M  V30 1830 O 176.748 -0.637892 1.83742 0
M  V30 1831 C 177.031 2.85149 2.19913 0
M  V30 1832 C 176.884 4.23456 1.51674 0
M  V30 1833 C 178.203 3.01227 3.20858 0
M  V30 1834 H 175.322 0.598994 0.429389 0
M  V30 1835 H 177.964 1.84002 0.473647 0
M  V30 1836 H 176.114 2.68729 2.80566 0
M  V30 1837 H 177.786 4.51552 0.943322 0
M  V30 1838 H 176.029 4.25998 0.819035 0
M  V30 1839 H 176.7 5.03812 2.2556 0
M  V30 1840 H 179.176 3.16382 2.70263 0
M  V30 1841 H 178.052 3.87141 3.89118 0
M  V30 1842 H 178.313 2.13447 3.8716 0
M  V30 1843 N 177.372 -0.689602 1.41712 0
M  V30 1844 C 178.335 -1.78521 1.43746 0
M  V30 1845 C 179.335 -1.57436 0.327191 0
M  V30 1846 O 180.525 -1.64 0.587348 0
M  V30 1847 C 177.657 -3.16971 1.25467 0
M  V30 1848 H 178.85 -1.78108 2.41283 0
M  V30 1849 H 176.403 -0.89781 1.27942 0
M  V30 1850 H 177.138 -3.23019 0.287948 0
M  V30 1851 H 176.923 -3.33678 2.05917 0
M  V30 1852 H 178.413 -3.96935 1.2974 0
M  V30 1853 N 178.85 -1.27639 -0.924453 0
M  V30 1854 C 179.797 -1.10644 -2.0255 0
M  V30 1855 C 180.767 -0.00658438 -1.66099 0
M  V30 1856 O 181.952 -0.16952 -1.90045 0
M  V30 1857 C 179.092 -0.76309 -3.36557 0
M  V30 1858 C 178.205 -1.94091 -3.85944 0
M  V30 1859 C 177.34 -1.53914 -5.08413 0
M  V30 1860 C 176.379 -2.68425 -5.50104 0
M  V30 1861 N 175.516 -2.28815 -6.63768 0
M  V30 1862 H 180.356 -2.04858 -2.16419 0
M  V30 1863 H 177.893 -1.01974 -1.06017 0
M  V30 1864 H 179.851 -0.544822 -4.13627 0
M  V30 1865 H 178.481 0.142102 -3.22487 0
M  V30 1866 H 177.533 -2.27162 -3.05125 0
M  V30 1867 H 178.845 -2.7998 -4.12811 0
M  V30 1868 H 177.999 -1.28231 -5.92994 0
M  V30 1869 H 176.738 -0.651391 -4.8333 0
M  V30 1870 H 175.743 -2.94819 -4.64071 0
M  V30 1871 H 176.968 -3.57826 -5.7718 0
M  V30 1872 H 174.914 -1.42495 -6.40337 0
M  V30 1873 H 174.831 -3.08242 -6.90306 0
M  V30 1874 H 176.099 -2.06387 -7.51681 0
M  V30 1875 N 180.328 1.1314 -1.09713 0
M  V30 1876 C 181.739 1.66029 -0.853885 0
M  V30 1877 C 182.09 1.86241 0.617142 0
M  V30 1878 O 181.215 1.5834 1.47503 0
M  V30 1879 C 181.81 3.01599 -1.5435 0
M  V30 1880 C 180.369 3.51467 -1.34714 0
M  V30 1881 C 179.516 2.26648 -1.59769 0
M  V30 1882 H 182.467 0.970226 -1.25588 0
M  V30 1883 H 182.488 3.67709 -0.978267 0
M  V30 1884 H 182 2.86856 -2.6141 0
M  V30 1885 H 180.101 3.71408 -0.297838 0
M  V30 1886 H 180.214 4.314 -2.08401 0
M  V30 1887 H 178.578 2.33385 -1.01998 0
M  V30 1888 H 179.361 2.14467 -2.68065 0
M  V30 1889 N 181.806 0.884767 1.30421 0
M  V30 1890 C 182.736 0.367574 2.30589 0
M  V30 1891 C 183.717 -0.549464 1.60981 0
M  V30 1892 O 184.902 -0.46336 1.88591 0
M  V30 1893 C 182.032 -0.418944 3.44764 0
M  V30 1894 C 180.986 0.406316 4.26067 0
M  V30 1895 C 180.312 -0.506793 5.32293 0
M  V30 1896 C 181.612 1.64832 4.95608 0
M  V30 1897 H 183.306 1.20462 2.74097 0
M  V30 1898 H 180.852 0.580695 1.31772 0
M  V30 1899 H 182.805 -0.791395 4.13902 0
M  V30 1900 H 181.529 -1.28964 3.0006 0
M  V30 1901 H 180.188 0.760903 3.58617 0
M  V30 1902 H 179.836 -1.37519 4.83836 0
M  V30 1903 H 179.536 0.0415828 5.87585 0
M  V30 1904 H 181.06 -0.875764 6.04287 0
M  V30 1905 H 182.474 1.34646 5.57264 0
M  V30 1906 H 180.871 2.13688 5.60765 0
M  V30 1907 H 181.941 2.39284 4.21748 0
M  V30 1908 N 183.284 -1.43765 0.645699 0
M  V30 1909 C 184.512 -2.06253 0.163556 0
M  V30 1910 C 184.927 -1.48352 -1.16778 0
M  V30 1911 O 184.284 -0.611932 -1.71935 0
M  V30 1912 C 184.335 -3.61453 0.0583186 0
M  V30 1913 O 184.056 -4.172 1.33702 0
M  V30 1914 C 185.557 -4.41002 -0.450795 0
M  V30 1915 H 182.777 -0.665413 0.0864077 0
M  V30 1916 H 185.321 -1.84396 0.884222 0
M  V30 1917 H 183.476 -3.82522 -0.612865 0
M  V30 1918 H 183.89 -5.10791 1.19131 0
M  V30 1919 H 185.364 -5.49966 -0.473403 0
M  V30 1920 H 185.841 -4.13488 -1.48068 0
M  V30 1921 H 186.447 -4.24886 0.187637 0
M  V30 1922 N 184.763 -0.387143 -1.52771 0
M  V30 1923 C 185.693 0.440551 -2.29306 0
M  V30 1924 C 186.674 1.06535 -1.32606 0
M  V30 1925 O 187.859 1.07853 -1.61497 0
M  V30 1926 C 184.989 1.56919 -3.09829 0
M  V30 1927 C 183.943 1.07054 -4.14395 0
M  V30 1928 C 183.269 2.29109 -4.83129 0
M  V30 1929 C 184.569 0.140015 -5.22112 0
M  V30 1930 H 186.263 -0.198026 -2.98744 0
M  V30 1931 H 183.809 -0.09668 -1.43675 0
M  V30 1932 H 185.762 2.15503 -3.62128 0
M  V30 1933 H 184.486 2.23532 -2.3812 0
M  V30 1934 H 183.145 0.507247 -3.63074 0
M  V30 1935 H 182.793 2.94227 -4.0797 0
M  V30 1936 H 182.493 1.96406 -5.53804 0
M  V30 1937 H 184.017 2.88339 -5.38231 0
M  V30 1938 H 185.431 0.633978 -5.69784 0
M  V30 1939 H 183.828 -0.0971485 -6.00021 0
M  V30 1940 H 184.898 -0.811711 -4.78058 0
M  V30 1941 N 186.241 1.57166 -0.116904 0
M  V30 1942 C 187.518 1.86645 0.585049 0
M  V30 1943 C 187.898 1.0177 1.84949 0
M  V30 1944 O 187.246 0.0960379 2.28298 0
M  V30 1945 C 187.456 3.37736 0.879507 0
M  V30 1946 C 188.804 4.06289 1.23348 0
M  V30 1947 O 189.828 3.42743 0.969836 0
M  V30 1948 O 188.687 5.18455 1.7282 0
M  V30 1949 H 185.781 0.772593 0.295007 0
M  V30 1950 H 188.327 1.69025 -0.151249 0
M  V30 1951 H 187.099 3.91296 -0.0166136 0
M  V30 1952 H 186.722 3.6078 1.67103 0
M  V30 1953 N 187.719 -0.156864 1.56817 0
M  V30 1954 C 188.669 -1.19891 1.93934 0
M  V30 1955 C 189.653 -1.39061 0.809372 0
M  V30 1956 O 190.845 -1.40789 1.07273 0
M  V30 1957 C 187.974 -2.53493 2.31508 0
M  V30 1958 C 187.06 -2.37957 3.51052 0
M  V30 1959 N 187.451 -1.92158 4.67877 0
M  V30 1960 C 185.749 -2.68739 3.55943 0
M  V30 1961 C 186.45 -1.8943 5.49992 0
M  V30 1962 N 185.426 -2.32375 4.91429 0
M  V30 1963 H 189.228 -0.836746 2.81737 0
M  V30 1964 H 186.742 -0.365012 1.58245 0
M  V30 1965 H 188.739 -3.28811 2.56299 0
M  V30 1966 H 187.399 -2.905 1.45051 0
M  V30 1967 H 188.41 -1.62274 4.91821 0
M  V30 1968 H 185.087 -3.09687 2.80001 0
M  V30 1969 H 186.477 -1.55596 6.53636 0
M  V30 1970 N 189.197 -1.51736 -0.425897 0
M  V30 1971 C 190.474 -1.55519 -1.1863 0
M  V30 1972 C 190.854 -0.326219 -2.08564 0
M  V30 1973 O 190.202 0.688012 -2.17896 0
M  V30 1974 C 190.412 -2.87521 -1.9782 0
M  V30 1975 C 191.76 -3.39899 -2.54468 0
M  V30 1976 O 192.784 -2.89148 -2.08019 0
M  V30 1977 O 191.643 -4.2848 -3.39215 0
M  V30 1978 H 188.737 -0.625739 -0.540721 0
M  V30 1979 H 191.283 -1.64055 -0.434038 0
M  V30 1980 H 190.055 -3.68422 -1.31836 0
M  V30 1981 H 189.678 -2.822 -2.80088 0
M  V30 1982 N 190.675 0.682077 -1.42076 0
M  V30 1983 C 191.952 1.43755 -1.32642 0
M  V30 1984 C 192.332 2.11063 0.0396611 0
M  V30 1985 O 191.68 2.02701 1.05474 0
M  V30 1986 C 191.89 2.44596 -2.48946 0
M  V30 1987 C 193.238 3.09454 -2.9073 0
M  V30 1988 O 194.262 2.54922 -2.48783 0
M  V30 1989 O 193.121 4.08253 -3.63307 0
M  V30 1990 H 190.215 0.640857 -0.522715 0
M  V30 1991 H 192.761 0.711415 -1.54068 0
M  V30 1992 H 191.533 1.93609 -3.40046 0
M  V30 1993 H 191.156 3.24701 -2.29467 0
M  V30 1994 N 192.153 1.28127 0.917671 0
M  V30 1995 C 193.083 1.14248 2.03641 0
M  V30 1996 C 194.064 0.0412748 1.7005 0
M  V30 1997 O 195.249 0.217566 1.92977 0
M  V30 1998 C 192.379 0.799431 3.37974 0
M  V30 1999 C 191.333 1.85497 3.85713 0
M  V30 2000 C 190.659 1.36565 5.16966 0
M  V30 2001 C 191.959 3.26085 4.08002 0
M  V30 2002 H 193.653 2.07835 2.15511 0
M  V30 2003 H 191.199 1.00064 1.03553 0
M  V30 2004 H 193.152 0.689114 4.15727 0
M  V30 2005 H 191.876 -0.172145 3.26146 0
M  V30 2006 H 190.535 1.95437 3.10161 0
M  V30 2007 H 190.183 0.383253 5.01538 0
M  V30 2008 H 189.883 2.07143 5.49878 0
M  V30 2009 H 191.407 1.26848 5.97279 0
M  V30 2010 H 192.821 3.19089 4.76293 0
M  V30 2011 H 191.218 3.94462 4.52238 0
M  V30 2012 H 192.288 3.70394 3.12948 0
M  V30 2013 N 193.631 -1.12557 1.10312 0
M  V30 2014 C 194.859 -1.87864 0.866873 0
M  V30 2015 C 195.274 -1.79588 -0.582557 0
M  V30 2016 O 194.631 -1.16887 -1.40156 0
M  V30 2017 C 194.682 -3.37125 1.30496 0
M  V30 2018 O 194.403 -3.45201 2.69755 0
M  V30 2019 C 195.904 -4.29373 1.10243 0
M  V30 2020 H 193.124 -0.594452 0.311236 0
M  V30 2021 H 195.668 -1.42429 1.46745 0
M  V30 2022 H 193.823 -3.80109 0.748081 0
M  V30 2023 H 194.237 -4.38056 2.88457 0
M  V30 2024 H 195.711 -5.32394 1.45811 0
M  V30 2025 H 196.188 -4.39181 0.0409492 0
M  V30 2026 H 196.794 -3.92169 1.64571 0
M  V30 2027 N 195.109 -0.891671 -1.2995 0
M  V30 2028 C 196.525 -0.58662 -1.48428 0
M  V30 2029 C 196.725 0.873951 -1.81561 0
M  V30 2030 O 195.781 1.65471 -1.90724 0
M  V30 2031 C 197.094 -1.50553 -2.60296 0
M  V30 2032 C 198.642 -1.50988 -2.74175 0
M  V30 2033 C 199.117 -2.41488 -3.89163 0
M  V30 2034 N 200.608 -2.39489 -3.96483 0
M  V30 2035 C 201.343 -3.06223 -4.84784 0
M  V30 2036 N 200.839 -3.82206 -5.77833 0
M  V30 2037 N 202.632 -2.95421 -4.78208 0
M  V30 2038 H 194.783 -1.83644 -1.06718 0
M  V30 2039 H 197.046 -0.786455 -0.529332 0
M  V30 2040 H 196.752 -2.54581 -2.42654 0
M  V30 2041 H 196.626 -1.22008 -3.56923 0
M  V30 2042 H 199.013 -0.47708 -2.91218 0
M  V30 2043 H 199.094 -1.83567 -1.78148 0
M  V30 2044 H 198.738 -3.44857 -3.72876 0
M  V30 2045 H 198.668 -2.06222 -4.84541 0
M  V30 2046 H 201.159 -1.84278 -3.29924 0
M  V30 2047 H 201.472 -4.302 -6.41988 0
M  V30 2048 H 199.817 -3.86313 -5.77743 0
M  V30 2049 H 203.008 -2.35581 -4.04499 0
M  V30 2050 H 203.181 -3.47704 -5.46814 0
M  V30 2051 N 196.587 1.43421 -0.653314 0
M  V30 2052 C 198.003 1.56341 -0.320886 0
M  V30 2053 C 198.203 1.63696 1.17499 0
M  V30 2054 O 197.259 1.59208 1.95982 0
M  V30 2055 C 198.572 2.82424 -1.03233 0
M  V30 2056 C 200.12 2.96168 -1.01259 0
M  V30 2057 C 200.595 4.25084 -1.70492 0
M  V30 2058 N 202.086 4.31948 -1.67257 0
M  V30 2059 C 202.821 5.30466 -2.17701 0
M  V30 2060 N 202.317 6.35261 -2.76434 0
M  V30 2061 N 204.11 5.2212 -2.082 0
M  V30 2062 H 196.261 1.3689 -1.62403 0
M  V30 2063 H 198.524 0.657455 -0.682977 0
M  V30 2064 H 198.23 2.83053 -2.08744 0
M  V30 2065 H 198.104 3.72653 -0.583948 0
M  V30 2066 H 200.491 2.9508 0.0341235 0
M  V30 2067 H 200.572 2.07229 -1.49966 0
M  V30 2068 H 200.216 4.26932 -2.7512 0
M  V30 2069 H 200.146 5.1292 -1.19251 0
M  V30 2070 H 202.637 3.56838 -1.24398 0
M  V30 2071 H 202.95 7.06754 -3.12601 0
M  V30 2072 H 201.295 6.35884 -2.80495 0
M  V30 2073 H 204.486 4.39166 -1.62021 0
M  V30 2074 H 204.659 5.98739 -2.47822 0
M  V30 2075 N 198.065 0.39524 1.52563 0
M  V30 2076 C 199.312 -0.185044 2.01653 0
M  V30 2077 C 199.64 -1.46317 1.28146 0
M  V30 2078 O 198.895 -1.9213 0.372074 0
M  V30 2079 C 199.194 -0.493444 3.53977 0
M  V30 2080 C 198.86 0.69384 4.4553 0
M  V30 2081 C 197.522 1.01954 4.70275 0
M  V30 2082 C 199.874 1.48785 4.99512 0
M  V30 2083 C 197.202 2.14069 5.46252 0
M  V30 2084 C 199.554 2.59965 5.76716 0
M  V30 2085 C 198.218 2.93037 5.99738 0
M  V30 2086 H 197.488 -0.0677123 0.7379 0
M  V30 2087 H 200.135 0.533807 1.8391 0
M  V30 2088 H 198.44 -1.29369 3.69825 0
M  V30 2089 H 200.137 -0.955163 3.89458 0
M  V30 2090 H 196.727 0.429987 4.26438 0
M  V30 2091 H 200.911 1.24946 4.80315 0
M  V30 2092 H 196.167 2.40056 5.62302 0
M  V30 2093 H 200.341 3.21887 6.17545 0
M  V30 2094 H 197.968 3.8003 6.58393 0
M  V30 2095 N 199.544 -1.57102 0.125237 0
M  V30 2096 C 200.955 -1.82384 -0.399142 0
M  V30 2097 C 201.306 -1.04276 -1.66195 0
M  V30 2098 O 200.431 -0.281269 -2.14564 0
M  V30 2099 C 201.026 -3.30821 -0.730932 0
M  V30 2100 C 199.585 -3.56762 -1.19992 0
M  V30 2101 C 198.732 -2.7649 -0.211792 0
M  V30 2102 H 201.683 -1.54786 0.350277 0
M  V30 2103 H 201.704 -3.4579 -1.58775 0
M  V30 2104 H 201.216 -3.87643 0.188345 0
M  V30 2105 H 199.317 -3.05305 -2.13588 0
M  V30 2106 H 199.43 -4.65317 -1.14093 0
M  V30 2107 H 197.794 -2.4489 -0.700085 0
M  V30 2108 H 198.577 -3.36073 0.700691 0
M  V30 2109 N 201.022 0.148545 -1.56898 0
M  V30 2110 C 201.952 1.18524 -2.01182 0
M  V30 2111 C 202.933 1.4489 -0.891123 0
M  V30 2112 O 204.118 1.55836 -1.15882 0
M  V30 2113 C 201.248 2.51879 -2.39112 0
M  V30 2114 C 200.202 2.40038 -3.54353 0
M  V30 2115 C 199.528 3.78089 -3.78091 0
M  V30 2116 C 200.828 1.88577 -4.87069 0
M  V30 2117 H 202.522 0.817029 -2.88036 0
M  V30 2118 H 200.068 0.391575 -1.38574 0
M  V30 2119 H 202.021 3.24627 -2.68692 0
M  V30 2120 H 200.745 2.90532 -1.49193 0
M  V30 2121 H 199.404 1.69742 -3.24936 0
M  V30 2122 H 199.052 4.14175 -2.85426 0
M  V30 2123 H 198.752 3.71028 -4.55645 0
M  V30 2124 H 200.276 4.52387 -4.10095 0
M  V30 2125 H 201.69 2.51117 -5.15377 0
M  V30 2126 H 200.087 1.9241 -5.68417 0
M  V30 2127 H 201.157 0.84136 -4.77545 0
M  V30 2128 N 202.5 1.5196 0.417844 0
M  V30 2129 C 203.41 1.77554 1.53336 0
M  V30 2130 C 204.426 0.660655 1.6097 0
M  V30 2131 O 205.602 0.945099 1.77848 0
M  V30 2132 C 202.667 1.91291 2.89152 0
M  V30 2133 C 201.728 3.15183 2.91475 0
M  V30 2134 C 200.961 3.28256 4.20813 0
M  V30 2135 O 201.184 2.46798 5.14244 0
M  V30 2136 O 200.118 4.21356 4.29817 0
M  V30 2137 H 203.944 2.7222 1.34647 0
M  V30 2138 H 201.529 1.36698 0.602828 0
M  V30 2139 H 203.411 2.02199 3.69721 0
M  V30 2140 H 202.086 0.998129 3.07927 0
M  V30 2141 H 200.993 3.09739 2.09791 0
M  V30 2142 H 202.326 4.06414 2.77648 0
M  V30 2143 N 203.978 -0.674533 1.42435 0
M  V30 2144 C 204.888 -1.81751 1.48337 0
M  V30 2145 C 205.904 -1.69975 0.372099 0
M  V30 2146 O 207.08 -1.91521 0.62304 0
M  V30 2147 C 204.145 -3.17895 1.38361 0
M  V30 2148 C 203.206 -3.41625 2.59982 0
M  V30 2149 C 202.439 -4.71274 2.50473 0
M  V30 2150 O 202.662 -5.49197 1.54075 0
M  V30 2151 O 201.596 -4.96254 3.4061 0
M  V30 2152 H 205.422 -1.79728 2.44809 0
M  V30 2153 H 203.007 -0.830312 1.24202 0
M  V30 2154 H 204.889 -3.99136 1.35161 0
M  V30 2155 H 203.564 -3.20555 0.450144 0
M  V30 2156 H 202.471 -2.60231 2.68757 0
M  V30 2157 H 203.804 -3.43796 3.52229 0
M  V30 2158 N 205.456 -1.28612 -0.910864 0
M  V30 2159 C 206.872 -1.06381 -1.18976 0
M  V30 2160 C 207.072 0.191998 -2.00583 0
M  V30 2161 O 206.128 0.892869 -2.36187 0
M  V30 2162 C 207.441 -2.31295 -1.92154 0
M  V30 2163 C 208.989 -2.36503 -2.05025 0
M  V30 2164 C 209.464 -3.61191 -2.81612 0
M  V30 2165 N 210.955 -3.61847 -2.89172 0
M  V30 2166 C 211.69 -4.55004 -3.4894 0
M  V30 2167 N 211.186 -5.58482 -4.09963 0
M  V30 2168 N 212.979 -4.42594 -3.46506 0
M  V30 2169 H 205.13 -2.09221 -0.366094 0
M  V30 2170 H 207.393 -0.921003 -0.224629 0
M  V30 2171 H 207.099 -3.228 -1.39618 0
M  V30 2172 H 206.973 -2.37934 -2.9269 0
M  V30 2173 H 209.36 -1.45494 -2.5674 0
M  V30 2174 H 209.441 -2.33857 -1.03657 0
M  V30 2175 H 209.085 -4.52545 -2.30576 0
M  V30 2176 H 209.015 -3.61092 -3.83302 0
M  V30 2177 H 211.506 -2.87022 -2.45819 0
M  V30 2178 H 211.819 -6.25704 -4.53557 0
M  V30 2179 H 210.164 -5.62305 -4.08459 0
M  V30 2180 H 213.355 -3.60953 -2.98045 0
M  V30 2181 H 213.528 -5.15381 -3.92793 0
M  V30 2182 N 206.934 1.1197 -1.10907 0
M  V30 2183 C 208.183 1.82947 -0.849302 0
M  V30 2184 C 208.496 1.85275 0.627112 0
M  V30 2185 O 209.702 2.52296 1.00295 0
M  V30 2186 C 208.158 3.28529 -1.46959 0
M  V30 2187 C 207.766 3.34546 -2.97965 0
M  V30 2188 C 209.51 4.04443 -1.28942 0
M  V30 2189 C 207.417 4.74491 -3.53004 0
M  V30 2190 H 206.347 0.685477 -0.314065 0
M  V30 2191 H 208.998 1.2604 -1.33365 0
M  V30 2192 H 207.38 3.85333 -0.912917 0
M  V30 2193 H 208.554 2.87654 -3.59989 0
M  V30 2194 H 206.869 2.72108 -3.15192 0
M  V30 2195 H 209.466 5.07787 -1.67502 0
M  V30 2196 H 209.809 4.15656 -0.231456 0
M  V30 2197 H 210.342 3.5401 -1.81443 0
M  V30 2198 H 207.081 4.68474 -4.58489 0
M  V30 2199 H 206.601 5.21816 -2.9575 0
M  V30 2200 H 208.28 5.4344 -3.51115 0
M  V30 2201 N 208.412 0.89855 1.29475 0
M  V30 2202 C 209.642 0.538479 1.99459 0
M  V30 2203 C 210.05 -0.880922 1.67441 0
M  V30 2204 O 209.393 -1.59283 0.915127 0
M  V30 2205 C 209.455 0.649564 3.53583 0
M  V30 2206 C 209.119 2.03573 4.09154 0
M  V30 2207 C 210.116 3.00675 4.24135 0
M  V30 2208 C 207.801 2.3448 4.44212 0
M  V30 2209 C 209.795 4.26809 4.73405 0
M  V30 2210 C 207.482 3.60857 4.93179 0
M  V30 2211 C 208.48 4.56836 5.0773 0
M  V30 2212 O 208.168 5.80969 5.55635 0
M  V30 2213 H 207.9 0.205372 0.644048 0
M  V30 2214 H 210.454 1.20958 1.66007 0
M  V30 2215 H 208.684 -0.0785592 3.8662 0
M  V30 2216 H 210.373 0.29881 4.04799 0
M  V30 2217 H 211.139 2.78112 3.97339 0
M  V30 2218 H 207.018 1.60534 4.32145 0
M  V30 2219 H 210.562 5.0173 4.84678 0
M  V30 2220 H 206.459 3.83251 5.19412 0
M  V30 2221 H 207.227 5.83542 5.73952 0
M  V30 2222 N 209.89 -1.43072 0.660911 0
M  V30 2223 C 211.306 -1.56169 0.329173 0
M  V30 2224 C 211.506 -1.64317 -1.16629 0
M  V30 2225 O 210.562 -1.60245 -1.95135 0
M  V30 2226 C 211.875 -2.81873 1.04729 0
M  V30 2227 C 213.423 -2.95627 1.02828 0
M  V30 2228 C 213.898 -4.24174 1.72744 0
M  V30 2229 N 215.389 -4.31055 1.69545 0
M  V30 2230 C 216.124 -5.29304 2.20511 0
M  V30 2231 N 215.62 -6.33786 2.79799 0
M  V30 2232 N 217.413 -5.21008 2.10966 0
M  V30 2233 H 209.564 -1.36027 1.63127 0
M  V30 2234 H 211.827 -0.653823 0.686454 0
M  V30 2235 H 211.533 -2.81942 2.10242 0
M  V30 2236 H 211.407 -3.72338 0.603702 0
M  V30 2237 H 213.794 -2.95094 -0.0184742 0
M  V30 2238 H 213.875 -2.06431 1.51063 0
M  V30 2239 H 213.519 -4.25467 2.7738 0
M  V30 2240 H 213.449 -5.1228 1.2197 0
M  V30 2241 H 215.94 -3.56174 1.26288 0
M  V30 2242 H 216.253 -7.05086 3.16344 0
M  V30 2243 H 214.598 -6.34387 2.83863 0
M  V30 2244 H 217.789 -4.38301 1.64347 0
M  V30 2245 H 217.962 -5.97416 2.50993 0
M  V30 2246 N 211.368 -0.403325 -1.52352 0
M  V30 2247 C 212.301 0.469463 -2.23319 0
M  V30 2248 C 213.279 1.05272 -1.23922 0
M  V30 2249 O 214.463 1.10169 -1.52954 0
M  V30 2250 C 211.59 1.6511 -2.9573 0
M  V30 2251 C 210.636 1.19178 -4.0951 0
M  V30 2252 S 211.469 0.161718 -5.35256 0
M  V30 2253 C 212.625 1.34882 -6.11194 0
M  V30 2254 H 212.858 -0.133134 -2.97002 0
M  V30 2255 H 210.391 -0.187588 -1.53256 0
M  V30 2256 H 212.349 2.3287 -3.38056 0
M  V30 2257 H 211.01 2.22503 -2.21701 0
M  V30 2258 H 210.203 2.07444 -4.59329 0
M  V30 2259 H 209.805 0.592911 -3.6927 0
M  V30 2260 H 212.097 2.27345 -6.38217 0
M  V30 2261 H 213.04 0.89128 -7.02468 0
M  V30 2262 H 213.448 1.57198 -5.42171 0
M  V30 2263 N 212.846 1.57033 -0.133567 0
M  V30 2264 C 214.262 1.58035 0.222944 0
M  V30 2265 C 214.462 1.14713 1.6566 0
M  V30 2266 O 213.518 0.841218 2.38075 0
M  V30 2267 C 214.831 3.00691 -0.0236116 0
M  V30 2268 C 216.379 3.12973 0.0411512 0
M  V30 2269 C 216.854 4.57654 -0.177899 0
M  V30 2270 N 218.345 4.63033 -0.124365 0
M  V30 2271 C 219.08 5.72771 -0.268553 0
M  V30 2272 N 218.576 6.91206 -0.46972 0
M  V30 2273 N 220.369 5.61718 -0.2071 0
M  V30 2274 H 212.52 1.8349 -1.06981 0
M  V30 2275 H 214.783 0.848677 -0.422436 0
M  V30 2276 H 214.489 3.36726 -1.0153 0
M  V30 2277 H 214.363 3.70614 0.701808 0
M  V30 2278 H 216.75 2.76787 1.02338 0
M  V30 2279 H 216.831 2.45564 -0.716383 0
M  V30 2280 H 216.475 4.94542 -1.15717 0
M  V30 2281 H 216.405 5.23173 0.599797 0
M  V30 2282 H 218.896 3.7789 0.027011 0
M  V30 2283 H 219.209 7.70693 -0.570212 0
M  V30 2284 H 217.554 6.93156 -0.505876 0
M  V30 2285 H 220.745 4.68072 -0.0507986 0
M  V30 2286 H 220.918 6.47195 -0.322909 0
M  V30 2287 N 214.325 -0.140222 1.56975 0
M  V30 2288 C 215.565 -0.857823 1.85528 0
M  V30 2289 C 215.929 -1.78039 0.718768 0
M  V30 2290 O 217.13 -2.53795 0.885521 0
M  V30 2291 C 215.401 -1.60615 3.19277 0
M  V30 2292 S 216.96 -2.36824 3.69405 0
M  V30 2293 H 213.778 -0.286727 0.650622 0
M  V30 2294 H 216.38 -0.117408 1.95147 0
M  V30 2295 H 215.084 -0.919994 3.99955 0
M  V30 2296 H 214.615 -2.38735 3.12681 0
M  V30 2297 H 216.63 -3.62148 3.3921 0
M  V30 2298 N 215.803 -1.52179 -0.40978 0
M  V30 2299 C 217.049 -1.66453 -1.15851 0
M  V30 2300 C 217.382 -0.392972 -1.90182 0
M  V30 2301 O 216.657 0.608579 -1.84734 0
M  V30 2302 C 216.94 -2.88612 -2.15349 0
M  V30 2303 C 216.793 -4.25815 -1.44918 0
M  V30 2304 C 218.112 -3.06294 -3.16026 0
M  V30 2305 H 215.231 -0.60575 -0.419805 0
M  V30 2306 H 217.873 -1.84732 -0.444314 0
M  V30 2307 H 216.023 -2.73158 -2.76255 0
M  V30 2308 H 217.695 -4.52995 -0.871365 0
M  V30 2309 H 215.938 -4.27247 -0.751159 0
M  V30 2310 H 216.609 -5.07337 -2.17516 0
M  V30 2311 H 219.085 -3.20641 -2.65195 0
M  V30 2312 H 217.961 -3.93283 -3.8291 0
M  V30 2313 H 218.222 -2.19579 -3.83715 0
M  V30 2314 N 217.281 0.66697 -1.42791 0
M  V30 2315 C 218.191 1.80962 -1.49299 0
M  V30 2316 C 219.207 1.69775 -0.381108 0
M  V30 2317 O 220.383 1.91188 -0.633188 0
M  V30 2318 C 217.448 3.17156 -1.40045 0
M  V30 2319 C 216.509 3.40242 -2.6179 0
M  V30 2320 C 215.742 4.69939 -2.52969 0
M  V30 2321 O 215.965 5.48372 -1.56985 0
M  V30 2322 O 214.899 4.94441 -3.43237 0
M  V30 2323 H 218.725 1.78427 -2.45759 0
M  V30 2324 H 216.31 0.823713 -1.24641 0
M  V30 2325 H 218.192 3.98413 -1.37276 0
M  V30 2326 H 216.867 3.20312 -0.467138 0
M  V30 2327 H 215.774 2.58802 -2.70134 0
M  V30 2328 H 217.107 3.41923 -3.54047 0
M  V30 2329 N 218.759 1.29093 0.90403 0
M  V30 2330 C 219.722 1.1386 1.98919 0
M  V30 2331 C 220.722 0.0753457 1.60623 0
M  V30 2332 O 221.912 0.321931 1.71199 0
M  V30 2333 C 219.044 0.740198 3.32767 0
M  V30 2334 H 220.237 2.10246 2.13861 0
M  V30 2335 H 217.79 1.12218 1.08797 0
M  V30 2336 H 218.525 -0.223997 3.23525 0
M  V30 2337 H 218.31 1.50838 3.61926 0
M  V30 2338 H 219.8 0.656546 4.12407 0
M  V30 2339 N 220.237 -1.11381 1.11499 0
M  V30 2340 C 221.483 -1.83597 0.875423 0
M  V30 2341 C 221.838 -1.83048 -0.592555 0
M  V30 2342 O 221.131 -1.27304 -1.43193 0
M  V30 2343 C 221.325 -3.30026 1.37177 0
M  V30 2344 C 221.154 -3.44837 2.88647 0
M  V30 2345 C 219.924 -3.57825 3.56776 0
M  V30 2346 C 222.122 -3.3907 3.86699 0
M  V30 2347 N 220.104 -3.61113 4.96458 0
M  V30 2348 C 221.475 -3.48986 5.12454 0
M  V30 2349 C 223.53 -3.22605 3.7925 0
M  V30 2350 C 222.233 -3.44135 6.31636 0
M  V30 2351 C 224.259 -3.19072 4.97943 0
M  V30 2352 C 223.621 -3.29559 6.22551 0
M  V30 2353 H 219.72 -0.687044 0.37349 0
M  V30 2354 H 222.304 -1.33265 1.41946 0
M  V30 2355 H 220.475 -3.78874 0.854919 0
M  V30 2356 H 222.207 -3.90153 1.07529 0
M  V30 2357 H 218.962 -3.60414 3.07244 0
M  V30 2358 H 219.386 -3.66394 5.69284 0
M  V30 2359 H 224.028 -3.13382 2.83816 0
M  V30 2360 H 221.746 -3.52126 7.27347 0
M  V30 2361 H 225.332 -3.07498 4.93899 0
M  V30 2362 H 224.212 -3.26815 7.12855 0
M  V30 2363 N 221.715 -0.905404 -1.28997 0
M  V30 2364 C 222.94 -0.549175 -1.99997 0
M  V30 2365 C 223.365 0.860276 -1.67275 0
M  V30 2366 O 222.723 1.57355 -0.900502 0
M  V30 2367 C 222.771 -0.755185 -3.52604 0
M  V30 2368 O 221.875 0.189692 -4.11964 0
M  V30 2369 H 221.216 -0.213899 -0.628604 0
M  V30 2370 H 223.746 -1.21856 -1.64354 0
M  V30 2371 H 223.756 -0.662045 -4.02593 0
M  V30 2372 H 222.431 -1.78271 -3.75755 0
M  V30 2373 H 221.008 0.0485257 -3.72868 0
M  V30 2374 N 223.193 1.4272 -0.668489 0
M  V30 2375 C 224.126 2.28111 0.0637898 0
M  V30 2376 C 225.104 1.40705 0.814912 0
M  V30 2377 O 226.288 1.70146 0.81134 0
M  V30 2378 C 223.415 3.20429 1.0974 0
M  V30 2379 C 222.461 4.24197 0.442579 0
M  V30 2380 S 223.294 5.29563 -0.795173 0
M  V30 2381 C 224.45 6.25449 0.237516 0
M  V30 2382 H 224.683 2.8987 -0.660521 0
M  V30 2383 H 222.216 1.47456 -0.457821 0
M  V30 2384 H 224.174 3.74158 1.68868 0
M  V30 2385 H 222.835 2.57818 1.79411 0
M  V30 2386 H 222.028 4.88954 1.22227 0
M  V30 2387 H 221.63 3.73925 -0.0749554 0
M  V30 2388 H 223.922 6.68524 1.09915 0
M  V30 2389 H 224.865 7.07104 -0.375421 0
M  V30 2390 H 225.273 5.61511 0.580167 0
M  V30 2391 N 224.671 0.411399 1.52136 0
M  V30 2392 C 225.917 -0.163888 2.02137 0
M  V30 2393 C 226.25 -1.44597 1.29636 0
M  V30 2394 O 225.525 -1.90272 0.403353 0
M  V30 2395 C 225.808 -0.40927 3.57767 0
M  V30 2396 C 225.661 0.889643 4.40914 0
M  V30 2397 C 226.98 -1.19042 4.23694 0
M  V30 2398 H 224.099 -0.0580896 0.734707 0
M  V30 2399 H 226.741 0.54531 1.82007 0
M  V30 2400 H 224.891 -1.0134 3.7505 0
M  V30 2401 H 226.563 1.52575 4.35337 0
M  V30 2402 H 224.806 1.50011 4.07037 0
M  V30 2403 H 225.477 0.672314 5.4789 0
M  V30 2404 H 227.953 -0.678942 4.10524 0
M  V30 2405 H 226.829 -1.33086 5.32522 0
M  V30 2406 H 227.09 -2.21166 3.82803 0
M  V30 2407 N 226.149 -1.5696 0.141893 0
M  V30 2408 C 227.395 -1.9625 -0.511248 0
M  V30 2409 C 227.728 -1.02654 -1.64851 0
M  V30 2410 O 227.003 -0.0679676 -1.94381 0
M  V30 2411 C 227.286 -3.45285 -1.02227 0
M  V30 2412 C 227.139 -4.49658 0.113138 0
M  V30 2413 C 228.458 -3.96698 -1.90574 0
M  V30 2414 H 225.577 -0.713567 -0.184367 0
M  V30 2415 H 228.219 -1.88698 0.222087 0
M  V30 2416 H 226.369 -3.51852 -1.64719 0
M  V30 2417 H 228.041 -4.55174 0.749302 0
M  V30 2418 H 226.284 -4.26857 0.773026 0
M  V30 2419 H 226.955 -5.51258 -0.286053 0
M  V30 2420 H 229.431 -3.92578 -1.37918 0
M  V30 2421 H 228.307 -5.01453 -2.2324 0
M  V30 2422 H 228.568 -3.3875 -2.84079 0
M  V30 2423 N 227.627 0.131896 -1.57047 0
M  V30 2424 C 229.038 0.690407 -1.73465 0
M  V30 2425 C 229.389 1.8094 -0.758629 0
M  V30 2426 O 228.514 2.16282 0.0713813 0
M  V30 2427 C 229.109 1.25916 -3.14532 0
M  V30 2428 C 227.668 1.76409 -3.32501 0
M  V30 2429 C 226.815 0.658579 -2.69366 0
M  V30 2430 H 229.766 -0.0939144 -1.58422 0
M  V30 2431 H 229.787 2.12892 -3.15369 0
M  V30 2432 H 229.299 0.444515 -3.85546 0
M  V30 2433 H 227.4 2.60391 -2.66509 0
M  V30 2434 H 227.513 1.88241 -4.4057 0
M  V30 2435 H 225.877 1.08899 -2.30246 0
M  V30 2436 H 226.66 -0.14487 -3.42994 0
M  V30 2437 N 229.106 1.52395 0.401703 0
M  V30 2438 C 230.352 1.68019 1.14635 0
M  V30 2439 C 230.707 0.408722 1.88009 0
M  V30 2440 O 230 -0.597133 1.82057 0
M  V30 2441 C 230.194 2.84578 2.16217 0
M  V30 2442 C 230.023 4.22938 1.5282 0
M  V30 2443 C 228.793 4.88352 1.29772 0
M  V30 2444 C 230.991 5.04778 0.985094 0
M  V30 2445 N 228.973 6.10726 0.623455 0
M  V30 2446 C 230.344 6.1845 0.438172 0
M  V30 2447 C 232.399 4.90057 0.880275 0
M  V30 2448 C 231.102 7.19013 -0.203306 0
M  V30 2449 C 233.128 5.9086 0.252639 0
M  V30 2450 C 232.49 7.03829 -0.283573 0
M  V30 2451 H 228.589 0.668413 0.405892 0
M  V30 2452 H 231.173 1.89717 0.437674 0
M  V30 2453 H 229.344 2.64483 2.84435 0
M  V30 2454 H 231.076 2.89202 2.83098 0
M  V30 2455 H 227.831 4.46846 1.56926 0
M  V30 2456 H 228.255 6.76323 0.302733 0
M  V30 2457 H 232.897 4.02938 1.28065 0
M  V30 2458 H 230.615 8.05751 -0.615726 0
M  V30 2459 H 234.201 5.81543 0.172954 0
M  V30 2460 H 233.081 7.80493 -0.761575 0
M  V30 2461 N 230.584 -0.659388 1.43143 0
M  V30 2462 C 231.833 -1.41518 1.43721 0
M  V30 2463 C 232.146 -1.95499 0.0628176 0
M  V30 2464 O 233.352 -2.71446 -0.0539683 0
M  V30 2465 C 231.808 -2.5608 2.52885 0
M  V30 2466 C 231.416 -2.08733 3.96402 0
M  V30 2467 C 233.16 -3.3349 2.62649 0
M  V30 2468 C 231.067 -3.20469 4.97045 0
M  V30 2469 H 229.997 -0.531705 0.534608 0
M  V30 2470 H 232.648 -0.712343 1.69109 0
M  V30 2471 H 231.03 -3.28805 2.20688 0
M  V30 2472 H 232.204 -1.43059 4.3803 0
M  V30 2473 H 230.519 -1.44219 3.90627 0
M  V30 2474 H 233.116 -4.16734 3.35017 0
M  V30 2475 H 233.459 -3.8111 1.67513 0
M  V30 2476 H 233.992 -2.67842 2.94118 0
M  V30 2477 H 230.731 -2.77824 5.93712 0
M  V30 2478 H 230.251 -3.84874 4.60034 0
M  V30 2479 H 231.93 -3.85698 5.19467 0
M  V30 2480 N 232.062 -1.29571 -0.897171 0
M  V30 2481 C 233.31 -1.17456 -1.64464 0
M  V30 2482 C 233.631 0.273698 -1.9307 0
M  V30 2483 O 232.901 1.18684 -1.55855 0
M  V30 2484 H 231.481 -0.431706 -0.609622 0
M  V30 2485 H 234.143 -1.62531 -1.07562 0
M  V30 2486 H 233.239 -1.72648 -2.59998 0
M  V30 2487 N 233.54 1.10788 -1.12088 0
M  V30 2488 C 234.787 1.82671 -0.873931 0
M  V30 2489 C 235.115 1.85004 0.600311 0
M  V30 2490 O 234.37 1.30365 1.45957 0
M  V30 2491 C 234.669 3.29294 -1.38926 0
M  V30 2492 C 234.335 3.47113 -2.87791 0
M  V30 2493 C 232.997 3.51684 -3.28439 0
M  V30 2494 C 235.349 3.52808 -3.83635 0
M  V30 2495 C 232.677 3.59513 -4.63646 0
M  V30 2496 C 235.029 3.62169 -5.18668 0
M  V30 2497 C 233.693 3.65003 -5.58864 0
M  V30 2498 H 232.963 0.668441 -0.319794 0
M  V30 2499 H 235.61 1.30613 -1.40045 0
M  V30 2500 H 233.915 3.83894 -0.783122 0
M  V30 2501 H 235.612 3.83416 -1.17443 0
M  V30 2502 H 232.202 3.4423 -2.5535 0
M  V30 2503 H 236.386 3.4853 -3.53328 0
M  V30 2504 H 231.642 3.59987 -4.94185 0
M  V30 2505 H 235.816 3.6552 -5.92763 0
M  V30 2506 H 233.443 3.70822 -6.63623 0
M  V30 2507 N 235.018 0.912232 1.28515 0
M  V30 2508 C 236.429 0.591352 1.77087 0
M  V30 2509 C 236.78 -0.8933 1.74684 0
M  V30 2510 O 235.905 -1.69876 1.34056 0
M  V30 2511 C 236.5 1.06668 3.2157 0
M  V30 2512 C 235.059 0.79675 3.67871 0
M  V30 2513 C 234.206 1.23427 2.48316 0
M  V30 2514 H 237.157 1.09365 1.15 0
M  V30 2515 H 237.178 0.407455 3.78312 0
M  V30 2516 H 236.69 2.14726 3.23287 0
M  V30 2517 H 234.791 -0.270679 3.71616 0
M  V30 2518 H 234.904 1.40343 4.58084 0
M  V30 2519 H 233.268 0.653036 2.46186 0
M  V30 2520 H 234.051 2.32316 2.52753 0
M  V30 2521 N 236.496 -1.42363 0.676048 0
M  V30 2522 C 237.426 -2.33497 0.0124832 0
M  V30 2523 C 238.407 -1.50748 -0.787981 0
M  V30 2524 O 239.592 -1.79346 -0.744884 0
M  V30 2525 C 236.722 -3.34377 -0.938582 0
M  V30 2526 C 235.676 -4.27289 -0.246622 0
M  V30 2527 C 235.002 -5.18386 -1.31071 0
M  V30 2528 C 236.302 -5.14916 0.875125 0
M  V30 2529 H 237.996 -2.89233 0.773593 0
M  V30 2530 H 235.542 -1.39073 0.37346 0
M  V30 2531 H 237.495 -3.97044 -1.41188 0
M  V30 2532 H 236.219 -2.76947 -1.73113 0
M  V30 2533 H 234.878 -3.66018 0.206456 0
M  V30 2534 H 234.526 -4.57282 -2.09528 0
M  V30 2535 H 234.226 -5.81378 -0.852839 0
M  V30 2536 H 235.75 -5.83929 -1.78492 0
M  V30 2537 H 237.164 -5.71262 0.482983 0
M  V30 2538 H 235.561 -5.86747 1.25887 0
M  V30 2539 H 236.631 -4.53242 1.72335 0
M  V30 2540 N 237.974 -0.419461 -1.51915 0
M  V30 2541 C 238.924 0.418496 -2.24126 0
M  V30 2542 C 239.908 1.00495 -1.25656 0
M  V30 2543 O 241.1 0.926058 -1.50842 0
M  V30 2544 C 238.229 1.52899 -3.07371 0
M  V30 2545 C 237.315 0.952797 -4.13258 0
M  V30 2546 N 237.706 0.104175 -5.05693 0
M  V30 2547 C 236.004 1.22224 -4.28926 0
M  V30 2548 C 236.705 -0.21752 -5.81293 0
M  V30 2549 N 235.681 0.394293 -5.42168 0
M  V30 2550 H 239.483 -0.236048 -2.92951 0
M  V30 2551 H 236.997 -0.230481 -1.60756 0
M  V30 2552 H 238.994 2.14199 -3.57665 0
M  V30 2553 H 237.654 2.18605 -2.40088 0
M  V30 2554 H 238.665 -0.260924 -5.17242 0
M  V30 2555 H 235.342 1.87812 -3.72871 0
M  V30 2556 H 236.732 -0.906992 -6.6575 0
M  V30 2557 N 239.452 1.56882 -0.150215 0
M  V30 2558 C 240.399 2.16922 0.788244 0
M  V30 2559 C 241.369 1.10303 1.24187 0
M  V30 2560 O 242.554 1.38359 1.31383 0
M  V30 2561 C 239.694 2.79754 2.02068 0
M  V30 2562 C 238.807 4.00775 1.61257 0
M  V30 2563 C 237.942 4.51595 2.79705 0
M  V30 2564 C 236.981 5.65074 2.35282 0
M  V30 2565 N 236.118 6.10499 3.4675 0
M  V30 2566 H 240.958 2.96779 0.269444 0
M  V30 2567 H 238.495 1.46599 0.12128 0
M  V30 2568 H 240.453 3.14329 2.74323 0
M  V30 2569 H 239.083 2.02536 2.51354 0
M  V30 2570 H 238.135 3.72158 0.787553 0
M  V30 2571 H 239.447 4.82978 1.24633 0
M  V30 2572 H 238.601 4.88242 3.60145 0
M  V30 2573 H 237.34 3.68406 3.19576 0
M  V30 2574 H 236.345 5.28 1.53283 0
M  V30 2575 H 237.57 6.50052 1.96493 0
M  V30 2576 H 235.516 5.30243 3.86236 0
M  V30 2577 H 235.433 6.87637 3.14152 0
M  V30 2578 H 236.701 6.51791 4.27537 0
M  V30 2579 N 240.93 -0.123565 1.57115 0
M  V30 2580 C 241.86 -1.15309 2.03042 0
M  V30 2581 C 242.841 -1.43454 0.914061 0
M  V30 2582 O 244.026 -1.53973 1.18347 0
M  V30 2583 C 241.156 -2.48043 2.43089 0
M  V30 2584 C 240.11 -2.3437 3.58127 0
M  V30 2585 C 239.436 -3.72026 3.84059 0
M  V30 2586 C 240.736 -1.80804 4.90007 0
M  V30 2587 H 242.43 -0.771102 2.893 0
M  V30 2588 H 239.976 -0.369479 1.39179 0
M  V30 2589 H 241.929 -3.20311 2.73823 0
M  V30 2590 H 240.653 -2.88122 1.53796 0
M  V30 2591 H 239.312 -1.64551 3.27595 0
M  V30 2592 H 238.96 -4.09582 2.91979 0
M  V30 2593 H 238.66 -3.63732 4.6149 0
M  V30 2594 H 240.184 -4.45806 4.1724 0
M  V30 2595 H 241.598 -2.42886 5.19307 0
M  V30 2596 H 239.995 -1.83343 5.71407 0
M  V30 2597 H 241.065 -0.76528 4.78823 0
M  V30 2598 N 242.408 -1.52605 -0.393616 0
M  V30 2599 C 243.338 -1.80022 -1.48709 0
M  V30 2600 C 244.319 -0.651995 -1.57108 0
M  V30 2601 O 245.504 -0.89913 -1.72132 0
M  V30 2602 C 242.634 -1.96492 -2.86371 0
M  V30 2603 C 241.588 -3.12161 -2.92813 0
M  V30 2604 C 240.914 -3.13877 -4.3288 0
M  V30 2605 C 242.214 -4.51322 -2.6288 0
M  V30 2606 H 243.908 -2.71589 -1.26015 0
M  V30 2607 H 241.454 -1.30684 -0.604778 0
M  V30 2608 H 243.407 -2.14255 -3.62867 0
M  V30 2609 H 242.131 -1.01611 -3.10391 0
M  V30 2610 H 240.79 -2.94173 -2.18764 0
M  V30 2611 H 240.438 -2.16687 -4.53933 0
M  V30 2612 H 240.138 -3.91576 -4.38112 0
M  V30 2613 H 241.662 -3.33789 -5.1129 0
M  V30 2614 H 243.076 -4.69435 -3.29096 0
M  V30 2615 H 241.473 -5.31053 -2.79468 0
M  V30 2616 H 242.543 -4.58353 -1.58242 0
M  V30 2617 N 243.887 0.651787 -1.4349 0
M  V30 2618 C 244.85 1.74647 -1.48429 0
M  V30 2619 C 245.85 1.56513 -0.368817 0
M  V30 2620 O 247.04 1.62385 -0.630623 0
M  V30 2621 C 244.172 3.13533 -1.33827 0
M  V30 2622 H 245.365 1.71649 -2.4592 0
M  V30 2623 H 242.918 0.863573 -1.30277 0
M  V30 2624 H 243.653 3.22142 -0.37349 0
M  V30 2625 H 243.438 3.28101 -2.14691 0
M  V30 2626 H 244.928 3.93356 -1.40218 0
M  V30 2627 N 245.365 1.30045 0.890287 0
M  V30 2628 C 246.295 1.18541 2.01172 0
M  V30 2629 C 247.276 0.0773356 1.69924 0
M  V30 2630 O 248.461 0.25845 1.92473 0
M  V30 2631 C 245.591 0.870941 3.36202 0
M  V30 2632 C 244.545 1.93637 3.81692 0
M  V30 2633 C 243.871 1.475 5.13953 0
M  V30 2634 C 245.171 3.34666 4.00994 0
M  V30 2635 H 246.865 2.12359 2.11054 0
M  V30 2636 H 244.411 1.02238 1.01407 0
M  V30 2637 H 246.364 0.777141 4.14172 0
M  V30 2638 H 245.088 -0.102926 3.26438 0
M  V30 2639 H 243.747 2.01972 3.05946 0
M  V30 2640 H 243.395 0.489551 5.00612 0
M  V30 2641 H 243.095 2.1876 5.4536 0
M  V30 2642 H 244.619 1.39489 5.94454 0
M  V30 2643 H 246.033 3.2912 4.69417 0
M  V30 2644 H 244.43 4.03966 4.43769 0
M  V30 2645 H 245.5 3.76949 3.05021 0
M  V30 2646 N 246.843 -1.10192 1.12674 0
M  V30 2647 C 247.806 -2.14786 0.799979 0
M  V30 2648 C 248.806 -1.59711 -0.18685 0
M  V30 2649 O 249.996 -1.74156 0.0392558 0
M  V30 2650 C 247.128 -3.40374 0.189228 0
M  V30 2651 H 248.321 -2.45203 1.72671 0
M  V30 2652 H 245.874 -1.25597 0.930326 0
M  V30 2653 H 246.609 -3.15577 -0.747107 0
M  V30 2654 H 246.394 -3.81637 0.899766 0
M  V30 2655 H 247.884 -4.17594 -0.0228143 0
M  V30 2656 N 248.321 -0.919034 -1.28029 0
M  V30 2657 C 249.231 -0.416756 -2.30869 0
M  V30 2658 C 250.247 0.498235 -1.66714 0
M  V30 2659 O 251.423 0.383144 -1.97722 0
M  V30 2660 C 248.488 0.330274 -3.45123 0
M  V30 2661 C 247.549 -0.618578 -4.2482 0
M  V30 2662 C 246.782 0.0928959 -5.33619 0
M  V30 2663 O 247.005 1.31375 -5.55065 0
M  V30 2664 O 245.939 -0.574499 -5.99152 0
M  V30 2665 H 249.765 -1.27043 -2.75851 0
M  V30 2666 H 247.35 -0.684052 -1.3282 0
M  V30 2667 H 249.232 0.751972 -4.14636 0
M  V30 2668 H 247.907 1.1597 -3.02213 0
M  V30 2669 H 246.814 -1.08978 -3.57875 0
M  V30 2670 H 248.147 -1.41497 -4.71423 0
M  V30 2671 N 249.799 1.42003 -0.683588 0
M  V30 2672 C 251.21 1.84501 -0.285736 0
M  V30 2673 C 251.561 1.57213 1.17382 0
M  V30 2674 O 250.686 1.03642 1.89966 0
M  V30 2675 C 251.281 3.34912 -0.511821 0
M  V30 2676 C 249.84 3.76025 -0.168005 0
M  V30 2677 C 248.987 2.6551 -0.799983 0
M  V30 2678 H 251.938 1.31724 -0.885119 0
M  V30 2679 H 251.959 3.79784 0.233292 0
M  V30 2680 H 251.471 3.54741 -1.57418 0
M  V30 2681 H 249.572 3.61801 0.890567 0
M  V30 2682 H 249.685 4.75141 -0.614661 0
M  V30 2683 H 248.049 2.53654 -0.230568 0
M  V30 2684 H 248.832 2.8816 -1.86597 0
M  V30 2685 N 251.277 0.427512 1.51691 0
M  V30 2686 C 252.505 -0.141191 2.06418 0
M  V30 2687 C 252.92 -1.37303 1.29589 0
M  V30 2688 O 252.277 -1.79059 0.352732 0
M  V30 2689 C 252.328 -0.473266 3.58389 0
M  V30 2690 O 252.049 0.709673 4.32314 0
M  V30 2691 C 253.55 -1.09371 4.29596 0
M  V30 2692 H 250.77 -0.0122747 0.670888 0
M  V30 2693 H 253.314 0.603764 1.95384 0
M  V30 2694 H 251.469 -1.16812 3.69369 0
M  V30 2695 H 251.883 0.42807 5.2275 0
M  V30 2696 H 253.357 -1.27613 5.37046 0
M  V30 2697 H 253.834 -2.072 3.87253 0
M  V30 2698 H 254.44 -0.43853 4.23033 0
M  V30 2699 N 252.755 -1.56801 0.158532 0
M  V30 2700 C 253.98 -2.01295 -0.499516 0
M  V30 2701 C 254.405 -1.03799 -1.56867 0
M  V30 2702 O 253.763 -0.0155162 -1.81293 0
M  V30 2703 C 253.811 -3.44469 -1.06647 0
M  V30 2704 O 252.915 -3.50012 -2.18095 0
M  V30 2705 H 252.256 -0.652884 -0.12099 0
M  V30 2706 H 254.786 -2.02958 0.258661 0
M  V30 2707 H 254.796 -3.8351 -1.39227 0
M  V30 2708 H 253.471 -4.14932 -0.283581 0
M  V30 2709 H 252.048 -3.22822 -1.86656 0
M  V30 2710 N 254.233 0.115231 -1.57178 0
M  V30 2711 C 255.181 1.16014 -2.01602 0
M  V30 2712 C 256.175 1.42653 -0.913587 0
M  V30 2713 O 257.381 1.42571 -1.09879 0
M  V30 2714 H 253.756 0.391252 -0.642204 0
M  V30 2715 H 255.727 0.758998 -2.88586 0
M  V30 2716 C 254.476 2.47767 -2.4394 0
M  V30 2717 H 253.799 2.28108 -3.28339 0
M  V30 2718 H 255.239 3.19432 -2.78818 0
M  V30 2719 C 253.698 3.10617 -1.30455 0
M  V30 2720 O 254.228 3.96846 -0.622585 0
M  V30 2721 N 252.434 2.70553 -1.06064 0
M  V30 2722 H 251.981 2.00527 -1.61699 0
M  V30 2723 H 251.939 3.12934 -0.303284 0
M  V30 2724 N 255.711 1.52812 0.385517 0
M  V30 2725 C 256.674 1.77188 1.45386 0
M  V30 2726 C 257.674 0.641953 1.4743 0
M  V30 2727 O 258.864 0.910033 1.4854 0
M  V30 2728 C 255.996 1.87582 2.8465 0
M  V30 2729 H 257.189 2.72583 1.25054 0
M  V30 2730 H 254.742 1.43586 0.617467 0
M  V30 2731 H 255.477 0.941849 3.10322 0
M  V30 2732 H 255.262 2.69748 2.84567 0
M  V30 2733 H 256.752 2.08102 3.62054 0
M  V30 2734 N 257.189 -0.644168 1.43834 0
M  V30 2735 C 258.136 -1.75671 1.49694 0
M  V30 2736 C 259.106 -1.6246 0.345809 0
M  V30 2737 O 260.291 -1.82573 0.554234 0
M  V30 2738 C 257.431 -3.13867 1.43463 0
M  V30 2739 C 256.544 -3.38147 2.6885 0
M  V30 2740 C 255.679 -4.66241 2.54544 0
M  V30 2741 C 254.718 -4.83657 3.75157 0
M  V30 2742 N 253.855 -6.03016 3.59605 0
M  V30 2743 H 258.695 -1.69998 2.44754 0
M  V30 2744 H 256.232 -0.829458 1.21484 0
M  V30 2745 H 258.19 -3.9377 1.37843 0
M  V30 2746 H 256.82 -3.18588 0.519783 0
M  V30 2747 H 255.872 -2.52276 2.84712 0
M  V30 2748 H 257.184 -3.46899 3.58417 0
M  V30 2749 H 256.338 -5.54285 2.46683 0
M  V30 2750 H 255.077 -4.59826 1.62516 0
M  V30 2751 H 254.082 -3.94046 3.83416 0
M  V30 2752 H 255.307 -4.91896 4.68204 0
M  V30 2753 H 253.253 -5.97715 2.7032 0
M  V30 2754 H 253.17 -6.12766 4.42779 0
M  V30 2755 H 254.438 -6.93657 3.55613 0
M  V30 2756 N 258.668 -1.30515 -0.883378 0
M  V30 2757 C 259.898 -1.22182 -1.66599 0
M  V30 2758 C 260.306 0.217507 -1.87946 0
M  V30 2759 O 259.649 1.1554 -1.42815 0
M  V30 2760 C 259.711 -1.88146 -3.06335 0
M  V30 2761 C 259.375 -3.37476 -3.08154 0
M  V30 2762 C 260.372 -4.33443 -2.87094 0
M  V30 2763 C 258.057 -3.7895 -3.29701 0
M  V30 2764 C 260.051 -5.68858 -2.8754 0
M  V30 2765 C 257.738 -5.14482 -3.29776 0
M  V30 2766 C 258.736 -6.09246 -3.0872 0
M  V30 2767 O 258.424 -7.42302 -3.08615 0
M  V30 2768 H 258.156 -0.423898 -0.52658 0
M  V30 2769 H 260.71 -1.72703 -1.11188 0
M  V30 2770 H 258.94 -1.32157 -3.63416 0
M  V30 2771 H 260.629 -1.7391 -3.66756 0
M  V30 2772 H 261.395 -4.02733 -2.70243 0
M  V30 2773 H 257.274 -3.05631 -3.45124 0
M  V30 2774 H 260.818 -6.428 -2.71024 0
M  V30 2775 H 256.715 -5.44832 -3.46163 0
M  V30 2776 H 257.483 -7.5131 -3.24769 0
M  V30 2777 N 260.146 1.09593 -1.13257 0
M  V30 2778 C 261.392 1.82003 -0.89458 0
M  V30 2779 C 261.725 1.85402 0.577906 0
M  V30 2780 O 261 1.32099 1.42759 0
M  V30 2781 C 261.283 3.28237 -1.48096 0
M  V30 2782 C 261.136 3.3312 -3.02244 0
M  V30 2783 C 262.455 4.24871 -1.14774 0
M  V30 2784 H 259.574 0.66077 -0.326424 0
M  V30 2785 H 262.216 1.28389 -1.40058 0
M  V30 2786 H 260.366 3.74024 -1.05062 0
M  V30 2787 H 262.038 2.95748 -3.54021 0
M  V30 2788 H 260.281 2.72756 -3.37323 0
M  V30 2789 H 260.952 4.3613 -3.38371 0
M  V30 2790 H 263.428 3.87361 -1.51957 0
M  V30 2791 H 262.304 5.25532 -1.58452 0
M  V30 2792 H 262.565 4.42058 -0.0611849 0
M  V30 2793 N 261.624 0.925811 1.2754 0
M  V30 2794 C 262.587 0.428129 2.25166 0
M  V30 2795 C 263.587 -0.452261 1.54309 0
M  V30 2796 O 264.777 -0.253608 1.72344 0
M  V30 2797 C 261.909 -0.384749 3.38722 0
M  V30 2798 H 263.102 1.29066 2.70706 0
M  V30 2799 H 260.655 0.706323 1.3943 0
M  V30 2800 H 261.39 -1.26618 2.98561 0
M  V30 2801 H 261.175 0.246454 3.91325 0
M  V30 2802 H 262.665 -0.723389 4.11287 0
M  V30 2803 N 263.102 -1.41638 0.69111 0
M  V30 2804 C 264.349 -2.01299 0.220193 0
M  V30 2805 C 264.677 -1.54715 -1.17871 0
M  V30 2806 O 263.932 -0.747193 -1.80874 0
M  V30 2807 C 264.231 -3.56714 0.221277 0
M  V30 2808 C 263.897 -4.22792 1.56709 0
M  V30 2809 C 262.559 -4.40557 1.93554 0
M  V30 2810 C 264.911 -4.59883 2.45268 0
M  V30 2811 C 262.239 -4.92688 3.18552 0
M  V30 2812 C 264.591 -5.13403 3.69595 0
M  V30 2813 C 263.255 -5.29379 4.06589 0
M  V30 2814 H 262.525 -0.736606 0.0805743 0
M  V30 2815 H 265.172 -1.69598 0.889319 0
M  V30 2816 H 263.477 -3.8818 -0.531391 0
M  V30 2817 H 265.174 -4.00678 -0.160547 0
M  V30 2818 H 261.764 -4.09336 1.2705 0
M  V30 2819 H 265.948 -4.45817 2.18084 0
M  V30 2820 H 261.204 -5.03242 3.47214 0
M  V30 2821 H 265.378 -5.41084 4.38407 0
M  V30 2822 H 263.005 -5.69537 5.03519 0
M  V30 2823 N 264.58 -0.43555 -1.51462 0
M  V30 2824 C 265.49 0.383001 -2.31453 0
M  V30 2825 C 266.506 1.02931 -1.4029 0
M  V30 2826 O 267.682 1.02507 -1.73362 0
M  V30 2827 C 264.747 1.47043 -3.13973 0
M  V30 2828 C 263.808 0.844433 -4.20913 0
M  V30 2829 C 263.041 1.88004 -4.9949 0
M  V30 2830 O 263.264 3.10199 -4.78678 0
M  V30 2831 O 262.198 1.47157 -5.83634 0
M  V30 2832 H 266.024 -0.269964 -3.02498 0
M  V30 2833 H 263.609 -0.19813 -1.4808 0
M  V30 2834 H 265.491 2.10113 -3.65281 0
M  V30 2835 H 264.166 2.10751 -2.45695 0
M  V30 2836 H 263.073 0.175729 -3.73687 0
M  V30 2837 H 264.406 0.250869 -4.9156 0
M  V30 2838 N 266.058 1.56714 -0.166846 0
M  V30 2839 C 267.286 2.0112 0.485644 0
M  V30 2840 C 267.701 1.04705 1.57106 0
M  V30 2841 O 267.058 0.0471923 1.82439 0
M  V30 2842 C 267.109 3.45361 1.06808 0
M  V30 2843 O 266.83 4.38092 0.0259995 0
M  V30 2844 C 268.331 4.05145 1.79924 0
M  V30 2845 H 265.551 0.65931 0.124704 0
M  V30 2846 H 268.095 2.02746 -0.267262 0
M  V30 2847 H 266.25 3.44524 1.7715 0
M  V30 2848 H 266.664 5.22519 0.455398 0
M  V30 2849 H 268.138 5.08009 2.15942 0
M  V30 2850 H 268.615 3.46982 2.69258 0
M  V30 2851 H 269.221 4.09672 1.14234 0
M  V30 2852 N 267.536 -0.106894 1.57237 0
M  V30 2853 C 268.785 -0.811163 1.8467 0
M  V30 2854 C 269.098 -1.80469 0.754342 0
M  V30 2855 O 270.304 -2.55601 0.915439 0
M  V30 2856 C 268.76 -1.49337 3.27454 0
M  V30 2857 C 268.368 -0.540217 4.44731 0
M  V30 2858 C 270.112 -2.18206 3.64124 0
M  V30 2859 C 268.019 -1.22634 5.78545 0
M  V30 2860 H 266.949 -0.306679 0.688813 0
M  V30 2861 H 269.6 -0.0639887 1.83388 0
M  V30 2862 H 267.982 -2.2876 3.23241 0
M  V30 2863 H 269.156 0.221659 4.60267 0
M  V30 2864 H 267.471 0.042146 4.16379 0
M  V30 2865 H 270.068 -2.70253 4.61376 0
M  V30 2866 H 270.411 -2.96562 2.92158 0
M  V30 2867 H 270.944 -1.45658 3.70174 0
M  V30 2868 H 267.683 -0.483832 6.53712 0
M  V30 2869 H 267.203 -1.95993 5.66874 0
M  V30 2870 H 268.882 -1.75615 6.2271 0
M  V30 2871 N 269.014 -1.53014 -0.377408 0
M  V30 2872 C 270.244 -1.72265 -1.14054 0
M  V30 2873 C 270.652 -0.44601 -1.83868 0
M  V30 2874 O 269.995 0.590095 -1.73964 0
M  V30 2875 C 270.057 -2.82492 -2.22348 0
M  V30 2876 C 269.721 -4.23233 -1.72402 0
M  V30 2877 C 270.718 -5.05992 -1.19448 0
M  V30 2878 C 268.403 -4.696 -1.78273 0
M  V30 2879 C 270.397 -6.33203 -0.730268 0
M  V30 2880 C 268.084 -5.96792 -1.31464 0
M  V30 2881 C 269.082 -6.78424 -0.789297 0
M  V30 2882 O 268.77 -8.0323 -0.328077 0
M  V30 2883 H 268.502 -0.579873 -0.347453 0
M  V30 2884 H 271.056 -2.00502 -0.445882 0
M  V30 2885 H 269.286 -2.49702 -2.95272 0
M  V30 2886 H 270.975 -2.90034 -2.83963 0
M  V30 2887 H 271.741 -4.71349 -1.14259 0
M  V30 2888 H 267.62 -4.06142 -2.18106 0
M  V30 2889 H 271.164 -6.96868 -0.319542 0
M  V30 2890 H 267.061 -6.30937 -1.36342 0
M  V30 2891 H 267.829 -8.1727 -0.448493 0
M  V30 2892 N 270.492 0.636531 -1.44174 0
M  V30 2893 C 271.455 1.73063 -1.50273 0
M  V30 2894 C 272.455 1.56113 -0.385397 0
M  V30 2895 O 273.645 1.61707 -0.64781 0
M  V30 2896 C 270.777 3.12096 -1.37145 0
M  V30 2897 H 271.97 1.69031 -2.47727 0
M  V30 2898 H 269.523 0.849706 -1.31186 0
M  V30 2899 H 270.258 3.21728 -0.407636 0
M  V30 2900 H 270.043 3.25805 -2.18159 0
M  V30 2901 H 271.533 3.91846 -1.44382 0
M  V30 2902 N 271.97 1.30982 0.876444 0
M  V30 2903 C 273.381 1.18277 1.44456 0
M  V30 2904 C 273.732 -0.213265 1.95037 0
M  V30 2905 O 272.857 -1.11057 1.85729 0
M  V30 2906 C 273.452 2.1411 2.62569 0
M  V30 2907 C 272.011 2.05358 3.15444 0
M  V30 2908 C 271.158 2.03706 1.88146 0
M  V30 2909 H 274.109 1.43127 0.685584 0
M  V30 2910 H 274.13 1.72692 3.39054 0
M  V30 2911 H 273.642 3.15706 2.25724 0
M  V30 2912 H 271.743 1.06934 3.56926 0
M  V30 2913 H 271.856 2.94156 3.78166 0
M  V30 2914 H 270.22 1.48629 2.06837 0
M  V30 2915 H 271.003 3.07047 1.53547 0
M  V30 2916 N 273.449 -1.08991 1.13837 0
M  V30 2917 C 274.359 -2.19301 0.833333 0
M  V30 2918 C 275.375 -1.73026 -0.183847 0
M  V30 2919 O 276.551 -2.01395 -0.0138092 0
M  V30 2920 C 273.616 -3.45323 0.308651 0
M  V30 2921 C 272.677 -4.06255 1.38764 0
M  V30 2922 C 271.91 -5.26262 0.887896 0
M  V30 2923 O 272.133 -5.69747 -0.27287 0
M  V30 2924 O 271.067 -5.78435 1.66421 0
M  V30 2925 H 274.893 -2.47854 1.75506 0
M  V30 2926 H 272.478 -1.18012 0.916166 0
M  V30 2927 H 274.36 -4.21394 0.0216739 0
M  V30 2928 H 273.035 -3.18362 -0.585431 0
M  V30 2929 H 271.942 -3.318 1.72799 0
M  V30 2930 H 273.275 -4.37452 2.25602 0
M  V30 2931 N 274.927 -0.932562 -1.27047 0
M  V30 2932 C 275.859 -0.392734 -2.2581 0
M  V30 2933 C 276.872 0.479241 -1.55586 0
M  V30 2934 O 278.061 0.291078 -1.76111 0
M  V30 2935 C 275.161 0.455456 -3.35826 0
M  V30 2936 C 274.334 -0.398355 -4.35582 0
M  V30 2937 C 273.393 0.387985 -5.24768 0
M  V30 2938 O 272.419 -0.206003 -5.68827 0
M  V30 2939 N 273.621 1.68664 -5.55457 0
M  V30 2940 H 276.386 -1.24173 -2.72766 0
M  V30 2941 H 273.947 -0.800511 -1.40725 0
M  V30 2942 H 275.939 0.988692 -3.92437 0
M  V30 2943 H 274.509 1.20522 -2.88432 0
M  V30 2944 H 273.729 -1.11286 -3.78165 0
M  V30 2945 H 275.017 -0.981889 -4.99236 0
M  V30 2946 H 274.415 2.19147 -5.21528 0
M  V30 2947 H 272.972 2.1663 -6.14748 0
M  V30 2948 N 276.405 1.4127 -0.698611 0
M  V30 2949 C 277.338 2.28195 0.0153898 0
M  V30 2950 C 278.316 1.42402 0.784883 0
M  V30 2951 O 279.5 1.71828 0.775067 0
M  V30 2952 C 276.627 3.22685 1.02918 0
M  V30 2953 C 275.673 4.25041 0.352501 0
M  V30 2954 S 276.506 5.27757 -0.907322 0
M  V30 2955 C 277.662 6.25812 0.104796 0
M  V30 2956 H 277.895 2.88403 -0.721858 0
M  V30 2957 H 275.428 1.46452 -0.488996 0
M  V30 2958 H 277.386 3.77655 1.60893 0
M  V30 2959 H 276.047 2.61566 1.73902 0
M  V30 2960 H 275.24 4.91437 1.11828 0
M  V30 2961 H 274.842 3.73682 -0.154254 0
M  V30 2962 H 277.134 6.70705 0.957103 0
M  V30 2963 H 278.077 7.06149 -0.525323 0
M  V30 2964 H 278.485 5.62615 0.460931 0
M  V30 2965 N 277.883 0.443576 1.51229 0
M  V30 2966 C 279.294 -0.0180867 1.86691 0
M  V30 2967 C 279.645 -1.41384 1.36033 0
M  V30 2968 O 278.77 -2.04291 0.713722 0
M  V30 2969 C 279.365 -0.039597 3.38777 0
M  V30 2970 C 277.924 -0.445692 3.73752 0
M  V30 2971 C 277.071 0.357584 2.74985 0
M  V30 2972 H 280.022 0.659138 1.44364 0
M  V30 2973 H 280.043 -0.847761 3.70936 0
M  V30 2974 H 279.555 0.976382 3.75617 0
M  V30 2975 H 277.656 -1.46704 3.42503 0
M  V30 2976 H 277.769 -0.166155 4.78812 0
M  V30 2977 H 276.133 -0.184973 2.54027 0
M  V30 2978 H 276.916 1.37256 3.14668 0
M  V30 2979 N 279.361 -1.56624 0.175154 0
M  V30 2980 C 280.609 -1.96609 -0.467885 0
M  V30 2981 C 280.93 -1.06238 -1.63519 0
M  V30 2982 O 280.2 -0.129523 -1.95471 0
M  V30 2983 H 278.78 -0.726008 -0.175845 0
M  V30 2984 H 281.442 -1.93195 0.257234 0
M  V30 2985 H 280.538 -3.00989 -0.825342 0
M  V30 2986 N 280.839 0.0985539 -1.57292 0
M  V30 2987 C 281.771 1.14595 -1.98496 0
M  V30 2988 C 282.784 1.36512 -0.887031 0
M  V30 2989 O 283.973 1.35225 -1.16518 0
M  V30 2990 C 281.073 2.50216 -2.28572 0
M  V30 2991 C 280.246 2.48624 -3.59868 0
M  V30 2992 C 279.305 3.66146 -3.7792 0
M  V30 2993 O 278.331 3.48795 -4.49812 0
M  V30 2994 N 279.533 4.85496 -3.18235 0
M  V30 2995 H 282.298 0.795277 -2.88956 0
M  V30 2996 H 279.859 0.287579 -1.59325 0
M  V30 2997 H 281.851 3.27432 -2.37845 0
M  V30 2998 H 280.421 2.77387 -1.44136 0
M  V30 2999 H 279.641 1.56978 -3.61596 0
M  V30 3000 H 280.929 2.44635 -4.46129 0
M  V30 3001 H 280.327 5.02497 -2.59833 0
M  V30 3002 H 278.884 5.60317 -3.32999 0
M  V30 3003 N 282.317 1.53212 0.369288 0
M  V30 3004 C 283.249 1.75668 1.47219 0
M  V30 3005 C 284.262 0.637387 1.49804 0
M  V30 3006 O 285.451 0.913561 1.5335 0
M  V30 3007 C 282.551 1.81818 2.85999 0
M  V30 3008 C 281.724 3.11409 3.07153 0
M  V30 3009 C 280.783 3.08849 4.26026 0
M  V30 3010 O 279.809 3.82659 4.2138 0
M  V30 3011 N 281.011 2.29409 5.33246 0
M  V30 3012 H 283.776 2.70832 1.28337 0
M  V30 3013 H 281.337 1.51944 0.55898 0
M  V30 3014 H 283.329 1.77588 3.63655 0
M  V30 3015 H 281.899 0.939544 2.98146 0
M  V30 3016 H 281.119 3.28971 2.1719 0
M  V30 3017 H 282.407 3.97059 3.18154 0
M  V30 3018 H 281.805 1.68946 5.39883 0
M  V30 3019 H 280.362 2.31001 6.09493 0
M  V30 3020 N 283.795 -0.628877 1.44509 0
M  V30 3021 C 285.072 -1.38733 1.37886 0
M  V30 3022 C 285.452 -2.11065 0.0387008 0
M  V30 3023 O 284.8 -2.06476 -0.97878 0
M  V30 3024 C 285.01 -2.35188 2.57852 0
M  V30 3025 C 286.358 -2.9845 3.02014 0
M  V30 3026 O 287.382 -2.45513 2.58073 0
M  V30 3027 O 286.241 -3.94487 3.78209 0
M  V30 3028 H 283.335 -0.621015 0.54614 0
M  V30 3029 H 285.881 -0.653744 1.56602 0
M  V30 3030 H 284.653 -1.80855 3.46998 0
M  V30 3031 H 284.276 -3.1596 2.4136 0
M  V30 3032 N 285.273 -1.31445 -0.869486 0
M  V30 3033 C 286.689 -1.10113 -1.15531 0
M  V30 3034 C 286.889 0.128087 -2.01092 0
M  V30 3035 O 285.945 0.817276 -2.38908 0
M  V30 3036 C 287.258 -2.37291 -1.84698 0
M  V30 3037 C 288.806 -2.42906 -1.97397 0
M  V30 3038 C 289.281 -3.69967 -2.69979 0
M  V30 3039 N 290.772 -3.70864 -2.77514 0
M  V30 3040 C 291.507 -4.65875 -3.34287 0
M  V30 3041 N 291.003 -5.71242 -3.91988 0
M  V30 3042 N 292.796 -4.53394 -3.3225 0
M  V30 3043 H 284.947 -2.1028 -0.299347 0
M  V30 3044 H 287.21 -0.927683 -0.195214 0
M  V30 3045 H 286.916 -3.27078 -1.29278 0
M  V30 3046 H 286.79 -2.47125 -2.84972 0
M  V30 3047 H 289.177 -1.53588 -2.51982 0
M  V30 3048 H 289.258 -2.37036 -0.961643 0
M  V30 3049 H 288.902 -4.59652 -2.16062 0
M  V30 3050 H 288.832 -3.73103 -3.7162 0
M  V30 3051 H 291.323 -2.94697 -2.36563 0
M  V30 3052 H 291.636 -6.39817 -4.33421 0
M  V30 3053 H 289.981 -5.75015 -3.90362 0
M  V30 3054 H 293.172 -3.70252 -2.8641 0
M  V30 3055 H 293.345 -5.27617 -3.76197 0
M  V30 3056 N 286.751 1.08385 -1.14413 0
M  V30 3057 C 287.998 1.80776 -0.912482 0
M  V30 3058 C 288.326 1.86236 0.560934 0
M  V30 3059 O 287.581 1.33431 1.43159 0
M  V30 3060 C 287.88 3.26273 -1.45879 0
M  V30 3061 C 287.546 3.4093 -2.95089 0
M  V30 3062 C 286.208 3.44638 -3.35824 0
M  V30 3063 C 288.56 3.44591 -3.91033 0
M  V30 3064 C 285.888 3.49597 -4.71167 0
M  V30 3065 C 288.24 3.51086 -5.26233 0
M  V30 3066 C 286.904 3.53067 -5.6648 0
M  V30 3067 H 286.174 0.661507 -0.333901 0
M  V30 3068 H 288.821 1.27613 -1.42784 0
M  V30 3069 H 287.126 3.82146 -0.864376 0
M  V30 3070 H 288.823 3.80839 -1.2555 0
M  V30 3071 H 285.413 3.38736 -2.62594 0
M  V30 3072 H 289.597 3.40957 -3.60641 0
M  V30 3073 H 284.853 3.49424 -5.0171 0
M  V30 3074 H 289.027 3.52864 -6.00383 0
M  V30 3075 H 286.654 3.56662 -6.71339 0
M  V30 3076 N 288.23 0.939286 1.26551 0
M  V30 3077 C 289.479 0.581601 1.93133 0
M  V30 3078 C 289.792 -0.883224 1.74524 0
M  V30 3079 O 290.998 -1.3502 2.35546 0
M  V30 3080 C 289.454 0.989425 3.46032 0
M  V30 3081 C 289.062 2.47573 3.73379 0
M  V30 3082 C 290.806 0.703544 4.18629 0
M  V30 3083 C 288.713 2.82235 5.19709 0
M  V30 3084 H 287.643 0.213803 0.723052 0
M  V30 3085 H 290.294 1.14167 1.4366 0
M  V30 3086 H 288.676 0.357902 3.94379 0
M  V30 3087 H 289.85 3.15614 3.35744 0
M  V30 3088 H 288.165 2.73471 3.1401 0
M  V30 3089 H 290.762 0.938869 5.26393 0
M  V30 3090 H 291.105 -0.359639 4.14744 0
M  V30 3091 H 291.638 1.2947 3.76141 0
M  V30 3092 H 288.377 3.87509 5.28694 0
M  V30 3093 H 287.897 2.18854 5.58447 0
M  V30 3094 H 289.576 2.70599 5.87695 0
M  V30 3095 N 289.708 -1.40897 0.706093 0
M  V30 3096 C 290.956 -2.00657 0.241054 0
M  V30 3097 C 291.277 -1.56241 -1.16678 0
M  V30 3098 O 290.547 -0.79765 -1.78926 0
M  V30 3099 H 289.127 -0.742018 0.0861308 0
M  V30 3100 H 291.789 -1.72372 0.909604 0
M  V30 3101 H 290.885 -3.10958 0.266705 0
M  V30 3102 N 291.186 -0.45159 -1.50991 0
M  V30 3103 C 292.434 0.109857 -2.01801 0
M  V30 3104 C 292.755 1.41958 -1.3369 0
M  V30 3105 O 292.025 1.9003 -0.475951 0
M  V30 3106 H 290.605 0.0435884 -0.745727 0
M  V30 3107 H 293.267 -0.597557 -1.85514 0
M  V30 3108 H 292.363 0.275489 -3.10882 0
M  V30 3109 N 292.664 1.56529 -0.183458 0
M  V30 3110 C 293.912 1.96855 0.457452 0
M  V30 3111 C 294.233 1.07104 1.62953 0
M  V30 3112 O 293.503 0.139887 1.954 0
M  V30 3113 H 292.083 0.72693 0.171992 0
M  V30 3114 H 294.745 1.93056 -0.267476 0
M  V30 3115 H 293.841 3.01423 0.809368 0
M  V30 3116 N 294.142 -0.090211 1.57342 0
M  V30 3117 C 295.072 -1.10976 2.05443 0
M  V30 3118 C 296.053 -1.41482 0.944284 0
M  V30 3119 O 297.238 -1.51428 1.21586 0
M  V30 3120 C 294.368 -2.42831 2.48295 0
M  V30 3121 C 293.322 -2.26721 3.63018 0
M  V30 3122 C 292.648 -3.63796 3.91863 0
M  V30 3123 C 293.948 -1.7037 4.93732 0
M  V30 3124 H 295.642 -0.709564 2.9087 0
M  V30 3125 H 293.188 -0.339874 1.39932 0
M  V30 3126 H 295.141 -3.14431 2.80555 0
M  V30 3127 H 293.865 -2.84795 1.59873 0
M  V30 3128 H 292.524 -1.57565 3.31012 0
M  V30 3129 H 292.172 -4.03297 3.00601 0
M  V30 3130 H 291.872 -3.53861 4.69101 0
M  V30 3131 H 293.396 -4.36855 4.26603 0
M  V30 3132 H 294.81 -2.31816 5.24342 0
M  V30 3133 H 293.207 -1.71181 5.75167 0
M  V30 3134 H 294.277 -0.663542 4.80339 0
M  V30 3135 N 295.62 -1.53406 -0.361157 0
M  V30 3136 C 296.567 -1.80156 -1.44265 0
M  V30 3137 C 297.537 -0.646183 -1.53015 0
M  V30 3138 O 298.722 -0.888818 -1.68833 0
M  V30 3139 C 295.862 -2.00116 -2.81154 0
M  V30 3140 C 294.975 -3.27833 -2.81335 0
M  V30 3141 C 294.11 -3.37957 -4.09828 0
M  V30 3142 C 293.149 -4.59689 -4.04168 0
M  V30 3143 N 292.286 -4.66942 -5.24318 0
M  V30 3144 H 297.126 -2.72438 -1.20754 0
M  V30 3145 H 294.663 -1.34954 -0.585296 0
M  V30 3146 H 296.621 -2.09677 -3.60682 0
M  V30 3147 H 295.251 -1.11167 -3.03054 0
M  V30 3148 H 294.303 -3.27204 -1.94014 0
M  V30 3149 H 295.615 -4.17442 -2.73027 0
M  V30 3150 H 294.769 -3.46853 -4.97773 0
M  V30 3151 H 293.508 -2.46372 -4.20894 0
M  V30 3152 H 292.513 -4.50889 -3.14609 0
M  V30 3153 H 293.738 -5.5262 -3.947 0
M  V30 3154 H 291.684 -3.7826 -5.35962 0
M  V30 3155 H 291.601 -5.50462 -5.18197 0
M  V30 3156 H 292.869 -4.80127 -6.14084 0
M  V30 3157 N 297.098 0.621204 -1.44841 0
M  V30 3158 C 298.328 1.40548 -1.51426 0
M  V30 3159 C 298.736 1.88673 -0.141083 0
M  V30 3160 O 298.079 1.62053 0.865128 0
M  V30 3161 C 298.141 2.65325 -2.42576 0
M  V30 3162 C 297.805 2.3893 -3.89566 0
M  V30 3163 C 298.802 2.00138 -4.79834 0
M  V30 3164 C 296.487 2.52263 -4.3436 0
M  V30 3165 C 298.481 1.75021 -6.129 0
M  V30 3166 C 296.168 2.2676 -5.67471 0
M  V30 3167 C 297.166 1.88199 -6.56559 0
M  V30 3168 O 296.854 1.62986 -7.87204 0
M  V30 3169 H 296.586 0.437122 -0.515655 0
M  V30 3170 H 299.14 0.765987 -1.90583 0
M  V30 3171 H 297.37 3.31947 -1.98364 0
M  V30 3172 H 299.059 3.27347 -2.39998 0
M  V30 3173 H 299.825 1.89386 -4.46495 0
M  V30 3174 H 295.704 2.81246 -3.65269 0
M  V30 3175 H 299.248 1.44848 -6.82396 0
M  V30 3176 H 295.145 2.37125 -6.00368 0
M  V30 3177 H 295.913 1.7715 -7.991 0
M  V30 3178 N 298.576 1.31904 0.862503 0
M  V30 3179 C 299.987 1.19803 1.43193 0
M  V30 3180 C 300.338 -0.192567 1.95253 0
M  V30 3181 O 299.463 -1.09081 1.86896 0
M  V30 3182 C 300.058 2.16883 2.60283 0
M  V30 3183 C 298.617 2.08692 3.13248 0
M  V30 3184 C 297.764 2.05691 1.85975 0
M  V30 3185 H 300.715 1.43846 0.670365 0
M  V30 3186 H 300.736 1.76278 3.37204 0
M  V30 3187 H 300.248 3.18083 2.22363 0
M  V30 3188 H 298.349 1.10713 3.55771 0
M  V30 3189 H 298.462 2.9815 3.75025 0
M  V30 3190 H 296.826 1.50814 2.05249 0
M  V30 3191 H 297.609 3.08659 1.50282 0
M  V30 3192 N 300.054 -1.07777 1.14986 0
M  V30 3193 C 301.284 -1.83752 0.944402 0
M  V30 3194 C 301.692 -1.8218 -0.51058 0
M  V30 3195 O 301.035 -1.22852 -1.36576 0
M  V30 3196 C 301.097 -3.32128 1.37592 0
M  V30 3197 C 300.761 -3.57425 2.84775 0
M  V30 3198 C 301.758 -3.5173 3.8286 0
M  V30 3199 C 299.443 -3.8523 3.2234 0
M  V30 3200 C 301.437 -3.73482 5.16517 0
M  V30 3201 C 299.124 -4.06634 4.56171 0
M  V30 3202 C 300.122 -4.00754 5.53069 0
M  V30 3203 O 299.81 -4.2159 6.84483 0
M  V30 3204 H 299.542 -0.58673 0.335744 0
M  V30 3205 H 302.096 -1.36982 1.53052 0
M  V30 3206 H 300.326 -3.79686 0.733165 0
M  V30 3207 H 302.015 -3.89555 1.14024 0
M  V30 3208 H 302.781 -3.30256 3.55184 0
M  V30 3209 H 298.66 -3.88923 2.47508 0
M  V30 3210 H 302.204 -3.68808 5.92137 0
M  V30 3211 H 298.101 -4.27593 4.83564 0
M  V30 3212 H 298.869 -4.38961 6.90837 0
M  V30 3213 N 301.532 -0.945985 -1.26051 0
M  V30 3214 C 302.778 -0.597002 -1.93814 0
M  V30 3215 C 303.111 0.862484 -1.73997 0
M  V30 3216 O 302.386 1.61769 -1.07986 0
M  V30 3217 C 302.669 -0.945937 -3.47454 0
M  V30 3218 C 302.522 -2.46052 -3.76535 0
M  V30 3219 C 303.841 -0.464785 -4.37639 0
M  V30 3220 H 300.96 -0.218366 -0.703907 0
M  V30 3221 H 303.602 -1.18107 -1.48831 0
M  V30 3222 H 301.752 -0.448902 -3.85898 0
M  V30 3223 H 303.424 -3.03065 -3.47778 0
M  V30 3224 H 301.667 -2.90194 -3.22444 0
M  V30 3225 H 302.338 -2.65517 -4.83947 0
M  V30 3226 H 304.814 -0.891016 -4.06448 0
M  V30 3227 H 303.69 -0.737712 -5.4392 0
M  V30 3228 H 303.951 0.635274 -4.37512 0
M  V30 3229 N 303.011 1.40521 -0.713556 0
M  V30 3230 C 303.921 2.34522 -0.0606667 0
M  V30 3231 C 304.937 1.57193 0.74607 0
M  V30 3232 O 306.113 1.89591 0.679493 0
M  V30 3233 C 303.178 3.36081 0.851491 0
M  V30 3234 C 302.239 4.29286 0.0349339 0
M  V30 3235 C 301.472 5.25994 0.903649 0
M  V30 3236 O 301.695 5.28616 2.14292 0
M  V30 3237 O 300.629 6.00918 0.343723 0
M  V30 3238 H 304.455 2.91968 -0.835972 0
M  V30 3239 H 302.04 1.41681 -0.47402 0
M  V30 3240 H 303.922 3.98369 1.37404 0
M  V30 3241 H 302.597 2.81052 1.60598 0
M  V30 3242 H 301.504 3.70289 -0.532633 0
M  V30 3243 H 302.837 4.87462 -0.681287 0
M  V30 3244 N 304.489 0.459591 1.5075 0
M  V30 3245 C 305.737 -0.0991532 2.01857 0
M  V30 3246 C 306.058 -1.41247 1.34441 0
M  V30 3247 O 305.328 -1.89775 0.486022 0
M  V30 3248 H 303.908 -0.039633 0.745948 0
M  V30 3249 H 306.57 0.607387 1.85194 0
M  V30 3250 H 305.666 -0.258998 3.11023 0
M  V30 3251 N 305.967 -1.56429 0.191757 0
M  V30 3252 C 306.897 -2.21937 -0.725696 0
M  V30 3253 C 307.878 -1.1814 -1.2238 0
M  V30 3254 O 309.063 -1.46636 -1.27325 0
M  V30 3255 C 306.193 -2.87611 -1.94672 0
M  V30 3256 C 305.147 -3.97623 -1.58366 0
M  V30 3257 C 304.473 -4.50446 -2.88102 0
M  V30 3258 C 305.773 -5.16197 -0.796133 0
M  V30 3259 H 307.467 -2.98861 -0.179606 0
M  V30 3260 H 305.013 -1.43749 -0.0849464 0
M  V30 3261 H 306.966 -3.3212 -2.59373 0
M  V30 3262 H 305.69 -2.08087 -2.51728 0
M  V30 3263 H 304.349 -3.53801 -0.960247 0
M  V30 3264 H 303.997 -3.67688 -3.43241 0
M  V30 3265 H 303.697 -5.24675 -2.64556 0
M  V30 3266 H 305.221 -4.97654 -3.53798 0
M  V30 3267 H 306.635 -5.57271 -1.34618 0
M  V30 3268 H 305.032 -5.96471 -0.658928 0
M  V30 3269 H 306.102 -4.84473 0.203478 0
M  V30 3270 N 307.445 0.0818655 -1.57387 0
M  V30 3271 C 308.861 0.436412 -1.53517 0
M  V30 3272 C 309.061 1.79758 -0.910459 0
M  V30 3273 O 308.117 2.47324 -0.508636 0
M  V30 3274 C 309.43 0.386734 -2.98203 0
M  V30 3275 C 310.978 0.467644 -3.09487 0
M  V30 3276 C 311.453 0.447978 -4.55804 0
M  V30 3277 N 312.944 0.508348 -4.60402 0
M  V30 3278 C 313.679 0.515184 -5.71081 0
M  V30 3279 N 313.175 0.477435 -6.91153 0
M  V30 3280 N 314.968 0.560988 -5.59294 0
M  V30 3281 H 307.119 -0.809546 -1.96367 0
M  V30 3282 H 309.382 -0.302733 -0.898363 0
M  V30 3283 H 309.088 -0.546539 -3.47427 0
M  V30 3284 H 308.962 1.20075 -3.57578 0
M  V30 3285 H 311.349 1.39134 -2.60242 0
M  V30 3286 H 311.43 -0.374753 -2.5304 0
M  V30 3287 H 311.074 -0.471826 -5.05704 0
M  V30 3288 H 311.004 1.30777 -5.10103 0
M  V30 3289 H 313.495 0.54218 -3.7399 0
M  V30 3290 H 313.808 0.486299 -7.71268 0
M  V30 3291 H 312.153 0.444278 -6.93579 0
M  V30 3292 H 315.344 0.5881 -4.64391 0
M  V30 3293 H 315.517 0.562846 -6.45551 0
M  V30 3294 N 308.923 1.53595 0.353017 0
M  V30 3295 C 309.853 1.83902 1.43883 0
M  V30 3296 C 310.834 0.693421 1.55324 0
M  V30 3297 O 312.019 0.944452 1.69687 0
M  V30 3298 C 309.149 2.04016 2.8106 0
M  V30 3299 C 308.103 3.19814 2.84434 0
M  V30 3300 C 307.429 3.25244 4.24406 0
M  V30 3301 C 308.729 4.58133 2.50822 0
M  V30 3302 H 310.423 2.74835 1.1877 0
M  V30 3303 H 307.969 1.32242 0.569917 0
M  V30 3304 H 309.922 2.238 3.57059 0
M  V30 3305 H 308.646 1.09804 3.07588 0
M  V30 3306 H 307.305 2.9987 2.10887 0
M  V30 3307 H 306.953 2.28646 4.48029 0
M  V30 3308 H 306.653 4.03054 4.27576 0
M  V30 3309 H 308.177 3.47228 5.0226 0
M  V30 3310 H 309.591 4.77995 3.16534 0
M  V30 3311 H 307.988 5.38276 2.6529 0
M  V30 3312 H 309.058 4.62387 1.46034 0
M  V30 3313 N 310.401 -0.613514 1.45168 0
M  V30 3314 C 311.678 -1.37263 1.39349 0
M  V30 3315 C 312.058 -2.11012 0.0610848 0
M  V30 3316 O 311.406 -2.07502 -0.956825 0
M  V30 3317 C 311.616 -2.3244 2.60332 0
M  V30 3318 C 312.964 -2.9523 3.05163 0
M  V30 3319 O 313.988 -2.42762 2.60663 0
M  V30 3320 O 312.847 -3.90454 3.82372 0
M  V30 3321 H 309.941 -0.615188 0.552696 0
M  V30 3322 H 312.487 -0.637097 1.57287 0
M  V30 3323 H 311.259 -1.77164 3.48896 0
M  V30 3324 H 310.882 -3.13383 2.44698 0
M  V30 3325 N 311.879 -1.3236 -0.855495 0
M  V30 3326 C 312.789 -1.23221 -1.99634 0
M  V30 3327 C 313.805 -0.145983 -1.73387 0
M  V30 3328 O 314.981 -0.366502 -1.98037 0
M  V30 3329 C 312.046 -0.954782 -3.33294 0
M  V30 3330 C 311.107 -2.12937 -3.72769 0
M  V30 3331 C 310.34 -1.86508 -5.00051 0
M  V30 3332 O 310.563 -0.807231 -5.64659 0
M  V30 3333 O 309.497 -2.72591 -5.36636 0
M  V30 3334 H 313.323 -2.19126 -2.1028 0
M  V30 3335 H 310.908 -1.12241 -0.986018 0
M  V30 3336 H 312.79 -0.816519 -4.13414 0
M  V30 3337 H 311.465 -0.0258854 -3.2369 0
M  V30 3338 H 310.372 -2.3231 -2.93228 0
M  V30 3339 H 311.705 -3.04102 -3.87018 0
M  V30 3340 N 313.357 1.07166 -1.15556 0
M  V30 3341 C 314.32 2.12589 -0.856644 0
M  V30 3342 C 315.32 1.6015 0.14444 0
M  V30 3343 O 316.51 1.7399 -0.0854163 0
M  V30 3344 C 313.642 3.39753 -0.279405 0
M  V30 3345 H 314.835 2.40539 -1.79112 0
M  V30 3346 H 312.388 1.23086 -0.963298 0
M  V30 3347 H 313.123 3.17447 0.663174 0
M  V30 3348 H 312.908 3.79117 -1.00063 0
M  V30 3349 H 314.398 4.17507 -0.0879113 0
M  V30 3350 N 314.835 0.952656 1.25548 0
M  V30 3351 C 315.768 0.415525 2.24385 0
M  V30 3352 C 316.746 -0.502046 1.54655 0
M  V30 3353 O 317.93 -0.436875 1.83368 0
M  V30 3354 C 315.057 -0.401734 3.36309 0
M  V30 3355 C 314.103 0.455949 4.24056 0
M  V30 3356 S 314.936 1.88698 5.01152 0
M  V30 3357 C 316.092 1.07809 6.16545 0
M  V30 3358 H 316.325 1.25315 2.69599 0
M  V30 3359 H 313.858 0.756587 1.34592 0
M  V30 3360 H 315.816 -0.867329 4.01233 0
M  V30 3361 H 314.477 -1.21416 2.89684 0
M  V30 3362 H 313.67 -0.170776 5.03711 0
M  V30 3363 H 313.272 0.856675 3.64056 0
M  V30 3364 H 315.564 0.325816 6.76716 0
M  V30 3365 H 316.507 1.84849 6.83547 0
M  V30 3366 H 316.915 0.60909 5.61204 0
M  V30 3367 N 316.313 -1.40141 0.720998 0
M  V30 3368 C 317.263 -2.27949 0.0482544 0
M  V30 3369 C 318.247 -1.43538 -0.727021 0
M  V30 3370 O 319.439 -1.6658 -0.598332 0
M  V30 3371 C 316.568 -3.32126 -0.868729 0
M  V30 3372 C 315.654 -4.24008 -0.0883515 0
M  V30 3373 N 316.045 -4.97154 0.931226 0
M  V30 3374 C 314.343 -4.4485 -0.320105 0
M  V30 3375 C 315.044 -5.64587 1.4006 0
M  V30 3376 N 314.02 -5.38787 0.721752 0
M  V30 3377 H 317.822 -2.81948 0.829609 0
M  V30 3378 H 315.336 -1.52656 0.554067 0
M  V30 3379 H 317.333 -3.93884 -1.36605 0
M  V30 3380 H 315.993 -2.79687 -1.6494 0
M  V30 3381 H 317.004 -5.01 1.31222 0
M  V30 3382 H 313.681 -4.03378 -1.07668 0
M  V30 3383 H 315.071 -6.33175 2.24808 0
M  V30 3384 N 317.792 -0.46758 -1.50504 0
M  V30 3385 C 319.203 -0.0116166 -1.86696 0
M  V30 3386 C 319.554 1.39202 -1.38265 0
M  V30 3387 O 318.679 2.0313 -0.746132 0
M  V30 3388 C 319.274 -0.0143044 -3.38797 0
M  V30 3389 C 317.833 0.386175 -3.74414 0
M  V30 3390 C 316.98 -0.401287 -2.74381 0
M  V30 3391 H 319.931 -0.682022 -1.43297 0
M  V30 3392 H 319.952 0.788641 -3.72237 0
M  V30 3393 H 319.464 -1.03602 -3.74016 0
M  V30 3394 H 317.565 1.41237 -3.44794 0
M  V30 3395 H 317.678 0.0899596 -4.79016 0
M  V30 3396 H 316.042 0.144536 -2.5429 0
M  V30 3397 H 316.825 -1.42244 -3.12444 0
M  V30 3398 N 319.27 1.56325 -0.20005 0
M  V30 3399 C 320.2 2.22318 0.713916 0
M  V30 3400 C 321.181 1.18788 1.21752 0
M  V30 3401 O 322.366 1.47309 1.26545 0
M  V30 3402 C 319.496 2.88639 1.93144 0
M  V30 3403 C 318.45 3.98457 1.56255 0
M  V30 3404 C 317.776 4.51967 2.85709 0
M  V30 3405 C 319.076 5.16612 0.768747 0
M  V30 3406 H 320.77 2.98952 0.163755 0
M  V30 3407 H 318.316 1.43792 0.0773219 0
M  V30 3408 H 320.269 3.33491 2.57608 0
M  V30 3409 H 318.993 2.09419 2.50621 0
M  V30 3410 H 317.652 3.54305 0.941471 0
M  V30 3411 H 317.3 3.69503 3.41287 0
M  V30 3412 H 317 5.26071 2.6177 0
M  V30 3413 H 318.524 4.99523 3.51154 0
M  V30 3414 H 319.938 5.57977 1.3166 0
M  V30 3415 H 318.335 5.96812 0.627286 0
M  V30 3416 H 319.405 4.84358 -0.229168 0
M  V30 3417 N 320.748 -0.0735177 1.57428 0
M  V30 3418 C 321.976 -0.785969 1.9139 0
M  V30 3419 C 322.391 -1.71207 0.795847 0
M  V30 3420 O 321.748 -1.81033 -0.230915 0
M  V30 3421 C 321.799 -1.58107 3.25091 0
M  V30 3422 O 321.52 -0.6922 4.32597 0
M  V30 3423 C 323.021 -2.39467 3.73055 0
M  V30 3424 H 320.241 -0.223558 0.632663 0
M  V30 3425 H 322.785 -0.044302 2.04452 0
M  V30 3426 H 320.94 -2.27503 3.13562 0
M  V30 3427 H 321.354 -1.24504 5.09508 0
M  V30 3428 H 322.828 -2.90716 4.69242 0
M  V30 3429 H 323.305 -3.18913 3.01979 0
M  V30 3430 H 323.911 -1.7523 3.87523 0
M  V30 3431 N 322.226 -1.5378 -0.344866 0
M  V30 3432 C 323.156 -1.84662 -1.42906 0
M  V30 3433 C 324.137 -0.701648 -1.54955 0
M  V30 3434 O 325.322 -0.953438 -1.69184 0
M  V30 3435 C 322.452 -2.05503 -2.79974 0
M  V30 3436 C 321.406 -3.21318 -2.82734 0
M  V30 3437 C 320.732 -3.2749 -4.22675 0
M  V30 3438 C 322.032 -4.59456 -2.48389 0
M  V30 3439 H 323.726 -2.75461 -1.17311 0
M  V30 3440 H 321.272 -1.32542 -0.562896 0
M  V30 3441 H 323.225 -2.25691 -3.55867 0
M  V30 3442 H 321.949 -1.11434 -3.07002 0
M  V30 3443 H 320.608 -3.00984 -2.09294 0
M  V30 3444 H 320.256 -2.31019 -4.4681 0
M  V30 3445 H 319.956 -4.05316 -4.25433 0
M  V30 3446 H 321.48 -3.49887 -5.00412 0
M  V30 3447 H 322.894 -4.79667 -3.13995 0
M  V30 3448 H 321.291 -5.39675 -2.62432 0
M  V30 3449 H 322.361 -4.63155 -1.4358 0
M  V30 3450 N 323.704 0.605807 -1.45491 0
M  V30 3451 C 324.637 1.73022 -1.48791 0
M  V30 3452 C 325.615 1.58917 -0.344112 0
M  V30 3453 O 326.799 1.80453 -0.544876 0
M  V30 3454 C 323.926 3.10865 -1.34463 0
M  V30 3455 C 322.972 3.43554 -2.5273 0
M  V30 3456 S 323.805 3.38196 -4.15191 0
M  V30 3457 C 324.961 4.78616 -4.03333 0
M  V30 3458 H 325.194 1.69961 -2.43928 0
M  V30 3459 H 322.727 0.782611 -1.33096 0
M  V30 3460 H 324.685 3.90398 -1.26884 0
M  V30 3461 H 323.346 3.1144 -0.40794 0
M  V30 3462 H 322.539 4.43924 -2.38637 0
M  V30 3463 H 322.141 2.71541 -2.5718 0
M  V30 3464 H 324.433 5.68463 -3.68587 0
M  V30 3465 H 325.376 4.97767 -5.03621 0
M  V30 3466 H 325.784 4.54381 -3.34959 0
M  V30 3467 N 325.182 1.32811 0.848464 0
M  V30 3468 C 326.41 1.26739 1.63538 0
M  V30 3469 C 326.825 -0.163484 1.88091 0
M  V30 3470 O 326.182 -1.10258 1.45429 0
M  V30 3471 C 326.233 2.03013 2.99112 0
M  V30 3472 O 325.954 3.40518 2.75643 0
M  V30 3473 C 327.455 2.04038 3.93552 0
M  V30 3474 H 324.675 0.437024 0.509167 0
M  V30 3475 H 327.219 1.75033 1.05753 0
M  V30 3476 H 325.374 1.58426 3.53525 0
M  V30 3477 H 325.788 3.79635 3.61908 0
M  V30 3478 H 327.262 2.61877 4.85926 0
M  V30 3479 H 327.739 1.0282 4.26995 0
M  V30 3480 H 328.345 2.486 3.45077 0
M  V30 3481 N 326.66 -1.06551 1.16123 0
M  V30 3482 C 327.906 -1.79567 0.94252 0
M  V30 3483 C 328.239 -1.86869 -0.528547 0
M  V30 3484 O 327.514 -1.35838 -1.39206 0
M  V30 3485 C 327.797 -3.24195 1.56747 0
M  V30 3486 C 327.65 -3.24989 3.10969 0
M  V30 3487 C 328.969 -4.21678 1.25998 0
M  V30 3488 H 326.088 -0.651883 0.343828 0
M  V30 3489 H 328.73 -1.2463 1.43413 0
M  V30 3490 H 326.88 -3.71107 1.14942 0
M  V30 3491 H 328.552 -2.86258 3.61737 0
M  V30 3492 H 326.795 -2.63716 3.44436 0
M  V30 3493 H 327.466 -4.27005 3.49815 0
M  V30 3494 H 329.942 -3.83196 1.62174 0
M  V30 3495 H 328.818 -5.21146 1.7233 0
M  V30 3496 H 329.079 -4.4174 0.178367 0
M  V30 3497 N 328.138 -0.959301 -1.25041 0
M  V30 3498 C 329.386 -0.615393 -1.92503 0
M  V30 3499 C 329.707 0.850969 -1.75452 0
M  V30 3500 O 328.977 1.60658 -1.12098 0
M  V30 3501 H 327.557 -0.224613 -0.712431 0
M  V30 3502 H 330.219 -1.21855 -1.5211 0
M  V30 3503 H 329.315 -0.848738 -3.00338 0
M  V30 3504 N 329.616 1.39756 -0.72842 0
M  V30 3505 C 330.862 2.00942 -0.273892 0
M  V30 3506 C 331.195 1.57656 1.13394 0
M  V30 3507 O 330.47 0.802434 1.77176 0
M  V30 3508 C 330.753 3.58211 -0.368346 0
M  V30 3509 C 330.606 4.11534 -1.81548 0
M  V30 3510 C 331.925 4.39372 0.253054 0
M  V30 3511 H 329.044 0.730047 -0.100996 0
M  V30 3512 H 331.686 1.66056 -0.923337 0
M  V30 3513 H 329.836 3.88061 0.184588 0
M  V30 3514 H 331.508 3.92431 -2.42478 0
M  V30 3515 H 329.751 3.65341 -2.33898 0
M  V30 3516 H 330.422 5.20682 -1.83288 0
M  V30 3517 H 332.898 4.15527 -0.218224 0
M  V30 3518 H 331.774 5.48677 0.156585 0
M  V30 3519 H 332.035 4.21358 1.33826 0
M  V30 3520 N 331.094 0.475555 1.50254 0
M  V30 3521 C 332.324 -0.0753399 2.06463 0
M  V30 3522 C 332.732 -1.33661 1.33908 0
M  V30 3523 O 332.075 -1.79219 0.403257 0
M  V30 3524 C 332.137 -0.424921 3.5698 0
M  V30 3525 C 331.801 0.734965 4.51051 0
M  V30 3526 C 332.798 1.61827 4.94073 0
M  V30 3527 C 330.483 0.926557 4.9368 0
M  V30 3528 C 332.477 2.67754 5.78434 0
M  V30 3529 C 330.164 1.98904 5.77824 0
M  V30 3530 C 331.162 2.8629 6.20103 0
M  V30 3531 O 330.85 3.90708 7.02568 0
M  V30 3532 H 330.582 0.00576308 0.675975 0
M  V30 3533 H 333.136 0.664662 1.94349 0
M  V30 3534 H 331.366 -1.21817 3.67012 0
M  V30 3535 H 333.055 -0.911422 3.95535 0
M  V30 3536 H 333.821 1.48196 4.61804 0
M  V30 3537 H 329.7 0.25584 4.6029 0
M  V30 3538 H 333.244 3.35992 6.11355 0
M  V30 3539 H 329.141 2.12541 6.09505 0
M  V30 3540 H 329.909 3.87751 7.20827 0
M  V30 3541 N 332.573 -1.56217 0.208337 0
M  V30 3542 C 333.821 -1.97558 -0.426076 0
M  V30 3543 C 334.142 -1.09683 -1.61229 0
M  V30 3544 O 333.412 -0.170956 -1.95153 0
M  V30 3545 H 331.992 -0.729575 -0.160405 0
M  V30 3546 H 334.654 -1.92606 0.298155 0
M  V30 3547 H 333.75 -3.02672 -0.761312 0
M  V30 3548 N 334.051 0.0651679 -1.57465 0
M  V30 3549 C 334.998 1.07675 -2.04144 0
M  V30 3550 C 335.968 1.38071 -0.923335 0
M  V30 3551 O 337.153 1.49026 -1.19146 0
M  V30 3552 C 334.293 2.38337 -2.49579 0
M  V30 3553 C 333.406 2.14413 -3.75035 0
M  V30 3554 C 332.541 3.38686 -4.09225 0
M  V30 3555 C 331.58 3.10156 -5.27702 0
M  V30 3556 N 330.717 4.26778 -5.57499 0
M  V30 3557 H 335.557 0.671716 -2.90331 0
M  V30 3558 H 333.094 0.3201 -1.43575 0
M  V30 3559 H 335.052 3.14632 -2.73975 0
M  V30 3560 H 333.682 2.7663 -1.6636 0
M  V30 3561 H 332.734 1.2878 -3.57939 0
M  V30 3562 H 334.046 1.89344 -4.61466 0
M  V30 3563 H 333.2 4.23373 -4.34558 0
M  V30 3564 H 331.939 3.66837 -3.21374 0
M  V30 3565 H 330.944 2.23866 -5.02159 0
M  V30 3566 H 332.169 2.8332 -6.17176 0
M  V30 3567 H 330.115 4.54948 -4.72608 0
M  V30 3568 H 330.032 4.05005 -6.38362 0
M  V30 3569 H 331.3 5.12443 -5.87386 0
M  V30 3570 N 335.529 1.53961 0.336706 0
M  V30 3571 C 336.492 1.81724 1.39675 0
M  V30 3572 C 337.492 0.688532 1.45313 0
M  V30 3573 O 338.682 0.956829 1.45569 0
M  V30 3574 C 335.814 1.96543 2.78538 0
M  V30 3575 H 337.007 2.76424 1.16318 0
M  V30 3576 H 334.56 1.45478 0.571474 0
M  V30 3577 H 335.295 1.0401 3.07168 0
M  V30 3578 H 335.08 2.78665 2.75841 0
M  V30 3579 H 336.57 2.19516 3.5525 0
M  V30 3580 N 337.007 -0.598083 1.45811 0
M  V30 3581 C 337.937 -1.71873 1.58057 0
M  V30 3582 C 338.918 -1.64533 0.431615 0
M  V30 3583 O 340.103 -1.82787 0.65595 0
M  V30 3584 C 337.233 -3.10495 1.55597 0
M  V30 3585 C 336.187 -3.32654 2.69305 0
M  V30 3586 C 335.513 -4.71646 2.51902 0
M  V30 3587 C 336.813 -3.21981 4.11248 0
M  V30 3588 H 338.507 -1.61881 2.51863 0
M  V30 3589 H 336.053 -0.777372 1.21214 0
M  V30 3590 H 338.006 -3.88699 1.6276 0
M  V30 3591 H 336.73 -3.2135 0.583255 0
M  V30 3592 H 335.389 -2.56843 2.61586 0
M  V30 3593 H 335.037 -4.79246 1.52748 0
M  V30 3594 H 334.737 -4.87426 3.2816 0
M  V30 3595 H 336.261 -5.52038 2.60933 0
M  V30 3596 H 337.675 -3.90049 4.20161 0
M  V30 3597 H 336.072 -3.49289 4.87972 0
M  V30 3598 H 337.142 -2.1928 4.32486 0
M  V30 3599 N 338.485 -1.33259 -0.841409 0
M  V30 3600 C 339.896 -1.22066 -1.41269 0
M  V30 3601 C 340.247 0.161479 -1.95534 0
M  V30 3602 O 339.372 1.06094 -1.88608 0
M  V30 3603 C 339.967 -2.20996 -2.568 0
M  V30 3604 C 338.526 -2.13649 -3.09888 0
M  V30 3605 C 337.673 -2.08623 -1.82679 0
M  V30 3606 H 340.624 -1.44895 -0.647395 0
M  V30 3607 H 340.645 -1.81621 -3.34356 0
M  V30 3608 H 340.157 -3.2158 -2.17274 0
M  V30 3609 H 338.258 -1.16359 -3.53965 0
M  V30 3610 H 338.371 -3.04079 -3.70234 0
M  V30 3611 H 336.735 -1.54061 -2.02824 0
M  V30 3612 H 337.518 -3.1101 -1.45353 0
M  V30 3613 N 339.963 1.05934 -1.16686 0
M  V30 3614 C 341.374 1.60263 -0.957745 0
M  V30 3615 C 341.725 1.89789 0.49745 0
M  V30 3616 O 340.85 1.67401 1.37135 0
M  V30 3617 C 341.445 2.91172 -1.73218 0
M  V30 3618 C 340.004 3.42188 -1.56794 0
M  V30 3619 C 339.151 2.16028 -1.73859 0
M  V30 3620 H 342.102 0.888392 -1.31504 0
M  V30 3621 H 342.123 3.60744 -1.21014 0
M  V30 3622 H 341.635 2.6965 -2.79124 0
M  V30 3623 H 339.736 3.68762 -0.533437 0
M  V30 3624 H 339.849 4.17273 -2.35414 0
M  V30 3625 H 338.213 2.26426 -1.16633 0
M  V30 3626 H 338.996 1.96985 -2.81161 0
M  V30 3627 N 341.441 0.965919 1.2453 0
M  V30 3628 C 342.373 0.452465 2.2469 0
M  V30 3629 C 343.386 -0.437821 1.56802 0
M  V30 3630 O 344.575 -0.244283 1.76821 0
M  V30 3631 C 341.675 -0.366258 3.36915 0
M  V30 3632 C 340.848 0.513701 4.34373 0
M  V30 3633 C 339.907 -0.248716 5.25612 0
M  V30 3634 O 338.933 0.356745 5.68081 0
M  V30 3635 N 340.135 -1.53877 5.59734 0
M  V30 3636 H 342.9 1.31361 2.69378 0
M  V30 3637 H 340.461 0.837541 1.38553 0
M  V30 3638 H 342.453 -0.884297 3.94921 0
M  V30 3639 H 341.023 -1.12832 2.91526 0
M  V30 3640 H 340.243 1.21273 3.75082 0
M  V30 3641 H 341.531 1.11391 4.96457 0
M  V30 3642 H 340.929 -2.05243 5.27154 0
M  V30 3643 H 339.486 -2.00254 6.20275 0
M  V30 3644 N 342.919 -1.39368 0.735821 0
M  V30 3645 C 343.867 -2.32443 0.0855131 0
M  V30 3646 C 344.861 -1.53104 -0.724954 0
M  V30 3647 O 346.067 -1.68762 -0.626047 0
M  V30 3648 H 342.442 -0.751948 0.00885257 0
M  V30 3649 H 344.413 -2.84916 0.886883 0
M  V30 3650 C 343.162 -3.38206 -0.806983 0
M  V30 3651 H 342.485 -3.99335 -0.19274 0
M  V30 3652 H 343.925 -4.05779 -1.2296 0
M  V30 3653 C 342.384 -2.75321 -1.94165 0
M  V30 3654 O 342.914 -2.63231 -3.03435 0
M  V30 3655 N 341.12 -2.33396 -1.73132 0
M  V30 3656 H 340.667 -2.4343 -0.842596 0
M  V30 3657 H 340.625 -1.91661 -2.49225 0
M  V30 3658 N 344.397 -0.483516 -1.5 0
M  V30 3659 C 345.645 0.067027 -2.01989 0
M  V30 3660 C 345.966 1.3909 -1.36671 0
M  V30 3661 O 345.236 1.88978 -0.516152 0
M  V30 3662 H 343.816 0.0277606 -0.746484 0
M  V30 3663 H 346.478 -0.636773 -1.84204 0
M  V30 3664 H 345.574 0.209484 -3.11396 0
M  V30 3665 N 345.875 1.56104 -0.216619 0
M  V30 3666 C 346.838 2.18819 0.681962 0
M  V30 3667 C 347.838 1.14866 1.12528 0
M  V30 3668 O 349.028 1.40128 1.03488 0
M  V30 3669 C 346.16 2.80756 1.93362 0
M  V30 3670 H 347.353 2.99595 0.135254 0
M  V30 3671 H 344.906 1.56265 0.0330003 0
M  V30 3672 H 345.641 2.03837 2.52232 0
M  V30 3673 H 345.426 3.56876 1.62426 0
M  V30 3674 H 346.916 3.28844 2.57393 0
M  V30 3675 N 347.353 -0.0568162 1.57498 0
M  V30 3676 C 348.764 -0.606858 1.76562 0
M  V30 3677 C 349.115 -1.77114 0.844094 0
M  V30 3678 O 348.24 -2.16376 0.0318911 0
M  V30 3679 C 348.835 -1.10766 3.20182 0
M  V30 3680 C 347.394 -1.60344 3.40539 0
M  V30 3681 C 346.541 -0.529311 2.72201 0
M  V30 3682 H 349.492 0.169393 1.57793 0
M  V30 3683 H 349.513 -1.97602 3.25167 0
M  V30 3684 H 349.025 -0.26006 3.87228 0
M  V30 3685 H 347.126 -2.47379 2.78629 0
M  V30 3686 H 347.239 -1.67006 4.4905 0
M  V30 3687 H 345.603 -0.977893 2.35179 0
M  V30 3688 H 346.386 0.308352 3.41912 0
M  V30 3689 N 348.832 -1.54138 -0.328536 0
M  V30 3690 C 350.078 -1.7236 -1.06865 0
M  V30 3691 C 350.411 -0.493231 -1.87832 0
M  V30 3692 O 349.686 0.5098 -1.877 0
M  V30 3693 C 349.969 -2.99621 -1.99747 0
M  V30 3694 C 349.822 -4.32899 -1.22143 0
M  V30 3695 C 351.141 -3.22615 -2.99345 0
M  V30 3696 H 348.26 -0.627151 -0.387105 0
M  V30 3697 H 350.902 -1.86827 -0.345767 0
M  V30 3698 H 349.052 -2.87418 -2.61387 0
M  V30 3699 H 350.724 -4.56978 -0.630017 0
M  V30 3700 H 348.967 -4.30628 -0.523628 0
M  V30 3701 H 349.638 -5.18154 -1.90318 0
M  V30 3702 H 352.114 -3.34248 -2.47826 0
M  V30 3703 H 350.99 -4.13027 -3.61524 0
M  V30 3704 H 351.251 -2.3961 -3.71536 0
M  V30 3705 N 350.31 0.590341 -1.46126 0
M  V30 3706 C 351.726 0.912917 -1.30912 0
M  V30 3707 C 351.926 1.99616 -0.274893 0
M  V30 3708 O 350.982 2.50397 0.325197 0
M  V30 3709 C 352.295 1.3375 -2.69317 0
M  V30 3710 C 353.843 1.45077 -2.77348 0
M  V30 3711 C 354.318 1.90904 -4.16317 0
M  V30 3712 N 355.809 1.9811 -4.18696 0
M  V30 3713 C 356.544 2.34828 -5.23109 0
M  V30 3714 N 356.04 2.70393 -6.37856 0
M  V30 3715 N 357.833 2.35317 -5.10473 0
M  V30 3716 H 349.984 -0.125358 -2.1203 0
M  V30 3717 H 352.247 0.00658481 -0.947977 0
M  V30 3718 H 351.953 0.615614 -3.4627 0
M  V30 3719 H 351.827 2.30058 -2.9892 0
M  V30 3720 H 354.214 2.16353 -2.00687 0
M  V30 3721 H 354.295 0.4704 -2.51438 0
M  V30 3722 H 353.939 1.20209 -4.9347 0
M  V30 3723 H 353.869 2.89886 -4.39629 0
M  V30 3724 H 356.36 1.73146 -3.359 0
M  V30 3725 H 356.673 2.97341 -7.13308 0
M  V30 3726 H 355.018 2.68048 -6.41229 0
M  V30 3727 H 358.209 2.0695 -4.19868 0
M  V30 3728 H 358.382 2.63605 -5.9196 0
M  V30 3729 N 351.788 1.33704 0.83433 0
M  V30 3730 C 352.718 1.26967 1.95963 0
M  V30 3731 C 353.699 0.149337 1.69443 0
M  V30 3732 O 354.884 0.339852 1.91203 0
M  V30 3733 C 352.014 1.01275 3.32206 0
M  V30 3734 C 350.968 2.09652 3.73136 0
M  V30 3735 C 350.294 1.69166 5.07235 0
M  V30 3736 C 351.594 3.51372 3.86439 0
M  V30 3737 H 353.288 2.2112 2.01857 0
M  V30 3738 H 350.834 1.06447 0.969793 0
M  V30 3739 H 352.787 0.952106 4.10503 0
M  V30 3740 H 351.511 0.0356203 3.26581 0
M  V30 3741 H 350.17 2.14766 2.97104 0
M  V30 3742 H 349.818 0.701437 4.98085 0
M  V30 3743 H 349.518 2.41694 5.35591 0
M  V30 3744 H 351.042 1.64576 5.88003 0
M  V30 3745 H 352.456 3.48734 4.55036 0
M  V30 3746 H 350.853 4.22425 4.26236 0
M  V30 3747 H 351.923 3.89546 2.88759 0
M  V30 3748 N 353.266 -1.05314 1.17247 0
M  V30 3749 C 354.515 -1.77685 0.954521 0
M  V30 3750 C 354.828 -1.88616 -0.518025 0
M  V30 3751 O 356.034 -2.57714 -0.854144 0
M  V30 3752 C 354.49 -3.19402 1.65863 0
M  V30 3753 C 354.098 -3.16605 3.16963 0
M  V30 3754 C 355.842 -3.96237 1.52303 0
M  V30 3755 C 353.749 -4.53103 3.80068 0
M  V30 3756 H 352.679 -0.666 0.353496 0
M  V30 3757 H 355.33 -1.1805 1.40486 0
M  V30 3758 H 353.712 -3.79355 1.13602 0
M  V30 3759 H 354.886 -2.66176 3.76148 0
M  V30 3760 H 353.201 -2.53268 3.30521 0
M  V30 3761 H 355.798 -4.97157 1.96822 0
M  V30 3762 H 356.141 -4.136 0.473401 0
M  V30 3763 H 356.674 -3.42829 2.01775 0
M  V30 3764 H 353.413 -4.40946 4.85023 0
M  V30 3765 H 352.933 -5.03686 3.2567 0
M  V30 3766 H 354.612 -5.22045 3.82202 0
M  V30 3767 N 354.744 -0.972509 -1.24016 0
M  V30 3768 C 355.99 -0.637978 -1.92504 0
M  V30 3769 C 356.323 0.825383 -1.75787 0
M  V30 3770 O 355.598 1.59442 -1.11393 0
M  V30 3771 C 355.881 -1.01942 -3.45369 0
M  V30 3772 C 355.734 -2.53983 -3.71231 0
M  V30 3773 C 357.053 -0.55751 -4.36555 0
M  V30 3774 H 354.172 -0.233248 -0.699117 0
M  V30 3775 H 356.814 -1.21238 -1.46292 0
M  V30 3776 H 354.964 -0.530656 -3.84859 0
M  V30 3777 H 356.636 -3.10374 -3.41271 0
M  V30 3778 H 354.879 -2.96968 -3.16216 0
M  V30 3779 H 355.55 -2.75723 -4.78206 0
M  V30 3780 H 358.026 -0.977029 -4.04467 0
M  V30 3781 H 356.902 -0.85292 -5.42233 0
M  V30 3782 H 357.163 0.542328 -4.38761 0
M  V30 3783 N 356.222 1.38976 -0.743202 0
M  V30 3784 C 357.633 1.83123 -0.363732 0
M  V30 3785 C 357.984 1.6205 1.10609 0
M  V30 3786 O 357.109 1.11606 1.854 0
M  V30 3787 C 357.704 3.32439 -0.653408 0
M  V30 3788 C 356.263 3.74974 -0.327338 0
M  V30 3789 C 355.41 2.61878 -0.911875 0
M  V30 3790 H 358.361 1.27852 -0.940191 0
M  V30 3791 H 358.382 3.80432 0.0720031 0
M  V30 3792 H 357.894 3.47745 -1.72323 0
M  V30 3793 H 355.995 3.65252 0.736314 0
M  V30 3794 H 356.108 4.72106 -0.815631 0
M  V30 3795 H 354.472 2.52448 -0.337944 0
M  V30 3796 H 355.255 2.79987 -1.98651 0
M  V30 3797 N 357.7 0.491464 1.49741 0
M  V30 3798 C 358.946 -0.0485431 2.03342 0
M  V30 3799 C 359.301 -1.35566 1.36527 0
M  V30 3800 O 358.594 -1.85262 0.488729 0
M  V30 3801 C 358.788 -0.267329 3.56399 0
M  V30 3802 C 358.617 1.01703 4.38049 0
M  V30 3803 C 357.387 1.56614 4.80417 0
M  V30 3804 C 359.585 1.91782 4.77204 0
M  V30 3805 N 357.567 2.7974 5.4646 0
M  V30 3806 C 358.938 2.99489 5.42868 0
M  V30 3807 C 360.993 1.92575 4.5915 0
M  V30 3808 C 359.696 4.08005 5.92389 0
M  V30 3809 C 361.722 3.0006 5.09626 0
M  V30 3810 C 361.084 4.06485 5.75282 0
M  V30 3811 H 357.183 0.0227779 0.781668 0
M  V30 3812 H 359.767 0.664204 1.8302 0
M  V30 3813 H 357.938 -0.949126 3.76625 0
M  V30 3814 H 359.67 -0.803492 3.96644 0
M  V30 3815 H 356.425 1.11256 4.60347 0
M  V30 3816 H 356.849 3.42323 5.84075 0
M  V30 3817 H 361.491 1.11605 4.07804 0
M  V30 3818 H 359.209 4.89779 6.42761 0
M  V30 3819 H 362.795 3.01681 4.97473 0
M  V30 3820 H 361.675 4.88287 6.13633 0
M  V30 3821 N 359.178 -1.55987 0.224894 0
M  V30 3822 C 360.125 -2.20436 -0.68385 0
M  V30 3823 C 361.095 -1.16102 -1.18783 0
M  V30 3824 O 362.28 -1.4447 -1.24632 0
M  V30 3825 C 359.42 -2.89076 -1.88491 0
M  V30 3826 C 358.533 -4.08012 -1.41951 0
M  V30 3827 C 357.668 -4.64426 -2.5784 0
M  V30 3828 C 356.707 -5.75656 -2.08053 0
M  V30 3829 N 355.844 -6.26347 -3.17227 0
M  V30 3830 H 360.684 -2.97727 -0.12754 0
M  V30 3831 H 358.221 -1.47011 -0.0511978 0
M  V30 3832 H 360.179 -3.27059 -2.59014 0
M  V30 3833 H 358.809 -2.14298 -2.41405 0
M  V30 3834 H 357.861 -3.75492 -0.609095 0
M  V30 3835 H 359.173 -4.88375 -1.01447 0
M  V30 3836 H 358.327 -5.04869 -3.3644 0
M  V30 3837 H 357.066 -3.83233 -3.01635 0
M  V30 3838 H 356.071 -5.34712 -1.27916 0
M  V30 3839 H 357.296 -6.58686 -1.65255 0
M  V30 3840 H 355.242 -5.48067 -3.60497 0
M  V30 3841 H 355.159 -7.01843 -2.80986 0
M  V30 3842 H 356.427 -6.71447 -3.95953 0
M  V30 3843 N 360.656 0.0484629 -1.57525 0
M  V30 3844 C 361.886 0.754326 -1.92337 0
M  V30 3845 C 362.294 1.70443 -0.82132 0
M  V30 3846 O 361.637 1.82466 0.21254 0
M  V30 3847 C 361.699 1.58231 -3.22805 0
M  V30 3848 C 361.363 0.799074 -4.4996 0
M  V30 3849 C 362.36 0.1079 -5.19788 0
M  V30 3850 C 360.045 0.759345 -4.96527 0
M  V30 3851 C 362.039 -0.612516 -6.3445 0
M  V30 3852 C 359.726 0.0351713 -6.1109 0
M  V30 3853 C 360.724 -0.649537 -6.79904 0
M  V30 3854 O 360.412 -1.36199 -7.92278 0
M  V30 3855 H 360.144 0.218257 -0.639797 0
M  V30 3856 H 362.698 0.0159295 -2.05394 0
M  V30 3857 H 360.928 2.36406 -3.06021 0
M  V30 3858 H 362.617 2.16898 -3.43089 0
M  V30 3859 H 363.383 0.129748 -4.84826 0
M  V30 3860 H 359.262 1.28177 -4.42822 0
M  V30 3861 H 362.806 -1.14751 -6.88097 0
M  V30 3862 H 358.703 0.0113314 -6.45499 0
M  V30 3863 H 359.471 -1.27366 -8.0853 0
M  V30 3864 N 362.134 1.5431 0.320358 0
M  V30 3865 C 363.382 1.72327 1.05583 0
M  V30 3866 C 363.703 0.50149 1.88441 0
M  V30 3867 O 362.973 -0.48448 1.89815 0
M  V30 3868 H 361.553 0.635387 0.3928 0
M  V30 3869 H 364.215 1.91621 0.356019 0
M  V30 3870 H 363.311 2.60426 1.72003 0
M  V30 3871 N 363.613 -0.582584 1.46437 0
M  V30 3872 C 364.86 -1.34079 1.51753 0
M  V30 3873 C 365.188 -1.93762 0.169299 0
M  V30 3874 O 364.443 -1.76989 -0.835062 0
M  V30 3875 C 364.742 -2.48964 2.56421 0
M  V30 3876 C 364.408 -2.07273 4.00436 0
M  V30 3877 C 363.07 -1.95618 4.39644 0
M  V30 3878 C 365.422 -1.75111 4.90903 0
M  V30 3879 C 362.75 -1.5006 5.67185 0
M  V30 3880 C 365.102 -1.31032 6.18881 0
M  V30 3881 C 363.766 -1.17954 6.56996 0
M  V30 3882 H 363.036 -0.49063 0.555304 0
M  V30 3883 H 365.683 -0.656007 1.79913 0
M  V30 3884 H 363.988 -3.22889 2.21923 0
M  V30 3885 H 365.685 -3.07178 2.57765 0
M  V30 3886 H 362.275 -2.17279 3.69443 0
M  V30 3887 H 366.459 -1.83001 4.61329 0
M  V30 3888 H 361.715 -1.38577 5.95488 0
M  V30 3889 H 365.889 -1.052 6.88408 0
M  V30 3890 H 363.516 -0.824279 7.55718 0
M  V30 3891 N 365.091 -1.34144 -0.827227 0
M  V30 3892 C 366.038 -1.25364 -1.93785 0
M  V30 3893 C 367.008 -0.129774 -1.65592 0
M  V30 3894 O 368.193 -0.310024 -1.88264 0
M  V30 3895 C 365.333 -1.01064 -3.2997 0
M  V30 3896 C 364.446 -2.22185 -3.70484 0
M  V30 3897 C 363.581 -1.91203 -4.95595 0
M  V30 3898 C 362.62 -3.08491 -5.28677 0
M  V30 3899 N 361.757 -2.77421 -6.44967 0
M  V30 3900 H 366.597 -2.20347 -2.00627 0
M  V30 3901 H 364.134 -1.09558 -0.981608 0
M  V30 3902 H 366.092 -0.850139 -4.08446 0
M  V30 3903 H 364.722 -0.0975026 -3.22653 0
M  V30 3904 H 363.774 -2.4917 -2.87434 0
M  V30 3905 H 365.086 -3.0983 -3.90905 0
M  V30 3906 H 364.24 -1.71864 -5.81848 0
M  V30 3907 H 362.979 -1.00812 -4.77167 0
M  V30 3908 H 361.984 -3.28431 -4.40923 0
M  V30 3909 H 363.209 -3.99655 -5.49047 0
M  V30 3910 H 361.155 -1.89601 -6.28003 0
M  V30 3911 H 361.072 -3.58598 -6.6554 0
M  V30 3912 H 362.34 -2.61577 -7.34301 0
M  V30 3913 N 366.569 1.04691 -1.17803 0
M  V30 3914 C 367.817 1.7743 -0.967617 0
M  V30 3915 C 368.138 1.88359 0.504574 0
M  V30 3916 O 367.408 1.40402 1.36617 0
M  V30 3917 H 365.988 0.657242 -0.355024 0
M  V30 3918 H 368.65 1.2638 -1.48371 0
M  V30 3919 H 367.746 2.78924 -1.40027 0
M  V30 3920 N 368.047 0.979072 1.23499 0
M  V30 3921 C 369.296 0.642751 1.91185 0
M  V30 3922 C 369.609 -0.827253 1.77245 0
M  V30 3923 O 370.815 -1.27458 2.39722 0
M  V30 3924 C 369.271 1.09901 3.42709 0
M  V30 3925 C 368.879 2.59327 3.65313 0
M  V30 3926 C 370.623 0.836371 4.16179 0
M  V30 3927 C 368.53 2.98627 5.10467 0
M  V30 3928 H 367.46 0.236698 0.715884 0
M  V30 3929 H 370.111 1.1868 1.39955 0
M  V30 3930 H 368.493 0.48319 3.93041 0
M  V30 3931 H 369.667 3.26136 3.25533 0
M  V30 3932 H 367.982 2.83323 3.05151 0
M  V30 3933 H 370.579 1.10586 5.23139 0
M  V30 3934 H 370.922 -0.227509 4.15678 0
M  V30 3935 H 371.455 1.41371 3.71832 0
M  V30 3936 H 368.194 4.04133 5.16098 0
M  V30 3937 H 367.714 2.3651 5.51201 0
M  V30 3938 H 369.393 2.89159 5.78788 0
M  V30 3939 N 369.525 -1.3858 0.750561 0
M  V30 3940 C 370.472 -2.30483 0.120835 0
M  V30 3941 C 371.442 -1.50022 -0.712923 0
M  V30 3942 O 372.627 -1.78662 -0.669676 0
M  V30 3943 C 369.767 -3.36431 -0.768666 0
M  V30 3944 C 368.88 -4.31927 0.0793922 0
M  V30 3945 C 368.015 -5.24944 -0.81283 0
M  V30 3946 C 367.054 -6.12088 0.0390447 0
M  V30 3947 N 366.191 -6.97412 -0.809969 0
M  V30 3948 H 371.031 -2.83761 0.91015 0
M  V30 3949 H 368.568 -1.39707 0.460463 0
M  V30 3950 H 370.526 -3.96462 -1.29898 0
M  V30 3951 H 369.156 -2.8457 -1.5238 0
M  V30 3952 H 368.208 -3.73382 0.727303 0
M  V30 3953 H 369.52 -4.93319 0.737401 0
M  V30 3954 H 368.674 -5.90078 -1.41042 0
M  V30 3955 H 367.413 -4.63911 -1.50458 0
M  V30 3956 H 366.418 -5.45952 0.649328 0
M  V30 3957 H 367.643 -6.75189 0.727809 0
M  V30 3958 H 365.589 -6.38931 -1.48672 0
M  V30 3959 H 365.506 -7.55712 -0.208789 0
M  V30 3960 H 366.774 -7.66959 -1.39263 0
M  V30 3961 N 371.003 -0.499398 -1.49478 0
M  V30 3962 C 372.228 0.044722 -2.07352 0
M  V30 3963 C 372.653 1.30207 -1.35749 0
M  V30 3964 O 372.011 1.76516 -0.413732 0
M  V30 3965 C 372.059 0.283013 -3.59488 0
M  V30 3966 O 371.163 1.35804 -3.89398 0
M  V30 3967 H 370.504 -0.0255147 -0.66351 0
M  V30 3968 H 373.034 -0.698561 -1.92305 0
M  V30 3969 H 373.044 0.515007 -4.04737 0
M  V30 3970 H 371.719 -0.635636 -4.11014 0
M  V30 3971 H 370.296 1.11113 -3.55961 0
M  V30 3972 N 372.481 1.55866 -0.233164 0
M  V30 3973 C 373.73 1.97779 0.39579 0
M  V30 3974 C 374.043 1.12419 1.60066 0
M  V30 3975 O 375.249 1.44283 2.29988 0
M  V30 3976 C 373.705 3.5188 0.755556 0
M  V30 3977 C 373.313 4.45959 -0.427152 0
M  V30 3978 C 375.057 4.02479 1.34946 0
M  V30 3979 C 372.964 5.91383 -0.0443043 0
M  V30 3980 H 371.894 0.738592 0.15165 0
M  V30 3981 H 374.545 1.80486 -0.331212 0
M  V30 3982 H 372.927 3.64816 1.5403 0
M  V30 3983 H 374.101 4.44776 -1.20462 0
M  V30 3984 H 372.416 4.05765 -0.935068 0
M  V30 3985 H 375.013 5.08637 1.649 0
M  V30 3986 H 375.356 3.49014 2.26925 0
M  V30 3987 H 375.889 3.92813 0.62791 0
M  V30 3988 H 372.628 6.48857 -0.930874 0
M  V30 3989 H 372.148 5.95734 0.697238 0
M  V30 3990 H 373.827 6.45893 0.378334 0
M  V30 3991 N 373.959 -0.0401083 1.57549 0
M  V30 3992 C 375.205 -0.734211 1.89043 0
M  V30 3993 C 375.538 -1.75591 0.829535 0
M  V30 3994 O 374.813 -1.93868 -0.156706 0
M  V30 3995 C 375.096 -1.41374 3.31188 0
M  V30 3996 C 374.949 -0.406299 4.47961 0
M  V30 3997 C 376.268 -2.35061 3.72068 0
M  V30 3998 H 373.387 -0.265447 0.687537 0
M  V30 3999 H 376.029 0.00294087 1.9 0
M  V30 4000 H 374.179 -2.04206 3.30503 0
M  V30 4001 H 375.851 0.219255 4.60779 0
M  V30 4002 H 374.094 0.275485 4.32924 0
M  V30 4003 H 374.765 -0.920022 5.44279 0
M  V30 4004 H 377.241 -1.82282 3.74049 0
M  V30 4005 H 376.117 -2.79593 4.72355 0
M  V30 4006 H 376.378 -3.21258 3.0372 0
M  V30 4007 N 375.437 -1.54477 -0.31217 0
M  V30 4008 C 376.662 -1.77526 -1.07235 0
M  V30 4009 C 377.087 -0.527775 -1.80544 0
M  V30 4010 O 376.445 0.52121 -1.73646 0
M  V30 4011 C 376.493 -2.97535 -2.03728 0
M  V30 4012 O 375.597 -2.69878 -3.11833 0
M  V30 4013 H 374.938 -0.58792 -0.30862 0
M  V30 4014 H 377.468 -2.01532 -0.352993 0
M  V30 4015 H 377.478 -3.25198 -2.46395 0
M  V30 4016 H 376.153 -3.87996 -1.49774 0
M  V30 4017 H 374.73 -2.53199 -2.7376 0
M  V30 4018 N 376.915 0.57481 -1.46744 0
M  V30 4019 C 378.164 1.32898 -1.51727 0
M  V30 4020 C 378.477 1.948 -0.176692 0
M  V30 4021 O 379.683 2.71299 -0.104385 0
M  V30 4022 C 378.139 2.40901 -2.67385 0
M  V30 4023 C 377.747 1.85266 -4.07898 0
M  V30 4024 C 379.491 3.17609 -2.81646 0
M  V30 4025 C 377.398 2.90945 -5.14883 0
M  V30 4026 H 376.328 0.499631 -0.564699 0
M  V30 4027 H 378.979 0.612536 -1.72975 0
M  V30 4028 H 377.361 3.15379 -2.39483 0
M  V30 4029 H 378.535 1.17278 -4.45626 0
M  V30 4030 H 376.85 1.21199 -3.98371 0
M  V30 4031 H 379.447 3.96493 -3.58744 0
M  V30 4032 H 379.79 3.70696 -1.89448 0
M  V30 4033 H 380.323 2.50239 -3.09233 0
M  V30 4034 H 377.062 2.42736 -6.089 0
M  V30 4035 H 376.582 3.57398 -4.81691 0
M  V30 4036 H 378.261 3.54755 -5.41071 0
M  V30 4037 N 378.394 1.34581 0.820102 0
M  V30 4038 C 379.341 1.2639 1.93117 0
M  V30 4039 C 380.311 0.138554 1.65521 0
M  V30 4040 O 381.496 0.320004 1.88097 0
M  V30 4041 C 378.636 1.02812 3.29429 0
M  V30 4042 C 377.749 2.24146 3.693 0
M  V30 4043 C 376.884 1.93829 4.94574 0
M  V30 4044 C 375.923 3.1129 5.27034 0
M  V30 4045 N 375.06 2.80838 6.43486 0
M  V30 4046 H 379.9 2.21408 1.99455 0
M  V30 4047 H 377.437 1.10077 0.975784 0
M  V30 4048 H 379.395 0.871788 4.0799 0
M  V30 4049 H 378.025 0.114612 3.22596 0
M  V30 4050 H 377.077 2.50691 2.86109 0
M  V30 4051 H 378.389 3.11899 3.89257 0
M  V30 4052 H 377.543 1.74948 5.80929 0
M  V30 4053 H 376.282 1.03341 4.76626 0
M  V30 4054 H 375.287 3.30764 4.39175 0
M  V30 4055 H 376.512 4.02561 5.4692 0
M  V30 4056 H 374.458 1.92929 6.26988 0
M  V30 4057 H 374.375 3.62123 6.63629 0
M  V30 4058 H 375.643 2.65467 7.32903 0
M  V30 4059 N 379.872 -1.04064 1.18357 0
M  V30 4060 C 380.802 -2.14001 0.934113 0
M  V30 4061 C 381.783 -1.69616 -0.128186 0
M  V30 4062 O 382.968 -1.94185 0.0244093 0
M  V30 4063 C 380.098 -3.44253 0.459066 0
M  V30 4064 C 379.052 -4.02261 1.46185 0
M  V30 4065 C 378.378 -5.27992 0.844322 0
M  V30 4066 C 379.678 -4.38432 2.83856 0
M  V30 4067 H 381.372 -2.35127 1.85352 0
M  V30 4068 H 378.918 -1.12998 0.892604 0
M  V30 4069 H 380.871 -4.20522 0.271907 0
M  V30 4070 H 379.595 -3.22813 -0.495912 0
M  V30 4071 H 378.254 -3.28074 1.63595 0
M  V30 4072 H 377.902 -5.02862 -0.117845 0
M  V30 4073 H 377.602 -5.67765 1.51384 0
M  V30 4074 H 379.126 -6.06938 0.667693 0
M  V30 4075 H 380.54 -5.05688 2.70098 0
M  V30 4076 H 378.937 -4.89254 3.47491 0
M  V30 4077 H 380.007 -3.4826 3.37406 0
M  V30 4078 N 381.35 -0.985608 -1.22978 0
M  V30 4079 C 382.578 -0.675582 -1.95559 0
M  V30 4080 C 382.993 0.758413 -1.72897 0
M  V30 4081 O 382.35 1.51094 -1.02357 0
M  V30 4082 C 382.401 -0.96293 -3.48439 0
M  V30 4083 O 382.122 -2.34057 -3.70336 0
M  V30 4084 C 383.623 -0.669585 -4.38214 0
M  V30 4085 H 380.843 -0.250523 -0.622478 0
M  V30 4086 H 383.387 -1.3184 -1.56328 0
M  V30 4087 H 381.542 -0.366033 -3.85667 0
M  V30 4088 H 381.956 -2.43424 -4.64591 0
M  V30 4089 H 383.43 -0.920967 -5.44263 0
M  V30 4090 H 383.907 0.396383 -4.37408 0
M  V30 4091 H 384.513 -1.2472 -4.06602 0
M  V30 4092 N 382.828 1.3818 -0.7579 0
M  V30 4093 C 384.244 1.5353 -0.435972 0
M  V30 4094 C 384.444 1.71961 1.05032 0
M  V30 4095 O 383.5 1.73307 1.83633 0
M  V30 4096 C 384.813 2.73989 -1.23898 0
M  V30 4097 C 386.361 2.87841 -1.22949 0
M  V30 4098 C 386.836 4.11266 -2.01554 0
M  V30 4099 N 388.327 4.18352 -1.98837 0
M  V30 4100 C 389.062 5.12856 -2.5645 0
M  V30 4101 N 388.558 6.13005 -3.22794 0
M  V30 4102 N 390.351 5.05238 -2.46356 0
M  V30 4103 H 382.502 1.24467 -1.7211 0
M  V30 4104 H 384.765 0.604982 -0.729864 0
M  V30 4105 H 384.471 2.66789 -2.29165 0
M  V30 4106 H 384.345 3.67294 -0.858764 0
M  V30 4107 H 386.732 2.9452 -0.184854 0
M  V30 4108 H 386.813 1.95534 -1.64924 0
M  V30 4109 H 386.457 4.05349 -3.06031 0
M  V30 4110 H 386.387 5.02661 -1.5697 0
M  V30 4111 H 388.878 3.46628 -1.50524 0
M  V30 4112 H 389.191 6.81619 -3.64165 0
M  V30 4113 H 387.536 6.13325 -3.2689 0
M  V30 4114 H 390.727 4.25938 -1.9415 0
M  V30 4115 H 390.9 5.78707 -2.91552 0
M  V30 4116 N 384.306 0.507319 1.49211 0
M  V30 4117 C 385.216 -0.272136 2.33016 0
M  V30 4118 C 386.232 -0.961206 1.45041 0
M  V30 4119 O 387.408 -0.941191 1.78055 0
M  V30 4120 C 384.473 -1.31895 3.20631 0
M  V30 4121 C 383.534 -0.642648 4.24463 0
M  V30 4122 C 382.767 -1.63959 5.07891 0
M  V30 4123 O 382.99 -2.87007 4.92933 0
M  V30 4124 O 381.924 -1.19143 5.8999 0
M  V30 4125 H 385.75 0.413982 3.00865 0
M  V30 4126 H 383.335 0.268556 1.46966 0
M  V30 4127 H 385.217 -1.92446 3.7489 0
M  V30 4128 H 383.892 -1.98788 2.5547 0
M  V30 4129 H 382.799 0.00276252 3.741 0
M  V30 4130 H 384.132 -0.0160534 4.92197 0
M  V30 4131 N 385.784 -1.5574 0.241426 0
M  V30 4132 C 387.2 -1.59196 -0.113548 0
M  V30 4133 C 387.4 -1.25852 -1.57364 0
M  V30 4134 O 386.456 -1.00322 -2.31715 0
M  V30 4135 C 387.769 -2.99814 0.230695 0
M  V30 4136 C 389.317 -3.12513 0.174547 0
M  V30 4137 C 389.792 -4.55342 0.492744 0
M  V30 4138 N 391.283 -4.61076 0.443043 0
M  V30 4139 C 392.018 -5.6956 0.662484 0
M  V30 4140 N 391.514 -6.86328 0.944761 0
M  V30 4141 N 393.307 -5.58957 0.593564 0
M  V30 4142 H 385.458 -1.75685 1.19368 0
M  V30 4143 H 387.721 -0.81756 0.479896 0
M  V30 4144 H 387.427 -3.28932 1.24485 0
M  V30 4145 H 387.301 -3.74568 -0.444833 0
M  V30 4146 H 389.688 -2.83179 -0.830277 0
M  V30 4147 H 389.769 -2.40045 0.883845 0
M  V30 4148 H 389.413 -4.85396 1.4951 0
M  V30 4149 H 389.343 -5.26062 -0.23797 0
M  V30 4150 H 391.834 -3.77179 0.233374 0
M  V30 4151 H 392.147 -7.64935 1.09977 0
M  V30 4152 H 390.492 -6.88025 0.982175 0
M  V30 4153 H 393.683 -4.66611 0.373123 0
M  V30 4154 H 393.856 -6.43433 0.767981 0
M  V30 4155 N 387.262 0.0317525 -1.57568 0
M  V30 4156 C 388.673 0.578692 -1.77505 0
M  V30 4157 C 389.024 1.75749 -0.872164 0
M  V30 4158 O 388.149 2.16298 -0.0663106 0
M  V30 4159 C 388.744 1.05658 -3.21904 0
M  V30 4160 C 387.303 1.54906 -3.43047 0
M  V30 4161 C 386.45 0.485939 -2.73009 0
M  V30 4162 H 389.401 -0.194475 -1.57504 0
M  V30 4163 H 389.422 1.92404 -3.28269 0
M  V30 4164 H 388.934 0.198422 -3.87592 0
M  V30 4165 H 387.035 2.42915 -2.82529 0
M  V30 4166 H 387.148 1.59841 -4.5165 0
M  V30 4167 H 385.512 0.940354 -2.36705 0
M  V30 4168 H 386.295 -0.362709 -3.41379 0
M  V30 4169 N 388.74 1.54641 0.303973 0
M  V30 4170 C 390.151 1.64811 0.877163 0
M  V30 4171 C 390.502 0.554838 1.88191 0
M  V30 4172 O 389.627 -0.309033 2.14182 0
M  V30 4173 C 390.222 2.9876 1.59775 0
M  V30 4174 C 388.781 3.11061 2.11938 0
M  V30 4175 C 387.928 2.60479 0.951097 0
M  V30 4176 H 390.879 1.58493 0.0810486 0
M  V30 4177 H 390.9 2.90017 2.46314 0
M  V30 4178 H 390.412 3.7831 0.866226 0
M  V30 4179 H 388.513 2.36225 2.88146 0
M  V30 4180 H 388.626 4.17171 2.35595 0
M  V30 4181 H 386.99 2.16859 1.33583 0
M  V30 4182 H 387.773 3.42504 0.233581 0
M  V30 4183 N 390.218 -0.567019 1.47046 0
M  V30 4184 C 391.446 -1.35027 1.56765 0
M  V30 4185 C 391.861 -1.8758 0.214316 0
M  V30 4186 O 391.218 -1.64471 -0.790919 0
M  V30 4187 C 391.269 -2.52698 2.58507 0
M  V30 4188 O 390.99 -2.0232 3.88585 0
M  V30 4189 C 392.491 -3.45043 2.78316 0
M  V30 4190 H 389.711 -0.41195 0.529658 0
M  V30 4191 H 392.255 -0.687832 1.92585 0
M  V30 4192 H 390.41 -3.149 2.25648 0
M  V30 4193 H 390.824 -2.79068 4.44096 0
M  V30 4194 H 392.298 -4.2405 3.53391 0
M  V30 4195 H 392.775 -3.97971 1.85784 0
M  V30 4196 H 393.381 -2.88665 3.12334 0
M  V30 4197 N 391.696 -1.35014 -0.812953 0
M  V30 4198 C 392.924 -1.31031 -1.6012 0
M  V30 4199 C 393.339 0.113558 -1.88458 0
M  V30 4200 O 392.696 1.06363 -1.48301 0
M  V30 4201 C 392.747 -2.10872 -2.93624 0
M  V30 4202 O 392.468 -3.47706 -2.66518 0
M  V30 4203 C 393.969 -2.14401 -3.88004 0
M  V30 4204 H 391.189 -0.45037 -0.497401 0
M  V30 4205 H 393.733 -1.77775 -1.01076 0
M  V30 4206 H 391.888 -1.67744 -3.492 0
M  V30 4207 H 392.302 -3.89097 -3.51715 0
M  V30 4208 H 393.776 -2.74669 -4.78812 0
M  V30 4209 H 394.253 -1.14105 -4.24119 0
M  V30 4210 H 394.859 -2.57662 -3.38364 0
M  V30 4211 N 393.175 1.03435 -1.18907 0
M  V30 4212 C 394.421 1.7713 -0.99982 0
M  V30 4213 C 394.776 1.86695 0.465049 0
M  V30 4214 O 394.069 1.36866 1.34083 0
M  V30 4215 C 394.263 3.19792 -1.59586 0
M  V30 4216 C 394.092 3.24134 -3.11717 0
M  V30 4217 C 392.862 3.32398 -3.80578 0
M  V30 4218 C 395.06 3.11625 -4.09138 0
M  V30 4219 N 393.042 3.26055 -5.20155 0
M  V30 4220 C 394.413 3.12855 -5.35277 0
M  V30 4221 C 396.468 2.95713 -4.00572 0
M  V30 4222 C 395.171 2.99805 -6.53842 0
M  V30 4223 C 397.197 2.84011 -5.1874 0
M  V30 4224 C 396.559 2.8589 -6.43775 0
M  V30 4225 H 392.658 0.659683 -0.419931 0
M  V30 4226 H 395.242 1.2317 -1.50789 0
M  V30 4227 H 393.413 3.72085 -1.11389 0
M  V30 4228 H 395.145 3.81819 -1.3415 0
M  V30 4229 H 391.9 3.38392 -3.31342 0
M  V30 4230 H 392.324 3.26307 -5.93172 0
M  V30 4231 H 396.966 2.93086 -3.0473 0
M  V30 4232 H 394.684 3.01184 -7.49876 0
M  V30 4233 H 398.27 2.72744 -5.13909 0
M  V30 4234 H 397.15 2.76931 -7.33675 0
M  V30 4235 N 394.653 0.992116 1.22453 0
M  V30 4236 C 395.601 0.534644 2.26372 0
M  V30 4237 C 396.595 -0.414293 1.64256 0
M  V30 4238 O 397.801 -0.286899 1.77699 0
M  V30 4239 H 394.176 0.154502 0.735957 0
M  V30 4240 H 396.147 1.42256 2.62309 0
M  V30 4241 C 394.896 -0.135815 3.47435 0
M  V30 4242 H 394.219 0.585311 3.95492 0
M  V30 4243 H 395.659 -0.419374 4.21921 0
M  V30 4244 C 394.118 -1.37089 3.07747 0
M  V30 4245 O 394.648 -2.46629 3.17076 0
M  V30 4246 N 392.854 -1.24585 2.62539 0
M  V30 4247 H 392.401 -0.354542 2.55149 0
M  V30 4248 H 392.359 -2.07327 2.36353 0
M  V30 4249 N 396.131 -1.37776 0.765217 0
M  V30 4250 C 397.061 -2.32945 0.160953 0
M  V30 4251 C 398.042 -1.55454 -0.690516 0
M  V30 4252 O 399.227 -1.83721 -0.629318 0
M  V30 4253 C 396.357 -3.39669 -0.724031 0
M  V30 4254 C 395.311 -4.27992 0.0256173 0
M  V30 4255 C 394.637 -5.25673 -0.978383 0
M  V30 4256 C 395.937 -5.08309 1.20082 0
M  V30 4257 H 397.631 -2.83728 0.955969 0
M  V30 4258 H 395.177 -1.36416 0.461149 0
M  V30 4259 H 397.13 -4.05219 -1.15652 0
M  V30 4260 H 395.854 -2.87396 -1.5515 0
M  V30 4261 H 394.513 -3.63964 0.438812 0
M  V30 4262 H 394.161 -4.69682 -1.80022 0
M  V30 4263 H 393.861 -5.85625 -0.481378 0
M  V30 4264 H 395.385 -5.94098 -1.40995 0
M  V30 4265 H 396.799 -5.67034 0.845307 0
M  V30 4266 H 395.196 -5.77554 1.62947 0
M  V30 4267 H 396.266 -4.41365 2.00811 0
M  V30 4268 N 397.609 -0.515225 -1.4894 0
M  V30 4269 C 398.572 0.244681 -2.2789 0
M  V30 4270 C 399.572 0.881166 -1.34507 0
M  V30 4271 O 400.762 0.743497 -1.57537 0
M  V30 4272 C 397.894 1.35247 -3.12923 0
M  V30 4273 H 399.087 -0.448289 -2.96531 0
M  V30 4274 H 396.64 -0.270656 -1.53939 0
M  V30 4275 H 397.375 2.07916 -2.48881 0
M  V30 4276 H 397.16 0.901374 -3.81599 0
M  V30 4277 H 398.65 1.88737 -3.72516 0
M  V30 4278 N 399.087 1.5561 -0.249682 0
M  V30 4279 C 400.05 2.20217 0.635394 0
M  V30 4280 C 401.05 1.17227 1.10066 0
M  V30 4281 O 402.24 1.42292 1.00492 0
M  V30 4282 C 399.372 2.84794 1.87363 0
M  V30 4283 H 400.565 2.99814 0.0716752 0
M  V30 4284 H 398.118 1.563 -0.000153234 0
M  V30 4285 H 398.853 2.09142 2.47851 0
M  V30 4286 H 398.638 3.60241 1.5482 0
M  V30 4287 H 400.128 3.3423 2.5036 0
M  V30 4288 N 400.565 -0.0233959 1.57583 0
M  V30 4289 C 401.976 -0.56927 1.77809 0
M  V30 4290 C 402.327 -1.75284 0.881472 0
M  V30 4291 O 401.452 -2.1626 0.0777805 0
M  V30 4292 C 402.047 -1.03949 3.22459 0
M  V30 4293 C 400.606 -1.53084 3.43864 0
M  V30 4294 C 399.753 -0.471454 2.73263 0
M  V30 4295 H 402.704 0.202825 1.57399 0
M  V30 4296 H 402.725 -1.90661 3.29285 0
M  V30 4297 H 402.237 -0.177865 3.87692 0
M  V30 4298 H 400.338 -2.41414 2.83814 0
M  V30 4299 H 400.451 -1.57443 4.52491 0
M  V30 4300 H 398.815 -0.927788 2.37201 0
M  V30 4301 H 399.598 0.380808 3.41181 0
M  V30 4302 N 402.043 -1.548 -0.295768 0
M  V30 4303 C 403.32 -1.65014 -1.05023 0
M  V30 4304 C 403.7 -0.501805 -2.05049 0
M  V30 4305 O 403.048 0.500869 -2.22943 0
M  V30 4306 C 403.258 -3.03252 -1.72741 0
M  V30 4307 C 404.606 -3.60242 -2.24746 0
M  V30 4308 O 405.63 -3.05737 -1.82765 0
M  V30 4309 O 404.489 -4.55687 -3.01681 0
M  V30 4310 H 401.583 -0.669314 -0.485744 0
M  V30 4311 H 404.129 -1.67144 -0.293438 0
M  V30 4312 H 402.901 -3.7827 -1.00138 0
M  V30 4313 H 402.524 -3.04922 -2.55163 0
M  V30 4314 N 403.521 0.559213 -1.47345 0
M  V30 4315 C 404.431 1.69388 -1.62311 0
M  V30 4316 C 405.447 1.6648 -0.505993 0
M  V30 4317 O 406.623 1.85964 -0.773262 0
M  V30 4318 C 403.688 3.05894 -1.63185 0
M  V30 4319 C 402.749 3.19885 -2.86307 0
M  V30 4320 C 401.982 4.49879 -2.87131 0
M  V30 4321 O 402.205 5.35217 -1.97229 0
M  V30 4322 O 401.139 4.67618 -3.78968 0
M  V30 4323 H 404.965 1.59706 -2.58317 0
M  V30 4324 H 402.55 0.728989 -1.30407 0
M  V30 4325 H 404.432 3.87133 -1.66451 0
M  V30 4326 H 403.107 3.15964 -0.70345 0
M  V30 4327 H 402.014 2.38052 -2.88587 0
M  V30 4328 H 403.347 3.14718 -3.78435 0
M  V30 4329 N 404.999 1.35443 0.805782 0
M  V30 4330 C 406.229 1.31687 1.59192 0
M  V30 4331 C 406.637 -0.10756 1.88894 0
M  V30 4332 O 405.98 -1.07017 1.49309 0
M  V30 4333 C 406.042 2.05686 2.94845 0
M  V30 4334 C 405.706 3.54868 2.87954 0
M  V30 4335 C 406.703 4.49444 2.61335 0
M  V30 4336 C 404.388 3.97528 3.07046 0
M  V30 4337 C 406.382 5.84655 2.53885 0
M  V30 4338 C 404.069 5.32833 2.99219 0
M  V30 4339 C 405.067 6.26209 2.72674 0
M  V30 4340 O 404.755 7.59032 2.64811 0
M  V30 4341 H 404.487 0.453878 0.50097 0
M  V30 4342 H 407.041 1.78892 1.0093 0
M  V30 4343 H 405.271 1.5312 3.55093 0
M  V30 4344 H 406.96 1.94998 3.55993 0
M  V30 4345 H 407.726 4.17804 2.46303 0
M  V30 4346 H 403.605 3.25233 3.26718 0
M  V30 4347 H 407.149 6.57508 2.33086 0
M  V30 4348 H 403.046 5.64087 3.13809 0
M  V30 4349 H 403.814 7.68967 2.80413 0
M  V30 4350 N 406.477 -1.02803 1.19454 0
M  V30 4351 C 407.725 -1.75869 0.995722 0
M  V30 4352 C 408.046 -1.89138 -0.474543 0
M  V30 4353 O 407.316 -1.42558 -1.34366 0
M  V30 4354 H 405.896 -0.651511 0.365435 0
M  V30 4355 H 408.558 -1.24004 1.50363 0
M  V30 4356 H 407.654 -2.76661 1.44447 0
M  V30 4357 N 407.956 -0.998596 -1.21925 0
M  V30 4358 C 409.203 -0.677663 -1.90824 0
M  V30 4359 C 409.531 0.790905 -1.77693 0
M  V30 4360 O 408.786 1.58817 -1.14349 0
M  V30 4361 C 409.085 -1.03648 -3.42041 0
M  V30 4362 C 408.751 -2.49825 -3.75364 0
M  V30 4363 C 407.413 -2.8977 -3.8417 0
M  V30 4364 C 409.765 -3.44545 -3.91073 0
M  V30 4365 C 407.093 -4.23412 -4.06127 0
M  V30 4366 C 409.445 -4.77853 -4.14535 0
M  V30 4367 C 408.109 -5.17531 -4.21566 0
M  V30 4368 H 407.379 -0.247975 -0.698276 0
M  V30 4369 H 410.026 -1.25584 -1.44571 0
M  V30 4370 H 408.331 -0.376457 -3.89987 0
M  V30 4371 H 410.028 -0.766113 -3.93614 0
M  V30 4372 H 406.618 -2.17866 -3.69097 0
M  V30 4373 H 410.802 -3.14853 -3.83642 0
M  V30 4374 H 406.058 -4.53734 -4.09799 0
M  V30 4375 H 410.232 -5.51189 -4.25633 0
M  V30 4376 H 407.859 -6.21102 -4.38333 0
M  V30 4377 N 409.434 1.37368 -0.772513 0
M  V30 4378 C 410.664 2.03647 -0.348082 0
M  V30 4379 C 411.072 1.58392 1.03482 0
M  V30 4380 O 410.415 0.760921 1.672 0
M  V30 4381 C 410.477 3.58131 -0.313404 0
M  V30 4382 C 410.141 4.2652 -1.64102 0
M  V30 4383 C 411.138 4.50587 -2.5936 0
M  V30 4384 C 408.823 4.64335 -1.91567 0
M  V30 4385 C 410.817 5.11526 -3.80289 0
M  V30 4386 C 408.504 5.24996 -3.12766 0
M  V30 4387 C 409.502 5.48529 -4.06946 0
M  V30 4388 O 409.19 6.07921 -5.26011 0
M  V30 4389 H 408.922 0.660538 -0.143753 0
M  V30 4390 H 411.476 1.76669 -1.04772 0
M  V30 4391 H 409.706 3.84159 0.442617 0
M  V30 4392 H 411.395 4.05813 0.0840613 0
M  V30 4393 H 412.161 4.21784 -2.39423 0
M  V30 4394 H 408.04 4.45353 -1.19088 0
M  V30 4395 H 411.584 5.29811 -4.53813 0
M  V30 4396 H 407.481 5.53223 -3.32588 0
M  V30 4397 H 408.249 6.26398 -5.26847 0
M  V30 4398 N 410.912 0.523116 1.48665 0
M  V30 4399 C 411.875 -0.232592 2.28017 0
M  V30 4400 C 412.875 -0.874021 1.34972 0
M  V30 4401 O 414.065 -0.735132 1.57929 0
M  V30 4402 C 411.197 -1.33586 3.13636 0
M  V30 4403 H 412.39 0.464008 2.96289 0
M  V30 4404 H 409.943 0.278816 1.53793 0
M  V30 4405 H 410.678 -2.06593 2.4998 0
M  V30 4406 H 410.463 -0.881125 3.82071 0
M  V30 4407 H 411.953 -1.86759 3.73511 0
M  V30 4408 N 412.39 -1.55475 0.257931 0
M  V30 4409 C 413.338 -2.23244 -0.653076 0
M  V30 4410 C 414.332 -1.22366 -1.17144 0
M  V30 4411 O 415.538 -1.40347 -1.12706 0
M  V30 4412 H 411.913 -0.716247 -0.229117 0
M  V30 4413 H 413.884 -2.98343 -0.0584788 0
M  V30 4414 C 412.633 -2.95401 -1.83395 0
M  V30 4415 H 411.956 -3.72802 -1.44424 0
M  V30 4416 H 413.396 -3.46165 -2.44838 0
M  V30 4417 C 411.855 -1.99895 -2.71189 0
M  V30 4418 O 412.385 -1.53909 -3.71046 0
M  V30 4419 N 410.591 -1.6676 -2.3799 0
M  V30 4420 H 410.138 -2.04352 -1.56837 0
M  V30 4421 H 410.096 -1.03127 -2.97005 0
M  V30 4422 N 413.868 0.0150385 -1.57593 0
M  V30 4423 C 415.114 0.704043 -1.90187 0
M  V30 4424 C 415.447 1.74249 -0.857366 0
M  V30 4425 O 414.722 1.94092 0.125843 0
M  V30 4426 C 415.005 1.36087 -3.33395 0
M  V30 4427 C 414.858 0.334981 -4.48551 0
M  V30 4428 C 416.177 2.29112 -3.7576 0
M  V30 4429 H 413.296 0.254475 -0.691673 0
M  V30 4430 H 415.938 -0.0331678 -1.89971 0
M  V30 4431 H 414.088 1.98922 -3.3371 0
M  V30 4432 H 415.76 -0.292534 -4.60372 0
M  V30 4433 H 414.003 -0.344325 -4.32431 0
M  V30 4434 H 414.674 0.833316 -5.45674 0
M  V30 4435 H 417.15 1.76308 -3.76902 0
M  V30 4436 H 416.026 2.72043 -4.76743 0
M  V30 4437 H 416.287 3.16385 -3.08793 0
M  V30 4438 N 415.346 1.54954 0.287554 0
M  V30 4439 C 416.294 1.87606 1.37502 0
M  V30 4440 C 417.288 0.751001 1.51843 0
M  V30 4441 O 418.494 0.935169 1.53801 0
M  V30 4442 H 414.869 0.595231 0.459569 0
M  V30 4443 H 416.84 2.78477 1.07206 0
M  V30 4444 C 415.589 2.15183 2.73115 0
M  V30 4445 H 414.912 3.01234 2.62866 0
M  V30 4446 H 416.352 2.4196 3.48183 0
M  V30 4447 C 414.811 0.954686 3.2309 0
M  V30 4448 O 415.341 0.181949 4.01288 0
M  V30 4449 N 413.547 0.756368 2.80584 0
M  V30 4450 H 413.094 1.38643 2.17108 0
M  V30 4451 H 413.052 -0.0430391 3.14371 0
M  V30 4452 N 416.824 -0.551391 1.4764 0
M  V30 4453 C 418.235 -1.13349 1.48354 0
M  V30 4454 C 418.586 -1.94709 0.241432 0
M  V30 4455 O 417.711 -2.06306 -0.653205 0
M  V30 4456 C 418.306 -2.0623 2.68802 0
M  V30 4457 C 416.865 -2.597 2.72457 0
M  V30 4458 C 416.012 -1.36201 2.41546 0
M  V30 4459 H 418.963 -0.337698 1.55065 0
M  V30 4460 H 418.984 -2.90196 2.46103 0
M  V30 4461 H 418.496 -1.46987 3.59188 0
M  V30 4462 H 416.597 -3.22724 1.86225 0
M  V30 4463 H 416.71 -3.00296 3.73308 0
M  V30 4464 H 415.074 -1.67068 1.9225 0
M  V30 4465 H 415.857 -0.787425 3.34147 0
M  V30 4466 N 418.302 -1.35869 -0.798587 0
M  V30 4467 C 419.252 -1.25982 -1.90033 0
M  V30 4468 C 420.236 -0.153303 -1.60168 0
M  V30 4469 O 421.428 -0.38527 -1.72756 0
M  V30 4470 C 418.557 -1.04211 -3.27101 0
M  V30 4471 C 417.643 -2.19289 -3.63006 0
M  V30 4472 N 418.034 -3.44559 -3.70287 0
M  V30 4473 C 416.332 -2.10852 -3.93011 0
M  V30 4474 C 417.033 -4.20283 -4.02166 0
M  V30 4475 N 416.009 -3.49124 -4.16669 0
M  V30 4476 H 419.811 -2.20883 -1.93876 0
M  V30 4477 H 417.325 -1.28457 -0.993614 0
M  V30 4478 H 419.322 -0.952155 -4.05881 0
M  V30 4479 H 417.982 -0.102013 -3.2454 0
M  V30 4480 H 418.993 -3.7881 -3.53162 0
M  V30 4481 H 415.67 -1.24744 -3.98428 0
M  V30 4482 H 417.06 -5.28575 -4.14799 0
M  V30 4483 N 419.78 1.02168 -1.19998 0
M  V30 4484 C 421.026 1.75945 -1.00852 0
M  V30 4485 C 421.359 1.88702 0.458828 0
M  V30 4486 O 420.634 1.40911 1.34069 0
M  V30 4487 C 420.917 3.18154 -1.68671 0
M  V30 4488 C 420.77 3.13224 -3.22817 0
M  V30 4489 C 422.089 4.16711 -1.41561 0
M  V30 4490 H 419.208 0.638673 -0.367785 0
M  V30 4491 H 421.85 1.19222 -1.4794 0
M  V30 4492 H 420 3.66586 -1.28636 0
M  V30 4493 H 421.672 2.72635 -3.72112 0
M  V30 4494 H 419.915 2.50751 -3.53986 0
M  V30 4495 H 420.586 4.13728 -3.65422 0
M  V30 4496 H 423.062 3.76913 -1.76284 0
M  V30 4497 H 421.938 5.14391 -1.91553 0
M  V30 4498 H 422.199 4.40774 -0.342193 0
M  V30 4499 N 421.258 1.00505 1.21394 0
M  V30 4500 C 422.535 0.603277 1.86064 0
M  V30 4501 C 422.915 -0.919095 1.90042 0
M  V30 4502 O 422.263 -1.80607 1.39977 0
M  V30 4503 C 422.473 1.23772 3.26315 0
M  V30 4504 C 423.821 1.34586 4.02705 0
M  V30 4505 O 424.845 1.19304 3.35626 0
M  V30 4506 O 423.704 1.59169 5.22807 0
M  V30 4507 H 420.798 0.206634 0.800769 0
M  V30 4508 H 423.344 1.1017 1.29076 0
M  V30 4509 H 422.116 2.27848 3.18121 0
M  V30 4510 H 421.739 0.725648 3.90922 0
M  V30 4511 N 422.737 -1.36956 0.779787 0
M  V30 4512 C 423.687 -2.27539 0.144892 0
M  V30 4513 C 424.671 -1.46493 -0.665488 0
M  V30 4514 O 425.863 -1.68968 -0.527141 0
M  V30 4515 C 422.992 -3.35512 -0.727082 0
M  V30 4516 C 422.078 -4.24001 0.0915642 0
M  V30 4517 N 422.469 -4.92757 1.14125 0
M  V30 4518 C 420.767 -4.45807 -0.131141 0
M  V30 4519 C 421.468 -5.58138 1.6388 0
M  V30 4520 N 420.444 -5.35241 0.94962 0
M  V30 4521 H 424.246 -2.78176 0.948446 0
M  V30 4522 H 421.76 -1.50169 0.618315 0
M  V30 4523 H 423.757 -3.99324 -1.19776 0
M  V30 4524 H 422.417 -2.86431 -1.52929 0
M  V30 4525 H 423.428 -4.94984 1.52353 0
M  V30 4526 H 420.105 -4.07582 -0.904621 0
M  V30 4527 H 421.495 -6.23071 2.51461 0
M  V30 4528 N 424.215 -0.530993 -1.48385 0
M  V30 4529 C 425.626 -0.0907905 -1.86479 0
M  V30 4530 C 425.977 1.33213 -1.44044 0
M  V30 4531 O 425.102 1.99783 -0.831615 0
M  V30 4532 C 425.697 -0.157987 -3.38431 0
M  V30 4533 C 424.256 0.227026 -3.75715 0
M  V30 4534 C 423.403 -0.5173 -2.72432 0
M  V30 4535 H 426.354 -0.742186 -1.40276 0
M  V30 4536 H 426.375 0.630053 -3.75247 0
M  V30 4537 H 425.887 -1.19372 -3.69286 0
M  V30 4538 H 423.988 1.26486 -3.50474 0
M  V30 4539 H 424.101 -0.113288 -4.78966 0
M  V30 4540 H 422.465 0.0365527 -2.54674 0
M  V30 4541 H 423.248 -1.55368 -3.0613 0
M  V30 4542 N 425.693 1.55336 -0.266172 0
M  V30 4543 C 427.109 1.59356 0.0882065 0
M  V30 4544 C 427.309 1.2834 1.55342 0
M  V30 4545 O 426.365 1.03996 2.30089 0
M  V30 4546 C 427.678 2.99409 -0.278364 0
M  V30 4547 C 429.226 3.12196 -0.224243 0
M  V30 4548 C 429.701 4.545 -0.565123 0
M  V30 4549 N 431.192 4.60313 -0.51634 0
M  V30 4550 C 431.927 5.68434 -0.753013 0
M  V30 4551 N 431.423 6.84738 -1.05383 0
M  V30 4552 N 433.216 5.57942 -0.682414 0
M  V30 4553 H 425.367 1.73764 -1.22147 0
M  V30 4554 H 427.63 0.809822 -0.492841 0
M  V30 4555 H 427.336 3.2691 -1.29703 0
M  V30 4556 H 427.21 3.75228 0.385186 0
M  V30 4557 H 429.597 2.84464 0.78512 0
M  V30 4558 H 429.678 2.38609 -0.921922 0
M  V30 4559 H 429.322 4.82956 -1.57213 0
M  V30 4560 H 429.252 5.26374 0.154248 0
M  V30 4561 H 431.743 3.7676 -0.29335 0
M  V30 4562 H 432.056 7.63088 -1.22133 0
M  V30 4563 H 430.401 6.86375 -1.09151 0
M  V30 4564 H 433.592 4.65958 -0.44731 0
M  V30 4565 H 433.765 6.4213 -0.870248 0
M  V30 4566 N 427.171 -0.0066808 1.57599 0
M  V30 4567 C 428.417 -0.68835 1.91398 0
M  V30 4568 C 428.772 -1.7175 0.86716 0
M  V30 4569 O 428.065 -1.91215 -0.121475 0
M  V30 4570 C 428.259 -1.37939 3.29708 0
M  V30 4571 C 428.088 -0.418689 4.47747 0
M  V30 4572 C 426.858 -0.031526 5.0529 0
M  V30 4573 C 429.056 0.312301 5.13351 0
M  V30 4574 N 427.038 0.928088 6.06844 0
M  V30 4575 C 428.409 1.12682 6.09674 0
M  V30 4576 C 430.464 0.376853 4.96472 0
M  V30 4577 C 429.167 2 6.90936 0
M  V30 4578 C 431.193 1.23723 5.78314 0
M  V30 4579 C 430.555 2.03962 6.74225 0
M  V30 4580 H 426.654 -0.225292 0.748844 0
M  V30 4581 H 429.238 0.0520973 1.9463 0
M  V30 4582 H 427.409 -2.09017 3.27363 0
M  V30 4583 H 429.141 -2.01522 3.50957 0
M  V30 4584 H 425.896 -0.398485 4.71921 0
M  V30 4585 H 426.32 1.40307 6.62301 0
M  V30 4586 H 430.962 -0.22921 4.22178 0
M  V30 4587 H 428.68 2.61676 7.64559 0
M  V30 4588 H 432.266 1.291 5.67296 0
M  V30 4589 H 431.146 2.69461 7.36451 0
M  V30 4590 N 428.649 -1.55105 -0.279332 0
M  V30 4591 C 429.874 -1.7976 -1.03446 0
M  V30 4592 C 430.299 -0.565952 -1.79384 0
M  V30 4593 O 429.657 0.484259 -1.74713 0
M  V30 4594 C 429.705 -3.0179 -1.97371 0
M  V30 4595 O 428.809 -2.76432 -3.06038 0
M  V30 4596 H 428.15 -0.594334 -0.29608 0
M  V30 4597 H 430.68 -2.02235 -0.310165 0
M  V30 4598 H 430.69 -3.30351 -2.39441 0
M  V30 4599 H 429.365 -3.91085 -1.4151 0
M  V30 4600 H 427.942 -2.58949 -2.68328 0
M  V30 4601 N 430.127 0.543554 -1.4793 0
M  V30 4602 C 431.059 1.665 -1.57513 0
M  V30 4603 C 432.072 1.56156 -0.460333 0
M  V30 4604 O 433.261 1.62865 -0.730573 0
M  V30 4605 C 430.361 3.05063 -1.47614 0
M  V30 4606 C 429.534 3.41024 -2.739 0
M  V30 4607 C 428.593 4.58809 -2.57645 0
M  V30 4608 O 427.619 4.62707 -3.31498 0
M  V30 4609 N 428.821 5.56149 -1.66368 0
M  V30 4610 H 431.586 1.5872 -2.5422 0
M  V30 4611 H 429.147 0.730517 -1.44482 0
M  V30 4612 H 431.139 3.81712 -1.34455 0
M  V30 4613 H 429.709 3.06994 -0.589359 0
M  V30 4614 H 428.929 2.53687 -3.01723 0
M  V30 4615 H 430.217 3.61831 -3.57709 0
M  V30 4616 H 429.615 5.55767 -1.05543 0
M  V30 4617 H 428.172 6.32071 -1.59154 0
M  V30 4618 N 431.605 1.3629 0.791371 0
M  V30 4619 C 432.568 1.30309 1.88553 0
M  V30 4620 C 433.568 0.211204 1.59407 0
M  V30 4621 O 434.758 0.465865 1.67855 0
M  V30 4622 C 431.89 1.01956 3.25297 0
M  V30 4623 H 433.083 2.27614 1.95273 0
M  V30 4624 H 430.636 1.21035 0.988953 0
M  V30 4625 H 431.371 0.050998 3.2426 0
M  V30 4626 H 431.156 1.80968 3.4784 0
M  V30 4627 H 432.646 1.0037 4.05359 0
M  V30 4628 N 433.083 -1.0153 1.20538 0
M  V30 4629 C 434.311 -1.78746 1.04199 0
M  V30 4630 C 434.726 -1.84323 -0.408733 0
M  V30 4631 O 434.083 -1.29714 -1.28377 0
M  V30 4632 C 434.134 -3.23152 1.62035 0
M  V30 4633 O 433.855 -3.17918 3.0143 0
M  V30 4634 C 435.356 -4.16911 1.50666 0
M  V30 4635 H 432.576 -0.56208 0.366479 0
M  V30 4636 H 435.12 -1.27794 1.59653 0
M  V30 4637 H 433.275 -3.71248 1.10697 0
M  V30 4638 H 433.689 -4.08567 3.28897 0
M  V30 4639 H 435.163 -5.16072 1.95892 0
M  V30 4640 H 435.64 -4.36791 0.459363 0
M  V30 4641 H 436.246 -3.74698 2.01201 0
M  V30 4642 N 434.561 -1.01147 -1.20859 0
M  V30 4643 C 435.471 -0.58686 -2.27141 0
M  V30 4644 C 436.487 0.373198 -1.69951 0
M  V30 4645 O 437.663 0.235423 -2.00019 0
M  V30 4646 C 434.728 0.0733602 -3.46622 0
M  V30 4647 C 433.789 -0.931995 -4.19061 0
M  V30 4648 C 433.022 -0.303186 -5.32838 0
M  V30 4649 O 433.245 0.898395 -5.63281 0
M  V30 4650 O 432.179 -1.01735 -5.9324 0
M  V30 4651 H 436.005 -1.47155 -2.65667 0
M  V30 4652 H 433.59 -0.780689 -1.2738 0
M  V30 4653 H 435.472 0.442333 -4.19072 0
M  V30 4654 H 434.147 0.932329 -3.09983 0
M  V30 4655 H 433.054 -1.35224 -3.48805 0
M  V30 4656 H 434.387 -1.76076 -4.59628 0
M  V30 4657 N 436.039 1.36541 -0.78704 0
M  V30 4658 C 437.455 1.52571 -0.46844 0
M  V30 4659 C 437.655 1.7415 1.01361 0
M  V30 4660 O 436.711 1.77163 1.79915 0
M  V30 4661 C 438.024 2.71299 -1.29682 0
M  V30 4662 C 439.572 2.85169 -1.29027 0
M  V30 4663 C 440.047 4.06898 -2.10233 0
M  V30 4664 N 441.538 4.1404 -2.07666 0
M  V30 4665 C 442.273 5.07301 -2.67271 0
M  V30 4666 N 441.769 6.06021 -3.35724 0
M  V30 4667 N 443.562 4.99898 -2.57018 0
M  V30 4668 H 435.713 1.20788 -1.74711 0
M  V30 4669 H 437.976 0.589364 -0.742532 0
M  V30 4670 H 437.682 2.61868 -2.34773 0
M  V30 4671 H 437.556 3.6539 -0.936479 0
M  V30 4672 H 439.943 2.94062 -0.247284 0
M  V30 4673 H 440.024 1.91992 -1.69035 0
M  V30 4674 H 439.668 3.98766 -3.1456 0
M  V30 4675 H 439.598 4.99218 -1.67597 0
M  V30 4676 H 442.089 3.43357 -1.57843 0
M  V30 4677 H 442.402 6.73741 -3.78541 0
M  V30 4678 H 440.747 6.06253 -3.39826 0
M  V30 4679 H 443.938 4.21724 -2.03142 0
M  V30 4680 H 444.111 5.72392 -3.03761 0
M  V30 4681 N 437.518 0.538854 1.48102 0
M  V30 4682 C 438.765 0.0080018 2.02498 0
M  V30 4683 C 439.093 -1.33437 1.41509 0
M  V30 4684 O 438.348 -1.87709 0.553507 0
M  V30 4685 C 438.647 -0.153808 3.57069 0
M  V30 4686 C 438.313 1.11533 4.36888 0
M  V30 4687 C 436.975 1.46314 4.58417 0
M  V30 4688 C 439.327 1.95718 4.83057 0
M  V30 4689 C 436.655 2.6516 5.23361 0
M  V30 4690 C 439.007 3.13751 5.49312 0
M  V30 4691 C 437.671 3.48866 5.69077 0
M  V30 4692 H 436.941 0.00292807 0.740994 0
M  V30 4693 H 439.588 0.706668 1.77984 0
M  V30 4694 H 437.893 -0.935309 3.80472 0
M  V30 4695 H 439.59 -0.579607 3.96789 0
M  V30 4696 H 436.18 0.834484 4.20398 0
M  V30 4697 H 440.364 1.70158 4.66219 0
M  V30 4698 H 435.62 2.92558 5.36861 0
M  V30 4699 H 439.794 3.79282 5.84053 0
M  V30 4700 H 437.421 4.41054 6.19173 0
M  V30 4701 N 438.996 -1.55193 0.274407 0
M  V30 4702 C 440.245 -1.98758 -0.343213 0
M  V30 4703 C 440.558 -1.16624 -1.5703 0
M  V30 4704 O 441.764 -1.5033 -2.26082 0
M  V30 4705 C 440.22 -3.53759 -0.661996 0
M  V30 4706 C 439.828 -4.4467 0.54524 0
M  V30 4707 C 441.572 -4.05916 -1.24228 0
M  V30 4708 C 439.479 -5.91058 0.201084 0
M  V30 4709 H 438.409 -0.742353 -0.132014 0
M  V30 4710 H 441.06 -1.79545 0.378948 0
M  V30 4711 H 439.442 -3.68772 -1.44304 0
M  V30 4712 H 440.616 -4.41426 1.32212 0
M  V30 4713 H 438.931 -4.03143 1.04232 0
M  V30 4714 H 441.528 -5.12831 -1.51357 0
M  V30 4715 H 441.871 -3.54908 -2.17592 0
M  V30 4716 H 442.404 -3.9434 -0.523542 0
M  V30 4717 H 439.143 -6.46161 1.10258 0
M  V30 4718 H 438.663 -5.97373 -0.539045 0
M  V30 4719 H 440.342 -6.46669 -0.206954 0
M  V30 4720 N 440.474 -0.00167713 -1.576 0
M  V30 4721 C 441.722 0.681471 -1.90264 0
M  V30 4722 C 442.043 1.7422 -0.875924 0
M  V30 4723 O 441.313 1.95709 0.0864412 0
M  V30 4724 H 439.893 0.254696 -0.702239 0
M  V30 4725 H 442.555 -0.0429996 -1.94853 0
M  V30 4726 H 441.651 1.15166 -2.90075 0
M  V30 4727 N 441.952 1.55251 0.271103 0
M  V30 4728 C 443.177 1.80306 1.02491 0
M  V30 4729 C 443.602 0.575457 1.79081 0
M  V30 4730 O 442.96 -0.474987 1.74967 0
M  V30 4731 C 443.008 3.02832 1.95768 0
M  V30 4732 O 442.112 2.78051 3.04568 0
M  V30 4733 H 441.453 0.595896 0.292923 0
M  V30 4734 H 443.983 2.02397 0.299436 0
M  V30 4735 H 443.993 3.31616 2.37686 0
M  V30 4736 H 442.668 3.9183 1.39434 0
M  V30 4737 H 441.245 2.60369 2.66951 0
M  V30 4738 N 443.43 -0.535701 1.48216 0
M  V30 4739 C 444.678 -1.28928 1.55634 0
M  V30 4740 C 444.999 -1.93645 0.229514 0
M  V30 4741 O 444.269 -1.81038 -0.74846 0
M  V30 4742 H 442.849 -0.47884 0.573342 0
M  V30 4743 H 445.511 -0.623853 1.84646 0
M  V30 4744 H 444.607 -2.07157 2.33436 0
M  V30 4745 N 444.908 -1.36708 -0.784132 0
M  V30 4746 C 446.156 -1.30972 -1.53918 0
M  V30 4747 C 446.477 0.109086 -1.94695 0
M  V30 4748 O 445.747 1.05048 -1.65353 0
M  V30 4749 H 444.327 -0.481819 -0.570841 0
M  V30 4750 H 446.989 -1.71063 -0.934002 0
M  V30 4751 H 446.085 -1.94061 -2.44431 0
M  V30 4752 N 446.386 1.0089 -1.21074 0
M  V30 4753 C 447.635 1.74019 -1.01981 0
M  V30 4754 C 447.948 1.90408 0.447665 0
M  V30 4755 O 449.154 2.60707 0.757906 0
M  V30 4756 C 447.61 3.13026 -1.77603 0
M  V30 4757 C 447.218 3.04623 -3.28495 0
M  V30 4758 C 448.962 3.90312 -1.66904 0
M  V30 4759 C 446.869 4.38685 -3.96623 0
M  V30 4760 H 445.799 0.652422 -0.377971 0
M  V30 4761 H 448.45 1.12755 -1.44771 0
M  V30 4762 H 446.832 3.74878 -1.27604 0
M  V30 4763 H 448.006 2.52032 -3.85767 0
M  V30 4764 H 446.321 2.40827 -3.39693 0
M  V30 4765 H 448.918 4.8951 -2.15138 0
M  V30 4766 H 449.261 4.11558 -0.62658 0
M  V30 4767 H 449.794 3.35104 -2.14359 0
M  V30 4768 H 446.533 4.22641 -5.01054 0
M  V30 4769 H 446.053 4.91252 -3.4414 0
M  V30 4770 H 447.732 5.075 -4.01314 0
M  V30 4771 N 447.864 1.01787 1.20321 0
M  V30 4772 C 448.794 0.609625 2.25401 0
M  V30 4773 C 449.775 -0.375951 1.65893 0
M  V30 4774 O 450.96 -0.261101 1.92437 0
M  V30 4775 C 448.09 -0.0515995 3.47262 0
M  V30 4776 C 447.044 0.855095 4.19371 0
M  V30 4777 C 446.37 0.0595757 5.34667 0
M  V30 4778 C 447.67 2.16374 4.75373 0
M  V30 4779 H 449.364 1.48803 2.59804 0
M  V30 4780 H 446.91 0.716934 1.24884 0
M  V30 4781 H 448.863 -0.348764 4.19954 0
M  V30 4782 H 447.587 -0.964726 3.12027 0
M  V30 4783 H 446.246 1.13628 3.48546 0
M  V30 4784 H 445.894 -0.85524 4.95676 0
M  V30 4785 H 445.594 0.663406 5.83843 0
M  V30 4786 H 447.118 -0.231105 6.10162 0
M  V30 4787 H 448.532 1.92885 5.39878 0
M  V30 4788 H 446.929 2.71853 5.34991 0
M  V30 4789 H 447.999 2.82589 3.94045 0
M  V30 4790 N 449.342 -1.36122 0.79427 0
M  V30 4791 C 450.619 -1.93398 0.292685 0
M  V30 4792 C 450.999 -1.72567 -1.21589 0
M  V30 4793 O 450.347 -1.08745 -2.00965 0
M  V30 4794 C 450.557 -3.42099 0.690614 0
M  V30 4795 C 451.905 -4.19231 0.673105 0
M  V30 4796 O 452.929 -3.50559 0.631389 0
M  V30 4797 O 451.788 -5.41732 0.720362 0
M  V30 4798 H 448.882 -0.823712 0.0736693 0
M  V30 4799 H 451.428 -1.45273 0.87714 0
M  V30 4800 H 450.2 -3.50938 1.73085 0
M  V30 4801 H 449.823 -3.97519 0.0803036 0
M  V30 4802 N 450.82 -0.546701 -1.47814 0
M  V30 4803 C 452.066 -0.0187684 -2.02791 0
M  V30 4804 C 452.399 1.32338 -1.42128 0
M  V30 4805 O 451.674 1.85867 -0.573023 0
M  V30 4806 C 451.957 0.0854985 -3.59998 0
M  V30 4807 C 451.81 -1.283 -4.31114 0
M  V30 4808 C 453.129 0.80412 -4.32691 0
M  V30 4809 H 450.248 -0.0082946 -0.736953 0
M  V30 4810 H 452.89 -0.706962 -1.76358 0
M  V30 4811 H 451.04 0.671609 -3.82651 0
M  V30 4812 H 452.712 -1.91151 -4.19832 0
M  V30 4813 H 450.955 -1.86049 -3.91878 0
M  V30 4814 H 451.626 -1.16287 -5.39612 0
M  V30 4815 H 454.102 0.306576 -4.14969 0
M  V30 4816 H 452.978 0.846011 -5.42341 0
M  V30 4817 H 453.239 1.85802 -4.01161 0
M  V30 4818 N 452.299 1.55045 -0.282633 0
M  V30 4819 C 453.231 2.2023 0.634924 0
M  V30 4820 C 454.244 1.18931 1.11172 0
M  V30 4821 O 455.433 1.4562 1.03233 0
M  V30 4822 C 452.533 2.82041 1.87899 0
M  V30 4823 C 451.706 4.091 1.54776 0
M  V30 4824 C 450.765 4.54887 2.64507 0
M  V30 4825 O 449.791 5.20496 2.30375 0
M  V30 4826 N 450.993 4.25659 3.94709 0
M  V30 4827 H 453.758 2.99601 0.0769811 0
M  V30 4828 H 451.319 1.61565 -0.104048 0
M  V30 4829 H 453.311 3.09613 2.60619 0
M  V30 4830 H 451.881 2.06618 2.3458 0
M  V30 4831 H 451.101 3.88736 0.654049 0
M  V30 4832 H 452.389 4.9187 1.30158 0
M  V30 4833 H 451.787 3.7306 4.25256 0
M  V30 4834 H 450.344 4.57984 4.63782 0
M  V30 4835 N 453.777 0.010035 1.57597 0
M  V30 4836 C 455.193 -0.346164 1.55801 0
M  V30 4837 C 455.393 -1.74144 1.01371 0
M  V30 4838 O 454.449 -2.43938 0.651968 0
M  V30 4839 C 455.762 -0.212216 2.9995 0
M  V30 4840 C 457.31 -0.286409 3.11687 0
M  V30 4841 C 457.785 -0.18147 4.5764 0
M  V30 4842 N 459.276 -0.239056 4.62583 0
M  V30 4843 C 460.011 -0.181351 5.73113 0
M  V30 4844 N 459.507 -0.073661 6.92761 0
M  V30 4845 N 461.3 -0.233949 5.61613 0
M  V30 4846 H 453.451 0.922657 1.91313 0
M  V30 4847 H 455.714 0.354595 0.879185 0
M  V30 4848 H 455.42 0.748169 3.4365 0
M  V30 4849 H 455.294 -0.990224 3.6397 0
M  V30 4850 H 457.681 -1.23724 2.67911 0
M  V30 4851 H 457.762 0.521645 2.50425 0
M  V30 4852 H 457.406 0.765863 5.02093 0
M  V30 4853 H 457.336 -1.00814 5.1686 0
M  V30 4854 H 459.827 -0.32321 3.76515 0
M  V30 4855 H 460.14 -0.0358003 7.72792 0
M  V30 4856 H 458.485 -0.0391461 6.94989 0
M  V30 4857 H 461.676 -0.316347 4.6703 0
M  V30 4858 H 461.849 -0.185514 6.47734 0
M  V30 4859 N 455.255 -1.55392 -0.262866 0
M  V30 4860 C 456.187 -1.85392 -1.34768 0
M  V30 4861 C 457.2 -0.739069 -1.45057 0
M  V30 4862 O 458.389 -1.01703 -1.46693 0
M  V30 4863 C 455.489 -2.01088 -2.72795 0
M  V30 4864 C 454.662 -3.31828 -2.84972 0
M  V30 4865 C 453.721 -3.37464 -4.03738 0
M  V30 4866 O 452.747 -4.10778 -3.94018 0
M  V30 4867 N 453.949 -2.65599 -5.16176 0
M  V30 4868 H 456.714 -2.79029 -1.09375 0
M  V30 4869 H 454.275 -1.55434 -0.452981 0
M  V30 4870 H 456.267 -2.02217 -3.50557 0
M  V30 4871 H 454.837 -1.1427 -2.90966 0
M  V30 4872 H 454.057 -3.43152 -1.94012 0
M  V30 4873 H 455.345 -4.18032 -2.90045 0
M  V30 4874 H 454.743 -2.05736 -5.26962 0
M  V30 4875 H 453.3 -2.72439 -5.92132 0
M  V30 4876 N 456.733 0.527833 -1.48498 0
M  V30 4877 C 458.144 1.10975 -1.50138 0
M  V30 4878 C 458.495 1.943 -0.272378 0
M  V30 4879 O 457.62 2.07319 0.620301 0
M  V30 4880 C 458.215 2.01927 -2.72049 0
M  V30 4881 C 456.774 2.55332 -2.76554 0
M  V30 4882 C 455.921 1.32341 -2.43683 0
M  V30 4883 H 458.872 0.312986 -1.55583 0
M  V30 4884 H 458.893 2.86244 -2.50689 0
M  V30 4885 H 458.405 1.41254 -3.61481 0
M  V30 4886 H 456.506 3.19721 -1.91336 0
M  V30 4887 H 456.619 2.94319 -3.78038 0
M  V30 4888 H 454.983 1.63989 -1.94884 0
M  V30 4889 H 455.766 0.734165 -3.35358 0
M  V30 4890 N 458.211 1.37122 0.776871 0
M  V30 4891 C 459.439 1.3523 1.5659 0
M  V30 4892 C 459.854 -0.0635518 1.88693 0
M  V30 4893 O 459.211 -1.02394 1.51069 0
M  V30 4894 C 459.262 2.18583 2.8793 0
M  V30 4895 O 458.983 3.5465 2.57206 0
M  V30 4896 C 460.484 2.24612 3.82183 0
M  V30 4897 H 457.704 0.4634 0.485285 0
M  V30 4898 H 460.248 1.80392 0.963266 0
M  V30 4899 H 458.403 1.76943 3.4463 0
M  V30 4900 H 458.817 3.98286 3.41275 0
M  V30 4901 H 460.291 2.87267 4.71361 0
M  V30 4902 H 460.768 1.25309 4.20944 0
M  V30 4903 H 461.374 2.66543 3.31414 0
M  V30 4904 N 459.689 -1.00246 1.21608 0
M  V30 4905 C 460.619 -2.10921 1.00172 0
M  V30 4906 C 461.6 -1.69938 -0.0741587 0
M  V30 4907 O 462.785 -1.94009 0.0861753 0
M  V30 4908 C 459.915 -3.42618 0.568355 0
M  V30 4909 C 458.869 -3.97407 1.58909 0
M  V30 4910 C 458.195 -5.25038 1.01187 0
M  V30 4911 C 459.495 -4.2918 2.97661 0
M  V30 4912 H 461.189 -2.29112 1.92739 0
M  V30 4913 H 458.735 -1.10101 0.928102 0
M  V30 4914 H 460.688 -4.19444 0.405555 0
M  V30 4915 H 459.412 -3.24227 -0.392961 0
M  V30 4916 H 458.071 -3.22703 1.73949 0
M  V30 4917 H 457.719 -5.02982 0.0421965 0
M  V30 4918 H 457.419 -5.62661 1.6937 0
M  V30 4919 H 458.943 -6.04507 0.860448 0
M  V30 4920 H 460.357 -4.96839 2.86049 0
M  V30 4921 H 458.754 -4.77952 3.6288 0
M  V30 4922 H 459.824 -3.3735 3.48315 0
M  V30 4923 N 461.167 -1.02423 -1.1978 0
M  V30 4924 C 462.097 -0.62157 -2.25075 0
M  V30 4925 C 463.078 0.367148 -1.6609 0
M  V30 4926 O 464.263 0.250892 -1.92573 0
M  V30 4927 C 461.393 0.0331826 -3.47284 0
M  V30 4928 C 460.347 -0.877323 -4.18912 0
M  V30 4929 C 459.673 -0.0879296 -5.34628 0
M  V30 4930 C 460.973 -2.18892 -4.74219 0
M  V30 4931 H 462.667 -1.50179 -2.59011 0
M  V30 4932 H 460.213 -0.723547 -1.24502 0
M  V30 4933 H 462.166 0.326488 -4.20133 0
M  V30 4934 H 460.89 0.948164 -3.12534 0
M  V30 4935 H 459.549 -1.15475 -3.47938 0
M  V30 4936 H 459.197 0.828941 -4.96123 0
M  V30 4937 H 458.897 -0.694359 -5.83483 0
M  V30 4938 H 460.421 0.198743 -6.10276 0
M  V30 4939 H 461.835 -1.95746 -5.38847 0
M  V30 4940 H 460.232 -2.74686 -5.33542 0
M  V30 4941 H 461.302 -2.84674 -3.92541 0
M  V30 4942 N 462.645 1.35699 -0.801477 0
M  V30 4943 C 463.892 1.98913 -0.379459 0
M  V30 4944 C 464.22 1.63592 1.05204 0
M  V30 4945 O 463.475 0.888563 1.74365 0
M  V30 4946 C 463.774 3.53828 -0.504041 0
M  V30 4947 C 463.44 4.09002 -1.8981 0
M  V30 4948 C 462.102 4.23783 -2.27951 0
M  V30 4949 C 464.454 4.38939 -2.81038 0
M  V30 4950 C 461.782 4.65816 -3.56696 0
M  V30 4951 C 464.134 4.82409 -4.09224 0
M  V30 4952 C 462.798 4.95395 -4.4737 0
M  V30 4953 H 462.068 0.727874 -0.138854 0
M  V30 4954 H 464.715 1.61994 -1.02128 0
M  V30 4955 H 463.02 3.91175 0.221242 0
M  V30 4956 H 464.717 4.00687 -0.158361 0
M  V30 4957 H 461.307 3.97946 -1.59176 0
M  V30 4958 H 465.491 4.27077 -2.52821 0
M  V30 4959 H 460.747 4.74059 -3.86106 0
M  V30 4960 H 464.921 5.04535 -4.80018 0
M  V30 4961 H 462.548 5.27724 -5.47185 0
M  V30 4962 N 464.123 0.554532 1.47522 0
M  V30 4963 C 465.071 -0.207765 2.3167 0
M  V30 4964 C 466.065 -0.911914 1.4276 0
M  V30 4965 O 467.271 -0.833504 1.59539 0
M  V30 4966 H 463.646 -0.0858726 0.747081 0
M  V30 4967 H 465.617 0.521178 2.93813 0
M  V30 4968 C 464.366 -1.2263 3.25357 0
M  V30 4969 H 463.689 -0.693887 3.93732 0
M  V30 4970 H 465.129 -1.73062 3.87073 0
M  V30 4971 C 463.588 -2.27278 2.4869 0
M  V30 4972 O 464.118 -3.34156 2.22941 0
M  V30 4973 N 462.324 -2.01134 2.09746 0
M  V30 4974 H 461.871 -1.14232 2.30887 0
M  V30 4975 H 461.829 -2.71369 1.58765 0
M  V30 4976 N 465.601 -1.54893 0.290851 0
M  V30 4977 C 466.849 -1.99538 -0.320756 0
M  V30 4978 C 467.17 -1.18075 -1.55188 0
M  V30 4979 O 466.44 -0.274162 -1.93972 0
M  V30 4980 H 465.02 -0.737052 -0.121507 0
M  V30 4981 H 467.682 -1.90755 0.399832 0
M  V30 4982 H 466.778 -3.06282 -0.599802 0
M  V30 4983 N 467.08 -0.0183926 -1.57589 0
M  V30 4984 C 468.31 0.67207 -1.95363 0
M  V30 4985 C 468.718 1.66807 -0.892872 0
M  V30 4986 O 468.061 1.83204 0.134958 0
M  V30 4987 C 468.123 1.44397 -3.29226 0
M  V30 4988 C 467.787 0.607511 -4.52944 0
M  V30 4989 C 468.784 -0.112657 -5.19778 0
M  V30 4990 C 466.469 0.548068 -4.99301 0
M  V30 4991 C 468.463 -0.881057 -6.31281 0
M  V30 4992 C 466.15 -0.224044 -6.10689 0
M  V30 4993 C 467.148 -0.937323 -6.76538 0
M  V30 4994 O 466.836 -1.6968 -7.85789 0
M  V30 4995 H 466.568 0.190925 -0.648478 0
M  V30 4996 H 469.122 -0.0711994 -2.05277 0
M  V30 4997 H 467.352 2.23214 -3.15773 0
M  V30 4998 H 469.041 2.02152 -3.51979 0
M  V30 4999 H 469.807 -0.0759998 -4.8494 0
M  V30 5000 H 465.686 1.09281 -4.4786 0
M  V30 5001 H 469.23 -1.43832 -6.82611 0
M  V30 5002 H 465.127 -0.262457 -6.44966 0
M  V30 5003 H 465.895 -1.61544 -8.024 0
M  V30 5004 N 468.558 1.5553 0.254621 0
M  V30 5005 C 469.521 1.88872 1.29846 0
M  V30 5006 C 470.521 0.764591 1.41459 0
M  V30 5007 O 471.711 1.03265 1.40293 0
M  V30 5008 C 468.843 2.11032 2.67728 0
M  V30 5009 H 470.036 2.82201 1.01502 0
M  V30 5010 H 467.589 1.48303 0.493556 0
M  V30 5011 H 468.324 1.20146 3.01223 0
M  V30 5012 H 468.109 2.92895 2.60682 0
M  V30 5013 H 469.599 2.38038 3.43115 0
M  V30 5014 N 470.036 -0.519951 1.48776 0
M  V30 5015 C 471.313 -1.28123 1.47797 0
M  V30 5016 C 471.693 -2.10196 0.195157 0
M  V30 5017 O 471.041 -2.13167 -0.822925 0
M  V30 5018 C 471.251 -2.15413 2.74587 0
M  V30 5019 C 472.599 -2.75225 3.23321 0
M  V30 5020 O 473.623 -2.25694 2.75574 0
M  V30 5021 O 472.482 -3.65346 4.06429 0
M  V30 5022 H 469.576 -0.578793 0.590701 0
M  V30 5023 H 472.122 -0.535779 1.6102 0
M  V30 5024 H 470.894 -1.54617 3.59457 0
M  V30 5025 H 470.517 -2.97186 2.64132 0
M  V30 5026 N 471.514 -1.37532 -0.769588 0
M  V30 5027 C 472.446 -1.29347 -1.89214 0
M  V30 5028 C 473.459 -0.208842 -1.61455 0
M  V30 5029 O 474.648 -0.465158 -1.72333 0
M  V30 5030 C 471.748 -0.977649 -3.24492 0
M  V30 5031 C 470.921 -2.16817 -3.7988 0
M  V30 5032 C 469.98 -1.82229 -4.93639 0
M  V30 5033 O 469.006 -2.54548 -5.09111 0
M  V30 5034 N 470.208 -0.767696 -5.75401 0
M  V30 5035 H 472.973 -2.26073 -1.96751 0
M  V30 5036 H 470.534 -1.31185 -0.948795 0
M  V30 5037 H 472.526 -0.727065 -3.98115 0
M  V30 5038 H 471.096 -0.0988777 -3.12444 0
M  V30 5039 H 470.316 -2.58038 -2.9801 0
M  V30 5040 H 471.604 -2.96308 -4.13617 0
M  V30 5041 H 471.002 -0.167626 -5.65452 0
M  V30 5042 H 469.559 -0.576973 -6.49241 0
M  V30 5043 N 472.992 0.995999 -1.22138 0
M  V30 5044 C 474.238 1.73767 -1.04561 0
M  V30 5045 C 474.571 1.89633 0.418698 0
M  V30 5046 O 473.846 1.43723 1.3105 0
M  V30 5047 C 474.129 3.14505 -1.75382 0
M  V30 5048 C 473.982 3.06306 -3.29388 0
M  V30 5049 C 475.301 4.13615 -1.50369 0
M  V30 5050 H 472.42 0.630728 -0.38125 0
M  V30 5051 H 475.062 1.16057 -1.50435 0
M  V30 5052 H 473.212 3.63775 -1.36383 0
M  V30 5053 H 474.884 2.64681 -3.77812 0
M  V30 5054 H 473.127 2.43186 -3.59226 0
M  V30 5055 H 473.798 4.05884 -3.74116 0
M  V30 5056 H 476.274 3.73089 -1.84239 0
M  V30 5057 H 475.15 5.10212 -2.02421 0
M  V30 5058 H 475.411 4.39949 -0.435611 0
M  V30 5059 N 474.47 1.03057 1.19235 0
M  V30 5060 C 475.433 0.617418 2.20727 0
M  V30 5061 C 476.433 -0.319856 1.57587 0
M  V30 5062 O 477.623 -0.106633 1.73873 0
M  V30 5063 C 474.755 -0.096296 3.40764 0
M  V30 5064 H 475.948 1.51544 2.58794 0
M  V30 5065 H 473.501 0.821949 1.32942 0
M  V30 5066 H 474.236 -1.00859 3.08217 0
M  V30 5067 H 474.021 0.577217 3.87828 0
M  V30 5068 H 475.511 -0.372219 4.15938 0
M  V30 5069 N 475.948 -1.35272 0.808662 0
M  V30 5070 C 477.173 -2.03477 0.401475 0
M  V30 5071 C 477.598 -1.60537 -0.980279 0
M  V30 5072 O 476.956 -0.78304 -1.63518 0
M  V30 5073 C 477.004 -3.57181 0.495354 0
M  V30 5074 O 476.108 -4.09474 -0.490397 0
M  V30 5075 H 475.449 -0.642561 0.167366 0
M  V30 5076 H 477.979 -1.72824 1.09512 0
M  V30 5077 H 477.989 -4.06356 0.365912 0
M  V30 5078 H 476.664 -3.87784 1.5032 0
M  V30 5079 H 475.241 -3.71516 -0.321023 0
M  V30 5080 N 477.426 -0.562348 -1.47226 0
M  V30 5081 C 478.356 0.170627 -2.32876 0
M  V30 5082 C 479.337 0.903748 -1.44106 0
M  V30 5083 O 480.522 0.883206 -1.72954 0
M  V30 5084 C 477.652 1.19786 -3.25989 0
M  V30 5085 C 476.606 0.580875 -4.2404 0
M  V30 5086 C 475.932 1.71311 -5.06514 0
M  V30 5087 C 477.232 -0.468714 -5.20193 0
M  V30 5088 H 478.926 -0.544441 -2.94408 0
M  V30 5089 H 476.472 -0.263271 -1.41573 0
M  V30 5090 H 478.425 1.71884 -3.84752 0
M  V30 5091 H 477.149 1.94294 -2.62521 0
M  V30 5092 H 475.808 0.0811538 -3.6651 0
M  V30 5093 H 475.456 2.44736 -4.39447 0
M  V30 5094 H 475.156 1.30604 -5.72902 0
M  V30 5095 H 476.68 2.23725 -5.68137 0
M  V30 5096 H 478.094 -0.0336028 -5.7329 0
M  V30 5097 H 476.491 -0.794957 -5.94811 0
M  V30 5098 H 477.561 -1.36269 -4.65359 0
M  V30 5099 N 478.904 1.54736 -0.299062 0
M  V30 5100 C 480.134 2.04215 0.312992 0
M  V30 5101 C 480.542 1.17596 1.48215 0
M  V30 5102 O 479.885 0.193835 1.82674 0
M  V30 5103 C 479.947 3.49696 0.833862 0
M  V30 5104 C 479.611 4.56518 -0.20977 0
M  V30 5105 C 480.608 5.09442 -1.03756 0
M  V30 5106 C 478.293 5.01073 -0.35091 0
M  V30 5107 C 480.287 6.05459 -1.99244 0
M  V30 5108 C 477.974 5.9691 -1.30924 0
M  V30 5109 C 478.972 6.48987 -2.1285 0
M  V30 5110 O 478.66 7.42947 -3.07059 0
M  V30 5111 H 478.392 0.672128 0.0722494 0
M  V30 5112 H 480.946 2.00718 -0.436043 0
M  V30 5113 H 479.176 3.5051 1.63339 0
M  V30 5114 H 480.865 3.82381 1.36159 0
M  V30 5115 H 481.631 4.75816 -0.939376 0
M  V30 5116 H 477.51 4.60168 0.276813 0
M  V30 5117 H 481.054 6.46031 -2.63229 0
M  V30 5118 H 476.951 6.29953 -1.40815 0
M  V30 5119 H 477.719 7.60743 -3.02015 0
M  V30 5120 N 480.382 0.0267497 1.57577 0
M  V30 5121 C 481.798 -0.32962 1.56159 0
M  V30 5122 C 481.998 -1.73059 1.03213 0
M  V30 5123 O 481.054 -2.43233 0.677804 0
M  V30 5124 C 482.367 -0.18039 3.00158 0
M  V30 5125 C 483.915 -0.253334 3.11973 0
M  V30 5126 C 484.39 -0.132921 4.57807 0
M  V30 5127 N 485.881 -0.189979 4.6281 0
M  V30 5128 C 486.616 -0.120554 5.73273 0
M  V30 5129 N 486.112 -0.000180315 6.928 0
M  V30 5130 N 487.905 -0.174369 5.61829 0
M  V30 5131 H 480.056 0.942896 1.90324 0
M  V30 5132 H 482.319 0.3639 0.875375 0
M  V30 5133 H 482.025 0.784576 3.42837 0
M  V30 5134 H 481.899 -0.951565 3.65 0
M  V30 5135 H 484.286 -1.20876 2.69208 0
M  V30 5136 H 484.367 0.548177 2.49857 0
M  V30 5137 H 484.011 0.819073 5.01252 0
M  V30 5138 H 483.941 -0.953264 5.179 0
M  V30 5139 H 486.432 -0.283257 3.76837 0
M  V30 5140 H 486.745 0.0461666 7.72786 0
M  V30 5141 H 485.09 0.034569 6.94991 0
M  V30 5142 H 488.281 -0.266794 4.67339 0
M  V30 5143 H 488.454 -0.116802 6.47895 0
M  V30 5144 N 481.861 -1.55662 -0.24637 0
M  V30 5145 C 483.109 -1.77168 -0.972411 0
M  V30 5146 C 483.43 -0.590827 -1.85834 0
M  V30 5147 O 482.7 0.393365 -1.9191 0
M  V30 5148 H 481.28 -0.653405 -0.362038 0
M  V30 5149 H 483.942 -1.93101 -0.264189 0
M  V30 5150 H 483.038 -2.68335 -1.59382 0
M  V30 5151 N 483.339 0.512053 -1.4905 0
M  V30 5152 C 484.269 1.62365 -1.67809 0
M  V30 5153 C 485.25 1.61737 -0.526809 0
M  V30 5154 O 486.435 1.78651 -0.761404 0
M  V30 5155 C 483.565 3.00895 -1.73435 0
M  V30 5156 C 482.519 3.16387 -2.88242 0
M  V30 5157 C 481.845 4.56157 -2.78971 0
M  V30 5158 C 483.145 2.97457 -4.29321 0
M  V30 5159 H 484.839 1.46921 -2.60873 0
M  V30 5160 H 482.385 0.705379 -1.2554 0
M  V30 5161 H 484.338 3.78549 -1.85145 0
M  V30 5162 H 483.062 3.17403 -0.769619 0
M  V30 5163 H 481.721 2.41155 -2.76116 0
M  V30 5164 H 481.369 4.69525 -1.8043 0
M  V30 5165 H 481.069 4.67465 -3.5602 0
M  V30 5166 H 482.593 5.35886 -2.92675 0
M  V30 5167 H 484.007 3.64888 -4.42187 0
M  V30 5168 H 482.404 3.20245 -5.07507 0
M  V30 5169 H 483.474 1.93692 -4.44535 0
M  V30 5170 N 484.817 1.37938 0.762283 0
M  V30 5171 C 486.094 1.24196 1.51112 0
M  V30 5172 C 486.474 -0.160409 2.1049 0
M  V30 5173 O 485.822 -1.16904 1.96331 0
M  V30 5174 C 486.032 2.34537 2.58445 0
M  V30 5175 C 487.38 2.7254 3.25588 0
M  V30 5176 O 488.404 2.33783 2.68745 0
M  V30 5177 O 487.263 3.39343 4.28379 0
M  V30 5178 H 484.357 0.485175 0.669727 0
M  V30 5179 H 486.903 1.49743 0.798438 0
M  V30 5180 H 485.675 3.28406 2.12756 0
M  V30 5181 H 485.298 2.10505 3.37303 0
M  V30 5182 N 486.295 -0.989507 1.22664 0
M  V30 5183 C 487.225 -2.09847 1.02404 0
M  V30 5184 C 488.206 -1.70007 -0.0561303 0
M  V30 5185 O 489.391 -1.93906 0.106748 0
M  V30 5186 C 486.521 -3.41996 0.604663 0
M  V30 5187 C 485.475 -3.95699 1.63115 0
M  V30 5188 C 484.801 -5.23936 1.0675 0
M  V30 5189 C 486.101 -4.25999 3.02196 0
M  V30 5190 H 487.795 -2.27054 1.95158 0
M  V30 5191 H 485.341 -1.09111 0.939727 0
M  V30 5192 H 487.294 -4.1899 0.45002 0
M  V30 5193 H 486.018 -3.24626 -0.35855 0
M  V30 5194 H 484.677 -3.2084 1.77362 0
M  V30 5195 H 484.325 -5.02909 0.0955422 0
M  V30 5196 H 484.025 -5.60833 1.75328 0
M  V30 5197 H 485.549 -6.0356 0.924516 0
M  V30 5198 H 486.963 -4.93777 2.91303 0
M  V30 5199 H 485.36 -4.74076 3.67929 0
M  V30 5200 H 486.43 -3.33636 3.51873 0
M  V30 5201 N 487.773 -1.03688 -1.18687 0
M  V30 5202 C 489.189 -0.755413 -1.4059 0
M  V30 5203 C 489.389 0.656659 -1.905 0
M  V30 5204 O 488.445 1.42144 -2.08689 0
M  V30 5205 C 489.758 -1.7983 -2.41001 0
M  V30 5206 C 491.306 -1.81877 -2.54735 0
M  V30 5207 C 491.781 -2.85148 -3.58406 0
M  V30 5208 N 493.272 -2.84015 -3.6591 0
M  V30 5209 C 494.007 -3.60573 -4.45841 0
M  V30 5210 N 493.503 -4.46871 -5.29413 0
M  V30 5211 N 495.296 -3.49079 -4.40568 0
M  V30 5212 H 487.447 -1.94818 -0.846148 0
M  V30 5213 H 489.71 -0.842727 -0.434184 0
M  V30 5214 H 489.416 -2.81097 -2.1137 0
M  V30 5215 H 489.29 -1.62727 -3.40294 0
M  V30 5216 H 491.677 -0.812836 -2.83685 0
M  V30 5217 H 491.758 -2.03057 -1.55568 0
M  V30 5218 H 491.402 -3.85918 -3.30197 0
M  V30 5219 H 491.332 -2.61224 -4.57241 0
M  V30 5220 H 493.823 -2.21431 -3.0623 0
M  V30 5221 H 494.136 -5.02007 -5.87545 0
M  V30 5222 H 492.481 -4.5094 -5.28846 0
M  V30 5223 H 495.672 -2.81066 -3.74325 0
M  V30 5224 H 495.845 -4.08994 -5.02621 0
M  V30 5225 N 489.251 1.34841 -0.815825 0
M  V30 5226 C 490.161 2.33425 -0.234462 0
M  V30 5227 C 491.177 1.62295 0.627413 0
M  V30 5228 O 492.353 1.94109 0.536987 0
M  V30 5229 C 489.418 3.41471 0.599849 0
M  V30 5230 C 488.479 4.28362 -0.283596 0
M  V30 5231 C 487.712 5.31248 0.51099 0
M  V30 5232 O 487.935 5.43056 1.7449 0
M  V30 5233 O 486.869 6.01812 -0.10297 0
M  V30 5234 H 490.695 2.84962 -1.05024 0
M  V30 5235 H 488.28 1.37774 -0.577809 0
M  V30 5236 H 490.162 4.07464 1.07475 0
M  V30 5237 H 488.837 2.9219 1.39308 0
M  V30 5238 H 487.744 3.65318 -0.805836 0
M  V30 5239 H 489.077 4.81066 -1.041 0
M  V30 5240 N 490.729 0.570148 1.46925 0
M  V30 5241 C 491.677 -0.183181 2.31878 0
M  V30 5242 C 492.671 -0.896721 1.43719 0
M  V30 5243 O 493.877 -0.816536 1.60414 0
M  V30 5244 H 490.252 -0.077944 0.74795 0
M  V30 5245 H 492.223 0.552312 2.93244 0
M  V30 5246 C 490.972 -1.19172 3.2664 0
M  V30 5247 H 490.295 -0.652088 3.94446 0
M  V30 5248 H 491.735 -1.68946 3.88887 0
M  V30 5249 C 490.194 -2.24627 2.51086 0
M  V30 5250 O 490.724 -3.31773 2.26472 0
M  V30 5251 N 488.93 -1.98898 2.11867 0
M  V30 5252 H 488.477 -1.11777 2.32086 0
M  V30 5253 H 488.435 -2.6967 1.61634 0
M  V30 5254 N 492.207 -1.54576 0.307264 0
M  V30 5255 C 493.454 -2.00263 -0.300167 0
M  V30 5256 C 493.782 -1.19561 -1.53413 0
M  V30 5257 O 493.037 -0.261487 -1.93945 0
M  V30 5258 C 493.336 -3.50572 -0.695253 0
M  V30 5259 C 493.002 -4.48771 0.437679 0
M  V30 5260 C 491.664 -4.7534 0.748681 0
M  V30 5261 C 494.016 -5.0721 1.19949 0
M  V30 5262 C 491.344 -5.5761 1.8245 0
M  V30 5263 C 493.696 -5.90651 2.26527 0
M  V30 5264 C 492.36 -6.15528 2.58227 0
M  V30 5265 H 491.63 -0.732814 -0.109839 0
M  V30 5266 H 494.277 -1.86664 0.427661 0
M  V30 5267 H 492.582 -3.61814 -1.50326 0
M  V30 5268 H 494.279 -3.83352 -1.17653 0
M  V30 5269 H 490.869 -4.282 0.185187 0
M  V30 5270 H 495.053 -4.86679 0.972474 0
M  V30 5271 H 490.309 -5.75121 2.07476 0
M  V30 5272 H 494.483 -6.34957 2.86011 0
M  V30 5273 H 492.11 -6.79066 3.4172 0
M  V30 5274 O 493.724 -0.174109 -1.60559 0
M  V30 5275 H 494.415 0.415114 -1.892 0
M  V30 END ATOM
M  V30 BEGIN BOND
M  V30 END BOND
M  V30 END CTAB
M  END
$$$$
