drugbank_target|P21452 Substance-K receptor (DB06660)
 OpenBabel12092120073D

  0  0  0     0  0            999 V3000
M  V30 BEGIN CTAB
M  V30 COUNTS 6269 6363 0 0 0
M  V30 BEGIN ATOM
M  V30 1 H -0.908 1.98254 -0.117106 0
M  V30 2 N 0 1.576 0 0
M  V30 3 C 0.933 2.03868 1.02534 0
M  V30 4 C 1.911 0.928543 1.3348 0
M  V30 5 O 3.095 1.19667 1.45644 0
M  V30 6 C 0.222 2.43627 2.35294 0
M  V30 7 C -0.732 3.65373 2.2001 0
M  V30 8 S 0.101 5.13292 1.52614 0
M  V30 9 C 1.257 5.56322 2.86805 0
M  V30 10 H 1.49 2.90518 0.631377 0
M  V30 11 H -0.977 1.52953 0.210867 0
M  V30 12 H 0.981 2.67203 3.11629 0
M  V30 13 H -0.358 1.57376 2.7183 0
M  V30 14 H -1.165 3.90944 3.18086 0
M  V30 15 H -1.563 3.418 1.51819 0
M  V30 16 H 0.729 5.58782 3.83104 0
M  V30 17 H 1.672 6.56266 2.65933 0
M  V30 18 H 2.08 4.83886 2.90714 0
M  V30 19 N 1.4781 -0.272755 1.55222 0
M  V30 20 C 2.7261 -1.00234 1.75492 0
M  V30 21 C 3.0471 -1.8681 0.5592 0
M  V30 22 O 2.3171 -1.91215 -0.425882 0
M  V30 23 H 0.8971 -0.373076 0.647166 0
M  V30 24 H 3.5591 -0.296926 1.92625 0
M  V30 25 H 2.6551 -1.63913 2.65592 0
M  V30 26 N 2.9562 -1.48159 -0.537278 0
M  V30 27 C 4.1842 -1.59454 -1.31841 0
M  V30 28 C 4.5992 -0.252065 -1.8711 0
M  V30 29 O 3.9562 0.757621 -1.66031 0
M  V30 30 C 4.0072 -2.63546 -2.47439 0
M  V30 31 O 3.7282 -3.92583 -1.94449 0
M  V30 32 C 5.2292 -2.85212 -3.39366 0
M  V30 33 H 2.4492 -0.53785 -0.401196 0
M  V30 34 H 4.9932 -1.93932 -0.648891 0
M  V30 35 H 3.1482 -2.31946 -3.1029 0
M  V30 36 H 3.5622 -4.49629 -2.70063 0
M  V30 37 H 5.0362 -3.61863 -4.16844 0
M  V30 38 H 5.5132 -1.93765 -3.94147 0
M  V30 39 H 6.1192 -3.18086 -2.82314 0
M  V30 40 N 4.4343 0.785586 -1.36625 0
M  V30 41 C 5.6743 1.55678 -1.32453 0
M  V30 42 C 6.0383 1.91769 0.0941089 0
M  V30 43 O 7.2393 2.67536 0.26042 0
M  V30 44 C 5.5103 2.79701 -2.22491 0
M  V30 45 S 7.0693 3.69907 -2.36038 0
M  V30 46 H 3.8873 0.533141 -0.470405 0
M  V30 47 H 6.4893 0.924953 -1.72235 0
M  V30 48 H 5.1933 2.51244 -3.24507 0
M  V30 49 H 4.7243 3.47854 -1.83742 0
M  V30 50 H 6.7393 4.71016 -1.56072 0
M  V30 51 N 5.9124 1.20967 1.01018 0
M  V30 52 C 7.1894 0.93264 1.71934 0
M  V30 53 C 7.5694 -0.55692 2.03621 0
M  V30 54 O 6.9174 -1.52035 1.7058 0
M  V30 55 C 7.1274 1.81233 2.98254 0
M  V30 56 C 8.4754 2.05804 3.71389 0
M  V30 57 O 9.4994 1.78539 3.08225 0
M  V30 58 O 8.3584 2.51888 4.84989 0
M  V30 59 H 5.4524 0.349272 0.749625 0
M  V30 60 H 7.9984 1.31871 1.06808 0
M  V30 61 H 6.7704 2.82067 2.71208 0
M  V30 62 H 6.3934 1.42674 3.7112 0
M  V30 63 N 7.3905 -1.2043 1.01659 0
M  V30 64 C 8.6395 -1.89118 0.701237 0
M  V30 65 C 8.9525 -1.79705 -0.772358 0
M  V30 66 O 10.1585 -2.43528 -1.20026 0
M  V30 67 C 8.6145 -3.39168 1.20388 0
M  V30 68 C 8.2225 -3.57166 2.70438 0
M  V30 69 C 9.9665 -4.1341 0.963953 0
M  V30 70 C 7.8735 -5.01042 3.14183 0
M  V30 71 H 6.8035 -0.708267 0.2586 0
M  V30 72 H 9.4545 -1.36239 1.22927 0
M  V30 73 H 7.8365 -3.91369 0.603824 0
M  V30 74 H 9.0105 -3.15351 3.35992 0
M  V30 75 H 7.3255 -2.96294 2.92572 0
M  V30 76 H 9.9225 -5.19491 1.26621 0
M  V30 77 H 10.2655 -4.16181 -0.099578 0
M  V30 78 H 10.7985 -3.67309 1.52738 0
M  V30 79 H 7.5375 -5.03426 4.19812 0
M  V30 80 H 7.0575 -5.43668 2.53348 0
M  V30 81 H 8.7365 -5.69623 3.0682 0
M  V30 82 N 8.8686 -0.792821 -1.36206 0
M  V30 83 C 10.1146 -0.36733 -1.99446 0
M  V30 84 C 10.4476 1.05917 -1.62774 0
M  V30 85 O 9.7226 1.7324 -0.88421 0
M  V30 86 C 10.0056 -0.535044 -3.56103 0
M  V30 87 C 9.8586 -2.00548 -4.02617 0
M  V30 88 C 11.1776 0.0478191 -4.40074 0
M  V30 89 H 8.2966 -0.134941 -0.724541 0
M  V30 90 H 10.9386 -0.999794 -1.61568 0
M  V30 91 H 9.0886 0.00336329 -3.885 0
M  V30 92 H 10.7606 -2.60521 -3.80692 0
M  V30 93 H 9.0036 -2.50686 -3.54032 0
M  V30 94 H 9.6746 -2.07377 -5.11565 0
M  V30 95 H 12.1506 -0.411822 -4.14057 0
M  V30 96 H 11.0266 -0.0995336 -5.4881 0
M  V30 97 H 11.2876 1.14025 -4.27142 0
M  V30 98 N 10.3467 1.47872 -0.545128 0
M  V30 99 C 11.5747 2.06889 -0.021084 0
M  V30 100 C 11.9897 1.39955 1.2672 0
M  V30 101 O 11.3467 0.492036 1.75742 0
M  V30 102 C 11.3977 3.60996 0.190817 0
M  V30 103 O 11.1187 4.25419 -1.04644 0
M  V30 104 C 12.6197 4.36849 0.753521 0
M  V30 105 H 9.8397 0.669785 -0.0403635 0
M  V30 106 H 12.3837 1.90049 -0.755095 0
M  V30 107 H 10.5387 3.77391 0.87492 0
M  V30 108 H 10.9527 5.17785 -0.836611 0
M  V30 109 H 12.4267 5.45399 0.851139 0
M  V30 110 H 12.9037 4.02306 1.762 0
M  V30 111 H 13.5097 4.25169 0.105503 0
M  V30 112 N 11.8248 0.280983 1.55075 0
M  V30 113 C 12.7348 -0.61388 2.26426 0
M  V30 114 C 13.7508 -1.16521 1.29224 0
M  V30 115 O 14.9268 -1.19426 1.62171 0
M  V30 116 C 11.9918 -1.7788 2.9759 0
M  V30 117 C 11.0528 -1.26355 4.10284 0
M  V30 118 C 10.2858 -2.37295 4.78045 0
M  V30 119 O 10.5088 -3.56777 4.45047 0
M  V30 120 O 9.4428 -2.05119 5.65871 0
M  V30 121 H 13.2688 -0.0356932 3.03679 0
M  V30 122 H 10.8538 0.0481686 1.49322 0
M  V30 123 H 12.7358 -2.45791 3.42293 0
M  V30 124 H 11.4108 -2.34397 2.23249 0
M  V30 125 H 10.3178 -0.550735 3.70024 0
M  V30 126 H 11.6508 -0.744065 4.86543 0
M  V30 127 N 13.3029 -1.57598 0.00835791 0
M  V30 128 C 14.2659 -2.07884 -0.965242 0
M  V30 129 C 15.2659 -0.989825 -1.26725 0
M  V30 130 O 16.4559 -1.25218 -1.21104 0
M  V30 131 C 13.5879 -2.52731 -2.28779 0
M  V30 132 H 14.7809 -2.95178 -0.530112 0
M  V30 133 H 12.3339 -1.54458 -0.239283 0
M  V30 134 H 13.0689 -1.68705 -2.76964 0
M  V30 135 H 12.8539 -3.32272 -2.08177 0
M  V30 136 H 14.3439 -2.91933 -2.98605 0
M  V30 137 N 14.781 0.264519 -1.55364 0
M  V30 138 C 15.729 1.34702 -1.89626 0
M  V30 139 C 16.723 1.50712 -0.773459 0
M  V30 140 O 17.929 1.52395 -0.957897 0
M  V30 141 H 14.304 0.450682 -0.601988 0
M  V30 142 H 16.275 1.0306 -2.80038 0
M  V30 143 C 15.024 2.6989 -2.19214 0
M  V30 144 H 14.347 2.58365 -3.05103 0
M  V30 145 H 15.787 3.44553 -2.47102 0
M  V30 146 C 14.246 3.21637 -1.00254 0
M  V30 147 O 14.776 4.00973 -0.241501 0
M  V30 148 N 12.982 2.7943 -0.797938 0
M  V30 149 H 12.529 2.15026 -1.4185 0
M  V30 150 H 12.487 3.144 -0.00363422 0
M  V30 151 N 16.2591 1.48442 0.529413 0
M  V30 152 C 17.5081 1.55742 1.28169 0
M  V30 153 C 17.8211 0.236511 1.94165 0
M  V30 154 O 19.0271 0.187761 2.7085 0
M  V30 155 C 17.4831 2.74667 2.32564 0
M  V30 156 C 17.0911 4.13402 1.72636 0
M  V30 157 C 18.8351 2.9128 3.08798 0
M  V30 158 C 16.7421 5.23587 2.74975 0
M  V30 159 H 15.6721 0.579796 0.48203 0
M  V30 160 H 18.3231 1.74776 0.559056 0
M  V30 161 H 16.7051 2.49067 3.07866 0
M  V30 162 H 17.8791 4.49022 1.03519 0
M  V30 163 H 16.1941 4.0191 1.08892 0
M  V30 164 H 18.7911 3.70767 3.85274 0
M  V30 165 H 19.1341 2.00757 3.64695 0
M  V30 166 H 19.6671 3.16782 2.40611 0
M  V30 167 H 16.4061 6.16076 2.23897 0
M  V30 168 H 15.9261 4.92454 3.42417 0
M  V30 169 H 17.6051 5.51724 3.37949 0
M  V30 170 N 17.7372 -0.778329 1.37039 0
M  V30 171 C 18.9622 -1.57248 1.35233 0
M  V30 172 C 19.3872 -1.87999 -0.0615568 0
M  V30 173 O 18.7452 -1.48734 -1.03672 0
M  V30 174 C 18.7932 -2.86353 2.19167 0
M  V30 175 O 17.8972 -3.80442 1.59178 0
M  V30 176 H 17.2382 -0.476569 0.462362 0
M  V30 177 H 19.7682 -0.963853 1.80474 0
M  V30 178 H 19.7782 -3.35519 2.32145 0
M  V30 179 H 18.4532 -2.63299 3.21942 0
M  V30 180 H 17.0302 -3.39067 1.55203 0
M  V30 181 N 19.2153 -1.21501 -1.00376 0
M  V30 182 C 20.4403 -1.05977 -1.78279 0
M  V30 183 C 20.8653 0.385994 -1.84097 0
M  V30 184 O 20.2233 1.27849 -1.28547 0
M  V30 185 C 20.2713 -1.66302 -3.19963 0
M  V30 186 O 19.3753 -0.909333 -4.0225 0
M  V30 187 H 18.7163 -0.372906 -0.549397 0
M  V30 188 H 21.2463 -1.6107 -1.26165 0
M  V30 189 H 21.2563 -1.70574 -3.70632 0
M  V30 190 H 19.9313 -2.71515 -3.15043 0
M  V30 191 H 18.5083 -0.941795 -3.60811 0
M  V30 192 N 20.6934 1.19889 -1.02296 0
M  V30 193 C 21.9414 1.89046 -0.714558 0
M  V30 194 C 22.2624 1.79636 0.758681 0
M  V30 195 O 21.5324 1.20292 1.54618 0
M  V30 196 H 20.1124 0.699802 -0.261317 0
M  V30 197 H 22.7744 1.45574 -1.29592 0
M  V30 198 H 21.8704 2.95524 -1.0036 0
M  V30 199 N 22.1715 0.800033 1.35784 0
M  V30 200 C 23.5825 0.439142 1.81462 0
M  V30 201 C 23.9335 -1.03813 1.66485 0
M  V30 202 O 23.0585 -1.80626 1.19177 0
M  V30 203 C 23.6535 0.790314 3.29453 0
M  V30 204 C 22.2125 0.482111 3.733 0
M  V30 205 C 21.3595 1.01938 2.57883 0
M  V30 206 H 24.3105 0.992254 1.23855 0
M  V30 207 H 24.3315 0.0853677 3.80404 0
M  V30 208 H 23.8435 1.86554 3.40322 0
M  V30 209 H 21.9445 -0.584652 3.67984 0
M  V30 210 H 22.0575 1.01015 4.6833 0
M  V30 211 H 20.4215 0.442043 2.50835 0
M  V30 212 H 21.2045 2.10059 2.71533 0
M  V30 213 N 23.6496 -1.47581 0.552962 0
M  V30 214 C 24.5596 -2.33743 -0.200353 0
M  V30 215 C 25.5756 -1.47928 -0.916151 0
M  V30 216 O 26.7516 -1.80865 -0.885993 0
M  V30 217 C 23.8166 -3.24536 -1.21973 0
M  V30 218 C 22.8776 -4.26238 -0.511819 0
M  V30 219 C 22.1106 -5.12693 -1.48263 0
M  V30 220 O 22.3336 -5.01525 -2.71714 0
M  V30 221 O 21.2676 -5.93375 -1.00945 0
M  V30 222 H 25.0936 -2.9945 0.506304 0
M  V30 223 H 22.6786 -1.46071 0.313622 0
M  V30 224 H 24.5606 -3.80631 -1.80827 0
M  V30 225 H 23.2356 -2.61462 -1.90839 0
M  V30 226 H 22.1426 -3.73914 0.117799 0
M  V30 227 H 23.4756 -4.92014 0.135308 0
M  V30 228 N 25.1277 -0.289203 -1.54924 0
M  V30 229 C 26.3527 0.329299 -2.04769 0
M  V30 230 C 26.7777 1.4763 -1.16564 0
M  V30 231 O 26.1357 1.80527 -0.167186 0
M  V30 232 C 26.1837 0.774438 -3.52186 0
M  V30 233 O 25.2877 1.88038 -3.67036 0
M  V30 234 H 24.6287 0.0659259 -0.660719 0
M  V30 235 H 27.1587 -0.42761 -2.00082 0
M  V30 236 H 27.1687 1.06642 -3.93816 0
M  V30 237 H 25.8437 -0.0646707 -4.1585 0
M  V30 238 H 24.4207 1.58985 -3.3731 0
M  V30 239 N 26.6058 1.57591 -0.0167156 0
M  V30 240 C 27.5538 2.10604 0.987353 0
M  V30 241 C 28.5478 1.02977 1.34507 0
M  V30 242 O 29.7538 1.21425 1.32875 0
M  V30 243 H 26.1288 0.672695 0.336134 0
M  V30 244 H 28.0998 2.93925 0.514817 0
M  V30 245 C 26.8488 2.6382 2.26483 0
M  V30 246 H 26.1718 3.46278 1.99829 0
M  V30 247 H 27.6118 3.04573 2.94977 0
M  V30 248 C 26.0708 1.55992 2.9861 0
M  V30 249 O 26.6008 0.952521 3.90243 0
M  V30 250 N 24.8068 1.28335 2.60727 0
M  V30 251 H 24.3538 1.77914 1.86291 0
M  V30 252 H 24.3118 0.564115 3.09298 0
M  V30 253 N 28.0839 -0.256276 1.55502 0
M  V30 254 C 29.3119 -1.00342 1.8094 0
M  V30 255 C 29.7269 -1.79307 0.59114 0
M  V30 256 O 29.0839 -1.77114 -0.440081 0
M  V30 257 C 29.1349 -1.94875 3.04476 0
M  V30 258 O 28.8559 -1.19107 4.21598 0
M  V30 259 C 30.3569 -2.81266 3.42644 0
M  V30 260 H 27.5769 -0.295685 0.602338 0
M  V30 261 H 30.1209 -0.281998 2.02546 0
M  V30 262 H 28.2759 -2.62457 2.84947 0
M  V30 263 H 28.6899 -1.82969 4.91551 0
M  V30 264 H 30.1639 -3.43362 4.32211 0
M  V30 265 H 30.6409 -3.51897 2.62802 0
M  V30 266 H 31.2469 -2.1915 3.64491 0
M  V30 267 N 29.562 -1.4872 -0.521534 0
M  V30 268 C 30.79 -1.60843 -1.30142 0
M  V30 269 C 31.205 -0.271897 -1.86832 0
M  V30 270 O 30.562 0.739969 -1.66825 0
M  V30 271 C 30.613 -2.66155 -2.4463 0
M  V30 272 O 30.334 -3.94623 -1.90275 0
M  V30 273 C 31.835 -2.88795 -3.36322 0
M  V30 274 H 29.055 -0.542075 -0.395468 0
M  V30 275 H 31.599 -1.94609 -0.628285 0
M  V30 276 H 29.754 -2.35224 -3.07812 0
M  V30 277 H 30.168 -4.52468 -2.65279 0
M  V30 278 H 31.642 -3.66264 -4.12983 0
M  V30 279 H 32.119 -1.97934 -3.9207 0
M  V30 280 H 32.725 -3.21063 -2.78924 0
M  V30 281 N 31.0401 0.771051 -1.3745 0
M  V30 282 C 32.2881 1.52661 -1.32435 0
M  V30 283 C 32.6091 1.9479 0.0905024 0
M  V30 284 O 31.8791 1.66348 1.03466 0
M  V30 285 H 30.4591 0.566218 -0.487244 0
M  V30 286 H 33.1211 0.917636 -1.71946 0
M  V30 287 H 32.2171 2.42568 -1.96385 0
M  V30 288 N 32.5182 1.22032 0.997298 0
M  V30 289 C 33.7672 1.03637 1.73038 0
M  V30 290 C 34.0802 -0.429475 1.90827 0
M  V30 291 O 35.2862 -0.732995 2.61418 0
M  V30 292 C 33.7422 1.80582 3.11317 0
M  V30 293 C 33.3502 3.31387 3.01474 0
M  V30 294 C 35.0942 1.70621 3.88701 0
M  V30 295 C 33.0012 4.00791 4.3488 0
M  V30 296 H 31.9312 0.384179 0.648785 0
M  V30 297 H 34.5822 1.4584 1.11368 0
M  V30 298 H 32.9642 1.31175 3.73643 0
M  V30 299 H 34.1382 3.88155 2.4834 0
M  V30 300 H 32.4532 3.41976 2.37575 0
M  V30 301 H 35.0502 2.19799 4.87434 0
M  V30 302 H 35.3932 0.665823 4.10941 0
M  V30 303 H 35.9262 2.17547 3.33044 0
M  V30 304 H 32.6652 5.05064 4.1784 0
M  V30 305 H 32.1852 3.48811 4.87945 0
M  V30 306 H 33.8642 4.06139 5.03647 0
M  V30 307 N 33.9963 -1.19345 1.0293 0
M  V30 308 C 35.2243 -1.92997 0.745644 0
M  V30 309 C 35.6393 -1.75519 -0.695589 0
M  V30 310 O 34.9963 -1.07737 -1.47306 0
M  V30 311 C 35.0473 -3.44741 1.08792 0
M  V30 312 O 34.7683 -3.61658 2.47256 0
M  V30 313 C 36.2693 -4.35515 0.827129 0
M  V30 314 H 33.4893 -0.613042 0.272801 0
M  V30 315 H 36.0333 -1.51473 1.3739 0
M  V30 316 H 34.1883 -3.84097 0.504832 0
M  V30 317 H 34.6023 -4.55514 2.60015 0
M  V30 318 H 36.0763 -5.40589 1.11658 0
M  V30 319 H 36.5533 -4.38552 -0.238436 0
M  V30 320 H 37.1593 -4.01841 1.39297 0
M  V30 321 N 35.4744 -0.807222 -1.35358 0
M  V30 322 C 36.4374 -0.223665 -2.28106 0
M  V30 323 C 37.4374 0.589354 -1.4961 0
M  V30 324 O 38.6274 0.407745 -1.69361 0
M  V30 325 C 35.7594 0.688149 -3.33882 0
M  V30 326 H 36.9524 -1.04169 -2.81227 0
M  V30 327 H 34.5054 -0.577921 -1.45223 0
M  V30 328 H 35.2404 1.52984 -2.85948 0
M  V30 329 H 35.0254 0.10687 -3.91954 0
M  V30 330 H 36.5154 1.09075 -4.03104 0
M  V30 331 N 36.9525 1.47285 -0.560781 0
M  V30 332 C 38.1995 2.02464 -0.038062 0
M  V30 333 C 38.5275 1.43474 1.31322 0
M  V30 334 O 37.7825 0.581311 1.86867 0
M  V30 335 C 38.0815 3.57258 0.100784 0
M  V30 336 C 37.7475 4.35184 -1.18007 0
M  V30 337 C 36.4095 4.56194 -1.53103 0
M  V30 338 C 38.7615 4.80098 -2.02867 0
M  V30 339 C 36.0895 5.19367 -2.729 0
M  V30 340 C 38.4415 5.44593 -3.21871 0
M  V30 341 C 37.1055 5.63835 -3.57276 0
M  V30 342 H 36.3755 0.740869 -0.0139279 0
M  V30 343 H 39.0225 1.76916 -0.733012 0
M  V30 344 H 37.3275 3.81819 0.878724 0
M  V30 345 H 39.0245 3.97606 0.520639 0
M  V30 346 H 35.6145 4.19113 -0.8968 0
M  V30 347 H 39.7985 4.63642 -1.7706 0
M  V30 348 H 35.0545 5.32459 -3.00496 0
M  V30 349 H 39.2285 5.78358 -3.87911 0
M  V30 350 H 36.8555 6.12557 -4.50197 0
M  V30 351 N 38.4306 0.297415 1.54768 0
M  V30 352 C 39.6556 -0.318435 2.04941 0
M  V30 353 C 40.0806 -1.4701 1.17345 0
M  V30 354 O 39.4386 -1.80436 0.176758 0
M  V30 355 C 39.4866 -0.755749 3.52592 0
M  V30 356 O 38.5906 -1.86088 3.68028 0
M  V30 357 H 37.9316 -0.062421 0.661059 0
M  V30 358 H 40.4616 0.438215 1.99852 0
M  V30 359 H 40.4716 -1.04552 3.94376 0
M  V30 360 H 39.1466 0.0867233 4.1581 0
M  V30 361 H 37.7236 -1.57193 3.38149 0
M  V30 362 N 39.9087 -1.5758 0.0250728 0
M  V30 363 C 40.8417 -2.05473 -0.992777 0
M  V30 364 C 41.8197 -0.949661 -1.31986 0
M  V30 365 O 43.0037 -1.21969 -1.43722 0
M  V30 366 C 40.1307 -2.4734 -2.31389 0
M  V30 367 C 39.1767 -3.68827 -2.1417 0
M  V30 368 S 40.0097 -5.15655 -1.44429 0
M  V30 369 C 41.1657 -5.60814 -2.77918 0
M  V30 370 H 41.3987 -2.91486 -0.585078 0
M  V30 371 H 38.9317 -1.53269 -0.186507 0
M  V30 372 H 40.8897 -2.72127 -3.07339 0
M  V30 373 H 39.5507 -1.6168 -2.69292 0
M  V30 374 H 38.7437 -3.95955 -3.11826 0
M  V30 375 H 38.3457 -3.44172 -1.46362 0
M  V30 376 H 40.6377 -5.64806 -3.74166 0
M  V30 377 H 41.5807 -6.60414 -2.55459 0
M  V30 378 H 41.9887 -4.8845 -2.82979 0
M  V30 379 N 41.3868 0.248026 -1.55636 0
M  V30 380 C 42.7978 0.817177 -1.67866 0
M  V30 381 C 43.1488 1.86069 -0.622322 0
M  V30 382 O 42.2738 2.15157 0.231618 0
M  V30 383 C 42.8688 1.489 -3.04326 0
M  V30 384 C 41.4278 2.00587 -3.185 0
M  V30 385 C 40.5748 0.856573 -2.63739 0
M  V30 386 H 43.5258 0.0238579 -1.58682 0
M  V30 387 H 43.5468 2.35698 -2.98708 0
M  V30 388 H 43.0588 0.729279 -3.81186 0
M  V30 389 H 41.1598 2.79443 -2.4646 0
M  V30 390 H 41.2728 2.20402 -4.25393 0
M  V30 391 H 39.6368 1.25678 -2.21534 0
M  V30 392 H 40.4198 0.109953 -3.43124 0
M  V30 393 N 42.8649 1.48995 0.513639 0
M  V30 394 C 44.0899 1.61792 1.29762 0
M  V30 395 C 44.5149 0.284475 1.85936 0
M  V30 396 O 43.8729 -0.746185 1.65232 0
M  V30 397 C 43.9209 2.67993 2.41272 0
M  V30 398 O 43.0249 2.26287 3.44772 0
M  V30 399 H 42.3659 0.541963 0.38363 0
M  V30 400 H 44.8959 1.95097 0.616307 0
M  V30 401 H 44.9059 2.89772 2.87221 0
M  V30 402 H 43.5809 3.64791 1.9975 0
M  V30 403 H 42.1579 2.14788 3.04829 0
M  V30 404 N 44.343 -0.763751 1.37857 0
M  V30 405 C 45.589 -1.52396 1.3471 0
M  V30 406 C 45.944 -1.92288 -0.0656435 0
M  V30 407 O 45.237 -1.6181 -1.02606 0
M  V30 408 C 45.431 -2.79499 2.22745 0
M  V30 409 C 45.26 -2.52031 3.72438 0
M  V30 410 C 44.03 -2.45759 4.4151 0
M  V30 411 C 46.228 -2.19489 4.65112 0
M  V30 412 N 44.21 -2.1046 5.76697 0
M  V30 413 C 45.581 -1.94396 5.88736 0
M  V30 414 C 47.636 -2.05712 4.53417 0
M  V30 415 C 46.339 -1.56917 7.01975 0
M  V30 416 C 48.365 -1.69634 5.66549 0
M  V30 417 C 47.727 -1.45407 6.89229 0
M  V30 418 H 43.826 -0.55765 0.548225 0
M  V30 419 H 46.41 -0.890302 1.73152 0
M  V30 420 H 44.581 -3.4069 1.86507 0
M  V30 421 H 46.313 -3.45465 2.10798 0
M  V30 422 H 43.068 -2.61885 3.94605 0
M  V30 423 H 43.492 -1.95484 6.48163 0
M  V30 424 H 48.134 -2.23123 3.59133 0
M  V30 425 H 45.852 -1.38246 7.96187 0
M  V30 426 H 49.438 -1.59621 5.59475 0
M  V30 427 H 48.318 -1.17904 7.75286 0
M  V30 428 N 45.8211 -1.22559 -0.990812 0
M  V30 429 C 46.7531 -0.955325 -2.08342 0
M  V30 430 C 47.7661 0.0668408 -1.62663 0
M  V30 431 O 48.9551 -0.167421 -1.77713 0
M  V30 432 C 46.0551 -0.415566 -3.36342 0
M  V30 433 C 45.2281 -1.49544 -4.11042 0
M  V30 434 C 44.2871 -0.962399 -5.17324 0
M  V30 435 O 43.3131 -1.64907 -5.44788 0
M  V30 436 N 44.5151 0.215134 -5.80101 0
M  V30 437 H 47.2801 -1.89596 -2.32106 0
M  V30 438 H 44.8411 -1.13276 -1.15673 0
M  V30 439 H 46.8331 -0.0442386 -4.04676 0
M  V30 440 H 45.4031 0.430232 -3.09625 0
M  V30 441 H 44.6231 -2.04 -3.37309 0
M  V30 442 H 45.9111 -2.22195 -4.57719 0
M  V30 443 H 45.3091 0.789779 -5.6016 0
M  V30 444 H 43.8661 0.527826 -6.49659 0
M  V30 445 N 47.2992 1.18797 -1.03562 0
M  V30 446 C 48.2292 2.24472 -0.643019 0
M  V30 447 C 49.2102 1.66433 0.351283 0
M  V30 448 O 50.3952 1.92803 0.232505 0
M  V30 449 C 47.5252 3.473 4.24935e-05 0
M  V30 450 C 46.4792 4.18055 -0.917257 0
M  V30 451 C 45.8052 5.34519 -0.138941 0
M  V30 452 C 47.1052 4.72109 -2.23407 0
M  V30 453 H 48.7992 2.57566 -1.52643 0
M  V30 454 H 46.3452 1.23806 -0.735394 0
M  V30 455 H 48.2982 4.20426 0.286383 0
M  V30 456 H 47.0222 3.13424 0.918299 0
M  V30 457 H 45.6812 3.46821 -1.1879 0
M  V30 458 H 45.3292 4.96891 0.781562 0
M  V30 459 H 45.0292 5.82794 -0.750005 0
M  V30 460 H 46.5532 6.10438 0.1405 0
M  V30 461 H 47.9672 5.36955 -2.00879 0
M  V30 462 H 46.3642 5.30897 -2.79765 0
M  V30 463 H 47.4342 3.89807 -2.88407 0
M  V30 464 N 48.7773 0.814389 1.34928 0
M  V30 465 C 49.7403 0.235759 2.27984 0
M  V30 466 C 50.7403 -0.581412 1.49921 0
M  V30 467 O 51.9303 -0.398758 1.69575 0
M  V30 468 C 49.0623 -0.670433 3.34242 0
M  V30 469 H 50.2553 1.05659 2.80671 0
M  V30 470 H 47.8083 0.585614 1.44915 0
M  V30 471 H 48.5433 -1.51466 2.86755 0
M  V30 472 H 48.3283 -0.0860822 3.92005 0
M  V30 473 H 49.8183 -1.06935 4.03676 0
M  V30 474 N 50.2554 -1.46986 0.568584 0
M  V30 475 C 51.1854 -2.32946 -0.160753 0
M  V30 476 C 52.1664 -1.44487 -0.897631 0
M  V30 477 O 53.3514 -1.73327 -0.875867 0
M  V30 478 C 50.4814 -3.26494 -1.18403 0
M  V30 479 C 49.4354 -4.24282 -0.562895 0
M  V30 480 C 48.7614 -5.07236 -1.69163 0
M  V30 481 C 50.0614 -5.19989 0.490761 0
M  V30 482 H 51.7554 -2.94175 0.556916 0
M  V30 483 H 49.3014 -1.4146 0.26927 0
M  V30 484 H 51.2544 -3.85477 -1.70251 0
M  V30 485 H 49.9784 -2.63343 -1.93179 0
M  V30 486 H 48.6374 -3.66541 -0.0656164 0
M  V30 487 H 48.2854 -4.4048 -2.42871 0
M  V30 488 H 47.9854 -5.7345 -1.28174 0
M  V30 489 H 49.5094 -5.6908 -2.21314 0
M  V30 490 H 50.9234 -5.73271 0.0579047 0
M  V30 491 H 49.3204 -5.94469 0.820165 0
M  V30 492 H 50.3904 -4.64777 1.3824 0
M  V30 493 N 51.7335 -0.305618 -1.54608 0
M  V30 494 C 52.9795 0.295595 -2.01241 0
M  V30 495 C 53.3345 1.51171 -1.19018 0
M  V30 496 O 52.6275 1.89832 -0.259684 0
M  V30 497 C 52.8215 0.698983 -3.50498 0
M  V30 498 C 52.6505 -0.476491 -4.47168 0
M  V30 499 C 51.4205 -0.969963 -4.95903 0
M  V30 500 C 53.6185 -1.32294 -4.96994 0
M  V30 501 N 51.6005 -2.11172 -5.76437 0
M  V30 502 C 52.9715 -2.31212 -5.75275 0
M  V30 503 C 55.0265 -1.35278 -4.7917 0
M  V30 504 C 53.7295 -3.32896 -6.37631 0
M  V30 505 C 55.7555 -2.35823 -5.42348 0
M  V30 506 C 55.1175 -3.33469 -6.20466 0
M  V30 507 H 51.2165 0.0724992 -0.778632 0
M  V30 508 H 53.8005 -0.436583 -1.89742 0
M  V30 509 H 51.9715 1.40032 -3.62278 0
M  V30 510 H 53.7035 1.28013 -3.8392 0
M  V30 511 H 50.4585 -0.544178 -4.70463 0
M  V30 512 H 50.8825 -2.68714 -6.21387 0
M  V30 513 H 55.5245 -0.61157 -4.18354 0
M  V30 514 H 53.2425 -4.07933 -6.97579 0
M  V30 515 H 56.8285 -2.38911 -5.30484 0
M  V30 516 H 55.7085 -4.09996 -6.68485 0
M  V30 517 N 53.2116 1.57565 -0.0334293 0
M  V30 518 C 54.1746 2.09393 0.932048 0
M  V30 519 C 55.1746 1.00986 1.25134 0
M  V30 520 O 56.3646 1.27129 1.19096 0
M  V30 521 C 53.4966 2.56338 2.2473 0
M  V30 522 H 54.6896 2.95984 0.483085 0
M  V30 523 H 52.2426 1.54819 0.21468 0
M  V30 524 H 52.9776 1.7309 2.74245 0
M  V30 525 H 52.7626 3.35542 2.02865 0
M  V30 526 H 54.2526 2.96646 2.93923 0
M  V30 527 N 54.6897 -0.239769 1.55765 0
M  V30 528 C 55.9177 -0.98417 1.81994 0
M  V30 529 C 56.3327 -1.7867 0.610124 0
M  V30 530 O 55.6897 -1.77571 -0.421271 0
M  V30 531 C 55.7407 -1.91635 3.06526 0
M  V30 532 O 55.4617 -1.14629 4.22838 0
M  V30 533 C 56.9627 -2.77616 3.45607 0
M  V30 534 H 54.1827 -0.28928 0.605441 0
M  V30 535 H 56.7267 -0.260499 2.02834 0
M  V30 536 H 54.8817 -2.5942 2.87715 0
M  V30 537 H 55.2957 -1.77745 4.93464 0
M  V30 538 H 56.7697 -3.38759 4.35828 0
M  V30 539 H 57.2467 -3.4909 2.6652 0
M  V30 540 H 57.8527 -2.15271 3.66795 0
M  V30 541 N 56.1678 -1.49265 -0.50573 0
M  V30 542 C 57.1308 -1.65075 -1.59006 0
M  V30 543 C 58.1308 -0.522768 -1.52065 0
M  V30 544 O 59.3208 -0.789117 -1.55302 0
M  V30 545 C 56.4528 -1.64369 -2.98656 0
M  V30 546 H 57.6458 -2.61784 -1.46319 0
M  V30 547 H 55.1988 -1.38226 -0.729616 0
M  V30 548 H 55.9338 -0.692272 -3.16825 0
M  V30 549 H 55.7188 -2.46282 -3.05103 0
M  V30 550 H 57.2088 -1.78674 -3.77446 0
M  V30 551 N 57.6459 0.756429 -1.3826 0
M  V30 552 C 58.8759 1.54341 -1.3734 0
M  V30 553 C 59.2839 1.89159 0.0393917 0
M  V30 554 O 58.6269 1.5307 1.01565 0
M  V30 555 C 58.6889 2.87238 -2.16182 0
M  V30 556 C 58.3529 2.74973 -3.65019 0
M  V30 557 C 59.3499 2.44962 -4.58574 0
M  V30 558 C 57.0349 2.92515 -4.08338 0
M  V30 559 C 59.0289 2.32642 -5.93428 0
M  V30 560 C 56.7159 2.79815 -5.43274 0
M  V30 561 C 57.7139 2.49921 -6.35632 0
M  V30 562 O 57.4019 2.37275 -7.68086 0
M  V30 563 H 57.1339 0.484281 -0.471643 0
M  V30 564 H 59.6879 0.944152 -1.82414 0
M  V30 565 H 57.9179 3.49342 -1.65822 0
M  V30 566 H 59.6069 3.48731 -2.07705 0
M  V30 567 H 60.3729 2.31081 -4.26412 0
M  V30 568 H 56.2519 3.14781 -3.368 0
M  V30 569 H 59.7959 2.0923 -6.65484 0
M  V30 570 H 55.6929 2.93269 -5.75034 0
M  V30 571 H 56.4609 2.52509 -7.78577 0
M  V30 572 N 59.124 1.23083 0.984299 0
M  V30 573 C 60.054 1.03292 2.09411 0
M  V30 574 C 61.035 -0.048923 1.7003 0
M  V30 575 O 62.22 0.114967 1.93859 0
M  V30 576 C 59.35 0.619155 3.41736 0
M  V30 577 C 58.304 1.64791 3.95004 0
M  V30 578 C 57.63 1.0897 5.23478 0
M  V30 579 C 58.93 3.03999 4.24714 0
M  V30 580 H 60.624 1.96119 2.26225 0
M  V30 581 H 58.17 0.944344 1.08711 0
M  V30 582 H 60.123 0.467777 4.18796 0
M  V30 583 H 58.847 -0.344786 3.24775 0
M  V30 584 H 57.506 1.78721 3.20085 0
M  V30 585 H 57.154 0.11686 5.02864 0
M  V30 586 H 56.854 1.77704 5.60085 0
M  V30 587 H 58.378 0.950093 6.03163 0
M  V30 588 H 59.792 2.93393 4.92538 0
M  V30 589 H 58.189 3.69936 4.72512 0
M  V30 590 H 59.259 3.53285 3.32142 0
M  V30 591 N 60.6021 -1.18246 1.0419 0
M  V30 592 C 61.5651 -2.20128 0.638452 0
M  V30 593 C 62.5651 -1.57885 -0.304805 0
M  V30 594 O 63.7551 -1.73967 -0.0900369 0
M  V30 595 C 60.8871 -3.4084 -0.0637751 0
M  V30 596 H 62.0801 -2.57336 1.54007 0
M  V30 597 H 59.6331 -1.32152 0.834598 0
M  V30 598 H 60.3681 -3.09166 -0.979136 0
M  V30 599 H 60.1531 -3.8726 0.614198 0
M  V30 600 H 61.6431 -4.16274 -0.332512 0
M  V30 601 N 62.0802 -0.821533 -1.34494 0
M  V30 602 C 63.0102 -0.257138 -2.3208 0
M  V30 603 C 63.9912 0.625645 -1.58176 0
M  V30 604 O 65.1762 0.552811 -1.86166 0
M  V30 605 C 62.3062 0.582958 -3.42372 0
M  V30 606 C 61.2602 -0.202571 -4.2752 0
M  V30 607 C 60.5862 0.760179 -5.29269 0
M  V30 608 C 61.8862 -1.40998 -5.02908 0
M  V30 609 H 63.5802 -1.07247 -2.79532 0
M  V30 610 H 61.1262 -0.517163 -1.34393 0
M  V30 611 H 63.0792 0.987972 -4.09655 0
M  V30 612 H 61.8032 1.43133 -2.93565 0
M  V30 613 H 60.4622 -0.588936 -3.61838 0
M  V30 614 H 60.1102 1.60447 -4.76724 0
M  V30 615 H 59.8102 0.238809 -5.87115 0
M  V30 616 H 61.3342 1.16308 -5.9942 0
M  V30 617 H 62.7482 -1.07905 -5.63054 0
M  V30 618 H 61.1452 -1.86689 -5.70322 0
M  V30 619 H 62.2152 -2.1889 -4.32684 0
M  V30 620 N 63.5583 1.46682 -0.576371 0
M  V30 621 C 64.8043 2.02712 -0.0596221 0
M  V30 622 C 65.1373 1.44765 1.29448 0
M  V30 623 O 64.4123 0.610355 1.84675 0
M  V30 624 C 64.6953 3.60098 0.0129503 0
M  V30 625 C 64.5483 4.28441 -1.3696 0
M  V30 626 C 65.8673 4.34224 0.71678 0
M  V30 627 H 62.9863 0.736637 -0.0231407 0
M  V30 628 H 65.6283 1.74898 -0.742351 0
M  V30 629 H 63.7783 3.83926 0.594378 0
M  V30 630 H 65.4503 4.15896 -1.9957 0
M  V30 631 H 63.6933 3.8805 -1.93907 0
M  V30 632 H 64.3643 5.3716 -1.27135 0
M  V30 633 H 66.8403 4.15503 0.222908 0
M  V30 634 H 65.7163 5.43936 0.73657 0
M  V30 635 H 65.9773 4.04823 1.77682 0
M  V30 636 N 65.0364 0.313813 1.54444 0
M  V30 637 C 65.9664 -0.549454 2.26943 0
M  V30 638 C 66.9474 -1.12741 1.27372 0
M  V30 639 O 68.1324 -1.15436 1.56167 0
M  V30 640 C 65.2624 -1.71523 3.01989 0
M  V30 641 C 64.2164 -1.26703 4.08816 0
M  V30 642 C 63.5424 -2.51898 4.71647 0
M  V30 643 C 64.8424 -0.388962 5.2085 0
M  V30 644 H 66.5364 0.0552661 2.99349 0
M  V30 645 H 64.0824 0.0280207 1.43973 0
M  V30 646 H 66.0354 -2.32535 3.51433 0
M  V30 647 H 64.7594 -2.34639 2.27183 0
M  V30 648 H 63.4184 -0.679896 3.6024 0
M  V30 649 H 63.0664 -3.13356 3.93468 0
M  V30 650 H 62.7664 -2.22605 5.43802 0
M  V30 651 H 64.2904 -3.1369 5.23861 0
M  V30 652 H 65.7044 -0.905107 5.6611 0
M  V30 653 H 64.1014 -0.18924 5.99802 0
M  V30 654 H 65.1714 0.582699 4.81386 0
M  V30 655 N 66.5145 -1.57545 0.0417849 0
M  V30 656 C 67.7605 -1.92601 -0.635021 0
M  V30 657 C 68.0935 -0.919627 -1.71045 0
M  V30 658 O 67.3685 0.0557892 -1.9442 0
M  V30 659 C 67.6515 -3.38085 -1.23979 0
M  V30 660 C 67.5045 -4.49467 -0.173057 0
M  V30 661 C 68.8235 -3.83776 -2.15416 0
M  V30 662 H 65.9425 -0.700397 -0.229374 0
M  V30 663 H 68.5845 -1.89728 0.101633 0
M  V30 664 H 66.7345 -3.40664 -1.86762 0
M  V30 665 H 68.4065 -4.59018 0.458312 0
M  V30 666 H 66.6495 -4.30909 0.499996 0
M  V30 667 H 67.3205 -5.48323 -0.636054 0
M  V30 668 H 69.7965 -3.83013 -1.62605 0
M  V30 669 H 68.6725 -4.8624 -2.54679 0
M  V30 670 H 68.9335 -3.19998 -3.05047 0
M  V30 671 N 67.9926 0.231505 -1.5589 0
M  V30 672 C 68.9556 1.27028 -1.90779 0
M  V30 673 C 69.9556 1.40308 -0.785507 0
M  V30 674 O 71.1456 1.38744 -1.05336 0
M  V30 675 C 68.2776 2.64566 -2.14983 0
M  V30 676 H 69.4706 0.973017 -2.83677 0
M  V30 677 H 67.0236 0.471486 -1.49019 0
M  V30 678 H 67.7586 2.99406 -1.24604 0
M  V30 679 H 67.5436 2.56305 -2.96732 0
M  V30 680 H 69.0336 3.39543 -2.43105 0
M  V30 681 N 69.4707 1.49531 0.497807 0
M  V30 682 C 70.7167 1.59415 1.25358 0
M  V30 683 C 71.0497 0.281422 1.9215 0
M  V30 684 O 70.3247 -0.715249 1.80871 0
M  V30 685 C 70.6077 2.75566 2.3181 0
M  V30 686 C 70.4607 4.16642 1.69498 0
M  V30 687 C 71.7797 2.87347 3.33346 0
M  V30 688 H 68.8987 0.580244 0.454408 0
M  V30 689 H 71.5407 1.81827 0.551262 0
M  V30 690 H 69.6907 2.56587 2.91711 0
M  V30 691 H 71.3627 4.47145 1.13399 0
M  V30 692 H 69.6057 4.22141 0.998978 0
M  V30 693 H 70.2767 4.93792 2.46725 0
M  V30 694 H 72.7527 3.04634 2.83438 0
M  V30 695 H 71.6287 3.70289 4.05188 0
M  V30 696 H 71.8897 1.96834 3.95865 0
M  V30 697 N 70.9488 -0.749086 1.3866 0
M  V30 698 C 72.1768 -1.53834 1.38358 0
M  V30 699 C 72.5918 -1.88783 -0.0255219 0
M  V30 700 O 71.9488 -1.53101 -0.993292 0
M  V30 701 C 71.9998 -2.83468 2.2434 0
M  V30 702 O 71.7208 -2.50008 3.5976 0
M  V30 703 C 73.2218 -3.7758 2.32267 0
M  V30 704 H 70.4418 -0.47585 0.473083 0
M  V30 705 H 72.9858 -0.926726 1.82297 0
M  V30 706 H 71.1408 -3.40995 1.83851 0
M  V30 707 H 71.5548 -3.33182 4.05081 0
M  V30 708 H 73.0288 -4.65478 2.96706 0
M  V30 709 H 73.5058 -4.18334 1.33765 0
M  V30 710 H 74.1118 -3.25976 2.73166 0
M  V30 711 N 72.4269 -1.23603 -0.977757 0
M  V30 712 C 73.6749 -1.06759 -1.71601 0
M  V30 713 C 73.9959 0.395929 -1.90938 0
M  V30 714 O 73.2659 1.28356 -1.47992 0
M  V30 715 H 71.8459 -0.392062 -0.635843 0
M  V30 716 H 74.5079 -1.55362 -1.1768 0
M  V30 717 H 73.6039 -1.55763 -2.70452 0
M  V30 718 N 73.905 1.17692 -1.04816 0
M  V30 719 C 74.853 2.23632 -0.63966 0
M  V30 720 C 75.847 1.6601 0.337219 0
M  V30 721 O 77.053 1.78844 0.203693 0
M  V30 722 H 73.428 0.727949 -0.188665 0
M  V30 723 H 75.399 2.55387 -1.54337 0
M  V30 724 C 74.148 3.4769 -0.0264051 0
M  V30 725 H 73.471 3.92331 -0.769164 0
M  V30 726 H 74.911 4.23418 0.222098 0
M  V30 727 C 73.37 3.13807 1.22584 0
M  V30 728 O 73.9 3.28236 2.31569 0
M  V30 729 N 72.106 2.68065 1.12202 0
M  V30 730 H 71.653 2.56525 0.235133 0
M  V30 731 H 71.611 2.45767 1.96076 0
M  V30 732 N 75.3831 0.828654 1.34056 0
M  V30 733 C 76.3461 0.259927 2.27721 0
M  V30 734 C 77.3461 -0.565478 1.50529 0
M  V30 735 O 78.5361 -0.38075 1.69988 0
M  V30 736 C 75.6681 -0.634944 3.34935 0
M  V30 737 H 76.8611 1.0863 2.79534 0
M  V30 738 H 74.4141 0.600951 1.44285 0
M  V30 739 H 75.1491 -1.48416 2.88346 0
M  V30 740 H 74.9341 -0.0444999 3.92075 0
M  V30 741 H 76.4241 -1.02648 4.04788 0
M  V30 742 N 76.8612 -1.46375 0.584142 0
M  V30 743 C 78.1102 -2.01585 0.0679741 0
M  V30 744 C 78.4232 -1.46109 -1.30045 0
M  V30 745 O 79.6292 -1.93148 -1.90804 0
M  V30 746 C 78.0852 -3.5983 0.0709207 0
M  V30 747 C 77.6932 -4.24303 1.43775 0
M  V30 748 C 79.4372 -4.22693 -0.391228 0
M  V30 749 C 77.3442 -5.74631 1.39834 0
M  V30 750 H 76.2742 -0.753689 0.0216421 0
M  V30 751 H 78.9252 -1.68093 0.736001 0
M  V30 752 H 77.3072 -3.90405 -0.663299 0
M  V30 753 H 78.4812 -4.05335 2.19181 0
M  V30 754 H 76.7962 -3.73539 1.84004 0
M  V30 755 H 79.3932 -5.3289 -0.439524 0
M  V30 756 H 79.7362 -3.91728 -1.40906 0
M  V30 757 H 80.2692 -3.96749 0.288974 0
M  V30 758 H 77.0082 -6.10258 2.39303 0
M  V30 759 H 76.5282 -5.95858 0.686505 0
M  V30 760 H 78.2072 -6.37375 1.11187 0
M  V30 761 N 78.3393 -0.321999 -1.54275 0
M  V30 762 C 79.5853 0.281461 -2.00837 0
M  V30 763 C 79.9183 1.51909 -1.20985 0
M  V30 764 O 79.1933 1.923 -0.291733 0
M  V30 765 C 79.4763 0.617162 -3.54772 0
M  V30 766 C 79.3293 -0.631064 -4.45351 0
M  V30 767 C 80.6483 1.43542 -4.16033 0
M  V30 768 H 77.7673 0.100826 -0.730071 0
M  V30 769 H 80.4093 -0.438268 -1.84876 0
M  V30 770 H 78.5593 1.23034 -3.68504 0
M  V30 771 H 80.2313 -1.26934 -4.43492 0
M  V30 772 H 78.4743 -1.26025 -4.15091 0
M  V30 773 H 79.1453 -0.351735 -5.50878 0
M  V30 774 H 81.6213 0.917134 -4.05867 0
M  V30 775 H 80.4973 1.63907 -5.23856 0
M  V30 776 H 80.7583 2.43108 -3.69257 0
M  V30 777 N 79.8174 1.5752 -0.0501392 0
M  V30 778 C 81.0664 1.91827 0.623328 0
M  V30 779 C 81.3794 0.930222 1.72065 0
M  V30 780 O 82.5854 1.1653 2.4522 0
M  V30 781 C 81.0414 3.40692 1.16003 0
M  V30 782 C 80.6494 4.479 0.0948811 0
M  V30 783 C 82.3934 3.84034 1.80881 0
M  V30 784 C 80.3004 5.87879 0.644411 0
M  V30 785 H 79.2304 0.715918 0.236596 0
M  V30 786 H 81.8814 1.83115 -0.118861 0
M  V30 787 H 80.2634 3.44405 1.9545 0
M  V30 788 H 81.4374 4.55775 -0.678675 0
M  V30 789 H 79.7524 4.13892 -0.45637 0
M  V30 790 H 82.3494 4.85984 2.22988 0
M  V30 791 H 82.6924 3.20225 2.6601 0
M  V30 792 H 83.2254 3.82833 1.0809 0
M  V30 793 H 79.9644 6.55282 -0.169229 0
M  V30 794 H 79.4844 5.83567 1.38598 0
M  V30 795 H 81.1634 6.37098 1.12763 0
M  V30 796 N 81.2955 -0.223234 1.56011 0
M  V30 797 C 82.5415 -0.944891 1.8012 0
M  V30 798 C 82.8965 -1.82039 0.622862 0
M  V30 799 O 82.1895 -1.8773 -0.383143 0
M  V30 800 C 82.3835 -1.81948 3.0762 0
M  V30 801 C 82.2125 -1.03014 4.37742 0
M  V30 802 C 80.9825 -0.72574 5.00061 0
M  V30 803 C 83.1805 -0.396256 5.12771 0
M  V30 804 N 81.1625 0.0851816 6.13841 0
M  V30 805 C 82.5335 0.278137 6.19376 0
M  V30 806 C 84.5885 -0.309117 4.9694 0
M  V30 807 C 83.2915 1.03133 7.11868 0
M  V30 808 C 85.3175 0.430607 5.8983 0
M  V30 809 C 84.6795 1.09355 6.9586 0
M  V30 810 H 80.7785 -0.326081 0.710771 0
M  V30 811 H 83.3625 -0.215914 1.93499 0
M  V30 812 H 81.5335 -2.52029 2.95527 0
M  V30 813 H 83.2655 -2.47848 3.19927 0
M  V30 814 H 80.0205 -1.04335 4.61964 0
M  V30 815 H 80.4445 0.479428 6.753 0
M  V30 816 H 85.0865 -0.807313 4.15021 0
M  V30 817 H 82.8045 1.54105 7.9327 0
M  V30 818 H 86.3905 0.499012 5.79656 0
M  V30 819 H 85.2705 1.65679 7.66499 0
M  V30 820 N 82.7736 -1.49793 -0.48987 0
M  V30 821 C 84.0226 -1.59085 -1.23995 0
M  V30 822 C 84.3356 -0.287907 -1.9347 0
M  V30 823 O 85.5416 -0.259506 -2.70257 0
M  V30 824 C 83.9976 -2.80736 -2.252 0
M  V30 825 C 83.6056 -4.17833 -1.61614 0
M  V30 826 C 85.3496 -2.99364 -3.00967 0
M  V30 827 C 83.2566 -5.30693 -2.60996 0
M  V30 828 H 82.1866 -0.592372 -0.466488 0
M  V30 829 H 84.8376 -1.76197 -0.51252 0
M  V30 830 H 83.2196 -2.57142 -3.01154 0
M  V30 831 H 84.3936 -4.51608 -0.915774 0
M  V30 832 H 82.7086 -4.04656 -0.981977 0
M  V30 833 H 85.3056 -3.80851 -3.75308 0
M  V30 834 H 85.6486 -2.10356 -3.59244 0
M  V30 835 H 86.1816 -3.2305 -2.32128 0
M  V30 836 H 82.9206 -6.21796 -2.07485 0
M  V30 837 H 82.4406 -5.01359 -3.2924 0
M  V30 838 H 84.1196 -5.6049 -3.23202 0
M  V30 839 N 84.2517 0.741722 -1.39055 0
M  V30 840 C 85.5007 1.49656 -1.35225 0
M  V30 841 C 85.8137 1.95533 0.0512708 0
M  V30 842 O 87.0197 2.7067 0.212138 0
M  V30 843 C 85.4757 2.70389 -2.37525 0
M  V30 844 C 85.0837 2.31489 -3.83558 0
M  V30 845 C 86.8277 3.48236 -2.42759 0
M  V30 846 C 84.7347 3.48903 -4.77515 0
M  V30 847 H 83.6647 0.56197 -0.502699 0
M  V30 848 H 86.3157 0.809727 -1.64668 0
M  V30 849 H 84.6977 3.41113 -2.01142 0
M  V30 850 H 85.8717 1.68354 -4.28945 0
M  V30 851 H 84.1867 1.66749 -3.81554 0
M  V30 852 H 86.7837 4.35558 -3.1015 0
M  V30 853 H 87.1267 3.90229 -1.45008 0
M  V30 854 H 87.6597 2.84535 -2.78002 0
M  V30 855 H 84.3987 3.11966 -5.76504 0
M  V30 856 H 83.9187 4.11041 -4.36813 0
M  V30 857 H 85.5977 4.15328 -4.96096 0
M  V30 858 N 85.7298 1.2412 0.971189 0
M  V30 859 C 86.6598 1.05508 2.08304 0
M  V30 860 C 87.6408 -0.0308864 1.70072 0
M  V30 861 O 88.8258 0.135521 1.93727 0
M  V30 862 C 85.9558 0.655365 3.4106 0
M  V30 863 C 84.9098 1.68971 3.93234 0
M  V30 864 C 84.2358 1.14516 5.22293 0
M  V30 865 C 85.5358 3.08487 4.21465 0
M  V30 866 H 87.2298 1.98507 2.24132 0
M  V30 867 H 84.7758 0.955821 1.07704 0
M  V30 868 H 86.7288 0.51217 4.18276 0
M  V30 869 H 85.4528 -0.31032 3.25122 0
M  V30 870 H 84.1118 1.82106 3.18171 0
M  V30 871 H 83.7598 0.170189 5.02712 0
M  V30 872 H 83.4598 1.83635 5.58168 0
M  V30 873 H 84.9838 1.01401 6.02121 0
M  V30 874 H 86.3978 2.98601 4.89398 0
M  V30 875 H 84.7948 3.74926 4.68562 0
M  V30 876 H 85.8648 3.56787 3.28376 0
M  V30 877 N 87.2079 -1.17134 1.05439 0
M  V30 878 C 88.1709 -2.19439 0.661764 0
M  V30 879 C 89.1709 -1.58199 -0.288042 0
M  V30 880 O 90.3609 -1.74053 -0.0715803 0
M  V30 881 C 87.4929 -3.40889 -0.0276209 0
M  V30 882 H 88.6859 -2.55688 1.56728 0
M  V30 883 H 86.2389 -1.31259 0.848567 0
M  V30 884 H 86.9739 -3.10187 -0.94629 0
M  V30 885 H 86.7589 -3.86586 0.655238 0
M  V30 886 H 88.2489 -4.16603 -0.288342 0
M  V30 887 N 88.686 -0.835752 -1.33615 0
M  V30 888 C 89.636 -0.238856 -2.26745 0
M  V30 889 C 90.62 0.604343 -1.49119 0
M  V30 890 O 91.812 0.456822 -1.71003 0
M  V30 891 C 88.941 0.587725 -3.38232 0
M  V30 892 C 88.027 -0.266811 -4.2326 0
M  V30 893 N 88.418 -1.34403 -4.87616 0
M  V30 894 C 86.716 -0.0533131 -4.45968 0
M  V30 895 C 87.417 -1.86819 -5.50884 0
M  V30 896 N 86.393 -1.17013 -5.30857 0
M  V30 897 H 90.195 -1.06266 -2.74016 0
M  V30 898 H 87.709 -0.679881 -1.47483 0
M  V30 899 H 89.706 1.03161 -4.03935 0
M  V30 900 H 88.366 1.40954 -2.9251 0
M  V30 901 H 89.377 -1.7269 -4.88261 0
M  V30 902 H 86.054 0.735312 -4.10974 0
M  V30 903 H 87.444 -2.7701 -6.1214 0
M  V30 904 N 90.1641 1.46063 -0.591896 0
M  V30 905 C 91.5801 1.57561 -0.254288 0
M  V30 906 C 91.7801 1.58565 1.24336 0
M  V30 907 O 90.8361 1.50753 2.02558 0
M  V30 908 C 92.1491 2.86549 -0.911611 0
M  V30 909 C 93.6971 3.00197 -0.886059 0
M  V30 910 C 94.1721 4.31933 -1.5231 0
M  V30 911 N 95.6631 4.38654 -1.48786 0
M  V30 912 C 96.3981 5.39222 -1.95006 0
M  V30 913 N 95.8941 6.46414 -2.49241 0
M  V30 914 N 97.6871 5.3048 -1.85868 0
M  V30 915 H 89.8381 1.43655 -1.56451 0
M  V30 916 H 92.1011 0.68583 -0.654478 0
M  V30 917 H 91.8071 2.91651 -1.96551 0
M  V30 918 H 91.6811 3.74794 -0.425368 0
M  V30 919 H 94.0681 2.9467 0.159246 0
M  V30 920 H 94.1491 2.13403 -1.41041 0
M  V30 921 H 93.7931 4.38217 -2.56765 0
M  V30 922 H 93.7231 5.17516 -0.973891 0
M  V30 923 H 96.2141 3.61793 -1.09151 0
M  V30 924 H 96.5271 7.19376 -2.82344 0
M  V30 925 H 94.8721 6.47208 -2.53272 0
M  V30 926 H 98.0631 4.45643 -1.43248 0
M  V30 927 H 98.2361 6.08711 -2.22204 0
M  V30 928 N 91.6422 0.330177 1.54103 0
M  V30 929 C 93.0582 -0.0222371 1.59585 0
M  V30 930 C 93.2582 -1.49902 1.34654 0
M  V30 931 O 92.3142 -2.25592 1.13421 0
M  V30 932 C 93.6272 0.401932 2.98002 0
M  V30 933 C 95.1752 0.353145 3.11001 0
M  V30 934 C 95.6502 0.752576 4.51775 0
M  V30 935 N 97.1412 0.706239 4.57784 0
M  V30 936 C 97.8762 0.987417 5.64834 0
M  V30 937 N 97.3722 1.33607 6.79795 0
M  V30 938 N 99.1652 0.91254 5.54643 0
M  V30 939 H 91.3162 1.29228 1.68564 0
M  V30 940 H 93.5792 0.525906 0.78875 0
M  V30 941 H 93.2852 1.4311 3.21267 0
M  V30 942 H 93.1592 -0.229699 3.765 0
M  V30 943 H 95.5462 -0.666822 2.87467 0
M  V30 944 H 95.6272 1.0198 2.34593 0
M  V30 945 H 95.2712 1.77049 4.76042 0
M  V30 946 H 95.2012 0.0635409 5.26562 0
M  V30 947 H 97.6922 0.44889 3.75224 0
M  V30 948 H 98.0052 1.53582 7.57385 0
M  V30 949 H 96.3502 1.37439 6.81275 0
M  V30 950 H 99.5412 0.639601 4.6371 0
M  V30 951 H 99.7142 1.13503 6.37982 0
M  V30 952 N 93.1203 -1.57491 0.0584922 0
M  V30 953 C 94.0533 -2.07533 -0.948969 0
M  V30 954 C 95.0313 -0.977444 -1.29942 0
M  V30 955 O 96.2153 -1.2499 -1.41102 0
M  V30 956 C 93.3423 -2.52192 -2.2609 0
M  V30 957 C 92.3883 -3.73287 -2.06298 0
M  V30 958 S 93.2213 -5.18603 -1.33459 0
M  V30 959 C 94.3773 -5.66583 -2.65959 0
M  V30 960 H 94.6103 -2.92662 -0.523118 0
M  V30 961 H 92.1433 -1.53631 -0.153954 0
M  V30 962 H 94.1013 -2.78585 -3.01498 0
M  V30 963 H 92.7623 -1.67356 -2.65802 0
M  V30 964 H 91.9553 -4.0248 -3.03357 0
M  V30 965 H 91.5573 -3.47199 -1.39029 0
M  V30 966 H 93.8493 -5.72616 -3.62101 0
M  V30 967 H 94.7923 -6.65684 -2.41393 0
M  V30 968 H 95.2003 -4.94342 -2.72554 0
M  V30 969 N 94.5984 0.214957 -1.56127 0
M  V30 970 C 96.0144 0.564948 -1.49267 0
M  V30 971 C 96.2144 1.86827 -0.754838 0
M  V30 972 O 95.2704 2.50745 -0.297198 0
M  V30 973 C 96.5834 0.638071 -2.93852 0
M  V30 974 C 98.1314 0.728253 -3.0441 0
M  V30 975 C 98.6064 0.832663 -4.50367 0
M  V30 976 N 100.097 0.896712 -4.54437 0
M  V30 977 C 100.832 0.997324 -5.6466 0
M  V30 978 N 100.328 1.06147 -6.8462 0
M  V30 979 N 102.121 1.03297 -5.52527 0
M  V30 980 H 94.2724 -0.640211 -2.02522 0
M  V30 981 H 96.5354 -0.225507 -0.920788 0
M  V30 982 H 96.2414 -0.250126 -3.50809 0
M  V30 983 H 96.1154 1.49947 -3.46115 0
M  V30 984 H 98.5024 1.60689 -2.47514 0
M  V30 985 H 98.5834 -0.158952 -2.55306 0
M  V30 986 H 98.2274 -0.0415417 -5.07883 0
M  V30 987 H 98.1574 1.73538 -4.97184 0
M  V30 988 H 100.648 0.857188 -3.6805 0
M  V30 989 H 100.961 1.1382 -7.64372 0
M  V30 990 H 99.3064 1.03049 -6.87318 0
M  V30 991 H 102.497 0.979558 -4.57736 0
M  V30 992 H 102.67 1.10793 -6.38458 0
M  V30 993 N 96.0765 1.50051 0.48192 0
M  V30 994 C 97.3045 1.64237 1.25832 0
M  V30 995 C 97.7195 0.321336 1.86045 0
M  V30 996 O 97.0765 -0.695478 1.68729 0
M  V30 997 C 97.1275 2.72548 2.37487 0
M  V30 998 O 96.8485 3.99529 1.79745 0
M  V30 999 C 98.3495 2.9761 3.28547 0
M  V30 1000 H 95.5695 0.55237 0.380957 0
M  V30 1001 H 98.1135 1.96207 0.576467 0
M  V30 1002 H 96.2685 2.43303 3.01467 0
M  V30 1003 H 96.6825 4.59342 2.5319 0
M  V30 1004 H 98.1565 3.77084 4.03127 0
M  V30 1005 H 98.6335 2.0826 3.86684 0
M  V30 1006 H 99.2395 3.28345 2.70314 0
M  V30 1007 N 97.5546 -0.734337 1.39446 0
M  V30 1008 C 98.8006 -1.49613 1.36908 0
M  V30 1009 C 99.1336 -1.94169 -0.0347829 0
M  V30 1010 O 98.4086 -1.66833 -0.999847 0
M  V30 1011 C 98.6916 -2.73534 2.34203 0
M  V30 1012 C 98.5446 -2.34993 3.83534 0
M  V30 1013 C 99.8636 -3.75635 2.29317 0
M  V30 1014 H 96.9826 -0.542714 0.498629 0
M  V30 1015 H 99.6246 -0.839597 1.70443 0
M  V30 1016 H 97.7746 -3.29553 2.05736 0
M  V30 1017 H 99.4466 -1.84601 4.22753 0
M  V30 1018 H 97.6896 -1.67213 4.00278 0
M  V30 1019 H 98.3606 -3.23738 4.47099 0
M  V30 1020 H 100.837 -3.29203 2.54489 0
M  V30 1021 H 99.7126 -4.60008 2.99472 0
M  V30 1022 H 99.9736 -4.22603 1.29842 0
M  V30 1023 N 99.0327 -1.24633 -0.964593 0
M  V30 1024 C 100.261 -1.11501 -1.74285 0
M  V30 1025 C 100.676 0.332165 -1.85855 0
M  V30 1026 O 100.033 1.22903 -1.34911 0
M  V30 1027 C 100.084 -1.75258 -3.16175 0
M  V30 1028 O 99.8047 -3.14318 -3.05182 0
M  V30 1029 C 101.306 -1.67776 -4.10324 0
M  V30 1030 H 98.5257 -0.389407 -0.546446 0
M  V30 1031 H 101.07 -1.64801 -1.21083 0
M  V30 1032 H 99.2247 -1.25954 -3.66353 0
M  V30 1033 H 99.6387 -3.4551 -3.94618 0
M  V30 1034 H 101.113 -2.17064 -5.0753 0
M  V30 1035 H 101.59 -0.639584 -4.34518 0
M  V30 1036 H 102.196 -2.16522 -3.66058 0
M  V30 1037 N 100.511 1.16574 -1.06058 0
M  V30 1038 C 101.459 2.22941 -0.663343 0
M  V30 1039 C 102.453 1.66358 0.319593 0
M  V30 1040 O 103.659 1.7905 0.184713 0
M  V30 1041 H 100.034 0.725907 -0.196376 0
M  V30 1042 H 102.005 2.53736 -1.57037 0
M  V30 1043 C 100.754 3.47642 -0.0632808 0
M  V30 1044 H 100.077 3.91493 -0.810733 0
M  V30 1045 H 101.517 4.2363 0.177177 0
M  V30 1046 C 99.9758 3.1509 1.19248 0
M  V30 1047 O 100.506 3.30673 2.28075 0
M  V30 1048 N 98.7118 2.6924 1.09353 0
M  V30 1049 H 98.2588 2.5676 0.207912 0
M  V30 1050 H 98.2168 2.47833 1.93458 0
M  V30 1051 N 101.989 0.842826 1.3317 0
M  V30 1052 C 103.219 0.453397 2.01564 0
M  V30 1053 C 103.627 -0.951147 1.63554 0
M  V30 1054 O 102.97 -1.63021 0.846746 0
M  V30 1055 C 103.032 0.499013 3.5602 0
M  V30 1056 C 102.696 1.86037 4.1742 0
M  V30 1057 C 103.693 2.82416 4.36506 0
M  V30 1058 C 101.378 2.15428 4.53757 0
M  V30 1059 C 103.372 4.06346 4.91082 0
M  V30 1060 C 101.059 3.39615 5.0804 0
M  V30 1061 C 102.057 4.3489 5.26649 0
M  V30 1062 O 101.745 5.5688 5.79776 0
M  V30 1063 H 101.477 0.177871 0.652179 0
M  V30 1064 H 104.031 1.13808 1.70988 0
M  V30 1065 H 102.261 -0.242467 3.85939 0
M  V30 1066 H 103.95 0.126852 4.05702 0
M  V30 1067 H 104.716 2.6101 4.08777 0
M  V30 1068 H 100.595 1.42061 4.38565 0
M  V30 1069 H 104.139 4.80722 5.05522 0
M  V30 1070 H 100.036 3.60876 5.352 0
M  V30 1071 H 100.804 5.58674 5.98185 0
M  V30 1072 N 103.467 -1.45747 0.599634 0
M  V30 1073 C 104.714 -2.02292 0.0917284 0
M  V30 1074 C 105.042 -1.46906 -1.27472 0
M  V30 1075 O 104.297 -0.630652 -1.8526 0
M  V30 1076 C 104.596 -3.57399 -0.00602758 0
M  V30 1077 C 104.262 -4.31902 1.29503 0
M  V30 1078 C 102.924 -4.51974 1.65144 0
M  V30 1079 C 105.276 -4.74551 2.15525 0
M  V30 1080 C 102.604 -5.11949 2.86574 0
M  V30 1081 C 104.956 -5.35868 3.36196 0
M  V30 1082 C 103.62 -5.54165 3.72099 0
M  V30 1083 H 102.89 -0.740239 0.0335658 0
M  V30 1084 H 105.537 -1.7491 0.779661 0
M  V30 1085 H 103.842 -3.84014 -0.777183 0
M  V30 1086 H 105.539 -3.98846 -0.415038 0
M  V30 1087 H 102.129 -4.16588 1.00761 0
M  V30 1088 H 106.313 -4.58784 1.8929 0
M  V30 1089 H 101.569 -5.24305 3.14507 0
M  V30 1090 H 105.743 -5.6787 4.03109 0
M  V30 1091 H 103.37 -6.00406 4.6628 0
M  V30 1092 N 104.945 -0.338344 -1.53925 0
M  V30 1093 C 106.194 0.260732 -2.00008 0
M  V30 1094 C 106.507 1.52073 -1.23017 0
M  V30 1095 O 107.713 2.19672 -1.5955 0
M  V30 1096 C 106.169 0.51515 -3.56194 0
M  V30 1097 C 105.777 -0.728645 -4.42035 0
M  V30 1098 C 107.521 1.07337 -4.10706 0
M  V30 1099 C 105.428 -0.445315 -5.89721 0
M  V30 1100 H 104.358 0.101205 -0.747177 0
M  V30 1101 H 107.009 -0.452866 -1.77824 0
M  V30 1102 H 105.391 1.28932 -3.74423 0
M  V30 1103 H 106.565 -1.50352 -4.35581 0
M  V30 1104 H 104.88 -1.20813 -3.98489 0
M  V30 1105 H 107.477 1.30022 -5.18651 0
M  V30 1106 H 107.82 2.0273 -3.63602 0
M  V30 1107 H 108.353 0.360034 -3.96167 0
M  V30 1108 H 105.092 -1.36883 -6.41049 0
M  V30 1109 H 104.612 0.291569 -5.99091 0
M  V30 1110 H 106.291 -0.0606218 -6.46972 0
M  V30 1111 N 106.423 1.57458 -0.0668435 0
M  V30 1112 C 107.669 1.93587 0.6043 0
M  V30 1113 C 108.002 0.946722 1.69561 0
M  V30 1114 O 107.277 -0.0248516 1.94484 0
M  V30 1115 C 107.56 3.40014 1.18585 0
M  V30 1116 C 107.413 4.49685 0.101529 0
M  V30 1117 C 108.732 3.87154 2.09284 0
M  V30 1118 H 105.851 0.703958 0.218202 0
M  V30 1119 H 108.493 1.89542 -0.131804 0
M  V30 1120 H 106.643 3.43592 1.81319 0
M  V30 1121 H 108.315 4.5823 -0.531279 0
M  V30 1122 H 106.558 4.30059 -0.568487 0
M  V30 1123 H 107.229 5.49266 0.54874 0
M  V30 1124 H 109.705 3.85551 1.56491 0
M  V30 1125 H 108.581 4.90231 2.46911 0
M  V30 1126 H 108.842 3.2481 2.99918 0
M  V30 1127 N 107.901 -0.206675 1.56239 0
M  V30 1128 C 108.849 -1.27571 1.94495 0
M  V30 1129 C 109.843 -1.47737 0.828862 0
M  V30 1130 O 111.049 -1.48735 1.0138 0
M  V30 1131 H 107.424 -0.428029 0.6183 0
M  V30 1132 H 109.395 -0.925961 2.8367 0
M  V30 1133 C 108.144 -2.61568 2.29079 0
M  V30 1134 H 107.467 -2.46863 3.14482 0
M  V30 1135 H 108.907 -3.35144 2.5972 0
M  V30 1136 C 107.366 -3.17695 1.12123 0
M  V30 1137 O 107.896 -3.99801 0.390153 0
M  V30 1138 N 106.102 -2.76276 0.901097 0
M  V30 1139 H 105.649 -2.09613 1.49733 0
M  V30 1140 H 105.607 -3.1417 0.120319 0
M  V30 1141 N 109.379 -1.50304 -0.473955 0
M  V30 1142 C 110.309 -1.71886 -1.58042 0
M  V30 1143 C 111.29 -0.567799 -1.60344 0
M  V30 1144 O 112.475 -0.806623 -1.76656 0
M  V30 1145 C 109.605 -1.81036 -2.96384 0
M  V30 1146 C 108.559 -2.962 -3.08949 0
M  V30 1147 C 107.885 -2.9049 -4.48909 0
M  V30 1148 C 109.185 -4.36752 -2.86434 0
M  V30 1149 H 110.879 -2.64527 -1.40234 0
M  V30 1150 H 108.425 -1.27295 -0.673201 0
M  V30 1151 H 110.378 -1.94719 -3.73714 0
M  V30 1152 H 109.102 -0.850147 -3.15341 0
M  V30 1153 H 107.761 -2.82164 -2.3405 0
M  V30 1154 H 107.409 -1.92321 -4.64781 0
M  V30 1155 H 107.109 -3.67802 -4.58253 0
M  V30 1156 H 108.633 -3.06218 -5.28264 0
M  V30 1157 H 110.047 -4.5133 -3.53517 0
M  V30 1158 H 108.444 -5.15493 -3.07225 0
M  V30 1159 H 109.514 -4.49321 -1.82316 0
M  V30 1160 N 110.857 0.726932 -1.39834 0
M  V30 1161 C 111.82 1.82269 -1.38962 0
M  V30 1162 C 112.82 1.58248 -0.285334 0
M  V30 1163 O 114.01 1.65499 -0.54366 0
M  V30 1164 C 111.142 3.20186 -1.17019 0
M  V30 1165 H 112.335 1.84443 -2.36476 0
M  V30 1166 H 109.888 0.931416 -1.25516 0
M  V30 1167 H 110.623 3.23669 -0.202204 0
M  V30 1168 H 110.408 3.3902 -1.96998 0
M  V30 1169 H 111.898 4.00235 -1.1917 0
M  V30 1170 N 112.336 1.25143 0.95797 0
M  V30 1171 C 113.266 1.07711 2.07173 0
M  V30 1172 C 114.247 -0.0128462 1.70095 0
M  V30 1173 O 115.432 0.156061 1.93572 0
M  V30 1174 C 112.562 0.691503 3.40346 0
M  V30 1175 C 111.516 1.73132 3.9142 0
M  V30 1176 C 110.842 1.20049 5.21049 0
M  V30 1177 C 112.142 3.1294 4.1817 0
M  V30 1178 H 113.836 2.00873 2.22014 0
M  V30 1179 H 111.382 0.967191 1.06684 0
M  V30 1180 H 113.335 0.556505 4.17709 0
M  V30 1181 H 112.059 -0.275819 3.25433 0
M  V30 1182 H 110.718 1.8547 3.16222 0
M  V30 1183 H 110.366 0.223499 5.02503 0
M  V30 1184 H 110.066 1.89545 5.56189 0
M  V30 1185 H 111.59 1.07782 6.01012 0
M  V30 1186 H 113.004 3.03775 4.86203 0
M  V30 1187 H 111.401 3.79875 4.64559 0
M  V30 1188 H 112.471 3.6025 3.24573 0
M  V30 1189 N 113.814 -1.1601 1.06675 0
M  V30 1190 C 114.777 -2.18724 0.685001 0
M  V30 1191 C 115.777 -1.58496 -0.271246 0
M  V30 1192 O 116.967 -1.74119 -0.0531156 0
M  V30 1193 C 114.099 -3.40899 0.00853648 0
M  V30 1194 H 115.292 -2.54011 1.59431 0
M  V30 1195 H 112.845 -1.30352 0.862441 0
M  V30 1196 H 113.58 -3.11173 -0.913337 0
M  V30 1197 H 113.365 -3.8587 0.696204 0
M  V30 1198 H 114.855 -4.16886 -0.24414 0
M  V30 1199 N 115.292 -0.849877 -1.32721 0
M  V30 1200 C 116.569 -0.372405 -1.92022 0
M  V30 1201 C 116.949 1.1435 -1.77447 0
M  V30 1202 O 116.297 1.96296 -1.16962 0
M  V30 1203 C 116.507 -0.831482 -3.3895 0
M  V30 1204 C 117.855 -0.845882 -4.16089 0
M  V30 1205 O 118.879 -0.775806 -3.47649 0
M  V30 1206 O 117.738 -0.943753 -5.38289 0
M  V30 1207 H 114.832 -0.107667 -0.819961 0
M  V30 1208 H 117.378 -0.93646 -1.41522 0
M  V30 1209 H 116.15 -1.87448 -3.4348 0
M  V30 1210 H 115.773 -0.24461 -3.96847 0
M  V30 1211 N 116.77 1.45427 -0.607355 0
M  V30 1212 C 117.7 2.3329 0.0989352 0
M  V30 1213 C 118.681 1.46816 0.859007 0
M  V30 1214 O 119.866 1.75588 0.829604 0
M  V30 1215 C 116.996 3.29518 1.09705 0
M  V30 1216 C 115.95 4.25626 0.450206 0
M  V30 1217 C 115.276 5.11542 1.55655 0
M  V30 1218 C 116.576 5.18505 -0.628455 0
M  V30 1219 H 118.27 2.92595 -0.634716 0
M  V30 1220 H 115.816 1.40696 -0.306681 0
M  V30 1221 H 117.769 3.89855 1.59971 0
M  V30 1222 H 116.493 2.68372 1.86129 0
M  V30 1223 H 115.152 3.66586 -0.0315886 0
M  V30 1224 H 114.8 4.46765 2.31107 0
M  V30 1225 H 114.5 5.76647 1.12925 0
M  V30 1226 H 116.024 5.74748 2.06148 0
M  V30 1227 H 117.438 5.72916 -0.209877 0
M  V30 1228 H 115.835 5.92085 -0.977489 0
M  V30 1229 H 116.905 4.60948 -1.50514 0
M  V30 1230 N 118.248 0.346503 1.53744 0
M  V30 1231 C 119.488 -0.249413 2.02873 0
M  V30 1232 C 119.852 -1.47532 1.22876 0
M  V30 1233 O 121.053 -2.1456 1.61918 0
M  V30 1234 C 119.324 -0.552909 3.53097 0
M  V30 1235 S 120.883 -1.12521 4.24128 0
M  V30 1236 H 117.701 -0.074042 0.707134 0
M  V30 1237 H 120.303 0.48495 1.8939 0
M  V30 1238 H 119.007 0.347083 4.0893 0
M  V30 1239 H 118.538 -1.31686 3.70705 0
M  V30 1240 H 120.553 -2.41075 4.33702 0
M  V30 1241 N 119.726 -1.57421 0.075193 0
M  V30 1242 C 120.659 -2.08528 -0.926904 0
M  V30 1243 C 121.637 -0.991171 -1.28898 0
M  V30 1244 O 122.821 -1.26479 -1.39769 0
M  V30 1245 C 119.948 -2.54576 -2.23402 0
M  V30 1246 C 118.994 -3.75454 -2.02327 0
M  V30 1247 S 119.827 -5.19989 -1.27951 0
M  V30 1248 C 120.983 -5.69372 -2.59935 0
M  V30 1249 H 121.216 -2.932 -0.492048 0
M  V30 1250 H 118.749 -1.53785 -0.137651 0
M  V30 1251 H 120.707 -2.81767 -2.98526 0
M  V30 1252 H 119.368 -1.70166 -2.64012 0
M  V30 1253 H 118.561 -4.05675 -2.99071 0
M  V30 1254 H 118.163 -3.48654 -1.35339 0
M  V30 1255 H 120.455 -5.76424 -3.56008 0
M  V30 1256 H 121.398 -6.68207 -2.34319 0
M  V30 1257 H 121.806 -4.97205 -2.67296 0
M  V30 1258 N 121.204 0.198386 -1.56346 0
M  V30 1259 C 122.167 1.22952 -1.93431 0
M  V30 1260 C 123.167 1.38611 -0.815092 0
M  V30 1261 O 124.357 1.36479 -1.08255 0
M  V30 1262 C 121.489 2.59946 -2.20546 0
M  V30 1263 H 122.682 0.912626 -2.85677 0
M  V30 1264 H 120.235 0.43977 -1.49986 0
M  V30 1265 H 120.97 2.96696 -1.30927 0
M  V30 1266 H 120.755 2.49953 -3.02102 0
M  V30 1267 H 122.245 3.3431 -2.50253 0
M  V30 1268 N 122.682 1.50554 0.465978 0
M  V30 1269 C 123.645 1.69233 1.54574 0
M  V30 1270 C 124.645 0.562901 1.50626 0
M  V30 1271 O 125.835 0.830016 1.53155 0
M  V30 1272 C 122.967 1.7223 2.94193 0
M  V30 1273 H 124.16 2.65571 1.39327 0
M  V30 1274 H 121.713 1.40111 0.692711 0
M  V30 1275 H 122.448 0.77603 3.14878 0
M  V30 1276 H 122.233 2.54285 2.98466 0
M  V30 1277 H 123.723 1.88618 3.72576 0
M  V30 1278 N 124.16 -0.719506 1.40217 0
M  V30 1279 C 125.407 -1.47933 1.38283 0
M  V30 1280 C 125.735 -1.94493 -0.0161536 0
M  V30 1281 O 124.99 -1.68224 -0.999956 0
M  V30 1282 C 125.289 -2.72271 2.31524 0
M  V30 1283 C 124.955 -2.44496 3.78857 0
M  V30 1284 C 123.617 -2.36631 4.18998 0
M  V30 1285 C 125.969 -2.21104 4.71977 0
M  V30 1286 C 123.297 -2.03437 5.503 0
M  V30 1287 C 125.649 -1.89423 6.03574 0
M  V30 1288 C 124.313 -1.80038 6.42762 0
M  V30 1289 H 123.583 -0.541325 0.506012 0
M  V30 1290 H 126.23 -0.824502 1.72842 0
M  V30 1291 H 124.535 -3.42572 1.90137 0
M  V30 1292 H 126.232 -3.30348 2.27313 0
M  V30 1293 H 122.822 -2.51503 3.47051 0
M  V30 1294 H 127.006 -2.26139 4.41786 0
M  V30 1295 H 122.262 -1.94705 5.79569 0
M  V30 1296 H 126.436 -1.70336 6.75247 0
M  V30 1297 H 124.063 -1.54083 7.44421 0
M  V30 1298 N 125.638 -1.25649 -0.95132 0
M  V30 1299 C 126.586 -1.06118 -2.06982 0
M  V30 1300 C 127.58 0.00889169 -1.69398 0
M  V30 1301 O 128.786 -0.146988 -1.79399 0
M  V30 1302 H 125.161 -0.326248 -0.677544 0
M  V30 1303 H 127.132 -2.00932 -2.2061 0
M  V30 1304 C 125.881 -0.700145 -3.40578 0
M  V30 1305 H 125.204 -1.51537 -3.69968 0
M  V30 1306 H 126.644 -0.603211 -4.19687 0
M  V30 1307 C 125.103 0.59403 -3.31622 0
M  V30 1308 O 125.633 1.63522 -3.66911 0
M  V30 1309 N 123.839 0.58089 -2.84735 0
M  V30 1310 H 123.386 -0.266783 -2.56215 0
M  V30 1311 H 123.344 1.44695 -2.79125 0
M  V30 1312 N 127.117 1.15442 -1.07289 0
M  V30 1313 C 128.08 2.18358 -0.696591 0
M  V30 1314 C 129.08 1.58637 0.262837 0
M  V30 1315 O 130.27 1.74145 0.0438809 0
M  V30 1316 C 127.402 3.4089 -0.0266151 0
M  V30 1317 H 128.595 2.53162 -1.60776 0
M  V30 1318 H 126.148 1.29893 -0.869342 0
M  V30 1319 H 126.883 3.11653 0.896822 0
M  V30 1320 H 126.668 3.85495 -0.716657 0
M  V30 1321 H 128.158 4.17009 0.222028 0
M  V30 1322 N 128.595 0.856903 1.32268 0
M  V30 1323 C 129.558 0.308171 2.27119 0
M  V30 1324 C 130.558 -0.533421 1.51695 0
M  V30 1325 O 131.748 -0.344607 1.70757 0
M  V30 1326 C 128.88 -0.563757 3.36206 0
M  V30 1327 H 130.073 1.14535 2.77167 0
M  V30 1328 H 127.626 0.631421 1.42978 0
M  V30 1329 H 128.361 -1.42266 2.91429 0
M  V30 1330 H 128.146 0.0386749 3.92081 0
M  V30 1331 H 129.636 -0.940386 4.06874 0
M  V30 1332 N 130.073 -1.45103 0.615059 0
M  V30 1333 C 131.32 -2.02183 0.113179 0
M  V30 1334 C 131.648 -1.48249 -1.25906 0
M  V30 1335 O 130.903 -0.650265 -1.84581 0
M  V30 1336 C 131.202 -3.57386 0.0318797 0
M  V30 1337 C 130.868 -4.30505 1.34077 0
M  V30 1338 C 129.53 -4.50197 1.69929 0
M  V30 1339 C 131.882 -4.72238 2.20546 0
M  V30 1340 C 129.21 -5.08881 2.91988 0
M  V30 1341 C 131.562 -5.32272 3.41861 0
M  V30 1342 C 130.226 -5.50187 3.77956 0
M  V30 1343 H 129.496 -0.739842 0.0414151 0
M  V30 1344 H 132.143 -1.74073 0.798168 0
M  V30 1345 H 130.448 -3.84817 -0.736409 0
M  V30 1346 H 132.145 -3.99264 -0.372712 0
M  V30 1347 H 128.735 -4.15496 1.05173 0
M  V30 1348 H 132.919 -4.56751 1.94146 0
M  V30 1349 H 128.175 -5.20939 3.2005 0
M  V30 1350 H 132.349 -5.63563 4.09109 0
M  V30 1351 H 129.976 -5.95427 4.72622 0
M  V30 1352 N 131.551 -0.354651 -1.53558 0
M  V30 1353 C 132.499 0.512195 -2.26891 0
M  V30 1354 C 133.493 1.09263 -1.29452 0
M  V30 1355 O 134.699 1.03709 -1.47121 0
M  V30 1356 H 131.074 0.183878 -0.729173 0
M  V30 1357 H 133.045 -0.128202 -2.98124 0
M  V30 1358 C 131.794 1.64563 -3.06291 0
M  V30 1359 H 131.117 1.20829 -3.81104 0
M  V30 1360 H 132.557 2.22711 -3.60799 0
M  V30 1361 C 131.016 2.58158 -2.16462 0
M  V30 1362 O 131.546 3.60695 -1.76811 0
M  V30 1363 N 129.752 2.27096 -1.81317 0
M  V30 1364 H 129.299 1.43751 -2.1376 0
M  V30 1365 H 129.257 2.89975 -1.21498 0
M  V30 1366 N 133.029 1.57378 -0.0835403 0
M  V30 1367 C 134.276 1.9393 0.58287 0
M  V30 1368 C 134.604 0.964455 1.68904 0
M  V30 1369 O 133.859 -0.0179474 1.95692 0
M  V30 1370 C 134.158 3.37063 1.1884 0
M  V30 1371 C 133.824 4.50424 0.207194 0
M  V30 1372 C 132.486 4.81159 -0.0627115 0
M  V30 1373 C 134.838 5.19136 -0.463426 0
M  V30 1374 C 132.166 5.77939 -1.01012 0
M  V30 1375 C 134.518 6.16931 -1.39924 0
M  V30 1376 C 133.182 6.46078 -1.67749 0
M  V30 1377 H 132.452 0.70964 0.213287 0
M  V30 1378 H 135.099 1.90856 -0.156916 0
M  V30 1379 H 133.404 3.3666 2.00418 0
M  V30 1380 H 135.101 3.6264 1.71153 0
M  V30 1381 H 131.691 4.2646 0.427747 0
M  V30 1382 H 135.875 4.95576 -0.268034 0
M  V30 1383 H 131.131 5.98842 -1.23283 0
M  V30 1384 H 135.305 6.69273 -1.92476 0
M  V30 1385 H 132.932 7.2088 -2.41321 0
M  V30 1386 N 134.507 -0.190092 1.56449 0
M  V30 1387 C 135.753 -0.911052 1.81184 0
M  V30 1388 C 136.086 -1.82699 0.658396 0
M  V30 1389 O 135.361 -1.91491 -0.340775 0
M  V30 1390 C 135.644 -1.72297 3.16205 0
M  V30 1391 C 135.497 -0.831419 4.42049 0
M  V30 1392 C 136.816 -2.69454 3.47969 0
M  V30 1393 H 133.935 -0.32977 0.659106 0
M  V30 1394 H 136.577 -0.178169 1.89163 0
M  V30 1395 H 134.727 -2.34778 3.09534 0
M  V30 1396 H 136.399 -0.220929 4.60771 0
M  V30 1397 H 134.642 -0.138406 4.33579 0
M  V30 1398 H 135.313 -1.43461 5.33032 0
M  V30 1399 H 137.789 -2.17104 3.54972 0
M  V30 1400 H 136.665 -3.23342 4.43555 0
M  V30 1401 H 136.926 -3.48744 2.71717 0
M  V30 1402 N 135.985 -1.50799 -0.457987 0
M  V30 1403 C 137.215 -1.65977 -1.23025 0
M  V30 1404 C 137.623 -0.347918 -1.85974 0
M  V30 1405 O 136.966 0.68148 -1.70592 0
M  V30 1406 C 137.028 -2.70309 -2.3701 0
M  V30 1407 C 136.692 -4.135 -1.94594 0
M  V30 1408 C 137.689 -4.98949 -1.46101 0
M  V30 1409 C 135.374 -4.5949 -2.02915 0
M  V30 1410 C 137.368 -6.28442 -1.06489 0
M  V30 1411 C 135.055 -5.88984 -1.62914 0
M  V30 1412 C 136.053 -6.73286 -1.1478 0
M  V30 1413 O 135.741 -8.00362 -0.75339 0
M  V30 1414 H 135.473 -0.56064 -0.377702 0
M  V30 1415 H 138.027 -1.97857 -0.551537 0
M  V30 1416 H 136.257 -2.337 -3.08093 0
M  V30 1417 H 137.946 -2.74574 -2.98938 0
M  V30 1418 H 138.712 -4.6463 -1.39084 0
M  V30 1419 H 134.591 -3.94009 -2.39328 0
M  V30 1420 H 138.135 -6.94194 -0.688488 0
M  V30 1421 H 134.032 -6.22822 -1.69595 0
M  V30 1422 H 134.8 -8.13744 -0.88108 0
M  V30 1423 N 137.463 0.71206 -1.40597 0
M  V30 1424 C 138.426 1.80785 -1.40888 0
M  V30 1425 C 139.426 1.57937 -0.302103 0
M  V30 1426 O 140.616 1.64913 -0.561182 0
M  V30 1427 C 137.748 3.18927 -1.20409 0
M  V30 1428 H 138.941 1.81924 -2.38419 0
M  V30 1429 H 136.494 0.91805 -1.26497 0
M  V30 1430 H 137.229 3.23436 -0.236522 0
M  V30 1431 H 137.014 3.36911 -2.00582 0
M  V30 1432 H 138.504 3.98949 -1.23408 0
M  V30 1433 N 138.941 1.26152 0.944643 0
M  V30 1434 C 140.166 1.14363 1.7302 0
M  V30 1435 C 140.591 -0.29772 1.85729 0
M  V30 1436 O 139.949 -1.2157 1.34501 0
M  V30 1437 C 139.997 1.81378 3.11664 0
M  V30 1438 O 139.101 1.10022 3.97453 0
M  V30 1439 H 138.442 0.398694 0.53098 0
M  V30 1440 H 140.972 1.66906 1.18337 0
M  V30 1441 H 140.982 1.88064 3.62072 0
M  V30 1442 H 139.657 2.86237 3.0173 0
M  V30 1443 H 138.234 1.11287 3.55907 0
M  V30 1444 N 140.419 -1.14872 1.07899 0
M  V30 1445 C 141.369 -2.17809 0.674027 0
M  V30 1446 C 142.353 -1.58008 -0.303699 0
M  V30 1447 O 143.545 -1.76616 -0.11654 0
M  V30 1448 C 140.674 -3.43208 0.0793318 0
M  V30 1449 C 139.76 -4.10051 1.08253 0
M  V30 1450 N 140.151 -4.52296 2.2641 0
M  V30 1451 C 138.449 -4.36469 0.917124 0
M  V30 1452 C 139.15 -5.04199 2.901 0
M  V30 1453 N 138.126 -4.98088 2.17736 0
M  V30 1454 H 141.928 -2.48207 1.57386 0
M  V30 1455 H 139.442 -1.315 0.952976 0
M  V30 1456 H 141.439 -4.16272 -0.228719 0
M  V30 1457 H 140.099 -3.14291 -0.815551 0
M  V30 1458 H 141.11 -4.45504 2.64096 0
M  V30 1459 H 137.787 -4.17432 0.0756078 0
M  V30 1460 H 139.177 -5.46802 3.90458 0
M  V30 1461 N 141.898 -0.863906 -1.31812 0
M  V30 1462 C 142.846 -0.30422 -2.30602 0
M  V30 1463 C 143.84 0.577419 -1.59255 0
M  V30 1464 O 145.046 0.464194 -1.73912 0
M  V30 1465 H 141.421 -0.0796877 -0.747766 0
M  V30 1466 H 143.392 -1.15148 -2.75288 0
M  V30 1467 C 142.141 0.484617 -3.44306 0
M  V30 1468 H 141.464 -0.18451 -3.99374 0
M  V30 1469 H 142.904 0.841664 -4.15562 0
M  V30 1470 C 141.363 1.6735 -2.92396 0
M  V30 1471 O 141.893 2.77273 -2.90659 0
M  V30 1472 N 140.099 1.50362 -2.48676 0
M  V30 1473 H 139.646 0.609402 -2.50288 0
M  V30 1474 H 139.604 2.30051 -2.14299 0
M  V30 1475 N 143.376 1.44774 -0.622745 0
M  V30 1476 C 144.625 2.01334 -0.121397 0
M  V30 1477 C 144.938 1.49505 1.26125 0
M  V30 1478 O 146.144 1.98139 1.85616 0
M  V30 1479 C 144.6 3.59516 -0.166298 0
M  V30 1480 C 144.208 4.20342 -1.54974 0
M  V30 1481 C 145.952 4.23582 0.279021 0
M  V30 1482 C 143.859 5.70721 -1.55021 0
M  V30 1483 H 142.789 0.752851 -0.0416172 0
M  V30 1484 H 145.44 1.66083 -0.780309 0
M  V30 1485 H 143.822 3.92027 0.559557 0
M  V30 1486 H 144.996 3.99381 -2.29851 0
M  V30 1487 H 143.311 3.68529 -1.93843 0
M  V30 1488 H 145.908 5.33868 0.298083 0
M  V30 1489 H 146.251 3.95327 1.30471 0
M  V30 1490 H 146.784 3.95843 -0.394063 0
M  V30 1491 H 143.523 6.03698 -2.55399 0
M  V30 1492 H 143.043 5.93829 -0.844245 0
M  V30 1493 H 144.722 6.34203 -1.28047 0
M  V30 1494 N 144.854 0.36279 1.53368 0
M  V30 1495 C 146.1 -0.220702 2.02199 0
M  V30 1496 C 146.455 -1.46649 1.24546 0
M  V30 1497 O 145.748 -1.88737 0.32996 0
M  V30 1498 C 145.942 -0.568417 3.52851 0
M  V30 1499 C 145.771 0.642126 4.45092 0
M  V30 1500 C 144.541 1.15335 4.91961 0
M  V30 1501 C 146.739 1.50649 4.91741 0
M  V30 1502 N 144.721 2.3242 5.68202 0
M  V30 1503 C 146.092 2.52404 5.66297 0
M  V30 1504 C 148.147 1.52969 4.73819 0
M  V30 1505 C 146.85 3.56331 6.24836 0
M  V30 1506 C 148.876 2.55789 5.33222 0
M  V30 1507 C 148.238 3.56268 6.07662 0
M  V30 1508 H 144.337 -0.0435508 0.780786 0
M  V30 1509 H 146.921 0.506704 1.87991 0
M  V30 1510 H 145.092 -1.2649 3.67226 0
M  V30 1511 H 146.824 -1.13676 3.88407 0
M  V30 1512 H 143.579 0.718412 4.68119 0
M  V30 1513 H 144.003 2.91591 6.10986 0
M  V30 1514 H 148.645 0.766418 4.15795 0
M  V30 1515 H 146.363 4.33543 6.81958 0
M  V30 1516 H 149.949 2.58435 5.21251 0
M  V30 1517 H 148.829 4.34524 6.52808 0
M  V30 1518 N 146.332 -1.57332 0.0918853 0
M  V30 1519 C 147.562 -1.98286 -0.580205 0
M  V30 1520 C 147.97 -0.969713 -1.6246 0
M  V30 1521 O 147.313 0.0493501 -1.83634 0
M  V30 1522 C 147.375 -3.35603 -1.28882 0
M  V30 1523 C 147.039 -4.55285 -0.395559 0
M  V30 1524 C 148.036 -5.18687 0.355002 0
M  V30 1525 C 145.721 -5.01314 -0.314556 0
M  V30 1526 C 147.715 -6.26484 1.17458 0
M  V30 1527 C 145.402 -6.08979 0.508677 0
M  V30 1528 C 146.4 -6.71429 1.2519 0
M  V30 1529 O 146.088 -7.77018 2.06151 0
M  V30 1530 H 145.82 -0.656678 -0.160466 0
M  V30 1531 H 148.374 -2.04721 0.16688 0
M  V30 1532 H 146.604 -3.25842 -2.08241 0
M  V30 1533 H 148.293 -3.61026 -1.85512 0
M  V30 1534 H 149.059 -4.84058 0.302134 0
M  V30 1535 H 144.938 -4.5247 -0.882697 0
M  V30 1536 H 148.482 -6.75159 1.75518 0
M  V30 1537 H 144.379 -6.4304 0.563037 0
M  V30 1538 H 145.147 -7.93991 1.98799 0
M  V30 1539 N 147.81 0.181792 -1.56548 0
M  V30 1540 C 149.057 0.900097 -1.81396 0
M  V30 1541 C 149.385 1.82695 -0.667281 0
M  V30 1542 O 148.64 1.92614 0.346146 0
M  V30 1543 C 148.939 1.73728 -3.12335 0
M  V30 1544 C 148.605 0.960255 -4.40556 0
M  V30 1545 C 147.267 0.745766 -4.75386 0
M  V30 1546 C 149.619 0.414477 -5.19549 0
M  V30 1547 C 146.947 -0.0257694 -5.86694 0
M  V30 1548 C 149.299 -0.343916 -6.31664 0
M  V30 1549 C 147.963 -0.569301 -6.65068 0
M  V30 1550 H 147.233 0.329369 -0.663775 0
M  V30 1551 H 149.88 0.165647 -1.90782 0
M  V30 1552 H 148.185 2.54081 -2.98245 0
M  V30 1553 H 149.882 2.29591 -3.28769 0
M  V30 1554 H 146.472 1.13746 -4.13231 0
M  V30 1555 H 150.656 0.567554 -4.93044 0
M  V30 1556 H 145.912 -0.210233 -6.11038 0
M  V30 1557 H 150.086 -0.774133 -6.92084 0
M  V30 1558 H 147.713 -1.16903 -7.51158 0
M  V30 1559 N 149.288 1.51039 0.449983 0
M  V30 1560 C 150.536 1.62759 1.19808 0
M  V30 1561 C 150.857 0.339981 1.92013 0
M  V30 1562 O 150.127 -0.643606 1.85026 0
M  V30 1563 H 148.707 0.599811 0.445237 0
M  V30 1564 H 151.369 1.87914 0.517138 0
M  V30 1565 H 150.465 2.44911 1.93455 0
M  V30 1566 N 150.766 -0.704594 1.40972 0
M  V30 1567 C 152.182 -1.01406 1.23244 0
M  V30 1568 C 152.382 -2.01169 0.115399 0
M  V30 1569 O 151.438 -2.47021 -0.523147 0
M  V30 1570 C 152.751 -1.54728 2.57836 0
M  V30 1571 C 154.299 -1.66658 2.64942 0
M  V30 1572 C 154.774 -2.23383 3.9983 0
M  V30 1573 N 156.265 -2.30756 4.01629 0
M  V30 1574 C 157 -2.75655 5.02794 0
M  V30 1575 N 156.496 -3.20225 6.14352 0
M  V30 1576 N 158.289 -2.75138 4.90159 0
M  V30 1577 H 150.44 -0.0435285 2.12355 0
M  V30 1578 H 152.703 -0.0818951 0.944456 0
M  V30 1579 H 152.409 -0.888832 3.40283 0
M  V30 1580 H 152.283 -2.53084 2.79693 0
M  V30 1581 H 154.67 -2.31617 1.8286 0
M  V30 1582 H 154.751 -0.668717 2.46904 0
M  V30 1583 H 154.395 -1.59043 4.82357 0
M  V30 1584 H 154.325 -3.23904 4.15203 0
M  V30 1585 H 156.816 -1.99291 3.21079 0
M  V30 1586 H 157.129 -3.53084 6.87424 0
M  V30 1587 H 155.474 -3.18156 6.17901 0
M  V30 1588 H 158.665 -2.39661 4.02095 0
M  V30 1589 H 158.838 -3.09812 5.6914 0
M  V30 1590 N 152.244 -1.26651 -0.937939 0
M  V30 1591 C 153.207 -1.08546 -2.01867 0
M  V30 1592 C 154.207 -0.0327327 -1.60767 0
M  V30 1593 O 155.397 -0.276427 -1.71993 0
M  V30 1594 C 152.529 -0.651711 -3.34613 0
M  V30 1595 H 153.722 -2.04502 -2.1936 0
M  V30 1596 H 151.275 -1.09294 -1.11734 0
M  V30 1597 H 152.01 0.309696 -3.22818 0
M  V30 1598 H 151.795 -1.41189 -3.65798 0
M  V30 1599 H 153.285 -0.546973 -4.14002 0
M  V30 1600 N 153.722 1.14298 -1.08507 0
M  V30 1601 C 154.969 1.85359 -0.815373 0
M  V30 1602 C 155.297 1.83001 0.658865 0
M  V30 1603 O 154.552 1.25655 1.50031 0
M  V30 1604 C 154.851 3.33547 -1.28379 0
M  V30 1605 C 154.517 3.56093 -2.76602 0
M  V30 1606 C 153.179 3.61955 -3.17084 0
M  V30 1607 C 155.531 3.64834 -3.72217 0
M  V30 1608 C 152.859 3.74082 -4.51973 0
M  V30 1609 C 155.211 3.78487 -5.06883 0
M  V30 1610 C 153.875 3.82598 -5.46969 0
M  V30 1611 H 153.145 0.678276 -0.298366 0
M  V30 1612 H 155.792 1.35002 -1.35819 0
M  V30 1613 H 154.097 3.86191 -0.660593 0
M  V30 1614 H 155.794 3.86959 -1.05186 0
M  V30 1615 H 152.384 3.52179 -2.4427 0
M  V30 1616 H 156.568 3.59595 -3.42061 0
M  V30 1617 H 151.824 3.75527 -4.82483 0
M  V30 1618 H 155.998 3.84193 -5.80834 0
M  V30 1619 H 153.625 3.91747 -6.51489 0
M  V30 1620 N 155.201 0.870884 1.31352 0
M  V30 1621 C 156.441 0.488783 1.9847 0
M  V30 1622 C 156.805 -0.941536 1.67329 0
M  V30 1623 O 158.006 -1.42903 2.27667 0
M  V30 1624 C 156.277 0.739688 3.49662 0
M  V30 1625 S 157.836 0.457582 4.36408 0
M  V30 1626 H 154.654 0.18242 0.6872 0
M  V30 1627 H 157.256 1.12711 1.59739 0
M  V30 1628 H 155.96 1.77944 3.69816 0
M  V30 1629 H 155.491 0.0883905 3.93301 0
M  V30 1630 H 157.506 -0.709752 4.91098 0
M  V30 1631 N 156.679 -1.44442 0.630414 0
M  V30 1632 C 157.909 -2.06115 0.141465 0
M  V30 1633 C 158.317 -1.47179 -1.1889 0
M  V30 1634 O 157.66 -0.588873 -1.74006 0
M  V30 1635 C 157.722 -3.59467 -0.0484355 0
M  V30 1636 C 157.386 -4.40864 1.20366 0
M  V30 1637 C 158.383 -4.74391 2.12719 0
M  V30 1638 C 156.068 -4.8125 1.43887 0
M  V30 1639 C 158.062 -5.47186 3.26904 0
M  V30 1640 C 155.749 -5.53795 2.5837 0
M  V30 1641 C 156.747 -5.86682 3.49705 0
M  V30 1642 O 156.435 -6.57749 4.62191 0
M  V30 1643 H 156.167 -0.671648 0.0765792 0
M  V30 1644 H 158.721 -1.86312 0.864695 0
M  V30 1645 H 156.951 -3.77758 -0.826803 0
M  V30 1646 H 158.64 -4.02909 -0.491849 0
M  V30 1647 H 159.406 -4.43728 1.95781 0
M  V30 1648 H 155.285 -4.55073 0.736853 0
M  V30 1649 H 158.829 -5.72773 3.98217 0
M  V30 1650 H 154.726 -5.83872 2.75251 0
M  V30 1651 H 155.494 -6.76217 4.61164 0
M  V30 1652 N 158.157 -0.370918 -1.53173 0
M  V30 1653 C 159.404 0.217102 -2.01333 0
M  V30 1654 C 159.732 1.48338 -1.25802 0
M  V30 1655 O 158.987 1.92698 -0.34146 0
M  V30 1656 C 159.286 0.549696 -3.53147 0
M  V30 1657 C 158.952 -0.622872 -4.46577 0
M  V30 1658 C 157.614 -0.944595 -4.71838 0
M  V30 1659 C 159.966 -1.40819 -5.01816 0
M  V30 1660 C 157.294 -2.05351 -5.49589 0
M  V30 1661 C 159.646 -2.50757 -5.80778 0
M  V30 1662 C 158.31 -2.83458 -6.04324 0
M  V30 1663 H 157.58 0.0794431 -0.736729 0
M  V30 1664 H 160.227 -0.504481 -1.84736 0
M  V30 1665 H 158.532 1.35237 -3.6772 0
M  V30 1666 H 160.229 1.017 -3.87889 0
M  V30 1667 H 156.819 -0.36209 -4.27068 0
M  V30 1668 H 161.003 -1.17289 -4.82242 0
M  V30 1669 H 156.259 -2.3108 -5.6605 0
M  V30 1670 H 160.433 -3.12022 -6.22588 0
M  V30 1671 H 158.06 -3.69508 -6.64355 0
M  V30 1672 N 159.635 1.57281 -0.100228 0
M  V30 1673 C 160.567 2.11342 0.886972 0
M  V30 1674 C 161.58 1.05182 1.24261 0
M  V30 1675 O 162.769 1.32613 1.19483 0
M  V30 1676 C 159.869 2.5825 2.19454 0
M  V30 1677 C 159.042 3.88302 2.01346 0
M  V30 1678 C 158.101 4.21004 3.15661 0
M  V30 1679 O 157.127 4.9014 2.89398 0
M  V30 1680 N 158.329 3.76818 4.41575 0
M  V30 1681 H 161.094 2.96668 0.425216 0
M  V30 1682 H 158.655 1.61678 0.0847334 0
M  V30 1683 H 160.647 2.7717 2.94888 0
M  V30 1684 H 159.217 1.77907 2.57037 0
M  V30 1685 H 158.437 3.7848 1.10212 0
M  V30 1686 H 159.725 4.73375 1.8653 0
M  V30 1687 H 159.123 3.2102 4.65792 0
M  V30 1688 H 157.68 4.00882 5.13942 0
M  V30 1689 N 161.113 -0.173488 1.56642 0
M  V30 1690 C 162.061 -1.23417 1.97157 0
M  V30 1691 C 163.055 -1.45946 0.860013 0
M  V30 1692 O 164.261 -1.46551 1.04512 0
M  V30 1693 H 160.636 -0.414818 0.62724 0
M  V30 1694 H 162.607 -0.865582 2.8557 0
M  V30 1695 C 161.356 -2.5665 2.34576 0
M  V30 1696 H 160.679 -2.40137 3.19647 0
M  V30 1697 H 162.119 -3.2956 2.6677 0
M  V30 1698 C 160.578 -3.15245 1.18836 0
M  V30 1699 O 161.108 -3.98883 0.474869 0
M  V30 1700 N 159.314 -2.74303 0.959497 0
M  V30 1701 H 158.861 -2.0639 1.54146 0
M  V30 1702 H 158.819 -3.13844 0.186932 0
M  V30 1703 N 162.591 -1.51276 -0.441967 0
M  V30 1704 C 163.521 -1.752 -1.54361 0
M  V30 1705 C 164.502 -0.601682 -1.59103 0
M  V30 1706 O 165.687 -0.843913 -1.74905 0
M  V30 1707 C 162.817 -1.87282 -2.92477 0
M  V30 1708 C 161.771 -3.02687 -3.02596 0
M  V30 1709 C 161.097 -2.99947 -4.42647 0
M  V30 1710 C 162.397 -4.4273 -2.77106 0
M  V30 1711 H 164.091 -2.67442 -1.34592 0
M  V30 1712 H 161.637 -1.28694 -0.646048 0
M  V30 1713 H 163.59 -2.02602 -3.695 0
M  V30 1714 H 162.314 -0.916844 -3.13467 0
M  V30 1715 H 160.973 -2.87065 -2.28012 0
M  V30 1716 H 160.621 -2.02136 -4.60597 0
M  V30 1717 H 160.321 -3.77439 -4.50348 0
M  V30 1718 H 161.845 -3.17354 -5.2165 0
M  V30 1719 H 163.259 -4.58727 -3.43864 0
M  V30 1720 H 161.656 -5.21893 -2.96222 0
M  V30 1721 H 162.726 -4.53087 -1.72744 0
M  V30 1722 N 164.069 0.697108 -1.41344 0
M  V30 1723 C 165.316 1.45714 -1.40619 0
M  V30 1724 C 165.644 1.94494 -0.0147907 0
M  V30 1725 O 164.899 1.69794 0.973066 0
M  V30 1726 C 165.198 2.68553 -2.35826 0
M  V30 1727 C 164.864 2.38438 -3.82698 0
M  V30 1728 C 163.526 2.29936 -4.22709 0
M  V30 1729 C 165.878 2.13567 -4.75435 0
M  V30 1730 C 163.206 1.94656 -5.53467 0
M  V30 1731 C 165.558 1.79797 -6.06511 0
M  V30 1732 C 164.222 1.69789 -6.45545 0
M  V30 1733 H 163.492 0.533206 -0.51456 0
M  V30 1734 H 166.139 0.796901 -1.74131 0
M  V30 1735 H 164.444 3.39503 -1.95563 0
M  V30 1736 H 166.141 3.2669 -2.32539 0
M  V30 1737 H 162.731 2.4595 -3.51008 0
M  V30 1738 H 166.915 2.19082 -4.45328 0
M  V30 1739 H 162.171 1.8546 -5.82593 0
M  V30 1740 H 166.345 1.59572 -6.77872 0
M  V30 1741 H 163.972 1.4222 -7.46778 0
M  V30 1742 N 165.547 1.27147 0.931209 0
M  V30 1743 C 166.958 1.12044 1.49342 0
M  V30 1744 C 167.309 -0.295795 1.93957 0
M  V30 1745 O 166.434 -1.18835 1.80852 0
M  V30 1746 C 167.029 2.02781 2.71414 0
M  V30 1747 C 165.588 1.91794 3.2387 0
M  V30 1748 C 164.735 1.95543 1.96617 0
M  V30 1749 H 167.686 1.40091 0.745672 0
M  V30 1750 H 167.707 1.58156 3.46074 0
M  V30 1751 H 167.219 3.05848 2.38911 0
M  V30 1752 H 165.32 0.916992 3.6114 0
M  V30 1753 H 165.433 2.77852 3.90302 0
M  V30 1754 H 163.797 1.39722 2.12955 0
M  V30 1755 H 164.58 3.00259 1.66432 0
M  V30 1756 N 167.025 -1.13721 1.09112 0
M  V30 1757 C 168.274 -1.84275 0.82009 0
M  V30 1758 C 168.587 -1.84253 -0.656509 0
M  V30 1759 O 169.793 -2.50668 -1.04296 0
M  V30 1760 C 168.249 -3.30825 1.41714 0
M  V30 1761 C 167.857 -3.39244 2.92605 0
M  V30 1762 C 169.601 -4.06443 1.22492 0
M  V30 1763 C 167.508 -4.80047 3.45411 0
M  V30 1764 H 166.438 -0.690387 0.30312 0
M  V30 1765 H 169.089 -1.28146 1.31343 0
M  V30 1766 H 167.471 -3.86737 0.851498 0
M  V30 1767 H 168.645 -2.93344 3.55367 0
M  V30 1768 H 166.96 -2.77088 3.10823 0
M  V30 1769 H 169.557 -5.10387 1.59402 0
M  V30 1770 H 169.9 -4.15972 0.165299 0
M  V30 1771 H 170.433 -3.56852 1.75788 0
M  V30 1772 H 167.172 -4.75709 4.50978 0
M  V30 1773 H 166.692 -5.26455 2.87411 0
M  V30 1774 H 168.371 -5.48957 3.42425 0
M  V30 1775 N 168.503 -0.877838 -1.30888 0
M  V30 1776 C 169.731 -0.507414 -2.00581 0
M  V30 1777 C 170.146 0.902216 -1.65848 0
M  V30 1778 O 169.503 1.59225 -0.891831 0
M  V30 1779 C 169.554 -0.664162 -3.55347 0
M  V30 1780 O 169.275 -2.01829 -3.8884 0
M  V30 1781 C 170.776 -0.295787 -4.42312 0
M  V30 1782 H 167.996 -0.196866 -0.641471 0
M  V30 1783 H 170.54 -1.18117 -1.66939 0
M  V30 1784 H 168.695 -0.0378619 -3.87381 0
M  V30 1785 H 169.109 -2.03174 -4.8355 0
M  V30 1786 H 170.583 -0.456388 -5.5011 0
M  V30 1787 H 171.06 0.765663 -4.32475 0
M  V30 1788 H 171.666 -0.898113 -4.15709 0
M  V30 1789 N 169.982 1.44106 -0.638065 0
M  V30 1790 C 170.945 2.29138 0.0531013 0
M  V30 1791 C 171.945 1.41409 0.765506 0
M  V30 1792 O 173.135 1.63206 0.609046 0
M  V30 1793 C 170.267 3.23144 1.08584 0
M  V30 1794 H 171.46 2.91739 -0.694883 0
M  V30 1795 H 169.013 1.51134 -0.398538 0
M  V30 1796 H 169.748 2.65408 1.86357 0
M  V30 1797 H 169.533 3.87804 0.578852 0
M  V30 1798 H 171.023 3.87004 1.56899 0
M  V30 1799 N 171.46 0.379036 1.52974 0
M  V30 1800 C 172.393 -0.504932 2.22544 0
M  V30 1801 C 173.371 -1.0723 1.22231 0
M  V30 1802 O 174.555 -1.12589 1.51182 0
M  V30 1803 C 171.682 -1.69794 2.93066 0
M  V30 1804 C 170.728 -1.25678 4.07563 0
M  V30 1805 S 171.561 -0.246852 5.34931 0
M  V30 1806 C 172.717 -1.44588 6.08971 0
M  V30 1807 H 172.95 0.0858666 2.97176 0
M  V30 1808 H 170.483 0.163183 1.53535 0
M  V30 1809 H 172.441 -2.38219 3.34308 0
M  V30 1810 H 171.102 -2.26002 2.18133 0
M  V30 1811 H 170.295 -2.14725 4.5597 0
M  V30 1812 H 169.897 -0.651584 3.6828 0
M  V30 1813 H 172.189 -2.37469 6.34519 0
M  V30 1814 H 173.132 -1.00292 7.00962 0
M  V30 1815 H 173.54 -1.65804 5.39601 0
M  V30 1816 N 172.938 -1.57226 0.108567 0
M  V30 1817 C 174.185 -1.94833 -0.551943 0
M  V30 1818 C 174.513 -0.991204 -1.67348 0
M  V30 1819 O 173.768 -0.0131878 -1.95696 0
M  V30 1820 C 174.067 -3.38911 -1.13463 0
M  V30 1821 C 173.733 -4.50696 -0.135509 0
M  V30 1822 C 172.395 -4.80998 0.139252 0
M  V30 1823 C 174.747 -5.18333 0.545957 0
M  V30 1824 C 172.075 -5.76259 1.10194 0
M  V30 1825 C 174.427 -6.14627 1.49721 0
M  V30 1826 C 173.091 -6.43327 1.78006 0
M  V30 1827 H 172.361 -0.712944 -0.20197 0
M  V30 1828 H 175.008 -1.90582 0.18726 0
M  V30 1829 H 173.313 -3.39805 -1.95037 0
M  V30 1830 H 175.01 -3.65317 -1.65362 0
M  V30 1831 H 171.6 -4.27087 -0.359846 0
M  V30 1832 H 175.784 -4.95087 0.346842 0
M  V30 1833 H 171.04 -5.96804 1.32795 0
M  V30 1834 H 175.214 -6.66126 2.03099 0
M  V30 1835 H 172.841 -7.1695 2.52759 0
M  V30 1836 N 174.416 0.165178 -1.56732 0
M  V30 1837 C 175.662 0.882112 -1.82611 0
M  V30 1838 C 175.995 1.81628 -0.687378 0
M  V30 1839 O 175.27 1.92009 0.310267 0
M  V30 1840 C 175.553 1.67245 -3.18906 0
M  V30 1841 C 175.406 0.760987 -4.43316 0
M  V30 1842 C 176.725 2.63884 -3.52212 0
M  V30 1843 H 173.844 0.319242 -0.664269 0
M  V30 1844 H 176.486 0.148052 -1.89422 0
M  V30 1845 H 174.636 2.29824 -3.1323 0
M  V30 1846 H 176.308 0.147596 -4.61064 0
M  V30 1847 H 174.551 0.0694102 -4.33744 0
M  V30 1848 H 175.222 1.34962 -5.35247 0
M  V30 1849 H 177.698 2.11429 -3.58381 0
M  V30 1850 H 176.574 3.16245 -4.48643 0
M  V30 1851 H 176.835 3.44377 -2.77231 0
M  V30 1852 N 175.894 1.51508 0.433938 0
M  V30 1853 C 177.119 1.68443 1.21003 0
M  V30 1854 C 177.544 0.382636 1.84167 0
M  V30 1855 O 176.902 -0.65755 1.68956 0
M  V30 1856 C 176.95 2.80405 2.26727 0
M  V30 1857 O 176.054 2.44245 3.32292 0
M  V30 1858 H 175.395 0.561536 0.354363 0
M  V30 1859 H 177.925 1.9809 0.512024 0
M  V30 1860 H 177.935 3.0459 2.71457 0
M  V30 1861 H 176.61 3.74867 1.80132 0
M  V30 1862 H 175.187 2.30644 2.93015 0
M  V30 1863 N 177.372 -0.689602 1.41712 0
M  V30 1864 C 178.621 -1.44534 1.40686 0
M  V30 1865 C 178.934 -1.95588 0.0213352 0
M  V30 1866 O 180.14 -2.71271 -0.111534 0
M  V30 1867 C 178.596 -2.61387 2.47396 0
M  V30 1868 C 178.204 -2.17094 3.91885 0
M  V30 1869 C 179.948 -3.38986 2.55517 0
M  V30 1870 C 177.855 -3.3094 4.90135 0
M  V30 1871 H 176.785 -0.542925 0.52321 0
M  V30 1872 H 179.436 -0.748054 1.6756 0
M  V30 1873 H 177.818 -3.33412 2.13664 0
M  V30 1874 H 178.992 -1.52318 4.34897 0
M  V30 1875 H 177.307 -1.52473 3.8748 0
M  V30 1876 H 179.904 -4.23747 3.26102 0
M  V30 1877 H 180.247 -3.84578 1.59391 0
M  V30 1878 H 180.78 -2.74021 2.8837 0
M  V30 1879 H 177.519 -2.90355 5.87685 0
M  V30 1880 H 177.039 -3.94546 4.51767 0
M  V30 1881 H 178.718 -3.9663 5.11169 0
M  V30 1882 N 178.85 -1.27639 -0.924453 0
M  V30 1883 C 180.08 -1.16819 -1.70402 0
M  V30 1884 C 180.488 0.277191 -1.87158 0
M  V30 1885 O 179.831 1.20025 -1.39067 0
M  V30 1886 C 179.893 -1.78305 -3.12166 0
M  V30 1887 C 179.557 -3.27502 -3.18734 0
M  V30 1888 C 180.554 -4.2409 -3.00738 0
M  V30 1889 C 178.239 -3.68269 -3.4159 0
M  V30 1890 C 180.233 -5.59422 -3.05492 0
M  V30 1891 C 177.92 -5.0373 -3.45977 0
M  V30 1892 C 178.918 -5.99116 -3.27946 0
M  V30 1893 O 178.606 -7.32108 -3.32074 0
M  V30 1894 H 178.338 -0.406931 -0.539799 0
M  V30 1895 H 180.892 -1.69078 -1.16626 0
M  V30 1896 H 179.122 -1.20528 -3.67437 0
M  V30 1897 H 180.811 -1.62154 -3.72103 0
M  V30 1898 H 181.577 -3.93931 -2.82919 0
M  V30 1899 H 177.456 -2.94496 -3.54673 0
M  V30 1900 H 181 -6.33852 -2.91337 0
M  V30 1901 H 176.897 -5.33543 -3.63321 0
M  V30 1902 H 177.665 -7.40598 -3.48507 0
M  V30 1903 N 180.328 1.1314 -1.09713 0
M  V30 1904 C 181.553 1.88862 -0.857081 0
M  V30 1905 C 181.978 1.78729 0.586304 0
M  V30 1906 O 181.336 1.13692 1.41222 0
M  V30 1907 C 181.384 3.36325 -1.30069 0
M  V30 1908 O 180.488 4.09815 -0.461007 0
M  V30 1909 H 179.829 0.587108 -0.310162 0
M  V30 1910 H 182.359 1.43129 -1.46203 0
M  V30 1911 H 182.369 3.87157 -1.28738 0
M  V30 1912 H 181.044 3.43017 -2.35185 0
M  V30 1913 H 179.621 3.68986 -0.538888 0
M  V30 1914 N 181.806 0.884767 1.30421 0
M  V30 1915 C 182.739 0.295999 2.26272 0
M  V30 1916 C 183.717 -0.58332 1.51777 0
M  V30 1917 O 184.901 -0.53346 1.80794 0
M  V30 1918 C 182.028 -0.57944 3.33707 0
M  V30 1919 C 181.074 0.230525 4.25877 0
M  V30 1920 S 181.907 1.61867 5.1045 0
M  V30 1921 C 183.063 0.749756 6.21393 0
M  V30 1922 H 183.296 1.10848 2.75862 0
M  V30 1923 H 180.829 0.684178 1.38414 0
M  V30 1924 H 182.787 -1.07879 3.96071 0
M  V30 1925 H 181.448 -1.36601 2.82841 0
M  V30 1926 H 180.641 -0.437542 5.02097 0
M  V30 1927 H 180.243 0.662493 3.68086 0
M  V30 1928 H 182.535 -0.0333547 6.77492 0
M  V30 1929 H 183.478 1.48356 6.92384 0
M  V30 1930 H 183.886 0.310751 5.63644 0
M  V30 1931 N 183.284 -1.43765 0.645699 0
M  V30 1932 C 184.512 -2.06253 0.163556 0
M  V30 1933 C 184.927 -1.48352 -1.16778 0
M  V30 1934 O 184.284 -0.611932 -1.71935 0
M  V30 1935 C 184.335 -3.61453 0.0583186 0
M  V30 1936 O 184.056 -4.172 1.33702 0
M  V30 1937 C 185.557 -4.41002 -0.450795 0
M  V30 1938 H 182.777 -0.665413 0.0864077 0
M  V30 1939 H 185.321 -1.84396 0.884222 0
M  V30 1940 H 183.476 -3.82522 -0.612865 0
M  V30 1941 H 183.89 -5.10791 1.19131 0
M  V30 1942 H 185.364 -5.49966 -0.473403 0
M  V30 1943 H 185.841 -4.13488 -1.48068 0
M  V30 1944 H 186.447 -4.24886 0.187637 0
M  V30 1945 N 184.763 -0.387143 -1.52771 0
M  V30 1946 C 185.726 0.436939 -2.24997 0
M  V30 1947 C 186.726 0.991991 -1.26555 0
M  V30 1948 O 187.916 0.874335 -1.50669 0
M  V30 1949 C 185.048 1.61281 -3.00335 0
M  V30 1950 H 186.241 -0.195365 -2.99263 0
M  V30 1951 H 183.794 -0.139218 -1.55679 0
M  V30 1952 H 184.529 2.2826 -2.30364 0
M  V30 1953 H 184.314 1.22154 -3.72587 0
M  V30 1954 H 185.804 2.19629 -3.5518 0
M  V30 1955 N 186.241 1.57166 -0.116904 0
M  V30 1956 C 187.49 1.94298 0.541407 0
M  V30 1957 C 187.803 1.00236 1.67964 0
M  V30 1958 O 189.009 1.26826 2.40057 0
M  V30 1959 C 187.465 3.45306 1.01449 0
M  V30 1960 C 187.073 4.47899 -0.0951738 0
M  V30 1961 C 188.817 3.91361 1.6443 0
M  V30 1962 C 186.724 5.90083 0.394491 0
M  V30 1963 H 185.654 0.725308 0.206019 0
M  V30 1964 H 188.305 1.82446 -0.196419 0
M  V30 1965 H 186.687 3.52385 1.80667 0
M  V30 1966 H 187.861 4.52486 -0.871374 0
M  V30 1967 H 186.176 4.11583 -0.631505 0
M  V30 1968 H 188.773 4.95004 2.02176 0
M  V30 1969 H 189.116 3.3122 2.52189 0
M  V30 1970 H 189.649 3.87073 0.917559 0
M  V30 1971 H 186.388 6.53974 -0.447004 0
M  V30 1972 H 185.908 5.88921 1.13722 0
M  V30 1973 H 187.587 6.41307 0.856399 0
M  V30 1974 N 187.719 -0.156864 1.56817 0
M  V30 1975 C 188.682 -1.17781 1.96622 0
M  V30 1976 C 189.682 -1.36401 0.851555 0
M  V30 1977 O 190.872 -1.33561 1.11836 0
M  V30 1978 C 188.004 -2.54008 2.27361 0
M  V30 1979 H 189.197 -0.836564 2.87996 0
M  V30 1980 H 186.75 -0.39985 1.51099 0
M  V30 1981 H 187.485 -2.9312 1.38748 0
M  V30 1982 H 187.27 -2.41856 3.08623 0
M  V30 1983 H 188.76 -3.27558 2.59029 0
M  V30 1984 N 189.197 -1.51736 -0.425897 0
M  V30 1985 C 190.16 -1.73271 -1.50032 0
M  V30 1986 C 191.16 -0.602639 -1.4908 0
M  V30 1987 O 192.35 -0.87033 -1.509 0
M  V30 1988 C 189.482 -1.79969 -2.89523 0
M  V30 1989 H 190.675 -2.69172 -1.32237 0
M  V30 1990 H 188.228 -1.41899 -0.65532 0
M  V30 1991 H 188.963 -0.859241 -3.1271 0
M  V30 1992 H 188.748 -2.62109 -2.91619 0
M  V30 1993 H 190.238 -1.9843 -3.67444 0
M  V30 1994 N 190.675 0.682077 -1.42076 0
M  V30 1995 C 191.952 1.43755 -1.32642 0
M  V30 1996 C 192.332 2.11063 0.0396611 0
M  V30 1997 O 191.68 2.02701 1.05474 0
M  V30 1998 C 191.89 2.44596 -2.48946 0
M  V30 1999 C 193.238 3.09454 -2.9073 0
M  V30 2000 O 194.262 2.54922 -2.48783 0
M  V30 2001 O 193.121 4.08253 -3.63307 0
M  V30 2002 H 190.215 0.640857 -0.522715 0
M  V30 2003 H 192.761 0.711415 -1.54068 0
M  V30 2004 H 191.533 1.93609 -3.40046 0
M  V30 2005 H 191.156 3.24701 -2.29467 0
M  V30 2006 N 192.153 1.28127 0.917671 0
M  V30 2007 C 193.569 1.05749 1.19538 0
M  V30 2008 C 193.769 -0.202633 2.00479 0
M  V30 2009 O 192.825 -0.905382 2.3571 0
M  V30 2010 C 194.138 2.30273 1.93378 0
M  V30 2011 C 195.686 2.35412 2.06277 0
M  V30 2012 C 196.161 3.59692 2.83524 0
M  V30 2013 N 197.652 3.60309 2.91087 0
M  V30 2014 C 198.387 4.53147 3.51348 0
M  V30 2015 N 197.883 5.563 4.12919 0
M  V30 2016 N 199.676 4.40751 3.48849 0
M  V30 2017 H 191.827 2.09024 0.377184 0
M  V30 2018 H 194.09 0.919798 0.22951 0
M  V30 2019 H 193.796 3.22055 1.41328 0
M  V30 2020 H 193.67 2.36378 2.93947 0
M  V30 2021 H 196.057 1.4413 2.57508 0
M  V30 2022 H 196.138 2.33304 1.04895 0
M  V30 2023 H 195.782 4.51316 2.32973 0
M  V30 2024 H 195.712 3.59054 3.85211 0
M  V30 2025 H 198.203 2.85714 2.47338 0
M  V30 2026 H 198.516 6.2329 4.56869 0
M  V30 2027 H 196.861 5.60131 4.11435 0
M  V30 2028 H 200.052 3.59367 2.99955 0
M  V30 2029 H 200.225 5.13291 3.9552 0
M  V30 2030 N 193.631 -1.12557 1.10312 0
M  V30 2031 C 194.861 -1.87592 0.865617 0
M  V30 2032 C 195.269 -1.79851 -0.587389 0
M  V30 2033 O 194.612 -1.16949 -1.41664 0
M  V30 2034 C 194.674 -3.37665 1.23381 0
M  V30 2035 C 194.338 -3.69181 2.69359 0
M  V30 2036 C 195.335 -3.67652 3.67597 0
M  V30 2037 C 193.02 -3.98555 3.05711 0
M  V30 2038 C 195.014 -3.95053 5.00212 0
M  V30 2039 C 192.701 -4.25616 4.38514 0
M  V30 2040 C 193.699 -4.23851 5.35574 0
M  V30 2041 O 193.387 -4.50242 6.65986 0
M  V30 2042 H 193.119 -0.600442 0.310557 0
M  V30 2043 H 195.673 -1.4335 1.47105 0
M  V30 2044 H 193.903 -3.82454 0.571467 0
M  V30 2045 H 195.592 -3.94041 0.973994 0
M  V30 2046 H 196.358 -3.45024 3.40857 0
M  V30 2047 H 192.237 -3.99071 2.30789 0
M  V30 2048 H 195.781 -3.93591 5.75962 0
M  V30 2049 H 191.678 -4.47718 4.64994 0
M  V30 2050 H 192.446 -4.67867 6.71597 0
M  V30 2051 N 195.109 -0.891671 -1.2995 0
M  V30 2052 C 196.042 -0.307994 -2.26112 0
M  V30 2053 C 197.02 0.575262 -1.52084 0
M  V30 2054 O 198.204 0.523864 -1.81074 0
M  V30 2055 C 195.331 0.561734 -3.34009 0
M  V30 2056 C 194.377 -0.253107 -4.25748 0
M  V30 2057 S 195.21 -1.64572 -5.09584 0
M  V30 2058 C 196.366 -0.782699 -6.20987 0
M  V30 2059 H 196.599 -1.12309 -2.75271 0
M  V30 2060 H 194.132 -0.691509 -1.38049 0
M  V30 2061 H 196.09 1.05777 -3.96638 0
M  V30 2062 H 194.751 1.35099 -2.83561 0
M  V30 2063 H 193.944 0.410908 -5.02322 0
M  V30 2064 H 193.546 -0.682004 -3.67729 0
M  V30 2065 H 195.838 -0.00257476 -6.775 0
M  V30 2066 H 196.781 -1.52026 -6.91588 0
M  V30 2067 H 197.189 -0.340638 -5.63471 0
M  V30 2068 N 196.587 1.43421 -0.653314 0
M  V30 2069 C 197.55 2.29182 0.0287951 0
M  V30 2070 C 198.55 1.42213 0.750465 0
M  V30 2071 O 199.74 1.63843 0.591701 0
M  V30 2072 C 196.872 3.24278 1.05151 0
M  V30 2073 H 198.065 2.90985 -0.725786 0
M  V30 2074 H 195.618 1.50702 -0.414545 0
M  V30 2075 H 196.353 2.6737 1.83532 0
M  V30 2076 H 196.138 3.88396 0.537687 0
M  V30 2077 H 197.628 3.88647 1.52786 0
M  V30 2078 N 198.065 0.39524 1.52563 0
M  V30 2079 C 199.314 -0.186321 2.00838 0
M  V30 2080 C 199.627 -1.47402 1.28577 0
M  V30 2081 O 200.833 -2.13599 1.67593 0
M  V30 2082 C 199.289 -0.382595 3.57861 0
M  V30 2083 C 198.897 0.892202 4.39026 0
M  V30 2084 C 200.641 -0.9202 4.14406 0
M  V30 2085 C 198.548 0.66388 5.87662 0
M  V30 2086 H 197.478 -0.0734041 0.750418 0
M  V30 2087 H 200.129 0.518552 1.76021 0
M  V30 2088 H 198.511 -1.14946 3.7895 0
M  V30 2089 H 199.685 1.66414 4.29701 0
M  V30 2090 H 198 1.35519 3.9373 0
M  V30 2091 H 200.597 -1.10683 5.23119 0
M  V30 2092 H 200.94 -1.89096 3.70875 0
M  V30 2093 H 201.473 -0.212751 3.97231 0
M  V30 2094 H 198.212 1.6058 6.35527 0
M  V30 2095 H 197.732 -0.0690193 5.9976 0
M  V30 2096 H 199.411 0.300699 6.46301 0
M  V30 2097 N 199.544 -1.57102 0.125237 0
M  V30 2098 C 200.79 -1.95697 -0.532035 0
M  V30 2099 C 201.123 -1.009 -1.6593 0
M  V30 2100 O 200.398 -0.047347 -1.94442 0
M  V30 2101 C 200.681 -3.44181 -1.05884 0
M  V30 2102 C 200.534 -4.49752 0.0654392 0
M  V30 2103 C 201.853 -3.94655 -1.9477 0
M  V30 2104 H 198.972 -0.711571 -0.191925 0
M  V30 2105 H 201.614 -1.88923 0.20206 0
M  V30 2106 H 199.764 -3.50085 -1.68442 0
M  V30 2107 H 201.436 -4.55943 0.700982 0
M  V30 2108 H 199.679 -4.27653 0.727709 0
M  V30 2109 H 200.35 -5.50924 -0.344505 0
M  V30 2110 H 202.826 -3.91094 -1.42074 0
M  V30 2111 H 201.702 -4.99057 -2.28546 0
M  V30 2112 H 201.963 -3.35718 -2.87656 0
M  V30 2113 N 201.022 0.148545 -1.56898 0
M  V30 2114 C 201.972 1.1886 -1.94567 0
M  V30 2115 C 202.956 1.3863 -0.816735 0
M  V30 2116 O 204.148 1.40218 -1.08018 0
M  V30 2117 C 201.277 2.52262 -2.32849 0
M  V30 2118 C 200.363 2.36092 -3.52309 0
M  V30 2119 N 200.754 1.89674 -4.6889 0
M  V30 2120 C 199.052 2.66848 -3.57363 0
M  V30 2121 C 199.753 1.86511 -5.50989 0
M  V30 2122 N 198.729 2.29766 -4.92655 0
M  V30 2123 H 202.531 0.821793 -2.82177 0
M  V30 2124 H 200.045 0.356615 -1.58436 0
M  V30 2125 H 202.042 3.27447 -2.58039 0
M  V30 2126 H 200.702 2.89727 -1.46589 0
M  V30 2127 H 201.713 1.59663 -4.92674 0
M  V30 2128 H 198.39 3.08198 -2.81639 0
M  V30 2129 H 199.78 1.52128 -6.54452 0
M  V30 2130 N 202.5 1.5196 0.417844 0
M  V30 2131 C 203.911 1.57851 0.997 0
M  V30 2132 C 204.262 0.413714 1.91789 0
M  V30 2133 O 203.387 -0.467057 2.113 0
M  V30 2134 C 203.982 2.86085 1.81496 0
M  V30 2135 C 202.541 2.94483 2.34428 0
M  V30 2136 C 201.688 2.52707 1.14169 0
M  V30 2137 H 204.639 1.57455 0.198392 0
M  V30 2138 H 204.66 2.70947 2.67148 0
M  V30 2139 H 204.172 3.70842 1.14446 0
M  V30 2140 H 202.273 2.142 3.04875 0
M  V30 2141 H 202.386 3.98546 2.65891 0
M  V30 2142 H 200.75 2.06353 1.49301 0
M  V30 2143 H 201.533 3.39828 0.486999 0
M  V30 2144 N 203.978 -0.674533 1.42435 0
M  V30 2145 C 205.225 -1.43459 1.42919 0
M  V30 2146 C 205.553 -1.94446 0.0457312 0
M  V30 2147 O 204.808 -1.7132 -0.94593 0
M  V30 2148 C 205.107 -2.64767 2.40069 0
M  V30 2149 C 204.773 -2.3232 3.86443 0
M  V30 2150 C 203.435 -2.23182 4.26314 0
M  V30 2151 C 205.787 -2.05977 4.78773 0
M  V30 2152 C 203.115 -1.85827 5.56494 0
M  V30 2153 C 205.467 -1.70125 6.09295 0
M  V30 2154 C 204.131 -1.59498 6.48164 0
M  V30 2155 H 203.401 -0.524952 0.522978 0
M  V30 2156 H 206.048 -0.769097 1.75377 0
M  V30 2157 H 204.353 -3.36349 2.00939 0
M  V30 2158 H 206.05 -3.22949 2.37707 0
M  V30 2159 H 202.64 -2.40334 3.54877 0
M  V30 2160 H 206.824 -2.11969 4.48757 0
M  V30 2161 H 202.08 -1.76168 5.8547 0
M  V30 2162 H 206.254 -1.48767 6.80324 0
M  V30 2163 H 203.881 -1.30322 7.48946 0
M  V30 2164 N 205.456 -1.28612 -0.910864 0
M  V30 2165 C 206.388 -1.08589 -2.01844 0
M  V30 2166 C 207.401 -0.0367419 -1.62759 0
M  V30 2167 O 208.59 -0.280101 -1.76289 0
M  V30 2168 C 205.69 -0.628626 -3.33019 0
M  V30 2169 C 204.863 -1.75382 -4.00699 0
M  V30 2170 C 203.922 -1.28945 -5.10156 0
M  V30 2171 O 202.948 -1.9922 -5.33198 0
M  V30 2172 N 204.15 -0.154224 -5.80295 0
M  V30 2173 H 206.915 -2.03973 -2.19579 0
M  V30 2174 H 204.476 -1.20403 -1.08234 0
M  V30 2175 H 206.468 -0.301508 -4.03575 0
M  V30 2176 H 205.038 0.232451 -3.11735 0
M  V30 2177 H 204.258 -2.25039 -3.23653 0
M  V30 2178 H 205.546 -2.50854 -4.42662 0
M  V30 2179 H 204.944 0.43194 -5.64049 0
M  V30 2180 H 203.501 0.113599 -6.51701 0
M  V30 2181 N 206.934 1.1197 -1.10907 0
M  V30 2182 C 208.345 1.65114 -0.871446 0
M  V30 2183 C 208.696 1.86885 0.597353 0
M  V30 2184 O 207.821 1.59896 1.45816 0
M  V30 2185 C 208.416 2.99944 -1.5754 0
M  V30 2186 C 206.975 3.50018 -1.38435 0
M  V30 2187 C 206.122 2.24941 -1.62164 0
M  V30 2188 H 209.073 0.956851 -1.2661 0
M  V30 2189 H 209.094 3.66651 -1.01721 0
M  V30 2190 H 208.606 2.84067 -2.64438 0
M  V30 2191 H 206.707 3.71071 -0.337214 0
M  V30 2192 H 206.82 4.29165 -2.12965 0
M  V30 2193 H 205.184 2.3229 -1.04467 0
M  V30 2194 H 205.967 2.11612 -2.70324 0
M  V30 2195 N 208.412 0.89855 1.29475 0
M  V30 2196 C 209.828 0.594483 1.48115 0
M  V30 2197 C 210.028 -0.86431 1.82022 0
M  V30 2198 O 209.084 -1.64457 1.91599 0
M  V30 2199 C 210.397 1.51932 2.59494 0
M  V30 2200 C 211.945 1.5244 2.7337 0
M  V30 2201 C 212.42 2.43548 3.87877 0
M  V30 2202 N 213.911 2.41589 3.95208 0
M  V30 2203 C 214.646 3.08789 4.83153 0
M  V30 2204 N 214.142 3.85265 5.75798 0
M  V30 2205 N 215.935 2.97952 4.76635 0
M  V30 2206 H 208.086 1.84207 1.05742 0
M  V30 2207 H 210.349 0.789251 0.525154 0
M  V30 2208 H 210.055 2.55865 2.41301 0
M  V30 2209 H 209.929 1.23899 3.56271 0
M  V30 2210 H 212.316 0.492518 2.90961 0
M  V30 2211 H 212.397 1.8451 1.77172 0
M  V30 2212 H 212.041 3.46829 3.71041 0
M  V30 2213 H 211.971 2.08788 4.83441 0
M  V30 2214 H 214.462 1.86025 3.28943 0
M  V30 2215 H 214.775 4.33598 6.39697 0
M  V30 2216 H 213.12 3.89371 5.75687 0
M  V30 2217 H 216.311 2.37723 4.03244 0
M  V30 2218 H 216.484 3.50599 5.44962 0
M  V30 2219 N 209.89 -1.43072 0.660911 0
M  V30 2220 C 210.82 -2.33497 -0.0122829 0
M  V30 2221 C 211.801 -1.49903 -0.803925 0
M  V30 2222 O 212.986 -1.78546 -0.763864 0
M  V30 2223 C 210.116 -3.33363 -0.973994 0
M  V30 2224 C 209.07 -4.27003 -0.291928 0
M  V30 2225 C 208.396 -5.16967 -1.36562 0
M  V30 2226 C 209.696 -5.15816 0.820462 0
M  V30 2227 H 211.39 -2.90038 0.742873 0
M  V30 2228 H 208.936 -1.39461 0.358688 0
M  V30 2229 H 210.889 -3.95524 -1.45392 0
M  V30 2230 H 209.613 -2.75095 -1.7604 0
M  V30 2231 H 208.272 -3.66217 0.167623 0
M  V30 2232 H 207.92 -4.55034 -2.14366 0
M  V30 2233 H 207.62 -5.80441 -0.914454 0
M  V30 2234 H 209.144 -5.82003 -1.84675 0
M  V30 2235 H 210.558 -5.71742 0.422366 0
M  V30 2236 H 208.955 -5.8805 1.19656 0
M  V30 2237 H 210.025 -4.55045 1.67518 0
M  V30 2238 N 211.368 -0.403325 -1.52352 0
M  V30 2239 C 212.593 0.176499 -2.06648 0
M  V30 2240 C 213.018 1.38577 -1.27193 0
M  V30 2241 O 212.376 1.7879 -0.300637 0
M  V30 2242 C 212.424 0.511061 -3.5696 0
M  V30 2243 O 211.528 1.60294 -3.79973 0
M  V30 2244 H 210.869 0.0167337 -0.663789 0
M  V30 2245 H 213.399 -0.574848 -1.96359 0
M  V30 2246 H 213.409 0.771362 -4.00642 0
M  V30 2247 H 212.084 -0.37296 -4.14224 0
M  V30 2248 H 210.661 1.33526 -3.48174 0
M  V30 2249 N 212.846 1.57033 -0.133567 0
M  V30 2250 C 213.809 2.14897 0.796995 0
M  V30 2251 C 214.809 1.0874 1.18458 0
M  V30 2252 O 215.999 1.34446 1.1077 0
M  V30 2253 C 213.131 2.70112 2.07973 0
M  V30 2254 H 214.324 2.98457 0.293873 0
M  V30 2255 H 211.877 1.55871 0.115787 0
M  V30 2256 H 212.612 1.9018 2.62682 0
M  V30 2257 H 212.397 3.47764 1.81115 0
M  V30 2258 H 213.887 3.14738 2.74462 0
M  V30 2259 N 214.325 -0.140222 1.56975 0
M  V30 2260 C 215.736 -0.699596 1.73097 0
M  V30 2261 C 216.087 -1.8134 0.749022 0
M  V30 2262 O 215.212 -2.16241 -0.0828503 0
M  V30 2263 C 215.807 -1.27582 3.1386 0
M  V30 2264 C 214.366 -1.78169 3.31561 0
M  V30 2265 C 213.513 -0.672855 2.69013 0
M  V30 2266 H 216.464 0.0855115 1.58469 0
M  V30 2267 H 216.485 -2.14561 3.14235 0
M  V30 2268 H 215.997 -0.464955 3.85305 0
M  V30 2269 H 214.098 -2.61801 2.65124 0
M  V30 2270 H 214.211 -1.90574 4.39566 0
M  V30 2271 H 212.575 -1.10118 2.29665 0
M  V30 2272 H 213.358 0.126679 3.43066 0
M  V30 2273 N 215.803 -1.52179 -0.40978 0
M  V30 2274 C 217.028 -1.70347 -1.18308 0
M  V30 2275 C 217.453 -0.411887 -1.83535 0
M  V30 2276 O 216.811 0.630587 -1.6998 0
M  V30 2277 C 216.859 -2.83977 -2.22238 0
M  V30 2278 O 215.963 -2.495 -3.28365 0
M  V30 2279 H 215.304 -0.567103 -0.345384 0
M  V30 2280 H 217.834 -1.98879 -0.480445 0
M  V30 2281 H 217.844 -3.0887 -2.66577 0
M  V30 2282 H 216.519 -3.77685 -1.74146 0
M  V30 2283 H 215.096 -2.35277 -2.89308 0
M  V30 2284 N 217.281 0.66697 -1.42791 0
M  V30 2285 C 218.509 1.45505 -1.47091 0
M  V30 2286 C 218.924 1.8861 -0.0845873 0
M  V30 2287 O 218.281 1.58632 0.90234 0
M  V30 2288 C 218.332 2.69906 -2.40485 0
M  V30 2289 O 218.053 2.28608 -3.73725 0
M  V30 2290 C 219.554 3.63396 -2.53886 0
M  V30 2291 H 216.774 0.447459 -0.500022 0
M  V30 2292 H 219.318 0.818866 -1.8739 0
M  V30 2293 H 217.473 3.29696 -2.03419 0
M  V30 2294 H 217.887 3.08997 -4.23817 0
M  V30 2295 H 219.361 4.47387 -3.2334 0
M  V30 2296 H 219.838 4.09824 -1.57927 0
M  V30 2297 H 220.444 3.09495 -2.91706 0
M  V30 2298 N 218.759 1.29093 0.90403 0
M  V30 2299 C 219.706 1.13853 2.00764 0
M  V30 2300 C 220.676 0.0330084 1.66067 0
M  V30 2301 O 221.861 0.199733 1.89752 0
M  V30 2302 C 219.001 0.816537 3.35301 0
M  V30 2303 C 218.114 2.00206 3.82807 0
M  V30 2304 C 217.249 1.61983 5.059 0
M  V30 2305 C 216.288 2.77143 5.45764 0
M  V30 2306 N 215.425 2.39346 6.60044 0
M  V30 2307 H 220.265 2.08276 2.13132 0
M  V30 2308 H 217.802 1.03648 1.04381 0
M  V30 2309 H 219.76 0.610557 4.12708 0
M  V30 2310 H 218.39 -0.090779 3.22672 0
M  V30 2311 H 217.442 2.31988 3.01473 0
M  V30 2312 H 218.754 2.86512 4.08304 0
M  V30 2313 H 217.908 1.37649 5.90879 0
M  V30 2314 H 216.647 0.728202 4.82233 0
M  V30 2315 H 215.652 3.02165 4.59322 0
M  V30 2316 H 216.877 3.66964 5.71414 0
M  V30 2317 H 214.823 1.52665 6.37989 0
M  V30 2318 H 214.74 3.19185 6.85315 0
M  V30 2319 H 216.008 2.1832 7.48303 0
M  V30 2320 N 220.237 -1.11381 1.11499 0
M  V30 2321 C 221.2 -2.15622 0.777153 0
M  V30 2322 C 222.2 -1.59504 -0.203779 0
M  V30 2323 O 223.39 -1.74188 0.020782 0
M  V30 2324 C 220.522 -3.40556 0.153116 0
M  V30 2325 H 221.715 -2.47021 1.70061 0
M  V30 2326 H 219.268 -1.26577 0.916952 0
M  V30 2327 H 220.003 -3.14767 -0.780536 0
M  V30 2328 H 219.788 -3.8257 0.859238 0
M  V30 2329 H 221.278 -4.17546 -0.0671044 0
M  V30 2330 N 221.715 -0.905404 -1.28997 0
M  V30 2331 C 222.961 -0.535039 -1.95615 0
M  V30 2332 C 223.294 0.917404 -1.71165 0
M  V30 2333 O 222.569 1.65123 -1.02785 0
M  V30 2334 C 222.852 -0.834918 -3.50287 0
M  V30 2335 C 222.705 -2.33948 -3.84172 0
M  V30 2336 C 224.024 -0.325318 -4.38896 0
M  V30 2337 H 221.143 -0.195861 -0.710498 0
M  V30 2338 H 223.785 -1.13313 -1.52513 0
M  V30 2339 H 221.935 -0.325904 -3.87131 0
M  V30 2340 H 223.607 -2.91847 -3.57243 0
M  V30 2341 H 221.85 -2.79789 -3.31513 0
M  V30 2342 H 222.521 -2.49987 -4.92149 0
M  V30 2343 H 224.997 -0.761256 -4.09077 0
M  V30 2344 H 223.873 -0.564295 -5.45992 0
M  V30 2345 H 224.134 0.774144 -4.35269 0
M  V30 2346 N 223.193 1.4272 -0.668489 0
M  V30 2347 C 224.442 2.00846 -0.185389 0
M  V30 2348 C 224.755 1.53442 1.21305 0
M  V30 2349 O 225.961 2.03944 1.79218 0
M  V30 2350 C 224.417 3.58805 -0.280591 0
M  V30 2351 C 224.025 4.15198 -1.68268 0
M  V30 2352 C 225.769 4.24255 0.14412 0
M  V30 2353 C 223.676 5.655 -1.73099 0
M  V30 2354 H 222.606 0.751145 -0.0655475 0
M  V30 2355 H 225.257 1.63516 -0.832752 0
M  V30 2356 H 223.639 3.93608 0.434553 0
M  V30 2357 H 224.813 3.91866 -2.42441 0
M  V30 2358 H 223.128 3.62176 -2.05469 0
M  V30 2359 H 225.725 5.34547 0.128086 0
M  V30 2360 H 226.068 3.99277 1.17827 0
M  V30 2361 H 226.601 3.94389 -0.519798 0
M  V30 2362 H 223.34 5.95268 -2.74475 0
M  V30 2363 H 222.86 5.90842 -1.03274 0
M  V30 2364 H 224.539 6.29808 -1.48158 0
M  V30 2365 N 224.671 0.411399 1.52136 0
M  V30 2366 C 225.634 -0.401089 2.25663 0
M  V30 2367 C 226.634 -0.971732 1.28117 0
M  V30 2368 O 227.824 -0.850254 1.52041 0
M  V30 2369 C 224.956 -1.56483 3.02863 0
M  V30 2370 H 226.149 0.24295 2.98914 0
M  V30 2371 H 223.702 0.163968 1.55438 0
M  V30 2372 H 224.437 -2.24567 2.33967 0
M  V30 2373 H 224.222 -1.16211 3.74483 0
M  V30 2374 H 225.712 -2.13951 3.58629 0
M  V30 2375 N 226.149 -1.5696 0.141893 0
M  V30 2376 C 227.397 -1.95573 -0.509484 0
M  V30 2377 C 227.718 -1.02746 -1.65736 0
M  V30 2378 O 226.988 -0.0880311 -1.95702 0
M  V30 2379 H 225.568 -0.722115 -0.191205 0
M  V30 2380 H 228.23 -1.93697 0.216196 0
M  V30 2381 H 227.326 -2.99171 -0.889 0
M  V30 2382 N 227.627 0.131896 -1.57047 0
M  V30 2383 C 228.876 0.84044 -1.83356 0
M  V30 2384 C 229.189 1.81646 -0.725535 0
M  V30 2385 O 230.395 2.57025 -0.874659 0
M  V30 2386 C 228.851 1.54528 -3.25037 0
M  V30 2387 C 228.459 0.610902 -4.43815 0
M  V30 2388 C 230.203 2.23972 -3.60606 0
M  V30 2389 C 228.11 1.31823 -5.76521 0
M  V30 2390 H 227.04 0.317599 -0.683847 0
M  V30 2391 H 229.691 0.0931561 -1.83263 0
M  V30 2392 H 228.073 2.33873 -3.19561 0
M  V30 2393 H 229.247 -0.148407 -4.60561 0
M  V30 2394 H 227.562 0.0241016 -4.16393 0
M  V30 2395 H 230.159 2.77558 -4.57018 0
M  V30 2396 H 230.502 3.01173 -2.87403 0
M  V30 2397 H 231.035 1.51529 -3.6781 0
M  V30 2398 H 227.774 0.587771 -6.52859 0
M  V30 2399 H 227.294 2.04987 -5.63685 0
M  V30 2400 H 228.973 1.855 -6.19838 0
M  V30 2401 N 229.106 1.52395 0.401703 0
M  V30 2402 C 230.352 1.68019 1.14635 0
M  V30 2403 C 230.707 0.408722 1.88009 0
M  V30 2404 O 230 -0.597133 1.82057 0
M  V30 2405 C 230.194 2.84578 2.16217 0
M  V30 2406 C 230.023 4.22938 1.5282 0
M  V30 2407 C 228.793 4.88352 1.29772 0
M  V30 2408 C 230.991 5.04778 0.985094 0
M  V30 2409 N 228.973 6.10726 0.623455 0
M  V30 2410 C 230.344 6.1845 0.438172 0
M  V30 2411 C 232.399 4.90057 0.880275 0
M  V30 2412 C 231.102 7.19013 -0.203306 0
M  V30 2413 C 233.128 5.9086 0.252639 0
M  V30 2414 C 232.49 7.03829 -0.283573 0
M  V30 2415 H 228.589 0.668413 0.405892 0
M  V30 2416 H 231.173 1.89717 0.437674 0
M  V30 2417 H 229.344 2.64483 2.84435 0
M  V30 2418 H 231.076 2.89202 2.83098 0
M  V30 2419 H 227.831 4.46846 1.56926 0
M  V30 2420 H 228.255 6.76323 0.302733 0
M  V30 2421 H 232.897 4.02938 1.28065 0
M  V30 2422 H 230.615 8.05751 -0.615726 0
M  V30 2423 H 234.201 5.81543 0.172954 0
M  V30 2424 H 233.081 7.80493 -0.761575 0
M  V30 2425 N 230.584 -0.659388 1.43143 0
M  V30 2426 C 231.514 -1.78422 1.50625 0
M  V30 2427 C 232.495 -1.66216 0.361443 0
M  V30 2428 O 233.68 -1.85404 0.577834 0
M  V30 2429 C 230.81 -3.16815 1.42287 0
M  V30 2430 C 229.764 -3.43777 2.54954 0
M  V30 2431 C 229.09 -4.81905 2.31671 0
M  V30 2432 C 230.39 -3.39134 3.97222 0
M  V30 2433 H 232.084 -1.72417 2.44771 0
M  V30 2434 H 229.63 -0.828084 1.17808 0
M  V30 2435 H 231.583 -3.95253 1.46127 0
M  V30 2436 H 230.307 -3.23534 0.446435 0
M  V30 2437 H 228.966 -2.67707 2.50457 0
M  V30 2438 H 228.614 -4.85294 1.32284 0
M  V30 2439 H 228.314 -5.00906 3.07192 0
M  V30 2440 H 229.838 -5.62609 2.37284 0
M  V30 2441 H 231.252 -4.07518 4.03239 0
M  V30 2442 H 229.649 -3.69671 4.72719 0
M  V30 2443 H 230.719 -2.37426 4.22797 0
M  V30 2444 N 232.062 -1.29571 -0.897171 0
M  V30 2445 C 233.308 -1.17863 -1.65034 0
M  V30 2446 C 233.641 0.268729 -1.92332 0
M  V30 2447 O 232.916 1.19378 -1.53555 0
M  V30 2448 C 233.199 -1.995 -2.99786 0
M  V30 2449 C 233.052 -3.5239 -2.79538 0
M  V30 2450 C 234.371 -1.82335 -4.00552 0
M  V30 2451 H 231.49 -0.429528 -0.598895 0
M  V30 2452 H 234.132 -1.59072 -1.03905 0
M  V30 2453 H 232.282 -1.64485 -3.51962 0
M  V30 2454 H 233.954 -3.97401 -2.34244 0
M  V30 2455 H 232.197 -3.77187 -2.14273 0
M  V30 2456 H 232.868 -4.04787 -3.75302 0
M  V30 2457 H 235.344 -2.12924 -3.57495 0
M  V30 2458 H 234.22 -2.41801 -4.92771 0
M  V30 2459 H 234.481 -0.779209 -4.35179 0
M  V30 2460 N 233.54 1.10788 -1.12088 0
M  V30 2461 C 234.503 2.15207 -0.788577 0
M  V30 2462 C 235.503 1.59609 0.195317 0
M  V30 2463 O 236.693 1.74174 -0.0300193 0
M  V30 2464 C 233.825 3.4047 -0.171174 0
M  V30 2465 H 235.018 2.46116 -1.71368 0
M  V30 2466 H 232.571 1.26089 -0.923652 0
M  V30 2467 H 233.306 3.15176 0.763832 0
M  V30 2468 H 233.091 3.82109 -0.879514 0
M  V30 2469 H 234.581 4.17576 0.04496 0
M  V30 2470 N 235.018 0.912232 1.28515 0
M  V30 2471 C 235.948 0.416403 2.29757 0
M  V30 2472 C 236.929 -0.515194 1.6211 0
M  V30 2473 O 238.114 -0.423253 1.89532 0
M  V30 2474 C 235.244 -0.34572 3.45575 0
M  V30 2475 C 234.198 0.496599 4.25109 0
M  V30 2476 C 233.524 -0.393771 5.33248 0
M  V30 2477 C 234.824 1.75307 4.92001 0
M  V30 2478 H 236.518 1.26249 2.7148 0
M  V30 2479 H 234.064 0.608515 1.30511 0
M  V30 2480 H 236.017 -0.703422 4.15488 0
M  V30 2481 H 234.741 -1.2257 3.02728 0
M  V30 2482 H 233.4 0.8368 3.56922 0
M  V30 2483 H 233.048 -1.27225 4.86644 0
M  V30 2484 H 232.748 0.166209 5.87365 0
M  V30 2485 H 234.272 -0.747389 6.06009 0
M  V30 2486 H 235.686 1.46437 5.54283 0
M  V30 2487 H 234.083 2.25534 5.56106 0
M  V30 2488 H 235.153 2.48176 4.16577 0
M  V30 2489 N 236.496 -1.42363 0.676048 0
M  V30 2490 C 237.459 -2.29199 0.00766941 0
M  V30 2491 C 238.459 -1.43389 -0.727745 0
M  V30 2492 O 239.649 -1.64764 -0.56556 0
M  V30 2493 C 236.781 -3.2591 -0.999785 0
M  V30 2494 H 237.974 -2.89794 0.771988 0
M  V30 2495 H 235.527 -1.50024 0.438468 0
M  V30 2496 H 236.262 -2.70256 -1.79255 0
M  V30 2497 H 236.047 -3.89202 -0.475829 0
M  V30 2498 H 237.537 -3.91028 -1.46583 0
M  V30 2499 N 237.974 -0.419461 -1.51915 0
M  V30 2500 C 238.904 0.391813 -2.30189 0
M  V30 2501 C 239.885 1.03699 -1.34836 0
M  V30 2502 O 241.07 1.04403 -1.63748 0
M  V30 2503 C 238.2 1.50312 -3.13087 0
M  V30 2504 C 237.154 0.9824 -4.16573 0
M  V30 2505 C 236.48 2.18809 -4.8788 0
M  V30 2506 C 237.78 0.0292356 -5.22292 0
M  V30 2507 H 239.474 -0.26135 -2.98257 0
M  V30 2508 H 237.02 -0.127134 -1.43438 0
M  V30 2509 H 238.973 2.07773 -3.66617 0
M  V30 2510 H 237.697 2.18431 -2.42807 0
M  V30 2511 H 236.356 0.430119 -3.64068 0
M  V30 2512 H 236.004 2.85507 -4.14119 0
M  V30 2513 H 235.704 1.84615 -5.57845 0
M  V30 2514 H 237.228 2.76858 -5.44226 0
M  V30 2515 H 238.642 0.512976 -5.71 0
M  V30 2516 H 237.039 -0.2244 -5.9968 0
M  V30 2517 H 238.109 -0.912931 -4.76228 0
M  V30 2518 N 239.452 1.56882 -0.150215 0
M  V30 2519 C 240.415 2.1573 0.774157 0
M  V30 2520 C 241.415 1.0999 1.17298 0
M  V30 2521 O 242.605 1.35613 1.09338 0
M  V30 2522 C 239.737 2.72302 2.05096 0
M  V30 2523 H 240.93 2.98752 0.262201 0
M  V30 2524 H 238.483 1.55985 0.099248 0
M  V30 2525 H 239.218 1.92956 2.6065 0
M  V30 2526 H 239.003 3.49665 1.77416 0
M  V30 2527 H 240.493 3.17632 2.71109 0
M  V30 2528 N 240.93 -0.123565 1.57115 0
M  V30 2529 C 242.155 -0.850398 1.89164 0
M  V30 2530 C 242.58 -1.7286 0.741688 0
M  V30 2531 O 241.938 -1.78665 -0.307958 0
M  V30 2532 C 241.986 -1.66353 3.19936 0
M  V30 2533 O 241.09 -2.77004 3.0552 0
M  V30 2534 H 240.431 -0.235454 0.620852 0
M  V30 2535 H 242.961 -0.107335 2.04318 0
M  V30 2536 H 242.971 -2.05372 3.52543 0
M  V30 2537 H 241.646 -1.01881 4.03228 0
M  V30 2538 H 240.223 -2.41221 2.84371 0
M  V30 2539 N 242.408 -1.52605 -0.393616 0
M  V30 2540 C 243.819 -1.59417 -0.971761 0
M  V30 2541 C 244.17 -0.444173 -1.91106 0
M  V30 2542 O 243.295 0.433382 -2.12016 0
M  V30 2543 C 243.89 -2.88936 -1.76921 0
M  V30 2544 C 242.449 -2.98175 -2.29714 0
M  V30 2545 C 241.596 -2.54491 -1.10135 0
M  V30 2546 H 244.547 -1.57751 -0.173317 0
M  V30 2547 H 244.568 -2.75163 -2.62804 0
M  V30 2548 H 244.08 -3.72616 -1.08532 0
M  V30 2549 H 242.181 -2.19024 -3.01429 0
M  V30 2550 H 242.294 -4.02726 -2.59517 0
M  V30 2551 H 240.658 -2.08702 -1.45999 0
M  V30 2552 H 241.441 -3.4056 -0.432874 0
M  V30 2553 N 243.887 0.651787 -1.4349 0
M  V30 2554 C 244.819 1.77725 -1.44729 0
M  V30 2555 C 245.832 1.59141 -0.343231 0
M  V30 2556 O 247.021 1.67835 -0.607751 0
M  V30 2557 C 244.121 3.15172 -1.24579 0
M  V30 2558 C 243.294 3.60402 -2.47849 0
M  V30 2559 C 242.353 4.76656 -2.22902 0
M  V30 2560 O 241.379 4.86022 -2.96263 0
M  V30 2561 N 242.581 5.66958 -1.24656 0
M  V30 2562 H 245.346 1.77141 -2.41746 0
M  V30 2563 H 242.907 0.835678 -1.38665 0
M  V30 2564 H 244.899 3.90634 -1.0577 0
M  V30 2565 H 243.469 3.1052 -0.360015 0
M  V30 2566 H 242.689 2.75369 -2.82073 0
M  V30 2567 H 243.977 3.87368 -3.29884 0
M  V30 2568 H 243.375 5.62065 -0.640265 0
M  V30 2569 H 241.932 6.42135 -1.1183 0
M  V30 2570 N 245.365 1.30045 0.890287 0
M  V30 2571 C 246.605 1.19839 1.65584 0
M  V30 2572 C 246.969 -0.244175 1.90441 0
M  V30 2573 O 248.17 -0.469378 2.6467 0
M  V30 2574 C 246.441 1.99876 2.96284 0
M  V30 2575 S 248 2.06309 3.87275 0
M  V30 2576 H 244.818 0.427157 0.568382 0
M  V30 2577 H 247.42 1.64453 1.05715 0
M  V30 2578 H 246.124 3.03809 2.75913 0
M  V30 2579 H 245.655 1.55903 3.61189 0
M  V30 2580 H 247.67 1.18661 4.81803 0
M  V30 2581 N 246.843 -1.10192 1.12674 0
M  V30 2582 C 248.09 -1.82205 0.883606 0
M  V30 2583 C 248.418 -1.8532 -0.590492 0
M  V30 2584 O 247.673 -1.31137 -1.45264 0
M  V30 2585 C 247.972 -3.28552 1.4067 0
M  V30 2586 C 247.638 -3.45582 2.89627 0
M  V30 2587 C 246.3 -3.49937 3.30299 0
M  V30 2588 C 248.652 -3.50768 3.85501 0
M  V30 2589 C 245.98 -3.57049 4.65546 0
M  V30 2590 C 248.332 -3.59414 5.20581 0
M  V30 2591 C 246.996 -3.62034 5.60792 0
M  V30 2592 H 246.266 -0.666735 0.323334 0
M  V30 2593 H 248.913 -1.29868 1.40736 0
M  V30 2594 H 247.218 -3.83473 0.80347 0
M  V30 2595 H 248.915 -3.82788 1.19475 0
M  V30 2596 H 245.505 -3.42871 2.57172 0
M  V30 2597 H 249.689 -3.46651 3.55171 0
M  V30 2598 H 244.945 -3.57361 4.96088 0
M  V30 2599 H 249.119 -3.62371 5.94693 0
M  V30 2600 H 246.746 -3.67298 6.6558 0
M  V30 2601 N 248.321 -0.919034 -1.28029 0
M  V30 2602 C 249.551 -0.570143 -1.98577 0
M  V30 2603 C 249.959 0.854172 -1.68821 0
M  V30 2604 O 249.302 1.57807 -0.940351 0
M  V30 2605 C 249.364 -0.705734 -3.52505 0
M  V30 2606 C 249.028 -2.10057 -4.05863 0
M  V30 2607 C 250.025 -3.07385 -4.19298 0
M  V30 2608 C 247.71 -2.41517 -4.40426 0
M  V30 2609 C 249.704 -4.34287 -4.66555 0
M  V30 2610 C 247.391 -3.68657 -4.87376 0
M  V30 2611 C 248.389 -4.64856 -5.00398 0
M  V30 2612 O 248.077 -5.89735 -5.46322 0
M  V30 2613 H 247.809 -0.215592 -0.6407 0
M  V30 2614 H 250.363 -1.23583 -1.64062 0
M  V30 2615 H 248.593 0.0170414 -3.86696 0
M  V30 2616 H 250.282 -0.363172 -4.04272 0
M  V30 2617 H 251.048 -2.84398 -3.92865 0
M  V30 2618 H 246.927 -1.67389 -4.29537 0
M  V30 2619 H 250.471 -5.09377 -4.76635 0
M  V30 2620 H 246.368 -3.91466 -5.13249 0
M  V30 2621 H 247.136 -5.92599 -5.64596 0
M  V30 2622 N 249.799 1.42003 -0.683588 0
M  V30 2623 C 251.024 2.06265 -0.216647 0
M  V30 2624 C 251.449 1.51059 1.12083 0
M  V30 2625 O 250.807 0.632638 1.69904 0
M  V30 2626 C 250.855 3.60191 -0.171759 0
M  V30 2627 O 249.959 4.03396 0.857069 0
M  V30 2628 H 249.3 0.65502 -0.108834 0
M  V30 2629 H 251.83 1.81982 -0.935077 0
M  V30 2630 H 251.84 4.08 0.0014303 0
M  V30 2631 H 250.515 3.99743 -1.14796 0
M  V30 2632 H 249.092 3.67117 0.654208 0
M  V30 2633 N 251.277 0.427512 1.51691 0
M  V30 2634 C 252.505 -0.141191 2.06418 0
M  V30 2635 C 252.92 -1.37303 1.29589 0
M  V30 2636 O 252.277 -1.79059 0.352732 0
M  V30 2637 C 252.328 -0.473266 3.58389 0
M  V30 2638 O 252.049 0.709673 4.32314 0
M  V30 2639 C 253.55 -1.09371 4.29596 0
M  V30 2640 H 250.77 -0.0122747 0.670888 0
M  V30 2641 H 253.314 0.603764 1.95384 0
M  V30 2642 H 251.469 -1.16812 3.69369 0
M  V30 2643 H 251.883 0.42807 5.2275 0
M  V30 2644 H 253.357 -1.27613 5.37046 0
M  V30 2645 H 253.834 -2.072 3.87253 0
M  V30 2646 H 254.44 -0.43853 4.23033 0
M  V30 2647 N 252.755 -1.56801 0.158532 0
M  V30 2648 C 254.001 -1.96781 -0.490405 0
M  V30 2649 C 254.334 -1.04397 -1.63753 0
M  V30 2650 O 253.609 -0.0885805 -1.94298 0
M  V30 2651 C 253.892 -3.4635 -0.985594 0
M  V30 2652 C 253.745 -4.49512 0.160824 0
M  V30 2653 C 255.064 -3.98697 -1.86355 0
M  V30 2654 H 252.183 -0.715482 -0.176788 0
M  V30 2655 H 254.825 -1.88451 0.242088 0
M  V30 2656 H 252.975 -3.53579 -1.60978 0
M  V30 2657 H 254.647 -4.54353 0.797537 0
M  V30 2658 H 252.89 -4.26013 0.818256 0
M  V30 2659 H 253.561 -5.51531 -0.227569 0
M  V30 2660 H 256.037 -3.94019 -1.33746 0
M  V30 2661 H 254.913 -5.03792 -2.17909 0
M  V30 2662 H 255.174 -3.41744 -2.8047 0
M  V30 2663 N 254.233 0.115231 -1.57178 0
M  V30 2664 C 255.461 0.836437 -1.89239 0
M  V30 2665 C 255.876 1.73256 -0.750175 0
M  V30 2666 O 255.233 1.80357 0.278832 0
M  V30 2667 C 255.284 1.66671 -3.20785 0
M  V30 2668 O 255.005 0.806652 -4.3061 0
M  V30 2669 C 256.506 2.49274 -3.66575 0
M  V30 2670 H 253.726 0.240253 -0.626514 0
M  V30 2671 H 256.27 0.0984932 -2.04263 0
M  V30 2672 H 254.425 2.35737 -3.0742 0
M  V30 2673 H 254.839 1.37969 -5.06028 0
M  V30 2674 H 256.313 3.03055 -4.6137 0
M  V30 2675 H 256.79 3.26807 -2.93417 0
M  V30 2676 H 257.396 1.85443 -3.82741 0
M  V30 2677 N 255.711 1.52812 0.385517 0
M  V30 2678 C 256.644 1.72592 1.49289 0
M  V30 2679 C 257.622 0.573819 1.52138 0
M  V30 2680 O 258.806 0.80404 1.70492 0
M  V30 2681 C 255.933 1.78669 2.87741 0
M  V30 2682 C 254.979 3.00455 3.02703 0
M  V30 2683 S 255.812 4.60366 2.73538 0
M  V30 2684 C 256.968 4.69263 4.14177 0
M  V30 2685 H 257.201 2.66248 1.32285 0
M  V30 2686 H 254.734 1.43148 0.578611 0
M  V30 2687 H 256.692 1.82855 3.67524 0
M  V30 2688 H 255.353 0.861 3.02069 0
M  V30 2689 H 254.546 3.01258 4.04054 0
M  V30 2690 H 254.148 2.94278 2.30817 0
M  V30 2691 H 256.44 4.48092 5.08153 0
M  V30 2692 H 257.383 5.71276 4.18388 0
M  V30 2693 H 257.791 3.98072 4.00249 0
M  V30 2694 N 257.189 -0.644168 1.43834 0
M  V30 2695 C 258.466 -1.40188 1.36406 0
M  V30 2696 C 258.846 -2.11094 0.0163124 0
M  V30 2697 O 258.194 -2.05426 -1.00062 0
M  V30 2698 C 258.404 -2.3791 2.55343 0
M  V30 2699 C 259.752 -3.01637 2.98832 0
M  V30 2700 O 260.776 -2.48237 2.55455 0
M  V30 2701 O 259.635 -3.98477 3.74003 0
M  V30 2702 H 256.729 -0.626773 0.539523 0
M  V30 2703 H 259.275 -0.670317 1.559 0
M  V30 2704 H 258.047 -1.84525 3.4506 0
M  V30 2705 H 257.67 -3.18503 2.37995 0
M  V30 2706 N 258.668 -1.30515 -0.883378 0
M  V30 2707 C 259.6 -1.12846 -1.99496 0
M  V30 2708 C 260.613 -0.0712571 -1.62644 0
M  V30 2709 O 261.802 -0.317432 -1.75655 0
M  V30 2710 C 258.902 -0.699123 -3.3161 0
M  V30 2711 C 258.075 -1.83842 -3.96889 0
M  V30 2712 C 257.134 -1.39737 -5.07307 0
M  V30 2713 O 256.16 -2.10485 -5.28852 0
M  V30 2714 N 257.362 -0.277279 -5.79837 0
M  V30 2715 H 260.127 -2.08585 -2.15203 0
M  V30 2716 H 257.688 -1.22672 -1.05656 0
M  V30 2717 H 259.68 -0.387044 -4.02845 0
M  V30 2718 H 258.25 0.166276 -3.12157 0
M  V30 2719 H 257.47 -2.31853 -3.18807 0
M  V30 2720 H 258.758 -2.60187 -4.37241 0
M  V30 2721 H 258.156 0.3122 -5.64838 0
M  V30 2722 H 256.713 -0.0246623 -6.51795 0
M  V30 2723 N 260.146 1.09593 -1.13257 0
M  V30 2724 C 261.394 1.81375 -0.891492 0
M  V30 2725 C 261.715 1.86049 0.584009 0
M  V30 2726 O 260.985 1.34481 1.42449 0
M  V30 2727 H 259.565 0.671708 -0.326828 0
M  V30 2728 H 262.227 1.3256 -1.42877 0
M  V30 2729 H 261.323 2.84612 -1.28071 0
M  V30 2730 N 261.624 0.925811 1.2754 0
M  V30 2731 C 262.587 0.428129 2.25166 0
M  V30 2732 C 263.587 -0.452261 1.54309 0
M  V30 2733 O 264.777 -0.253608 1.72344 0
M  V30 2734 C 261.909 -0.384749 3.38722 0
M  V30 2735 H 263.102 1.29066 2.70706 0
M  V30 2736 H 260.655 0.706323 1.3943 0
M  V30 2737 H 261.39 -1.26618 2.98561 0
M  V30 2738 H 261.175 0.246454 3.91325 0
M  V30 2739 H 262.665 -0.723389 4.11287 0
M  V30 2740 N 263.102 -1.41638 0.69111 0
M  V30 2741 C 264.33 -2.05628 0.22909 0
M  V30 2742 C 264.745 -1.51992 -1.11999 0
M  V30 2743 O 264.102 -0.666322 -1.69901 0
M  V30 2744 C 264.153 -3.61084 0.173283 0
M  V30 2745 O 263.874 -4.12735 1.46907 0
M  V30 2746 C 265.375 -4.42213 -0.310266 0
M  V30 2747 H 262.595 -0.662327 0.107534 0
M  V30 2748 H 265.139 -1.81489 0.942438 0
M  V30 2749 H 263.294 -3.84278 -0.490858 0
M  V30 2750 H 263.708 -5.06743 1.35322 0
M  V30 2751 H 265.182 -5.51194 -0.298196 0
M  V30 2752 H 265.659 -4.1799 -1.34838 0
M  V30 2753 H 266.265 -4.24074 0.322716 0
M  V30 2754 N 264.58 -0.43555 -1.51462 0
M  V30 2755 C 265.527 0.376797 -2.27703 0
M  V30 2756 C 266.497 1.01838 -1.31219 0
M  V30 2757 O 267.682 1.03762 -1.60119 0
M  V30 2758 C 264.822 1.47301 -3.12084 0
M  V30 2759 C 263.935 0.849744 -4.2356 0
M  V30 2760 C 263.07 1.92086 -4.95254 0
M  V30 2761 C 262.109 1.27593 -5.98654 0
M  V30 2762 N 261.246 2.28833 -6.63762 0
M  V30 2763 H 266.086 -0.279734 -2.96684 0
M  V30 2764 H 263.623 -0.149795 -1.46335 0
M  V30 2765 H 265.581 2.11984 -3.59331 0
M  V30 2766 H 264.211 2.0992 -2.45221 0
M  V30 2767 H 263.263 0.0912529 -3.80291 0
M  V30 2768 H 264.575 0.338878 -4.97648 0
M  V30 2769 H 263.729 2.64435 -5.46039 0
M  V30 2770 H 262.468 2.46545 -4.20793 0
M  V30 2771 H 261.473 0.537893 -5.47162 0
M  V30 2772 H 262.698 0.738693 -6.7507 0
M  V30 2773 H 260.644 2.82375 -5.92115 0
M  V30 2774 H 260.561 1.82632 -7.33608 0
M  V30 2775 H 261.829 3.00671 -7.19178 0
M  V30 2776 N 266.058 1.56714 -0.166846 0
M  V30 2777 C 267.298 1.98641 0.481763 0
M  V30 2778 C 267.662 1.05038 1.6072 0
M  V30 2779 O 268.863 1.36087 2.31805 0
M  V30 2780 C 267.134 3.44362 0.956517 0
M  V30 2781 S 268.693 4.08317 1.60694 0
M  V30 2782 H 265.511 0.693873 0.155116 0
M  V30 2783 H 268.113 1.93719 -0.263251 0
M  V30 2784 H 266.817 4.10204 0.126936 0
M  V30 2785 H 266.348 3.53041 1.73568 0
M  V30 2786 H 268.363 4.02999 2.89494 0
M  V30 2787 N 267.536 -0.106894 1.57237 0
M  V30 2788 C 268.782 -0.81373 1.85759 0
M  V30 2789 C 269.115 -1.78952 0.754315 0
M  V30 2790 O 268.39 -1.93029 -0.23879 0
M  V30 2791 C 268.673 -1.55293 3.24894 0
M  V30 2792 C 268.526 -0.595929 4.45835 0
M  V30 2793 C 269.845 -2.5063 3.61763 0
M  V30 2794 H 266.964 -0.294369 0.67566 0
M  V30 2795 H 269.606 -0.0776472 1.89841 0
M  V30 2796 H 267.756 -2.1804 3.21544 0
M  V30 2797 H 269.428 0.0236262 4.61294 0
M  V30 2798 H 267.671 0.0916191 4.33703 0
M  V30 2799 H 268.342 -1.15004 5.39887 0
M  V30 2800 H 270.818 -1.97982 3.65981 0
M  V30 2801 H 269.694 -2.99376 4.60071 0
M  V30 2802 H 269.955 -3.3385 2.89821 0
M  V30 2803 N 269.014 -1.53014 -0.377408 0
M  V30 2804 C 270.26 -1.68872 -1.12294 0
M  V30 2805 C 270.593 -0.433224 -1.89306 0
M  V30 2806 O 269.868 0.569258 -1.85983 0
M  V30 2807 C 270.151 -2.93115 -2.09179 0
M  V30 2808 C 270.004 -4.28794 -1.35853 0
M  V30 2809 C 271.323 -3.12928 -3.09458 0
M  V30 2810 H 268.442 -0.614518 -0.406862 0
M  V30 2811 H 271.084 -1.85633 -0.40503 0
M  V30 2812 H 269.234 -2.78956 -2.70399 0
M  V30 2813 H 270.906 -4.54742 -0.775082 0
M  V30 2814 H 269.149 -4.28744 -0.660364 0
M  V30 2815 H 269.82 -5.11837 -2.06706 0
M  V30 2816 H 272.296 -3.26194 -2.58334 0
M  V30 2817 H 271.172 -4.01316 -3.74482 0
M  V30 2818 H 271.433 -2.27669 -3.78971 0
M  V30 2819 N 270.492 0.636531 -1.44174 0
M  V30 2820 C 271.455 1.73063 -1.50273 0
M  V30 2821 C 272.455 1.56113 -0.385397 0
M  V30 2822 O 273.645 1.61707 -0.64781 0
M  V30 2823 C 270.777 3.12096 -1.37145 0
M  V30 2824 H 271.97 1.69031 -2.47727 0
M  V30 2825 H 269.523 0.849706 -1.31186 0
M  V30 2826 H 270.258 3.21728 -0.407636 0
M  V30 2827 H 270.043 3.25805 -2.18159 0
M  V30 2828 H 271.533 3.91846 -1.44382 0
M  V30 2829 N 271.97 1.30982 0.876444 0
M  V30 2830 C 273.216 1.21484 1.63136 0
M  V30 2831 C 273.571 -0.226339 1.91064 0
M  V30 2832 O 272.864 -1.15788 1.52656 0
M  V30 2833 C 273.058 1.98572 2.9716 0
M  V30 2834 C 272.887 3.50039 2.82317 0
M  V30 2835 C 271.657 4.19393 2.81847 0
M  V30 2836 C 273.855 4.45111 2.57644 0
M  V30 2837 N 271.837 5.57061 2.57985 0
M  V30 2838 C 273.208 5.70402 2.42986 0
M  V30 2839 C 275.263 4.3461 2.42937 0
M  V30 2840 C 273.966 6.8638 2.15115 0
M  V30 2841 C 275.992 5.50365 2.16454 0
M  V30 2842 C 275.354 6.74642 2.02578 0
M  V30 2843 H 271.453 0.499632 0.601575 0
M  V30 2844 H 274.037 1.65094 1.03209 0
M  V30 2845 H 272.208 1.5734 3.55104 0
M  V30 2846 H 273.94 1.81146 3.61895 0
M  V30 2847 H 270.695 3.71303 2.93991 0
M  V30 2848 H 271.119 6.29529 2.49043 0
M  V30 2849 H 275.761 3.39199 2.52396 0
M  V30 2850 H 273.479 7.81824 2.04394 0
M  V30 2851 H 277.065 5.44154 2.05884 0
M  V30 2852 H 275.945 7.62699 1.82374 0
M  V30 2853 N 273.449 -1.08991 1.13837 0
M  V30 2854 C 274.86 -1.62746 0.914917 0
M  V30 2855 C 275.211 -1.88403 -0.547594 0
M  V30 2856 O 274.336 -1.63706 -1.41525 0
M  V30 2857 C 274.931 -2.95662 1.65437 0
M  V30 2858 C 273.49 -3.46225 1.47666 0
M  V30 2859 C 272.637 -2.20562 1.6807 0
M  V30 2860 H 275.588 -0.922946 1.29102 0
M  V30 2861 H 275.609 -3.63825 1.11407 0
M  V30 2862 H 275.121 -2.76956 2.71877 0
M  V30 2863 H 273.222 -3.70046 0.435478 0
M  V30 2864 H 273.335 -4.23368 2.24268 0
M  V30 2865 H 271.699 -2.29439 1.10589 0
M  V30 2866 H 272.482 -2.0437 2.7584 0
M  V30 2867 N 274.927 -0.932562 -1.27047 0
M  V30 2868 C 275.837 -0.441219 -2.30414 0
M  V30 2869 C 276.853 0.480525 -1.67233 0
M  V30 2870 O 278.029 0.362151 -1.98117 0
M  V30 2871 C 275.094 0.293651 -3.45454 0
M  V30 2872 C 274.155 -0.663601 -4.2414 0
M  V30 2873 C 273.388 0.0362932 -5.33688 0
M  V30 2874 O 273.611 1.2548 -5.56427 0
M  V30 2875 O 272.545 -0.638015 -5.98509 0
M  V30 2876 H 276.371 -1.29962 -2.74488 0
M  V30 2877 H 273.956 -0.6981 -1.32087 0
M  V30 2878 H 275.838 0.707951 -4.15411 0
M  V30 2879 H 274.513 1.12758 -3.03426 0
M  V30 2880 H 273.42 -1.12768 -3.56699 0
M  V30 2881 H 274.753 -1.46489 -4.69896 0
M  V30 2882 N 276.405 1.4127 -0.698611 0
M  V30 2883 C 277.682 1.94955 -0.158762 0
M  V30 2884 C 278.062 1.63781 1.33188 0
M  V30 2885 O 277.41 0.946423 2.07979 0
M  V30 2886 C 277.62 3.46044 -0.453309 0
M  V30 2887 C 278.968 4.22872 -0.382707 0
M  V30 2888 O 279.992 3.54076 -0.388396 0
M  V30 2889 O 278.851 5.45407 -0.345463 0
M  V30 2890 H 275.945 0.82683 -0.0167505 0
M  V30 2891 H 278.491 1.50971 -0.77498 0
M  V30 2892 H 277.263 3.62028 -1.48498 0
M  V30 2893 H 276.886 3.97128 0.19373 0
M  V30 2894 N 277.883 0.443576 1.51229 0
M  V30 2895 C 279.108 -0.121648 2.07043 0
M  V30 2896 C 279.533 -1.35156 1.30823 0
M  V30 2897 O 278.891 -1.7793 0.347934 0
M  V30 2898 C 278.939 -0.41624 3.5819 0
M  V30 2899 O 278.043 -1.50163 3.8409 0
M  V30 2900 H 277.384 0.000871367 0.663999 0
M  V30 2901 H 279.914 0.626706 1.94765 0
M  V30 2902 H 279.924 -0.664867 4.02546 0
M  V30 2903 H 278.599 0.482653 4.1309 0
M  V30 2904 H 277.176 -1.24248 3.51592 0
M  V30 2905 N 279.361 -1.56624 0.175154 0
M  V30 2906 C 280.609 -1.96609 -0.467885 0
M  V30 2907 C 280.93 -1.06238 -1.63519 0
M  V30 2908 O 280.2 -0.129523 -1.95471 0
M  V30 2909 H 278.78 -0.726008 -0.175845 0
M  V30 2910 H 281.442 -1.93195 0.257234 0
M  V30 2911 H 280.538 -3.00989 -0.825342 0
M  V30 2912 N 280.839 0.0985539 -1.57292 0
M  V30 2913 C 282.087 0.801092 -1.85545 0
M  V30 2914 C 282.408 1.79438 -0.763353 0
M  V30 2915 O 281.678 1.94763 0.21073 0
M  V30 2916 H 280.258 0.29884 -0.684619 0
M  V30 2917 H 282.92 0.0810064 -1.94732 0
M  V30 2918 H 282.016 1.3338 -2.82163 0
M  V30 2919 N 282.317 1.53212 0.369288 0
M  V30 2920 C 283.264 1.79388 1.45219 0
M  V30 2921 C 284.234 0.638059 1.53356 0
M  V30 2922 O 285.419 0.879852 1.69302 0
M  V30 2923 C 282.559 1.98623 2.82211 0
M  V30 2924 C 281.672 3.26337 2.8307 0
M  V30 2925 C 280.807 3.35779 4.11614 0
M  V30 2926 C 279.846 4.5754 4.06601 0
M  V30 2927 N 278.983 4.64155 5.26787 0
M  V30 2928 H 283.823 2.71794 1.22198 0
M  V30 2929 H 281.36 1.34642 0.592444 0
M  V30 2930 H 283.318 2.07761 3.61789 0
M  V30 2931 H 281.948 1.09558 3.03639 0
M  V30 2932 H 281 3.26171 1.95747 0
M  V30 2933 H 282.312 4.15988 2.75237 0
M  V30 2934 H 281.466 3.44208 4.99606 0
M  V30 2935 H 280.205 2.44137 4.22195 0
M  V30 2936 H 279.21 4.49215 3.16996 0
M  V30 2937 H 280.435 5.50519 3.97625 0
M  V30 2938 H 278.381 3.75413 5.3796 0
M  V30 2939 H 278.298 5.47706 5.21109 0
M  V30 2940 H 279.566 4.76863 6.16621 0
M  V30 2941 N 283.795 -0.628877 1.44509 0
M  V30 2942 C 285.023 -1.41554 1.50897 0
M  V30 2943 C 285.438 -1.8832 0.134564 0
M  V30 2944 O 284.795 -1.60969 -0.859965 0
M  V30 2945 C 284.846 -2.63435 2.47556 0
M  V30 2946 O 284.567 -2.18619 3.79654 0
M  V30 2947 C 286.068 -3.56537 2.63431 0
M  V30 2948 H 283.288 -0.434044 0.511709 0
M  V30 2949 H 285.832 -0.768895 1.89495 0
M  V30 2950 H 283.987 -3.24187 2.12089 0
M  V30 2951 H 284.401 -2.97652 4.31861 0
M  V30 2952 H 285.875 -4.38657 3.35088 0
M  V30 2953 H 286.352 -4.05493 1.68738 0
M  V30 2954 H 286.958 -3.01653 2.9981 0
M  V30 2955 N 285.273 -1.31445 -0.869486 0
M  V30 2956 C 286.203 -1.21727 -1.99261 0
M  V30 2957 C 287.184 -0.104359 -1.6978 0
M  V30 2958 O 288.369 -0.289038 -1.92037 0
M  V30 2959 C 285.499 -0.924317 -3.34774 0
M  V30 2960 C 284.453 -1.99685 -3.78563 0
M  V30 2961 C 283.779 -1.55658 -5.11541 0
M  V30 2962 C 285.079 -3.41003 -3.95619 0
M  V30 2963 H 286.773 -2.1569 -2.07649 0
M  V30 2964 H 284.319 -1.03839 -0.997675 0
M  V30 2965 H 286.272 -0.842934 -4.12883 0
M  V30 2966 H 284.996 0.0509793 -3.2656 0
M  V30 2967 H 283.655 -2.06813 -3.02694 0
M  V30 2968 H 283.303 -0.569132 -4.9977 0
M  V30 2969 H 283.003 -2.27409 -5.41811 0
M  V30 2970 H 284.527 -1.48928 -5.92159 0
M  V30 2971 H 285.941 -3.36547 -4.64122 0
M  V30 2972 H 284.338 -4.10975 -4.37286 0
M  V30 2973 H 285.408 -3.81754 -2.98985 0
M  V30 2974 N 286.751 1.08385 -1.14413 0
M  V30 2975 C 287.681 2.17321 -0.854044 0
M  V30 2976 C 288.662 1.69024 0.191049 0
M  V30 2977 O 289.847 1.94141 0.0476779 0
M  V30 2978 C 286.977 3.45719 -0.330983 0
M  V30 2979 C 285.931 4.07409 -1.31155 0
M  V30 2980 C 285.257 5.30762 -0.64778 0
M  V30 2981 C 286.557 4.48665 -2.67388 0
M  V30 2982 H 288.251 2.41845 -1.76498 0
M  V30 2983 H 285.797 1.16233 -0.850051 0
M  V30 2984 H 287.75 4.21241 -0.115645 0
M  V30 2985 H 286.474 3.2075 0.615381 0
M  V30 2986 H 285.133 3.33919 -1.51306 0
M  V30 2987 H 284.781 5.02078 0.304398 0
M  V30 2988 H 284.481 5.72992 -1.30207 0
M  V30 2989 H 286.005 6.08998 -0.441972 0
M  V30 2990 H 287.419 5.15364 -2.51143 0
M  V30 2991 H 285.816 5.01814 -3.29093 0
M  V30 2992 H 286.886 3.60543 -3.24248 0
M  V30 2993 N 288.23 0.939286 1.26551 0
M  V30 2994 C 289.16 0.465044 2.28822 0
M  V30 2995 C 290.141 -0.480692 1.63167 0
M  V30 2996 O 291.326 -0.382955 1.90387 0
M  V30 2997 C 288.456 -0.27234 3.46231 0
M  V30 2998 C 287.41 0.58666 4.2396 0
M  V30 2999 C 286.736 -0.280573 5.33963 0
M  V30 3000 C 288.036 1.85704 4.88171 0
M  V30 3001 H 289.73 1.31979 2.68741 0
M  V30 3002 H 287.276 0.636061 1.29191 0
M  V30 3003 H 289.229 -0.615133 4.16886 0
M  V30 3004 H 287.953 -1.16121 3.0526 0
M  V30 3005 H 286.612 0.91232 3.55067 0
M  V30 3006 H 286.26 -1.16874 4.89234 0
M  V30 3007 H 285.96 0.29076 5.8688 0
M  V30 3008 H 287.484 -0.618678 6.07458 0
M  V30 3009 H 288.898 1.58161 5.51052 0
M  V30 3010 H 287.295 2.37279 5.51197 0
M  V30 3011 H 288.365 2.56957 4.11219 0
M  V30 3012 N 289.708 -1.40897 0.706093 0
M  V30 3013 C 290.938 -2.05075 0.250523 0
M  V30 3014 C 291.346 -1.53275 -1.10921 0
M  V30 3015 O 290.689 -0.680281 -1.7064 0
M  V30 3016 C 290.751 -3.59219 0.142178 0
M  V30 3017 C 290.415 -4.33864 1.43566 0
M  V30 3018 C 291.412 -4.62448 2.37566 0
M  V30 3019 C 289.097 -4.72946 1.69195 0
M  V30 3020 C 291.091 -5.29088 3.5545 0
M  V30 3021 C 288.778 -5.3932 2.87362 0
M  V30 3022 C 289.776 -5.6732 3.80312 0
M  V30 3023 O 289.464 -6.32325 4.96408 0
M  V30 3024 H 289.196 -0.666645 0.112074 0
M  V30 3025 H 291.75 -1.81467 0.962239 0
M  V30 3026 H 289.98 -3.81609 -0.6254 0
M  V30 3027 H 291.669 -4.0495 -0.277584 0
M  V30 3028 H 292.435 -4.32727 2.19027 0
M  V30 3029 H 288.314 -4.50527 0.977042 0
M  V30 3030 H 291.858 -5.50859 4.28018 0
M  V30 3031 H 287.755 -5.68461 3.05814 0
M  V30 3032 H 288.523 -6.50821 4.9636 0
M  V30 3033 N 291.186 -0.45159 -1.50991 0
M  V30 3034 C 292.136 0.370861 -2.24964 0
M  V30 3035 C 293.12 0.978074 -1.2776 0
M  V30 3036 O 294.312 0.893854 -1.52772 0
M  V30 3037 C 291.441 1.46344 -3.10545 0
M  V30 3038 C 290.527 0.864924 -4.15187 0
M  V30 3039 N 290.918 -0.00311354 -5.058 0
M  V30 3040 C 289.216 1.13099 -4.31422 0
M  V30 3041 C 289.917 -0.340772 -5.80701 0
M  V30 3042 N 288.893 0.279203 -5.42883 0
M  V30 3043 H 292.695 -0.298134 -2.92384 0
M  V30 3044 H 290.209 -0.264528 -1.60231 0
M  V30 3045 H 292.206 2.06565 -3.62128 0
M  V30 3046 H 290.866 2.13463 -2.4467 0
M  V30 3047 H 291.877 -0.37058 -5.16572 0
M  V30 3048 H 288.554 1.79861 -3.76771 0
M  V30 3049 H 289.944 -1.048 -6.63677 0
M  V30 3050 N 292.664 1.56529 -0.183458 0
M  V30 3051 C 293.594 2.21549 0.737456 0
M  V30 3052 C 294.575 1.17489 1.23005 0
M  V30 3053 O 295.76 1.45959 1.281 0
M  V30 3054 C 292.89 2.86575 1.96194 0
M  V30 3055 C 291.844 3.96778 1.60473 0
M  V30 3056 C 291.17 4.48911 2.90487 0
M  V30 3057 C 292.47 5.15767 0.823497 0
M  V30 3058 H 294.164 2.98761 0.195453 0
M  V30 3059 H 291.71 1.43702 0.0925686 0
M  V30 3060 H 293.663 3.30739 2.61131 0
M  V30 3061 H 292.387 2.06749 2.52828 0
M  V30 3062 H 291.046 3.53286 0.978997 0
M  V30 3063 H 290.694 3.65862 3.45186 0
M  V30 3064 H 290.394 5.23265 2.67335 0
M  V30 3065 H 291.918 4.95771 3.56432 0
M  V30 3066 H 293.332 5.56549 1.37571 0
M  V30 3067 H 291.729 5.96114 0.690551 0
M  V30 3068 H 292.799 4.84574 -0.177782 0
M  V30 3069 N 294.142 -0.090211 1.57342 0
M  V30 3070 C 295.388 -0.793982 1.86611 0
M  V30 3071 C 295.721 -1.78142 0.773252 0
M  V30 3072 O 294.996 -1.93271 -0.218304 0
M  V30 3073 C 295.279 -1.51839 3.26523 0
M  V30 3074 C 295.132 -0.548609 4.46442 0
M  V30 3075 C 296.451 -2.46779 3.64401 0
M  V30 3076 H 293.57 -0.287186 0.678744 0
M  V30 3077 H 296.212 -0.0575076 1.89913 0
M  V30 3078 H 294.362 -2.14617 3.23839 0
M  V30 3079 H 296.034 0.0725513 4.61243 0
M  V30 3080 H 294.277 0.137614 4.33582 0
M  V30 3081 H 294.948 -1.09271 5.41076 0
M  V30 3082 H 297.424 -1.94089 3.68061 0
M  V30 3083 H 296.3 -2.94479 4.63221 0
M  V30 3084 H 296.561 -3.30758 2.93346 0
M  V30 3085 N 295.62 -1.53406 -0.361157 0
M  V30 3086 C 296.866 -1.70054 -1.10496 0
M  V30 3087 C 297.199 -0.453278 -1.88836 0
M  V30 3088 O 296.474 0.5495 -1.86576 0
M  V30 3089 C 296.757 -2.95317 -2.06058 0
M  V30 3090 C 296.61 -4.3021 -1.31298 0
M  V30 3091 C 297.929 -3.16193 -3.06121 0
M  V30 3092 H 295.048 -0.618799 -0.400321 0
M  V30 3093 H 297.69 -1.86052 -0.385318 0
M  V30 3094 H 295.84 -2.81809 -2.67425 0
M  V30 3095 H 297.512 -4.55538 -0.726807 0
M  V30 3096 H 295.755 -4.29421 -0.614853 0
M  V30 3097 H 296.426 -5.14 -2.01265 0
M  V30 3098 H 298.902 -3.28916 -2.5486 0
M  V30 3099 H 297.778 -4.05266 -3.70204 0
M  V30 3100 H 298.039 -2.31676 -3.76535 0
M  V30 3101 N 297.098 0.621204 -1.44841 0
M  V30 3102 C 298.347 1.37658 -1.47422 0
M  V30 3103 C 298.66 1.95264 -0.114629 0
M  V30 3104 O 299.866 2.71494 -0.0180199 0
M  V30 3105 C 298.322 2.49285 -2.59586 0
M  V30 3106 C 297.93 1.98149 -4.01797 0
M  V30 3107 C 299.674 3.26409 -2.71399 0
M  V30 3108 C 297.581 3.07178 -5.05367 0
M  V30 3109 H 296.511 0.517344 -0.548517 0
M  V30 3110 H 299.162 0.667257 -1.70938 0
M  V30 3111 H 297.544 3.22839 -2.29328 0
M  V30 3112 H 298.718 1.31395 -4.41669 0
M  V30 3113 H 297.033 1.33812 -3.94314 0
M  V30 3114 H 299.63 4.07706 -3.45948 0
M  V30 3115 H 299.973 3.76535 -1.77559 0
M  V30 3116 H 300.506 2.5995 -3.01116 0
M  V30 3117 H 297.245 2.61985 -6.00869 0
M  V30 3118 H 296.765 3.72542 -4.70077 0
M  V30 3119 H 298.444 3.71789 -5.29511 0
M  V30 3120 N 298.576 1.31904 0.862503 0
M  V30 3121 C 299.539 1.20131 1.95195 0
M  V30 3122 C 300.539 0.126409 1.60302 0
M  V30 3123 O 301.729 0.376234 1.70089 0
M  V30 3124 C 298.861 0.845691 3.30244 0
M  V30 3125 H 300.054 2.16943 2.07064 0
M  V30 3126 H 297.607 1.15622 1.05172 0
M  V30 3127 H 298.342 -0.120957 3.24074 0
M  V30 3128 H 298.127 1.62276 3.56944 0
M  V30 3129 H 299.617 0.787418 4.10109 0
M  V30 3130 N 300.054 -1.07777 1.14986 0
M  V30 3131 C 300.984 -2.16865 0.865557 0
M  V30 3132 C 301.965 -1.69123 -0.182083 0
M  V30 3133 O 303.15 -1.94164 -0.0373815 0
M  V30 3134 C 300.28 -3.45539 0.349313 0
M  V30 3135 C 299.234 -4.06708 1.33313 0
M  V30 3136 C 298.56 -5.30411 0.675918 0
M  V30 3137 C 299.86 -4.47241 2.69764 0
M  V30 3138 H 301.554 -2.40905 1.77778 0
M  V30 3139 H 299.1 -1.15781 0.856203 0
M  V30 3140 H 301.053 -4.21174 0.137983 0
M  V30 3141 H 299.777 -3.21072 -0.598362 0
M  V30 3142 H 298.436 -3.33112 1.53075 0
M  V30 3143 H 298.084 -5.02232 -0.277767 0
M  V30 3144 H 297.784 -5.72293 1.33244 0
M  V30 3145 H 299.308 -6.08755 0.474262 0
M  V30 3146 H 300.722 -5.14025 2.53873 0
M  V30 3147 H 299.119 -5.00062 3.3175 0
M  V30 3148 H 300.189 -3.58818 3.26156 0
M  V30 3149 N 301.532 -0.945985 -1.26051 0
M  V30 3150 C 302.781 -0.591836 -1.92822 0
M  V30 3151 C 303.094 0.873956 -1.7499 0
M  V30 3152 O 304.3 1.33769 -2.36259 0
M  V30 3153 C 302.756 -1.00776 -3.45503 0
M  V30 3154 C 302.364 -2.4955 -3.7206 0
M  V30 3155 C 304.108 -0.725735 -4.1825 0
M  V30 3156 C 302.015 -2.84988 -5.18205 0
M  V30 3157 H 300.945 -0.217635 -0.721908 0
M  V30 3158 H 303.596 -1.14927 -1.43052 0
M  V30 3159 H 301.978 -0.378812 -3.94184 0
M  V30 3160 H 303.152 -3.1739 -3.34066 0
M  V30 3161 H 301.467 -2.75133 -3.12555 0
M  V30 3162 H 304.064 -0.966771 -5.25887 0
M  V30 3163 H 304.407 0.337639 -4.14929 0
M  V30 3164 H 304.94 -1.31463 -3.7545 0
M  V30 3165 H 301.679 -3.90307 -5.26631 0
M  V30 3166 H 301.199 -2.21813 -5.57278 0
M  V30 3167 H 302.878 -2.73712 -5.86252 0
M  V30 3168 N 303.011 1.40521 -0.713556 0
M  V30 3169 C 304.241 2.0494 -0.261395 0
M  V30 3170 C 304.649 1.53861 1.10107 0
M  V30 3171 O 303.992 0.689321 1.70276 0
M  V30 3172 C 304.054 3.59138 -0.161227 0
M  V30 3173 C 303.718 4.33096 -1.45865 0
M  V30 3174 C 304.715 4.61182 -2.40016 0
M  V30 3175 C 302.4 4.72043 -1.71701 0
M  V30 3176 C 304.394 5.27196 -3.58251 0
M  V30 3177 C 302.081 5.37789 -2.90218 0
M  V30 3178 C 303.079 5.65295 -3.83315 0
M  V30 3179 O 302.767 6.29683 -4.99754 0
M  V30 3180 H 302.499 0.666041 -0.115608 0
M  V30 3181 H 305.053 1.80954 -0.971849 0
M  V30 3182 H 303.283 3.81936 0.605153 0
M  V30 3183 H 304.972 4.05091 0.256105 0
M  V30 3184 H 305.738 4.31559 -2.21318 0
M  V30 3185 H 301.617 4.50003 -1.00092 0
M  V30 3186 H 305.161 5.48582 -4.30934 0
M  V30 3187 H 301.058 5.66831 -3.08825 0
M  V30 3188 H 301.826 6.4818 -4.99805 0
M  V30 3189 N 304.489 0.459591 1.5075 0
M  V30 3190 C 305.736 -0.0993495 2.02256 0
M  V30 3191 C 306.064 -1.40751 1.34237 0
M  V30 3192 O 305.319 -1.90379 0.453228 0
M  V30 3193 C 305.618 -0.342866 3.55752 0
M  V30 3194 C 305.284 0.88218 4.42186 0
M  V30 3195 C 303.946 1.21808 4.65528 0
M  V30 3196 C 306.298 1.69837 4.92752 0
M  V30 3197 C 303.626 2.37045 5.36681 0
M  V30 3198 C 305.978 2.84192 5.65171 0
M  V30 3199 C 304.642 3.1821 5.8677 0
M  V30 3200 H 303.912 -0.0363545 0.740108 0
M  V30 3201 H 306.559 0.611329 1.8148 0
M  V30 3202 H 304.864 -1.13567 3.7498 0
M  V30 3203 H 306.561 -0.789121 3.93159 0
M  V30 3204 H 303.151 0.610467 4.2423 0
M  V30 3205 H 307.335 1.45205 4.74583 0
M  V30 3206 H 302.591 2.63689 5.51614 0
M  V30 3207 H 306.765 3.4779 6.03337 0
M  V30 3208 H 304.392 4.07613 6.41682 0
M  V30 3209 N 305.967 -1.56429 0.191757 0
M  V30 3210 C 306.897 -2.21937 -0.725696 0
M  V30 3211 C 307.878 -1.1814 -1.2238 0
M  V30 3212 O 309.063 -1.46636 -1.27325 0
M  V30 3213 C 306.193 -2.87611 -1.94672 0
M  V30 3214 C 305.147 -3.97623 -1.58366 0
M  V30 3215 C 304.473 -4.50446 -2.88102 0
M  V30 3216 C 305.773 -5.16197 -0.796133 0
M  V30 3217 H 307.467 -2.98861 -0.179606 0
M  V30 3218 H 305.013 -1.43749 -0.0849464 0
M  V30 3219 H 306.966 -3.3212 -2.59373 0
M  V30 3220 H 305.69 -2.08087 -2.51728 0
M  V30 3221 H 304.349 -3.53801 -0.960247 0
M  V30 3222 H 303.997 -3.67688 -3.43241 0
M  V30 3223 H 303.697 -5.24675 -2.64556 0
M  V30 3224 H 305.221 -4.97654 -3.53798 0
M  V30 3225 H 306.635 -5.57271 -1.34618 0
M  V30 3226 H 305.032 -5.96471 -0.658928 0
M  V30 3227 H 306.102 -4.84473 0.203478 0
M  V30 3228 N 307.445 0.0818655 -1.57387 0
M  V30 3229 C 308.856 0.634871 -1.75574 0
M  V30 3230 C 309.207 1.78435 -0.815809 0
M  V30 3231 O 308.332 2.164 0.0025366 0
M  V30 3232 C 308.927 1.15845 -3.18379 0
M  V30 3233 C 307.486 1.65741 -3.37945 0
M  V30 3234 C 306.633 0.572549 -2.71325 0
M  V30 3235 H 309.584 -0.144268 -1.58043 0
M  V30 3236 H 309.605 2.02751 -3.21982 0
M  V30 3237 H 309.117 0.321631 -3.86765 0
M  V30 3238 H 307.218 2.51781 -2.74658 0
M  V30 3239 H 307.331 1.74129 -4.46336 0
M  V30 3240 H 305.695 1.01518 -2.33594 0
M  V30 3241 H 306.478 -0.253918 -3.4236 0
M  V30 3242 N 308.923 1.53595 0.353017 0
M  V30 3243 C 309.853 1.83902 1.43883 0
M  V30 3244 C 310.834 0.693421 1.55324 0
M  V30 3245 O 312.019 0.944452 1.69687 0
M  V30 3246 C 309.149 2.04016 2.8106 0
M  V30 3247 C 308.103 3.19814 2.84434 0
M  V30 3248 C 307.429 3.25244 4.24406 0
M  V30 3249 C 308.729 4.58133 2.50822 0
M  V30 3250 H 310.423 2.74835 1.1877 0
M  V30 3251 H 307.969 1.32242 0.569917 0
M  V30 3252 H 309.922 2.238 3.57059 0
M  V30 3253 H 308.646 1.09804 3.07588 0
M  V30 3254 H 307.305 2.9987 2.10887 0
M  V30 3255 H 306.953 2.28646 4.48029 0
M  V30 3256 H 306.653 4.03054 4.27576 0
M  V30 3257 H 308.177 3.47228 5.0226 0
M  V30 3258 H 309.591 4.77995 3.16534 0
M  V30 3259 H 307.988 5.38276 2.6529 0
M  V30 3260 H 309.058 4.62387 1.46034 0
M  V30 3261 N 310.401 -0.613514 1.45168 0
M  V30 3262 C 311.364 -1.7065 1.53007 0
M  V30 3263 C 312.364 -1.5548 0.410184 0
M  V30 3264 O 313.554 -1.60656 0.673455 0
M  V30 3265 C 310.686 -3.09875 1.42093 0
M  V30 3266 H 311.879 -1.65068 2.50385 0
M  V30 3267 H 309.432 -0.828728 1.32521 0
M  V30 3268 H 310.167 -3.21039 0.458769 0
M  V30 3269 H 309.952 -3.22293 2.23315 0
M  V30 3270 H 311.442 -3.895 1.50598 0
M  V30 3271 N 311.879 -1.3236 -0.855495 0
M  V30 3272 C 313.125 -1.23054 -1.612 0
M  V30 3273 C 313.458 0.207404 -1.93089 0
M  V30 3274 O 312.733 1.14432 -1.57275 0
M  V30 3275 C 313.016 -2.08937 -2.93287 0
M  V30 3276 C 312.869 -3.61105 -2.68185 0
M  V30 3277 C 314.188 -1.94986 -3.94549 0
M  V30 3278 H 311.307 -0.448364 -0.584926 0
M  V30 3279 H 313.949 -1.62297 -0.987917 0
M  V30 3280 H 312.099 -1.75599 -3.46551 0
M  V30 3281 H 313.771 -4.04652 -2.21483 0
M  V30 3282 H 312.014 -3.83813 -2.02164 0
M  V30 3283 H 312.685 -4.16522 -3.62234 0
M  V30 3284 H 315.161 -2.24189 -3.5054 0
M  V30 3285 H 314.037 -2.57356 -4.84829 0
M  V30 3286 H 314.298 -0.917263 -4.3248 0
M  V30 3287 N 313.357 1.07166 -1.15556 0
M  V30 3288 C 314.29 2.13808 -0.797593 0
M  V30 3289 C 315.268 1.6101 0.226812 0
M  V30 3290 O 316.452 1.88161 0.112932 0
M  V30 3291 C 313.579 3.38187 -0.186371 0
M  V30 3292 C 312.625 4.09766 -1.18297 0
M  V30 3293 S 313.458 4.60932 -2.72584 0
M  V30 3294 C 314.614 5.88583 -2.12886 0
M  V30 3295 H 314.847 2.43843 -1.70083 0
M  V30 3296 H 312.38 1.19467 -0.978106 0
M  V30 3297 H 314.338 4.10189 0.159837 0
M  V30 3298 H 312.999 3.06326 0.694489 0
M  V30 3299 H 312.192 4.99065 -0.703562 0
M  V30 3300 H 311.794 3.43736 -1.47381 0
M  V30 3301 H 314.086 6.60866 -1.49208 0
M  V30 3302 H 315.029 6.41241 -3.0036 0
M  V30 3303 H 315.437 5.42194 -1.57116 0
M  V30 3304 N 314.835 0.952656 1.25548 0
M  V30 3305 C 316.082 0.606373 1.93208 0
M  V30 3306 C 316.41 -0.85631 1.74636 0
M  V30 3307 O 315.665 -1.62951 1.08376 0
M  V30 3308 C 315.964 0.908818 3.45652 0
M  V30 3309 C 315.63 2.35722 3.84378 0
M  V30 3310 C 314.292 2.75312 3.9466 0
M  V30 3311 C 316.644 3.29793 4.03591 0
M  V30 3312 C 313.972 4.08047 4.21562 0
M  V30 3313 C 316.324 4.62138 4.31985 0
M  V30 3314 C 314.988 5.01528 4.40484 0
M  V30 3315 H 314.258 0.221888 0.706998 0
M  V30 3316 H 316.905 1.20132 1.49133 0
M  V30 3317 H 315.21 0.231456 3.91116 0
M  V30 3318 H 316.907 0.619498 3.96186 0
M  V30 3319 H 313.497 2.04017 3.76928 0
M  V30 3320 H 317.681 3.00397 3.95064 0
M  V30 3321 H 312.937 4.38212 4.26357 0
M  V30 3322 H 317.111 5.35012 4.45797 0
M  V30 3323 H 314.738 6.04406 4.61083 0
M  V30 3324 N 316.313 -1.40141 0.720998 0
M  V30 3325 C 317.559 -2.01084 0.263231 0
M  V30 3326 C 317.892 -1.57052 -1.14229 0
M  V30 3327 O 317.167 -0.793027 -1.77599 0
M  V30 3328 C 317.45 -3.58401 0.349344 0
M  V30 3329 C 317.303 -4.12491 1.79363 0
M  V30 3330 C 318.622 -4.39231 -0.276351 0
M  V30 3331 H 315.741 -0.730572 0.0971228 0
M  V30 3332 H 318.383 -1.66543 0.914518 0
M  V30 3333 H 316.533 -3.87958 -0.205165 0
M  V30 3334 H 318.205 -3.93711 2.40394 0
M  V30 3335 H 316.448 -3.66576 2.31958 0
M  V30 3336 H 317.119 -5.21646 1.80524 0
M  V30 3337 H 319.595 -4.15637 0.196184 0
M  V30 3338 H 318.471 -5.48586 -0.185681 0
M  V30 3339 H 318.732 -4.20643 -1.36059 0
M  V30 3340 N 317.792 -0.46758 -1.50504 0
M  V30 3341 C 318.755 0.317059 -2.26996 0
M  V30 3342 C 319.755 0.923513 -1.31635 0
M  V30 3343 O 320.945 0.793239 -1.55091 0
M  V30 3344 C 318.077 1.45134 -3.08462 0
M  V30 3345 H 319.27 -0.353723 -2.97807 0
M  V30 3346 H 316.823 -0.221545 -1.54722 0
M  V30 3347 H 317.558 2.15728 -2.4214 0
M  V30 3348 H 317.343 1.02232 -3.78538 0
M  V30 3349 H 318.833 2.00493 -3.66323 0
M  V30 3350 N 319.27 1.56325 -0.20005 0
M  V30 3351 C 320.5 2.01811 0.442232 0
M  V30 3352 C 320.908 1.07932 1.55394 0
M  V30 3353 O 320.251 0.0772685 1.83537 0
M  V30 3354 C 320.313 3.43685 1.05457 0
M  V30 3355 C 319.977 4.56928 0.0809833 0
M  V30 3356 C 320.974 5.15009 -0.711471 0
M  V30 3357 C 318.659 5.0229 -0.0315364 0
M  V30 3358 C 320.653 6.16904 -1.60336 0
M  V30 3359 C 318.34 6.04028 -0.926981 0
M  V30 3360 C 319.338 6.6121 -1.71146 0
M  V30 3361 O 319.026 7.60971 -2.59189 0
M  V30 3362 H 318.758 0.666173 0.114848 0
M  V30 3363 H 321.312 2.03085 -0.307511 0
M  V30 3364 H 319.542 3.39413 1.85299 0
M  V30 3365 H 321.231 3.72948 1.60201 0
M  V30 3366 H 321.997 4.80827 -0.634873 0
M  V30 3367 H 317.876 4.57476 0.568902 0
M  V30 3368 H 321.42 6.61464 -2.21611 0
M  V30 3369 H 317.317 6.37634 -1.00468 0
M  V30 3370 H 318.085 7.7841 -2.53023 0
M  V30 3371 N 320.748 -0.0735177 1.57428 0
M  V30 3372 C 321.973 -0.789787 1.91774 0
M  V30 3373 C 322.398 -1.70413 0.796306 0
M  V30 3374 O 321.756 -1.79555 -0.250961 0
M  V30 3375 C 321.804 -1.5609 3.25067 0
M  V30 3376 O 320.908 -2.67144 3.14178 0
M  V30 3377 H 320.249 -0.215582 0.628029 0
M  V30 3378 H 322.779 -0.0422781 2.04556 0
M  V30 3379 H 322.789 -1.94052 3.58898 0
M  V30 3380 H 321.464 -0.890015 4.06265 0
M  V30 3381 H 320.041 -2.32052 2.91901 0
M  V30 3382 N 322.226 -1.5378 -0.344866 0
M  V30 3383 C 323.472 -1.71216 -1.08687 0
M  V30 3384 C 323.805 -0.473281 -1.88345 0
M  V30 3385 O 323.08 0.52968 -1.87149 0
M  V30 3386 C 323.363 -2.97486 -2.02914 0
M  V30 3387 C 323.216 -4.31579 -1.26727 0
M  V30 3388 C 324.535 -3.19422 -3.0275 0
M  V30 3389 H 321.654 -0.62301 -0.393735 0
M  V30 3390 H 324.296 -1.8645 -0.365563 0
M  V30 3391 H 322.446 -2.84629 -2.64421 0
M  V30 3392 H 324.118 -4.56284 -0.67845 0
M  V30 3393 H 322.361 -4.30049 -0.569273 0
M  V30 3394 H 323.032 -5.16106 -1.95803 0
M  V30 3395 H 325.508 -3.316 -2.51357 0
M  V30 3396 H 324.384 -4.09169 -3.65885 0
M  V30 3397 H 324.645 -2.35656 -3.74057 0
M  V30 3398 N 323.704 0.605807 -1.45491 0
M  V30 3399 C 324.953 1.36086 -1.48874 0
M  V30 3400 C 325.266 1.95131 -0.135333 0
M  V30 3401 O 326.472 2.7146 -0.0468144 0
M  V30 3402 C 324.928 2.46518 -2.62215 0
M  V30 3403 C 324.536 1.93877 -4.03876 0
M  V30 3404 C 326.28 3.23512 -2.74846 0
M  V30 3405 C 324.187 3.01801 -5.08596 0
M  V30 3406 H 323.117 0.511497 -0.553974 0
M  V30 3407 H 325.768 0.649089 -1.71636 0
M  V30 3408 H 324.15 3.20388 -2.32739 0
M  V30 3409 H 325.324 1.26704 -4.43038 0
M  V30 3410 H 323.639 1.29622 -3.95711 0
M  V30 3411 H 326.236 4.04013 -3.50253 0
M  V30 3412 H 326.579 3.74631 -1.81542 0
M  V30 3413 H 327.112 2.56742 -3.03856 0
M  V30 3414 H 323.851 2.55597 -6.03614 0
M  V30 3415 H 323.371 3.67535 -4.74002 0
M  V30 3416 H 325.05 3.66152 -5.33424 0
M  V30 3417 N 325.182 1.32811 0.848464 0
M  V30 3418 C 326.43 1.23479 1.59991 0
M  V30 3419 C 326.751 -0.201853 1.93952 0
M  V30 3420 O 326.021 -1.12818 1.60153 0
M  V30 3421 H 324.601 0.454034 0.593179 0
M  V30 3422 H 327.263 1.66412 1.01455 0
M  V30 3423 H 326.359 1.82178 2.53412 0
M  V30 3424 N 326.66 -1.06551 1.16123 0
M  V30 3425 C 327.59 -2.15935 0.88851 0
M  V30 3426 C 328.571 -1.69306 -0.164135 0
M  V30 3427 O 329.756 -1.94193 -0.0167857 0
M  V30 3428 C 326.886 -3.45149 0.385942 0
M  V30 3429 C 325.84 -4.05271 1.3762 0
M  V30 3430 C 325.166 -5.29664 0.732137 0
M  V30 3431 C 326.466 -4.44355 2.74493 0
M  V30 3432 H 328.16 -2.39006 1.80323 0
M  V30 3433 H 325.706 -1.14866 0.868435 0
M  V30 3434 H 327.659 -4.21004 0.182647 0
M  V30 3435 H 326.383 -3.21689 -0.564274 0
M  V30 3436 H 325.042 -3.3147 1.56599 0
M  V30 3437 H 324.69 -5.02499 -0.224483 0
M  V30 3438 H 324.39 -5.70848 1.39307 0
M  V30 3439 H 325.914 -6.08218 0.538802 0
M  V30 3440 H 327.328 -5.11303 2.59311 0
M  V30 3441 H 325.725 -4.96515 3.37035 0
M  V30 3442 H 326.795 -3.55339 3.29943 0
M  V30 3443 N 328.138 -0.959301 -1.25041 0
M  V30 3444 C 329.366 -0.633949 -1.96948 0
M  V30 3445 C 329.781 0.794916 -1.7125 0
M  V30 3446 O 329.138 1.53231 -0.991287 0
M  V30 3447 C 329.189 -0.888805 -3.50403 0
M  V30 3448 O 328.91 -2.26149 -3.75218 0
M  V30 3449 C 330.411 -0.576482 -4.39536 0
M  V30 3450 H 327.631 -0.237263 -0.627652 0
M  V30 3451 H 330.175 -1.28495 -1.59089 0
M  V30 3452 H 328.33 -0.284145 -3.86357 0
M  V30 3453 H 328.744 -2.33514 -4.6965 0
M  V30 3454 H 330.218 -0.805314 -5.46094 0
M  V30 3455 H 330.695 0.489075 -4.36468 0
M  V30 3456 H 331.301 -1.16067 -4.09156 0
M  V30 3457 N 329.616 1.39756 -0.72842 0
M  V30 3458 C 330.546 2.33289 -0.0991354 0
M  V30 3459 C 331.527 1.53568 0.731489 0
M  V30 3460 O 332.712 1.81987 0.677807 0
M  V30 3461 C 329.842 3.3763 0.813834 0
M  V30 3462 C 328.796 4.2791 0.0878663 0
M  V30 3463 C 328.122 5.22894 1.11741 0
M  V30 3464 C 329.422 5.11314 -1.06563 0
M  V30 3465 H 331.116 2.86163 -0.880408 0
M  V30 3466 H 328.662 1.37591 -0.424819 0
M  V30 3467 H 330.615 4.0201 1.26355 0
M  V30 3468 H 329.339 2.83181 1.62715 0
M  V30 3469 H 327.998 3.65 -0.342159 0
M  V30 3470 H 327.646 4.64744 1.92412 0
M  V30 3471 H 327.346 5.84143 0.636477 0
M  V30 3472 H 328.87 5.90151 1.56697 0
M  V30 3473 H 330.284 5.69076 -0.694671 0
M  V30 3474 H 328.681 5.81671 -1.47577 0
M  V30 3475 H 329.751 4.46534 -1.89038 0
M  V30 3476 N 331.094 0.475555 1.50254 0
M  V30 3477 C 332.34 -0.0701075 2.03279 0
M  V30 3478 C 332.695 -1.37007 1.35081 0
M  V30 3479 O 331.988 -1.8577 0.469052 0
M  V30 3480 C 332.182 -0.305114 3.56095 0
M  V30 3481 C 332.011 0.970515 4.39103 0
M  V30 3482 C 330.781 1.51509 4.82051 0
M  V30 3483 C 332.979 1.8671 4.79212 0
M  V30 3484 N 330.961 2.73928 5.49397 0
M  V30 3485 C 332.332 2.93715 5.46014 0
M  V30 3486 C 334.387 1.87695 4.61167 0
M  V30 3487 C 333.09 4.01699 5.96683 0
M  V30 3488 C 335.116 2.94637 5.12779 0
M  V30 3489 C 334.478 4.00361 5.79561 0
M  V30 3490 H 330.577 0.014486 0.781866 0
M  V30 3491 H 333.161 0.644755 1.83714 0
M  V30 3492 H 331.332 -0.989019 3.75597 0
M  V30 3493 H 333.064 -0.845516 3.95769 0
M  V30 3494 H 329.819 1.06367 4.61501 0
M  V30 3495 H 330.243 3.36109 5.87673 0
M  V30 3496 H 334.885 1.07273 4.08965 0
M  V30 3497 H 332.603 4.82934 6.4792 0
M  V30 3498 H 336.189 2.96388 5.00645 0
M  V30 3499 H 335.069 4.81751 6.18778 0
M  V30 3500 N 332.573 -1.56217 0.208337 0
M  V30 3501 C 333.989 -1.58919 -0.14729 0
M  V30 3502 C 334.189 -1.22486 -1.59998 0
M  V30 3503 O 333.245 -0.953849 -2.3379 0
M  V30 3504 C 334.558 -3.00236 0.167048 0
M  V30 3505 C 336.106 -3.12813 0.108219 0
M  V30 3506 C 336.581 -4.56284 0.396049 0
M  V30 3507 N 338.072 -4.61912 0.345142 0
M  V30 3508 C 338.807 -5.70837 0.541523 0
M  V30 3509 N 338.303 -6.88178 0.798968 0
M  V30 3510 N 340.096 -5.60091 0.474867 0
M  V30 3511 H 332.247 -1.78177 1.15614 0
M  V30 3512 H 334.51 -0.827555 0.462446 0
M  V30 3513 H 334.216 -3.31499 1.1748 0
M  V30 3514 H 334.09 -3.7354 -0.524184 0
M  V30 3515 H 336.477 -2.81354 -0.890157 0
M  V30 3516 H 336.558 -2.41866 0.832729 0
M  V30 3517 H 336.202 -4.88458 1.3918 0
M  V30 3518 H 336.132 -5.25439 -0.349502 0
M  V30 3519 H 338.623 -3.77589 0.153316 0
M  V30 3520 H 338.936 -7.67095 0.93727 0
M  V30 3521 H 337.281 -6.89953 0.836013 0
M  V30 3522 H 340.472 -4.67297 0.274064 0
M  V30 3523 H 340.645 -6.44917 0.631326 0
M  V30 3524 N 334.051 0.0651679 -1.57465 0
M  V30 3525 C 335.467 0.420105 -1.53972 0
M  V30 3526 C 335.667 1.78782 -0.929474 0
M  V30 3527 O 334.723 2.46771 -0.534839 0
M  V30 3528 C 336.036 0.355084 -2.98596 0
M  V30 3529 C 337.584 0.434792 -3.09965 0
M  V30 3530 C 338.059 0.399609 -4.56253 0
M  V30 3531 N 339.55 0.459488 -4.60915 0
M  V30 3532 C 340.285 0.454584 -5.71595 0
M  V30 3533 N 339.781 0.404102 -6.9162 0
M  V30 3534 N 341.574 0.501635 -5.59857 0
M  V30 3535 H 333.725 -0.830328 -1.95498 0
M  V30 3536 H 335.988 -0.312244 -0.895102 0
M  V30 3537 H 335.694 -0.583357 -3.46828 0
M  V30 3538 H 335.568 1.16275 -3.58831 0
M  V30 3539 H 337.955 1.36366 -2.61703 0
M  V30 3540 H 338.036 -0.40157 -2.52628 0
M  V30 3541 H 337.68 -0.525436 -5.05175 0
M  V30 3542 H 337.61 1.25359 -5.11461 0
M  V30 3543 H 340.101 0.502482 -3.74544 0
M  V30 3544 H 340.414 0.404468 -7.71741 0
M  V30 3545 H 338.759 0.37069 -6.94011 0
M  V30 3546 H 341.95 0.538812 -4.64989 0
M  V30 3547 H 342.123 0.494345 -6.46112 0
M  V30 3548 N 335.529 1.53961 0.336706 0
M  V30 3549 C 336.492 1.81724 1.39675 0
M  V30 3550 C 337.492 0.688532 1.45313 0
M  V30 3551 O 338.682 0.956829 1.45569 0
M  V30 3552 C 335.814 1.96543 2.78538 0
M  V30 3553 H 337.007 2.76424 1.16318 0
M  V30 3554 H 334.56 1.45478 0.571474 0
M  V30 3555 H 335.295 1.0401 3.07168 0
M  V30 3556 H 335.08 2.78665 2.75841 0
M  V30 3557 H 336.57 2.19516 3.5525 0
M  V30 3558 N 337.007 -0.598083 1.45811 0
M  V30 3559 C 338.253 -1.35882 1.50545 0
M  V30 3560 C 338.586 -1.93616 0.150445 0
M  V30 3561 O 337.861 -1.75604 -0.83628 0
M  V30 3562 C 338.144 -2.49966 2.59208 0
M  V30 3563 C 337.997 -1.97367 4.04186 0
M  V30 3564 C 339.316 -3.52068 2.64076 0
M  V30 3565 H 336.435 -0.492717 0.548087 0
M  V30 3566 H 339.077 -0.673319 1.77669 0
M  V30 3567 H 337.227 -3.08443 2.3621 0
M  V30 3568 H 338.899 -1.43466 4.38423 0
M  V30 3569 H 337.142 -1.283 4.14393 0
M  V30 3570 H 337.813 -2.79649 4.75921 0
M  V30 3571 H 340.289 -3.03448 2.84708 0
M  V30 3572 H 339.165 -4.2937 3.41954 0
M  V30 3573 H 339.426 -4.08304 1.69531 0
M  V30 3574 N 338.485 -1.33259 -0.841409 0
M  V30 3575 C 339.896 -1.22066 -1.41269 0
M  V30 3576 C 340.247 0.161479 -1.95534 0
M  V30 3577 O 339.372 1.06094 -1.88608 0
M  V30 3578 C 339.967 -2.20996 -2.568 0
M  V30 3579 C 338.526 -2.13649 -3.09888 0
M  V30 3580 C 337.673 -2.08623 -1.82679 0
M  V30 3581 H 340.624 -1.44895 -0.647395 0
M  V30 3582 H 340.645 -1.81621 -3.34356 0
M  V30 3583 H 340.157 -3.2158 -2.17274 0
M  V30 3584 H 338.258 -1.16359 -3.53965 0
M  V30 3585 H 338.371 -3.04079 -3.70234 0
M  V30 3586 H 336.735 -1.54061 -2.02824 0
M  V30 3587 H 337.518 -3.1101 -1.45353 0
M  V30 3588 N 339.963 1.05934 -1.16686 0
M  V30 3589 C 341.211 1.78447 -0.948744 0
M  V30 3590 C 341.532 1.87813 0.524523 0
M  V30 3591 O 340.802 1.38945 1.38098 0
M  V30 3592 H 339.382 0.660971 -0.348033 0
M  V30 3593 H 342.044 1.27947 -1.47022 0
M  V30 3594 H 341.14 2.80394 -1.37061 0
M  V30 3595 N 341.441 0.965919 1.2453 0
M  V30 3596 C 342.391 0.465731 2.23193 0
M  V30 3597 C 343.375 -0.451277 1.54442 0
M  V30 3598 O 344.567 -0.282489 1.74731 0
M  V30 3599 C 341.696 -0.244511 3.42428 0
M  V30 3600 C 340.782 0.691222 4.18429 0
M  V30 3601 N 341.173 1.82771 4.71623 0
M  V30 3602 C 339.471 0.501649 4.4317 0
M  V30 3603 C 340.172 2.41285 5.29298 0
M  V30 3604 N 339.148 1.69819 5.16394 0
M  V30 3605 H 342.95 1.33291 2.61937 0
M  V30 3606 H 340.464 0.824789 1.39896 0
M  V30 3607 H 342.461 -0.620056 4.12263 0
M  V30 3608 H 341.121 -1.10815 3.05205 0
M  V30 3609 H 342.132 2.20929 4.68413 0
M  V30 3610 H 338.809 -0.318177 4.16286 0
M  V30 3611 H 340.199 3.37181 5.8117 0
M  V30 3612 N 342.919 -1.39368 0.735821 0
M  V30 3613 C 343.851 -2.2913 0.0567723 0
M  V30 3614 C 344.864 -1.46859 -0.702589 0
M  V30 3615 O 346.053 -1.69925 -0.546616 0
M  V30 3616 C 343.153 -3.25492 -0.943823 0
M  V30 3617 C 342.326 -4.36709 -0.24581 0
M  V30 3618 C 341.385 -5.13376 -1.15463 0
M  V30 3619 O 340.411 -5.65683 -0.631803 0
M  V30 3620 N 341.613 -5.24656 -2.48427 0
M  V30 3621 H 344.378 -2.88047 0.827582 0
M  V30 3622 H 341.939 -1.50957 0.585112 0
M  V30 3623 H 343.931 -3.73657 -1.55443 0
M  V30 3624 H 342.501 -2.676 -1.61583 0
M  V30 3625 H 341.721 -3.9041 0.545286 0
M  V30 3626 H 343.009 -5.08244 0.237891 0
M  V30 3627 H 342.407 -4.83679 -2.93379 0
M  V30 3628 H 340.964 -5.76258 -3.04582 0
M  V30 3629 N 344.397 -0.483516 -1.5 0
M  V30 3630 C 345.36 0.292965 -2.2732 0
M  V30 3631 C 346.36 0.909499 -1.32608 0
M  V30 3632 O 347.55 0.776745 -1.55924 0
M  V30 3633 C 344.682 1.41854 -3.09984 0
M  V30 3634 H 345.875 -0.385289 -2.97415 0
M  V30 3635 H 343.428 -0.237942 -1.54478 0
M  V30 3636 H 344.163 2.13148 -2.44414 0
M  V30 3637 H 343.948 0.982114 -3.79601 0
M  V30 3638 H 345.438 1.96597 -3.68429 0
M  V30 3639 N 345.875 1.56104 -0.216619 0
M  V30 3640 C 346.825 2.16703 0.708798 0
M  V30 3641 C 347.809 1.11392 1.16106 0
M  V30 3642 O 349.001 1.37395 1.11587 0
M  V30 3643 C 346.13 2.84666 1.91886 0
M  V30 3644 C 345.216 3.97195 1.48651 0
M  V30 3645 N 345.607 4.99959 0.766434 0
M  V30 3646 C 343.905 4.09193 1.77418 0
M  V30 3647 C 344.606 5.79126 0.546659 0
M  V30 3648 N 343.582 5.32315 1.10188 0
M  V30 3649 H 347.384 2.93516 0.150162 0
M  V30 3650 H 344.898 1.6239 -0.0176768 0
M  V30 3651 H 346.895 3.26486 2.59253 0
M  V30 3652 H 345.555 2.09347 2.48202 0
M  V30 3653 H 346.566 5.16197 0.419634 0
M  V30 3654 H 343.243 3.45021 2.35088 0
M  V30 3655 H 344.633 6.71895 -0.026103 0
M  V30 3656 N 347.353 -0.0568162 1.57498 0
M  V30 3657 C 348.601 -0.751617 1.87604 0
M  V30 3658 C 348.922 -1.77351 0.81066 0
M  V30 3659 O 348.192 -1.95254 -0.159018 0
M  V30 3660 H 346.772 -0.280583 0.692302 0
M  V30 3661 H 349.434 -0.0293483 1.94878 0
M  V30 3662 H 348.53 -1.25852 2.856 0
M  V30 3663 N 348.832 -1.54138 -0.328536 0
M  V30 3664 C 349.795 -1.82462 -1.38709 0
M  V30 3665 C 350.795 -0.696229 -1.44946 0
M  V30 3666 O 351.985 -0.964535 -1.4506 0
M  V30 3667 C 349.117 -1.98018 -2.77492 0
M  V30 3668 H 350.31 -2.77037 -1.14851 0
M  V30 3669 H 347.863 -1.45779 -0.563751 0
M  V30 3670 H 348.598 -1.05637 -3.06613 0
M  V30 3671 H 348.383 -2.80124 -2.74359 0
M  V30 3672 H 349.873 -2.21396 -3.54081 0
M  V30 3673 N 350.31 0.590341 -1.46126 0
M  V30 3674 C 351.258 1.72105 -1.5647 0
M  V30 3675 C 352.252 1.63756 -0.433612 0
M  V30 3676 O 353.458 1.69342 -0.610194 0
M  V30 3677 H 349.833 0.568889 -0.491802 0
M  V30 3678 H 351.804 1.6051 -2.51553 0
M  V30 3679 C 350.553 3.10493 -1.56491 0
M  V30 3680 H 349.876 3.17583 -2.4286 0
M  V30 3681 H 351.316 3.8939 -1.67785 0
M  V30 3682 C 349.775 3.3563 -0.292231 0
M  V30 3683 O 350.305 3.96875 0.620739 0
M  V30 3684 N 348.511 2.90026 -0.182523 0
M  V30 3685 H 348.058 2.40367 -0.926356 0
M  V30 3686 H 348.016 3.07218 0.668152 0
M  V30 3687 N 351.788 1.33704 0.83433 0
M  V30 3688 C 352.718 1.26967 1.95963 0
M  V30 3689 C 353.699 0.149337 1.69443 0
M  V30 3690 O 354.884 0.339852 1.91203 0
M  V30 3691 C 352.014 1.01275 3.32206 0
M  V30 3692 C 350.968 2.09652 3.73136 0
M  V30 3693 C 350.294 1.69166 5.07235 0
M  V30 3694 C 351.594 3.51372 3.86439 0
M  V30 3695 H 353.288 2.2112 2.01857 0
M  V30 3696 H 350.834 1.06447 0.969793 0
M  V30 3697 H 352.787 0.952106 4.10503 0
M  V30 3698 H 351.511 0.0356203 3.26581 0
M  V30 3699 H 350.17 2.14766 2.97104 0
M  V30 3700 H 349.818 0.701437 4.98085 0
M  V30 3701 H 349.518 2.41694 5.35591 0
M  V30 3702 H 351.042 1.64576 5.88003 0
M  V30 3703 H 352.456 3.48734 4.55036 0
M  V30 3704 H 350.853 4.22425 4.26236 0
M  V30 3705 H 351.923 3.89546 2.88759 0
M  V30 3706 N 353.266 -1.05314 1.17247 0
M  V30 3707 C 354.682 -1.30452 0.919473 0
M  V30 3708 C 354.882 -1.9703 -0.42209 0
M  V30 3709 O 353.938 -2.24311 -1.15935 0
M  V30 3710 C 355.251 -2.17551 2.07586 0
M  V30 3711 C 356.799 -2.30937 2.11275 0
M  V30 3712 C 357.274 -3.21396 3.26296 0
M  V30 3713 N 358.765 -3.28981 3.26076 0
M  V30 3714 C 359.5 -3.99095 4.11716 0
M  V30 3715 N 358.996 -4.71648 5.07465 0
M  V30 3716 N 360.789 -3.95247 3.9967 0
M  V30 3717 H 352.94 -0.604988 2.03602 0
M  V30 3718 H 355.203 -0.329368 0.888944 0
M  V30 3719 H 354.909 -1.75921 3.0454 0
M  V30 3720 H 354.783 -3.18182 2.02584 0
M  V30 3721 H 357.17 -2.71809 1.14907 0
M  V30 3722 H 357.251 -1.2994 2.20339 0
M  V30 3723 H 356.895 -2.81238 4.22927 0
M  V30 3724 H 356.825 -4.22395 3.14467 0
M  V30 3725 H 359.316 -2.77286 2.5675 0
M  V30 3726 H 359.629 -5.22705 5.6921 0
M  V30 3727 H 357.974 -4.70594 5.11435 0
M  V30 3728 H 361.165 -3.37691 3.24164 0
M  V30 3729 H 361.338 -4.4962 4.66632 0
M  V30 3730 N 354.744 -0.972509 -1.24016 0
M  V30 3731 C 355.694 -0.477561 -2.22942 0
M  V30 3732 C 356.678 0.44308 -1.54679 0
M  V30 3733 O 357.87 0.273219 -1.74879 0
M  V30 3734 C 354.999 0.226348 -3.42553 0
M  V30 3735 C 354.085 -0.713403 -4.18057 0
M  V30 3736 N 354.476 -1.8527 -4.70647 0
M  V30 3737 C 352.774 -0.525145 -4.42898 0
M  V30 3738 C 353.475 -2.44089 -5.28011 0
M  V30 3739 N 352.451 -1.72556 -5.15486 0
M  V30 3740 H 356.253 -1.34678 -2.61226 0
M  V30 3741 H 353.767 -0.832196 -1.39457 0
M  V30 3742 H 355.764 0.598184 -4.12586 0
M  V30 3743 H 354.424 1.09195 -3.05788 0
M  V30 3744 H 355.435 -2.2341 -4.67235 0
M  V30 3745 H 352.112 0.296096 -4.16449 0
M  V30 3746 H 353.502 -3.40259 -5.79374 0
M  V30 3747 N 356.222 1.38976 -0.743202 0
M  V30 3748 C 357.152 2.33171 -0.123873 0
M  V30 3749 C 358.133 1.54336 0.71516 0
M  V30 3750 O 359.318 1.82696 0.658467 0
M  V30 3751 C 356.448 3.38474 0.777978 0
M  V30 3752 C 355.402 4.27979 0.0424758 0
M  V30 3753 C 354.728 5.2405 1.06189 0
M  V30 3754 C 356.028 5.10155 -1.1198 0
M  V30 3755 H 357.722 2.85213 -0.910709 0
M  V30 3756 H 355.268 1.37133 -0.439388 0
M  V30 3757 H 357.221 4.03328 1.22084 0
M  V30 3758 H 355.945 2.84891 1.59702 0
M  V30 3759 H 354.604 3.64616 -0.380853 0
M  V30 3760 H 354.252 4.66758 1.87472 0
M  V30 3761 H 353.952 5.84785 0.574485 0
M  V30 3762 H 355.476 5.9178 1.50428 0
M  V30 3763 H 356.89 5.68307 -0.75499 0
M  V30 3764 H 355.287 5.80073 -1.53738 0
M  V30 3765 H 356.357 4.44504 -1.93764 0
M  V30 3766 N 357.7 0.491464 1.49741 0
M  V30 3767 C 358.632 -0.328609 2.26832 0
M  V30 3768 C 359.645 -0.939113 1.32983 0
M  V30 3769 O 360.834 -0.824067 1.58339 0
M  V30 3770 C 357.934 -1.47675 3.05033 0
M  V30 3771 C 357.107 -0.975305 4.26388 0
M  V30 3772 C 356.166 -1.99991 4.86714 0
M  V30 3773 O 355.192 -1.57229 5.47054 0
M  V30 3774 N 356.394 -3.32962 4.75517 0
M  V30 3775 H 359.159 0.332377 2.97851 0
M  V30 3776 H 356.72 0.323441 1.58636 0
M  V30 3777 H 358.712 -2.15954 3.42266 0
M  V30 3778 H 357.282 -2.04206 2.36683 0
M  V30 3779 H 356.502 -0.117723 3.94024 0
M  V30 3780 H 357.79 -0.618531 5.05026 0
M  V30 3781 H 357.188 -3.70399 4.27576 0
M  V30 3782 H 355.745 -3.96982 5.16961 0
M  V30 3783 N 359.178 -1.55987 0.224894 0
M  V30 3784 C 360.141 -2.19178 -0.670348 0
M  V30 3785 C 361.141 -1.15461 -1.11917 0
M  V30 3786 O 362.331 -1.40675 -1.02743 0
M  V30 3787 C 359.463 -2.81777 -1.9187 0
M  V30 3788 H 360.656 -2.99662 -0.119364 0
M  V30 3789 H 358.209 -1.5628 -0.0247128 0
M  V30 3790 H 358.944 -2.05172 -2.51147 0
M  V30 3791 H 358.729 -3.57732 -1.60531 0
M  V30 3792 H 360.219 -3.30205 -2.55645 0
M  V30 3793 N 360.656 0.0484629 -1.57525 0
M  V30 3794 C 361.589 1.08755 -2.00618 0
M  V30 3795 C 362.567 1.36272 -0.887058 0
M  V30 3796 O 363.751 1.49255 -1.15131 0
M  V30 3797 C 360.878 2.42675 -2.36277 0
M  V30 3798 C 359.924 2.31142 -3.58435 0
M  V30 3799 S 360.757 1.68326 -5.08357 0
M  V30 3800 C 361.913 3.03776 -5.47239 0
M  V30 3801 H 362.146 0.720415 -2.88439 0
M  V30 3802 H 359.679 0.257801 -1.52233 0
M  V30 3803 H 361.637 3.19699 -2.57494 0
M  V30 3804 H 360.298 2.76541 -1.48942 0
M  V30 3805 H 359.491 3.29957 -3.80978 0
M  V30 3806 H 359.093 1.62258 -3.36969 0
M  V30 3807 H 361.385 4.00106 -5.46737 0
M  V30 3808 H 362.328 2.85988 -6.47778 0
M  V30 3809 H 362.736 3.05456 -4.74718 0
M  V30 3810 N 362.134 1.5431 0.320358 0
M  V30 3811 C 363.081 1.83918 1.39438 0
M  V30 3812 C 364.051 0.686525 1.51248 0
M  V30 3813 O 365.236 0.933269 1.66417 0
M  V30 3814 C 362.376 2.075 2.75749 0
M  V30 3815 C 361.489 3.35177 2.72544 0
M  V30 3816 C 360.624 3.48704 4.00723 0
M  V30 3817 C 359.663 4.70244 3.91838 0
M  V30 3818 N 358.8 4.80679 5.11754 0
M  V30 3819 H 363.64 2.75544 1.13489 0
M  V30 3820 H 361.177 1.36459 0.549309 0
M  V30 3821 H 363.135 2.19166 3.54996 0
M  V30 3822 H 361.765 1.19163 3 0
M  V30 3823 H 360.817 3.32233 1.85271 0
M  V30 3824 H 362.129 4.24534 2.61863 0
M  V30 3825 H 361.283 3.59928 4.88402 0
M  V30 3826 H 360.022 2.57445 4.14214 0
M  V30 3827 H 359.027 4.59072 3.02544 0
M  V30 3828 H 360.252 5.6289 3.7991 0
M  V30 3829 H 358.198 3.92337 5.25745 0
M  V30 3830 H 358.115 5.64007 5.0342 0
M  V30 3831 H 359.383 4.96239 6.01138 0
M  V30 3832 N 363.613 -0.582584 1.46437 0
M  V30 3833 C 364.56 -1.69164 1.5701 0
M  V30 3834 C 365.53 -1.60847 0.414403 0
M  V30 3835 O 366.715 -1.80058 0.631171 0
M  V30 3836 C 363.855 -3.075 1.56646 0
M  V30 3837 C 362.968 -3.2644 2.82951 0
M  V30 3838 C 362.103 -4.55026 2.7409 0
M  V30 3839 C 361.142 -4.6731 3.95333 0
M  V30 3840 N 360.279 -5.87221 3.84858 0
M  V30 3841 H 365.119 -1.59464 2.51744 0
M  V30 3842 H 362.656 -0.777186 1.24893 0
M  V30 3843 H 364.614 -3.8757 1.5442 0
M  V30 3844 H 363.244 -3.16096 0.654439 0
M  V30 3845 H 362.296 -2.39974 2.95155 0
M  V30 3846 H 363.608 -3.31385 3.72808 0
M  V30 3847 H 362.762 -5.43324 2.6997 0
M  V30 3848 H 361.501 -4.52519 1.81873 0
M  V30 3849 H 360.506 -3.77429 3.99784 0
M  V30 3850 H 361.731 -4.71595 4.88646 0
M  V30 3851 H 359.677 -5.85712 2.95427 0
M  V30 3852 H 359.594 -5.93435 4.6837 0
M  V30 3853 H 360.862 -6.7795 3.84713 0
M  V30 3854 N 365.091 -1.34144 -0.827227 0
M  V30 3855 C 366.338 -1.26258 -1.58319 0
M  V30 3856 C 366.666 0.168595 -1.93768 0
M  V30 3857 O 365.921 1.12877 -1.59866 0
M  V30 3858 C 366.22 -2.09464 -2.89585 0
M  V30 3859 C 365.886 -3.58521 -2.73448 0
M  V30 3860 C 364.548 -3.99155 -2.68754 0
M  V30 3861 C 366.9 -4.53189 -2.57428 0
M  V30 3862 C 364.228 -5.32656 -2.45957 0
M  V30 3863 C 366.58 -5.86864 -2.36163 0
M  V30 3864 C 365.244 -6.26667 -2.29879 0
M  V30 3865 H 364.514 -0.462013 -0.579332 0
M  V30 3866 H 367.161 -1.65845 -0.95748 0
M  V30 3867 H 365.466 -1.62692 -3.56425 0
M  V30 3868 H 367.163 -2.00712 -3.47154 0
M  V30 3869 H 363.753 -3.26264 -2.77939 0
M  V30 3870 H 367.937 -4.22696 -2.60081 0
M  V30 3871 H 363.193 -5.62519 -2.39546 0
M  V30 3872 H 367.367 -6.59813 -2.22754 0
M  V30 3873 H 364.994 -7.30049 -2.11975 0
M  V30 3874 N 366.569 1.04691 -1.17803 0
M  V30 3875 C 367.815 1.78045 -0.970969 0
M  V30 3876 C 368.148 1.87686 0.498751 0
M  V30 3877 O 367.423 1.38035 1.37027 0
M  V30 3878 C 367.706 3.2166 -1.61884 0
M  V30 3879 C 367.559 3.20001 -3.161 0
M  V30 3880 C 368.878 4.1962 -1.3269 0
M  V30 3881 H 365.997 0.64633 -0.354155 0
M  V30 3882 H 368.639 1.22333 -1.45378 0
M  V30 3883 H 366.789 3.69232 -1.20831 0
M  V30 3884 H 368.461 2.80467 -3.66246 0
M  V30 3885 H 366.704 2.58203 -3.48588 0
M  V30 3886 H 367.375 4.21386 -3.56564 0
M  V30 3887 H 369.851 3.80567 -1.68249 0
M  V30 3888 H 368.727 5.18339 -1.80599 0
M  V30 3889 H 368.988 4.414 -0.248622 0
M  V30 3890 N 368.047 0.979072 1.23499 0
M  V30 3891 C 368.994 0.517904 2.24914 0
M  V30 3892 C 369.964 -0.442525 1.60097 0
M  V30 3893 O 371.149 -0.350365 1.87556 0
M  V30 3894 C 368.289 -0.174813 3.44657 0
M  V30 3895 C 367.402 0.825721 4.24035 0
M  V30 3896 C 366.537 0.107946 5.3109 0
M  V30 3897 C 365.576 1.09778 6.02175 0
M  V30 3898 N 364.713 0.40925 7.00906 0
M  V30 3899 H 369.553 1.38751 2.63727 0
M  V30 3900 H 367.09 0.695303 1.2963 0
M  V30 3901 H 369.048 -0.593233 4.12961 0
M  V30 3902 H 367.678 -1.0083 3.06648 0
M  V30 3903 H 366.73 1.36253 3.55161 0
M  V30 3904 H 368.042 1.58005 4.73113 0
M  V30 3905 H 367.196 -0.367904 6.05583 0
M  V30 3906 H 365.935 -0.678994 4.8295 0
M  V30 3907 H 364.94 1.5844 5.26476 0
M  V30 3908 H 366.165 1.88536 6.52404 0
M  V30 3909 H 364.111 -0.358506 6.5502 0
M  V30 3910 H 364.028 1.10226 7.47921 0
M  V30 3911 H 365.296 -0.0442557 7.79487 0
M  V30 3912 N 369.525 -1.3858 0.750561 0
M  V30 3913 C 370.753 -2.04471 0.316098 0
M  V30 3914 C 371.168 -1.56606 -1.05452 0
M  V30 3915 O 370.525 -0.737784 -1.66922 0
M  V30 3916 C 370.576 -3.60025 0.326275 0
M  V30 3917 O 370.297 -4.06133 1.6428 0
M  V30 3918 C 371.798 -4.43131 -0.122429 0
M  V30 3919 H 369.018 -0.65717 0.135528 0
M  V30 3920 H 371.562 -1.77329 1.01857 0
M  V30 3921 H 369.717 -3.86014 -0.327431 0
M  V30 3922 H 370.131 -5.00547 1.56693 0
M  V30 3923 H 371.605 -5.51963 -0.0641473 0
M  V30 3924 H 372.082 -4.23333 -1.16988 0
M  V30 3925 H 372.688 -4.22323 0.50229 0
M  V30 3926 N 371.003 -0.499398 -1.49478 0
M  V30 3927 C 371.936 0.326491 -2.25852 0
M  V30 3928 C 372.914 0.971776 -1.30366 0
M  V30 3929 O 374.098 1.00219 -1.59651 0
M  V30 3930 C 371.225 1.45969 -3.05632 0
M  V30 3931 C 370.271 0.928938 -4.16261 0
M  V30 3932 S 371.104 -0.179012 -5.35201 0
M  V30 3933 C 372.26 0.957389 -6.18534 0
M  V30 3934 H 372.493 -0.321746 -2.95554 0
M  V30 3935 H 370.026 -0.284674 -1.51753 0
M  V30 3936 H 371.984 2.109 -3.52181 0
M  V30 3937 H 370.645 2.07953 -2.35402 0
M  V30 3938 H 369.838 1.77813 -4.71592 0
M  V30 3939 H 369.44 0.356869 -3.72293 0
M  V30 3940 H 371.732 1.86296 -6.51383 0
M  V30 3941 H 372.675 0.442733 -7.06715 0
M  V30 3942 H 373.083 1.224 -5.5107 0
M  V30 3943 N 372.481 1.55866 -0.233164 0
M  V30 3944 C 373.727 1.98897 0.395959 0
M  V30 3945 C 374.06 1.12091 1.58585 0
M  V30 3946 O 373.335 0.181182 1.93654 0
M  V30 3947 C 373.618 3.50658 0.819224 0
M  V30 3948 C 373.471 4.48233 -0.375109 0
M  V30 3949 C 374.79 4.07135 1.67121 0
M  V30 3950 H 371.909 0.723102 0.142451 0
M  V30 3951 H 374.551 1.87082 -0.331725 0
M  V30 3952 H 372.701 3.60857 1.43925 0
M  V30 3953 H 374.373 4.50031 -1.01341 0
M  V30 3954 H 372.616 4.21624 -1.02058 0
M  V30 3955 H 373.287 5.51988 -0.0358328 0
M  V30 3956 H 375.763 3.99952 1.14795 0
M  V30 3957 H 374.639 5.13615 1.93625 0
M  V30 3958 H 374.9 3.54736 2.63846 0
M  V30 3959 N 373.959 -0.0401083 1.57549 0
M  V30 3960 C 374.889 -1.04384 2.08869 0
M  V30 3961 C 375.87 -1.38407 0.988817 0
M  V30 3962 O 377.055 -1.47483 1.26342 0
M  V30 3963 C 374.185 -2.34808 2.55895 0
M  V30 3964 C 373.139 -2.15057 3.70047 0
M  V30 3965 C 372.465 -3.51145 4.03239 0
M  V30 3966 C 373.765 -1.54576 4.98902 0
M  V30 3967 H 375.459 -0.616666 2.92981 0
M  V30 3968 H 373.005 -0.295184 1.40942 0
M  V30 3969 H 374.958 -3.05346 2.90417 0
M  V30 3970 H 373.682 -2.79565 1.68853 0
M  V30 3971 H 372.341 -1.46954 3.35857 0
M  V30 3972 H 371.989 -3.93529 3.13279 0
M  V30 3973 H 371.689 -3.38758 4.80122 0
M  V30 3974 H 373.213 -4.23062 4.40285 0
M  V30 3975 H 374.627 -2.15017 5.31451 0
M  V30 3976 H 373.024 -1.52796 5.80322 0
M  V30 3977 H 374.094 -0.51039 4.82206 0
M  V30 3978 N 375.437 -1.54477 -0.31217 0
M  V30 3979 C 376.683 -1.73483 -1.0503 0
M  V30 3980 C 377.016 -0.513125 -1.87298 0
M  V30 3981 O 376.291 0.489864 -1.8823 0
M  V30 3982 C 376.574 -3.01723 -1.96558 0
M  V30 3983 C 376.427 -4.3417 -1.17545 0
M  V30 3984 C 377.746 -3.25772 -2.95907 0
M  V30 3985 H 374.865 -0.631222 -0.380432 0
M  V30 3986 H 377.507 -1.87184 -0.325932 0
M  V30 3987 H 375.657 -2.90174 -2.58324 0
M  V30 3988 H 377.329 -4.5762 -0.581513 0
M  V30 3989 H 375.572 -4.31159 -0.477925 0
M  V30 3990 H 376.243 -5.20143 -1.84811 0
M  V30 3991 H 378.719 -3.36857 -2.44267 0
M  V30 3992 H 377.595 -4.16838 -3.57123 0
M  V30 3993 H 377.856 -2.43537 -3.68974 0
M  V30 3994 N 376.915 0.57481 -1.46744 0
M  V30 3995 C 378.161 1.3347 -1.52688 0
M  V30 3996 C 378.494 1.93353 -0.181229 0
M  V30 3997 O 377.769 1.76912 0.808237 0
M  V30 3998 C 378.052 2.45811 -2.63152 0
M  V30 3999 C 377.905 1.90912 -4.07275 0
M  V30 4000 C 379.224 3.47822 -2.69644 0
M  V30 4001 H 376.343 0.483935 -0.555856 0
M  V30 4002 H 378.985 0.644968 -1.78718 0
M  V30 4003 H 377.135 3.04646 -2.41088 0
M  V30 4004 H 378.807 1.36473 -4.4065 0
M  V30 4005 H 377.05 1.21691 -4.16382 0
M  V30 4006 H 377.721 2.72042 -4.80309 0
M  V30 4007 H 380.197 2.9888 -2.895 0
M  V30 4008 H 379.073 4.23876 -3.48742 0
M  V30 4009 H 379.334 4.05555 -1.76005 0
M  V30 4010 N 378.394 1.34581 0.820102 0
M  V30 4011 C 379.324 1.29038 1.94606 0
M  V30 4012 C 380.305 0.1673 1.69275 0
M  V30 4013 O 381.49 0.360112 1.90832 0
M  V30 4014 C 378.62 1.04793 3.31113 0
M  V30 4015 C 377.574 2.13597 3.70891 0
M  V30 4016 C 376.9 1.74537 5.05412 0
M  V30 4017 C 378.2 3.55451 3.8269 0
M  V30 4018 H 379.894 2.23248 1.99501 0
M  V30 4019 H 377.44 1.0747 0.958449 0
M  V30 4020 H 379.393 0.995592 4.0947 0
M  V30 4021 H 378.117 0.0702565 3.26524 0
M  V30 4022 H 376.776 2.17905 2.9481 0
M  V30 4023 H 376.424 0.754226 4.97313 0
M  V30 4024 H 376.124 2.47361 5.32997 0
M  V30 4025 H 377.648 1.70803 5.86224 0
M  V30 4026 H 379.062 3.5354 4.51312 0
M  V30 4027 H 377.459 4.26922 4.21732 0
M  V30 4028 H 378.529 3.92587 2.84611 0
M  V30 4029 N 379.872 -1.04064 1.18357 0
M  V30 4030 C 381.1 -1.80916 1.00384 0
M  V30 4031 C 381.515 -1.83414 -0.447738 0
M  V30 4032 O 380.872 -1.26962 -1.31099 0
M  V30 4033 C 380.923 -3.26516 1.55144 0
M  V30 4034 O 380.644 -3.2424 2.94618 0
M  V30 4035 C 382.145 -4.20013 1.41789 0
M  V30 4036 H 379.365 -0.569728 0.354474 0
M  V30 4037 H 381.909 -1.31151 1.56906 0
M  V30 4038 H 380.064 -3.73512 1.02798 0
M  V30 4039 H 380.478 -4.15452 3.20156 0
M  V30 4040 H 381.952 -5.20111 1.84901 0
M  V30 4041 H 382.429 -4.37667 0.36661 0
M  V30 4042 H 383.035 -3.78881 1.93207 0
M  V30 4043 N 381.35 -0.985608 -1.22978 0
M  V30 4044 C 382.597 -0.657386 -1.91532 0
M  V30 4045 C 382.925 0.809707 -1.76845 0
M  V30 4046 O 382.18 1.60021 -1.12658 0
M  V30 4047 C 382.479 -1.00014 -3.43121 0
M  V30 4048 C 382.145 -2.4583 -3.77993 0
M  V30 4049 C 380.807 -2.85679 -3.87222 0
M  V30 4050 C 383.159 -3.40378 -3.94705 0
M  V30 4051 C 380.487 -4.19081 -4.10595 0
M  V30 4052 C 382.839 -4.73429 -4.1958 0
M  V30 4053 C 381.503 -5.1303 -4.27032 0
M  V30 4054 H 380.773 -0.240555 -0.700867 0
M  V30 4055 H 383.42 -1.24044 -1.45895 0
M  V30 4056 H 381.725 -0.335072 -3.90365 0
M  V30 4057 H 383.422 -0.724322 -3.94404 0
M  V30 4058 H 380.012 -2.13939 -3.71387 0
M  V30 4059 H 384.196 -3.10766 -3.8696 0
M  V30 4060 H 379.452 -4.49362 -4.14589 0
M  V30 4061 H 383.626 -5.46644 -4.31455 0
M  V30 4062 H 381.253 -6.16418 -4.44896 0
M  V30 4063 N 382.828 1.3818 -0.7579 0
M  V30 4064 C 383.791 2.28764 -0.141286 0
M  V30 4065 C 384.791 1.47388 0.642907 0
M  V30 4066 O 385.981 1.67781 0.468536 0
M  V30 4067 C 383.113 3.31184 0.808069 0
M  V30 4068 H 384.306 2.848 -0.939633 0
M  V30 4069 H 381.859 1.47212 -0.525191 0
M  V30 4070 H 382.594 2.80247 1.63193 0
M  V30 4071 H 382.379 3.91314 0.248104 0
M  V30 4072 H 383.869 3.98909 1.23536 0
M  V30 4073 N 384.306 0.507319 1.49211 0
M  V30 4074 C 385.555 -0.0368315 2.01666 0
M  V30 4075 C 385.868 -1.37459 1.39156 0
M  V30 4076 O 387.074 -2.00579 1.82976 0
M  V30 4077 C 385.53 -0.116089 3.59713 0
M  V30 4078 C 385.138 1.2154 4.31198 0
M  V30 4079 C 386.882 -0.610268 4.2009 0
M  V30 4080 C 384.789 1.09796 5.81119 0
M  V30 4081 H 383.719 -0.0175376 0.753796 0
M  V30 4082 H 386.37 0.647691 1.71689 0
M  V30 4083 H 384.752 -0.8652 3.86433 0
M  V30 4084 H 385.926 1.9783 4.16173 0
M  V30 4085 H 384.241 1.64352 3.82593 0
M  V30 4086 H 386.838 -0.715742 5.29888 0
M  V30 4087 H 387.181 -1.61064 3.8388 0
M  V30 4088 H 387.714 0.0824916 3.97714 0
M  V30 4089 H 384.453 2.0728 6.21864 0
M  V30 4090 H 383.973 0.376058 5.9862 0
M  V30 4091 H 385.652 0.779281 6.4229 0
M  V30 4092 N 385.784 -1.5574 0.241426 0
M  V30 4093 C 387.024 -2.00714 -0.38644 0
M  V30 4094 C 387.388 -1.12586 -1.55526 0
M  V30 4095 O 388.589 -1.46992 -2.25048 0
M  V30 4096 C 386.86 -3.48534 -0.791128 0
M  V30 4097 S 388.419 -4.15519 -1.41029 0
M  V30 4098 H 385.237 -0.700484 -0.121834 0
M  V30 4099 H 387.839 -1.92243 0.355377 0
M  V30 4100 H 386.543 -4.10342 0.0689225 0
M  V30 4101 H 386.074 -3.6092 -1.56526 0
M  V30 4102 H 388.089 -4.16352 -2.69936 0
M  V30 4103 N 387.262 0.0317525 -1.57568 0
M  V30 4104 C 388.508 0.718712 -1.90279 0
M  V30 4105 C 388.863 1.73108 -0.839727 0
M  V30 4106 O 388.156 1.90997 0.15188 0
M  V30 4107 C 388.35 1.43167 -3.27472 0
M  V30 4108 C 388.179 0.489869 -4.47024 0
M  V30 4109 C 386.949 0.111909 -5.05176 0
M  V30 4110 C 389.147 -0.230592 -5.13783 0
M  V30 4111 N 387.129 -0.831427 -6.08244 0
M  V30 4112 C 388.5 -1.02968 -6.1139 0
M  V30 4113 C 390.555 -0.297821 -4.97008 0
M  V30 4114 C 389.258 -1.88982 -6.9403 0
M  V30 4115 C 391.284 -1.14507 -5.80209 0
M  V30 4116 C 390.646 -1.9321 -6.77384 0
M  V30 4117 H 386.745 0.237177 -0.745165 0
M  V30 4118 H 389.329 -0.0211267 -1.94689 0
M  V30 4119 H 387.5 2.14199 -3.23996 0
M  V30 4120 H 389.232 2.0708 -3.47707 0
M  V30 4121 H 385.987 0.473513 -4.71227 0
M  V30 4122 H 386.411 -1.29752 -6.6445 0
M  V30 4123 H 391.053 0.296346 -4.2176 0
M  V30 4124 H 388.771 -2.4948 -7.68626 0
M  V30 4125 H 392.357 -1.20059 -5.69278 0
M  V30 4126 H 391.237 -2.57711 -7.40645 0
M  V30 4127 N 388.74 1.54641 0.303973 0
M  V30 4128 C 389.67 1.88386 1.3796 0
M  V30 4129 C 390.651 0.742485 1.5304 0
M  V30 4130 O 391.836 0.997959 1.66597 0
M  V30 4131 C 388.966 2.12854 2.74427 0
M  V30 4132 C 387.92 3.28702 2.74115 0
M  V30 4133 C 387.246 3.38582 4.13844 0
M  V30 4134 C 388.546 4.65881 2.3612 0
M  V30 4135 H 390.24 2.78474 1.09966 0
M  V30 4136 H 387.786 1.33988 0.527556 0
M  V30 4137 H 389.739 2.35047 3.49758 0
M  V30 4138 H 388.463 1.19535 3.03939 0
M  V30 4139 H 387.122 3.06428 2.0124 0
M  V30 4140 H 386.77 2.42784 4.40528 0
M  V30 4141 H 386.47 4.16453 4.14537 0
M  V30 4142 H 387.994 3.63031 4.90959 0
M  V30 4143 H 389.408 4.87823 3.01167 0
M  V30 4144 H 387.805 5.46444 2.48031 0
M  V30 4145 H 388.875 4.66799 1.3125 0
M  V30 4146 N 390.218 -0.567019 1.47046 0
M  V30 4147 C 391.629 -1.14916 1.47143 0
M  V30 4148 C 391.98 -1.94954 0.220767 0
M  V30 4149 O 391.105 -2.05602 -0.67505 0
M  V30 4150 C 391.7 -2.09069 2.666 0
M  V30 4151 C 390.259 -2.62575 2.69687 0
M  V30 4152 C 389.406 -1.38755 2.40088 0
M  V30 4153 H 392.357 -0.354126 1.54699 0
M  V30 4154 H 392.378 -2.92789 2.43011 0
M  V30 4155 H 391.89 -1.50789 3.57609 0
M  V30 4156 H 389.991 -3.24681 1.82792 0
M  V30 4157 H 390.104 -3.04239 3.70102 0
M  V30 4158 H 388.468 -1.69098 1.90468 0
M  V30 4159 H 389.251 -0.822822 3.33293 0
M  V30 4160 N 391.696 -1.35014 -0.812953 0
M  V30 4161 C 392.926 -1.30841 -1.59888 0
M  V30 4162 C 393.334 0.117576 -1.88834 0
M  V30 4163 O 392.677 1.07807 -1.48739 0
M  V30 4164 C 392.739 -2.0412 -2.95931 0
M  V30 4165 C 392.403 -3.53336 -2.89832 0
M  V30 4166 C 393.4 -4.48052 -2.63714 0
M  V30 4167 C 391.085 -3.95894 -3.0915 0
M  V30 4168 C 393.079 -5.833 -2.56982 0
M  V30 4169 C 390.766 -5.31239 -3.0204 0
M  V30 4170 C 391.764 -6.24754 -2.75991 0
M  V30 4171 O 391.452 -7.57617 -2.68833 0
M  V30 4172 H 391.184 -0.451215 -0.50337 0
M  V30 4173 H 393.738 -1.78354 -1.01877 0
M  V30 4174 H 391.968 -1.51235 -3.559 0
M  V30 4175 H 393.657 -1.93107 -3.57022 0
M  V30 4176 H 394.423 -4.16492 -2.48515 0
M  V30 4177 H 390.302 -3.23495 -3.28438 0
M  V30 4178 H 393.846 -6.56263 -2.36569 0
M  V30 4179 H 389.743 -5.62415 -3.16796 0
M  V30 4180 H 390.511 -7.67469 -2.84487 0
M  V30 4181 N 393.175 1.03435 -1.18907 0
M  V30 4182 C 394.125 2.09924 -0.889706 0
M  V30 4183 C 395.109 1.60261 0.143216 0
M  V30 4184 O 396.301 1.76892 -0.0617122 0
M  V30 4185 C 393.43 3.40669 -0.424168 0
M  V30 4186 C 392.516 3.97082 -1.48952 0
M  V30 4187 N 392.907 4.27227 -2.70759 0
M  V30 4188 C 391.205 4.25029 -1.35152 0
M  V30 4189 C 391.906 4.7246 -3.39347 0
M  V30 4190 N 390.882 4.7366 -2.66735 0
M  V30 4191 H 394.684 2.31116 -1.81555 0
M  V30 4192 H 392.198 1.21246 -1.08042 0
M  V30 4193 H 394.195 4.16461 -0.191176 0
M  V30 4194 H 392.855 3.20901 0.495263 0
M  V30 4195 H 393.866 4.16678 -3.0757 0
M  V30 4196 H 390.543 4.14554 -0.495126 0
M  V30 4197 H 391.933 5.04751 -4.43481 0
M  V30 4198 N 394.653 0.992116 1.22453 0
M  V30 4199 C 395.583 0.561677 2.26644 0
M  V30 4200 C 396.564 -0.411055 1.65059 0
M  V30 4201 O 397.749 -0.301861 1.9184 0
M  V30 4202 C 394.879 -0.125247 3.47074 0
M  V30 4203 C 393.833 0.765948 4.21091 0
M  V30 4204 C 393.159 -0.0538484 5.34673 0
M  V30 4205 C 394.459 2.06242 4.79856 0
M  V30 4206 H 396.153 1.43259 2.62902 0
M  V30 4207 H 393.699 0.690283 1.26377 0
M  V30 4208 H 395.652 -0.437764 4.1912 0
M  V30 4209 H 394.376 -1.03069 3.0991 0
M  V30 4210 H 393.035 1.0621 3.50878 0
M  V30 4211 H 392.683 -0.960188 4.9375 0
M  V30 4212 H 392.383 0.539415 5.85119 0
M  V30 4213 H 393.907 -0.360477 6.09535 0
M  V30 4214 H 395.321 1.8139 5.43848 0
M  V30 4215 H 393.718 2.60444 5.40638 0
M  V30 4216 H 394.788 2.74167 3.99951 0
M  V30 4217 N 396.131 -1.37776 0.765217 0
M  V30 4218 C 397.361 -2.03828 0.337277 0
M  V30 4219 C 397.769 -1.57841 -1.04321 0
M  V30 4220 O 397.112 -0.752043 -1.67601 0
M  V30 4221 C 397.174 -3.58292 0.294407 0
M  V30 4222 C 396.838 -4.27384 1.61838 0
M  V30 4223 C 397.835 -4.51956 2.56967 0
M  V30 4224 C 395.52 -4.65345 1.89102 0
M  V30 4225 C 397.514 -5.13536 3.77571 0
M  V30 4226 C 395.201 -5.26647 3.09978 0
M  V30 4227 C 396.199 -5.50679 4.04032 0
M  V30 4228 O 395.887 -6.10702 5.2278 0
M  V30 4229 H 395.619 -0.661292 0.140248 0
M  V30 4230 H 398.173 -1.77222 1.03834 0
M  V30 4231 H 396.403 -3.83918 -0.462983 0
M  V30 4232 H 398.092 -4.05763 -0.105581 0
M  V30 4233 H 398.858 -4.23048 2.37183 0
M  V30 4234 H 394.737 -4.45978 1.16725 0
M  V30 4235 H 398.281 -5.3221 4.50997 0
M  V30 4236 H 394.178 -5.54979 3.29649 0
M  V30 4237 H 394.946 -6.29183 5.23517 0
M  V30 4238 N 397.609 -0.515225 -1.4894 0
M  V30 4239 C 398.856 0.024215 -2.02486 0
M  V30 4240 C 399.184 1.35671 -1.39368 0
M  V30 4241 O 398.439 1.88566 -0.523574 0
M  V30 4242 C 398.738 0.210595 -3.56779 0
M  V30 4243 C 398.404 -1.04569 -4.38607 0
M  V30 4244 C 397.066 -1.39002 -4.60686 0
M  V30 4245 C 399.418 -1.88008 -4.86109 0
M  V30 4246 C 396.746 -2.568 -5.27514 0
M  V30 4247 C 399.098 -3.04972 -5.54234 0
M  V30 4248 C 397.762 -3.39768 -5.74555 0
M  V30 4249 H 397.032 0.00886088 -0.740947 0
M  V30 4250 H 399.679 -0.678263 -1.79086 0
M  V30 4251 H 397.984 0.99572 -3.78936 0
M  V30 4252 H 399.681 0.642659 -3.95817 0
M  V30 4253 H 396.271 -0.767497 -4.21672 0
M  V30 4254 H 400.455 -1.62719 -4.68867 0
M  V30 4255 H 395.711 -2.8398 -5.41447 0
M  V30 4256 H 399.885 -3.69943 -5.90013 0
M  V30 4257 H 397.512 -4.31148 -6.26112 0
M  V30 4258 N 399.087 1.5561 -0.249682 0
M  V30 4259 C 400.336 1.98187 0.37479 0
M  V30 4260 C 400.649 1.14111 1.58865 0
M  V30 4261 O 401.855 1.46714 2.28445 0
M  V30 4262 C 400.311 3.52661 0.718192 0
M  V30 4263 C 399.919 4.45481 -0.474428 0
M  V30 4264 C 401.663 4.03888 1.3067 0
M  V30 4265 C 399.57 5.91303 -0.107026 0
M  V30 4266 H 398.5 0.740159 0.143808 0
M  V30 4267 H 401.151 1.80125 -0.350336 0
M  V30 4268 H 399.533 3.66429 1.50152 0
M  V30 4269 H 400.707 4.43473 -1.25172 0
M  V30 4270 H 399.022 4.04751 -0.978052 0
M  V30 4271 H 401.619 5.10358 1.59496 0
M  V30 4272 H 401.962 3.51401 2.23211 0
M  V30 4273 H 402.495 3.93457 0.586211 0
M  V30 4274 H 399.234 6.47833 -0.999642 0
M  V30 4275 H 398.754 5.9644 0.634013 0
M  V30 4276 H 400.433 6.46258 0.309807 0
M  V30 4277 N 400.565 -0.0233959 1.57583 0
M  V30 4278 C 401.495 -1.02162 2.09965 0
M  V30 4279 C 402.476 -1.3735 1.00344 0
M  V30 4280 O 403.661 -1.46135 1.27899 0
M  V30 4281 C 400.791 -2.32081 2.58371 0
M  V30 4282 C 399.745 -2.1112 3.72307 0
M  V30 4283 C 399.071 -3.46848 4.06941 0
M  V30 4284 C 400.371 -1.49276 5.00514 0
M  V30 4285 H 402.065 -0.585557 2.93618 0
M  V30 4286 H 399.611 -0.280218 1.41247 0
M  V30 4287 H 401.564 -3.02249 2.93639 0
M  V30 4288 H 400.288 -2.77758 1.71808 0
M  V30 4289 H 398.947 -1.43384 3.37397 0
M  V30 4290 H 398.595 -3.90184 3.17436 0
M  V30 4291 H 398.295 -3.33646 4.83688 0
M  V30 4292 H 399.819 -4.18369 4.44747 0
M  V30 4293 H 401.233 -2.09368 5.33702 0
M  V30 4294 H 399.63 -1.46632 5.8191 0
M  V30 4295 H 400.7 -0.459217 4.82721 0
M  V30 4296 N 402.043 -1.548 -0.295768 0
M  V30 4297 C 403.291 -1.73985 -1.02828 0
M  V30 4298 C 403.612 -0.531406 -1.87619 0
M  V30 4299 O 402.882 0.454221 -1.90561 0
M  V30 4300 H 401.462 -0.641556 -0.382642 0
M  V30 4301 H 404.124 -1.92163 -0.325489 0
M  V30 4302 H 403.22 -2.63129 -1.67838 0
M  V30 4303 N 403.521 0.559213 -1.47345 0
M  V30 4304 C 404.746 1.34676 -1.57725 0
M  V30 4305 C 405.171 1.86723 -0.227164 0
M  V30 4306 O 404.529 1.6286 0.796642 0
M  V30 4307 C 404.577 2.49399 -2.60447 0
M  V30 4308 O 403.681 3.51567 -2.15578 0
M  V30 4309 H 403.022 0.400115 -0.52991 0
M  V30 4310 H 405.552 0.676009 -1.93109 0
M  V30 4311 H 405.562 2.95996 -2.80803 0
M  V30 4312 H 404.237 2.10873 -3.58477 0
M  V30 4313 H 402.814 3.11289 -2.05313 0
M  V30 4314 N 404.999 1.35443 0.805782 0
M  V30 4315 C 406.246 1.28761 1.56291 0
M  V30 4316 C 406.574 -0.137747 1.94012 0
M  V30 4317 O 405.829 -1.1032 1.61642 0
M  V30 4318 C 406.128 2.14045 2.86216 0
M  V30 4319 C 405.794 3.62826 2.67709 0
M  V30 4320 C 404.456 4.0338 2.6237 0
M  V30 4321 C 406.808 4.57227 2.50186 0
M  V30 4322 C 404.136 5.36501 2.37451 0
M  V30 4323 C 406.488 5.90547 2.26797 0
M  V30 4324 C 405.152 6.30245 2.1988 0
M  V30 4325 H 404.422 0.471171 0.571908 0
M  V30 4326 H 407.069 1.67347 0.930974 0
M  V30 4327 H 405.374 1.68342 3.53791 0
M  V30 4328 H 407.071 2.0621 3.43917 0
M  V30 4329 H 403.661 3.30644 2.72713 0
M  V30 4330 H 407.845 4.2678 2.53323 0
M  V30 4331 H 403.101 5.66259 2.30567 0
M  V30 4332 H 407.275 6.63274 2.12228 0
M  V30 4333 H 404.902 7.33328 2.00333 0
M  V30 4334 N 406.477 -1.02803 1.19454 0
M  V30 4335 C 407.409 -2.11181 0.890807 0
M  V30 4336 C 408.422 -1.6238 -0.116829 0
M  V30 4337 O 409.611 -1.78144 0.112694 0
M  V30 4338 C 406.711 -3.37461 0.311942 0
M  V30 4339 C 405.884 -4.15446 1.36834 0
M  V30 4340 C 404.943 -5.20039 0.802864 0
M  V30 4341 O 403.969 -5.49602 1.48077 0
M  V30 4342 N 405.171 -5.79165 -0.393417 0
M  V30 4343 H 407.936 -2.37827 1.82369 0
M  V30 4344 H 405.497 -1.19101 1.09666 0
M  V30 4345 H 407.489 -4.0462 -0.0802225 0
M  V30 4346 H 406.059 -3.08156 -0.52524 0
M  V30 4347 H 405.279 -3.43423 1.93531 0
M  V30 4348 H 406.567 -4.64335 2.08015 0
M  V30 4349 H 405.965 -5.57466 -0.961658 0
M  V30 4350 H 404.522 -6.47729 -0.727351 0
M  V30 4351 N 407.956 -0.998596 -1.21925 0
M  V30 4352 C 408.866 -0.562736 -2.27751 0
M  V30 4353 C 409.882 0.391203 -1.69545 0
M  V30 4354 O 411.058 0.256625 -1.99758 0
M  V30 4355 C 408.123 0.11012 -3.46525 0
M  V30 4356 C 407.184 -0.887495 -4.20026 0
M  V30 4357 C 406.417 -0.246654 -5.3313 0
M  V30 4358 O 406.64 0.958088 -5.62296 0
M  V30 4359 O 405.574 -0.954374 -5.94286 0
M  V30 4360 H 409.4 -1.44329 -2.67213 0
M  V30 4361 H 406.985 -0.767135 -1.28201 0
M  V30 4362 H 408.867 0.486756 -4.18579 0
M  V30 4363 H 407.542 0.965154 -3.08976 0
M  V30 4364 H 406.449 -1.31517 -3.5022 0
M  V30 4365 H 407.782 -1.71191 -4.6147 0
M  V30 4366 N 409.434 1.37368 -0.772513 0
M  V30 4367 C 410.711 1.93839 -0.26188 0
M  V30 4368 C 411.091 1.7061 1.24319 0
M  V30 4369 O 410.439 1.05534 2.02669 0
M  V30 4370 C 410.649 3.43154 -0.636102 0
M  V30 4371 C 411.997 4.20249 -0.606324 0
M  V30 4372 O 413.021 3.5152 -0.575538 0
M  V30 4373 O 411.88 5.42809 -0.634086 0
M  V30 4374 H 408.974 0.82478 -0.0605555 0
M  V30 4375 H 411.52 1.4665 -0.853917 0
M  V30 4376 H 410.292 3.53647 -1.6748 0
M  V30 4377 H 409.915 3.97596 -0.0170516 0
M  V30 4378 N 410.912 0.523116 1.48665 0
M  V30 4379 C 412.161 -0.01544 2.01694 0
M  V30 4380 C 412.474 -1.35975 1.40606 0
M  V30 4381 O 413.68 -1.98627 1.85093 0
M  V30 4382 C 412.136 -0.0779303 3.59816 0
M  V30 4383 C 411.744 1.26107 4.29885 0
M  V30 4384 C 413.488 -0.565678 4.20714 0
M  V30 4385 C 411.395 1.15954 5.79921 0
M  V30 4386 H 410.325 -0.00954163 0.75394 0
M  V30 4387 H 412.976 0.665865 1.70993 0
M  V30 4388 H 411.358 -0.824165 3.87329 0
M  V30 4389 H 412.532 2.02233 4.14051 0
M  V30 4390 H 410.847 1.68401 3.80828 0
M  V30 4391 H 413.444 -0.6595 5.30617 0
M  V30 4392 H 413.787 -1.56984 3.85567 0
M  V30 4393 H 414.32 0.12467 3.97605 0
M  V30 4394 H 411.059 2.13864 6.19631 0
M  V30 4395 H 410.579 0.439529 5.98187 0
M  V30 4396 H 412.258 0.847361 6.41427 0
M  V30 4397 N 412.39 -1.55475 0.257931 0
M  V30 4398 C 413.62 -2.03314 -0.367026 0
M  V30 4399 C 414.028 -1.13625 -1.51281 0
M  V30 4400 O 413.371 -0.145334 -1.83124 0
M  V30 4401 C 413.433 -3.47362 -0.926284 0
M  V30 4402 C 413.097 -4.56914 0.0886584 0
M  V30 4403 C 414.094 -5.12013 0.902123 0
M  V30 4404 C 411.779 -5.01827 0.217936 0
M  V30 4405 C 413.773 -6.10529 1.83122 0
M  V30 4406 C 411.46 -6.00172 1.15052 0
M  V30 4407 C 412.458 -6.54402 1.95568 0
M  V30 4408 O 412.146 -7.50827 2.87253 0
M  V30 4409 H 411.878 -0.669976 -0.0900443 0
M  V30 4410 H 414.432 -2.01804 0.382673 0
M  V30 4411 H 412.662 -3.46056 -1.72575 0
M  V30 4412 H 414.351 -3.78637 -1.46249 0
M  V30 4413 H 415.117 -4.78139 0.812891 0
M  V30 4414 H 410.996 -4.59272 -0.398721 0
M  V30 4415 H 414.54 -6.52783 2.46008 0
M  V30 4416 H 410.437 -6.33465 1.24064 0
M  V30 4417 H 411.205 -7.68483 2.81739 0
M  V30 4418 N 413.868 0.0150385 -1.57593 0
M  V30 4419 C 415.108 0.70768 -1.91758 0
M  V30 4420 C 415.472 1.71764 -0.857974 0
M  V30 4421 O 416.673 2.45956 -1.0844 0
M  V30 4422 C 414.944 1.34736 -3.3103 0
M  V30 4423 S 416.503 2.06721 -3.87056 0
M  V30 4424 H 413.321 0.234119 -0.671349 0
M  V30 4425 H 415.923 -0.0380373 -1.95463 0
M  V30 4426 H 414.627 0.59926 -4.06001 0
M  V30 4427 H 414.158 2.13133 -3.30663 0
M  V30 4428 H 416.173 3.34047 -3.66915 0
M  V30 4429 N 415.346 1.54954 0.287554 0
M  V30 4430 C 416.296 1.8322 1.357 0
M  V30 4431 C 417.28 0.690152 1.45347 0
M  V30 4432 O 418.472 0.951137 1.49273 0
M  V30 4433 C 415.601 2.09481 2.71979 0
M  V30 4434 C 414.687 3.29906 2.66502 0
M  V30 4435 N 415.078 4.50154 2.30641 0
M  V30 4436 C 413.376 3.32203 2.97585 0
M  V30 4437 C 414.077 5.32209 2.34794 0
M  V30 4438 N 413.053 4.70258 2.72688 0
M  V30 4439 H 416.855 2.73746 1.0696 0
M  V30 4440 H 414.369 1.54635 0.496167 0
M  V30 4441 H 416.366 2.27882 3.49107 0
M  V30 4442 H 415.026 1.2023 3.0162 0
M  V30 4443 H 416.037 4.76515 2.02865 0
M  V30 4444 H 412.714 2.53101 3.32034 0
M  V30 4445 H 414.104 6.38321 2.09753 0
M  V30 4446 N 416.824 -0.551391 1.4764 0
M  V30 4447 C 417.771 -1.65796 1.60563 0
M  V30 4448 C 418.741 -1.59932 0.448428 0
M  V30 4449 O 419.926 -1.78679 0.669222 0
M  V30 4450 C 417.066 -3.04108 1.63133 0
M  V30 4451 C 416.179 -3.20365 2.89811 0
M  V30 4452 C 415.314 -4.49109 2.8368 0
M  V30 4453 C 414.353 -4.58819 4.05156 0
M  V30 4454 N 413.49 -5.78926 3.97227 0
M  V30 4455 H 418.33 -1.54088 2.5507 0
M  V30 4456 H 415.867 -0.75052 1.26513 0
M  V30 4457 H 417.825 -3.84207 1.62606 0
M  V30 4458 H 416.455 -3.14637 0.721341 0
M  V30 4459 H 415.507 -2.33659 3.00179 0
M  V30 4460 H 416.819 -3.23402 3.79753 0
M  V30 4461 H 415.973 -5.37475 2.81434 0
M  V30 4462 H 414.712 -4.4856 1.91431 0
M  V30 4463 H 413.717 -3.68864 4.077 0
M  V30 4464 H 414.942 -4.61124 4.98539 0
M  V30 4465 H 412.888 -5.79314 3.07785 0
M  V30 4466 H 412.805 -5.83367 4.80853 0
M  V30 4467 H 414.073 -6.69637 3.99007 0
M  V30 4468 N 418.302 -1.35869 -0.798587 0
M  V30 4469 C 419.549 -1.29588 -1.55606 0
M  V30 4470 C 419.877 0.127456 -1.94082 0
M  V30 4471 O 419.132 1.09461 -1.62225 0
M  V30 4472 C 419.431 -2.1556 -2.85077 0
M  V30 4473 C 419.097 -3.6424 -2.65781 0
M  V30 4474 C 417.759 -4.04766 -2.60227 0
M  V30 4475 C 420.111 -4.58547 -2.47758 0
M  V30 4476 C 417.439 -5.37753 -2.34603 0
M  V30 4477 C 419.791 -5.91742 -2.23662 0
M  V30 4478 C 418.455 -6.31402 -2.16534 0
M  V30 4479 H 417.725 -0.474197 -0.569402 0
M  V30 4480 H 420.372 -1.67839 -0.922086 0
M  V30 4481 H 418.677 -1.70216 -3.52893 0
M  V30 4482 H 420.374 -2.08031 -3.42818 0
M  V30 4483 H 416.964 -3.32086 -2.70956 0
M  V30 4484 H 421.148 -4.28117 -2.51056 0
M  V30 4485 H 416.404 -5.67474 -2.2756 0
M  V30 4486 H 420.578 -6.6439 -2.08708 0
M  V30 4487 H 418.205 -7.34381 -1.96441 0
M  V30 4488 N 419.78 1.02168 -1.19998 0
M  V30 4489 C 421.029 1.75091 -1.0013 0
M  V30 4490 C 421.342 1.89923 0.467835 0
M  V30 4491 O 422.548 2.59888 0.785515 0
M  V30 4492 C 421.004 3.14892 -1.74273 0
M  V30 4493 C 420.612 3.0809 -3.25245 0
M  V30 4494 C 422.356 3.9206 -1.62755 0
M  V30 4495 C 420.263 4.42867 -3.91948 0
M  V30 4496 H 419.193 0.656394 -0.37103 0
M  V30 4497 H 421.844 1.14284 -1.43567 0
M  V30 4498 H 420.226 3.7621 -1.2362 0
M  V30 4499 H 421.4 2.5611 -3.83072 0
M  V30 4500 H 419.715 2.44416 -3.3712 0
M  V30 4501 H 422.312 4.91764 -2.09934 0
M  V30 4502 H 422.655 4.12199 -0.582894 0
M  V30 4503 H 423.188 3.37359 -2.10793 0
M  V30 4504 H 419.927 4.27931 -4.96543 0
M  V30 4505 H 419.447 4.94874 -3.3891 0
M  V30 4506 H 421.126 5.11728 -3.95909 0
M  V30 4507 N 421.258 1.00505 1.21394 0
M  V30 4508 C 422.19 0.52372 2.23136 0
M  V30 4509 C 423.203 -0.387714 1.58116 0
M  V30 4510 O 424.392 -0.187905 1.77508 0
M  V30 4511 C 421.492 -0.258885 3.3791 0
M  V30 4512 C 420.665 0.651634 4.32519 0
M  V30 4513 C 419.724 -0.0813705 5.26137 0
M  V30 4514 O 418.75 0.537295 5.66658 0
M  V30 4515 N 419.952 -1.35992 5.64346 0
M  V30 4516 H 422.717 1.39865 2.65062 0
M  V30 4517 H 420.278 0.881196 1.35818 0
M  V30 4518 H 422.27 -0.758208 3.97534 0
M  V30 4519 H 420.84 -1.035 2.94968 0
M  V30 4520 H 420.06 1.33145 3.71034 0
M  V30 4521 H 421.348 1.27129 4.92662 0
M  V30 4522 H 420.746 -1.88368 5.33417 0
M  V30 4523 H 419.303 -1.8042 6.26332 0
M  V30 4524 N 422.737 -1.36956 0.779787 0
M  V30 4525 C 423.669 -2.28833 0.129639 0
M  V30 4526 C 424.682 -1.4902 -0.655511 0
M  V30 4527 O 425.871 -1.71578 -0.492279 0
M  V30 4528 C 422.971 -3.2833 -0.839792 0
M  V30 4529 C 422.144 -4.3727 -0.10675 0
M  V30 4530 C 421.203 -5.16789 -0.990717 0
M  V30 4531 O 420.229 -5.67406 -0.451516 0
M  V30 4532 N 421.431 -5.32294 -2.3161 0
M  V30 4533 H 424.196 -2.85268 0.918803 0
M  V30 4534 H 421.757 -1.49019 0.632841 0
M  V30 4535 H 423.749 -3.78413 -1.43477 0
M  V30 4536 H 422.319 -2.72605 -1.52988 0
M  V30 4537 H 421.539 -3.88478 0.669216 0
M  V30 4538 H 422.827 -5.07229 0.399464 0
M  V30 4539 H 422.225 -4.92768 -2.77843 0
M  V30 4540 H 420.782 -5.85656 -2.86095 0
M  V30 4541 N 424.215 -0.530993 -1.48385 0
M  V30 4542 C 425.461 0.00274135 -2.028 0
M  V30 4543 C 425.794 1.33838 -1.40716 0
M  V30 4544 O 425.069 1.86465 -0.553277 0
M  V30 4545 C 425.352 0.123676 -3.59888 0
M  V30 4546 C 425.205 -1.2372 -4.3245 0
M  V30 4547 C 426.524 0.849967 -4.31814 0
M  V30 4548 H 423.643 -0.000477758 -0.737 0
M  V30 4549 H 426.285 -0.688217 -1.77098 0
M  V30 4550 H 424.435 0.712157 -3.81917 0
M  V30 4551 H 426.107 -1.86687 -4.21836 0
M  V30 4552 H 424.35 -1.81882 -3.93829 0
M  V30 4553 H 425.021 -1.10557 -5.40815 0
M  V30 4554 H 427.497 0.350572 -4.14621 0
M  V30 4555 H 426.373 0.903486 -5.41413 0
M  V30 4556 H 426.634 1.90047 -3.99167 0
M  V30 4557 N 425.693 1.55336 -0.266172 0
M  V30 4558 C 426.923 2.03506 0.356239 0
M  V30 4559 C 427.331 1.14426 1.50676 0
M  V30 4560 O 426.674 0.155043 1.83045 0
M  V30 4561 C 426.736 3.47848 0.90785 0
M  V30 4562 C 426.4 4.56861 -0.112888 0
M  V30 4563 C 427.397 5.11528 -0.929264 0
M  V30 4564 C 425.082 5.01704 -0.244546 0
M  V30 4565 C 427.076 6.09549 -1.86357 0
M  V30 4566 C 424.763 5.99553 -1.18234 0
M  V30 4567 C 425.761 6.53356 -1.99036 0
M  V30 4568 O 425.449 7.49293 -2.91231 0
M  V30 4569 H 425.181 0.670444 0.08649 0
M  V30 4570 H 427.735 2.01598 -0.39337 0
M  V30 4571 H 425.965 3.46967 1.70737 0
M  V30 4572 H 427.654 3.79407 1.44239 0
M  V30 4573 H 428.42 4.77701 -0.838237 0
M  V30 4574 H 424.299 4.59477 0.374359 0
M  V30 4575 H 427.843 6.51469 -2.49467 0
M  V30 4576 H 423.74 6.32799 -1.27421 0
M  V30 4577 H 424.508 7.66978 -2.8581 0
M  V30 4578 N 427.171 -0.0066808 1.57599 0
M  V30 4579 C 428.101 -0.999296 2.11036 0
M  V30 4580 C 429.082 -1.36278 1.01795 0
M  V30 4581 O 430.267 -1.4477 1.29442 0
M  V30 4582 C 427.397 -2.29328 2.60818 0
M  V30 4583 C 426.351 -2.07159 3.74525 0
M  V30 4584 C 425.677 -3.42512 4.10596 0
M  V30 4585 C 426.977 -1.43959 5.02069 0
M  V30 4586 H 428.671 -0.554382 2.94223 0
M  V30 4587 H 426.217 -0.265221 1.41536 0
M  V30 4588 H 428.17 -2.99117 2.96828 0
M  V30 4589 H 426.894 -2.7592 1.74745 0
M  V30 4590 H 425.553 -1.39797 3.38899 0
M  V30 4591 H 425.201 -3.86795 3.21556 0
M  V30 4592 H 424.901 -3.28498 4.87199 0
M  V30 4593 H 426.425 -4.13628 4.4916 0
M  V30 4594 H 427.839 -2.03696 5.35893 0
M  V30 4595 H 426.236 -1.40452 5.83432 0
M  V30 4596 H 427.306 -0.407992 4.83181 0
M  V30 4597 N 428.649 -1.55105 -0.279332 0
M  V30 4598 C 429.612 -1.86783 -1.32834 0
M  V30 4599 C 430.612 -0.74199 -1.42657 0
M  V30 4600 O 431.802 -1.0102 -1.41918 0
M  V30 4601 C 428.934 -2.06746 -2.71052 0
M  V30 4602 H 430.127 -2.8055 -1.05979 0
M  V30 4603 H 427.68 -1.47499 -0.517087 0
M  V30 4604 H 428.415 -1.15339 -3.03097 0
M  V30 4605 H 428.2 -2.88711 -2.65309 0
M  V30 4606 H 429.69 -2.32549 -3.46858 0
M  V30 4607 N 430.127 0.543554 -1.4793 0
M  V30 4608 C 431.057 1.65888 -1.64327 0
M  V30 4609 C 432.038 1.62818 -0.492383 0
M  V30 4610 O 433.223 1.80226 -0.723338 0
M  V30 4611 C 430.353 3.04506 -1.67013 0
M  V30 4612 C 429.307 3.2243 -2.81466 0
M  V30 4613 C 428.633 4.61972 -2.69233 0
M  V30 4614 C 429.933 3.06496 -4.22915 0
M  V30 4615 H 431.627 1.52421 -2.57698 0
M  V30 4616 H 429.173 0.731849 -1.24016 0
M  V30 4617 H 431.126 3.82391 -1.77074 0
M  V30 4618 H 429.85 3.18964 -0.70212 0
M  V30 4619 H 428.509 2.46957 -2.70938 0
M  V30 4620 H 428.157 4.73247 -1.7043 0
M  V30 4621 H 427.857 4.74911 -3.46025 0
M  V30 4622 H 429.381 5.41974 -2.81242 0
M  V30 4623 H 430.795 3.74186 -4.34348 0
M  V30 4624 H 429.192 3.30938 -5.006 0
M  V30 4625 H 430.262 2.03077 -4.40327 0
M  V30 4626 N 431.605 1.3629 0.791371 0
M  V30 4627 C 432.852 1.30412 1.54916 0
M  V30 4628 C 433.18 -0.117162 1.94147 0
M  V30 4629 O 432.435 -1.08599 1.62803 0
M  V30 4630 C 432.734 2.17068 2.8393 0
M  V30 4631 C 432.4 3.65645 2.63846 0
M  V30 4632 C 431.062 4.0614 2.58077 0
M  V30 4633 C 433.414 4.59855 2.45322 0
M  V30 4634 C 430.742 5.3899 2.31748 0
M  V30 4635 C 433.094 5.9292 2.2052 0
M  V30 4636 C 431.758 6.32542 2.13183 0
M  V30 4637 H 431.028 0.47721 0.566879 0
M  V30 4638 H 433.675 1.68325 0.913172 0
M  V30 4639 H 431.98 1.72085 3.51986 0
M  V30 4640 H 433.677 2.09846 3.4171 0
M  V30 4641 H 430.267 3.33518 2.69191 0
M  V30 4642 H 434.451 4.29443 2.48782 0
M  V30 4643 H 429.707 5.68672 2.24548 0
M  V30 4644 H 433.881 6.65487 2.05182 0
M  V30 4645 H 431.508 7.35412 1.92544 0
M  V30 4646 N 433.083 -1.0153 1.20538 0
M  V30 4647 C 434.329 -1.75517 1.02787 0
M  V30 4648 C 434.684 -1.87411 -0.435289 0
M  V30 4649 O 433.977 -1.38982 -1.31889 0
M  V30 4650 C 434.171 -3.17213 1.64654 0
M  V30 4651 C 434 -3.19134 3.16834 0
M  V30 4652 C 432.77 -3.26301 3.85818 0
M  V30 4653 C 434.968 -3.05077 4.14044 0
M  V30 4654 N 432.95 -3.17739 5.25276 0
M  V30 4655 C 434.321 -3.04299 5.40187 0
M  V30 4656 C 436.376 -2.89303 4.05226 0
M  V30 4657 C 435.079 -2.89365 6.58529 0
M  V30 4658 C 437.105 -2.75723 5.23193 0
M  V30 4659 C 436.467 -2.75612 6.48242 0
M  V30 4660 H 432.566 -0.652919 0.430373 0
M  V30 4661 H 435.15 -1.20755 1.52729 0
M  V30 4662 H 433.321 -3.70266 1.17294 0
M  V30 4663 H 435.053 -3.79637 1.40208 0
M  V30 4664 H 431.808 -3.33078 3.36684 0
M  V30 4665 H 432.232 -3.16829 5.98288 0
M  V30 4666 H 436.874 -2.88201 3.09354 0
M  V30 4667 H 434.592 -2.89216 7.54573 0
M  V30 4668 H 438.178 -2.64533 5.18183 0
M  V30 4669 H 437.058 -2.65224 7.37988 0
M  V30 4670 N 434.561 -1.01147 -1.20859 0
M  V30 4671 C 435.491 -0.597663 -2.25722 0
M  V30 4672 C 436.472 0.384744 -1.65692 0
M  V30 4673 O 437.657 0.271303 -1.92296 0
M  V30 4674 C 434.787 0.0700149 -3.47229 0
M  V30 4675 C 433.741 -0.832843 -4.19819 0
M  V30 4676 C 433.067 -0.0312202 -5.34691 0
M  V30 4677 C 434.367 -2.1385 -4.76514 0
M  V30 4678 H 436.061 -1.47423 -2.60589 0
M  V30 4679 H 433.607 -0.710301 -1.25263 0
M  V30 4680 H 435.56 0.37103 -4.19763 0
M  V30 4681 H 434.284 0.981259 -3.11511 0
M  V30 4682 H 432.943 -1.11778 -3.49144 0
M  V30 4683 H 432.591 0.881515 -4.95215 0
M  V30 4684 H 432.291 -0.632434 -5.84187 0
M  V30 4685 H 433.815 0.26346 -6.10031 0
M  V30 4686 H 435.229 -1.9002 -5.40893 0
M  V30 4687 H 433.626 -2.69012 -5.36426 0
M  V30 4688 H 434.696 -2.80495 -3.95538 0
M  V30 4689 N 436.039 1.36541 -0.78704 0
M  V30 4690 C 437.002 2.28413 -0.189778 0
M  V30 4691 C 438.002 1.48719 0.611499 0
M  V30 4692 O 439.192 1.68737 0.432842 0
M  V30 4693 C 436.324 3.32824 0.737638 0
M  V30 4694 H 437.517 2.82743 -0.999831 0
M  V30 4695 H 435.07 1.46065 -0.556298 0
M  V30 4696 H 435.805 2.83646 1.57212 0
M  V30 4697 H 435.59 3.91752 0.165044 0
M  V30 4698 H 437.08 4.0144 1.15047 0
M  V30 4699 N 437.518 0.538854 1.48102 0
M  V30 4700 C 438.451 -0.266495 2.26639 0
M  V30 4701 C 439.429 -0.93687 1.32897 0
M  V30 4702 O 440.613 -0.959507 1.62252 0
M  V30 4703 C 437.74 -1.37814 3.09394 0
M  V30 4704 C 436.786 -0.818247 4.18577 0
M  V30 4705 S 437.619 0.320848 5.34538 0
M  V30 4706 C 438.775 -0.793059 6.20855 0
M  V30 4707 H 439.008 0.399994 2.94597 0
M  V30 4708 H 436.541 0.324808 1.50945 0
M  V30 4709 H 438.499 -2.01488 3.57649 0
M  V30 4710 H 437.16 -2.01639 2.40833 0
M  V30 4711 H 436.353 -1.65247 4.7614 0
M  V30 4712 H 435.955 -0.258036 3.73109 0
M  V30 4713 H 438.247 -1.68961 6.56093 0
M  V30 4714 H 439.19 -0.255204 7.0764 0
M  V30 4715 H 439.598 -1.07746 5.54122 0
M  V30 4716 N 438.996 -1.55193 0.274407 0
M  V30 4717 C 440.221 -2.04446 -0.348824 0
M  V30 4718 C 440.646 -1.15149 -1.48735 0
M  V30 4719 O 440.004 -0.149952 -1.80679 0
M  V30 4720 C 440.052 -3.51431 -0.808009 0
M  V30 4721 O 439.156 -3.65225 -1.91531 0
M  V30 4722 H 438.497 -0.66006 -0.0722276 0
M  V30 4723 H 441.027 -2.00481 0.408498 0
M  V30 4724 H 441.037 -3.92781 -1.10395 0
M  V30 4725 H 439.712 -4.15892 0.0249865 0
M  V30 4726 H 438.289 -3.35778 -1.62196 0
M  V30 4727 N 440.474 -0.00167713 -1.576 0
M  V30 4728 C 441.699 0.69739 -1.95323 0
M  V30 4729 C 442.124 1.6642 -0.876706 0
M  V30 4730 O 441.482 1.80548 0.165007 0
M  V30 4731 C 441.53 1.40403 -3.32144 0
M  V30 4732 O 440.634 2.5185 -3.26566 0
M  V30 4733 H 439.975 0.185373 -0.637599 0
M  V30 4734 H 442.505 -0.0553665 -2.04525 0
M  V30 4735 H 442.515 1.76707 -3.67748 0
M  V30 4736 H 441.19 0.695167 -4.10049 0
M  V30 4737 H 439.767 2.17861 -3.0264 0
M  V30 4738 N 441.952 1.55251 0.271103 0
M  V30 4739 C 443.18 1.79974 1.02064 0
M  V30 4740 C 443.595 0.574003 1.79863 0
M  V30 4741 O 442.952 -0.456962 1.76686 0
M  V30 4742 C 443.003 3.02603 1.97772 0
M  V30 4743 O 442.724 4.20443 1.23124 0
M  V30 4744 C 444.225 3.39944 2.84522 0
M  V30 4745 H 441.445 0.599489 0.301419 0
M  V30 4746 H 443.989 2.02268 0.301313 0
M  V30 4747 H 442.144 2.8243 2.65165 0
M  V30 4748 H 442.558 4.89783 1.87651 0
M  V30 4749 H 444.032 4.28915 3.47471 0
M  V30 4750 H 444.509 2.59432 3.54389 0
M  V30 4751 H 445.115 3.62383 2.22618 0
M  V30 4752 N 443.43 -0.535701 1.48216 0
M  V30 4753 C 444.363 -1.65726 1.56876 0
M  V30 4754 C 445.341 -1.57094 0.419542 0
M  V30 4755 O 446.525 -1.77648 0.630352 0
M  V30 4756 C 443.652 -3.04096 1.49142 0
M  V30 4757 C 442.698 -3.31105 2.68834 0
M  V30 4758 S 443.531 -3.18001 4.30854 0
M  V30 4759 C 444.687 -4.58828 4.25709 0
M  V30 4760 H 444.92 -1.58129 2.51759 0
M  V30 4761 H 442.453 -0.718218 1.36678 0
M  V30 4762 H 444.411 -3.839 1.45366 0
M  V30 4763 H 443.072 -3.09139 0.556067 0
M  V30 4764 H 442.265 -4.32033 2.59545 0
M  V30 4765 H 441.867 -2.58961 2.69843 0
M  V30 4766 H 444.159 -5.5023 3.95289 0
M  V30 4767 H 445.102 -4.73172 5.26796 0
M  V30 4768 H 445.51 -4.37883 3.56257 0
M  V30 4769 N 444.908 -1.36708 -0.784132 0
M  V30 4770 C 446.138 -1.34203 -1.57077 0
M  V30 4771 C 446.546 0.0774945 -1.89041 0
M  V30 4772 O 445.889 1.04628 -1.50992 0
M  V30 4773 C 445.951 -2.10351 -2.91535 0
M  V30 4774 C 445.615 -3.59405 -2.82272 0
M  V30 4775 C 446.612 -4.53545 -2.54151 0
M  V30 4776 C 444.297 -4.02362 -3.00683 0
M  V30 4777 C 446.291 -5.8862 -2.44551 0
M  V30 4778 C 443.978 -5.37526 -2.90704 0
M  V30 4779 C 444.976 -6.30468 -2.62677 0
M  V30 4780 O 444.664 -7.63149 -2.52702 0
M  V30 4781 H 444.396 -0.461791 -0.493685 0
M  V30 4782 H 446.95 -1.80475 -0.980712 0
M  V30 4783 H 445.18 -1.5875 -3.52612 0
M  V30 4784 H 446.869 -2.00636 -3.52845 0
M  V30 4785 H 447.635 -4.21669 -2.39625 0
M  V30 4786 H 443.514 -3.30389 -3.21503 0
M  V30 4787 H 447.058 -6.61133 -2.22596 0
M  V30 4788 H 442.955 -5.69008 -3.04795 0
M  V30 4789 H 443.723 -7.73331 -2.68144 0
M  V30 4790 N 446.386 1.0089 -1.21074 0
M  V30 4791 C 447.334 2.11707 -0.963476 0
M  V30 4792 C 448.328 1.69172 0.0879032 0
M  V30 4793 O 449.534 1.79889 -0.0631415 0
M  V30 4794 H 445.909 0.692026 -0.294287 0
M  V30 4795 H 447.88 2.29743 -1.90422 0
M  V30 4796 C 446.629 3.43473 -0.540509 0
M  V30 4797 H 445.952 3.76634 -1.34114 0
M  V30 4798 H 447.392 4.22044 -0.406777 0
M  V30 4799 C 445.851 3.2849 0.748079 0
M  V30 4800 O 446.381 3.58883 1.8046 0
M  V30 4801 N 444.587 2.81715 0.713081 0
M  V30 4802 H 444.134 2.5718 -0.146973 0
M  V30 4803 H 444.092 2.72071 1.57558 0
M  V30 4804 N 447.864 1.01787 1.20321 0
M  V30 4805 C 449.275 0.739307 1.71438 0
M  V30 4806 C 449.626 -0.742041 1.81627 0
M  V30 4807 O 448.751 -1.57903 1.47971 0
M  V30 4808 C 449.346 1.33538 3.11373 0
M  V30 4809 C 447.905 1.10566 3.59795 0
M  V30 4810 C 447.052 1.44028 2.36962 0
M  V30 4811 H 450.003 1.18718 1.05317 0
M  V30 4812 H 450.024 0.726611 3.73498 0
M  V30 4813 H 449.536 2.41352 3.03926 0
M  V30 4814 H 447.637 0.0452405 3.72573 0
M  V30 4815 H 447.75 1.78661 4.44542 0
M  V30 4816 H 446.114 0.85933 2.39766 0
M  V30 4817 H 446.897 2.52901 2.32155 0
M  V30 4818 N 449.342 -1.36122 0.79427 0
M  V30 4819 C 450.591 -1.98361 0.365464 0
M  V30 4820 C 450.904 -1.6374 -1.06997 0
M  V30 4821 O 452.11 -2.19251 -1.60129 0
M  V30 4822 C 450.566 -3.54821 0.602496 0
M  V30 4823 C 450.174 -3.98362 2.04967 0
M  V30 4824 C 451.918 -4.2383 0.238437 0
M  V30 4825 C 449.825 -5.47619 2.2331 0
M  V30 4826 H 448.755 -0.742193 0.13291 0
M  V30 4827 H 451.406 -1.55354 0.976589 0
M  V30 4828 H 449.788 -3.95922 -0.078409 0
M  V30 4829 H 450.962 -3.68447 2.76737 0
M  V30 4830 H 449.277 -3.42206 2.37243 0
M  V30 4831 H 451.874 -5.33529 0.353705 0
M  V30 4832 H 452.217 -4.08264 -0.814006 0
M  V30 4833 H 452.75 -3.88108 0.872769 0
M  V30 4834 H 449.489 -5.68138 3.26955 0
M  V30 4835 H 449.009 -5.79145 1.5605 0
M  V30 4836 H 450.688 -6.13911 2.0426 0
M  V30 4837 N 450.82 -0.546701 -1.47814 0
M  V30 4838 C 452.069 -0.0166497 -2.01693 0
M  V30 4839 C 452.382 1.33721 -1.42752 0
M  V30 4840 O 453.588 1.95658 -1.8823 0
M  V30 4841 C 452.044 0.0206769 -3.59894 0
M  V30 4842 C 451.652 -1.3293 -4.27824 0
M  V30 4843 C 453.396 0.498674 -4.21561 0
M  V30 4844 C 451.303 -1.25165 -5.78003 0
M  V30 4845 H 450.233 -0.0024541 -0.753996 0
M  V30 4846 H 452.884 -0.692984 -1.69912 0
M  V30 4847 H 451.266 0.76244 -3.88591 0
M  V30 4848 H 452.44 -2.08795 -4.10781 0
M  V30 4849 H 450.755 -1.74438 -3.78101 0
M  V30 4850 H 453.352 0.575 -5.31599 0
M  V30 4851 H 453.695 1.5083 -3.88016 0
M  V30 4852 H 454.228 -0.18791 -3.97356 0
M  V30 4853 H 450.967 -2.23695 -6.1615 0
M  V30 4854 H 450.487 -0.53464 -5.97412 0
M  V30 4855 H 452.166 -0.949299 -6.39998 0
M  V30 4856 N 452.299 1.55045 -0.282633 0
M  V30 4857 C 453.529 2.03872 0.334635 0
M  V30 4858 C 453.937 1.16018 1.49454 0
M  V30 4859 O 453.28 0.174449 1.8287 0
M  V30 4860 C 453.342 3.48791 0.870905 0
M  V30 4861 C 453.006 4.56715 -0.161338 0
M  V30 4862 C 454.003 5.10513 -0.983466 0
M  V30 4863 C 451.688 5.01417 -0.297745 0
M  V30 4864 C 453.682 6.07538 -1.92811 0
M  V30 4865 C 451.369 5.98265 -1.24586 0
M  V30 4866 C 452.367 6.51208 -2.05954 0
M  V30 4867 O 452.055 7.46162 -2.99162 0
M  V30 4868 H 451.787 0.671324 0.0793742 0
M  V30 4869 H 454.341 2.01169 -0.41473 0
M  V30 4870 H 452.571 3.48758 1.67047 0
M  V30 4871 H 454.26 3.80916 1.40207 0
M  V30 4872 H 455.026 4.76785 -0.888856 0
M  V30 4873 H 450.905 4.59849 0.325604 0
M  V30 4874 H 454.449 6.48787 -2.56363 0
M  V30 4875 H 450.346 6.31412 -1.34126 0
M  V30 4876 H 451.114 7.63903 -2.93929 0
M  V30 4877 N 453.777 0.010035 1.57597 0
M  V30 4878 C 455.017 -0.677084 1.9286 0
M  V30 4879 C 455.381 -1.70377 0.885192 0
M  V30 4880 O 456.582 -2.44199 1.12339 0
M  V30 4881 C 454.853 -1.29452 3.33132 0
M  V30 4882 S 456.412 -2.00537 3.90295 0
M  V30 4883 H 453.23 -0.223409 0.674989 0
M  V30 4884 H 455.832 0.0691289 1.95378 0
M  V30 4885 H 454.536 -0.534593 4.06903 0
M  V30 4886 H 454.067 -2.07845 3.34012 0
M  V30 4887 H 456.082 -3.28168 3.72183 0
M  V30 4888 N 455.255 -1.55392 -0.262866 0
M  V30 4889 C 456.495 -1.78231 -1.00064 0
M  V30 4890 C 456.859 -0.576966 -1.83126 0
M  V30 4891 O 458.06 -0.683809 -2.59957 0
M  V30 4892 C 456.331 -3.05701 -1.85153 0
M  V30 4893 S 457.89 -3.49699 -2.65058 0
M  V30 4894 H 454.708 -0.626138 -0.336856 0
M  V30 4895 H 457.31 -1.93626 -0.27005 0
M  V30 4896 H 456.014 -3.91511 -1.23074 0
M  V30 4897 H 455.545 -2.93 -2.62515 0
M  V30 4898 H 457.56 -3.09772 -3.87629 0
M  V30 4899 N 456.733 0.527833 -1.48498 0
M  V30 4900 C 457.663 1.64136 -1.66077 0
M  V30 4901 C 458.644 1.62286 -0.509625 0
M  V30 4902 O 459.829 1.79449 -0.742413 0
M  V30 4903 C 456.959 3.02717 -1.70234 0
M  V30 4904 C 455.913 3.19426 -2.8487 0
M  V30 4905 C 455.239 4.5909 -2.74118 0
M  V30 4906 C 456.539 3.01993 -4.26142 0
M  V30 4907 H 458.233 1.4968 -2.593 0
M  V30 4908 H 455.779 0.718654 -1.24785 0
M  V30 4909 H 457.732 3.80491 -1.8112 0
M  V30 4910 H 456.456 3.18201 -0.735911 0
M  V30 4911 H 455.115 2.4407 -2.73542 0
M  V30 4912 H 454.763 4.71413 -1.7544 0
M  V30 4913 H 454.463 4.71214 -3.51042 0
M  V30 4914 H 455.987 5.3896 -2.86974 0
M  V30 4915 H 457.401 3.69558 -4.38292 0
M  V30 4916 H 455.798 3.2561 -5.04082 0
M  V30 4917 H 456.868 1.98396 -4.42456 0
M  V30 4918 N 458.211 1.37122 0.776871 0
M  V30 4919 C 459.159 1.32549 1.91138 0
M  V30 4920 C 460.153 0.215119 1.68029 0
M  V30 4921 O 461.359 0.382852 1.75881 0
M  V30 4922 H 457.734 0.412952 0.62847 0
M  V30 4923 H 459.705 2.28332 1.92112 0
M  V30 4924 C 458.454 1.14422 3.28333 0
M  V30 4925 H 457.777 1.99115 3.46689 0
M  V30 4926 H 459.217 1.15272 4.0803 0
M  V30 4927 C 457.676 -0.150434 3.36564 0
M  V30 4928 O 458.206 -1.13584 3.85307 0
M  V30 4929 N 456.412 -0.19939 2.89915 0
M  V30 4930 H 455.959 0.603142 2.5044 0
M  V30 4931 H 455.917 -1.06526 2.95803 0
M  V30 4932 N 459.689 -1.00246 1.21608 0
M  V30 4933 C 460.639 -2.07492 0.945051 0
M  V30 4934 C 461.623 -1.60585 -0.100675 0
M  V30 4935 O 462.815 -1.76667 0.10859 0
M  V30 4936 C 459.944 -3.39425 0.514342 0
M  V30 4937 C 459.03 -3.92993 1.59428 0
M  V30 4938 N 459.421 -4.19898 2.81991 0
M  V30 4939 C 457.719 -4.21297 1.46374 0
M  V30 4940 C 458.42 -4.63297 3.51754 0
M  V30 4941 N 457.396 -4.66421 2.79199 0
M  V30 4942 H 461.198 -2.26222 1.87619 0
M  V30 4943 H 458.712 -1.18339 1.11219 0
M  V30 4944 H 460.709 -4.15808 0.301527 0
M  V30 4945 H 459.369 -3.22101 -0.410008 0
M  V30 4946 H 460.38 -4.08377 3.1851 0
M  V30 4947 H 457.057 -4.13095 0.604863 0
M  V30 4948 H 458.447 -4.92816 4.56708 0
M  V30 4949 N 461.167 -1.02423 -1.1978 0
M  V30 4950 C 462.583 -0.740459 -1.41384 0
M  V30 4951 C 462.783 0.676827 -1.89793 0
M  V30 4952 O 461.839 1.4435 -2.0717 0
M  V30 4953 C 463.152 -1.77264 -2.42895 0
M  V30 4954 C 464.7 -1.79165 -2.56649 0
M  V30 4955 C 465.175 -2.8133 -3.6141 0
M  V30 4956 N 466.666 -2.80118 -3.68901 0
M  V30 4957 C 467.401 -3.55824 -4.49641 0
M  V30 4958 N 466.897 -4.41231 -5.34123 0
M  V30 4959 N 468.69 -3.44387 -4.44246 0
M  V30 4960 H 460.841 -1.9391 -0.866764 0
M  V30 4961 H 463.104 -0.838074 -0.443098 0
M  V30 4962 H 462.81 -2.7884 -2.14339 0
M  V30 4963 H 462.684 -1.59108 -3.42001 0
M  V30 4964 H 465.071 -0.782702 -2.84531 0
M  V30 4965 H 465.152 -2.01396 -1.57713 0
M  V30 4966 H 464.796 -3.82394 -3.34271 0
M  V30 4967 H 464.726 -2.56359 -4.59986 0
M  V30 4968 H 467.217 -2.1817 -3.08562 0
M  V30 4969 H 467.53 -4.95747 -5.92836 0
M  V30 4970 H 465.875 -4.45306 -5.33599 0
M  V30 4971 H 469.066 -2.7708 -3.77285 0
M  V30 4972 H 469.239 -4.0364 -5.06931 0
M  V30 4973 N 462.645 1.35699 -0.801477 0
M  V30 4974 C 463.892 1.98913 -0.379459 0
M  V30 4975 C 464.22 1.63592 1.05204 0
M  V30 4976 O 463.475 0.888563 1.74365 0
M  V30 4977 C 463.774 3.53828 -0.504041 0
M  V30 4978 C 463.44 4.09002 -1.8981 0
M  V30 4979 C 462.102 4.23783 -2.27951 0
M  V30 4980 C 464.454 4.38939 -2.81038 0
M  V30 4981 C 461.782 4.65816 -3.56696 0
M  V30 4982 C 464.134 4.82409 -4.09224 0
M  V30 4983 C 462.798 4.95395 -4.4737 0
M  V30 4984 H 462.068 0.727874 -0.138854 0
M  V30 4985 H 464.715 1.61994 -1.02128 0
M  V30 4986 H 463.02 3.91175 0.221242 0
M  V30 4987 H 464.717 4.00687 -0.158361 0
M  V30 4988 H 461.307 3.97946 -1.59176 0
M  V30 4989 H 465.491 4.27077 -2.52821 0
M  V30 4990 H 460.747 4.74059 -3.86106 0
M  V30 4991 H 464.921 5.04535 -4.80018 0
M  V30 4992 H 462.548 5.27724 -5.47185 0
M  V30 4993 N 464.123 0.554532 1.47522 0
M  V30 4994 C 465.539 0.214107 1.58157 0
M  V30 4995 C 465.739 -1.28331 1.55349 0
M  V30 4996 O 464.795 -2.06329 1.45549 0
M  V30 4997 C 466.108 0.838391 2.88776 0
M  V30 4998 C 467.656 0.809374 3.02354 0
M  V30 4999 C 468.131 1.41268 4.35669 0
M  V30 5000 N 469.622 1.37574 4.42298 0
M  V30 5001 C 470.357 1.8122 5.4401 0
M  V30 5002 N 469.853 2.3271 6.52547 0
M  V30 5003 N 471.646 1.72307 5.35039 0
M  V30 5004 H 463.797 1.52744 1.4759 0
M  V30 5005 H 466.06 0.636812 0.702264 0
M  V30 5006 H 465.766 1.89065 2.96559 0
M  V30 5007 H 465.64 0.329847 3.75755 0
M  V30 5008 H 468.027 -0.234187 2.94169 0
M  V30 5009 H 468.108 1.35565 2.16924 0
M  V30 5010 H 467.752 2.45529 4.4461 0
M  V30 5011 H 467.682 0.841871 5.19827 0
M  V30 5012 H 470.173 0.999081 3.64454 0
M  V30 5013 H 470.486 2.63944 7.26329 0
M  V30 5014 H 468.831 2.36719 6.53444 0
M  V30 5015 H 472.022 1.3186 4.49144 0
M  V30 5016 H 472.195 2.06641 6.14169 0
M  V30 5017 N 465.601 -1.54893 0.290851 0
M  V30 5018 C 466.826 -2.04804 -0.32712 0
M  V30 5019 C 467.251 -1.16721 -1.47506 0
M  V30 5020 O 466.609 -0.169107 -1.8051 0
M  V30 5021 C 466.657 -3.52268 -0.770689 0
M  V30 5022 O 465.761 -3.67236 -1.87647 0
M  V30 5023 H 465.102 -0.660789 -0.0652227 0
M  V30 5024 H 467.632 -2.00036 0.429739 0
M  V30 5025 H 467.642 -3.9393 -1.06223 0
M  V30 5026 H 466.317 -4.15843 0.069096 0
M  V30 5027 H 464.894 -3.37479 -1.58626 0
M  V30 5028 N 467.08 -0.0183926 -1.57589 0
M  V30 5029 C 468.328 0.661253 -1.90976 0
M  V30 5030 C 468.649 1.73281 -0.894353 0
M  V30 5031 O 467.919 1.9579 0.0656788 0
M  V30 5032 H 466.499 0.247233 -0.704901 0
M  V30 5033 H 469.161 -0.0636639 -1.94796 0
M  V30 5034 H 468.257 1.12083 -2.9128 0
M  V30 5035 N 468.558 1.5553 0.254621 0
M  V30 5036 C 469.805 1.77 0.983736 0
M  V30 5037 C 470.133 0.58133 1.85609 0
M  V30 5038 O 469.388 -0.435621 1.9079 0
M  V30 5039 C 469.687 3.03891 1.88109 0
M  V30 5040 C 469.353 4.35597 1.16472 0
M  V30 5041 C 468.015 4.7139 0.966714 0
M  V30 5042 C 470.367 5.1705 0.656387 0
M  V30 5043 C 467.695 5.86176 0.247942 0
M  V30 5044 C 470.047 6.32581 -0.0488807 0
M  V30 5045 C 468.711 6.67 -0.258438 0
M  V30 5046 H 467.981 0.647688 0.359974 0
M  V30 5047 H 470.628 1.89802 0.254463 0
M  V30 5048 H 468.933 2.86068 2.67717 0
M  V30 5049 H 470.63 3.17701 2.44677 0
M  V30 5050 H 467.22 4.07475 1.32899 0
M  V30 5051 H 471.404 4.8986 0.796933 0
M  V30 5052 H 466.66 6.11354 0.075035 0
M  V30 5053 H 470.834 6.94942 -0.450444 0
M  V30 5054 H 468.461 7.55793 -0.817358 0
M  V30 5055 N 470.036 -0.519951 1.48776 0
M  V30 5056 C 471.452 -0.849418 1.35119 0
M  V30 5057 C 471.652 -1.98077 0.36982 0
M  V30 5058 O 470.708 -2.51664 -0.205359 0
M  V30 5059 C 472.021 -1.20748 2.75391 0
M  V30 5060 C 473.569 -1.31679 2.83954 0
M  V30 5061 C 474.044 -1.70824 4.24951 0
M  V30 5062 N 475.535 -1.77908 4.27672 0
M  V30 5063 C 476.27 -2.09603 5.33717 0
M  V30 5064 N 475.766 -2.39652 6.5003 0
M  V30 5065 N 477.559 -2.10694 5.21119 0
M  V30 5066 H 469.71 0.226377 2.1119 0
M  V30 5067 H 471.973 0.0386519 0.947212 0
M  V30 5068 H 471.679 -0.449703 3.48813 0
M  V30 5069 H 471.553 -2.15534 3.09556 0
M  V30 5070 H 473.94 -2.06532 2.10781 0
M  V30 5071 H 474.021 -0.3499 2.53396 0
M  V30 5072 H 473.665 -0.965282 4.98643 0
M  V30 5073 H 473.595 -2.6858 4.52959 0
M  V30 5074 H 476.086 -1.56923 3.43779 0
M  V30 5075 H 476.399 -2.6297 7.26682 0
M  V30 5076 H 474.744 -2.37149 6.53288 0
M  V30 5077 H 477.935 -1.86682 4.29264 0
M  V30 5078 H 478.108 -2.35062 6.03863 0
M  V30 5079 N 471.514 -1.37532 -0.769588 0
M  V30 5080 C 472.444 -1.36172 -1.89682 0
M  V30 5081 C 473.425 -0.23001 -1.68538 0
M  V30 5082 O 474.61 -0.43069 -1.89364 0
M  V30 5083 C 471.74 -1.1701 -3.26995 0
M  V30 5084 C 470.694 -2.27216 -3.62708 0
M  V30 5085 C 470.02 -1.93174 -4.98586 0
M  V30 5086 C 471.32 -3.6941 -3.69234 0
M  V30 5087 H 473.014 -2.30499 -1.91078 0
M  V30 5088 H 470.56 -1.10953 -0.917902 0
M  V30 5089 H 472.513 -1.14688 -4.05493 0
M  V30 5090 H 471.237 -0.191395 -3.26039 0
M  V30 5091 H 469.896 -2.28697 -2.86519 0
M  V30 5092 H 469.544 -0.938281 -4.94171 0
M  V30 5093 H 469.244 -2.66973 -5.23449 0
M  V30 5094 H 470.768 -1.92443 -5.79481 0
M  V30 5095 H 472.182 -3.70047 -4.37879 0
M  V30 5096 H 470.579 -4.4228 -4.05597 0
M  V30 5097 H 471.649 -4.0288 -2.69844 0
M  V30 5098 N 472.992 0.995999 -1.22138 0
M  V30 5099 C 473.955 2.06711 -0.990109 0
M  V30 5100 C 474.955 1.60744 0.0422978 0
M  V30 5101 O 476.145 1.73095 -0.195895 0
M  V30 5102 C 473.277 3.37288 -0.49491 0
M  V30 5103 H 474.47 2.28661 -1.94047 0
M  V30 5104 H 472.023 1.16711 -1.03963 0
M  V30 5105 H 472.758 3.21022 0.459948 0
M  V30 5106 H 472.543 3.71986 -1.23971 0
M  V30 5107 H 474.033 4.16103 -0.353253 0
M  V30 5108 N 474.47 1.03057 1.19235 0
M  V30 5109 C 475.717 0.728019 1.88961 0
M  V30 5110 C 476.045 -0.743515 1.79728 0
M  V30 5111 O 475.3 -1.55729 1.1852 0
M  V30 5112 C 475.599 1.1268 3.39172 0
M  V30 5113 C 475.265 2.5969 3.68608 0
M  V30 5114 C 473.927 2.99854 3.76352 0
M  V30 5115 C 476.279 3.54793 3.81801 0
M  V30 5116 C 473.607 4.34031 3.94758 0
M  V30 5117 C 475.959 4.88675 4.0172 0
M  V30 5118 C 474.623 5.28526 4.07697 0
M  V30 5119 H 473.893 0.266401 0.691456 0
M  V30 5120 H 476.54 1.29373 1.41191 0
M  V30 5121 H 474.845 0.479722 3.88852 0
M  V30 5122 H 476.542 0.870203 3.91444 0
M  V30 5123 H 473.132 2.27575 3.63191 0
M  V30 5124 H 477.316 3.24914 3.7516 0
M  V30 5125 H 472.572 4.6444 3.97625 0
M  V30 5126 H 476.746 5.6228 4.1087 0
M  V30 5127 H 474.373 6.32506 4.21712 0
M  V30 5128 N 475.948 -1.35272 0.808662 0
M  V30 5129 C 477.364 -1.51806 0.492653 0
M  V30 5130 C 477.564 -1.7574 -0.985778 0
M  V30 5131 O 476.62 -1.80003 -1.77074 0
M  V30 5132 C 477.933 -2.69202 1.33981 0
M  V30 5133 C 479.481 -2.8308 1.33547 0
M  V30 5134 C 479.956 -4.03502 2.16679 0
M  V30 5135 N 481.447 -4.10684 2.14227 0
M  V30 5136 C 482.182 -5.02984 2.75308 0
M  V30 5137 N 481.678 -6.00603 3.45323 0
M  V30 5138 N 483.471 -4.95746 2.64938 0
M  V30 5139 H 475.622 -1.17993 1.76611 0
M  V30 5140 H 477.885 -0.577476 0.751814 0
M  V30 5141 H 477.591 -2.581 2.38909 0
M  V30 5142 H 477.465 -3.63854 0.994491 0
M  V30 5143 H 479.852 -2.93631 0.294036 0
M  V30 5144 H 479.933 -1.89278 1.72068 0
M  V30 5145 H 479.577 -3.93711 3.20864 0
M  V30 5146 H 479.507 -4.96489 1.75517 0
M  V30 5147 H 481.998 -3.40802 1.63285 0
M  V30 5148 H 482.311 -6.67633 3.89212 0
M  V30 5149 H 480.656 -6.0077 3.49428 0
M  V30 5150 H 483.847 -4.18439 2.09825 0
M  V30 5151 H 484.02 -5.67487 3.12829 0
M  V30 5152 N 477.426 -0.562348 -1.47226 0
M  V30 5153 C 478.666 -0.0426374 -2.04356 0
M  V30 5154 C 479.03 1.28487 -1.42671 0
M  V30 5155 O 480.231 1.89259 -1.90878 0
M  V30 5156 C 478.502 0.0433826 -3.57374 0
M  V30 5157 S 480.061 0.508472 -4.35844 0
M  V30 5158 H 476.879 -0.0276234 -0.710463 0
M  V30 5159 H 479.481 -0.750245 -1.80531 0
M  V30 5160 H 478.185 -0.927072 -3.99792 0
M  V30 5161 H 477.716 0.774387 -3.85703 0
M  V30 5162 H 479.731 1.76719 -4.63665 0
M  V30 5163 N 478.904 1.54736 -0.299062 0
M  V30 5164 C 480.144 2.0201 0.31168 0
M  V30 5165 C 480.508 1.18281 1.5124 0
M  V30 5166 O 481.709 1.55243 2.19438 0
M  V30 5167 C 479.98 3.5123 0.661227 0
M  V30 5168 S 481.539 4.20467 1.2551 0
M  V30 5169 H 478.357 0.704523 0.0957517 0
M  V30 5170 H 480.959 1.90791 -0.426482 0
M  V30 5171 H 479.663 4.09804 -0.221171 0
M  V30 5172 H 479.194 3.66481 1.43023 0
M  V30 5173 H 481.209 4.26083 2.54298 0
M  V30 5174 N 480.382 0.0267497 1.57577 0
M  V30 5175 C 481.793 -0.512413 1.79531 0
M  V30 5176 C 482.144 -1.72391 0.936791 0
M  V30 5177 O 481.269 -2.15903 0.146543 0
M  V30 5178 C 481.864 -0.936378 3.25603 0
M  V30 5179 C 480.423 -1.42067 3.4856 0
M  V30 5180 C 479.57 -0.384278 2.74624 0
M  V30 5181 H 482.521 0.252797 1.56674 0
M  V30 5182 H 482.542 -1.80088 3.35184 0
M  V30 5183 H 482.054 -0.0544332 3.88062 0
M  V30 5184 H 480.155 -2.32262 2.9135 0
M  V30 5185 H 480.268 -1.42968 4.57271 0
M  V30 5186 H 478.632 -0.851855 2.40032 0
M  V30 5187 H 479.415 0.489159 3.39797 0
M  V30 5188 N 481.861 -1.55662 -0.24637 0
M  V30 5189 C 483.107 -1.78698 -0.971525 0
M  V30 5190 C 483.462 -0.59577 -1.82944 0
M  V30 5191 O 482.755 0.41097 -1.87141 0
M  V30 5192 C 482.949 -3.04885 -1.86494 0
M  V30 5193 C 482.778 -4.36165 -1.09501 0
M  V30 5194 C 481.548 -4.98929 -0.799895 0
M  V30 5195 C 483.746 -5.12126 -0.472334 0
M  V30 5196 N 481.728 -6.139 -0.00595299 0
M  V30 5197 C 483.099 -6.1972 0.18616 0
M  V30 5198 C 485.154 -4.96426 -0.382854 0
M  V30 5199 C 483.857 -7.13321 0.925542 0
M  V30 5200 C 485.883 -5.90405 0.342999 0
M  V30 5201 C 485.245 -6.97407 0.990128 0
M  V30 5202 H 481.344 -0.705852 -0.336597 0
M  V30 5203 H 483.928 -1.93157 -0.244615 0
M  V30 5204 H 482.099 -2.91753 -2.56388 0
M  V30 5205 H 483.831 -3.16212 -2.5257 0
M  V30 5206 H 480.586 -4.60365 -1.11181 0
M  V30 5207 H 481.01 -6.75938 0.379127 0
M  V30 5208 H 485.652 -4.13777 -0.868834 0
M  V30 5209 H 483.37 -7.9547 1.42312 0
M  V30 5210 H 486.956 -5.80333 0.412907 0
M  V30 5211 H 485.836 -7.68874 1.54282 0
M  V30 5212 N 483.339 0.512053 -1.4905 0
M  V30 5213 C 484.585 1.26874 -1.58212 0
M  V30 5214 C 484.918 1.9241 -0.263073 0
M  V30 5215 O 484.193 1.80181 0.732476 0
M  V30 5216 C 484.476 2.34428 -2.73341 0
M  V30 5217 C 484.329 1.73466 -4.15006 0
M  V30 5218 C 485.648 3.36073 -2.84154 0
M  V30 5219 H 482.767 0.459924 -0.575881 0
M  V30 5220 H 485.409 0.568587 -1.81293 0
M  V30 5221 H 483.559 2.94146 -2.53792 0
M  V30 5222 H 485.231 1.17661 -4.46042 0
M  V30 5223 H 483.474 1.03921 -4.21168 0
M  V30 5224 H 484.145 2.51426 -4.91415 0
M  V30 5225 H 486.621 2.86332 -3.01916 0
M  V30 5226 H 485.497 4.08703 -3.66406 0
M  V30 5227 H 485.758 3.97725 -1.93048 0
M  V30 5228 N 484.817 1.37938 0.762283 0
M  V30 5229 C 486.045 1.36883 1.55147 0
M  V30 5230 C 486.46 -0.0435348 1.8875 0
M  V30 5231 O 485.817 -1.00786 1.52146 0
M  V30 5232 C 485.868 2.21624 2.85596 0
M  V30 5233 O 485.589 3.57358 2.5343 0
M  V30 5234 C 487.09 2.28653 3.7978 0
M  V30 5235 H 484.31 0.468521 0.480343 0
M  V30 5236 H 486.854 1.81404 0.944079 0
M  V30 5237 H 485.009 1.80588 3.42734 0
M  V30 5238 H 485.423 4.01883 3.37032 0
M  V30 5239 H 486.897 2.9225 4.68288 0
M  V30 5240 H 487.374 1.29767 4.19592 0
M  V30 5241 H 487.98 2.70043 3.28568 0
M  V30 5242 N 486.295 -0.989507 1.22664 0
M  V30 5243 C 487.706 -1.54406 1.04955 0
M  V30 5244 C 488.057 -1.92366 -0.385951 0
M  V30 5245 O 487.182 -1.75111 -1.27142 0
M  V30 5246 C 487.777 -2.80578 1.89899 0
M  V30 5247 C 486.336 -3.32464 1.76478 0
M  V30 5248 C 485.483 -2.05524 1.86159 0
M  V30 5249 H 488.434 -0.810211 1.3646 0
M  V30 5250 H 488.455 -3.53075 1.4184 0
M  V30 5251 H 487.967 -2.52918 2.94371 0
M  V30 5252 H 486.068 -3.65024 0.747528 0
M  V30 5253 H 486.181 -4.02838 2.59342 0
M  V30 5254 H 484.545 -2.19241 1.29636 0
M  V30 5255 H 485.328 -1.80258 2.92168 0
M  V30 5256 N 487.773 -1.03688 -1.18687 0
M  V30 5257 C 489.001 -0.757918 -1.92518 0
M  V30 5258 C 489.416 0.684398 -1.75959 0
M  V30 5259 O 488.773 1.46617 -1.08673 0
M  V30 5260 C 488.824 -1.10985 -3.44042 0
M  V30 5261 O 488.545 -2.49554 -3.60076 0
M  V30 5262 C 490.046 -0.854844 -4.3498 0
M  V30 5263 H 487.266 -0.276699 -0.611293 0
M  V30 5264 H 489.81 -1.38352 -1.50595 0
M  V30 5265 H 487.965 -0.529279 -3.83767 0
M  V30 5266 H 488.379 -2.6291 -4.53849 0
M  V30 5267 H 489.853 -1.15098 -5.39867 0
M  V30 5268 H 490.33 0.210507 -4.38695 0
M  V30 5269 H 490.936 -1.41853 -4.00946 0
M  V30 5270 N 489.251 1.34841 -0.815825 0
M  V30 5271 C 490.198 2.29644 -0.230664 0
M  V30 5272 C 491.168 1.53253 0.640533 0
M  V30 5273 O 492.353 1.81653 0.583672 0
M  V30 5274 C 489.493 3.39715 0.607275 0
M  V30 5275 C 488.606 4.31056 -0.28538 0
M  V30 5276 C 487.741 5.28225 0.561446 0
M  V30 5277 C 486.78 6.11204 -0.331035 0
M  V30 5278 N 485.917 7.00483 0.476302 0
M  V30 5279 H 490.757 2.79095 -1.0445 0
M  V30 5280 H 488.294 1.37351 -0.526595 0
M  V30 5281 H 490.252 4.02208 1.10835 0
M  V30 5282 H 488.882 2.91517 1.38629 0
M  V30 5283 H 487.934 3.69487 -0.904621 0
M  V30 5284 H 489.246 4.89239 -0.97193 0
M  V30 5285 H 488.4 5.96135 1.12728 0
M  V30 5286 H 487.139 4.70562 1.28153 0
M  V30 5287 H 486.144 5.42232 -0.909069 0
M  V30 5288 H 487.369 6.70947 -1.04912 0
M  V30 5289 H 485.315 6.45296 1.18019 0
M  V30 5290 H 485.232 7.55847 -0.152008 0
M  V30 5291 H 486.5 7.7273 1.02512 0
M  V30 5292 N 490.729 0.570148 1.46925 0
M  V30 5293 C 491.639 -0.173061 2.33961 0
M  V30 5294 C 492.655 -0.898825 1.48987 0
M  V30 5295 O 493.831 -0.864825 1.81887 0
M  V30 5296 C 490.896 -1.18177 3.25937 0
M  V30 5297 C 489.957 -0.462041 4.26806 0
M  V30 5298 C 489.19 -1.4227 5.14388 0
M  V30 5299 O 489.413 -2.65842 5.04662 0
M  V30 5300 O 488.347 -0.940127 5.94513 0
M  V30 5301 H 492.173 0.541216 2.98839 0
M  V30 5302 H 489.758 0.330647 1.45695 0
M  V30 5303 H 491.64 -1.76372 3.82715 0
M  V30 5304 H 490.315 -1.87774 2.63671 0
M  V30 5305 H 489.222 0.161429 3.73752 0
M  V30 5306 H 490.555 0.192719 4.91823 0
M  V30 5307 N 492.207 -1.54576 0.307264 0
M  V30 5308 C 493.484 -1.92377 -0.353605 0
M  V30 5309 C 493.864 -1.23517 -1.71192 0
M  V30 5310 O 493.212 -0.373101 -2.25433 0
M  V30 5311 C 493.422 -3.45928 -0.462039 0
M  V30 5312 C 494.77 -4.18278 -0.729975 0
M  V30 5313 O 495.794 -3.51997 -0.545605 0
M  V30 5314 O 494.653 -5.3563 -1.08454 0
M  V30 5315 H 491.747 -0.802747 -0.198812 0
M  V30 5316 H 494.293 -1.65929 0.355783 0
M  V30 5317 H 493.065 -3.88187 0.492592 0
M  V30 5318 H 492.688 -3.78431 -1.21965 0
M  V30 5319 N 493.685 -0.035106 -1.57561 0
M  V30 5320 C 494.632 0.94474 -2.10578 0
M  V30 5321 C 495.602 1.3192 -1.00927 0
M  V30 5322 O 496.787 1.41147 -1.28382 0
M  V30 5323 C 493.927 2.21982 -2.64231 0
M  V30 5324 C 493.04 1.90128 -3.87911 0
M  V30 5325 C 492.175 3.11975 -4.29936 0
M  V30 5326 C 491.214 2.75968 -5.46359 0
M  V30 5327 N 490.351 3.90459 -5.83512 0
M  V30 5328 H 495.191 0.485717 -2.94015 0
M  V30 5329 H 492.728 0.228143 -1.4532 0
M  V30 5330 H 494.686 2.96572 -2.9343 0
M  V30 5331 H 493.316 2.6549 -1.83616 0
M  V30 5332 H 492.368 1.05755 -3.65404 0
M  V30 5333 H 493.68 1.59613 -4.72573 0
M  V30 5334 H 492.834 3.9488 -4.60603 0
M  V30 5335 H 491.573 3.45657 -3.44053 0
M  V30 5336 H 490.578 1.91478 -5.1538 0
M  V30 5337 H 491.803 2.43497 -6.33945 0
M  V30 5338 H 489.749 4.23971 -5.00584 0
M  V30 5339 H 489.666 3.63588 -6.62827 0
M  V30 5340 H 490.934 4.7405 -6.18787 0
M  V30 5341 N 495.163 1.55791 0.238111 0
M  V30 5342 C 496.093 1.94068 1.29846 0
M  V30 5343 C 497.074 0.806726 1.49753 0
M  V30 5344 O 498.259 1.06772 1.62214 0
M  V30 5345 C 495.389 2.24302 2.65153 0
M  V30 5346 C 494.343 3.40032 2.59927 0
M  V30 5347 C 493.669 3.55829 3.99111 0
M  V30 5348 C 494.969 4.75476 2.16148 0
M  V30 5349 H 496.663 2.82887 0.980563 0
M  V30 5350 H 494.209 1.36105 0.470253 0
M  V30 5351 H 496.162 2.4967 3.39475 0
M  V30 5352 H 494.886 1.32318 2.98596 0
M  V30 5353 H 493.545 3.14687 1.88063 0
M  V30 5354 H 493.193 2.6125 4.29834 0
M  V30 5355 H 492.893 4.3366 3.96501 0
M  V30 5356 H 494.417 3.83528 4.7512 0
M  V30 5357 H 495.831 5.00158 2.80205 0
M  V30 5358 H 494.228 5.56472 2.24631 0
M  V30 5359 H 495.298 4.71946 1.11333 0
M  V30 5360 N 496.642 -0.504142 1.49319 0
M  V30 5361 C 497.552 -1.63248 1.68486 0
M  V30 5362 C 498.568 -1.64488 0.567432 0
M  V30 5363 O 499.744 -1.82966 0.841749 0
M  V30 5364 C 496.809 -2.99627 1.74426 0
M  V30 5365 C 495.87 -3.09039 2.97982 0
M  V30 5366 C 495.103 -4.38913 3.0363 0
M  V30 5367 O 495.326 -5.27528 2.16958 0
M  V30 5368 O 494.26 -4.53231 3.96062 0
M  V30 5369 H 498.086 -1.50008 2.64067 0
M  V30 5370 H 495.671 -0.680086 1.33023 0
M  V30 5371 H 497.553 -3.80689 1.80705 0
M  V30 5372 H 496.228 -3.13136 0.820233 0
M  V30 5373 H 495.135 -2.27177 2.97223 0
M  V30 5374 H 496.468 -3.00456 3.89855 0
M  V30 5375 N 498.12 -1.38341 -0.754957 0
M  V30 5376 C 499.05 -1.38176 -1.88227 0
M  V30 5377 C 500.031 -0.247873 -1.68284 0
M  V30 5378 O 501.216 -0.45075 -1.88896 0
M  V30 5379 C 498.346 -1.20471 -3.25736 0
M  V30 5380 C 497.3 -2.3105 -3.60278 0
M  V30 5381 C 496.626 -1.98452 -4.96509 0
M  V30 5382 C 497.926 -3.73305 -3.65295 0
M  V30 5383 H 499.62 -2.32512 -1.88622 0
M  V30 5384 H 497.166 -1.1192 -0.906082 0
M  V30 5385 H 499.119 -1.18982 -4.04254 0
M  V30 5386 H 497.843 -0.225965 -3.25817 0
M  V30 5387 H 496.502 -2.31723 -2.84078 0
M  V30 5388 H 496.15 -0.990641 -4.93148 0
M  V30 5389 H 495.85 -2.7251 -5.20588 0
M  V30 5390 H 497.374 -1.98578 -5.77407 0
M  V30 5391 H 498.788 -3.7467 -4.3393 0
M  V30 5392 H 497.185 -4.46557 -4.00883 0
M  V30 5393 H 498.255 -4.05719 -2.65556 0
M  V30 5394 N 499.598 0.982988 -1.23187 0
M  V30 5395 C 500.826 1.75921 -1.08901 0
M  V30 5396 C 501.241 1.85341 0.359719 0
M  V30 5397 O 500.598 1.33072 1.24892 0
M  V30 5398 C 500.649 3.18742 -1.70545 0
M  V30 5399 O 500.37 3.09814 -3.09753 0
M  V30 5400 C 501.871 4.1277 -1.61667 0
M  V30 5401 H 499.091 0.552166 -0.381252 0
M  V30 5402 H 501.635 1.23516 -1.62985 0
M  V30 5403 H 499.79 3.68182 -1.20501 0
M  V30 5404 H 500.204 3.99703 -3.39614 0
M  V30 5405 H 501.678 5.10697 -2.09506 0
M  V30 5406 H 502.155 4.3542 -0.575009 0
M  V30 5407 H 502.761 3.69232 -2.11064 0
M  V30 5408 N 501.076 1.04316 1.18135 0
M  V30 5409 C 502.487 0.775505 1.69832 0
M  V30 5410 C 502.838 -0.703348 1.8316 0
M  V30 5411 O 501.963 -1.54729 1.51287 0
M  V30 5412 C 502.558 1.40112 3.0847 0
M  V30 5413 C 501.117 1.18172 3.57368 0
M  V30 5414 C 500.264 1.49022 2.33854 0
M  V30 5415 H 503.215 1.20925 1.02775 0
M  V30 5416 H 503.236 0.805672 3.71873 0
M  V30 5417 H 502.748 2.47744 2.98738 0
M  V30 5418 H 500.849 0.124258 3.72393 0
M  V30 5419 H 500.962 1.8805 4.40652 0
M  V30 5420 H 499.326 0.909995 2.37889 0
M  V30 5421 H 500.109 2.57768 2.26738 0
M  V30 5422 N 502.554 -1.34406 0.822964 0
M  V30 5423 C 503.782 -2.02508 0.424039 0
M  V30 5424 C 504.197 -1.61975 -0.970022 0
M  V30 5425 O 503.554 -0.825228 -1.62777 0
M  V30 5426 C 503.605 -3.57789 0.516657 0
M  V30 5427 O 503.326 -3.96853 1.85577 0
M  V30 5428 C 504.827 -4.43157 0.112637 0
M  V30 5429 H 502.047 -0.649063 0.170173 0
M  V30 5430 H 504.591 -1.7168 1.11113 0
M  V30 5431 H 502.746 -3.87207 -0.122353 0
M  V30 5432 H 503.16 -4.91538 1.83005 0
M  V30 5433 H 504.634 -5.51527 0.228526 0
M  V30 5434 H 505.111 -4.28939 -0.943837 0
M  V30 5435 H 505.717 -4.19067 0.725449 0
M  V30 5436 N 504.032 -0.577932 -1.46621 0
M  V30 5437 C 505.26 -0.0671642 -2.06791 0
M  V30 5438 C 505.675 1.23571 -1.42743 0
M  V30 5439 O 505.032 1.74602 -0.531062 0
M  V30 5440 C 505.083 0.110357 -3.61332 0
M  V30 5441 O 504.804 -1.14095 -4.22982 0
M  V30 5442 C 506.305 0.656025 -4.38419 0
M  V30 5443 H 503.525 -0.0552732 -0.66872 0
M  V30 5444 H 506.069 -0.797242 -1.8832 0
M  V30 5445 H 504.224 0.790637 -3.79246 0
M  V30 5446 H 504.638 -0.951742 -5.15793 0
M  V30 5447 H 506.112 0.729438 -5.47159 0
M  V30 5448 H 506.589 1.67195 -4.06131 0
M  V30 5449 H 507.195 0.0107692 -4.25299 0
M  V30 5450 N 505.51 1.54411 -0.315457 0
M  V30 5451 C 506.735 2.05299 0.294496 0
M  V30 5452 C 507.16 1.19052 1.4563 0
M  V30 5453 O 506.518 0.197804 1.80218 0
M  V30 5454 C 506.566 3.5345 0.714549 0
M  V30 5455 O 505.67 3.70175 1.81781 0
M  V30 5456 H 505.011 0.661743 0.0547019 0
M  V30 5457 H 507.541 1.99327 -0.461508 0
M  V30 5458 H 507.551 3.9557 0.999426 0
M  V30 5459 H 506.226 4.1568 -0.135244 0
M  V30 5460 H 504.803 3.3996 1.53236 0
M  V30 5461 N 506.988 0.0434614 1.5754 0
M  V30 5462 C 507.918 -0.931651 2.14109 0
M  V30 5463 C 508.899 -1.32971 1.06079 0
M  V30 5464 O 510.084 -1.40579 1.33982 0
M  V30 5465 C 507.214 -2.20914 2.67982 0
M  V30 5466 C 506.168 -1.95139 3.80926 0
M  V30 5467 C 505.494 -3.29276 4.21285 0
M  V30 5468 C 506.794 -1.27913 5.06395 0
M  V30 5469 H 508.488 -0.460497 2.95837 0
M  V30 5470 H 506.034 -0.220058 1.42309 0
M  V30 5471 H 507.987 -2.89522 3.06194 0
M  V30 5472 H 506.711 -2.70221 1.83434 0
M  V30 5473 H 505.37 -1.28945 3.43175 0
M  V30 5474 H 505.018 -3.76369 3.33699 0
M  V30 5475 H 504.718 -3.12831 4.97404 0
M  V30 5476 H 506.242 -3.99129 4.62091 0
M  V30 5477 H 507.656 -1.86544 5.42102 0
M  V30 5478 H 506.053 -1.2182 5.87605 0
M  V30 5479 H 507.123 -0.254066 4.84234 0
M  V30 5480 N 508.466 -1.55915 -0.229846 0
M  V30 5481 C 509.691 -1.8296 -0.976743 0
M  V30 5482 C 510.116 -0.622735 -1.77493 0
M  V30 5483 O 509.474 0.428431 -1.76165 0
M  V30 5484 C 509.522 -3.07916 -1.8767 0
M  V30 5485 O 508.626 -2.86028 -2.97088 0
M  V30 5486 H 507.967 -0.603453 -0.277021 0
M  V30 5487 H 510.497 -2.0312 -0.245669 0
M  V30 5488 H 510.507 -3.37802 -2.2881 0
M  V30 5489 H 509.182 -3.95389 -1.28996 0
M  V30 5490 H 507.759 -2.67355 -2.59954 0
M  V30 5491 N 509.944 0.496216 -1.49584 0
M  V30 5492 C 511.172 1.27394 -1.63029 0
M  V30 5493 C 511.587 1.86344 -0.303569 0
M  V30 5494 O 510.944 1.68057 0.711547 0
M  V30 5495 C 510.995 2.40077 -2.70269 0
M  V30 5496 O 510.716 1.83549 -3.97796 0
M  V30 5497 C 512.217 3.31372 -2.94462 0
M  V30 5498 H 509.437 0.386211 -0.54871 0
M  V30 5499 H 511.981 0.595163 -1.95648 0
M  V30 5500 H 510.136 3.03775 -2.40415 0
M  V30 5501 H 510.55 2.57561 -4.56905 0
M  V30 5502 H 512.024 4.06707 -3.73221 0
M  V30 5503 H 512.501 3.88654 -2.0456 0
M  V30 5504 H 513.107 2.73435 -3.25751 0
M  V30 5505 N 511.423 1.38739 0.74761 0
M  V30 5506 C 512.839 1.20067 1.05148 0
M  V30 5507 C 513.039 0.0534835 2.01429 0
M  V30 5508 O 512.095 -0.59886 2.45296 0
M  V30 5509 C 513.408 2.52957 1.62584 0
M  V30 5510 C 514.956 2.59692 1.74726 0
M  V30 5511 C 515.431 3.92772 2.35573 0
M  V30 5512 N 516.922 3.94343 2.42997 0
M  V30 5513 C 517.657 4.9408 2.90985 0
M  V30 5514 N 517.153 6.04214 3.38965 0
M  V30 5515 N 518.946 4.81466 2.9008 0
M  V30 5516 H 511.097 2.12121 0.108808 0
M  V30 5517 H 513.36 0.941491 0.110899 0
M  V30 5518 H 513.066 3.37389 0.993051 0
M  V30 5519 H 512.94 2.71779 2.61565 0
M  V30 5520 H 515.327 1.75651 2.3713 0
M  V30 5521 H 515.408 2.44731 0.744326 0
M  V30 5522 H 515.052 4.77238 1.738 0
M  V30 5523 H 514.982 4.05046 3.36519 0
M  V30 5524 H 517.473 3.14799 2.0907 0
M  V30 5525 H 517.786 6.76241 3.74056 0
M  V30 5526 H 516.131 6.07825 3.37007 0
M  V30 5527 H 519.322 3.94535 2.51912 0
M  V30 5528 H 519.495 5.59344 3.27166 0
M  V30 5529 N 512.901 -0.976442 1.23707 0
M  V30 5530 C 514.147 -1.72081 1.07312 0
M  V30 5531 C 514.48 -1.90275 -0.388476 0
M  V30 5532 O 513.755 -1.4579 -1.28746 0
M  V30 5533 C 514.038 -3.11675 1.80363 0
M  V30 5534 C 513.891 -3.01027 3.3422 0
M  V30 5535 C 515.21 -4.1117 1.5693 0
M  V30 5536 H 512.329 -0.624583 0.391236 0
M  V30 5537 H 514.971 -1.13649 1.52263 0
M  V30 5538 H 513.121 -3.61559 1.42153 0
M  V30 5539 H 514.793 -2.58637 3.81975 0
M  V30 5540 H 513.036 -2.3744 3.63049 0
M  V30 5541 H 513.707 -3.9988 3.80525 0
M  V30 5542 H 516.183 -3.7011 1.90151 0
M  V30 5543 H 515.059 -5.06928 2.10513 0
M  V30 5544 H 515.32 -4.392 0.505548 0
M  V30 5545 N 514.379 -1.04941 -1.1758 0
M  V30 5546 C 515.327 -0.64204 -2.23563 0
M  V30 5547 C 516.321 0.335453 -1.66045 0
M  V30 5548 O 517.527 0.20179 -1.78865 0
M  V30 5549 H 513.902 -0.18944 -0.727748 0
M  V30 5550 H 515.873 -1.54609 -2.55223 0
M  V30 5551 C 514.622 -0.0301051 -3.47687 0
M  V30 5552 H 513.945 -0.773339 -3.92249 0
M  V30 5553 H 515.385 0.217592 -4.23441 0
M  V30 5554 C 513.844 1.2225 -3.13937 0
M  V30 5555 O 514.374 2.3122 -3.28482 0
M  V30 5556 N 512.58 1.11917 -2.68185 0
M  V30 5557 H 512.127 0.232403 -2.5655 0
M  V30 5558 H 512.085 1.95814 -2.45976 0
M  V30 5559 N 515.857 1.33968 -0.830081 0
M  V30 5560 C 517.273 1.51003 -0.516742 0
M  V30 5561 C 517.473 1.77286 0.957694 0
M  V30 5562 O 516.529 1.82797 1.74188 0
M  V30 5563 C 517.842 2.67036 -1.38247 0
M  V30 5564 C 519.39 2.80919 -1.38034 0
M  V30 5565 C 519.865 4.00004 -2.23071 0
M  V30 5566 N 521.356 4.07224 -2.20733 0
M  V30 5567 C 522.091 4.98541 -2.83275 0
M  V30 5568 N 521.587 5.95033 -3.54835 0
M  V30 5569 N 523.38 4.91469 -2.72791 0
M  V30 5570 H 515.531 1.15168 -1.78466 0
M  V30 5571 H 517.794 0.565443 -0.760906 0
M  V30 5572 H 517.5 2.54266 -2.42985 0
M  V30 5573 H 517.374 3.62226 -1.05225 0
M  V30 5574 H 519.761 2.93127 -0.340713 0
M  V30 5575 H 519.842 1.86517 -1.75057 0
M  V30 5576 H 519.486 3.88557 -3.27087 0
M  V30 5577 H 519.416 4.93634 -1.83394 0
M  V30 5578 H 521.907 3.38162 -1.68687 0
M  V30 5579 H 522.22 6.61357 -3.99784 0
M  V30 5580 H 520.565 5.95135 -3.58942 0
M  V30 5581 H 523.756 4.15048 -2.16456 0
M  V30 5582 H 523.929 5.62439 -3.21818 0
M  V30 5583 N 517.335 0.585699 1.46312 0
M  V30 5584 C 518.575 0.0751432 2.04262 0
M  V30 5585 C 518.939 -1.26201 1.44697 0
M  V30 5586 O 520.14 -1.86198 1.93865 0
M  V30 5587 C 518.411 0.013478 3.57397 0
M  V30 5588 S 519.97 -0.439068 4.36598 0
M  V30 5589 H 516.788 0.0389228 0.709934 0
M  V30 5590 H 519.39 0.778871 1.79315 0
M  V30 5591 H 518.094 0.990558 3.98266 0
M  V30 5592 H 517.625 -0.712927 3.86886 0
M  V30 5593 H 519.64 -1.6932 4.66417 0
M  V30 5594 N 518.813 -1.54241 0.323641 0
M  V30 5595 C 519.763 -2.21071 -0.557833 0
M  V30 5596 C 520.747 -1.19126 -1.08157 0
M  V30 5597 O 521.939 -1.44755 -1.01857 0
M  V30 5598 C 519.068 -2.97208 -1.71821 0
M  V30 5599 C 518.154 -4.06491 -1.20936 0
M  V30 5600 N 518.545 -5.04052 -0.420202 0
M  V30 5601 C 516.843 -4.20443 -1.48808 0
M  V30 5602 C 517.544 -5.81516 -0.146413 0
M  V30 5603 N 516.52 -5.38641 -0.732562 0
M  V30 5604 H 520.322 -2.93853 0.0523921 0
M  V30 5605 H 517.836 -1.61883 0.129502 0
M  V30 5606 H 519.833 -3.4357 -2.36146 0
M  V30 5607 H 518.493 -2.25947 -2.33191 0
M  V30 5608 H 519.504 -5.17862 -0.0630401 0
M  V30 5609 H 516.181 -3.60396 -2.10762 0
M  V30 5610 H 517.571 -6.70119 0.488895 0
M  V30 5611 N 520.291 -0.0518155 -1.57515 0
M  V30 5612 C 521.519 0.631395 -1.9703 0
M  V30 5613 C 521.934 1.64341 -0.92938 0
M  V30 5614 O 521.291 1.82296 0.0863266 0
M  V30 5615 C 521.342 1.31774 -3.36627 0
M  V30 5616 O 521.063 0.346247 -4.3673 0
M  V30 5617 C 522.564 2.09065 -3.90905 0
M  V30 5618 H 519.784 0.172576 -0.648428 0
M  V30 5619 H 522.328 -0.118306 -2.04158 0
M  V30 5620 H 520.483 2.01867 -3.30649 0
M  V30 5621 H 520.897 0.836226 -5.17791 0
M  V30 5622 H 522.371 2.52508 -4.9086 0
M  V30 5623 H 522.848 2.93908 -3.26366 0
M  V30 5624 H 523.454 1.43882 -4.00223 0
M  V30 5625 N 521.769 1.56035 0.221574 0
M  V30 5626 C 522.716 1.92413 1.27459 0
M  V30 5627 C 523.686 0.781323 1.46576 0
M  V30 5628 O 524.871 1.03721 1.60145 0
M  V30 5629 C 522.011 2.24617 2.61995 0
M  V30 5630 C 521.124 3.51831 2.50677 0
M  V30 5631 C 520.259 3.73482 3.77736 0
M  V30 5632 C 519.298 4.94211 3.6114 0
M  V30 5633 N 518.435 5.12252 4.80148 0
M  V30 5634 H 523.275 2.82203 0.957355 0
M  V30 5635 H 520.812 1.39676 0.461415 0
M  V30 5636 H 522.77 2.41298 3.40339 0
M  V30 5637 H 521.4 1.38 2.91815 0
M  V30 5638 H 520.452 3.43343 1.63767 0
M  V30 5639 H 521.764 4.40328 2.34334 0
M  V30 5640 H 520.918 3.9026 4.64523 0
M  V30 5641 H 519.657 2.83266 3.97003 0
M  V30 5642 H 518.662 4.77384 2.72736 0
M  V30 5643 H 519.887 5.85912 3.43343 0
M  V30 5644 H 517.833 4.24978 4.99729 0
M  V30 5645 H 517.75 5.94881 4.66532 0
M  V30 5646 H 519.018 5.33465 5.68362 0
M  V30 5647 N 523.247 -0.488276 1.49845 0
M  V30 5648 C 524.157 -1.61451 1.70207 0
M  V30 5649 C 525.173 -1.63877 0.584846 0
M  V30 5650 O 526.349 -1.82063 0.861107 0
M  V30 5651 C 523.414 -2.9776 1.77594 0
M  V30 5652 C 522.475 -3.05861 3.01243 0
M  V30 5653 C 521.708 -4.35668 3.08268 0
M  V30 5654 O 521.931 -5.25197 2.22541 0
M  V30 5655 O 520.865 -4.49005 4.00847 0
M  V30 5656 H 524.691 -1.47199 2.65643 0
M  V30 5657 H 522.276 -0.665939 1.33737 0
M  V30 5658 H 524.158 -3.7875 1.84732 0
M  V30 5659 H 522.833 -3.12248 0.8534 0
M  V30 5660 H 521.74 -2.24012 2.99616 0
M  V30 5661 H 523.073 -2.96304 3.9302 0
M  V30 5662 N 524.725 -1.39134 -0.740242 0
M  V30 5663 C 525.953 -1.39334 -1.5295 0
M  V30 5664 C 526.368 0.0135008 -1.88795 0
M  V30 5665 O 525.725 0.983524 -1.5373 0
M  V30 5666 C 525.776 -2.2614 -2.82034 0
M  V30 5667 O 525.497 -3.61345 -2.47712 0
M  V30 5668 C 526.998 -2.34666 -3.76094 0
M  V30 5669 H 524.218 -0.476103 -0.472828 0
M  V30 5670 H 526.762 -1.82883 -0.9151 0
M  V30 5671 H 524.917 -1.86018 -3.39818 0
M  V30 5672 H 525.331 -4.07194 -3.30595 0
M  V30 5673 H 526.805 -2.99663 -4.63579 0
M  V30 5674 H 527.282 -1.36426 -4.17474 0
M  V30 5675 H 527.888 -2.75236 -3.2423 0
M  V30 5676 N 526.204 0.969867 -1.24223 0
M  V30 5677 C 527.134 2.08191 -1.05729 0
M  V30 5678 C 528.115 1.70075 0.0290765 0
M  V30 5679 O 529.3 1.93712 -0.137583 0
M  V30 5680 C 526.43 3.40991 -0.658995 0
M  V30 5681 C 525.384 3.93054 -1.69389 0
M  V30 5682 C 524.71 5.22171 -1.15072 0
M  V30 5683 C 526.01 4.21137 -3.08935 0
M  V30 5684 H 527.704 2.23921 -1.98746 0
M  V30 5685 H 525.25 1.07602 -0.956967 0
M  V30 5686 H 527.203 4.18221 -0.51662 0
M  V30 5687 H 525.927 3.25155 0.30686 0
M  V30 5688 H 524.586 3.17977 -1.82444 0
M  V30 5689 H 524.234 5.02694 -0.175539 0
M  V30 5690 H 523.934 5.57973 -1.84229 0
M  V30 5691 H 525.458 6.02013 -1.02042 0
M  V30 5692 H 526.872 4.8908 -2.99121 0
M  V30 5693 H 525.269 4.68163 -3.75425 0
M  V30 5694 H 526.339 3.27996 -3.57137 0
M  V30 5695 N 527.682 1.05563 1.17022 0
M  V30 5696 C 528.929 0.767937 1.87374 0
M  V30 5697 C 529.257 -0.705224 1.81265 0
M  V30 5698 O 528.512 -1.5318 1.21796 0
M  V30 5699 C 528.811 1.19849 3.36706 0
M  V30 5700 C 528.477 2.6745 3.63017 0
M  V30 5701 C 527.139 3.0777 3.69907 0
M  V30 5702 C 529.491 3.62811 3.74189 0
M  V30 5703 C 526.819 4.42307 3.85463 0
M  V30 5704 C 529.171 4.97087 3.91264 0
M  V30 5705 C 527.835 5.37055 3.96394 0
M  V30 5706 H 527.105 0.281008 0.68565 0
M  V30 5707 H 529.752 1.32339 1.38415 0
M  V30 5708 H 528.057 0.562096 3.87747 0
M  V30 5709 H 529.754 0.953038 3.8951 0
M  V30 5710 H 526.344 2.35228 3.58282 0
M  V30 5711 H 530.528 3.32798 3.68183 0
M  V30 5712 H 525.784 4.72769 3.87684 0
M  V30 5713 H 529.958 5.70869 3.9885 0
M  V30 5714 H 527.585 6.41308 4.082 0
M  V30 5715 N 529.16 -1.33526 0.837174 0
M  V30 5716 C 530.093 -2.27192 0.214233 0
M  V30 5717 C 531.071 -1.49575 -0.637657 0
M  V30 5718 O 532.255 -1.78753 -0.598291 0
M  V30 5719 C 529.382 -3.31401 -0.699367 0
M  V30 5720 C 528.428 -4.26431 0.0768429 0
M  V30 5721 S 529.261 -5.15954 1.4336 0
M  V30 5722 C 530.417 -6.23692 0.525251 0
M  V30 5723 H 530.65 -2.79679 1.00831 0
M  V30 5724 H 528.183 -1.4079 0.633834 0
M  V30 5725 H 530.141 -3.91924 -1.22088 0
M  V30 5726 H 528.802 -2.77732 -1.46709 0
M  V30 5727 H 527.995 -5.00193 -0.618268 0
M  V30 5728 H 527.597 -3.70235 0.529364 0
M  V30 5729 H 529.889 -6.76931 -0.277575 0
M  V30 5730 H 530.832 -6.97283 1.23299 0
M  V30 5731 H 531.24 -5.64398 0.107351 0
M  V30 5732 N 530.638 -0.59345 -1.46 0
M  V30 5733 C 531.601 0.123538 -2.28867 0
M  V30 5734 C 532.601 0.808628 -1.38989 0
M  V30 5735 O 533.791 0.658945 -1.61256 0
M  V30 5736 C 530.923 1.1847 -3.19653 0
M  V30 5737 H 532.116 -0.604843 -2.93737 0
M  V30 5738 H 529.669 -0.351875 -1.52288 0
M  V30 5739 H 530.404 1.94431 -2.59552 0
M  V30 5740 H 530.189 0.69783 -3.8584 0
M  V30 5741 H 531.679 1.68726 -3.81997 0
M  V30 5742 N 532.116 1.54067 -0.331816 0
M  V30 5743 C 533.364 2.00319 0.267739 0
M  V30 5744 C 533.685 1.22148 1.52003 0
M  V30 5745 O 532.955 0.325494 1.93177 0
M  V30 5746 H 531.535 0.740014 0.101922 0
M  V30 5747 H 534.197 1.89628 -0.450267 0
M  V30 5748 H 533.293 3.07765 0.518385 0
M  V30 5749 N 533.594 0.0601682 1.57485 0
M  V30 5750 C 534.871 -0.651956 1.84415 0
M  V30 5751 C 535.251 -1.88498 0.950361 0
M  V30 5752 O 534.599 -2.28496 0.0136719 0
M  V30 5753 C 534.809 -1.00069 3.34346 0
M  V30 5754 C 536.157 -1.37915 4.01578 0
M  V30 5755 O 537.181 -1.09277 3.39024 0
M  V30 5756 O 536.04 -1.91399 5.11887 0
M  V30 5757 H 533.134 -0.322668 0.761455 0
M  V30 5758 H 535.68 0.0902159 1.6946 0
M  V30 5759 H 534.452 -0.124463 3.91102 0
M  V30 5760 H 534.075 -1.80001 3.54521 0
M  V30 5761 N 535.072 -1.5615 -0.213296 0
M  V30 5762 C 536.3 -1.83638 -0.953139 0
M  V30 5763 C 536.715 -0.640362 -1.77609 0
M  V30 5764 O 536.072 0.391071 -1.78261 0
M  V30 5765 C 536.123 -3.09735 -1.86405 0
M  V30 5766 O 535.844 -4.24723 -1.07435 0
M  V30 5767 C 537.345 -3.5027 -2.71709 0
M  V30 5768 H 534.565 -0.610263 -0.278962 0
M  V30 5769 H 537.109 -2.03247 -0.226035 0
M  V30 5770 H 535.264 -2.92077 -2.545 0
M  V30 5771 H 535.678 -4.9641 -1.69343 0
M  V30 5772 H 537.152 -4.41515 -3.31313 0
M  V30 5773 H 537.629 -2.72406 -3.44516 0
M  V30 5774 H 538.235 -3.70396 -2.09015 0
M  V30 5775 N 536.55 0.480323 -1.50102 0
M  V30 5776 C 537.513 1.56181 -1.6775 0
M  V30 5777 C 538.513 1.51156 -0.548503 0
M  V30 5778 O 539.703 1.5394 -0.815363 0
M  V30 5779 C 536.835 2.95823 -1.69415 0
M  V30 5780 H 538.028 1.41855 -2.6423 0
M  V30 5781 H 535.581 0.70605 -1.39444 0
M  V30 5782 H 536.316 3.15604 -0.745948 0
M  V30 5783 H 536.101 3.00878 -2.51425 0
M  V30 5784 H 537.591 3.74359 -1.85054 0
M  V30 5785 N 538.028 1.39524 0.732853 0
M  V30 5786 C 539.439 1.32905 1.31122 0
M  V30 5787 C 539.79 -0.00558708 1.96199 0
M  V30 5788 O 538.915 -0.907706 1.96443 0
M  V30 5789 C 539.51 2.40704 2.38426 0
M  V30 5790 C 538.069 2.37599 2.91931 0
M  V30 5791 C 537.216 2.2248 1.65523 0
M  V30 5792 H 540.167 1.49581 0.530207 0
M  V30 5793 H 540.188 2.07616 3.18867 0
M  V30 5794 H 539.7 3.37829 1.91033 0
M  V30 5795 H 537.801 1.44119 3.43599 0
M  V30 5796 H 537.914 3.32538 3.44899 0
M  V30 5797 H 536.278 1.69691 1.8994 0
M  V30 5798 H 537.061 3.21577 1.20178 0
M  V30 5799 N 539.506 -0.963266 1.24736 0
M  V30 5800 C 540.731 -1.74699 1.11781 0
M  V30 5801 C 541.156 -1.85267 -0.325258 0
M  V30 5802 O 540.514 -1.32681 -1.23553 0
M  V30 5803 C 540.562 -3.14322 1.76731 0
M  V30 5804 O 539.666 -3.99043 1.04109 0
M  V30 5805 H 539.007 -0.53684 0.390767 0
M  V30 5806 H 541.537 -1.20801 1.65131 0
M  V30 5807 H 541.547 -3.64824 1.82668 0
M  V30 5808 H 540.222 -3.05946 2.81726 0
M  V30 5809 H 538.799 -3.5752 1.05991 0
M  V30 5810 N 540.985 -1.06182 -1.16461 0
M  V30 5811 C 541.895 -0.682671 -2.24448 0
M  V30 5812 C 542.911 0.30078 -1.71381 0
M  V30 5813 O 544.087 0.150376 -2.00838 0
M  V30 5814 C 541.152 -0.0737202 -3.46622 0
M  V30 5815 C 540.213 -1.10889 -4.14731 0
M  V30 5816 C 539.446 -0.528908 -5.31073 0
M  V30 5817 O 539.669 0.65868 -5.66584 0
M  V30 5818 O 538.603 -1.26805 -5.88391 0
M  V30 5819 H 542.429 -1.58291 -2.59187 0
M  V30 5820 H 540.014 -0.834013 -1.23954 0
M  V30 5821 H 541.896 0.264192 -4.20571 0
M  V30 5822 H 540.571 0.800015 -3.13658 0
M  V30 5823 H 539.478 -1.49896 -3.42756 0
M  V30 5824 H 540.811 -1.95412 -4.51747 0
M  V30 5825 N 542.463 1.3308 -0.844243 0
M  V30 5826 C 543.426 2.27403 -0.286485 0
M  V30 5827 C 544.426 1.51179 0.547872 0
M  V30 5828 O 545.616 1.70421 0.360886 0
M  V30 5829 C 542.748 3.35653 0.595813 0
M  V30 5830 H 543.941 2.78248 -1.11885 0
M  V30 5831 H 541.494 1.43574 -0.617749 0
M  V30 5832 H 542.229 2.90058 1.4504 0
M  V30 5833 H 542.014 3.921 -0.00125994 0
M  V30 5834 H 543.504 4.05958 0.979168 0
M  V30 5835 N 543.941 0.601185 1.45683 0
M  V30 5836 C 545.169 0.100054 2.06658 0
M  V30 5837 C 545.584 -1.21285 1.44691 0
M  V30 5838 O 544.941 -1.73735 0.558772 0
M  V30 5839 C 544.992 -0.0528579 3.61461 0
M  V30 5840 O 544.713 1.20809 4.21114 0
M  V30 5841 C 546.214 -0.586193 4.39407 0
M  V30 5842 H 543.434 0.065905 0.667756 0
M  V30 5843 H 545.978 0.827101 1.87028 0
M  V30 5844 H 544.133 -0.730203 3.80456 0
M  V30 5845 H 544.547 1.03368 5.14213 0
M  V30 5846 H 546.021 -0.642297 5.4825 0
M  V30 5847 H 546.498 -1.60713 4.0874 0
M  V30 5848 H 547.104 0.0568935 4.25262 0
M  V30 5849 N 545.419 -1.53889 0.339982 0
M  V30 5850 C 546.644 -2.05741 -0.261798 0
M  V30 5851 C 547.069 -1.21354 -1.43718 0
M  V30 5852 O 546.427 -0.22645 -1.7988 0
M  V30 5853 C 546.475 -3.54542 -0.658228 0
M  V30 5854 O 545.579 -3.7302 -1.75869 0
M  V30 5855 H 544.92 -0.662529 -0.0441672 0
M  V30 5856 H 547.45 -1.98568 0.493161 0
M  V30 5857 H 547.46 -3.9711 -0.936368 0
M  V30 5858 H 546.135 -4.15412 0.201358 0
M  V30 5859 H 544.712 -3.42355 -1.47809 0
M  V30 5860 N 546.897 -0.0685191 -1.57451 0
M  V30 5861 C 548.145 0.60016 -1.92983 0
M  V30 5862 C 548.466 1.70348 -0.949028 0
M  V30 5863 O 547.736 1.959 0.00335647 0
M  V30 5864 H 546.316 0.224682 -0.712409 0
M  V30 5865 H 548.978 -0.125605 -1.94495 0
M  V30 5866 H 548.074 1.02759 -2.94698 0
M  V30 5867 N 548.375 1.56261 0.205012 0
M  V30 5868 C 549.285 1.96944 1.27476 0
M  V30 5869 C 550.301 0.875636 1.50362 0
M  V30 5870 O 551.477 1.18058 1.6317 0
M  V30 5871 C 548.542 2.29219 2.60115 0
M  V30 5872 C 547.603 3.52255 2.45387 0
M  V30 5873 C 546.836 3.8298 3.71701 0
M  V30 5874 O 547.059 3.15138 4.75441 0
M  V30 5875 O 545.993 4.76435 3.67823 0
M  V30 5876 H 549.819 2.88144 0.959527 0
M  V30 5877 H 547.404 1.43686 0.409217 0
M  V30 5878 H 549.286 2.51098 3.3842 0
M  V30 5879 H 547.961 1.4119 2.91285 0
M  V30 5880 H 546.868 3.35635 1.65227 0
M  V30 5881 H 548.201 4.40719 2.19152 0
M  V30 5882 N 549.853 -0.472356 1.50355 0
M  V30 5883 C 550.816 -1.5529 1.68576 0
M  V30 5884 C 551.816 -1.50863 0.556511 0
M  V30 5885 O 553.006 -1.53505 0.823516 0
M  V30 5886 C 550.138 -2.94921 1.70981 0
M  V30 5887 H 551.331 -1.40451 2.64978 0
M  V30 5888 H 548.884 -0.698645 1.39816 0
M  V30 5889 H 549.619 -3.15204 0.762675 0
M  V30 5890 H 549.404 -2.99541 2.53017 0
M  V30 5891 H 550.894 -3.73372 1.87037 0
M  V30 5892 N 551.331 -1.39911 -0.725443 0
M  V30 5893 C 552.579 -1.37382 -1.48224 0
M  V30 5894 C 552.9 0.0264107 -1.94982 0
M  V30 5895 O 552.17 0.979408 -1.6966 0
M  V30 5896 H 550.75 -0.505596 -0.549892 0
M  V30 5897 H 553.412 -1.7487 -0.860608 0
M  V30 5898 H 552.508 -2.04254 -2.3598 0
M  V30 5899 N 552.809 0.956637 -1.25245 0
M  V30 5900 C 554.225 1.22733 -1.02023 0
M  V30 5901 C 554.425 1.99761 0.264186 0
M  V30 5902 O 553.481 2.32814 0.977436 0
M  V30 5903 C 554.794 2.00367 -2.24217 0
M  V30 5904 C 556.342 2.13418 -2.28958 0
M  V30 5905 C 556.817 2.9445 -3.50803 0
M  V30 5906 N 558.308 3.02029 -3.51187 0
M  V30 5907 C 559.043 3.65116 -4.42129 0
M  V30 5908 N 558.539 4.2983 -5.43339 0
M  V30 5909 N 560.332 3.62237 -4.29815 0
M  V30 5910 H 552.483 0.441282 -2.07765 0
M  V30 5911 H 554.746 0.257686 -0.912306 0
M  V30 5912 H 554.452 1.51165 -3.17556 0
M  V30 5913 H 554.326 3.01077 -2.27228 0
M  V30 5914 H 556.713 2.61819 -1.36143 0
M  V30 5915 H 556.794 1.1202 -2.29968 0
M  V30 5916 H 556.438 2.46741 -4.43939 0
M  V30 5917 H 556.368 3.9607 -3.47039 0
M  V30 5918 H 558.859 2.56007 -2.77973 0
M  V30 5919 H 559.172 4.75819 -6.08947 0
M  V30 5920 H 557.517 4.28465 -5.47214 0
M  V30 5921 H 560.708 3.10863 -3.49974 0
M  V30 5922 H 560.881 4.11117 -5.00886 0
M  V30 5923 N 554.287 1.06798 1.15896 0
M  V30 5924 C 555.698 0.811355 1.68149 0
M  V30 5925 C 556.049 -0.664339 1.8461 0
M  V30 5926 O 555.174 -1.51485 1.54535 0
M  V30 5927 C 555.769 1.46624 3.05429 0
M  V30 5928 C 554.328 1.25726 3.54781 0
M  V30 5929 C 553.475 1.53949 2.3064 0
M  V30 5930 H 556.426 1.23078 1.00187 0
M  V30 5931 H 556.447 0.88437 3.7008 0
M  V30 5932 H 555.959 2.54025 2.93416 0
M  V30 5933 H 554.06 0.20322 3.72045 0
M  V30 5934 H 554.173 1.97354 4.36564 0
M  V30 5935 H 552.537 0.96025 2.35905 0
M  V30 5936 H 553.32 2.6252 2.2122 0
M  V30 5937 N 555.766 -1.3263 0.851289 0
M  V30 5938 C 556.698 -2.27824 0.250757 0
M  V30 5939 C 557.711 -1.52285 -0.575598 0
M  V30 5940 O 558.9 -1.73946 -0.400638 0
M  V30 5941 C 556 -3.3232 -0.664571 0
M  V30 5942 C 555.173 -4.37221 0.125187 0
M  V30 5943 C 554.232 -5.21314 -0.715385 0
M  V30 5944 O 553.258 -5.69002 -0.150111 0
M  V30 5945 N 554.46 -5.43823 -2.03069 0
M  V30 5946 H 557.225 -2.79997 1.06873 0
M  V30 5947 H 554.786 -1.45455 0.710943 0
M  V30 5948 H 556.778 -3.85486 -1.23216 0
M  V30 5949 H 555.348 -2.80331 -1.38323 0
M  V30 5950 H 554.568 -3.84384 0.874199 0
M  V30 5951 H 555.856 -5.04399 0.667774 0
M  V30 5952 H 555.254 -5.06803 -2.51332 0
M  V30 5953 H 553.811 -5.99998 -2.54648 0
M  V30 5954 N 557.244 -0.608902 -1.45362 0
M  V30 5955 C 558.521 -0.0365378 -1.95566 0
M  V30 5956 C 558.901 1.43169 -1.55131 0
M  V30 5957 O 558.249 2.1349 -0.814513 0
M  V30 5958 C 558.459 -0.236026 -3.48201 0
M  V30 5959 C 559.807 -0.117518 -4.24437 0
M  V30 5960 O 560.831 -0.166217 -3.55812 0
M  V30 5961 O 559.69 -0.00372127 -5.465 0
M  V30 5962 H 556.784 0.0349874 -0.82626 0
M  V30 5963 H 559.33 -0.679055 -1.55521 0
M  V30 5964 H 558.102 -1.25569 -3.70605 0
M  V30 5965 H 557.725 0.441691 -3.95139 0
M  V30 5966 N 558.722 1.53707 -0.348139 0
M  V30 5967 C 559.97 2.00591 0.246478 0
M  V30 5968 C 560.291 1.23753 1.50699 0
M  V30 5969 O 559.561 0.345964 1.92821 0
M  V30 5970 H 558.141 0.741053 0.0940679 0
M  V30 5971 H 560.803 1.89139 -0.470354 0
M  V30 5972 H 559.899 3.08297 0.485714 0
M  V30 5973 N 560.2 0.0768682 1.57412 0
M  V30 5974 C 561.425 -0.603404 1.98428 0
M  V30 5975 C 561.85 -1.62047 0.955108 0
M  V30 5976 O 561.208 -1.81129 -0.0786778 0
M  V30 5977 C 561.256 -1.24396 3.38464 0
M  V30 5978 O 560.36 -2.35982 3.3821 0
M  V30 5979 H 559.701 -0.154741 0.645718 0
M  V30 5980 H 562.231 0.152885 2.04028 0
M  V30 5981 H 562.241 -1.5896 3.7576 0
M  V30 5982 H 560.916 -0.498735 4.12899 0
M  V30 5983 H 559.493 -2.03173 3.1269 0
M  V30 5984 N 561.678 -1.56367 -0.196722 0
M  V30 5985 C 562.926 -1.80172 -0.915554 0
M  V30 5986 C 563.247 -0.649649 -1.8386 0
M  V30 5987 O 562.517 0.332111 -1.93064 0
M  V30 5988 H 561.097 -0.664592 -0.341067 0
M  V30 5989 H 563.759 -1.93844 -0.202622 0
M  V30 5990 H 562.855 -2.7327 -1.50764 0
M  V30 5991 N 563.156 0.464375 -1.50603 0
M  V30 5992 C 564.086 1.56944 -1.72889 0
M  V30 5993 C 565.067 1.59979 -0.577997 0
M  V30 5994 O 566.252 1.76138 -0.817855 0
M  V30 5995 C 563.382 2.95225 -1.8292 0
M  V30 5996 C 562.336 3.07056 -2.98162 0
M  V30 5997 C 561.662 4.47051 -2.93343 0
M  V30 5998 C 562.962 2.83648 -4.38567 0
M  V30 5999 H 564.656 1.38547 -2.65415 0
M  V30 6000 H 562.202 0.665082 -1.27721 0
M  V30 6001 H 564.155 3.72467 -1.97095 0
M  V30 6002 H 562.879 3.14793 -0.870209 0
M  V30 6003 H 561.538 2.32248 -2.83648 0
M  V30 6004 H 561.186 4.63547 -1.95276 0
M  V30 6005 H 560.886 4.55902 -3.70712 0
M  V30 6006 H 562.41 5.26304 -3.09575 0
M  V30 6007 H 563.824 3.50636 -4.53572 0
M  V30 6008 H 562.221 3.03937 -5.17438 0
M  V30 6009 H 563.291 1.79451 -4.50472 0
M  V30 6010 N 564.634 1.40294 0.718013 0
M  V30 6011 C 565.88 1.39648 1.47885 0
M  V30 6012 C 566.235 -0.0023879 1.924 0
M  V30 6013 O 565.528 -0.972304 1.65096 0
M  V30 6014 C 565.722 2.31814 2.72024 0
M  V30 6015 C 565.551 3.80523 2.3965 0
M  V30 6016 C 564.321 4.49351 2.3111 0
M  V30 6017 C 566.519 4.72077 2.04079 0
M  V30 6018 N 564.501 5.83305 1.91385 0
M  V30 6019 C 565.872 5.94809 1.74935 0
M  V30 6020 C 567.927 4.59935 1.90694 0
M  V30 6021 C 566.63 7.06755 1.33753 0
M  V30 6022 C 568.656 5.7182 1.50915 0
M  V30 6023 C 568.018 6.93637 1.22668 0
M  V30 6024 H 564.117 0.566263 0.539324 0
M  V30 6025 H 566.701 1.75986 0.832891 0
M  V30 6026 H 564.872 1.97607 3.34374 0
M  V30 6027 H 566.604 2.22042 3.38348 0
M  V30 6028 H 563.359 4.03002 2.4877 0
M  V30 6029 H 563.783 6.54239 1.74068 0
M  V30 6030 H 568.425 3.66274 2.11194 0
M  V30 6031 H 566.143 8.00302 1.11995 0
M  V30 6032 H 569.729 5.64421 1.4114 0
M  V30 6033 H 568.609 7.78743 0.923502 0
M  V30 6034 N 566.112 -0.949982 1.2575 0
M  V30 6035 C 567.359 -1.69515 1.10774 0
M  V30 6036 C 567.687 -1.91316 -0.350479 0
M  V30 6037 O 566.942 -1.48515 -1.27443 0
M  V30 6038 C 567.241 -3.08039 1.81237 0
M  V30 6039 C 566.907 -3.06023 3.31151 0
M  V30 6040 C 565.569 -3.0518 3.72047 0
M  V30 6041 C 567.921 -2.98998 4.26907 0
M  V30 6042 C 565.249 -2.95067 5.07102 0
M  V30 6043 C 567.601 -2.90426 5.61992 0
M  V30 6044 C 566.265 -2.87922 6.0221 0
M  V30 6045 H 565.535 -0.6203 0.405351 0
M  V30 6046 H 568.182 -1.10953 1.56082 0
M  V30 6047 H 566.487 -3.70172 1.28373 0
M  V30 6048 H 568.184 -3.64526 1.67098 0
M  V30 6049 H 564.774 -3.07453 2.98614 0
M  V30 6050 H 568.958 -2.98764 3.963 0
M  V30 6051 H 564.214 -2.915 5.37436 0
M  V30 6052 H 568.388 -2.83952 6.35881 0
M  V30 6053 H 566.015 -2.79841 7.06819 0
M  V30 6054 N 567.59 -1.07411 -1.15328 0
M  V30 6055 C 568.838 -0.796073 -1.85761 0
M  V30 6056 C 569.159 0.679864 -1.82764 0
M  V30 6057 O 568.429 1.49242 -1.269 0
M  V30 6058 H 567.009 -0.291495 -0.687779 0
M  V30 6059 H 569.671 -1.35799 -1.39802 0
M  V30 6060 H 568.767 -1.13114 -2.90881 0
M  V30 6061 N 569.068 1.32177 -0.85831 0
M  V30 6062 C 570.298 2.01021 -0.476889 0
M  V30 6063 C 570.706 1.64653 0.931995 0
M  V30 6064 O 570.049 0.865713 1.62022 0
M  V30 6065 C 570.111 3.55413 -0.540528 0
M  V30 6066 C 569.775 4.1522 -1.90895 0
M  V30 6067 C 570.772 4.3318 -2.87491 0
M  V30 6068 C 568.457 4.51212 -2.20709 0
M  V30 6069 C 570.451 4.86306 -4.1205 0
M  V30 6070 C 568.138 5.04042 -3.45521 0
M  V30 6071 C 569.136 5.21538 -4.41007 0
M  V30 6072 O 568.824 5.73238 -5.63608 0
M  V30 6073 H 568.556 0.650059 -0.18547 0
M  V30 6074 H 571.11 1.69648 -1.15796 0
M  V30 6075 H 569.34 3.86196 0.19741 0
M  V30 6076 H 571.029 4.05526 -0.174191 0
M  V30 6077 H 571.795 4.05704 -2.65762 0
M  V30 6078 H 567.674 4.36878 -1.4717 0
M  V30 6079 H 571.218 4.99877 -4.86589 0
M  V30 6080 H 567.115 5.30952 -3.67098 0
M  V30 6081 H 567.883 5.91625 -5.65617 0
M  V30 6082 N 570.547 0.616602 1.45037 0
M  V30 6083 C 571.795 0.115103 2.01772 0
M  V30 6084 C 572.116 -1.2622 1.48639 0
M  V30 6085 O 571.386 -1.83563 0.684199 0
M  V30 6086 H 569.966 0.0395607 0.745952 0
M  V30 6087 H 572.628 0.800032 1.77723 0
M  V30 6088 H 571.724 0.0717274 3.12018 0
M  V30 6089 N 572.025 -1.5352 0.356285 0
M  V30 6090 C 572.955 -2.28372 -0.486661 0
M  V30 6091 C 573.936 -1.30432 -1.09185 0
M  V30 6092 O 575.121 -1.59291 -1.11085 0
M  V30 6093 C 572.251 -3.06604 -1.63129 0
M  V30 6094 C 571.205 -4.12154 -1.15381 0
M  V30 6095 C 570.531 -4.78415 -2.38796 0
M  V30 6096 C 571.831 -5.21724 -0.245179 0
M  V30 6097 H 573.525 -2.99083 0.137797 0
M  V30 6098 H 571.071 -1.43841 0.0677134 0
M  V30 6099 H 573.024 -3.57712 -2.22755 0
M  V30 6100 H 571.748 -2.33568 -2.28284 0
M  V30 6101 H 570.407 -3.61978 -0.580294 0
M  V30 6102 H 570.055 -4.01959 -3.02387 0
M  V30 6103 H 569.755 -5.49734 -2.07524 0
M  V30 6104 H 571.279 -5.32313 -2.99125 0
M  V30 6105 H 572.693 -5.68391 -0.748646 0
M  V30 6106 H 571.09 -6.00095 -0.0237608 0
M  V30 6107 H 572.16 -4.79596 0.715229 0
M  V30 6108 N 573.503 -0.0852151 -1.57369 0
M  V30 6109 C 574.433 0.874556 -2.16503 0
M  V30 6110 C 575.414 1.30111 -1.09568 0
M  V30 6111 O 576.599 1.36977 -1.37662 0
M  V30 6112 C 573.729 2.13731 -2.73745 0
M  V30 6113 C 572.683 1.84971 -3.85966 0
M  V30 6114 C 572.009 3.17991 -4.29867 0
M  V30 6115 C 573.309 1.14442 -5.09608 0
M  V30 6116 H 575.003 0.381899 -2.96954 0
M  V30 6117 H 572.549 0.18225 -1.42842 0
M  V30 6118 H 574.502 2.81302 -3.13763 0
M  V30 6119 H 573.226 2.65263 -1.90534 0
M  V30 6120 H 571.885 1.19801 -3.46473 0
M  V30 6121 H 571.533 3.6739 -3.4356 0
M  V30 6122 H 571.233 2.99534 -5.05523 0
M  V30 6123 H 572.757 3.86737 -4.72511 0
M  V30 6124 H 574.171 1.72105 -5.46857 0
M  V30 6125 H 572.568 1.06197 -5.90629 0
M  V30 6126 H 573.638 0.12559 -4.84737 0
M  V30 6127 N 574.981 1.5647 0.188427 0
M  V30 6128 C 575.944 1.9421 1.21718 0
M  V30 6129 C 576.944 0.823901 1.38089 0
M  V30 6130 O 578.134 1.09122 1.35787 0
M  V30 6131 C 575.266 2.22197 2.58537 0
M  V30 6132 H 576.459 2.86252 0.894418 0
M  V30 6133 H 574.012 1.50263 0.430211 0
M  V30 6134 H 574.747 1.32814 2.95856 0
M  V30 6135 H 574.532 3.03688 2.48025 0
M  V30 6136 H 576.022 2.52376 3.3271 0
M  V30 6137 N 576.459 -0.456382 1.50847 0
M  V30 6138 C 577.87 -1.03685 1.55262 0
M  V30 6139 C 578.221 -1.92779 0.364771 0
M  V30 6140 O 577.346 -2.10043 -0.52068 0
M  V30 6141 C 577.941 -1.88718 2.81374 0
M  V30 6142 C 576.5 -2.41847 2.88422 0
M  V30 6143 C 575.647 -1.20564 2.49719 0
M  V30 6144 H 578.598 -0.238399 1.56899 0
M  V30 6145 H 578.619 -2.73957 2.6406 0
M  V30 6146 H 578.131 -1.23847 3.67809 0
M  V30 6147 H 576.232 -3.10228 2.06372 0
M  V30 6148 H 576.345 -2.75947 3.9165 0
M  V30 6149 H 574.709 -1.54504 2.02486 0
M  V30 6150 H 575.492 -0.573326 3.38479 0
M  V30 6151 N 577.937 -1.40673 -0.710563 0
M  V30 6152 C 579.165 -1.42547 -1.4996 0
M  V30 6153 C 579.58 -0.0265485 -1.88781 0
M  V30 6154 O 578.937 0.950694 -1.55782 0
M  V30 6155 C 578.988 -2.32071 -2.77173 0
M  V30 6156 O 578.709 -3.66518 -2.39992 0
M  V30 6157 C 580.21 -2.42591 -3.71032 0
M  V30 6158 H 577.43 -0.486025 -0.462623 0
M  V30 6159 H 579.974 -1.84783 -0.876102 0
M  V30 6160 H 578.129 -1.93184 -3.35795 0
M  V30 6161 H 578.543 -4.14115 -3.21884 0
M  V30 6162 H 580.017 -3.09429 -4.57119 0
M  V30 6163 H 580.494 -1.4525 -4.14486 0
M  V30 6164 H 581.1 -2.82051 -3.18319 0
M  V30 6165 N 579.415 0.9433 -1.26252 0
M  V30 6166 C 580.362 2.0417 -1.07625 0
M  V30 6167 C 581.332 1.6609 0.0180738 0
M  V30 6168 O 582.517 1.90276 -0.141289 0
M  V30 6169 C 579.657 3.37653 -0.713043 0
M  V30 6170 C 578.77 3.88783 -1.8834 0
M  V30 6171 C 577.905 5.10642 -1.4635 0
M  V30 6172 C 576.944 5.54028 -2.60229 0
M  V30 6173 N 576.081 6.67092 -2.18936 0
M  V30 6174 H 580.921 2.19436 -2.01623 0
M  V30 6175 H 578.458 1.07519 -1.00389 0
M  V30 6176 H 580.416 4.14391 -0.483358 0
M  V30 6177 H 579.046 3.22241 0.18996 0
M  V30 6178 H 578.098 3.08464 -2.22608 0
M  V30 6179 H 579.41 4.16922 -2.73821 0
M  V30 6180 H 578.564 5.94832 -1.19414 0
M  V30 6181 H 577.303 4.84244 -0.579568 0
M  V30 6182 H 576.308 4.68396 -2.87898 0
M  V30 6183 H 577.533 5.82429 -3.49219 0
M  V30 6184 H 575.479 6.42381 -1.32974 0
M  V30 6185 H 575.396 6.94806 -2.97961 0
M  V30 6186 H 576.664 7.54662 -1.95206 0
M  V30 6187 N 580.893 1.08022 1.14757 0
M  V30 6188 C 582.121 0.828847 1.89572 0
M  V30 6189 C 582.536 -0.618621 1.78377 0
M  V30 6190 O 581.893 -1.42482 1.1404 0
M  V30 6191 C 581.944 1.23677 3.39685 0
M  V30 6192 O 581.665 2.62746 3.50566 0
M  V30 6193 C 583.166 1.01569 4.31507 0
M  V30 6194 H 580.386 0.299196 0.600602 0
M  V30 6195 H 582.93 1.43846 1.45357 0
M  V30 6196 H 581.085 0.671347 3.81539 0
M  V30 6197 H 581.499 2.79573 4.43778 0
M  V30 6198 H 582.973 1.35055 5.35223 0
M  V30 6199 H 583.45 -0.0475433 4.39174 0
M  V30 6200 H 584.056 1.56636 3.95405 0
M  V30 6201 N 582.371 -1.3172 0.865308 0
M  V30 6202 C 583.321 -2.26157 0.289305 0
M  V30 6203 C 584.305 -1.50428 -0.570977 0
M  V30 6204 O 585.497 -1.71978 -0.418617 0
M  V30 6205 C 582.626 -3.39457 -0.512237 0
M  V30 6206 C 581.712 -4.22561 0.361028 0
M  V30 6207 N 582.103 -4.84501 1.45231 0
M  V30 6208 C 580.401 -4.45739 0.152641 0
M  V30 6209 C 581.102 -5.46586 1.99043 0
M  V30 6210 N 580.078 -5.28119 1.28809 0
M  V30 6211 H 583.88 -2.71581 1.12344 0
M  V30 6212 H 581.394 -1.45932 0.712565 0
M  V30 6213 H 583.391 -4.06133 -0.941379 0
M  V30 6214 H 582.051 -2.95577 -1.34404 0
M  V30 6215 H 583.062 -4.84293 1.83524 0
M  V30 6216 H 579.739 -4.1251 -0.643583 0
M  V30 6217 H 581.129 -6.05817 2.90577 0
M  V30 6218 N 583.85 -0.624285 -1.44708 0
M  V30 6219 C 585.096 -0.126237 -2.02407 0
M  V30 6220 C 585.428 1.24618 -1.48943 0
M  V30 6221 O 584.704 1.82569 -0.670742 0
M  V30 6222 C 584.986 -0.105449 -3.59946 0
M  V30 6223 C 584.84 -1.50972 -4.23707 0
M  V30 6224 C 586.159 0.573629 -4.36346 0
M  V30 6225 H 583.278 -0.0473472 -0.735478 0
M  V30 6226 H 585.92 -0.799452 -1.72362 0
M  V30 6227 H 584.07 0.46783 -3.85673 0
M  V30 6228 H 585.742 -2.13136 -4.0911 0
M  V30 6229 H 583.985 -2.0656 -3.81465 0
M  V30 6230 H 584.656 -1.44727 -5.32689 0
M  V30 6231 H 587.132 0.0861787 -4.16011 0
M  V30 6232 H 586.008 0.557338 -5.46063 0
M  V30 6233 H 586.269 1.64276 -4.10446 0
M  V30 6234 N 585.328 1.53329 -0.364422 0
M  V30 6235 C 586.238 2.29414 0.490552 0
M  V30 6236 C 587.254 1.35335 1.09363 0
M  V30 6237 O 588.43 1.68391 1.10483 0
M  V30 6238 C 585.495 3.06772 1.61529 0
M  V30 6239 C 584.556 4.16516 1.03986 0
M  V30 6240 C 583.789 4.90176 2.111 0
M  V30 6241 O 584.012 4.63687 3.32191 0
M  V30 6242 O 582.946 5.76134 1.74222 0
M  V30 6243 H 586.772 3.03428 -0.12856 0
M  V30 6244 H 584.357 1.48843 -0.128837 0
M  V30 6245 H 586.239 3.55082 2.26924 0
M  V30 6246 H 584.914 2.35596 2.21983 0
M  V30 6247 H 583.821 3.7246 0.349856 0
M  V30 6248 H 585.154 4.89855 0.4799 0
M  V30 6249 N 586.806 0.0935595 1.57322 0
M  V30 6250 C 588.055 -0.570191 1.93473 0
M  V30 6251 C 588.368 -1.69434 0.977318 0
M  V30 6252 O 589.574 -2.41914 1.23248 0
M  V30 6253 C 588.03 -1.06564 3.43762 0
M  V30 6254 C 587.638 0.0286723 4.47991 0
M  V30 6255 C 589.382 -1.70221 3.88877 0
M  V30 6256 C 587.289 -0.482046 5.89432 0
M  V30 6257 H 586.219 -0.216764 0.72217 0
M  V30 6258 H 588.87 0.169313 1.82717 0
M  V30 6259 H 587.252 -1.85878 3.49664 0
M  V30 6260 H 588.426 0.804106 4.5373 0
M  V30 6261 H 586.741 0.570336 4.12476 0
M  V30 6262 H 589.338 -2.09502 4.91948 0
M  V30 6263 H 589.681 -2.57078 3.27439 0
M  V30 6264 H 590.214 -0.974919 3.85668 0
M  V30 6265 H 586.953 0.349871 6.54566 0
M  V30 6266 H 586.473 -1.22452 5.87167 0
M  V30 6267 H 588.152 -0.951508 6.39965 0
M  V30 6268 O 588.323 -1.61433 -0.0465113 0
M  V30 6269 H 589.014 -1.8177 -0.669292 0
M  V30 END ATOM
M  V30 BEGIN BOND
M  V30 END BOND
M  V30 END CTAB
M  END
$$$$
