drugbank_target|Q12809 Potassium voltage-gated channel subfamily H member 2 (DB00176; DB00199; DB00204; DB00252; DB00276; DB00280; DB00308; DB00342; DB00346; DB00455; DB00457; DB00458; DB00472; DB00477; DB00489; DB00537; DB00557; DB00604; DB00637; DB00661; DB00675; DB00679; DB00908; DB01026; DB01035; DB01074; DB01100; DB01136; DB01142; DB01149; DB01162; DB01182; DB01195; DB01211; DB01218; DB01244; DB04855; DB04957; DB06144; DB06217; DB06457; DB11090; DB11186; DB11386; DB11633; DB11642)
 OpenBabel12092119243D

  0  0  0     0  0            999 V3000
M  V30 BEGIN CTAB
M  V30 COUNTS 17799 18020 0 0 0
M  V30 BEGIN ATOM
M  V30 1 H -0.908 1.98254 -0.117106 0
M  V30 2 N 0 1.576 0 0
M  V30 3 C 0.933 2.03868 1.02534 0
M  V30 4 C 1.911 0.928543 1.3348 0
M  V30 5 O 3.095 1.19667 1.45644 0
M  V30 6 C 0.222 2.43627 2.35294 0
M  V30 7 C -0.732 3.65373 2.2001 0
M  V30 8 S 0.101 5.13292 1.52614 0
M  V30 9 C 1.257 5.56322 2.86805 0
M  V30 10 H 1.49 2.90518 0.631377 0
M  V30 11 H -0.977 1.52953 0.210867 0
M  V30 12 H 0.981 2.67203 3.11629 0
M  V30 13 H -0.358 1.57376 2.7183 0
M  V30 14 H -1.165 3.90944 3.18086 0
M  V30 15 H -1.563 3.418 1.51819 0
M  V30 16 H 0.729 5.58782 3.83104 0
M  V30 17 H 1.672 6.56266 2.65933 0
M  V30 18 H 2.08 4.83886 2.90714 0
M  V30 19 N 1.4781 -0.272755 1.55222 0
M  V30 20 C 2.8891 -0.84378 1.66545 0
M  V30 21 C 3.2401 -1.87035 0.592641 0
M  V30 22 O 2.3651 -2.14761 -0.265818 0
M  V30 23 C 2.9601 -1.53723 3.01918 0
M  V30 24 C 1.5191 -2.05628 3.15268 0
M  V30 25 C 0.6661 -0.898424 2.62343 0
M  V30 26 H 3.6171 -0.0490998 1.58624 0
M  V30 27 H 3.6381 -2.40421 2.94921 0
M  V30 28 H 3.1501 -0.78983 3.79978 0
M  V30 29 H 1.2511 -2.83329 2.41983 0
M  V30 30 H 1.3641 -2.27142 4.21833 0
M  V30 31 H -0.2719 -1.29186 2.19506 0
M  V30 32 H 0.5111 -0.164528 3.42906 0
M  V30 33 N 2.9562 -1.48159 -0.537278 0
M  V30 34 C 4.2022 -1.56035 -1.29541 0
M  V30 35 C 4.5352 -0.230377 -1.92829 0
M  V30 36 O 3.8102 0.762952 -1.78911 0
M  V30 37 C 4.0932 -2.69323 -2.39034 0
M  V30 38 C 3.9462 -4.12002 -1.80485 0
M  V30 39 C 5.2652 -2.78408 -3.40847 0
M  V30 40 H 2.3842 -0.567992 -0.469632 0
M  V30 41 H 5.0262 -1.80302 -0.599277 0
M  V30 42 H 3.1762 -2.48763 -2.98412 0
M  V30 43 H 4.8482 -4.43981 -1.25215 0
M  V30 44 H 3.0912 -4.19344 -1.11055 0
M  V30 45 H 3.7622 -4.87077 -2.59731 0
M  V30 46 H 6.2382 -2.97012 -2.91416 0
M  V30 47 H 5.1142 -3.59416 -4.14863 0
M  V30 48 H 5.3752 -1.86269 -4.00944 0
M  V30 49 N 4.4343 0.785586 -1.36625 0
M  V30 50 C 5.8503 1.08419 -1.17122 0
M  V30 51 C 6.0503 2.015 0.00208491 0
M  V30 52 O 5.1063 2.43551 0.666278 0
M  V30 53 C 6.4193 1.69498 -2.48377 0
M  V30 54 C 7.9673 1.81821 -2.54775 0
M  V30 55 C 8.4423 2.46315 -3.86126 0
M  V30 56 N 9.9333 2.53779 -3.87492 0
M  V30 57 C 10.6683 3.045 -4.85868 0
M  V30 58 N 10.1643 3.55499 -5.94637 0
M  V30 59 N 11.9573 3.03247 -4.73284 0
M  V30 60 H 4.1083 0.167264 -2.1174 0
M  V30 61 H 6.3713 0.13682 -0.938075 0
M  V30 62 H 6.0773 1.08571 -3.34522 0
M  V30 63 H 5.9513 2.6896 -2.64462 0
M  V30 64 H 8.3383 2.41884 -1.69045 0
M  V30 65 H 8.4193 0.811532 -2.42586 0
M  V30 66 H 8.0633 1.86895 -4.72263 0
M  V30 67 H 7.9933 3.47561 -3.95612 0
M  V30 68 H 10.4843 2.17672 -3.08913 0
M  V30 69 H 10.7973 3.92562 -6.65669 0
M  V30 70 H 9.1423 3.5364 -5.98301 0
M  V30 71 H 12.3333 2.62696 -3.87438 0
M  V30 72 H 12.5063 3.42467 -5.50109 0
M  V30 73 N 5.9124 1.20967 1.01018 0
M  V30 74 C 7.3284 0.965905 1.27053 0
M  V30 75 C 7.5284 -0.350785 1.98423 0
M  V30 76 O 6.5844 -1.07773 2.28344 0
M  V30 77 C 7.8974 2.15294 2.09926 0
M  V30 78 C 9.4454 2.19463 2.23171 0
M  V30 79 C 9.9204 3.3767 3.09424 0
M  V30 80 N 11.4114 3.37724 3.17012 0
M  V30 81 C 12.1464 4.25837 3.83993 0
M  V30 82 N 11.6424 5.24138 4.53047 0
M  V30 83 N 13.4354 4.1366 3.80581 0
M  V30 84 H 5.5864 2.0565 0.531194 0
M  V30 85 H 7.8494 0.90024 0.297106 0
M  V30 86 H 7.5554 3.10684 1.64828 0
M  V30 87 H 7.4294 2.13923 3.10672 0
M  V30 88 H 9.8164 1.24632 2.6749 0
M  V30 89 H 9.8974 2.2488 1.21912 0
M  V30 90 H 9.5414 4.32791 2.65808 0
M  V30 91 H 9.4714 3.29491 4.10784 0
M  V30 92 H 11.9624 2.6658 2.6785 0
M  V30 93 H 12.2754 5.87684 5.01844 0
M  V30 94 H 10.6204 5.28068 4.5185 0
M  V30 95 H 13.8114 3.36127 3.25785 0
M  V30 96 H 13.9844 4.82538 4.32505 0
M  V30 97 N 7.3905 -1.2043 1.01659 0
M  V30 98 C 8.6385 -1.89423 0.704522 0
M  V30 99 C 8.9595 -1.79231 -0.768197 0
M  V30 100 O 8.2295 -1.1947 -1.55254 0
M  V30 101 H 6.8095 -0.701178 0.257602 0
M  V30 102 H 9.4715 -1.4626 1.28818 0
M  V30 103 H 8.5675 -2.96052 0.987916 0
M  V30 104 N 8.8686 -0.792821 -1.36206 0
M  V30 105 C 9.8186 -0.166598 -2.27391 0
M  V30 106 C 10.8026 0.651479 -1.47121 0
M  V30 107 O 11.9946 0.510994 -1.69463 0
M  V30 108 C 9.1236 0.695033 -3.36191 0
M  V30 109 C 8.2096 -0.132019 -4.23894 0
M  V30 110 N 8.6006 -1.18822 -4.91645 0
M  V30 111 C 6.8986 0.0885952 -4.45912 0
M  V30 112 C 7.5996 -1.69198 -5.56549 0
M  V30 113 N 6.5756 -1.00065 -5.34311 0
M  V30 114 H 10.3776 -0.974947 -2.77258 0
M  V30 115 H 7.8916 -0.632616 -1.49572 0
M  V30 116 H 9.8886 1.1596 -4.00448 0
M  V30 117 H 8.5486 1.50189 -2.87877 0
M  V30 118 H 9.5596 -1.57069 -4.93507 0
M  V30 119 H 6.2366 0.865688 -4.08426 0
M  V30 120 H 7.6266 -2.57395 -6.20643 0
M  V30 121 N 10.3467 1.47872 -0.545128 0
M  V30 122 C 11.5927 2.02793 -0.0166104 0
M  V30 123 C 11.9257 1.41987 1.32489 0
M  V30 124 O 11.2007 0.571045 1.85928 0
M  V30 125 C 11.4837 3.59989 0.0893294 0
M  V30 126 C 11.3367 4.3125 -1.27841 0
M  V30 127 C 12.6557 4.32606 0.808724 0
M  V30 128 H 9.7747 0.736962 -0.00751035 0
M  V30 129 H 12.4167 1.76433 -0.705085 0
M  V30 130 H 10.5667 3.82579 0.675681 0
M  V30 131 H 12.2387 4.20035 -1.90704 0
M  V30 132 H 10.4817 3.92076 -1.85632 0
M  V30 133 H 11.1527 5.39736 -1.15713 0
M  V30 134 H 13.6287 4.14936 0.310992 0
M  V30 135 H 12.5047 5.42251 0.851782 0
M  V30 136 H 12.7657 4.00963 1.86229 0
M  V30 137 N 11.8248 0.280983 1.55075 0
M  V30 138 C 12.7878 -0.590896 2.21452 0
M  V30 139 C 13.7878 -1.07682 1.19421 0
M  V30 140 O 14.9778 -0.97605 1.44288 0
M  V30 141 C 12.1098 -1.81587 2.88511 0
M  V30 142 H 13.3028 -0.0112554 2.99898 0
M  V30 143 H 10.8558 0.0316438 1.56268 0
M  V30 144 H 11.5908 -2.43587 2.14093 0
M  V30 145 H 11.3758 -1.4753 3.63287 0
M  V30 146 H 12.8658 -2.43575 3.39206 0
M  V30 147 N 13.3029 -1.57598 0.00835791 0
M  V30 148 C 14.7139 -1.7892 -0.53333 0
M  V30 149 C 15.0649 -0.916609 -1.73473 0
M  V30 150 O 14.1899 -0.121336 -2.1606 0
M  V30 151 C 14.7849 -3.24488 -0.974313 0
M  V30 152 C 13.3439 -3.46878 -1.46125 0
M  V30 153 C 12.4909 -2.74157 -0.416302 0
M  V30 154 H 15.4419 -1.56958 0.234495 0
M  V30 155 H 15.4629 -3.3306 -1.83988 0
M  V30 156 H 14.9749 -3.87972 -0.099718 0
M  V30 157 H 13.0759 -2.8862 -2.35646 0
M  V30 158 H 13.1889 -4.55572 -1.48295 0
M  V30 159 H 11.5529 -2.39022 -0.87981 0
M  V30 160 H 12.3359 -3.40345 0.44947 0
M  V30 161 N 14.781 0.264519 -1.55364 0
M  V30 162 C 15.713 1.34965 -1.85248 0
M  V30 163 C 16.726 1.45136 -0.737525 0
M  V30 164 O 17.915 1.46801 -1.01547 0
M  V30 165 C 15.015 2.73008 -2.00797 0
M  V30 166 C 14.188 2.85324 -3.31525 0
M  V30 167 C 13.247 4.04097 -3.37034 0
M  V30 168 O 12.273 3.94455 -4.10358 0
M  V30 169 N 13.475 5.16458 -2.65049 0
M  V30 170 H 16.24 1.09672 -2.78913 0
M  V30 171 H 13.801 0.454635 -1.55386 0
M  V30 172 H 15.793 3.50772 -2.01844 0
M  V30 173 H 14.363 2.91087 -1.1396 0
M  V30 174 H 13.583 1.94377 -3.42945 0
M  V30 175 H 14.871 2.9049 -4.17724 0
M  V30 176 H 14.269 5.27181 -2.05175 0
M  V30 177 H 12.826 5.92422 -2.71809 0
M  V30 178 N 16.2591 1.48442 0.529413 0
M  V30 179 C 17.2071 1.63452 1.65487 0
M  V30 180 C 18.2011 0.500955 1.61823 0
M  V30 181 O 19.4071 0.679695 1.66674 0
M  V30 182 H 15.7821 0.514905 0.548066 0
M  V30 183 H 17.7531 2.57975 1.49971 0
M  V30 184 C 16.5021 1.69196 3.03756 0
M  V30 185 H 15.8251 2.55784 3.07269 0
M  V30 186 H 17.2651 1.83743 3.82119 0
M  V30 187 C 15.7241 0.430765 3.34135 0
M  V30 188 O 16.2541 -0.4561 3.99102 0
M  V30 189 N 14.4601 0.302293 2.89023 0
M  V30 190 H 14.0071 1.02496 2.36331 0
M  V30 191 H 13.9651 -0.540546 3.09718 0
M  V30 192 N 17.7372 -0.778329 1.37039 0
M  V30 193 C 18.9652 -1.56734 1.35063 0
M  V30 194 C 19.3802 -1.88686 -0.0655597 0
M  V30 195 O 18.7372 -1.5096 -1.02554 0
M  V30 196 C 18.7882 -2.88163 2.18276 0
M  V30 197 O 18.5092 -2.57583 3.54376 0
M  V30 198 C 20.0102 -3.82422 2.24206 0
M  V30 199 H 17.2302 -0.485778 0.462883 0
M  V30 200 H 19.7742 -0.965185 1.8029 0
M  V30 201 H 17.9292 -3.44818 1.76576 0
M  V30 202 H 18.3432 -3.41699 3.97922 0
M  V30 203 H 19.8172 -4.71667 2.86765 0
M  V30 204 H 20.2942 -4.21078 1.24861 0
M  V30 205 H 20.9002 -3.31697 2.6619 0
M  V30 206 N 19.2153 -1.21501 -1.00376 0
M  V30 207 C 20.4623 -1.03299 -1.74171 0
M  V30 208 C 20.7903 0.433326 -1.89612 0
M  V30 209 O 20.0453 1.33779 -1.42834 0
M  V30 210 C 20.3443 -1.67673 -3.15627 0
M  V30 211 C 20.0103 -3.17533 -3.2013 0
M  V30 212 C 18.6723 -3.58427 -3.21067 0
M  V30 213 C 21.0243 -4.13504 -3.17275 0
M  V30 214 C 18.3523 -4.93794 -3.16835 0
M  V30 215 C 20.7043 -5.48834 -3.14585 0
M  V30 216 C 19.3683 -5.89123 -3.13831 0
M  V30 217 H 18.6383 -0.377999 -0.637336 0
M  V30 218 H 21.2853 -1.51111 -1.17634 0
M  V30 219 H 19.5903 -1.12158 -3.75404 0
M  V30 220 H 21.2873 -1.51091 -3.71446 0
M  V30 221 H 17.8773 -2.84965 -3.20145 0
M  V30 222 H 22.0613 -3.82936 -3.15711 0
M  V30 223 H 17.3173 -5.24255 -3.1459 0
M  V30 224 H 21.4913 -6.22934 -3.1133 0
M  V30 225 H 19.1183 -6.93984 -3.10307 0
M  V30 226 N 20.6934 1.19889 -1.02296 0
M  V30 227 C 21.6234 2.25141 -0.619174 0
M  V30 228 C 22.6044 1.66051 0.368915 0
M  V30 229 O 23.7894 1.92546 0.252941 0
M  V30 230 C 20.9194 3.4728 0.0368783 0
M  V30 231 C 19.8734 4.19005 -0.872865 0
M  V30 232 C 19.1994 5.34637 -0.0822402 0
M  V30 233 C 20.4994 4.74452 -2.18387 0
M  V30 234 H 22.1934 2.59171 -1.49903 0
M  V30 235 H 19.7394 1.24579 -0.722222 0
M  V30 236 H 21.6924 4.20098 0.330958 0
M  V30 237 H 20.4164 3.12433 0.95149 0
M  V30 238 H 19.0754 3.48061 -1.15105 0
M  V30 239 H 18.7234 4.96034 0.83422 0
M  V30 240 H 18.4234 5.83557 -0.688149 0
M  V30 241 H 19.9474 6.10255 0.205238 0
M  V30 242 H 21.3614 5.39055 -1.95172 0
M  V30 243 H 19.7584 5.33834 -2.74119 0
M  V30 244 H 20.8284 3.92844 -2.84257 0
M  V30 245 N 22.1715 0.800033 1.35784 0
M  V30 246 C 23.4485 0.30088 1.93272 0
M  V30 247 C 23.8285 -1.20857 1.73081 0
M  V30 248 O 23.1765 -2.00502 1.09596 0
M  V30 249 C 23.3865 0.70511 3.41803 0
M  V30 250 C 24.7345 0.690871 4.18942 0
M  V30 251 O 25.7585 0.646244 3.50289 0
M  V30 252 O 24.6175 0.74332 5.41421 0
M  V30 253 H 21.7115 0.0771605 0.823393 0
M  V30 254 H 24.2575 0.88329 1.449 0
M  V30 255 H 23.0295 1.74571 3.50201 0
M  V30 256 H 22.6525 0.0971541 3.97481 0
M  V30 257 N 23.6496 -1.47581 0.552962 0
M  V30 258 C 24.8776 -2.06875 0.0320556 0
M  V30 259 C 25.2926 -1.40625 -1.25976 0
M  V30 260 O 24.6496 -0.501349 -1.75479 0
M  V30 261 C 24.7006 -3.61092 -0.17167 0
M  V30 262 O 24.4216 -4.24858 1.06899 0
M  V30 263 C 25.9226 -4.37242 -0.730344 0
M  V30 264 H 23.1426 -0.669561 0.043915 0
M  V30 265 H 25.6866 -1.89646 0.765163 0
M  V30 266 H 23.8416 -3.7785 -0.854894 0
M  V30 267 H 24.2556 -5.17334 0.864059 0
M  V30 268 H 25.7296 -5.45842 -0.822203 0
M  V30 269 H 26.2066 -4.03235 -1.74064 0
M  V30 270 H 26.8126 -4.25219 -0.0829543 0
M  V30 271 N 25.1277 -0.289203 -1.54924 0
M  V30 272 C 26.3767 0.324231 -1.99077 0
M  V30 273 C 26.6897 1.5591 -1.18117 0
M  V30 274 O 27.8957 2.24637 -1.52481 0
M  V30 275 C 26.3517 0.628209 -3.54375 0
M  V30 276 C 25.9597 -0.587647 -4.44129 0
M  V30 277 C 27.7037 1.20349 -4.07083 0
M  V30 278 C 25.6107 -0.257475 -5.90839 0
M  V30 279 H 24.5407 0.124924 -0.743579 0
M  V30 280 H 27.1917 -0.396063 -1.79175 0
M  V30 281 H 25.5737 1.40778 -3.70132 0
M  V30 282 H 26.7477 -1.36418 -4.40144 0
M  V30 283 H 25.0627 -1.08074 -4.0213 0
M  V30 284 H 27.6597 1.46456 -5.14252 0
M  V30 285 H 28.0027 2.14195 -3.56968 0
M  V30 286 H 28.5357 0.485889 -3.94821 0
M  V30 287 H 25.2747 -1.16419 -6.45079 0
M  V30 288 H 24.7947 0.482018 -5.9786 0
M  V30 289 H 26.4737 0.145238 -6.46837 0
M  V30 290 N 26.6058 1.57591 -0.0167156 0
M  V30 291 C 27.8548 1.90461 0.663877 0
M  V30 292 C 28.1678 0.893515 1.73999 0
M  V30 293 O 29.3738 1.11302 2.47637 0
M  V30 294 C 27.8298 3.38155 1.23204 0
M  V30 295 C 27.4378 4.47597 0.189866 0
M  V30 296 C 29.1818 3.80111 1.88986 0
M  V30 297 C 27.0888 5.86379 0.768964 0
M  V30 298 H 26.0188 0.710738 0.251729 0
M  V30 299 H 28.6698 1.83326 -0.0799926 0
M  V30 300 H 27.0518 3.40182 2.02712 0
M  V30 301 H 28.2258 4.57112 -0.581846 0
M  V30 302 H 26.5408 4.14766 -0.368475 0
M  V30 303 H 29.1378 4.81145 2.33247 0
M  V30 304 H 29.4808 3.14511 2.72743 0
M  V30 305 H 30.0138 3.80454 1.16187 0
M  V30 306 H 26.7528 6.55493 -0.0301957 0
M  V30 307 H 26.2728 5.80496 1.50945 0
M  V30 308 H 27.9518 6.34563 1.26251 0
M  V30 309 N 28.0839 -0.256276 1.55502 0
M  V30 310 C 29.4999 -0.604325 1.47716 0
M  V30 311 C 29.6999 -1.88763 0.705039 0
M  V30 312 O 28.7559 -2.51445 0.230613 0
M  V30 313 C 30.0689 -0.715756 2.92057 0
M  V30 314 C 31.6169 -0.808706 3.02372 0
M  V30 315 C 32.0919 -0.951777 4.48001 0
M  V30 316 N 33.5829 -1.01688 4.519 0
M  V30 317 C 34.3179 -1.14668 5.61817 0
M  V30 318 N 33.8139 -1.24261 6.81565 0
M  V30 319 N 35.6069 -1.1791 5.49594 0
M  V30 320 H 27.7579 0.586291 2.04148 0
M  V30 321 H 30.0209 0.201015 0.926443 0
M  V30 322 H 29.7269 0.157027 3.51349 0
M  V30 323 H 29.6009 -1.59071 3.42018 0
M  V30 324 H 31.9879 -1.67195 2.43166 0
M  V30 325 H 32.0689 0.0912063 2.55637 0
M  V30 326 H 31.7129 -0.0931291 5.07815 0
M  V30 327 H 31.6429 -1.86659 4.92408 0
M  V30 328 H 34.1339 -0.954468 3.65648 0
M  V30 329 H 34.4469 -1.34046 7.61086 0
M  V30 330 H 32.7919 -1.21236 6.84344 0
M  V30 331 H 35.9829 -1.10057 4.54978 0
M  V30 332 H 36.1559 -1.27681 6.35296 0
M  V30 333 N 29.562 -1.4872 -0.521534 0
M  V30 334 C 30.509 -1.63871 -1.62527 0
M  V30 335 C 31.479 -0.480559 -1.58996 0
M  V30 336 O 32.664 -0.705085 -1.77294 0
M  V30 337 C 29.804 -1.69227 -3.00759 0
M  V30 338 C 28.917 -2.96207 -3.14461 0
M  V30 339 C 28.052 -2.92671 -4.43303 0
M  V30 340 C 27.091 -4.14318 -4.50563 0
M  V30 341 N 26.228 -4.0881 -5.70805 0
M  V30 342 H 31.068 -2.58123 -1.48918 0
M  V30 343 H 28.605 -1.28 -0.724878 0
M  V30 344 H 30.563 -1.70314 -3.80853 0
M  V30 345 H 29.193 -0.784586 -3.1312 0
M  V30 346 H 28.245 -3.04826 -2.27564 0
M  V30 347 H 29.557 -3.86192 -3.15686 0
M  V30 348 H 28.711 -2.92206 -5.31696 0
M  V30 349 H 27.45 -2.00429 -4.44612 0
M  V30 350 H 26.455 -4.15049 -3.60575 0
M  V30 351 H 27.68 -5.07729 -4.50986 0
M  V30 352 H 25.626 -3.19394 -5.72995 0
M  V30 353 H 25.543 -4.92509 -5.7356 0
M  V30 354 H 26.811 -4.12418 -6.61462 0
M  V30 355 N 31.0401 0.771051 -1.3745 0
M  V30 356 C 32.2871 1.52963 -1.32697 0
M  V30 357 C 32.6151 1.94299 0.0883274 0
M  V30 358 O 31.8701 1.64397 1.0617 0
M  V30 359 C 32.1691 2.80676 -2.2126 0
M  V30 360 C 31.8351 2.58389 -3.69521 0
M  V30 361 C 30.4971 2.52019 -4.09927 0
M  V30 362 C 32.8491 2.38469 -4.63446 0
M  V30 363 C 30.1771 2.23721 -5.42371 0
M  V30 364 C 32.5291 2.11694 -5.96128 0
M  V30 365 C 31.1931 2.03769 -6.35637 0
M  V30 366 H 30.4631 0.559732 -0.485573 0
M  V30 367 H 33.1101 0.888083 -1.69662 0
M  V30 368 H 31.4151 3.49392 -1.77291 0
M  V30 369 H 33.1121 3.38557 -2.14895 0
M  V30 370 H 29.7021 2.6421 -3.37478 0
M  V30 371 H 33.8861 2.4238 -4.33089 0
M  V30 372 H 29.1421 2.16081 -5.71943 0
M  V30 373 H 33.3161 1.9528 -6.6846 0
M  V30 374 H 30.9431 1.81606 -7.38189 0
M  V30 375 N 32.5182 1.22032 0.997298 0
M  V30 376 C 33.4282 1.00271 2.12092 0
M  V30 377 C 34.4442 -0.047621 1.73935 0
M  V30 378 O 35.6202 0.144136 2.00884 0
M  V30 379 C 32.6852 0.578449 3.4184 0
M  V30 380 C 31.7462 1.70189 3.94125 0
M  V30 381 C 30.9792 1.29778 5.17681 0
M  V30 382 O 31.2022 0.174676 5.70132 0
M  V30 383 O 30.1362 2.11261 5.63607 0
M  V30 384 H 33.9622 1.94398 2.3333 0
M  V30 385 H 31.5472 1.00587 1.10465 0
M  V30 386 H 33.4292 0.351998 4.19927 0
M  V30 387 H 32.1042 -0.334019 3.21972 0
M  V30 388 H 31.0112 1.98282 3.1723 0
M  V30 389 H 32.3442 2.59206 4.18417 0
M  V30 390 N 33.9963 -1.19345 1.0293 0
M  V30 391 C 35.2443 -1.88665 0.724574 0
M  V30 392 C 35.5653 -1.80036 -0.749144 0
M  V30 393 O 34.8353 -1.2111 -1.53978 0
M  V30 394 H 33.4153 -0.698406 0.265025 0
M  V30 395 H 36.0773 -1.44885 1.30362 0
M  V30 396 H 35.1733 -2.94987 1.01926 0
M  V30 397 N 35.4744 -0.807222 -1.35358 0
M  V30 398 C 36.4064 -0.175717 -2.28525 0
M  V30 399 C 37.4194 0.625354 -1.5031 0
M  V30 400 O 38.6084 0.457611 -1.72535 0
M  V30 401 C 35.7084 0.773471 -3.29956 0
M  V30 402 C 34.8814 0.0186296 -4.37396 0
M  V30 403 C 33.9404 0.886395 -5.18681 0
M  V30 404 O 32.9664 0.337106 -5.68201 0
M  V30 405 N 34.1684 2.20839 -5.36852 0
M  V30 406 H 36.9334 -0.976091 -2.83359 0
M  V30 407 H 34.4944 -0.662737 -1.47714 0
M  V30 408 H 36.4864 1.35824 -3.81227 0
M  V30 409 H 35.0564 1.47465 -2.75632 0
M  V30 410 H 34.2764 -0.747349 -3.87051 0
M  V30 411 H 35.5644 -0.501577 -5.06322 0
M  V30 412 H 34.9624 2.67858 -4.98265 0
M  V30 413 H 33.5194 2.74237 -5.91301 0
M  V30 414 N 36.9525 1.47285 -0.560781 0
M  V30 415 C 38.1775 2.07359 -0.0410566 0
M  V30 416 C 38.6025 1.41017 1.24483 0
M  V30 417 O 37.9605 0.486368 1.74654 0
M  V30 418 C 38.0085 3.6035 0.134123 0
M  V30 419 O 37.1125 3.94681 1.19587 0
M  V30 420 H 36.4535 0.661887 -0.0529291 0
M  V30 421 H 38.9835 1.89252 -0.777482 0
M  V30 422 H 38.9935 4.0652 0.347207 0
M  V30 423 H 37.6685 4.08034 -0.805047 0
M  V30 424 H 36.2455 3.60251 0.962987 0
M  V30 425 N 38.4306 0.297415 1.54768 0
M  V30 426 C 39.8466 -0.0560823 1.59501 0
M  V30 427 C 40.0466 -1.52725 1.31444 0
M  V30 428 O 39.1026 -2.27947 1.08611 0
M  V30 429 C 40.4156 0.338631 2.98787 0
M  V30 430 C 41.9636 0.287097 3.11681 0
M  V30 431 C 42.4386 0.656579 4.53269 0
M  V30 432 N 43.9296 0.608977 4.59179 0
M  V30 433 C 44.6646 0.867385 5.66802 0
M  V30 434 N 44.1606 1.19157 6.82476 0
M  V30 435 N 45.9536 0.794687 5.56454 0
M  V30 436 H 38.1046 1.25624 1.71267 0
M  V30 437 H 40.3676 0.509057 0.799728 0
M  V30 438 H 40.0736 1.36263 3.2423 0
M  V30 439 H 39.9476 -0.309508 3.75928 0
M  V30 440 H 42.3346 -0.727649 2.85988 0
M  V30 441 H 42.4156 0.969809 2.36703 0
M  V30 442 H 42.0596 1.66912 4.7969 0
M  V30 443 H 41.9896 -0.0481649 5.26578 0
M  V30 444 H 44.4806 0.369198 3.76092 0
M  V30 445 H 44.7936 1.37482 7.60473 0
M  V30 446 H 43.1386 1.22958 6.84037 0
M  V30 447 H 46.3296 0.541098 4.64962 0
M  V30 448 H 46.5026 0.999445 6.40246 0
M  V30 449 N 39.9087 -1.5758 0.0250728 0
M  V30 450 C 40.8557 -2.09973 -0.958129 0
M  V30 451 C 41.8257 -1.00085 -1.3256 0
M  V30 452 O 43.0107 -1.27481 -1.41962 0
M  V30 453 C 40.1507 -2.62812 -2.2366 0
M  V30 454 C 39.2637 -3.86693 -1.92594 0
M  V30 455 C 38.3987 -4.27941 -3.14707 0
M  V30 456 C 37.4377 -5.44591 -2.79442 0
M  V30 457 N 36.5747 -5.81014 -3.94167 0
M  V30 458 H 41.4147 -2.937 -0.504428 0
M  V30 459 H 38.9517 -1.45172 -0.237392 0
M  V30 460 H 40.9097 -2.91536 -2.98434 0
M  V30 461 H 39.5397 -1.81922 -2.66654 0
M  V30 462 H 38.5917 -3.64723 -1.0808 0
M  V30 463 H 39.9037 -4.71547 -1.62619 0
M  V30 464 H 39.0577 -4.58079 -3.97804 0
M  V30 465 H 37.7967 -3.41845 -3.4784 0
M  V30 466 H 36.8017 -5.1415 -1.94755 0
M  V30 467 H 38.0267 -6.32382 -2.47528 0
M  V30 468 H 35.9727 -4.97874 -4.2715 0
M  V30 469 H 35.8897 -6.60498 -3.67801 0
M  V30 470 H 37.1577 -6.15756 -4.7798 0
M  V30 471 N 41.3868 0.248026 -1.55636 0
M  V30 472 C 42.6338 0.976224 -1.77415 0
M  V30 473 C 42.9618 1.85361 -0.589193 0
M  V30 474 O 42.2168 1.90973 0.427529 0
M  V30 475 C 42.5158 1.86819 -3.04686 0
M  V30 476 C 42.1818 1.14625 -4.36087 0
M  V30 477 C 40.8438 0.946723 -4.71795 0
M  V30 478 C 43.1958 0.634463 -5.17324 0
M  V30 479 C 40.5238 0.223091 -5.86276 0
M  V30 480 C 42.8758 -0.0756959 -6.32555 0
M  V30 481 C 41.5398 -0.286711 -6.66884 0
M  V30 482 H 40.8098 0.357226 -0.649208 0
M  V30 483 H 43.4568 0.246415 -1.89908 0
M  V30 484 H 41.7618 2.66502 -2.872 0
M  V30 485 H 43.4588 2.43329 -3.18735 0
M  V30 486 H 40.0488 1.3117 -4.08035 0
M  V30 487 H 44.2328 0.77616 -4.90193 0
M  V30 488 H 39.4888 0.0491185 -6.1138 0
M  V30 489 H 43.6628 -0.479899 -6.94745 0
M  V30 490 H 41.2898 -0.849389 -7.5544 0
M  V30 491 N 42.8649 1.48995 0.513639 0
M  V30 492 C 44.1139 1.57093 1.2651 0
M  V30 493 C 44.4269 0.257091 1.93903 0
M  V30 494 O 45.6329 0.216478 2.70636 0
M  V30 495 C 44.0889 2.77118 2.29638 0
M  V30 496 C 43.6969 4.15209 1.68241 0
M  V30 497 C 45.4409 2.94538 3.05692 0
M  V30 498 C 43.3479 5.26474 2.69406 0
M  V30 499 H 42.2779 0.584876 0.475854 0
M  V30 500 H 44.9289 1.7536 0.540487 0
M  V30 501 H 43.3109 2.52319 3.05207 0
M  V30 502 H 44.4849 4.50094 0.987505 0
M  V30 503 H 42.7999 4.03042 1.04623 0
M  V30 504 H 45.3969 3.74832 3.8132 0
M  V30 505 H 45.7399 2.04614 3.62545 0
M  V30 506 H 46.2729 3.19316 2.37238 0
M  V30 507 H 43.0119 6.18417 2.17351 0
M  V30 508 H 42.5319 4.96058 3.37175 0
M  V30 509 H 44.2109 5.55277 3.32078 0
M  V30 510 N 44.343 -0.763751 1.37857 0
M  V30 511 C 45.592 -1.51789 1.32827 0
M  V30 512 C 45.905 -1.95426 -0.0823719 0
M  V30 513 O 47.111 -2.70298 -0.255172 0
M  V30 514 C 45.567 -2.74133 2.33193 0
M  V30 515 C 45.175 -2.37562 3.79827 0
M  V30 516 C 46.919 -3.52054 2.37188 0
M  V30 517 C 44.826 -3.56456 4.71904 0
M  V30 518 H 43.756 -0.569896 0.493695 0
M  V30 519 H 46.407 -0.835822 1.63359 0
M  V30 520 H 44.789 -3.4427 1.9569 0
M  V30 521 H 45.963 -1.75157 4.26212 0
M  V30 522 H 44.278 -1.72798 3.78853 0
M  V30 523 H 46.875 -4.40437 3.03182 0
M  V30 524 H 47.218 -3.92486 1.38782 0
M  V30 525 H 47.751 -2.88921 2.7344 0
M  V30 526 H 44.49 -3.21099 5.71468 0
M  V30 527 H 44.01 -4.17938 4.30218 0
M  V30 528 H 45.689 -4.23168 4.89426 0
M  V30 529 N 45.8211 -1.22559 -0.990812 0
M  V30 530 C 46.7841 -0.998863 -2.0629 0
M  V30 531 C 47.7841 0.0354834 -1.60761 0
M  V30 532 O 48.9741 -0.203231 -1.7301 0
M  V30 533 C 46.1061 -0.509203 -3.37076 0
M  V30 534 H 47.2991 -1.95014 -2.27837 0
M  V30 535 H 44.8521 -1.04456 -1.16269 0
M  V30 536 H 45.5871 0.446335 -3.21214 0
M  V30 537 H 45.3721 -1.25547 -3.71457 0
M  V30 538 H 46.8621 -0.370888 -4.1595 0
M  V30 539 N 47.2992 1.18797 -1.03562 0
M  V30 540 C 48.2472 2.24297 -0.615905 0
M  V30 541 C 49.2412 1.65643 0.354808 0
M  V30 542 O 50.4472 1.78618 0.22265 0
M  V30 543 H 46.8222 0.729909 -0.180934 0
M  V30 544 H 48.7932 2.5701 -1.5162 0
M  V30 545 C 47.5422 3.47698 0.0104735 0
M  V30 546 H 46.8652 3.93125 -0.727509 0
M  V30 547 H 48.3052 4.23159 0.266995 0
M  V30 548 C 46.7642 3.12489 1.25905 0
M  V30 549 O 47.2942 3.25761 2.35038 0
M  V30 550 N 45.5002 2.6686 1.15039 0
M  V30 551 H 45.0472 2.56261 0.262328 0
M  V30 552 H 45.0052 2.43674 1.98672 0
M  V30 553 N 48.7773 0.814389 1.34928 0
M  V30 554 C 49.7403 0.235759 2.27984 0
M  V30 555 C 50.7403 -0.581412 1.49921 0
M  V30 556 O 51.9303 -0.398758 1.69575 0
M  V30 557 C 49.0623 -0.670433 3.34242 0
M  V30 558 H 50.2553 1.05659 2.80671 0
M  V30 559 H 47.8083 0.585614 1.44915 0
M  V30 560 H 48.5433 -1.51466 2.86755 0
M  V30 561 H 48.3283 -0.0860822 3.92005 0
M  V30 562 H 49.8183 -1.06935 4.03676 0
M  V30 563 N 50.2554 -1.46986 0.568584 0
M  V30 564 C 51.6714 -1.57946 0.229189 0
M  V30 565 C 51.8714 -1.56567 -1.26843 0
M  V30 566 O 50.9274 -1.47511 -2.04931 0
M  V30 567 C 52.2404 -2.87963 0.865909 0
M  V30 568 C 53.7884 -3.01568 0.838188 0
M  V30 569 C 54.2634 -4.34301 1.45419 0
M  V30 570 N 55.7544 -4.40965 1.41788 0
M  V30 571 C 56.4894 -5.42256 1.86403 0
M  V30 572 N 55.9854 -6.50297 2.38926 0
M  V30 573 N 57.7784 -5.3337 1.77405 0
M  V30 574 H 49.9294 -1.46126 1.54146 0
M  V30 575 H 52.1924 -0.696156 0.643484 0
M  V30 576 H 51.8984 -2.94742 1.91886 0
M  V30 577 H 51.7724 -3.75423 0.365687 0
M  V30 578 H 54.1594 -2.94379 -0.206106 0
M  V30 579 H 54.2404 -2.1562 1.37629 0
M  V30 580 H 53.8844 -4.42247 2.49761 0
M  V30 581 H 53.8144 -5.19 0.891435 0
M  V30 582 H 56.3054 -3.63484 1.03381 0
M  V30 583 H 56.6184 -7.23777 2.70863 0
M  V30 584 H 54.9634 -6.51155 2.42944 0
M  V30 585 H 58.1544 -4.47865 1.3614 0
M  V30 586 H 58.3274 -6.12169 2.12492 0
M  V30 587 N 51.7335 -0.305618 -1.54608 0
M  V30 588 C 52.9795 0.302746 -2.00528 0
M  V30 589 C 53.3125 1.53184 -1.19367 0
M  V30 590 O 52.5875 1.92598 -0.271321 0
M  V30 591 C 52.8705 0.654756 -3.54097 0
M  V30 592 C 52.7235 -0.583793 -4.45995 0
M  V30 593 C 54.0425 1.47947 -4.14487 0
M  V30 594 H 51.1615 0.108564 -0.72896 0
M  V30 595 H 53.8035 -0.418634 -1.85331 0
M  V30 596 H 51.9535 1.26935 -3.67178 0
M  V30 597 H 53.6255 -1.22224 -4.44814 0
M  V30 598 H 51.8685 -1.21615 -4.16404 0
M  V30 599 H 52.5395 -0.293287 -5.5122 0
M  V30 600 H 55.0155 0.96013 -4.04871 0
M  V30 601 H 53.8915 1.69454 -5.22088 0
M  V30 602 H 54.1525 2.47011 -3.66658 0
M  V30 603 N 53.2116 1.57565 -0.0334293 0
M  V30 604 C 54.1216 2.13943 0.962572 0
M  V30 605 C 55.1376 1.09276 1.35406 0
M  V30 606 O 56.3136 1.41355 1.4346 0
M  V30 607 C 53.3786 2.65887 2.22497 0
M  V30 608 C 52.4396 3.85286 1.8935 0
M  V30 609 C 51.6726 4.34743 3.09571 0
M  V30 610 O 51.8956 3.83352 4.22371 0
M  V30 611 O 50.8296 5.26538 2.91618 0
M  V30 612 H 54.6556 2.99333 0.513169 0
M  V30 613 H 52.2406 1.4822 0.18743 0
M  V30 614 H 54.1226 2.99346 2.96598 0
M  V30 615 H 52.7976 1.83578 2.6661 0
M  V30 616 H 51.7046 3.56746 1.1262 0
M  V30 617 H 53.0376 4.68771 1.5005 0
M  V30 618 N 54.6897 -0.239769 1.55765 0
M  V30 619 C 55.6377 -1.31668 1.91745 0
M  V30 620 C 56.6317 -1.49462 0.797338 0
M  V30 621 O 57.8377 -1.50852 0.982021 0
M  V30 622 H 54.2127 -0.441048 0.609082 0
M  V30 623 H 56.1837 -0.985923 2.81642 0
M  V30 624 C 54.9327 -2.66368 2.2348 0
M  V30 625 H 54.2557 -2.53478 3.09175 0
M  V30 626 H 55.6957 -3.40578 2.52553 0
M  V30 627 C 54.1547 -3.20002 1.05359 0
M  V30 628 O 54.6847 -4.00538 0.305261 0
M  V30 629 N 52.8907 -2.78126 0.842292 0
M  V30 630 H 52.4377 -2.12742 1.45253 0
M  V30 631 H 52.3957 -3.14354 0.053652 0
M  V30 632 N 56.1678 -1.49265 -0.50573 0
M  V30 633 C 57.4078 -1.60128 -1.27038 0
M  V30 634 C 57.7718 -0.279557 -1.89954 0
M  V30 635 O 58.9728 -0.263329 -2.67507 0
M  V30 636 C 57.2438 -2.72507 -2.31246 0
M  V30 637 S 58.8028 -3.0329 -3.17113 0
M  V30 638 H 55.6208 -0.564863 -0.4318 0
M  V30 639 H 58.2228 -1.86902 -0.573397 0
M  V30 640 H 56.9268 -3.67068 -1.83546 0
M  V30 641 H 56.4578 -2.4771 -3.05619 0
M  V30 642 H 58.4728 -2.44448 -4.31809 0
M  V30 643 N 57.6459 0.756429 -1.3826 0
M  V30 644 C 58.6089 1.85176 -1.35065 0
M  V30 645 C 59.6089 1.58818 -0.251703 0
M  V30 646 O 60.7989 1.66615 -0.508433 0
M  V30 647 C 57.9309 3.22596 -1.10201 0
M  V30 648 H 59.1239 1.89417 -2.3251 0
M  V30 649 H 56.6769 0.95783 -1.23512 0
M  V30 650 H 57.4119 3.24025 -0.133504 0
M  V30 651 H 57.1969 3.43122 -1.89762 0
M  V30 652 H 58.6869 4.02673 -1.10654 0
M  V30 653 N 59.124 1.23083 0.984299 0
M  V30 654 C 60.37 1.06214 1.72761 0
M  V30 655 C 60.703 -0.400584 1.90024 0
M  V30 656 O 59.978 -1.29672 1.44967 0
M  V30 657 C 60.261 1.78375 3.12817 0
M  V30 658 C 60.114 3.32296 3.03149 0
M  V30 659 C 61.433 1.54309 4.12161 0
M  V30 660 H 58.552 0.387251 0.627061 0
M  V30 661 H 61.194 1.51536 1.14616 0
M  V30 662 H 59.344 1.39848 3.62457 0
M  V30 663 H 61.016 3.8032 2.61064 0
M  V30 664 H 59.259 3.6153 2.39747 0
M  V30 665 H 59.93 3.77972 4.02295 0
M  V30 666 H 62.406 1.87791 3.71314 0
M  V30 667 H 61.282 2.07281 5.08258 0
M  V30 668 H 61.543 0.477572 4.39513 0
M  V30 669 N 60.6021 -1.18246 1.0419 0
M  V30 670 C 61.8511 -1.87588 0.741194 0
M  V30 671 C 62.1641 -1.81303 -0.734066 0
M  V30 672 O 63.3701 -2.46019 -1.14834 0
M  V30 673 C 61.8261 -3.36538 1.27555 0
M  V30 674 C 61.4341 -3.51349 2.77953 0
M  V30 675 C 63.1781 -4.11273 1.05143 0
M  V30 676 C 61.0851 -4.94265 3.2474 0
M  V30 677 H 60.0151 -0.702622 0.273565 0
M  V30 678 H 62.6661 -1.33601 1.25789 0
M  V30 679 H 61.0481 -3.9 0.686703 0
M  V30 680 H 62.2221 -3.08153 3.42605 0
M  V30 681 H 60.5371 -2.90022 2.98791 0
M  V30 682 H 63.1341 -5.16689 1.37611 0
M  V30 683 H 63.4771 -4.16298 -0.0112774 0
M  V30 684 H 64.0101 -3.63987 1.60495 0
M  V30 685 H 60.7491 -4.94408 4.30396 0
M  V30 686 H 60.2691 -5.38172 2.64823 0
M  V30 687 H 61.9481 -5.62987 3.18834 0
M  V30 688 N 62.0802 -0.821533 -1.34494 0
M  V30 689 C 63.3102 -0.421272 -2.02259 0
M  V30 690 C 63.7182 0.977047 -1.6202 0
M  V30 691 O 63.0612 1.64348 -0.820703 0
M  V30 692 C 63.1232 -0.44231 -3.56769 0
M  V30 693 C 62.7872 -1.79372 -4.20327 0
M  V30 694 C 63.7842 -2.75435 -4.40944 0
M  V30 695 C 61.4692 -2.08182 -4.57127 0
M  V30 696 C 63.4632 -3.98482 -4.97484 0
M  V30 697 C 61.1502 -3.31489 -5.13379 0
M  V30 698 C 62.1482 -4.26457 -5.33501 0
M  V30 699 O 61.8362 -5.47585 -5.88562 0
M  V30 700 H 61.5682 -0.167473 -0.654927 0
M  V30 701 H 64.1222 -1.11073 -1.72777 0
M  V30 702 H 62.3522 0.303836 -3.85505 0
M  V30 703 H 64.0412 -0.0622925 -4.05852 0
M  V30 704 H 64.8072 -2.54473 -4.12878 0
M  V30 705 H 60.6862 -1.35066 -4.4077 0
M  V30 706 H 64.2302 -4.72618 -5.13106 0
M  V30 707 H 60.1272 -3.52316 -5.40873 0
M  V30 708 H 60.8952 -5.49086 -6.06998 0
M  V30 709 N 63.5583 1.46682 -0.576371 0
M  V30 710 C 64.7983 2.04306 -0.0621356 0
M  V30 711 C 65.1623 1.4389 1.2712 0
M  V30 712 O 66.3633 1.92675 1.87429 0
M  V30 713 C 64.6343 3.57399 0.00927922 0
M  V30 714 S 66.1933 4.36309 0.466859 0
M  V30 715 H 63.0113 0.710167 -0.0344016 0
M  V30 716 H 65.6133 1.79807 -0.767437 0
M  V30 717 H 64.3173 3.98889 -0.965178 0
M  V30 718 H 63.8483 3.86424 0.737547 0
M  V30 719 H 65.8633 4.6533 1.72287 0
M  V30 720 N 65.0364 0.313813 1.54444 0
M  V30 721 C 65.9844 -0.572171 2.25453 0
M  V30 722 C 66.9784 -1.12657 1.2651 0
M  V30 723 O 68.1844 -1.07573 1.44319 0
M  V30 724 H 64.5594 -0.203146 0.724041 0
M  V30 725 H 66.5304 0.0491145 2.9836 0
M  V30 726 C 65.2794 -1.72626 3.0182 0
M  V30 727 H 64.6024 -1.30891 3.77767 0
M  V30 728 H 66.0424 -2.32199 3.54767 0
M  V30 729 C 64.5014 -2.63806 2.09542 0
M  V30 730 O 65.0314 -3.65256 1.67185 0
M  V30 731 N 63.2374 -2.31824 1.75232 0
M  V30 732 H 62.7844 -1.49368 2.09873 0
M  V30 733 H 62.7424 -2.93095 1.13767 0
M  V30 734 N 66.5145 -1.57545 0.0417849 0
M  V30 735 C 67.7915 -1.83642 -0.673433 0
M  V30 736 C 68.1715 -0.928298 -1.89594 0
M  V30 737 O 67.5195 0.0129955 -2.28496 0
M  V30 738 C 67.7295 -3.33155 -1.03964 0
M  V30 739 C 69.0775 -3.99941 -1.42592 0
M  V30 740 O 70.1015 -3.37725 -1.13226 0
M  V30 741 O 68.9605 -5.09619 -1.9736 0
M  V30 742 H 66.0545 -0.757638 -0.331533 0
M  V30 743 H 68.6005 -1.69554 0.070433 0
M  V30 744 H 67.3725 -3.9093 -0.170098 0
M  V30 745 H 66.9955 -3.52396 -1.84126 0
M  V30 746 N 67.9926 0.231505 -1.5589 0
M  V30 747 C 69.2406 0.955461 -1.78088 0
M  V30 748 C 69.5616 1.85262 -0.608533 0
M  V30 749 O 68.8316 1.92277 0.375035 0
M  V30 750 H 67.4116 0.355787 -0.656829 0
M  V30 751 H 70.0736 0.245751 -1.93344 0
M  V30 752 H 69.1696 1.56814 -2.69844 0
M  V30 753 N 69.4707 1.49531 0.497807 0
M  V30 754 C 70.7177 1.59179 1.25173 0
M  V30 755 C 71.0457 0.279932 1.92475 0
M  V30 756 O 70.3007 -0.732383 1.81479 0
M  V30 757 C 70.5997 2.70252 2.33878 0
M  V30 758 C 70.2657 4.11644 1.84012 0
M  V30 759 C 68.9277 4.50121 1.70132 0
M  V30 760 C 71.2797 5.00121 1.46725 0
M  V30 761 C 68.6077 5.74845 1.17348 0
M  V30 762 C 70.9597 6.25366 0.95392 0
M  V30 763 C 69.6237 6.6267 0.801538 0
M  V30 764 H 68.8937 0.582478 0.45804 0
M  V30 765 H 71.5407 1.83373 0.551948 0
M  V30 766 H 69.8457 2.40041 3.09657 0
M  V30 767 H 71.5427 2.74925 2.9192 0
M  V30 768 H 68.1327 3.81274 1.95775 0
M  V30 769 H 72.3167 4.71048 1.56294 0
M  V30 770 H 67.5727 6.02444 1.04264 0
M  V30 771 H 71.7467 6.93301 0.656225 0
M  V30 772 H 69.3737 7.59197 0.390351 0
M  V30 773 N 70.9488 -0.749086 1.3866 0
M  V30 774 C 72.1888 -1.52112 1.36534 0
M  V30 775 C 72.5528 -1.91951 -0.0432316 0
M  V30 776 O 73.7538 -2.68132 -0.189396 0
M  V30 777 C 72.0248 -2.73704 2.29828 0
M  V30 778 S 73.5838 -3.63519 2.45763 0
M  V30 779 H 70.4018 -0.520482 0.484375 0
M  V30 780 H 73.0038 -0.878963 1.74627 0
M  V30 781 H 71.7078 -2.42552 3.31054 0
M  V30 782 H 71.2388 -3.4286 1.929 0
M  V30 783 H 73.2538 -4.66712 1.68505 0
M  V30 784 N 72.4269 -1.23603 -0.977757 0
M  V30 785 C 73.3369 -1.03632 -2.1047 0
M  V30 786 C 74.3529 0.0199435 -1.73989 0
M  V30 787 O 75.5289 -0.176076 -2.00629 0
M  V30 788 C 72.5939 -0.63276 -3.40877 0
M  V30 789 C 71.6549 -1.76437 -3.91367 0
M  V30 790 C 70.8879 -1.37997 -5.15551 0
M  V30 791 O 71.1109 -0.265357 -5.69782 0
M  V30 792 O 70.0449 -2.20201 -5.60174 0
M  V30 793 H 73.8709 -1.98086 -2.30208 0
M  V30 794 H 71.4559 -1.02332 -1.08851 0
M  V30 795 H 73.3379 -0.418761 -4.19314 0
M  V30 796 H 72.0129 0.282754 -3.22463 0
M  V30 797 H 70.9199 -2.03304 -3.14036 0
M  V30 798 H 72.2529 -2.6583 -4.14241 0
M  V30 799 N 73.905 1.17692 -1.04816 0
M  V30 800 C 74.835 2.23777 -0.666791 0
M  V30 801 C 75.816 1.66796 0.33361 0
M  V30 802 O 77.001 1.93039 0.212042 0
M  V30 803 C 74.131 3.47281 -0.0367933 0
M  V30 804 C 73.085 4.17059 -0.961546 0
M  V30 805 C 72.411 5.34342 -0.195626 0
M  V30 806 C 73.711 4.69713 -2.28402 0
M  V30 807 H 75.405 2.55933 -1.55367 0
M  V30 808 H 72.951 1.23019 -0.748484 0
M  V30 809 H 74.904 4.20706 0.241775 0
M  V30 810 H 73.628 3.14381 0.885004 0
M  V30 811 H 72.287 3.45541 -1.22462 0
M  V30 812 H 71.935 4.97692 0.728816 0
M  V30 813 H 71.635 5.81966 -0.811775 0
M  V30 814 H 73.159 6.10553 0.0757473 0
M  V30 815 H 74.573 5.34794 -2.06563 0
M  V30 816 H 72.97 5.279 -2.8538 0
M  V30 817 H 74.04 3.86726 -2.92525 0
M  V30 818 N 75.3831 0.828654 1.34056 0
M  V30 819 C 76.6231 0.425394 1.99924 0
M  V30 820 C 76.9871 -0.994294 1.64249 0
M  V30 821 O 78.1881 -1.50074 2.23005 0
M  V30 822 C 76.4591 0.628071 3.51838 0
M  V30 823 S 78.0181 0.318511 4.37642 0
M  V30 824 H 74.8361 0.160465 0.692656 0
M  V30 825 H 77.4381 1.07572 1.63244 0
M  V30 826 H 76.1421 1.66089 3.7529 0
M  V30 827 H 75.6731 -0.0367799 3.93383 0
M  V30 828 H 77.6881 -0.865632 4.88591 0
M  V30 829 N 76.8612 -1.46375 0.584142 0
M  V30 830 C 78.1092 -2.01978 0.0701287 0
M  V30 831 C 78.4302 -1.4579 -1.295 0
M  V30 832 O 77.7002 -0.64314 -1.85042 0
M  V30 833 H 76.2802 -0.746648 0.0229345 0
M  V30 834 H 78.9422 -1.79461 0.760245 0
M  V30 835 H 78.0382 -3.121 0.0022064 0
M  V30 836 N 78.3393 -0.321999 -1.54275 0
M  V30 837 C 79.5693 0.282642 -2.04658 0
M  V30 838 C 79.9773 1.46453 -1.19784 0
M  V30 839 O 79.3203 1.82367 -0.220932 0
M  V30 840 C 79.3823 0.781857 -3.50895 0
M  V30 841 C 79.0463 -0.277517 -4.56157 0
M  V30 842 C 80.0433 -1.11307 -5.07845 0
M  V30 843 C 77.7283 -0.425256 -5.00497 0
M  V30 844 C 79.7223 -2.08211 -6.02434 0
M  V30 845 C 77.4093 -1.39771 -5.94901 0
M  V30 846 C 78.4073 -2.2246 -6.45756 0
M  V30 847 O 78.0953 -3.18054 -7.38307 0
M  V30 848 H 77.8273 0.0622636 -0.673126 0
M  V30 849 H 80.3813 -0.465792 -2.00049 0
M  V30 850 H 78.6113 1.58118 -3.52896 0
M  V30 851 H 80.3003 1.30467 -3.84361 0
M  V30 852 H 81.0663 -1.00991 -4.74369 0
M  V30 853 H 76.9453 0.20847 -4.60528 0
M  V30 854 H 80.4893 -2.72791 -6.42052 0
M  V30 855 H 76.3863 -1.50152 -6.27794 0
M  V30 856 H 77.1543 -3.13275 -7.56175 0
M  V30 857 N 79.8174 1.5752 -0.0501392 0
M  V30 858 C 81.0424 1.97376 0.636997 0
M  V30 859 C 81.4674 0.927466 1.63645 0
M  V30 860 O 80.8254 -0.10941 1.8097 0
M  V30 861 C 80.8734 3.36304 1.30123 0
M  V30 862 O 79.9774 3.34156 2.41689 0
M  V30 863 H 79.3184 0.642998 0.165679 0
M  V30 864 H 81.8484 2.04258 -0.118233 0
M  V30 865 H 81.8584 3.73008 1.65315 0
M  V30 866 H 80.5334 4.11993 0.568746 0
M  V30 867 H 79.1104 3.09196 2.08451 0
M  V30 868 N 81.2955 -0.223234 1.56011 0
M  V30 869 C 82.7115 -0.572856 1.48965 0
M  V30 870 C 82.9115 -1.87225 0.74492 0
M  V30 871 O 81.9675 -2.50899 0.283896 0
M  V30 872 C 83.2805 -0.653646 2.9351 0
M  V30 873 C 84.8285 -0.744386 3.0402 0
M  V30 874 C 85.3035 -0.856535 4.49919 0
M  V30 875 N 86.7945 -0.9208 4.53955 0
M  V30 876 C 87.5295 -1.02726 5.64123 0
M  V30 877 N 87.0255 -1.09777 6.84047 0
M  V30 878 N 88.8185 -1.06226 5.51971 0
M  V30 879 H 80.9695 0.629462 2.02858 0
M  V30 880 H 83.2325 0.220621 0.921971 0
M  V30 881 H 82.9385 0.231518 3.50937 0
M  V30 882 H 82.8125 -1.51781 3.45315 0
M  V30 883 H 85.1995 -1.61999 2.46658 0
M  V30 884 H 85.2805 0.14541 2.55386 0
M  V30 885 H 84.9245 0.0146069 5.07898 0
M  V30 886 H 84.8545 -1.76172 4.96257 0
M  V30 887 H 87.3455 -0.876694 3.6759 0
M  V30 888 H 87.6585 -1.17872 7.63758 0
M  V30 889 H 86.0035 -1.06693 6.86762 0
M  V30 890 H 89.1945 -1.00382 4.5721 0
M  V30 891 H 89.3675 -1.14177 6.37862 0
M  V30 892 N 82.7736 -1.49793 -0.48987 0
M  V30 893 C 83.7366 -1.66752 -1.57246 0
M  V30 894 C 84.7366 -0.538867 -1.51502 0
M  V30 895 O 85.9266 -0.805545 -1.54456 0
M  V30 896 C 83.0586 -1.67528 -2.96896 0
M  V30 897 H 84.2516 -2.63321 -1.43534 0
M  V30 898 H 81.8046 -1.38992 -0.714914 0
M  V30 899 H 82.5396 -0.725837 -3.16073 0
M  V30 900 H 82.3246 -2.49504 -3.02473 0
M  V30 901 H 83.8146 -1.82667 -3.7553 0
M  V30 902 N 84.2517 0.741722 -1.39055 0
M  V30 903 C 85.1617 1.88621 -1.39496 0
M  V30 904 C 86.1777 1.71557 -0.290578 0
M  V30 905 O 87.3537 1.94275 -0.530954 0
M  V30 906 C 84.4187 3.24134 -1.23037 0
M  V30 907 C 83.4797 3.5364 -2.43387 0
M  V30 908 C 82.7127 4.82687 -2.27703 0
M  V30 909 O 82.9357 5.55922 -1.27696 0
M  V30 910 O 81.8697 5.1194 -3.16545 0
M  V30 911 H 85.6957 1.91203 -2.35956 0
M  V30 912 H 83.2807 0.888625 -1.20099 0
M  V30 913 H 85.1627 4.0513 -1.15964 0
M  V30 914 H 83.8377 3.22337 -0.296691 0
M  V30 915 H 82.7447 2.72758 -2.56035 0
M  V30 916 H 84.0777 3.60209 -3.35425 0
M  V30 917 N 85.7298 1.2412 0.971189 0
M  V30 918 C 86.9758 1.08041 1.71625 0
M  V30 919 C 87.3088 -0.380407 1.90438 0
M  V30 920 O 86.5838 -1.28127 1.46334 0
M  V30 921 C 86.8668 1.81682 3.10908 0
M  V30 922 C 86.7198 3.35493 2.99608 0
M  V30 923 C 88.0388 1.58671 4.10501 0
M  V30 924 H 85.1578 0.39388 0.622919 0
M  V30 925 H 87.7998 1.52743 1.13003 0
M  V30 926 H 85.9498 1.43684 3.60953 0
M  V30 927 H 87.6218 3.83068 2.57015 0
M  V30 928 H 85.8648 3.64052 2.35899 0
M  V30 929 H 86.5358 3.82217 3.98264 0
M  V30 930 H 89.0118 1.91719 3.69301 0
M  V30 931 H 87.8878 2.1266 5.06031 0
M  V30 932 H 88.1488 0.524161 4.38982 0
M  V30 933 N 87.2079 -1.17134 1.05439 0
M  V30 934 C 88.1409 -2.2012 0.601855 0
M  V30 935 C 89.1189 -1.58314 -0.370854 0
M  V30 936 O 90.3029 -1.8638 -0.281882 0
M  V30 937 C 87.4299 -3.38491 -0.118868 0
M  V30 938 C 86.4759 -4.18752 0.809242 0
M  V30 939 S 87.3089 -4.83602 2.29977 0
M  V30 940 C 88.4649 -6.0536 1.59029 0
M  V30 941 H 88.6979 -2.58165 1.47438 0
M  V30 942 H 86.2309 -1.27788 0.866573 0
M  V30 943 H 88.1889 -4.07084 -0.528495 0
M  V30 944 H 86.8499 -2.98829 -0.967465 0
M  V30 945 H 86.0429 -5.03373 0.251379 0
M  V30 946 H 85.6449 -3.5561 1.15835 0
M  V30 947 H 87.9369 -6.71615 0.891017 0
M  V30 948 H 88.8799 -6.65679 2.41407 0
M  V30 949 H 89.2879 -5.54138 1.07663 0
M  V30 950 N 88.686 -0.835752 -1.33615 0
M  V30 951 C 89.618 -0.224151 -2.28101 0
M  V30 952 C 90.631 0.593331 -1.51603 0
M  V30 953 O 91.82 0.420911 -1.73466 0
M  V30 954 C 88.92 0.703309 -3.31522 0
M  V30 955 C 88.093 -0.0741528 -4.37337 0
M  V30 956 C 87.152 0.776176 -5.20444 0
M  V30 957 O 86.178 0.216506 -5.68788 0
M  V30 958 N 87.38 2.09401 -5.41416 0
M  V30 959 H 90.145 -1.03598 -2.81225 0
M  V30 960 H 87.706 -0.69392 -1.46275 0
M  V30 961 H 89.698 1.27707 -3.84022 0
M  V30 962 H 88.268 1.41585 -2.78698 0
M  V30 963 H 87.488 -0.82928 -3.85378 0
M  V30 964 H 88.776 -0.608863 -5.05144 0
M  V30 965 H 88.174 2.57229 -5.03835 0
M  V30 966 H 86.731 2.61633 -5.96985 0
M  V30 967 N 90.1641 1.46063 -0.591896 0
M  V30 968 C 91.5801 1.57561 -0.254288 0
M  V30 969 C 91.7801 1.58565 1.24336 0
M  V30 970 O 90.8361 1.50753 2.02558 0
M  V30 971 C 92.1491 2.86549 -0.911611 0
M  V30 972 C 93.6971 3.00197 -0.886059 0
M  V30 973 C 94.1721 4.31933 -1.5231 0
M  V30 974 N 95.6631 4.38654 -1.48786 0
M  V30 975 C 96.3981 5.39222 -1.95006 0
M  V30 976 N 95.8941 6.46414 -2.49241 0
M  V30 977 N 97.6871 5.3048 -1.85868 0
M  V30 978 H 89.8381 1.43655 -1.56451 0
M  V30 979 H 92.1011 0.68583 -0.654478 0
M  V30 980 H 91.8071 2.91651 -1.96551 0
M  V30 981 H 91.6811 3.74794 -0.425368 0
M  V30 982 H 94.0681 2.9467 0.159246 0
M  V30 983 H 94.1491 2.13403 -1.41041 0
M  V30 984 H 93.7931 4.38217 -2.56765 0
M  V30 985 H 93.7231 5.17516 -0.973891 0
M  V30 986 H 96.2141 3.61793 -1.09151 0
M  V30 987 H 96.5271 7.19376 -2.82344 0
M  V30 988 H 94.8721 6.47208 -2.53272 0
M  V30 989 H 98.0631 4.45643 -1.43248 0
M  V30 990 H 98.2361 6.08711 -2.22204 0
M  V30 991 N 91.6422 0.330177 1.54103 0
M  V30 992 C 93.0532 -0.15652 1.86043 0
M  V30 993 C 93.4042 -1.51086 1.2517 0
M  V30 994 O 92.5292 -2.09023 0.560217 0
M  V30 995 C 93.1242 -0.290784 3.3755 0
M  V30 996 C 91.6832 -0.721705 3.69416 0
M  V30 997 C 90.8302 0.152622 2.7688 0
M  V30 998 H 93.7812 0.550237 1.48856 0
M  V30 999 H 93.8022 -1.12058 3.63625 0
M  V30 1000 H 93.3142 0.695068 3.81825 0
M  V30 1001 H 91.4152 -1.71706 3.30678 0
M  V30 1002 H 91.5282 -0.520869 4.7626 0
M  V30 1003 H 89.8922 -0.372894 2.51956 0
M  V30 1004 H 90.6752 1.13536 3.23982 0
M  V30 1005 N 93.1203 -1.57491 0.0584922 0
M  V30 1006 C 94.3603 -1.94851 -0.617458 0
M  V30 1007 C 94.7243 -0.937165 -1.67575 0
M  V30 1008 O 95.9253 -1.19795 -2.40629 0
M  V30 1009 C 94.1963 -3.36955 -1.19147 0
M  V30 1010 S 95.7553 -3.96277 -1.8844 0
M  V30 1011 H 92.5733 -0.681539 -0.202547 0
M  V30 1012 H 95.1753 -1.95073 0.129176 0
M  V30 1013 H 93.8793 -4.08355 -0.409215 0
M  V30 1014 H 93.4103 -3.40245 -1.97476 0
M  V30 1015 H 95.4253 -3.82099 -3.16568 0
M  V30 1016 N 94.5984 0.214957 -1.56127 0
M  V30 1017 C 95.8264 0.955092 -1.83536 0
M  V30 1018 C 96.2414 1.77677 -0.638472 0
M  V30 1019 O 95.5984 1.78219 0.392968 0
M  V30 1020 C 95.6494 1.86734 -3.09536 0
M  V30 1021 O 95.3704 1.07887 -4.24608 0
M  V30 1022 C 96.8714 2.72082 -3.4998 0
M  V30 1023 H 94.0914 0.279611 -0.609966 0
M  V30 1024 H 96.6354 0.228197 -2.03223 0
M  V30 1025 H 94.7904 2.5481 -2.91806 0
M  V30 1026 H 95.2044 1.69872 -4.9623 0
M  V30 1027 H 96.6784 3.31782 -4.41163 0
M  V30 1028 H 97.1554 3.44806 -2.7204 0
M  V30 1029 H 97.7614 2.09409 -3.70173 0
M  V30 1030 N 96.0765 1.50051 0.48192 0
M  V30 1031 C 97.3165 1.62128 1.24474 0
M  V30 1032 C 97.6805 0.309742 1.89485 0
M  V30 1033 O 98.8815 0.305854 2.67054 0
M  V30 1034 C 97.1525 2.76151 2.26882 0
M  V30 1035 S 98.7115 3.08297 3.12247 0
M  V30 1036 H 95.5295 0.571661 0.422759 0
M  V30 1037 H 98.1315 1.87791 0.54359 0
M  V30 1038 H 96.8355 3.69942 1.77683 0
M  V30 1039 H 96.3665 2.52541 3.0164 0
M  V30 1040 H 98.3815 2.51287 4.27866 0
M  V30 1041 N 97.5546 -0.734337 1.39446 0
M  V30 1042 C 98.8316 -1.48579 1.27215 0
M  V30 1043 C 99.2116 -2.1077 -0.117968 0
M  V30 1044 O 98.5596 -1.98646 -1.12924 0
M  V30 1045 C 98.7696 -2.53667 2.39696 0
M  V30 1046 C 100.118 -3.20031 2.79044 0
M  V30 1047 O 101.142 -2.6398 2.39151 0
M  V30 1048 O 100.001 -4.21455 3.47905 0
M  V30 1049 H 97.0946 -0.659816 0.49857 0
M  V30 1050 H 99.6406 -0.768106 1.51322 0
M  V30 1051 H 98.4126 -2.06096 3.32626 0
M  V30 1052 H 98.0356 -3.32994 2.17258 0
M  V30 1053 N 99.0327 -1.24633 -0.964593 0
M  V30 1054 C 100.28 -1.08788 -1.70796 0
M  V30 1055 C 100.608 0.372783 -1.90894 0
M  V30 1056 O 99.8627 1.29167 -1.47018 0
M  V30 1057 C 100.162 -1.7763 -3.10133 0
M  V30 1058 C 99.8277 -3.27557 -3.09866 0
M  V30 1059 C 98.4897 -3.6846 -3.09501 0
M  V30 1060 C 100.842 -4.23389 -3.03959 0
M  V30 1061 C 98.1697 -5.03624 -3.00965 0
M  V30 1062 C 100.522 -5.58565 -2.96965 0
M  V30 1063 C 99.1857 -5.98809 -2.9493 0
M  V30 1064 H 98.4557 -0.398084 -0.624988 0
M  V30 1065 H 101.103 -1.54777 -1.12767 0
M  V30 1066 H 99.4077 -1.24044 -3.71645 0
M  V30 1067 H 101.105 -1.62832 -3.66451 0
M  V30 1068 H 97.6947 -2.95006 -3.10917 0
M  V30 1069 H 101.879 -3.92787 -3.03368 0
M  V30 1070 H 97.1347 -5.33998 -2.97752 0
M  V30 1071 H 101.309 -6.32523 -2.91354 0
M  V30 1072 H 98.9357 -7.03505 -2.88071 0
M  V30 1073 N 100.511 1.16574 -1.06058 0
M  V30 1074 C 101.441 2.23057 -0.690488 0
M  V30 1075 C 102.422 1.67141 0.315901 0
M  V30 1076 O 103.607 1.93253 0.191556 0
M  V30 1077 C 100.737 3.47222 -0.073625 0
M  V30 1078 C 99.6908 4.16016 -1.00573 0
M  V30 1079 C 99.0168 5.34104 -0.252289 0
M  V30 1080 C 100.317 4.67264 -2.33371 0
M  V30 1081 H 102.011 2.54271 -1.58072 0
M  V30 1082 H 99.5568 1.22218 -0.76149 0
M  V30 1083 H 101.51 4.20939 0.19714 0
M  V30 1084 H 100.234 3.15302 0.85161 0
M  V30 1085 H 98.8928 3.44223 -1.2612 0
M  V30 1086 H 98.5408 4.98437 0.675988 0
M  V30 1087 H 98.2408 5.81072 -0.873455 0
M  V30 1088 H 99.7648 6.10599 0.0109857 0
M  V30 1089 H 101.179 5.32573 -2.12223 0
M  V30 1090 H 99.5758 5.24843 -2.90963 0
M  V30 1091 H 100.646 3.83602 -2.96611 0
M  V30 1092 N 101.989 0.842826 1.3317 0
M  V30 1093 C 102.939 0.250877 2.26616 0
M  V30 1094 C 103.923 -0.596427 1.49437 0
M  V30 1095 O 105.115 -0.447747 1.71243 0
M  V30 1096 C 102.244 -0.569779 3.38539 0
M  V30 1097 C 101.33 0.289254 4.23112 0
M  V30 1098 N 101.721 1.36987 4.86897 0
M  V30 1099 C 100.019 0.0769631 4.45934 0
M  V30 1100 C 100.72 1.89737 5.49886 0
M  V30 1101 N 99.6959 1.19827 5.30229 0
M  V30 1102 H 103.498 1.07718 2.73448 0
M  V30 1103 H 101.012 0.687693 1.47121 0
M  V30 1104 H 103.009 -1.01018 4.04476 0
M  V30 1105 H 101.669 -1.39401 2.93253 0
M  V30 1106 H 102.68 1.75277 4.87338 0
M  V30 1107 H 99.3569 -0.713507 4.11358 0
M  V30 1108 H 100.747 2.80253 6.10662 0
M  V30 1109 N 103.467 -1.45747 0.599634 0
M  V30 1110 C 104.715 -2.01893 0.0915472 0
M  V30 1111 C 105.036 -1.47155 -1.27946 0
M  V30 1112 O 104.306 -0.66273 -1.84349 0
M  V30 1113 H 102.886 -0.746363 0.0308524 0
M  V30 1114 H 105.548 -1.78645 0.779237 0
M  V30 1115 H 104.644 -3.1208 0.0353086 0
M  V30 1116 N 104.945 -0.338344 -1.53925 0
M  V30 1117 C 106.356 0.146651 -1.86123 0
M  V30 1118 C 106.707 1.5042 -1.2597 0
M  V30 1119 O 105.832 2.08723 -0.571294 0
M  V30 1120 C 106.427 0.272879 -3.37699 0
M  V30 1121 C 104.986 0.702103 -3.69794 0
M  V30 1122 C 104.133 -0.167304 -2.76795 0
M  V30 1123 H 107.084 -0.558123 -1.48562 0
M  V30 1124 H 107.105 1.10128 -3.64214 0
M  V30 1125 H 106.617 -0.715307 -3.81451 0
M  V30 1126 H 104.718 1.6995 -3.31584 0
M  V30 1127 H 104.831 0.495604 -4.7653 0
M  V30 1128 H 103.195 0.359527 -2.5215 0
M  V30 1129 H 103.978 -1.15253 -3.23375 0
M  V30 1130 N 106.423 1.57458 -0.0668435 0
M  V30 1131 C 107.839 1.56947 0.289772 0
M  V30 1132 C 108.039 1.07584 1.70376 0
M  V30 1133 O 107.095 0.739486 2.41429 0
M  V30 1134 C 108.408 3.0052 0.103943 0
M  V30 1135 C 109.956 3.12517 0.173857 0
M  V30 1136 C 110.431 4.57997 0.0163682 0
M  V30 1137 N 111.922 4.63144 0.0721352 0
M  V30 1138 C 112.657 5.73394 -0.0253794 0
M  V30 1139 N 112.153 6.92576 -0.176133 0
M  V30 1140 N 113.946 5.62091 0.0313305 0
M  V30 1141 H 106.097 1.87863 -0.991027 0
M  V30 1142 H 108.36 0.86583 -0.38606 0
M  V30 1143 H 108.066 3.40729 -0.871572 0
M  V30 1144 H 107.94 3.67304 0.858366 0
M  V30 1145 H 110.327 2.72197 1.13985 0
M  V30 1146 H 110.408 2.48381 -0.611586 0
M  V30 1147 H 110.052 4.99005 -0.946374 0
M  V30 1148 H 109.982 5.20158 0.821153 0
M  V30 1149 H 112.473 3.77436 0.187263 0
M  V30 1150 H 112.786 7.72418 -0.242821 0
M  V30 1151 H 111.131 6.94678 -0.211429 0
M  V30 1152 H 114.322 4.67867 0.147773 0
M  V30 1153 H 114.495 6.47982 -0.048121 0
M  V30 1154 N 107.901 -0.206675 1.56239 0
M  V30 1155 C 109.129 -0.945345 1.8404 0
M  V30 1156 C 109.544 -1.77336 0.647885 0
M  V30 1157 O 108.901 -1.78425 -0.383511 0
M  V30 1158 C 108.952 -1.8509 3.10522 0
M  V30 1159 O 108.673 -1.05634 4.25174 0
M  V30 1160 C 110.174 -2.70222 3.51418 0
M  V30 1161 H 107.394 -0.276372 0.61144 0
M  V30 1162 H 109.938 -0.217417 2.03341 0
M  V30 1163 H 108.093 -2.53259 2.93153 0
M  V30 1164 H 108.507 -1.67238 4.97124 0
M  V30 1165 H 109.981 -3.29438 4.42916 0
M  V30 1166 H 110.458 -3.43358 2.73864 0
M  V30 1167 H 111.064 -2.07443 3.71278 0
M  V30 1168 N 109.379 -1.50304 -0.473955 0
M  V30 1169 C 110.311 -1.65109 -1.58971 0
M  V30 1170 C 111.324 -0.532676 -1.53839 0
M  V30 1171 O 112.513 -0.805751 -1.59279 0
M  V30 1172 C 109.613 -1.61684 -2.97845 0
M  V30 1173 C 108.786 -2.8951 -3.27876 0
M  V30 1174 C 107.845 -2.78768 -4.4629 0
M  V30 1175 O 106.871 -3.52722 -4.46739 0
M  V30 1176 N 108.073 -1.9213 -5.47783 0
M  V30 1177 H 110.838 -2.61347 -1.46689 0
M  V30 1178 H 108.399 -1.47732 -0.662324 0
M  V30 1179 H 110.391 -1.52114 -3.75024 0
M  V30 1180 H 108.961 -0.731925 -3.03911 0
M  V30 1181 H 108.181 -3.13228 -2.39336 0
M  V30 1182 H 109.469 -3.74199 -3.4475 0
M  V30 1183 H 108.867 -1.31353 -5.50239 0
M  V30 1184 H 107.424 -1.88466 -6.23958 0
M  V30 1185 N 110.857 0.726932 -1.39834 0
M  V30 1186 C 112.273 1.03354 -1.21615 0
M  V30 1187 C 112.473 2.01327 -0.08338 0
M  V30 1188 O 111.529 2.46158 0.56238 0
M  V30 1189 C 112.842 1.58811 -2.55342 0
M  V30 1190 C 114.39 1.70851 -2.62257 0
M  V30 1191 C 114.865 2.29716 -3.96225 0
M  V30 1192 N 116.356 2.37116 -3.97907 0
M  V30 1193 C 117.091 2.83619 -4.98345 0
M  V30 1194 N 116.587 3.29958 -6.09179 0
M  V30 1195 N 118.38 2.82901 -4.8572 0
M  V30 1196 H 110.531 0.0773069 -2.12259 0
M  V30 1197 H 112.794 0.0969102 -0.943034 0
M  V30 1198 H 112.5 0.942855 -3.38826 0
M  V30 1199 H 112.374 2.57502 -2.75632 0
M  V30 1200 H 114.761 2.34497 -1.79152 0
M  V30 1201 H 114.842 0.707913 -2.45809 0
M  V30 1202 H 114.486 1.66696 -4.79765 0
M  V30 1203 H 114.416 3.30469 -4.09997 0
M  V30 1204 H 116.907 2.04374 -3.17868 0
M  V30 1205 H 117.22 3.63976 -6.8172 0
M  V30 1206 H 115.565 3.27946 -6.12761 0
M  V30 1207 H 118.756 2.46027 -3.98231 0
M  V30 1208 H 118.929 3.18827 -5.6414 0
M  V30 1209 N 112.336 1.25143 0.95797 0
M  V30 1210 C 113.752 1.01892 1.22842 0
M  V30 1211 C 113.952 -0.266311 1.99732 0
M  V30 1212 O 113.008 -0.979913 2.3271 0
M  V30 1213 C 114.321 2.24004 2.00606 0
M  V30 1214 C 115.869 2.28731 2.13662 0
M  V30 1215 C 116.344 3.5049 2.94823 0
M  V30 1216 N 117.835 3.50866 3.02403 0
M  V30 1217 C 118.57 4.4174 3.65586 0
M  V30 1218 N 118.066 5.42882 4.30408 0
M  V30 1219 N 119.859 4.29429 3.62694 0
M  V30 1220 H 112.01 2.07718 0.443493 0
M  V30 1221 H 114.273 0.912031 0.258657 0
M  V30 1222 H 113.979 3.17395 1.51503 0
M  V30 1223 H 113.853 2.26907 3.01319 0
M  V30 1224 H 116.24 1.35865 2.61963 0
M  V30 1225 H 116.321 2.29848 1.12265 0
M  V30 1226 H 115.965 4.43676 2.47213 0
M  V30 1227 H 115.895 3.46617 3.96439 0
M  V30 1228 H 118.386 2.777 2.56302 0
M  V30 1229 H 118.699 6.0844 4.76467 0
M  V30 1230 H 117.044 5.46758 4.29047 0
M  V30 1231 H 120.235 3.49643 3.11236 0
M  V30 1232 H 120.408 5.00448 4.1165 0
M  V30 1233 N 113.814 -1.1601 1.06675 0
M  V30 1234 C 114.777 -2.18724 0.685001 0
M  V30 1235 C 115.777 -1.58496 -0.271246 0
M  V30 1236 O 116.967 -1.74119 -0.0531156 0
M  V30 1237 C 114.099 -3.40899 0.00853648 0
M  V30 1238 H 115.292 -2.54011 1.59431 0
M  V30 1239 H 112.845 -1.30352 0.862441 0
M  V30 1240 H 113.58 -3.11173 -0.913337 0
M  V30 1241 H 113.365 -3.8587 0.696204 0
M  V30 1242 H 114.855 -4.16886 -0.24414 0
M  V30 1243 N 115.292 -0.849877 -1.32721 0
M  V30 1244 C 116.255 -0.296122 -2.27279 0
M  V30 1245 C 117.255 0.541458 -1.5141 0
M  V30 1246 O 118.445 0.353658 -1.70572 0
M  V30 1247 C 115.577 0.581579 -3.35902 0
M  V30 1248 H 116.77 -1.13064 -2.77771 0
M  V30 1249 H 114.323 -0.62383 -1.43311 0
M  V30 1250 H 115.058 1.43809 -2.9067 0
M  V30 1251 H 114.843 -0.0178814 -3.92096 0
M  V30 1252 H 116.333 0.961951 -4.0637 0
M  V30 1253 N 116.77 1.45427 -0.607355 0
M  V30 1254 C 117.733 2.28974 0.101693 0
M  V30 1255 C 118.733 1.39754 0.795329 0
M  V30 1256 O 119.923 1.61878 0.643527 0
M  V30 1257 C 117.055 3.20768 1.15414 0
M  V30 1258 H 118.248 2.93147 -0.632844 0
M  V30 1259 H 115.801 1.51945 -0.366391 0
M  V30 1260 H 116.536 2.61395 1.91945 0
M  V30 1261 H 116.321 3.86489 0.66098 0
M  V30 1262 H 117.811 3.83589 1.65073 0
M  V30 1263 N 118.248 0.346503 1.53744 0
M  V30 1264 C 119.18 -0.543316 2.22667 0
M  V30 1265 C 120.193 -1.06159 1.23427 0
M  V30 1266 O 121.382 -0.971235 1.49764 0
M  V30 1267 C 118.482 -1.76076 2.89569 0
M  V30 1268 C 117.655 -1.37727 4.15151 0
M  V30 1269 C 116.714 -2.45471 4.65436 0
M  V30 1270 O 115.74 -2.08655 5.29577 0
M  V30 1271 N 116.942 -3.7677 4.41616 0
M  V30 1272 H 119.707 0.0469703 2.99663 0
M  V30 1273 H 117.268 0.170766 1.60997 0
M  V30 1274 H 119.26 -2.47593 3.20125 0
M  V30 1275 H 117.83 -2.25835 2.16142 0
M  V30 1276 H 117.05 -0.492746 3.91108 0
M  V30 1277 H 118.338 -1.09708 4.96832 0
M  V30 1278 H 117.736 -4.09467 3.90325 0
M  V30 1279 H 116.293 -4.44448 4.7677 0
M  V30 1280 N 119.726 -1.57421 0.075193 0
M  V30 1281 C 120.975 -1.92794 -0.592731 0
M  V30 1282 C 121.288 -0.957478 -1.70563 0
M  V30 1283 O 122.494 -1.20417 -2.43335 0
M  V30 1284 C 120.95 -3.42495 -1.10569 0
M  V30 1285 C 120.558 -4.47994 -0.0236121 0
M  V30 1286 C 122.302 -3.86864 -1.74748 0
M  V30 1287 C 120.209 -5.88829 -0.550803 0
M  V30 1288 H 119.139 -0.719591 -0.225177 0
M  V30 1289 H 121.79 -1.82902 0.147978 0
M  V30 1290 H 120.172 -3.47471 -1.89947 0
M  V30 1291 H 121.346 -4.54637 0.751099 0
M  V30 1292 H 119.661 -4.13113 0.522159 0
M  V30 1293 H 122.258 -4.8947 -2.15229 0
M  V30 1294 H 122.601 -3.24417 -2.60882 0
M  V30 1295 H 123.134 -3.84504 -1.01986 0
M  V30 1296 H 119.873 -6.54929 0.273457 0
M  V30 1297 H 119.393 -5.85698 -1.29296 0
M  V30 1298 H 121.072 -6.38811 -1.02613 0
M  V30 1299 N 121.204 0.198386 -1.56346 0
M  V30 1300 C 122.167 1.22952 -1.93431 0
M  V30 1301 C 123.167 1.38611 -0.815092 0
M  V30 1302 O 124.357 1.36479 -1.08255 0
M  V30 1303 C 121.489 2.59946 -2.20546 0
M  V30 1304 H 122.682 0.912626 -2.85677 0
M  V30 1305 H 120.235 0.43977 -1.49986 0
M  V30 1306 H 120.97 2.96696 -1.30927 0
M  V30 1307 H 120.755 2.49953 -3.02102 0
M  V30 1308 H 122.245 3.3431 -2.50253 0
M  V30 1309 N 122.682 1.50554 0.465978 0
M  V30 1310 C 123.614 1.65949 1.58093 0
M  V30 1311 C 124.627 0.540827 1.53554 0
M  V30 1312 O 125.816 0.814187 1.5885 0
M  V30 1313 C 122.916 1.63261 2.96983 0
M  V30 1314 C 122.089 2.91245 3.26336 0
M  V30 1315 C 121.148 2.8113 4.44806 0
M  V30 1316 O 120.174 3.55086 4.44862 0
M  V30 1317 N 121.376 1.95032 5.46756 0
M  V30 1318 H 124.141 2.62122 1.45301 0
M  V30 1319 H 121.702 1.48082 0.65448 0
M  V30 1320 H 123.694 1.54101 3.74212 0
M  V30 1321 H 122.264 0.748032 3.03518 0
M  V30 1322 H 121.484 3.14493 2.37672 0
M  V30 1323 H 122.772 3.76022 3.42761 0
M  V30 1324 H 122.17 1.3427 5.49534 0
M  V30 1325 H 120.727 1.91772 6.2295 0
M  V30 1326 N 124.16 -0.719506 1.40217 0
M  V30 1327 C 125.123 -1.8153 1.39927 0
M  V30 1328 C 126.123 -1.58095 0.293723 0
M  V30 1329 O 127.313 -1.65209 0.552429 0
M  V30 1330 C 124.445 -3.19561 1.18716 0
M  V30 1331 H 125.638 -1.83186 2.37451 0
M  V30 1332 H 123.191 -0.924746 1.26008 0
M  V30 1333 H 123.926 -3.23557 0.219366 0
M  V30 1334 H 123.711 -3.3797 1.98793 0
M  V30 1335 H 125.201 -3.99598 1.21291 0
M  V30 1336 N 125.638 -1.25649 -0.95132 0
M  V30 1337 C 126.568 -1.08808 -2.06599 0
M  V30 1338 C 127.549 0.00382547 -1.701 0
M  V30 1339 O 128.734 -0.166325 -1.93486 0
M  V30 1340 C 125.864 -0.709542 -3.39975 0
M  V30 1341 C 124.818 -1.75206 -3.90496 0
M  V30 1342 C 124.144 -1.22811 -5.20405 0
M  V30 1343 C 125.444 -3.15153 -4.16504 0
M  V30 1344 H 127.138 -2.02048 -2.20946 0
M  V30 1345 H 124.684 -0.972835 -1.06169 0
M  V30 1346 H 126.637 -0.578649 -4.17408 0
M  V30 1347 H 125.361 0.258556 -3.25575 0
M  V30 1348 H 124.02 -1.87145 -3.15234 0
M  V30 1349 H 123.668 -0.250145 -5.02378 0
M  V30 1350 H 123.368 -1.92492 -5.55176 0
M  V30 1351 H 124.892 -1.10968 -6.00432 0
M  V30 1352 H 126.306 -3.06349 -4.84586 0
M  V30 1353 H 124.703 -3.82333 -4.62538 0
M  V30 1354 H 125.773 -3.61966 -3.22658 0
M  V30 1355 N 127.117 1.15442 -1.07289 0
M  V30 1356 C 128.047 2.22312 -0.714107 0
M  V30 1357 C 129.028 1.67467 0.298155 0
M  V30 1358 O 130.213 1.93445 0.171048 0
M  V30 1359 C 127.343 3.47124 -0.110448 0
M  V30 1360 C 126.297 4.14926 -1.04979 0
M  V30 1361 C 125.623 5.33807 -0.308924 0
M  V30 1362 C 126.923 4.64762 -2.38314 0
M  V30 1363 H 128.617 2.5258 -1.6076 0
M  V30 1364 H 126.163 1.21404 -0.77441 0
M  V30 1365 H 128.116 4.21124 0.152482 0
M  V30 1366 H 126.84 3.16187 0.81812 0
M  V30 1367 H 125.499 3.42866 -1.29764 0
M  V30 1368 H 125.147 4.99126 0.623084 0
M  V30 1369 H 124.847 5.80113 -0.935036 0
M  V30 1370 H 126.371 6.10576 -0.0537771 0
M  V30 1371 H 127.785 5.30292 -2.1786 0
M  V30 1372 H 126.182 5.21728 -2.96514 0
M  V30 1373 H 127.252 3.80434 -3.00663 0
M  V30 1374 N 128.595 0.856903 1.32268 0
M  V30 1375 C 129.843 0.460474 1.96784 0
M  V30 1376 C 130.164 -0.987701 1.68135 0
M  V30 1377 O 129.434 -1.69058 0.989765 0
M  V30 1378 H 128.014 0.167289 0.728027 0
M  V30 1379 H 130.676 1.09383 1.61312 0
M  V30 1380 H 129.772 0.60739 3.06133 0
M  V30 1381 N 130.073 -1.45103 0.615059 0
M  V30 1382 C 131.036 -2.29025 -0.0895485 0
M  V30 1383 C 132.036 -1.40174 -0.787906 0
M  V30 1384 O 133.226 -1.62217 -0.634933 0
M  V30 1385 C 130.358 -3.21376 -1.13711 0
M  V30 1386 H 131.551 -2.92807 0.648382 0
M  V30 1387 H 129.104 -1.51749 0.374444 0
M  V30 1388 H 129.839 -2.6241 -1.90556 0
M  V30 1389 H 129.624 -3.86834 -0.640475 0
M  V30 1390 H 131.114 -3.84459 -1.63036 0
M  V30 1391 N 131.551 -0.354651 -1.53558 0
M  V30 1392 C 132.461 0.50515 -2.29097 0
M  V30 1393 C 133.477 1.10223 -1.34636 0
M  V30 1394 O 134.653 1.11553 -1.67684 0
M  V30 1395 C 131.718 1.63479 -3.05738 0
M  V30 1396 C 130.779 1.06636 -4.15845 0
M  V30 1397 C 130.012 2.14217 -4.88822 0
M  V30 1398 O 130.235 3.35137 -4.61562 0
M  V30 1399 O 129.169 1.77887 -5.75013 0
M  V30 1400 H 132.995 -0.109237 -3.03503 0
M  V30 1401 H 130.58 -0.119357 -1.48922 0
M  V30 1402 H 132.462 2.2918 -3.5363 0
M  V30 1403 H 131.137 2.23478 -2.34178 0
M  V30 1404 H 130.044 0.373565 -3.7223 0
M  V30 1405 H 131.377 0.511081 -4.89539 0
M  V30 1406 N 133.029 1.57378 -0.0835403 0
M  V30 1407 C 133.939 2.16897 0.894021 0
M  V30 1408 C 134.955 1.13528 1.31861 0
M  V30 1409 O 136.131 1.45848 1.3889 0
M  V30 1410 C 133.196 2.72831 2.13925 0
M  V30 1411 C 132.257 3.91115 1.76997 0
M  V30 1412 C 131.49 4.44371 2.95584 0
M  V30 1413 O 131.713 3.96596 4.09961 0
M  V30 1414 O 130.647 5.35549 2.74719 0
M  V30 1415 H 134.473 3.00814 0.417679 0
M  V30 1416 H 132.058 1.48741 0.140181 0
M  V30 1417 H 133.94 3.0863 2.86924 0
M  V30 1418 H 132.615 1.91967 2.60635 0
M  V30 1419 H 131.522 3.60148 1.01214 0
M  V30 1420 H 132.855 4.73307 1.3506 0
M  V30 1421 N 134.507 -0.190092 1.56449 0
M  V30 1422 C 135.923 -0.54113 1.50146 0
M  V30 1423 C 136.123 -1.85603 0.784465 0
M  V30 1424 O 135.179 -2.5024 0.337051 0
M  V30 1425 C 136.492 -0.591241 2.9483 0
M  V30 1426 C 138.04 -0.679732 3.0553 0
M  V30 1427 C 138.515 -0.760908 4.51635 0
M  V30 1428 N 140.006 -0.824302 4.55806 0
M  V30 1429 C 140.741 -0.907365 5.66175 0
M  V30 1430 N 140.237 -0.952422 6.86222 0
M  V30 1431 N 142.03 -0.94494 5.541 0
M  V30 1432 H 134.181 0.67235 2.01478 0
M  V30 1433 H 136.444 0.240127 0.917084 0
M  V30 1434 H 136.15 0.305905 3.50367 0
M  V30 1435 H 136.024 -1.44422 3.48457 0
M  V30 1436 H 138.411 -1.56731 2.50039 0
M  V30 1437 H 138.492 0.199549 2.5502 0
M  V30 1438 H 138.136 0.122336 5.07753 0
M  V30 1439 H 138.066 -1.65606 4.99882 0
M  V30 1440 H 140.557 -0.798526 3.69367 0
M  V30 1441 H 140.87 -1.01645 7.66086 0
M  V30 1442 H 139.215 -0.921014 6.8887 0
M  V30 1443 H 142.406 -0.906612 4.59236 0
M  V30 1444 H 142.579 -1.00622 6.4014 0
M  V30 1445 N 135.985 -1.50799 -0.457987 0
M  V30 1446 C 136.932 -1.70617 -1.5543 0
M  V30 1447 C 137.902 -0.547562 -1.56815 0
M  V30 1448 O 139.087 -0.779647 -1.74144 0
M  V30 1449 C 136.227 -1.81831 -2.93311 0
M  V30 1450 C 135.34 -3.09278 -3.01615 0
M  V30 1451 C 134.475 -3.11209 -4.30491 0
M  V30 1452 C 133.514 -4.33055 -4.32585 0
M  V30 1453 N 132.651 -4.32652 -5.52952 0
M  V30 1454 H 137.491 -2.64207 -1.37836 0
M  V30 1455 H 135.028 -1.30959 -0.669937 0
M  V30 1456 H 136.986 -1.86314 -3.73287 0
M  V30 1457 H 135.616 -0.916685 -3.0951 0
M  V30 1458 H 134.668 -3.14203 -2.1443 0
M  V30 1459 H 135.98 -3.99233 -2.99022 0
M  V30 1460 H 135.134 -3.14494 -5.18824 0
M  V30 1461 H 133.873 -2.19106 -4.35711 0
M  V30 1462 H 132.878 -4.29969 -3.42647 0
M  V30 1463 H 134.103 -5.264 -4.29046 0
M  V30 1464 H 132.049 -3.43409 -5.58933 0
M  V30 1465 H 131.966 -5.16392 -5.52155 0
M  V30 1466 H 133.234 -4.40101 -6.43375 0
M  V30 1467 N 137.463 0.71206 -1.40597 0
M  V30 1468 C 138.709 1.47416 -1.39271 0
M  V30 1469 C 139.042 1.942 0.00388791 0
M  V30 1470 O 138.317 1.68403 0.973179 0
M  V30 1471 C 138.6 2.69774 -2.38525 0
M  V30 1472 C 138.453 2.28861 -3.87224 0
M  V30 1473 C 139.772 3.71939 -2.35264 0
M  V30 1474 H 136.891 0.534713 -0.5072 0
M  V30 1475 H 139.533 0.812375 -1.71757 0
M  V30 1476 H 137.683 3.26238 -2.10953 0
M  V30 1477 H 139.355 1.77852 -4.25636 0
M  V30 1478 H 137.598 1.60824 -4.02887 0
M  V30 1479 H 138.269 3.16584 -4.52193 0
M  V30 1480 H 140.745 3.25113 -2.59694 0
M  V30 1481 H 139.621 4.55186 -3.06753 0
M  V30 1482 H 139.882 4.20484 -1.36549 0
M  V30 1483 N 138.941 1.26152 0.944643 0
M  V30 1484 C 139.851 1.09176 2.07648 0
M  V30 1485 C 140.867 0.0261935 1.7398 0
M  V30 1486 O 142.043 0.229208 2.00091 0
M  V30 1487 C 139.108 0.722915 3.39079 0
M  V30 1488 C 138.169 1.86752 3.86552 0
M  V30 1489 C 137.402 1.51617 5.11711 0
M  V30 1490 O 137.625 0.416331 5.68879 0
M  V30 1491 O 136.559 2.34975 5.54139 0
M  V30 1492 H 140.385 2.0412 2.24875 0
M  V30 1493 H 137.97 1.05182 1.061 0
M  V30 1494 H 139.852 0.529787 4.18056 0
M  V30 1495 H 138.527 -0.197159 3.23099 0
M  V30 1496 H 137.434 2.11558 3.08535 0
M  V30 1497 H 138.767 2.76719 4.07047 0
M  V30 1498 N 140.419 -1.14872 1.07899 0
M  V30 1499 C 141.668 -1.85135 0.800499 0
M  V30 1500 C 141.981 -1.83547 -0.676014 0
M  V30 1501 O 143.187 -2.49548 -1.06948 0
M  V30 1502 C 141.643 -3.3231 1.38197 0
M  V30 1503 C 141.251 -3.42329 2.8899 0
M  V30 1504 C 142.995 -4.0772 1.18174 0
M  V30 1505 C 140.902 -4.83684 3.403 0
M  V30 1506 H 139.832 -0.693563 0.29578 0
M  V30 1507 H 142.483 -1.29532 1.29976 0
M  V30 1508 H 140.865 -3.87618 0.810431 0
M  V30 1509 H 142.039 -2.97097 3.52236 0
M  V30 1510 H 140.354 -2.80369 3.07867 0
M  V30 1511 H 142.951 -5.12049 1.5398 0
M  V30 1512 H 143.294 -4.16124 0.12117 0
M  V30 1513 H 143.827 -3.58696 1.71994 0
M  V30 1514 H 140.566 -4.80465 4.45907 0
M  V30 1515 H 140.086 -5.29474 2.81811 0
M  V30 1516 H 141.765 -5.52558 3.36584 0
M  V30 1517 N 141.898 -0.863906 -1.31812 0
M  V30 1518 C 142.861 -0.320212 -2.26952 0
M  V30 1519 C 143.861 0.525369 -1.51975 0
M  V30 1520 O 145.051 0.335547 -1.70938 0
M  V30 1521 C 142.183 0.545919 -3.365 0
M  V30 1522 H 143.376 -1.16004 -2.76556 0
M  V30 1523 H 140.929 -0.638995 -1.42641 0
M  V30 1524 H 141.664 1.40718 -2.92179 0
M  V30 1525 H 141.449 -0.0594674 -3.92055 0
M  V30 1526 H 142.939 0.918796 -4.07367 0
M  V30 1527 N 143.376 1.44774 -0.622745 0
M  V30 1528 C 144.623 2.02121 -0.1239 0
M  V30 1529 C 144.951 1.48915 1.25118 0
M  V30 1530 O 144.206 0.660045 1.84233 0
M  V30 1531 C 144.505 3.57364 -0.0508323 0
M  V30 1532 C 144.171 4.29787 -1.36358 0
M  V30 1533 C 142.833 4.4929 -1.72314 0
M  V30 1534 C 145.185 4.71062 -2.23048 0
M  V30 1535 C 142.513 5.07325 -2.94682 0
M  V30 1536 C 144.865 5.30452 -3.44679 0
M  V30 1537 C 143.529 5.48175 -3.80868 0
M  V30 1538 H 142.799 0.739612 -0.0453381 0
M  V30 1539 H 145.446 1.73648 -0.807389 0
M  V30 1540 H 143.751 3.85202 0.715991 0
M  V30 1541 H 145.448 3.99456 0.351533 0
M  V30 1542 H 142.038 4.14932 -1.07375 0
M  V30 1543 H 146.222 4.55715 -1.96565 0
M  V30 1544 H 141.478 5.19235 -3.22809 0
M  V30 1545 H 145.652 5.61385 -4.12092 0
M  V30 1546 H 143.279 5.92912 -4.75773 0
M  V30 1547 N 144.854 0.36279 1.53368 0
M  V30 1548 C 146.084 -0.228281 2.05335 0
M  V30 1549 C 146.492 -1.43226 1.23625 0
M  V30 1550 O 145.835 -1.81717 0.269206 0
M  V30 1551 C 145.897 -0.688549 3.52845 0
M  V30 1552 C 145.561 0.398362 4.5526 0
M  V30 1553 C 146.558 1.24732 5.04716 0
M  V30 1554 C 144.243 0.557805 4.99193 0
M  V30 1555 C 146.237 2.2411 5.96702 0
M  V30 1556 C 143.924 1.55495 5.90986 0
M  V30 1557 C 144.922 2.39503 6.39631 0
M  V30 1558 O 144.61 3.37517 7.29615 0
M  V30 1559 H 144.342 -0.044395 0.674541 0
M  V30 1560 H 146.896 0.518668 1.98744 0
M  V30 1561 H 145.126 -1.48706 3.56964 0
M  V30 1562 H 146.815 -1.20231 3.87685 0
M  V30 1563 H 147.581 1.13532 4.71525 0
M  V30 1564 H 143.46 -0.0862959 4.60919 0
M  V30 1565 H 147.004 2.89718 6.34594 0
M  V30 1566 H 142.901 1.66744 6.23592 0
M  V30 1567 H 143.669 3.33213 7.47604 0
M  V30 1568 N 146.332 -1.57332 0.0918853 0
M  V30 1569 C 147.748 -1.57389 -0.264766 0
M  V30 1570 C 147.948 -1.10281 -1.68643 0
M  V30 1571 O 147.004 -0.777801 -2.40222 0
M  V30 1572 C 148.317 -3.00648 -0.0561195 0
M  V30 1573 C 149.865 -3.12754 -0.124116 0
M  V30 1574 C 150.34 -4.57965 0.0564972 0
M  V30 1575 N 151.831 -4.632 0.00155611 0
M  V30 1576 C 152.566 -5.73281 0.116598 0
M  V30 1577 N 152.062 -6.92208 0.286294 0
M  V30 1578 N 153.855 -5.6207 0.0580973 0
M  V30 1579 H 146.006 -1.86262 1.02079 0
M  V30 1580 H 148.269 -0.859579 0.399786 0
M  V30 1581 H 147.975 -3.393 0.925669 0
M  V30 1582 H 147.849 -3.68623 -0.799823 0
M  V30 1583 H 150.236 -2.73976 -1.09641 0
M  V30 1584 H 150.317 -2.47377 0.651024 0
M  V30 1585 H 149.961 -4.97436 1.02564 0
M  V30 1586 H 149.891 -5.21399 -0.738297 0
M  V30 1587 H 152.382 -3.77686 -0.127192 0
M  V30 1588 H 152.695 -7.71934 0.365676 0
M  V30 1589 H 151.04 -6.94254 0.32192 0
M  V30 1590 H 154.231 -4.68043 -0.0733204 0
M  V30 1591 H 154.404 -6.47824 0.151203 0
M  V30 1592 N 147.81 0.181792 -1.56548 0
M  V30 1593 C 148.757 1.22521 -1.95595 0
M  V30 1594 C 149.727 1.4454 -0.818373 0
M  V30 1595 O 150.912 1.57454 -1.07763 0
M  V30 1596 C 148.052 2.56193 -2.31212 0
M  V30 1597 C 147.165 2.41641 -3.58097 0
M  V30 1598 C 146.3 3.68108 -3.82975 0
M  V30 1599 C 145.339 3.48445 -5.03242 0
M  V30 1600 N 144.476 4.66956 -5.24306 0
M  V30 1601 H 149.316 0.885226 -2.84548 0
M  V30 1602 H 146.853 0.425718 -1.40805 0
M  V30 1603 H 148.811 3.34088 -2.49882 0
M  V30 1604 H 147.441 2.88208 -1.45382 0
M  V30 1605 H 146.493 1.54976 -3.474 0
M  V30 1606 H 147.805 2.23052 -4.46149 0
M  V30 1607 H 146.959 4.54441 -4.01956 0
M  V30 1608 H 145.698 3.89666 -2.93278 0
M  V30 1609 H 144.703 2.60499 -4.8417 0
M  V30 1610 H 145.928 3.2832 -5.9446 0
M  V30 1611 H 143.874 4.88752 -4.37559 0
M  V30 1612 H 143.791 4.51242 -6.06561 0
M  V30 1613 H 145.059 5.54602 -5.47756 0
M  V30 1614 N 149.288 1.51039 0.449983 0
M  V30 1615 C 150.565 1.53612 1.21089 0
M  V30 1616 C 150.945 0.292997 2.09057 0
M  V30 1617 O 150.293 -0.72259 2.16774 0
M  V30 1618 C 150.503 2.84337 2.0237 0
M  V30 1619 C 151.851 3.35807 2.59843 0
M  V30 1620 O 152.875 2.85802 2.12593 0
M  V30 1621 O 151.734 4.23029 3.45989 0
M  V30 1622 H 148.828 0.617057 0.550608 0
M  V30 1623 H 151.374 1.63344 0.460082 0
M  V30 1624 H 150.146 3.66278 1.37681 0
M  V30 1625 H 149.769 2.77708 2.84542 0
M  V30 1626 N 150.766 -0.704594 1.40972 0
M  V30 1627 C 152.014 -1.46169 1.39568 0
M  V30 1628 C 152.335 -1.95 0.00253745 0
M  V30 1629 O 151.605 -1.71095 -0.954114 0
M  V30 1630 H 150.185 -0.542326 0.513704 0
M  V30 1631 H 152.847 -0.834553 1.76128 0
M  V30 1632 H 151.943 -2.32922 2.07735 0
M  V30 1633 N 152.244 -1.26651 -0.937939 0
M  V30 1634 C 153.469 -1.15279 -1.72411 0
M  V30 1635 C 153.894 0.287866 -1.85884 0
M  V30 1636 O 153.252 1.20855 -1.35143 0
M  V30 1637 C 153.3 -1.83028 -3.10698 0
M  V30 1638 O 152.404 -1.12128 -3.96864 0
M  V30 1639 H 151.745 -0.401504 -0.528858 0
M  V30 1640 H 154.275 -1.67531 -1.1745 0
M  V30 1641 H 154.285 -1.89981 -3.6107 0
M  V30 1642 H 152.96 -2.87833 -3.00208 0
M  V30 1643 H 151.537 -1.13173 -3.55312 0
M  V30 1644 N 153.722 1.14298 -1.08507 0
M  V30 1645 C 154.962 1.87016 -0.824894 0
M  V30 1646 C 155.326 1.81099 0.637735 0
M  V30 1647 O 156.527 2.48963 1.01345 0
M  V30 1648 C 154.798 3.31584 -1.33368 0
M  V30 1649 S 156.357 4.21903 -1.20596 0
M  V30 1650 H 153.175 0.645259 -0.2986 0
M  V30 1651 H 155.777 1.37822 -1.38656 0
M  V30 1652 H 154.481 3.33439 -2.39262 0
M  V30 1653 H 154.012 3.85836 -0.767734 0
M  V30 1654 H 156.027 4.95971 -0.150891 0
M  V30 1655 N 155.201 0.870884 1.31352 0
M  V30 1656 C 156.448 0.482273 1.96673 0
M  V30 1657 C 156.776 -0.965638 1.68836 0
M  V30 1658 O 156.031 -1.69514 0.977937 0
M  V30 1659 C 156.33 0.687157 3.50732 0
M  V30 1660 C 155.996 2.108 3.9859 0
M  V30 1661 C 154.658 2.49656 4.1137 0
M  V30 1662 C 157.01 3.03459 4.23748 0
M  V30 1663 C 154.338 3.80412 4.46659 0
M  V30 1664 C 156.69 4.3373 4.60501 0
M  V30 1665 C 155.354 4.725 4.71487 0
M  V30 1666 H 154.624 0.176476 0.719679 0
M  V30 1667 H 157.271 1.10405 1.56471 0
M  V30 1668 H 155.576 -0.0177476 3.91796 0
M  V30 1669 H 157.273 0.366284 3.99324 0
M  V30 1670 H 153.863 1.79633 3.8914 0
M  V30 1671 H 158.047 2.74665 4.13368 0
M  V30 1672 H 153.303 4.1021 4.53362 0
M  V30 1673 H 157.477 5.05578 4.78919 0
M  V30 1674 H 155.104 5.73859 4.98588 0
M  V30 1675 N 156.679 -1.44442 0.630414 0
M  V30 1676 C 157.609 -2.33418 -0.0618083 0
M  V30 1677 C 158.59 -1.48165 -0.835541 0
M  V30 1678 O 159.775 -1.76886 -0.801564 0
M  V30 1679 C 156.905 -3.31222 -1.04449 0
M  V30 1680 C 155.859 -4.26288 -0.382436 0
M  V30 1681 C 155.185 -5.13954 -1.47497 0
M  V30 1682 C 156.485 -5.1744 0.710865 0
M  V30 1683 H 158.179 -2.91548 0.681184 0
M  V30 1684 H 155.725 -1.40191 0.329026 0
M  V30 1685 H 157.678 -3.92351 -1.53748 0
M  V30 1686 H 156.402 -2.71299 -1.81836 0
M  V30 1687 H 155.061 -3.6649 0.0899054 0
M  V30 1688 H 154.709 -4.50385 -2.2397 0
M  V30 1689 H 154.409 -5.7837 -1.03737 0
M  V30 1690 H 155.933 -5.77955 -1.96979 0
M  V30 1691 H 157.347 -5.72509 0.300996 0
M  V30 1692 H 155.744 -5.90455 1.07156 0
M  V30 1693 H 156.814 -4.58496 1.57829 0
M  V30 1694 N 158.157 -0.370918 -1.53173 0
M  V30 1695 C 159.397 0.217106 -2.03244 0
M  V30 1696 C 159.761 1.45558 -1.25207 0
M  V30 1697 O 160.962 2.11957 -1.65311 0
M  V30 1698 C 159.233 0.496664 -3.53932 0
M  V30 1699 S 160.792 1.0576 -4.25864 0
M  V30 1700 H 157.61 0.0627827 -0.708223 0
M  V30 1701 H 160.212 -0.515019 -1.88594 0
M  V30 1702 H 158.916 -0.412096 -4.08326 0
M  V30 1703 H 158.447 1.25772 -3.72753 0
M  V30 1704 H 160.462 2.34145 -4.37482 0
M  V30 1705 N 159.635 1.57281 -0.100228 0
M  V30 1706 C 160.565 2.17328 0.853857 0
M  V30 1707 C 161.546 1.10804 1.2906 0
M  V30 1708 O 162.731 1.38963 1.35657 0
M  V30 1709 C 159.861 2.75772 2.11109 0
M  V30 1710 C 158.815 3.87713 1.81279 0
M  V30 1711 C 158.141 4.32882 3.13874 0
M  V30 1712 C 159.441 5.10677 1.09574 0
M  V30 1713 H 161.135 2.97305 0.353545 0
M  V30 1714 H 158.681 1.43009 0.168612 0
M  V30 1715 H 160.634 3.16433 2.78296 0
M  V30 1716 H 159.358 1.93057 2.63432 0
M  V30 1717 H 158.017 3.476 1.16489 0
M  V30 1718 H 157.665 3.47051 3.64095 0
M  V30 1719 H 157.365 5.08358 2.94696 0
M  V30 1720 H 158.889 4.7618 3.82211 0
M  V30 1721 H 160.303 5.48474 1.66879 0
M  V30 1722 H 158.7 5.91615 1.00557 0
M  V30 1723 H 159.77 4.84835 0.0793299 0
M  V30 1724 N 161.113 -0.173488 1.56642 0
M  V30 1725 C 162.359 -0.891784 1.8214 0
M  V30 1726 C 162.692 -1.8199 0.677736 0
M  V30 1727 O 161.967 -1.91842 -0.320446 0
M  V30 1728 C 162.25 -1.68933 3.18015 0
M  V30 1729 C 162.103 -0.784487 4.42906 0
M  V30 1730 C 163.422 -2.65748 3.50808 0
M  V30 1731 H 160.541 -0.322761 0.662567 0
M  V30 1732 H 163.183 -0.158095 1.89341 0
M  V30 1733 H 161.333 -2.31482 3.12007 0
M  V30 1734 H 163.005 -0.172046 4.60979 0
M  V30 1735 H 161.248 -0.0924117 4.33702 0
M  V30 1736 H 161.919 -1.37799 5.34524 0
M  V30 1737 H 164.395 -2.13327 3.57255 0
M  V30 1738 H 163.271 -3.18619 4.4696 0
M  V30 1739 H 163.532 -3.45842 2.75401 0
M  V30 1740 N 162.591 -1.51276 -0.441967 0
M  V30 1741 C 163.868 -1.54252 -1.20273 0
M  V30 1742 C 164.248 -0.30408 -2.08898 0
M  V30 1743 O 163.596 0.711084 -2.17154 0
M  V30 1744 C 163.806 -2.85406 -2.00859 0
M  V30 1745 C 165.154 -3.37181 -2.58059 0
M  V30 1746 O 166.178 -2.86925 -2.11074 0
M  V30 1747 O 165.037 -4.24858 -3.43741 0
M  V30 1748 H 162.131 -0.619969 -0.547328 0
M  V30 1749 H 164.677 -1.63586 -0.451413 0
M  V30 1750 H 163.449 -3.67003 -1.35736 0
M  V30 1751 H 163.072 -2.79213 -2.83065 0
M  V30 1752 N 164.069 0.697108 -1.41344 0
M  V30 1753 C 165.315 1.4593 -1.40827 0
M  V30 1754 C 165.648 1.94193 -0.0167098 0
M  V30 1755 O 164.923 1.69425 0.955263 0
M  V30 1756 C 165.206 2.67229 -2.41373 0
M  V30 1757 C 165.059 2.24741 -3.8963 0
M  V30 1758 C 166.378 3.69423 -2.39196 0
M  V30 1759 H 163.497 0.529303 -0.512842 0
M  V30 1760 H 166.139 0.794112 -1.72609 0
M  V30 1761 H 164.289 3.23982 -2.14401 0
M  V30 1762 H 165.961 1.73327 -4.27499 0
M  V30 1763 H 164.204 1.56542 -4.0457 0
M  V30 1764 H 164.875 3.1177 -4.55525 0
M  V30 1765 H 167.351 3.2234 -2.63128 0
M  V30 1766 H 166.227 4.51907 -3.11563 0
M  V30 1767 H 166.488 4.19012 -1.41001 0
M  V30 1768 N 165.547 1.27147 0.931209 0
M  V30 1769 C 166.793 1.13446 1.68101 0
M  V30 1770 C 167.126 -0.319628 1.91552 0
M  V30 1771 O 166.401 -1.23407 1.50336 0
M  V30 1772 C 166.684 1.91482 3.0497 0
M  V30 1773 C 166.537 3.44855 2.88782 0
M  V30 1774 C 167.856 1.71651 4.05246 0
M  V30 1775 H 164.975 0.413498 0.610072 0
M  V30 1776 H 167.617 1.56261 1.08086 0
M  V30 1777 H 165.767 1.55095 3.56199 0
M  V30 1778 H 167.439 3.9105 2.44698 0
M  V30 1779 H 165.682 3.71373 2.24198 0
M  V30 1780 H 166.353 3.94694 3.85902 0
M  V30 1781 H 168.829 2.0337 3.63015 0
M  V30 1782 H 167.705 2.28651 4.99009 0
M  V30 1783 H 167.966 0.663555 4.37092 0
M  V30 1784 N 167.025 -1.13721 1.09112 0
M  V30 1785 C 168.436 -1.6648 0.845068 0
M  V30 1786 C 168.787 -1.85911 -0.62701 0
M  V30 1787 O 167.912 -1.57556 -1.48341 0
M  V30 1788 C 168.507 -3.02413 1.52748 0
M  V30 1789 C 167.066 -3.52176 1.32849 0
M  V30 1790 C 166.213 -2.27492 1.58564 0
M  V30 1791 H 169.164 -0.976872 1.25072 0
M  V30 1792 H 169.185 -3.68223 0.958752 0
M  V30 1793 H 168.697 -2.88238 2.59885 0
M  V30 1794 H 166.798 -3.7156 0.278137 0
M  V30 1795 H 166.911 -4.32499 2.0611 0
M  V30 1796 H 165.275 -2.33923 1.00758 0
M  V30 1797 H 166.058 -2.15886 2.66924 0
M  V30 1798 N 168.503 -0.877838 -1.30888 0
M  V30 1799 C 169.749 -0.493426 -1.96706 0
M  V30 1800 C 170.082 0.953504 -1.6918 0
M  V30 1801 O 169.357 1.67266 -0.992594 0
M  V30 1802 C 169.64 -0.760429 -3.51979 0
M  V30 1803 C 169.493 -2.25747 -3.89048 0
M  V30 1804 C 170.812 -0.232148 -4.39487 0
M  V30 1805 H 167.931 -0.180746 -0.714493 0
M  V30 1806 H 170.573 -1.10052 -1.54882 0
M  V30 1807 H 168.723 -0.243715 -3.87735 0
M  V30 1808 H 170.395 -2.84204 -3.63354 0
M  V30 1809 H 168.638 -2.72694 -3.37373 0
M  V30 1810 H 169.309 -2.39491 -4.97341 0
M  V30 1811 H 171.785 -0.674314 -4.106 0
M  V30 1812 H 170.661 -0.448355 -5.47066 0
M  V30 1813 H 170.922 0.866297 -4.33529 0
M  V30 1814 N 169.982 1.44106 -0.638065 0
M  V30 1815 C 170.929 2.30715 0.062701 0
M  V30 1816 C 171.899 1.43882 0.829883 0
M  V30 1817 O 173.084 1.72775 0.809532 0
M  V30 1818 C 170.224 3.29258 1.03358 0
M  V30 1819 C 169.337 4.31192 0.26409 0
M  V30 1820 C 168.472 5.16825 1.22741 0
M  V30 1821 C 167.511 6.10462 0.447475 0
M  V30 1822 N 166.648 6.8877 1.36161 0
M  V30 1823 H 171.488 2.90096 -0.681781 0
M  V30 1824 H 169.025 1.42925 -0.347988 0
M  V30 1825 H 170.983 3.84886 1.60992 0
M  V30 1826 H 169.613 2.71562 1.74511 0
M  V30 1827 H 168.665 3.77981 -0.428295 0
M  V30 1828 H 169.977 4.97619 -0.343052 0
M  V30 1829 H 169.131 5.77004 1.87487 0
M  V30 1830 H 167.87 4.50488 1.86847 0
M  V30 1831 H 166.875 5.49386 -0.213433 0
M  V30 1832 H 168.1 6.78837 -0.188968 0
M  V30 1833 H 166.046 6.25096 1.98975 0
M  V30 1834 H 165.963 7.51663 0.808656 0
M  V30 1835 H 167.231 7.53467 1.99769 0
M  V30 1836 N 171.46 0.379036 1.52974 0
M  V30 1837 C 172.408 -0.476033 2.27677 0
M  V30 1838 C 173.402 -1.0719 1.31174 0
M  V30 1839 O 174.608 -1.01355 1.48752 0
M  V30 1840 H 170.983 -0.172255 0.732006 0
M  V30 1841 H 172.954 0.175615 2.97883 0
M  V30 1842 C 171.703 -1.5967 3.0887 0
M  V30 1843 H 171.026 -1.1475 3.82978 0
M  V30 1844 H 172.466 -2.16943 3.64296 0
M  V30 1845 C 170.925 -2.54682 2.20542 0
M  V30 1846 O 171.455 -3.57836 1.82527 0
M  V30 1847 N 169.661 -2.24183 1.84907 0
M  V30 1848 H 169.208 -1.40333 2.1602 0
M  V30 1849 H 169.166 -2.88006 1.26096 0
M  V30 1850 N 172.938 -1.57226 0.108567 0
M  V30 1851 C 173.848 -2.18292 -0.859401 0
M  V30 1852 C 174.864 -1.15612 -1.30038 0
M  V30 1853 O 176.04 -1.48039 -1.36552 0
M  V30 1854 C 173.105 -2.762 -2.09558 0
M  V30 1855 C 172.166 -3.93881 -1.70752 0
M  V30 1856 C 171.399 -4.49018 -2.88477 0
M  V30 1857 O 171.622 -4.03068 -4.036 0
M  V30 1858 O 170.556 -5.39852 -2.66164 0
M  V30 1859 H 174.382 -3.01441 -0.369769 0
M  V30 1860 H 171.967 -1.48945 -0.1165 0
M  V30 1861 H 173.849 -3.13156 -2.81978 0
M  V30 1862 H 172.524 -1.96089 -2.57548 0
M  V30 1863 H 171.431 -3.61713 -0.954714 0
M  V30 1864 H 172.764 -4.75396 -1.27513 0
M  V30 1865 N 174.416 0.165178 -1.56732 0
M  V30 1866 C 175.693 0.908443 -1.73224 0
M  V30 1867 C 176.073 2.0013 -0.67165 0
M  V30 1868 O 175.421 2.26353 0.31253 0
M  V30 1869 C 175.631 1.46756 -3.16644 0
M  V30 1870 C 176.979 1.93809 -3.77787 0
M  V30 1871 O 178.003 1.56537 -3.1996 0
M  V30 1872 O 176.862 2.62486 -4.79336 0
M  V30 1873 H 173.956 0.428025 -0.707618 0
M  V30 1874 H 176.502 0.152526 -1.69013 0
M  V30 1875 H 175.274 0.68129 -3.85323 0
M  V30 1876 H 174.897 2.28749 -3.25207 0
M  V30 1877 N 175.894 1.51508 0.433938 0
M  V30 1878 C 177.142 1.6402 1.18075 0
M  V30 1879 C 177.463 0.360328 1.91642 0
M  V30 1880 O 176.733 -0.623945 1.85698 0
M  V30 1881 H 175.313 0.6045 0.43885 0
M  V30 1882 H 177.975 1.88452 0.497178 0
M  V30 1883 H 177.071 2.46949 1.90847 0
M  V30 1884 N 177.372 -0.689602 1.41712 0
M  V30 1885 C 178.335 -1.78521 1.43746 0
M  V30 1886 C 179.335 -1.57436 0.327191 0
M  V30 1887 O 180.525 -1.64 0.587348 0
M  V30 1888 C 177.657 -3.16971 1.25467 0
M  V30 1889 H 178.85 -1.78108 2.41283 0
M  V30 1890 H 176.403 -0.89781 1.27942 0
M  V30 1891 H 177.138 -3.23019 0.287948 0
M  V30 1892 H 176.923 -3.33678 2.05917 0
M  V30 1893 H 178.413 -3.96935 1.2974 0
M  V30 1894 N 178.85 -1.27639 -0.924453 0
M  V30 1895 C 180.096 -1.14336 -1.67497 0
M  V30 1896 C 180.429 0.309465 -1.91718 0
M  V30 1897 O 179.704 1.22608 -1.50989 0
M  V30 1898 C 179.987 -1.93096 -3.0395 0
M  V30 1899 C 179.84 -3.46381 -2.8695 0
M  V30 1900 C 181.159 -1.73798 -4.0433 0
M  V30 1901 H 178.278 -0.416728 -0.607871 0
M  V30 1902 H 180.92 -1.56832 -1.07256 0
M  V30 1903 H 179.07 -1.56982 -3.55372 0
M  V30 1904 H 180.742 -3.92343 -2.42621 0
M  V30 1905 H 178.985 -3.72557 -2.22225 0
M  V30 1906 H 179.656 -3.96735 -3.83804 0
M  V30 1907 H 182.132 -2.05293 -3.61931 0
M  V30 1908 H 181.008 -2.31294 -4.97789 0
M  V30 1909 H 181.269 -0.686725 -4.36734 0
M  V30 1910 N 180.328 1.1314 -1.09713 0
M  V30 1911 C 181.577 1.83838 -0.829851 0
M  V30 1912 C 181.89 1.84599 0.646728 0
M  V30 1913 O 183.096 2.51218 1.02965 0
M  V30 1914 C 181.552 3.30069 -1.43466 0
M  V30 1915 C 181.16 3.37688 -2.94399 0
M  V30 1916 C 182.904 4.05788 -1.24645 0
M  V30 1917 C 180.811 4.78209 -3.47952 0
M  V30 1918 H 179.741 0.68877 -0.306777 0
M  V30 1919 H 182.392 1.27448 -1.3202 0
M  V30 1920 H 180.774 3.8628 -0.871996 0
M  V30 1921 H 181.948 2.91456 -3.56918 0
M  V30 1922 H 180.263 2.75436 -3.12289 0
M  V30 1923 H 182.86 5.09535 -1.62107 0
M  V30 1924 H 183.203 4.15878 -0.187357 0
M  V30 1925 H 183.736 3.55915 -1.77678 0
M  V30 1926 H 180.475 4.73311 -4.53495 0
M  V30 1927 H 179.995 5.24924 -2.90198 0
M  V30 1928 H 181.674 5.47133 -3.45332 0
M  V30 1929 N 181.806 0.884767 1.30421 0
M  V30 1930 C 182.739 0.295999 2.26272 0
M  V30 1931 C 183.717 -0.58332 1.51777 0
M  V30 1932 O 184.901 -0.53346 1.80794 0
M  V30 1933 C 182.028 -0.57944 3.33707 0
M  V30 1934 C 181.074 0.230525 4.25877 0
M  V30 1935 S 181.907 1.61867 5.1045 0
M  V30 1936 C 183.063 0.749756 6.21393 0
M  V30 1937 H 183.296 1.10848 2.75862 0
M  V30 1938 H 180.829 0.684178 1.38414 0
M  V30 1939 H 182.787 -1.07879 3.96071 0
M  V30 1940 H 181.448 -1.36601 2.82841 0
M  V30 1941 H 180.641 -0.437542 5.02097 0
M  V30 1942 H 180.243 0.662493 3.68086 0
M  V30 1943 H 182.535 -0.0333547 6.77492 0
M  V30 1944 H 183.478 1.48356 6.92384 0
M  V30 1945 H 183.886 0.310751 5.63644 0
M  V30 1946 N 183.284 -1.43765 0.645699 0
M  V30 1947 C 184.531 -2.01898 0.15604 0
M  V30 1948 C 184.859 -1.50887 -1.22733 0
M  V30 1949 O 184.114 -0.689271 -1.8316 0
M  V30 1950 C 184.413 -3.57238 0.107679 0
M  V30 1951 C 184.079 -4.27564 1.43178 0
M  V30 1952 C 182.741 -4.46492 1.7944 0
M  V30 1953 C 185.093 -4.67454 2.30513 0
M  V30 1954 C 182.421 -5.02573 3.02716 0
M  V30 1955 C 184.773 -5.24901 3.53074 0
M  V30 1956 C 183.437 -5.42046 3.89541 0
M  V30 1957 H 182.707 -0.738797 0.057099 0
M  V30 1958 H 185.354 -1.72341 0.834912 0
M  V30 1959 H 183.659 -3.86293 -0.654618 0
M  V30 1960 H 185.356 -3.99965 -0.287938 0
M  V30 1961 H 181.946 -4.13171 1.13963 0
M  V30 1962 H 186.13 -4.5253 2.0379 0
M  V30 1963 H 181.386 -5.14033 3.31028 0
M  V30 1964 H 185.56 -5.54758 4.20971 0
M  V30 1965 H 183.187 -5.85268 4.85145 0
M  V30 1966 N 184.763 -0.387143 -1.52771 0
M  V30 1967 C 186.012 0.19697 -2.00736 0
M  V30 1968 C 186.325 1.48082 -1.27793 0
M  V30 1969 O 187.531 2.14485 -1.66458 0
M  V30 1970 C 185.987 0.401568 -3.57653 0
M  V30 1971 C 185.595 -0.868907 -4.39493 0
M  V30 1972 C 187.339 0.942164 -4.13912 0
M  V30 1973 C 185.246 -0.632705 -5.88006 0
M  V30 1974 H 184.176 0.0773827 -0.750019 0
M  V30 1975 H 186.827 -0.50921 -1.76293 0
M  V30 1976 H 185.209 1.16954 -3.78335 0
M  V30 1977 H 186.383 -1.64133 -4.30577 0
M  V30 1978 H 184.698 -1.33429 -3.94443 0
M  V30 1979 H 187.295 1.13455 -5.22525 0
M  V30 1980 H 187.638 1.9106 -3.69867 0
M  V30 1981 H 188.171 0.233814 -3.97112 0
M  V30 1982 H 184.91 -1.57208 -6.36369 0
M  V30 1983 H 184.43 0.100825 -5.99715 0
M  V30 1984 H 186.109 -0.26642 -6.46451 0
M  V30 1985 N 186.241 1.57166 -0.116904 0
M  V30 1986 C 187.171 2.18222 0.830759 0
M  V30 1987 C 188.152 1.12167 1.27877 0
M  V30 1988 O 189.337 1.40394 1.34176 0
M  V30 1989 C 186.467 2.77996 2.08172 0
M  V30 1990 C 185.421 3.89614 1.77157 0
M  V30 1991 C 184.747 4.36187 3.09265 0
M  V30 1992 C 186.047 5.1181 1.04151 0
M  V30 1993 H 187.741 2.97664 0.321992 0
M  V30 1994 H 185.287 1.4318 0.153434 0
M  V30 1995 H 187.24 3.19366 2.74924 0
M  V30 1996 H 185.964 1.9584 2.6137 0
M  V30 1997 H 184.623 3.48816 1.12796 0
M  V30 1998 H 184.271 3.50893 3.60393 0
M  V30 1999 H 183.971 5.11455 2.89288 0
M  V30 2000 H 185.495 4.80207 3.77139 0
M  V30 2001 H 186.909 5.50214 1.61052 0
M  V30 2002 H 185.306 5.92648 0.942762 0
M  V30 2003 H 186.376 4.84892 0.0279022 0
M  V30 2004 N 187.719 -0.156864 1.56817 0
M  V30 2005 C 188.667 -1.21319 1.98455 0
M  V30 2006 C 189.661 -1.45025 0.875444 0
M  V30 2007 O 190.867 -1.45435 1.0606 0
M  V30 2008 H 187.242 -0.408142 0.631605 0
M  V30 2009 H 189.213 -0.835244 2.86472 0
M  V30 2010 C 187.962 -2.54148 2.37285 0
M  V30 2011 H 187.285 -2.36733 3.22176 0
M  V30 2012 H 188.725 -3.26712 2.70251 0
M  V30 2013 C 187.184 -3.13967 1.22173 0
M  V30 2014 O 187.714 -3.98357 0.517149 0
M  V30 2015 N 185.92 -2.7327 0.988536 0
M  V30 2016 H 185.467 -2.04744 1.56326 0
M  V30 2017 H 185.425 -3.13628 0.220209 0
M  V30 2018 N 189.197 -1.51736 -0.425897 0
M  V30 2019 C 190.444 -1.6497 -1.17436 0
M  V30 2020 C 190.772 -0.371445 -1.9092 0
M  V30 2021 O 190.027 0.644963 -1.84767 0
M  V30 2022 C 190.326 -2.81103 -2.20717 0
M  V30 2023 C 189.992 -4.19954 -1.64162 0
M  V30 2024 C 188.654 -4.57725 -1.48462 0
M  V30 2025 C 191.006 -5.06552 -1.22696 0
M  V30 2026 C 188.334 -5.79789 -0.897873 0
M  V30 2027 C 190.686 -6.29205 -0.654464 0
M  V30 2028 C 189.35 -6.6574 -0.484456 0
M  V30 2029 H 188.62 -0.603668 -0.429727 0
M  V30 2030 H 191.267 -1.85798 -0.463829 0
M  V30 2031 H 189.572 -2.54542 -2.97852 0
M  V30 2032 H 191.269 -2.8854 -2.78471 0
M  V30 2033 H 187.859 -3.90181 -1.77361 0
M  V30 2034 H 192.043 -4.77968 -1.33642 0
M  V30 2035 H 187.299 -6.06733 -0.75402 0
M  V30 2036 H 191.473 -6.95643 -0.324694 0
M  V30 2037 H 189.1 -7.60195 -0.0276833 0
M  V30 2038 N 190.675 0.682077 -1.42076 0
M  V30 2039 C 191.585 1.82535 -1.47371 0
M  V30 2040 C 192.601 1.7017 -0.363079 0
M  V30 2041 O 193.777 1.91848 -0.612875 0
M  V30 2042 C 190.842 3.18624 -1.36674 0
M  V30 2043 C 189.903 3.42999 -2.58167 0
M  V30 2044 C 189.136 4.72595 -2.4797 0
M  V30 2045 O 189.359 5.50006 -1.5116 0
M  V30 2046 O 188.293 4.98054 -3.37974 0
M  V30 2047 H 192.119 1.81023 -2.43853 0
M  V30 2048 H 189.704 0.836887 -1.2376 0
M  V30 2049 H 191.586 3.99847 -1.33043 0
M  V30 2050 H 190.261 3.20789 -0.433138 0
M  V30 2051 H 189.168 2.61653 -2.67373 0
M  V30 2052 H 190.501 3.45659 -3.50401 0
M  V30 2053 N 192.153 1.28127 0.917671 0
M  V30 2054 C 193.399 1.15223 1.66888 0
M  V30 2055 C 193.732 -0.299293 1.9188 0
M  V30 2056 O 193.007 -1.21805 1.51637 0
M  V30 2057 C 193.29 1.94706 3.02922 0
M  V30 2058 C 193.143 3.47898 2.85109 0
M  V30 2059 C 194.462 1.75939 4.03402 0
M  V30 2060 H 191.581 0.419946 0.605652 0
M  V30 2061 H 194.223 1.57398 1.06423 0
M  V30 2062 H 192.373 1.58864 3.54534 0
M  V30 2063 H 194.045 3.93624 2.40537 0
M  V30 2064 H 192.288 3.7373 2.20246 0
M  V30 2065 H 192.959 3.98765 3.81694 0
M  V30 2066 H 195.435 2.07209 3.60837 0
M  V30 2067 H 194.311 2.33931 4.96556 0
M  V30 2068 H 194.572 0.709877 4.36364 0
M  V30 2069 N 193.631 -1.12557 1.10312 0
M  V30 2070 C 194.877 -1.84311 0.846011 0
M  V30 2071 C 195.21 -1.83805 -0.626859 0
M  V30 2072 O 194.485 -1.28268 -1.46211 0
M  V30 2073 C 194.768 -3.32048 1.39341 0
M  V30 2074 C 194.621 -3.41016 2.93305 0
M  V30 2075 C 195.94 -4.27764 1.03468 0
M  V30 2076 H 193.059 -0.669192 0.30879 0
M  V30 2077 H 195.701 -1.32057 1.36605 0
M  V30 2078 H 193.851 -3.76678 0.951087 0
M  V30 2079 H 195.523 -3.05031 3.46055 0
M  V30 2080 H 193.766 -2.81603 3.29973 0
M  V30 2081 H 194.437 -4.44948 3.26689 0
M  V30 2082 H 196.913 -3.91253 1.41633 0
M  V30 2083 H 195.789 -5.29549 1.44463 0
M  V30 2084 H 196.05 -4.42064 -0.0560404 0
M  V30 2085 N 195.109 -0.891671 -1.2995 0
M  V30 2086 C 196.042 -0.307994 -2.26112 0
M  V30 2087 C 197.02 0.575262 -1.52084 0
M  V30 2088 O 198.204 0.523864 -1.81074 0
M  V30 2089 C 195.331 0.561734 -3.34009 0
M  V30 2090 C 194.377 -0.253107 -4.25748 0
M  V30 2091 S 195.21 -1.64572 -5.09584 0
M  V30 2092 C 196.366 -0.782699 -6.20987 0
M  V30 2093 H 196.599 -1.12309 -2.75271 0
M  V30 2094 H 194.132 -0.691509 -1.38049 0
M  V30 2095 H 196.09 1.05777 -3.96638 0
M  V30 2096 H 194.751 1.35099 -2.83561 0
M  V30 2097 H 193.944 0.410908 -5.02322 0
M  V30 2098 H 193.546 -0.682004 -3.67729 0
M  V30 2099 H 195.838 -0.00257476 -6.775 0
M  V30 2100 H 196.781 -1.52026 -6.91588 0
M  V30 2101 H 197.189 -0.340638 -5.63471 0
M  V30 2102 N 196.587 1.43421 -0.653314 0
M  V30 2103 C 197.497 2.34568 0.0388565 0
M  V30 2104 C 198.513 1.53888 0.81207 0
M  V30 2105 O 199.689 1.86539 0.759294 0
M  V30 2106 C 196.754 3.32167 0.993269 0
M  V30 2107 C 195.815 4.28751 0.216977 0
M  V30 2108 C 195.048 5.21688 1.12593 0
M  V30 2109 O 195.271 5.19052 2.36519 0
M  V30 2110 O 194.205 5.98919 0.598284 0
M  V30 2111 H 198.031 2.95251 -0.711386 0
M  V30 2112 H 195.616 1.43564 -0.413502 0
M  V30 2113 H 197.498 3.92183 1.54176 0
M  V30 2114 H 196.173 2.73987 1.72374 0
M  V30 2115 H 195.08 3.72215 -0.375101 0
M  V30 2116 H 196.413 4.89913 -0.473924 0
M  V30 2117 N 198.065 0.39524 1.52563 0
M  V30 2118 C 199.012 -0.437036 2.26624 0
M  V30 2119 C 199.982 -1.05281 1.28472 0
M  V30 2120 O 201.167 -1.07971 1.57311 0
M  V30 2121 C 198.307 -1.55524 3.08069 0
M  V30 2122 C 197.42 -0.961745 4.21158 0
M  V30 2123 C 196.555 -2.05149 4.89987 0
M  V30 2124 C 195.594 -1.4342 5.95061 0
M  V30 2125 N 194.731 -2.46351 6.57462 0
M  V30 2126 H 199.571 0.200976 2.97322 0
M  V30 2127 H 197.108 0.110944 1.46681 0
M  V30 2128 H 199.066 -2.21437 3.53584 0
M  V30 2129 H 197.696 -2.16348 2.3957 0
M  V30 2130 H 196.748 -0.192048 3.79915 0
M  V30 2131 H 198.06 -0.470701 4.96574 0
M  V30 2132 H 197.214 -2.78819 5.38837 0
M  V30 2133 H 195.953 -2.57615 4.14109 0
M  V30 2134 H 194.958 -0.682774 5.45544 0
M  V30 2135 H 196.183 -0.917416 6.72875 0
M  V30 2136 H 194.129 -2.97975 5.8442 0
M  V30 2137 H 194.046 -2.02019 7.28508 0
M  V30 2138 H 195.314 -3.19633 7.10954 0
M  V30 2139 N 199.544 -1.57102 0.125237 0
M  V30 2140 C 200.821 -1.86953 -0.575142 0
M  V30 2141 C 201.201 -1.02749 -1.84407 0
M  V30 2142 O 200.549 -0.108144 -2.28244 0
M  V30 2143 C 200.759 -3.38198 -0.861583 0
M  V30 2144 C 202.107 -4.06937 -1.21192 0
M  V30 2145 O 203.131 -3.43252 -0.951645 0
M  V30 2146 O 201.99 -5.19364 -1.70068 0
M  V30 2147 H 199.084 -0.774147 -0.290906 0
M  V30 2148 H 201.63 -1.68942 0.160211 0
M  V30 2149 H 200.402 -3.91282 0.0373647 0
M  V30 2150 H 200.025 -3.61661 -1.65188 0
M  V30 2151 N 201.022 0.148545 -1.56898 0
M  V30 2152 C 201.955 1.21293 -1.93296 0
M  V30 2153 C 202.933 1.41637 -0.798599 0
M  V30 2154 O 204.117 1.56275 -1.05406 0
M  V30 2155 C 201.244 2.5721 -2.20365 0
M  V30 2156 C 200.29 2.53469 -3.4301 0
M  V30 2157 S 201.123 2.00315 -4.96623 0
M  V30 2158 C 202.279 3.37964 -5.26812 0
M  V30 2159 H 202.512 0.902393 -2.83274 0
M  V30 2160 H 200.045 0.354094 -1.50285 0
M  V30 2161 H 202.003 3.35427 -2.36641 0
M  V30 2162 H 200.664 2.85454 -1.31054 0
M  V30 2163 H 199.857 3.53518 -3.59223 0
M  V30 2164 H 199.459 1.83359 -3.25968 0
M  V30 2165 H 201.751 4.34066 -5.20185 0
M  V30 2166 H 202.694 3.26606 -6.28279 0
M  V30 2167 H 203.102 3.35028 -4.54331 0
M  V30 2168 N 202.5 1.5196 0.417844 0
M  V30 2169 C 203.746 1.65836 1.16732 0
M  V30 2170 C 204.079 0.382881 1.90388 0
M  V30 2171 O 203.354 -0.618368 1.84408 0
M  V30 2172 C 203.637 2.87466 2.16876 0
M  V30 2173 C 203.49 4.25041 1.47174 0
M  V30 2174 C 204.809 3.04613 3.17646 0
M  V30 2175 H 201.928 0.603515 0.423011 0
M  V30 2176 H 204.57 1.84494 0.454105 0
M  V30 2177 H 202.72 2.71689 2.777 0
M  V30 2178 H 204.392 4.52527 0.895376 0
M  V30 2179 H 202.635 4.26843 0.773806 0
M  V30 2180 H 203.306 5.06176 2.20204 0
M  V30 2181 H 205.782 3.1923 2.66892 0
M  V30 2182 H 204.658 3.91247 3.8499 0
M  V30 2183 H 204.919 2.17541 3.84874 0
M  V30 2184 N 203.978 -0.674533 1.42435 0
M  V30 2185 C 205.226 -1.43175 1.42637 0
M  V30 2186 C 205.547 -1.94951 0.0438992 0
M  V30 2187 O 204.817 -1.7308 -0.917607 0
M  V30 2188 H 203.397 -0.531307 0.525092 0
M  V30 2189 H 206.059 -0.797006 1.77859 0
M  V30 2190 H 205.155 -2.28463 2.12629 0
M  V30 2191 N 205.456 -1.28612 -0.910864 0
M  V30 2192 C 206.681 -1.1891 -1.69927 0
M  V30 2193 C 207.106 0.248372 -1.86453 0
M  V30 2194 O 206.464 1.17961 -1.37676 0
M  V30 2195 C 206.512 -1.89578 -3.06745 0
M  V30 2196 O 205.616 -1.20521 -3.94396 0
M  V30 2197 H 204.957 -0.412632 -0.520222 0
M  V30 2198 H 207.487 -1.69985 -1.1387 0
M  V30 2199 H 207.497 -1.97597 -3.56958 0
M  V30 2200 H 206.172 -2.94136 -2.94035 0
M  V30 2201 H 204.749 -1.20684 -3.52831 0
M  V30 2202 N 206.934 1.1197 -1.10907 0
M  V30 2203 C 208.345 1.65114 -0.871446 0
M  V30 2204 C 208.696 1.86885 0.597353 0
M  V30 2205 O 207.821 1.59896 1.45816 0
M  V30 2206 C 208.416 2.99944 -1.5754 0
M  V30 2207 C 206.975 3.50018 -1.38435 0
M  V30 2208 C 206.122 2.24941 -1.62164 0
M  V30 2209 H 209.073 0.956851 -1.2661 0
M  V30 2210 H 209.094 3.66651 -1.01721 0
M  V30 2211 H 208.606 2.84067 -2.64438 0
M  V30 2212 H 206.707 3.71071 -0.337214 0
M  V30 2213 H 206.82 4.29165 -2.12965 0
M  V30 2214 H 205.184 2.3229 -1.04467 0
M  V30 2215 H 205.967 2.11612 -2.70324 0
M  V30 2216 N 208.412 0.89855 1.29475 0
M  V30 2217 C 209.375 0.380272 2.26023 0
M  V30 2218 C 210.375 -0.484891 1.53315 0
M  V30 2219 O 211.565 -0.290108 1.71767 0
M  V30 2220 C 208.697 -0.45651 3.3783 0
M  V30 2221 H 209.89 1.23295 2.73383 0
M  V30 2222 H 207.443 0.676589 1.40897 0
M  V30 2223 H 208.178 -1.32922 2.95808 0
M  V30 2224 H 207.963 0.163393 3.91759 0
M  V30 2225 H 209.453 -0.810466 4.0966 0
M  V30 2226 N 209.89 -1.43072 0.660911 0
M  V30 2227 C 210.84 -2.27948 -0.04847 0
M  V30 2228 C 211.824 -1.40325 -0.787246 0
M  V30 2229 O 213.016 -1.63893 -0.668446 0
M  V30 2230 C 210.145 -3.28143 -1.00881 0
M  V30 2231 C 209.231 -4.23252 -0.268108 0
M  V30 2232 N 209.622 -5.00656 0.719528 0
M  V30 2233 C 207.92 -4.43092 -0.508493 0
M  V30 2234 C 208.621 -5.70019 1.15988 0
M  V30 2235 N 207.597 -5.41364 0.492584 0
M  V30 2236 H 211.399 -2.85213 0.709279 0
M  V30 2237 H 208.913 -1.54869 0.488822 0
M  V30 2238 H 210.91 -3.87736 -1.53188 0
M  V30 2239 H 209.57 -2.7244 -1.76654 0
M  V30 2240 H 210.581 -5.06115 1.09855 0
M  V30 2241 H 207.258 -3.98449 -1.24679 0
M  V30 2242 H 208.648 -6.4214 1.97751 0
M  V30 2243 N 211.368 -0.403325 -1.52352 0
M  V30 2244 C 212.645 0.232611 -1.94212 0
M  V30 2245 C 213.025 1.63133 -1.33981 0
M  V30 2246 O 212.373 2.22659 -0.513344 0
M  V30 2247 C 212.583 0.244811 -3.4814 0
M  V30 2248 C 213.931 0.46698 -4.22024 0
M  V30 2249 O 214.955 0.324419 -3.5472 0
M  V30 2250 O 213.814 0.74747 -5.41364 0
M  V30 2251 H 210.908 0.148223 -0.813609 0
M  V30 2252 H 213.454 -0.458848 -1.63379 0
M  V30 2253 H 212.226 -0.734378 -3.84347 0
M  V30 2254 H 211.849 0.980611 -3.85318 0
M  V30 2255 N 212.846 1.57033 -0.133567 0
M  V30 2256 C 214.074 2.00044 0.528195 0
M  V30 2257 C 214.489 1.01349 1.59291 0
M  V30 2258 O 213.846 0.00848369 1.82498 0
M  V30 2259 C 213.897 3.43018 1.1411 0
M  V30 2260 O 213.618 4.37939 0.11892 0
M  V30 2261 C 215.119 4.01237 1.88477 0
M  V30 2262 H 212.339 0.656517 0.138661 0
M  V30 2263 H 214.883 2.03267 -0.224196 0
M  V30 2264 H 213.038 3.40688 1.84418 0
M  V30 2265 H 213.452 5.21436 0.56613 0
M  V30 2266 H 214.926 5.03314 2.26669 0
M  V30 2267 H 215.403 3.41193 2.76558 0
M  V30 2268 H 216.009 4.07156 1.22898 0
M  V30 2269 N 214.325 -0.140222 1.56975 0
M  V30 2270 C 215.273 -1.19207 1.99731 0
M  V30 2271 C 216.267 -1.44089 0.890777 0
M  V30 2272 O 217.473 -1.44301 1.07597 0
M  V30 2273 H 213.848 -0.40142 0.635898 0
M  V30 2274 H 215.819 -0.804813 2.87342 0
M  V30 2275 C 214.568 -2.51617 2.39967 0
M  V30 2276 H 213.891 -2.33303 3.24669 0
M  V30 2277 H 215.331 -3.23827 2.73701 0
M  V30 2278 C 213.79 -3.12654 1.25496 0
M  V30 2279 O 214.32 -3.97786 0.559371 0
M  V30 2280 N 212.526 -2.72206 1.01746 0
M  V30 2281 H 212.073 -2.03074 1.58489 0
M  V30 2282 H 212.031 -3.13377 0.253461 0
M  V30 2283 N 215.803 -1.52179 -0.40978 0
M  V30 2284 C 216.753 -1.71857 -1.49831 0
M  V30 2285 C 217.737 -0.572469 -1.50372 0
M  V30 2286 O 218.929 -0.829509 -1.56359 0
M  V30 2287 C 216.058 -1.87206 -2.87765 0
M  V30 2288 C 215.144 -3.07685 -2.91875 0
M  V30 2289 N 215.535 -4.30403 -2.65683 0
M  V30 2290 C 213.833 -3.07505 -3.23043 0
M  V30 2291 C 214.534 -5.11868 -2.76344 0
M  V30 2292 N 213.51 -4.47101 -3.09195 0
M  V30 2293 H 217.312 -2.64381 -1.28375 0
M  V30 2294 H 214.826 -1.50203 -0.617479 0
M  V30 2295 H 216.823 -1.99419 -3.66111 0
M  V30 2296 H 215.483 -0.958814 -3.10221 0
M  V30 2297 H 216.494 -4.58887 -2.4009 0
M  V30 2298 H 213.171 -2.25915 -3.51096 0
M  V30 2299 H 214.561 -6.19634 -2.59814 0
M  V30 2300 N 217.281 0.66697 -1.42791 0
M  V30 2301 C 218.697 0.981027 -1.25889 0
M  V30 2302 C 218.897 2.00793 -0.168695 0
M  V30 2303 O 217.953 2.48321 0.45747 0
M  V30 2304 C 219.266 1.47838 -2.61848 0
M  V30 2305 C 220.814 1.59575 -2.69267 0
M  V30 2306 C 221.289 2.12704 -4.05612 0
M  V30 2307 N 222.78 2.20026 -4.07606 0
M  V30 2308 C 223.515 2.62227 -5.09926 0
M  V30 2309 N 223.011 3.03824 -6.22626 0
M  V30 2310 N 224.804 2.62045 -4.97281 0
M  V30 2311 H 216.955 -0.0127891 -2.12396 0
M  V30 2312 H 219.218 0.0568258 -0.946295 0
M  V30 2313 H 218.924 0.798299 -3.4252 0
M  V30 2314 H 218.798 2.45579 -2.86305 0
M  V30 2315 H 221.185 2.26687 -1.88936 0
M  V30 2316 H 221.266 0.60302 -2.48591 0
M  V30 2317 H 220.91 1.46198 -4.86404 0
M  V30 2318 H 220.84 3.12782 -4.23645 0
M  V30 2319 H 223.331 1.90708 -3.2625 0
M  V30 2320 H 223.644 3.34734 -6.96544 0
M  V30 2321 H 221.989 3.01662 -6.26119 0
M  V30 2322 H 225.18 2.28916 -4.08308 0
M  V30 2323 H 225.353 2.94613 -5.77154 0
M  V30 2324 N 218.759 1.29093 0.90403 0
M  V30 2325 C 220.007 1.16583 1.65085 0
M  V30 2326 C 220.328 -0.283933 1.92922 0
M  V30 2327 O 219.598 -1.19509 1.55224 0
M  V30 2328 H 218.178 0.428467 0.611903 0
M  V30 2329 H 220.84 1.61959 1.08422 0
M  V30 2330 H 219.936 1.71266 2.6091 0
M  V30 2331 N 220.237 -1.11381 1.11499 0
M  V30 2332 C 221.648 -1.6465 0.880191 0
M  V30 2333 C 221.999 -1.87199 -0.587434 0
M  V30 2334 O 221.124 -1.60667 -1.44966 0
M  V30 2335 C 221.719 -2.99105 1.59128 0
M  V30 2336 C 220.278 -3.49279 1.40289 0
M  V30 2337 C 219.425 -2.24077 1.63354 0
M  V30 2338 H 222.376 -0.950123 1.27116 0
M  V30 2339 H 222.397 -3.66107 1.03664 0
M  V30 2340 H 221.909 -2.82661 2.65941 0
M  V30 2341 H 220.01 -3.70887 0.356888 0
M  V30 2342 H 220.123 -4.2803 2.15238 0
M  V30 2343 H 218.487 -2.31733 1.05698 0
M  V30 2344 H 219.27 -2.10175 2.71443 0
M  V30 2345 N 221.715 -0.905404 -1.28997 0
M  V30 2346 C 223.126 -0.581953 -1.77398 0
M  V30 2347 C 223.477 0.902552 -1.74208 0
M  V30 2348 O 222.602 1.70584 -1.33154 0
M  V30 2349 C 223.197 -1.04961 -3.22131 0
M  V30 2350 C 221.756 -0.777229 -3.68288 0
M  V30 2351 C 220.903 -1.22109 -2.48967 0
M  V30 2352 H 223.854 -1.08754 -1.15578 0
M  V30 2353 H 223.875 -0.387387 -3.78523 0
M  V30 2354 H 223.387 -2.13008 -3.24421 0
M  V30 2355 H 221.488 0.290383 -3.71467 0
M  V30 2356 H 221.601 -1.37911 -4.58822 0
M  V30 2357 H 219.965 -0.639971 -2.46529 0
M  V30 2358 H 220.748 -2.30972 -2.53982 0
M  V30 2359 N 223.193 1.4272 -0.668489 0
M  V30 2360 C 224.421 2.05966 -0.196348 0
M  V30 2361 C 224.836 1.50191 1.14403 0
M  V30 2362 O 224.193 0.639208 1.7094 0
M  V30 2363 C 224.244 3.61314 -0.115815 0
M  V30 2364 O 223.965 4.1502 -1.40322 0
M  V30 2365 C 225.466 4.41663 0.380579 0
M  V30 2366 H 222.686 0.663954 -0.0969829 0
M  V30 2367 H 225.23 1.82966 -0.913446 0
M  V30 2368 H 223.385 3.83448 0.551931 0
M  V30 2369 H 223.799 5.08832 -1.27243 0
M  V30 2370 H 225.273 5.5065 0.385848 0
M  V30 2371 H 225.75 4.15792 1.41471 0
M  V30 2372 H 226.356 4.24534 -0.255209 0
M  V30 2373 N 224.671 0.411399 1.52136 0
M  V30 2374 C 225.896 -0.165538 2.06738 0
M  V30 2375 C 226.321 -1.379 1.27926 0
M  V30 2376 O 225.679 -1.78628 0.310114 0
M  V30 2377 C 225.727 -0.492124 3.57226 0
M  V30 2378 O 224.831 -1.58276 3.80818 0
M  V30 2379 H 224.172 -0.0132132 0.663869 0
M  V30 2380 H 226.702 0.585253 1.96051 0
M  V30 2381 H 226.712 -0.750104 4.01045 0
M  V30 2382 H 225.387 0.394922 4.14021 0
M  V30 2383 H 223.964 -1.31677 3.48877 0
M  V30 2384 N 226.149 -1.5696 0.141893 0
M  V30 2385 C 227.395 -1.97034 -0.504884 0
M  V30 2386 C 227.75 -1.02518 -1.62812 0
M  V30 2387 O 227.043 -0.0592943 -1.91508 0
M  V30 2388 C 227.237 -3.41242 -1.06249 0
M  V30 2389 C 227.066 -4.497 0.00519653 0
M  V30 2390 C 225.836 -5.03338 0.444873 0
M  V30 2391 C 228.034 -5.08122 0.794767 0
M  V30 2392 N 226.016 -5.95395 1.49593 0
M  V30 2393 C 227.387 -5.96339 1.69645 0
M  V30 2394 C 229.442 -4.9071 0.843122 0
M  V30 2395 C 228.145 -6.69009 2.64233 0
M  V30 2396 C 230.171 -5.64077 1.77681 0
M  V30 2397 C 229.533 -6.51999 2.66603 0
M  V30 2398 H 225.632 -0.766745 -0.153707 0
M  V30 2399 H 228.216 -1.93273 0.235313 0
M  V30 2400 H 226.387 -3.45606 -1.77231 0
M  V30 2401 H 228.119 -3.68389 -1.67546 0
M  V30 2402 H 224.874 -4.73576 0.0480959 0
M  V30 2403 H 225.298 -6.46128 2.02107 0
M  V30 2404 H 229.94 -4.22459 0.169732 0
M  V30 2405 H 227.658 -7.36492 3.32575 0
M  V30 2406 H 231.244 -5.52602 1.81996 0
M  V30 2407 H 230.124 -7.07775 3.37675 0
M  V30 2408 N 227.627 0.131896 -1.57047 0
M  V30 2409 C 228.557 1.16384 -2.02428 0
M  V30 2410 C 229.538 1.43936 -0.90644 0
M  V30 2411 O 230.723 1.54599 -1.17528 0
M  V30 2412 C 227.853 2.49328 -2.4177 0
M  V30 2413 C 226.807 2.36266 -3.56879 0
M  V30 2414 C 226.133 3.74057 -3.8208 0
M  V30 2415 C 227.433 1.834 -4.89042 0
M  V30 2416 H 229.127 0.786433 -2.88887 0
M  V30 2417 H 226.673 0.376855 -1.38981 0
M  V30 2418 H 228.626 3.21759 -2.7212 0
M  V30 2419 H 227.35 2.88934 -1.52266 0
M  V30 2420 H 226.009 1.66286 -3.26718 0
M  V30 2421 H 225.657 4.11125 -2.89803 0
M  V30 2422 H 225.357 3.66174 -4.59554 0
M  V30 2423 H 226.881 4.48012 -4.1487 0
M  V30 2424 H 228.295 2.45636 -5.18011 0
M  V30 2425 H 226.692 1.8637 -5.70426 0
M  V30 2426 H 227.762 0.790662 -4.7841 0
M  V30 2427 N 229.106 1.52395 0.401703 0
M  V30 2428 C 230.069 1.75636 1.47257 0
M  V30 2429 C 231.069 0.62628 1.48103 0
M  V30 2430 O 232.259 0.894227 1.49497 0
M  V30 2431 C 229.391 1.84553 2.86624 0
M  V30 2432 H 230.584 2.71241 1.27938 0
M  V30 2433 H 228.137 1.42923 0.632662 0
M  V30 2434 H 228.872 0.908882 3.11303 0
M  V30 2435 H 228.657 2.66715 2.87412 0
M  V30 2436 H 230.147 2.04251 3.64241 0
M  V30 2437 N 230.584 -0.659388 1.43143 0
M  V30 2438 C 231.995 -1.24041 1.39537 0
M  V30 2439 C 232.346 -1.95963 0.0963364 0
M  V30 2440 O 231.471 -2.00892 -0.804438 0
M  V30 2441 C 232.066 -2.25601 2.52764 0
M  V30 2442 C 230.625 -2.79195 2.52443 0
M  V30 2443 C 229.772 -1.53743 2.30778 0
M  V30 2444 H 232.723 -0.451792 1.52133 0
M  V30 2445 H 232.744 -3.07651 2.23899 0
M  V30 2446 H 232.256 -1.73226 3.47296 0
M  V30 2447 H 230.357 -3.35649 1.61773 0
M  V30 2448 H 230.47 -3.2716 3.50004 0
M  V30 2449 H 228.834 -1.80869 1.79328 0
M  V30 2450 H 229.617 -1.03312 3.27386 0
M  V30 2451 N 232.062 -1.29571 -0.897171 0
M  V30 2452 C 233.31 -1.17456 -1.64464 0
M  V30 2453 C 233.631 0.273698 -1.9307 0
M  V30 2454 O 232.901 1.18684 -1.55855 0
M  V30 2455 H 231.481 -0.431706 -0.609622 0
M  V30 2456 H 234.143 -1.62531 -1.07562 0
M  V30 2457 H 233.239 -1.72648 -2.59998 0
M  V30 2458 N 233.54 1.10788 -1.12088 0
M  V30 2459 C 234.956 1.34691 -0.856186 0
M  V30 2460 C 235.156 1.94791 0.515615 0
M  V30 2461 O 234.212 2.18524 1.26505 0
M  V30 2462 C 235.525 2.27208 -1.9697 0
M  V30 2463 C 237.073 2.40755 -2.00016 0
M  V30 2464 C 237.548 3.36598 -3.1059 0
M  V30 2465 N 239.039 3.44164 -3.10008 0
M  V30 2466 C 239.774 4.18284 -3.92206 0
M  V30 2467 N 239.27 4.95322 -4.84384 0
M  V30 2468 N 241.063 4.13865 -3.80357 0
M  V30 2469 H 233.214 0.70144 -2.00483 0
M  V30 2470 H 235.477 0.371405 -0.872217 0
M  V30 2471 H 235.183 1.90251 -2.958 0
M  V30 2472 H 235.057 3.27485 -1.87172 0
M  V30 2473 H 237.444 2.76982 -1.01808 0
M  V30 2474 H 237.525 1.40305 -2.13888 0
M  V30 2475 H 237.169 3.01096 -4.09028 0
M  V30 2476 H 237.099 4.36918 -2.93956 0
M  V30 2477 H 239.59 2.8922 -2.43228 0
M  V30 2478 H 239.903 5.49267 -5.43623 0
M  V30 2479 H 238.248 4.94459 -4.884 0
M  V30 2480 H 241.439 3.52773 -3.07683 0
M  V30 2481 H 241.612 4.71372 -4.44649 0
M  V30 2482 N 235.018 0.912232 1.28515 0
M  V30 2483 C 235.981 0.404223 2.25607 0
M  V30 2484 C 236.981 -0.468602 1.53821 0
M  V30 2485 O 238.171 -0.271873 1.72065 0
M  V30 2486 C 235.303 -0.420653 3.38295 0
M  V30 2487 H 236.496 1.26188 2.7206 0
M  V30 2488 H 234.049 0.691495 1.40171 0
M  V30 2489 H 234.784 -1.29777 2.97201 0
M  V30 2490 H 234.569 0.204935 3.91564 0
M  V30 2491 H 236.059 -0.766971 4.10496 0
M  V30 2492 N 236.496 -1.42363 0.676048 0
M  V30 2493 C 237.443 -2.308 -0.00150904 0
M  V30 2494 C 238.413 -1.46032 -0.791444 0
M  V30 2495 O 239.598 -1.74861 -0.76344 0
M  V30 2496 C 236.738 -3.31883 -0.945919 0
M  V30 2497 C 235.851 -4.31741 -0.149675 0
M  V30 2498 C 234.986 -5.19898 -1.08995 0
M  V30 2499 C 234.025 -6.11434 -0.285465 0
M  V30 2500 N 233.162 -6.92138 -1.17851 0
M  V30 2501 H 238.002 -2.88187 0.758455 0
M  V30 2502 H 235.539 -1.41952 0.38576 0
M  V30 2503 H 237.497 -3.89019 -1.50731 0
M  V30 2504 H 236.127 -2.76093 -1.6725 0
M  V30 2505 H 235.179 -3.76713 0.528359 0
M  V30 2506 H 236.491 -4.96534 0.474866 0
M  V30 2507 H 235.645 -5.81772 -1.72123 0
M  V30 2508 H 234.384 -4.55284 -1.74837 0
M  V30 2509 H 233.389 -5.48627 0.359018 0
M  V30 2510 H 234.614 -6.78097 0.368883 0
M  V30 2511 H 232.56 -6.30152 -1.82332 0
M  V30 2512 H 232.477 -7.53542 -0.609082 0
M  V30 2513 H 233.745 -7.58499 -1.79722 0
M  V30 2514 N 237.974 -0.419461 -1.51915 0
M  V30 2515 C 239.202 0.152136 -2.0634 0
M  V30 2516 C 239.617 1.37988 -1.28859 0
M  V30 2517 O 238.974 1.79243 -0.343232 0
M  V30 2518 C 239.025 0.492266 -3.58133 0
M  V30 2519 O 238.746 -0.686736 -4.32684 0
M  V30 2520 C 240.247 1.11648 -4.2901 0
M  V30 2521 H 237.467 0.0158325 -0.670813 0
M  V30 2522 H 240.011 -0.593394 -1.95702 0
M  V30 2523 H 238.166 1.18769 -3.68745 0
M  V30 2524 H 238.58 -0.400341 -5.2297 0
M  V30 2525 H 240.054 1.3046 -5.36362 0
M  V30 2526 H 240.531 2.09251 -3.86148 0
M  V30 2527 H 241.137 0.460958 -4.22795 0
M  V30 2528 N 239.452 1.56882 -0.150215 0
M  V30 2529 C 240.699 1.96228 0.500093 0
M  V30 2530 C 241.027 1.03522 1.64661 0
M  V30 2531 O 240.282 0.0650683 1.95592 0
M  V30 2532 C 240.581 3.41801 1.04437 0
M  V30 2533 C 240.247 4.50897 0.0159671 0
M  V30 2534 C 238.909 4.8046 -0.266731 0
M  V30 2535 C 241.261 5.16703 -0.683192 0
M  V30 2536 C 238.589 5.73135 -1.25434 0
M  V30 2537 C 240.941 6.10441 -1.65964 0
M  V30 2538 C 239.605 6.38382 -1.95 0
M  V30 2539 H 238.875 0.718048 0.182997 0
M  V30 2540 H 241.522 1.90019 -0.237724 0
M  V30 2541 H 239.827 3.44857 1.85959 0
M  V30 2542 H 241.524 3.69573 1.55618 0
M  V30 2543 H 238.114 4.27891 0.246485 0
M  V30 2544 H 242.298 4.93993 -0.477983 0
M  V30 2545 H 237.554 5.93074 -1.48571 0
M  V30 2546 H 241.728 6.60507 -2.20689 0
M  V30 2547 H 239.355 7.09996 -2.71679 0
M  V30 2548 N 240.93 -0.123565 1.57115 0
M  V30 2549 C 242.346 -0.476961 1.52306 0
M  V30 2550 C 242.546 -1.82109 0.86248 0
M  V30 2551 O 241.602 -2.48586 0.442884 0
M  V30 2552 C 242.915 -0.465661 2.97073 0
M  V30 2553 C 244.463 -0.549534 3.08138 0
M  V30 2554 C 244.938 -0.568669 4.54456 0
M  V30 2555 N 246.429 -0.630237 4.58892 0
M  V30 2556 C 247.164 -0.666415 5.69514 0
M  V30 2557 N 246.66 -0.660514 6.89644 0
M  V30 2558 N 248.453 -0.709077 5.5761 0
M  V30 2559 H 240.604 0.757198 1.98445 0
M  V30 2560 H 242.867 0.278808 0.906074 0
M  V30 2561 H 242.573 0.454232 3.48754 0
M  V30 2562 H 242.447 -1.29513 3.54269 0
M  V30 2563 H 244.834 -1.45985 2.56461 0
M  V30 2564 H 244.915 0.307532 2.53945 0
M  V30 2565 H 244.559 0.337581 5.06777 0
M  V30 2566 H 244.489 -1.44256 5.06456 0
M  V30 2567 H 246.98 -0.641146 3.72421 0
M  V30 2568 H 247.293 -0.690616 7.69708 0
M  V30 2569 H 245.638 -0.628012 6.92157 0
M  V30 2570 H 248.829 -0.711019 4.62668 0
M  V30 2571 H 249.002 -0.733804 6.43832 0
M  V30 2572 N 242.408 -1.52605 -0.393616 0
M  V30 2573 C 243.338 -1.80022 -1.48709 0
M  V30 2574 C 244.319 -0.651995 -1.57108 0
M  V30 2575 O 245.504 -0.89913 -1.72132 0
M  V30 2576 C 242.634 -1.96492 -2.86371 0
M  V30 2577 C 241.588 -3.12161 -2.92813 0
M  V30 2578 C 240.914 -3.13877 -4.3288 0
M  V30 2579 C 242.214 -4.51322 -2.6288 0
M  V30 2580 H 243.908 -2.71589 -1.26015 0
M  V30 2581 H 241.454 -1.30684 -0.604778 0
M  V30 2582 H 243.407 -2.14255 -3.62867 0
M  V30 2583 H 242.131 -1.01611 -3.10391 0
M  V30 2584 H 240.79 -2.94173 -2.18764 0
M  V30 2585 H 240.438 -2.16687 -4.53933 0
M  V30 2586 H 240.138 -3.91576 -4.38112 0
M  V30 2587 H 241.662 -3.33789 -5.1129 0
M  V30 2588 H 243.076 -4.69435 -3.29096 0
M  V30 2589 H 241.473 -5.31053 -2.79468 0
M  V30 2590 H 242.543 -4.58353 -1.58242 0
M  V30 2591 N 243.887 0.651787 -1.4349 0
M  V30 2592 C 244.834 1.76462 -1.4876 0
M  V30 2593 C 245.804 1.62641 -0.337189 0
M  V30 2594 O 246.989 1.82864 -0.544544 0
M  V30 2595 C 244.129 3.14623 -1.41796 0
M  V30 2596 C 243.242 3.39568 -2.67053 0
M  V30 2597 C 242.377 4.67585 -2.52068 0
M  V30 2598 C 241.416 4.85639 -3.72587 0
M  V30 2599 N 240.553 6.04915 -3.56402 0
M  V30 2600 H 245.393 1.71293 -2.43849 0
M  V30 2601 H 242.93 0.835889 -1.21043 0
M  V30 2602 H 244.888 3.94496 -1.35753 0
M  V30 2603 H 243.518 3.18859 -0.50288 0
M  V30 2604 H 242.57 2.53783 -2.8337 0
M  V30 2605 H 243.882 3.48795 -3.56572 0
M  V30 2606 H 243.036 5.55586 -2.4374 0
M  V30 2607 H 241.775 4.60681 -1.60075 0
M  V30 2608 H 240.78 3.96073 -3.81321 0
M  V30 2609 H 242.005 4.94372 -4.65589 0
M  V30 2610 H 239.951 5.9914 -2.67146 0
M  V30 2611 H 239.868 6.15106 -4.39524 0
M  V30 2612 H 241.136 6.95533 -3.51929 0
M  V30 2613 N 245.365 1.30045 0.890287 0
M  V30 2614 C 246.295 1.18541 2.01172 0
M  V30 2615 C 247.276 0.0773356 1.69924 0
M  V30 2616 O 248.461 0.25845 1.92473 0
M  V30 2617 C 245.591 0.870941 3.36202 0
M  V30 2618 C 244.545 1.93637 3.81692 0
M  V30 2619 C 243.871 1.475 5.13953 0
M  V30 2620 C 245.171 3.34666 4.00994 0
M  V30 2621 H 246.865 2.12359 2.11054 0
M  V30 2622 H 244.411 1.02238 1.01407 0
M  V30 2623 H 246.364 0.777141 4.14172 0
M  V30 2624 H 245.088 -0.102926 3.26438 0
M  V30 2625 H 243.747 2.01972 3.05946 0
M  V30 2626 H 243.395 0.489551 5.00612 0
M  V30 2627 H 243.095 2.1876 5.4536 0
M  V30 2628 H 244.619 1.39489 5.94454 0
M  V30 2629 H 246.033 3.2912 4.69417 0
M  V30 2630 H 244.43 4.03966 4.43769 0
M  V30 2631 H 245.5 3.76949 3.05021 0
M  V30 2632 N 246.843 -1.10192 1.12674 0
M  V30 2633 C 248.254 -1.63707 0.897604 0
M  V30 2634 C 248.605 -1.87812 -0.567546 0
M  V30 2635 O 247.73 -1.62196 -1.43253 0
M  V30 2636 C 248.325 -2.974 1.62292 0
M  V30 2637 C 246.884 -3.47772 1.43986 0
M  V30 2638 C 246.031 -2.22332 1.65722 0
M  V30 2639 H 248.982 -0.936587 1.28116 0
M  V30 2640 H 249.003 -3.64986 1.07541 0
M  V30 2641 H 248.515 -2.79824 2.68924 0
M  V30 2642 H 246.616 -3.70487 0.396206 0
M  V30 2643 H 246.729 -4.25723 2.19765 0
M  V30 2644 H 245.093 -2.30599 1.08149 0
M  V30 2645 H 245.876 -2.07285 2.73657 0
M  V30 2646 N 248.321 -0.919034 -1.28029 0
M  V30 2647 C 249.284 -0.416182 -2.2539 0
M  V30 2648 C 250.284 0.460438 -1.54067 0
M  V30 2649 O 251.474 0.262744 -1.72207 0
M  V30 2650 C 248.606 0.402707 -3.38513 0
M  V30 2651 H 249.799 -1.27629 -2.71387 0
M  V30 2652 H 247.352 -0.698919 -1.39803 0
M  V30 2653 H 248.087 1.282 -2.97885 0
M  V30 2654 H 247.872 -0.225698 -3.9145 0
M  V30 2655 H 249.362 0.745191 -4.10897 0
M  V30 2656 N 249.799 1.42003 -0.683588 0
M  V30 2657 C 250.729 2.33487 -0.024866 0
M  V30 2658 C 251.71 1.51163 0.779975 0
M  V30 2659 O 252.895 1.79739 0.735362 0
M  V30 2660 C 250.025 3.3487 0.920836 0
M  V30 2661 C 248.979 4.27414 0.223958 0
M  V30 2662 C 248.305 5.19074 1.2832 0
M  V30 2663 C 249.605 5.14445 -0.90242 0
M  V30 2664 H 251.299 2.88819 -0.788921 0
M  V30 2665 H 248.845 1.38873 -0.38083 0
M  V30 2666 H 250.798 3.97787 1.39081 0
M  V30 2667 H 249.522 2.77861 1.71642 0
M  V30 2668 H 248.181 3.65904 -0.225864 0
M  V30 2669 H 247.829 4.58387 2.071 0
M  V30 2670 H 247.529 5.81822 0.821995 0
M  V30 2671 H 249.053 5.84867 1.75392 0
M  V30 2672 H 250.467 5.70998 -0.513272 0
M  V30 2673 H 248.864 5.86072 -1.28997 0
M  V30 2674 H 249.934 4.52322 -1.74737 0
M  V30 2675 N 251.277 0.427512 1.51691 0
M  V30 2676 C 252.207 -0.3796 2.30394 0
M  V30 2677 C 253.188 -1.02982 1.35384 0
M  V30 2678 O 254.373 -1.03534 1.643 0
M  V30 2679 C 251.503 -1.48649 3.1388 0
M  V30 2680 C 250.457 -0.960294 4.17088 0
M  V30 2681 C 249.783 -2.16219 4.89033 0
M  V30 2682 C 251.083 -0.00153679 5.223 0
M  V30 2683 H 252.777 0.277164 2.98114 0
M  V30 2684 H 250.323 0.134739 1.43368 0
M  V30 2685 H 252.276 -2.05826 3.67714 0
M  V30 2686 H 251 -2.1714 2.43962 0
M  V30 2687 H 249.659 -0.410806 3.64291 0
M  V30 2688 H 249.307 -2.83307 4.15628 0
M  V30 2689 H 249.007 -1.81654 5.58816 0
M  V30 2690 H 250.531 -2.73968 5.45687 0
M  V30 2691 H 251.945 -0.482687 5.71264 0
M  V30 2692 H 250.342 0.256199 5.99553 0
M  V30 2693 H 251.412 0.938174 4.75738 0
M  V30 2694 N 252.755 -1.56801 0.158532 0
M  V30 2695 C 253.718 -2.16138 -0.762705 0
M  V30 2696 C 254.718 -1.1061 -1.16713 0
M  V30 2697 O 255.908 -1.36191 -1.08617 0
M  V30 2698 C 253.04 -2.73386 -2.03649 0
M  V30 2699 H 254.233 -2.98886 -0.246354 0
M  V30 2700 H 251.786 -1.56035 -0.0909744 0
M  V30 2701 H 252.521 -1.94335 -2.59623 0
M  V30 2702 H 252.306 -3.50601 -1.75559 0
M  V30 2703 H 253.796 -3.19065 -2.6942 0
M  V30 2704 N 254.233 0.115231 -1.57178 0
M  V30 2705 C 255.163 1.1423 -2.03651 0
M  V30 2706 C 256.144 1.42967 -0.921655 0
M  V30 2707 O 257.329 1.53343 -1.19162 0
M  V30 2708 C 254.459 2.4675 -2.44401 0
M  V30 2709 C 253.413 2.32467 -3.59365 0
M  V30 2710 C 252.739 3.69984 -3.86026 0
M  V30 2711 C 254.039 1.78203 -4.90959 0
M  V30 2712 H 255.733 0.755749 -2.89705 0
M  V30 2713 H 253.279 0.362093 -1.39373 0
M  V30 2714 H 255.232 3.18854 -2.75517 0
M  V30 2715 H 253.956 2.87302 -1.55322 0
M  V30 2716 H 252.615 1.62811 -3.28463 0
M  V30 2717 H 252.263 4.08028 -2.94147 0
M  V30 2718 H 251.963 3.61279 -4.63412 0
M  V30 2719 H 253.487 4.43587 -4.19599 0
M  V30 2720 H 254.901 2.40128 -5.20587 0
M  V30 2721 H 253.298 1.8031 -5.72371 0
M  V30 2722 H 254.368 0.739876 -4.79222 0
M  V30 2723 N 255.711 1.52812 0.385517 0
M  V30 2724 C 256.939 1.71907 1.15133 0
M  V30 2725 C 257.354 0.439004 1.83625 0
M  V30 2726 O 256.711 -0.586765 1.7281 0
M  V30 2727 C 256.762 2.87099 2.19673 0
M  V30 2728 O 256.483 4.10151 1.53973 0
M  V30 2729 C 257.984 3.17902 3.08955 0
M  V30 2730 H 255.204 0.575479 0.345057 0
M  V30 2731 H 257.748 1.99476 0.45052 0
M  V30 2732 H 255.903 2.61982 2.85384 0
M  V30 2733 H 256.317 4.74514 2.23465 0
M  V30 2734 H 257.791 4.01959 3.7833 0
M  V30 2735 H 258.268 2.3243 3.72657 0
M  V30 2736 H 258.874 3.44871 2.48885 0
M  V30 2737 N 257.189 -0.644168 1.43834 0
M  V30 2738 C 258.152 -1.73857 1.49353 0
M  V30 2739 C 259.152 -1.56315 0.377112 0
M  V30 2740 O 260.342 -1.62048 0.639226 0
M  V30 2741 C 257.474 -3.12819 1.35488 0
M  V30 2742 H 258.667 -1.70342 2.46827 0
M  V30 2743 H 256.22 -0.856652 1.30733 0
M  V30 2744 H 256.955 -3.2194 0.390569 0
M  V30 2745 H 256.74 -3.26958 2.16428 0
M  V30 2746 H 258.23 -3.92606 1.42302 0
M  V30 2747 N 258.668 -1.30515 -0.883378 0
M  V30 2748 C 260.084 -1.08881 -1.16692 0
M  V30 2749 C 260.284 0.149409 -2.00945 0
M  V30 2750 O 259.34 0.84257 -2.38027 0
M  V30 2751 C 260.653 -2.35319 -1.87204 0
M  V30 2752 C 262.201 -2.40799 -1.99962 0
M  V30 2753 C 262.676 -3.67083 -2.73887 0
M  V30 2754 N 264.167 -3.679 -2.81432 0
M  V30 2755 C 264.902 -4.62303 -3.3921 0
M  V30 2756 N 264.398 -5.67052 -3.98025 0
M  V30 2757 N 266.191 -4.49845 -3.3704 0
M  V30 2758 H 258.342 -2.09951 -0.321633 0
M  V30 2759 H 260.605 -0.92556 -0.205043 0
M  V30 2760 H 260.311 -3.25689 -1.3274 0
M  V30 2761 H 260.185 -2.44089 -2.87577 0
M  V30 2762 H 262.572 -1.50907 -2.53597 0
M  V30 2763 H 262.653 -2.36003 -0.98673 0
M  V30 2764 H 262.297 -4.57334 -2.20925 0
M  V30 2765 H 262.227 -3.69141 -3.75556 0
M  V30 2766 H 264.718 -2.92171 -2.39676 0
M  V30 2767 H 265.031 -6.35184 -4.40183 0
M  V30 2768 H 263.376 -5.70842 -3.96439 0
M  V30 2769 H 266.567 -3.67194 -2.90321 0
M  V30 2770 H 266.74 -5.23597 -3.81772 0
M  V30 2771 N 260.146 1.09593 -1.13257 0
M  V30 2772 C 261.056 2.19739 -0.821691 0
M  V30 2773 C 262.072 1.72926 0.19302 0
M  V30 2774 O 263.248 2.01385 0.0244895 0
M  V30 2775 C 260.313 3.45482 -0.290333 0
M  V30 2776 C 259.374 4.06985 -1.36607 0
M  V30 2777 C 258.607 5.26726 -0.859975 0
M  V30 2778 O 258.83 5.69594 0.303082 0
M  V30 2779 O 257.764 5.7931 -1.63351 0
M  V30 2780 H 261.59 2.48781 -1.74189 0
M  V30 2781 H 259.175 1.18496 -0.909894 0
M  V30 2782 H 261.057 4.214 0.000674022 0
M  V30 2783 H 259.732 3.18047 0.602306 0
M  V30 2784 H 258.639 3.32712 -1.71037 0
M  V30 2785 H 259.972 4.38643 -2.23279 0
M  V30 2786 N 261.624 0.925811 1.2754 0
M  V30 2787 C 262.849 0.580924 1.99098 0
M  V30 2788 C 263.274 -0.833555 1.68622 0
M  V30 2789 O 262.632 -1.55903 0.925422 0
M  V30 2790 C 262.68 0.811186 3.51358 0
M  V30 2791 O 261.784 -0.124129 4.12213 0
M  V30 2792 H 261.125 0.223873 0.625122 0
M  V30 2793 H 263.655 1.24455 1.62395 0
M  V30 2794 H 263.665 0.72601 4.01489 0
M  V30 2795 H 262.34 1.84227 3.72872 0
M  V30 2796 H 260.917 0.0108006 3.72898 0
M  V30 2797 N 263.102 -1.41638 0.69111 0
M  V30 2798 C 264.327 -2.06148 0.227583 0
M  V30 2799 C 264.752 -1.51652 -1.11281 0
M  V30 2800 O 264.11 -0.64164 -1.69566 0
M  V30 2801 C 264.158 -3.60095 0.190858 0
M  V30 2802 O 263.262 -4.03845 -0.835664 0
M  V30 2803 H 262.603 -0.654434 0.112306 0
M  V30 2804 H 265.133 -1.81484 0.944714 0
M  V30 2805 H 265.143 -4.07995 0.020207 0
M  V30 2806 H 263.818 -3.99129 1.16915 0
M  V30 2807 H 262.395 -3.67458 -0.63473 0
M  V30 2808 N 264.58 -0.43555 -1.51462 0
M  V30 2809 C 265.826 0.131709 -2.02372 0
M  V30 2810 C 266.159 1.42516 -1.3192 0
M  V30 2811 O 265.434 1.89606 -0.433573 0
M  V30 2812 C 265.717 0.352301 -3.58373 0
M  V30 2813 C 265.57 -0.959676 -4.39443 0
M  V30 2814 C 266.889 1.12286 -4.25535 0
M  V30 2815 H 264.008 0.0463936 -0.735538 0
M  V30 2816 H 266.65 -0.574197 -1.81116 0
M  V30 2817 H 264.8 0.9536 -3.76615 0
M  V30 2818 H 266.472 -1.59482 -4.32855 0
M  V30 2819 H 264.715 -1.56468 -4.04599 0
M  V30 2820 H 265.386 -0.759394 -5.46752 0
M  V30 2821 H 267.862 0.613545 -4.11552 0
M  V30 2822 H 266.738 1.24598 -5.34571 0
M  V30 2823 H 266.999 2.15048 -3.86273 0
M  V30 2824 N 266.058 1.56714 -0.166846 0
M  V30 2825 C 267.474 1.58473 0.189372 0
M  V30 2826 C 267.674 1.18201 1.63189 0
M  V30 2827 O 266.73 0.891528 2.36237 0
M  V30 2828 C 268.043 3.00573 -0.0873872 0
M  V30 2829 C 269.591 3.1299 -0.0252443 0
M  V30 2830 C 270.066 4.57174 -0.274934 0
M  V30 2831 N 271.557 4.62665 -0.222553 0
M  V30 2832 C 272.292 5.72072 -0.389985 0
M  V30 2833 N 271.788 6.90054 -0.616229 0
M  V30 2834 N 273.581 5.61153 -0.326202 0
M  V30 2835 H 265.732 1.8118 -1.10849 0
M  V30 2836 H 267.995 0.839525 -0.440342 0
M  V30 2837 H 267.701 3.34497 -1.0865 0
M  V30 2838 H 267.575 3.72019 0.623037 0
M  V30 2839 H 269.962 2.78895 0.96444 0
M  V30 2840 H 270.043 2.43989 -0.768309 0
M  V30 2841 H 269.687 4.91976 -1.26181 0
M  V30 2842 H 269.617 5.24328 0.48869 0
M  V30 2843 H 272.108 3.77863 -0.0531512 0
M  V30 2844 H 272.421 7.69311 -0.733559 0
M  V30 2845 H 270.766 6.91927 -0.652791 0
M  V30 2846 H 273.957 4.67859 -0.150072 0
M  V30 2847 H 274.13 6.46364 -0.460116 0
M  V30 2848 N 267.536 -0.106894 1.57237 0
M  V30 2849 C 268.761 -0.830287 1.90055 0
M  V30 2850 C 269.186 -1.72064 0.75998 0
M  V30 2851 O 268.544 -1.78982 -0.288991 0
M  V30 2852 C 268.592 -1.6295 3.21683 0
M  V30 2853 O 267.696 -2.73748 3.08441 0
M  V30 2854 H 267.037 -0.228855 0.623315 0
M  V30 2855 H 269.567 -0.085658 2.04421 0
M  V30 2856 H 269.577 -2.01621 3.54701 0
M  V30 2857 H 268.252 -0.975989 4.04286 0
M  V30 2858 H 266.829 -2.38192 2.86913 0
M  V30 2859 N 269.014 -1.53014 -0.377408 0
M  V30 2860 C 270.262 -1.6829 -1.11906 0
M  V30 2861 C 270.583 -0.431206 -1.90173 0
M  V30 2862 O 269.853 0.554595 -1.87886 0
M  V30 2863 H 268.433 -0.620371 -0.416112 0
M  V30 2864 H 271.095 -1.90167 -0.426893 0
M  V30 2865 H 270.191 -2.53862 -1.8155 0
M  V30 2866 N 270.492 0.636531 -1.44174 0
M  V30 2867 C 271.74 1.39343 -1.46383 0
M  V30 2868 C 272.061 1.94766 -0.0955715 0
M  V30 2869 O 271.331 1.75452 0.871395 0
M  V30 2870 H 269.911 0.517199 -0.538994 0
M  V30 2871 H 272.573 0.74957 -1.7991 0
M  V30 2872 H 271.669 2.22746 -2.18611 0
M  V30 2873 N 271.97 1.30982 0.876444 0
M  V30 2874 C 272.933 1.18054 1.96459 0
M  V30 2875 C 273.933 0.109399 1.60427 0
M  V30 2876 O 275.123 0.358173 1.70478 0
M  V30 2877 C 272.255 0.810616 3.31122 0
M  V30 2878 H 273.448 2.14735 2.09354 0
M  V30 2879 H 271.001 1.145 1.06392 0
M  V30 2880 H 271.736 -0.155322 3.23928 0
M  V30 2881 H 271.521 1.58481 3.58645 0
M  V30 2882 H 273.011 0.743876 4.10921 0
M  V30 2883 N 273.449 -1.08991 1.13837 0
M  V30 2884 C 274.697 -1.80899 0.901098 0
M  V30 2885 C 275.018 -1.86356 -0.574134 0
M  V30 2886 O 274.288 -1.35235 -1.41733 0
M  V30 2887 H 272.868 -0.669966 0.330386 0
M  V30 2888 H 275.53 -1.318 1.43578 0
M  V30 2889 H 274.626 -2.83929 1.29578 0
M  V30 2890 N 274.927 -0.932562 -1.27047 0
M  V30 2891 C 276.175 -0.574422 -1.93765 0
M  V30 2892 C 276.496 0.887993 -1.73608 0
M  V30 2893 O 275.766 1.62999 -1.08665 0
M  V30 2894 H 274.346 -0.209451 -0.717035 0
M  V30 2895 H 277.008 -1.18601 -1.5466 0
M  V30 2896 H 276.104 -0.784841 -3.02071 0
M  V30 2897 N 276.405 1.4127 -0.698611 0
M  V30 2898 C 277.368 2.29158 -0.044132 0
M  V30 2899 C 278.368 1.44529 0.704841 0
M  V30 2900 O 279.558 1.65643 0.539276 0
M  V30 2901 C 276.69 3.27459 0.947809 0
M  V30 2902 H 277.883 2.88529 -0.817994 0
M  V30 2903 H 275.436 1.49307 -0.46228 0
M  V30 2904 H 276.171 2.73073 1.74933 0
M  V30 2905 H 275.956 3.8991 0.41385 0
M  V30 2906 H 277.446 3.93311 1.40344 0
M  V30 2907 N 277.883 0.443576 1.51229 0
M  V30 2908 C 279.131 -0.120557 2.0174 0
M  V30 2909 C 279.452 -1.42665 1.32935 0
M  V30 2910 O 278.722 -1.9028 0.465866 0
M  V30 2911 H 277.302 -0.0475426 0.745486 0
M  V30 2912 H 279.964 0.587711 1.85828 0
M  V30 2913 H 279.06 -0.291972 3.10731 0
M  V30 2914 N 279.361 -1.56624 0.175154 0
M  V30 2915 C 280.324 -2.16934 -0.739738 0
M  V30 2916 C 281.324 -1.11842 -1.15533 0
M  V30 2917 O 282.514 -1.37335 -1.07167 0
M  V30 2918 C 279.646 -2.75531 -2.00738 0
M  V30 2919 H 280.839 -2.99131 -0.214639 0
M  V30 2920 H 278.392 -1.56123 -0.0744197 0
M  V30 2921 H 279.127 -1.97078 -2.57548 0
M  V30 2922 H 278.912 -3.52444 -1.71831 0
M  V30 2923 H 280.402 -3.21904 -2.66021 0
M  V30 2924 N 280.839 0.0985539 -1.57292 0
M  V30 2925 C 282.25 0.653457 -1.74891 0
M  V30 2926 C 282.601 1.7929 -0.796838 0
M  V30 2927 O 281.726 2.16385 0.0254886 0
M  V30 2928 C 282.321 1.19216 -3.17133 0
M  V30 2929 C 280.88 1.69316 -3.36168 0
M  V30 2930 C 280.027 0.601294 -2.70702 0
M  V30 2931 H 282.978 -0.127497 -1.58187 0
M  V30 2932 H 282.999 2.06154 -3.19814 0
M  V30 2933 H 282.511 0.362635 -3.86402 0
M  V30 2934 H 280.612 2.5468 -2.71972 0
M  V30 2935 H 280.725 1.78853 -4.44464 0
M  V30 2936 H 279.089 1.0399 -2.32504 0
M  V30 2937 H 279.872 -0.217592 -3.4261 0
M  V30 2938 N 282.317 1.53212 0.369288 0
M  V30 2939 C 283.565 1.68881 1.11012 0
M  V30 2940 C 283.886 0.441285 1.89941 0
M  V30 2941 O 283.156 -0.544623 1.88177 0
M  V30 2942 H 281.736 0.622569 0.412816 0
M  V30 2943 H 284.398 1.90391 0.416802 0
M  V30 2944 H 283.494 2.54822 1.80201 0
M  V30 2945 N 283.795 -0.628877 1.44509 0
M  V30 2946 C 284.758 -1.72263 1.51188 0
M  V30 2947 C 285.758 -1.55907 0.39367 0
M  V30 2948 O 286.948 -1.61361 0.656377 0
M  V30 2949 C 284.08 -3.11365 1.38798 0
M  V30 2950 H 285.273 -1.67714 2.4862 0
M  V30 2951 H 282.826 -0.842737 1.31634 0
M  V30 2952 H 283.561 -3.21507 0.424693 0
M  V30 2953 H 283.346 -3.24644 2.19884 0
M  V30 2954 H 284.836 -3.91075 1.46458 0
M  V30 2955 N 285.273 -1.31445 -0.869486 0
M  V30 2956 C 286.519 -1.21337 -1.62496 0
M  V30 2957 C 286.852 0.227872 -1.92858 0
M  V30 2958 O 286.127 1.16094 -1.56053 0
M  V30 2959 C 286.41 -2.05814 -2.95487 0
M  V30 2960 C 286.263 -3.5824 -2.72 0
M  V30 2961 C 287.582 -1.9079 -3.96594 0
M  V30 2962 H 284.701 -0.442135 -0.589649 0
M  V30 2963 H 287.343 -1.6124 -1.00507 0
M  V30 2964 H 285.493 -1.71913 -3.48394 0
M  V30 2965 H 287.165 -4.0228 -2.25762 0
M  V30 2966 H 285.408 -3.81647 -2.06224 0
M  V30 2967 H 286.079 -4.12657 -3.66631 0
M  V30 2968 H 288.555 -2.20459 -3.52898 0
M  V30 2969 H 287.431 -2.52199 -4.87531 0
M  V30 2970 H 287.692 -0.871341 -4.33428 0
M  V30 2971 N 286.751 1.08385 -1.14413 0
M  V30 2972 C 287.997 1.81044 -0.913834 0
M  V30 2973 C 288.33 1.86004 0.558209 0
M  V30 2974 O 287.605 1.33606 1.4135 0
M  V30 2975 C 287.888 3.26648 -1.51569 0
M  V30 2976 C 287.741 3.29895 -3.0576 0
M  V30 2977 C 289.06 4.23629 -1.19273 0
M  V30 2978 H 286.179 0.65727 -0.333414 0
M  V30 2979 H 288.821 1.26896 -1.41412 0
M  V30 2980 H 286.971 3.72889 -1.09023 0
M  V30 2981 H 288.643 2.91977 -3.57137 0
M  V30 2982 H 286.886 2.69163 -3.40197 0
M  V30 2983 H 287.557 4.32516 -3.42977 0
M  V30 2984 H 290.033 3.85727 -1.56057 0
M  V30 2985 H 288.909 5.23822 -1.64017 0
M  V30 2986 H 289.17 4.41968 -0.108068 0
M  V30 2987 N 288.23 0.939286 1.26551 0
M  V30 2988 C 289.476 0.586715 1.94128 0
M  V30 2989 C 289.809 -0.8717 1.73537 0
M  V30 2990 O 289.084 -1.62339 1.07127 0
M  V30 2991 C 289.367 0.927497 3.4795 0
M  V30 2992 C 289.22 2.44052 3.77834 0
M  V30 2993 C 290.539 0.441569 4.37879 0
M  V30 2994 H 287.658 0.21463 0.705055 0
M  V30 2995 H 290.3 1.17316 1.49455 0
M  V30 2996 H 288.45 0.428431 3.8613 0
M  V30 2997 H 290.122 3.01216 3.4938 0
M  V30 2998 H 288.365 2.8848 3.23978 0
M  V30 2999 H 289.036 2.62947 4.85348 0
M  V30 3000 H 291.512 0.869448 4.06915 0
M  V30 3001 H 290.388 0.708856 5.44304 0
M  V30 3002 H 290.649 -0.658467 4.37169 0
M  V30 3003 N 289.708 -1.40897 0.706093 0
M  V30 3004 C 290.985 -1.94868 0.169099 0
M  V30 3005 C 291.365 -1.64485 -1.32318 0
M  V30 3006 O 290.713 -0.95744 -2.07474 0
M  V30 3007 C 290.923 -3.45798 0.471654 0
M  V30 3008 C 292.271 -4.22663 0.405127 0
M  V30 3009 O 293.295 -3.53865 0.407168 0
M  V30 3010 O 292.154 -5.45216 0.374383 0
M  V30 3011 H 289.248 -0.82673 0.0211352 0
M  V30 3012 H 291.794 -1.50558 0.782976 0
M  V30 3013 H 290.566 -3.61235 1.50416 0
M  V30 3014 H 290.189 -3.97225 -0.172666 0
M  V30 3015 N 291.186 -0.45159 -1.50991 0
M  V30 3016 C 292.432 0.110237 -2.025 0
M  V30 3017 C 292.765 1.41109 -1.33424 0
M  V30 3018 O 292.04 1.89135 -0.453659 0
M  V30 3019 C 292.323 0.314271 -3.58726 0
M  V30 3020 C 292.176 -1.00623 -4.38401 0
M  V30 3021 C 293.495 1.07767 -4.26702 0
M  V30 3022 H 290.614 0.0385897 -0.735989 0
M  V30 3023 H 293.256 -0.593374 -1.80497 0
M  V30 3024 H 291.406 0.913601 -3.77605 0
M  V30 3025 H 293.078 -1.64064 -4.31139 0
M  V30 3026 H 291.321 -1.6075 -4.02917 0
M  V30 3027 H 291.992 -0.817341 -5.45915 0
M  V30 3028 H 294.468 0.56986 -4.12179 0
M  V30 3029 H 293.344 1.18921 -5.35863 0
M  V30 3030 H 293.605 2.10939 -3.88532 0
M  V30 3031 N 292.664 1.56529 -0.183458 0
M  V30 3032 C 293.941 1.88959 0.50536 0
M  V30 3033 C 294.321 1.09523 1.80466 0
M  V30 3034 O 293.669 0.19278 2.27685 0
M  V30 3035 C 293.879 3.41162 0.73547 0
M  V30 3036 C 295.227 4.11155 1.06005 0
M  V30 3037 O 296.251 3.46548 0.823594 0
M  V30 3038 O 295.11 5.25318 1.50675 0
M  V30 3039 H 292.204 0.78441 0.261973 0
M  V30 3040 H 294.75 1.68231 -0.222802 0
M  V30 3041 H 293.522 3.90874 -0.182561 0
M  V30 3042 H 293.145 3.67543 1.51651 0
M  V30 3043 N 294.142 -0.090211 1.57342 0
M  V30 3044 C 295.072 -1.10976 2.05443 0
M  V30 3045 C 296.053 -1.41482 0.944284 0
M  V30 3046 O 297.238 -1.51428 1.21586 0
M  V30 3047 C 294.368 -2.42831 2.48295 0
M  V30 3048 C 293.322 -2.26721 3.63018 0
M  V30 3049 C 292.648 -3.63796 3.91863 0
M  V30 3050 C 293.948 -1.7037 4.93732 0
M  V30 3051 H 295.642 -0.709564 2.9087 0
M  V30 3052 H 293.188 -0.339874 1.39932 0
M  V30 3053 H 295.141 -3.14431 2.80555 0
M  V30 3054 H 293.865 -2.84795 1.59873 0
M  V30 3055 H 292.524 -1.57565 3.31012 0
M  V30 3056 H 292.172 -4.03297 3.00601 0
M  V30 3057 H 291.872 -3.53861 4.69101 0
M  V30 3058 H 293.396 -4.36855 4.26603 0
M  V30 3059 H 294.81 -2.31816 5.24342 0
M  V30 3060 H 293.207 -1.71181 5.75167 0
M  V30 3061 H 294.277 -0.663542 4.80339 0
M  V30 3062 N 295.62 -1.53406 -0.361157 0
M  V30 3063 C 296.848 -1.73717 -1.12383 0
M  V30 3064 C 297.263 -0.468161 -1.82904 0
M  V30 3065 O 296.62 0.559198 -1.73722 0
M  V30 3066 C 296.671 -2.90558 -2.15078 0
M  V30 3067 O 296.392 -4.12549 -1.47428 0
M  V30 3068 C 297.893 -3.22777 -3.03858 0
M  V30 3069 H 295.113 -0.580896 -0.335858 0
M  V30 3070 H 297.657 -2.00167 -0.418728 0
M  V30 3071 H 295.812 -2.66489 -2.8118 0
M  V30 3072 H 296.226 -4.78009 -2.15887 0
M  V30 3073 H 297.7 -4.07927 -3.71887 0
M  V30 3074 H 298.177 -2.38329 -3.68912 0
M  V30 3075 H 298.783 -3.48787 -2.43367 0
M  V30 3076 N 297.098 0.621204 -1.44841 0
M  V30 3077 C 298.509 1.20298 -1.42777 0
M  V30 3078 C 298.86 1.95639 -0.148259 0
M  V30 3079 O 297.985 2.02955 0.750892 0
M  V30 3080 C 298.58 2.1882 -2.58657 0
M  V30 3081 C 297.139 2.72403 -2.59756 0
M  V30 3082 C 296.286 1.4757 -2.34773 0
M  V30 3083 H 299.237 0.411297 -1.53278 0
M  V30 3084 H 299.258 3.01607 -2.31977 0
M  V30 3085 H 298.77 1.63957 -3.51766 0
M  V30 3086 H 296.871 3.31242 -1.70615 0
M  V30 3087 H 296.984 3.17765 -3.58556 0
M  V30 3088 H 295.348 1.76051 -1.8406 0
M  V30 3089 H 296.131 0.945954 -3.3001 0
M  V30 3090 N 298.576 1.31904 0.862503 0
M  V30 3091 C 299.539 1.20131 1.95195 0
M  V30 3092 C 300.539 0.126409 1.60302 0
M  V30 3093 O 301.729 0.376234 1.70089 0
M  V30 3094 C 298.861 0.845691 3.30244 0
M  V30 3095 H 300.054 2.16943 2.07064 0
M  V30 3096 H 297.607 1.15622 1.05172 0
M  V30 3097 H 298.342 -0.120957 3.24074 0
M  V30 3098 H 298.127 1.62276 3.56944 0
M  V30 3099 H 299.617 0.787418 4.10109 0
M  V30 3100 N 300.054 -1.07777 1.14986 0
M  V30 3101 C 301.017 -2.13041 0.845358 0
M  V30 3102 C 302.017 -1.60071 -0.152931 0
M  V30 3103 O 303.207 -1.74033 0.0761879 0
M  V30 3104 C 300.339 -3.39896 0.261383 0
M  V30 3105 H 301.532 -2.41485 1.77834 0
M  V30 3106 H 299.085 -1.23595 0.956757 0
M  V30 3107 H 299.82 -3.17091 -0.68 0
M  V30 3108 H 299.605 -3.79642 0.980514 0
M  V30 3109 H 301.095 -4.17548 0.0657687 0
M  V30 3110 N 301.532 -0.945985 -1.26051 0
M  V30 3111 C 302.943 -0.638096 -1.75457 0
M  V30 3112 C 303.294 0.846672 -1.76991 0
M  V30 3113 O 302.419 1.66262 -1.38513 0
M  V30 3114 C 303.014 -1.15157 -3.18629 0
M  V30 3115 C 301.573 -0.894004 -3.65629 0
M  V30 3116 C 300.72 -1.29967 -2.44957 0
M  V30 3117 H 303.671 -1.12376 -1.1206 0
M  V30 3118 H 303.692 -0.507615 -3.77099 0
M  V30 3119 H 303.204 -2.23222 -3.1748 0
M  V30 3120 H 301.305 0.172057 -3.72203 0
M  V30 3121 H 301.418 -1.52439 -4.54202 0
M  V30 3122 H 299.782 -0.718078 -2.44368 0
M  V30 3123 H 300.565 -2.38935 -2.46505 0
M  V30 3124 N 303.011 1.40521 -0.713556 0
M  V30 3125 C 304.236 2.05759 -0.26035 0
M  V30 3126 C 304.661 1.53403 1.08854 0
M  V30 3127 O 304.019 0.668535 1.68524 0
M  V30 3128 C 304.067 3.59745 -0.248122 0
M  V30 3129 O 303.171 4.05123 0.77131 0
M  V30 3130 H 302.512 0.652564 -0.122703 0
M  V30 3131 H 305.042 1.79958 -0.973467 0
M  V30 3132 H 305.052 4.07911 -0.0851129 0
M  V30 3133 H 303.727 3.97218 -1.2325 0
M  V30 3134 H 302.304 3.68422 0.57619 0
M  V30 3135 N 304.489 0.459591 1.5075 0
M  V30 3136 C 305.714 -0.0996819 2.0716 0
M  V30 3137 C 306.139 -1.33761 1.32249 0
M  V30 3138 O 305.497 -1.77551 0.366786 0
M  V30 3139 C 305.545 -0.378226 3.58611 0
M  V30 3140 O 304.649 -1.46081 3.85661 0
M  V30 3141 H 303.99 0.00791392 0.663953 0
M  V30 3142 H 306.52 0.647329 1.9409 0
M  V30 3143 H 306.53 -0.622135 4.03229 0
M  V30 3144 H 305.205 0.526439 4.12555 0
M  V30 3145 H 303.782 -1.20511 3.5289 0
M  V30 3146 N 305.967 -1.56429 0.191757 0
M  V30 3147 C 306.877 -2.22541 -0.742481 0
M  V30 3148 C 307.893 -1.22342 -1.23727 0
M  V30 3149 O 309.069 -1.55069 -1.28513 0
M  V30 3150 C 306.134 -2.8692 -1.94623 0
M  V30 3151 C 305.195 -4.02378 -1.49633 0
M  V30 3152 C 304.428 -4.63678 -2.6427 0
M  V30 3153 O 304.651 -4.23895 -3.81666 0
M  V30 3154 O 303.585 -5.53202 -2.37174 0
M  V30 3155 H 307.411 -3.02977 -0.209462 0
M  V30 3156 H 304.996 -1.49353 -0.0373832 0
M  V30 3157 H 306.878 -3.27663 -2.64982 0
M  V30 3158 H 305.553 -2.09466 -2.46791 0
M  V30 3159 H 304.46 -3.66265 -0.761636 0
M  V30 3160 H 305.793 -4.81487 -1.02134 0
M  V30 3161 N 307.445 0.0818655 -1.57387 0
M  V30 3162 C 308.67 0.799946 -1.91352 0
M  V30 3163 C 309.095 1.70833 -0.787258 0
M  V30 3164 O 308.453 1.79419 0.26048 0
M  V30 3165 C 308.501 1.57812 -3.24234 0
M  V30 3166 O 307.605 2.68806 -3.12757 0
M  V30 3167 H 306.946 0.21891 -0.626877 0
M  V30 3168 H 309.476 0.0531256 -2.04531 0
M  V30 3169 H 309.486 1.95952 -3.57864 0
M  V30 3170 H 308.161 0.911548 -4.05788 0
M  V30 3171 H 306.738 2.33597 -2.90666 0
M  V30 3172 N 308.923 1.53595 0.353017 0
M  V30 3173 C 309.853 1.83902 1.43883 0
M  V30 3174 C 310.834 0.693421 1.55324 0
M  V30 3175 O 312.019 0.944452 1.69687 0
M  V30 3176 C 309.149 2.04016 2.8106 0
M  V30 3177 C 308.103 3.19814 2.84434 0
M  V30 3178 C 307.429 3.25244 4.24406 0
M  V30 3179 C 308.729 4.58133 2.50822 0
M  V30 3180 H 310.423 2.74835 1.1877 0
M  V30 3181 H 307.969 1.32242 0.569917 0
M  V30 3182 H 309.922 2.238 3.57059 0
M  V30 3183 H 308.646 1.09804 3.07588 0
M  V30 3184 H 307.305 2.9987 2.10887 0
M  V30 3185 H 306.953 2.28646 4.48029 0
M  V30 3186 H 306.653 4.03054 4.27576 0
M  V30 3187 H 308.177 3.47228 5.0226 0
M  V30 3188 H 309.591 4.77995 3.16534 0
M  V30 3189 H 307.988 5.38276 2.6529 0
M  V30 3190 H 309.058 4.62387 1.46034 0
M  V30 3191 N 310.401 -0.613514 1.45168 0
M  V30 3192 C 311.364 -1.7065 1.53007 0
M  V30 3193 C 312.364 -1.5548 0.410184 0
M  V30 3194 O 313.554 -1.60656 0.673455 0
M  V30 3195 C 310.686 -3.09875 1.42093 0
M  V30 3196 H 311.879 -1.65068 2.50385 0
M  V30 3197 H 309.432 -0.828728 1.32521 0
M  V30 3198 H 310.167 -3.21039 0.458769 0
M  V30 3199 H 309.952 -3.22293 2.23315 0
M  V30 3200 H 311.442 -3.895 1.50598 0
M  V30 3201 N 311.879 -1.3236 -0.855495 0
M  V30 3202 C 312.809 -1.23833 -1.97958 0
M  V30 3203 C 313.79 -0.122361 -1.69659 0
M  V30 3204 O 314.975 -0.30939 -1.9172 0
M  V30 3205 C 312.105 -0.959772 -3.33775 0
M  V30 3206 C 311.059 -2.03689 -3.76424 0
M  V30 3207 C 310.385 -1.61075 -5.09862 0
M  V30 3208 C 311.685 -3.4518 -3.9198 0
M  V30 3209 H 313.379 -2.1788 -2.0535 0
M  V30 3210 H 310.925 -1.04891 -0.986605 0
M  V30 3211 H 312.878 -0.886678 -4.11966 0
M  V30 3212 H 311.602 0.0163404 -3.26596 0
M  V30 3213 H 310.261 -2.10012 -3.00484 0
M  V30 3214 H 309.909 -0.622107 -4.99138 0
M  V30 3215 H 309.609 -2.33143 -5.39368 0
M  V30 3216 H 311.133 -1.55201 -5.90546 0
M  V30 3217 H 312.547 -3.4145 -4.60526 0
M  V30 3218 H 310.944 -4.1559 -4.32903 0
M  V30 3219 H 312.014 -3.84903 -2.94919 0
M  V30 3220 N 313.357 1.07166 -1.15556 0
M  V30 3221 C 314.634 1.76546 -0.842069 0
M  V30 3222 C 315.014 2.00453 0.661939 0
M  V30 3223 O 314.362 1.62452 1.60691 0
M  V30 3224 C 314.572 3.07266 -1.65495 0
M  V30 3225 C 315.92 3.81578 -1.86234 0
M  V30 3226 O 316.944 3.17083 -1.62287 0
M  V30 3227 O 315.803 4.97419 -2.26355 0
M  V30 3228 H 312.897 0.766756 -0.309862 0
M  V30 3229 H 315.443 1.13514 -1.26145 0
M  V30 3230 H 314.215 2.85494 -2.67598 0
M  V30 3231 H 313.838 3.7803 -1.23203 0
M  V30 3232 N 314.835 0.952656 1.25548 0
M  V30 3233 C 315.745 0.47782 2.29682 0
M  V30 3234 C 316.761 -0.453859 1.67977 0
M  V30 3235 O 317.937 -0.330587 1.98668 0
M  V30 3236 C 315.002 -0.238655 3.45878 0
M  V30 3237 C 314.063 0.730994 4.23031 0
M  V30 3238 C 313.296 0.0486165 5.33678 0
M  V30 3239 O 313.519 -1.16612 5.58353 0
M  V30 3240 O 312.453 0.733152 5.97418 0
M  V30 3241 H 316.279 1.34312 2.72386 0
M  V30 3242 H 313.864 0.719026 1.30959 0
M  V30 3243 H 315.746 -0.641774 4.16484 0
M  V30 3244 H 314.421 -1.07916 3.05181 0
M  V30 3245 H 313.328 1.18428 3.5486 0
M  V30 3246 H 314.661 1.53946 4.67506 0
M  V30 3247 N 316.313 -1.40141 0.720998 0
M  V30 3248 C 317.559 -2.01084 0.263231 0
M  V30 3249 C 317.892 -1.57052 -1.14229 0
M  V30 3250 O 317.167 -0.793027 -1.77599 0
M  V30 3251 C 317.45 -3.58401 0.349344 0
M  V30 3252 C 317.303 -4.12491 1.79363 0
M  V30 3253 C 318.622 -4.39231 -0.276351 0
M  V30 3254 H 315.741 -0.730572 0.0971228 0
M  V30 3255 H 318.383 -1.66543 0.914518 0
M  V30 3256 H 316.533 -3.87958 -0.205165 0
M  V30 3257 H 318.205 -3.93711 2.40394 0
M  V30 3258 H 316.448 -3.66576 2.31958 0
M  V30 3259 H 317.119 -5.21646 1.80524 0
M  V30 3260 H 319.595 -4.15637 0.196184 0
M  V30 3261 H 318.471 -5.48586 -0.185681 0
M  V30 3262 H 318.732 -4.20643 -1.36059 0
M  V30 3263 N 317.792 -0.46758 -1.50504 0
M  V30 3264 C 319.02 0.0864133 -2.06719 0
M  V30 3265 C 319.435 1.33819 -1.33184 0
M  V30 3266 O 318.792 1.78061 -0.400083 0
M  V30 3267 C 318.843 0.378079 -3.59517 0
M  V30 3268 O 318.564 -0.824044 -4.3028 0
M  V30 3269 C 320.065 0.979426 -4.32345 0
M  V30 3270 H 317.285 -0.00551697 -0.670977 0
M  V30 3271 H 319.829 -0.655354 -1.93715 0
M  V30 3272 H 317.984 1.06977 -3.72337 0
M  V30 3273 H 318.398 -0.566518 -5.21432 0
M  V30 3274 H 319.872 1.1333 -5.40241 0
M  V30 3275 H 320.349 1.9686 -3.9261 0
M  V30 3276 H 320.955 0.326216 -4.24047 0
M  V30 3277 N 319.27 1.56325 -0.20005 0
M  V30 3278 C 320.233 2.18084 0.705132 0
M  V30 3279 C 321.233 1.13666 1.1374 0
M  V30 3280 O 322.423 1.39023 1.04968 0
M  V30 3281 C 319.555 2.78689 1.96329 0
M  V30 3282 H 320.748 2.99435 0.167023 0
M  V30 3283 H 318.301 1.56221 0.0495725 0
M  V30 3284 H 319.036 2.0115 2.5438 0
M  V30 3285 H 318.821 3.55133 1.66202 0
M  V30 3286 H 320.311 3.26096 2.60866 0
M  V30 3287 N 320.748 -0.0735177 1.57428 0
M  V30 3288 C 321.681 -1.11932 1.98863 0
M  V30 3289 C 322.659 -1.37666 0.865266 0
M  V30 3290 O 323.843 -1.51068 1.12742 0
M  V30 3291 C 320.97 -2.46403 2.32386 0
M  V30 3292 C 320.016 -2.36815 3.54713 0
M  V30 3293 S 320.849 -1.76392 5.05614 0
M  V30 3294 C 322.005 -3.12444 5.42337 0
M  V30 3295 H 322.238 -0.766212 2.87257 0
M  V30 3296 H 319.771 -0.281987 1.51803 0
M  V30 3297 H 321.729 -3.23755 2.52375 0
M  V30 3298 H 320.39 -2.78876 1.44524 0
M  V30 3299 H 319.583 -3.35977 3.7568 0
M  V30 3300 H 319.185 -1.67598 3.34345 0
M  V30 3301 H 321.477 -4.08753 5.40303 0
M  V30 3302 H 322.42 -2.96258 6.43146 0
M  V30 3303 H 322.828 -3.1297 4.69798 0
M  V30 3304 N 322.226 -1.5378 -0.344866 0
M  V30 3305 C 323.503 -1.61589 -1.10219 0
M  V30 3306 C 323.883 -0.436316 -2.06542 0
M  V30 3307 O 323.231 0.571543 -2.21237 0
M  V30 3308 C 323.441 -2.97602 -1.82301 0
M  V30 3309 C 324.789 -3.5291 -2.36093 0
M  V30 3310 O 325.813 -2.99768 -1.924 0
M  V30 3311 O 324.672 -4.45859 -3.16026 0
M  V30 3312 H 321.766 -0.653522 -0.506792 0
M  V30 3313 H 324.312 -1.66126 -0.346465 0
M  V30 3314 H 323.084 -3.74893 -1.12121 0
M  V30 3315 H 322.707 -2.9665 -2.64735 0
M  V30 3316 N 323.704 0.605807 -1.45491 0
M  V30 3317 C 324.652 1.73754 -1.54636 0
M  V30 3318 C 325.646 1.64207 -0.416219 0
M  V30 3319 O 326.852 1.69979 -0.592199 0
M  V30 3320 H 323.227 0.574073 -0.485741 0
M  V30 3321 H 325.198 1.63169 -2.49837 0
M  V30 3322 C 323.947 3.12135 -1.53189 0
M  V30 3323 H 323.27 3.20141 -2.39478 0
M  V30 3324 H 324.71 3.91147 -1.63645 0
M  V30 3325 C 323.169 3.35921 -0.256616 0
M  V30 3326 O 323.699 3.96194 0.662798 0
M  V30 3327 N 321.905 2.90204 -0.151751 0
M  V30 3328 H 321.452 2.41336 -0.90081 0
M  V30 3329 H 321.41 3.06492 0.700699 0
M  V30 3330 N 325.182 1.32811 0.848464 0
M  V30 3331 C 326.132 1.18842 1.94578 0
M  V30 3332 C 327.116 0.0937517 1.60627 0
M  V30 3333 O 328.308 0.320887 1.74067 0
M  V30 3334 C 325.437 0.91999 3.30743 0
M  V30 3335 C 324.523 2.05665 3.70894 0
M  V30 3336 N 324.914 3.30579 3.8282 0
M  V30 3337 C 323.212 1.9612 4.00566 0
M  V30 3338 C 323.913 4.05067 4.17487 0
M  V30 3339 N 322.889 3.33419 4.2934 0
M  V30 3340 H 326.691 2.13536 2.0194 0
M  V30 3341 H 324.205 1.2468 1.0406 0
M  V30 3342 H 326.202 0.800859 4.09136 0
M  V30 3343 H 324.862 -0.0185076 3.24695 0
M  V30 3344 H 325.873 3.65441 3.66978 0
M  V30 3345 H 322.55 1.09871 4.02784 0
M  V30 3346 H 323.94 5.12815 4.34131 0
M  V30 3347 N 326.66 -1.06551 1.16123 0
M  V30 3348 C 327.906 -1.79567 0.94252 0
M  V30 3349 C 328.239 -1.86869 -0.528547 0
M  V30 3350 O 327.514 -1.35838 -1.39206 0
M  V30 3351 C 327.797 -3.24195 1.56747 0
M  V30 3352 C 327.65 -3.24989 3.10969 0
M  V30 3353 C 328.969 -4.21678 1.25998 0
M  V30 3354 H 326.088 -0.651883 0.343828 0
M  V30 3355 H 328.73 -1.2463 1.43413 0
M  V30 3356 H 326.88 -3.71107 1.14942 0
M  V30 3357 H 328.552 -2.86258 3.61737 0
M  V30 3358 H 326.795 -2.63716 3.44436 0
M  V30 3359 H 327.466 -4.27005 3.49815 0
M  V30 3360 H 329.942 -3.83196 1.62174 0
M  V30 3361 H 328.818 -5.21146 1.7233 0
M  V30 3362 H 329.079 -4.4174 0.178367 0
M  V30 3363 N 328.138 -0.959301 -1.25041 0
M  V30 3364 C 329.101 -0.487677 -2.23952 0
M  V30 3365 C 330.101 0.41119 -1.55454 0
M  V30 3366 O 331.291 0.207825 -1.72956 0
M  V30 3367 C 328.423 0.294807 -3.39623 0
M  V30 3368 H 329.616 -1.36198 -2.67189 0
M  V30 3369 H 327.169 -0.743042 -1.37508 0
M  V30 3370 H 327.904 1.18658 -3.01813 0
M  V30 3371 H 327.689 -0.35012 -3.90534 0
M  V30 3372 H 329.179 0.614089 -4.1306 0
M  V30 3373 N 329.616 1.39756 -0.72842 0
M  V30 3374 C 330.864 2.00248 -0.272946 0
M  V30 3375 C 331.185 1.58077 1.14178 0
M  V30 3376 O 330.455 0.826014 1.77634 0
M  V30 3377 H 329.035 0.740554 -0.0979247 0
M  V30 3378 H 331.697 1.70903 -0.936912 0
M  V30 3379 H 330.793 3.10495 -0.316142 0
M  V30 3380 N 331.094 0.475555 1.50254 0
M  V30 3381 C 332.024 -0.30611 2.31485 0
M  V30 3382 C 333.005 -0.986228 1.38591 0
M  V30 3383 O 334.19 -0.982541 1.67511 0
M  V30 3384 C 331.32 -1.38588 3.1845 0
M  V30 3385 C 330.274 -0.827115 4.19932 0
M  V30 3386 C 329.6 -2.00551 4.95665 0
M  V30 3387 C 330.9 0.16463 5.2204 0
M  V30 3388 H 332.594 0.371866 2.97082 0
M  V30 3389 H 330.14 0.180282 1.42867 0
M  V30 3390 H 332.093 -1.94023 3.74076 0
M  V30 3391 H 330.817 -2.09269 2.50747 0
M  V30 3392 H 329.476 -0.294702 3.65414 0
M  V30 3393 H 329.124 -2.6994 4.2443 0
M  V30 3394 H 328.824 -1.63784 5.64313 0
M  V30 3395 H 330.348 -2.56468 5.54127 0
M  V30 3396 H 331.762 -0.300699 5.72511 0
M  V30 3397 H 330.159 0.446813 5.98434 0
M  V30 3398 H 331.229 1.08905 4.72512 0
M  V30 3399 N 332.573 -1.56217 0.208337 0
M  V30 3400 C 333.821 -1.97558 -0.426076 0
M  V30 3401 C 334.142 -1.09683 -1.61229 0
M  V30 3402 O 333.412 -0.170956 -1.95153 0
M  V30 3403 H 331.992 -0.729575 -0.160405 0
M  V30 3404 H 334.654 -1.92606 0.298155 0
M  V30 3405 H 333.75 -3.02672 -0.761312 0
M  V30 3406 N 334.051 0.0651679 -1.57465 0
M  V30 3407 C 335.462 0.616213 -1.76238 0
M  V30 3408 C 335.813 1.7756 -0.834689 0
M  V30 3409 O 334.938 2.1639 -0.0204156 0
M  V30 3410 C 335.533 1.12462 -3.1959 0
M  V30 3411 C 334.092 1.62147 -3.39684 0
M  V30 3412 C 333.239 0.543739 -2.71917 0
M  V30 3413 H 336.19 -0.161022 -1.57881 0
M  V30 3414 H 336.211 1.99324 -3.24114 0
M  V30 3415 H 335.723 0.280592 -3.87084 0
M  V30 3416 H 333.824 2.48854 -2.77313 0
M  V30 3417 H 333.937 1.69385 -4.48158 0
M  V30 3418 H 332.301 0.990352 -2.34657 0
M  V30 3419 H 333.084 -0.290216 -3.42071 0
M  V30 3420 N 335.529 1.53961 0.336706 0
M  V30 3421 C 336.492 1.81724 1.39675 0
M  V30 3422 C 337.492 0.688532 1.45313 0
M  V30 3423 O 338.682 0.956829 1.45569 0
M  V30 3424 C 335.814 1.96543 2.78538 0
M  V30 3425 H 337.007 2.76424 1.16318 0
M  V30 3426 H 334.56 1.45478 0.571474 0
M  V30 3427 H 335.295 1.0401 3.07168 0
M  V30 3428 H 335.08 2.78665 2.75841 0
M  V30 3429 H 336.57 2.19516 3.5525 0
M  V30 3430 N 337.007 -0.598083 1.45811 0
M  V30 3431 C 337.917 -1.73632 1.57763 0
M  V30 3432 C 338.933 -1.67763 0.461676 0
M  V30 3433 O 340.109 -1.87949 0.723685 0
M  V30 3434 C 337.174 -3.10114 1.55018 0
M  V30 3435 C 336.235 -3.27364 2.77726 0
M  V30 3436 C 335.468 -4.57334 2.75102 0
M  V30 3437 O 335.691 -5.40258 1.8297 0
M  V30 3438 O 334.625 -4.77502 3.66437 0
M  V30 3439 H 338.451 -1.66498 2.53992 0
M  V30 3440 H 336.036 -0.763308 1.28429 0
M  V30 3441 H 337.918 -3.9141 1.56129 0
M  V30 3442 H 336.593 -3.17718 0.619431 0
M  V30 3443 H 335.5 -2.45619 2.82174 0
M  V30 3444 H 336.833 -3.24641 3.69958 0
M  V30 3445 N 338.485 -1.33259 -0.841409 0
M  V30 3446 C 339.395 -1.25332 -1.98316 0
M  V30 3447 C 340.411 -0.164364 -1.73222 0
M  V30 3448 O 341.587 -0.387486 -1.97637 0
M  V30 3449 C 338.652 -0.990078 -3.32262 0
M  V30 3450 C 337.713 -2.16879 -3.70489 0
M  V30 3451 C 336.946 -1.91801 -4.98044 0
M  V30 3452 O 337.169 -0.867075 -5.63771 0
M  V30 3453 O 336.103 -2.78267 -5.33714 0
M  V30 3454 H 339.929 -2.21344 -2.07944 0
M  V30 3455 H 337.514 -1.1328 -0.974058 0
M  V30 3456 H 339.396 -0.860321 -4.12524 0
M  V30 3457 H 338.071 -0.0602155 -3.23644 0
M  V30 3458 H 336.978 -2.35407 -2.90748 0
M  V30 3459 H 338.311 -3.0819 -3.8377 0
M  V30 3460 N 339.963 1.05934 -1.16686 0
M  V30 3461 C 341.379 1.30938 -0.912542 0
M  V30 3462 C 341.579 1.96803 0.432533 0
M  V30 3463 O 340.635 2.23693 1.17123 0
M  V30 3464 C 341.948 2.18649 -2.06429 0
M  V30 3465 C 343.496 2.32055 -2.10047 0
M  V30 3466 C 343.971 3.23122 -3.24586 0
M  V30 3467 N 345.462 3.30706 -3.24327 0
M  V30 3468 C 346.197 4.01273 -4.09594 0
M  V30 3469 N 345.693 4.74332 -5.04956 0
M  V30 3470 N 347.486 3.97361 -3.97569 0
M  V30 3471 H 339.637 0.615777 -2.03278 0
M  V30 3472 H 341.9 0.334077 -0.887185 0
M  V30 3473 H 341.606 1.77534 -3.03603 0
M  V30 3474 H 341.48 3.19252 -2.00894 0
M  V30 3475 H 343.867 2.72415 -1.13464 0
M  V30 3476 H 343.948 1.31107 -2.19647 0
M  V30 3477 H 343.592 2.83477 -4.2143 0
M  V30 3478 H 343.522 4.24057 -3.12223 0
M  V30 3479 H 346.013 2.78644 -2.55276 0
M  V30 3480 H 346.326 5.25716 -5.6643 0
M  V30 3481 H 344.671 4.733 -5.08933 0
M  V30 3482 H 347.862 3.39405 -3.22369 0
M  V30 3483 H 348.035 4.52089 -4.64241 0
M  V30 3484 N 341.441 0.965919 1.2453 0
M  V30 3485 C 342.857 0.67216 1.44756 0
M  V30 3486 C 343.057 -0.766609 1.86347 0
M  V30 3487 O 342.113 -1.5407 2.00047 0
M  V30 3488 C 343.426 1.65473 2.51076 0
M  V30 3489 C 344.974 1.66716 2.64905 0
M  V30 3490 C 345.449 2.63766 3.74421 0
M  V30 3491 N 346.94 2.62198 3.81846 0
M  V30 3492 C 347.675 3.33966 4.66106 0
M  V30 3493 N 347.171 4.15245 5.54566 0
M  V30 3494 N 348.964 3.22799 4.60171 0
M  V30 3495 H 341.115 1.89553 0.958293 0
M  V30 3496 H 343.378 0.815979 0.482579 0
M  V30 3497 H 343.084 2.68296 2.27399 0
M  V30 3498 H 342.958 1.4261 3.49202 0
M  V30 3499 H 345.345 0.646057 2.87941 0
M  V30 3500 H 345.426 1.93642 1.67142 0
M  V30 3501 H 345.07 3.6601 3.52135 0
M  V30 3502 H 345 2.34121 4.71694 0
M  V30 3503 H 347.491 2.032 3.18619 0
M  V30 3504 H 347.804 4.66898 6.15814 0
M  V30 3505 H 346.149 4.1934 5.54237 0
M  V30 3506 H 349.34 2.58764 3.90075 0
M  V30 3507 H 349.513 3.78994 5.25612 0
M  V30 3508 N 342.919 -1.39368 0.735821 0
M  V30 3509 C 343.882 -2.2896 0.104874 0
M  V30 3510 C 344.882 -1.46347 -0.666274 0
M  V30 3511 O 346.072 -1.67014 -0.49517 0
M  V30 3512 C 343.204 -3.29857 -0.860656 0
M  V30 3513 H 344.397 -2.86259 0.894205 0
M  V30 3514 H 341.95 -1.48029 0.501704 0
M  V30 3515 H 342.685 -2.77615 -1.67631 0
M  V30 3516 H 342.47 -3.9087 -0.310327 0
M  V30 3517 H 343.96 -3.96893 -1.29867 0
M  V30 3518 N 344.397 -0.483516 -1.5 0
M  V30 3519 C 345.327 0.293829 -2.31644 0
M  V30 3520 C 346.308 0.978864 -1.39112 0
M  V30 3521 O 347.493 0.973644 -1.68029 0
M  V30 3522 C 344.623 1.36897 -3.19181 0
M  V30 3523 C 343.577 0.804833 -4.20365 0
M  V30 3524 C 342.903 1.9792 -4.96721 0
M  V30 3525 C 344.203 -0.192313 -5.21946 0
M  V30 3526 H 345.897 -0.387616 -2.9688 0
M  V30 3527 H 343.443 -0.187856 -1.42769 0
M  V30 3528 H 345.396 1.92037 -3.751 0
M  V30 3529 H 344.12 2.07936 -2.51853 0
M  V30 3530 H 342.779 0.275319 -3.65565 0
M  V30 3531 H 342.427 2.67686 -4.25856 0
M  V30 3532 H 342.127 1.60789 -5.65173 0
M  V30 3533 H 343.651 2.53526 -5.55479 0
M  V30 3534 H 345.065 0.270333 -5.72662 0
M  V30 3535 H 343.462 -0.478543 -5.98189 0
M  V30 3536 H 344.532 -1.11409 -4.71928 0
M  V30 3537 N 345.875 1.56104 -0.216619 0
M  V30 3538 C 347.121 1.98466 0.417033 0
M  V30 3539 C 347.454 1.10403 1.59765 0
M  V30 3540 O 346.729 0.160632 1.93836 0
M  V30 3541 C 347.012 3.49769 0.85637 0
M  V30 3542 C 346.865 4.48606 -0.327546 0
M  V30 3543 C 348.184 4.05339 1.7143 0
M  V30 3544 H 345.303 0.721551 0.150112 0
M  V30 3545 H 347.945 1.87423 -0.311864 0
M  V30 3546 H 346.095 3.5931 1.47745 0
M  V30 3547 H 347.767 4.5108 -0.965618 0
M  V30 3548 H 346.01 4.22682 -0.975805 0
M  V30 3549 H 346.681 5.51995 0.0227149 0
M  V30 3550 H 349.157 3.98712 1.19031 0
M  V30 3551 H 348.033 5.11533 1.99061 0
M  V30 3552 H 348.294 3.51918 2.67593 0
M  V30 3553 N 347.353 -0.0568162 1.57498 0
M  V30 3554 C 348.601 -0.751617 1.87604 0
M  V30 3555 C 348.922 -1.77351 0.81066 0
M  V30 3556 O 348.192 -1.95254 -0.159018 0
M  V30 3557 H 346.772 -0.280583 0.692302 0
M  V30 3558 H 349.434 -0.0293483 1.94878 0
M  V30 3559 H 348.53 -1.25852 2.856 0
M  V30 3560 N 348.832 -1.54138 -0.328536 0
M  V30 3561 C 350.243 -1.63395 -0.903272 0
M  V30 3562 C 350.594 -0.524828 -1.8905 0
M  V30 3563 O 349.719 0.343068 -2.13663 0
M  V30 3564 C 350.314 -2.9618 -1.64507 0
M  V30 3565 C 348.873 -3.0765 -2.1686 0
M  V30 3566 C 348.02 -2.58933 -0.992416 0
M  V30 3567 H 350.971 -1.58344 -0.106253 0
M  V30 3568 H 350.992 -2.86061 -2.50897 0
M  V30 3569 H 350.504 -3.76884 -0.926302 0
M  V30 3570 H 348.605 -2.31611 -2.91868 0
M  V30 3571 H 348.718 -4.1337 -2.42202 0
M  V30 3572 H 347.082 -2.14706 -1.37016 0
M  V30 3573 H 347.865 -3.42089 -0.288041 0
M  V30 3574 N 350.31 0.590341 -1.46126 0
M  V30 3575 C 351.558 1.34616 -1.50742 0
M  V30 3576 C 351.879 1.94363 -0.157486 0
M  V30 3577 O 351.149 1.78136 0.815136 0
M  V30 3578 H 349.729 0.499789 -0.555175 0
M  V30 3579 H 352.391 0.691953 -1.82203 0
M  V30 3580 H 351.487 2.15678 -2.25587 0
M  V30 3581 N 351.788 1.33704 0.83433 0
M  V30 3582 C 353.013 1.28615 1.62705 0
M  V30 3583 C 353.438 -0.139242 1.87584 0
M  V30 3584 O 352.796 -1.09734 1.4432 0
M  V30 3585 C 352.844 2.07139 2.95171 0
M  V30 3586 O 351.948 1.4331 3.86699 0
M  V30 3587 H 351.289 0.44226 0.49528 0
M  V30 3588 H 353.819 1.76335 1.03766 0
M  V30 3589 H 353.829 2.18073 3.44831 0
M  V30 3590 H 352.504 3.10779 2.76386 0
M  V30 3591 H 351.081 1.4105 3.45195 0
M  V30 3592 N 353.266 -1.05314 1.17247 0
M  V30 3593 C 354.677 -1.59753 0.96623 0
M  V30 3594 C 355.028 -1.9005 -0.487378 0
M  V30 3595 O 354.153 -1.68126 -1.36245 0
M  V30 3596 C 354.748 -2.90249 1.74759 0
M  V30 3597 C 353.307 -3.41352 1.58606 0
M  V30 3598 C 352.454 -2.15103 1.75002 0
M  V30 3599 H 355.405 -0.881406 1.31973 0
M  V30 3600 H 355.426 -3.60097 1.22925 0
M  V30 3601 H 354.938 -2.68166 2.8055 0
M  V30 3602 H 353.039 -3.68474 0.552985 0
M  V30 3603 H 353.152 -4.16019 2.37624 0
M  V30 3604 H 351.516 -2.25804 1.17833 0
M  V30 3605 H 352.299 -1.95491 2.82202 0
M  V30 3606 N 354.744 -0.972509 -1.24016 0
M  V30 3607 C 356.155 -0.67517 -1.74064 0
M  V30 3608 C 356.506 0.808939 -1.78747 0
M  V30 3609 O 355.631 1.63286 -1.42009 0
M  V30 3610 C 356.226 -1.21889 -3.16115 0
M  V30 3611 C 354.785 -0.971358 -3.6365 0
M  V30 3612 C 353.932 -1.35134 -2.42145 0
M  V30 3613 H 356.883 -1.14727 -1.09651 0
M  V30 3614 H 356.904 -0.587489 -3.75937 0
M  V30 3615 H 356.416 -2.29906 -3.12674 0
M  V30 3616 H 354.517 0.0930686 -3.72484 0
M  V30 3617 H 354.63 -1.62039 -4.50866 0
M  V30 3618 H 352.994 -0.769751 -2.4279 0
M  V30 3619 H 353.777 -2.4411 -2.41381 0
M  V30 3620 N 356.222 1.38976 -0.743202 0
M  V30 3621 C 357.638 1.53984 -0.419664 0
M  V30 3622 C 357.838 1.70837 1.0685 0
M  V30 3623 O 356.894 1.7135 1.8546 0
M  V30 3624 C 358.207 2.75287 -1.20985 0
M  V30 3625 C 359.755 2.89129 -1.19889 0
M  V30 3626 C 360.23 4.13381 -1.97181 0
M  V30 3627 N 361.721 4.20437 -1.94389 0
M  V30 3628 C 362.456 5.15547 -2.50996 0
M  V30 3629 N 361.952 6.16395 -3.16274 0
M  V30 3630 N 363.745 5.07822 -2.40984 0
M  V30 3631 H 355.896 1.26285 -1.7078 0
M  V30 3632 H 358.159 0.612689 -0.723406 0
M  V30 3633 H 357.865 2.69204 -2.26323 0
M  V30 3634 H 357.739 3.68184 -0.819759 0
M  V30 3635 H 360.126 2.947 -0.153606 0
M  V30 3636 H 360.207 1.97272 -1.62841 0
M  V30 3637 H 359.851 4.08572 -3.01714 0
M  V30 3638 H 359.781 5.04298 -1.51629 0
M  V30 3639 H 362.272 3.48205 -1.46839 0
M  V30 3640 H 362.585 6.85443 -3.56915 0
M  V30 3641 H 360.93 6.16758 -3.20367 0
M  V30 3642 H 364.121 4.27973 -1.89622 0
M  V30 3643 H 364.294 5.81767 -2.85397 0
M  V30 3644 N 357.7 0.491464 1.49741 0
M  V30 3645 C 358.925 -0.0557177 2.07325 0
M  V30 3646 C 359.35 -1.30925 1.35056 0
M  V30 3647 O 358.708 -1.76733 0.404365 0
M  V30 3648 C 358.756 -0.302074 3.59333 0
M  V30 3649 O 357.86 -1.37868 3.88672 0
M  V30 3650 H 357.201 0.0219956 0.663636 0
M  V30 3651 H 359.731 0.688352 1.92673 0
M  V30 3652 H 359.741 -0.536464 4.04458 0
M  V30 3653 H 358.416 0.61383 4.11345 0
M  V30 3654 H 356.993 -1.12999 3.55367 0
M  V30 3655 N 359.178 -1.55987 0.224894 0
M  V30 3656 C 360.141 -2.19178 -0.670348 0
M  V30 3657 C 361.141 -1.15461 -1.11917 0
M  V30 3658 O 362.331 -1.40675 -1.02743 0
M  V30 3659 C 359.463 -2.81777 -1.9187 0
M  V30 3660 H 360.656 -2.99662 -0.119364 0
M  V30 3661 H 358.209 -1.5628 -0.0247128 0
M  V30 3662 H 358.944 -2.05172 -2.51147 0
M  V30 3663 H 358.729 -3.57732 -1.60531 0
M  V30 3664 H 360.219 -3.30205 -2.55645 0
M  V30 3665 N 360.656 0.0484629 -1.57525 0
M  V30 3666 C 362.067 0.597486 -1.76881 0
M  V30 3667 C 362.418 1.76664 -0.853475 0
M  V30 3668 O 361.543 2.16357 -0.0433656 0
M  V30 3669 C 362.138 1.09066 -3.20765 0
M  V30 3670 C 360.697 1.58535 -3.41385 0
M  V30 3671 C 359.844 0.514868 -2.72478 0
M  V30 3672 H 362.795 -0.177758 -1.57701 0
M  V30 3673 H 362.816 1.95875 -3.2621 0
M  V30 3674 H 362.328 0.239521 -3.8736 0
M  V30 3675 H 360.429 2.45898 -2.79937 0
M  V30 3676 H 360.542 1.64622 -4.49929 0
M  V30 3677 H 358.906 0.965407 -2.35695 0
M  V30 3678 H 359.689 -0.32648 -3.41744 0
M  V30 3679 N 362.134 1.5431 0.320358 0
M  V30 3680 C 363.382 1.72327 1.05583 0
M  V30 3681 C 363.703 0.50149 1.88441 0
M  V30 3682 O 362.973 -0.48448 1.89815 0
M  V30 3683 H 361.553 0.635387 0.3928 0
M  V30 3684 H 364.215 1.91621 0.356019 0
M  V30 3685 H 363.311 2.60426 1.72003 0
M  V30 3686 N 363.613 -0.582584 1.46437 0
M  V30 3687 C 364.545 -1.70618 1.53043 0
M  V30 3688 C 365.558 -1.57322 0.418769 0
M  V30 3689 O 366.747 -1.64744 0.687136 0
M  V30 3690 C 363.847 -3.08869 1.39474 0
M  V30 3691 C 363.02 -3.48166 2.64762 0
M  V30 3692 C 362.079 -4.65478 2.4539 0
M  V30 3693 O 361.105 -4.71333 3.19114 0
M  V30 3694 N 362.307 -5.60365 1.51564 0
M  V30 3695 H 365.072 -1.65405 2.49923 0
M  V30 3696 H 362.633 -0.768567 1.42494 0
M  V30 3697 H 364.625 -3.85143 1.24287 0
M  V30 3698 H 363.195 -3.08449 0.507758 0
M  V30 3699 H 362.415 -2.61598 2.9489 0
M  V30 3700 H 363.703 -3.71188 3.4799 0
M  V30 3701 H 363.101 -5.5837 0.907705 0
M  V30 3702 H 361.658 -6.36068 1.4234 0
M  V30 3703 N 365.091 -1.34144 -0.827227 0
M  V30 3704 C 366.021 -1.28005 -1.95287 0
M  V30 3705 C 367.002 -0.158321 -1.69362 0
M  V30 3706 O 368.187 -0.349987 -1.9102 0
M  V30 3707 C 365.317 -1.03036 -3.31664 0
M  V30 3708 C 364.271 -2.11628 -3.72019 0
M  V30 3709 C 363.597 -1.71854 -5.0633 0
M  V30 3710 C 364.897 -3.53417 -3.8457 0
M  V30 3711 H 366.591 -2.22187 -2.00682 0
M  V30 3712 H 364.137 -1.0696 -0.964135 0
M  V30 3713 H 366.09 -0.973863 -4.09993 0
M  V30 3714 H 364.814 -0.0529391 -3.26557 0
M  V30 3715 H 363.473 -2.16339 -2.95961 0
M  V30 3716 H 363.121 -0.727841 -4.97706 0
M  V30 3717 H 362.821 -2.44531 -5.34302 0
M  V30 3718 H 364.345 -1.67692 -5.87122 0
M  V30 3719 H 365.759 -3.51142 -4.5318 0
M  V30 3720 H 364.156 -4.24679 -4.2399 0
M  V30 3721 H 365.226 -3.91072 -2.86689 0
M  V30 3722 N 366.569 1.04691 -1.17803 0
M  V30 3723 C 367.98 1.59238 -0.974689 0
M  V30 3724 C 368.331 1.90306 0.477292 0
M  V30 3725 O 367.456 1.68846 1.35352 0
M  V30 3726 C 368.051 2.89318 -1.76296 0
M  V30 3727 C 366.61 3.40506 -1.60414 0
M  V30 3728 C 365.757 2.14172 -1.76141 0
M  V30 3729 H 368.708 0.874395 -1.32439 0
M  V30 3730 H 368.729 3.5944 -1.24833 0
M  V30 3731 H 368.241 2.66675 -2.81968 0
M  V30 3732 H 366.342 3.68175 -0.572519 0
M  V30 3733 H 366.455 4.14753 -2.39827 0
M  V30 3734 H 364.819 2.25176 -1.19028 0
M  V30 3735 H 365.602 1.93992 -2.83235 0
M  V30 3736 N 368.047 0.979072 1.23499 0
M  V30 3737 C 369.272 0.664845 1.96455 0
M  V30 3738 C 369.697 -0.761287 1.72006 0
M  V30 3739 O 369.055 -1.51837 0.990713 0
M  V30 3740 C 369.103 0.959479 3.47601 0
M  V30 3741 O 368.207 0.0508168 4.12369 0
M  V30 3742 H 367.548 0.250185 0.615064 0
M  V30 3743 H 370.078 1.31231 1.5697 0
M  V30 3744 H 370.088 0.895642 3.98048 0
M  V30 3745 H 368.763 1.99876 3.64723 0
M  V30 3746 H 367.34 0.16895 3.72517 0
M  V30 3747 N 369.525 -1.3858 0.750561 0
M  V30 3748 C 370.936 -1.82927 0.373438 0
M  V30 3749 C 371.287 -1.62634 -1.09748 0
M  V30 3750 O 370.412 -1.12588 -1.84805 0
M  V30 3751 C 371.007 -3.32088 0.671029 0
M  V30 3752 C 369.566 -3.74795 0.34722 0
M  V30 3753 C 368.713 -2.61391 0.92575 0
M  V30 3754 H 371.664 -1.27351 0.946958 0
M  V30 3755 H 371.685 -3.80465 -0.0518269 0
M  V30 3756 H 371.197 -3.46826 1.74164 0
M  V30 3757 H 369.298 -3.65638 -0.716933 0
M  V30 3758 H 369.411 -4.71667 0.840656 0
M  V30 3759 H 367.775 -2.52265 0.351327 0
M  V30 3760 H 368.558 -2.78929 2.00133 0
M  V30 3761 N 371.003 -0.499398 -1.49478 0
M  V30 3762 C 372.419 -0.155261 -1.58843 0
M  V30 3763 C 372.619 1.34008 -1.50479 0
M  V30 3764 O 371.675 2.11589 -1.37791 0
M  V30 3765 C 372.988 -0.730636 -2.91689 0
M  V30 3766 C 374.536 -0.696599 -3.0515 0
M  V30 3767 C 375.011 -1.25001 -4.40612 0
M  V30 3768 N 376.502 -1.21064 -4.47099 0
M  V30 3769 C 377.237 -1.60905 -5.50361 0
M  V30 3770 N 376.733 -2.08331 -6.60735 0
M  V30 3771 N 378.526 -1.52331 -5.41065 0
M  V30 3772 H 370.677 -1.47162 -1.53158 0
M  V30 3773 H 372.94 -0.610309 -0.725415 0
M  V30 3774 H 372.646 -1.77928 -3.03372 0
M  V30 3775 H 372.52 -0.190161 -3.7672 0
M  V30 3776 H 374.907 0.343204 -2.93097 0
M  V30 3777 H 374.988 -1.2742 -2.21806 0
M  V30 3778 H 374.632 -2.28859 -4.53416 0
M  V30 3779 H 374.562 -0.64836 -5.22593 0
M  V30 3780 H 377.053 -0.863128 -3.67911 0
M  V30 3781 H 377.366 -2.36805 -7.35624 0
M  V30 3782 H 375.711 -2.12304 -6.6178 0
M  V30 3783 H 378.902 -1.151 -4.53729 0
M  V30 3784 H 379.075 -1.83704 -6.21415 0
M  V30 3785 N 372.481 1.55866 -0.233164 0
M  V30 3786 C 373.444 2.1953 0.658715 0
M  V30 3787 C 374.444 1.16053 1.11303 0
M  V30 3788 O 375.634 1.41218 1.01996 0
M  V30 3789 C 372.766 2.82791 1.90373 0
M  V30 3790 H 373.959 2.99721 0.10347 0
M  V30 3791 H 371.512 1.56291 0.0164245 0
M  V30 3792 H 372.247 2.06501 2.50056 0
M  V30 3793 H 372.032 3.58578 1.58632 0
M  V30 3794 H 373.522 3.31556 2.53891 0
M  V30 3795 N 373.959 -0.0401083 1.57549 0
M  V30 3796 C 374.909 -1.05175 2.02292 0
M  V30 3797 C 375.893 -1.32674 0.910294 0
M  V30 3798 O 377.085 -1.32444 1.17421 0
M  V30 3799 C 374.214 -2.35622 2.49674 0
M  V30 3800 C 373.3 -2.11261 3.67736 0
M  V30 3801 N 373.691 -1.56923 4.80842 0
M  V30 3802 C 371.989 -2.41596 3.74897 0
M  V30 3803 C 372.69 -1.48111 5.62528 0
M  V30 3804 N 371.666 -1.95282 5.07312 0
M  V30 3805 H 375.468 -0.625455 2.87168 0
M  V30 3806 H 372.982 -0.246624 1.60516 0
M  V30 3807 H 374.979 -3.08893 2.79983 0
M  V30 3808 H 373.639 -2.7894 1.662 0
M  V30 3809 H 374.65 -1.25345 5.02503 0
M  V30 3810 H 371.327 -2.88064 3.02201 0
M  V30 3811 H 372.717 -1.06683 6.63377 0
M  V30 3812 N 375.437 -1.54477 -0.31217 0
M  V30 3813 C 376.662 -1.77526 -1.07235 0
M  V30 3814 C 377.087 -0.527775 -1.80544 0
M  V30 3815 O 376.445 0.52121 -1.73646 0
M  V30 3816 C 376.493 -2.97535 -2.03728 0
M  V30 3817 O 375.597 -2.69878 -3.11833 0
M  V30 3818 H 374.938 -0.58792 -0.30862 0
M  V30 3819 H 377.468 -2.01532 -0.352993 0
M  V30 3820 H 377.478 -3.25198 -2.46395 0
M  V30 3821 H 376.153 -3.87996 -1.49774 0
M  V30 3822 H 374.73 -2.53199 -2.7376 0
M  V30 3823 N 376.915 0.57481 -1.46744 0
M  V30 3824 C 377.845 1.69337 -1.60771 0
M  V30 3825 C 378.826 1.63825 -0.457736 0
M  V30 3826 O 380.011 1.8172 -0.684947 0
M  V30 3827 C 377.141 3.0798 -1.60517 0
M  V30 3828 C 376.095 3.28327 -2.74564 0
M  V30 3829 C 375.421 4.67578 -2.59373 0
M  V30 3830 C 376.721 3.15398 -4.16319 0
M  V30 3831 H 378.415 1.57853 -2.54407 0
M  V30 3832 H 375.961 0.75799 -1.22436 0
M  V30 3833 H 377.914 3.86061 -1.68923 0
M  V30 3834 H 376.638 3.20381 -0.634305 0
M  V30 3835 H 375.297 2.52649 -2.65639 0
M  V30 3836 H 374.945 4.76755 -1.60353 0
M  V30 3837 H 374.645 4.82144 -3.35873 0
M  V30 3838 H 376.169 5.47817 -2.69682 0
M  V30 3839 H 377.583 3.83315 -4.26313 0
M  V30 3840 H 375.98 3.41482 -4.93468 0
M  V30 3841 H 377.05 2.12372 -4.3592 0
M  V30 3842 N 378.394 1.34581 0.820102 0
M  V30 3843 C 379.342 1.26401 1.95258 0
M  V30 3844 C 380.336 0.161553 1.68628 0
M  V30 3845 O 381.542 0.326703 1.7701 0
M  V30 3846 H 377.917 0.392749 0.64129 0
M  V30 3847 H 379.888 2.22105 1.99279 0
M  V30 3848 C 378.637 1.03919 3.31807 0
M  V30 3849 H 377.96 1.87984 3.52848 0
M  V30 3850 H 379.4 1.02232 4.11491 0
M  V30 3851 C 377.859 -0.257433 3.35915 0
M  V30 3852 O 378.389 -1.25784 3.81499 0
M  V30 3853 N 376.595 -0.291524 2.89134 0
M  V30 3854 H 376.142 0.523161 2.52232 0
M  V30 3855 H 376.1 -1.15883 2.92264 0
M  V30 3856 N 379.872 -1.04064 1.18357 0
M  V30 3857 C 381.283 -1.58719 0.98312 0
M  V30 3858 C 381.634 -1.90556 -0.467193 0
M  V30 3859 O 380.759 -1.69561 -1.34454 0
M  V30 3860 C 381.354 -2.88379 1.77828 0
M  V30 3861 C 379.913 -3.3965 1.62218 0
M  V30 3862 C 379.06 -2.13235 1.77274 0
M  V30 3863 H 382.011 -0.867359 1.32901 0
M  V30 3864 H 382.032 -3.58773 1.26737 0
M  V30 3865 H 381.544 -2.65176 2.83379 0
M  V30 3866 H 379.645 -3.67866 0.592036 0
M  V30 3867 H 379.758 -4.13475 2.42023 0
M  V30 3868 H 378.122 -2.24542 1.20221 0
M  V30 3869 H 378.905 -1.92487 2.8426 0
M  V30 3870 N 381.35 -0.985608 -1.22978 0
M  V30 3871 C 382.627 -0.573599 -1.87001 0
M  V30 3872 C 383.007 0.949213 -1.88555 0
M  V30 3873 O 382.355 1.82811 -1.37086 0
M  V30 3874 C 382.565 -1.18564 -3.28243 0
M  V30 3875 C 383.913 -1.28163 -4.04796 0
M  V30 3876 O 384.937 -1.13949 -3.37482 0
M  V30 3877 O 383.796 -1.50832 -5.25273 0
M  V30 3878 H 380.89 -0.193868 -0.803955 0
M  V30 3879 H 383.436 -1.08102 -1.30813 0
M  V30 3880 H 382.208 -2.22758 -3.21706 0
M  V30 3881 H 381.831 -0.663363 -3.92027 0
M  V30 3882 N 382.828 1.3818 -0.7579 0
M  V30 3883 C 383.791 2.28764 -0.141286 0
M  V30 3884 C 384.791 1.47388 0.642907 0
M  V30 3885 O 385.981 1.67781 0.468536 0
M  V30 3886 C 383.113 3.31184 0.808069 0
M  V30 3887 H 384.306 2.848 -0.939633 0
M  V30 3888 H 381.859 1.47212 -0.525191 0
M  V30 3889 H 382.594 2.80247 1.63193 0
M  V30 3890 H 382.379 3.91314 0.248104 0
M  V30 3891 H 383.869 3.98909 1.23536 0
M  V30 3892 N 384.306 0.507319 1.49211 0
M  V30 3893 C 385.531 -0.033725 2.07373 0
M  V30 3894 C 385.956 -1.29485 1.36437 0
M  V30 3895 O 385.314 -1.76294 0.423087 0
M  V30 3896 C 385.362 -0.263945 3.59633 0
M  V30 3897 O 384.466 -1.33737 3.90113 0
M  V30 3898 H 383.807 0.0290331 0.663365 0
M  V30 3899 H 386.337 0.708749 1.91932 0
M  V30 3900 H 386.347 -0.493536 4.05004 0
M  V30 3901 H 385.022 0.657424 4.10671 0
M  V30 3902 H 383.599 -1.09224 3.56545 0
M  V30 3903 N 385.784 -1.5574 0.241426 0
M  V30 3904 C 387.032 -1.98417 -0.384075 0
M  V30 3905 C 387.353 -1.13078 -1.58866 0
M  V30 3906 O 386.623 -0.212312 -1.94746 0
M  V30 3907 H 385.203 -0.732813 -0.144894 0
M  V30 3908 H 387.865 -1.9193 0.338943 0
M  V30 3909 H 386.961 -3.04219 -0.696939 0
M  V30 3910 N 387.262 0.0317525 -1.57568 0
M  V30 3911 C 388.487 0.738664 -1.938 0
M  V30 3912 C 388.912 1.68242 -0.841208 0
M  V30 3913 O 388.27 1.80157 0.203267 0
M  V30 3914 C 388.318 1.47417 -3.29091 0
M  V30 3915 O 387.422 2.5872 -3.2115 0
M  V30 3916 H 386.763 0.198856 -0.633524 0
M  V30 3917 H 389.293 -0.0119713 -2.04596 0
M  V30 3918 H 389.303 1.84468 -3.63917 0
M  V30 3919 H 387.978 0.781988 -4.08482 0
M  V30 3920 H 386.555 2.24231 -2.97951 0
M  V30 3921 N 388.74 1.54641 0.303973 0
M  V30 3922 C 389.965 1.78092 1.06292 0
M  V30 3923 C 390.39 0.537342 1.80262 0
M  V30 3924 O 389.748 -0.511993 1.7392 0
M  V30 3925 C 389.796 2.98612 2.02147 0
M  V30 3926 O 388.9 2.71528 3.10397 0
M  V30 3927 H 388.241 0.589548 0.305497 0
M  V30 3928 H 390.771 2.01716 0.3423 0
M  V30 3929 H 390.781 3.265 2.44667 0
M  V30 3930 H 389.456 3.88785 1.47714 0
M  V30 3931 H 388.033 2.54648 2.72413 0
M  V30 3932 N 390.218 -0.567019 1.47046 0
M  V30 3933 C 391.458 -1.3355 1.54738 0
M  V30 3934 C 391.822 -1.90947 0.200772 0
M  V30 3935 O 393.023 -2.68367 0.152489 0
M  V30 3936 C 391.294 -2.42317 2.62712 0
M  V30 3937 S 392.853 -3.29383 2.89918 0
M  V30 3938 H 389.671 -0.454788 0.546525 0
M  V30 3939 H 392.273 -0.650191 1.84371 0
M  V30 3940 H 390.977 -1.98568 3.59164 0
M  V30 3941 H 390.508 -3.15601 2.34861 0
M  V30 3942 H 392.523 -4.41548 2.26384 0
M  V30 3943 N 391.696 -1.35014 -0.812953 0
M  V30 3944 C 392.921 -1.31187 -1.60639 0
M  V30 3945 C 393.346 0.109382 -1.87782 0
M  V30 3946 O 392.704 1.07424 -1.46047 0
M  V30 3947 C 392.752 -2.11809 -2.91838 0
M  V30 3948 O 391.856 -1.49444 -3.8437 0
M  V30 3949 H 391.197 -0.450084 -0.488181 0
M  V30 3950 H 393.727 -1.77963 -1.00947 0
M  V30 3951 H 393.737 -2.23531 -3.41318 0
M  V30 3952 H 392.412 -3.15137 -2.71407 0
M  V30 3953 H 390.989 -1.46524 -3.42907 0
M  V30 3954 N 393.175 1.03435 -1.18907 0
M  V30 3955 C 394.105 2.13503 -0.945448 0
M  V30 3956 C 395.086 1.69682 0.119189 0
M  V30 3957 O 396.271 1.94169 -0.034707 0
M  V30 3958 C 393.401 3.44004 -0.477316 0
M  V30 3959 C 392.355 4.0148 -1.48316 0
M  V30 3960 C 391.681 5.27537 -0.872311 0
M  V30 3961 C 392.981 4.36921 -2.86177 0
M  V30 3962 H 394.675 2.34141 -1.86597 0
M  V30 3963 H 392.221 1.12523 -0.898584 0
M  V30 3964 H 394.174 4.20372 -0.294204 0
M  V30 3965 H 392.898 3.23072 0.478786 0
M  V30 3966 H 391.557 3.27201 -1.65332 0
M  V30 3967 H 391.205 5.02917 0.0911752 0
M  V30 3968 H 390.905 5.66954 -1.54393 0
M  V30 3969 H 392.429 6.06576 -0.699871 0
M  V30 3970 H 393.843 5.04248 -2.72776 0
M  V30 3971 H 392.24 4.87405 -3.50081 0
M  V30 3972 H 393.31 3.46466 -3.39248 0
M  V30 3973 N 394.653 0.992116 1.22453 0
M  V30 3974 C 395.616 0.546883 2.2258 0
M  V30 3975 C 396.616 -0.369829 1.56489 0
M  V30 3976 O 397.806 -0.161896 1.73446 0
M  V30 3977 C 394.938 -0.204659 3.40285 0
M  V30 3978 H 396.131 1.43234 2.63484 0
M  V30 3979 H 393.684 0.779239 1.3549 0
M  V30 3980 H 394.419 -1.10614 3.04853 0
M  V30 3981 H 394.204 0.45354 3.89468 0
M  V30 3982 H 395.694 -0.504358 4.14543 0
M  V30 3983 N 396.131 -1.37776 0.765217 0
M  V30 3984 C 397.547 -1.53297 0.444108 0
M  V30 3985 C 397.747 -1.72515 -1.04119 0
M  V30 3986 O 396.803 -1.74278 -1.82711 0
M  V30 3987 C 398.116 -2.73328 1.25349 0
M  V30 3988 C 399.664 -2.87185 1.24473 0
M  V30 3989 C 400.139 -4.10191 2.03733 0
M  V30 3990 N 401.63 -4.17291 2.01053 0
M  V30 3991 C 402.365 -5.11488 2.59166 0
M  V30 3992 N 401.861 -6.11285 3.26041 0
M  V30 3993 N 403.654 -5.03924 2.49032 0
M  V30 3994 H 395.805 -1.23552 1.72768 0
M  V30 3995 H 398.068 -0.601103 0.733062 0
M  V30 3996 H 397.774 -2.6557 2.30577 0
M  V30 3997 H 397.648 -3.66834 0.87823 0
M  V30 3998 H 400.035 -2.94418 0.20047 0
M  V30 3999 H 400.116 -1.94657 1.65959 0
M  V30 4000 H 399.76 -4.0372 3.08176 0
M  V30 4001 H 399.69 -5.01821 1.59633 0
M  V30 4002 H 402.181 -3.45825 1.5236 0
M  V30 4003 H 402.494 -6.79678 3.67774 0
M  V30 4004 H 400.839 -6.11583 3.30138 0
M  V30 4005 H 404.03 -4.24902 1.96407 0
M  V30 4006 H 404.203 -5.77152 2.94617 0
M  V30 4007 N 397.609 -0.515225 -1.4894 0
M  V30 4008 C 398.837 0.0206034 -2.0689 0
M  V30 4009 C 399.252 1.29514 -1.37374 0
M  V30 4010 O 398.609 1.76698 -0.456529 0
M  V30 4011 C 398.66 0.26351 -3.60538 0
M  V30 4012 O 398.381 -0.960517 -4.27441 0
M  V30 4013 C 399.882 0.841383 -4.35242 0
M  V30 4014 H 397.102 -0.0268608 -0.670462 0
M  V30 4015 H 399.646 -0.716651 -1.91532 0
M  V30 4016 H 397.801 0.950777 -3.75552 0
M  V30 4017 H 398.215 -0.73212 -5.19365 0
M  V30 4018 H 399.689 0.96085 -5.43573 0
M  V30 4019 H 400.166 1.8427 -3.98674 0
M  V30 4020 H 400.772 0.191143 -4.2487 0
M  V30 4021 N 399.087 1.5561 -0.249682 0
M  V30 4022 C 400.503 1.59254 0.105103 0
M  V30 4023 C 400.703 1.26685 1.56694 0
M  V30 4024 O 399.759 1.0155 2.31179 0
M  V30 4025 C 401.072 2.99687 -0.246592 0
M  V30 4026 C 402.62 3.12416 -0.191118 0
M  V30 4027 C 403.095 4.55074 -0.516885 0
M  V30 4028 N 404.586 4.60835 -0.467489 0
M  V30 4029 C 405.321 5.69201 -0.69268 0
M  V30 4030 N 404.817 6.85817 -0.981146 0
M  V30 4031 N 406.61 5.58635 -0.623198 0
M  V30 4032 H 398.761 1.75049 -1.20298 0
M  V30 4033 H 401.024 0.815003 -0.484225 0
M  V30 4034 H 400.73 3.28267 -1.26228 0
M  V30 4035 H 400.604 3.74798 0.424962 0
M  V30 4036 H 402.991 2.83615 0.815247 0
M  V30 4037 H 403.072 2.39573 -0.896563 0
M  V30 4038 H 402.716 4.84596 -1.52082 0
M  V30 4039 H 402.646 5.26181 0.210068 0
M  V30 4040 H 405.137 3.7705 -0.253373 0
M  V30 4041 H 405.45 7.64341 -1.14032 0
M  V30 4042 H 403.795 6.87494 -1.01865 0
M  V30 4043 H 406.986 4.66406 -0.397863 0
M  V30 4044 H 407.159 6.43017 -0.802093 0
M  V30 4045 N 400.565 -0.0233959 1.57583 0
M  V30 4046 C 401.79 -0.728376 1.94189 0
M  V30 4047 C 402.215 -1.67793 0.850119 0
M  V30 4048 O 401.573 -1.80262 -0.19371 0
M  V30 4049 C 401.621 -1.45669 3.29868 0
M  V30 4050 O 400.725 -2.57013 3.22518 0
M  V30 4051 H 400.066 -0.195493 0.63457 0
M  V30 4052 H 402.596 0.0228214 2.04587 0
M  V30 4053 H 402.606 -1.82535 3.6489 0
M  V30 4054 H 401.281 -0.760314 4.08891 0
M  V30 4055 H 399.858 -2.22648 2.99136 0
M  V30 4056 N 402.043 -1.548 -0.295768 0
M  V30 4057 C 403.459 -1.4613 -0.641722 0
M  V30 4058 C 403.659 -0.656771 -1.90496 0
M  V30 4059 O 402.715 -0.166547 -2.5195 0
M  V30 4060 C 404.028 -2.90141 -0.789852 0
M  V30 4061 C 405.576 -3.00216 -0.885396 0
M  V30 4062 C 406.051 -4.45434 -1.06548 0
M  V30 4063 N 407.542 -4.49166 -1.13156 0
M  V30 4064 C 408.277 -5.58717 -1.28929 0
M  V30 4065 N 407.773 -6.78182 -1.41567 0
M  V30 4066 N 409.566 -5.46415 -1.31859 0
M  V30 4067 H 401.717 -2.05574 0.534147 0
M  V30 4068 H 403.98 -0.931259 0.177372 0
M  V30 4069 H 403.686 -3.51635 0.0675598 0
M  V30 4070 H 403.56 -3.37859 -1.67724 0
M  V30 4071 H 405.947 -2.38833 -1.73329 0
M  V30 4072 H 406.028 -2.55787 0.0261185 0
M  V30 4073 H 405.672 -5.07413 -0.222335 0
M  V30 4074 H 405.602 -4.87499 -1.9913 0
M  V30 4075 H 408.093 -3.631 -1.04721 0
M  V30 4076 H 408.406 -7.57428 -1.53372 0
M  V30 4077 H 406.751 -6.81037 -1.38613 0
M  V30 4078 H 409.942 -4.5203 -1.21601 0
M  V30 4079 H 410.115 -6.31841 -1.43808 0
M  V30 4080 N 403.521 0.559213 -1.47345 0
M  V30 4081 C 404.431 1.69388 -1.62311 0
M  V30 4082 C 405.447 1.6648 -0.505993 0
M  V30 4083 O 406.623 1.85964 -0.773262 0
M  V30 4084 C 403.688 3.05894 -1.63185 0
M  V30 4085 C 402.749 3.19885 -2.86307 0
M  V30 4086 C 401.982 4.49879 -2.87131 0
M  V30 4087 O 402.205 5.35217 -1.97229 0
M  V30 4088 O 401.139 4.67618 -3.78968 0
M  V30 4089 H 404.965 1.59706 -2.58317 0
M  V30 4090 H 402.55 0.728989 -1.30407 0
M  V30 4091 H 404.432 3.87133 -1.66451 0
M  V30 4092 H 403.107 3.15964 -0.70345 0
M  V30 4093 H 402.014 2.38052 -2.88587 0
M  V30 4094 H 403.347 3.14718 -3.78435 0
M  V30 4095 N 404.999 1.35443 0.805782 0
M  V30 4096 C 406.224 1.32037 1.59941 0
M  V30 4097 C 406.649 -0.0994215 1.87837 0
M  V30 4098 O 406.007 -1.06648 1.46615 0
M  V30 4099 C 406.055 2.13354 2.90711 0
M  V30 4100 O 405.159 1.5148 3.83572 0
M  V30 4101 H 404.5 0.452666 0.485787 0
M  V30 4102 H 407.03 1.78496 1.00002 0
M  V30 4103 H 407.04 2.25338 3.40128 0
M  V30 4104 H 405.715 3.16572 2.69732 0
M  V30 4105 H 404.292 1.4834 3.42125 0
M  V30 4106 N 406.477 -1.02803 1.19454 0
M  V30 4107 C 407.717 -1.77769 1.00883 0
M  V30 4108 C 408.081 -1.86596 -0.45233 0
M  V30 4109 O 409.282 -2.57895 -0.757877 0
M  V30 4110 C 407.553 -3.16486 1.66046 0
M  V30 4111 S 409.112 -4.07632 1.62424 0
M  V30 4112 H 405.93 -0.611949 0.361993 0
M  V30 4113 H 408.532 -1.23175 1.51816 0
M  V30 4114 H 407.236 -3.0768 2.7159 0
M  V30 4115 H 406.767 -3.76156 1.15196 0
M  V30 4116 H 408.782 -4.91937 0.64903 0
M  V30 4117 N 407.956 -0.998596 -1.21925 0
M  V30 4118 C 408.919 -0.558679 -2.22287 0
M  V30 4119 C 409.919 0.361525 -1.56683 0
M  V30 4120 O 411.109 0.152695 -1.73529 0
M  V30 4121 C 408.241 0.18661 -3.40389 0
M  V30 4122 H 409.434 -1.4463 -2.62721 0
M  V30 4123 H 406.987 -0.786413 -1.35075 0
M  V30 4124 H 407.722 1.08996 -3.05435 0
M  V30 4125 H 407.507 -0.474188 -3.89222 0
M  V30 4126 H 408.997 0.482367 -4.14805 0
M  V30 4127 N 409.434 1.37368 -0.772513 0
M  V30 4128 C 410.659 2.0447 -0.347386 0
M  V30 4129 C 411.084 1.57882 1.0225 0
M  V30 4130 O 410.442 0.73941 1.65537 0
M  V30 4131 C 410.49 3.58369 -0.400479 0
M  V30 4132 O 409.594 4.0803 0.598789 0
M  V30 4133 H 408.935 0.646773 -0.15027 0
M  V30 4134 H 411.465 1.75667 -1.04892 0
M  V30 4135 H 411.475 4.07183 -0.258045 0
M  V30 4136 H 410.15 3.91633 -1.39986 0
M  V30 4137 H 408.727 3.70534 0.419411 0
M  V30 4138 N 410.912 0.523116 1.48665 0
M  V30 4139 C 412.158 -0.0134963 2.02796 0
M  V30 4140 C 412.491 -1.34582 1.40004 0
M  V30 4141 O 411.766 -1.86756 0.543381 0
M  V30 4142 C 412.049 -0.14276 3.59817 0
M  V30 4143 C 411.902 1.21425 4.331 0
M  V30 4144 C 413.221 -0.872856 4.31357 0
M  V30 4145 H 410.34 -0.00343074 0.736992 0
M  V30 4146 H 412.982 0.678816 1.7746 0
M  V30 4147 H 411.132 -0.732401 3.81534 0
M  V30 4148 H 412.804 1.84447 4.2282 0
M  V30 4149 H 411.047 1.79791 3.94788 0
M  V30 4150 H 411.718 1.07687 5.41394 0
M  V30 4151 H 414.194 -0.372555 4.14429 0
M  V30 4152 H 413.07 -0.932185 5.40927 0
M  V30 4153 H 413.331 -1.92161 3.98154 0
M  V30 4154 N 412.39 -1.55475 0.257931 0
M  V30 4155 C 413.806 -1.59307 -0.0966563 0
M  V30 4156 C 414.006 -1.27514 -1.5602 0
M  V30 4157 O 413.062 -1.02774 -2.30637 0
M  V30 4158 C 414.375 -2.99552 0.262481 0
M  V30 4159 C 415.923 -3.1231 0.207683 0
M  V30 4160 C 416.398 -4.54793 0.541012 0
M  V30 4161 N 417.889 -4.6058 0.491921 0
M  V30 4162 C 418.624 -5.68825 0.722857 0
M  V30 4163 N 418.12 -6.85287 1.0175 0
M  V30 4164 N 419.913 -5.58296 0.652815 0
M  V30 4165 H 412.064 -1.74409 1.21224 0
M  V30 4166 H 414.327 -0.812424 0.48854 0
M  V30 4167 H 414.033 -3.27593 1.27967 0
M  V30 4168 H 413.907 -3.75019 -0.40508 0
M  V30 4169 H 416.294 -2.84044 -0.800195 0
M  V30 4170 H 416.375 -2.39095 0.909255 0
M  V30 4171 H 416.019 -4.83783 1.5465 0
M  V30 4172 H 415.949 -5.26285 -0.18216 0
M  V30 4173 H 418.44 -3.7691 0.273366 0
M  V30 4174 H 418.753 -7.63725 1.18084 0
M  V30 4175 H 417.098 -6.86945 1.05509 0
M  V30 4176 H 420.289 -4.66189 0.422592 0
M  V30 4177 H 420.462 -6.42582 0.836182 0
M  V30 4178 N 413.868 0.0150385 -1.57593 0
M  V30 4179 C 415.284 0.370907 -1.5523 0
M  V30 4180 C 415.484 1.75735 -0.985882 0
M  V30 4181 O 414.54 2.44944 -0.613077 0
M  V30 4182 C 415.853 0.259908 -2.99575 0
M  V30 4183 C 417.401 0.335959 -3.11192 0
M  V30 4184 C 417.876 0.254253 -4.57294 0
M  V30 4185 N 419.367 0.312618 -4.62144 0
M  V30 4186 C 420.102 0.272505 -5.72752 0
M  V30 4187 N 419.598 0.183864 -6.92556 0
M  V30 4188 N 421.391 0.323267 -5.6117 0
M  V30 4189 H 413.542 -0.892104 -1.92757 0
M  V30 4190 H 415.805 -0.340563 -0.884715 0
M  V30 4191 H 415.511 -0.693403 -3.44797 0
M  V30 4192 H 415.385 1.048 -3.62349 0
M  V30 4193 H 417.772 1.27971 -2.65909 0
M  V30 4194 H 417.853 -0.481739 -2.51223 0
M  V30 4195 H 417.497 -0.685887 -5.03247 0
M  V30 4196 H 417.427 1.09024 -5.15191 0
M  V30 4197 H 419.918 0.38307 -3.75953 0
M  V30 4198 H 420.231 0.15874 -7.72637 0
M  V30 4199 H 418.576 0.149708 -6.94839 0
M  V30 4200 H 421.767 0.390607 -4.66467 0
M  V30 4201 H 421.94 0.288539 -6.47357 0
M  V30 4202 N 415.346 1.54954 0.287554 0
M  V30 4203 C 416.309 1.86076 1.33823 0
M  V30 4204 C 417.309 0.734414 1.43049 0
M  V30 4205 O 418.499 1.00266 1.42452 0
M  V30 4206 C 415.631 2.05305 2.72144 0
M  V30 4207 H 416.824 2.79984 1.07465 0
M  V30 4208 H 414.377 1.47223 0.524902 0
M  V30 4209 H 415.112 1.1373 3.03704 0
M  V30 4210 H 414.897 2.873 2.66836 0
M  V30 4211 H 416.387 2.30706 3.48087 0
M  V30 4212 N 416.824 -0.551391 1.4764 0
M  V30 4213 C 418.049 -1.33837 1.58437 0
M  V30 4214 C 418.474 -1.866 0.237063 0
M  V30 4215 O 417.832 -1.6328 -0.787994 0
M  V30 4216 C 417.88 -2.48014 2.61766 0
M  V30 4217 O 416.984 -3.50419 2.1744 0
M  V30 4218 H 416.325 -0.397299 0.532024 0
M  V30 4219 H 418.855 -0.665759 1.93465 0
M  V30 4220 H 418.865 -2.94503 2.82369 0
M  V30 4221 H 417.54 -2.08969 3.5959 0
M  V30 4222 H 416.117 -3.10196 2.06961 0
M  V30 4223 N 418.302 -1.35869 -0.798587 0
M  V30 4224 C 419.527 -1.32883 -1.59238 0
M  V30 4225 C 419.952 0.0894587 -1.87887 0
M  V30 4226 O 419.31 1.05869 -1.47178 0
M  V30 4227 C 419.358 -2.14892 -2.89575 0
M  V30 4228 O 418.462 -1.53512 -3.82763 0
M  V30 4229 H 417.803 -0.455236 -0.48338 0
M  V30 4230 H 420.333 -1.79024 -0.990539 0
M  V30 4231 H 420.343 -2.27139 -3.38928 0
M  V30 4232 H 419.018 -3.17998 -2.68049 0
M  V30 4233 H 417.595 -1.50153 -3.41334 0
M  V30 4234 N 419.78 1.02168 -1.19998 0
M  V30 4235 C 420.743 2.08765 -0.94604 0
M  V30 4236 C 421.743 1.60618 0.0763846 0
M  V30 4237 O 422.933 1.73472 -0.159135 0
M  V30 4238 C 420.065 3.38262 -0.423255 0
M  V30 4239 H 421.258 2.32726 -1.89153 0
M  V30 4240 H 418.811 1.1889 -1.01464 0
M  V30 4241 H 419.546 3.19974 0.527938 0
M  V30 4242 H 419.331 3.74532 -1.16053 0
M  V30 4243 H 420.821 4.16759 -0.264911 0
M  V30 4244 N 421.258 1.00505 1.21394 0
M  V30 4245 C 422.535 0.603277 1.86064 0
M  V30 4246 C 422.915 -0.919095 1.90042 0
M  V30 4247 O 422.263 -1.80607 1.39977 0
M  V30 4248 C 422.473 1.23772 3.26315 0
M  V30 4249 C 423.821 1.34586 4.02705 0
M  V30 4250 O 424.845 1.19304 3.35626 0
M  V30 4251 O 423.704 1.59169 5.22807 0
M  V30 4252 H 420.798 0.206634 0.800769 0
M  V30 4253 H 423.344 1.1017 1.29076 0
M  V30 4254 H 422.116 2.27848 3.18121 0
M  V30 4255 H 421.739 0.725648 3.90922 0
M  V30 4256 N 422.737 -1.36956 0.779787 0
M  V30 4257 C 424.014 -1.93697 0.272156 0
M  V30 4258 C 424.394 -1.71267 -1.23413 0
M  V30 4259 O 423.742 -1.06607 -2.02107 0
M  V30 4260 C 423.952 -3.42812 0.654291 0
M  V30 4261 C 425.3 -4.19921 0.628602 0
M  V30 4262 O 426.324 -3.51209 0.594172 0
M  V30 4263 O 425.183 -5.42465 0.662864 0
M  V30 4264 H 422.277 -0.824447 0.0649286 0
M  V30 4265 H 424.823 -1.46196 0.861682 0
M  V30 4266 H 423.595 -3.52754 1.69353 0
M  V30 4267 H 423.218 -3.97582 0.0381369 0
M  V30 4268 N 424.215 -0.530993 -1.48385 0
M  V30 4269 C 425.464 0.00474348 -2.01699 0
M  V30 4270 C 425.777 1.35227 -1.41325 0
M  V30 4271 O 426.983 1.97643 -1.86144 0
M  V30 4272 C 425.439 0.0588473 -3.59852 0
M  V30 4273 C 425.047 -1.28385 -4.2921 0
M  V30 4274 C 426.791 0.543358 -4.21008 0
M  V30 4275 C 424.698 -1.19028 -5.79298 0
M  V30 4276 H 423.628 0.00554317 -0.75398 0
M  V30 4277 H 426.279 -0.674924 -1.70637 0
M  V30 4278 H 424.661 0.803612 -3.8776 0
M  V30 4279 H 425.835 -2.04426 -4.12973 0
M  V30 4280 H 424.15 -1.70418 -3.7993 0
M  V30 4281 H 426.747 0.631351 -5.3096 0
M  V30 4282 H 427.09 1.54937 -3.86394 0
M  V30 4283 H 427.623 -0.145754 -3.97533 0
M  V30 4284 H 424.362 -2.17147 -6.18488 0
M  V30 4285 H 423.882 -0.471246 -5.97946 0
M  V30 4286 H 425.561 -0.881365 -6.40969 0
M  V30 4287 N 425.693 1.55336 -0.266172 0
M  V30 4288 C 426.603 2.2583 0.635458 0
M  V30 4289 C 427.619 1.28106 1.17749 0
M  V30 4290 O 428.795 1.61024 1.20968 0
M  V30 4291 C 425.86 2.95879 1.80712 0
M  V30 4292 C 424.921 4.09059 1.30265 0
M  V30 4293 C 424.154 4.75759 2.41846 0
M  V30 4294 O 424.377 4.41622 3.61007 0
M  V30 4295 O 423.311 5.63888 2.1051 0
M  V30 4296 H 427.137 3.03631 0.0646693 0
M  V30 4297 H 424.722 1.49361 -0.0339177 0
M  V30 4298 H 426.604 3.39932 2.49047 0
M  V30 4299 H 425.279 2.21002 2.36516 0
M  V30 4300 H 424.186 3.69482 0.586019 0
M  V30 4301 H 425.519 4.85811 0.790458 0
M  V30 4302 N 427.171 -0.0066808 1.57599 0
M  V30 4303 C 428.134 -0.985035 2.06953 0
M  V30 4304 C 429.134 -1.27663 0.977687 0
M  V30 4305 O 430.324 -1.22293 1.24057 0
M  V30 4306 C 427.456 -2.3118 2.50536 0
M  V30 4307 H 428.649 -0.558255 2.94658 0
M  V30 4308 H 426.202 -0.254011 1.54222 0
M  V30 4309 H 426.937 -2.78561 1.66054 0
M  V30 4310 H 426.722 -2.11338 3.3027 0
M  V30 4311 H 428.212 -3.01377 2.8907 0
M  V30 4312 N 428.649 -1.55105 -0.279332 0
M  V30 4313 C 429.582 -1.82467 -1.37044 0
M  V30 4314 C 430.56 -0.677261 -1.47824 0
M  V30 4315 O 431.744 -0.919578 -1.64548 0
M  V30 4316 C 428.871 -1.98066 -2.7475 0
M  V30 4317 C 427.917 -3.20594 -2.81286 0
M  V30 4318 S 428.75 -4.78116 -2.41175 0
M  V30 4319 C 429.906 -4.9668 -3.80867 0
M  V30 4320 H 430.139 -2.74728 -1.1363 0
M  V30 4321 H 427.672 -1.46794 -0.478625 0
M  V30 4322 H 429.63 -2.07739 -3.54055 0
M  V30 4323 H 428.291 -1.06704 -2.9542 0
M  V30 4324 H 427.484 -3.28376 -3.82341 0
M  V30 4325 H 427.086 -3.09479 -2.09996 0
M  V30 4326 H 429.378 -4.82033 -4.76078 0
M  V30 4327 H 430.321 -5.98741 -3.78041 0
M  V30 4328 H 430.729 -4.24698 -3.71876 0
M  V30 4329 N 430.127 0.543554 -1.4793 0
M  V30 4330 C 431.543 0.870806 -1.3375 0
M  V30 4331 C 431.743 1.9864 -0.338261 0
M  V30 4332 O 430.799 2.51305 0.245371 0
M  V30 4333 C 432.112 1.25114 -2.73435 0
M  V30 4334 C 433.66 1.3618 -2.81823 0
M  V30 4335 C 434.135 1.77563 -4.22179 0
M  V30 4336 N 435.626 1.8469 -4.24787 0
M  V30 4337 C 436.361 2.18067 -5.30315 0
M  V30 4338 N 435.857 2.49963 -6.46135 0
M  V30 4339 N 437.65 2.18958 -5.17701 0
M  V30 4340 H 429.801 -0.19275 -2.11524 0
M  V30 4341 H 432.064 -0.0235777 -0.947707 0
M  V30 4342 H 431.77 0.50514 -3.48053 0
M  V30 4343 H 431.644 2.20431 -3.06088 0
M  V30 4344 H 434.031 2.09859 -2.07468 0
M  V30 4345 H 434.112 0.390169 -2.52807 0
M  V30 4346 H 433.756 1.04449 -4.97044 0
M  V30 4347 H 433.686 2.75753 -4.48629 0
M  V30 4348 H 436.177 1.62372 -3.41239 0
M  V30 4349 H 436.49 2.74497 -7.22406 0
M  V30 4350 H 434.835 2.47513 -6.49432 0
M  V30 4351 H 438.026 1.93488 -4.2624 0
M  V30 4352 H 438.199 2.44639 -6.00047 0
M  V30 4353 N 431.605 1.3629 0.791371 0
M  V30 4354 C 432.568 1.30309 1.88553 0
M  V30 4355 C 433.568 0.211204 1.59407 0
M  V30 4356 O 434.758 0.465865 1.67855 0
M  V30 4357 C 431.89 1.01956 3.25297 0
M  V30 4358 H 433.083 2.27614 1.95273 0
M  V30 4359 H 430.636 1.21035 0.988953 0
M  V30 4360 H 431.371 0.050998 3.2426 0
M  V30 4361 H 431.156 1.80968 3.4784 0
M  V30 4362 H 432.646 1.0037 4.05359 0
M  V30 4363 N 433.083 -1.0153 1.20538 0
M  V30 4364 C 434.331 -1.74803 1.01432 0
M  V30 4365 C 434.652 -1.8963 -0.454456 0
M  V30 4366 O 433.922 -1.43975 -1.32846 0
M  V30 4367 H 432.502 -0.647598 0.372324 0
M  V30 4368 H 435.164 -1.22402 1.5167 0
M  V30 4369 H 434.26 -2.75114 1.47373 0
M  V30 4370 N 434.561 -1.01147 -1.20859 0
M  V30 4371 C 435.807 -0.698899 -1.90377 0
M  V30 4372 C 436.14 0.76904 -1.78324 0
M  V30 4373 O 435.415 1.55817 -1.16409 0
M  V30 4374 C 435.698 -1.12878 -3.41951 0
M  V30 4375 C 435.551 -2.65665 -3.62963 0
M  V30 4376 C 436.87 -0.696114 -4.3456 0
M  V30 4377 H 433.989 -0.255372 -0.691342 0
M  V30 4378 H 436.631 -1.25831 -1.42361 0
M  V30 4379 H 434.781 -0.652827 -3.82976 0
M  V30 4380 H 436.453 -3.21074 -3.31224 0
M  V30 4381 H 434.696 -3.06878 -3.06608 0
M  V30 4382 H 435.367 -2.90797 -4.69192 0
M  V30 4383 H 437.843 -1.10521 -4.01154 0
M  V30 4384 H 436.719 -1.025 -5.39245 0
M  V30 4385 H 436.98 0.402465 -4.40264 0
M  V30 4386 N 436.039 1.36541 -0.78704 0
M  V30 4387 C 436.969 2.32659 -0.197992 0
M  V30 4388 C 437.95 1.56533 0.665697 0
M  V30 4389 O 439.135 1.84698 0.60001 0
M  V30 4390 C 436.265 3.40778 0.669901 0
M  V30 4391 C 435.219 4.27897 -0.0937039 0
M  V30 4392 C 434.545 5.27163 0.894629 0
M  V30 4393 C 435.845 5.06334 -1.28154 0
M  V30 4394 H 437.539 2.82171 -1.00099 0
M  V30 4395 H 435.085 1.35665 -0.482793 0
M  V30 4396 H 437.038 4.07008 1.09191 0
M  V30 4397 H 435.762 2.89827 1.50558 0
M  V30 4398 H 434.421 3.6322 -0.49666 0
M  V30 4399 H 434.069 4.72486 1.72527 0
M  V30 4400 H 433.769 5.86317 0.388149 0
M  V30 4401 H 435.293 5.96266 1.31525 0
M  V30 4402 H 436.707 5.65617 -0.93541 0
M  V30 4403 H 435.104 5.74888 -1.72115 0
M  V30 4404 H 436.174 4.38114 -2.07807 0
M  V30 4405 N 437.518 0.538854 1.48102 0
M  V30 4406 C 438.929 0.100679 1.86428 0
M  V30 4407 C 439.28 -1.32447 1.44749 0
M  V30 4408 O 438.405 -1.99339 0.842199 0
M  V30 4409 C 439 0.175933 3.38343 0
M  V30 4410 C 437.559 -0.207098 3.7583 0
M  V30 4411 C 436.706 0.531741 2.72154 0
M  V30 4412 H 439.657 0.749614 1.3988 0
M  V30 4413 H 439.678 -0.610144 3.75576 0
M  V30 4414 H 439.19 1.21328 3.68648 0
M  V30 4415 H 437.291 -1.24626 3.5114 0
M  V30 4416 H 437.404 0.138687 4.78899 0
M  V30 4417 H 435.768 -0.0230462 2.5469 0
M  V30 4418 H 436.551 1.56989 3.05302 0
M  V30 4419 N 438.996 -1.55193 0.274407 0
M  V30 4420 C 440.407 -1.85358 -0.223488 0
M  V30 4421 C 440.758 -1.19642 -1.555 0
M  V30 4422 O 439.883 -0.484498 -2.10907 0
M  V30 4423 C 440.478 -3.36282 -0.412285 0
M  V30 4424 C 439.037 -3.66574 -0.854413 0
M  V30 4425 C 438.184 -2.7725 0.0527056 0
M  V30 4426 H 441.135 -1.50743 0.496215 0
M  V30 4427 H 441.156 -3.59349 -1.25094 0
M  V30 4428 H 440.668 -3.84083 0.556965 0
M  V30 4429 H 438.769 -3.24273 -1.83516 0
M  V30 4430 H 438.882 -4.74073 -0.692226 0
M  V30 4431 H 437.246 -2.50447 -0.463484 0
M  V30 4432 H 438.029 -3.27865 1.01783 0
M  V30 4433 N 440.474 -0.00167713 -1.576 0
M  V30 4434 C 441.885 0.54091 -1.78693 0
M  V30 4435 C 442.236 1.7386 -0.909247 0
M  V30 4436 O 441.361 2.16109 -0.112176 0
M  V30 4437 C 441.956 0.98806 -3.24072 0
M  V30 4438 C 440.515 1.47594 -3.46256 0
M  V30 4439 C 439.662 0.42792 -2.73978 0
M  V30 4440 H 442.613 -0.22784 -1.57056 0
M  V30 4441 H 442.634 1.85398 -3.32277 0
M  V30 4442 H 442.146 0.116164 -3.87926 0
M  V30 4443 H 440.247 2.36868 -2.87618 0
M  V30 4444 H 440.36 1.50225 -4.54939 0
M  V30 4445 H 438.724 0.889934 -2.38647 0
M  V30 4446 H 439.507 -0.435038 -3.40532 0
M  V30 4447 N 441.952 1.55251 0.271103 0
M  V30 4448 C 443.363 1.66635 0.842007 0
M  V30 4449 C 443.714 0.594631 1.86972 0
M  V30 4450 O 442.839 -0.263532 2.14789 0
M  V30 4451 C 443.434 3.02082 1.53401 0
M  V30 4452 C 441.993 3.15487 2.05293 0
M  V30 4453 C 441.14 2.62438 0.895631 0
M  V30 4454 H 444.091 1.58629 0.0474117 0
M  V30 4455 H 444.112 2.95176 2.40107 0
M  V30 4456 H 443.624 3.80062 0.785786 0
M  V30 4457 H 441.725 2.42284 2.83071 0
M  V30 4458 H 441.838 4.22075 2.26693 0
M  V30 4459 H 440.202 2.19644 1.28953 0
M  V30 4460 H 440.985 3.42923 0.160878 0
M  V30 4461 N 443.43 -0.535701 1.48216 0
M  V30 4462 C 444.846 -0.863701 1.3421 0
M  V30 4463 C 445.046 -1.98458 0.34879 0
M  V30 4464 O 444.102 -2.51432 -0.23204 0
M  V30 4465 C 445.415 -1.23662 2.74095 0
M  V30 4466 C 446.963 -1.34683 2.82541 0
M  V30 4467 C 447.438 -1.75322 4.23115 0
M  V30 4468 N 448.929 -1.82434 4.2576 0
M  V30 4469 C 449.664 -2.15252 5.31464 0
M  V30 4470 N 449.16 -2.46533 6.47452 0
M  V30 4471 N 450.953 -2.16209 5.18855 0
M  V30 4472 H 443.104 0.203965 2.11418 0
M  V30 4473 H 445.367 0.0286033 0.947568 0
M  V30 4474 H 445.073 -0.486674 3.48316 0
M  V30 4475 H 444.947 -2.18805 3.07253 0
M  V30 4476 H 447.334 -2.08756 2.08579 0
M  V30 4477 H 447.415 -0.376756 2.5301 0
M  V30 4478 H 447.059 -1.01812 4.97591 0
M  V30 4479 H 446.989 -2.7337 4.50085 0
M  V30 4480 H 449.48 -1.6056 3.42095 0
M  V30 4481 H 449.793 -2.70662 7.23852 0
M  V30 4482 H 448.138 -2.44065 6.50736 0
M  V30 4483 H 451.329 -1.91224 4.2726 0
M  V30 4484 H 451.502 -2.41453 6.01335 0
M  V30 4485 N 444.908 -1.36708 -0.784132 0
M  V30 4486 C 445.858 -1.2799 -1.88686 0
M  V30 4487 C 446.842 -0.170282 -1.59996 0
M  V30 4488 O 448.034 -0.403571 -1.72338 0
M  V30 4489 C 445.163 -1.07674 -3.25977 0
M  V30 4490 C 444.249 -2.23127 -3.60659 0
M  V30 4491 N 444.64 -3.48467 -3.66612 0
M  V30 4492 C 442.938 -2.15009 -3.90752 0
M  V30 4493 C 443.639 -4.24525 -3.97685 0
M  V30 4494 N 442.615 -3.53524 -4.12943 0
M  V30 4495 H 446.417 -2.22927 -1.91522 0
M  V30 4496 H 443.931 -1.29503 -0.979933 0
M  V30 4497 H 445.928 -0.995151 -4.04849 0
M  V30 4498 H 444.588 -0.13643 -3.24413 0
M  V30 4499 H 445.599 -3.82534 -3.49125 0
M  V30 4500 H 442.276 -1.28963 -3.97083 0
M  V30 4501 H 443.666 -5.32944 -4.0917 0
M  V30 4502 N 446.386 1.0089 -1.21074 0
M  V30 4503 C 447.349 2.0775 -0.968129 0
M  V30 4504 C 448.349 1.6069 0.0593445 0
M  V30 4505 O 449.539 1.73293 -0.177525 0
M  V30 4506 C 446.671 3.37794 -0.459108 0
M  V30 4507 H 447.864 2.30707 -1.9161 0
M  V30 4508 H 445.417 1.17807 -1.02719 0
M  V30 4509 H 446.152 3.20516 0.49397 0
M  V30 4510 H 445.937 3.7328 -1.20019 0
M  V30 4511 H 447.427 4.16454 -0.309099 0
M  V30 4512 N 447.864 1.01787 1.20321 0
M  V30 4513 C 449.089 0.727009 1.9424 0
M  V30 4514 C 449.514 -0.706179 1.74341 0
M  V30 4515 O 448.872 -1.48609 1.03852 0
M  V30 4516 C 448.92 1.06958 3.44372 0
M  V30 4517 O 448.024 0.181983 4.11998 0
M  V30 4518 H 447.365 0.269626 0.606793 0
M  V30 4519 H 449.895 1.36158 1.52716 0
M  V30 4520 H 449.905 1.02182 3.94997 0
M  V30 4521 H 448.58 2.11378 3.58179 0
M  V30 4522 H 447.157 0.287378 3.71791 0
M  V30 4523 N 449.342 -1.36122 0.79427 0
M  V30 4524 C 450.57 -2.03362 0.380989 0
M  V30 4525 C 450.985 -1.59881 -1.00416 0
M  V30 4526 O 450.342 -0.790515 -1.6449 0
M  V30 4527 C 450.393 -3.58804 0.440649 0
M  V30 4528 O 450.114 -4.007 1.77118 0
M  V30 4529 C 451.615 -4.43296 0.0186117 0
M  V30 4530 H 448.835 -0.652526 0.156367 0
M  V30 4531 H 451.379 -1.73998 1.07447 0
M  V30 4532 H 449.534 -3.8686 -0.204458 0
M  V30 4533 H 449.948 -4.95309 1.72538 0
M  V30 4534 H 451.422 -5.51887 0.111488 0
M  V30 4535 H 451.899 -4.2684 -1.03461 0
M  V30 4536 H 452.505 -4.20512 0.636395 0
M  V30 4537 N 450.82 -0.546701 -1.47814 0
M  V30 4538 C 452.068 -0.0187037 -2.02091 0
M  V30 4539 C 452.389 1.33168 -1.42447 0
M  V30 4540 O 451.659 1.86619 -0.595839 0
M  V30 4541 H 450.239 -0.00392531 -0.74699 0
M  V30 4542 H 452.901 -0.714327 -1.81338 0
M  V30 4543 H 451.997 0.0772219 -3.12004 0
M  V30 4544 N 452.299 1.55045 -0.282633 0
M  V30 4545 C 453.262 2.21515 0.588539 0
M  V30 4546 C 454.262 1.19535 1.07554 0
M  V30 4547 O 455.452 1.44391 0.974514 0
M  V30 4548 C 452.584 2.88704 1.8128 0
M  V30 4549 H 453.777 2.99899 0.00806397 0
M  V30 4550 H 451.33 1.56265 -0.0333067 0
M  V30 4551 H 452.065 2.14352 2.43359 0
M  V30 4552 H 451.85 3.63443 1.47144 0
M  V30 4553 H 453.34 3.39465 2.43214 0
M  V30 4554 N 453.777 0.010035 1.57597 0
M  V30 4555 C 454.71 -1.01234 2.04516 0
M  V30 4556 C 455.688 -1.32886 0.937024 0
M  V30 4557 O 456.872 -1.44879 1.20592 0
M  V30 4558 C 453.999 -2.33738 2.45121 0
M  V30 4559 C 453.045 -2.17679 3.66767 0
M  V30 4560 S 453.878 -1.49343 5.14254 0
M  V30 4561 C 455.034 -2.83256 5.58137 0
M  V30 4562 H 455.267 -0.612866 2.90914 0
M  V30 4563 H 452.8 -0.201124 1.53084 0
M  V30 4564 H 454.758 -3.09922 2.69182 0
M  V30 4565 H 453.419 -2.70823 1.59103 0
M  V30 4566 H 452.612 -3.1559 3.92962 0
M  V30 4567 H 452.214 -1.4964 3.42759 0
M  V30 4568 H 454.506 -3.79538 5.6121 0
M  V30 4569 H 455.449 -2.61749 6.57946 0
M  V30 4570 H 455.857 -2.87627 4.85727 0
M  V30 4571 N 455.255 -1.55392 -0.262866 0
M  V30 4572 C 456.205 -1.85355 -1.32768 0
M  V30 4573 C 457.189 -0.713188 -1.44231 0
M  V30 4574 O 458.381 -0.974765 -1.47741 0
M  V30 4575 C 455.51 -2.13781 -2.68612 0
M  V30 4576 C 454.596 -3.34104 -2.61219 0
M  V30 4577 N 454.987 -4.53766 -2.2345 0
M  V30 4578 C 453.285 -3.36895 -2.92263 0
M  V30 4579 C 453.986 -5.35877 -2.26298 0
M  V30 4580 N 452.962 -4.74536 -2.65172 0
M  V30 4581 H 456.764 -2.75413 -1.02591 0
M  V30 4582 H 454.278 -1.55405 -0.471503 0
M  V30 4583 H 456.275 -2.33407 -3.45437 0
M  V30 4584 H 454.935 -1.25013 -2.99669 0
M  V30 4585 H 455.946 -4.79682 -1.95258 0
M  V30 4586 H 452.623 -2.58351 -3.27965 0
M  V30 4587 H 454.013 -6.41577 -1.99572 0
M  V30 4588 N 456.733 0.527833 -1.48498 0
M  V30 4589 C 458.144 1.10975 -1.50138 0
M  V30 4590 C 458.495 1.943 -0.272378 0
M  V30 4591 O 457.62 2.07319 0.620301 0
M  V30 4592 C 458.215 2.01927 -2.72049 0
M  V30 4593 C 456.774 2.55332 -2.76554 0
M  V30 4594 C 455.921 1.32341 -2.43683 0
M  V30 4595 H 458.872 0.312986 -1.55583 0
M  V30 4596 H 458.893 2.86244 -2.50689 0
M  V30 4597 H 458.405 1.41254 -3.61481 0
M  V30 4598 H 456.506 3.19721 -1.91336 0
M  V30 4599 H 456.619 2.94319 -3.78038 0
M  V30 4600 H 454.983 1.63989 -1.94884 0
M  V30 4601 H 455.766 0.734165 -3.35358 0
M  V30 4602 N 458.211 1.37122 0.776871 0
M  V30 4603 C 459.141 1.35164 1.90402 0
M  V30 4604 C 460.122 0.221069 1.68657 0
M  V30 4605 O 461.307 0.420642 1.8959 0
M  V30 4606 C 458.437 1.15274 3.27611 0
M  V30 4607 C 457.391 2.25289 3.63908 0
M  V30 4608 C 456.717 1.90527 4.99603 0
M  V30 4609 C 458.017 3.67446 3.71188 0
M  V30 4610 H 459.711 2.29482 1.92297 0
M  V30 4611 H 457.257 1.10465 0.923773 0
M  V30 4612 H 459.21 1.12536 4.06096 0
M  V30 4613 H 457.934 0.174102 3.26136 0
M  V30 4614 H 456.593 2.27174 2.87728 0
M  V30 4615 H 456.241 0.91206 4.94662 0
M  V30 4616 H 455.941 2.64193 5.24858 0
M  V30 4617 H 457.465 1.89367 5.80493 0
M  V30 4618 H 458.879 3.67719 4.39836 0
M  V30 4619 H 457.276 4.40123 4.07936 0
M  V30 4620 H 458.346 4.01443 2.71977 0
M  V30 4621 N 459.689 -1.00246 1.21608 0
M  V30 4622 C 461.105 -1.26435 0.973975 0
M  V30 4623 C 461.305 -1.98642 -0.338143 0
M  V30 4624 O 460.361 -2.29026 -1.06317 0
M  V30 4625 C 461.674 -2.08551 2.16626 0
M  V30 4626 C 463.222 -2.21769 2.20879 0
M  V30 4627 C 463.697 -3.07267 3.39633 0
M  V30 4628 N 465.188 -3.14855 3.39736 0
M  V30 4629 C 465.923 -3.81274 4.28273 0
M  V30 4630 N 465.419 -4.497 5.27012 0
M  V30 4631 N 467.212 -3.7794 4.16074 0
M  V30 4632 H 459.363 -0.518089 2.05984 0
M  V30 4633 H 461.626 -0.291368 0.902113 0
M  V30 4634 H 461.332 -1.62847 3.11727 0
M  V30 4635 H 461.206 -3.09303 2.15897 0
M  V30 4636 H 463.593 -2.66691 1.26332 0
M  V30 4637 H 463.674 -1.20478 2.25652 0
M  V30 4638 H 463.318 -2.63047 4.34475 0
M  V30 4639 H 463.248 -4.08678 3.321 0
M  V30 4640 H 465.739 -2.66147 2.6828 0
M  V30 4641 H 466.052 -4.98092 5.90867 0
M  V30 4642 H 464.397 -4.48479 5.30935 0
M  V30 4643 H 467.588 -3.23638 3.38195 0
M  V30 4644 H 467.761 -4.29424 4.85282 0
M  V30 4645 N 461.167 -1.02423 -1.1978 0
M  V30 4646 C 462.392 -0.7373 -1.93852 0
M  V30 4647 C 462.817 0.696923 -1.74713 0
M  V30 4648 O 462.175 1.48056 -1.04638 0
M  V30 4649 C 462.223 -1.08783 -3.438 0
M  V30 4650 O 461.327 -0.20383 -4.11896 0
M  V30 4651 H 460.668 -0.27284 -0.605355 0
M  V30 4652 H 463.198 -1.36966 -1.51992 0
M  V30 4653 H 463.208 -1.04276 -3.9445 0
M  V30 4654 H 461.883 -2.13274 -3.57053 0
M  V30 4655 H 460.46 -0.307091 -3.71633 0
M  V30 4656 N 462.645 1.35699 -0.801477 0
M  V30 4657 C 463.893 1.9852 -0.37871 0
M  V30 4658 C 464.214 1.63907 1.05638 0
M  V30 4659 O 463.484 0.919013 1.73006 0
M  V30 4660 H 462.064 0.734322 -0.137042 0
M  V30 4661 H 464.726 1.65697 -1.02619 0
M  V30 4662 H 463.822 3.08382 -0.480284 0
M  V30 4663 N 464.123 0.554532 1.47522 0
M  V30 4664 C 465.053 -0.182974 2.32782 0
M  V30 4665 C 466.034 -0.911377 1.43624 0
M  V30 4666 O 467.219 -0.892366 1.72483 0
M  V30 4667 C 464.349 -1.21513 3.25349 0
M  V30 4668 C 463.303 -0.603355 4.23726 0
M  V30 4669 C 462.629 -1.73995 5.05598 0
M  V30 4670 C 463.929 0.441121 5.20434 0
M  V30 4671 H 465.623 0.52882 2.94693 0
M  V30 4672 H 463.169 0.255759 1.41711 0
M  V30 4673 H 465.122 -1.73922 3.83835 0
M  V30 4674 H 463.846 -1.95683 2.61487 0
M  V30 4675 H 462.505 -0.10059 3.66462 0
M  V30 4676 H 462.153 -2.47063 4.38143 0
M  V30 4677 H 461.853 -1.3364 5.72201 0
M  V30 4678 H 463.377 -2.26735 5.66942 0
M  V30 4679 H 464.791 0.00319931 5.733 0
M  V30 4680 H 463.188 0.763402 5.95224 0
M  V30 4681 H 464.258 1.33799 4.66075 0
M  V30 4682 N 465.601 -1.54893 0.290851 0
M  V30 4683 C 466.531 -2.26103 -0.583084 0
M  V30 4684 C 467.512 -1.25684 -1.14619 0
M  V30 4685 O 468.697 -1.54436 -1.17741 0
M  V30 4686 C 465.827 -2.99409 -1.75987 0
M  V30 4687 C 464.781 -4.0689 -1.32758 0
M  V30 4688 C 464.107 -4.67856 -2.58872 0
M  V30 4689 C 465.407 -5.20215 -0.46624 0
M  V30 4690 H 467.101 -2.99398 0.0108214 0
M  V30 4691 H 464.647 -1.43998 0.00664468 0
M  V30 4692 H 466.6 -3.47943 -2.37727 0
M  V30 4693 H 465.324 -2.23675 -2.37985 0
M  V30 4694 H 463.983 -3.59191 -0.733299 0
M  V30 4695 H 463.631 -3.88772 -3.19163 0
M  V30 4696 H 463.331 -5.40438 -2.30653 0
M  V30 4697 H 464.855 -5.19147 -3.21433 0
M  V30 4698 H 466.269 -5.64704 -0.989047 0
M  V30 4699 H 464.666 -5.99455 -0.27826 0
M  V30 4700 H 465.736 -4.82198 0.511173 0
M  V30 4701 N 467.08 -0.0183926 -1.57589 0
M  V30 4702 C 468.028 0.985111 -2.10709 0
M  V30 4703 C 469.022 1.34397 -1.0312 0
M  V30 4704 O 470.228 1.32746 -1.21567 0
M  V30 4705 H 466.603 0.335418 -0.673052 0
M  V30 4706 H 468.574 0.511689 -2.9398 0
M  V30 4707 C 467.323 2.26202 -2.64061 0
M  V30 4708 H 466.646 1.9946 -3.4649 0
M  V30 4709 H 468.086 2.94652 -3.04887 0
M  V30 4710 C 466.545 2.98444 -1.5631 0
M  V30 4711 O 467.075 3.90142 -0.956674 0
M  V30 4712 N 465.281 2.6059 -1.28612 0
M  V30 4713 H 464.828 1.86101 -1.78112 0
M  V30 4714 H 464.786 3.09238 -0.567406 0
M  V30 4715 N 468.558 1.5553 0.254621 0
M  V30 4716 C 469.783 1.81383 1.00573 0
M  V30 4717 C 470.208 0.594419 1.78461 0
M  V30 4718 O 469.566 -0.456403 1.75461 0
M  V30 4719 C 469.614 3.04892 1.92545 0
M  V30 4720 O 468.718 2.81266 3.01601 0
M  V30 4721 H 468.059 0.598969 0.286587 0
M  V30 4722 H 470.589 2.02703 0.277952 0
M  V30 4723 H 470.599 3.34119 2.34155 0
M  V30 4724 H 469.274 3.93287 1.3527 0
M  V30 4725 H 467.851 2.63185 2.64174 0
M  V30 4726 N 470.036 -0.519951 1.48776 0
M  V30 4727 C 471.264 -1.29971 1.60982 0
M  V30 4728 C 471.679 -1.86803 0.273885 0
M  V30 4729 O 471.036 -1.66904 -0.738193 0
M  V30 4730 C 471.087 -2.44346 2.66415 0
M  V30 4731 O 470.808 -1.89855 3.94825 0
M  V30 4732 C 472.309 -3.36014 2.89153 0
M  V30 4733 H 469.529 -0.394891 0.542496 0
M  V30 4734 H 472.073 -0.626214 1.94676 0
M  V30 4735 H 470.228 -3.07562 2.35552 0
M  V30 4736 H 470.642 -2.64798 4.5275 0
M  V30 4737 H 472.116 -4.12593 3.66703 0
M  V30 4738 H 472.593 -3.91859 1.98351 0
M  V30 4739 H 473.199 -2.78582 3.21359 0
M  V30 4740 N 471.514 -1.37532 -0.769588 0
M  V30 4741 C 472.739 -1.36231 -1.56384 0
M  V30 4742 C 473.164 0.0495849 -1.88035 0
M  V30 4743 O 472.522 1.02723 -1.49391 0
M  V30 4744 C 472.57 -2.20986 -2.84952 0
M  V30 4745 O 471.674 -1.61597 -3.79421 0
M  V30 4746 H 471.015 -0.465387 -0.473615 0
M  V30 4747 H 473.545 -1.81085 -0.952342 0
M  V30 4748 H 473.555 -2.34277 -3.34034 0
M  V30 4749 H 472.23 -3.23612 -2.61243 0
M  V30 4750 H 470.807 -1.57359 -3.38072 0
M  V30 4751 N 472.992 0.995999 -1.22138 0
M  V30 4752 C 474.269 1.70834 -0.952642 0
M  V30 4753 C 474.649 2.04257 0.533119 0
M  V30 4754 O 473.997 1.72343 1.50034 0
M  V30 4755 C 474.207 2.96119 -1.84701 0
M  V30 4756 C 475.555 3.68962 -2.10124 0
M  V30 4757 O 476.579 3.0612 -1.82124 0
M  V30 4758 O 475.438 4.82017 -2.57531 0
M  V30 4759 H 472.532 0.745498 -0.357997 0
M  V30 4760 H 475.078 1.05262 -1.33109 0
M  V30 4761 H 473.85 2.67898 -2.85213 0
M  V30 4762 H 473.473 3.6943 -1.46995 0
M  V30 4763 N 474.47 1.03057 1.19235 0
M  V30 4764 C 475.695 0.74757 1.93458 0
M  V30 4765 C 476.12 -0.687648 1.7508 0
M  V30 4766 O 475.478 -1.47499 1.05422 0
M  V30 4767 C 475.526 1.10604 3.43219 0
M  V30 4768 O 474.63 0.225671 4.11782 0
M  V30 4769 H 473.971 0.276047 0.603899 0
M  V30 4770 H 476.501 1.3777 1.51263 0
M  V30 4771 H 476.511 1.06366 3.93891 0
M  V30 4772 H 475.186 2.15165 3.55917 0
M  V30 4773 H 473.763 0.326795 3.71465 0
M  V30 4774 N 475.948 -1.35272 0.808662 0
M  V30 4775 C 477.225 -1.93077 0.313181 0
M  V30 4776 C 477.605 -1.73847 -1.19752 0
M  V30 4777 O 476.953 -1.1087 -1.998 0
M  V30 4778 C 477.163 -3.41347 0.726859 0
M  V30 4779 C 478.511 -4.18493 0.717532 0
M  V30 4780 O 479.535 -3.4987 0.668535 0
M  V30 4781 O 478.394 -5.40937 0.777779 0
M  V30 4782 H 475.488 -0.822885 0.0824018 0
M  V30 4783 H 478.034 -1.44335 0.892499 0
M  V30 4784 H 476.806 -3.49082 1.76797 0
M  V30 4785 H 476.429 -3.97411 0.122461 0
M  V30 4786 N 477.426 -0.562348 -1.47226 0
M  V30 4787 C 478.356 0.170627 -2.32876 0
M  V30 4788 C 479.337 0.903748 -1.44106 0
M  V30 4789 O 480.522 0.883206 -1.72954 0
M  V30 4790 C 477.652 1.19786 -3.25989 0
M  V30 4791 C 476.606 0.580875 -4.2404 0
M  V30 4792 C 475.932 1.71311 -5.06514 0
M  V30 4793 C 477.232 -0.468714 -5.20193 0
M  V30 4794 H 478.926 -0.544441 -2.94408 0
M  V30 4795 H 476.472 -0.263271 -1.41573 0
M  V30 4796 H 478.425 1.71884 -3.84752 0
M  V30 4797 H 477.149 1.94294 -2.62521 0
M  V30 4798 H 475.808 0.0811538 -3.6651 0
M  V30 4799 H 475.456 2.44736 -4.39447 0
M  V30 4800 H 475.156 1.30604 -5.72902 0
M  V30 4801 H 476.68 2.23725 -5.68137 0
M  V30 4802 H 478.094 -0.0336028 -5.7329 0
M  V30 4803 H 476.491 -0.794957 -5.94811 0
M  V30 4804 H 477.561 -1.36269 -4.65359 0
M  V30 4805 N 478.904 1.54736 -0.299062 0
M  V30 4806 C 480.15 2.00397 0.311244 0
M  V30 4807 C 480.483 1.18716 1.53688 0
M  V30 4808 O 479.758 0.263154 1.92712 0
M  V30 4809 C 480.041 3.53817 0.669761 0
M  V30 4810 C 479.894 4.46239 -0.564882 0
M  V30 4811 C 481.213 4.13856 1.49702 0
M  V30 4812 H 478.332 0.728493 0.111653 0
M  V30 4813 H 480.974 1.85506 -0.410774 0
M  V30 4814 H 479.124 3.66637 1.28491 0
M  V30 4815 H 480.796 4.45328 -1.20337 0
M  V30 4816 H 479.039 4.16916 -1.19849 0
M  V30 4817 H 479.71 5.5134 -0.269918 0
M  V30 4818 H 482.186 4.04461 0.977284 0
M  V30 4819 H 481.062 5.21365 1.71666 0
M  V30 4820 H 481.323 3.65608 2.48563 0
M  V30 4821 N 480.382 0.0267497 1.57577 0
M  V30 4822 C 481.798 -0.32962 1.56159 0
M  V30 4823 C 481.998 -1.73059 1.03213 0
M  V30 4824 O 481.054 -2.43233 0.677804 0
M  V30 4825 C 482.367 -0.18039 3.00158 0
M  V30 4826 C 483.915 -0.253334 3.11973 0
M  V30 4827 C 484.39 -0.132921 4.57807 0
M  V30 4828 N 485.881 -0.189979 4.6281 0
M  V30 4829 C 486.616 -0.120554 5.73273 0
M  V30 4830 N 486.112 -0.000180315 6.928 0
M  V30 4831 N 487.905 -0.174369 5.61829 0
M  V30 4832 H 480.056 0.942896 1.90324 0
M  V30 4833 H 482.319 0.3639 0.875375 0
M  V30 4834 H 482.025 0.784576 3.42837 0
M  V30 4835 H 481.899 -0.951565 3.65 0
M  V30 4836 H 484.286 -1.20876 2.69208 0
M  V30 4837 H 484.367 0.548177 2.49857 0
M  V30 4838 H 484.011 0.819073 5.01252 0
M  V30 4839 H 483.941 -0.953264 5.179 0
M  V30 4840 H 486.432 -0.283257 3.76837 0
M  V30 4841 H 486.745 0.0461666 7.72786 0
M  V30 4842 H 485.09 0.034569 6.94991 0
M  V30 4843 H 488.281 -0.266794 4.67339 0
M  V30 4844 H 488.454 -0.116802 6.47895 0
M  V30 4845 N 481.861 -1.55662 -0.24637 0
M  V30 4846 C 483.091 -1.81312 -0.990438 0
M  V30 4847 C 483.499 -0.600234 -1.79426 0
M  V30 4848 O 482.842 0.440537 -1.78339 0
M  V30 4849 C 482.904 -3.0032 -1.97607 0
M  V30 4850 C 482.568 -4.36322 -1.35912 0
M  V30 4851 C 483.565 -5.14295 -0.761348 0
M  V30 4852 C 481.25 -4.83019 -1.37833 0
M  V30 4853 C 483.244 -6.37114 -0.190998 0
M  V30 4854 C 480.931 -6.05786 -0.804128 0
M  V30 4855 C 481.929 -6.82672 -0.211489 0
M  V30 4856 O 481.617 -8.03121 0.353845 0
M  V30 4857 H 481.349 -0.607233 -0.297058 0
M  V30 4858 H 483.903 -2.0356 -0.274351 0
M  V30 4859 H 482.133 -2.73829 -2.73047 0
M  V30 4860 H 483.822 -3.13057 -2.58361 0
M  V30 4861 H 484.588 -4.79337 -0.739013 0
M  V30 4862 H 480.467 -4.23165 -1.829 0
M  V30 4863 H 484.011 -6.97069 0.272206 0
M  V30 4864 H 479.908 -6.40222 -0.823792 0
M  V30 4865 H 480.676 -8.18131 0.245761 0
M  V30 4866 N 483.339 0.512053 -1.4905 0
M  V30 4867 C 484.755 0.84224 -1.35567 0
M  V30 4868 C 484.955 1.97878 -0.380319 0
M  V30 4869 O 484.011 2.51769 0.19201 0
M  V30 4870 C 485.324 1.19286 -2.76028 0
M  V30 4871 C 486.872 1.30171 -2.84648 0
M  V30 4872 C 487.347 1.68568 -4.25851 0
M  V30 4873 N 488.838 1.75638 -4.28609 0
M  V30 4874 C 489.573 2.06769 -5.34821 0
M  V30 4875 N 489.069 2.36201 -6.51292 0
M  V30 4876 N 490.862 2.07927 -5.22229 0
M  V30 4877 H 483.013 -0.237574 -2.11067 0
M  V30 4878 H 485.276 -0.0436747 -0.946993 0
M  V30 4879 H 484.982 0.431199 -3.49047 0
M  V30 4880 H 484.856 2.13889 -3.10695 0
M  V30 4881 H 487.243 2.05411 -2.11873 0
M  V30 4882 H 487.324 0.336457 -2.53578 0
M  V30 4883 H 486.968 0.938824 -4.99148 0
M  V30 4884 H 486.898 2.66174 -4.54377 0
M  V30 4885 H 489.389 1.55097 -3.44606 0
M  V30 4886 H 489.702 2.59112 -7.28066 0
M  V30 4887 H 488.047 2.33681 -6.54536 0
M  V30 4888 H 491.238 1.84403 -4.30248 0
M  V30 4889 H 491.411 2.31856 -6.05101 0
M  V30 4890 N 484.817 1.37938 0.762283 0
M  V30 4891 C 486.045 1.36883 1.55147 0
M  V30 4892 C 486.46 -0.0435348 1.8875 0
M  V30 4893 O 485.817 -1.00786 1.52146 0
M  V30 4894 C 485.868 2.21624 2.85596 0
M  V30 4895 O 485.589 3.57358 2.5343 0
M  V30 4896 C 487.09 2.28653 3.7978 0
M  V30 4897 H 484.31 0.468521 0.480343 0
M  V30 4898 H 486.854 1.81404 0.944079 0
M  V30 4899 H 485.009 1.80588 3.42734 0
M  V30 4900 H 485.423 4.01883 3.37032 0
M  V30 4901 H 486.897 2.9225 4.68288 0
M  V30 4902 H 487.374 1.29767 4.19592 0
M  V30 4903 H 487.98 2.70043 3.28568 0
M  V30 4904 N 486.295 -0.989507 1.22664 0
M  V30 4905 C 487.544 -1.72375 1.04737 0
M  V30 4906 C 487.857 -1.91096 -0.417316 0
M  V30 4907 O 489.063 -2.6188 -0.716334 0
M  V30 4908 C 487.519 -3.10161 1.82561 0
M  V30 4909 C 487.127 -2.99358 3.333 0
M  V30 4910 C 488.871 -3.87607 1.73093 0
M  V30 4911 C 486.778 -4.32319 4.03552 0
M  V30 4912 H 485.708 -0.646326 0.388302 0
M  V30 4913 H 488.359 -1.10437 1.46546 0
M  V30 4914 H 486.741 -3.728 1.33552 0
M  V30 4915 H 487.915 -2.45863 3.89728 0
M  V30 4916 H 486.23 -2.35392 3.43481 0
M  V30 4917 H 488.827 -4.86025 2.22899 0
M  V30 4918 H 489.17 -4.10509 0.691976 0
M  V30 4919 H 489.703 -3.31652 2.19663 0
M  V30 4920 H 486.442 -4.14616 5.07714 0
M  V30 4921 H 485.962 -4.85714 3.51911 0
M  V30 4922 H 487.641 -5.01051 4.09337 0
M  V30 4923 N 487.773 -1.03688 -1.18687 0
M  V30 4924 C 488.998 -0.757819 -1.93059 0
M  V30 4925 C 489.423 0.678353 -1.75442 0
M  V30 4926 O 488.781 1.46938 -1.06203 0
M  V30 4927 C 488.829 -1.12423 -3.42627 0
M  V30 4928 O 487.933 -0.247505 -4.11657 0
M  V30 4929 H 487.274 -0.279245 -0.602427 0
M  V30 4930 H 489.804 -1.3857 -1.5053 0
M  V30 4931 H 489.814 -1.08454 -3.93322 0
M  V30 4932 H 488.489 -2.17049 -3.54771 0
M  V30 4933 H 487.066 -0.34649 -3.71287 0
M  V30 4934 N 489.251 1.34841 -0.815825 0
M  V30 4935 C 490.198 2.29644 -0.230664 0
M  V30 4936 C 491.168 1.53253 0.640533 0
M  V30 4937 O 492.353 1.81653 0.583672 0
M  V30 4938 C 489.493 3.39715 0.607275 0
M  V30 4939 C 488.606 4.31056 -0.28538 0
M  V30 4940 C 487.741 5.28225 0.561446 0
M  V30 4941 C 486.78 6.11204 -0.331035 0
M  V30 4942 N 485.917 7.00483 0.476302 0
M  V30 4943 H 490.757 2.79095 -1.0445 0
M  V30 4944 H 488.294 1.37351 -0.526595 0
M  V30 4945 H 490.252 4.02208 1.10835 0
M  V30 4946 H 488.882 2.91517 1.38629 0
M  V30 4947 H 487.934 3.69487 -0.904621 0
M  V30 4948 H 489.246 4.89239 -0.97193 0
M  V30 4949 H 488.4 5.96135 1.12728 0
M  V30 4950 H 487.139 4.70562 1.28153 0
M  V30 4951 H 486.144 5.42232 -0.909069 0
M  V30 4952 H 487.369 6.70947 -1.04912 0
M  V30 4953 H 485.315 6.45296 1.18019 0
M  V30 4954 H 485.232 7.55847 -0.152008 0
M  V30 4955 H 486.5 7.7273 1.02512 0
M  V30 4956 N 490.729 0.570148 1.46925 0
M  V30 4957 C 491.978 0.0487352 2.01641 0
M  V30 4958 C 492.291 -1.31433 1.44861 0
M  V30 4959 O 493.497 -1.92638 1.91318 0
M  V30 4960 C 491.953 0.0365817 3.59881 0
M  V30 4961 C 491.561 1.39719 4.25655 0
M  V30 4962 C 493.305 -0.431545 4.22301 0
M  V30 4963 C 491.212 1.34345 5.75939 0
M  V30 4964 H 490.142 0.0144492 0.753862 0
M  V30 4965 H 492.793 0.719928 1.68788 0
M  V30 4966 H 491.175 -0.700522 3.89755 0
M  V30 4967 H 492.349 2.15303 4.07408 0
M  V30 4968 H 490.664 1.80431 3.75278 0
M  V30 4969 H 493.261 -0.490354 5.32447 0
M  V30 4970 H 493.604 -1.44638 3.90366 0
M  V30 4971 H 494.137 0.251102 3.97007 0
M  V30 4972 H 490.876 2.33469 6.12513 0
M  V30 4973 H 490.396 0.629615 5.96486 0
M  V30 4974 H 492.075 1.051 6.38407 0
M  V30 4975 N 492.207 -1.54576 0.307264 0
M  V30 4976 C 493.618 -1.8579 -0.184121 0
M  V30 4977 C 493.969 -1.22914 -1.52927 0
M  V30 4978 O 493.094 -0.529126 -2.09831 0
M  V30 4979 C 493.689 -3.37081 -0.340862 0
M  V30 4980 C 492.248 -3.68304 -0.776465 0
M  V30 4981 C 491.395 -2.77076 0.111503 0
M  V30 4982 H 494.346 -1.49656 0.528078 0
M  V30 4983 H 494.367 -3.61922 -1.17443 0
M  V30 4984 H 493.879 -3.82815 0.638309 0
M  V30 4985 H 491.98 -3.28092 -1.76596 0
M  V30 4986 H 492.093 -4.75434 -0.591512 0
M  V30 4987 H 490.457 -2.51374 -0.410256 0
M  V30 4988 H 491.24 -3.25632 1.08714 0
M  V30 4989 N 493.685 -0.035106 -1.57561 0
M  V30 4990 C 494.617 0.973604 -2.07494 0
M  V30 4991 C 495.63 1.28504 -0.999534 0
M  V30 4992 O 496.819 1.24864 -1.27559 0
M  V30 4993 C 493.919 2.29945 -2.48955 0
M  V30 4994 C 493.092 2.1723 -3.79644 0
M  V30 4995 C 492.151 3.328 -4.07592 0
M  V30 4996 O 491.177 3.09418 -4.77754 0
M  V30 4997 N 492.379 4.56779 -3.58236 0
M  V30 4998 H 495.144 0.547525 -2.94656 0
M  V30 4999 H 492.705 0.151515 -1.61189 0
M  V30 5000 H 494.697 3.06097 -2.64739 0
M  V30 5001 H 493.267 2.64173 -1.67126 0
M  V30 5002 H 492.487 1.25768 -3.73599 0
M  V30 5003 H 493.775 2.05945 -4.65257 0
M  V30 5004 H 493.173 4.78668 -3.01485 0
M  V30 5005 H 491.73 5.30079 -3.79288 0
M  V30 5006 N 495.163 1.55791 0.238111 0
M  V30 5007 C 496.412 1.77234 0.962868 0
M  V30 5008 C 496.725 0.600661 1.86149 0
M  V30 5009 O 497.931 0.698315 2.62366 0
M  V30 5010 C 496.387 3.13808 1.76218 0
M  V30 5011 C 495.995 4.3865 0.910518 0
M  V30 5012 C 497.739 3.44585 2.47914 0
M  V30 5013 C 495.646 5.66252 1.70623 0
M  V30 5014 H 494.576 0.660731 0.36325 0
M  V30 5015 H 497.227 1.8221 0.217242 0
M  V30 5016 H 495.609 3.02963 2.55009 0
M  V30 5017 H 496.783 4.60507 0.164316 0
M  V30 5018 H 495.098 4.15271 0.30647 0
M  V30 5019 H 497.695 4.3714 3.07917 0
M  V30 5020 H 498.038 2.66314 3.19973 0
M  V30 5021 H 498.571 3.56685 1.76127 0
M  V30 5022 H 495.31 6.47369 1.02923 0
M  V30 5023 H 494.83 5.48483 2.42748 0
M  V30 5024 H 496.509 6.05829 2.27114 0
M  V30 5025 N 496.642 -0.504142 1.49319 0
M  V30 5026 C 497.87 -1.28256 1.62351 0
M  V30 5027 C 498.285 -1.86502 0.293682 0
M  V30 5028 O 497.642 -1.67678 -0.720449 0
M  V30 5029 C 497.693 -2.41507 2.68992 0
M  V30 5030 O 497.414 -1.85656 3.96817 0
M  V30 5031 C 498.915 -3.32929 2.927 0
M  V30 5032 H 496.135 -0.389115 0.546654 0
M  V30 5033 H 498.679 -0.605531 1.95329 0
M  V30 5034 H 496.834 -3.05046 2.38801 0
M  V30 5035 H 497.248 -2.59981 4.55533 0
M  V30 5036 H 498.722 -4.0868 3.71058 0
M  V30 5037 H 499.199 -3.89733 2.02496 0
M  V30 5038 H 499.805 -2.75158 3.24296 0
M  V30 5039 N 498.12 -1.38341 -0.754957 0
M  V30 5040 C 499.05 -1.38176 -1.88227 0
M  V30 5041 C 500.031 -0.247873 -1.68284 0
M  V30 5042 O 501.216 -0.45075 -1.88896 0
M  V30 5043 C 498.346 -1.20471 -3.25736 0
M  V30 5044 C 497.3 -2.3105 -3.60278 0
M  V30 5045 C 496.626 -1.98452 -4.96509 0
M  V30 5046 C 497.926 -3.73305 -3.65295 0
M  V30 5047 H 499.62 -2.32512 -1.88622 0
M  V30 5048 H 497.166 -1.1192 -0.906082 0
M  V30 5049 H 499.119 -1.18982 -4.04254 0
M  V30 5050 H 497.843 -0.225965 -3.25817 0
M  V30 5051 H 496.502 -2.31723 -2.84078 0
M  V30 5052 H 496.15 -0.990641 -4.93148 0
M  V30 5053 H 495.85 -2.7251 -5.20588 0
M  V30 5054 H 497.374 -1.98578 -5.77407 0
M  V30 5055 H 498.788 -3.7467 -4.3393 0
M  V30 5056 H 497.185 -4.46557 -4.00883 0
M  V30 5057 H 498.255 -4.05719 -2.65556 0
M  V30 5058 N 499.598 0.982988 -1.23187 0
M  V30 5059 C 500.546 2.09616 -1.00817 0
M  V30 5060 C 501.54 1.6932 0.0519995 0
M  V30 5061 O 502.746 1.79715 -0.101284 0
M  V30 5062 H 499.121 0.685628 -0.308899 0
M  V30 5063 H 501.092 2.25652 -1.95253 0
M  V30 5064 C 499.841 3.42249 -0.613243 0
M  V30 5065 H 499.164 3.73705 -1.42073 0
M  V30 5066 H 500.604 4.21086 -0.496208 0
M  V30 5067 C 499.063 3.30002 0.678233 0
M  V30 5068 O 499.593 3.6263 1.72807 0
M  V30 5069 N 497.799 2.83164 0.653165 0
M  V30 5070 H 497.346 2.56811 -0.201492 0
M  V30 5071 H 497.304 2.75352 1.51752 0
M  V30 5072 N 501.076 1.04316 1.18135 0
M  V30 5073 C 502.323 0.74802 1.88178 0
M  V30 5074 C 502.651 -0.72441 1.80506 0
M  V30 5075 O 501.906 -1.54463 1.20165 0
M  V30 5076 C 502.205 1.16271 3.37958 0
M  V30 5077 C 501.871 2.63585 3.65833 0
M  V30 5078 C 500.533 3.03829 3.73151 0
M  V30 5079 C 502.885 3.58822 3.78016 0
M  V30 5080 C 500.213 4.38194 3.90132 0
M  V30 5081 C 502.565 4.92909 3.96514 0
M  V30 5082 C 501.229 5.3282 4.02068 0
M  V30 5083 H 500.499 0.27372 0.688592 0
M  V30 5084 H 503.146 1.30863 1.39811 0
M  V30 5085 H 501.451 0.520938 3.88321 0
M  V30 5086 H 503.148 0.911672 3.90499 0
M  V30 5087 H 499.738 2.31414 3.60757 0
M  V30 5088 H 503.922 3.28875 3.71692 0
M  V30 5089 H 499.178 4.68631 3.92677 0
M  V30 5090 H 503.352 5.66606 4.04883 0
M  V30 5091 H 500.979 6.36943 4.14979 0
M  V30 5092 N 502.554 -1.34406 0.822964 0
M  V30 5093 C 503.8 -1.98578 0.411666 0
M  V30 5094 C 504.133 -1.65093 -1.02264 0
M  V30 5095 O 503.408 -0.92258 -1.71227 0
M  V30 5096 C 503.691 -3.54823 0.614235 0
M  V30 5097 C 503.544 -3.9805 2.09466 0
M  V30 5098 C 504.863 -4.40071 0.050221 0
M  V30 5099 H 501.982 -0.721355 0.151047 0
M  V30 5100 H 504.624 -1.59301 1.03554 0
M  V30 5101 H 502.774 -3.88411 0.0831774 0
M  V30 5102 H 504.446 -3.74795 2.68936 0
M  V30 5103 H 502.689 -3.4836 2.5851 0
M  V30 5104 H 503.36 -5.06819 2.18721 0
M  V30 5105 H 505.836 -4.13037 0.503953 0
M  V30 5106 H 504.712 -5.48452 0.221759 0
M  V30 5107 H 504.973 -4.29576 -1.04482 0
M  V30 5108 N 504.032 -0.577932 -1.46621 0
M  V30 5109 C 505.309 0.00495287 -1.95599 0
M  V30 5110 C 505.689 1.46428 -1.5206 0
M  V30 5111 O 505.037 2.1517 -0.769046 0
M  V30 5112 C 505.247 -0.162114 -3.48623 0
M  V30 5113 C 506.595 -0.0274623 -4.24591 0
M  V30 5114 O 507.619 -0.0907067 -3.56084 0
M  V30 5115 O 506.478 0.1122 -5.46385 0
M  V30 5116 H 503.572 0.0525057 -0.825332 0
M  V30 5117 H 506.118 -0.645914 -1.56927 0
M  V30 5118 H 504.89 -1.17679 -3.73185 0
M  V30 5119 H 504.513 0.525407 -3.94113 0
M  V30 5120 N 505.51 1.54411 -0.315457 0
M  V30 5121 C 506.44 2.27002 0.547039 0
M  V30 5122 C 507.421 1.27492 1.12605 0
M  V30 5123 O 508.606 1.5629 1.15269 0
M  V30 5124 C 505.736 3.02171 1.71201 0
M  V30 5125 C 504.69 4.0895 1.26268 0
M  V30 5126 C 504.016 4.71915 2.51396 0
M  V30 5127 C 505.316 5.20891 0.383419 0
M  V30 5128 H 507.01 2.99343 -0.0584517 0
M  V30 5129 H 504.556 1.4397 -0.0295527 0
M  V30 5130 H 506.509 3.51681 2.32161 0
M  V30 5131 H 505.233 2.27433 2.34397 0
M  V30 5132 H 503.892 3.60312 0.676062 0
M  V30 5133 H 503.54 3.93801 3.12937 0
M  V30 5134 H 503.24 5.44039 2.22026 0
M  V30 5135 H 504.764 5.24195 3.13133 0
M  V30 5136 H 506.178 5.66206 0.899082 0
M  V30 5137 H 504.575 5.99821 0.182857 0
M  V30 5138 H 505.645 4.81324 -0.587821 0
M  V30 5139 N 506.988 0.0434614 1.5754 0
M  V30 5140 C 507.935 -0.93356 2.11077 0
M  V30 5141 C 508.905 -1.31383 1.01626 0
M  V30 5142 O 510.09 -1.40465 1.29129 0
M  V30 5143 C 507.23 -2.20578 2.65404 0
M  V30 5144 C 506.343 -1.88068 3.88914 0
M  V30 5145 C 505.478 -3.09691 4.31584 0
M  V30 5146 C 504.517 -2.73067 5.47815 0
M  V30 5147 N 503.654 -3.87359 5.85574 0
M  V30 5148 H 508.494 -0.470118 2.94268 0
M  V30 5149 H 506.031 -0.220434 1.45439 0
M  V30 5150 H 507.989 -2.95011 2.94999 0
M  V30 5151 H 506.619 -2.64513 1.85021 0
M  V30 5152 H 505.671 -1.03816 3.6596 0
M  V30 5153 H 506.983 -1.57104 4.73413 0
M  V30 5154 H 506.137 -3.92431 4.62691 0
M  V30 5155 H 504.876 -3.43827 3.45882 0
M  V30 5156 H 503.881 -1.88742 5.16388 0
M  V30 5157 H 505.106 -2.40131 6.35227 0
M  V30 5158 H 503.052 -4.21311 5.02825 0
M  V30 5159 H 502.969 -3.60068 6.64746 0
M  V30 5160 H 504.237 -4.70761 6.21292 0
M  V30 5161 N 508.466 -1.55915 -0.229846 0
M  V30 5162 C 509.714 -1.7819 -0.953565 0
M  V30 5163 C 510.035 -0.610504 -1.85197 0
M  V30 5164 O 509.305 0.372988 -1.92316 0
M  V30 5165 H 507.885 -0.657208 -0.355087 0
M  V30 5166 H 510.547 -1.9337 -0.243693 0
M  V30 5167 H 509.643 -2.70011 -1.56527 0
M  V30 5168 N 509.944 0.496216 -1.49584 0
M  V30 5169 C 511.221 1.25755 -1.49816 0
M  V30 5170 C 511.601 2.09859 -0.228572 0
M  V30 5171 O 510.949 2.14449 0.788908 0
M  V30 5172 C 511.159 2.11017 -2.7798 0
M  V30 5173 C 512.507 2.70047 -3.27658 0
M  V30 5174 O 513.531 2.21281 -2.79129 0
M  V30 5175 O 512.39 3.58834 -4.1219 0
M  V30 5176 H 509.484 0.569322 -0.599834 0
M  V30 5177 H 512.03 0.510094 -1.61852 0
M  V30 5178 H 510.802 1.48879 -3.61871 0
M  V30 5179 H 510.425 2.92947 -2.68827 0
M  V30 5180 N 511.423 1.38739 0.74761 0
M  V30 5181 C 512.834 1.31507 1.32524 0
M  V30 5182 C 513.185 -0.0263963 1.96182 0
M  V30 5183 O 512.31 -0.92849 1.95469 0
M  V30 5184 C 512.905 2.38162 2.40966 0
M  V30 5185 C 511.464 2.34489 2.94434 0
M  V30 5186 C 510.611 2.20712 1.67873 0
M  V30 5187 H 513.562 1.4901 0.546043 0
M  V30 5188 H 513.583 2.04222 3.21051 0
M  V30 5189 H 513.095 3.35783 1.94605 0
M  V30 5190 H 511.196 1.40467 3.45108 0
M  V30 5191 H 511.309 3.28861 3.48407 0
M  V30 5192 H 509.673 1.67667 1.91729 0
M  V30 5193 H 510.456 3.20285 1.23582 0
M  V30 5194 N 512.901 -0.976442 1.23707 0
M  V30 5195 C 514.148 -1.71827 1.07153 0
M  V30 5196 C 514.476 -1.9053 -0.390982 0
M  V30 5197 O 513.731 -1.45779 -1.30564 0
M  V30 5198 C 514.03 -3.11814 1.74662 0
M  V30 5199 C 513.696 -3.12978 3.24585 0
M  V30 5200 C 512.358 -3.13003 3.6549 0
M  V30 5201 C 514.71 -3.07986 4.20469 0
M  V30 5202 C 512.038 -3.05757 5.00729 0
M  V30 5203 C 514.39 -3.02282 5.55705 0
M  V30 5204 C 513.054 -3.00631 5.95968 0
M  V30 5205 H 512.324 -0.628758 0.392102 0
M  V30 5206 H 514.971 -1.14239 1.53693 0
M  V30 5207 H 513.276 -3.72812 1.20492 0
M  V30 5208 H 514.973 -3.67989 1.59328 0
M  V30 5209 H 511.563 -3.13718 2.92026 0
M  V30 5210 H 515.747 -3.07103 3.89874 0
M  V30 5211 H 511.003 -3.02834 5.31132 0
M  V30 5212 H 515.177 -2.97376 6.29714 0
M  V30 5213 H 512.804 -2.94771 7.00724 0
M  V30 5214 N 514.379 -1.04941 -1.1758 0
M  V30 5215 C 515.309 -0.669172 -2.23706 0
M  V30 5216 C 516.29 0.331835 -1.66832 0
M  V30 5217 O 517.475 0.209988 -1.93061 0
M  V30 5218 C 514.605 -0.0404889 -3.47276 0
M  V30 5219 C 513.559 -0.965983 -4.16957 0
M  V30 5220 C 512.885 -0.201312 -5.34321 0
M  V30 5221 C 514.185 -2.28902 -4.69469 0
M  V30 5222 H 515.879 -1.55639 -2.55767 0
M  V30 5223 H 513.425 -0.749793 -1.22939 0
M  V30 5224 H 515.378 0.237298 -4.20731 0
M  V30 5225 H 514.102 0.881658 -3.14475 0
M  V30 5226 H 512.761 -1.22829 -3.45411 0
M  V30 5227 H 512.409 0.723519 -4.97769 0
M  V30 5228 H 512.109 -0.817968 -5.81879 0
M  V30 5229 H 513.633 0.0692499 -6.10561 0
M  V30 5230 H 515.047 -2.07132 -5.34574 0
M  V30 5231 H 513.444 -2.85942 -5.27596 0
M  V30 5232 H 514.514 -2.92937 -3.86414 0
M  V30 5233 N 515.857 1.33968 -0.830081 0
M  V30 5234 C 516.82 2.27694 -0.26235 0
M  V30 5235 C 517.82 1.50589 0.563876 0
M  V30 5236 O 519.01 1.70028 0.378941 0
M  V30 5237 C 516.142 3.35002 0.63138 0
M  V30 5238 H 517.335 2.79419 -1.08928 0
M  V30 5239 H 514.888 1.44221 -0.602486 0
M  V30 5240 H 515.623 2.88504 1.48109 0
M  V30 5241 H 515.408 3.92079 0.0403276 0
M  V30 5242 H 516.898 4.04897 1.02217 0
M  V30 5243 N 517.335 0.585699 1.46312 0
M  V30 5244 C 518.56 0.0762461 2.0726 0
M  V30 5245 C 518.985 -1.22071 1.43109 0
M  V30 5246 O 518.343 -1.73804 0.515942 0
M  V30 5247 C 518.391 -0.0729404 3.60526 0
M  V30 5248 O 517.495 -1.1287 3.96654 0
M  V30 5249 H 516.836 0.0641558 0.660893 0
M  V30 5250 H 519.366 0.809492 1.87905 0
M  V30 5251 H 519.376 -0.278158 4.07051 0
M  V30 5252 H 518.051 0.874188 4.06609 0
M  V30 5253 H 516.628 -0.901703 3.61834 0
M  V30 5254 N 518.813 -1.54241 0.323641 0
M  V30 5255 C 520.224 -1.85975 -0.164405 0
M  V30 5256 C 520.575 -1.24529 -1.51615 0
M  V30 5257 O 519.7 -0.551351 -2.09258 0
M  V30 5258 C 520.295 -3.37424 -0.305091 0
M  V30 5259 C 518.854 -3.69107 -0.737358 0
M  V30 5260 C 518.001 -2.76942 0.140884 0
M  V30 5261 H 520.952 -1.49088 0.543922 0
M  V30 5262 H 520.973 -3.63147 -1.13598 0
M  V30 5263 H 520.485 -3.82116 0.678876 0
M  V30 5264 H 518.586 -3.29947 -1.73107 0
M  V30 5265 H 518.699 -4.76035 -0.541053 0
M  V30 5266 H 517.063 -2.51795 -0.383572 0
M  V30 5267 H 517.846 -3.24461 1.12162 0
M  V30 5268 N 520.291 -0.0518155 -1.57515 0
M  V30 5269 C 521.519 0.631395 -1.9703 0
M  V30 5270 C 521.934 1.64341 -0.92938 0
M  V30 5271 O 521.291 1.82296 0.0863266 0
M  V30 5272 C 521.342 1.31774 -3.36627 0
M  V30 5273 O 521.063 0.346247 -4.3673 0
M  V30 5274 C 522.564 2.09065 -3.90905 0
M  V30 5275 H 519.784 0.172576 -0.648428 0
M  V30 5276 H 522.328 -0.118306 -2.04158 0
M  V30 5277 H 520.483 2.01867 -3.30649 0
M  V30 5278 H 520.897 0.836226 -5.17791 0
M  V30 5279 H 522.371 2.52508 -4.9086 0
M  V30 5280 H 522.848 2.93908 -3.26366 0
M  V30 5281 H 523.454 1.43882 -4.00223 0
M  V30 5282 N 521.769 1.56035 0.221574 0
M  V30 5283 C 522.994 1.83476 0.967026 0
M  V30 5284 C 523.419 0.632139 1.7716 0
M  V30 5285 O 522.777 -0.419082 1.7639 0
M  V30 5286 C 522.825 3.08907 1.86034 0
M  V30 5287 O 521.929 2.876 2.95567 0
M  V30 5288 H 521.27 0.604913 0.273817 0
M  V30 5289 H 523.8 2.03247 0.234893 0
M  V30 5290 H 523.81 3.3901 2.27016 0
M  V30 5291 H 522.485 3.96068 1.26898 0
M  V30 5292 H 521.062 2.6873 2.58532 0
M  V30 5293 N 523.247 -0.488276 1.49845 0
M  V30 5294 C 524.524 -1.24959 1.50481 0
M  V30 5295 C 524.904 -2.09735 0.239698 0
M  V30 5296 O 524.252 -2.14865 -0.777524 0
M  V30 5297 C 524.462 -2.0954 2.79095 0
M  V30 5298 C 525.81 -2.68305 3.29086 0
M  V30 5299 O 526.834 -2.19797 2.80299 0
M  V30 5300 O 525.693 -3.56643 4.14087 0
M  V30 5301 H 522.787 -0.566133 0.602845 0
M  V30 5302 H 525.333 -0.501504 1.6212 0
M  V30 5303 H 524.105 -1.46958 3.62656 0
M  V30 5304 H 523.728 -2.91517 2.70377 0
M  V30 5305 N 524.725 -1.39134 -0.740242 0
M  V30 5306 C 526.141 -1.20623 -1.0451 0
M  V30 5307 C 526.341 -0.0641651 -2.01398 0
M  V30 5308 O 525.397 0.585843 -2.4561 0
M  V30 5309 C 526.71 -2.53815 -1.6124 0
M  V30 5310 C 528.258 -2.60615 -1.73346 0
M  V30 5311 C 528.733 -3.94015 -2.33486 0
M  V30 5312 N 530.224 -3.95627 -2.40902 0
M  V30 5313 C 530.959 -4.95616 -2.88361 0
M  V30 5314 N 530.455 -6.06003 -3.35756 0
M  V30 5315 N 532.248 -4.82998 -2.87523 0
M  V30 5316 H 524.399 -2.12176 -0.0975576 0
M  V30 5317 H 526.662 -0.942066 -0.105904 0
M  V30 5318 H 526.368 -3.37911 -0.975144 0
M  V30 5319 H 526.242 -2.73162 -2.6012 0
M  V30 5320 H 528.629 -1.76906 -2.36195 0
M  V30 5321 H 528.71 -2.45123 -0.731336 0
M  V30 5322 H 528.354 -4.78153 -1.71267 0
M  V30 5323 H 528.284 -4.06825 -3.34366 0
M  V30 5324 H 530.775 -3.15903 -2.07398 0
M  V30 5325 H 531.088 -6.78215 -3.70464 0
M  V30 5326 H 529.433 -6.09604 -3.33778 0
M  V30 5327 H 532.624 -3.95866 -2.49816 0
M  V30 5328 H 532.797 -5.61072 -3.24196 0
M  V30 5329 N 526.204 0.969867 -1.24223 0
M  V30 5330 C 527.114 2.09806 -1.0497 0
M  V30 5331 C 528.13 1.73998 0.00886455 0
M  V30 5332 O 529.306 2.00513 -0.188848 0
M  V30 5333 C 526.371 3.40467 -0.654452 0
M  V30 5334 C 525.432 3.90236 -1.78926 0
M  V30 5335 C 524.665 5.14662 -1.41277 0
M  V30 5336 O 524.888 5.69602 -0.301632 0
M  V30 5337 O 523.822 5.58761 -2.23763 0
M  V30 5338 H 527.648 2.28942 -1.99548 0
M  V30 5339 H 525.233 1.08197 -1.03023 0
M  V30 5340 H 527.115 4.19039 -0.445452 0
M  V30 5341 H 525.79 3.22636 0.262216 0
M  V30 5342 H 524.697 3.12735 -2.05299 0
M  V30 5343 H 526.03 4.1254 -2.68462 0
M  V30 5344 N 527.682 1.05563 1.17022 0
M  V30 5345 C 528.931 0.763036 1.8671 0
M  V30 5346 C 529.244 -0.712857 1.82147 0
M  V30 5347 O 530.45 -1.11955 2.47343 0
M  V30 5348 C 528.906 1.31474 3.35026 0
M  V30 5349 C 528.514 2.82034 3.48081 0
M  V30 5350 C 530.258 1.09935 4.10018 0
M  V30 5351 C 528.165 3.30486 4.90442 0
M  V30 5352 H 527.095 0.281747 0.699382 0
M  V30 5353 H 529.746 1.2734 1.32124 0
M  V30 5354 H 528.128 0.732171 3.89173 0
M  V30 5355 H 529.302 3.46178 3.04133 0
M  V30 5356 H 527.617 3.02156 2.86515 0
M  V30 5357 H 530.214 1.43632 5.15048 0
M  V30 5358 H 530.557 0.0373072 4.16283 0
M  V30 5359 H 531.09 1.64732 3.62089 0
M  V30 5360 H 527.829 4.36137 4.89352 0
M  V30 5361 H 527.349 2.71086 5.35044 0
M  V30 5362 H 529.028 3.25382 5.59227 0
M  V30 5363 N 529.16 -1.33526 0.837174 0
M  V30 5364 C 530.409 -1.97098 0.428387 0
M  V30 5365 C 530.722 -1.67062 -1.01734 0
M  V30 5366 O 531.928 -2.24235 -1.53072 0
M  V30 5367 C 530.384 -3.52725 0.715075 0
M  V30 5368 C 529.992 -3.9164 2.17537 0
M  V30 5369 C 531.736 -4.22857 0.373154 0
M  V30 5370 C 529.643 -5.40237 2.40619 0
M  V30 5371 H 528.573 -0.737589 0.156455 0
M  V30 5372 H 531.224 -1.52169 1.02552 0
M  V30 5373 H 529.606 -3.95971 0.0475904 0
M  V30 5374 H 530.78 -3.59456 2.88319 0
M  V30 5375 H 529.095 -3.34485 2.4801 0
M  V30 5376 H 531.692 -5.32133 0.523264 0
M  V30 5377 H 532.035 -4.10647 -0.683708 0
M  V30 5378 H 532.568 -3.85135 0.995801 0
M  V30 5379 H 529.307 -5.57449 3.44864 0
M  V30 5380 H 528.827 -5.73887 1.74396 0
M  V30 5381 H 530.506 -6.07102 2.23688 0
M  V30 5382 N 530.638 -0.59345 -1.46 0
M  V30 5383 C 531.601 0.123538 -2.28867 0
M  V30 5384 C 532.601 0.808628 -1.38989 0
M  V30 5385 O 533.791 0.658945 -1.61256 0
M  V30 5386 C 530.923 1.1847 -3.19653 0
M  V30 5387 H 532.116 -0.604843 -2.93737 0
M  V30 5388 H 529.669 -0.351875 -1.52288 0
M  V30 5389 H 530.404 1.94431 -2.59552 0
M  V30 5390 H 530.189 0.69783 -3.8584 0
M  V30 5391 H 531.679 1.68726 -3.81997 0
M  V30 5392 N 532.116 1.54067 -0.331816 0
M  V30 5393 C 533.527 1.86059 0.15454 0
M  V30 5394 C 533.878 1.25331 1.50952 0
M  V30 5395 O 533.003 0.562441 2.08963 0
M  V30 5396 C 533.598 3.37581 0.287192 0
M  V30 5397 C 532.157 3.69493 0.717773 0
M  V30 5398 C 531.304 2.76863 -0.155569 0
M  V30 5399 H 534.255 1.48797 -0.55182 0
M  V30 5400 H 534.276 3.63744 1.11671 0
M  V30 5401 H 533.788 3.81751 -0.699131 0
M  V30 5402 H 531.889 3.3086 1.71354 0
M  V30 5403 H 532.002 4.76315 0.5158 0
M  V30 5404 H 530.366 2.51995 0.370213 0
M  V30 5405 H 531.149 3.23861 -1.13881 0
M  V30 5406 N 533.594 0.0601682 1.57485 0
M  V30 5407 C 534.541 -0.91112 2.12055 0
M  V30 5408 C 535.511 -1.30298 1.03013 0
M  V30 5409 O 536.696 -1.39087 1.30612 0
M  V30 5410 C 533.836 -2.1775 2.67729 0
M  V30 5411 C 532.949 -1.83933 3.90887 0
M  V30 5412 C 532.084 -3.05096 4.34845 0
M  V30 5413 C 531.123 -2.67241 5.5068 0
M  V30 5414 N 530.26 -3.81127 5.8965 0
M  V30 5415 H 535.1 -0.43888 2.9475 0
M  V30 5416 H 532.637 -0.204995 1.45665 0
M  V30 5417 H 534.595 -2.91866 2.98111 0
M  V30 5418 H 533.225 -2.62535 1.87816 0
M  V30 5419 H 532.277 -0.999287 3.6704 0
M  V30 5420 H 533.589 -1.52074 4.75052 0
M  V30 5421 H 532.743 -3.87502 4.66827 0
M  V30 5422 H 531.482 -3.40139 3.49509 0
M  V30 5423 H 530.487 -1.83254 5.18361 0
M  V30 5424 H 531.712 -2.3338 6.37738 0
M  V30 5425 H 529.658 -4.15954 5.07266 0
M  V30 5426 H 529.575 -3.52997 6.68528 0
M  V30 5427 H 530.843 -4.64145 6.2625 0
M  V30 5428 N 535.072 -1.5615 -0.213296 0
M  V30 5429 C 536.321 -1.78743 -0.93455 0
M  V30 5430 C 536.634 -0.630199 -1.8517 0
M  V30 5431 O 537.84 -0.739966 -2.61222 0
M  V30 5432 C 536.296 -3.16571 -1.71203 0
M  V30 5433 C 535.904 -4.40043 -0.840617 0
M  V30 5434 C 537.648 -3.48485 -2.42401 0
M  V30 5435 C 535.555 -5.68895 -1.61592 0
M  V30 5436 H 534.485 -0.666426 -0.352692 0
M  V30 5437 H 537.136 -1.82532 -0.188227 0
M  V30 5438 H 535.518 -3.06981 -2.50157 0
M  V30 5439 H 536.692 -4.6071 -0.0910326 0
M  V30 5440 H 535.007 -4.15706 -0.240365 0
M  V30 5441 H 537.604 -4.41983 -3.00924 0
M  V30 5442 H 537.947 -2.71371 -3.15695 0
M  V30 5443 H 538.48 -3.59442 -1.7043 0
M  V30 5444 H 535.219 -6.48925 -0.926106 0
M  V30 5445 H 534.739 -5.52275 -2.33991 0
M  V30 5446 H 536.418 -6.09365 -2.17447 0
M  V30 5447 N 536.55 0.480323 -1.50102 0
M  V30 5448 C 537.497 1.57946 -1.6829 0
M  V30 5449 C 538.467 1.57611 -0.524223 0
M  V30 5450 O 539.652 1.75282 -0.753709 0
M  V30 5451 C 536.792 2.95978 -1.77457 0
M  V30 5452 C 535.905 3.06173 -3.04766 0
M  V30 5453 C 535.04 4.35063 -3.04784 0
M  V30 5454 C 534.079 4.38966 -4.26586 0
M  V30 5455 N 533.216 5.59314 -4.24396 0
M  V30 5456 H 538.056 1.41743 -2.62131 0
M  V30 5457 H 535.593 0.689304 -1.2995 0
M  V30 5458 H 537.551 3.76011 -1.80752 0
M  V30 5459 H 536.181 3.10837 -0.870637 0
M  V30 5460 H 535.233 2.19071 -3.10986 0
M  V30 5461 H 536.545 3.04916 -3.9475 0
M  V30 5462 H 535.699 5.23436 -3.06757 0
M  V30 5463 H 534.438 4.38915 -2.12614 0
M  V30 5464 H 533.443 3.48992 -4.24835 0
M  V30 5465 H 534.668 4.36813 -5.19972 0
M  V30 5466 H 532.614 5.63969 -3.35074 0
M  V30 5467 H 532.531 5.5976 -5.08138 0
M  V30 5468 H 533.799 6.49837 -4.30502 0
M  V30 5469 N 538.028 1.39524 0.732853 0
M  V30 5470 C 538.938 1.40695 1.87729 0
M  V30 5471 C 539.954 0.301496 1.71368 0
M  V30 5472 O 541.13 0.543313 1.93933 0
M  V30 5473 C 538.195 1.25098 3.23344 0
M  V30 5474 C 537.256 2.45634 3.52083 0
M  V30 5475 C 536.489 2.30772 4.81228 0
M  V30 5476 O 536.712 1.31233 5.55098 0
M  V30 5477 O 535.646 3.19799 5.09914 0
M  V30 5478 H 539.472 2.37168 1.89697 0
M  V30 5479 H 537.057 1.20663 0.880959 0
M  V30 5480 H 538.939 1.18541 4.04383 0
M  V30 5481 H 537.614 0.317209 3.22142 0
M  V30 5482 H 536.521 2.57767 2.71122 0
M  V30 5483 H 537.854 3.37712 3.58066 0
M  V30 5484 N 539.506 -0.963266 1.24736 0
M  V30 5485 C 540.922 -1.23273 1.01371 0
M  V30 5486 C 541.122 -1.99618 -0.274776 0
M  V30 5487 O 540.178 -2.32293 -0.989769 0
M  V30 5488 C 541.491 -2.01554 2.23152 0
M  V30 5489 C 543.039 -2.14629 2.27823 0
M  V30 5490 C 543.514 -2.96307 3.49237 0
M  V30 5491 N 545.005 -3.03887 3.49581 0
M  V30 5492 C 545.74 -3.67456 4.40186 0
M  V30 5493 N 545.236 -4.32706 5.41052 0
M  V30 5494 N 547.029 -3.64511 4.27888 0
M  V30 5495 H 539.18 -0.452294 2.07528 0
M  V30 5496 H 541.443 -0.262521 0.910926 0
M  V30 5497 H 541.149 -1.52847 3.1675 0
M  V30 5498 H 541.023 -3.02278 2.25628 0
M  V30 5499 H 543.41 -2.62537 1.34753 0
M  V30 5500 H 543.491 -1.13238 2.2937 0
M  V30 5501 H 543.135 -2.49091 4.42624 0
M  V30 5502 H 543.065 -3.97905 3.44933 0
M  V30 5503 H 545.556 -2.57477 2.76611 0
M  V30 5504 H 545.869 -4.79042 6.06415 0
M  V30 5505 H 544.214 -4.31361 5.44934 0
M  V30 5506 H 547.405 -3.12715 3.4832 0
M  V30 5507 H 547.578 -4.13768 4.98698 0
M  V30 5508 N 540.985 -1.06182 -1.16461 0
M  V30 5509 C 542.213 -0.798583 -1.90867 0
M  V30 5510 C 542.628 0.646921 -1.77371 0
M  V30 5511 O 541.985 1.44279 -1.11758 0
M  V30 5512 C 542.036 -1.18258 -3.4161 0
M  V30 5513 O 541.757 -2.57135 -3.54701 0
M  V30 5514 C 543.258 -0.946917 -4.33069 0
M  V30 5515 H 540.478 -0.289603 -0.605286 0
M  V30 5516 H 543.022 -1.41515 -1.47627 0
M  V30 5517 H 541.177 -0.610562 -3.82558 0
M  V30 5518 H 541.591 -2.72477 -4.4817 0
M  V30 5519 H 543.065 -1.26523 -5.37304 0
M  V30 5520 H 543.542 0.117406 -4.39043 0
M  V30 5521 H 544.148 -1.50326 -3.97847 0
M  V30 5522 N 542.463 1.3308 -0.844243 0
M  V30 5523 C 543.413 2.26589 -0.253289 0
M  V30 5524 C 544.397 1.49501 0.594836 0
M  V30 5525 O 545.589 1.71291 0.445924 0
M  V30 5526 C 542.718 3.38599 0.566176 0
M  V30 5527 C 541.804 4.23081 -0.293756 0
M  V30 5528 N 542.195 4.86751 -1.37505 0
M  V30 5529 C 540.493 4.45925 -0.0817086 0
M  V30 5530 C 541.194 5.49684 -1.90323 0
M  V30 5531 N 540.17 5.30101 -1.20391 0
M  V30 5532 H 543.972 2.73334 -1.08009 0
M  V30 5533 H 541.486 1.47048 -0.689258 0
M  V30 5534 H 543.483 4.04584 1.00587 0
M  V30 5535 H 542.143 2.93401 1.39089 0
M  V30 5536 H 543.154 4.87151 -1.75796 0
M  V30 5537 H 539.831 4.11434 0.709129 0
M  V30 5538 H 541.221 6.10363 -2.80902 0
M  V30 5539 N 543.941 0.601185 1.45683 0
M  V30 5540 C 544.889 -0.133955 2.32214 0
M  V30 5541 C 545.883 -0.866034 1.45589 0
M  V30 5542 O 547.089 -0.782326 1.6211 0
M  V30 5543 H 543.464 -0.0620613 0.749435 0
M  V30 5544 H 545.435 0.614389 2.92007 0
M  V30 5545 C 544.184 -1.12216 3.29094 0
M  V30 5546 H 543.507 -0.568273 3.95741 0
M  V30 5547 H 544.947 -1.60659 3.92383 0
M  V30 5548 C 543.406 -2.19251 2.55794 0
M  V30 5549 O 543.936 -3.26894 2.33459 0
M  V30 5550 N 542.142 -1.9436 2.16039 0
M  V30 5551 H 541.689 -1.06829 2.34404 0
M  V30 5552 H 541.647 -2.66181 1.67318 0
M  V30 5553 N 545.419 -1.53889 0.339982 0
M  V30 5554 C 546.665 -2.01152 -0.258003 0
M  V30 5555 C 546.998 -1.22749 -1.50487 0
M  V30 5556 O 546.273 -0.314156 -1.91946 0
M  V30 5557 C 546.556 -3.55468 -0.575717 0
M  V30 5558 C 546.409 -4.44584 0.682996 0
M  V30 5559 C 547.728 -4.1768 -1.38677 0
M  V30 5560 H 544.847 -0.731198 -0.0922992 0
M  V30 5561 H 547.489 -1.84352 0.459814 0
M  V30 5562 H 545.639 -3.69914 -1.18725 0
M  V30 5563 H 547.311 -4.41981 1.32102 0
M  V30 5564 H 545.554 -4.13592 1.3086 0
M  V30 5565 H 546.225 -5.5043 0.416001 0
M  V30 5566 H 548.701 -4.0691 -0.869705 0
M  V30 5567 H 547.577 -5.25734 -1.57783 0
M  V30 5568 H 547.838 -3.72069 -2.38782 0
M  V30 5569 N 546.897 -0.0685191 -1.57451 0
M  V30 5570 C 548.125 0.610462 -1.97689 0
M  V30 5571 C 548.54 1.63346 -0.946758 0
M  V30 5572 O 547.897 1.82377 0.0669868 0
M  V30 5573 C 547.948 1.28196 -3.38006 0
M  V30 5574 O 547.669 0.299906 -4.37072 0
M  V30 5575 C 549.17 2.04907 -3.931 0
M  V30 5576 H 546.39 0.165689 -0.650222 0
M  V30 5577 H 548.934 -0.139953 -2.04021 0
M  V30 5578 H 547.089 1.98348 -3.32771 0
M  V30 5579 H 547.503 0.78126 -5.18649 0
M  V30 5580 H 548.977 2.47287 -4.93511 0
M  V30 5581 H 549.454 2.9043 -3.29465 0
M  V30 5582 H 550.06 1.39629 -4.01726 0
M  V30 5583 N 548.375 1.56261 0.205012 0
M  V30 5584 C 549.285 1.96944 1.27476 0
M  V30 5585 C 550.301 0.875636 1.50362 0
M  V30 5586 O 551.477 1.18058 1.6317 0
M  V30 5587 C 548.542 2.29219 2.60115 0
M  V30 5588 C 547.603 3.52255 2.45387 0
M  V30 5589 C 546.836 3.8298 3.71701 0
M  V30 5590 O 547.059 3.15138 4.75441 0
M  V30 5591 O 545.993 4.76435 3.67823 0
M  V30 5592 H 549.819 2.88144 0.959527 0
M  V30 5593 H 547.404 1.43686 0.409217 0
M  V30 5594 H 549.286 2.51098 3.3842 0
M  V30 5595 H 547.961 1.4119 2.91285 0
M  V30 5596 H 546.868 3.35635 1.65227 0
M  V30 5597 H 548.201 4.40719 2.19152 0
M  V30 5598 N 549.853 -0.472356 1.50355 0
M  V30 5599 C 550.8 -1.57051 1.69126 0
M  V30 5600 C 551.77 -1.5733 0.532574 0
M  V30 5601 O 552.955 -1.7488 0.762994 0
M  V30 5602 C 550.095 -2.95033 1.79024 0
M  V30 5603 C 549.208 -3.04552 3.06386 0
M  V30 5604 C 548.343 -4.33441 3.07087 0
M  V30 5605 C 547.382 -4.36697 4.28908 0
M  V30 5606 N 546.519 -5.57056 4.27356 0
M  V30 5607 H 551.359 -1.40351 2.62879 0
M  V30 5608 H 548.896 -0.682403 1.30314 0
M  V30 5609 H 550.854 -3.75048 1.82744 0
M  V30 5610 H 549.484 -3.10371 0.887109 0
M  V30 5611 H 548.536 -2.17419 3.12143 0
M  V30 5612 H 549.848 -3.02818 3.96362 0
M  V30 5613 H 549.002 -5.21801 3.09529 0
M  V30 5614 H 547.741 -4.37782 2.14939 0
M  V30 5615 H 546.746 -3.46734 4.2668 0
M  V30 5616 H 547.971 -4.34049 5.22282 0
M  V30 5617 H 545.917 -5.62184 3.3806 0
M  V30 5618 H 545.834 -5.57058 5.111 0
M  V30 5619 H 547.102 -6.47545 4.33942 0
M  V30 5620 N 551.331 -1.39911 -0.725443 0
M  V30 5621 C 552.577 -1.37858 -1.48738 0
M  V30 5622 C 552.91 0.0224187 -1.94187 0
M  V30 5623 O 552.185 0.989204 -1.67466 0
M  V30 5624 C 552.468 -2.3594 -2.72038 0
M  V30 5625 C 552.321 -3.85023 -2.32546 0
M  V30 5626 C 553.64 -2.31704 -3.74167 0
M  V30 5627 H 550.759 -0.502074 -0.539528 0
M  V30 5628 H 553.401 -1.70974 -0.828728 0
M  V30 5629 H 551.551 -2.0783 -3.28236 0
M  V30 5630 H 553.223 -4.2392 -1.81905 0
M  V30 5631 H 551.466 -4.01334 -1.64661 0
M  V30 5632 H 552.137 -4.49152 -3.20884 0
M  V30 5633 H 554.613 -2.5658 -3.27576 0
M  V30 5634 H 553.489 -3.02395 -4.58092 0
M  V30 5635 H 553.75 -1.3253 -4.21768 0
M  V30 5636 N 552.809 0.956637 -1.25245 0
M  V30 5637 C 554.037 1.73571 -1.12608 0
M  V30 5638 C 554.452 1.86063 0.320324 0
M  V30 5639 O 553.809 1.35691 1.22042 0
M  V30 5640 C 553.86 3.15053 -1.77268 0
M  V30 5641 O 553.581 3.03174 -3.16255 0
M  V30 5642 C 555.082 4.09248 -1.70386 0
M  V30 5643 H 552.302 0.543955 -0.392879 0
M  V30 5644 H 554.846 1.20031 -1.65568 0
M  V30 5645 H 553.001 3.65543 -1.28284 0
M  V30 5646 H 553.415 3.9241 -3.48015 0
M  V30 5647 H 554.889 5.06138 -2.20291 0
M  V30 5648 H 555.366 4.34102 -0.667239 0
M  V30 5649 H 555.972 3.64672 -2.18849 0
M  V30 5650 N 554.287 1.06798 1.15896 0
M  V30 5651 C 555.219 0.641263 2.20046 0
M  V30 5652 C 556.232 -0.303355 1.59949 0
M  V30 5653 O 557.421 -0.0935478 1.78255 0
M  V30 5654 C 554.521 -0.0794029 3.38807 0
M  V30 5655 C 553.694 0.879986 4.28457 0
M  V30 5656 C 552.753 0.197638 5.25829 0
M  V30 5657 O 551.779 0.836913 5.63014 0
M  V30 5658 N 552.981 -1.05886 5.70761 0
M  V30 5659 H 555.746 1.53718 2.57276 0
M  V30 5660 H 553.307 0.951951 1.30956 0
M  V30 5661 H 555.299 -0.546418 4.00994 0
M  V30 5662 H 553.869 -0.877193 3.0004 0
M  V30 5663 H 553.089 1.52625 3.63454 0
M  V30 5664 H 554.377 1.53065 4.8523 0
M  V30 5665 H 553.775 -1.59828 5.42652 0
M  V30 5666 H 552.332 -1.46965 6.35015 0
M  V30 5667 N 555.766 -1.3263 0.851289 0
M  V30 5668 C 557.012 -1.9766 0.453694 0
M  V30 5669 C 557.345 -1.67225 -0.987396 0
M  V30 5670 O 556.62 -0.958693 -1.69232 0
M  V30 5671 C 556.903 -3.5344 0.68936 0
M  V30 5672 C 556.756 -3.93517 2.17862 0
M  V30 5673 C 558.075 -4.39866 0.143555 0
M  V30 5674 H 555.194 -0.717989 0.166314 0
M  V30 5675 H 557.836 -1.57068 1.06909 0
M  V30 5676 H 555.986 -3.88147 0.165546 0
M  V30 5677 H 557.658 -3.69006 2.76826 0
M  V30 5678 H 555.901 -3.42798 2.65841 0
M  V30 5679 H 556.572 -5.02065 2.29422 0
M  V30 5680 H 559.048 -4.11875 0.591451 0
M  V30 5681 H 557.924 -5.47858 0.338043 0
M  V30 5682 H 558.185 -4.31696 -0.953466 0
M  V30 5683 N 557.244 -0.608902 -1.45362 0
M  V30 5684 C 558.174 0.0964526 -2.33301 0
M  V30 5685 C 559.155 0.857444 -1.46908 0
M  V30 5686 O 560.34 0.827735 -1.75676 0
M  V30 5687 C 557.47 1.09354 -3.29635 0
M  V30 5688 C 556.424 0.445676 -4.25673 0
M  V30 5689 C 555.75 1.5511 -5.11708 0
M  V30 5690 C 557.05 -0.633972 -5.18438 0
M  V30 5691 H 558.744 -0.637829 -2.92527 0
M  V30 5692 H 556.29 -0.308178 -1.40664 0
M  V30 5693 H 558.243 1.59556 -3.90025 0
M  V30 5694 H 556.967 1.85843 -2.6857 0
M  V30 5695 H 555.626 -0.0354897 -3.66583 0
M  V30 5696 H 555.274 2.30631 -4.4701 0
M  V30 5697 H 554.974 1.12311 -5.76767 0
M  V30 5698 H 556.498 2.05537 -5.74967 0
M  V30 5699 H 557.912 -0.215974 -5.72893 0
M  V30 5700 H 556.309 -0.983789 -5.91981 0
M  V30 5701 H 557.379 -1.51005 -4.60788 0
M  V30 5702 N 558.722 1.53707 -0.348139 0
M  V30 5703 C 559.947 2.05877 0.250883 0
M  V30 5704 C 560.372 1.22115 1.43072 0
M  V30 5705 O 559.73 0.235986 1.79758 0
M  V30 5706 C 559.778 3.54886 0.639416 0
M  V30 5707 O 558.882 3.73948 1.73888 0
M  V30 5708 H 558.223 0.662754 0.040653 0
M  V30 5709 H 560.753 1.98303 -0.503685 0
M  V30 5710 H 560.763 3.97601 0.915295 0
M  V30 5711 H 559.438 4.153 -0.223386 0
M  V30 5712 H 558.015 3.43134 1.45991 0
M  V30 5713 N 560.2 0.0768682 1.57412 0
M  V30 5714 C 561.13 -0.886026 2.16037 0
M  V30 5715 C 562.111 -1.30691 1.08876 0
M  V30 5716 O 563.296 -1.37705 1.36934 0
M  V30 5717 C 560.426 -2.1518 2.72608 0
M  V30 5718 C 559.38 -1.87015 3.8498 0
M  V30 5719 C 558.706 -3.20266 4.28175 0
M  V30 5720 C 560.006 -1.17143 5.08994 0
M  V30 5721 H 561.7 -0.397642 2.96748 0
M  V30 5722 H 559.246 -0.189823 1.42743 0
M  V30 5723 H 561.199 -2.82962 3.12266 0
M  V30 5724 H 559.923 -2.66269 1.89125 0
M  V30 5725 H 558.582 -1.21636 3.45833 0
M  V30 5726 H 558.23 -3.69207 3.41607 0
M  V30 5727 H 557.93 -3.0221 5.03927 0
M  V30 5728 H 559.454 -3.89237 4.70454 0
M  V30 5729 H 560.868 -1.75003 5.45937 0
M  V30 5730 H 559.265 -1.09328 5.90057 0
M  V30 5731 H 560.335 -0.151295 4.84664 0
M  V30 5732 N 561.678 -1.56367 -0.196722 0
M  V30 5733 C 562.926 -1.80172 -0.915554 0
M  V30 5734 C 563.247 -0.649649 -1.8386 0
M  V30 5735 O 562.517 0.332111 -1.93064 0
M  V30 5736 H 561.097 -0.664592 -0.341067 0
M  V30 5737 H 563.759 -1.93844 -0.202622 0
M  V30 5738 H 562.855 -2.7327 -1.50764 0
M  V30 5739 N 563.156 0.464375 -1.50603 0
M  V30 5740 C 564.119 1.54393 -1.69397 0
M  V30 5741 C 565.119 1.50566 -0.564504 0
M  V30 5742 O 566.309 1.53066 -0.831645 0
M  V30 5743 C 563.441 2.9401 -1.72543 0
M  V30 5744 H 564.634 1.39044 -2.65719 0
M  V30 5745 H 562.187 0.69122 -1.40185 0
M  V30 5746 H 562.922 3.14795 -0.77938 0
M  V30 5747 H 562.707 2.98195 -2.54602 0
M  V30 5748 H 564.197 3.72375 -1.89015 0
M  V30 5749 N 564.634 1.40294 0.718013 0
M  V30 5750 C 565.911 1.2894 1.47084 0
M  V30 5751 C 566.291 -0.0933625 2.10893 0
M  V30 5752 O 565.639 -1.10598 1.99951 0
M  V30 5753 C 565.849 2.4264 2.50852 0
M  V30 5754 C 567.197 2.8276 3.16752 0
M  V30 5755 O 568.221 2.42215 2.61171 0
M  V30 5756 O 567.08 3.528 4.17366 0
M  V30 5757 H 564.174 0.506236 0.653952 0
M  V30 5758 H 566.72 1.52208 0.750394 0
M  V30 5759 H 565.492 3.35009 2.022 0
M  V30 5760 H 565.115 2.21129 3.30435 0
M  V30 5761 N 566.112 -0.949982 1.2575 0
M  V30 5762 C 567.358 -1.69766 1.10938 0
M  V30 5763 C 567.691 -1.91056 -0.348028 0
M  V30 5764 O 566.966 -1.48488 -1.25625 0
M  V30 5765 C 567.249 -3.07779 1.86933 0
M  V30 5766 C 567.102 -2.9387 3.4053 0
M  V30 5767 C 568.421 -4.07749 1.65616 0
M  V30 5768 H 565.54 -0.616144 0.404396 0
M  V30 5769 H 568.182 -1.10394 1.54639 0
M  V30 5770 H 566.332 -3.58462 1.4979 0
M  V30 5771 H 568.004 -2.50476 3.87375 0
M  V30 5772 H 566.247 -2.29686 3.68004 0
M  V30 5773 H 566.918 -3.91719 3.88922 0
M  V30 5774 H 569.394 -3.65994 1.97959 0
M  V30 5775 H 568.27 -5.02348 2.21218 0
M  V30 5776 H 568.531 -4.38029 0.598595 0
M  V30 5777 N 567.59 -1.07411 -1.15328 0
M  V30 5778 C 568.52 -0.716472 -2.22236 0
M  V30 5779 C 569.501 0.296373 -1.67498 0
M  V30 5780 O 570.686 0.168989 -1.93463 0
M  V30 5781 C 567.816 -0.114142 -3.47112 0
M  V30 5782 C 566.77 -1.05421 -4.14814 0
M  V30 5783 C 566.096 -0.314604 -5.33774 0
M  V30 5784 C 567.396 -2.38808 -4.64508 0
M  V30 5785 H 569.09 -1.61029 -2.52408 0
M  V30 5786 H 566.636 -0.775702 -1.21321 0
M  V30 5787 H 568.589 0.148001 -4.2114 0
M  V30 5788 H 567.313 0.814755 -3.16274 0
M  V30 5789 H 565.972 -1.30128 -3.42728 0
M  V30 5790 H 565.62 0.617772 -4.99192 0
M  V30 5791 H 565.32 -0.941209 -5.80013 0
M  V30 5792 H 566.844 -0.0602747 -6.1057 0
M  V30 5793 H 568.258 -2.18424 -5.3006 0
M  V30 5794 H 566.655 -2.97069 -5.21412 0
M  V30 5795 H 567.725 -3.01067 -3.80114 0
M  V30 5796 N 569.068 1.32177 -0.85831 0
M  V30 5797 C 570.479 1.79381 -0.517621 0
M  V30 5798 C 570.83 1.70841 0.964769 0
M  V30 5799 O 569.955 1.26917 1.75274 0
M  V30 5800 C 570.55 3.25706 -0.932801 0
M  V30 5801 C 569.109 3.70851 -0.643953 0
M  V30 5802 C 568.256 2.53208 -1.13054 0
M  V30 5803 H 571.207 1.19424 -1.04516 0
M  V30 5804 H 571.228 3.79673 -0.250674 0
M  V30 5805 H 570.74 3.31889 -2.01174 0
M  V30 5806 H 568.841 3.70178 0.424112 0
M  V30 5807 H 568.954 4.63495 -1.21281 0
M  V30 5808 H 567.318 2.48676 -0.550679 0
M  V30 5809 H 568.101 2.62143 -2.21666 0
M  V30 5810 N 570.547 0.616602 1.45037 0
M  V30 5811 C 571.457 -0.0985401 2.34393 0
M  V30 5812 C 572.473 -0.850971 1.51771 0
M  V30 5813 O 573.649 -0.806521 1.84546 0
M  V30 5814 C 570.714 -1.07748 3.29532 0
M  V30 5815 C 569.775 -0.326022 4.2806 0
M  V30 5816 C 569.008 -1.25833 5.18654 0
M  V30 5817 O 569.231 -2.49652 5.12864 0
M  V30 5818 O 568.165 -0.750512 5.97203 0
M  V30 5819 H 571.991 0.636016 2.96966 0
M  V30 5820 H 569.576 0.376832 1.44569 0
M  V30 5821 H 571.458 -1.64107 3.88133 0
M  V30 5822 H 570.133 -1.79291 2.69512 0
M  V30 5823 H 569.04 0.280253 3.73049 0
M  V30 5824 H 570.373 0.349091 4.9096 0
M  V30 5825 N 572.025 -1.5352 0.356285 0
M  V30 5826 C 573.255 -2.05236 -0.236983 0
M  V30 5827 C 573.663 -1.23016 -1.43749 0
M  V30 5828 O 573.006 -0.2615 -1.81829 0
M  V30 5829 C 573.068 -3.52549 -0.7035 0
M  V30 5830 C 572.732 -4.55425 0.379059 0
M  V30 5831 C 573.729 -5.0524 1.22592 0
M  V30 5832 C 571.414 -4.99425 0.536638 0
M  V30 5833 C 573.408 -5.97647 2.21578 0
M  V30 5834 C 571.095 -5.9164 1.52988 0
M  V30 5835 C 572.093 -6.4064 2.3679 0
M  V30 5836 O 571.781 -7.31039 3.34421 0
M  V30 5837 H 571.513 -0.674346 -0.047254 0
M  V30 5838 H 574.067 -1.98962 0.510238 0
M  V30 5839 H 572.297 -3.56331 -1.50217 0
M  V30 5840 H 573.986 -3.87171 -1.21873 0
M  V30 5841 H 574.752 -4.72002 1.11532 0
M  V30 5842 H 570.631 -4.60879 -0.105834 0
M  V30 5843 H 574.175 -6.35816 2.87025 0
M  V30 5844 H 570.072 -6.24293 1.64099 0
M  V30 5845 H 570.84 -7.49009 3.30041 0
M  V30 5846 N 573.503 -0.0852151 -1.57369 0
M  V30 5847 C 574.45 0.877268 -2.13478 0
M  V30 5848 C 575.42 1.28642 -1.05073 0
M  V30 5849 O 576.605 1.36992 -1.32808 0
M  V30 5850 C 573.745 2.13464 -2.71159 0
M  V30 5851 C 572.858 1.77691 -3.93764 0
M  V30 5852 C 571.993 2.98139 -4.39643 0
M  V30 5853 C 571.032 2.58447 -5.54862 0
M  V30 5854 N 570.169 3.71698 -5.95639 0
M  V30 5855 H 575.009 0.391933 -2.95411 0
M  V30 5856 H 572.546 0.181796 -1.45972 0
M  V30 5857 H 574.504 2.87086 -3.02717 0
M  V30 5858 H 573.134 2.59514 -1.91969 0
M  V30 5859 H 572.186 0.940768 -3.68583 0
M  V30 5860 H 573.498 1.44497 -4.77412 0
M  V30 5861 H 572.652 3.80026 -4.72933 0
M  V30 5862 H 571.391 3.34536 -3.54876 0
M  V30 5863 H 570.396 1.74984 -5.21211 0
M  V30 5864 H 571.621 2.23205 -6.41371 0
M  V30 5865 H 569.567 4.07831 -5.13819 0
M  V30 5866 H 569.484 3.42317 -6.74059 0
M  V30 5867 H 570.752 4.54123 -6.33555 0
M  V30 5868 N 574.981 1.5647 0.188427 0
M  V30 5869 C 575.911 1.98101 1.23606 0
M  V30 5870 C 576.892 0.853961 1.47111 0
M  V30 5871 O 578.077 1.11879 1.58735 0
M  V30 5872 C 575.207 2.32624 2.57882 0
M  V30 5873 C 574.161 3.48129 2.48978 0
M  V30 5874 C 573.487 3.68347 3.87588 0
M  V30 5875 C 574.787 4.82112 2.00911 0
M  V30 5876 H 576.481 2.85864 0.890068 0
M  V30 5877 H 574.027 1.37532 0.426714 0
M  V30 5878 H 575.98 2.60343 3.3136 0
M  V30 5879 H 574.704 1.41751 2.94235 0
M  V30 5880 H 573.363 3.20511 1.77956 0
M  V30 5881 H 573.011 2.74793 4.21305 0
M  V30 5882 H 572.711 4.46055 3.82503 0
M  V30 5883 H 574.235 3.98449 4.62678 0
M  V30 5884 H 575.649 5.08819 2.64151 0
M  V30 5885 H 574.046 5.63337 2.06814 0
M  V30 5886 H 575.116 4.75249 0.96262 0
M  V30 5887 N 576.459 -0.456382 1.50847 0
M  V30 5888 C 577.391 -1.57033 1.66953 0
M  V30 5889 C 578.404 -1.53207 0.550593 0
M  V30 5890 O 579.593 -1.58328 0.824285 0
M  V30 5891 C 576.693 -2.95937 1.65149 0
M  V30 5892 C 575.866 -3.24475 2.93317 0
M  V30 5893 C 574.925 -4.43007 2.83957 0
M  V30 5894 O 573.951 -4.42592 3.57912 0
M  V30 5895 N 575.153 -5.45503 1.9851 0
M  V30 5896 H 577.918 -1.43629 2.63042 0
M  V30 5897 H 575.479 -0.645037 1.48495 0
M  V30 5898 H 577.471 -3.73224 1.56481 0
M  V30 5899 H 576.041 -3.03036 0.767343 0
M  V30 5900 H 575.261 -2.35664 3.16 0
M  V30 5901 H 576.549 -3.4036 3.78196 0
M  V30 5902 H 575.947 -5.48668 1.37766 0
M  V30 5903 H 574.504 -6.21716 1.95735 0
M  V30 5904 N 577.937 -1.40673 -0.710563 0
M  V30 5905 C 578.9 -1.4108 -1.80635 0
M  V30 5906 C 579.9 -0.303783 -1.57904 0
M  V30 5907 O 581.09 -0.562937 -1.64853 0
M  V30 5908 C 578.222 -1.20748 -3.18799 0
M  V30 5909 H 579.415 -2.38612 -1.81671 0
M  V30 5910 H 576.968 -1.26595 -0.916704 0
M  V30 5911 H 577.703 -0.239964 -3.23411 0
M  V30 5912 H 577.488 -2.00941 -3.36698 0
M  V30 5913 H 578.978 -1.23833 -3.98817 0
M  V30 5914 N 579.415 0.9433 -1.26252 0
M  V30 5915 C 580.826 1.50404 -1.10614 0
M  V30 5916 C 581.177 1.93666 0.31429 0
M  V30 5917 O 580.302 1.79709 1.20555 0
M  V30 5918 C 580.897 2.73336 -2.00182 0
M  V30 5919 C 579.456 3.25686 -1.88695 0
M  V30 5920 C 578.603 1.98474 -1.93658 0
M  V30 5921 H 581.554 0.759006 -1.39373 0
M  V30 5922 H 581.575 3.47567 -1.54847 0
M  V30 5923 H 581.087 2.41818 -3.03555 0
M  V30 5924 H 579.188 3.61998 -0.882489 0
M  V30 5925 H 579.301 3.92935 -2.74115 0
M  V30 5926 H 577.665 2.14278 -1.37684 0
M  V30 5927 H 578.448 1.6929 -2.98657 0
M  V30 5928 N 580.893 1.08022 1.14757 0
M  V30 5929 C 582.309 0.807072 1.3769 0
M  V30 5930 C 582.509 -0.585504 1.92806 0
M  V30 5931 O 581.565 -1.34301 2.13821 0
M  V30 5932 C 582.878 1.88651 2.34161 0
M  V30 5933 C 584.426 1.91206 2.47809 0
M  V30 5934 C 584.901 2.98253 3.47576 0
M  V30 5935 N 586.392 2.974 3.55117 0
M  V30 5936 C 587.127 3.76872 4.32152 0
M  V30 5937 N 586.623 4.66212 5.12463 0
M  V30 5938 N 588.416 3.6519 4.27309 0
M  V30 5939 H 580.567 1.97824 0.77326 0
M  V30 5940 H 582.83 0.85826 0.402608 0
M  V30 5941 H 582.536 2.88749 2.00791 0
M  V30 5942 H 582.41 1.75244 3.3402 0
M  V30 5943 H 584.797 0.917564 2.80472 0
M  V30 5944 H 584.878 2.08691 1.47925 0
M  V30 5945 H 584.522 3.97907 3.15646 0
M  V30 5946 H 584.452 2.78014 4.47231 0
M  V30 5947 H 586.943 2.32643 2.97801 0
M  V30 5948 H 587.256 5.23468 5.68508 0
M  V30 5949 H 585.601 4.70257 5.11745 0
M  V30 5950 H 588.792 2.94765 3.63636 0
M  V30 5951 H 588.965 4.27366 4.87095 0
M  V30 5952 N 582.371 -1.3172 0.865308 0
M  V30 5953 C 583.62 -1.96145 0.470098 0
M  V30 5954 C 583.933 -1.69182 -0.981674 0
M  V30 5955 O 585.139 -2.27431 -1.48281 0
M  V30 5956 C 583.595 -3.51129 0.789732 0
M  V30 5957 C 583.203 -3.86938 2.25795 0
M  V30 5958 C 584.947 -4.2197 0.462765 0
M  V30 5959 C 582.854 -5.35012 2.52024 0
M  V30 5960 H 581.784 -0.734105 0.172065 0
M  V30 5961 H 584.435 -1.49959 1.05757 0
M  V30 5962 H 582.817 -3.95781 0.131571 0
M  V30 5963 H 583.991 -3.5326 2.95879 0
M  V30 5964 H 582.306 -3.29149 2.55049 0
M  V30 5965 H 584.903 -5.30904 0.636019 0
M  V30 5966 H 585.246 -4.12005 -0.59645 0
M  V30 5967 H 585.779 -3.82936 1.07727 0
M  V30 5968 H 582.518 -5.50008 3.56611 0
M  V30 5969 H 582.038 -5.70058 1.8653 0
M  V30 5970 H 583.717 -6.0222 2.36515 0
M  V30 5971 N 583.85 -0.624285 -1.44708 0
M  V30 5972 C 584.8 0.106466 -2.27751 0
M  V30 5973 C 585.784 0.822703 -1.38277 0
M  V30 5974 O 586.976 0.709939 -1.62138 0
M  V30 5975 C 584.105 1.092 -3.25469 0
M  V30 5976 C 583.191 0.375737 -4.22432 0
M  V30 5977 N 583.582 -0.591881 -5.02325 0
M  V30 5978 C 581.88 0.621093 -4.41654 0
M  V30 5979 C 582.581 -1.01443 -5.72786 0
M  V30 5980 N 581.557 -0.354651 -5.42442 0
M  V30 5981 H 585.359 -0.636464 -2.86926 0
M  V30 5982 H 582.873 -0.44925 -1.56062 0
M  V30 5983 H 584.87 1.63006 -3.83712 0
M  V30 5984 H 583.529 1.8353 -2.67856 0
M  V30 5985 H 584.541 -0.969389 -5.08747 0
M  V30 5986 H 581.218 1.34779 -3.95147 0
M  V30 5987 H 582.608 -1.81345 -6.46965 0
M  V30 5988 N 585.328 1.53329 -0.364422 0
M  V30 5989 C 586.744 1.59594 -0.0133165 0
M  V30 5990 C 586.944 1.37959 1.46865 0
M  V30 5991 O 586 1.18418 2.2301 0
M  V30 5992 C 587.313 2.97032 -0.468213 0
M  V30 5993 C 588.861 3.10138 -0.422334 0
M  V30 5994 C 589.336 4.49986 -0.853024 0
M  V30 5995 N 590.827 4.56098 -0.808037 0
M  V30 5996 C 591.562 5.62495 -1.11299 0
M  V30 5997 N 591.058 6.7665 -1.48717 0
M  V30 5998 N 592.851 5.52473 -1.03586 0
M  V30 5999 H 585.002 1.65644 -1.32951 0
M  V30 6000 H 587.265 0.77684 -0.543345 0
M  V30 6001 H 586.971 3.18 -1.5023 0
M  V30 6002 H 586.845 3.76918 0.145775 0
M  V30 6003 H 589.232 2.88881 0.602622 0
M  V30 6004 H 589.313 2.32263 -1.0718 0
M  V30 6005 H 588.957 4.7198 -1.87609 0
M  V30 6006 H 588.887 5.26289 -0.180819 0
M  V30 6007 H 591.378 3.74131 -0.532361 0
M  V30 6008 H 591.691 7.53776 -1.70415 0
M  V30 6009 H 590.036 6.78044 -1.52581 0
M  V30 6010 H 593.227 4.6217 -0.742736 0
M  V30 6011 H 593.4 6.35295 -1.27686 0
M  V30 6012 N 586.806 0.0935595 1.57322 0
M  V30 6013 C 588.052 -0.565234 1.95388 0
M  V30 6014 C 588.407 -1.65888 0.974632 0
M  V30 6015 O 587.7 -1.916 0.000376385 0
M  V30 6016 C 587.894 -1.16692 3.37813 0
M  V30 6017 C 587.723 -0.133091 4.49503 0
M  V30 6018 C 586.493 0.289884 5.04468 0
M  V30 6019 C 588.691 0.638141 5.10326 0
M  V30 6020 N 586.673 1.31214 5.99713 0
M  V30 6021 C 588.044 1.51227 6.01274 0
M  V30 6022 C 590.099 0.691827 4.9307 0
M  V30 6023 C 588.802 2.43536 6.76818 0
M  V30 6024 C 590.828 1.60251 5.69274 0
M  V30 6025 C 590.19 2.46427 6.59889 0
M  V30 6026 H 586.289 -0.177212 0.761656 0
M  V30 6027 H 588.873 0.175769 1.93905 0
M  V30 6028 H 587.044 -1.87775 3.39993 0
M  V30 6029 H 588.776 -1.78795 3.63063 0
M  V30 6030 H 585.531 -0.0975541 4.735 0
M  V30 6031 H 585.955 1.82143 6.52038 0
M  V30 6032 H 590.597 0.0397431 4.22781 0
M  V30 6033 H 588.315 3.0977 7.4637 0
M  V30 6034 H 591.901 1.64917 5.57937 0
M  V30 6035 H 590.781 3.15751 7.17824 0
M  V30 6036 N 588.284 -1.56567 -0.180126 0
M  V30 6037 C 589.512 -1.85618 -0.913972 0
M  V30 6038 C 589.927 -0.677892 -1.7621 0
M  V30 6039 O 589.284 0.353171 -1.7905 0
M  V30 6040 C 589.335 -3.13619 -1.79793 0
M  V30 6041 O 589.056 -4.26906 -0.98402 0
M  V30 6042 C 590.557 -3.55954 -2.64219 0
M  V30 6043 H 587.777 -0.616043 -0.265954 0
M  V30 6044 H 590.321 -2.03681 -0.182872 0
M  V30 6045 H 588.476 -2.97409 -2.48247 0
M  V30 6046 H 588.89 -4.9989 -1.58776 0
M  V30 6047 H 590.364 -4.48444 -3.21873 0
M  V30 6048 H 590.841 -2.79653 -3.38661 0
M  V30 6049 H 591.447 -3.74746 -2.01111 0
M  V30 6050 N 589.762 0.448376 -1.51087 0
M  V30 6051 C 591.011 1.19561 -1.62444 0
M  V30 6052 C 591.324 1.92602 -0.341151 0
M  V30 6053 O 592.53 2.69439 -0.333936 0
M  V30 6054 C 590.986 2.17373 -2.8684 0
M  V30 6055 C 590.594 1.5003 -4.22131 0
M  V30 6056 C 592.338 2.92597 -3.0755 0
M  V30 6057 C 590.245 2.46262 -5.37689 0
M  V30 6058 H 589.175 0.449975 -0.605011 0
M  V30 6059 H 591.826 0.463735 -1.77544 0
M  V30 6060 H 590.208 2.93948 -2.65349 0
M  V30 6061 H 591.382 0.790886 -4.53962 0
M  V30 6062 H 589.697 0.870011 -4.0721 0
M  V30 6063 H 592.294 3.64663 -3.91056 0
M  V30 6064 H 592.637 3.53306 -2.20183 0
M  V30 6065 H 593.17 2.23131 -3.29329 0
M  V30 6066 H 589.909 1.90258 -6.27281 0
M  V30 6067 H 589.429 3.15289 -5.10248 0
M  V30 6068 H 591.108 3.07623 -5.6919 0
M  V30 6069 N 591.24 1.41047 0.703093 0
M  V30 6070 C 592.17 1.45067 1.82969 0
M  V30 6071 C 593.151 0.31016 1.67248 0
M  V30 6072 O 594.336 0.520548 1.87093 0
M  V30 6073 C 591.466 1.32478 3.2104 0
M  V30 6074 C 590.42 2.44262 3.51454 0
M  V30 6075 C 589.746 2.16742 4.88801 0
M  V30 6076 C 591.046 3.86606 3.51189 0
M  V30 6077 H 592.74 2.39353 1.79863 0
M  V30 6078 H 590.286 1.15206 0.863919 0
M  V30 6079 H 592.239 1.33904 3.99559 0
M  V30 6080 H 590.963 0.346735 3.24754 0
M  V30 6081 H 589.622 2.42107 2.75282 0
M  V30 6082 H 589.27 1.17299 4.89132 0
M  V30 6083 H 588.97 2.91643 5.10116 0
M  V30 6084 H 590.494 2.19872 5.69639 0
M  V30 6085 H 591.908 3.90517 4.19725 0
M  V30 6086 H 590.305 4.61128 3.84033 0
M  V30 6087 H 591.375 4.15296 2.50315 0
M  V30 6088 N 592.718 -0.936591 1.26751 0
M  V30 6089 C 593.668 -2.0219 1.05371 0
M  V30 6090 C 594.652 -1.60893 -0.0154112 0
M  V30 6091 O 595.844 -1.75843 0.202085 0
M  V30 6092 C 592.973 -3.36222 0.693541 0
M  V30 6093 C 592.059 -3.8399 1.80035 0
M  V30 6094 N 592.45 -4.0436 3.03852 0
M  V30 6095 C 590.748 -4.12945 1.685 0
M  V30 6096 C 591.449 -4.44 3.75818 0
M  V30 6097 N 590.425 -4.50966 3.03531 0
M  V30 6098 H 594.227 -2.15958 1.99347 0
M  V30 6099 H 591.741 -1.12277 1.17335 0
M  V30 6100 H 593.738 -4.13625 0.521513 0
M  V30 6101 H 592.398 -3.23821 -0.238693 0
M  V30 6102 H 593.409 -3.9092 3.39709 0
M  V30 6103 H 590.086 -4.09308 0.822986 0
M  V30 6104 H 591.476 -4.67914 4.82189 0
M  V30 6105 N 594.196 -1.08629 -1.14182 0
M  V30 6106 C 595.426 -0.837673 -1.88856 0
M  V30 6107 C 595.834 0.614024 -1.78959 0
M  V30 6108 O 595.177 1.43384 -1.14833 0
M  V30 6109 C 595.239 -1.18355 -3.39459 0
M  V30 6110 C 594.903 -2.63848 -3.73139 0
M  V30 6111 C 595.9 -3.62099 -3.73069 0
M  V30 6112 C 593.585 -2.99761 -4.03049 0
M  V30 6113 C 595.579 -4.94292 -4.02435 0
M  V30 6114 C 593.266 -4.32147 -4.32078 0
M  V30 6115 C 594.264 -5.29223 -4.31755 0
M  V30 6116 O 593.952 -6.59229 -4.60079 0
M  V30 6117 H 593.684 -0.301609 -0.604986 0
M  V30 6118 H 596.238 -1.44961 -1.45518 0
M  V30 6119 H 594.468 -0.514628 -3.8326 0
M  V30 6120 H 596.157 -0.915391 -3.95443 0
M  V30 6121 H 596.923 -3.35698 -3.50046 0
M  V30 6122 H 592.802 -2.2484 -4.02453 0
M  V30 6123 H 596.346 -5.70055 -4.02098 0
M  V30 6124 H 592.243 -4.58296 -4.54571 0
M  V30 6125 H 593.011 -6.64578 -4.77785 0
M  V30 6126 N 595.674 1.31259 -0.872281 0
M  V30 6127 C 596.899 2.0133 -0.498099 0
M  V30 6128 C 597.324 1.65031 0.902568 0
M  V30 6129 O 596.682 0.860164 1.59596 0
M  V30 6130 C 596.73 3.54411 -0.665205 0
M  V30 6131 O 595.834 4.11347 0.294473 0
M  V30 6132 H 595.175 0.633844 -0.197832 0
M  V30 6133 H 597.705 1.67402 -1.17633 0
M  V30 6134 H 597.715 4.04147 -0.559373 0
M  V30 6135 H 596.39 3.80171 -1.68651 0
M  V30 6136 H 594.967 3.72624 0.143403 0
M  V30 6137 N 597.152 0.631951 1.44375 0
M  V30 6138 C 598.563 0.219036 1.85411 0
M  V30 6139 C 598.914 -1.22974 1.52879 0
M  V30 6140 O 598.039 -1.93579 0.967266 0
M  V30 6141 C 598.634 0.39075 3.36539 0
M  V30 6142 C 597.193 0.0323351 3.76386 0
M  V30 6143 C 596.34 0.703744 2.68221 0
M  V30 6144 H 599.291 0.837056 1.3483 0
M  V30 6145 H 599.312 -0.370056 3.78696 0
M  V30 6146 H 598.824 1.44527 3.60185 0
M  V30 6147 H 596.925 -1.02042 3.58355 0
M  V30 6148 H 597.038 0.442969 4.77048 0
M  V30 6149 H 595.402 0.138974 2.54321 0
M  V30 6150 H 596.185 1.76088 2.947 0
M  V30 6151 N 598.631 -1.53133 0.372548 0
M  V30 6152 C 599.878 -2.01356 -0.214959 0
M  V30 6153 C 600.206 -1.2596 -1.48204 0
M  V30 6154 O 599.461 -0.343511 -1.92662 0
M  V30 6155 C 599.76 -3.53206 -0.545938 0
M  V30 6156 C 599.426 -4.46511 0.627624 0
M  V30 6157 C 598.088 -4.71737 0.949615 0
M  V30 6158 C 600.44 -5.01666 1.41353 0
M  V30 6159 C 597.768 -5.4937 2.05936 0
M  V30 6160 C 600.12 -5.80511 2.51375 0
M  V30 6161 C 598.784 -6.04022 2.84101 0
M  V30 6162 H 598.054 -0.736813 -0.078659 0
M  V30 6163 H 600.701 -1.84682 0.506447 0
M  V30 6164 H 599.006 -3.67864 -1.34845 0
M  V30 6165 H 600.703 -3.87997 -1.01287 0
M  V30 6166 H 597.293 -4.27029 0.366635 0
M  V30 6167 H 601.477 -4.82117 1.17802 0
M  V30 6168 H 596.733 -5.65803 2.31682 0
M  V30 6169 H 600.907 -6.22255 3.12684 0
M  V30 6170 H 598.534 -6.63962 3.70214 0
M  V30 6171 N 600.109 -0.101901 -1.5727 0
M  V30 6172 C 601.056 0.854577 -2.14396 0
M  V30 6173 C 602.026 1.27521 -1.06432 0
M  V30 6174 O 603.211 1.35575 -1.34253 0
M  V30 6175 C 600.351 2.10576 -2.73408 0
M  V30 6176 C 599.464 1.73504 -3.95626 0
M  V30 6177 C 598.599 2.9346 -4.42781 0
M  V30 6178 C 597.638 2.52547 -5.57572 0
M  V30 6179 N 596.775 3.65359 -5.99547 0
M  V30 6180 H 601.615 0.360578 -2.9581 0
M  V30 6181 H 599.152 0.166303 -1.46157 0
M  V30 6182 H 601.11 2.83859 -3.05745 0
M  V30 6183 H 599.74 2.57463 -1.94711 0
M  V30 6184 H 598.792 0.901622 -3.6956 0
M  V30 6185 H 600.104 1.39426 -4.78917 0
M  V30 6186 H 599.258 3.74988 -4.76937 0
M  V30 6187 H 597.997 3.30753 -3.58404 0
M  V30 6188 H 597.002 1.69446 -5.23037 0
M  V30 6189 H 598.227 2.1639 -6.43702 0
M  V30 6190 H 596.173 4.02358 -5.18116 0
M  V30 6191 H 596.09 3.35148 -6.77652 0
M  V30 6192 H 597.358 4.47378 -6.38336 0
M  V30 6193 N 601.587 1.56661 0.17182 0
M  V30 6194 C 602.55 1.9549 1.19651 0
M  V30 6195 C 603.55 0.838501 1.37207 0
M  V30 6196 O 604.74 1.10556 1.34622 0
M  V30 6197 C 601.872 2.24927 2.56166 0
M  V30 6198 H 603.065 2.87184 0.864007 0
M  V30 6199 H 600.618 1.50711 0.41425 0
M  V30 6200 H 601.353 1.35944 2.94431 0
M  V30 6201 H 601.138 3.06301 2.4479 0
M  V30 6202 H 602.628 2.55891 3.30014 0
M  V30 6203 N 603.065 -0.440357 1.51323 0
M  V30 6204 C 604.311 -1.19181 1.64085 0
M  V30 6205 C 604.644 -1.90936 0.354575 0
M  V30 6206 O 603.919 -1.8347 -0.645675 0
M  V30 6207 C 604.202 -2.2112 2.84215 0
M  V30 6208 C 604.055 -1.53468 4.22809 0
M  V30 6209 C 605.374 -3.22133 2.99864 0
M  V30 6210 H 602.493 -0.431924 0.597169 0
M  V30 6211 H 605.135 -0.481443 1.83799 0
M  V30 6212 H 603.285 -2.81703 2.67537 0
M  V30 6213 H 604.957 -0.962455 4.51148 0
M  V30 6214 H 603.2 -0.837086 4.25647 0
M  V30 6215 H 603.871 -2.27694 5.02852 0
M  V30 6216 H 606.347 -2.71601 3.15233 0
M  V30 6217 H 605.223 -3.90756 3.85488 0
M  V30 6218 H 605.484 -3.88061 2.11804 0
M  V30 6219 N 604.543 -1.41418 -0.695603 0
M  V30 6220 C 605.789 -1.41983 -1.45645 0
M  V30 6221 C 606.144 -0.0282216 -1.92379 0
M  V30 6222 O 605.437 0.945916 -1.66622 0
M  V30 6223 C 605.631 -2.36112 -2.68302 0
M  V30 6224 C 605.46 -3.84288 -2.33566 0
M  V30 6225 C 604.23 -4.52971 -2.23932 0
M  V30 6226 C 606.428 -4.75264 -1.96543 0
M  V30 6227 N 604.41 -5.86276 -1.82081 0
M  V30 6228 C 605.781 -5.97517 -1.6545 0
M  V30 6229 C 607.836 -4.62911 -1.83352 0
M  V30 6230 C 606.539 -7.08793 -1.22492 0
M  V30 6231 C 608.565 -5.74149 -1.41799 0
M  V30 6232 C 607.927 -6.95501 -1.11617 0
M  V30 6233 H 604.026 -0.574771 -0.530247 0
M  V30 6234 H 606.61 -1.77289 -0.804788 0
M  V30 6235 H 604.781 -2.02902 -3.31188 0
M  V30 6236 H 606.513 -2.27397 -3.34773 0
M  V30 6237 H 603.268 -4.06909 -2.42327 0
M  V30 6238 H 603.692 -6.56926 -1.63638 0
M  V30 6239 H 608.334 -3.69588 -2.05341 0
M  V30 6240 H 606.052 -8.01982 -0.992482 0
M  V30 6241 H 609.638 -5.66595 -1.32143 0
M  V30 6242 H 608.518 -7.80114 -0.799493 0
M  V30 6243 N 606.021 0.929856 -1.27246 0
M  V30 6244 C 607.298 1.65544 -1.04186 0
M  V30 6245 C 607.678 2.06796 0.424097 0
M  V30 6246 O 607.026 1.80053 1.40688 0
M  V30 6247 C 607.236 2.85912 -2.00138 0
M  V30 6248 C 608.584 3.57305 -2.29387 0
M  V30 6249 O 609.608 2.96036 -1.98094 0
M  V30 6250 O 608.467 4.67688 -2.82719 0
M  V30 6251 H 605.561 0.725473 -0.397011 0
M  V30 6252 H 608.107 0.980583 -1.38501 0
M  V30 6253 H 606.879 2.52403 -2.99013 0
M  V30 6254 H 606.502 3.61118 -1.66371 0
M  V30 6255 N 607.499 1.09233 1.13605 0
M  V30 6256 C 608.745 0.838255 1.85324 0
M  V30 6257 C 609.1 -0.629314 1.81817 0
M  V30 6258 O 608.393 -1.45729 1.24393 0
M  V30 6259 C 608.587 1.305 3.32723 0
M  V30 6260 C 608.416 2.81641 3.50583 0
M  V30 6261 C 607.186 3.49494 3.64941 0
M  V30 6262 C 609.384 3.79789 3.46792 0
M  V30 6263 N 607.366 4.89082 3.71042 0
M  V30 6264 C 608.737 5.05319 3.59239 0
M  V30 6265 C 610.792 3.72673 3.30181 0
M  V30 6266 C 609.495 6.24574 3.56791 0
M  V30 6267 C 611.521 4.91413 3.29039 0
M  V30 6268 C 610.883 6.15785 3.42035 0
M  V30 6269 H 606.982 0.359572 0.69443 0
M  V30 6270 H 609.566 1.39232 1.36098 0
M  V30 6271 H 607.737 0.778411 3.8052 0
M  V30 6272 H 609.469 0.996465 3.92241 0
M  V30 6273 H 606.224 2.9992 3.66531 0
M  V30 6274 H 606.648 5.61787 3.77789 0
M  V30 6275 H 611.29 2.77444 3.19037 0
M  V30 6276 H 609.008 7.20105 3.66708 0
M  V30 6277 H 612.594 4.87604 3.17386 0
M  V30 6278 H 611.474 7.06126 3.41111 0
M  V30 6279 N 608.977 -1.30795 0.87923 0
M  V30 6280 C 609.907 -2.30742 0.357796 0
M  V30 6281 C 610.888 -1.60747 -0.556283 0
M  V30 6282 O 612.073 -1.88393 -0.47135 0
M  V30 6283 C 609.203 -3.44583 -0.433555 0
M  V30 6284 C 608.157 -4.26235 0.388251 0
M  V30 6285 C 607.483 -5.32073 -0.529352 0
M  V30 6286 C 608.783 -4.96303 1.62729 0
M  V30 6287 H 610.477 -2.74605 1.19299 0
M  V30 6288 H 608.023 -1.32017 0.575104 0
M  V30 6289 H 609.976 -4.13563 -0.808934 0
M  V30 6290 H 608.7 -2.99511 -1.30234 0
M  V30 6291 H 607.359 -3.58936 0.745695 0
M  V30 6292 H 607.007 -4.83249 -1.39569 0
M  V30 6293 H 606.707 -5.87598 0.0166741 0
M  V30 6294 H 608.231 -6.0391 -0.901373 0
M  V30 6295 H 609.645 -5.5783 1.32283 0
M  V30 6296 H 608.042 -5.61666 2.11309 0
M  V30 6297 H 609.112 -4.22758 2.37494 0
M  V30 6298 N 610.455 -0.639598 -1.44038 0
M  V30 6299 C 611.704 -0.144885 -2.01179 0
M  V30 6300 C 612.017 1.24372 -1.50967 0
M  V30 6301 O 613.223 1.83291 -2.00292 0
M  V30 6302 C 611.679 -0.208244 -3.59297 0
M  V30 6303 C 611.287 -1.59869 -4.18504 0
M  V30 6304 C 613.031 0.229568 -4.23879 0
M  V30 6305 C 610.938 -1.61671 -5.68873 0
M  V30 6306 H 609.868 -0.0504005 -0.752314 0
M  V30 6307 H 612.519 -0.799639 -1.65161 0
M  V30 6308 H 610.901 0.513767 -3.92653 0
M  V30 6309 H 612.075 -2.34496 -3.96671 0
M  V30 6310 H 610.39 -1.98131 -3.66242 0
M  V30 6311 H 612.987 0.235758 -5.3418 0
M  V30 6312 H 613.33 1.25848 -3.96822 0
M  V30 6313 H 613.863 -0.440233 -3.95357 0
M  V30 6314 H 610.602 -2.62427 -6.00677 0
M  V30 6315 H 610.122 -0.913489 -5.92803 0
M  V30 6316 H 611.801 -1.35439 -6.32665 0
M  V30 6317 N 611.933 1.52934 -0.380664 0
M  V30 6318 C 612.863 2.29118 0.450268 0
M  V30 6319 C 613.844 1.32153 1.07096 0
M  V30 6320 O 615.029 1.61038 1.08537 0
M  V30 6321 C 612.159 3.09161 1.58231 0
M  V30 6322 C 611.113 4.13938 1.0881 0
M  V30 6323 C 610.439 4.82153 2.31155 0
M  V30 6324 C 611.739 5.22048 0.162146 0
M  V30 6325 H 613.433 2.98826 -0.185361 0
M  V30 6326 H 610.979 1.43715 -0.0905886 0
M  V30 6327 H 612.932 3.61211 2.17036 0
M  V30 6328 H 611.656 2.3717 2.2454 0
M  V30 6329 H 610.315 3.62855 0.522633 0
M  V30 6330 H 609.963 4.06719 2.95953 0
M  V30 6331 H 609.663 5.52966 1.98752 0
M  V30 6332 H 611.187 5.37004 2.90618 0
M  V30 6333 H 612.601 5.6951 0.658126 0
M  V30 6334 H 610.998 6.00057 -0.0717122 0
M  V30 6335 H 612.068 4.78398 -0.791438 0
M  V30 6336 N 613.412 0.11024 1.57214 0
M  V30 6337 C 614.342 -0.840002 2.17867 0
M  V30 6338 C 615.323 -1.28352 1.11624 0
M  V30 6339 O 616.508 -1.3477 1.39824 0
M  V30 6340 C 613.638 -2.09349 2.77111 0
M  V30 6341 C 612.592 -1.78807 3.8886 0
M  V30 6342 C 611.918 -3.11112 4.34872 0
M  V30 6343 C 613.218 -1.0632 5.11364 0
M  V30 6344 H 614.912 -0.334608 2.97524 0
M  V30 6345 H 612.458 -0.159502 1.43114 0
M  V30 6346 H 614.411 -2.76275 3.18198 0
M  V30 6347 H 613.135 -2.62198 1.9473 0
M  V30 6348 H 611.794 -1.14273 3.48335 0
M  V30 6349 H 611.442 -3.61877 3.49362 0
M  V30 6350 H 611.142 -2.91453 5.10224 0
M  V30 6351 H 612.666 -3.79171 4.78604 0
M  V30 6352 H 614.08 -1.63383 5.49526 0
M  V30 6353 H 612.477 -0.967876 5.92243 0
M  V30 6354 H 613.547 -0.0484569 4.84876 0
M  V30 6355 N 614.89 -1.56749 -0.16351 0
M  V30 6356 C 615.82 -2.00042 -1.20438 0
M  V30 6357 C 616.801 -0.877256 -1.45733 0
M  V30 6358 O 617.986 -1.1439 -1.56935 0
M  V30 6359 C 615.116 -2.36697 -2.54149 0
M  V30 6360 C 614.07 -3.52046 -2.43408 0
M  V30 6361 C 613.396 -3.74466 -3.81679 0
M  V30 6362 C 614.696 -4.85247 -1.93216 0
M  V30 6363 H 616.39 -2.87244 -0.844477 0
M  V30 6364 H 613.936 -1.38194 -0.40478 0
M  V30 6365 H 615.889 -2.65582 -3.27176 0
M  V30 6366 H 614.613 -1.46414 -2.91943 0
M  V30 6367 H 613.272 -3.23301 -1.72834 0
M  V30 6368 H 612.92 -2.81461 -4.1688 0
M  V30 6369 H 612.62 -4.52084 -3.75359 0
M  V30 6370 H 614.144 -4.0576 -4.5628 0
M  V30 6371 H 615.558 -5.12957 -2.56023 0
M  V30 6372 H 613.955 -5.66556 -1.97825 0
M  V30 6373 H 615.025 -4.7672 -0.88689 0
M  V30 6374 N 616.368 0.432326 -1.51554 0
M  V30 6375 C 617.614 1.18309 -1.64714 0
M  V30 6376 C 617.947 1.90745 -0.364696 0
M  V30 6377 O 617.222 1.8381 0.635936 0
M  V30 6378 C 617.505 2.1961 -2.85383 0
M  V30 6379 C 617.358 1.51223 -4.23617 0
M  V30 6380 C 618.677 3.20538 -3.01569 0
M  V30 6381 H 615.796 0.428751 -0.599451 0
M  V30 6382 H 618.438 0.471689 -1.84052 0
M  V30 6383 H 616.588 2.8028 -2.69027 0
M  V30 6384 H 618.26 0.938516 -4.51652 0
M  V30 6385 H 616.503 0.814501 -4.26085 0
M  V30 6386 H 617.174 2.25024 -5.04052 0
M  V30 6387 H 619.65 2.69926 -3.16669 0
M  V30 6388 H 618.526 3.88706 -3.87555 0
M  V30 6389 H 618.787 3.86933 -2.13859 0
M  V30 6390 N 617.846 1.41785 0.688094 0
M  V30 6391 C 619.095 1.4084 1.44385 0
M  V30 6392 C 619.408 0.0234166 1.95586 0
M  V30 6393 O 620.614 -0.108647 2.71283 0
M  V30 6394 C 619.07 2.47675 2.61123 0
M  V30 6395 C 618.678 3.92116 2.16677 0
M  V30 6396 C 620.422 2.55877 3.38714 0
M  V30 6397 C 618.329 4.90487 3.30419 0
M  V30 6398 H 617.259 0.523787 0.542368 0
M  V30 6399 H 619.91 1.6764 0.74627 0
M  V30 6400 H 618.292 2.14018 3.33185 0
M  V30 6401 H 619.466 4.35059 1.51856 0
M  V30 6402 H 617.781 3.87642 1.5206 0
M  V30 6403 H 620.378 3.26553 4.234 0
M  V30 6404 H 620.721 1.59801 3.84408 0
M  V30 6405 H 621.254 2.88662 2.73714 0
M  V30 6406 H 617.993 5.87994 2.89729 0
M  V30 6407 H 617.513 4.52187 3.94065 0
M  V30 6408 H 619.192 5.11591 3.96085 0
M  V30 6409 N 619.324 -0.923095 1.27737 0
M  V30 6410 C 620.554 -1.70277 1.17001 0
M  V30 6411 C 620.962 -1.87188 -0.275199 0
M  V30 6412 O 620.305 -1.39195 -1.19877 0
M  V30 6413 C 620.367 -3.11976 1.78637 0
M  V30 6414 C 620.031 -3.18386 3.27841 0
M  V30 6415 C 621.028 -3.00287 4.2441 0
M  V30 6416 C 618.713 -3.41198 3.68632 0
M  V30 6417 C 620.707 -3.04896 5.59747 0
M  V30 6418 C 618.394 -3.4544 5.04097 0
M  V30 6419 C 619.392 -3.27309 5.99465 0
M  V30 6420 O 619.08 -3.31295 7.32461 0
M  V30 6421 H 618.812 -0.539366 0.407505 0
M  V30 6422 H 621.366 -1.16446 1.69202 0
M  V30 6423 H 619.596 -3.67308 1.20919 0
M  V30 6424 H 621.285 -3.7193 1.6255 0
M  V30 6425 H 622.051 -2.825 3.94232 0
M  V30 6426 H 617.93 -3.54359 2.94873 0
M  V30 6427 H 621.474 -2.90662 6.34162 0
M  V30 6428 H 617.371 -3.62753 5.33929 0
M  V30 6429 H 618.139 -3.47719 7.40968 0
M  V30 6430 N 620.802 -1.09834 -1.13024 0
M  V30 6431 C 622.03 -0.858902 -1.8823 0
M  V30 6432 C 622.445 0.590164 -1.79339 0
M  V30 6433 O 621.802 1.4065 -1.16292 0
M  V30 6434 C 621.853 -1.29066 -3.37675 0
M  V30 6435 O 621.574 -2.6829 -3.46341 0
M  V30 6436 C 623.075 -1.08421 -4.29837 0
M  V30 6437 H 620.295 -0.308713 -0.595766 0
M  V30 6438 H 622.839 -1.4614 -1.4305 0
M  V30 6439 H 620.994 -0.731961 -3.80422 0
M  V30 6440 H 621.408 -2.86598 -4.39274 0
M  V30 6441 H 622.882 -1.43553 -5.33007 0
M  V30 6442 H 623.359 -0.0223315 -4.39194 0
M  V30 6443 H 623.965 -1.62907 -3.92863 0
M  V30 6444 N 622.28 1.30327 -0.886154 0
M  V30 6445 C 623.243 2.26376 -0.358687 0
M  V30 6446 C 624.243 1.52845 0.499498 0
M  V30 6447 O 625.433 1.71483 0.306485 0
M  V30 6448 C 622.565 3.37379 0.488726 0
M  V30 6449 H 623.758 2.74547 -1.20681 0
M  V30 6450 H 621.311 1.41536 -0.663113 0
M  V30 6451 H 622.046 2.94526 1.35739 0
M  V30 6452 H 621.831 3.91897 -0.126003 0
M  V30 6453 H 623.321 4.08868 0.84952 0
M  V30 6454 N 623.758 0.647228 1.43697 0
M  V30 6455 C 625.004 0.158422 2.0218 0
M  V30 6456 C 625.337 -1.22233 1.50907 0
M  V30 6457 O 624.612 -1.81478 0.699702 0
M  V30 6458 C 624.895 0.1627 3.59732 0
M  V30 6459 C 624.748 1.57694 4.21251 0
M  V30 6460 C 626.067 -0.504138 4.37203 0
M  V30 6461 H 623.186 0.059042 0.734631 0
M  V30 6462 H 625.828 0.826772 1.71069 0
M  V30 6463 H 623.978 -0.406414 3.86368 0
M  V30 6464 H 625.65 2.19618 4.05667 0
M  V30 6465 H 623.893 2.12603 3.7813 0
M  V30 6466 H 624.564 1.53183 5.3032 0
M  V30 6467 H 627.04 -0.0199841 4.16095 0
M  V30 6468 H 625.916 -0.470394 5.46881 0
M  V30 6469 H 626.177 -1.57726 4.13007 0
M  V30 6470 N 625.236 -1.5273 0.388769 0
M  V30 6471 C 626.483 -2.01573 -0.19359 0
M  V30 6472 C 626.811 -1.27525 -1.46859 0
M  V30 6473 O 626.066 -0.363926 -1.92286 0
M  V30 6474 C 626.365 -3.53765 -0.508445 0
M  V30 6475 C 626.031 -4.4582 0.674947 0
M  V30 6476 C 624.693 -4.70703 0.999596 0
M  V30 6477 C 627.045 -5.00138 1.46666 0
M  V30 6478 C 624.373 -5.47155 2.11751 0
M  V30 6479 C 626.725 -5.77812 2.57518 0
M  V30 6480 C 625.389 -6.00975 2.90492 0
M  V30 6481 H 624.659 -0.737606 -0.0708397 0
M  V30 6482 H 627.306 -1.84134 0.526006 0
M  V30 6483 H 625.611 -3.69274 -1.30936 0
M  V30 6484 H 627.308 -3.8905 -0.971664 0
M  V30 6485 H 623.898 -4.26616 0.411906 0
M  V30 6486 H 628.082 -4.8084 1.22909 0
M  V30 6487 H 623.338 -5.63314 2.3767 0
M  V30 6488 H 627.512 -6.18904 3.19267 0
M  V30 6489 H 625.139 -6.59998 3.77236 0
M  V30 6490 N 626.714 -0.118576 -1.57153 0
M  V30 6491 C 627.942 0.54726 -1.99531 0
M  V30 6492 C 628.357 1.60251 -0.998246 0
M  V30 6493 O 627.714 1.82498 0.00893106 0
M  V30 6494 C 627.765 1.17378 -3.41913 0
M  V30 6495 O 627.486 0.160703 -4.37805 0
M  V30 6496 C 628.987 1.92297 -3.9942 0
M  V30 6497 H 626.207 0.144919 -0.655164 0
M  V30 6498 H 628.751 -0.20479 -2.03472 0
M  V30 6499 H 626.906 1.87661 -3.38913 0
M  V30 6500 H 627.32 0.61586 -5.20872 0
M  V30 6501 H 628.794 2.31462 -5.01128 0
M  V30 6502 H 629.271 2.79801 -3.38538 0
M  V30 6503 H 629.877 1.26777 -4.05965 0
M  V30 6504 N 628.193 1.56834 0.155195 0
M  V30 6505 C 629.604 1.72421 0.716082 0
M  V30 6506 C 629.955 0.731685 1.82046 0
M  V30 6507 O 629.08 -0.103481 2.16152 0
M  V30 6508 C 629.675 3.12629 1.30571 0
M  V30 6509 C 628.234 3.29846 1.81325 0
M  V30 6510 C 627.381 2.68359 0.698494 0
M  V30 6511 H 630.332 1.58544 -0.0703861 0
M  V30 6512 H 630.353 3.12174 2.1755 0
M  V30 6513 H 629.865 3.84844 0.501701 0
M  V30 6514 H 627.966 2.62614 2.64319 0
M  V30 6515 H 628.079 4.37727 1.9476 0
M  V30 6516 H 626.443 2.28604 1.12305 0
M  V30 6517 H 627.226 3.43171 -0.0939366 0
M  V30 6518 N 629.671 -0.424282 1.51781 0
M  V30 6519 C 630.901 -1.19297 1.68677 0
M  V30 6520 C 631.309 -1.85152 0.389258 0
M  V30 6521 O 630.652 -1.72067 -0.643311 0
M  V30 6522 C 630.714 -2.30929 2.75521 0
M  V30 6523 C 630.378 -1.85335 4.17732 0
M  V30 6524 C 631.375 -1.34951 5.0208 0
M  V30 6525 C 629.06 -1.92629 4.63896 0
M  V30 6526 C 631.054 -0.924636 6.30658 0
M  V30 6527 C 628.741 -1.49754 5.92467 0
M  V30 6528 C 629.739 -0.997543 6.75676 0
M  V30 6529 O 629.427 -0.57492 8.01842 0
M  V30 6530 H 629.159 -0.36512 0.568914 0
M  V30 6531 H 631.713 -0.507327 1.99036 0
M  V30 6532 H 629.943 -3.02811 2.40505 0
M  V30 6533 H 631.632 -2.92748 2.81165 0
M  V30 6534 H 632.398 -1.287 4.67612 0
M  V30 6535 H 628.277 -2.30491 3.99243 0
M  V30 6536 H 631.821 -0.533682 6.95556 0
M  V30 6537 H 627.718 -1.55679 6.26446 0
M  V30 6538 H 628.486 -0.699597 8.15505 0
M  V30 6539 N 631.149 -1.42148 -0.680565 0
M  V30 6540 C 632.374 -1.45901 -1.47403 0
M  V30 6541 C 632.799 -0.0700985 -1.87969 0
M  V30 6542 O 632.157 0.930145 -1.55621 0
M  V30 6543 C 632.205 -2.38661 -2.70321 0
M  V30 6544 O 631.309 -1.85399 -3.68376 0
M  V30 6545 H 630.65 -0.494565 -0.443059 0
M  V30 6546 H 633.18 -1.86774 -0.835251 0
M  V30 6547 H 633.19 -2.55046 -3.18458 0
M  V30 6548 H 631.865 -3.39571 -2.40134 0
M  V30 6549 H 630.442 -1.78541 -3.2738 0
M  V30 6550 N 632.627 0.916307 -1.28225 0
M  V30 6551 C 633.59 1.99996 -1.11957 0
M  V30 6552 C 634.59 1.60688 -0.0600152 0
M  V30 6553 O 635.78 1.71499 -0.30558 0
M  V30 6554 C 632.912 3.33458 -0.708411 0
M  V30 6555 H 634.105 2.15858 -2.08196 0
M  V30 6556 H 631.658 1.09863 -1.11175 0
M  V30 6557 H 632.393 3.23297 0.254859 0
M  V30 6558 H 632.178 3.63349 -1.47377 0
M  V30 6559 H 633.668 4.13014 -0.617164 0
M  V30 6560 N 634.105 1.10431 1.1244 0
M  V30 6561 C 635.068 0.756542 2.16354 0
M  V30 6562 C 636.068 -0.21899 1.59302 0
M  V30 6563 O 637.258 0.00415969 1.742 0
M  V30 6564 C 634.39 0.120612 3.40687 0
M  V30 6565 H 635.583 1.67696 2.48632 0
M  V30 6566 H 633.136 0.904832 1.27446 0
M  V30 6567 H 633.871 -0.810536 3.14008 0
M  V30 6568 H 633.656 0.822693 3.83372 0
M  V30 6569 H 635.146 -0.106945 4.17463 0
M  V30 6570 N 635.583 -1.29855 0.893053 0
M  V30 6571 C 636.83 -1.95826 0.515585 0
M  V30 6572 C 637.158 -1.70451 -0.936842 0
M  V30 6573 O 636.413 -1.00657 -1.67829 0
M  V30 6574 C 636.712 -3.49515 0.746588 0
M  V30 6575 C 636.378 -3.94955 2.17535 0
M  V30 6576 C 635.04 -4.07073 2.56603 0
M  V30 6577 C 637.392 -4.18536 3.10607 0
M  V30 6578 C 634.72 -4.40138 3.87938 0
M  V30 6579 C 637.072 -4.53073 4.41484 0
M  V30 6580 C 635.736 -4.634 4.80434 0
M  V30 6581 H 635.006 -0.71658 0.188666 0
M  V30 6582 H 637.653 -1.54574 1.13045 0
M  V30 6583 H 635.958 -3.9177 0.0487551 0
M  V30 6584 H 637.655 -3.98644 0.434009 0
M  V30 6585 H 634.245 -3.86035 1.86212 0
M  V30 6586 H 638.429 -4.08646 2.81641 0
M  V30 6587 H 633.685 -4.46335 4.17846 0
M  V30 6588 H 637.859 -4.70269 5.13634 0
M  V30 6589 H 635.486 -4.88775 5.82239 0
M  V30 6590 N 637.061 -0.65484 -1.43351 0
M  V30 6591 C 637.991 0.0221809 -2.33489 0
M  V30 6592 C 638.972 0.810272 -1.49561 0
M  V30 6593 O 640.157 0.771426 -1.78221 0
M  V30 6594 C 637.287 0.988117 -3.32947 0
M  V30 6595 C 636.241 0.310026 -4.26876 0
M  V30 6596 C 635.567 1.38752 -5.16384 0
M  V30 6597 C 636.867 -0.798589 -5.16159 0
M  V30 6598 H 638.561 -0.730571 -2.9035 0
M  V30 6599 H 636.107 -0.352773 -1.39612 0
M  V30 6600 H 638.06 1.47067 -3.94904 0
M  V30 6601 H 636.784 1.77205 -2.74346 0
M  V30 6602 H 635.443 -0.152097 -3.66284 0
M  V30 6603 H 635.091 2.16293 -4.54121 0
M  V30 6604 H 634.791 0.939051 -5.80048 0
M  V30 6605 H 636.315 1.87141 -5.81215 0
M  V30 6606 H 637.729 -0.398126 -5.71916 0
M  V30 6607 H 636.126 -1.17163 -5.88552 0
M  V30 6608 H 637.196 -1.65588 -4.55751 0
M  V30 6609 N 638.539 1.52521 -0.396863 0
M  V30 6610 C 639.469 2.29582 0.425941 0
M  V30 6611 C 640.45 1.33281 1.05689 0
M  V30 6612 O 641.635 1.62181 1.06823 0
M  V30 6613 C 638.765 3.10821 1.54943 0
M  V30 6614 C 637.719 4.15069 1.04413 0
M  V30 6615 C 637.045 4.84578 2.26028 0
M  V30 6616 C 638.345 5.22191 0.106767 0
M  V30 6617 H 640.039 2.98612 -0.217045 0
M  V30 6618 H 637.585 1.43611 -0.105826 0
M  V30 6619 H 639.538 3.63492 2.13193 0
M  V30 6620 H 638.262 2.39538 2.22011 0
M  V30 6621 H 636.921 3.63389 0.484118 0
M  V30 6622 H 636.569 4.09835 2.91623 0
M  V30 6623 H 636.269 5.55043 1.92876 0
M  V30 6624 H 637.793 5.40056 2.84906 0
M  V30 6625 H 639.207 5.70176 0.597685 0
M  V30 6626 H 637.604 5.99947 -0.135352 0
M  V30 6627 H 638.674 4.77531 -0.842134 0
M  V30 6628 N 640.017 0.126909 1.57088 0
M  V30 6629 C 640.964 -0.82036 2.15728 0
M  V30 6630 C 641.934 -1.25811 1.08447 0
M  V30 6631 O 643.119 -1.33422 1.36393 0
M  V30 6632 C 640.259 -2.06199 2.76724 0
M  V30 6633 C 639.372 -1.67188 3.98337 0
M  V30 6634 C 638.507 -2.86378 4.47393 0
M  V30 6635 C 637.546 -2.43644 5.61519 0
M  V30 6636 N 636.683 -3.55775 6.05284 0
M  V30 6637 H 641.523 -0.313472 2.96347 0
M  V30 6638 H 639.06 -0.14303 1.46403 0
M  V30 6639 H 641.018 -2.78959 3.10222 0
M  V30 6640 H 639.648 -2.54333 1.98782 0
M  V30 6641 H 638.7 -0.842714 3.70948 0
M  V30 6642 H 640.012 -1.31789 4.81075 0
M  V30 6643 H 639.166 -3.67353 4.82842 0
M  V30 6644 H 637.905 -3.25009 3.63621 0
M  V30 6645 H 636.91 -1.61104 5.25667 0
M  V30 6646 H 638.135 -2.06122 6.47063 0
M  V30 6647 H 636.081 -3.94065 5.24451 0
M  V30 6648 H 635.998 -3.24325 6.82898 0
M  V30 6649 H 637.266 -4.37166 6.45373 0
M  V30 6650 N 641.495 -1.56914 -0.146875 0
M  V30 6651 C 642.405 -2.0154 -1.20079 0
M  V30 6652 C 643.421 -0.930838 -1.47008 0
M  V30 6653 O 644.597 -1.24032 -1.58676 0
M  V30 6654 C 641.662 -2.38715 -2.51428 0
M  V30 6655 C 640.723 -3.6112 -2.32145 0
M  V30 6656 C 639.956 -3.96512 -3.57231 0
M  V30 6657 O 640.179 -3.32566 -4.63418 0
M  V30 6658 O 639.113 -4.89758 -3.49887 0
M  V30 6659 H 642.939 -2.91506 -0.851924 0
M  V30 6660 H 640.524 -1.45106 -0.355607 0
M  V30 6661 H 642.406 -2.63485 -3.28867 0
M  V30 6662 H 641.081 -1.51903 -2.85845 0
M  V30 6663 H 639.988 -3.41536 -1.52656 0
M  V30 6664 H 641.321 -4.48549 -2.02644 0
M  V30 6665 N 642.974 0.416227 -1.52004 0
M  V30 6666 C 644.202 1.18573 -1.69553 0
M  V30 6667 C 644.617 1.84472 -0.401919 0
M  V30 6668 O 643.974 1.71593 0.621463 0
M  V30 6669 C 644.025 2.25413 -2.82615 0
M  V30 6670 O 643.746 1.62205 -4.06966 0
M  V30 6671 C 645.247 3.15297 -3.11613 0
M  V30 6672 H 642.467 0.356582 -0.56841 0
M  V30 6673 H 645.011 0.490618 -1.98528 0
M  V30 6674 H 643.166 2.90604 -2.56179 0
M  V30 6675 H 643.58 2.3298 -4.69916 0
M  V30 6676 H 645.054 3.86351 -3.94255 0
M  V30 6677 H 645.531 3.77264 -2.24874 0
M  V30 6678 H 646.137 2.55783 -3.39787 0
M  V30 6679 N 644.452 1.42507 0.673017 0
M  V30 6680 C 645.362 1.4853 1.81593 0
M  V30 6681 C 646.378 0.373907 1.69935 0
M  V30 6682 O 647.554 0.625078 1.91454 0
M  V30 6683 C 644.619 1.387 3.17747 0
M  V30 6684 C 643.68 2.60346 3.41348 0
M  V30 6685 C 642.913 2.50975 4.71007 0
M  V30 6686 O 643.136 1.54659 5.49033 0
M  V30 6687 O 642.07 3.41138 4.95892 0
M  V30 6688 H 645.896 2.45001 1.79467 0
M  V30 6689 H 643.481 1.2429 0.82899 0
M  V30 6690 H 645.363 1.35586 3.98992 0
M  V30 6691 H 644.038 0.453555 3.20507 0
M  V30 6692 H 642.945 2.69034 2.59945 0
M  V30 6693 H 644.278 3.52595 3.43421 0
M  V30 6694 N 645.93 -0.909495 1.28709 0
M  V30 6695 C 646.84 -2.04558 1.14861 0
M  V30 6696 C 647.856 -1.73842 0.0741621 0
M  V30 6697 O 649.032 -1.99383 0.2843 0
M  V30 6698 C 646.097 -3.36957 0.816148 0
M  V30 6699 C 645.158 -3.81255 1.97341 0
M  V30 6700 C 644.391 -5.07335 1.65671 0
M  V30 6701 O 644.614 -5.67514 0.573053 0
M  V30 6702 O 643.548 -5.47449 2.50167 0
M  V30 6703 H 647.374 -2.19161 2.10243 0
M  V30 6704 H 644.959 -1.03159 1.08068 0
M  V30 6705 H 646.841 -4.16436 0.644873 0
M  V30 6706 H 645.516 -3.2352 -0.107983 0
M  V30 6707 H 644.423 -3.02584 2.19986 0
M  V30 6708 H 645.756 -3.99261 2.87839 0
M  V30 6709 N 647.408 -1.11026 -1.11852 0
M  V30 6710 C 648.656 -0.854769 -1.83134 0
M  V30 6711 C 648.977 0.621375 -1.84835 0
M  V30 6712 O 648.247 1.45129 -1.31584 0
M  V30 6713 H 646.827 -0.313229 -0.678157 0
M  V30 6714 H 649.489 -1.40178 -1.35411 0
M  V30 6715 H 648.585 -1.22311 -2.87135 0
M  V30 6716 N 648.886 1.2938 -0.899927 0
M  V30 6717 C 650.297 1.77644 -0.574427 0
M  V30 6718 C 650.648 1.73824 0.909928 0
M  V30 6719 O 649.773 1.32429 1.71147 0
M  V30 6720 C 650.368 3.22573 -1.03595 0
M  V30 6721 C 648.927 3.68614 -0.76161 0
M  V30 6722 C 648.074 2.49483 -1.21052 0
M  V30 6723 H 651.025 1.16038 -1.08263 0
M  V30 6724 H 651.046 3.78684 -0.371337 0
M  V30 6725 H 650.558 3.25321 -2.11631 0
M  V30 6726 H 648.659 3.7134 0.306127 0
M  V30 6727 H 648.772 4.59402 -1.35965 0
M  V30 6728 H 647.136 2.46798 -0.629515 0
M  V30 6729 H 647.919 2.54959 -2.29893 0
M  V30 6730 N 650.364 0.662433 1.43002 0
M  V30 6731 C 651.775 0.258315 1.84904 0
M  V30 6732 C 652.126 -1.19703 1.55453 0
M  V30 6733 O 651.251 -1.91484 1.00811 0
M  V30 6734 C 651.846 0.462047 3.35635 0
M  V30 6735 C 650.405 0.112165 3.76233 0
M  V30 6736 C 649.552 0.760479 2.66668 0
M  V30 6737 H 652.503 0.865467 1.33024 0
M  V30 6738 H 652.524 -0.289646 3.79396 0
M  V30 6739 H 652.036 1.52135 3.57039 0
M  V30 6740 H 650.137 -0.944179 3.60439 0
M  V30 6741 H 650.25 0.544058 4.76001 0
M  V30 6742 H 648.614 0.192887 2.53969 0
M  V30 6743 H 649.397 1.82299 2.90898 0
M  V30 6744 N 651.842 -1.52309 0.404946 0
M  V30 6745 C 652.805 -2.25491 -0.410651 0
M  V30 6746 C 653.805 -1.27704 -0.977154 0
M  V30 6747 O 654.995 -1.51679 -0.856691 0
M  V30 6748 C 652.127 -3.02197 -1.57765 0
M  V30 6749 H 653.32 -2.99015 0.230277 0
M  V30 6750 H 650.873 -1.55506 0.157377 0
M  V30 6751 H 651.608 -2.33013 -2.25556 0
M  V30 6752 H 651.393 -3.73987 -1.17797 0
M  V30 6753 H 652.883 -3.57719 -2.15469 0
M  V30 6754 N 653.32 -0.135238 -1.57019 0
M  V30 6755 C 654.548 0.526066 -2.001 0
M  V30 6756 C 654.963 1.59184 -1.01519 0
M  V30 6757 O 654.32 1.82497 -0.0104258 0
M  V30 6758 C 654.371 1.13744 -3.43139 0
M  V30 6759 O 654.092 0.114259 -4.37951 0
M  V30 6760 C 655.593 1.8805 -4.01438 0
M  V30 6761 H 652.813 0.137962 -0.656664 0
M  V30 6762 H 655.357 -0.226359 -2.03243 0
M  V30 6763 H 653.512 1.84056 -3.40885 0
M  V30 6764 H 653.926 0.56058 -5.21496 0
M  V30 6765 H 655.4 2.26133 -5.03555 0
M  V30 6766 H 655.877 2.76194 -3.41487 0
M  V30 6767 H 656.483 1.22464 -4.07287 0
M  V30 6768 N 654.798 1.5699 0.138552 0
M  V30 6769 C 655.708 2.02174 1.19008 0
M  V30 6770 C 656.724 0.938622 1.46512 0
M  V30 6771 O 657.9 1.24872 1.58016 0
M  V30 6772 C 654.965 2.40045 2.50159 0
M  V30 6773 C 654.026 3.62346 2.30226 0
M  V30 6774 C 653.259 3.98401 3.55123 0
M  V30 6775 O 653.482 3.35019 4.61647 0
M  V30 6776 O 652.416 4.91606 3.47285 0
M  V30 6777 H 656.242 2.91954 0.836452 0
M  V30 6778 H 653.827 1.45293 0.347907 0
M  V30 6779 H 655.709 2.65225 3.27465 0
M  V30 6780 H 654.384 1.53417 2.85035 0
M  V30 6781 H 653.291 3.42341 1.50843 0
M  V30 6782 H 654.624 4.49617 2.00262 0
M  V30 6783 N 656.276 -0.40816 1.52223 0
M  V30 6784 C 657.516 -1.16418 1.68006 0
M  V30 6785 C 657.88 -1.87749 0.401793 0
M  V30 6786 O 659.081 -2.65245 0.435743 0
M  V30 6787 C 657.352 -2.13143 2.86889 0
M  V30 6788 S 658.911 -2.96839 3.2316 0
M  V30 6789 H 655.729 -0.394373 0.5916 0
M  V30 6790 H 658.331 -0.451349 1.90219 0
M  V30 6791 H 657.035 -1.59428 3.78168 0
M  V30 6792 H 656.566 -2.88963 2.66953 0
M  V30 6793 H 658.581 -4.151 2.71857 0
M  V30 6794 N 657.755 -1.42862 -0.66545 0
M  V30 6795 C 659.003 -1.43546 -1.42264 0
M  V30 6796 C 659.324 -0.0563116 -1.94919 0
M  V30 6797 O 658.594 0.906568 -1.73661 0
M  V30 6798 H 657.174 -0.528464 -0.527953 0
M  V30 6799 H 659.836 -1.78363 -0.785665 0
M  V30 6800 H 658.932 -2.14079 -2.27105 0
M  V30 6801 N 659.233 0.902656 -1.29189 0
M  V30 6802 C 660.463 1.68394 -1.19695 0
M  V30 6803 C 660.871 1.87602 0.245384 0
M  V30 6804 O 660.214 1.41084 1.17648 0
M  V30 6805 C 660.276 3.09094 -1.83578 0
M  V30 6806 C 659.94 3.1313 -3.32864 0
M  V30 6807 C 660.937 2.93497 -4.29134 0
M  V30 6808 C 658.622 3.3529 -3.74013 0
M  V30 6809 C 660.616 2.95953 -5.64527 0
M  V30 6810 C 658.303 3.37377 -5.09529 0
M  V30 6811 C 659.301 3.1773 -6.04596 0
M  V30 6812 O 658.989 3.196 -7.37639 0
M  V30 6813 H 658.721 0.532815 -0.416034 0
M  V30 6814 H 661.275 1.1374 -1.71033 0
M  V30 6815 H 659.505 3.65338 -1.26747 0
M  V30 6816 H 661.194 3.69297 -1.68447 0
M  V30 6817 H 661.96 2.76192 -3.98677 0
M  V30 6818 H 657.839 3.49623 -3.00474 0
M  V30 6819 H 661.383 2.80536 -6.38706 0
M  V30 6820 H 657.28 3.54213 -5.39633 0
M  V30 6821 H 658.048 3.35887 -7.46406 0
M  V30 6822 N 660.711 1.11618 1.11262 0
M  V30 6823 C 661.674 0.779447 2.15539 0
M  V30 6824 C 662.674 -0.202081 1.59525 0
M  V30 6825 O 663.864 0.0226356 1.74185 0
M  V30 6826 C 660.996 0.15674 3.40539 0
M  V30 6827 H 662.189 1.70324 2.4684 0
M  V30 6828 H 659.742 0.918298 1.26479 0
M  V30 6829 H 660.477 -0.777186 3.1485 0
M  V30 6830 H 660.262 0.863308 3.82478 0
M  V30 6831 H 661.752 -0.062661 4.17553 0
M  V30 6832 N 662.189 -1.289 0.906776 0
M  V30 6833 C 663.429 -1.97046 0.543329 0
M  V30 6834 C 663.793 -1.69862 -0.895034 0
M  V30 6835 O 664.994 -2.31521 -1.36571 0
M  V30 6836 C 663.265 -3.47489 0.835833 0
M  V30 6837 S 664.824 -4.3498 0.577756 0
M  V30 6838 H 661.642 -0.681908 0.201302 0
M  V30 6839 H 664.244 -1.5657 1.17073 0
M  V30 6840 H 662.948 -3.64768 1.88075 0
M  V30 6841 H 662.479 -3.92907 0.196817 0
M  V30 6842 H 664.494 -4.92868 -0.574052 0
M  V30 6843 N 663.667 -0.670007 -1.42649 0
M  V30 6844 C 664.599 0.0501746 -2.29145 0
M  V30 6845 C 665.612 0.770331 -1.43422 0
M  V30 6846 O 666.801 0.625288 -1.6719 0
M  V30 6847 C 663.901 1.09463 -3.20735 0
M  V30 6848 C 663.074 0.44926 -4.35087 0
M  V30 6849 C 662.133 1.39285 -5.07431 0
M  V30 6850 O 661.159 0.894997 -5.6212 0
M  V30 6851 N 662.361 2.72631 -5.12496 0
M  V30 6852 H 665.126 -0.692312 -2.91594 0
M  V30 6853 H 662.687 -0.514056 -1.53522 0
M  V30 6854 H 664.679 1.72705 -3.65999 0
M  V30 6855 H 663.249 1.73891 -2.59771 0
M  V30 6856 H 662.469 -0.362573 -3.92529 0
M  V30 6857 H 663.757 -0.000544776 -5.088 0
M  V30 6858 H 663.155 3.15623 -4.69467 0
M  V30 6859 H 661.712 3.31132 -5.61422 0
M  V30 6860 N 665.145 1.52092 -0.413018 0
M  V30 6861 C 666.556 1.86617 0.0556967 0
M  V30 6862 C 666.907 1.33156 1.44097 0
M  V30 6863 O 666.032 0.672417 2.05688 0
M  V30 6864 C 666.627 3.38628 0.107844 0
M  V30 6865 C 665.186 3.72778 0.520904 0
M  V30 6866 C 664.333 2.75649 -0.302109 0
M  V30 6867 H 667.284 1.45663 -0.629919 0
M  V30 6868 H 667.305 3.69152 0.922324 0
M  V30 6869 H 666.817 3.77508 -0.900506 0
M  V30 6870 H 664.918 3.39478 1.53575 0
M  V30 6871 H 665.031 4.7838 0.262591 0
M  V30 6872 H 663.395 2.53603 0.236115 0
M  V30 6873 H 664.178 3.17369 -1.30888 0
M  V30 6874 N 666.623 0.143563 1.56945 0
M  V30 6875 C 667.553 -0.7936 2.196 0
M  V30 6876 C 668.534 -1.25955 1.14321 0
M  V30 6877 O 669.719 -1.31773 1.42651 0
M  V30 6878 C 666.849 -2.03424 2.81489 0
M  V30 6879 C 665.803 -1.70519 3.92565 0
M  V30 6880 C 665.129 -3.01817 4.41373 0
M  V30 6881 C 666.429 -0.95449 5.13504 0
M  V30 6882 H 668.123 -0.271423 2.98167 0
M  V30 6883 H 665.669 -0.12911 1.4342 0
M  V30 6884 H 667.622 -2.69463 3.23987 0
M  V30 6885 H 666.346 -2.58008 2.00248 0
M  V30 6886 H 665.005 -1.06859 3.5068 0
M  V30 6887 H 664.653 -3.54386 3.56959 0
M  V30 6888 H 664.353 -2.80565 5.16292 0
M  V30 6889 H 665.877 -3.68934 4.86539 0
M  V30 6890 H 667.291 -1.5169 5.52868 0
M  V30 6891 H 665.688 -0.842035 5.94163 0
M  V30 6892 H 666.758 0.0544033 4.84869 0
M  V30 6893 N 668.101 -1.57061 -0.130224 0
M  V30 6894 C 669.064 -1.98593 -1.14426 0
M  V30 6895 C 670.064 -0.874584 -1.34936 0
M  V30 6896 O 671.254 -1.14086 -1.31643 0
M  V30 6897 C 668.386 -2.31639 -2.50112 0
M  V30 6898 H 669.579 -2.89374 -0.787561 0
M  V30 6899 H 667.132 -1.51756 -0.374146 0
M  V30 6900 H 667.867 -1.43703 -2.90723 0
M  V30 6901 H 667.652 -3.12684 -2.36583 0
M  V30 6902 H 669.142 -2.64551 -3.23114 0
M  V30 6903 N 669.579 0.400081 -1.52437 0
M  V30 6904 C 670.825 1.14788 -1.67187 0
M  V30 6905 C 671.158 1.89928 -0.405074 0
M  V30 6906 O 670.433 1.85118 0.596804 0
M  V30 6907 C 670.716 2.13507 -2.89977 0
M  V30 6908 C 670.569 1.42204 -4.2673 0
M  V30 6909 C 671.888 3.14069 -3.083 0
M  V30 6910 H 669.007 0.415939 -0.608411 0
M  V30 6911 H 671.649 0.432542 -1.85011 0
M  V30 6912 H 669.799 2.7451 -2.74912 0
M  V30 6913 H 671.471 0.842503 -4.53541 0
M  V30 6914 H 669.714 0.723939 -4.27717 0
M  V30 6915 H 670.385 2.14281 -5.08712 0
M  V30 6916 H 672.861 2.63148 -3.22323 0
M  V30 6917 H 671.737 3.80398 -3.95713 0
M  V30 6918 H 671.998 3.82309 -2.22018 0
M  V30 6919 N 671.057 1.43213 0.657864 0
M  V30 6920 C 672.303 1.44798 1.41991 0
M  V30 6921 C 672.636 0.070256 1.94073 0
M  V30 6922 O 671.911 -0.908177 1.71995 0
M  V30 6923 C 672.194 2.4865 2.60471 0
M  V30 6924 C 672.047 3.95679 2.13911 0
M  V30 6925 C 673.366 2.49292 3.62686 0
M  V30 6926 H 670.485 0.527244 0.514959 0
M  V30 6927 H 673.127 1.74733 0.74621 0
M  V30 6928 H 671.277 2.23254 3.17946 0
M  V30 6929 H 672.949 4.32116 1.61472 0
M  V30 6930 H 671.192 4.08733 1.45325 0
M  V30 6931 H 671.863 4.6395 2.99089 0
M  V30 6932 H 674.339 2.71917 3.14961 0
M  V30 6933 H 673.215 3.23907 4.43143 0
M  V30 6934 H 673.476 1.52502 4.14964 0
M  V30 6935 N 672.536 -0.895792 1.29666 0
M  V30 6936 C 673.813 -1.62723 1.08538 0
M  V30 6937 C 674.193 -2.07848 -0.369119 0
M  V30 6938 O 673.541 -1.8372 -1.35864 0
M  V30 6939 C 673.751 -2.80505 2.07648 0
M  V30 6940 C 675.099 -3.51098 2.3878 0
M  V30 6941 O 676.123 -2.90679 2.05874 0
M  V30 6942 O 674.982 -4.60028 2.9502 0
M  V30 6943 H 672.076 -0.714692 0.416106 0
M  V30 6944 H 674.622 -0.943517 1.41053 0
M  V30 6945 H 673.394 -2.44386 3.05599 0
M  V30 6946 H 673.017 -3.5658 1.75887 0
M  V30 6947 N 674.014 -1.12206 -1.10668 0
M  V30 6948 C 674.944 -0.810086 -2.18997 0
M  V30 6949 C 675.925 0.225065 -1.68604 0
M  V30 6950 O 677.11 0.086783 -1.94006 0
M  V30 6951 C 674.24 -0.261262 -3.46316 0
M  V30 6952 C 673.194 -1.2292 -4.09969 0
M  V30 6953 C 672.52 -0.540713 -5.31959 0
M  V30 6954 C 673.82 -2.58295 -4.53962 0
M  V30 6955 H 675.514 -1.7159 -2.45352 0
M  V30 6956 H 673.06 -0.82646 -1.17922 0
M  V30 6957 H 675.013 -0.0307522 -4.21389 0
M  V30 6958 H 673.737 0.679879 -3.19445 0
M  V30 6959 H 672.396 -1.44548 -3.369 0
M  V30 6960 H 672.044 0.405492 -5.01363 0
M  V30 6961 H 671.744 -1.18637 -5.75499 0
M  V30 6962 H 673.268 -0.319184 -6.09765 0
M  V30 6963 H 674.682 -2.40709 -5.20319 0
M  V30 6964 H 673.079 -3.18916 -5.08343 0
M  V30 6965 H 674.149 -3.16918 -3.67002 0
M  V30 6966 N 675.492 1.28418 -0.913599 0
M  V30 6967 C 676.741 1.94265 -0.542572 0
M  V30 6968 C 677.054 1.72709 0.918207 0
M  V30 6969 O 678.26 2.32778 1.39738 0
M  V30 6970 C 676.716 3.47956 -0.919507 0
M  V30 6971 C 676.324 3.78291 -2.4 0
M  V30 6972 C 678.068 4.19962 -0.619057 0
M  V30 6973 C 675.975 5.2529 -2.71707 0
M  V30 6974 H 674.905 0.727213 -0.199192 0
M  V30 6975 H 677.556 1.45931 -1.11249 0
M  V30 6976 H 675.938 3.9502 -0.278372 0
M  V30 6977 H 677.112 3.42035 -3.08786 0
M  V30 6978 H 675.427 3.19456 -2.67089 0
M  V30 6979 H 678.024 5.28178 -0.832623 0
M  V30 6980 H 678.367 4.13935 0.443126 0
M  V30 6981 H 678.9 3.78674 -1.21865 0
M  V30 6982 H 675.639 5.36394 -3.76778 0
M  V30 6983 H 675.159 5.62743 -2.07559 0
M  V30 6984 H 676.838 5.93027 -2.58703 0
M  V30 6985 N 676.97 0.677563 1.42291 0
M  V30 6986 C 678.216 0.201272 2.01799 0
M  V30 6987 C 678.549 -1.19004 1.53465 0
M  V30 6988 O 677.824 -1.79953 0.738039 0
M  V30 6989 C 678.107 0.238968 3.59306 0
M  V30 6990 C 677.96 1.66594 4.17812 0
M  V30 6991 C 679.279 -0.411287 4.38174 0
M  V30 6992 H 676.398 0.0746114 0.733214 0
M  V30 6993 H 679.04 0.862872 1.69276 0
M  V30 6994 H 677.19 -0.324368 3.87144 0
M  V30 6995 H 678.862 2.28173 4.00917 0
M  V30 6996 H 677.105 2.20576 3.73536 0
M  V30 6997 H 677.776 1.64398 5.26951 0
M  V30 6998 H 680.252 0.0682804 4.16044 0
M  V30 6999 H 679.128 -0.354286 5.47755 0
M  V30 7000 H 679.389 -1.4893 4.1626 0
M  V30 7001 N 678.448 -1.51871 0.421078 0
M  V30 7002 C 679.725 -1.9447 -0.20993 0
M  V30 7003 C 680.105 -1.35875 -1.61558 0
M  V30 7004 O 679.453 -0.539294 -2.22045 0
M  V30 7005 C 679.663 -3.48402 -0.204165 0
M  V30 7006 C 681.011 -4.2254 -0.417696 0
M  V30 7007 O 682.035 -3.55074 -0.282999 0
M  V30 7008 O 680.894 -5.422 -0.684239 0
M  V30 7009 H 677.988 -0.815283 -0.138718 0
M  V30 7010 H 680.534 -1.62832 0.477884 0
M  V30 7011 H 679.306 -3.83464 0.779183 0
M  V30 7012 H 678.929 -3.86436 -0.935576 0
M  V30 7013 N 679.926 -0.151884 -1.56866 0
M  V30 7014 C 681.175 0.497992 -1.95456 0
M  V30 7015 C 681.488 1.6569 -1.03953 0
M  V30 7016 O 682.694 2.37173 -1.32142 0
M  V30 7017 C 681.15 0.93732 -3.4748 0
M  V30 7018 C 680.758 -0.194921 -4.47576 0
M  V30 7019 C 682.502 1.55671 -3.94926 0
M  V30 7020 C 680.409 0.26295 -5.90815 0
M  V30 7021 H 679.339 0.189811 -0.729717 0
M  V30 7022 H 681.99 -0.237011 -1.81963 0
M  V30 7023 H 680.372 1.72773 -3.56322 0
M  V30 7024 H 681.546 -0.971951 -4.50433 0
M  V30 7025 H 679.861 -0.72303 -4.10075 0
M  V30 7026 H 682.458 1.91099 -4.99385 0
M  V30 7027 H 682.801 2.44748 -3.36755 0
M  V30 7028 H 683.334 0.831109 -3.89021 0
M  V30 7029 H 680.073 -0.592568 -6.52816 0
M  V30 7030 H 679.593 1.00575 -5.91308 0
M  V30 7031 H 681.272 0.713333 -6.43056 0
M  V30 7032 N 681.404 1.57128 0.121893 0
M  V30 7033 C 682.337 1.95327 1.17995 0
M  V30 7034 C 683.315 0.822524 1.40262 0
M  V30 7035 O 684.499 1.08044 1.54463 0
M  V30 7036 C 681.626 2.24699 2.53432 0
M  V30 7037 C 680.672 3.47263 2.4761 0
M  V30 7038 S 681.505 4.99951 1.91857 0
M  V30 7039 C 682.661 5.32473 3.28973 0
M  V30 7040 H 682.894 2.84765 0.854182 0
M  V30 7041 H 680.427 1.50864 0.328534 0
M  V30 7042 H 682.385 2.423 3.31362 0
M  V30 7043 H 681.046 1.3588 2.83188 0
M  V30 7044 H 680.239 3.65171 3.4737 0
M  V30 7045 H 679.841 3.29034 1.778 0
M  V30 7046 H 682.133 5.27478 4.25175 0
M  V30 7047 H 683.076 6.33732 3.15895 0
M  V30 7048 H 683.484 4.59952 3.27268 0
M  V30 7049 N 682.882 -0.391992 1.52647 0
M  V30 7050 C 684.129 -1.13732 1.67545 0
M  V30 7051 C 684.457 -1.90045 0.413881 0
M  V30 7052 O 683.712 -1.86157 -0.603646 0
M  V30 7053 C 684.011 -2.14401 2.85949 0
M  V30 7054 C 683.677 -1.54767 4.23507 0
M  V30 7055 C 682.339 -1.38229 4.60919 0
M  V30 7056 C 684.691 -1.11382 5.0916 0
M  V30 7057 C 682.019 -0.7685 5.81645 0
M  V30 7058 C 684.371 -0.514143 6.30507 0
M  V30 7059 C 683.035 -0.33604 6.66654 0
M  V30 7060 H 682.305 -0.416174 0.613091 0
M  V30 7061 H 684.952 -0.422327 1.86785 0
M  V30 7062 H 683.257 -2.92108 2.61114 0
M  V30 7063 H 684.954 -2.71974 2.94671 0
M  V30 7064 H 681.544 -1.68626 3.94035 0
M  V30 7065 H 685.728 -1.22962 4.80826 0
M  V30 7066 H 680.984 -0.618681 6.08262 0
M  V30 7067 H 685.158 -0.169657 6.96193 0
M  V30 7068 H 682.785 0.14166 7.60068 0
M  V30 7069 N 684.36 -1.4356 -0.65026 0
M  V30 7070 C 685.609 -1.44619 -1.406 0
M  V30 7071 C 685.922 -0.0752645 -1.95455 0
M  V30 7072 O 687.128 0.0366832 -2.71475 0
M  V30 7073 C 685.584 -2.54511 -2.54465 0
M  V30 7074 C 685.192 -3.97723 -2.06204 0
M  V30 7075 C 686.936 -2.64768 -3.31811 0
M  V30 7076 C 684.843 -4.99075 -3.17298 0
M  V30 7077 H 683.773 -0.537983 -0.52829 0
M  V30 7078 H 686.424 -1.69559 -0.701561 0
M  V30 7079 H 684.806 -2.22777 -3.27393 0
M  V30 7080 H 685.98 -4.38932 -1.40267 0
M  V30 7081 H 684.295 -3.91538 -1.41729 0
M  V30 7082 H 686.892 -3.37664 -4.14593 0
M  V30 7083 H 687.235 -1.69936 -3.80036 0
M  V30 7084 H 687.768 -2.95817 -2.65964 0
M  V30 7085 H 684.507 -5.95469 -2.74038 0
M  V30 7086 H 684.027 -4.62476 -3.81937 0
M  V30 7087 H 685.706 -5.21913 -3.82382 0
M  V30 7088 N 685.838 0.888903 -1.30139 0
M  V30 7089 C 687.084 1.6428 -1.18912 0
M  V30 7090 C 687.417 1.92499 0.256477 0
M  V30 7091 O 686.692 1.54312 1.18397 0
M  V30 7092 C 686.975 2.9851 -2.01405 0
M  V30 7093 C 686.828 2.77288 -3.54163 0
M  V30 7094 C 688.147 3.99383 -1.84882 0
M  V30 7095 H 685.266 0.596148 -0.433333 0
M  V30 7096 H 687.908 1.0289 -1.5973 0
M  V30 7097 H 686.058 3.50907 -1.66722 0
M  V30 7098 H 687.73 2.31709 -3.98884 0
M  V30 7099 H 685.973 2.11867 -3.78543 0
M  V30 7100 H 686.644 3.72717 -4.07168 0
M  V30 7101 H 689.12 3.56132 -2.15196 0
M  V30 7102 H 687.996 4.91222 -2.44934 0
M  V30 7103 H 688.257 4.34674 -0.806902 0
M  V30 7104 N 687.317 1.12792 1.10072 0
M  V30 7105 C 688.594 0.796867 1.78632 0
M  V30 7106 C 688.974 -0.712739 1.98704 0
M  V30 7107 O 688.322 -1.64773 1.5831 0
M  V30 7108 C 688.532 1.57622 3.11378 0
M  V30 7109 C 689.88 1.76463 3.86194 0
M  V30 7110 O 690.904 1.54165 3.2111 0
M  V30 7111 O 689.763 2.13623 5.03018 0
M  V30 7112 H 686.857 0.290248 0.774394 0
M  V30 7113 H 689.403 1.23215 1.16688 0
M  V30 7114 H 688.175 2.60246 2.92212 0
M  V30 7115 H 687.798 1.13543 3.81043 0
M  V30 7116 N 688.795 -1.27931 0.920396 0
M  V30 7117 C 690.044 -1.93975 0.552867 0
M  V30 7118 C 690.357 -1.73193 -0.909035 0
M  V30 7119 O 691.563 -2.33515 -1.38502 0
M  V30 7120 C 690.019 -3.47463 0.937947 0
M  V30 7121 C 689.627 -3.77013 2.42003 0
M  V30 7122 C 691.371 -4.19628 0.64132 0
M  V30 7123 C 689.278 -5.23841 2.74489 0
M  V30 7124 H 688.208 -0.726146 0.203046 0
M  V30 7125 H 690.859 -1.45339 1.12022 0
M  V30 7126 H 689.241 -3.94867 0.299317 0
M  V30 7127 H 690.415 -3.40393 3.10595 0
M  V30 7128 H 688.73 -3.18035 2.6878 0
M  V30 7129 H 691.327 -5.27729 0.860622 0
M  V30 7130 H 691.67 -4.14164 -0.421168 0
M  V30 7131 H 692.203 -3.78022 1.23872 0
M  V30 7132 H 688.942 -5.34388 3.79618 0
M  V30 7133 H 688.462 -5.61634 2.1054 0
M  V30 7134 H 690.141 -5.91647 2.61845 0
M  V30 7135 N 690.273 -0.685099 -1.4193 0
M  V30 7136 C 691.203 -0.0273506 -2.33484 0
M  V30 7137 C 692.184 0.778366 -1.51246 0
M  V30 7138 O 693.369 0.733449 -1.79817 0
M  V30 7139 C 690.499 0.917272 -3.34968 0
M  V30 7140 C 689.453 0.21941 -4.27437 0
M  V30 7141 C 688.779 1.27768 -5.1921 0
M  V30 7142 C 690.079 -0.907894 -5.14349 0
M  V30 7143 H 691.773 -0.791994 -2.88735 0
M  V30 7144 H 689.319 -0.382308 -1.38832 0
M  V30 7145 H 691.272 1.38657 -3.97935 0
M  V30 7146 H 689.996 1.71346 -2.78043 0
M  V30 7147 H 688.655 -0.229757 -3.65879 0
M  V30 7148 H 688.303 2.06612 -4.58607 0
M  V30 7149 H 688.003 0.815803 -5.81909 0
M  V30 7150 H 689.527 1.7477 -5.85054 0
M  V30 7151 H 690.941 -0.519348 -5.70943 0
M  V30 7152 H 689.338 -1.2962 -5.85934 0
M  V30 7153 H 690.408 -1.75218 -4.52136 0
M  V30 7154 N 691.751 1.51645 -0.429126 0
M  V30 7155 C 693 2.01203 0.141538 0
M  V30 7156 C 693.313 1.31828 1.44502 0
M  V30 7157 O 694.519 1.7231 2.09813 0
M  V30 7158 C 692.975 3.58624 0.302786 0
M  V30 7159 C 692.583 4.3693 -0.989775 0
M  V30 7160 C 694.327 4.16353 0.827661 0
M  V30 7161 C 692.234 5.86037 -0.794619 0
M  V30 7162 H 691.164 0.751867 0.05667 0
M  V30 7163 H 693.815 1.74822 -0.557633 0
M  V30 7164 H 692.197 3.81417 1.06476 0
M  V30 7165 H 693.371 4.25887 -1.75945 0
M  V30 7166 H 691.686 3.90614 -1.44256 0
M  V30 7167 H 694.283 5.25455 0.990026 0
M  V30 7168 H 694.626 3.74995 1.80787 0
M  V30 7169 H 695.159 3.97606 0.124213 0
M  V30 7170 H 691.898 6.31792 -1.74697 0
M  V30 7171 H 691.418 5.99765 -0.0645968 0
M  V30 7172 H 693.097 6.45471 -0.444591 0
M  V30 7173 N 693.229 0.160201 1.56784 0
M  V30 7174 C 694.177 -0.791402 2.18723 0
M  V30 7175 C 695.171 -1.24567 1.14801 0
M  V30 7176 O 696.377 -1.21262 1.33025 0
M  V30 7177 H 692.752 -0.273458 0.700517 0
M  V30 7178 H 694.723 -0.244931 2.97393 0
M  V30 7179 C 693.472 -2.01509 2.83354 0
M  V30 7180 H 692.795 -1.67454 3.63041 0
M  V30 7181 H 694.235 -2.66006 3.30177 0
M  V30 7182 C 692.694 -2.83159 1.82545 0
M  V30 7183 O 693.224 -3.79944 1.30405 0
M  V30 7184 N 691.43 -2.47953 1.51552 0
M  V30 7185 H 690.977 -1.69309 1.94144 0
M  V30 7186 H 690.935 -3.02873 0.843519 0
M  V30 7187 N 694.707 -1.5719 -0.113559 0
M  V30 7188 C 695.954 -1.85138 -0.820382 0
M  V30 7189 C 696.282 -0.74608 -1.79622 0
M  V30 7190 O 695.537 0.262077 -1.93937 0
M  V30 7191 C 695.836 -3.19593 -1.59984 0
M  V30 7192 C 695.502 -4.44315 -0.767809 0
M  V30 7193 C 694.164 -4.78179 -0.538379 0
M  V30 7194 C 696.516 -5.2086 -0.188203 0
M  V30 7195 C 693.844 -5.86028 0.28082 0
M  V30 7196 C 696.196 -6.29572 0.618217 0
M  V30 7197 C 694.86 -6.61964 0.857912 0
M  V30 7198 H 694.13 -0.677467 -0.300199 0
M  V30 7199 H 696.777 -1.91322 -0.0825443 0
M  V30 7200 H 695.082 -3.0901 -2.40874 0
M  V30 7201 H 696.779 -3.3844 -2.1508 0
M  V30 7202 H 693.369 -4.17786 -0.956724 0
M  V30 7203 H 697.553 -4.95045 -0.352658 0
M  V30 7204 H 692.809 -6.09547 0.475693 0
M  V30 7205 H 696.983 -6.88064 1.0743 0
M  V30 7206 H 694.61 -7.45365 1.49451 0
M  V30 7207 N 696.185 0.383891 -1.52853 0
M  V30 7208 C 697.601 0.724316 -1.42218 0
M  V30 7209 C 697.801 1.93943 -0.546654 0
M  V30 7210 O 696.857 2.5249 -0.0220562 0
M  V30 7211 C 698.17 0.954635 -2.85144 0
M  V30 7212 C 699.718 1.05579 -2.94656 0
M  V30 7213 C 700.193 1.3187 -4.38605 0
M  V30 7214 N 701.684 1.38681 -4.41952 0
M  V30 7215 C 702.419 1.60699 -5.50421 0
M  V30 7216 N 701.915 1.80154 -6.68967 0
M  V30 7217 N 703.708 1.6292 -5.37972 0
M  V30 7218 H 695.859 -0.4156 -2.08294 0
M  V30 7219 H 698.122 -0.123776 -0.939885 0
M  V30 7220 H 697.828 0.133829 -3.51445 0
M  V30 7221 H 697.702 1.86788 -3.27704 0
M  V30 7222 H 700.089 1.86716 -2.2852 0
M  V30 7223 H 700.17 0.120338 -2.55517 0
M  V30 7224 H 699.814 0.512416 -5.05309 0
M  V30 7225 H 699.744 2.26708 -4.75301 0
M  V30 7226 H 702.235 1.25334 -3.56511 0
M  V30 7227 H 702.548 1.96476 -7.47407 0
M  V30 7228 H 700.893 1.77368 -6.71986 0
M  V30 7229 H 704.084 1.47276 -4.44328 0
M  V30 7230 H 704.257 1.79739 -6.22574 0
M  V30 7231 N 697.663 1.43903 0.642637 0
M  V30 7232 C 698.891 1.4954 1.42988 0
M  V30 7233 C 699.306 0.116588 1.8844 0
M  V30 7234 O 698.663 -0.875285 1.60141 0
M  V30 7235 C 698.714 2.45031 2.65785 0
M  V30 7236 O 698.435 3.77551 2.22232 0
M  V30 7237 C 699.936 2.60017 3.59035 0
M  V30 7238 H 697.156 0.507544 0.438907 0
M  V30 7239 H 699.7 1.88752 0.786942 0
M  V30 7240 H 697.855 2.08985 3.26196 0
M  V30 7241 H 698.269 4.29001 3.01759 0
M  V30 7242 H 699.743 3.30887 4.41835 0
M  V30 7243 H 700.22 1.64861 4.07084 0
M  V30 7244 H 700.826 2.96918 3.045 0
M  V30 7245 N 699.141 -0.881989 1.30609 0
M  V30 7246 C 700.369 -1.66711 1.22536 0
M  V30 7247 C 700.784 -1.87614 -0.2113 0
M  V30 7248 O 700.141 -1.42576 -1.13923 0
M  V30 7249 C 700.192 -3.04182 1.95335 0
M  V30 7250 O 699.913 -2.8422 3.33393 0
M  V30 7251 C 701.414 -3.98617 1.93956 0
M  V30 7252 H 698.634 -0.520124 0.423925 0
M  V30 7253 H 701.178 -1.10174 1.72285 0
M  V30 7254 H 699.333 -3.57442 1.49378 0
M  V30 7255 H 699.747 -3.71452 3.70302 0
M  V30 7256 H 701.221 -4.92433 2.49426 0
M  V30 7257 H 701.698 -4.29473 0.919198 0
M  V30 7258 H 702.304 -3.51292 2.39738 0
M  V30 7259 N 700.619 -1.13374 -1.09472 0
M  V30 7260 C 701.849 -0.917019 -1.85133 0
M  V30 7261 C 702.257 0.537568 -1.81402 0
M  V30 7262 O 701.6 1.38385 -1.20811 0
M  V30 7263 C 701.662 -1.32646 -3.34134 0
M  V30 7264 C 701.326 -2.79437 -3.61613 0
M  V30 7265 C 702.323 -3.77596 -3.57375 0
M  V30 7266 C 700.008 -3.16586 -3.89973 0
M  V30 7267 C 702.002 -5.10916 -3.81108 0
M  V30 7268 C 699.689 -4.50085 -4.13361 0
M  V30 7269 C 700.687 -5.47059 -4.0892 0
M  V30 7270 O 700.375 -6.78149 -4.31705 0
M  V30 7271 H 700.107 -0.326997 -0.591649 0
M  V30 7272 H 702.661 -1.51002 -1.39239 0
M  V30 7273 H 700.891 -0.676719 -3.80733 0
M  V30 7274 H 702.58 -1.08229 -3.91205 0
M  V30 7275 H 703.346 -3.50242 -3.35493 0
M  V30 7276 H 699.225 -2.41707 -3.92554 0
M  V30 7277 H 702.769 -5.86597 -3.77558 0
M  V30 7278 H 698.666 -4.77163 -4.34724 0
M  V30 7279 H 699.434 -6.84244 -4.49168 0
M  V30 7280 N 702.098 1.27442 -0.927168 0
M  V30 7281 C 703.344 1.94679 -0.568164 0
M  V30 7282 C 703.677 1.72697 0.888219 0
M  V30 7283 O 702.952 1.05573 1.63354 0
M  V30 7284 C 703.235 3.4882 -0.894253 0
M  V30 7285 C 703.088 3.80146 -2.40435 0
M  V30 7286 C 704.407 4.38281 -0.399766 0
M  V30 7287 H 701.526 0.707071 -0.207892 0
M  V30 7288 H 704.168 1.50568 -1.15885 0
M  V30 7289 H 702.318 3.86522 -0.391566 0
M  V30 7290 H 703.99 3.52238 -2.97869 0
M  V30 7291 H 702.233 3.26716 -2.85375 0
M  V30 7292 H 702.904 4.87835 -2.58304 0
M  V30 7293 H 705.38 4.07726 -0.83058 0
M  V30 7294 H 704.256 5.44955 -0.656885 0
M  V30 7295 H 704.517 4.36521 0.700153 0
M  V30 7296 N 703.576 0.692616 1.41565 0
M  V30 7297 C 704.524 0.0139952 2.32596 0
M  V30 7298 C 705.518 -0.771691 1.50802 0
M  V30 7299 O 706.724 -0.677646 1.66757 0
M  V30 7300 H 703.099 -0.0142745 0.751865 0
M  V30 7301 H 705.07 0.798851 2.87508 0
M  V30 7302 C 703.819 -0.910602 3.35564 0
M  V30 7303 H 703.142 -0.315446 3.98554 0
M  V30 7304 H 704.582 -1.3538 4.01806 0
M  V30 7305 C 703.041 -2.02539 2.6922 0
M  V30 7306 O 703.571 -3.11386 2.53775 0
M  V30 7307 N 701.777 -1.80227 2.27962 0
M  V30 7308 H 701.324 -0.917054 2.40724 0
M  V30 7309 H 701.282 -2.55001 1.83907 0
M  V30 7310 N 705.054 -1.51416 0.437162 0
M  V30 7311 C 706.017 -2.26312 -0.362729 0
M  V30 7312 C 707.017 -1.29748 -0.949847 0
M  V30 7313 O 708.207 -1.53462 -0.824325 0
M  V30 7314 C 705.339 -3.05475 -1.5132 0
M  V30 7315 H 706.532 -2.98459 0.29365 0
M  V30 7316 H 704.085 -1.55137 0.190327 0
M  V30 7317 H 704.82 -2.37744 -2.20563 0
M  V30 7318 H 704.605 -3.76401 -1.09838 0
M  V30 7319 H 706.095 -3.62209 -2.07833 0
M  V30 7320 N 706.532 -0.168513 -1.56696 0
M  V30 7321 C 707.48 0.779791 -2.19139 0
M  V30 7322 C 708.474 1.23957 -1.1546 0
M  V30 7323 O 709.68 1.20555 -1.33666 0
M  V30 7324 H 706.055 0.269739 -0.701958 0
M  V30 7325 H 708.026 0.229156 -2.97519 0
M  V30 7326 C 706.775 2.00003 -2.84419 0
M  V30 7327 H 706.098 1.65527 -3.63924 0
M  V30 7328 H 707.538 2.64251 -3.31583 0
M  V30 7329 C 705.997 2.82187 -1.84044 0
M  V30 7330 O 706.527 3.79247 -1.32418 0
M  V30 7331 N 704.733 2.47145 -1.52864 0
M  V30 7332 H 704.28 1.68277 -1.9504 0
M  V30 7333 H 704.238 3.02422 -0.859569 0
M  V30 7334 N 708.01 1.57248 0.105221 0
M  V30 7335 C 708.92 2.04653 1.14693 0
M  V30 7336 C 709.936 0.969488 1.44489 0
M  V30 7337 O 711.112 1.28196 1.55331 0
M  V30 7338 C 708.177 2.45297 2.45011 0
M  V30 7339 C 707.238 3.67148 2.22489 0
M  V30 7340 C 706.471 4.05844 3.46592 0
M  V30 7341 O 706.694 3.44736 4.54437 0
M  V30 7342 O 705.628 4.98862 3.36779 0
M  V30 7343 H 709.454 2.93663 0.774336 0
M  V30 7344 H 707.039 1.45998 0.31701 0
M  V30 7345 H 708.921 2.72112 3.21766 0
M  V30 7346 H 707.596 1.59429 2.81717 0
M  V30 7347 H 706.503 3.45463 1.43547 0
M  V30 7348 H 707.836 4.53764 1.9068 0
M  V30 7349 N 709.488 -0.375779 1.53054 0
M  V30 7350 C 710.398 -1.48381 1.81715 0
M  V30 7351 C 711.414 -1.59087 0.704795 0
M  V30 7352 O 712.59 -1.75174 0.993785 0
M  V30 7353 C 709.655 -2.83767 1.99192 0
M  V30 7354 C 708.716 -2.82673 3.23102 0
M  V30 7355 C 707.949 -4.11601 3.39736 0
M  V30 7356 O 708.172 -5.07243 2.60885 0
M  V30 7357 O 707.106 -4.18034 4.33049 0
M  V30 7358 H 710.932 -1.27089 2.7583 0
M  V30 7359 H 708.517 -0.564902 1.38308 0
M  V30 7360 H 710.399 -3.64004 2.12318 0
M  V30 7361 H 709.074 -3.05057 1.08267 0
M  V30 7362 H 707.981 -2.0117 3.15407 0
M  V30 7363 H 709.314 -2.66335 4.13916 0
M  V30 7364 N 710.966 -1.44241 -0.634997 0
M  V30 7365 C 712.212 -1.47038 -1.39669 0
M  V30 7366 C 712.545 -0.101122 -1.93937 0
M  V30 7367 O 711.82 0.880699 -1.73418 0
M  V30 7368 C 712.103 -2.52763 -2.56482 0
M  V30 7369 C 711.956 -3.99032 -2.07589 0
M  V30 7370 C 713.275 -2.55031 -3.58674 0
M  V30 7371 H 710.394 -0.53537 -0.506506 0
M  V30 7372 H 713.036 -1.75898 -0.718317 0
M  V30 7373 H 711.186 -2.28284 -3.14354 0
M  V30 7374 H 712.858 -4.3463 -1.54577 0
M  V30 7375 H 711.101 -4.10994 -1.38804 0
M  V30 7376 H 711.772 -4.68649 -2.91671 0
M  V30 7377 H 714.248 -2.76893 -3.10595 0
M  V30 7378 H 713.124 -3.30916 -4.37934 0
M  V30 7379 H 713.385 -1.59085 -4.12486 0
M  V30 7380 N 712.444 0.87505 -1.31075 0
M  V30 7381 C 713.69 1.63009 -1.20647 0
M  V30 7382 C 714.023 1.9276 0.236045 0
M  V30 7383 O 713.298 1.55559 1.16754 0
M  V30 7384 C 713.581 2.96357 -2.0456 0
M  V30 7385 C 713.434 2.73516 -3.57084 0
M  V30 7386 C 714.753 3.974 -1.89107 0
M  V30 7387 H 711.872 0.591518 -0.439631 0
M  V30 7388 H 714.514 1.0119 -1.60812 0
M  V30 7389 H 712.664 3.49119 -1.70435 0
M  V30 7390 H 714.336 2.27465 -4.01319 0
M  V30 7391 H 712.579 2.0784 -3.80769 0
M  V30 7392 H 713.25 3.68377 -4.11099 0
M  V30 7393 H 715.726 3.5383 -2.18961 0
M  V30 7394 H 714.602 4.88596 -2.5013 0
M  V30 7395 H 714.863 4.33794 -0.85296 0
M  V30 7396 N 713.922 1.13953 1.08869 0
M  V30 7397 C 715.147 0.928559 1.85452 0
M  V30 7398 C 715.572 -0.517642 1.80837 0
M  V30 7399 O 714.93 -1.36779 1.19001 0
M  V30 7400 C 714.978 1.42814 3.31114 0
M  V30 7401 O 714.082 0.617129 4.07756 0
M  V30 7402 H 713.423 0.33235 0.574839 0
M  V30 7403 H 715.953 1.5156 1.37443 0
M  V30 7404 H 715.963 1.43425 3.8196 0
M  V30 7405 H 714.638 2.48109 3.33788 0
M  V30 7406 H 713.215 0.679365 3.66659 0
M  V30 7407 N 715.4 -1.26948 0.933913 0
M  V30 7408 C 716.35 -2.24306 0.408779 0
M  V30 7409 C 717.334 -1.53243 -0.490435 0
M  V30 7410 O 718.526 -1.73956 -0.326866 0
M  V30 7411 C 715.655 -3.41695 -0.331578 0
M  V30 7412 C 714.741 -4.20053 0.58451 0
M  V30 7413 N 715.132 -4.76122 1.70709 0
M  V30 7414 C 713.43 -4.44303 0.388703 0
M  V30 7415 C 714.131 -5.35267 2.27737 0
M  V30 7416 N 713.107 -5.20548 1.56622 0
M  V30 7417 H 716.909 -2.65244 1.26582 0
M  V30 7418 H 714.423 -1.4195 0.788919 0
M  V30 7419 H 716.42 -4.10552 -0.724774 0
M  V30 7420 H 715.08 -3.02286 -1.18547 0
M  V30 7421 H 716.091 -4.73884 2.08937 0
M  V30 7422 H 712.768 -4.15341 -0.424016 0
M  V30 7423 H 714.158 -5.89563 3.22282 0
M  V30 7424 N 716.879 -0.700114 -1.41195 0
M  V30 7425 C 718.29 -0.307249 -1.84154 0
M  V30 7426 C 718.641 1.15539 -1.58572 0
M  V30 7427 O 717.766 1.88744 -1.05852 0
M  V30 7428 C 718.361 -0.550872 -3.34292 0
M  V30 7429 C 716.92 -0.211877 -3.75803 0
M  V30 7430 C 716.067 -0.830915 -2.64558 0
M  V30 7431 H 719.018 -0.900431 -1.30683 0
M  V30 7432 H 719.039 0.188954 -3.80031 0
M  V30 7433 H 718.551 -1.61548 -3.5288 0
M  V30 7434 H 716.652 0.848283 -3.62815 0
M  V30 7435 H 716.765 -0.67007 -4.74391 0
M  V30 7436 H 715.129 -0.260155 -2.53368 0
M  V30 7437 H 715.912 -1.89948 -2.85963 0
M  V30 7438 N 718.357 1.51182 -0.445186 0
M  V30 7439 C 719.605 2.01753 0.11841 0
M  V30 7440 C 719.926 1.33087 1.42523 0
M  V30 7441 O 719.196 0.467891 1.9023 0
M  V30 7442 H 717.776 0.745536 0.0467492 0
M  V30 7443 H 720.438 1.85765 -0.589688 0
M  V30 7444 H 719.534 3.10762 0.288665 0
M  V30 7445 N 719.835 0.176821 1.56605 0
M  V30 7446 C 721.251 -0.179278 1.5859 0
M  V30 7447 C 721.451 -1.62433 1.19238 0
M  V30 7448 O 720.507 -2.35665 0.906552 0
M  V30 7449 C 721.82 0.106524 3.00511 0
M  V30 7450 C 723.368 0.0451731 3.12967 0
M  V30 7451 C 723.843 0.304038 4.5699 0
M  V30 7452 N 725.334 0.252008 4.62514 0
M  V30 7453 C 726.069 0.426404 5.71812 0
M  V30 7454 N 725.565 0.660155 6.89648 0
M  V30 7455 N 727.358 0.361926 5.60934 0
M  V30 7456 H 719.509 1.12001 1.8047 0
M  V30 7457 H 721.772 0.445679 0.836704 0
M  V30 7458 H 721.478 1.10778 3.33798 0
M  V30 7459 H 721.352 -0.599337 3.72408 0
M  V30 7460 H 723.739 -0.946662 2.79504 0
M  V30 7461 H 723.82 0.78383 2.43495 0
M  V30 7462 H 723.464 1.29311 4.91163 0
M  V30 7463 H 723.394 -0.455294 5.24628 0
M  V30 7464 H 725.885 0.0772102 3.77821 0
M  V30 7465 H 726.198 0.782529 7.68828 0
M  V30 7466 H 724.543 0.696835 6.91498 0
M  V30 7467 H 727.734 0.17986 4.67754 0
M  V30 7468 H 727.907 0.501263 6.46058 0
M  V30 7469 N 721.313 -1.57302 -0.09688 0
M  V30 7470 C 722.562 -1.85183 -0.799388 0
M  V30 7471 C 722.875 -0.765818 -1.79985 0
M  V30 7472 O 724.081 -0.931696 -2.55013 0
M  V30 7473 C 722.537 -3.28399 -1.47249 0
M  V30 7474 C 722.145 -4.45066 -0.511888 0
M  V30 7475 C 723.889 -3.65506 -2.15883 0
M  V30 7476 C 721.796 -5.79315 -1.18948 0
M  V30 7477 H 720.726 -0.690752 -0.302287 0
M  V30 7478 H 723.377 -1.83425 -0.0523104 0
M  V30 7479 H 721.759 -3.24692 -2.26697 0
M  V30 7480 H 722.933 -4.60116 0.250962 0
M  V30 7481 H 721.248 -4.16343 0.0686576 0
M  V30 7482 H 723.845 -4.63087 -2.67309 0
M  V30 7483 H 724.188 -2.94041 -2.94696 0
M  V30 7484 H 724.721 -3.71094 -1.43298 0
M  V30 7485 H 721.46 -6.54007 -0.442198 0
M  V30 7486 H 720.98 -5.68111 -1.9238 0
M  V30 7487 H 722.659 -6.23816 -1.71646 0
M  V30 7488 N 722.791 0.367657 -1.53252 0
M  V30 7489 C 723.754 1.43308 -1.78873 0
M  V30 7490 C 724.754 1.46671 -0.659115 0
M  V30 7491 O 725.944 1.47468 -0.927306 0
M  V30 7492 C 723.076 2.82442 -1.90892 0
M  V30 7493 H 724.269 1.21864 -2.74024 0
M  V30 7494 H 721.822 0.600668 -1.44297 0
M  V30 7495 H 722.557 3.09202 -0.978 0
M  V30 7496 H 722.342 2.81399 -2.73051 0
M  V30 7497 H 723.832 3.59601 -2.12314 0
M  V30 7498 N 724.269 1.44576 0.627338 0
M  V30 7499 C 725.515 1.47777 1.38888 0
M  V30 7500 C 725.848 0.111406 1.9388 0
M  V30 7501 O 725.123 -0.87149 1.73883 0
M  V30 7502 C 725.406 2.54119 2.55138 0
M  V30 7503 C 725.259 4.00128 2.0547 0
M  V30 7504 C 726.578 2.56929 3.57317 0
M  V30 7505 H 723.697 0.538048 0.50366 0
M  V30 7506 H 726.339 1.76277 0.708978 0
M  V30 7507 H 724.489 2.29948 3.13139 0
M  V30 7508 H 726.161 4.35444 1.5227 0
M  V30 7509 H 724.404 4.11724 1.36623 0
M  V30 7510 H 725.075 4.7019 2.89181 0
M  V30 7511 H 727.551 2.78536 3.09122 0
M  V30 7512 H 726.427 3.33234 4.36173 0
M  V30 7513 H 726.688 1.6127 4.11636 0
M  V30 7514 N 725.747 -0.868086 1.31537 0
M  V30 7515 C 726.697 -1.96321 1.1594 0
M  V30 7516 C 727.681 -1.60748 0.0698962 0
M  V30 7517 O 728.873 -1.74524 0.295011 0
M  V30 7518 C 726.002 -3.32073 0.870789 0
M  V30 7519 C 725.088 -3.73907 2.00136 0
M  V30 7520 N 725.479 -3.87685 3.24859 0
M  V30 7521 C 723.777 -4.03433 1.90152 0
M  V30 7522 C 724.478 -4.23454 3.98825 0
M  V30 7523 N 723.454 -4.34242 3.27009 0
M  V30 7524 H 727.256 -2.05088 2.10514 0
M  V30 7525 H 724.77 -1.059 1.23122 0
M  V30 7526 H 726.767 -4.10279 0.740034 0
M  V30 7527 H 725.427 -3.24631 -0.0667068 0
M  V30 7528 H 726.438 -3.72363 3.59953 0
M  V30 7529 H 723.115 -4.0437 1.03879 0
M  V30 7530 H 724.505 -4.41696 5.06314 0
M  V30 7531 N 727.225 -1.14528 -1.08264 0
M  V30 7532 C 728.455 -0.936604 -1.8415 0
M  V30 7533 C 728.863 0.518298 -1.81962 0
M  V30 7534 O 728.206 1.37096 -1.22272 0
M  V30 7535 C 728.268 -1.36182 -3.32708 0
M  V30 7536 C 727.932 -2.83257 -3.58629 0
M  V30 7537 C 728.929 -3.81366 -3.5335 0
M  V30 7538 C 726.614 -3.20704 -3.86593 0
M  V30 7539 C 728.608 -5.14929 -3.75668 0
M  V30 7540 C 726.295 -4.54443 -4.08564 0
M  V30 7541 C 727.293 -5.51365 -4.03095 0
M  V30 7542 O 726.981 -6.8269 -4.24488 0
M  V30 7543 H 726.713 -0.333254 -0.588148 0
M  V30 7544 H 729.267 -1.5247 -1.3763 0
M  V30 7545 H 727.497 -0.717063 -3.79994 0
M  V30 7546 H 729.186 -1.12372 -3.90035 0
M  V30 7547 H 729.952 -3.53781 -3.31759 0
M  V30 7548 H 725.831 -2.45857 -3.89969 0
M  V30 7549 H 729.375 -5.90568 -3.71315 0
M  V30 7550 H 725.272 -4.81747 -4.29639 0
M  V30 7551 H 726.04 -6.8897 -4.41886 0
M  V30 7552 N 728.703 1.26451 -0.940633 0
M  V30 7553 C 729.95 1.93778 -0.587909 0
M  V30 7554 C 730.278 1.73811 0.872935 0
M  V30 7555 O 729.533 1.06816 1.63978 0
M  V30 7556 C 729.832 3.46503 -0.875794 0
M  V30 7557 C 729.498 3.86609 -2.32043 0
M  V30 7558 C 728.16 3.97269 -2.71534 0
M  V30 7559 C 730.512 4.0672 -3.25927 0
M  V30 7560 C 727.84 4.25436 -4.04006 0
M  V30 7561 C 730.192 4.36375 -4.57995 0
M  V30 7562 C 728.856 4.45249 -4.97302 0
M  V30 7563 H 728.126 0.709084 -0.215131 0
M  V30 7564 H 730.773 1.50272 -1.18704 0
M  V30 7565 H 729.078 3.91319 -0.194124 0
M  V30 7566 H 730.775 3.96759 -0.581665 0
M  V30 7567 H 727.365 3.78858 -2.00411 0
M  V30 7568 H 731.549 3.97912 -2.96614 0
M  V30 7569 H 726.805 4.30519 -4.34124 0
M  V30 7570 H 730.979 4.50882 -5.30734 0
M  V30 7571 H 728.606 4.66829 -5.99979 0
M  V30 7572 N 730.181 0.707592 1.40822 0
M  V30 7573 C 731.128 0.0499029 2.30746 0
M  V30 7574 C 732.098 -0.758718 1.47759 0
M  V30 7575 O 733.283 -0.724299 1.76518 0
M  V30 7576 C 730.423 -0.871756 3.33908 0
M  V30 7577 C 729.536 -0.0534655 4.31967 0
M  V30 7578 C 728.671 -0.973869 5.22197 0
M  V30 7579 C 727.71 -0.149194 6.11918 0
M  V30 7580 N 726.847 -1.02404 6.94592 0
M  V30 7581 H 731.687 0.822461 2.86426 0
M  V30 7582 H 729.224 0.417285 1.41057 0
M  V30 7583 H 731.182 -1.42028 3.9228 0
M  V30 7584 H 729.812 -1.61058 2.7975 0
M  V30 7585 H 728.864 0.612142 3.75442 0
M  V30 7586 H 730.176 0.585354 4.95353 0
M  V30 7587 H 729.33 -1.59121 5.85462 0
M  V30 7588 H 728.069 -1.64652 4.59065 0
M  V30 7589 H 727.074 0.481137 5.47691 0
M  V30 7590 H 728.299 0.519841 6.77107 0
M  V30 7591 H 726.245 -1.6825 6.34057 0
M  V30 7592 H 726.162 -0.441076 7.54712 0
M  V30 7593 H 727.43 -1.62782 7.62314 0
M  V30 7594 N 731.66 -1.50943 0.453197 0
M  V30 7595 C 732.908 -2.01813 -0.107709 0
M  V30 7596 C 733.229 -1.33841 -1.41816 0
M  V30 7597 O 732.499 -0.477973 -1.8998 0
M  V30 7598 H 731.079 -0.745773 -0.0427948 0
M  V30 7599 H 733.741 -1.8545 0.599531 0
M  V30 7600 H 732.837 -3.10911 -0.27218 0
M  V30 7601 N 733.138 -0.185124 -1.56509 0
M  V30 7602 C 734.384 0.450356 -1.98352 0
M  V30 7603 C 734.739 1.59923 -1.06969 0
M  V30 7604 O 734.032 1.91272 -0.112084 0
M  V30 7605 C 734.226 0.967977 -3.44042 0
M  V30 7606 C 734.055 -0.129208 -4.49514 0
M  V30 7607 C 732.825 -0.58351 -5.0192 0
M  V30 7608 C 735.023 -0.93459 -5.05737 0
M  V30 7609 N 733.005 -1.65956 -5.91043 0
M  V30 7610 C 734.376 -1.86026 -5.91434 0
M  V30 7611 C 736.431 -0.978125 -4.88198 0
M  V30 7612 C 735.134 -2.82582 -6.61468 0
M  V30 7613 C 737.16 -1.93169 -5.58963 0
M  V30 7614 C 736.522 -2.84481 -6.44399 0
M  V30 7615 H 732.621 0.132504 -0.770692 0
M  V30 7616 H 735.205 -0.288523 -1.9255 0
M  V30 7617 H 733.376 1.67633 -3.50362 0
M  V30 7618 H 735.108 1.57323 -3.72869 0
M  V30 7619 H 731.863 -0.178676 -4.73263 0
M  V30 7620 H 732.287 -2.19848 -6.40309 0
M  V30 7621 H 736.929 -0.286169 -4.2183 0
M  V30 7622 H 734.647 -3.52758 -7.2704 0
M  V30 7623 H 738.233 -1.97166 -5.47373 0
M  V30 7624 H 737.113 -3.57065 -6.98194 0
M  V30 7625 N 734.616 1.57351 0.0885366 0
M  V30 7626 C 735.863 1.86419 0.790824 0
M  V30 7627 C 736.191 0.774561 1.78412 0
M  V30 7628 O 735.446 -0.23119 1.9433 0
M  V30 7629 C 735.745 3.22098 1.5488 0
M  V30 7630 C 735.411 4.4548 0.697025 0
M  V30 7631 C 734.073 4.78975 0.462237 0
M  V30 7632 C 736.425 5.21094 0.105315 0
M  V30 7633 C 733.753 5.85507 -0.374016 0
M  V30 7634 C 736.105 6.28509 -0.718298 0
M  V30 7635 C 734.769 6.60515 -0.963116 0
M  V30 7636 H 734.039 0.682157 0.289383 0
M  V30 7637 H 736.686 1.91429 0.0520961 0
M  V30 7638 H 734.991 3.12803 2.35927 0
M  V30 7639 H 736.688 3.41819 2.09669 0
M  V30 7640 H 733.278 4.19255 0.890137 0
M  V30 7641 H 737.462 4.95544 0.273856 0
M  V30 7642 H 732.718 6.08713 -0.572606 0
M  V30 7643 H 736.892 6.86268 -1.18362 0
M  V30 7644 H 734.519 7.42893 -1.6129 0
M  V30 7645 N 736.094 -0.359525 1.53444 0
M  V30 7646 C 737.024 -1.44662 1.8329 0
M  V30 7647 C 738.005 -1.55617 0.68683 0
M  V30 7648 O 739.19 -1.70086 0.93725 0
M  V30 7649 C 736.32 -2.81923 2.02822 0
M  V30 7650 C 735.274 -2.85787 3.18606 0
M  V30 7651 C 734.6 -4.25781 3.23442 0
M  V30 7652 C 735.9 -2.52762 4.57065 0
M  V30 7653 H 737.594 -1.19934 2.74329 0
M  V30 7654 H 735.14 -0.575517 1.31999 0
M  V30 7655 H 737.093 -3.58005 2.22285 0
M  V30 7656 H 735.817 -3.08051 1.085 0
M  V30 7657 H 734.476 -2.12157 2.98973 0
M  V30 7658 H 734.124 -4.48994 2.26745 0
M  V30 7659 H 733.824 -4.29281 4.01238 0
M  V30 7660 H 735.348 -5.03727 3.45096 0
M  V30 7661 H 736.762 -3.18557 4.76649 0
M  V30 7662 H 735.159 -2.67569 5.37147 0
M  V30 7663 H 736.229 -1.47993 4.61764 0
M  V30 7664 N 737.572 -1.44907 -0.619662 0
M  V30 7665 C 738.821 -1.47569 -1.37501 0
M  V30 7666 C 739.134 -0.116707 -1.95252 0
M  V30 7667 O 740.34 -0.020909 -2.71492 0
M  V30 7668 C 738.796 -2.59851 -2.49009 0
M  V30 7669 C 738.404 -4.02008 -1.97722 0
M  V30 7670 C 740.148 -2.71746 -3.2612 0
M  V30 7671 C 738.055 -5.05693 -3.0664 0
M  V30 7672 H 736.985 -0.549068 -0.51676 0
M  V30 7673 H 739.636 -1.71009 -0.665437 0
M  V30 7674 H 738.018 -2.29671 -3.22594 0
M  V30 7675 H 739.192 -4.41809 -1.30925 0
M  V30 7676 H 737.507 -3.94456 -1.33392 0
M  V30 7677 H 740.104 -3.46382 -4.07337 0
M  V30 7678 H 740.447 -1.77959 -3.76346 0
M  V30 7679 H 740.98 -3.01392 -2.5963 0
M  V30 7680 H 737.719 -6.01148 -2.61345 0
M  V30 7681 H 737.239 -4.70473 -3.72042 0
M  V30 7682 H 738.918 -5.29906 -3.71226 0
M  V30 7683 N 739.05 0.861098 -1.31996 0
M  V30 7684 C 740.327 1.59788 -1.12814 0
M  V30 7685 C 740.707 2.08753 0.313882 0
M  V30 7686 O 740.055 1.87258 1.30946 0
M  V30 7687 C 740.265 2.74901 -2.15012 0
M  V30 7688 C 741.613 3.44643 -2.48004 0
M  V30 7689 O 742.637 2.85119 -2.13508 0
M  V30 7690 O 741.496 4.52044 -3.07113 0
M  V30 7691 H 738.59 0.703408 -0.434909 0
M  V30 7692 H 741.136 0.905788 -1.43505 0
M  V30 7693 H 739.908 2.36198 -3.11971 0
M  V30 7694 H 739.531 3.51792 -1.85279 0
M  V30 7695 N 740.528 1.15101 1.07655 0
M  V30 7696 C 741.461 0.788522 2.14144 0
M  V30 7697 C 742.439 -0.233635 1.60913 0
M  V30 7698 O 743.623 -0.120908 1.88112 0
M  V30 7699 C 740.75 0.172033 3.38263 0
M  V30 7700 C 739.796 1.16559 4.10264 0
M  V30 7701 S 740.629 2.70627 4.62084 0
M  V30 7702 C 741.785 2.10389 5.8948 0
M  V30 7703 H 742.018 1.69047 2.44561 0
M  V30 7704 H 739.551 0.973033 1.19881 0
M  V30 7705 H 741.509 -0.177223 4.10117 0
M  V30 7706 H 740.17 -0.707468 3.06029 0
M  V30 7707 H 739.363 0.6824 4.99359 0
M  V30 7708 H 738.965 1.45923 3.44358 0
M  V30 7709 H 741.257 1.46405 6.61492 0
M  V30 7710 H 742.2 2.97639 6.42508 0
M  V30 7711 H 742.608 1.54816 5.42856 0
M  V30 7712 N 742.006 -1.2595 0.947325 0
M  V30 7713 C 743.252 -1.9375 0.599064 0
M  V30 7714 C 743.585 -1.74088 -0.860632 0
M  V30 7715 O 742.86 -1.08158 -1.61654 0
M  V30 7716 C 743.143 -3.47353 0.949634 0
M  V30 7717 C 742.996 -3.76273 2.46452 0
M  V30 7718 C 744.315 -4.37589 0.469442 0
M  V30 7719 H 741.434 -0.703674 0.219115 0
M  V30 7720 H 744.076 -1.48705 1.18266 0
M  V30 7721 H 742.226 -3.8585 0.453008 0
M  V30 7722 H 743.898 -3.47455 3.03435 0
M  V30 7723 H 742.141 -3.22135 2.90537 0
M  V30 7724 H 742.812 -4.83664 2.66032 0
M  V30 7725 H 745.288 -4.06353 0.89534 0
M  V30 7726 H 744.164 -5.43841 0.7435 0
M  V30 7727 H 744.425 -4.37579 -0.630618 0
M  V30 7728 N 743.484 -0.715051 -1.40445 0
M  V30 7729 C 744.447 -0.0708726 -2.2909 0
M  V30 7730 C 745.447 0.687926 -1.45342 0
M  V30 7731 O 746.637 0.519908 -1.66261 0
M  V30 7732 C 743.769 0.909528 -3.28543 0
M  V30 7733 H 744.962 -0.851611 -2.87555 0
M  V30 7734 H 742.515 -0.479674 -1.48758 0
M  V30 7735 H 743.25 1.71734 -2.75096 0
M  V30 7736 H 743.035 0.368318 -3.90366 0
M  V30 7737 H 744.525 1.35744 -3.94922 0
M  V30 7738 N 744.962 1.50701 -0.461195 0
M  V30 7739 C 745.925 2.2686 0.326679 0
M  V30 7740 C 746.925 1.31243 0.929085 0
M  V30 7741 O 748.115 1.54754 0.799807 0
M  V30 7742 C 745.247 3.07844 1.46441 0
M  V30 7743 H 746.44 2.97954 -0.341095 0
M  V30 7744 H 743.993 1.54814 -0.214984 0
M  V30 7745 H 744.728 2.41223 2.16753 0
M  V30 7746 H 744.513 3.78101 1.03836 0
M  V30 7747 H 746.003 3.65469 2.02044 0
M  V30 7748 N 746.441 0.193421 1.56409 0
M  V30 7749 C 747.69 -0.445995 1.96707 0
M  V30 7750 C 748.003 -1.62876 1.08309 0
M  V30 7751 O 749.209 -2.33586 1.38383 0
M  V30 7752 C 747.665 -0.844863 3.49843 0
M  V30 7753 C 747.273 0.31352 4.46902 0
M  V30 7754 C 749.017 -1.45146 3.98915 0
M  V30 7755 C 746.924 -0.106214 5.91305 0
M  V30 7756 H 745.854 -0.170398 0.734493 0
M  V30 7757 H 748.505 0.285172 1.81271 0
M  V30 7758 H 746.887 -1.63265 3.60778 0
M  V30 7759 H 748.061 1.09103 4.47698 0
M  V30 7760 H 746.376 0.8315 4.08014 0
M  V30 7761 H 748.973 -1.77792 5.04276 0
M  V30 7762 H 749.316 -2.35734 3.43126 0
M  V30 7763 H 749.849 -0.727675 3.91088 0
M  V30 7764 H 746.588 0.765442 6.51016 0
M  V30 7765 H 746.108 -0.848623 5.93766 0
M  V30 7766 H 747.787 -0.542588 6.44721 0
M  V30 7767 N 747.919 -1.57396 -0.0801906 0
M  V30 7768 C 749.33 -1.75642 -0.633002 0
M  V30 7769 C 749.681 -0.817708 -1.78348 0
M  V30 7770 O 748.806 0.000233743 -2.164 0
M  V30 7771 C 749.401 -3.18502 -1.15507 0
M  V30 7772 C 747.96 -3.38121 -1.65381 0
M  V30 7773 C 747.107 -2.71386 -0.569661 0
M  V30 7774 H 750.058 -1.58027 0.145949 0
M  V30 7775 H 750.079 -3.22198 -2.02408 0
M  V30 7776 H 749.591 -3.86799 -0.317515 0
M  V30 7777 H 747.692 -2.74926 -2.51488 0
M  V30 7778 H 747.805 -4.46521 -1.73654 0
M  V30 7779 H 746.169 -2.33702 -1.0127 0
M  V30 7780 H 746.952 -3.42332 0.257561 0
M  V30 7781 N 749.397 0.351382 -1.53633 0
M  V30 7782 C 750.644 1.0925 -1.70502 0
M  V30 7783 C 750.972 1.88881 -0.464123 0
M  V30 7784 O 750.227 1.87693 0.554077 0
M  V30 7785 C 750.526 2.06744 -2.91533 0
M  V30 7786 C 750.192 1.43484 -4.27461 0
M  V30 7787 C 748.854 1.2596 -4.64422 0
M  V30 7788 C 751.206 0.978436 -5.11934 0
M  V30 7789 C 748.534 0.614017 -5.83478 0
M  V30 7790 C 750.886 0.346795 -6.31649 0
M  V30 7791 C 749.55 0.15917 -6.6731 0
M  V30 7792 H 748.82 0.399773 -0.623909 0
M  V30 7793 H 751.467 0.372656 -1.87839 0
M  V30 7794 H 749.772 2.85082 -2.68767 0
M  V30 7795 H 751.469 2.64066 -3.01778 0
M  V30 7796 H 748.059 1.5812 -3.98367 0
M  V30 7797 H 752.243 1.1017 -4.83918 0
M  V30 7798 H 747.499 0.457194 -6.09688 0
M  V30 7799 H 751.673 -0.0149864 -6.96398 0
M  V30 7800 H 749.3 -0.343129 -7.59425 0
M  V30 7801 N 750.875 1.45233 0.611969 0
M  V30 7802 C 752.152 1.39495 1.37115 0
M  V30 7803 C 752.532 0.0633303 2.11005 0
M  V30 7804 O 751.88 -0.954617 2.07604 0
M  V30 7805 C 752.09 2.60579 2.32163 0
M  V30 7806 C 753.438 3.05477 2.94905 0
M  V30 7807 O 754.462 2.60921 2.42485 0
M  V30 7808 O 753.321 3.82787 3.90047 0
M  V30 7809 H 750.415 0.55335 0.614599 0
M  V30 7810 H 752.961 1.57355 0.635423 0
M  V30 7811 H 751.733 3.49085 1.76793 0
M  V30 7812 H 751.356 2.45031 3.13122 0
M  V30 7813 N 752.353 -0.854086 1.3245 0
M  V30 7814 C 753.283 -1.97827 1.24044 0
M  V30 7815 C 754.264 -1.69646 0.124166 0
M  V30 7816 O 755.449 -1.91687 0.31143 0
M  V30 7817 C 752.579 -3.33673 0.963324 0
M  V30 7818 C 751.533 -3.76207 2.04089 0
M  V30 7819 C 750.859 -5.0969 1.61618 0
M  V30 7820 C 752.159 -3.91612 3.45597 0
M  V30 7821 H 753.853 -2.05118 2.18099 0
M  V30 7822 H 751.399 -0.985489 1.04996 0
M  V30 7823 H 753.352 -4.11871 0.891061 0
M  V30 7824 H 752.076 -3.26597 -0.0128649 0
M  V30 7825 H 750.735 -3.0026 2.10332 0
M  V30 7826 H 750.383 -4.99072 0.627418 0
M  V30 7827 H 750.083 -5.3912 2.33717 0
M  V30 7828 H 751.607 -5.90381 1.55829 0
M  V30 7829 H 753.021 -4.60163 3.4194 0
M  V30 7830 H 751.418 -4.3246 4.16051 0
M  V30 7831 H 752.488 -2.9451 3.85217 0
M  V30 7832 N 753.831 -1.1567 -1.07043 0
M  V30 7833 C 754.761 -0.879348 -2.16309 0
M  V30 7834 C 755.742 0.171311 -1.69235 0
M  V30 7835 O 756.927 0.0250175 -1.94184 0
M  V30 7836 C 754.057 -0.371307 -3.45309 0
M  V30 7837 C 753.011 -1.359 -4.05851 0
M  V30 7838 C 752.337 -0.709678 -5.29969 0
M  V30 7839 C 753.637 -2.72606 -4.45514 0
M  V30 7840 H 755.331 -1.79308 -2.39768 0
M  V30 7841 H 752.877 -0.863558 -1.15233 0
M  V30 7842 H 754.83 -0.164798 -4.21078 0
M  V30 7843 H 753.554 0.577906 -3.21446 0
M  V30 7844 H 752.213 -1.55193 -3.32131 0
M  V30 7845 H 751.861 0.245782 -5.02399 0
M  V30 7846 H 751.561 -1.36886 -5.71433 0
M  V30 7847 H 753.085 -0.513015 -6.08441 0
M  V30 7848 H 754.499 -2.57141 -5.12398 0
M  V30 7849 H 752.896 -3.34927 -4.97939 0
M  V30 7850 H 753.966 -3.28434 -3.56734 0
M  V30 7851 N 755.309 1.25446 -0.953992 0
M  V30 7852 C 756.558 1.92441 -0.604101 0
M  V30 7853 C 756.871 1.75543 0.862796 0
M  V30 7854 O 758.077 2.37106 1.32262 0
M  V30 7855 C 756.533 3.44854 -1.02974 0
M  V30 7856 C 756.141 3.70464 -2.51914 0
M  V30 7857 C 757.885 4.1778 -0.752352 0
M  V30 7858 C 755.792 5.1638 -2.88281 0
M  V30 7859 H 754.722 0.720508 -0.222227 0
M  V30 7860 H 757.373 1.42318 -1.15836 0
M  V30 7861 H 755.755 3.93935 -0.403904 0
M  V30 7862 H 756.929 3.32038 -3.19511 0
M  V30 7863 H 755.244 3.10797 -2.77117 0
M  V30 7864 H 757.841 5.25261 -1.00024 0
M  V30 7865 H 758.184 4.15135 0.311212 0
M  V30 7866 H 758.717 3.74605 -1.33851 0
M  V30 7867 H 755.456 5.24135 -3.93653 0
M  V30 7868 H 754.976 5.55855 -2.25357 0
M  V30 7869 H 756.655 5.84497 -2.77439 0
M  V30 7870 N 756.787 0.722489 1.40064 0
M  V30 7871 C 758.034 0.264979 2.00759 0
M  V30 7872 C 758.362 -1.14395 1.57302 0
M  V30 7873 O 757.617 -1.79165 0.787298 0
M  V30 7874 C 757.916 0.300682 3.56133 0
M  V30 7875 C 757.582 1.66087 4.19197 0
M  V30 7876 C 756.244 2.03319 4.36136 0
M  V30 7877 C 758.596 2.55452 4.54306 0
M  V30 7878 C 755.924 3.29448 4.8547 0
M  V30 7879 C 758.276 3.8094 5.05042 0
M  V30 7880 C 756.94 4.1828 5.2019 0
M  V30 7881 H 756.21 0.0969625 0.734629 0
M  V30 7882 H 758.857 0.926877 1.67575 0
M  V30 7883 H 757.162 -0.44479 3.89267 0
M  V30 7884 H 758.859 -0.0712542 4.00937 0
M  V30 7885 H 755.449 1.36137 4.06405 0
M  V30 7886 H 759.633 2.27961 4.40849 0
M  V30 7887 H 754.889 3.58338 4.95382 0
M  V30 7888 H 759.063 4.50351 5.31184 0
M  V30 7889 H 756.69 5.16081 5.58179 0
M  V30 7890 N 758.265 -1.50454 0.469181 0
M  V30 7891 C 759.513 -2.01916 -0.0862982 0
M  V30 7892 C 759.834 -1.35337 -1.40388 0
M  V30 7893 O 759.104 -0.498096 -1.89462 0
M  V30 7894 H 757.684 -0.746185 -0.0348825 0
M  V30 7895 H 760.346 -1.84804 0.619167 0
M  V30 7896 H 759.442 -3.11182 -0.239189 0
M  V30 7897 N 759.743 -0.201713 -1.56304 0
M  V30 7898 C 760.968 0.443815 -2.02596 0
M  V30 7899 C 761.393 1.53945 -1.08086 0
M  V30 7900 O 760.751 1.81182 -0.0655056 0
M  V30 7901 C 760.799 0.971066 -3.47279 0
M  V30 7902 O 759.903 2.0836 -3.55893 0
M  V30 7903 H 759.244 0.10294 -0.655972 0
M  V30 7904 H 761.774 -0.314533 -2.02168 0
M  V30 7905 H 761.784 1.28598 -3.87204 0
M  V30 7906 H 760.459 0.169048 -4.15556 0
M  V30 7907 H 759.036 1.77683 -3.27846 0
M  V30 7908 N 761.222 1.57436 0.0718424 0
M  V30 7909 C 762.47 1.86878 0.769484 0
M  V30 7910 C 762.791 0.7937 1.78116 0
M  V30 7911 O 762.061 -0.177642 1.95093 0
M  V30 7912 H 760.641 0.689593 0.287177 0
M  V30 7913 H 763.303 1.94841 0.0479427 0
M  V30 7914 H 762.399 2.84387 1.28572 0
M  V30 7915 N 762.7 -0.34323 1.53817 0
M  V30 7916 C 763.925 -1.1079 1.75329 0
M  V30 7917 C 764.35 -1.81571 0.491293 0
M  V30 7918 O 763.708 -1.72561 -0.556089 0
M  V30 7919 C 763.756 -2.09681 2.9337 0
M  V30 7920 O 762.86 -3.17207 2.63541 0
M  V30 7921 H 762.201 -0.320402 0.581583 0
M  V30 7922 H 764.731 -0.393525 2.0078 0
M  V30 7923 H 764.741 -2.52897 3.20168 0
M  V30 7924 H 763.416 -1.5756 3.84899 0
M  V30 7925 H 761.993 -2.78806 2.47632 0
M  V30 7926 N 764.178 -1.45556 -0.604258 0
M  V30 7927 C 765.088 -1.57025 -1.74299 0
M  V30 7928 C 766.104 -0.45456 -1.67958 0
M  V30 7929 O 767.28 -0.715711 -1.88254 0
M  V30 7930 C 764.345 -1.53702 -3.10768 0
M  V30 7931 C 763.406 -2.76335 -3.28538 0
M  V30 7932 C 762.639 -2.73161 -4.58496 0
M  V30 7933 O 762.862 -1.80678 -5.41028 0
M  V30 7934 O 761.796 -3.64409 -4.79051 0
M  V30 7935 H 765.622 -2.53284 -1.67573 0
M  V30 7936 H 763.207 -1.28104 -0.768745 0
M  V30 7937 H 765.089 -1.54468 -3.92068 0
M  V30 7938 H 763.764 -0.605957 -3.17978 0
M  V30 7939 H 762.671 -2.8113 -2.46813 0
M  V30 7940 H 764.004 -3.68578 -3.26207 0
M  V30 7941 N 765.656 0.84705 -1.32902 0
M  V30 7942 C 766.566 1.98845 -1.2449 0
M  V30 7943 C 767.582 1.7329 -0.15702 0
M  V30 7944 O 768.758 1.978 -0.379104 0
M  V30 7945 C 765.823 3.32679 -0.975985 0
M  V30 7946 C 764.884 3.71405 -2.15306 0
M  V30 7947 C 764.117 4.98853 -1.89688 0
M  V30 7948 O 764.34 5.64134 -0.843168 0
M  V30 7949 O 763.274 5.34889 -2.76002 0
M  V30 7950 H 767.1 2.0888 -2.2046 0
M  V30 7951 H 764.685 0.978852 -1.12867 0
M  V30 7952 H 766.567 4.12885 -0.842826 0
M  V30 7953 H 765.242 3.23667 -0.0464954 0
M  V30 7954 H 764.149 2.91743 -2.34172 0
M  V30 7955 H 765.482 3.85073 -3.06561 0
M  V30 7956 N 767.134 1.16236 1.06428 0
M  V30 7957 C 768.064 0.890807 2.1584 0
M  V30 7958 C 769.045 -0.162333 1.69324 0
M  V30 7959 O 770.23 -0.0147191 1.94194 0
M  V30 7960 C 767.36 0.389615 3.45108 0
M  V30 7961 C 766.314 1.38051 4.05125 0
M  V30 7962 C 765.64 0.737773 5.29586 0
M  V30 7963 C 766.94 2.74965 4.44062 0
M  V30 7964 H 768.634 1.80577 2.38814 0
M  V30 7965 H 766.18 0.869657 1.14774 0
M  V30 7966 H 768.133 0.187127 4.20984 0
M  V30 7967 H 766.857 -0.560851 3.21748 0
M  V30 7968 H 765.516 1.56952 3.31303 0
M  V30 7969 H 765.164 -0.219135 5.02522 0
M  V30 7970 H 764.864 1.39914 5.70699 0
M  V30 7971 H 766.388 0.545275 6.0816 0
M  V30 7972 H 767.802 2.59855 5.11027 0
M  V30 7973 H 766.199 3.37563 4.96156 0
M  V30 7974 H 767.269 3.30321 3.54987 0
M  V30 7975 N 768.612 -1.24939 0.960631 0
M  V30 7976 C 769.861 -1.92118 0.614298 0
M  V30 7977 C 770.174 -1.75998 -0.853474 0
M  V30 7978 O 771.38 -2.37804 -1.31003 0
M  V30 7979 C 769.836 -3.44303 1.04801 0
M  V30 7980 C 769.444 -3.69123 2.53875 0
M  V30 7981 C 771.188 -4.17375 0.774497 0
M  V30 7982 C 769.095 -5.14843 2.91016 0
M  V30 7983 H 768.025 -0.719319 0.226045 0
M  V30 7984 H 770.676 -1.41701 1.16589 0
M  V30 7985 H 769.058 -3.93715 0.42479 0
M  V30 7986 H 770.232 -3.30339 3.21267 0
M  V30 7987 H 768.547 -3.09323 2.78762 0
M  V30 7988 H 771.144 -5.24723 1.02808 0
M  V30 7989 H 771.487 -4.15294 -0.289192 0
M  V30 7990 H 772.02 -3.7389 1.35835 0
M  V30 7991 H 768.759 -5.2204 3.96427 0
M  V30 7992 H 768.279 -5.54652 2.28302 0
M  V30 7993 H 769.958 -5.83017 2.80535 0
M  V30 7994 N 770.09 -0.729906 -1.39679 0
M  V30 7995 C 771.338 -0.275077 -2.00219 0
M  V30 7996 C 771.659 1.1401 -1.58199 0
M  V30 7997 O 770.929 1.77546 -0.827904 0
M  V30 7998 H 769.509 -0.0987127 -0.740449 0
M  V30 7999 H 772.171 -0.93873 -1.70804 0
M  V30 8000 H 771.267 -0.319446 -3.10461 0
M  V30 8001 N 771.568 1.50203 -0.477153 0
M  V30 8002 C 772.498 2.31517 0.303646 0
M  V30 8003 C 773.479 1.38696 0.984753 0
M  V30 8004 O 774.664 1.67615 0.980758 0
M  V30 8005 C 771.794 3.18598 1.38249 0
M  V30 8006 C 770.748 4.2002 0.822645 0
M  V30 8007 C 770.074 4.95878 2.00024 0
M  V30 8008 C 771.374 5.22023 -0.170185 0
M  V30 8009 H 773.068 2.97042 -0.375027 0
M  V30 8010 H 770.614 1.42848 -0.181802 0
M  V30 8011 H 772.567 3.74282 1.93625 0
M  V30 8012 H 771.291 2.5097 2.09002 0
M  V30 8013 H 769.95 3.65445 0.290813 0
M  V30 8014 H 769.598 4.24717 2.69489 0
M  V30 8015 H 769.298 5.64487 1.63183 0
M  V30 8016 H 770.822 5.54399 2.55878 0
M  V30 8017 H 772.236 5.72543 0.294606 0
M  V30 8018 H 770.633 5.98386 -0.453181 0
M  V30 8019 H 771.703 4.72396 -1.09408 0
M  V30 8020 N 773.046 0.209999 1.56195 0
M  V30 8021 C 773.976 -0.699746 2.22769 0
M  V30 8022 C 774.957 -1.20993 1.1956 0
M  V30 8023 O 776.142 -1.25605 1.48112 0
M  V30 8024 C 773.272 -1.91302 2.89863 0
M  V30 8025 C 772.226 -1.53715 3.99444 0
M  V30 8026 C 771.552 -2.82826 4.53777 0
M  V30 8027 C 772.852 -0.735836 5.17091 0
M  V30 8028 H 774.546 -0.144716 2.9905 0
M  V30 8029 H 772.092 -0.0681645 1.43839 0
M  V30 8030 H 774.045 -2.5548 3.35124 0
M  V30 8031 H 772.769 -2.49283 2.11011 0
M  V30 8032 H 771.428 -0.918892 3.54897 0
M  V30 8033 H 771.076 -3.38927 3.71669 0
M  V30 8034 H 770.776 -2.58415 5.27727 0
M  V30 8035 H 772.3 -3.47966 5.01749 0
M  V30 8036 H 773.714 -1.28105 5.58804 0
M  V30 8037 H 772.111 -0.589272 5.972 0
M  V30 8038 H 773.181 0.260004 4.84202 0
M  V30 8039 N 774.524 -1.57472 -0.0634922 0
M  V30 8040 C 775.471 -2.04258 -1.07457 0
M  V30 8041 C 776.441 -0.924804 -1.37973 0
M  V30 8042 O 777.626 -1.19305 -1.48899 0
M  V30 8043 C 774.766 -2.49832 -2.38071 0
M  V30 8044 C 773.879 -3.75263 -2.14014 0
M  V30 8045 C 773.014 -4.09585 -3.38251 0
M  V30 8046 C 772.053 -5.28032 -3.09594 0
M  V30 8047 N 771.19 -5.57953 -4.26185 0
M  V30 8048 H 776.03 -2.90402 -0.668626 0
M  V30 8049 H 773.567 -1.43609 -0.318572 0
M  V30 8050 H 775.525 -2.7431 -3.14341 0
M  V30 8051 H 774.155 -1.66654 -2.76453 0
M  V30 8052 H 773.207 -3.58075 -1.28399 0
M  V30 8053 H 774.519 -4.61667 -1.88852 0
M  V30 8054 H 773.673 -4.35008 -4.2291 0
M  V30 8055 H 772.412 -3.21765 -3.66495 0
M  V30 8056 H 771.417 -5.02397 -2.23332 0
M  V30 8057 H 772.642 -6.17477 -2.82663 0
M  V30 8058 H 770.588 -4.73092 -4.54445 0
M  V30 8059 H 770.505 -6.38793 -4.04326 0
M  V30 8060 H 771.773 -5.87931 -5.11817 0
M  V30 8061 N 776.003 0.335068 -1.53997 0
M  V30 8062 C 777.231 1.09418 -1.756 0
M  V30 8063 C 777.646 1.82083 -0.499138 0
M  V30 8064 O 777.003 1.74646 0.529631 0
M  V30 8065 C 777.054 2.10115 -2.94166 0
M  V30 8066 O 776.775 1.40404 -4.14992 0
M  V30 8067 C 778.276 2.98336 -3.27888 0
M  V30 8068 H 775.496 0.32595 -0.586513 0
M  V30 8069 H 778.04 0.384693 -2.00849 0
M  V30 8070 H 776.195 2.76616 -2.71224 0
M  V30 8071 H 776.609 2.07743 -4.81605 0
M  V30 8072 H 778.083 3.6491 -4.1418 0
M  V30 8073 H 778.56 3.64814 -2.44556 0
M  V30 8074 H 779.166 2.37412 -3.52868 0
M  V30 8075 N 777.481 1.45874 0.596531 0
M  V30 8076 C 778.444 1.54988 1.68853 0
M  V30 8077 C 779.444 0.428302 1.54991 0
M  V30 8078 O 780.634 0.692158 1.59859 0
M  V30 8079 C 777.766 1.457 3.08195 0
M  V30 8080 H 778.959 2.52294 1.62135 0
M  V30 8081 H 776.512 1.33479 0.813206 0
M  V30 8082 H 777.247 0.496204 3.20481 0
M  V30 8083 H 777.032 2.27061 3.19665 0
M  V30 8084 H 778.522 1.55133 3.87716 0
M  V30 8085 N 778.959 -0.83999 1.33349 0
M  V30 8086 C 780.375 -1.13049 1.12659 0
M  V30 8087 C 780.575 -2.01328 -0.0832613 0
M  V30 8088 O 779.631 -2.40669 -0.763856 0
M  V30 8089 C 780.944 -1.79366 2.41347 0
M  V30 8090 C 782.492 -1.91937 2.47243 0
M  V30 8091 C 782.967 -2.6167 3.75889 0
M  V30 8092 N 784.458 -2.69184 3.76954 0
M  V30 8093 C 785.193 -3.23827 4.73206 0
M  V30 8094 N 784.689 -3.79166 5.79832 0
M  V30 8095 N 786.482 -3.22068 4.60683 0
M  V30 8096 H 778.633 -0.252432 2.10895 0
M  V30 8097 H 780.896 -0.174501 0.931801 0
M  V30 8098 H 780.602 -1.2196 3.29877 0
M  V30 8099 H 780.476 -2.79396 2.53412 0
M  V30 8100 H 782.863 -2.48498 1.59163 0
M  V30 8101 H 782.944 -0.908604 2.39119 0
M  V30 8102 H 782.588 -2.05769 4.64351 0
M  V30 8103 H 782.518 -3.63217 3.81289 0
M  V30 8104 H 785.009 -2.2994 2.99893 0
M  V30 8105 H 785.322 -4.19061 6.49313 0
M  V30 8106 H 783.667 -3.77457 5.83568 0
M  V30 8107 H 786.858 -2.78092 3.7654 0
M  V30 8108 H 787.031 -3.64351 5.35866 0
M  V30 8109 N 780.437 -1.16799 -1.0581 0
M  V30 8110 C 781.367 -0.902241 -2.15364 0
M  V30 8111 C 782.348 0.153351 -1.69407 0
M  V30 8112 O 783.533 0.00442032 -1.94199 0
M  V30 8113 C 780.663 -0.407911 -3.44896 0
M  V30 8114 C 779.617 -1.40197 -4.04387 0
M  V30 8115 C 778.943 -0.765848 -5.29187 0
M  V30 8116 C 780.243 -2.77316 -4.42598 0
M  V30 8117 H 781.937 -1.81841 -2.37853 0
M  V30 8118 H 779.483 -0.875731 -1.14311 0
M  V30 8119 H 781.436 -0.20945 -4.20879 0
M  V30 8120 H 780.16 0.54378 -3.22041 0
M  V30 8121 H 778.819 -1.58707 -3.30466 0
M  V30 8122 H 778.467 0.192482 -5.02632 0
M  V30 8123 H 778.167 -1.42939 -5.69949 0
M  V30 8124 H 779.691 -0.577519 -6.07863 0
M  V30 8125 H 781.105 -2.62561 -5.09642 0
M  V30 8126 H 779.502 -3.4019 -4.94359 0
M  V30 8127 H 780.572 -3.32199 -3.53231 0
M  V30 8128 N 781.915 1.24427 -0.967243 0
M  V30 8129 C 782.845 2.2773 -0.515899 0
M  V30 8130 C 783.826 1.64197 0.444227 0
M  V30 8131 O 785.011 1.91193 0.340451 0
M  V30 8132 C 782.141 3.46751 0.195149 0
M  V30 8133 C 781.095 4.22548 -0.680953 0
M  V30 8134 C 780.421 5.34456 0.161561 0
M  V30 8135 C 781.721 4.83914 -1.96532 0
M  V30 8136 H 783.415 2.65735 -1.37933 0
M  V30 8137 H 780.961 1.27742 -0.664681 0
M  V30 8138 H 782.914 4.18153 0.522117 0
M  V30 8139 H 781.638 3.07771 1.09292 0
M  V30 8140 H 780.297 3.52946 -0.991186 0
M  V30 8141 H 779.945 4.91716 1.05947 0
M  V30 8142 H 779.645 5.86087 -0.421418 0
M  V30 8143 H 781.169 6.08685 0.483211 0
M  V30 8144 H 782.583 5.47392 -1.70396 0
M  V30 8145 H 780.98 5.45775 -2.49499 0
M  V30 8146 H 782.05 4.05393 -2.66053 0
M  V30 8147 N 783.393 0.737304 1.3929 0
M  V30 8148 C 784.809 0.413132 1.5416 0
M  V30 8149 C 785.009 -1.07574 1.70382 0
M  V30 8150 O 784.065 -1.86185 1.70562 0
M  V30 8151 C 785.378 1.19817 2.75798 0
M  V30 8152 C 786.926 1.18662 2.89635 0
M  V30 8153 C 787.401 1.95427 4.14213 0
M  V30 8154 N 788.892 1.92605 4.21257 0
M  V30 8155 C 789.627 2.48808 5.16606 0
M  V30 8156 N 789.123 3.13659 6.1773 0
M  V30 8157 N 790.916 2.38829 5.08839 0
M  V30 8158 H 783.067 1.70243 1.27008 0
M  V30 8159 H 785.33 0.720802 0.61575 0
M  V30 8160 H 785.036 2.25179 2.70161 0
M  V30 8161 H 784.91 0.804144 3.68529 0
M  V30 8162 H 787.297 0.141112 2.94762 0
M  V30 8163 H 787.378 1.62003 1.97961 0
M  V30 8164 H 787.022 2.9998 4.09847 0
M  V30 8165 H 786.952 1.4949 5.04936 0
M  V30 8166 H 789.443 1.45362 3.48824 0
M  V30 8167 H 789.756 3.54006 6.8695 0
M  V30 8168 H 788.101 3.17749 6.1811 0
M  V30 8169 H 791.292 1.87806 4.28773 0
M  V30 8170 H 791.465 2.82929 5.82971 0
M  V30 8171 N 784.871 -1.49948 0.485112 0
M  V30 8172 C 785.801 -2.31675 -0.291364 0
M  V30 8173 C 786.782 -1.39216 -0.977383 0
M  V30 8174 O 787.967 -1.68133 -0.971855 0
M  V30 8175 C 785.097 -3.19326 -1.36558 0
M  V30 8176 C 784.051 -4.2045 -0.800359 0
M  V30 8177 C 783.377 -4.96931 -1.97391 0
M  V30 8178 C 784.677 -5.21925 0.197867 0
M  V30 8179 H 786.371 -2.96839 0.390775 0
M  V30 8180 H 783.917 -1.42749 0.189375 0
M  V30 8181 H 785.87 -3.75304 -1.91638 0
M  V30 8182 H 784.594 -2.52074 -2.07668 0
M  V30 8183 H 783.253 -3.65594 -0.271428 0
M  V30 8184 H 782.901 -4.26141 -2.67232 0
M  V30 8185 H 782.601 -5.65344 -1.60187 0
M  V30 8186 H 784.125 -5.55749 -2.52935 0
M  V30 8187 H 785.539 -5.72691 -0.264239 0
M  V30 8188 H 783.936 -5.98138 0.484908 0
M  V30 8189 H 785.006 -4.71809 1.11912 0
M  V30 8190 N 786.349 -0.21828 -1.56081 0
M  V30 8191 C 787.595 0.414921 -1.9851 0
M  V30 8192 C 787.928 1.59648 -1.10573 0
M  V30 8193 O 787.203 1.93818 -0.162695 0
M  V30 8194 C 787.486 0.852647 -3.4986 0
M  V30 8195 C 787.339 -0.33232 -4.48571 0
M  V30 8196 C 788.658 1.70998 -4.05521 0
M  V30 8197 H 785.777 0.149344 -0.72171 0
M  V30 8198 H 788.419 -0.313858 -1.8739 0
M  V30 8199 H 786.569 1.47362 -3.59467 0
M  V30 8200 H 788.241 -0.970418 -4.50977 0
M  V30 8201 H 786.484 -0.980302 -4.22578 0
M  V30 8202 H 787.155 0.0168407 -5.51997 0
M  V30 8203 H 789.631 1.18606 -3.98838 0
M  V30 8204 H 788.507 1.98517 -5.11744 0
M  V30 8205 H 788.768 2.67219 -3.52202 0
M  V30 8206 N 787.827 1.57504 0.0551401 0
M  V30 8207 C 789.243 1.54236 0.410292 0
M  V30 8208 C 789.443 0.940839 1.78187 0
M  V30 8209 O 788.499 0.550541 2.46425 0
M  V30 8210 C 789.812 2.98816 0.336064 0
M  V30 8211 C 791.36 3.10236 0.415047 0
M  V30 8212 C 791.835 4.56499 0.37055 0
M  V30 8213 N 793.326 4.61199 0.43013 0
M  V30 8214 C 794.061 5.71873 0.418179 0
M  V30 8215 N 793.557 6.91864 0.360056 0
M  V30 8216 N 795.35 5.60165 0.465977 0
M  V30 8217 H 787.501 1.94965 -0.842759 0
M  V30 8218 H 789.764 0.893096 -0.317937 0
M  V30 8219 H 789.47 3.4645 -0.605429 0
M  V30 8220 H 789.344 3.59564 1.13988 0
M  V30 8221 H 791.731 2.62566 1.34697 0
M  V30 8222 H 791.812 2.52367 -0.417648 0
M  V30 8223 H 791.456 5.0483 -0.557592 0
M  V30 8224 H 791.386 5.12249 1.221 0
M  V30 8225 H 793.877 3.74857 0.478623 0
M  V30 8226 H 794.19 7.71983 0.35532 0
M  V30 8227 H 792.535 6.94233 0.326492 0
M  V30 8228 H 795.726 4.65322 0.509194 0
M  V30 8229 H 795.899 6.46413 0.453194 0
M  V30 8230 N 789.305 -0.326896 1.54172 0
M  V30 8231 C 790.551 -1.06681 1.72473 0
M  V30 8232 C 790.884 -1.87779 0.49523 0
M  V30 8233 O 790.159 -1.87754 -0.507803 0
M  V30 8234 C 790.442 -1.99429 2.99834 0
M  V30 8235 C 790.295 -1.21682 4.33028 0
M  V30 8236 C 791.614 -2.99002 3.22933 0
M  V30 8237 H 788.733 -0.386438 0.627563 0
M  V30 8238 H 791.375 -0.343779 1.86864 0
M  V30 8239 H 789.525 -2.61081 2.87696 0
M  V30 8240 H 791.197 -0.625153 4.57044 0
M  V30 8241 H 789.44 -0.519045 4.30684 0
M  V30 8242 H 790.111 -1.89766 5.18356 0
M  V30 8243 H 792.587 -2.4747 3.34511 0
M  V30 8244 H 791.463 -3.61085 4.13412 0
M  V30 8245 H 791.724 -3.71281 2.40006 0
M  V30 8246 N 790.784 -1.46188 -0.588786 0
M  V30 8247 C 791.747 -1.55882 -1.68029 0
M  V30 8248 C 792.747 -0.436515 -1.54762 0
M  V30 8249 O 793.937 -0.700626 -1.59489 0
M  V30 8250 C 791.069 -1.47332 -3.07418 0
M  V30 8251 H 792.262 -2.5315 -1.60795 0
M  V30 8252 H 789.815 -1.33908 -0.806116 0
M  V30 8253 H 790.55 -0.513193 -3.20214 0
M  V30 8254 H 790.335 -2.28753 -3.18456 0
M  V30 8255 H 791.825 -1.57187 -3.86887 0
M  V30 8256 N 792.262 0.832906 -1.33792 0
M  V30 8257 C 793.678 1.1245 -1.13257 0
M  V30 8258 C 793.878 2.01369 0.0725832 0
M  V30 8259 O 792.934 2.41071 0.751082 0
M  V30 8260 C 794.247 1.78084 -2.42294 0
M  V30 8261 C 795.795 1.90624 -2.48257 0
M  V30 8262 C 796.27 2.59673 -3.77271 0
M  V30 8263 N 797.761 2.67181 -3.78376 0
M  V30 8264 C 798.496 3.21313 -4.74916 0
M  V30 8265 N 797.992 3.76086 -5.81835 0
M  V30 8266 N 799.785 3.19621 -4.62384 0
M  V30 8267 H 791.936 0.241244 -2.11026 0
M  V30 8268 H 794.199 0.169557 -0.932713 0
M  V30 8269 H 793.905 1.20209 -3.30519 0
M  V30 8270 H 793.779 2.78049 -2.5489 0
M  V30 8271 H 796.166 2.4765 -1.60478 0
M  V30 8272 H 796.247 0.89591 -2.39598 0
M  V30 8273 H 795.891 2.03304 -4.65435 0
M  V30 8274 H 795.821 3.61189 -3.8321 0
M  V30 8275 H 798.312 2.28346 -3.01108 0
M  V30 8276 H 798.625 4.15612 -6.51526 0
M  V30 8277 H 796.97 3.74357 -5.85561 0
M  V30 8278 H 800.161 2.76091 -3.7801 0
M  V30 8279 H 800.334 3.61504 -5.37791 0
M  V30 8280 N 793.74 1.17359 1.05189 0
M  V30 8281 C 794.687 0.890325 2.12936 0
M  V30 8282 C 795.657 -0.165779 1.65271 0
M  V30 8283 O 796.842 -0.0285672 1.90779 0
M  V30 8284 C 793.982 0.409793 3.42658 0
M  V30 8285 C 793.095 1.53002 4.03998 0
M  V30 8286 C 792.23 1.00336 5.21638 0
M  V30 8287 C 791.269 2.09903 5.74984 0
M  V30 8288 N 790.406 1.58714 6.83926 0
M  V30 8289 H 795.246 1.81299 2.36505 0
M  V30 8290 H 792.783 0.904249 1.16025 0
M  V30 8291 H 794.741 0.112743 4.17048 0
M  V30 8292 H 793.371 -0.475915 3.19272 0
M  V30 8293 H 792.423 1.9428 3.27047 0
M  V30 8294 H 793.735 2.3564 4.39631 0
M  V30 8295 H 792.889 0.660158 6.03098 0
M  V30 8296 H 791.628 0.14642 4.8748 0
M  V30 8297 H 790.633 2.45081 4.92154 0
M  V30 8298 H 791.858 2.96013 6.1119 0
M  V30 8299 H 789.804 0.752915 6.51665 0
M  V30 8300 H 789.721 2.34959 7.18561 0
M  V30 8301 H 790.989 1.27287 7.69037 0
M  V30 8302 N 795.218 -1.23913 0.973828 0
M  V30 8303 C 796.148 -2.27453 0.527969 0
M  V30 8304 C 797.129 -1.6443 -0.435513 0
M  V30 8305 O 798.314 -1.9137 -0.330306 0
M  V30 8306 C 795.444 -3.4685 -0.176757 0
M  V30 8307 C 794.398 -4.22181 0.703352 0
M  V30 8308 C 793.724 -5.34534 -0.133215 0
M  V30 8309 C 795.024 -4.82865 1.99096 0
M  V30 8310 H 796.718 -2.65 1.3934 0
M  V30 8311 H 794.264 -1.27388 0.671446 0
M  V30 8312 H 796.217 -4.18424 -0.499934 0
M  V30 8313 H 794.941 -3.08346 -1.07659 0
M  V30 8314 H 793.6 -3.52416 1.00989 0
M  V30 8315 H 793.248 -4.92271 -1.03338 0
M  V30 8316 H 792.948 -5.85855 0.452494 0
M  V30 8317 H 794.472 -6.08933 -0.450924 0
M  V30 8318 H 795.886 -5.46481 1.73297 0
M  V30 8319 H 794.283 -5.44444 2.52389 0
M  V30 8320 H 795.353 -4.03977 2.68199 0
M  V30 8321 N 796.696 -0.74468 -1.38897 0
M  V30 8322 C 797.973 -0.222773 -1.94327 0
M  V30 8323 C 798.353 1.27731 -1.68071 0
M  V30 8324 O 797.701 2.04754 -1.01429 0
M  V30 8325 C 797.911 -0.566836 -3.44366 0
M  V30 8326 C 799.259 -0.521531 -4.21385 0
M  V30 8327 O 800.283 -0.504599 -3.52608 0
M  V30 8328 O 799.142 -0.524595 -5.43976 0
M  V30 8329 H 796.236 -0.0439259 -0.825833 0
M  V30 8330 H 798.782 -0.824197 -1.48341 0
M  V30 8331 H 797.554 -1.60321 -3.56949 0
M  V30 8332 H 797.177 0.0630577 -3.9755 0
M  V30 8333 N 798.174 1.49689 -0.493057 0
M  V30 8334 C 799.59 1.58907 -0.148526 0
M  V30 8335 C 799.79 1.4991 1.34645 0
M  V30 8336 O 798.846 1.36893 2.12171 0
M  V30 8337 C 800.159 2.91996 -0.718265 0
M  V30 8338 C 801.707 3.05443 -0.683658 0
M  V30 8339 C 802.182 4.41138 -1.23132 0
M  V30 8340 N 803.673 4.47608 -1.19167 0
M  V30 8341 C 804.408 5.51038 -1.5857 0
M  V30 8342 N 803.904 6.61612 -2.05528 0
M  V30 8343 N 805.697 5.41706 -1.50036 0
M  V30 8344 H 797.848 1.5378 -1.46511 0
M  V30 8345 H 800.111 0.727996 -0.607228 0
M  V30 8346 H 799.817 3.04123 -1.7664 0
M  V30 8347 H 799.691 3.76798 -0.17419 0
M  V30 8348 H 802.078 2.92949 0.355626 0
M  V30 8349 H 802.159 2.22344 -1.26479 0
M  V30 8350 H 801.803 4.54382 -2.26935 0
M  V30 8351 H 801.733 5.22864 -0.626201 0
M  V30 8352 H 804.224 3.68274 -0.847524 0
M  V30 8353 H 804.537 7.36622 -2.33685 0
M  V30 8354 H 802.882 6.62674 -2.09497 0
M  V30 8355 H 806.073 4.54212 -1.13176 0
M  V30 8356 H 806.246 6.22188 -1.81068 0
M  V30 8357 N 799.652 0.226554 1.55963 0
M  V30 8358 C 800.882 -0.407915 2.02533 0
M  V30 8359 C 801.29 -1.53539 1.10554 0
M  V30 8360 O 800.633 -1.8338 0.108409 0
M  V30 8361 C 800.695 -0.996081 3.45425 0
M  V30 8362 C 800.359 -0.00341651 4.57 0
M  V30 8363 C 801.356 0.798782 5.13727 0
M  V30 8364 C 799.041 0.116786 5.02164 0
M  V30 8365 C 801.035 1.70784 6.14094 0
M  V30 8366 C 798.722 1.02937 6.02368 0
M  V30 8367 C 799.72 1.82344 6.5821 0
M  V30 8368 O 799.408 2.72067 7.56462 0
M  V30 8369 H 799.14 -0.103524 0.668026 0
M  V30 8370 H 801.694 0.341937 2.02534 0
M  V30 8371 H 799.924 -1.79512 3.42509 0
M  V30 8372 H 801.613 -1.53848 3.75614 0
M  V30 8373 H 802.379 0.716393 4.7968 0
M  V30 8374 H 798.258 -0.491172 4.58376 0
M  V30 8375 H 801.802 2.32807 6.57607 0
M  V30 8376 H 797.699 1.11276 6.35836 0
M  V30 8377 H 798.467 2.66199 7.74003 0
M  V30 8378 N 801.13 -1.57531 -0.0467866 0
M  V30 8379 C 802.355 -1.93087 -0.757123 0
M  V30 8380 C 802.78 -0.825116 -1.69037 0
M  V30 8381 O 802.138 0.220449 -1.79955 0
M  V30 8382 C 802.186 -3.27669 -1.5055 0
M  V30 8383 O 801.29 -3.18667 -2.61773 0
M  V30 8384 H 800.631 -0.631597 -0.204892 0
M  V30 8385 H 803.161 -2.04599 -0.00755232 0
M  V30 8386 H 803.171 -3.6214 -1.87932 0
M  V30 8387 H 801.846 -4.07717 -0.820931 0
M  V30 8388 H 800.423 -2.95798 -2.27064 0
M  V30 8389 N 802.608 0.318715 -1.54344 0
M  V30 8390 C 803.518 1.41535 -1.87097 0
M  V30 8391 C 804.534 1.56361 -0.763353 0
M  V30 8392 O 805.71 1.71365 -1.05811 0
M  V30 8393 C 802.775 2.76178 -2.09587 0
M  V30 8394 C 801.836 2.70486 -3.3337 0
M  V30 8395 C 801.069 3.98708 -3.54778 0
M  V30 8396 O 801.292 4.9721 -2.79532 0
M  V30 8397 O 800.226 4.01674 -4.48266 0
M  V30 8398 H 804.052 1.16764 -2.80357 0
M  V30 8399 H 801.637 0.51318 -1.4031 0
M  V30 8400 H 803.519 3.55873 -2.25682 0
M  V30 8401 H 802.194 3.00829 -1.19514 0
M  V30 8402 H 801.101 1.89325 -3.22656 0
M  V30 8403 H 802.434 2.50789 -4.23516 0
M  V30 8404 N 804.086 1.46499 0.581025 0
M  V30 8405 C 805.316 1.55244 1.36319 0
M  V30 8406 C 805.724 0.193059 1.88212 0
M  V30 8407 O 805.067 -0.820109 1.64377 0
M  V30 8408 C 805.129 2.498 2.58535 0
M  V30 8409 C 804.793 3.96007 2.28096 0
M  V30 8410 C 805.79 4.85171 1.8683 0
M  V30 8411 C 803.475 4.41152 2.40189 0
M  V30 8412 C 805.469 6.17493 1.58053 0
M  V30 8413 C 803.156 5.73508 2.11024 0
M  V30 8414 C 804.154 6.615 1.70021 0
M  V30 8415 O 803.842 7.914 1.41215 0
M  V30 8416 H 803.574 0.527513 0.422736 0
M  V30 8417 H 806.128 1.92623 0.713139 0
M  V30 8418 H 804.358 2.07443 3.2635 0
M  V30 8419 H 806.047 2.48934 3.20604 0
M  V30 8420 H 806.813 4.51548 1.77001 0
M  V30 8421 H 802.692 3.72886 2.71066 0
M  V30 8422 H 806.236 6.86131 1.25974 0
M  V30 8423 H 802.133 6.06679 2.20478 0
M  V30 8424 H 802.901 8.03681 1.55046 0
M  V30 8425 N 805.565 -0.825799 1.34232 0
M  V30 8426 C 806.813 -1.57873 1.26177 0
M  V30 8427 C 807.134 -1.94267 -0.168904 0
M  V30 8428 O 806.404 -1.62045 -1.10084 0
M  V30 8429 H 804.984 -0.585388 0.464037 0
M  V30 8430 H 807.646 -0.986163 1.6811 0
M  V30 8431 H 806.742 -2.50283 1.86453 0
M  V30 8432 N 807.043 -1.17915 -1.04565 0
M  V30 8433 C 808.006 -0.903787 -2.10628 0
M  V30 8434 C 809.006 0.10873 -1.60432 0
M  V30 8435 O 810.196 -0.124152 -1.73757 0
M  V30 8436 C 807.328 -0.355017 -3.39046 0
M  V30 8437 H 808.521 -1.84425 -2.3649 0
M  V30 8438 H 806.074 -0.990477 -1.2091 0
M  V30 8439 H 806.809 0.592297 -3.18845 0
M  V30 8440 H 806.594 -1.08484 -3.76794 0
M  V30 8441 H 808.084 -0.180891 -4.17208 0
M  V30 8442 N 808.521 1.23394 -0.980386 0
M  V30 8443 C 809.484 2.23092 -0.525619 0
M  V30 8444 C 810.484 1.56129 0.384745 0
M  V30 8445 O 811.674 1.73284 0.178439 0
M  V30 8446 C 808.806 3.40074 0.23712 0
M  V30 8447 H 809.999 2.64839 -1.40714 0
M  V30 8448 H 807.552 1.36227 -0.766275 0
M  V30 8449 H 808.287 3.03783 1.13518 0
M  V30 8450 H 808.072 3.89883 -0.416356 0
M  V30 8451 H 809.562 4.14043 0.543892 0
M  V30 8452 N 809.999 0.752036 1.385 0
M  V30 8453 C 811.245 0.307958 2.00448 0
M  V30 8454 C 811.578 -1.10702 1.59558 0
M  V30 8455 O 810.853 -1.75788 0.832391 0
M  V30 8456 C 811.136 0.429092 3.57534 0
M  V30 8457 C 810.989 1.88507 4.08393 0
M  V30 8458 C 812.308 -0.178442 4.39738 0
M  V30 8459 H 809.427 0.113373 0.728228 0
M  V30 8460 H 812.069 0.951389 1.64465 0
M  V30 8461 H 810.219 -0.118695 3.88319 0
M  V30 8462 H 811.891 2.49104 3.88259 0
M  V30 8463 H 810.134 2.40066 3.61318 0
M  V30 8464 H 810.805 1.92099 5.17496 0
M  V30 8465 H 813.281 0.28872 4.15097 0
M  V30 8466 H 812.157 -0.0634349 5.48863 0
M  V30 8467 H 812.418 -1.26655 4.23569 0
M  V30 8468 N 811.477 -1.49425 0.500989 0
M  V30 8469 C 812.407 -2.31971 -0.266775 0
M  V30 8470 C 813.388 -1.40245 -0.962563 0
M  V30 8471 O 814.573 -1.69154 -0.953968 0
M  V30 8472 C 811.703 -3.20757 -1.33163 0
M  V30 8473 C 810.657 -4.21275 -0.75572 0
M  V30 8474 C 809.983 -4.98997 -1.92109 0
M  V30 8475 C 811.283 -5.21686 0.253213 0
M  V30 8476 H 812.977 -2.96408 0.422237 0
M  V30 8477 H 810.523 -1.4254 0.204505 0
M  V30 8478 H 812.476 -3.77315 -1.87646 0
M  V30 8479 H 811.2 -2.54263 -2.04983 0
M  V30 8480 H 809.859 -3.65861 -0.232637 0
M  V30 8481 H 809.507 -4.28951 -2.62698 0
M  V30 8482 H 809.207 -5.67011 -1.54182 0
M  V30 8483 H 810.731 -5.584 -2.47026 0
M  V30 8484 H 812.145 -5.72939 -0.203483 0
M  V30 8485 H 810.542 -5.9759 0.548322 0
M  V30 8486 H 811.612 -4.70596 1.16909 0
M  V30 8487 N 812.955 -0.234822 -1.55841 0
M  V30 8488 C 814.202 0.39326 -1.98645 0
M  V30 8489 C 814.53 1.58823 -1.12274 0
M  V30 8490 O 813.785 1.94954 -0.170731 0
M  V30 8491 C 814.084 0.858032 -3.46947 0
M  V30 8492 C 813.75 -0.227858 -4.50324 0
M  V30 8493 C 812.412 -0.526128 -4.78315 0
M  V30 8494 C 814.764 -0.961576 -5.12253 0
M  V30 8495 C 812.092 -1.5624 -5.65514 0
M  V30 8496 C 814.444 -1.98728 -6.00575 0
M  V30 8497 C 813.108 -2.29233 -6.26904 0
M  V30 8498 H 812.378 0.143904 -0.726892 0
M  V30 8499 H 815.025 -0.34012 -1.88455 0
M  V30 8500 H 813.33 1.67041 -3.54408 0
M  V30 8501 H 815.027 1.35407 -3.77447 0
M  V30 8502 H 811.617 0.0147624 -4.28597 0
M  V30 8503 H 815.801 -0.744388 -4.90686 0
M  V30 8504 H 811.057 -1.80422 -5.84173 0
M  V30 8505 H 815.231 -2.5608 -6.47608 0
M  V30 8506 H 812.858 -3.09671 -6.94268 0
M  V30 8507 N 814.433 1.57553 0.0384317 0
M  V30 8508 C 815.363 2.0898 1.04161 0
M  V30 8509 C 816.344 0.99029 1.38301 0
M  V30 8510 O 817.529 1.26499 1.47349 0
M  V30 8511 C 814.659 2.56145 2.34536 0
M  V30 8512 C 813.613 3.70275 2.14663 0
M  V30 8513 C 812.939 4.03612 3.50715 0
M  V30 8514 C 814.239 4.99067 1.54045 0
M  V30 8515 H 815.933 2.93046 0.613548 0
M  V30 8516 H 813.479 1.40973 0.293684 0
M  V30 8517 H 815.432 2.90741 3.05037 0
M  V30 8518 H 814.156 1.6915 2.79385 0
M  V30 8519 H 812.815 3.36013 1.46597 0
M  V30 8520 H 812.463 3.13698 3.93195 0
M  V30 8521 H 812.163 4.80482 3.38247 0
M  V30 8522 H 813.687 4.40735 4.22593 0
M  V30 8523 H 815.101 5.3168 2.14451 0
M  V30 8524 H 813.498 5.80484 1.52178 0
M  V30 8525 H 814.568 4.8226 0.505259 0
M  V30 8526 N 815.911 -0.310526 1.54511 0
M  V30 8527 C 816.841 -1.38757 1.878 0
M  V30 8528 C 817.822 -1.53353 0.735991 0
M  V30 8529 O 819.007 -1.67018 0.990887 0
M  V30 8530 C 816.137 -2.75327 2.11689 0
M  V30 8531 C 815.091 -2.75506 3.27537 0
M  V30 8532 C 814.417 -4.15275 3.36824 0
M  V30 8533 C 815.717 -2.38093 4.64875 0
M  V30 8534 H 817.411 -1.11146 2.78005 0
M  V30 8535 H 814.957 -0.533232 1.33763 0
M  V30 8536 H 816.91 -3.50752 2.33562 0
M  V30 8537 H 815.634 -3.04443 1.18245 0
M  V30 8538 H 814.293 -2.02538 3.05572 0
M  V30 8539 H 813.941 -4.41553 2.40915 0
M  V30 8540 H 813.641 -4.16299 4.14692 0
M  V30 8541 H 815.165 -4.92493 3.60947 0
M  V30 8542 H 816.579 -3.03232 4.86542 0
M  V30 8543 H 814.976 -2.50345 5.45387 0
M  V30 8544 H 816.046 -1.33227 4.66239 0
M  V30 8545 N 817.389 -1.46805 -0.573248 0
M  V30 8546 C 818.322 -1.52608 -1.69665 0
M  V30 8547 C 819.3 -0.379426 -1.58111 0
M  V30 8548 O 820.484 -0.584938 -1.79195 0
M  V30 8549 C 817.611 -1.41355 -3.07793 0
M  V30 8550 C 816.657 -2.60321 -3.37839 0
M  V30 8551 S 817.49 -4.22622 -3.28863 0
M  V30 8552 C 818.646 -4.13894 -4.69513 0
M  V30 8553 H 818.879 -2.47653 -1.64485 0
M  V30 8554 H 816.412 -1.34806 -0.752769 0
M  V30 8555 H 818.37 -1.35549 -3.87475 0
M  V30 8556 H 817.031 -0.477213 -3.10454 0
M  V30 8557 H 816.224 -2.48466 -4.38498 0
M  V30 8558 H 815.826 -2.63165 -2.65745 0
M  V30 8559 H 818.118 -3.81158 -5.60111 0
M  V30 8560 H 819.061 -5.14584 -4.86425 0
M  V30 8561 H 819.469 -3.44998 -4.46807 0
M  V30 8562 N 818.867 0.818669 -1.34668 0
M  V30 8563 C 820.107 1.58862 -1.28617 0
M  V30 8564 C 820.471 1.91483 0.140845 0
M  V30 8565 O 821.672 2.66821 0.325583 0
M  V30 8566 C 819.943 2.85044 -2.15604 0
M  V30 8567 S 821.502 3.75553 -2.26948 0
M  V30 8568 H 818.32 0.544454 -0.457265 0
M  V30 8569 H 820.922 0.966679 -1.69928 0
M  V30 8570 H 819.626 2.59083 -3.18284 0
M  V30 8571 H 819.157 3.52231 -1.75205 0
M  V30 8572 H 821.172 4.74682 -1.44539 0
M  V30 8573 N 820.346 1.18468 1.03938 0
M  V30 8574 C 821.574 1.00576 1.80809 0
M  V30 8575 C 821.989 -0.445786 1.83462 0
M  V30 8576 O 821.346 -1.30964 1.27101 0
M  V30 8577 C 821.397 1.55491 3.26351 0
M  V30 8578 O 821.118 2.94963 3.23926 0
M  V30 8579 C 822.619 1.42236 4.19862 0
M  V30 8580 H 819.839 0.35508 0.56935 0
M  V30 8581 H 822.383 1.57046 1.30984 0
M  V30 8582 H 820.538 1.03195 3.73403 0
M  V30 8583 H 820.952 3.20598 4.15111 0
M  V30 8584 H 822.426 1.85455 5.19914 0
M  V30 8585 H 822.903 0.371267 4.37628 0
M  V30 8586 H 823.509 1.9361 3.78675 0
M  V30 8587 N 821.824 -1.22873 0.986916 0
M  V30 8588 C 823.071 -1.91462 0.659424 0
M  V30 8589 C 823.399 -1.76931 -0.807825 0
M  V30 8590 O 822.654 -1.12829 -1.59901 0
M  V30 8591 C 822.953 -3.43014 1.00379 0
M  V30 8592 C 822.619 -3.77731 2.46232 0
M  V30 8593 C 821.281 -3.86918 2.86091 0
M  V30 8594 C 823.633 -3.94343 3.40798 0
M  V30 8595 C 820.961 -4.10149 4.19518 0
M  V30 8596 C 823.313 -4.19076 4.73875 0
M  V30 8597 C 821.977 -4.26486 5.13484 0
M  V30 8598 H 821.247 -0.700611 0.2413 0
M  V30 8599 H 823.894 -1.45763 1.24199 0
M  V30 8600 H 822.199 -3.90329 0.339226 0
M  V30 8601 H 823.896 -3.94327 0.728518 0
M  V30 8602 H 820.486 -3.71159 2.14334 0
M  V30 8603 H 824.67 -3.86629 3.11178 0
M  V30 8604 H 819.926 -4.1411 4.49803 0
M  V30 8605 H 824.1 -4.30873 5.47102 0
M  V30 8606 H 821.727 -4.4424 6.16891 0
M  V30 8607 N 823.302 -0.75937 -1.38099 0
M  V30 8608 C 824.265 -0.14372 -2.28749 0
M  V30 8609 C 825.265 0.641338 -1.47457 0
M  V30 8610 O 826.455 0.466751 -1.67831 0
M  V30 8611 C 823.587 0.804545 -3.3127 0
M  V30 8612 H 824.78 -0.942663 -2.847 0
M  V30 8613 H 822.333 -0.526757 -1.47156 0
M  V30 8614 H 823.068 1.62895 -2.80421 0
M  V30 8615 H 822.853 0.243939 -3.9134 0
M  V30 8616 H 824.343 1.23111 -3.99041 0
M  V30 8617 N 824.78 1.49157 -0.508906 0
M  V30 8618 C 825.71 2.32109 0.254469 0
M  V30 8619 C 826.691 1.40754 0.955111 0
M  V30 8620 O 827.876 1.69658 0.944983 0
M  V30 8621 C 825.006 3.21458 1.3146 0
M  V30 8622 C 823.96 4.2167 0.733368 0
M  V30 8623 C 823.286 5.00009 1.8946 0
M  V30 8624 C 824.586 5.21544 -0.280875 0
M  V30 8625 H 826.28 2.9618 -0.43795 0
M  V30 8626 H 823.826 1.4243 -0.212062 0
M  V30 8627 H 825.779 3.78305 1.85643 0
M  V30 8628 H 824.503 2.55346 2.03632 0
M  V30 8629 H 823.162 3.65979 0.213231 0
M  V30 8630 H 822.81 4.30338 2.60419 0
M  V30 8631 H 822.51 5.67821 1.51173 0
M  V30 8632 H 824.034 5.59702 2.44061 0
M  V30 8633 H 825.448 5.73039 0.173095 0
M  V30 8634 H 823.845 5.97291 -0.580006 0
M  V30 8635 H 824.915 4.69969 -1.19404 0
M  V30 8636 N 826.258 0.243083 1.55714 0
M  V30 8637 C 827.507 -0.383188 1.98027 0
M  V30 8638 C 827.82 -1.59347 1.13436 0
M  V30 8639 O 829.026 -2.29065 1.45745 0
M  V30 8640 C 827.482 -0.733135 3.52354 0
M  V30 8641 C 827.09 0.455539 4.45678 0
M  V30 8642 C 828.834 -1.32381 4.03331 0
M  V30 8643 C 826.741 0.0819591 5.91343 0
M  V30 8644 H 825.671 -0.146944 0.739543 0
M  V30 8645 H 828.322 0.342697 1.80272 0
M  V30 8646 H 826.704 -1.51704 3.65789 0
M  V30 8647 H 827.878 1.23291 4.44 0
M  V30 8648 H 826.193 0.960886 4.05162 0
M  V30 8649 H 828.79 -1.61658 5.09677 0
M  V30 8650 H 829.133 -2.24698 3.50452 0
M  V30 8651 H 829.666 -0.602885 3.93205 0
M  V30 8652 H 826.405 0.972171 6.48251 0
M  V30 8653 H 825.925 -0.659291 5.96166 0
M  V30 8654 H 827.604 -0.3372 6.46121 0
M  V30 8655 N 827.736 -1.57571 -0.0300757 0
M  V30 8656 C 828.699 -2.05468 -1.01565 0
M  V30 8657 C 829.699 -0.958628 -1.29101 0
M  V30 8658 O 830.889 -1.22228 -1.24121 0
M  V30 8659 C 828.021 -2.47077 -2.34874 0
M  V30 8660 H 829.214 -2.93797 -0.601936 0
M  V30 8661 H 826.767 -1.53828 -0.276878 0
M  V30 8662 H 827.502 -1.61901 -2.80996 0
M  V30 8663 H 827.287 -3.27097 -2.16218 0
M  V30 8664 H 828.777 -2.84564 -3.05635 0
M  V30 8665 N 829.214 0.302327 -1.54673 0
M  V30 8666 C 830.164 1.37443 -1.81916 0
M  V30 8667 C 831.148 1.45999 -0.676251 0
M  V30 8668 O 832.34 1.50174 -0.93685 0
M  V30 8669 C 829.469 2.73966 -2.06876 0
M  V30 8670 C 828.555 2.69637 -3.27348 0
M  V30 8671 N 828.946 2.34926 -4.47933 0
M  V30 8672 C 827.244 3.00742 -3.29348 0
M  V30 8673 C 827.945 2.39862 -5.29944 0
M  V30 8674 N 826.921 2.77163 -4.67634 0
M  V30 8675 H 830.723 1.09567 -2.72713 0
M  V30 8676 H 828.237 0.5109 -1.54154 0
M  V30 8677 H 830.234 3.51265 -2.2454 0
M  V30 8678 H 828.894 3.02754 -1.17346 0
M  V30 8679 H 829.905 2.07403 -4.74557 0
M  V30 8680 H 826.582 3.34434 -2.49921 0
M  V30 8681 H 827.972 2.15835 -6.3629 0
M  V30 8682 N 830.692 1.47107 0.565454 0
M  V30 8683 C 831.938 1.54519 1.3227 0
M  V30 8684 C 832.293 0.201313 1.91344 0
M  V30 8685 O 831.586 -0.792058 1.74462 0
M  V30 8686 C 831.78 2.59309 2.45954 0
M  V30 8687 C 831.609 4.03756 1.98019 0
M  V30 8688 C 830.379 4.71293 1.8224 0
M  V30 8689 C 832.577 4.91029 1.52955 0
M  V30 8690 N 830.559 6.00288 1.28557 0
M  V30 8691 C 831.93 6.09986 1.10981 0
M  V30 8692 C 833.985 4.77539 1.4093 0
M  V30 8693 C 832.688 7.16943 0.581796 0
M  V30 8694 C 834.714 5.84584 0.895307 0
M  V30 8695 C 834.076 7.02725 0.485454 0
M  V30 8696 H 830.175 0.620177 0.476345 0
M  V30 8697 H 832.759 1.83814 0.641901 0
M  V30 8698 H 830.93 2.31896 3.11575 0
M  V30 8699 H 832.662 2.56614 3.1294 0
M  V30 8700 H 829.417 4.27074 2.04707 0
M  V30 8701 H 829.841 6.68991 1.03828 0
M  V30 8702 H 834.483 3.86574 1.71231 0
M  V30 8703 H 832.201 8.07661 0.266399 0
M  V30 8704 H 835.787 5.76191 0.805939 0
M  V30 8705 H 834.667 7.84144 0.0938828 0
M  V30 8706 N 832.17 -0.811516 1.35101 0
M  V30 8707 C 833.1 -1.9378 1.30275 0
M  V30 8708 C 834.081 -1.69165 0.178075 0
M  V30 8709 O 835.266 -1.90599 0.372256 0
M  V30 8710 C 832.396 -3.30439 1.06899 0
M  V30 8711 C 831.35 -3.69523 2.15955 0
M  V30 8712 C 830.676 -5.0429 1.77751 0
M  V30 8713 C 831.976 -3.80419 3.57881 0
M  V30 8714 H 833.67 -1.98075 2.24514 0
M  V30 8715 H 831.216 -0.951586 1.08078 0
M  V30 8716 H 833.169 -4.08828 1.02164 0
M  V30 8717 H 831.893 -3.26473 0.0910462 0
M  V30 8718 H 830.552 -2.93416 2.19778 0
M  V30 8719 H 830.2 -4.96823 0.785876 0
M  V30 8720 H 829.9 -5.31411 2.5075 0
M  V30 8721 H 831.424 -5.85125 1.74533 0
M  V30 8722 H 832.838 -4.49051 3.56407 0
M  V30 8723 H 831.235 -4.19005 4.29598 0
M  V30 8724 H 832.305 -2.82105 3.94391 0
M  V30 8725 N 833.648 -1.19017 -1.03309 0
M  V30 8726 C 834.611 -0.926076 -2.09658 0
M  V30 8727 C 835.611 0.0917077 -1.60538 0
M  V30 8728 O 836.801 -0.142574 -1.73616 0
M  V30 8729 C 833.933 -0.390958 -3.38651 0
M  V30 8730 H 835.126 -1.86923 -2.3452 0
M  V30 8731 H 832.679 -1.00325 -1.19853 0
M  V30 8732 H 833.414 0.558446 -3.19456 0
M  V30 8733 H 833.199 -1.12474 -3.75622 0
M  V30 8734 H 834.689 -0.225131 -4.16993 0
M  V30 8735 N 835.127 1.22348 -0.993418 0
M  V30 8736 C 836.367 1.92835 -0.677779 0
M  V30 8737 C 836.731 1.75624 0.775893 0
M  V30 8738 O 837.932 2.40379 1.20297 0
M  V30 8739 C 836.203 3.40906 -1.07322 0
M  V30 8740 S 837.762 4.29966 -0.876032 0
M  V30 8741 H 834.58 0.666421 -0.247799 0
M  V30 8742 H 837.182 1.48133 -1.27581 0
M  V30 8743 H 835.886 3.50946 -2.12756 0
M  V30 8744 H 835.417 3.90618 -0.467015 0
M  V30 8745 H 837.432 4.95652 0.233162 0
M  V30 8746 N 836.605 0.766683 1.37694 0
M  V30 8747 C 837.854 0.325425 1.99057 0
M  V30 8748 C 838.167 -1.10275 1.61551 0
M  V30 8749 O 839.373 -1.64513 2.1598 0
M  V30 8750 C 837.829 0.530886 3.55963 0
M  V30 8751 C 837.437 1.96899 4.02411 0
M  V30 8752 C 839.181 0.152997 4.24224 0
M  V30 8753 C 837.088 2.12232 5.52007 0
M  V30 8754 H 836.018 0.117929 0.744721 0
M  V30 8755 H 838.669 0.945091 1.5729 0
M  V30 8756 H 837.051 -0.158162 3.95684 0
M  V30 8757 H 838.225 2.69258 3.73948 0
M  V30 8758 H 836.54 2.303 3.46916 0
M  V30 8759 H 839.137 0.24614 5.34133 0
M  V30 8760 H 839.48 -0.896096 4.06541 0
M  V30 8761 H 840.013 0.794398 3.89787 0
M  V30 8762 H 836.752 3.15442 5.7461 0
M  V30 8763 H 836.272 1.4435 5.82171 0
M  V30 8764 H 837.951 1.9185 6.17902 0
M  V30 8765 N 838.083 -1.48885 0.516809 0
M  V30 8766 C 839.329 -2.03395 -0.0140225 0
M  V30 8767 C 839.684 -1.38808 -1.33229 0
M  V30 8768 O 838.977 -0.520104 -1.84406 0
M  V30 8769 C 839.171 -3.56801 -0.206798 0
M  V30 8770 C 839 -4.36259 1.09124 0
M  V30 8771 C 837.77 -4.77689 1.64745 0
M  V30 8772 C 839.968 -4.73881 1.99854 0
M  V30 8773 N 837.95 -5.41634 2.88975 0
M  V30 8774 C 839.321 -5.37707 3.08661 0
M  V30 8775 C 841.376 -4.55816 2.00341 0
M  V30 8776 C 840.079 -5.85379 4.18001 0
M  V30 8777 C 842.105 -5.04459 3.08666 0
M  V30 8778 C 841.467 -5.68299 4.16191 0
M  V30 8779 H 837.566 -0.781169 0.036042 0
M  V30 8780 H 840.15 -1.81867 0.695173 0
M  V30 8781 H 838.321 -3.78181 -0.885064 0
M  V30 8782 H 840.053 -3.9795 -0.736053 0
M  V30 8783 H 836.808 -4.58392 1.19054 0
M  V30 8784 H 837.232 -5.78181 3.52187 0
M  V30 8785 H 841.874 -4.05851 1.18511 0
M  V30 8786 H 839.592 -6.34356 5.00618 0
M  V30 8787 H 843.178 -4.92281 3.10082 0
M  V30 8788 H 842.058 -6.05257 4.98631 0
M  V30 8789 N 839.561 -0.251338 -1.55583 0
M  V30 8790 C 840.791 0.375642 -2.03156 0
M  V30 8791 C 841.199 1.51761 -1.12983 0
M  V30 8792 O 840.542 1.83184 -0.13757 0
M  V30 8793 C 840.604 0.941001 -3.46966 0
M  V30 8794 C 840.268 -0.0692886 -4.56947 0
M  V30 8795 C 841.265 -0.88041 -5.12391 0
M  V30 8796 C 838.95 -0.196661 -5.01915 0
M  V30 8797 C 840.944 -1.80532 -6.11299 0
M  V30 8798 C 838.631 -1.12507 -6.00654 0
M  V30 8799 C 839.629 -1.92792 -6.55225 0
M  V30 8800 O 839.317 -2.84067 -7.52038 0
M  V30 8801 H 839.049 0.0928836 -0.669588 0
M  V30 8802 H 841.603 -0.374115 -2.01964 0
M  V30 8803 H 839.833 1.7404 -3.45322 0
M  V30 8804 H 841.522 1.47853 -3.78014 0
M  V30 8805 H 842.288 -0.792615 -4.78479 0
M  V30 8806 H 838.167 0.418187 -4.59099 0
M  V30 8807 H 841.711 -2.43239 -6.5382 0
M  V30 8808 H 837.608 -1.21377 -6.33986 0
M  V30 8809 H 838.376 -2.78479 -7.6967 0
M  V30 8810 N 841.039 1.57585 0.0217189 0
M  V30 8811 C 842.002 2.06004 1.00474 0
M  V30 8812 C 843.002 0.965461 1.2859 0
M  V30 8813 O 844.192 1.22884 1.23471 0
M  V30 8814 C 841.324 2.48319 2.33561 0
M  V30 8815 H 842.517 2.94112 0.586346 0
M  V30 8816 H 840.07 1.53973 0.268716 0
M  V30 8817 H 840.805 1.63389 2.80133 0
M  V30 8818 H 840.59 3.28239 2.1448 0
M  V30 8819 H 842.08 2.86181 3.04122 0
M  V30 8820 N 842.517 -0.29412 1.54831 0
M  V30 8821 C 843.766 -1.02614 1.73647 0
M  V30 8822 C 844.079 -1.88193 0.533162 0
M  V30 8823 O 845.285 -2.64713 0.603275 0
M  V30 8824 C 843.741 -1.87417 3.07251 0
M  V30 8825 C 843.349 -1.06806 4.35082 0
M  V30 8826 C 845.093 -2.60176 3.35423 0
M  V30 8827 C 843 -1.90926 5.59733 0
M  V30 8828 H 841.93 -0.386834 0.647206 0
M  V30 8829 H 844.581 -0.282789 1.81308 0
M  V30 8830 H 842.963 -2.65765 2.93572 0
M  V30 8831 H 844.137 -0.330226 4.59615 0
M  V30 8832 H 842.452 -0.455979 4.13896 0
M  V30 8833 H 845.049 -3.23476 4.25755 0
M  V30 8834 H 845.392 -3.29365 2.54606 0
M  V30 8835 H 845.925 -1.88871 3.50103 0
M  V30 8836 H 842.664 -1.26194 6.43238 0
M  V30 8837 H 842.184 -2.62363 5.39375 0
M  V30 8838 H 843.863 -2.48807 5.97247 0
M  V30 8839 N 843.995 -1.47404 -0.557645 0
M  V30 8840 C 845.243 -1.53703 -1.31224 0
M  V30 8841 C 845.564 -0.200742 -1.93964 0
M  V30 8842 O 844.834 0.775253 -1.79907 0
M  V30 8843 H 843.414 -0.566171 -0.487299 0
M  V30 8844 H 846.076 -1.83699 -0.651195 0
M  V30 8845 H 845.172 -2.30335 -2.10599 0
M  V30 8846 N 845.473 0.80434 -1.35529 0
M  V30 8847 C 846.421 1.93769 -1.28671 0
M  V30 8848 C 847.415 1.68428 -0.181222 0
M  V30 8849 O 848.621 1.76617 -0.347338 0
M  V30 8850 H 844.996 0.636663 -0.400206 0
M  V30 8851 H 846.967 1.96673 -2.24415 0
M  V30 8852 C 845.716 3.30572 -1.07784 0
M  V30 8853 H 845.039 3.5063 -1.9209 0
M  V30 8854 H 846.479 4.1027 -1.07027 0
M  V30 8855 C 844.938 3.36193 0.218213 0
M  V30 8856 O 845.468 3.82941 1.21323 0
M  V30 8857 N 843.674 2.89455 0.257761 0
M  V30 8858 H 843.221 2.51604 -0.552562 0
M  V30 8859 H 843.179 2.93597 1.12465 0
M  V30 8860 N 846.951 1.19563 1.02676 0
M  V30 8861 C 847.884 0.878638 2.10607 0
M  V30 8862 C 848.862 -0.165176 1.61759 0
M  V30 8863 O 850.046 -0.041014 1.88455 0
M  V30 8864 C 847.173 0.315347 3.37229 0
M  V30 8865 C 846.219 1.33855 4.04951 0
M  V30 8866 S 847.052 2.89982 4.50189 0
M  V30 8867 C 848.208 2.35202 5.80027 0
M  V30 8868 H 848.441 1.79268 2.37171 0
M  V30 8869 H 845.974 1.023 1.15646 0
M  V30 8870 H 847.932 -0.00311911 4.105 0
M  V30 8871 H 846.593 -0.577035 3.08754 0
M  V30 8872 H 845.786 0.893581 4.96015 0
M  V30 8873 H 845.388 1.60397 3.37859 0
M  V30 8874 H 847.68 1.74329 6.54687 0
M  V30 8875 H 848.623 3.24622 6.29306 0
M  V30 8876 H 849.031 1.77702 5.35801 0
M  V30 8877 N 848.429 -1.21819 0.999893 0
M  V30 8878 C 849.339 -2.27691 0.565159 0
M  V30 8879 C 850.355 -1.69587 -0.389398 0
M  V30 8880 O 851.531 -1.99786 -0.254499 0
M  V30 8881 C 848.596 -3.46537 -0.106432 0
M  V30 8882 C 847.657 -4.19932 0.891964 0
M  V30 8883 C 846.89 -5.33103 0.252327 0
M  V30 8884 O 847.113 -5.62398 -0.952103 0
M  V30 8885 O 846.047 -5.94184 0.960698 0
M  V30 8886 H 849.873 -2.67059 1.44613 0
M  V30 8887 H 847.458 -1.28119 0.768499 0
M  V30 8888 H 849.34 -4.18631 -0.482301 0
M  V30 8889 H 848.015 -3.09079 -0.961865 0
M  V30 8890 H 846.922 -3.5008 1.3189 0
M  V30 8891 H 848.255 -4.61287 1.71682 0
M  V30 8892 N 849.908 -0.773975 -1.37286 0
M  V30 8893 C 850.84 -0.119938 -2.28886 0
M  V30 8894 C 851.853 0.661822 -1.48741 0
M  V30 8895 O 853.042 0.499548 -1.71367 0
M  V30 8896 C 850.142 0.853703 -3.27971 0
M  V30 8897 C 849.315 0.125286 -4.37221 0
M  V30 8898 C 848.374 1.01261 -5.16365 0
M  V30 8899 O 847.4 0.475565 -5.6721 0
M  V30 8900 N 848.602 2.33864 -5.31308 0
M  V30 8901 H 851.367 -0.906702 -2.85655 0
M  V30 8902 H 848.928 -0.626519 -1.49286 0
M  V30 8903 H 850.92 1.4508 -3.77801 0
M  V30 8904 H 849.49 1.54142 -2.71954 0
M  V30 8905 H 848.71 -0.652742 -3.88758 0
M  V30 8906 H 849.998 -0.377959 -5.07394 0
M  V30 8907 H 849.396 2.79929 -4.91585 0
M  V30 8908 H 847.953 2.88575 -5.84438 0
M  V30 8909 N 851.386 1.48609 -0.524698 0
M  V30 8910 C 852.797 1.86516 -0.0828846 0
M  V30 8911 C 853.148 1.43478 1.33822 0
M  V30 8912 O 852.273 0.823139 2.00133 0
M  V30 8913 C 852.868 3.38495 -0.143639 0
M  V30 8914 C 851.427 3.75615 0.242951 0
M  V30 8915 C 850.574 2.72649 -0.505747 0
M  V30 8916 H 853.525 1.40589 -0.736233 0
M  V30 8917 H 853.546 3.74977 0.645955 0
M  V30 8918 H 853.058 3.69789 -1.17805 0
M  V30 8919 H 851.159 3.49935 1.27971 0
M  V30 8920 H 851.272 4.7901 -0.0929834 0
M  V30 8921 H 849.636 2.54656 0.0473482 0
M  V30 8922 H 850.419 3.06786 -1.54069 0
M  V30 8923 N 852.864 0.259585 1.55447 0
M  V30 8924 C 853.814 -0.648769 2.18575 0
M  V30 8925 C 854.798 -1.1299 1.14552 0
M  V30 8926 O 855.99 -1.07756 1.4042 0
M  V30 8927 C 853.119 -1.83963 2.89849 0
M  V30 8928 C 852.205 -1.37641 4.01143 0
M  V30 8929 N 852.596 -0.628269 5.01883 0
M  V30 8930 C 850.894 -1.66066 4.1393 0
M  V30 8931 C 851.595 -0.386746 5.80413 0
M  V30 8932 N 850.571 -0.954665 5.35151 0
M  V30 8933 H 854.373 -0.0691616 2.93819 0
M  V30 8934 H 851.887 0.0624525 1.6228 0
M  V30 8935 H 853.884 -2.50151 3.33512 0
M  V30 8936 H 852.544 -2.42334 2.16112 0
M  V30 8937 H 853.555 -0.277123 5.17158 0
M  V30 8938 H 850.232 -2.25484 3.51373 0
M  V30 8939 H 851.622 0.211382 6.71567 0
M  V30 8940 N 854.342 -1.57594 -0.0133615 0
M  V30 8941 C 855.275 -2.02991 -1.04259 0
M  V30 8942 C 856.253 -0.917193 -1.34262 0
M  V30 8943 O 857.437 -1.18428 -1.46653 0
M  V30 8944 C 854.564 -2.41624 -2.37351 0
M  V30 8945 C 853.61 -3.63495 -2.231 0
M  V30 8946 S 854.443 -5.1198 -1.5696 0
M  V30 8947 C 855.599 -5.5387 -2.91511 0
M  V30 8948 H 855.832 -2.89973 -0.655985 0
M  V30 8949 H 853.365 -1.52769 -0.223827 0
M  V30 8950 H 855.323 -2.64551 -3.13884 0
M  V30 8951 H 853.984 -1.55065 -2.73155 0
M  V30 8952 H 853.177 -3.88233 -3.21389 0
M  V30 8953 H 852.779 -3.405 -1.54711 0
M  V30 8954 H 855.071 -5.55514 -3.87828 0
M  V30 8955 H 856.014 -6.53988 -2.71488 0
M  V30 8956 H 856.422 -4.81404 -2.94806 0
M  V30 8957 N 855.82 0.285905 -1.54985 0
M  V30 8958 C 857.097 1.0397 -1.65679 0
M  V30 8959 C 857.477 2.04725 -0.514851 0
M  V30 8960 O 856.825 2.23257 0.486663 0
M  V30 8961 C 857.035 1.70807 -3.04345 0
M  V30 8962 C 858.383 2.22447 -3.61666 0
M  V30 8963 O 859.407 1.80815 -3.06895 0
M  V30 8964 O 858.266 2.98773 -4.57599 0
M  V30 8965 H 855.36 0.481473 -0.672394 0
M  V30 8966 H 857.906 0.282789 -1.67327 0
M  V30 8967 H 856.678 0.977271 -3.789 0
M  V30 8968 H 856.301 2.53217 -3.06541 0
M  V30 8969 N 857.298 1.47698 0.54982 0
M  V30 8970 C 858.523 1.58579 1.33669 0
M  V30 8971 C 858.948 0.239049 1.86575 0
M  V30 8972 O 858.306 -0.786256 1.63364 0
M  V30 8973 C 858.354 2.62029 2.47736 0
M  V30 8974 O 857.458 2.17813 3.50188 0
M  V30 8975 H 856.799 0.532447 0.396732 0
M  V30 8976 H 859.329 1.93536 0.6637 0
M  V30 8977 H 859.339 2.82682 2.94202 0
M  V30 8978 H 858.014 3.59812 2.08586 0
M  V30 8979 H 856.591 2.07291 3.09976 0
M  V30 8980 N 858.776 -0.797141 1.35954 0
M  V30 8981 C 860.192 -1.09408 1.16198 0
M  V30 8982 C 860.392 -2.01491 -0.0191682 0
M  V30 8983 O 859.448 -2.42977 -0.686902 0
M  V30 8984 C 860.761 -1.71597 2.46931 0
M  V30 8985 C 862.309 -1.83974 2.53224 0
M  V30 8986 C 862.784 -2.49579 3.84024 0
M  V30 8987 N 864.275 -2.57055 3.85327 0
M  V30 8988 C 865.01 -3.08608 4.83268 0
M  V30 8989 N 864.506 -3.60527 5.91601 0
M  V30 8990 N 866.299 -3.07249 4.70696 0
M  V30 8991 H 858.45 -0.185209 2.11591 0
M  V30 8992 H 860.713 -0.144768 0.936881 0
M  V30 8993 H 860.419 -1.11404 3.3359 0
M  V30 8994 H 860.293 -2.71193 2.62172 0
M  V30 8995 H 862.68 -2.43308 1.66988 0
M  V30 8996 H 862.761 -0.83207 2.41889 0
M  V30 8997 H 862.405 -1.90892 4.70662 0
M  V30 8998 H 862.335 -3.50902 3.92651 0
M  V30 8999 H 864.826 -2.20283 3.07057 0
M  V30 9000 H 865.139 -3.98192 6.62317 0
M  V30 9001 H 863.484 -3.587 5.95281 0
M  V30 9002 H 866.675 -2.65972 3.85197 0
M  V30 9003 H 866.848 -3.47119 5.47186 0
M  V30 9004 N 860.254 -1.20106 -1.0204 0
M  V30 9005 C 861.503 -1.00316 -1.74985 0
M  V30 9006 C 861.816 0.465814 -1.89972 0
M  V30 9007 O 863.022 0.782749 -2.59972 0
M  V30 9008 C 861.478 -1.74608 -3.14706 0
M  V30 9009 C 861.086 -3.25573 -3.07744 0
M  V30 9010 C 862.83 -1.63172 -3.91887 0
M  V30 9011 C 860.737 -3.92419 -4.42449 0
M  V30 9012 H 859.667 -0.371728 -0.655999 0
M  V30 9013 H 862.318 -1.43688 -1.14131 0
M  V30 9014 H 860.7 -1.24021 -3.76078 0
M  V30 9015 H 861.874 -3.83345 -2.55702 0
M  V30 9016 H 860.189 -3.3738 -2.44057 0
M  V30 9017 H 862.786 -2.10457 -4.9154 0
M  V30 9018 H 863.129 -0.58728 -4.12137 0
M  V30 9019 H 863.662 -2.11152 -3.37135 0
M  V30 9020 H 860.401 -4.96998 -4.27403 0
M  V30 9021 H 859.921 -3.39436 -4.94513 0
M  V30 9022 H 861.6 -3.96453 -5.11306 0
M  V30 9023 N 861.732 1.21287 -1.00634 0
M  V30 9024 C 862.98 1.90013 -0.688438 0
M  V30 9025 C 863.301 1.78573 0.783365 0
M  V30 9026 O 862.571 1.1815 1.56261 0
M  V30 9027 H 861.151 0.703336 -0.251648 0
M  V30 9028 H 863.813 1.47346 -1.27574 0
M  V30 9029 H 862.909 2.96879 -0.962781 0
M  V30 9030 N 863.21 0.781244 1.36873 0
M  V30 9031 C 864.456 0.359455 2.00199 0
M  V30 9032 C 864.811 -1.05495 1.60899 0
M  V30 9033 O 864.104 -1.7173 0.849664 0
M  V30 9034 C 864.298 0.45146 3.54537 0
M  V30 9035 C 864.127 1.87326 4.08826 0
M  V30 9036 C 862.897 2.49606 4.39346 0
M  V30 9037 C 865.095 2.8342 4.29159 0
M  V30 9038 N 863.077 3.8346 4.79408 0
M  V30 9039 C 864.448 4.02091 4.71935 0
M  V30 9040 C 866.503 2.80583 4.11312 0
M  V30 9041 C 865.206 5.18322 4.98733 0
M  V30 9042 C 867.232 3.95995 4.39251 0
M  V30 9043 C 866.594 5.13409 4.82276 0
M  V30 9044 H 862.693 0.178778 0.76129 0
M  V30 9045 H 865.277 1.0171 1.66022 0
M  V30 9046 H 863.448 -0.176055 3.88001 0
M  V30 9047 H 865.18 0.00670219 4.04699 0
M  V30 9048 H 861.935 2.01149 4.28761 0
M  V30 9049 H 862.359 4.52306 5.03735 0
M  V30 9050 H 867.001 1.90974 3.77212 0
M  V30 9051 H 864.719 6.08524 5.31718 0
M  V30 9052 H 868.305 3.95152 4.2702 0
M  V30 9053 H 867.185 6.01232 5.03478 0
M  V30 9054 N 864.689 -1.48329 0.532571 0
M  V30 9055 C 865.619 -2.32485 -0.217511 0
M  V30 9056 C 866.6 -1.42255 -0.932598 0
M  V30 9057 O 867.785 -1.7114 -0.917873 0
M  V30 9058 C 864.915 -3.23509 -1.26329 0
M  V30 9059 C 863.869 -4.22784 -0.666191 0
M  V30 9060 C 863.195 -5.0296 -1.81482 0
M  V30 9061 C 864.495 -5.21031 0.363813 0
M  V30 9062 H 866.189 -2.95445 0.485014 0
M  V30 9063 H 863.735 -1.42075 0.234694 0
M  V30 9064 H 865.688 -3.81211 -1.79601 0
M  V30 9065 H 864.412 -2.58554 -1.99543 0
M  V30 9066 H 863.071 -3.66272 -0.15498 0
M  V30 9067 H 862.719 -4.34427 -2.5354 0
M  V30 9068 H 862.419 -5.70154 -1.4212 0
M  V30 9069 H 863.943 -5.63514 -2.35126 0
M  V30 9070 H 865.357 -5.73241 -0.0819079 0
M  V30 9071 H 863.754 -5.96292 0.674956 0
M  V30 9072 H 864.824 -4.6801 1.26865 0
M  V30 9073 N 866.167 -0.267825 -1.55308 0
M  V30 9074 C 867.117 0.637168 -2.18916 0
M  V30 9075 C 868.101 1.12381 -1.15149 0
M  V30 9076 O 869.293 1.0701 -1.40989 0
M  V30 9077 C 866.422 1.82423 -2.90821 0
M  V30 9078 C 865.508 1.35512 -4.01867 0
M  V30 9079 N 865.899 0.601644 -5.02209 0
M  V30 9080 C 864.197 1.63868 -4.14805 0
M  V30 9081 C 864.898 0.35596 -5.8061 0
M  V30 9082 N 863.874 0.926271 -5.3565 0
M  V30 9083 H 867.676 0.0535787 -2.93851 0
M  V30 9084 H 865.19 -0.0710577 -1.62244 0
M  V30 9085 H 867.187 2.48379 -3.34834 0
M  V30 9086 H 865.847 2.41185 -2.17394 0
M  V30 9087 H 866.858 0.249693 -5.17298 0
M  V30 9088 H 863.535 2.23618 -3.52564 0
M  V30 9089 H 864.925 -0.246994 -6.71446 0
M  V30 9090 N 867.645 1.57599 0.00500368 0
M  V30 9091 C 868.593 2.09223 1.01628 0
M  V30 9092 C 869.587 1.01113 1.35913 0
M  V30 9093 O 870.793 1.19583 1.34536 0
M  V30 9094 H 867.168 0.667999 0.345372 0
M  V30 9095 H 869.139 2.93188 0.555274 0
M  V30 9096 C 867.888 2.60674 2.30097 0
M  V30 9097 H 867.211 3.43491 2.04582 0
M  V30 9098 H 868.651 3.00479 2.99146 0
M  V30 9099 C 867.11 1.51862 3.00731 0
M  V30 9100 O 867.64 0.898651 3.91519 0
M  V30 9101 N 865.846 1.24729 2.62471 0
M  V30 9102 H 865.393 1.7533 1.88725 0
M  V30 9103 H 865.351 0.521437 3.10046 0
M  V30 9104 N 869.123 -0.277682 1.55134 0
M  V30 9105 C 870.053 -1.34742 1.90701 0
M  V30 9106 C 871.034 -1.51757 0.768354 0
M  V30 9107 O 872.219 -1.64879 1.02609 0
M  V30 9108 C 869.349 -2.70775 2.17481 0
M  V30 9109 C 868.303 -2.68497 3.33307 0
M  V30 9110 C 867.629 -4.08037 3.45557 0
M  V30 9111 C 868.929 -2.28178 4.69821 0
M  V30 9112 H 870.623 -1.05224 2.803 0
M  V30 9113 H 868.169 -0.504738 1.34864 0
M  V30 9114 H 870.122 -3.45719 2.40949 0
M  V30 9115 H 868.846 -3.01867 1.24676 0
M  V30 9116 H 867.505 -1.9601 3.09799 0
M  V30 9117 H 867.153 -4.36344 2.50226 0
M  V30 9118 H 866.853 -4.07409 4.23429 0
M  V30 9119 H 868.377 -4.84726 3.71312 0
M  V30 9120 H 869.791 -2.92843 4.92865 0
M  V30 9121 H 868.188 -2.3872 5.50575 0
M  V30 9122 H 869.258 -1.23308 4.6896 0
M  V30 9123 N 870.601 -1.47988 -0.541979 0
M  V30 9124 C 871.849 -1.55086 -1.29587 0
M  V30 9125 C 872.17 -0.221304 -1.9374 0
M  V30 9126 O 871.44 0.756128 -1.80719 0
M  V30 9127 H 870.02 -0.571307 -0.481266 0
M  V30 9128 H 872.682 -1.8438 -0.631675 0
M  V30 9129 H 871.778 -2.32556 -2.08144 0
M  V30 9130 N 872.079 0.78992 -1.36375 0
M  V30 9131 C 873.356 1.53584 -1.21126 0
M  V30 9132 C 873.736 2.10124 0.202785 0
M  V30 9133 O 873.084 1.93936 1.20835 0
M  V30 9134 C 873.294 2.63117 -2.29282 0
M  V30 9135 C 874.642 3.31013 -2.65924 0
M  V30 9136 O 875.666 2.734 -2.28321 0
M  V30 9137 O 874.525 4.35129 -3.30643 0
M  V30 9138 H 871.619 0.679366 -0.471583 0
M  V30 9139 H 874.165 0.828446 -1.48104 0
M  V30 9140 H 872.937 2.19329 -3.24053 0
M  V30 9141 H 872.56 3.41476 -2.03666 0
M  V30 9142 N 873.557 1.20646 1.01402 0
M  V30 9143 C 874.489 0.915392 2.10127 0
M  V30 9144 C 875.502 -0.0978705 1.62506 0
M  V30 9145 O 876.691 0.133477 1.78 0
M  V30 9146 C 873.791 0.351304 3.37074 0
M  V30 9147 C 872.964 1.41673 4.13821 0
M  V30 9148 C 872.023 0.8635 5.19067 0
M  V30 9149 O 871.049 1.54481 5.47836 0
M  V30 9150 N 872.251 -0.325799 5.79585 0
M  V30 9151 H 875.016 1.85132 2.35682 0
M  V30 9152 H 872.577 1.11048 1.17813 0
M  V30 9153 H 874.569 -0.032996 4.04687 0
M  V30 9154 H 873.139 -0.489242 3.08748 0
M  V30 9155 H 872.359 1.97526 3.41141 0
M  V30 9156 H 873.647 2.1342 4.61876 0
M  V30 9157 H 873.045 -0.896534 5.58551 0
M  V30 9158 H 871.602 -0.651708 6.48534 0
M  V30 9159 N 875.035 -1.20752 1.01276 0
M  V30 9160 C 876.284 -1.8934 0.695229 0
M  V30 9161 C 876.597 -1.79459 -0.77806 0
M  V30 9162 O 877.803 -2.43146 -1.20799 0
M  V30 9163 C 876.259 -3.39548 1.1931 0
M  V30 9164 C 875.867 -3.58023 2.69302 0
M  V30 9165 C 877.611 -4.13714 0.950823 0
M  V30 9166 C 875.518 -5.02037 3.1259 0
M  V30 9167 H 874.448 -0.709084 0.25635 0
M  V30 9168 H 877.099 -1.36629 1.22494 0
M  V30 9169 H 875.481 -3.91559 0.591395 0
M  V30 9170 H 876.655 -3.16416 3.34989 0
M  V30 9171 H 874.97 -2.97222 2.9163 0
M  V30 9172 H 877.567 -5.19891 1.24971 0
M  V30 9173 H 877.91 -4.16147 -0.112791 0
M  V30 9174 H 878.443 -3.67792 1.51571 0
M  V30 9175 H 875.182 -5.04757 4.18211 0
M  V30 9176 H 874.702 -5.44469 2.51621 0
M  V30 9177 H 876.381 -5.70594 3.0501 0
M  V30 9178 N 876.513 -0.788492 -1.36457 0
M  V30 9179 C 877.761 -0.359749 -1.98872 0
M  V30 9180 C 878.082 1.07197 -1.62892 0
M  V30 9181 O 877.352 1.73875 -0.902463 0
M  V30 9182 H 875.932 -0.130029 -0.735596 0
M  V30 9183 H 878.594 -1.01033 -1.66668 0
M  V30 9184 H 877.69 -0.450835 -3.08827 0
M  V30 9185 N 877.991 1.48044 -0.54043 0
M  V30 9186 C 878.938 2.29781 0.216597 0
M  V30 9187 C 879.908 1.38021 0.924094 0
M  V30 9188 O 881.093 1.66985 0.923078 0
M  V30 9189 C 878.233 3.21623 1.2511 0
M  V30 9190 C 877.346 4.28467 0.551384 0
M  V30 9191 C 876.481 5.07477 1.56972 0
M  V30 9192 C 875.52 6.06113 0.854048 0
M  V30 9193 N 874.657 6.78143 1.81842 0
M  V30 9194 H 879.497 2.94001 -0.486578 0
M  V30 9195 H 877.034 1.44929 -0.251789 0
M  V30 9196 H 878.992 3.73279 1.8633 0
M  V30 9197 H 877.622 2.59305 1.92252 0
M  V30 9198 H 876.674 3.79997 -0.174982 0
M  V30 9199 H 877.986 4.98799 -0.0100542 0
M  V30 9200 H 877.14 5.63199 2.25592 0
M  V30 9201 H 875.879 4.37008 2.16507 0
M  V30 9202 H 874.884 5.49585 0.153838 0
M  V30 9203 H 876.109 6.78584 0.264675 0
M  V30 9204 H 874.055 6.10417 2.40265 0
M  V30 9205 H 873.972 7.44587 1.3087 0
M  V30 9206 H 875.24 7.38448 2.49628 0
M  V30 9207 N 879.47 0.276058 1.55163 0
M  V30 9208 C 880.881 -0.221516 1.85381 0
M  V30 9209 C 881.232 -1.55372 1.19808 0
M  V30 9210 O 880.357 -2.10855 0.486742 0
M  V30 9211 C 880.952 -0.408706 3.36326 0
M  V30 9212 C 879.511 -0.850512 3.66665 0
M  V30 9213 C 878.658 0.055656 2.77244 0
M  V30 9214 H 881.609 0.497819 1.5069 0
M  V30 9215 H 881.63 -1.24711 3.59482 0
M  V30 9216 H 881.142 0.561052 3.84023 0
M  V30 9217 H 879.243 -1.83171 3.24468 0
M  V30 9218 H 879.356 -0.687181 4.74146 0
M  V30 9219 H 877.72 -0.460819 2.50497 0
M  V30 9220 H 878.503 1.02131 3.27756 0
M  V30 9221 N 880.948 -1.576 0.00335426 0
M  V30 9222 C 882.178 -1.94713 -0.690682 0
M  V30 9223 C 882.586 -0.876915 -1.67651 0
M  V30 9224 O 881.929 0.152434 -1.83066 0
M  V30 9225 C 881.991 -3.27833 -1.47532 0
M  V30 9226 C 881.655 -4.52344 -0.650704 0
M  V30 9227 C 882.652 -5.19862 0.0630537 0
M  V30 9228 C 880.337 -4.98755 -0.595687 0
M  V30 9229 C 882.331 -6.32093 0.820779 0
M  V30 9230 C 880.018 -6.10875 0.165761 0
M  V30 9231 C 881.016 -6.77401 0.872724 0
M  V30 9232 O 880.704 -7.87372 1.62174 0
M  V30 9233 H 880.436 -0.646627 -0.197104 0
M  V30 9234 H 882.99 -2.05335 0.0516082 0
M  V30 9235 H 881.22 -3.13628 -2.26217 0
M  V30 9236 H 882.909 -3.50034 -2.05501 0
M  V30 9237 H 883.675 -4.84991 0.0297223 0
M  V30 9238 H 879.554 -4.46797 -1.13549 0
M  V30 9239 H 883.098 -6.83953 1.37312 0
M  V30 9240 H 878.995 -6.45187 0.200901 0
M  V30 9241 H 879.763 -8.03905 1.5388 0
M  V30 9242 N 882.426 0.269451 -1.5528 0
M  V30 9243 C 883.374 1.35303 -1.89198 0
M  V30 9244 C 884.368 1.50956 -0.768671 0
M  V30 9245 O 885.574 1.52699 -0.953054 0
M  V30 9246 H 881.949 0.452591 -0.600554 0
M  V30 9247 H 883.92 1.03949 -2.79709 0
M  V30 9248 C 882.669 2.70585 -2.18356 0
M  V30 9249 H 881.992 2.59332 -3.04281 0
M  V30 9250 H 883.432 3.45335 -2.46007 0
M  V30 9251 C 881.891 3.21954 -0.992327 0
M  V30 9252 O 882.421 4.01048 -0.228769 0
M  V30 9253 N 880.627 2.79682 -0.789062 0
M  V30 9254 H 880.174 2.15475 -1.41167 0
M  V30 9255 H 880.132 3.14399 0.00634776 0
M  V30 9256 N 883.904 1.48273 0.534124 0
M  V30 9257 C 885.129 1.59988 1.31979 0
M  V30 9258 C 885.554 0.258824 1.86311 0
M  V30 9259 O 884.912 -0.768885 1.64188 0
M  V30 9260 C 884.96 2.64642 2.44943 0
M  V30 9261 O 884.064 2.21515 3.47858 0
M  V30 9262 H 883.405 0.536625 0.391063 0
M  V30 9263 H 885.935 1.94229 0.643135 0
M  V30 9264 H 885.945 2.85786 2.91187 0
M  V30 9265 H 884.62 3.62004 2.04758 0
M  V30 9266 H 883.197 2.10567 3.0776 0
M  V30 9267 N 885.382 -0.782676 1.36792 0
M  V30 9268 C 886.607 -1.57676 1.34733 0
M  V30 9269 C 887.032 -1.87979 -0.0675253 0
M  V30 9270 O 886.39 -1.48404 -1.04144 0
M  V30 9271 C 886.438 -2.87047 2.18257 0
M  V30 9272 O 885.542 -3.80946 1.57969 0
M  V30 9273 H 884.883 -0.478034 0.460846 0
M  V30 9274 H 887.413 -0.969578 1.80168 0
M  V30 9275 H 887.423 -3.36254 2.31079 0
M  V30 9276 H 886.098 -2.64319 3.21104 0
M  V30 9277 H 884.675 -3.39558 1.54126 0
M  V30 9278 N 886.86 -1.21182 -1.00761 0
M  V30 9279 C 888.108 -1.02543 -1.74153 0
M  V30 9280 C 888.429 0.442372 -1.89916 0
M  V30 9281 O 887.699 1.31927 -1.44818 0
M  V30 9282 H 886.279 -0.37644 -0.645214 0
M  V30 9283 H 888.941 -1.52446 -1.21434 0
M  V30 9284 H 888.037 -1.49122 -2.7417 0
M  V30 9285 N 888.338 1.20213 -1.01915 0
M  V30 9286 C 889.268 2.25336 -0.612023 0
M  V30 9287 C 890.249 1.65933 0.374186 0
M  V30 9288 O 891.434 1.92464 0.259053 0
M  V30 9289 C 888.564 3.47267 0.047904 0
M  V30 9290 C 887.518 4.1928 -0.859557 0
M  V30 9291 C 886.844 5.3466 -0.0652655 0
M  V30 9292 C 888.144 4.75143 -2.1688 0
M  V30 9293 H 889.838 2.59645 -1.49079 0
M  V30 9294 H 887.384 1.24808 -0.718263 0
M  V30 9295 H 889.337 4.19991 0.344294 0
M  V30 9296 H 888.061 3.12129 0.961404 0
M  V30 9297 H 886.72 3.48425 -1.13999 0
M  V30 9298 H 886.368 4.95767 0.849964 0
M  V30 9299 H 886.068 5.83772 -0.669618 0
M  V30 9300 H 887.592 6.10187 0.224612 0
M  V30 9301 H 889.006 5.39672 -1.9346 0
M  V30 9302 H 887.403 5.34702 -2.72422 0
M  V30 9303 H 888.473 3.93744 -2.83008 0
M  V30 9304 N 889.816 0.795718 1.36037 0
M  V30 9305 C 891.064 0.370291 1.98679 0
M  V30 9306 C 891.385 -1.06332 1.63458 0
M  V30 9307 O 890.655 -1.73394 0.911671 0
M  V30 9308 H 889.235 0.133928 0.734896 0
M  V30 9309 H 891.897 1.01915 1.6613 0
M  V30 9310 H 890.993 0.467207 3.08583 0
M  V30 9311 N 891.294 -1.47756 0.548274 0
M  V30 9312 C 892.542 -2.02089 0.0208542 0
M  V30 9313 C 892.863 -1.42589 -1.33017 0
M  V30 9314 O 892.133 -0.597825 -1.86555 0
M  V30 9315 H 890.713 -0.746985 0.00472023 0
M  V30 9316 H 893.375 -1.81262 0.716257 0
M  V30 9317 H 892.471 -3.12012 -0.0739016 0
M  V30 9318 N 892.772 -0.284283 -1.55015 0
M  V30 9319 C 894.183 0.211681 -1.85496 0
M  V30 9320 C 894.534 1.54735 -1.2063 0
M  V30 9321 O 893.659 2.10594 -0.497918 0
M  V30 9322 C 894.254 0.390864 -3.36538 0
M  V30 9323 C 892.813 0.831055 -3.67111 0
M  V30 9324 C 891.96 -0.0703581 -2.77211 0
M  V30 9325 H 894.911 -0.505803 -1.50424 0
M  V30 9326 H 894.932 1.22803 -3.60138 0
M  V30 9327 H 894.444 -0.581409 -3.8372 0
M  V30 9328 H 892.545 1.81447 -3.25434 0
M  V30 9329 H 892.658 0.662026 -4.74504 0
M  V30 9330 H 891.022 0.447528 -2.50737 0
M  V30 9331 H 891.805 -1.03868 -3.2721 0
M  V30 9332 N 894.251 1.57596 -0.0117121 0
M  V30 9333 C 895.476 1.95764 0.684938 0
M  V30 9334 C 895.901 0.887285 1.65858 0
M  V30 9335 O 895.259 -0.153508 1.80649 0
M  V30 9336 C 895.307 3.33031 1.38285 0
M  V30 9337 O 894.411 3.28163 2.49765 0
M  V30 9338 H 893.752 0.638767 0.181309 0
M  V30 9339 H 896.282 2.04486 -0.0683883 0
M  V30 9340 H 896.292 3.68866 1.74362 0
M  V30 9341 H 894.967 4.10483 0.669043 0
M  V30 9342 H 893.544 3.04021 2.15929 0
M  V30 9343 N 895.729 -0.261212 1.5542 0
M  V30 9344 C 896.978 -0.989072 1.75785 0
M  V30 9345 C 897.291 -1.8702 0.572961 0
M  V30 9346 O 898.497 -2.63374 0.659289 0
M  V30 9347 C 896.953 -1.80857 3.11157 0
M  V30 9348 C 896.561 -0.975535 4.3725 0
M  V30 9349 C 898.305 -2.53003 3.40866 0
M  V30 9350 C 896.212 -1.7901 5.63657 0
M  V30 9351 H 895.142 -0.373019 0.655266 0
M  V30 9352 H 897.793 -0.244267 1.81867 0
M  V30 9353 H 896.175 -2.59479 2.99144 0
M  V30 9354 H 897.349 -0.232661 4.60212 0
M  V30 9355 H 895.664 -0.368083 4.1477 0
M  V30 9356 H 898.261 -3.14372 4.32521 0
M  V30 9357 H 898.604 -3.23891 2.61535 0
M  V30 9358 H 899.137 -1.81403 3.54031 0
M  V30 9359 H 895.876 -1.12522 6.4577 0
M  V30 9360 H 895.396 -2.50863 5.44819 0
M  V30 9361 H 897.075 -2.36082 6.0239 0
M  V30 9362 N 897.207 -1.48554 -0.526253 0
M  V30 9363 C 898.154 -1.63354 -1.63046 0
M  V30 9364 C 899.124 -0.475509 -1.59148 0
M  V30 9365 O 900.309 -0.699453 -1.77517 0
M  V30 9366 C 897.449 -1.68271 -3.01295 0
M  V30 9367 C 896.562 -2.95207 -3.15399 0
M  V30 9368 C 895.697 -2.91262 -4.4423 0
M  V30 9369 C 894.736 -4.12886 -4.51876 0
M  V30 9370 N 893.873 -4.06996 -5.721 0
M  V30 9371 H 898.713 -2.57649 -1.49737 0
M  V30 9372 H 896.25 -1.27769 -0.728938 0
M  V30 9373 H 898.208 -1.69104 -3.81392 0
M  V30 9374 H 896.838 -0.774641 -3.13367 0
M  V30 9375 H 895.89 -3.04102 -2.2853 0
M  V30 9376 H 897.202 -3.85187 -3.1691 0
M  V30 9377 H 896.356 -2.90516 -5.32621 0
M  V30 9378 H 895.095 -1.99016 -4.45246 0
M  V30 9379 H 894.1 -4.13902 -3.61891 0
M  V30 9380 H 895.325 -5.06294 -4.52596 0
M  V30 9381 H 893.271 -3.17573 -5.74006 0
M  V30 9382 H 893.188 -4.90685 -5.75121 0
M  V30 9383 H 894.456 -4.10315 -6.62768 0
M  V30 9384 N 898.685 0.775411 -1.37205 0
M  V30 9385 C 899.962 1.5229 -1.22748 0
M  V30 9386 C 900.342 2.10327 0.180487 0
M  V30 9387 O 899.69 1.95206 1.18772 0
M  V30 9388 C 899.9 2.60671 -2.3206 0
M  V30 9389 C 901.248 3.28173 -2.6942 0
M  V30 9390 O 902.272 2.70963 -2.31208 0
M  V30 9391 O 901.131 4.31598 -3.3524 0
M  V30 9392 H 898.225 0.674326 -0.478762 0
M  V30 9393 H 900.771 0.812691 -1.48975 0
M  V30 9394 H 899.543 2.1588 -3.26361 0
M  V30 9395 H 899.166 3.39296 -2.07277 0
M  V30 9396 N 900.163 1.21714 1.00117 0
M  V30 9397 C 901.11 0.979837 2.08968 0
M  V30 9398 C 902.08 -0.0955324 1.65825 0
M  V30 9399 O 903.265 0.0523742 1.90728 0
M  V30 9400 C 900.405 0.554758 3.40612 0
M  V30 9401 C 899.518 1.69999 3.97145 0
M  V30 9402 C 898.653 1.2237 5.16913 0
M  V30 9403 C 897.692 2.34101 5.65564 0
M  V30 9404 N 896.829 1.87579 6.76579 0
M  V30 9405 H 901.669 1.91167 2.28602 0
M  V30 9406 H 899.206 0.952645 1.12085 0
M  V30 9407 H 901.164 0.289526 4.16194 0
M  V30 9408 H 899.794 -0.340073 3.21004 0
M  V30 9409 H 898.846 2.07976 3.18512 0
M  V30 9410 H 900.158 2.54074 4.29241 0
M  V30 9411 H 899.312 0.915358 5.99755 0
M  V30 9412 H 898.051 0.353045 4.8642 0
M  V30 9413 H 897.056 2.65734 4.81316 0
M  V30 9414 H 898.281 3.21669 5.98085 0
M  V30 9415 H 896.227 1.02863 6.47885 0
M  V30 9416 H 896.144 2.65225 7.07949 0
M  V30 9417 H 897.412 1.5979 7.62947 0
M  V30 9418 N 901.641 -1.19671 1.02551 0
M  V30 9419 C 902.871 -1.92952 0.738441 0
M  V30 9420 C 903.279 -1.75528 -0.706155 0
M  V30 9421 O 902.622 -1.0723 -1.49156 0
M  V30 9422 C 902.684 -3.45149 1.00562 0
M  V30 9423 C 902.348 -3.86341 2.44109 0
M  V30 9424 C 903.345 -3.91374 3.42231 0
M  V30 9425 C 901.03 -4.18076 2.7842 0
M  V30 9426 C 903.024 -4.27568 4.7272 0
M  V30 9427 C 900.711 -4.53943 4.0912 0
M  V30 9428 C 901.709 -4.58663 5.06081 0
M  V30 9429 O 901.397 -4.93701 6.3444 0
M  V30 9430 H 901.129 -0.619836 0.269776 0
M  V30 9431 H 903.683 -1.52852 1.37206 0
M  V30 9432 H 901.913 -3.85416 0.314849 0
M  V30 9433 H 903.602 -3.99664 0.708742 0
M  V30 9434 H 904.368 -3.67011 3.17061 0
M  V30 9435 H 900.247 -4.13589 2.03631 0
M  V30 9436 H 903.791 -4.31166 5.48399 0
M  V30 9437 H 899.688 -4.77764 4.34064 0
M  V30 9438 H 900.456 -5.11662 6.38862 0
M  V30 9439 N 903.119 -0.802921 -1.35613 0
M  V30 9440 C 904.365 -0.382141 -1.99167 0
M  V30 9441 C 904.698 1.04704 -1.63556 0
M  V30 9442 O 903.973 1.72578 -0.89706 0
M  V30 9443 C 904.256 -0.561493 -3.55695 0
M  V30 9444 C 904.109 -2.03534 -4.01116 0
M  V30 9445 C 905.428 0.0151135 -4.40097 0
M  V30 9446 H 902.547 -0.140322 -0.723518 0
M  V30 9447 H 905.189 -1.01177 -1.6082 0
M  V30 9448 H 903.339 -0.0255083 -3.88492 0
M  V30 9449 H 905.011 -2.63343 -3.78746 0
M  V30 9450 H 903.254 -2.5331 -3.52159 0
M  V30 9451 H 903.925 -2.11173 -5.1001 0
M  V30 9452 H 906.401 -0.442582 -4.1374 0
M  V30 9453 H 905.277 -0.140316 -5.48721 0
M  V30 9454 H 905.538 1.10848 -4.27978 0
M  V30 9455 N 904.597 1.47463 -0.556102 0
M  V30 9456 C 905.825 2.06868 -0.0364585 0
M  V30 9457 C 906.24 1.40893 1.25677 0
M  V30 9458 O 905.597 0.505083 1.75371 0
M  V30 9459 C 905.648 3.61128 0.163984 0
M  V30 9460 O 905.369 4.24629 -1.07803 0
M  V30 9461 C 906.87 4.37397 0.721036 0
M  V30 9462 H 904.09 0.669466 -0.0453399 0
M  V30 9463 H 906.634 1.89482 -0.769198 0
M  V30 9464 H 904.789 3.78031 0.84685 0
M  V30 9465 H 905.203 5.17149 -0.875067 0
M  V30 9466 H 906.677 5.46016 0.810584 0
M  V30 9467 H 907.154 4.03604 1.73206 0
M  V30 9468 H 907.76 4.25236 0.073904 0
M  V30 9469 N 906.075 0.2925 1.54862 0
M  V30 9470 C 907.038 -0.574423 2.21885 0
M  V30 9471 C 908.038 -1.06791 1.20218 0
M  V30 9472 O 909.228 -0.9653 1.45009 0
M  V30 9473 C 906.36 -1.79438 2.89853 0
M  V30 9474 H 907.553 0.0110319 2.99898 0
M  V30 9475 H 905.106 0.043256 1.5624 0
M  V30 9476 H 905.841 -2.4199 2.15897 0
M  V30 9477 H 905.626 -1.44827 3.64373 0
M  V30 9478 H 907.116 -2.41048 3.41007 0
M  V30 9479 N 907.553 -1.57587 0.0200696 0
M  V30 9480 C 908.483 -2.12702 -0.963333 0
M  V30 9481 C 909.464 -1.04094 -1.34531 0
M  V30 9482 O 910.649 -1.31881 -1.42552 0
M  V30 9483 C 907.779 -2.64673 -2.24868 0
M  V30 9484 C 906.733 -3.77987 -2.00772 0
M  V30 9485 C 906.059 -4.16351 -3.35494 0
M  V30 9486 C 907.359 -5.0444 -1.35416 0
M  V30 9487 H 909.053 -2.95121 -0.504363 0
M  V30 9488 H 906.599 -1.41966 -0.24116 0
M  V30 9489 H 908.552 -3.01862 -2.94036 0
M  V30 9490 H 907.276 -1.79403 -2.72914 0
M  V30 9491 H 905.935 -3.41223 -1.34025 0
M  V30 9492 H 905.583 -3.28075 -3.81282 0
M  V30 9493 H 905.283 -4.92705 -3.20181 0
M  V30 9494 H 906.807 -4.56115 -4.05945 0
M  V30 9495 H 908.221 -5.39273 -1.94571 0
M  V30 9496 H 906.618 -5.85732 -1.30529 0
M  V30 9497 H 907.688 -4.83803 -0.325923 0
M  V30 9498 N 909.032 0.252966 -1.55557 0
M  V30 9499 C 910.262 0.998115 -1.8089 0
M  V30 9500 C 910.67 1.79679 -0.592623 0
M  V30 9501 O 910.013 1.78151 0.448093 0
M  V30 9502 C 910.075 1.98878 -2.99479 0
M  V30 9503 C 909.739 1.37761 -4.35742 0
M  V30 9504 C 910.736 0.783142 -5.13968 0
M  V30 9505 C 908.421 1.39879 -4.8243 0
M  V30 9506 C 910.415 0.218004 -6.37027 0
M  V30 9507 C 908.102 0.829801 -6.0544 0
M  V30 9508 C 909.1 0.240426 -6.82577 0
M  V30 9509 O 908.788 -0.319797 -8.03264 0
M  V30 9510 H 908.52 0.29963 -0.605969 0
M  V30 9511 H 911.074 0.282978 -2.03441 0
M  V30 9512 H 909.304 2.74206 -2.72669 0
M  V30 9513 H 910.993 2.59686 -3.11959 0
M  V30 9514 H 911.759 0.759326 -4.79019 0
M  V30 9515 H 907.638 1.84692 -4.22386 0
M  V30 9516 H 911.182 -0.242654 -6.97178 0
M  V30 9517 H 907.079 0.850924 -6.39867 0
M  V30 9518 H 907.847 -0.211078 -8.18228 0
M  V30 9519 N 910.51 1.48831 0.518367 0
M  V30 9520 C 911.757 1.57439 1.27355 0
M  V30 9521 C 912.085 0.25338 1.92843 0
M  V30 9522 O 911.34 -0.757323 1.80452 0
M  V30 9523 C 911.639 2.67003 2.3758 0
M  V30 9524 C 911.305 4.09069 1.89667 0
M  V30 9525 C 909.967 4.47733 1.76319 0
M  V30 9526 C 912.319 4.98052 1.53603 0
M  V30 9527 C 909.647 5.73173 1.25258 0
M  V30 9528 C 911.999 6.23992 1.04001 0
M  V30 9529 C 910.663 6.61503 0.892784 0
M  V30 9530 H 909.933 0.57611 0.466023 0
M  V30 9531 H 912.58 1.82595 0.577166 0
M  V30 9532 H 910.885 2.35751 3.12936 0
M  V30 9533 H 912.582 2.70876 2.95681 0
M  V30 9534 H 909.172 3.7854 2.01011 0
M  V30 9535 H 913.356 4.68849 1.62771 0
M  V30 9536 H 908.612 6.0095 1.12557 0
M  V30 9537 H 912.786 6.92331 0.751706 0
M  V30 9538 H 910.413 7.58587 0.494939 0
M  V30 9539 N 911.988 -0.768124 1.37614 0
M  V30 9540 C 913.216 -1.55726 1.36224 0
M  V30 9541 C 913.631 -1.8873 -0.0515357 0
M  V30 9542 O 912.988 -1.51718 -1.0143 0
M  V30 9543 C 913.039 -2.86533 2.20412 0
M  V30 9544 O 912.76 -2.54942 3.56281 0
M  V30 9545 C 914.261 -3.80745 2.27041 0
M  V30 9546 H 911.481 -0.482325 0.46648 0
M  V30 9547 H 914.025 -0.95176 1.81002 0
M  V30 9548 H 912.18 -3.43496 1.79134 0
M  V30 9549 H 912.594 -3.38732 4.00451 0
M  V30 9550 H 914.068 -4.69523 2.90263 0
M  V30 9551 H 914.545 -4.20138 1.27987 0
M  V30 9552 H 915.151 -3.2971 2.68647 0
M  V30 9553 N 913.466 -1.22244 -0.994698 0
M  V30 9554 C 914.713 -1.04591 -1.73398 0
M  V30 9555 C 915.041 0.419223 -1.89928 0
M  V30 9556 O 914.296 1.32714 -1.43824 0
M  V30 9557 C 914.595 -1.70014 -3.14372 0
M  V30 9558 C 914.261 -3.19903 -3.17762 0
M  V30 9559 C 912.923 -3.60803 -3.18394 0
M  V30 9560 C 915.275 -4.15851 -3.14194 0
M  V30 9561 C 912.603 -4.96135 -3.13157 0
M  V30 9562 C 914.955 -5.51157 -3.10498 0
M  V30 9563 C 913.619 -5.91439 -3.09445 0
M  V30 9564 H 912.889 -0.382725 -0.63451 0
M  V30 9565 H 915.536 -1.51981 -1.16508 0
M  V30 9566 H 913.841 -1.14945 -3.7456 0
M  V30 9567 H 915.538 -1.53848 -3.70313 0
M  V30 9568 H 912.128 -2.87336 -3.18019 0
M  V30 9569 H 916.312 -3.85272 -3.12857 0
M  V30 9570 H 911.568 -5.26578 -3.10685 0
M  V30 9571 H 915.742 -6.2523 -3.06692 0
M  V30 9572 H 913.369 -6.96271 -3.05141 0
M  V30 9573 N 914.944 1.19125 -1.03184 0
M  V30 9574 C 916.169 1.93379 -0.749628 0
M  V30 9575 C 916.594 1.75153 0.685785 0
M  V30 9576 O 915.952 1.05579 1.47386 0
M  V30 9577 C 916 3.43101 -1.1097 0
M  V30 9578 O 915.104 4.11758 -0.230053 0
M  V30 9579 H 914.445 0.603605 -0.276689 0
M  V30 9580 H 916.975 1.51116 -1.37931 0
M  V30 9581 H 916.985 3.93778 -1.06785 0
M  V30 9582 H 915.66 3.55688 -2.15544 0
M  V30 9583 H 914.237 3.7143 -0.330748 0
M  V30 9584 N 916.422 0.810101 1.35185 0
M  V30 9585 C 917.647 0.40364 2.03434 0
M  V30 9586 C 918.072 -0.97857 1.60641 0
M  V30 9587 O 917.43 -1.63435 0.784779 0
M  V30 9588 C 917.478 0.499154 3.57129 0
M  V30 9589 O 916.582 -0.486039 4.09526 0
M  V30 9590 H 915.923 0.168049 0.642383 0
M  V30 9591 H 918.453 1.09696 1.72708 0
M  V30 9592 H 918.463 0.370236 4.06317 0
M  V30 9593 H 917.138 1.50733 3.87624 0
M  V30 9594 H 915.715 -0.31707 3.7155 0
M  V30 9595 N 917.9 -1.47166 0.563914 0
M  V30 9596 C 918.83 -2.32894 -0.168148 0
M  V30 9597 C 919.811 -1.44202 -0.902214 0
M  V30 9598 O 920.996 -1.73048 -0.881365 0
M  V30 9599 C 918.126 -3.26116 -1.19439 0
M  V30 9600 C 917.08 -4.24101 -0.576363 0
M  V30 9601 C 916.406 -5.06696 -1.70772 0
M  V30 9602 C 917.706 -5.20142 0.47425 0
M  V30 9603 H 919.4 -2.9435 0.547573 0
M  V30 9604 H 916.946 -1.41545 0.264778 0
M  V30 9605 H 918.899 -3.84935 -1.71474 0
M  V30 9606 H 917.623 -2.62728 -1.94014 0
M  V30 9607 H 916.282 -3.66519 -0.0772534 0
M  V30 9608 H 915.93 -4.39707 -2.44268 0
M  V30 9609 H 915.63 -5.7304 -1.29994 0
M  V30 9610 H 917.154 -5.68375 -2.2312 0
M  V30 9611 H 918.568 -5.73286 0.0397035 0
M  V30 9612 H 916.965 -5.94726 0.801287 0
M  V30 9613 H 918.035 -4.65214 1.36764 0
M  V30 9614 N 919.378 -0.300708 -1.54705 0
M  V30 9615 C 920.606 0.31127 -2.04545 0
M  V30 9616 C 921.021 1.47542 -1.178 0
M  V30 9617 O 920.378 1.81361 -0.203571 0
M  V30 9618 C 920.429 0.767783 -3.53253 0
M  V30 9619 O 920.15 -0.350027 -4.36699 0
M  V30 9620 C 921.651 1.44494 -4.1909 0
M  V30 9621 H 918.871 0.067668 -0.667579 0
M  V30 9622 H 921.415 -0.440254 -1.99705 0
M  V30 9623 H 919.57 1.46933 -3.58454 0
M  V30 9624 H 919.984 0.00534038 -5.245 0
M  V30 9625 H 921.458 1.71553 -5.24665 0
M  V30 9626 H 921.935 2.3849 -3.68808 0
M  V30 9627 H 922.541 0.786581 -4.17963 0
M  V30 9628 N 920.856 1.57574 -0.0284266 0
M  V30 9629 C 922.081 1.96479 0.664137 0
M  V30 9630 C 922.506 0.904826 1.64908 0
M  V30 9631 O 921.864 -0.134339 1.80802 0
M  V30 9632 C 921.912 3.34479 1.34745 0
M  V30 9633 O 921.016 3.30794 2.46271 0
M  V30 9634 H 920.357 0.640654 0.174524 0
M  V30 9635 H 922.887 2.04402 -0.0900729 0
M  V30 9636 H 922.897 3.70694 1.7044 0
M  V30 9637 H 921.572 4.1117 0.625468 0
M  V30 9638 H 920.149 3.06294 2.12693 0
M  V30 9639 N 922.334 -0.244713 1.55689 0
M  V30 9640 C 923.58 -0.973886 1.77886 0
M  V30 9641 C 923.913 -1.8489 0.594071 0
M  V30 9642 O 923.188 -1.90182 -0.407564 0
M  V30 9643 C 923.471 -1.83255 3.09983 0
M  V30 9644 C 923.324 -0.985571 4.3887 0
M  V30 9645 C 924.643 -2.81464 3.38329 0
M  V30 9646 H 921.762 -0.352629 0.647165 0
M  V30 9647 H 924.404 -0.244243 1.88424 0
M  V30 9648 H 922.554 -2.45464 3.01131 0
M  V30 9649 H 924.226 -0.382005 4.59716 0
M  V30 9650 H 922.469 -0.29002 4.32829 0
M  V30 9651 H 923.14 -1.62022 5.27686 0
M  V30 9652 H 925.616 -2.2939 3.47159 0
M  V30 9653 H 924.492 -3.38663 4.31971 0
M  V30 9654 H 924.753 -3.58037 2.59349 0
M  V30 9655 N 923.813 -1.49104 -0.510467 0
M  V30 9656 C 925.061 -1.578 -1.26268 0
M  V30 9657 C 925.382 -0.262349 -1.93227 0
M  V30 9658 O 924.652 0.717624 -1.82283 0
M  V30 9659 H 923.232 -0.581387 -0.46904 0
M  V30 9660 H 925.894 -1.85678 -0.592423 0
M  V30 9661 H 924.99 -2.36919 -2.03165 0
M  V30 9662 N 925.291 0.760815 -1.38019 0
M  V30 9663 C 926.538 1.51973 -1.3383 0
M  V30 9664 C 926.866 1.9436 0.0738855 0
M  V30 9665 O 926.121 1.65181 1.04946 0
M  V30 9666 C 926.42 2.79024 -2.23339 0
M  V30 9667 C 926.086 2.55636 -3.71431 0
M  V30 9668 C 924.748 2.48966 -4.11788 0
M  V30 9669 C 927.1 2.35018 -4.65205 0
M  V30 9670 C 924.428 2.19684 -5.44018 0
M  V30 9671 C 926.78 2.07258 -5.97685 0
M  V30 9672 C 925.444 1.9904 -6.37134 0
M  V30 9673 H 924.714 0.556108 -0.489719 0
M  V30 9674 H 927.361 0.87545 -1.70318 0
M  V30 9675 H 925.666 3.48065 -1.79883 0
M  V30 9676 H 927.363 3.36951 -2.17405 0
M  V30 9677 H 923.953 2.61695 -3.39432 0
M  V30 9678 H 928.137 2.39154 -4.34878 0
M  V30 9679 H 923.393 2.11825 -5.73533 0
M  V30 9680 H 927.567 1.90307 -6.69893 0
M  V30 9681 H 925.194 1.76115 -7.39519 0
M  V30 9682 N 926.769 1.22769 0.988202 0
M  V30 9683 C 928.017 1.05301 1.725 0
M  V30 9684 C 928.338 -0.412103 1.90596 0
M  V30 9685 O 927.608 -1.29606 1.46898 0
M  V30 9686 H 926.188 0.386658 0.639144 0
M  V30 9687 H 928.85 1.54359 1.18993 0
M  V30 9688 H 927.946 1.53465 2.71763 0
M  V30 9689 N 928.247 -1.18576 1.03814 0
M  V30 9690 C 929.195 -2.24166 0.620678 0
M  V30 9691 C 930.189 -1.65718 -0.351282 0
M  V30 9692 O 931.395 -1.78665 -0.218848 0
M  V30 9693 H 927.77 -0.729522 0.182487 0
M  V30 9694 H 929.741 -2.56686 1.52166 0
M  V30 9695 C 928.49 -3.477 -0.00307331 0
M  V30 9696 H 927.813 -3.92969 0.735874 0
M  V30 9697 H 929.253 -4.23214 -0.257988 0
M  V30 9698 C 927.712 -3.12757 -1.2524 0
M  V30 9699 O 928.242 -3.26261 -2.34344 0
M  V30 9700 N 926.448 -2.67104 -1.14471 0
M  V30 9701 H 925.995 -2.56316 -0.256873 0
M  V30 9702 H 925.953 -2.44096 -1.98153 0
M  V30 9703 N 929.725 -0.817259 -1.34754 0
M  V30 9704 C 930.971 -0.403244 -1.98751 0
M  V30 9705 C 931.304 1.02963 -1.64658 0
M  V30 9706 O 930.579 1.71617 -0.915314 0
M  V30 9707 C 930.862 -0.599188 -3.5508 0
M  V30 9708 C 930.715 -2.07777 -3.98934 0
M  V30 9709 C 932.034 -0.0315656 -4.40089 0
M  V30 9710 H 929.153 -0.147988 -0.721989 0
M  V30 9711 H 931.795 -1.02877 -1.59738 0
M  V30 9712 H 929.945 -0.0667116 -3.88443 0
M  V30 9713 H 931.617 -2.67345 -3.75931 0
M  V30 9714 H 929.86 -2.57031 -3.49453 0
M  V30 9715 H 930.531 -2.16571 -5.07741 0
M  V30 9716 H 933.007 -0.48644 -4.13247 0
M  V30 9717 H 931.883 -0.198507 -5.48541 0
M  V30 9718 H 932.144 1.06302 -4.2913 0
M  V30 9719 N 931.203 1.46865 -0.571711 0
M  V30 9720 C 932.428 2.07323 -0.0564655 0
M  V30 9721 C 932.853 1.41938 1.23431 0
M  V30 9722 O 932.211 0.499334 1.74288 0
M  V30 9723 C 932.259 3.6044 0.107339 0
M  V30 9724 O 931.363 3.95558 1.1665 0
M  V30 9725 H 930.704 0.661475 -0.0578465 0
M  V30 9726 H 933.234 1.88669 -0.791524 0
M  V30 9727 H 933.244 4.06767 0.316987 0
M  V30 9728 H 931.919 4.07425 -0.835348 0
M  V30 9729 H 930.496 3.60957 0.936189 0
M  V30 9730 N 932.681 0.308908 1.54543 0
M  V30 9731 C 934.092 -0.182144 1.85809 0
M  V30 9732 C 934.443 -1.52796 1.23076 0
M  V30 9733 O 933.568 -2.09775 0.531358 0
M  V30 9734 C 934.163 -0.337275 3.37117 0
M  V30 9735 C 932.722 -0.772545 3.68387 0
M  V30 9736 C 931.869 0.114451 2.77064 0
M  V30 9737 H 934.82 0.529671 1.496 0
M  V30 9738 H 934.841 -1.17058 3.62046 0
M  V30 9739 H 934.353 0.642382 3.82747 0
M  V30 9740 H 932.454 -1.76247 3.2828 0
M  V30 9741 H 932.567 -0.586453 4.75497 0
M  V30 9742 H 930.931 -0.407581 2.51418 0
M  V30 9743 H 931.714 1.09061 3.25516 0
M  V30 9744 N 934.159 -1.57557 0.0367827 0
M  V30 9745 C 935.107 -2.11844 -0.960454 0
M  V30 9746 C 936.101 -1.04681 -1.33185 0
M  V30 9747 O 937.307 -1.23108 -1.31318 0
M  V30 9748 H 933.682 -0.676921 -0.32754 0
M  V30 9749 H 935.653 -2.94557 -0.477346 0
M  V30 9750 C 934.402 -2.66683 -2.23105 0
M  V30 9751 H 933.725 -3.48795 -1.95403 0
M  V30 9752 H 935.165 -3.08305 -2.91074 0
M  V30 9753 C 933.624 -1.59782 -2.96599 0
M  V30 9754 O 934.154 -1.00214 -3.88999 0
M  V30 9755 N 932.36 -1.31644 -2.59072 0
M  V30 9756 H 931.907 -1.80272 -1.8401 0
M  V30 9757 H 931.865 -0.603457 -3.08554 0
M  V30 9758 N 935.637 0.236453 -1.55816 0
M  V30 9759 C 936.865 0.980295 -1.82203 0
M  V30 9760 C 937.28 1.7854 -0.613926 0
M  V30 9761 O 936.637 1.77661 0.417491 0
M  V30 9762 C 936.688 1.90982 -3.06933 0
M  V30 9763 O 936.409 1.13728 -4.23081 0
M  V30 9764 C 937.91 2.76879 -3.46198 0
M  V30 9765 H 935.13 0.28799 -0.606055 0
M  V30 9766 H 937.674 0.256182 -2.02889 0
M  V30 9767 H 935.829 2.58808 -2.88266 0
M  V30 9768 H 936.243 1.76694 -4.93842 0
M  V30 9769 H 937.717 3.37831 -4.36548 0
M  V30 9770 H 938.194 3.48522 -2.67262 0
M  V30 9771 H 938.8 2.1449 -3.67252 0
M  V30 9772 N 937.115 1.49373 0.502552 0
M  V30 9773 C 938.063 1.66411 1.62512 0
M  V30 9774 C 939.057 0.530062 1.60893 0
M  V30 9775 O 940.263 0.709648 1.65421 0
M  V30 9776 H 936.638 0.524707 0.538689 0
M  V30 9777 H 938.609 2.60639 1.45293 0
M  V30 9778 C 937.358 1.74648 3.00655 0
M  V30 9779 H 936.681 2.61285 3.02606 0
M  V30 9780 H 938.121 1.90605 3.78742 0
M  V30 9781 C 936.58 0.490963 3.33303 0
M  V30 9782 O 937.11 -0.384039 3.9986 0
M  V30 9783 N 935.316 0.354375 2.88431 0
M  V30 9784 H 934.863 1.06742 2.34444 0
M  V30 9785 H 934.821 -0.484593 3.10643 0
M  V30 9786 N 938.594 -0.753485 1.38421 0
M  V30 9787 C 939.819 -1.54783 1.38047 0
M  V30 9788 C 940.244 -1.8808 -0.0276371 0
M  V30 9789 O 939.602 -1.5058 -1.00973 0
M  V30 9790 C 939.65 -2.82353 2.24297 0
M  V30 9791 O 938.754 -3.77509 1.66014 0
M  V30 9792 H 938.095 -0.468151 0.470883 0
M  V30 9793 H 940.625 -0.931144 1.82184 0
M  V30 9794 H 940.635 -3.31277 2.38159 0
M  V30 9795 H 939.31 -2.57449 3.26639 0
M  V30 9796 H 937.887 -3.36212 1.61294 0
M  V30 9797 N 940.072 -1.23292 -0.981677 0
M  V30 9798 C 940.982 -1.02964 -2.10798 0
M  V30 9799 C 941.998 0.0254674 -1.73981 0
M  V30 9800 O 943.174 -0.169706 -2.00684 0
M  V30 9801 C 940.239 -0.621934 -3.41076 0
M  V30 9802 C 939.3 -1.75194 -3.91926 0
M  V30 9803 C 938.533 -1.36359 -5.15986 0
M  V30 9804 O 938.756 -0.247265 -5.69864 0
M  V30 9805 O 937.69 -2.18421 -5.60871 0
M  V30 9806 H 941.516 -1.97354 -2.30836 0
M  V30 9807 H 939.101 -1.01986 -1.09175 0
M  V30 9808 H 940.983 -0.405446 -4.19445 0
M  V30 9809 H 939.658 0.29299 -3.22371 0
M  V30 9810 H 938.565 -2.02305 -3.1468 0
M  V30 9811 H 939.898 -2.64513 -4.15083 0
M  V30 9812 N 941.55 1.18024 -1.04442 0
M  V30 9813 C 942.497 2.21785 -0.638759 0
M  V30 9814 C 943.467 1.62255 0.355312 0
M  V30 9815 O 944.652 1.89176 0.24844 0
M  V30 9816 C 941.792 3.45098 -0.0118002 0
M  V30 9817 C 940.905 4.1895 -1.05379 0
M  V30 9818 C 940.04 5.2973 -0.394951 0
M  V30 9819 C 939.079 5.95359 -1.42178 0
M  V30 9820 N 938.216 6.97668 -0.787635 0
M  V30 9821 H 943.056 2.55839 -1.52808 0
M  V30 9822 H 940.593 1.25681 -0.764378 0
M  V30 9823 H 942.551 4.15564 0.369075 0
M  V30 9824 H 941.181 3.11652 0.84102 0
M  V30 9825 H 940.233 3.47274 -1.55258 0
M  V30 9826 H 941.545 4.63877 -1.83355 0
M  V30 9827 H 940.699 6.06687 0.0399244 0
M  V30 9828 H 939.438 4.85915 0.416867 0
M  V30 9829 H 938.443 5.17139 -1.86675 0
M  V30 9830 H 939.668 6.41255 -2.23536 0
M  V30 9831 H 937.614 6.56 0.00380893 0
M  V30 9832 H 937.531 7.40867 -1.50505 0
M  V30 9833 H 938.799 7.78586 -0.377282 0
M  V30 9834 N 943.028 0.824394 1.34319 0
M  V30 9835 C 944.277 0.40956 1.97498 0
M  V30 9836 C 944.59 -1.03323 1.66083 0
M  V30 9837 O 945.796 -1.55205 2.22764 0
M  V30 9838 C 944.252 0.681384 3.53391 0
M  V30 9839 C 943.86 2.1379 3.93698 0
M  V30 9840 C 945.604 0.332788 4.23194 0
M  V30 9841 C 943.511 2.35453 5.42509 0
M  V30 9842 H 942.441 0.149409 0.739049 0
M  V30 9843 H 945.092 1.01095 1.5314 0
M  V30 9844 H 943.474 0.00980375 3.95999 0
M  V30 9845 H 944.648 2.84876 3.62191 0
M  V30 9846 H 942.963 2.44807 3.36836 0
M  V30 9847 H 945.56 0.472463 5.32609 0
M  V30 9848 H 945.903 -0.722862 4.09976 0
M  V30 9849 H 946.436 0.959005 3.86067 0
M  V30 9850 H 943.175 3.39529 5.60714 0
M  V30 9851 H 942.695 1.68912 5.75525 0
M  V30 9852 H 944.374 2.17885 6.09209 0
M  V30 9853 N 944.506 -1.46559 0.579492 0
M  V30 9854 C 945.753 -2.02399 0.0638418 0
M  V30 9855 C 946.081 -1.45135 -1.29484 0
M  V30 9856 O 945.336 -0.605061 -1.86112 0
M  V30 9857 C 945.635 -3.57357 -0.0552803 0
M  V30 9858 C 945.301 -4.33646 1.23539 0
M  V30 9859 C 943.963 -4.54207 1.589 0
M  V30 9860 C 946.315 -4.77476 2.08965 0
M  V30 9861 C 943.643 -5.1585 2.79492 0
M  V30 9862 C 945.995 -5.4045 3.2878 0
M  V30 9863 C 944.659 -5.5924 3.64427 0
M  V30 9864 H 943.929 -0.740632 0.0233614 0
M  V30 9865 H 946.576 -1.75968 0.755482 0
M  V30 9866 H 944.881 -3.82907 -0.83003 0
M  V30 9867 H 946.578 -3.98237 -0.469964 0
M  V30 9868 H 943.168 -4.17937 0.9501 0
M  V30 9869 H 947.352 -4.61349 1.8295 0
M  V30 9870 H 942.608 -5.28589 3.07252 0
M  V30 9871 H 946.782 -5.73371 3.95245 0
M  V30 9872 H 944.409 -6.06775 4.57961 0
M  V30 9873 N 945.984 -0.3171 -1.54377 0
M  V30 9874 C 947.209 0.292311 -2.0533 0
M  V30 9875 C 947.634 1.45503 -1.19207 0
M  V30 9876 O 946.992 1.80197 -0.199721 0
M  V30 9877 C 947.04 0.710787 -3.53525 0
M  V30 9878 O 946.144 1.81387 -3.70368 0
M  V30 9879 H 945.485 0.0539976 -0.661801 0
M  V30 9880 H 948.015 -0.463629 -1.99278 0
M  V30 9881 H 948.025 0.995216 -3.95676 0
M  V30 9882 H 946.7 -0.139668 -4.15665 0
M  V30 9883 H 945.277 1.52875 -3.40123 0
M  V30 9884 N 947.462 1.57535 -0.0451378 0
M  V30 9885 C 948.711 1.91628 0.629415 0
M  V30 9886 C 949.024 0.924754 1.72359 0
M  V30 9887 O 950.23 1.15751 2.45589 0
M  V30 9888 C 948.686 3.40322 1.17084 0
M  V30 9889 C 948.294 4.47867 0.109101 0
M  V30 9890 C 950.038 3.83458 1.82099 0
M  V30 9891 C 947.945 5.87671 0.663072 0
M  V30 9892 H 946.875 0.715163 0.238868 0
M  V30 9893 H 949.526 1.83151 -0.113046 0
M  V30 9894 H 947.908 3.43783 1.96543 0
M  V30 9895 H 949.082 4.55988 -0.664201 0
M  V30 9896 H 947.397 4.14034 -0.443227 0
M  V30 9897 H 949.994 4.85273 2.2453 0
M  V30 9898 H 950.337 3.19379 2.67026 0
M  V30 9899 H 950.87 3.82488 1.09305 0
M  V30 9900 H 947.609 6.55332 -0.148423 0
M  V30 9901 H 947.129 5.83124 1.4045 0
M  V30 9902 H 948.808 6.36737 1.14785 0
M  V30 9903 N 948.94 -0.228186 1.55939 0
M  V30 9904 C 950.18 -0.960695 1.80416 0
M  V30 9905 C 950.544 -1.81795 0.617615 0
M  V30 9906 O 951.745 -2.58369 0.741545 0
M  V30 9907 C 950.016 -1.78298 3.09749 0
M  V30 9908 S 951.575 -2.57203 3.55517 0
M  V30 9909 H 948.393 -0.322825 0.633486 0
M  V30 9910 H 950.995 -0.226852 1.94179 0
M  V30 9911 H 949.699 -1.14323 3.94155 0
M  V30 9912 H 949.23 -2.55924 2.98775 0
M  V30 9913 H 951.245 -3.80632 3.1833 0
M  V30 9914 N 950.418 -1.49637 -0.494624 0
M  V30 9915 C 951.664 -1.59681 -1.25019 0
M  V30 9916 C 951.997 -0.285511 -1.9209 0
M  V30 9917 O 951.272 0.711398 -1.81023 0
M  V30 9918 C 951.555 -2.76058 -2.31222 0
M  V30 9919 C 951.408 -4.17002 -1.68611 0
M  V30 9920 C 952.727 -2.88056 -3.32734 0
M  V30 9921 H 949.846 -0.581209 -0.453172 0
M  V30 9922 H 952.488 -1.81944 -0.547391 0
M  V30 9923 H 950.638 -2.57207 -2.91164 0
M  V30 9924 H 952.31 -4.47385 -1.12447 0
M  V30 9925 H 950.553 -4.22352 -0.989991 0
M  V30 9926 H 951.224 -4.94316 -2.45674 0
M  V30 9927 H 953.7 -3.05237 -2.82789 0
M  V30 9928 H 952.576 -3.71151 -4.04399 0
M  V30 9929 H 952.837 -1.97676 -3.95445 0
M  V30 9930 N 951.896 0.746133 -1.38819 0
M  V30 9931 C 952.829 1.86833 -1.31029 0
M  V30 9932 C 953.807 1.61533 -0.185948 0
M  V30 9933 O 954.991 1.84942 -0.364529 0
M  V30 9934 C 952.118 3.22596 -1.03198 0
M  V30 9935 C 951.164 3.66772 -2.17671 0
M  V30 9936 S 951.997 3.77438 -3.7987 0
M  V30 9937 C 953.153 5.16008 -3.54241 0
M  V30 9938 H 953.386 1.93155 -2.26005 0
M  V30 9939 H 950.919 0.909872 -1.24742 0
M  V30 9940 H 952.877 4.00995 -0.878237 0
M  V30 9941 H 951.538 3.13943 -0.0992704 0
M  V30 9942 H 950.731 4.65266 -1.93762 0
M  V30 9943 H 950.333 2.95547 -2.2919 0
M  V30 9944 H 952.625 6.01996 -3.10816 0
M  V30 9945 H 953.568 5.44941 -4.52156 0
M  V30 9946 H 953.976 4.85158 -2.88587 0
M  V30 9947 N 953.375 1.23811 0.975125 0
M  V30 9948 C 954.305 1.04846 2.08638 0
M  V30 9949 C 955.286 -0.0362859 1.70061 0
M  V30 9950 O 956.471 0.12937 1.93769 0
M  V30 9951 C 953.601 0.644534 3.41267 0
M  V30 9952 C 952.555 1.67722 3.93768 0
M  V30 9953 C 951.881 1.12857 5.22654 0
M  V30 9954 C 953.181 3.07147 4.22443 0
M  V30 9955 H 954.875 1.97795 2.24761 0
M  V30 9956 H 952.421 0.952397 1.08006 0
M  V30 9957 H 954.374 0.498887 4.18436 0
M  V30 9958 H 953.098 -0.320641 3.25022 0
M  V30 9959 H 951.757 1.81095 3.18748 0
M  V30 9960 H 951.405 0.154227 5.02764 0
M  V30 9961 H 951.105 1.81862 5.58749 0
M  V30 9962 H 952.629 0.994891 6.0244 0
M  V30 9963 H 954.043 2.97045 4.90344 0
M  V30 9964 H 952.44 3.73437 4.6975 0
M  V30 9965 H 953.51 3.55743 3.29507 0
M  V30 9966 N 954.853 -1.17469 1.05066 0
M  V30 9967 C 956.102 -1.87032 0.755114 0
M  V30 9968 C 956.415 -1.81844 -0.720572 0
M  V30 9969 O 957.621 -2.46866 -1.13002 0
M  V30 9970 C 956.077 -3.35581 1.30052 0
M  V30 9971 C 955.685 -3.49274 2.80556 0
M  V30 9972 C 957.429 -4.1048 1.08196 0
M  V30 9973 C 955.336 -4.91838 3.28404 0
M  V30 9974 H 954.266 -0.70057 0.278779 0
M  V30 9975 H 956.917 -1.32663 1.26779 0
M  V30 9976 H 955.299 -3.89479 0.715667 0
M  V30 9977 H 956.473 -3.05598 3.44886 0
M  V30 9978 H 954.788 -2.87793 3.00939 0
M  V30 9979 H 957.385 -5.15652 1.41447 0
M  V30 9980 H 957.728 -4.16295 0.0196603 0
M  V30 9981 H 958.261 -3.62784 1.63195 0
M  V30 9982 H 955 -4.91196 4.34058 0
M  V30 9983 H 954.52 -5.36189 2.68815 0
M  V30 9984 H 956.199 -5.60602 3.23009 0
M  V30 9985 N 956.331 -0.831506 -1.3388 0
M  V30 9986 C 957.579 -0.422837 -1.97627 0
M  V30 9987 C 957.9 1.01961 -1.6622 0
M  V30 9988 O 957.17 1.70916 -0.957323 0
M  V30 9989 H 955.75 -0.153365 -0.731087 0
M  V30 9990 H 958.412 -1.06284 -1.6337 0
M  V30 9991 H 957.508 -0.548858 -3.07236 0
M  V30 9992 N 957.809 1.4625 -0.587256 0
M  V30 9993 C 959.034 2.07252 -0.0784517 0
M  V30 9994 C 959.459 1.43239 1.21919 0
M  V30 9995 O 958.817 0.517791 1.73749 0
M  V30 9996 C 958.865 3.60534 0.0691037 0
M  V30 9997 O 957.969 3.96773 1.12448 0
M  V30 9998 H 957.31 0.660825 -0.064859 0
M  V30 9999 H 959.84 1.87819 -0.811491 0
M  V30 10000 H 959.85 4.0708 0.273826 0
M  V30 10001 H 958.525 4.06516 -0.878514 0
M  V30 10002 H 957.102 3.6193 0.897852 0
M  V30 10003 N 959.287 0.325282 1.54207 0
M  V30 10004 C 960.217 -0.532574 2.27345 0
M  V30 10005 C 961.198 -1.11791 1.28206 0
M  V30 10006 O 962.383 -1.14272 1.57021 0
M  V30 10007 C 959.513 -1.69274 3.03255 0
M  V30 10008 C 958.467 -1.23662 4.09746 0
M  V30 10009 C 957.793 -2.48386 4.73506 0
M  V30 10010 C 959.093 -0.350244 5.21124 0
M  V30 10011 H 960.787 0.0775108 2.993 0
M  V30 10012 H 958.333 0.0387193 1.43948 0
M  V30 10013 H 960.286 -2.29917 3.53152 0
M  V30 10014 H 959.01 -2.32944 2.28921 0
M  V30 10015 H 957.669 -0.653106 3.60735 0
M  V30 10016 H 957.317 -3.10424 3.95786 0
M  V30 10017 H 957.017 -2.18558 5.45441 0
M  V30 10018 H 958.541 -3.09789 5.26178 0
M  V30 10019 H 959.955 -0.863011 5.66767 0
M  V30 10020 H 958.352 -0.14466 5.99926 0
M  V30 10021 H 959.422 0.618457 4.8094 0
M  V30 10022 N 960.765 -1.57509 0.0534917 0
M  V30 10023 C 961.698 -2.0723 -0.955554 0
M  V30 10024 C 962.676 -0.973313 -1.30251 0
M  V30 10025 O 963.86 -1.24541 -1.41498 0
M  V30 10026 C 960.987 -2.51473 -2.2689 0
M  V30 10027 C 960.033 -3.7263 -2.07482 0
M  V30 10028 S 960.866 -5.18177 -1.35104 0
M  V30 10029 C 962.022 -5.65736 -2.67757 0
M  V30 10030 H 962.255 -2.92494 -0.532407 0
M  V30 10031 H 959.788 -1.53581 -0.158831 0
M  V30 10032 H 961.746 -2.77626 -3.02381 0
M  V30 10033 H 960.407 -1.66511 -2.66332 0
M  V30 10034 H 959.6 -4.01515 -3.04633 0
M  V30 10035 H 959.202 -3.46756 -1.4013 0
M  V30 10036 H 961.494 -5.71463 -3.63918 0
M  V30 10037 H 962.437 -6.64914 -2.43506 0
M  V30 10038 H 962.845 -4.93475 -2.74123 0
M  V30 10039 N 962.243 0.219913 -1.56058 0
M  V30 10040 C 963.473 0.959521 -1.82967 0
M  V30 10041 C 963.881 1.78382 -0.630602 0
M  V30 10042 O 963.224 1.79062 0.410203 0
M  V30 10043 C 963.286 1.92481 -3.0363 0
M  V30 10044 C 962.95 1.28487 -4.38566 0
M  V30 10045 C 963.947 0.673946 -5.15513 0
M  V30 10046 C 961.632 1.29615 -4.85289 0
M  V30 10047 C 963.626 0.0828324 -6.37346 0
M  V30 10048 C 961.313 0.701191 -6.07064 0
M  V30 10049 C 962.311 0.0955877 -6.82933 0
M  V30 10050 O 961.999 -0.490109 -8.02405 0
M  V30 10051 H 961.731 0.286709 -0.612188 0
M  V30 10052 H 964.285 0.239761 -2.03996 0
M  V30 10053 H 962.515 2.6836 -2.78424 0
M  V30 10054 H 964.204 2.5301 -3.17397 0
M  V30 10055 H 964.97 0.657548 -4.80522 0
M  V30 10056 H 960.849 1.75691 -4.26208 0
M  V30 10057 H 964.393 -0.390482 -6.96506 0
M  V30 10058 H 960.29 0.715007 -6.41528 0
M  V30 10059 H 961.058 -0.384588 -8.17596 0
M  V30 10060 N 963.721 1.49897 0.486681 0
M  V30 10061 C 964.684 1.67086 1.56891 0
M  V30 10062 C 965.684 0.54209 1.51387 0
M  V30 10063 O 966.874 0.80883 1.54284 0
M  V30 10064 C 964.006 1.68159 2.96539 0
M  V30 10065 H 965.199 2.63626 1.42974 0
M  V30 10066 H 962.752 1.39143 0.711954 0
M  V30 10067 H 963.487 0.732562 3.15918 0
M  V30 10068 H 963.272 2.50147 3.01942 0
M  V30 10069 H 964.762 1.83466 3.7514 0
M  V30 10070 N 965.199 -0.738761 1.39212 0
M  V30 10071 C 966.424 -1.5331 1.39681 0
M  V30 10072 C 966.849 -1.88098 -0.00768715 0
M  V30 10073 O 966.207 -1.51642 -0.993699 0
M  V30 10074 C 966.255 -2.79958 2.27279 0
M  V30 10075 O 965.359 -3.75727 1.70008 0
M  V30 10076 H 964.7 -0.463131 0.475821 0
M  V30 10077 H 967.23 -0.911768 1.83161 0
M  V30 10078 H 967.24 -3.28732 2.41659 0
M  V30 10079 H 965.915 -2.5397 3.29351 0
M  V30 10080 H 964.492 -3.34483 1.64851 0
M  V30 10081 N 966.677 -1.24326 -0.968545 0
M  V30 10082 C 967.926 -1.07647 -1.70572 0
M  V30 10083 C 968.239 0.384821 -1.91777 0
M  V30 10084 O 969.445 0.671782 -2.63058 0
M  V30 10085 C 967.901 -1.87799 -3.07017 0
M  V30 10086 C 967.509 -3.38333 -2.93658 0
M  V30 10087 C 969.253 -1.79647 -3.84613 0
M  V30 10088 C 967.16 -4.10831 -4.25407 0
M  V30 10089 H 966.09 -0.399216 -0.639642 0
M  V30 10090 H 968.741 -1.484 -1.07934 0
M  V30 10091 H 967.123 -1.3986 -3.7048 0
M  V30 10092 H 968.297 -3.93845 -2.39213 0
M  V30 10093 H 966.612 -3.47427 -2.29528 0
M  V30 10094 H 969.209 -2.31116 -4.82172 0
M  V30 10095 H 969.552 -0.761553 -4.09275 0
M  V30 10096 H 970.085 -2.25261 -3.27875 0
M  V30 10097 H 966.824 -5.14679 -4.05939 0
M  V30 10098 H 966.344 -3.60105 -4.79671 0
M  V30 10099 H 968.023 -4.17783 -4.94031 0
M  V30 10100 N 968.156 1.1691 -1.05688 0
M  V30 10101 C 969.403 1.87292 -0.76993 0
M  V30 10102 C 969.731 1.81339 0.703295 0
M  V30 10103 O 968.986 1.21959 1.5305 0
M  V30 10104 C 969.285 3.36578 -1.20207 0
M  V30 10105 C 968.951 3.62732 -2.67836 0
M  V30 10106 C 967.613 3.69579 -3.08163 0
M  V30 10107 C 969.965 3.73803 -3.63209 0
M  V30 10108 C 967.293 3.84992 -4.42717 0
M  V30 10109 C 969.645 3.90735 -4.97503 0
M  V30 10110 C 968.309 3.95823 -5.37476 0
M  V30 10111 H 967.579 0.68535 -0.281737 0
M  V30 10112 H 970.226 1.38274 -1.32486 0
M  V30 10113 H 968.531 3.87687 -0.566222 0
M  V30 10114 H 970.228 3.89409 -0.957183 0
M  V30 10115 H 966.818 3.58031 -2.35609 0
M  V30 10116 H 971.002 3.67829 -3.3319 0
M  V30 10117 H 966.258 3.87181 -4.73182 0
M  V30 10118 H 970.432 3.98243 -5.71293 0
M  V30 10119 H 968.059 4.07518 -6.41742 0
M  V30 10120 N 969.634 0.838594 1.33437 0
M  V30 10121 C 970.882 0.433312 1.974 0
M  V30 10122 C 971.203 -1.01078 1.66758 0
M  V30 10123 O 970.473 -1.70406 0.966373 0
M  V30 10124 H 969.053 0.15724 0.730263 0
M  V30 10125 H 971.715 1.07149 1.62804 0
M  V30 10126 H 970.811 0.565144 3.06941 0
M  V30 10127 N 971.112 -1.45937 0.595003 0
M  V30 10128 C 972.06 -2.32155 -0.143798 0
M  V30 10129 C 973.054 -1.45221 -0.872198 0
M  V30 10130 O 974.26 -1.61777 -0.789191 0
M  V30 10131 H 970.635 -0.749165 -0.0652377 0
M  V30 10132 H 972.606 -2.92264 0.602005 0
M  V30 10133 C 971.355 -3.28615 -1.13611 0
M  V30 10134 H 970.678 -3.95496 -0.585044 0
M  V30 10135 H 972.118 -3.91699 -1.62321 0
M  V30 10136 C 970.577 -2.54863 -2.20333 0
M  V30 10137 O 971.107 -2.32071 -3.27881 0
M  V30 10138 N 969.313 -2.15213 -1.95274 0
M  V30 10139 H 968.86 -2.33949 -1.07822 0
M  V30 10140 H 968.818 -1.66188 -2.66888 0
M  V30 10141 N 972.59 -0.333456 -1.54032 0
M  V30 10142 C 973.836 0.266527 -2.01041 0
M  V30 10143 C 974.169 1.51006 -1.2211 0
M  V30 10144 O 973.444 1.92078 -0.306016 0
M  V30 10145 C 973.727 0.59078 -3.55221 0
M  V30 10146 C 973.58 -0.664143 -4.4487 0
M  V30 10147 C 974.899 1.40447 -4.17088 0
M  V30 10148 H 972.018 0.0953979 -0.7308 0
M  V30 10149 H 974.66 -0.451995 -1.84545 0
M  V30 10150 H 972.81 1.20292 -3.69408 0
M  V30 10151 H 974.482 -1.30227 -4.42537 0
M  V30 10152 H 972.725 -1.29106 -4.14143 0
M  V30 10153 H 973.396 -0.392664 -5.50602 0
M  V30 10154 H 975.872 0.886946 -4.06537 0
M  V30 10155 H 974.748 1.6001 -5.2506 0
M  V30 10156 H 975.009 2.40357 -3.71054 0
M  V30 10157 N 974.068 1.57479 -0.061844 0
M  V30 10158 C 975.293 1.97843 0.622311 0
M  V30 10159 C 975.718 0.939602 1.62951 0
M  V30 10160 O 975.076 -0.095958 1.81046 0
M  V30 10161 C 975.124 3.37262 1.2762 0
M  V30 10162 O 974.228 3.35943 2.39199 0
M  V30 10163 H 973.569 0.644212 0.160896 0
M  V30 10164 H 976.099 2.04165 -0.133409 0
M  V30 10165 H 976.109 3.74226 1.62539 0
M  V30 10166 H 974.784 4.12404 0.538112 0
M  V30 10167 H 973.361 3.10737 2.06148 0
M  V30 10168 N 975.546 -0.211634 1.56173 0
M  V30 10169 C 976.509 -1.24588 1.92381 0
M  V30 10170 C 977.509 -1.39297 0.803311 0
M  V30 10171 O 978.699 -1.37392 1.07094 0
M  V30 10172 C 975.831 -2.61807 2.18335 0
M  V30 10173 H 977.024 -0.936814 2.84893 0
M  V30 10174 H 974.577 -0.452471 1.49607 0
M  V30 10175 H 975.312 -2.97795 1.28407 0
M  V30 10176 H 975.097 -2.52506 2.99972 0
M  V30 10177 H 976.587 -3.3642 2.4741 0
M  V30 10178 N 977.024 -1.50153 -0.478725 0
M  V30 10179 C 978.273 -1.60002 -1.22809 0
M  V30 10180 C 978.586 -0.302277 -1.9325 0
M  V30 10181 O 979.792 -0.279583 -2.70057 0
M  V30 10182 C 978.248 -2.82402 -2.23108 0
M  V30 10183 C 977.856 -4.19023 -1.58505 0
M  V30 10184 C 979.6 -3.01593 -2.98734 0
M  V30 10185 C 977.507 -5.32618 -2.57045 0
M  V30 10186 H 976.437 -0.595822 -0.462073 0
M  V30 10187 H 979.088 -1.76573 -0.499412 0
M  V30 10188 H 977.47 -2.59373 -2.99235 0
M  V30 10189 H 978.644 -4.52277 -0.882187 0
M  V30 10190 H 976.959 -4.05374 -0.951877 0
M  V30 10191 H 979.556 -3.8363 -3.72468 0
M  V30 10192 H 979.899 -2.1302 -3.57671 0
M  V30 10193 H 980.432 -3.24766 -2.29721 0
M  V30 10194 H 977.171 -6.23321 -2.02858 0
M  V30 10195 H 976.691 -5.03792 -3.25505 0
M  V30 10196 H 978.37 -5.62877 -3.19028 0
M  V30 10197 N 978.502 0.731368 -1.39602 0
M  V30 10198 C 979.751 1.48647 -1.36334 0
M  V30 10199 C 980.064 1.95565 0.0367383 0
M  V30 10200 O 981.27 2.7082 0.192017 0
M  V30 10201 C 979.726 2.68616 -2.39528 0
M  V30 10202 C 979.334 2.28632 -3.85268 0
M  V30 10203 C 981.078 3.46422 -2.45341 0
M  V30 10204 C 978.985 3.45345 -4.80095 0
M  V30 10205 H 977.915 0.558218 -0.506861 0
M  V30 10206 H 980.566 0.797467 -1.65266 0
M  V30 10207 H 978.948 3.39609 -2.03671 0
M  V30 10208 H 980.122 1.65162 -4.30184 0
M  V30 10209 H 978.437 1.63909 -3.82783 0
M  V30 10210 H 981.034 4.33241 -3.13379 0
M  V30 10211 H 981.377 3.8914 -1.47904 0
M  V30 10212 H 981.91 2.82461 -2.80108 0
M  V30 10213 H 978.649 3.07674 -5.78807 0
M  V30 10214 H 978.169 4.07784 -4.39855 0
M  V30 10215 H 979.848 4.1163 -4.99169 0
M  V30 10216 N 979.98 1.24838 0.961938 0
M  V30 10217 C 980.912 1.00369 2.06055 0
M  V30 10218 C 981.925 -0.0288583 1.62774 0
M  V30 10219 O 983.114 0.208853 1.77274 0
M  V30 10220 C 980.214 0.493953 3.35281 0
M  V30 10221 C 979.387 1.59097 4.07439 0
M  V30 10222 C 978.446 1.08288 5.14937 0
M  V30 10223 O 977.472 1.77577 5.40791 0
M  V30 10224 N 978.674 -0.0796836 5.80445 0
M  V30 10225 H 981.439 1.94962 2.27618 0
M  V30 10226 H 979 1.15945 1.12997 0
M  V30 10227 H 980.992 0.138675 4.04462 0
M  V30 10228 H 979.562 -0.357851 3.10545 0
M  V30 10229 H 978.782 2.11817 3.32456 0
M  V30 10230 H 980.07 2.32817 4.52409 0
M  V30 10231 H 979.468 -0.658827 5.6185 0
M  V30 10232 H 978.025 -0.376057 6.50714 0
M  V30 10233 N 981.458 -1.16348 1.06306 0
M  V30 10234 C 982.874 -1.38873 0.786543 0
M  V30 10235 C 983.074 -1.91915 -0.614061 0
M  V30 10236 O 982.13 -2.11804 -1.3746 0
M  V30 10237 C 983.443 -2.36936 1.85154 0
M  V30 10238 C 984.991 -2.5062 1.87506 0
M  V30 10239 C 985.466 -3.51965 2.9306 0
M  V30 10240 N 986.957 -3.59492 2.92095 0
M  V30 10241 C 987.692 -4.37699 3.70415 0
M  V30 10242 N 987.188 -5.19327 4.58553 0
M  V30 10243 N 988.981 -4.32683 3.58806 0
M  V30 10244 H 981.132 -0.802542 1.96655 0
M  V30 10245 H 983.395 -0.415304 0.852189 0
M  V30 10246 H 983.101 -2.05056 2.85736 0
M  V30 10247 H 982.975 -3.36585 1.70267 0
M  V30 10248 H 985.362 -2.81804 0.875827 0
M  V30 10249 H 985.443 -1.51006 2.06472 0
M  V30 10250 H 985.087 -3.21518 3.93177 0
M  V30 10251 H 985.017 -4.51309 2.71344 0
M  V30 10252 H 987.508 -3.01222 2.28197 0
M  V30 10253 H 987.821 -5.76216 5.1497 0
M  V30 10254 H 986.166 -5.1867 4.62608 0
M  V30 10255 H 989.357 -3.67971 2.89335 0
M  V30 10256 H 989.53 -4.93386 4.20088 0
M  V30 10257 N 982.937 -0.845659 -1.3299 0
M  V30 10258 C 983.867 -0.298957 -2.31578 0
M  V30 10259 C 984.848 0.597012 -1.59279 0
M  V30 10260 O 986.033 0.519142 -1.87132 0
M  V30 10261 C 983.163 0.521109 -3.43368 0
M  V30 10262 C 982.117 -0.279651 -4.27085 0
M  V30 10263 C 981.443 0.664591 -5.30554 0
M  V30 10264 C 982.743 -1.50046 -5.00283 0
M  V30 10265 H 984.437 -1.12272 -2.77552 0
M  V30 10266 H 981.983 -0.54132 -1.33438 0
M  V30 10267 H 983.936 0.913921 -4.1137 0
M  V30 10268 H 982.66 1.37815 -2.96099 0
M  V30 10269 H 981.319 -0.654106 -3.60717 0
M  V30 10270 H 980.967 1.51822 -4.79541 0
M  V30 10271 H 980.667 0.132871 -5.8745 0
M  V30 10272 H 982.191 1.05477 -6.01421 0
M  V30 10273 H 983.605 -1.18044 -5.61016 0
M  V30 10274 H 982.002 -1.96946 -5.66862 0
M  V30 10275 H 983.072 -2.26659 -4.28665 0
M  V30 10276 N 984.415 1.45619 -0.602734 0
M  V30 10277 C 985.645 2.06348 -0.102105 0
M  V30 10278 C 986.053 1.44884 1.21677 0
M  V30 10279 O 985.396 0.555559 1.75098 0
M  V30 10280 C 985.458 3.59309 0.117026 0
M  V30 10281 C 985.122 4.43081 -1.11931 0
M  V30 10282 C 986.119 4.78364 -2.03627 0
M  V30 10283 C 983.804 4.83908 -1.34677 0
M  V30 10284 C 985.798 5.53325 -3.16403 0
M  V30 10285 C 983.485 5.58624 -2.47754 0
M  V30 10286 C 984.483 5.93249 -3.38445 0
M  V30 10287 O 984.171 6.6645 -4.49555 0
M  V30 10288 H 983.903 0.672988 -0.0637478 0
M  V30 10289 H 986.457 1.87928 -0.828983 0
M  V30 10290 H 984.687 3.76111 0.898742 0
M  V30 10291 H 986.376 4.01897 0.568649 0
M  V30 10292 H 987.142 4.47384 -1.87277 0
M  V30 10293 H 983.021 4.56396 -0.649875 0
M  V30 10294 H 986.565 5.80268 -3.87214 0
M  V30 10295 H 982.462 5.89019 -2.64059 0
M  V30 10296 H 983.23 6.84895 -4.48175 0
M  V30 10297 N 985.893 0.34162 1.53853 0
M  V30 10298 C 987.118 -0.259608 2.05769 0
M  V30 10299 C 987.543 -1.43588 1.21507 0
M  V30 10300 O 986.901 -1.79856 0.228364 0
M  V30 10301 C 986.949 -0.654455 3.54611 0
M  V30 10302 O 986.053 -1.75472 3.73207 0
M  V30 10303 H 985.394 -0.0434621 0.662576 0
M  V30 10304 H 987.924 0.495274 1.98515 0
M  V30 10305 H 987.934 -0.932142 3.97209 0
M  V30 10306 H 986.609 0.205779 4.15391 0
M  V30 10307 H 985.186 -1.47444 3.42512 0
M  V30 10308 N 987.371 -1.57444 0.0701946 0
M  V30 10309 C 988.619 -1.93047 -0.598106 0
M  V30 10310 C 988.94 -0.950841 -1.70247 0
M  V30 10311 O 988.21 0.00127177 -1.959 0
M  V30 10312 H 986.79 -0.712648 -0.223924 0
M  V30 10313 H 989.452 -1.94481 0.127674 0
M  V30 10314 H 988.548 -2.94807 -1.02445 0
M  V30 10315 N 988.849 0.203349 -1.56283 0
M  V30 10316 C 990.077 0.941426 -1.84241 0
M  V30 10317 C 990.492 1.77197 -0.651658 0
M  V30 10318 O 989.849 1.78506 0.379713 0
M  V30 10319 C 989.9 1.84429 -3.10915 0
M  V30 10320 O 989.621 1.04729 -4.25398 0
M  V30 10321 C 991.122 2.69474 -3.51993 0
M  V30 10322 H 988.342 0.27507 -0.612027 0
M  V30 10323 H 990.886 0.213088 -2.03387 0
M  V30 10324 H 989.041 2.52635 -2.93691 0
M  V30 10325 H 989.455 1.66179 -4.97478 0
M  V30 10326 H 990.929 3.28495 -4.43616 0
M  V30 10327 H 991.406 3.42775 -2.74594 0
M  V30 10328 H 992.012 2.06652 -3.71719 0
M  V30 10329 N 990.327 1.50405 0.470755 0
M  V30 10330 C 991.29 1.68741 1.5511 0
M  V30 10331 C 992.29 0.558116 1.50804 0
M  V30 10332 O 993.48 0.825149 1.53418 0
M  V30 10333 C 990.612 1.71295 2.94739 0
M  V30 10334 H 991.805 2.65127 1.40169 0
M  V30 10335 H 989.358 1.39891 0.697156 0
M  V30 10336 H 990.093 0.766029 3.15123 0
M  V30 10337 H 989.878 2.53336 2.99271 0
M  V30 10338 H 991.368 1.87434 3.73173 0
M  V30 10339 N 991.805 -0.723954 1.39988 0
M  V30 10340 C 993.221 -1.03095 1.21834 0
M  V30 10341 C 993.421 -2.01309 0.0876647 0
M  V30 10342 O 992.477 -2.46277 -0.55714 0
M  V30 10343 C 993.79 -1.58267 2.5568 0
M  V30 10344 C 995.338 -1.70293 2.6262 0
M  V30 10345 C 995.813 -2.28872 3.96713 0
M  V30 10346 N 997.304 -2.36269 3.98411 0
M  V30 10347 C 998.039 -2.82557 4.98948 0
M  V30 10348 N 997.535 -3.28661 6.0988 0
M  V30 10349 N 999.328 -2.81866 4.86321 0
M  V30 10350 H 991.479 -0.0727891 2.12275 0
M  V30 10351 H 993.742 -0.0949029 0.943238 0
M  V30 10352 H 993.448 -0.935642 3.39026 0
M  V30 10353 H 993.322 -2.56914 2.76179 0
M  V30 10354 H 995.709 -2.34115 1.7965 0
M  V30 10355 H 995.79 -0.70268 2.45959 0
M  V30 10356 H 995.434 -1.65675 4.80119 0
M  V30 10357 H 995.364 -3.29595 4.107 0
M  V30 10358 H 997.855 -2.03697 3.18302 0
M  V30 10359 H 998.168 -3.62524 6.82493 0
M  V30 10360 H 996.513 -3.26641 6.13458 0
M  V30 10361 H 999.704 -2.45179 3.98754 0
M  V30 10362 H 999.877 -3.17626 5.64817 0
M  V30 10363 N 993.283 -1.25346 -0.955304 0
M  V30 10364 C 994.513 -1.12629 -1.732 0
M  V30 10365 C 994.921 0.322748 -1.86427 0
M  V30 10366 O 994.264 1.23381 -1.36099 0
M  V30 10367 C 994.326 -1.7064 -3.16421 0
M  V30 10368 C 993.99 -3.19632 -3.26626 0
M  V30 10369 C 994.987 -4.1663 -3.10991 0
M  V30 10370 C 992.672 -3.59829 -3.50468 0
M  V30 10371 C 994.666 -5.51806 -3.19043 0
M  V30 10372 C 992.353 -4.95143 -3.58157 0
M  V30 10373 C 993.351 -5.90941 -3.42459 0
M  V30 10374 O 993.039 -7.23792 -3.49828 0
M  V30 10375 H 992.771 -0.393646 -0.549562 0
M  V30 10376 H 995.325 -1.66184 -1.20715 0
M  V30 10377 H 993.555 -1.11532 -3.70267 0
M  V30 10378 H 995.244 -1.53032 -3.75947 0
M  V30 10379 H 996.01 -3.86915 -2.92441 0
M  V30 10380 H 991.889 -2.8576 -3.61749 0
M  V30 10381 H 995.433 -6.26559 -3.06707 0
M  V30 10382 H 991.33 -5.24525 -3.76224 0
M  V30 10383 H 992.098 -7.31879 -3.66463 0
M  V30 10384 N 994.761 1.15782 -1.06922 0
M  V30 10385 C 995.711 2.18373 -0.655537 0
M  V30 10386 C 996.695 1.57745 0.317084 0
M  V30 10387 O 997.887 1.76511 0.131509 0
M  V30 10388 C 995.016 3.43263 -0.0502314 0
M  V30 10389 C 994.102 4.10954 -1.04773 0
M  V30 10390 N 994.493 4.542 -2.22567 0
M  V30 10391 C 992.791 4.3723 -0.880087 0
M  V30 10392 C 993.492 5.06641 -2.85815 0
M  V30 10393 N 992.468 4.99917 -2.13505 0
M  V30 10394 H 996.27 2.49533 -1.55276 0
M  V30 10395 H 993.784 1.32303 -0.941793 0
M  V30 10396 H 995.781 4.16063 0.264003 0
M  V30 10397 H 994.441 3.13588 0.842167 0
M  V30 10398 H 995.452 4.47727 -2.60309 0
M  V30 10399 H 992.129 4.17481 -0.0402148 0
M  V30 10400 H 993.519 5.50092 -3.85808 0
M  V30 10401 N 996.239 0.8527 1.3254 0
M  V30 10402 C 997.467 0.469044 2.01513 0
M  V30 10403 C 997.882 -0.933701 1.64096 0
M  V30 10404 O 997.239 -1.60898 0.861283 0
M  V30 10405 C 997.29 0.596228 3.56549 0
M  V30 10406 O 997.011 1.94371 3.92621 0
M  V30 10407 C 998.512 0.211324 4.42796 0
M  V30 10408 H 995.732 0.184589 0.645111 0
M  V30 10409 H 998.276 1.1491 1.69163 0
M  V30 10410 H 996.431 -0.0360712 3.87383 0
M  V30 10411 H 996.845 1.93909 4.87339 0
M  V30 10412 H 998.319 0.351324 5.50881 0
M  V30 10413 H 998.796 -0.848055 4.30935 0
M  V30 10414 H 999.402 0.818617 4.17347 0
M  V30 10415 N 997.718 -1.45297 0.610449 0
M  V30 10416 C 998.65 -2.28742 -0.144884 0
M  V30 10417 C 999.663 -1.40114 -0.828977 0
M  V30 10418 O 1000.85 -1.64461 -0.693887 0
M  V30 10419 C 997.952 -3.15934 -1.22632 0
M  V30 10420 C 997.125 -4.32857 -0.628785 0
M  V30 10421 C 996.184 -5.01237 -1.60148 0
M  V30 10422 O 995.21 -5.57938 -1.12667 0
M  V30 10423 N 996.412 -5.00785 -2.9359 0
M  V30 10424 H 999.177 -2.94207 0.571145 0
M  V30 10425 H 996.738 -1.55517 0.450134 0
M  V30 10426 H 998.73 -3.58545 -1.87691 0
M  V30 10427 H 997.3 -2.52358 -1.84483 0
M  V30 10428 H 996.52 -3.93693 0.199951 0
M  V30 10429 H 997.808 -5.08367 -0.209845 0
M  V30 10430 H 997.206 -4.56014 -3.34765 0
M  V30 10431 H 995.763 -5.4725 -3.54064 0
M  V30 10432 N 999.196 -0.349774 -1.5367 0
M  V30 10433 C 1000.13 0.547309 -2.2154 0
M  V30 10434 C 1001.11 1.09543 -1.20163 0
M  V30 10435 O 1002.29 1.15453 -1.49006 0
M  V30 10436 C 999.418 1.75356 -2.89772 0
M  V30 10437 C 998.464 1.33433 -4.0509 0
M  V30 10438 S 999.297 0.348891 -5.34362 0
M  V30 10439 C 1000.45 1.56183 -6.061 0
M  V30 10440 H 1000.69 -0.0291392 -2.97286 0
M  V30 10441 H 998.219 -0.133853 -1.53819 0
M  V30 10442 H 1000.18 2.44555 -3.29701 0
M  V30 10443 H 998.838 2.30123 -2.1378 0
M  V30 10444 H 998.031 2.23388 -4.5179 0
M  V30 10445 H 997.633 0.721746 -3.6697 0
M  V30 10446 H 999.925 2.49535 -6.29872 0
M  V30 10447 H 1000.87 1.13651 -6.9892 0
M  V30 10448 H 1001.28 1.76071 -5.36339 0
M  V30 10449 N 1000.67 1.57404 -0.0785433 0
M  V30 10450 C 1001.6 2.16131 0.883726 0
M  V30 10451 C 1002.58 1.09015 1.30575 0
M  V30 10452 O 1003.77 1.3708 1.37559 0
M  V30 10453 C 1000.9 2.72836 2.1489 0
M  V30 10454 C 999.854 3.85178 1.86605 0
M  V30 10455 C 999.18 4.28516 3.1981 0
M  V30 10456 C 1000.48 5.09118 1.16601 0
M  V30 10457 H 1002.17 2.9679 0.394484 0
M  V30 10458 H 999.72 1.42763 0.188304 0
M  V30 10459 H 1001.67 3.12567 2.8263 0
M  V30 10460 H 1000.4 1.89408 2.66068 0
M  V30 10461 H 999.056 3.45962 1.21268 0
M  V30 10462 H 998.704 3.42 3.68843 0
M  V30 10463 H 998.404 5.04249 3.01674 0
M  V30 10464 H 999.928 4.70868 3.88737 0
M  V30 10465 H 1001.34 5.46123 1.74422 0
M  V30 10466 H 999.739 5.90173 1.087 0
M  V30 10467 H 1000.81 4.8468 0.146138 0
M  V30 10468 N 1002.15 -0.195058 1.56388 0
M  V30 10469 C 1003.57 -0.545894 1.49974 0
M  V30 10470 C 1003.77 -1.85851 0.778568 0
M  V30 10471 O 1002.82 -2.50346 0.329105 0
M  V30 10472 C 1004.14 -0.600599 2.94641 0
M  V30 10473 C 1005.68 -0.689429 3.05313 0
M  V30 10474 C 1006.16 -0.775243 4.51391 0
M  V30 10475 N 1007.65 -0.838769 4.55542 0
M  V30 10476 C 1008.39 -0.925337 5.65884 0
M  V30 10477 N 1007.88 -0.974204 6.85916 0
M  V30 10478 N 1009.67 -0.962528 5.53798 0
M  V30 10479 H 1001.83 0.66595 2.0169 0
M  V30 10480 H 1004.09 0.237215 0.917842 0
M  V30 10481 H 1003.79 0.29478 3.50462 0
M  V30 10482 H 1003.67 -1.45528 3.47996 0
M  V30 10483 H 1006.06 -1.57524 2.4954 0
M  V30 10484 H 1006.14 0.191451 2.55083 0
M  V30 10485 H 1005.78 0.106215 5.07789 0
M  V30 10486 H 1005.71 -1.67193 4.99354 0
M  V30 10487 H 1008.2 -0.810249 3.69112 0
M  V30 10488 H 1008.51 -1.04077 7.6576 0
M  V30 10489 H 1006.86 -0.942881 6.88574 0
M  V30 10490 H 1010.05 -0.921188 4.58946 0
M  V30 10491 H 1010.22 -1.02653 6.39817 0
M  V30 10492 N 1003.63 -1.50653 -0.462772 0
M  V30 10493 C 1004.88 -1.62297 -1.21603 0
M  V30 10494 C 1005.21 -0.326191 -1.91441 0
M  V30 10495 O 1004.48 0.67284 -1.82491 0
M  V30 10496 C 1004.77 -2.80901 -2.25315 0
M  V30 10497 C 1004.62 -4.20484 -1.59728 0
M  V30 10498 C 1005.94 -2.95049 -3.26549 0
M  V30 10499 H 1003.06 -0.590691 -0.440741 0
M  V30 10500 H 1005.7 -1.83064 -0.508675 0
M  V30 10501 H 1003.85 -2.63325 -2.85643 0
M  V30 10502 H 1005.52 -4.49669 -1.02932 0
M  V30 10503 H 1003.76 -4.24357 -0.900181 0
M  V30 10504 H 1004.44 -4.99416 -2.35133 0
M  V30 10505 H 1006.91 -3.11166 -2.76251 0
M  V30 10506 H 1005.79 -3.79645 -3.96435 0
M  V30 10507 H 1006.05 -2.06019 -3.91163 0
M  V30 10508 N 1005.11 0.71652 -1.4037 0
M  V30 10509 C 1006.52 1.02447 -1.22379 0
M  V30 10510 C 1006.72 2.0126 -0.0983394 0
M  V30 10511 O 1005.78 2.46569 0.544071 0
M  V30 10512 C 1007.09 1.56909 -2.56515 0
M  V30 10513 C 1008.64 1.68898 -2.6352 0
M  V30 10514 C 1009.12 2.26765 -3.97922 0
M  V30 10515 N 1010.61 2.34152 -3.99658 0
M  V30 10516 C 1011.34 2.79907 -5.00439 0
M  V30 10517 N 1010.84 3.25422 -6.11615 0
M  V30 10518 N 1012.63 2.79283 -4.87809 0
M  V30 10519 H 1004.78 0.0615306 -2.12311 0
M  V30 10520 H 1007.05 0.0898994 -0.943728 0
M  V30 10521 H 1006.75 0.917649 -3.39517 0
M  V30 10522 H 1006.63 2.55446 -2.77538 0
M  V30 10523 H 1009.01 2.33159 -1.8089 0
M  V30 10524 H 1009.09 0.689626 -2.46329 0
M  V30 10525 H 1008.74 1.63126 -4.80991 0
M  V30 10526 H 1008.67 3.27413 -4.12442 0
M  V30 10527 H 1011.16 2.02006 -3.19378 0
M  V30 10528 H 1011.47 3.58899 -6.84406 0
M  V30 10529 H 1009.82 3.23383 -6.15181 0
M  V30 10530 H 1013.01 2.43061 -4.00049 0
M  V30 10531 H 1013.18 3.14626 -5.66493 0
M  V30 10532 N 1006.59 1.25851 0.948643 0
M  V30 10533 C 1007.5 1.08516 2.07994 0
M  V30 10534 C 1008.51 0.0206696 1.73988 0
M  V30 10535 O 1009.69 0.222854 2.00163 0
M  V30 10536 C 1006.75 0.712145 3.39307 0
M  V30 10537 C 1005.81 1.85523 3.87143 0
M  V30 10538 C 1005.05 1.49992 5.1219 0
M  V30 10539 O 1005.27 0.398268 5.69008 0
M  V30 10540 O 1004.2 2.33215 5.54882 0
M  V30 10541 H 1008.03 2.03405 2.25522 0
M  V30 10542 H 1005.62 1.04844 1.06433 0
M  V30 10543 H 1007.5 0.516512 4.18223 0
M  V30 10544 H 1006.17 -0.207416 3.23035 0
M  V30 10545 H 1005.08 2.10578 3.09205 0
M  V30 10546 H 1006.41 2.75425 4.07924 0
M  V30 10547 N 1008.06 -1.15214 1.07534 0
M  V30 10548 C 1009.31 -1.86043 0.799629 0
M  V30 10549 C 1009.64 -1.82435 -0.674356 0
M  V30 10550 O 1008.89 -1.24379 -1.51091 0
M  V30 10551 C 1009.19 -3.34623 1.25547 0
M  V30 10552 C 1008.86 -3.58425 2.73573 0
M  V30 10553 C 1007.52 -3.6463 3.14004 0
M  V30 10554 C 1009.87 -3.67977 3.6911 0
M  V30 10555 C 1007.2 -3.779 4.48786 0
M  V30 10556 C 1009.55 -3.82771 5.03656 0
M  V30 10557 C 1008.22 -3.87222 5.43705 0
M  V30 10558 H 1007.49 -0.680781 0.292605 0
M  V30 10559 H 1010.13 -1.36149 1.34669 0
M  V30 10560 H 1008.44 -3.86737 0.627828 0
M  V30 10561 H 1010.14 -3.87836 1.01901 0
M  V30 10562 H 1006.73 -3.54238 2.41275 0
M  V30 10563 H 1010.91 -3.62482 3.39 0
M  V30 10564 H 1006.17 -3.79604 4.79281 0
M  V30 10565 H 1010.34 -3.89104 5.77556 0
M  V30 10566 H 1007.97 -3.97256 6.48145 0
M  V30 10567 N 1009.54 -0.859717 -1.32086 0
M  V30 10568 C 1010.79 -0.461779 -1.96343 0
M  V30 10569 C 1011.1 0.988837 -1.68764 0
M  V30 10570 O 1012.31 1.49244 -2.268 0
M  V30 10571 C 1010.77 -0.77484 -3.5146 0
M  V30 10572 C 1010.37 -2.24153 -3.87891 0
M  V30 10573 C 1012.12 -0.444873 -4.22162 0
M  V30 10574 C 1010.03 -2.49754 -5.36075 0
M  V30 10575 H 1008.96 -0.168951 -0.734828 0
M  V30 10576 H 1011.61 -1.0512 -1.50406 0
M  V30 10577 H 1009.99 -0.114792 -3.95834 0
M  V30 10578 H 1011.16 -2.94378 -3.54511 0
M  V30 10579 H 1009.48 -2.53651 -3.30227 0
M  V30 10580 H 1012.07 -0.613508 -5.31169 0
M  V30 10581 H 1012.42 0.61391 -4.11749 0
M  V30 10582 H 1012.95 -1.06103 -3.83389 0
M  V30 10583 H 1009.69 -3.54276 -5.51515 0
M  V30 10584 H 1009.21 -1.84112 -5.70844 0
M  V30 10585 H 1010.89 -2.3396 -6.03218 0
M  V30 10586 N 1011.02 1.44971 -0.618145 0
M  V30 10587 C 1012.44 1.57077 -0.282666 0
M  V30 10588 C 1012.64 1.60782 1.21456 0
M  V30 10589 O 1011.69 1.54382 1.99806 0
M  V30 10590 C 1013.01 2.84858 -0.963148 0
M  V30 10591 C 1014.55 2.9855 -0.940062 0
M  V30 10592 C 1015.03 4.29115 -1.60076 0
M  V30 10593 N 1016.52 4.35899 -1.56674 0
M  V30 10594 C 1017.25 5.35617 -2.04701 0
M  V30 10595 N 1016.75 6.41813 -2.6086 0
M  V30 10596 N 1018.54 5.27042 -1.95406 0
M  V30 10597 H 1010.69 1.4081 -1.59017 0
M  V30 10598 H 1012.96 0.673914 -0.666741 0
M  V30 10599 H 1012.66 2.88059 -2.0178 0
M  V30 10600 H 1012.54 3.73966 -0.492901 0
M  V30 10601 H 1014.92 2.94909 0.10607 0
M  V30 10602 H 1015.01 2.10825 -1.44868 0
M  V30 10603 H 1014.65 4.33514 -2.64627 0
M  V30 10604 H 1014.58 5.15675 -1.06708 0
M  V30 10605 H 1017.07 3.59766 -1.15659 0
M  V30 10606 H 1017.38 7.14166 -2.95273 0
M  V30 10607 H 1015.73 6.42534 -2.64905 0
M  V30 10608 H 1018.92 4.42987 -1.51263 0
M  V30 10609 H 1019.09 6.04604 -2.33147 0
M  V30 10610 N 1012.5 0.357919 1.53482 0
M  V30 10611 C 1013.75 -0.234163 2.01142 0
M  V30 10612 C 1014.07 -1.49399 1.2454 0
M  V30 10613 O 1013.33 -1.92981 0.325111 0
M  V30 10614 C 1013.63 -0.579617 3.52669 0
M  V30 10615 C 1013.29 0.584988 4.47089 0
M  V30 10616 C 1011.96 0.904558 4.72622 0
M  V30 10617 C 1014.31 1.3656 5.02992 0
M  V30 10618 C 1011.64 2.00685 5.5131 0
M  V30 10619 C 1013.99 2.45824 5.82884 0
M  V30 10620 C 1012.65 2.78325 6.06706 0
M  V30 10621 H 1011.92 -0.0856863 0.736029 0
M  V30 10622 H 1014.57 0.488801 1.85157 0
M  V30 10623 H 1012.87 -1.38349 3.66561 0
M  V30 10624 H 1014.57 -1.04985 3.87013 0
M  V30 10625 H 1011.16 0.32587 4.27359 0
M  V30 10626 H 1015.34 1.13196 4.83219 0
M  V30 10627 H 1010.6 2.26272 5.67988 0
M  V30 10628 H 1014.77 3.06732 6.25211 0
M  V30 10629 H 1012.4 3.63862 6.67464 0
M  V30 10630 N 1013.98 -1.5736 0.0868897 0
M  V30 10631 C 1014.93 -2.10105 -0.885435 0
M  V30 10632 C 1015.91 -1.01417 -1.24913 0
M  V30 10633 O 1017.1 -1.27704 -1.22558 0
M  V30 10634 C 1014.23 -2.67837 -2.14752 0
M  V30 10635 C 1013.32 -3.83553 -1.80963 0
M  V30 10636 N 1013.71 -4.91917 -1.17693 0
M  V30 10637 C 1012.01 -3.93134 -2.10622 0
M  V30 10638 C 1012.71 -5.72628 -1.02332 0
M  V30 10639 N 1011.68 -5.2139 -1.53796 0
M  V30 10640 H 1015.49 -2.91272 -0.392179 0
M  V30 10641 H 1013 -1.61981 -0.116566 0
M  V30 10642 H 1015 -3.03948 -2.85344 0
M  V30 10643 H 1013.66 -1.88122 -2.64651 0
M  V30 10644 H 1014.67 -5.10964 -0.844731 0
M  V30 10645 H 1011.34 -3.24416 -2.62793 0
M  V30 10646 H 1012.73 -6.69813 -0.529171 0
M  V30 10647 N 1015.45 0.186762 -1.56489 0
M  V30 10648 C 1016.39 1.25565 -1.91745 0
M  V30 10649 C 1017.4 1.4128 -0.80894 0
M  V30 10650 O 1018.59 1.41558 -1.08737 0
M  V30 10651 C 1015.69 2.62662 -2.14154 0
M  V30 10652 C 1014.86 2.68448 -3.45333 0
M  V30 10653 C 1013.92 3.86798 -3.56754 0
M  V30 10654 O 1012.95 3.73514 -4.29507 0
M  V30 10655 N 1014.15 5.02607 -2.90459 0
M  V30 10656 H 1016.91 0.956351 -2.84032 0
M  V30 10657 H 1014.47 0.376631 -1.57458 0
M  V30 10658 H 1016.47 3.40277 -2.19075 0
M  V30 10659 H 1015.04 2.85046 -1.28326 0
M  V30 10660 H 1014.26 1.77044 -3.52206 0
M  V30 10661 H 1015.54 2.69311 -4.31682 0
M  V30 10662 H 1014.94 5.163 -2.31194 0
M  V30 10663 H 1013.5 5.78139 -3.00996 0
M  V30 10664 N 1016.93 1.50896 0.454776 0
M  V30 10665 C 1018.18 1.61936 1.20248 0
M  V30 10666 C 1018.49 0.332983 1.92745 0
M  V30 10667 O 1019.7 0.322512 2.69578 0
M  V30 10668 C 1018.16 2.85916 2.18587 0
M  V30 10669 C 1017.76 4.21492 1.51818 0
M  V30 10670 C 1019.51 3.06307 2.93898 0
M  V30 10671 C 1017.42 5.3664 2.48539 0
M  V30 10672 H 1016.35 0.603098 0.452536 0
M  V30 10673 H 1019 1.77345 0.471257 0
M  V30 10674 H 1017.38 2.64101 2.95071 0
M  V30 10675 H 1018.55 4.53623 0.810123 0
M  V30 10676 H 1016.87 4.06837 0.887265 0
M  V30 10677 H 1019.46 3.89507 3.66317 0
M  V30 10678 H 1019.81 2.18683 3.54236 0
M  V30 10679 H 1020.34 3.2838 2.24525 0
M  V30 10680 H 1017.08 6.26469 1.92916 0
M  V30 10681 H 1016.6 5.08907 3.17449 0
M  V30 10682 H 1018.28 5.67881 3.10033 0
M  V30 10683 N 1018.41 -0.709066 1.40748 0
M  V30 10684 C 1019.82 -1.28847 1.35112 0
M  V30 10685 C 1020.17 -1.9618 0.0277149 0
M  V30 10686 O 1019.3 -1.97955 -0.874233 0
M  V30 10687 C 1019.89 -2.34306 2.44716 0
M  V30 10688 C 1018.45 -2.87856 2.4252 0
M  V30 10689 C 1017.6 -1.61723 2.25257 0
M  V30 10690 H 1020.55 -0.504742 1.50459 0
M  V30 10691 H 1020.57 -3.15297 2.12998 0
M  V30 10692 H 1020.08 -1.85271 3.41022 0
M  V30 10693 H 1018.18 -3.41103 1.49931 0
M  V30 10694 H 1018.3 -3.39205 3.38344 0
M  V30 10695 H 1016.66 -1.87032 1.7289 0
M  V30 10696 H 1017.44 -1.14703 3.23571 0
M  V30 10697 N 1019.89 -1.26353 -0.941956 0
M  V30 10698 C 1020.84 -1.07654 -2.06188 0
M  V30 10699 C 1021.83 -0.00369741 -1.694 0
M  V30 10700 O 1023.04 -0.160316 -1.79285 0
M  V30 10701 H 1019.41 -0.331274 -0.675101 0
M  V30 10702 H 1021.38 -2.02566 -2.19111 0
M  V30 10703 C 1020.13 -0.725436 -3.40048 0
M  V30 10704 H 1019.46 -1.54283 -3.68832 0
M  V30 10705 H 1020.9 -0.634383 -4.19227 0
M  V30 10706 C 1019.35 0.569369 -3.32054 0
M  V30 10707 O 1019.88 1.60791 -3.68116 0
M  V30 10708 N 1018.09 0.559714 -2.85159 0
M  V30 10709 H 1017.64 -0.285817 -2.56009 0
M  V30 10710 H 1017.6 1.42617 -2.80193 0
M  V30 10711 N 1021.37 1.14642 -1.08144 0
M  V30 10712 C 1022.78 1.6719 -0.830923 0
M  V30 10713 C 1023.13 1.85373 0.642749 0
M  V30 10714 O 1022.25 1.56293 1.49671 0
M  V30 10715 C 1022.85 3.03697 -1.50179 0
M  V30 10716 C 1021.41 3.5329 -1.29858 0
M  V30 10717 C 1020.56 2.28828 -1.5663 0
M  V30 10718 H 1023.51 0.987441 -1.24239 0
M  V30 10719 H 1023.53 3.69023 -0.9275 0
M  V30 10720 H 1023.04 2.90431 -2.57432 0
M  V30 10721 H 1021.14 3.71783 -0.246626 0
M  V30 10722 H 1021.25 4.34231 -2.02436 0
M  V30 10723 H 1019.62 2.34769 -0.987716 0
M  V30 10724 H 1020.4 2.18141 -2.65084 0
M  V30 10725 N 1022.85 0.866709 1.31628 0
M  V30 10726 C 1023.78 0.335762 2.31073 0
M  V30 10727 C 1024.76 -0.571597 1.60209 0
M  V30 10728 O 1025.94 -0.489306 1.87935 0
M  V30 10729 C 1023.07 -0.466416 3.44154 0
M  V30 10730 C 1022.03 0.347561 4.26586 0
M  V30 10731 C 1021.35 -0.5801 5.31544 0
M  V30 10732 C 1022.65 1.57986 4.97833 0
M  V30 10733 H 1024.35 1.16673 2.75731 0
M  V30 10734 H 1021.89 0.56248 1.3256 0
M  V30 10735 H 1023.84 -0.84836 4.12772 0
M  V30 10736 H 1022.57 -1.33086 2.98254 0
M  V30 10737 H 1021.23 0.71141 3.59631 0
M  V30 10738 H 1020.88 -1.44174 4.81895 0
M  V30 10739 H 1020.58 -0.0393965 5.87587 0
M  V30 10740 H 1022.1 -0.958958 6.03023 0
M  V30 10741 H 1023.51 1.26954 5.59067 0
M  V30 10742 H 1021.91 2.05939 5.63657 0
M  V30 10743 H 1022.98 2.3345 4.25005 0
M  V30 10744 N 1024.32 -1.44642 0.625825 0
M  V30 10745 C 1025.74 -1.56925 0.290992 0
M  V30 10746 C 1025.94 -1.61424 -1.20601 0
M  V30 10747 O 1025 -1.55439 -1.98985 0
M  V30 10748 C 1026.31 -2.84343 0.978242 0
M  V30 10749 C 1027.86 -2.98047 0.955882 0
M  V30 10750 C 1028.33 -4.2826 1.62349 0
M  V30 10751 N 1029.82 -4.35062 1.58983 0
M  V30 10752 C 1030.56 -5.34524 2.07538 0
M  V30 10753 N 1030.05 -6.4042 2.6426 0
M  V30 10754 N 1031.85 -5.25998 1.98198 0
M  V30 10755 H 1024 -1.39965 1.59761 0
M  V30 10756 H 1026.26 -0.670368 0.670306 0
M  V30 10757 H 1025.97 -2.86985 2.03304 0
M  V30 10758 H 1025.84 -3.73699 0.512726 0
M  V30 10759 H 1028.23 -2.94961 -0.0904292 0
M  V30 10760 H 1028.31 -2.10053 1.45984 0
M  V30 10761 H 1027.95 -4.32105 2.66923 0
M  V30 10762 H 1027.88 -5.15102 1.09441 0
M  V30 10763 H 1030.37 -3.59147 1.17565 0
M  V30 10764 H 1030.69 -7.1259 2.99056 0
M  V30 10765 H 1029.03 -6.41121 2.68308 0
M  V30 10766 H 1032.22 -4.42178 1.5361 0
M  V30 10767 H 1032.4 -6.03359 2.3635 0
M  V30 10768 N 1025.8 -0.366053 -1.5329 0
M  V30 10769 C 1026.73 0.514916 -2.23341 0
M  V30 10770 C 1027.75 1.04579 -1.24768 0
M  V30 10771 O 1028.94 0.952084 -1.50989 0
M  V30 10772 C 1026.04 1.72374 -2.91788 0
M  V30 10773 C 1025.21 1.32429 -4.16871 0
M  V30 10774 C 1024.27 2.39524 -4.68524 0
M  V30 10775 O 1023.29 2.01895 -5.32191 0
M  V30 10776 N 1024.5 3.71116 -4.46378 0
M  V30 10777 H 1027.26 -0.0851272 -2.99579 0
M  V30 10778 H 1024.82 -0.191255 -1.60766 0
M  V30 10779 H 1026.81 2.43496 -3.23252 0
M  V30 10780 H 1025.38 2.23064 -2.19 0
M  V30 10781 H 1024.6 0.442901 -3.91704 0
M  V30 10782 H 1025.89 1.03372 -4.98188 0
M  V30 10783 H 1025.29 4.04463 -3.95508 0
M  V30 10784 H 1023.85 4.38341 -4.82391 0
M  V30 10785 N 1027.28 1.57312 -0.0952337 0
M  V30 10786 C 1028.7 1.57445 0.261416 0
M  V30 10787 C 1028.9 1.10639 1.68408 0
M  V30 10788 O 1027.95 0.782912 2.40056 0
M  V30 10789 C 1029.26 3.00659 0.0497206 0
M  V30 10790 C 1030.81 3.1278 0.117459 0
M  V30 10791 C 1031.29 4.57952 -0.0662441 0
M  V30 10792 N 1032.78 4.63199 -0.0114146 0
M  V30 10793 C 1033.51 5.73255 -0.128799 0
M  V30 10794 N 1033.01 6.92146 -0.301026 0
M  V30 10795 N 1034.8 5.62056 -0.0700599 0
M  V30 10796 H 1026.95 1.86045 -1.02475 0
M  V30 10797 H 1029.22 0.858726 -0.401614 0
M  V30 10798 H 1028.92 3.39102 -0.932888 0
M  V30 10799 H 1028.8 3.68792 0.791975 0
M  V30 10800 H 1031.18 2.74209 1.09057 0
M  V30 10801 H 1031.26 2.47238 -0.656288 0
M  V30 10802 H 1030.91 4.97217 -1.03623 0
M  V30 10803 H 1030.84 5.21555 0.727198 0
M  V30 10804 H 1033.33 3.77712 0.119154 0
M  V30 10805 H 1033.64 7.71855 -0.382104 0
M  V30 10806 H 1031.99 6.94184 -0.336695 0
M  V30 10807 H 1035.18 4.68057 0.0633587 0
M  V30 10808 H 1035.35 6.4779 -0.164991 0
M  V30 10809 N 1028.76 -0.17846 1.56586 0
M  V30 10810 C 1029.69 -1.22342 1.98884 0
M  V30 10811 C 1030.67 -1.46564 0.86331 0
M  V30 10812 O 1031.85 -1.58019 1.12887 0
M  V30 10813 C 1028.98 -2.56396 2.34261 0
M  V30 10814 C 1027.94 -2.46756 3.49708 0
M  V30 10815 C 1027.26 -3.85235 3.70807 0
M  V30 10816 C 1028.56 -1.97838 4.83381 0
M  V30 10817 H 1030.26 -0.871848 2.86425 0
M  V30 10818 H 1027.8 -0.417948 1.37801 0
M  V30 10819 H 1029.76 -3.29695 2.62448 0
M  V30 10820 H 1028.48 -2.93327 1.43621 0
M  V30 10821 H 1027.14 -1.75912 3.21637 0
M  V30 10822 H 1026.79 -4.19547 2.7747 0
M  V30 10823 H 1026.49 -3.79655 4.48481 0
M  V30 10824 H 1028.01 -4.60131 4.01387 0
M  V30 10825 H 1029.43 -2.60906 5.10491 0
M  V30 10826 H 1027.82 -2.03223 5.64642 0
M  V30 10827 H 1028.89 -0.932339 4.75852 0
M  V30 10828 N 1030.24 -1.51135 -0.446768 0
M  V30 10829 C 1031.15 -1.74595 -1.56696 0
M  V30 10830 C 1032.16 -0.629816 -1.62201 0
M  V30 10831 O 1033.34 -0.910987 -1.79619 0
M  V30 10832 C 1030.4 -1.85738 -2.9275 0
M  V30 10833 C 1029.46 -3.09564 -2.97437 0
M  V30 10834 C 1028.7 -3.20165 -4.27001 0
M  V30 10835 O 1028.92 -2.36939 -5.1886 0
M  V30 10836 O 1027.85 -4.13077 -4.3778 0
M  V30 10837 H 1031.68 -2.69601 -1.39817 0
M  V30 10838 H 1029.26 -1.35523 -0.628805 0
M  V30 10839 H 1031.15 -1.95107 -3.73512 0
M  V30 10840 H 1029.82 -0.939184 -3.09776 0
M  V30 10841 H 1028.73 -3.05679 -2.15664 0
M  V30 10842 H 1030.06 -4.01041 -2.85353 0
M  V30 10843 N 1031.71 0.701592 -1.41122 0
M  V30 10844 C 1032.62 1.84548 -1.44841 0
M  V30 10845 C 1033.64 1.70654 -0.339594 0
M  V30 10846 O 1034.82 1.92675 -0.586378 0
M  V30 10847 C 1031.88 3.20477 -1.3227 0
M  V30 10848 C 1030.94 3.46524 -2.53415 0
M  V30 10849 C 1030.17 4.75968 -2.41434 0
M  V30 10850 O 1030.4 5.52037 -1.43566 0
M  V30 10851 O 1029.33 5.02664 -3.31078 0
M  V30 10852 H 1033.16 1.84367 -2.41335 0
M  V30 10853 H 1030.74 0.853863 -1.22595 0
M  V30 10854 H 1032.62 4.01642 -1.2752 0
M  V30 10855 H 1031.3 3.21355 -0.388889 0
M  V30 10856 H 1030.21 2.65313 -2.63742 0
M  V30 10857 H 1031.54 3.50455 -3.45604 0
M  V30 10858 N 1033.19 1.2685 0.935242 0
M  V30 10859 C 1034.42 1.15371 1.71386 0
M  V30 10860 C 1034.83 -0.293048 1.86917 0
M  V30 10861 O 1034.17 -1.212 1.38044 0
M  V30 10862 C 1034.23 1.75652 3.13666 0
M  V30 10863 C 1033.9 3.24788 3.215 0
M  V30 10864 C 1034.9 4.21525 3.04323 0
M  V30 10865 C 1032.58 3.65359 3.447 0
M  V30 10866 C 1034.57 5.56812 3.10224 0
M  V30 10867 C 1032.26 5.00778 3.50235 0
M  V30 10868 C 1033.26 5.96314 3.33014 0
M  V30 10869 O 1032.95 7.29266 3.38269 0
M  V30 10870 H 1032.68 0.40234 0.54323 0
M  V30 10871 H 1035.23 1.68083 1.18056 0
M  V30 10872 H 1033.46 1.17408 3.68446 0
M  V30 10873 H 1035.15 1.58994 3.73465 0
M  V30 10874 H 1035.92 3.91519 2.86249 0
M  V30 10875 H 1031.8 2.91479 3.57157 0
M  V30 10876 H 1035.34 6.3136 2.967 0
M  V30 10877 H 1031.24 5.30444 3.67831 0
M  V30 10878 H 1032.01 7.37616 3.54774 0
M  V30 10879 N 1034.67 -1.14067 1.0875 0
M  V30 10880 C 1035.92 -1.85185 0.819317 0
M  V30 10881 C 1036.25 -1.8314 -0.654969 0
M  V30 10882 O 1035.5 -1.25974 -1.49763 0
M  V30 10883 C 1035.8 -3.33273 1.29089 0
M  V30 10884 C 1035.47 -3.55504 2.77359 0
M  V30 10885 C 1034.13 -3.61279 3.17853 0
M  V30 10886 C 1036.48 -3.64041 3.72992 0
M  V30 10887 C 1033.81 -3.73119 4.52768 0
M  V30 10888 C 1036.16 -3.77407 5.07687 0
M  V30 10889 C 1034.82 -3.81433 5.47782 0
M  V30 10890 H 1034.09 -0.67764 0.299809 0
M  V30 10891 H 1036.74 -1.34713 1.36106 0
M  V30 10892 H 1035.05 -3.86049 0.668811 0
M  V30 10893 H 1036.74 -3.86734 1.06009 0
M  V30 10894 H 1033.33 -3.51659 2.45019 0
M  V30 10895 H 1037.52 -3.58866 3.42825 0
M  V30 10896 H 1032.77 -3.74499 4.83281 0
M  V30 10897 H 1036.95 -3.82956 5.81651 0
M  V30 10898 H 1034.57 -3.9036 6.52321 0
M  V30 10899 N 1036.15 -0.873678 -1.31166 0
M  V30 10900 C 1037.08 -0.289389 -2.27366 0
M  V30 10901 C 1038.09 0.549667 -1.5324 0
M  V30 10902 O 1039.28 0.371056 -1.74601 0
M  V30 10903 C 1036.38 0.60807 -3.334 0
M  V30 10904 C 1035.56 -0.199379 -4.36945 0
M  V30 10905 C 1034.61 0.626798 -5.22454 0
M  V30 10906 O 1033.64 0.0535121 -5.69175 0
M  V30 10907 N 1034.84 1.93809 -5.47191 0
M  V30 10908 H 1037.61 -1.1161 -2.78143 0
M  V30 10909 H 1035.17 -0.735529 -1.44228 0
M  V30 10910 H 1037.16 1.16656 -3.87522 0
M  V30 10911 H 1035.73 1.33545 -2.82638 0
M  V30 10912 H 1034.95 -0.939316 -3.82845 0
M  V30 10913 H 1036.24 -0.75329 -5.03193 0
M  V30 10914 H 1035.64 2.42693 -5.10995 0
M  V30 10915 H 1034.19 2.44428 -6.04234 0
M  V30 10916 N 1037.63 1.44308 -0.633487 0
M  V30 10917 C 1038.58 2.27814 0.0919619 0
M  V30 10918 C 1039.56 1.38798 0.813882 0
M  V30 10919 O 1040.75 1.62587 0.699601 0
M  V30 10920 C 1037.88 3.26158 1.07125 0
M  V30 10921 C 1036.97 4.22663 0.348831 0
M  V30 10922 N 1037.36 5.01938 -0.623854 0
M  V30 10923 C 1035.66 4.42041 0.592958 0
M  V30 10924 C 1036.36 5.72129 -1.05088 0
M  V30 10925 N 1035.33 5.42205 -0.389183 0
M  V30 10926 H 1039.14 2.86515 -0.654721 0
M  V30 10927 H 1036.65 1.55773 -0.459178 0
M  V30 10928 H 1038.65 3.84742 1.60559 0
M  V30 10929 H 1037.31 2.69019 1.81821 0
M  V30 10930 H 1038.32 5.08119 -1.00176 0
M  V30 10931 H 1034.99 3.95997 1.32261 0
M  V30 10932 H 1036.38 6.45797 -1.85461 0
M  V30 10933 N 1039.1 0.374177 1.53094 0
M  V30 10934 C 1040.07 -0.455999 2.24618 0
M  V30 10935 C 1041.07 -1.00269 1.25709 0
M  V30 10936 O 1042.26 -0.887077 1.49922 0
M  V30 10937 C 1039.39 -1.63822 2.98957 0
M  V30 10938 H 1040.58 0.169986 2.99418 0
M  V30 10939 H 1038.14 0.126015 1.55791 0
M  V30 10940 H 1038.87 -2.30205 2.28421 0
M  V30 10941 H 1038.66 -1.25308 3.71538 0
M  V30 10942 H 1040.15 -2.22633 3.53305 0
M  V30 10943 N 1040.58 -1.57259 0.103575 0
M  V30 10944 C 1041.83 -1.95744 -0.552781 0
M  V30 10945 C 1042.18 -0.985175 -1.65264 0
M  V30 10946 O 1041.48 -0.0125763 -1.91596 0
M  V30 10947 C 1041.67 -3.38549 -1.14538 0
M  V30 10948 C 1041.5 -4.49579 -0.104467 0
M  V30 10949 C 1040.27 -5.04273 0.321999 0
M  V30 10950 C 1042.47 -5.09909 0.670622 0
M  V30 10951 N 1040.45 -5.98866 1.3503 0
M  V30 10952 C 1041.82 -6.00299 1.55052 0
M  V30 10953 C 1043.88 -4.9262 0.723209 0
M  V30 10954 C 1042.58 -6.75254 2.4784 0
M  V30 10955 C 1044.6 -5.68243 1.63873 0
M  V30 10956 C 1043.97 -6.58306 2.50624 0
M  V30 10957 H 1040.07 -0.762769 -0.172359 0
M  V30 10958 H 1042.65 -1.93789 0.188113 0
M  V30 10959 H 1040.82 -3.41182 -1.85606 0
M  V30 10960 H 1042.55 -3.64194 -1.7648 0
M  V30 10961 H 1039.31 -4.73552 -0.0674026 0
M  V30 10962 H 1039.73 -6.50865 1.86291 0
M  V30 10963 H 1044.37 -4.22747 0.0666625 0
M  V30 10964 H 1042.09 -7.44383 3.14516 0
M  V30 10965 H 1045.68 -5.56876 1.68466 0
M  V30 10966 H 1044.56 -7.15799 3.20315 0
M  V30 10967 N 1042.06 0.170153 -1.56679 0
M  V30 10968 C 1043.29 0.90618 -1.86556 0
M  V30 10969 C 1043.71 1.74986 -0.690044 0
M  V30 10970 O 1043.07 1.77672 0.360862 0
M  V30 10971 C 1043.12 1.75777 -3.14857 0
M  V30 10972 O 1042.22 2.85952 -2.97162 0
M  V30 10973 H 1041.56 0.253781 -0.613589 0
M  V30 10974 H 1044.09 0.167943 -2.0391 0
M  V30 10975 H 1044.1 2.15747 -3.46291 0
M  V30 10976 H 1042.78 1.13807 -4.00026 0
M  V30 10977 H 1041.35 2.49557 -2.77084 0
M  V30 10978 N 1043.54 1.5137 0.438746 0
M  V30 10979 C 1044.77 1.6753 1.20901 0
M  V30 10980 C 1045.18 0.371573 1.85515 0
M  V30 10981 O 1044.52 -0.659701 1.71446 0
M  V30 10982 C 1044.58 2.73305 2.33548 0
M  V30 10983 C 1044.25 4.15944 1.89313 0
M  V30 10984 C 1045.24 5.00769 1.39736 0
M  V30 10985 C 1042.93 4.62036 1.97047 0
M  V30 10986 C 1044.92 6.29747 0.984773 0
M  V30 10987 C 1042.61 5.91011 1.554 0
M  V30 10988 C 1043.61 6.74693 1.06197 0
M  V30 10989 O 1043.29 8.01256 0.651407 0
M  V30 10990 H 1043.03 0.565404 0.370532 0
M  V30 10991 H 1045.58 1.98543 0.526296 0
M  V30 10992 H 1043.81 2.37604 3.05092 0
M  V30 10993 H 1045.5 2.78359 2.95417 0
M  V30 10994 H 1046.27 4.66363 1.33156 0
M  V30 10995 H 1042.14 3.97025 2.34291 0
M  V30 10996 H 1045.69 6.95015 0.600029 0
M  V30 10997 H 1041.59 6.24932 1.6165 0
M  V30 10998 H 1042.35 8.148 0.777382 0
M  V30 10999 N 1045.02 -0.694098 1.41492 0
M  V30 11000 C 1046.24 -1.48286 1.44288 0
M  V30 11001 C 1046.66 -1.88737 0.0485783 0
M  V30 11002 O 1046.02 -1.56881 -0.932449 0
M  V30 11003 C 1046.07 -2.74446 2.3529 0
M  V30 11004 O 1045.79 -2.35698 3.69294 0
M  V30 11005 C 1047.29 -3.68175 2.46905 0
M  V30 11006 H 1044.51 -0.45692 0.491391 0
M  V30 11007 H 1047.05 -0.854477 1.85793 0
M  V30 11008 H 1045.21 -3.33518 1.9709 0
M  V30 11009 H 1045.62 -3.17029 4.17843 0
M  V30 11010 H 1047.1 -4.53476 3.14743 0
M  V30 11011 H 1047.57 -4.12763 1.50078 0
M  V30 11012 H 1048.18 -3.15006 2.85747 0
M  V30 11013 N 1046.49 -1.27344 -0.928501 0
M  V30 11014 C 1047.44 -1.09835 -2.05034 0
M  V30 11015 C 1048.44 -0.0216643 -1.69386 0
M  V30 11016 O 1049.64 -0.179323 -1.79105 0
M  V30 11017 H 1046.02 -0.338416 -0.671549 0
M  V30 11018 H 1047.99 -2.04879 -2.1695 0
M  V30 11019 C 1046.74 -0.761462 -3.3926 0
M  V30 11020 H 1046.06 -1.58186 -3.67175 0
M  V30 11021 H 1047.5 -0.678812 -4.18531 0
M  V30 11022 C 1045.96 0.534118 -3.32639 0
M  V30 11023 O 1046.49 1.56877 -3.69801 0
M  V30 11024 N 1044.7 0.529437 -2.85736 0
M  V30 11025 H 1044.24 -0.312954 -2.55692 0
M  V30 11026 H 1044.2 1.39637 -2.81689 0
M  V30 11027 N 1047.97 1.13488 -1.09353 0
M  V30 11028 C 1049.22 1.84383 -0.827488 0
M  V30 11029 C 1049.54 1.83892 0.648745 0
M  V30 11030 O 1048.81 1.29415 1.47066 0
M  V30 11031 H 1047.39 0.682732 -0.303127 0
M  V30 11032 H 1050.05 1.37477 -1.38152 0
M  V30 11033 H 1049.15 2.88919 -1.18035 0
M  V30 11034 N 1049.45 0.880621 1.30701 0
M  V30 11035 C 1050.7 0.492957 1.95583 0
M  V30 11036 C 1051.01 -0.961863 1.70316 0
M  V30 11037 O 1052.22 -1.45617 2.29146 0
M  V30 11038 C 1050.68 0.830656 3.50183 0
M  V30 11039 C 1050.28 2.30295 3.84276 0
M  V30 11040 C 1052.03 0.511979 4.21401 0
M  V30 11041 C 1049.93 2.58251 5.32034 0
M  V30 11042 H 1048.86 0.18062 0.732047 0
M  V30 11043 H 1051.52 1.075 1.48715 0
M  V30 11044 H 1049.9 0.177752 3.95601 0
M  V30 11045 H 1051.07 2.99981 3.49783 0
M  V30 11046 H 1049.39 2.58873 3.2615 0
M  V30 11047 H 1051.98 0.697935 5.30125 0
M  V30 11048 H 1052.33 -0.548327 4.12673 0
M  V30 11049 H 1052.86 1.12189 3.81652 0
M  V30 11050 H 1049.6 3.63005 5.45809 0
M  V30 11051 H 1049.12 1.9317 5.67843 0
M  V30 11052 H 1050.8 2.43527 5.99419 0
M  V30 11053 N 1050.93 -1.4397 0.641131 0
M  V30 11054 C 1052.21 -1.95436 0.0800918 0
M  V30 11055 C 1052.59 -1.58282 -1.39678 0
M  V30 11056 O 1051.93 -0.861867 -2.11623 0
M  V30 11057 C 1052.14 -3.47589 0.313531 0
M  V30 11058 C 1053.49 -4.2407 0.212034 0
M  V30 11059 O 1054.52 -3.55353 0.245434 0
M  V30 11060 O 1053.38 -5.46356 0.125455 0
M  V30 11061 H 1050.47 -0.826834 -0.0165735 0
M  V30 11062 H 1053.02 -1.5397 0.71353 0
M  V30 11063 H 1051.79 -3.67716 1.33793 0
M  V30 11064 H 1051.41 -3.96025 -0.353563 0
M  V30 11065 N 1052.41 -0.382291 -1.52893 0
M  V30 11066 C 1053.34 0.500194 -2.22651 0
M  V30 11067 C 1054.32 1.06969 -1.22459 0
M  V30 11068 O 1055.5 1.12267 -1.51422 0
M  V30 11069 C 1052.63 1.6917 -2.93427 0
M  V30 11070 C 1051.68 1.24811 -4.07829 0
M  V30 11071 S 1052.51 0.235466 -5.34982 0
M  V30 11072 C 1053.66 1.43292 -6.09277 0
M  V30 11073 H 1053.9 -0.0921913 -2.97157 0
M  V30 11074 H 1051.43 -0.16645 -1.535 0
M  V30 11075 H 1053.39 2.37507 -3.34815 0
M  V30 11076 H 1052.05 2.25537 -2.18613 0
M  V30 11077 H 1051.24 2.13754 -4.56426 0
M  V30 11078 H 1050.84 0.643744 -3.68418 0
M  V30 11079 H 1053.14 2.36118 -6.35023 0
M  V30 11080 H 1054.08 0.988003 -7.01173 0
M  V30 11081 H 1054.49 1.64655 -5.39953 0
M  V30 11082 N 1053.89 1.57202 -0.111913 0
M  V30 11083 C 1054.83 2.16186 0.858286 0
M  V30 11084 C 1055.83 1.10917 1.28039 0
M  V30 11085 O 1057.03 1.29233 1.25295 0
M  V30 11086 H 1053.41 0.691777 0.29487 0
M  V30 11087 H 1055.38 2.96499 0.336265 0
M  V30 11088 C 1054.13 2.77024 2.10127 0
M  V30 11089 H 1053.45 3.5772 1.78539 0
M  V30 11090 H 1054.89 3.21841 2.76033 0
M  V30 11091 C 1053.35 1.73752 2.88638 0
M  V30 11092 O 1053.88 1.18659 3.83774 0
M  V30 11093 N 1052.09 1.43855 2.52496 0
M  V30 11094 H 1051.63 1.88846 1.75199 0
M  V30 11095 H 1051.59 0.749985 3.05324 0
M  V30 11096 N 1055.36 -0.161842 1.56767 0
M  V30 11097 C 1056.33 -1.18404 1.96247 0
M  V30 11098 C 1057.33 -1.3667 0.84722 0
M  V30 11099 O 1058.52 -1.33915 1.11411 0
M  V30 11100 C 1055.65 -2.54728 2.26553 0
M  V30 11101 H 1056.84 -0.845703 2.87729 0
M  V30 11102 H 1054.39 -0.404645 1.50971 0
M  V30 11103 H 1055.13 -2.93559 1.37816 0
M  V30 11104 H 1054.91 -2.42834 3.07854 0
M  V30 11105 H 1056.4 -3.28378 2.57987 0
M  V30 11106 N 1056.84 -1.516 -0.430713 0
M  V30 11107 C 1058.09 -1.6484 -1.18134 0
M  V30 11108 C 1058.42 -0.366725 -1.90706 0
M  V30 11109 O 1057.7 0.63398 -1.83878 0
M  V30 11110 C 1057.98 -2.85617 -2.19306 0
M  V30 11111 C 1057.83 -4.23778 -1.50773 0
M  V30 11112 C 1059.15 -3.01909 -3.20217 0
M  V30 11113 H 1056.27 -0.599907 -0.428113 0
M  V30 11114 H 1058.91 -1.84102 -0.46973 0
M  V30 11115 H 1057.06 -2.69325 -2.79993 0
M  V30 11116 H 1058.73 -4.51752 -0.93371 0
M  V30 11117 H 1056.98 -4.26171 -0.809966 0
M  V30 11118 H 1057.65 -5.04291 -2.24487 0
M  V30 11119 H 1060.12 -3.16956 -2.69589 0
M  V30 11120 H 1059 -3.87968 -3.88293 0
M  V30 11121 H 1059.26 -2.1427 -3.86705 0
M  V30 11122 N 1058.32 0.686584 -1.41858 0
M  V30 11123 C 1059.25 1.81264 -1.47193 0
M  V30 11124 C 1060.23 1.66875 -0.329657 0
M  V30 11125 O 1061.42 1.86473 -0.542347 0
M  V30 11126 C 1058.55 3.19472 -1.36216 0
M  V30 11127 C 1057.5 3.4858 -2.48347 0
M  V30 11128 C 1056.83 4.86239 -2.22432 0
M  V30 11129 C 1058.13 3.46653 -3.90678 0
M  V30 11130 H 1059.82 1.77057 -2.41436 0
M  V30 11131 H 1057.37 0.850415 -1.16206 0
M  V30 11132 H 1059.32 3.97969 -1.38558 0
M  V30 11133 H 1058.04 3.24327 -0.384611 0
M  V30 11134 H 1056.7 2.72437 -2.45303 0
M  V30 11135 H 1056.35 4.8773 -1.22999 0
M  V30 11136 H 1056.05 5.06677 -2.97577 0
M  V30 11137 H 1057.57 5.67034 -2.26505 0
M  V30 11138 H 1058.99 4.15139 -3.95389 0
M  V30 11139 H 1057.38 3.78625 -4.65578 0
M  V30 11140 H 1058.45 2.45451 -4.18189 0
M  V30 11141 N 1059.8 1.27835 0.921735 0
M  V30 11142 C 1060.74 1.11075 2.02314 0
M  V30 11143 C 1061.71 0.0101195 1.66097 0
M  V30 11144 O 1062.9 0.173564 1.90009 0
M  V30 11145 C 1060.04 0.770251 3.36394 0
M  V30 11146 C 1059.15 1.94912 3.8553 0
M  V30 11147 C 1058.29 1.54996 5.08084 0
M  V30 11148 C 1057.33 2.69595 5.49531 0
M  V30 11149 N 1056.46 2.30227 6.6328 0
M  V30 11150 H 1061.3 2.05319 2.15982 0
M  V30 11151 H 1058.84 1.022 1.058 0
M  V30 11152 H 1060.8 0.553624 4.1351 0
M  V30 11153 H 1059.43 -0.135238 3.22517 0
M  V30 11154 H 1058.48 2.27811 3.04641 0
M  V30 11155 H 1059.79 2.80858 4.12214 0
M  V30 11156 H 1058.95 1.29493 5.9272 0
M  V30 11157 H 1057.69 0.661676 4.83191 0
M  V30 11158 H 1056.69 2.95806 4.63442 0
M  V30 11159 H 1057.92 3.59054 5.76417 0
M  V30 11160 H 1055.86 1.43858 6.40032 0
M  V30 11161 H 1055.78 3.09711 6.89649 0
M  V30 11162 H 1057.05 2.07987 7.5124 0
M  V30 11163 N 1061.28 -1.12907 1.09954 0
M  V30 11164 C 1062.52 -1.83941 0.837255 0
M  V30 11165 C 1062.84 -1.84234 -0.638984 0
M  V30 11166 O 1062.11 -1.30193 -1.46378 0
M  V30 11167 H 1060.69 -0.681115 0.306743 0
M  V30 11168 H 1063.36 -1.36743 1.38879 0
M  V30 11169 H 1062.45 -2.88289 1.19565 0
M  V30 11170 N 1062.75 -0.88754 -1.30232 0
M  V30 11171 C 1064 -0.507279 -1.96043 0
M  V30 11172 C 1064.33 0.944059 -1.70052 0
M  V30 11173 O 1063.58 1.68255 -0.999444 0
M  V30 11174 C 1063.88 -0.731765 -3.49828 0
M  V30 11175 C 1063.55 -2.15858 -3.95874 0
M  V30 11176 C 1062.21 -2.54875 -4.08157 0
M  V30 11177 C 1064.56 -3.0883 -4.19849 0
M  V30 11178 C 1061.89 -3.86069 -4.41778 0
M  V30 11179 C 1064.24 -4.39559 -4.5494 0
M  V30 11180 C 1062.91 -4.78465 -4.65432 0
M  V30 11181 H 1062.18 -0.185627 -0.717373 0
M  V30 11182 H 1064.82 -1.12388 -1.55052 0
M  V30 11183 H 1063.13 -0.0321473 -3.91787 0
M  V30 11184 H 1064.83 -0.417107 -3.98825 0
M  V30 11185 H 1061.42 -1.84574 -3.86821 0
M  V30 11186 H 1065.6 -2.79906 -4.09837 0
M  V30 11187 H 1060.86 -4.1595 -4.48102 0
M  V30 11188 H 1065.03 -5.11636 -4.72442 0
M  V30 11189 H 1062.66 -5.80162 -4.91239 0
M  V30 11190 N 1064.23 1.43628 -0.648757 0
M  V30 11191 C 1065.64 1.85142 -0.24066 0
M  V30 11192 C 1065.99 1.54304 1.21181 0
M  V30 11193 O 1065.12 0.989792 1.92437 0
M  V30 11194 C 1065.71 3.3606 -0.429999 0
M  V30 11195 C 1064.27 3.76323 -0.0762588 0
M  V30 11196 C 1063.42 2.67382 -0.734999 0
M  V30 11197 H 1066.37 1.33844 -0.852734 0
M  V30 11198 H 1066.39 3.79102 0.325836 0
M  V30 11199 H 1065.9 3.58474 -1.48721 0
M  V30 11200 H 1064.01 3.59521 0.978529 0
M  V30 11201 H 1064.12 4.76498 -0.498612 0
M  V30 11202 H 1062.48 2.54141 -0.168644 0
M  V30 11203 H 1063.27 2.92625 -1.79515 0
M  V30 11204 N 1065.71 0.390394 1.52688 0
M  V30 11205 C 1066.62 -0.451543 2.30213 0
M  V30 11206 C 1067.64 -1.07051 1.37172 0
M  V30 11207 O 1068.81 -1.07609 1.70242 0
M  V30 11208 C 1065.88 -1.56299 3.0947 0
M  V30 11209 C 1064.94 -0.969017 4.18221 0
M  V30 11210 C 1064.17 -2.0275 4.93688 0
M  V30 11211 O 1064.39 -3.24273 4.69258 0
M  V30 11212 O 1063.33 -1.64418 5.79008 0
M  V30 11213 H 1067.15 0.180042 3.03166 0
M  V30 11214 H 1064.74 0.154082 1.48603 0
M  V30 11215 H 1066.62 -2.20864 3.58883 0
M  V30 11216 H 1065.3 -2.17952 2.3933 0
M  V30 11217 H 1064.2 -0.286587 3.73001 0
M  V30 11218 H 1065.54 -0.396687 4.90599 0
M  V30 11219 N 1067.19 -1.57141 0.120249 0
M  V30 11220 C 1068.43 -1.97124 -0.540521 0
M  V30 11221 C 1068.79 -1.0022 -1.63768 0
M  V30 11222 O 1069.99 -1.29146 -2.35743 0
M  V30 11223 C 1068.26 -3.41371 -1.05833 0
M  V30 11224 S 1069.82 -4.03367 -1.72745 0
M  V30 11225 H 1066.64 -0.688962 -0.175646 0
M  V30 11226 H 1069.24 -1.94416 0.205625 0
M  V30 11227 H 1067.95 -4.09646 -0.248656 0
M  V30 11228 H 1067.48 -3.47732 -1.83972 0
M  V30 11229 H 1069.49 -3.94227 -3.0133 0
M  V30 11230 N 1068.67 0.153526 -1.5685 0
M  V30 11231 C 1069.6 1.19162 -2.00805 0
M  V30 11232 C 1070.58 1.45172 -0.886518 0
M  V30 11233 O 1071.76 1.56203 -1.15387 0
M  V30 11234 C 1068.89 2.52637 -2.38311 0
M  V30 11235 C 1067.85 2.41161 -3.53589 0
M  V30 11236 C 1067.17 3.79287 -3.76889 0
M  V30 11237 C 1068.47 1.90122 -4.86468 0
M  V30 11238 H 1070.17 0.82617 -2.87776 0
M  V30 11239 H 1067.71 0.395972 -1.38449 0
M  V30 11240 H 1069.67 3.25478 -2.6766 0
M  V30 11241 H 1068.39 2.91005 -1.4827 0
M  V30 11242 H 1067.05 1.70772 -3.24395 0
M  V30 11243 H 1066.7 4.15079 -2.84109 0
M  V30 11244 H 1066.4 3.72472 -4.54465 0
M  V30 11245 H 1067.92 4.53687 -4.08657 0
M  V30 11246 H 1069.33 2.52752 -5.14577 0
M  V30 11247 H 1067.73 1.94214 -5.67804 0
M  V30 11248 H 1068.8 0.856517 -4.77275 0
M  V30 11249 N 1070.14 1.51827 0.422667 0
M  V30 11250 C 1071.08 1.70409 1.53275 0
M  V30 11251 C 1072.09 0.584584 1.51942 0
M  V30 11252 O 1073.28 0.859349 1.56453 0
M  V30 11253 C 1070.38 1.717 2.92185 0
M  V30 11254 C 1069.55 3.00472 3.17861 0
M  V30 11255 C 1068.61 2.93755 4.36571 0
M  V30 11256 O 1067.64 3.67682 4.3451 0
M  V30 11257 N 1068.84 2.10612 5.40946 0
M  V30 11258 H 1071.6 2.66176 1.37734 0
M  V30 11259 H 1069.16 1.49895 0.611799 0
M  V30 11260 H 1071.16 1.64756 3.69645 0
M  V30 11261 H 1069.73 0.834655 3.01251 0
M  V30 11262 H 1068.95 3.21171 2.28567 0
M  V30 11263 H 1070.23 3.85684 3.31851 0
M  V30 11264 H 1069.63 1.49954 5.45463 0
M  V30 11265 H 1068.19 2.09535 6.17202 0
M  V30 11266 N 1071.62 -0.679052 1.4222 0
M  V30 11267 C 1072.59 -1.77448 1.45069 0
M  V30 11268 C 1073.59 -1.57189 0.338882 0
M  V30 11269 O 1074.78 -1.63559 0.599519 0
M  V30 11270 C 1071.91 -3.1603 1.27819 0
M  V30 11271 H 1073.1 -1.7631 2.426 0
M  V30 11272 H 1070.65 -0.888277 1.28605 0
M  V30 11273 H 1071.39 -3.22796 0.311946 0
M  V30 11274 H 1071.17 -3.32138 2.08391 0
M  V30 11275 H 1072.66 -3.9596 1.32686 0
M  V30 11276 N 1073.1 -1.28322 -0.914942 0
M  V30 11277 C 1074.38 -1.06111 -1.64316 0
M  V30 11278 C 1074.76 0.399934 -2.07277 0
M  V30 11279 O 1074.11 1.38577 -1.81683 0
M  V30 11280 C 1074.32 -2.03461 -2.83557 0
M  V30 11281 C 1075.66 -2.33541 -3.54604 0
M  V30 11282 O 1076.69 -2.01536 -2.93704 0
M  V30 11283 O 1075.55 -2.88158 -4.64357 0
M  V30 11284 H 1072.64 -0.405451 -0.72079 0
M  V30 11285 H 1075.19 -1.39636 -0.964352 0
M  V30 11286 H 1073.96 -3.01938 -2.48896 0
M  V30 11287 H 1073.58 -1.70574 -3.59152 0
M  V30 11288 N 1074.58 1.12322 -1.10551 0
M  V30 11289 C 1075.83 1.83216 -0.84349 0
M  V30 11290 C 1076.14 1.85075 0.632992 0
M  V30 11291 O 1077.35 2.51976 1.01095 0
M  V30 11292 C 1075.8 3.28994 -1.45915 0
M  V30 11293 C 1075.41 3.3549 -2.96901 0
M  V30 11294 C 1077.15 4.0485 -1.27657 0
M  V30 11295 C 1075.06 4.7561 -3.51496 0
M  V30 11296 H 1073.99 0.686471 -0.311887 0
M  V30 11297 H 1076.64 1.26463 -1.32964 0
M  V30 11298 H 1075.02 3.85621 -0.900678 0
M  V30 11299 H 1076.2 2.88795 -3.59074 0
M  V30 11300 H 1074.51 2.73107 -3.14327 0
M  V30 11301 H 1077.11 5.08316 -1.65889 0
M  V30 11302 H 1077.45 4.15727 -0.218258 0
M  V30 11303 H 1077.99 3.54584 -1.80318 0
M  V30 11304 H 1074.73 4.69927 -4.56999 0
M  V30 11305 H 1074.25 5.22753 -2.94091 0
M  V30 11306 H 1075.92 5.44552 -3.49388 0
M  V30 11307 N 1076.06 0.894434 1.2976 0
M  V30 11308 C 1077.3 0.524501 1.97556 0
M  V30 11309 C 1077.66 -0.911202 1.69 0
M  V30 11310 O 1078.86 -1.38774 2.30207 0
M  V30 11311 C 1077.13 0.802636 3.48271 0
M  V30 11312 S 1078.69 0.536223 4.35511 0
M  V30 11313 H 1075.51 0.194786 0.683798 0
M  V30 11314 H 1078.11 1.15574 1.5768 0
M  V30 11315 H 1076.82 1.84586 3.66546 0
M  V30 11316 H 1076.35 0.159316 3.93077 0
M  V30 11317 H 1078.36 -0.621056 4.92298 0
M  V30 11318 N 1077.53 -1.43282 0.656365 0
M  V30 11319 C 1078.46 -2.33492 -0.0196962 0
M  V30 11320 C 1079.45 -1.49647 -0.80868 0
M  V30 11321 O 1080.63 -1.78303 -0.769529 0
M  V30 11322 C 1077.76 -3.33052 -0.984574 0
M  V30 11323 C 1076.71 -4.26908 -0.305483 0
M  V30 11324 C 1076.04 -5.16531 -1.38202 0
M  V30 11325 C 1077.34 -5.16073 0.804081 0
M  V30 11326 H 1079.03 -2.90272 0.733661 0
M  V30 11327 H 1076.58 -1.39574 0.354259 0
M  V30 11328 H 1078.53 -3.9506 -1.46647 0
M  V30 11329 H 1077.26 -2.74535 -1.76913 0
M  V30 11330 H 1075.92 -3.66268 0.155995 0
M  V30 11331 H 1075.56 -4.54351 -2.1581 0
M  V30 11332 H 1075.26 -5.80148 -0.932878 0
M  V30 11333 H 1076.79 -5.81414 -1.86522 0
M  V30 11334 H 1078.2 -5.71873 0.404212 0
M  V30 11335 H 1076.6 -5.88427 1.17789 0
M  V30 11336 H 1077.67 -4.55574 1.66073 0
M  V30 11337 N 1079.01 -0.398486 -1.52479 0
M  V30 11338 C 1079.96 0.449343 -2.23528 0
M  V30 11339 C 1080.95 1.02218 -1.24259 0
M  V30 11340 O 1082.14 0.946757 -1.49551 0
M  V30 11341 C 1079.27 1.5712 -3.05235 0
M  V30 11342 C 1078.35 1.00966 -4.11906 0
M  V30 11343 N 1078.75 0.173855 -5.05501 0
M  V30 11344 C 1077.04 1.28124 -4.272 0
M  V30 11345 C 1077.74 -0.137391 -5.81538 0
M  V30 11346 N 1076.72 0.468972 -5.41573 0
M  V30 11347 H 1080.52 -0.195654 -2.93248 0
M  V30 11348 H 1078.04 -0.208305 -1.61059 0
M  V30 11349 H 1080.03 2.19108 -3.54679 0
M  V30 11350 H 1078.69 2.21893 -2.37052 0
M  V30 11351 H 1079.7 -0.189618 -5.17553 0
M  V30 11352 H 1076.38 1.92933 -3.70247 0
M  V30 11353 H 1077.77 -0.815159 -6.66937 0
M  V30 11354 N 1080.49 1.57075 -0.12858 0
M  V30 11355 C 1081.42 2.18833 0.814519 0
M  V30 11356 C 1082.4 1.13114 1.2704 0
M  V30 11357 O 1083.59 1.41387 1.33129 0
M  V30 11358 C 1080.72 2.79535 2.06101 0
M  V30 11359 C 1079.67 3.9092 1.74257 0
M  V30 11360 C 1079 4.38473 3.06015 0
M  V30 11361 C 1080.3 5.1257 1.00345 0
M  V30 11362 H 1081.99 2.97895 0.299862 0
M  V30 11363 H 1079.54 1.4329 0.14279 0
M  V30 11364 H 1081.49 3.21401 2.72543 0
M  V30 11365 H 1080.21 1.97777 2.59907 0
M  V30 11366 H 1078.87 3.49645 1.102 0
M  V30 11367 H 1078.52 3.53561 3.57776 0
M  V30 11368 H 1078.22 5.13591 2.85479 0
M  V30 11369 H 1079.75 4.82997 3.7356 0
M  V30 11370 H 1081.16 5.51395 1.56959 0
M  V30 11371 H 1079.56 5.93333 0.898693 0
M  V30 11372 H 1080.63 4.84899 -0.0081335 0
M  V30 11373 N 1081.97 -0.145205 1.5693 0
M  V30 11374 C 1082.92 -1.19841 1.99351 0
M  V30 11375 C 1083.91 -1.44371 0.886197 0
M  V30 11376 O 1085.12 -1.44642 1.07138 0
M  V30 11377 H 1081.49 -0.403437 0.63462 0
M  V30 11378 H 1083.46 -0.813932 2.87085 0
M  V30 11379 C 1082.21 -2.52377 2.39167 0
M  V30 11380 H 1081.54 -2.34332 3.23927 0
M  V30 11381 H 1082.98 -3.24694 2.72671 0
M  V30 11382 C 1081.43 -3.1305 1.24503 0
M  V30 11383 O 1081.96 -3.97962 0.546739 0
M  V30 11384 N 1080.17 -2.72528 1.00882 0
M  V30 11385 H 1079.72 -2.03576 1.57843 0
M  V30 11386 H 1079.68 -3.13456 0.24351 0
M  V30 11387 N 1083.45 -1.52049 -0.414609 0
M  V30 11388 C 1084.86 -1.40729 -0.752822 0
M  V30 11389 C 1085.06 -0.507468 -1.95005 0
M  V30 11390 O 1084.12 0.0288189 -2.52484 0
M  V30 11391 C 1085.43 -2.83163 -1.01189 0
M  V30 11392 C 1086.98 -2.92469 -1.11494 0
M  V30 11393 C 1087.46 -4.35859 -1.4068 0
M  V30 11394 N 1088.95 -4.39069 -1.47557 0
M  V30 11395 C 1089.68 -5.47072 -1.71756 0
M  V30 11396 N 1089.18 -6.65201 -1.93595 0
M  V30 11397 N 1090.97 -5.3458 -1.73726 0
M  V30 11398 H 1083.12 -2.09089 0.373549 0
M  V30 11399 H 1085.38 -0.942188 0.104814 0
M  V30 11400 H 1085.09 -3.51104 -0.204609 0
M  V30 11401 H 1084.96 -3.23874 -1.93353 0
M  V30 11402 H 1087.35 -2.24711 -1.91282 0
M  V30 11403 H 1087.43 -2.55222 -0.171794 0
M  V30 11404 H 1087.08 -5.04174 -0.614119 0
M  V30 11405 H 1087.01 -4.70637 -2.36238 0
M  V30 11406 H 1089.5 -3.53913 -1.32491 0
M  V30 11407 H 1089.81 -7.43297 -2.11495 0
M  V30 11408 H 1088.16 -6.68276 -1.90871 0
M  V30 11409 H 1091.35 -4.41271 -1.56198 0
M  V30 11410 H 1091.52 -6.18826 -1.92246 0
M  V30 11411 N 1084.93 0.6715 -1.42579 0
M  V30 11412 C 1086.15 1.46471 -1.46836 0
M  V30 11413 C 1086.58 1.87921 -0.0820658 0
M  V30 11414 O 1085.93 1.5621 0.920217 0
M  V30 11415 C 1085.98 2.68796 -2.40377 0
M  V30 11416 O 1085.09 3.67188 -1.87741 0
M  V30 11417 H 1084.43 0.439901 -0.497376 0
M  V30 11418 H 1086.96 0.823342 -1.87303 0
M  V30 11419 H 1086.97 3.16828 -2.57068 0
M  V30 11420 H 1085.64 2.37967 -3.41093 0
M  V30 11421 H 1084.22 3.26237 -1.80621 0
M  V30 11422 N 1086.4 1.28806 0.908124 0
M  V30 11423 C 1087.33 1.15758 2.02787 0
M  V30 11424 C 1088.31 0.053911 1.70015 0
M  V30 11425 O 1089.5 0.231901 1.9281 0
M  V30 11426 C 1086.63 0.824526 3.37371 0
M  V30 11427 C 1085.58 1.88359 3.84324 0
M  V30 11428 C 1084.91 1.40404 5.15937 0
M  V30 11429 C 1086.21 3.29108 4.05568 0
M  V30 11430 H 1087.9 2.09431 2.13961 0
M  V30 11431 H 1085.45 1.00831 1.02806 0
M  V30 11432 H 1087.4 0.71999 4.15204 0
M  V30 11433 H 1086.13 -0.147902 3.26265 0
M  V30 11434 H 1084.79 1.97736 3.087 0
M  V30 11435 H 1084.43 0.420515 5.01239 0
M  V30 11436 H 1084.13 2.11224 5.48323 0
M  V30 11437 H 1085.66 1.31283 5.9632 0
M  V30 11438 H 1087.07 3.2262 4.73909 0
M  V30 11439 H 1085.47 3.97812 4.49294 0
M  V30 11440 H 1086.54 3.72709 3.10187 0
M  V30 11441 N 1087.88 -1.11734 1.11145 0
M  V30 11442 C 1088.81 -2.1976 0.789152 0
M  V30 11443 C 1089.79 -1.68382 -0.241143 0
M  V30 11444 O 1090.98 -1.93914 -0.105292 0
M  V30 11445 C 1088.11 -3.46549 0.228204 0
M  V30 11446 C 1087.06 -4.11123 1.19002 0
M  V30 11447 C 1086.39 -5.32451 0.489928 0
M  V30 11448 C 1087.69 -4.56406 2.53951 0
M  V30 11449 H 1089.38 -2.46978 1.69241 0
M  V30 11450 H 1086.93 -1.18705 0.81517 0
M  V30 11451 H 1088.88 -4.21399 -0.00945908 0
M  V30 11452 H 1087.6 -3.18782 -0.71033 0
M  V30 11453 H 1086.26 -3.38264 1.41326 0
M  V30 11454 H 1085.91 -5.00953 -0.453315 0
M  V30 11455 H 1085.61 -5.76605 1.1314 0
M  V30 11456 H 1087.14 -6.10042 0.260984 0
M  V30 11457 H 1088.55 -5.22592 2.35733 0
M  V30 11458 H 1086.95 -5.11363 3.14051 0
M  V30 11459 H 1088.02 -3.7001 3.13402 0
M  V30 11460 N 1089.36 -0.901303 -1.29284 0
M  V30 11461 C 1090.29 -0.337552 -2.26701 0
M  V30 11462 C 1091.3 0.517039 -1.54371 0
M  V30 11463 O 1092.49 0.333937 -1.75349 0
M  V30 11464 C 1089.59 0.537214 -3.34615 0
M  V30 11465 C 1088.77 -0.292017 -4.36424 0
M  V30 11466 C 1087.83 0.515837 -5.23666 0
M  V30 11467 O 1086.85 -0.0672303 -5.6916 0
M  V30 11468 N 1088.05 1.82159 -5.51179 0
M  V30 11469 H 1090.82 -1.17484 -2.75713 0
M  V30 11470 H 1088.38 -0.765957 -1.42635 0
M  V30 11471 H 1090.37 1.0841 -3.8991 0
M  V30 11472 H 1088.94 1.2752 -2.85408 0
M  V30 11473 H 1088.16 -1.02031 -3.80767 0
M  V30 11474 H 1089.45 -0.859855 -5.01482 0
M  V30 11475 H 1088.85 2.318 -5.16028 0
M  V30 11476 H 1087.4 2.31556 -6.09282 0
M  V30 11477 N 1090.84 1.42931 -0.663954 0
M  V30 11478 C 1091.79 2.27958 0.0436184 0
M  V30 11479 C 1092.77 1.40493 0.784258 0
M  V30 11480 O 1093.96 1.64035 0.664956 0
M  V30 11481 C 1091.09 3.28357 1.00183 0
M  V30 11482 C 1090.18 4.23308 0.259099 0
M  V30 11483 N 1090.57 5.00502 -0.730182 0
M  V30 11484 C 1088.87 4.43199 0.499061 0
M  V30 11485 C 1089.57 5.69771 -1.17201 0
M  V30 11486 N 1088.54 5.41258 -0.504105 0
M  V30 11487 H 1092.35 2.85061 -0.715348 0
M  V30 11488 H 1089.86 1.54764 -0.492117 0
M  V30 11489 H 1091.86 3.88061 1.52362 0
M  V30 11490 H 1090.52 2.72815 1.76074 0
M  V30 11491 H 1091.53 5.0588 -1.10932 0
M  V30 11492 H 1088.21 3.98713 1.23831 0
M  V30 11493 H 1089.6 6.41718 -1.99117 0
M  V30 11494 N 1092.32 0.406567 1.52266 0
M  V30 11495 C 1093.56 -0.169611 2.03695 0
M  V30 11496 C 1093.92 -1.42596 1.2857 0
M  V30 11497 O 1095.12 -2.08041 1.70212 0
M  V30 11498 C 1093.39 -0.413924 3.54995 0
M  V30 11499 S 1094.95 -0.957916 4.28217 0
M  V30 11500 H 1091.77 -0.0462362 0.709495 0
M  V30 11501 H 1094.37 0.558895 1.87341 0
M  V30 11502 H 1093.07 0.507285 4.07253 0
M  V30 11503 H 1092.61 -1.17038 3.75587 0
M  V30 11504 H 1094.62 -2.2387 4.42828 0
M  V30 11505 N 1093.79 -1.57004 0.136909 0
M  V30 11506 C 1094.74 -2.16246 -0.806607 0
M  V30 11507 C 1095.71 -1.09246 -1.25118 0
M  V30 11508 O 1096.9 -1.3724 -1.32551 0
M  V30 11509 C 1094.04 -2.78031 -2.04433 0
M  V30 11510 C 1093.15 -3.99393 -1.64649 0
M  V30 11511 C 1092.28 -4.49208 -2.83524 0
M  V30 11512 C 1091.32 -5.63059 -2.40064 0
M  V30 11513 N 1090.46 -6.07537 -3.51913 0
M  V30 11514 H 1095.3 -2.9654 -0.294596 0
M  V30 11515 H 1092.84 -1.46491 -0.133705 0
M  V30 11516 H 1094.8 -3.11992 -2.76978 0
M  V30 11517 H 1093.43 -2.00398 -2.53062 0
M  V30 11518 H 1092.48 -3.71477 -0.819077 0
M  V30 11519 H 1093.79 -4.81904 -1.28723 0
M  V30 11520 H 1092.94 -4.85171 -3.64271 0
M  V30 11521 H 1091.68 -3.65683 -3.22688 0
M  V30 11522 H 1090.69 -5.26682 -1.57754 0
M  V30 11523 H 1091.91 -6.48362 -2.01997 0
M  V30 11524 H 1089.86 -5.2695 -3.90717 0
M  V30 11525 H 1089.78 -6.84949 -3.1997 0
M  V30 11526 H 1091.04 -6.48143 -4.33048 0
M  V30 11527 N 1095.27 0.136881 -1.57004 0
M  V30 11528 C 1096.68 0.695911 -1.73245 0
M  V30 11529 C 1097.03 1.8118 -0.75288 0
M  V30 11530 O 1096.16 2.16258 0.0782477 0
M  V30 11531 C 1096.75 1.26914 -3.14131 0
M  V30 11532 C 1095.31 1.77463 -3.31939 0
M  V30 11533 C 1094.46 0.667128 -2.69156 0
M  V30 11534 H 1097.41 -0.0888841 -1.58451 0
M  V30 11535 H 1097.43 2.13892 -3.14691 0
M  V30 11536 H 1096.94 0.456754 -3.85403 0
M  V30 11537 H 1095.05 2.61236 -2.65681 0
M  V30 11538 H 1095.16 1.89638 -4.39971 0
M  V30 11539 H 1093.52 1.09629 -2.29899 0
M  V30 11540 H 1094.31 -0.13398 -3.43038 0
M  V30 11541 N 1096.75 1.52266 0.40654 0
M  V30 11542 C 1098 1.66452 1.15325 0
M  V30 11543 C 1098.33 0.395728 1.90432 0
M  V30 11544 O 1097.58 -0.621382 1.85573 0
M  V30 11545 C 1097.88 2.8389 2.1712 0
M  V30 11546 C 1097.55 4.22011 1.58801 0
M  V30 11547 C 1096.21 4.59579 1.42621 0
M  V30 11548 C 1098.56 5.08074 1.16236 0
M  V30 11549 C 1095.89 5.80885 0.823967 0
M  V30 11550 C 1098.24 6.29988 0.574284 0
M  V30 11551 C 1096.9 6.66303 0.399638 0
M  V30 11552 H 1096.17 0.609092 0.422005 0
M  V30 11553 H 1098.82 1.86374 0.440131 0
M  V30 11554 H 1097.13 2.58314 2.94586 0
M  V30 11555 H 1098.82 2.92063 2.74774 0
M  V30 11556 H 1095.41 3.92408 1.72378 0
M  V30 11557 H 1099.6 4.79631 1.27544 0
M  V30 11558 H 1094.85 6.07644 0.676694 0
M  V30 11559 H 1099.03 6.96 0.236081 0
M  V30 11560 H 1096.65 7.60169 -0.0691262 0
M  V30 11561 N 1098.23 -0.663929 1.42933 0
M  V30 11562 C 1099.64 -0.978346 1.26097 0
M  V30 11563 C 1099.84 -2.00756 0.172968 0
M  V30 11564 O 1098.9 -2.48418 -0.452184 0
M  V30 11565 C 1100.21 -1.4728 2.62162 0
M  V30 11566 C 1101.76 -1.59001 2.69606 0
M  V30 11567 C 1102.24 -2.1184 4.06064 0
M  V30 11568 N 1103.73 -2.19158 4.08074 0
M  V30 11569 C 1104.46 -2.61141 5.10483 0
M  V30 11570 N 1103.96 -3.02498 6.23271 0
M  V30 11571 N 1105.75 -2.60986 4.97838 0
M  V30 11572 H 1097.9 0.0173096 2.12393 0
M  V30 11573 H 1100.17 -0.0548116 0.946414 0
M  V30 11574 H 1099.87 -0.791008 3.42689 0
M  V30 11575 H 1099.75 -2.4497 2.86827 0
M  V30 11576 H 1102.13 -2.26284 1.89418 0
M  V30 11577 H 1102.21 -0.597728 2.48718 0
M  V30 11578 H 1101.86 -1.45162 4.86714 0
M  V30 11579 H 1101.79 -3.1188 4.2431 0
M  V30 11580 H 1104.28 -1.90013 3.26655 0
M  V30 11581 H 1104.59 -3.33251 6.97254 0
M  V30 11582 H 1102.94 -3.00328 6.2676 0
M  V30 11583 H 1106.13 -2.28046 4.08794 0
M  V30 11584 H 1106.3 -2.93384 5.7778 0
M  V30 11585 N 1099.71 -1.29285 -0.901281 0
M  V30 11586 C 1100.95 -1.16934 -1.64836 0
M  V30 11587 C 1101.28 0.279826 -1.92982 0
M  V30 11588 O 1100.55 1.19179 -1.55478 0
M  V30 11589 H 1099.13 -0.429768 -0.61099 0
M  V30 11590 H 1101.79 -1.62189 -1.08077 0
M  V30 11591 H 1100.88 -1.71821 -2.60545 0
M  V30 11592 N 1101.18 1.11143 -1.11736 0
M  V30 11593 C 1102.15 2.15456 -0.78174 0
M  V30 11594 C 1103.15 1.59547 0.200383 0
M  V30 11595 O 1104.34 1.74183 -0.0244893 0
M  V30 11596 C 1101.47 3.40523 -0.160364 0
M  V30 11597 H 1102.66 2.46658 -1.70586 0
M  V30 11598 H 1100.22 1.26381 -0.919644 0
M  V30 11599 H 1100.95 3.14932 0.773835 0
M  V30 11600 H 1100.74 3.82386 -0.867378 0
M  V30 11601 H 1102.23 4.17559 0.0582175 0
M  V30 11602 N 1102.66 0.908147 1.28804 0
M  V30 11603 C 1103.89 0.55409 1.99343 0
M  V30 11604 C 1104.31 -0.863262 1.67908 0
M  V30 11605 O 1103.66 -1.571 0.92875 0
M  V30 11606 C 1103.71 0.746916 3.537 0
M  V30 11607 O 1103.43 2.10849 3.84024 0
M  V30 11608 C 1104.94 0.398939 4.41501 0
M  V30 11609 H 1102.16 0.211784 0.636701 0
M  V30 11610 H 1104.7 1.21981 1.64137 0
M  V30 11611 H 1102.85 0.128264 3.87188 0
M  V30 11612 H 1103.27 2.14404 4.78676 0
M  V30 11613 H 1104.74 0.584656 5.48895 0
M  V30 11614 H 1105.22 -0.664517 4.34144 0
M  V30 11615 H 1105.83 0.994892 4.135 0
M  V30 11616 N 1104.14 -1.42577 0.671525 0
M  V30 11617 C 1105.09 -2.30798 -0.00883676 0
M  V30 11618 C 1106.06 -1.4578 -0.796076 0
M  V30 11619 O 1107.24 -1.74617 -0.768987 0
M  V30 11620 C 1104.38 -3.31581 -0.956452 0
M  V30 11621 C 1103.5 -4.31691 -0.163381 0
M  V30 11622 C 1102.63 -5.19549 -1.10645 0
M  V30 11623 C 1101.67 -6.1134 -0.304876 0
M  V30 11624 N 1100.81 -6.91761 -1.20048 0
M  V30 11625 H 1105.65 -2.88426 0.749301 0
M  V30 11626 H 1103.18 -1.42074 0.381251 0
M  V30 11627 H 1105.14 -3.88539 -1.51966 0
M  V30 11628 H 1103.77 -2.75561 -1.68126 0
M  V30 11629 H 1102.82 -3.76879 0.516396 0
M  V30 11630 H 1104.14 -4.96683 0.459099 0
M  V30 11631 H 1103.29 -5.81223 -1.73969 0
M  V30 11632 H 1102.03 -4.54726 -1.76282 0
M  V30 11633 H 1101.03 -5.48738 0.341597 0
M  V30 11634 H 1102.26 -6.78211 0.347352 0
M  V30 11635 H 1100.2 -6.2957 -1.84331 0
M  V30 11636 H 1100.12 -7.53345 -0.633003 0
M  V30 11637 H 1101.39 -7.57924 -1.82129 0
M  V30 11638 N 1105.62 -0.414636 -1.52048 0
M  V30 11639 C 1106.87 0.159034 -2.01473 0
M  V30 11640 C 1107.19 1.45176 -1.30188 0
M  V30 11641 O 1106.46 1.91134 -0.429469 0
M  V30 11642 H 1105.04 0.0617604 -0.744443 0
M  V30 11643 H 1107.7 -0.552141 -1.86916 0
M  V30 11644 H 1106.8 0.351217 -3.10118 0
M  V30 11645 N 1107.1 1.56929 -0.145233 0
M  V30 11646 C 1108.34 1.97959 0.509092 0
M  V30 11647 C 1108.7 1.02813 1.62153 0
M  V30 11648 O 1109.9 1.3288 2.33659 0
M  V30 11649 C 1108.17 3.43012 1.00388 0
M  V30 11650 S 1109.73 4.06064 1.66305 0
M  V30 11651 H 1106.55 0.69167 0.164663 0
M  V30 11652 H 1109.15 1.94064 -0.236529 0
M  V30 11653 H 1107.86 4.0999 0.183454 0
M  V30 11654 H 1107.39 3.50615 1.78417 0
M  V30 11655 H 1109.4 3.98971 2.9502 0
M  V30 11656 N 1108.58 -0.128553 1.57075 0
M  V30 11657 C 1109.51 -1.15953 2.02675 0
M  V30 11658 C 1110.49 -1.43743 0.909501 0
M  V30 11659 O 1111.67 -1.54348 1.17857 0
M  V30 11660 C 1108.8 -2.48813 2.423 0
M  V30 11661 C 1107.76 -2.35506 3.57381 0
M  V30 11662 C 1107.08 -3.73243 3.82875 0
M  V30 11663 C 1108.38 -1.82359 4.89431 0
M  V30 11664 H 1110.08 -0.780283 2.89054 0
M  V30 11665 H 1107.62 -0.373896 1.39061 0
M  V30 11666 H 1109.57 -3.21179 2.72804 0
M  V30 11667 H 1108.3 -2.88609 1.52881 0
M  V30 11668 H 1106.96 -1.6559 3.27071 0
M  V30 11669 H 1106.61 -4.10507 2.90677 0
M  V30 11670 H 1106.31 -3.65195 4.60333 0
M  V30 11671 H 1107.83 -4.47128 4.15823 0
M  V30 11672 H 1109.24 -2.44533 5.18533 0
M  V30 11673 H 1107.64 -1.85156 5.70822 0
M  V30 11674 H 1108.71 -0.780478 4.78578 0
M  V30 11675 N 1110.05 -1.5248 -0.398459 0
M  V30 11676 C 1111.47 -1.4152 -0.737854 0
M  V30 11677 C 1111.67 -0.528122 -1.94456 0
M  V30 11678 O 1110.73 0.00203799 -2.525 0
M  V30 11679 C 1112.04 -2.8422 -0.9818 0
M  V30 11680 C 1113.59 -2.93635 -1.08386 0
M  V30 11681 C 1114.06 -4.37327 -1.3605 0
M  V30 11682 N 1115.55 -4.40609 -1.42892 0
M  V30 11683 C 1116.29 -5.48863 -1.65944 0
M  V30 11684 N 1115.78 -6.67217 -1.86529 0
M  V30 11685 N 1117.58 -5.36393 -1.68046 0
M  V30 11686 H 1109.73 -2.08681 0.395705 0
M  V30 11687 H 1111.99 -0.941023 0.114801 0
M  V30 11688 H 1111.7 -3.51302 -0.167358 0
M  V30 11689 H 1111.57 -3.25907 -1.89907 0
M  V30 11690 H 1113.96 -2.26728 -1.88888 0
M  V30 11691 H 1114.04 -2.5539 -0.144714 0
M  V30 11692 H 1113.68 -5.04797 -0.56061 0
M  V30 11693 H 1113.61 -4.73116 -2.31233 0
M  V30 11694 H 1116.1 -3.55298 -1.2873 0
M  V30 11695 H 1116.42 -7.45498 -2.03599 0
M  V30 11696 H 1114.76 -6.70263 -1.83773 0
M  V30 11697 H 1117.95 -4.42903 -1.51509 0
M  V30 11698 H 1118.13 -6.2083 -1.85672 0
M  V30 11699 N 1111.53 0.65634 -1.43283 0
M  V30 11700 C 1112.49 1.75117 -1.47874 0
M  V30 11701 C 1113.49 1.56629 -0.363846 0
M  V30 11702 O 1114.68 1.62584 -0.625464 0
M  V30 11703 C 1111.82 3.13957 -1.32831 0
M  V30 11704 H 1113.01 1.72429 -2.45374 0
M  V30 11705 H 1110.56 0.867704 -1.30002 0
M  V30 11706 H 1111.3 3.22259 -0.36326 0
M  V30 11707 H 1111.08 3.28781 -2.13649 0
M  V30 11708 H 1112.57 3.93799 -1.38969 0
M  V30 11709 N 1113.01 1.29761 0.894412 0
M  V30 11710 C 1113.94 1.17902 2.01547 0
M  V30 11711 C 1114.92 0.0719402 1.69948 0
M  V30 11712 O 1116.11 0.252338 1.92554 0
M  V30 11713 C 1113.24 0.860262 3.36477 0
M  V30 11714 C 1112.19 1.92424 3.82305 0
M  V30 11715 C 1111.52 1.45868 5.14419 0
M  V30 11716 C 1112.82 3.33391 4.02054 0
M  V30 11717 H 1114.51 2.11688 2.11727 0
M  V30 11718 H 1112.06 1.01916 1.01731 0
M  V30 11719 H 1114.01 0.763987 4.14417 0
M  V30 11720 H 1112.73 -0.113289 3.26403 0
M  V30 11721 H 1111.39 2.00999 3.06586 0
M  V30 11722 H 1111.04 0.473654 5.00765 0
M  V30 11723 H 1110.74 2.17028 5.46052 0
M  V30 11724 H 1112.26 1.37601 5.94894 0
M  V30 11725 H 1113.68 3.27628 4.7046 0
M  V30 11726 H 1112.07 4.02555 4.4505 0
M  V30 11727 H 1113.14 3.75978 3.06216 0
M  V30 11728 N 1114.49 -1.10549 1.12324 0
M  V30 11729 C 1115.45 -2.15039 0.793156 0
M  V30 11730 C 1116.45 -1.59651 -0.19192 0
M  V30 11731 O 1117.64 -1.74167 0.0337262 0
M  V30 11732 C 1114.77 -3.40433 0.17842 0
M  V30 11733 H 1115.97 -2.4575 1.71892 0
M  V30 11734 H 1113.52 -1.25892 0.926333 0
M  V30 11735 H 1114.25 -3.15338 -0.757122 0
M  V30 11736 H 1114.04 -3.81921 0.887645 0
M  V30 11737 H 1115.53 -4.17584 -0.0360724 0
M  V30 11738 N 1115.97 -0.914965 -1.28321 0
M  V30 11739 C 1116.9 -0.348729 -2.2552 0
M  V30 11740 C 1117.88 0.547737 -1.53097 0
M  V30 11741 O 1119.06 0.491119 -1.8199 0
M  V30 11742 C 1116.19 0.501397 -3.34968 0
M  V30 11743 C 1115.23 -0.329859 -4.25223 0
M  V30 11744 S 1116.07 -1.73737 -5.06533 0
M  V30 11745 C 1117.22 -0.89458 -6.19474 0
M  V30 11746 H 1117.46 -1.17256 -2.732 0
M  V30 11747 H 1114.99 -0.716297 -1.36779 0
M  V30 11748 H 1116.95 0.986061 -3.98481 0
M  V30 11749 H 1115.61 1.29962 -2.85952 0
M  V30 11750 H 1114.8 0.320236 -5.02982 0
M  V30 11751 H 1114.4 -0.748221 -3.66439 0
M  V30 11752 H 1116.69 -0.124776 -6.77385 0
M  V30 11753 H 1117.64 -1.64475 -6.88733 0
M  V30 11754 H 1118.05 -0.442217 -5.62765 0
M  V30 11755 N 1117.44 1.42219 -0.679077 0
M  V30 11756 C 1118.39 2.308 -0.00340316 0
M  V30 11757 C 1119.36 1.462 0.788334 0
M  V30 11758 O 1120.55 1.75023 0.759716 0
M  V30 11759 C 1117.69 3.32084 0.938854 0
M  V30 11760 C 1116.8 4.31772 0.140485 0
M  V30 11761 C 1115.93 5.20128 1.07888 0
M  V30 11762 C 1114.97 6.11493 0.27245 0
M  V30 11763 N 1114.11 6.92388 1.16378 0
M  V30 11764 H 1118.95 2.88024 -0.764587 0
M  V30 11765 H 1116.49 1.41869 -0.38878 0
M  V30 11766 H 1118.44 3.89339 1.49903 0
M  V30 11767 H 1117.07 2.76448 1.66662 0
M  V30 11768 H 1116.13 3.76599 -0.536376 0
M  V30 11769 H 1117.44 4.96432 -0.485433 0
M  V30 11770 H 1116.59 5.82137 1.70884 0
M  V30 11771 H 1115.33 4.55655 1.73868 0
M  V30 11772 H 1114.34 5.48549 -0.370693 0
M  V30 11773 H 1115.56 6.78017 -0.383315 0
M  V30 11774 H 1113.51 6.30538 1.8099 0
M  V30 11775 H 1113.42 7.5367 0.593043 0
M  V30 11776 H 1114.69 7.58879 1.78107 0
M  V30 11777 N 1118.92 0.422693 1.51826 0
M  V30 11778 C 1120.17 -0.148641 2.01954 0
M  V30 11779 C 1120.5 -1.43982 1.30765 0
M  V30 11780 O 1119.75 -1.91428 0.406668 0
M  V30 11781 C 1120.05 -0.429516 3.5481 0
M  V30 11782 C 1119.72 0.774088 4.44206 0
M  V30 11783 C 1118.38 1.1042 4.6836 0
M  V30 11784 C 1120.73 1.5777 4.96747 0
M  V30 11785 C 1118.06 2.23887 5.42302 0
M  V30 11786 C 1120.41 2.70325 5.71933 0
M  V30 11787 C 1119.07 3.03807 5.94355 0
M  V30 11788 H 1118.34 -0.0543917 0.739001 0
M  V30 11789 H 1120.99 0.566892 1.82917 0
M  V30 11790 H 1119.3 -1.22678 3.72099 0
M  V30 11791 H 1120.99 -0.884761 3.91118 0
M  V30 11792 H 1117.58 0.506834 4.25593 0
M  V30 11793 H 1121.77 1.33589 4.77983 0
M  V30 11794 H 1117.02 2.50159 5.5788 0
M  V30 11795 H 1121.2 3.32974 6.11638 0
M  V30 11796 H 1118.82 3.91844 6.51431 0
M  V30 11797 N 1120.4 -1.5685 0.153553 0
M  V30 11798 C 1121.35 -2.1709 -0.783626 0
M  V30 11799 C 1122.32 -1.10567 -1.23952 0
M  V30 11800 O 1123.5 -1.38638 -1.31088 0
M  V30 11801 C 1120.64 -2.80183 -2.01473 0
M  V30 11802 C 1119.75 -4.01117 -1.60403 0
M  V30 11803 C 1118.89 -4.5219 -2.78743 0
M  V30 11804 C 1117.93 -5.65574 -2.34079 0
M  V30 11805 N 1117.07 -6.11235 -3.4545 0
M  V30 11806 H 1121.91 -2.96836 -0.263127 0
M  V30 11807 H 1119.44 -1.46625 -0.11816 0
M  V30 11808 H 1121.4 -3.14912 -2.73654 0
M  V30 11809 H 1120.03 -2.03071 -2.50923 0
M  V30 11810 H 1119.08 -3.72325 -0.779631 0
M  V30 11811 H 1120.39 -4.83243 -1.23605 0
M  V30 11812 H 1119.55 -4.89008 -3.59105 0
M  V30 11813 H 1118.29 -3.69085 -3.18791 0
M  V30 11814 H 1117.29 -5.28326 -1.52158 0
M  V30 11815 H 1118.52 -6.50468 -1.95109 0
M  V30 11816 H 1116.46 -5.31064 -3.85106 0
M  V30 11817 H 1116.38 -6.88304 -3.12687 0
M  V30 11818 H 1117.65 -6.527 -4.26149 0
M  V30 11819 N 1121.88 0.120221 -1.57141 0
M  V30 11820 C 1123.11 0.842441 -1.88972 0
M  V30 11821 C 1123.52 1.73494 -0.744671 0
M  V30 11822 O 1122.88 1.80268 0.284557 0
M  V30 11823 C 1122.93 1.67688 -3.20254 0
M  V30 11824 O 1122.65 0.820319 -4.30351 0
M  V30 11825 C 1124.15 2.50436 -3.65782 0
M  V30 11826 H 1121.37 0.242241 -0.625748 0
M  V30 11827 H 1123.91 0.104978 -2.0423 0
M  V30 11828 H 1122.07 2.36712 -3.0667 0
M  V30 11829 H 1122.48 1.39575 -5.05588 0
M  V30 11830 H 1123.96 3.04518 -4.60405 0
M  V30 11831 H 1124.43 3.27737 -2.92378 0
M  V30 11832 H 1125.04 1.86657 -3.82151 0
M  V30 11833 N 1123.36 1.52689 0.390367 0
M  V30 11834 C 1124.58 1.71541 1.15678 0
M  V30 11835 C 1125 0.433171 1.83764 0
M  V30 11836 O 1124.36 -0.592248 1.72623 0
M  V30 11837 C 1124.41 2.864 2.20584 0
M  V30 11838 O 1124.13 4.0966 1.55274 0
M  V30 11839 C 1125.63 3.1692 3.09962 0
M  V30 11840 H 1122.85 0.574381 0.346883 0
M  V30 11841 H 1125.39 1.99332 0.456851 0
M  V30 11842 H 1123.55 2.61075 2.86214 0
M  V30 11843 H 1123.96 4.73802 2.2497 0
M  V30 11844 H 1125.44 4.00755 3.79604 0
M  V30 11845 H 1125.91 2.31245 3.73393 0
M  V30 11846 H 1126.52 3.4408 2.49979 0
M  V30 11847 N 1124.83 -0.648732 1.43629 0
M  V30 11848 C 1125.78 -1.75473 1.45579 0
M  V30 11849 C 1126.77 -1.57611 0.323683 0
M  V30 11850 O 1127.96 -1.67646 0.56778 0
M  V30 11851 C 1125.09 -3.14083 1.38589 0
M  V30 11852 C 1124.18 -3.37477 2.56846 0
M  V30 11853 N 1124.57 -3.31322 3.82177 0
M  V30 11854 C 1122.86 -3.68212 2.51666 0
M  V30 11855 C 1123.57 -3.54921 4.60875 0
M  V30 11856 N 1122.54 -3.76951 3.91675 0
M  V30 11857 H 1126.34 -1.69146 2.40347 0
M  V30 11858 H 1123.86 -0.850566 1.38344 0
M  V30 11859 H 1125.85 -3.93374 1.38068 0
M  V30 11860 H 1124.51 -3.21588 0.448442 0
M  V30 11861 H 1125.53 -3.10633 4.144 0
M  V30 11862 H 1122.2 -3.82806 1.66631 0
M  V30 11863 H 1123.59 -3.55904 5.69897 0
M  V30 11864 N 1126.31 -1.30234 -0.887518 0
M  V30 11865 C 1127.28 -1.16384 -1.97452 0
M  V30 11866 C 1128.28 -0.0957942 -1.60514 0
M  V30 11867 O 1129.47 -0.343706 -1.70776 0
M  V30 11868 C 1126.6 -0.782514 -3.31797 0
M  V30 11869 H 1127.79 -2.12952 -2.11167 0
M  V30 11870 H 1125.34 -1.13594 -1.07359 0
M  V30 11871 H 1126.08 0.18278 -3.23785 0
M  V30 11872 H 1125.86 -1.55434 -3.59976 0
M  V30 11873 H 1127.35 -0.709011 -4.11537 0
M  V30 11874 N 1127.79 1.09952 -1.12909 0
M  V30 11875 C 1129.2 1.63516 -0.901087 0
M  V30 11876 C 1129.55 1.87932 0.563547 0
M  V30 11877 O 1128.68 1.625 1.42908 0
M  V30 11878 C 1129.27 2.97054 -1.62924 0
M  V30 11879 C 1127.83 3.47464 -1.44725 0
M  V30 11880 C 1126.98 2.21979 -1.66194 0
M  V30 11881 H 1129.93 0.933858 -1.28315 0
M  V30 11882 H 1129.95 3.64757 -1.08318 0
M  V30 11883 H 1129.46 2.79251 -2.69519 0
M  V30 11884 H 1127.56 3.70402 -0.40409 0
M  V30 11885 H 1127.68 4.25254 -2.20671 0
M  V30 11886 H 1126.04 2.30368 -1.0864 0
M  V30 11887 H 1126.82 2.06702 -2.74097 0
M  V30 11888 N 1129.27 0.921757 1.27833 0
M  V30 11889 C 1130.68 0.604496 1.76643 0
M  V30 11890 C 1131.03 -0.880294 1.75343 0
M  V30 11891 O 1130.16 -1.68875 1.35315 0
M  V30 11892 C 1130.75 1.09055 3.20768 0
M  V30 11893 C 1129.31 0.824066 3.67268 0
M  V30 11894 C 1128.46 1.25269 2.47392 0
M  V30 11895 H 1131.41 1.10217 1.14184 0
M  V30 11896 H 1131.43 0.435558 3.77999 0
M  V30 11897 H 1130.94 2.17122 3.21682 0
M  V30 11898 H 1129.04 -0.243055 3.71806 0
M  V30 11899 H 1129.15 1.43743 4.57028 0
M  V30 11900 H 1127.52 0.671313 2.45694 0
M  V30 11901 H 1128.3 2.34188 2.5102 0
M  V30 11902 N 1130.75 -1.41857 0.686609 0
M  V30 11903 C 1131.99 -2.0097 0.213378 0
M  V30 11904 C 1132.32 -1.54618 -1.1882 0
M  V30 11905 O 1131.59 -0.772916 -1.80008 0
M  V30 11906 H 1130.17 -0.743134 0.0758968 0
M  V30 11907 H 1132.83 -1.73609 0.885763 0
M  V30 11908 H 1131.92 -3.11296 0.223826 0
M  V30 11909 N 1132.22 -0.430739 -1.51599 0
M  V30 11910 C 1133.5 0.197543 -1.946 0
M  V30 11911 C 1133.88 1.6069 -1.36901 0
M  V30 11912 O 1133.23 2.21697 -0.553422 0
M  V30 11913 C 1133.44 0.181976 -3.48525 0
M  V30 11914 C 1134.79 0.390783 -4.22798 0
M  V30 11915 O 1135.81 0.260384 -3.55247 0
M  V30 11916 O 1134.67 0.649701 -5.42624 0
M  V30 11917 H 1131.76 0.133524 -0.81615 0
M  V30 11918 H 1134.31 -0.488243 -1.62525 0
M  V30 11919 H 1133.08 -0.803584 -3.8296 0
M  V30 11920 H 1132.71 0.910952 -3.87024 0
M  V30 11921 N 1133.7 1.56767 -0.161869 0
M  V30 11922 C 1134.93 2.00964 0.492027 0
M  V30 11923 C 1135.35 1.04206 1.57437 0
M  V30 11924 O 1134.7 0.0413998 1.82453 0
M  V30 11925 C 1134.75 3.4502 1.07904 0
M  V30 11926 O 1134.47 4.38082 0.0399085 0
M  V30 11927 C 1135.98 4.04572 1.81209 0
M  V30 11928 H 1133.2 0.658911 0.126797 0
M  V30 11929 H 1135.74 2.0283 -0.260824 0
M  V30 11930 H 1133.89 3.43959 1.78243 0
M  V30 11931 H 1134.31 5.22372 0.471985 0
M  V30 11932 H 1135.78 5.07321 2.17554 0
M  V30 11933 H 1136.26 3.46126 2.70359 0
M  V30 11934 H 1136.87 4.09307 1.15534 0
M  V30 11935 N 1135.18 -0.111886 1.57202 0
M  V30 11936 C 1136.11 -1.13796 2.03894 0
M  V30 11937 C 1137.09 -1.4277 0.924696 0
M  V30 11938 O 1138.28 -1.53089 1.19488 0
M  V30 11939 C 1135.41 -2.46229 2.44925 0
M  V30 11940 C 1134.36 -2.31702 3.59859 0
M  V30 11941 C 1133.69 -3.69161 3.86813 0
M  V30 11942 C 1134.99 -1.77158 4.91337 0
M  V30 11943 H 1136.68 -0.749581 2.89865 0
M  V30 11944 H 1134.23 -0.359126 1.3945 0
M  V30 11945 H 1136.18 -3.18267 2.76195 0
M  V30 11946 H 1134.9 -2.86971 1.55933 0
M  V30 11947 H 1133.56 -1.62112 3.28809 0
M  V30 11948 H 1133.21 -4.07401 2.95015 0
M  V30 11949 H 1132.91 -3.60292 4.6418 0
M  V30 11950 H 1134.43 -4.42693 4.20542 0
M  V30 11951 H 1135.85 -2.3902 5.21097 0
M  V30 11952 H 1134.25 -1.79091 5.72753 0
M  V30 11953 H 1135.32 -0.729675 4.79379 0
M  V30 11954 N 1136.66 -1.52894 -0.382264 0
M  V30 11955 C 1137.9 -1.68515 -1.12829 0
M  V30 11956 C 1138.24 -0.427211 -1.89443 0
M  V30 11957 O 1137.51 0.57516 -1.85801 0
M  V30 11958 C 1137.8 -2.92449 -2.10108 0
M  V30 11959 C 1137.65 -4.2836 -1.37214 0
M  V30 11960 C 1138.97 -3.11944 -3.1045 0
M  V30 11961 H 1136.09 -0.613223 -0.408811 0
M  V30 11962 H 1138.73 -1.85503 -0.410921 0
M  V30 11963 H 1136.88 -2.78097 -2.71283 0
M  V30 11964 H 1138.55 -4.54493 -0.789516 0
M  V30 11965 H 1136.79 -4.28532 -0.673973 0
M  V30 11966 H 1137.46 -5.11178 -2.0833 0
M  V30 11967 H 1139.94 -3.25372 -2.59369 0
M  V30 11968 H 1138.82 -4.00125 -3.75754 0
M  V30 11969 H 1139.08 -2.26465 -3.79692 0
M  V30 11970 N 1138.14 0.641106 -1.43971 0
M  V30 11971 C 1139.09 1.74699 -1.46507 0
M  V30 11972 C 1140.07 1.57437 -0.332037 0
M  V30 11973 O 1141.26 1.67343 -0.576663 0
M  V30 11974 C 1138.39 3.13344 -1.40252 0
M  V30 11975 C 1137.48 3.3611 -2.58632 0
M  V30 11976 N 1137.87 3.29291 -3.83929 0
M  V30 11977 C 1136.17 3.66873 -2.53615 0
M  V30 11978 C 1136.87 3.52472 -4.62751 0
M  V30 11979 N 1135.84 3.74868 -3.93668 0
M  V30 11980 H 1139.65 1.67869 -2.41241 0
M  V30 11981 H 1137.16 0.843217 -1.38793 0
M  V30 11982 H 1139.16 3.92636 -1.40153 0
M  V30 11983 H 1137.82 3.21346 -0.46549 0
M  V30 11984 H 1138.83 3.08431 -4.16041 0
M  V30 11985 H 1135.51 3.81917 -1.68659 0
M  V30 11986 H 1136.9 3.52876 -5.71776 0
M  V30 11987 N 1139.62 1.30703 0.880598 0
M  V30 11988 C 1140.58 1.17429 1.96832 0
M  V30 11989 C 1141.58 0.104305 1.60461 0
M  V30 11990 O 1142.77 0.352758 1.70591 0
M  V30 11991 C 1139.9 0.800099 3.31378 0
M  V30 11992 H 1141.09 2.14069 2.10034 0
M  V30 11993 H 1138.65 1.14162 1.06755 0
M  V30 11994 H 1139.38 -0.165606 3.23877 0
M  V30 11995 H 1139.17 1.57341 3.59146 0
M  V30 11996 H 1140.66 0.730826 4.11155 0
M  V30 11997 N 1141.09 -1.09351 1.1349 0
M  V30 11998 C 1142.34 -1.81185 0.89535 0
M  V30 11999 C 1142.66 -1.86173 -0.580048 0
M  V30 12000 O 1141.93 -1.34784 -1.42162 0
M  V30 12001 H 1140.51 -0.671011 0.328257 0
M  V30 12002 H 1143.17 -1.32255 1.43159 0
M  V30 12003 H 1142.27 -2.84339 1.28676 0
M  V30 12004 N 1142.57 -0.928524 -1.27343 0
M  V30 12005 C 1143.85 -0.487758 -1.89421 0
M  V30 12006 C 1144.23 1.03418 -1.84032 0
M  V30 12007 O 1143.58 1.8887 -1.2861 0
M  V30 12008 C 1143.79 -1.03478 -3.33307 0
M  V30 12009 C 1145.13 -1.09577 -4.10217 0
M  V30 12010 O 1146.16 -0.984463 -3.42326 0
M  V30 12011 O 1145.02 -1.2673 -5.31603 0
M  V30 12012 H 1142.11 -0.157018 -0.811957 0
M  V30 12013 H 1144.66 -1.02027 -1.35605 0
M  V30 12014 H 1143.43 -2.07861 -3.31526 0
M  V30 12015 H 1143.05 -0.483967 -3.94644 0
M  V30 12016 N 1144.05 1.41491 -0.694123 0
M  V30 12017 C 1144.98 2.33462 -0.0422169 0
M  V30 12018 C 1145.96 1.51739 0.76872 0
M  V30 12019 O 1147.15 1.8028 0.721985 0
M  V30 12020 C 1144.28 3.35545 0.895925 0
M  V30 12021 C 1143.23 4.27568 0.192188 0
M  V30 12022 C 1142.56 5.20014 1.24459 0
M  V30 12023 C 1143.86 5.1376 -0.940626 0
M  V30 12024 H 1145.55 2.88225 -0.810363 0
M  V30 12025 H 1143.1 1.38586 -0.39114 0
M  V30 12026 H 1145.05 3.9881 1.36121 0
M  V30 12027 H 1143.77 2.79129 1.69572 0
M  V30 12028 H 1142.43 3.65726 -0.25305 0
M  V30 12029 H 1142.08 4.59913 2.03687 0
M  V30 12030 H 1141.78 5.82417 0.778734 0
M  V30 12031 H 1143.3 5.86155 1.71041 0
M  V30 12032 H 1144.72 5.70601 -0.555692 0
M  V30 12033 H 1143.11 5.85097 -1.33349 0
M  V30 12034 H 1144.18 4.51011 -1.78093 0
M  V30 12035 N 1145.53 0.438773 1.51369 0
M  V30 12036 C 1146.46 -0.362467 2.3067 0
M  V30 12037 C 1147.44 -1.01973 1.36145 0
M  V30 12038 O 1148.62 -1.0231 1.65065 0
M  V30 12039 C 1145.75 -1.46313 3.14976 0
M  V30 12040 C 1144.71 -0.929272 4.1779 0
M  V30 12041 C 1144.03 -2.12579 4.90627 0
M  V30 12042 C 1145.33 0.0372782 5.22287 0
M  V30 12043 H 1147.03 0.29931 2.979 0
M  V30 12044 H 1144.57 0.14539 1.43264 0
M  V30 12045 H 1146.53 -2.03088 3.69233 0
M  V30 12046 H 1145.25 -2.15321 2.45569 0
M  V30 12047 H 1143.91 -0.383722 3.64586 0
M  V30 12048 H 1143.56 -2.8021 4.17722 0
M  V30 12049 H 1143.26 -1.77496 5.60151 0
M  V30 12050 H 1144.78 -2.69905 5.47708 0
M  V30 12051 H 1146.2 -0.44022 5.71607 0
M  V30 12052 H 1144.59 0.300748 5.99346 0
M  V30 12053 H 1145.66 0.973503 4.75027 0
M  V30 12054 N 1147.01 -1.56678 0.170181 0
M  V30 12055 C 1148.23 -2.01223 -0.481362 0
M  V30 12056 C 1148.65 -1.05039 -1.56883 0
M  V30 12057 O 1148.01 -0.0510751 -1.82429 0
M  V30 12058 C 1148.06 -3.45588 -1.06073 0
M  V30 12059 O 1147.78 -4.38097 -0.0166754 0
M  V30 12060 C 1149.28 -4.05527 -1.79061 0
M  V30 12061 H 1146.5 -0.659574 -0.1233 0
M  V30 12062 H 1149.04 -2.02689 0.271576 0
M  V30 12063 H 1147.2 -3.449 -1.76417 0
M  V30 12064 H 1147.61 -5.22615 -0.444276 0
M  V30 12065 H 1149.09 -5.08467 -2.1486 0
M  V30 12066 H 1149.56 -3.47554 -2.68519 0
M  V30 12067 H 1150.17 -4.09914 -1.13361 0
M  V30 12068 N 1148.48 0.103547 -1.57259 0
M  V30 12069 C 1149.45 1.11039 -2.00507 0
M  V30 12070 C 1150.45 1.33432 -0.897361 0
M  V30 12071 O 1151.64 1.29688 -1.16304 0
M  V30 12072 C 1148.77 2.46144 -2.35851 0
M  V30 12073 H 1149.96 0.738332 -2.90669 0
M  V30 12074 H 1147.51 0.348334 -1.52369 0
M  V30 12075 H 1148.25 2.88242 -1.48617 0
M  V30 12076 H 1148.03 2.31241 -3.16654 0
M  V30 12077 H 1149.52 3.18577 -2.69997 0
M  V30 12078 N 1149.96 1.53094 0.37415 0
M  V30 12079 C 1150.89 1.81901 1.46404 0
M  V30 12080 C 1151.87 0.671949 1.56265 0
M  V30 12081 O 1153.06 0.920978 1.70973 0
M  V30 12082 C 1150.19 2.00123 2.83845 0
M  V30 12083 C 1149.14 3.15864 2.88814 0
M  V30 12084 C 1148.47 3.19364 4.28848 0
M  V30 12085 C 1149.77 4.54633 2.57112 0
M  V30 12086 H 1151.46 2.73172 1.22546 0
M  V30 12087 H 1149.01 1.31444 0.588087 0
M  V30 12088 H 1150.96 2.18859 3.6011 0
M  V30 12089 H 1149.68 1.05555 3.09072 0
M  V30 12090 H 1148.34 2.96935 2.15 0
M  V30 12091 H 1147.99 2.2245 4.51137 0
M  V30 12092 H 1147.69 3.97123 4.3309 0
M  V30 12093 H 1149.22 3.40273 5.06997 0
M  V30 12094 H 1150.63 4.73587 3.23091 0
M  V30 12095 H 1149.03 5.34569 2.72683 0
M  V30 12096 H 1150.1 4.60331 1.52392 0
M  V30 12097 N 1151.44 -0.633461 1.44309 0
M  V30 12098 C 1152.67 -1.41827 1.50229 0
M  V30 12099 C 1153.08 -1.88786 0.125082 0
M  V30 12100 O 1152.42 -1.61314 -0.878836 0
M  V30 12101 C 1152.48 -2.67372 2.40317 0
M  V30 12102 C 1152.15 -2.42224 3.87526 0
M  V30 12103 C 1153.14 -2.04199 4.7812 0
M  V30 12104 C 1150.83 -2.55936 4.32206 0
M  V30 12105 C 1152.82 -1.80211 6.11394 0
M  V30 12106 C 1150.51 -2.31563 5.65528 0
M  V30 12107 C 1151.51 -1.93758 6.5494 0
M  V30 12108 O 1151.2 -1.69654 7.85794 0
M  V30 12109 H 1150.93 -0.441478 0.51193 0
M  V30 12110 H 1153.48 -0.782118 1.89927 0
M  V30 12111 H 1151.71 -3.33616 1.95543 0
M  V30 12112 H 1153.4 -3.2937 2.37214 0
M  V30 12113 H 1154.17 -1.93164 4.44874 0
M  V30 12114 H 1150.05 -2.84333 3.62872 0
M  V30 12115 H 1153.59 -1.50628 6.81144 0
M  V30 12116 H 1149.49 -2.42206 5.98336 0
M  V30 12117 H 1150.25 -1.83919 7.97569 0
M  V30 12118 N 1152.92 -1.31168 -0.873655 0
M  V30 12119 C 1154.17 -1.20642 -1.6264 0
M  V30 12120 C 1154.49 0.236286 -1.93059 0
M  V30 12121 O 1153.75 1.18401 -1.55819 0
M  V30 12122 C 1154.05 -1.99204 -2.96736 0
M  V30 12123 C 1153.71 -3.48734 -2.85824 0
M  V30 12124 C 1152.38 -3.89507 -2.82555 0
M  V30 12125 C 1154.73 -4.43905 -2.73127 0
M  V30 12126 C 1152.06 -5.23724 -2.64442 0
M  V30 12127 C 1154.41 -5.78242 -2.56551 0
M  V30 12128 C 1153.07 -6.18241 -2.51663 0
M  V30 12129 H 1152.34 -0.44146 -0.595142 0
M  V30 12130 H 1154.99 -1.62394 -1.01492 0
M  V30 12131 H 1153.29 -1.50122 -3.61899 0
M  V30 12132 H 1154.99 -1.88443 -3.53963 0
M  V30 12133 H 1151.58 -3.1634 -2.89184 0
M  V30 12134 H 1155.76 -4.13338 -2.7471 0
M  V30 12135 H 1151.02 -5.53794 -2.59081 0
M  V30 12136 H 1155.19 -6.51616 -2.45702 0
M  V30 12137 H 1152.82 -7.22185 -2.37387 0
M  V30 12138 N 1154.4 1.08748 -1.14068 0
M  V30 12139 C 1155.65 1.8044 -0.901352 0
M  V30 12140 C 1155.96 1.86995 0.573791 0
M  V30 12141 O 1157.16 2.55065 0.930275 0
M  V30 12142 C 1155.62 3.24185 -1.56308 0
M  V30 12143 C 1155.23 3.25875 -3.07424 0
M  V30 12144 C 1156.97 4.00584 -1.40473 0
M  V30 12145 C 1154.88 4.64186 -3.66449 0
M  V30 12146 H 1153.81 0.676201 -0.333569 0
M  V30 12147 H 1156.46 1.22169 -1.3692 0
M  V30 12148 H 1154.84 3.82561 -1.0229 0
M  V30 12149 H 1156.02 2.77225 -3.6808 0
M  V30 12150 H 1154.33 2.62969 -3.22856 0
M  V30 12151 H 1156.93 5.02781 -1.81976 0
M  V30 12152 H 1157.27 4.14823 -0.350408 0
M  V30 12153 H 1157.8 3.48668 -1.91508 0
M  V30 12154 H 1154.54 4.5515 -4.71719 0
M  V30 12155 H 1154.06 5.13132 -3.10574 0
M  V30 12156 H 1155.74 5.33161 -3.66536 0
M  V30 12157 N 1155.87 0.935264 1.26849 0
M  V30 12158 C 1157.1 0.595704 1.98661 0
M  V30 12159 C 1157.52 -0.821001 1.69237 0
M  V30 12160 O 1156.88 -1.55211 0.936982 0
M  V30 12161 C 1156.93 0.837275 3.50745 0
M  V30 12162 O 1156.03 -0.0934914 4.12294 0
M  V30 12163 H 1155.38 0.228512 0.623441 0
M  V30 12164 H 1157.91 1.25658 1.61466 0
M  V30 12165 H 1157.92 0.755827 4.00938 0
M  V30 12166 H 1156.59 1.86993 3.71492 0
M  V30 12167 H 1155.17 0.0385124 3.7288 0
M  V30 12168 N 1157.35 -1.41121 0.701616 0
M  V30 12169 C 1158.77 -1.55162 0.373766 0
M  V30 12170 C 1158.97 -1.6759 -1.11875 0
M  V30 12171 O 1158.02 -1.65768 -1.90465 0
M  V30 12172 C 1159.34 -2.78758 1.12759 0
M  V30 12173 C 1160.89 -2.92561 1.11253 0
M  V30 12174 C 1161.36 -4.19052 1.84822 0
M  V30 12175 N 1162.85 -4.26023 1.81821 0
M  V30 12176 C 1163.59 -5.22771 2.3558 0
M  V30 12177 N 1163.08 -6.25512 2.97836 0
M  V30 12178 N 1164.88 -5.14752 2.25802 0
M  V30 12179 H 1157.03 -1.31299 1.66956 0
M  V30 12180 H 1159.29 -0.633894 0.704898 0
M  V30 12181 H 1159 -2.75804 2.18231 0
M  V30 12182 H 1158.87 -3.70456 0.710095 0
M  V30 12183 H 1161.26 -2.95026 0.0660506 0
M  V30 12184 H 1161.34 -2.0202 1.56913 0
M  V30 12185 H 1160.98 -4.17349 2.89452 0
M  V30 12186 H 1160.91 -5.08577 1.36592 0
M  V30 12187 H 1163.4 -3.52411 1.36438 0
M  V30 12188 H 1163.72 -6.95736 3.36409 0
M  V30 12189 H 1162.06 -6.25997 3.01916 0
M  V30 12190 H 1165.25 -4.33414 1.76833 0
M  V30 12191 H 1165.42 -5.89983 2.68001 0
M  V30 12192 N 1158.83 -0.446794 -1.51134 0
M  V30 12193 C 1160.08 0.116263 -2.01765 0
M  V30 12194 C 1160.4 1.42382 -1.33238 0
M  V30 12195 O 1159.67 1.9018 -0.469915 0
M  V30 12196 H 1158.25 0.0459558 -0.745585 0
M  V30 12197 H 1160.91 -0.591664 -1.85702 0
M  V30 12198 H 1160.01 0.285358 -3.10793 0
M  V30 12199 N 1160.31 1.56586 -0.178487 0
M  V30 12200 C 1161.53 2.01915 0.473841 0
M  V30 12201 C 1161.96 1.05789 1.55533 0
M  V30 12202 O 1161.32 0.0386018 1.81259 0
M  V30 12203 C 1161.36 3.45799 1.02251 0
M  V30 12204 O 1160.47 3.52761 2.1362 0
M  V30 12205 H 1159.81 0.654372 0.112666 0
M  V30 12206 H 1162.34 2.02613 -0.284486 0
M  V30 12207 H 1162.35 3.85252 1.34332 0
M  V30 12208 H 1161.02 4.1526 0.230719 0
M  V30 12209 H 1159.6 3.25172 1.8253 0
M  V30 12210 N 1161.79 -0.095206 1.57312 0
M  V30 12211 C 1163.04 -0.797417 1.85268 0
M  V30 12212 C 1163.35 -1.79903 0.767733 0
M  V30 12213 O 1164.55 -2.54914 0.934409 0
M  V30 12214 C 1163.01 -1.469 3.28555 0
M  V30 12215 C 1162.62 -0.507152 4.4512 0
M  V30 12216 C 1164.36 -2.15494 3.65735 0
M  V30 12217 C 1162.27 -1.18331 5.79441 0
M  V30 12218 H 1161.2 -0.301552 0.691074 0
M  V30 12219 H 1163.85 -0.0503584 1.83431 0
M  V30 12220 H 1162.23 -2.26351 3.24933 0
M  V30 12221 H 1163.41 0.255858 4.60089 0
M  V30 12222 H 1161.72 0.0730882 4.16336 0
M  V30 12223 H 1164.32 -2.66816 4.63371 0
M  V30 12224 H 1164.66 -2.94383 2.94354 0
M  V30 12225 H 1165.19 -1.42903 3.71246 0
M  V30 12226 H 1161.93 -0.435238 6.54053 0
M  V30 12227 H 1161.45 -1.91775 5.68315 0
M  V30 12228 H 1163.13 -1.70983 6.23998 0
M  V30 12229 N 1163.26 -1.53291 -0.366026 0
M  V30 12230 C 1164.17 -1.82656 -1.47221 0
M  V30 12231 C 1165.19 -0.71491 -1.58635 0
M  V30 12232 O 1166.37 -1.00492 -1.74538 0
M  V30 12233 C 1163.43 -2.00995 -2.82492 0
M  V30 12234 C 1162.49 -3.24895 -2.8061 0
M  V30 12235 C 1161.73 -3.4235 -4.09429 0
M  V30 12236 O 1161.95 -2.6411 -5.05571 0
M  V30 12237 O 1160.88 -4.35702 -4.15268 0
M  V30 12238 H 1164.71 -2.76634 -1.2533 0
M  V30 12239 H 1162.29 -1.38665 -0.556084 0
M  V30 12240 H 1164.18 -2.14632 -3.62645 0
M  V30 12241 H 1162.85 -1.10207 -3.04362 0
M  V30 12242 H 1161.76 -3.16682 -1.99157 0
M  V30 12243 H 1163.09 -4.15604 -2.63694 0
M  V30 12244 N 1164.74 0.6258 -1.44643 0
M  V30 12245 C 1165.99 1.38125 -1.46984 0
M  V30 12246 C 1166.3 1.95299 -0.108429 0
M  V30 12247 O 1167.51 2.71498 -0.00940005 0
M  V30 12248 C 1165.97 2.50108 -2.58793 0
M  V30 12249 C 1165.57 1.99424 -4.01166 0
M  V30 12250 C 1167.32 3.27269 -2.70361 0
M  V30 12251 C 1165.23 3.08781 -5.04389 0
M  V30 12252 H 1164.16 0.519083 -0.546872 0
M  V30 12253 H 1166.81 0.67268 -1.70726 0
M  V30 12254 H 1165.19 3.23565 -2.28302 0
M  V30 12255 H 1166.36 1.32797 -4.4125 0
M  V30 12256 H 1164.68 1.35063 -3.93887 0
M  V30 12257 H 1167.27 4.08802 -3.44652 0
M  V30 12258 H 1167.62 3.77097 -1.76362 0
M  V30 12259 H 1168.15 2.60905 -3.00289 0
M  V30 12260 H 1164.89 2.63891 -6.00035 0
M  V30 12261 H 1164.41 3.74033 -4.68892 0
M  V30 12262 H 1166.09 3.73469 -5.28328 0
M  V30 12263 N 1166.22 1.31629 0.866686 0
M  V30 12264 C 1167.15 1.22151 1.99001 0
M  V30 12265 C 1168.13 0.107972 1.69757 0
M  V30 12266 O 1169.32 0.293125 1.91975 0
M  V30 12267 C 1166.45 0.93144 3.34577 0
M  V30 12268 C 1165.4 2.0049 3.78137 0
M  V30 12269 C 1164.73 1.56747 5.11209 0
M  V30 12270 C 1166.03 3.41844 3.94892 0
M  V30 12271 H 1167.72 2.16132 2.0719 0
M  V30 12272 H 1165.27 1.04051 0.995463 0
M  V30 12273 H 1167.22 0.851719 4.12703 0
M  V30 12274 H 1165.94 -0.0440289 3.2657 0
M  V30 12275 H 1164.6 2.07457 3.02253 0
M  V30 12276 H 1164.25 0.579767 4.99648 0
M  V30 12277 H 1163.95 2.28562 5.41326 0
M  V30 12278 H 1165.47 1.50188 5.91841 0
M  V30 12279 H 1166.89 3.37534 4.63405 0
M  V30 12280 H 1165.29 4.11905 4.36411 0
M  V30 12281 H 1166.36 3.82389 2.98172 0
M  V30 12282 N 1167.7 -1.08142 1.14644 0
M  V30 12283 C 1169.12 -1.32656 0.887388 0
M  V30 12284 C 1169.32 -1.95942 -0.470012 0
M  V30 12285 O 1168.37 -2.21417 -1.21371 0
M  V30 12286 C 1169.68 -2.22549 2.02219 0
M  V30 12287 C 1171.23 -2.36021 2.0558 0
M  V30 12288 C 1171.71 -3.29257 3.18361 0
M  V30 12289 N 1173.2 -3.36835 3.17957 0
M  V30 12290 C 1173.93 -4.09017 4.01862 0
M  V30 12291 N 1173.43 -4.83882 4.95812 0
M  V30 12292 N 1175.22 -4.04875 3.89913 0
M  V30 12293 H 1167.37 -0.654457 2.02066 0
M  V30 12294 H 1169.64 -0.350947 0.880648 0
M  V30 12295 H 1169.34 -1.83296 3.00159 0
M  V30 12296 H 1169.22 -3.23027 1.94765 0
M  V30 12297 H 1171.6 -2.74531 1.08245 0
M  V30 12298 H 1171.68 -1.35275 2.17105 0
M  V30 12299 H 1171.33 -2.91468 4.15944 0
M  V30 12300 H 1171.26 -4.29938 3.04074 0
M  V30 12301 H 1173.75 -2.83465 2.49912 0
M  V30 12302 H 1174.06 -5.3643 5.56294 0
M  V30 12303 H 1172.41 -4.82926 4.99808 0
M  V30 12304 H 1175.6 -3.45496 3.15833 0
M  V30 12305 H 1175.77 -4.60866 4.55529 0
M  V30 12306 N 1169.18 -0.941978 -1.26351 0
M  V30 12307 C 1170.43 -0.588806 -1.93333 0
M  V30 12308 C 1170.75 0.875067 -1.74263 0
M  V30 12309 O 1170.02 1.62187 -1.09873 0
M  V30 12310 H 1168.6 -0.214774 -0.715459 0
M  V30 12311 H 1171.26 -1.19747 -1.53774 0
M  V30 12312 H 1170.35 -0.807267 -3.01479 0
M  V30 12313 N 1170.66 1.40747 -0.709091 0
M  V30 12314 C 1171.93 1.94831 -0.173246 0
M  V30 12315 C 1172.31 1.64766 1.31967 0
M  V30 12316 O 1171.66 0.961853 2.07269 0
M  V30 12317 C 1171.87 3.45697 -0.479013 0
M  V30 12318 C 1173.22 4.22576 -0.414122 0
M  V30 12319 O 1174.24 3.53778 -0.414699 0
M  V30 12320 O 1173.1 5.45135 -0.385986 0
M  V30 12321 H 1170.2 0.826683 -0.0228947 0
M  V30 12322 H 1172.74 1.50391 -0.786178 0
M  V30 12323 H 1171.51 3.60914 -1.51185 0
M  V30 12324 H 1171.14 3.97261 0.164211 0
M  V30 12325 N 1172.13 0.454803 1.50895 0
M  V30 12326 C 1173.38 -0.105927 2.02523 0
M  V30 12327 C 1173.71 -1.40825 1.33724 0
M  V30 12328 O 1172.99 -1.89038 0.457683 0
M  V30 12329 C 1173.27 -0.306635 3.58792 0
M  V30 12330 C 1173.12 1.01556 4.38185 0
M  V30 12331 C 1174.44 -1.06858 4.2693 0
M  V30 12332 H 1171.56 -0.0370232 0.736069 0
M  V30 12333 H 1174.2 0.597215 1.8037 0
M  V30 12334 H 1172.35 -0.905563 3.77799 0
M  V30 12335 H 1174.03 1.64981 4.30789 0
M  V30 12336 H 1172.27 1.61608 4.02574 0
M  V30 12337 H 1172.94 0.828959 5.4574 0
M  V30 12338 H 1175.42 -0.561086 4.123 0
M  V30 12339 H 1174.29 -1.1778 5.36115 0
M  V30 12340 H 1174.55 -2.10111 3.8898 0
M  V30 12341 N 1173.61 -1.56489 0.186789 0
M  V30 12342 C 1174.86 -1.97634 -0.454831 0
M  V30 12343 C 1175.19 -1.07334 -1.61843 0
M  V30 12344 O 1174.47 -0.123612 -1.94107 0
M  V30 12345 C 1174.75 -3.48071 -0.922962 0
M  V30 12346 C 1174.6 -4.49149 0.241877 0
M  V30 12347 C 1175.92 -4.01994 -1.79134 0
M  V30 12348 H 1173.04 -0.718555 -0.163854 0
M  V30 12349 H 1175.68 -1.87984 0.27604 0
M  V30 12350 H 1173.83 -3.56425 -1.54575 0
M  V30 12351 H 1175.5 -4.52841 0.87936 0
M  V30 12352 H 1173.75 -4.24468 0.894964 0
M  V30 12353 H 1174.42 -5.51851 -0.128051 0
M  V30 12354 H 1176.89 -3.96367 -1.26618 0
M  V30 12355 H 1175.77 -5.07641 -2.08787 0
M  V30 12356 H 1176.03 -3.46747 -2.74261 0
M  V30 12357 N 1175.09 0.086862 -1.5736 0
M  V30 12358 C 1176.34 0.790008 -1.8678 0
M  V30 12359 C 1176.67 1.77977 -0.777042 0
M  V30 12360 O 1175.94 1.93317 0.21419 0
M  V30 12361 C 1176.23 1.51143 -3.26845 0
M  V30 12362 C 1176.08 0.539106 -4.46558 0
M  V30 12363 C 1177.4 2.46003 -3.64926 0
M  V30 12364 H 1174.52 0.285741 -0.679354 0
M  V30 12365 H 1177.16 0.0534655 -1.89925 0
M  V30 12366 H 1175.31 2.13928 -3.24295 0
M  V30 12367 H 1176.98 -0.0823679 -4.61226 0
M  V30 12368 H 1175.22 -0.146842 -4.33551 0
M  V30 12369 H 1175.9 1.0812 -5.41308 0
M  V30 12370 H 1178.37 1.93306 -3.68473 0
M  V30 12371 H 1177.25 2.93493 -4.63846 0
M  V30 12372 H 1177.51 3.30133 -2.94049 0
M  V30 12373 N 1176.57 1.53483 0.357892 0
M  V30 12374 C 1177.53 1.79782 1.42166 0
M  V30 12375 C 1178.53 0.668441 1.46248 0
M  V30 12376 O 1179.72 0.936677 1.46874 0
M  V30 12377 C 1176.85 1.92686 2.8122 0
M  V30 12378 H 1178.05 2.74794 1.20117 0
M  V30 12379 H 1175.6 1.44677 0.591468 0
M  V30 12380 H 1176.33 0.997669 3.08573 0
M  V30 12381 H 1176.12 2.74837 2.79655 0
M  V30 12382 H 1177.61 2.14599 3.58242 0
M  V30 12383 N 1178.05 -0.61812 1.44973 0
M  V30 12384 C 1179.29 -1.37343 1.47715 0
M  V30 12385 C 1179.61 -1.95239 0.118784 0
M  V30 12386 O 1180.81 -2.7149 0.0237981 0
M  V30 12387 C 1179.27 -2.48732 2.60116 0
M  V30 12388 C 1178.88 -1.97294 4.02218 0
M  V30 12389 C 1180.62 -3.25831 2.72093 0
M  V30 12390 C 1178.53 -3.06102 5.06019 0
M  V30 12391 H 1177.46 -0.516175 0.549617 0
M  V30 12392 H 1180.11 -0.663617 1.7108 0
M  V30 12393 H 1178.49 -3.2235 2.30014 0
M  V30 12394 H 1179.67 -1.30455 4.41948 0
M  V30 12395 H 1177.98 -1.32972 3.94598 0
M  V30 12396 H 1180.58 -4.06968 3.46815 0
M  V30 12397 H 1180.92 -3.76156 1.7836 0
M  V30 12398 H 1181.45 -2.59309 3.01668 0
M  V30 12399 H 1178.19 -2.60706 6.01426 0
M  V30 12400 H 1177.71 -3.71541 4.70869 0
M  V30 12401 H 1179.39 -3.70662 5.30301 0
M  V30 12402 N 1179.52 -1.32087 -0.859693 0
M  V30 12403 C 1180.45 -1.23204 -1.98351 0
M  V30 12404 C 1181.43 -0.116974 -1.69697 0
M  V30 12405 O 1182.62 -0.303301 -1.91817 0
M  V30 12406 C 1179.75 -0.949171 -3.34078 0
M  V30 12407 C 1178.7 -2.02493 -3.77069 0
M  V30 12408 C 1178.03 -1.59455 -5.1037 0
M  V30 12409 C 1179.33 -3.43934 -3.93074 0
M  V30 12410 H 1181.02 -2.17227 -2.0604 0
M  V30 12411 H 1178.57 -1.04577 -0.989931 0
M  V30 12412 H 1180.52 -0.873594 -4.12245 0
M  V30 12413 H 1179.25 0.0267095 -3.26589 0
M  V30 12414 H 1177.91 -2.09057 -3.01149 0
M  V30 12415 H 1177.55 -0.606256 -4.99333 0
M  V30 12416 H 1177.25 -2.31429 -5.40106 0
M  V30 12417 H 1178.78 -1.53325 -5.91036 0
M  V30 12418 H 1180.19 -3.39986 -4.61608 0
M  V30 12419 H 1178.59 -4.14214 -4.3422 0
M  V30 12420 H 1179.66 -3.83965 -2.9614 0
M  V30 12421 N 1181 1.07532 -1.15215 0
M  V30 12422 C 1182.25 1.79737 -0.924062 0
M  V30 12423 C 1182.57 1.87072 0.550356 0
M  V30 12424 O 1181.84 1.37029 1.4 0
M  V30 12425 H 1180.42 0.665704 -0.338891 0
M  V30 12426 H 1183.08 1.29961 -1.45245 0
M  V30 12427 H 1182.18 2.82256 -1.33184 0
M  V30 12428 N 1182.48 0.948665 1.2585 0
M  V30 12429 C 1183.43 0.462904 2.2611 0
M  V30 12430 C 1184.4 -0.481433 1.5897 0
M  V30 12431 O 1185.58 -0.395997 1.86645 0
M  V30 12432 C 1182.72 -0.258808 3.44128 0
M  V30 12433 C 1181.84 0.722072 4.25923 0
M  V30 12434 C 1180.97 -0.0215958 5.31196 0
M  V30 12435 C 1180.01 0.950612 6.04673 0
M  V30 12436 N 1179.15 0.238209 7.01696 0
M  V30 12437 H 1183.99 1.32279 2.67032 0
M  V30 12438 H 1181.52 0.663485 1.31287 0
M  V30 12439 H 1183.48 -0.693759 4.11391 0
M  V30 12440 H 1182.11 -1.08278 3.04098 0
M  V30 12441 H 1181.16 1.27552 3.58378 0
M  V30 12442 H 1182.48 1.46421 4.76825 0
M  V30 12443 H 1181.63 -0.51547 6.04506 0
M  V30 12444 H 1180.37 -0.796563 4.81151 0
M  V30 12445 H 1179.37 1.45554 5.30183 0
M  V30 12446 H 1180.6 1.72571 6.56808 0
M  V30 12447 H 1178.54 -0.518129 6.53951 0
M  V30 12448 H 1178.46 0.919542 7.50387 0
M  V30 12449 H 1179.73 -0.234325 7.79148 0
M  V30 12450 N 1183.96 -1.40369 0.716545 0
M  V30 12451 C 1184.91 -2.32539 0.053472 0
M  V30 12452 C 1185.9 -1.5209 -0.745984 0
M  V30 12453 O 1187.11 -1.67883 -0.649245 0
M  V30 12454 H 1183.48 -0.751998 -0.00151088 0
M  V30 12455 H 1185.45 -2.86111 0.847535 0
M  V30 12456 C 1184.2 -3.37061 -0.853515 0
M  V30 12457 H 1183.52 -3.99032 -0.247754 0
M  V30 12458 H 1184.96 -4.04046 -1.28541 0
M  V30 12459 C 1183.42 -2.72619 -1.97941 0
M  V30 12460 O 1183.95 -2.59024 -3.07033 0
M  V30 12461 N 1182.16 -2.30988 -1.76332 0
M  V30 12462 H 1181.71 -2.42246 -0.876063 0
M  V30 12463 H 1181.66 -1.88209 -2.51843 0
M  V30 12464 N 1185.44 -0.462799 -1.50652 0
M  V30 12465 C 1186.71 0.156221 -1.94975 0
M  V30 12466 C 1187.09 1.5775 -1.40279 0
M  V30 12467 O 1186.44 2.20473 -0.600323 0
M  V30 12468 C 1186.65 0.108008 -3.48833 0
M  V30 12469 C 1188 0.301013 -4.23532 0
M  V30 12470 O 1189.02 0.184973 -3.55719 0
M  V30 12471 O 1187.88 0.534457 -5.4388 0
M  V30 12472 H 1184.98 0.116182 -0.818798 0
M  V30 12473 H 1187.52 -0.522607 -1.61453 0
M  V30 12474 H 1186.29 -0.884634 -3.81169 0
M  V30 12475 H 1185.92 0.828653 -3.88869 0
M  V30 12476 N 1186.91 1.56388 -0.195085 0
M  V30 12477 C 1188.16 1.96755 0.443901 0
M  V30 12478 C 1188.48 1.08483 1.6276 0
M  V30 12479 O 1189.68 1.38632 2.33438 0
M  V30 12480 C 1188.14 3.49933 0.841139 0
M  V30 12481 C 1187.75 4.46868 -0.318275 0
M  V30 12482 C 1189.49 3.99069 1.44721 0
M  V30 12483 C 1187.4 5.91316 0.0999211 0
M  V30 12484 H 1186.33 0.734674 0.169616 0
M  V30 12485 H 1188.98 1.8124 -0.287101 0
M  V30 12486 H 1187.36 3.60951 1.62881 0
M  V30 12487 H 1188.53 4.47581 -1.0958 0
M  V30 12488 H 1186.85 4.07925 -0.835842 0
M  V30 12489 H 1189.45 5.04465 1.77255 0
M  V30 12490 H 1189.79 3.43376 2.35369 0
M  V30 12491 H 1190.32 3.91165 0.723513 0
M  V30 12492 H 1187.06 6.50934 -0.77237 0
M  V30 12493 H 1186.58 5.93856 0.842304 0
M  V30 12494 H 1188.26 6.44778 0.535726 0
M  V30 12495 N 1188.39 -0.0785156 1.57404 0
M  V30 12496 C 1189.64 -0.778938 1.86919 0
M  V30 12497 C 1189.97 -1.77915 0.785906 0
M  V30 12498 O 1189.22 -1.94473 -0.218811 0
M  V30 12499 C 1189.52 -1.52826 3.23078 0
M  V30 12500 C 1189.19 -0.668645 4.45915 0
M  V30 12501 C 1187.85 -0.43173 4.79259 0
M  V30 12502 C 1190.2 -0.0721327 5.2115 0
M  V30 12503 C 1187.53 0.41129 5.85257 0
M  V30 12504 C 1189.88 0.758303 6.28039 0
M  V30 12505 C 1188.55 1.00515 6.59889 0
M  V30 12506 H 1187.82 -0.285034 0.683986 0
M  V30 12507 H 1190.46 -0.039906 1.91458 0
M  V30 12508 H 1188.77 -2.33931 3.14299 0
M  V30 12509 H 1190.46 -2.07488 3.43147 0
M  V30 12510 H 1187.05 -0.863424 4.19813 0
M  V30 12511 H 1191.24 -0.242297 4.95708 0
M  V30 12512 H 1186.49 0.611354 6.08336 0
M  V30 12513 H 1190.67 1.2273 6.855 0
M  V30 12514 H 1188.3 1.66017 7.41851 0
M  V30 12515 N 1189.87 -1.5367 -0.349747 0
M  V30 12516 C 1191.12 -1.70281 -1.08853 0
M  V30 12517 C 1191.44 -0.465438 -1.89364 0
M  V30 12518 O 1190.71 0.520615 -1.88856 0
M  V30 12519 H 1189.29 -0.627775 -0.404854 0
M  V30 12520 H 1191.95 -1.90906 -0.392523 0
M  V30 12521 H 1191.05 -2.57096 -1.76941 0
M  V30 12522 N 1191.35 0.610423 -1.45298 0
M  V30 12523 C 1192.26 1.74964 -1.56285 0
M  V30 12524 C 1193.27 1.68149 -0.447436 0
M  V30 12525 O 1194.45 1.88556 -0.707725 0
M  V30 12526 C 1191.52 3.11417 -1.52383 0
M  V30 12527 C 1190.58 3.29707 -2.7494 0
M  V30 12528 C 1189.81 4.5965 -2.71215 0
M  V30 12529 O 1190.03 5.41789 -1.78383 0
M  V30 12530 O 1188.97 4.80591 -3.62375 0
M  V30 12531 H 1192.79 1.68646 -2.52571 0
M  V30 12532 H 1190.38 0.774168 -1.27777 0
M  V30 12533 H 1192.26 3.9272 -1.52805 0
M  V30 12534 H 1190.93 3.18232 -0.592472 0
M  V30 12535 H 1189.84 2.48003 -2.80081 0
M  V30 12536 H 1191.17 3.27766 -3.67192 0
M  V30 12537 N 1192.83 1.32541 0.852676 0
M  V30 12538 C 1194.24 1.20863 1.42299 0
M  V30 12539 C 1194.59 -0.178051 1.9539 0
M  V30 12540 O 1193.71 -1.07689 1.87702 0
M  V30 12541 C 1194.31 2.18811 2.58664 0
M  V30 12542 C 1192.87 2.11015 3.11689 0
M  V30 12543 C 1192.01 2.07067 1.84441 0
M  V30 12544 H 1194.97 1.44341 0.659657 0
M  V30 12545 H 1194.99 1.78779 3.35884 0
M  V30 12546 H 1194.5 3.19726 2.19993 0
M  V30 12547 H 1192.6 1.13354 3.54939 0
M  V30 12548 H 1192.71 3.00929 3.72799 0
M  V30 12549 H 1191.08 1.52335 2.04123 0
M  V30 12550 H 1191.86 3.09767 1.47984 0
M  V30 12551 N 1194.3 -1.0692 1.15784 0
M  V30 12552 C 1195.23 -2.16216 0.881649 0
M  V30 12553 C 1196.22 -1.69253 -0.16951 0
M  V30 12554 O 1197.4 -1.94186 -0.0229511 0
M  V30 12555 C 1194.53 -3.4527 0.374982 0
M  V30 12556 C 1193.48 -4.05706 1.36332 0
M  V30 12557 C 1192.81 -5.29894 0.715317 0
M  V30 12558 C 1194.11 -4.45224 2.7308 0
M  V30 12559 H 1195.8 -2.39577 1.79563 0
M  V30 12560 H 1193.35 -1.15141 0.864784 0
M  V30 12561 H 1195.3 -4.2106 0.169279 0
M  V30 12562 H 1194.03 -3.21508 -0.574485 0
M  V30 12563 H 1192.69 -3.31965 1.55546 0
M  V30 12564 H 1192.33 -5.02425 -0.240436 0
M  V30 12565 H 1192.03 -5.71287 1.37494 0
M  V30 12566 H 1193.56 -6.08386 0.519489 0
M  V30 12567 H 1194.97 -5.12124 2.57686 0
M  V30 12568 H 1193.37 -4.97583 3.35457 0
M  V30 12569 H 1194.44 -3.56384 3.28813 0
M  V30 12570 N 1195.78 -0.955326 -1.25345 0
M  V30 12571 C 1196.73 -0.467205 -2.2786 0
M  V30 12572 C 1197.72 0.462873 -1.62954 0
M  V30 12573 O 1198.93 0.339526 -1.76769 0
M  V30 12574 H 1195.31 -0.132586 -0.74022 0
M  V30 12575 H 1197.28 -1.34406 -2.66416 0
M  V30 12576 C 1196.03 0.238898 -3.46878 0
M  V30 12577 H 1195.35 -0.467644 -3.97056 0
M  V30 12578 H 1196.79 0.544444 -4.2049 0
M  V30 12579 C 1195.25 1.46164 -3.03542 0
M  V30 12580 O 1195.78 2.55933 -3.09615 0
M  V30 12581 N 1193.98 1.32324 -2.58725 0
M  V30 12582 H 1193.53 0.430131 -2.53984 0
M  V30 12583 H 1193.49 2.14253 -2.30094 0
M  V30 12584 N 1197.26 1.39987 -0.723979 0
M  V30 12585 C 1198.19 2.3332 -0.0917282 0
M  V30 12586 C 1199.17 1.53335 0.736361 0
M  V30 12587 O 1200.36 1.81771 0.683582 0
M  V30 12588 C 1197.49 3.3737 0.824549 0
M  V30 12589 C 1196.44 4.2788 0.101452 0
M  V30 12590 C 1195.77 5.22536 1.13401 0
M  V30 12591 C 1197.07 5.11649 -1.04939 0
M  V30 12592 H 1198.76 2.86441 -0.871318 0
M  V30 12593 H 1196.31 1.37725 -0.420448 0
M  V30 12594 H 1198.26 4.01607 1.27631 0
M  V30 12595 H 1196.98 2.82663 1.63613 0
M  V30 12596 H 1195.64 3.65107 -0.330569 0
M  V30 12597 H 1195.29 4.64131 1.93886 0
M  V30 12598 H 1194.99 5.83938 0.65502 0
M  V30 12599 H 1196.52 5.89651 1.58569 0
M  V30 12600 H 1197.93 5.69293 -0.6766 0
M  V30 12601 H 1196.33 5.82137 -1.45729 0
M  V30 12602 H 1197.4 4.47132 -1.8762 0
M  V30 12603 N 1198.74 0.470782 1.50404 0
M  V30 12604 C 1199.97 -0.0818945 2.06438 0
M  V30 12605 C 1200.38 -1.34085 1.33483 0
M  V30 12606 O 1199.72 -1.79346 0.397565 0
M  V30 12607 C 1199.78 -0.436252 3.56843 0
M  V30 12608 C 1199.45 0.720641 4.51282 0
M  V30 12609 C 1200.44 1.60258 4.94584 0
M  V30 12610 C 1198.13 0.910879 4.93972 0
M  V30 12611 C 1200.12 2.65916 5.79282 0
M  V30 12612 C 1197.81 1.97069 5.78452 0
M  V30 12613 C 1198.81 2.84319 6.21008 0
M  V30 12614 O 1198.5 3.88476 7.03805 0
M  V30 12615 H 1198.23 0.00361688 0.67599 0
M  V30 12616 H 1200.78 0.658488 1.94559 0
M  V30 12617 H 1199.01 -1.22982 3.66623 0
M  V30 12618 H 1200.7 -0.923976 3.95244 0
M  V30 12619 H 1201.47 1.46729 4.62272 0
M  V30 12620 H 1197.35 0.241225 4.60368 0
M  V30 12621 H 1200.89 3.3405 6.12419 0
M  V30 12622 H 1196.79 2.10605 6.10177 0
M  V30 12623 H 1197.55 3.8546 7.22054 0
M  V30 12624 N 1200.22 -1.56282 0.203376 0
M  V30 12625 C 1201.18 -2.18233 -0.700489 0
M  V30 12626 C 1202.18 -1.13908 -1.13497 0
M  V30 12627 O 1203.37 -1.39246 -1.04672 0
M  V30 12628 C 1200.5 -2.79107 -1.95735 0
M  V30 12629 H 1201.7 -2.99469 -0.160649 0
M  V30 12630 H 1199.25 -1.56232 -0.0462475 0
M  V30 12631 H 1199.98 -2.01691 -2.53951 0
M  V30 12632 H 1199.77 -3.55486 -1.65446 0
M  V30 12633 H 1201.26 -3.2665 -2.60172 0
M  V30 12634 N 1201.7 0.070167 -1.57444 0
M  V30 12635 C 1203.11 0.424991 -1.53838 0
M  V30 12636 C 1203.31 1.79076 -0.923793 0
M  V30 12637 O 1202.37 2.46939 -0.527002 0
M  V30 12638 C 1203.68 0.364562 -2.98482 0
M  V30 12639 C 1205.23 0.444631 -3.09826 0
M  V30 12640 C 1205.7 0.414093 -4.56124 0
M  V30 12641 N 1207.19 0.474119 -4.60767 0
M  V30 12642 C 1207.93 0.472729 -5.71448 0
M  V30 12643 N 1207.43 0.426059 -6.91489 0
M  V30 12644 N 1209.22 0.519408 -5.59695 0
M  V30 12645 H 1201.37 -0.824117 -1.9576 0
M  V30 12646 H 1203.63 -0.309401 -0.896089 0
M  V30 12647 H 1203.34 -0.572343 -3.47012 0
M  V30 12648 H 1203.21 1.17414 -3.5846 0
M  V30 12649 H 1205.6 1.37196 -2.61269 0
M  V30 12650 H 1205.68 -0.393547 -2.52755 0
M  V30 12651 H 1205.32 -0.509394 -5.05339 0
M  V30 12652 H 1205.25 1.26983 -5.11061 0
M  V30 12653 H 1207.75 0.514371 -3.74383 0
M  V30 12654 H 1208.06 0.428969 -7.71609 0
M  V30 12655 H 1206.4 0.392722 -6.9389 0
M  V30 12656 H 1209.59 0.553573 -4.64815 0
M  V30 12657 H 1209.77 0.514856 -6.45951 0
M  V30 12658 N 1203.17 1.53854 0.341593 0
M  V30 12659 C 1204.58 1.62623 0.917093 0
M  V30 12660 C 1204.94 0.508781 1.89488 0
M  V30 12661 O 1204.06 -0.361171 2.13365 0
M  V30 12662 C 1204.66 2.94775 1.67012 0
M  V30 12663 C 1203.21 3.058 2.19461 0
M  V30 12664 C 1202.36 2.58082 1.01433 0
M  V30 12665 H 1205.31 1.58248 0.119674 0
M  V30 12666 H 1205.33 2.83924 2.53313 0
M  V30 12667 H 1204.85 3.76085 0.958221 0
M  V30 12668 H 1202.95 2.29128 2.93821 0
M  V30 12669 H 1203.06 4.11302 2.45698 0
M  V30 12670 H 1201.42 2.13537 1.38831 0
M  V30 12671 H 1202.21 3.41833 0.317033 0
M  V30 12672 N 1204.65 -0.602709 1.4562 0
M  V30 12673 C 1205.9 -1.35889 1.49595 0
M  V30 12674 C 1206.22 -1.9449 0.141002 0
M  V30 12675 O 1205.49 -1.77438 -0.830209 0
M  V30 12676 H 1204.07 -0.504478 0.550918 0
M  V30 12677 H 1206.73 -0.707376 1.8161 0
M  V30 12678 H 1205.83 -2.17583 2.2375 0
M  V30 12679 N 1206.13 -1.32992 -0.845635 0
M  V30 12680 C 1207.08 -1.22682 -1.95494 0
M  V30 12681 C 1208.05 -0.106942 -1.65755 0
M  V30 12682 O 1209.23 -0.28405 -1.88674 0
M  V30 12683 C 1206.37 -0.965068 -3.31331 0
M  V30 12684 C 1205.48 -2.17058 -3.7351 0
M  V30 12685 C 1204.62 -1.84355 -4.98183 0
M  V30 12686 C 1203.66 -3.01176 -5.32878 0
M  V30 12687 N 1202.8 -2.68506 -6.48729 0
M  V30 12688 H 1207.64 -2.17562 -2.03644 0
M  V30 12689 H 1205.17 -1.08194 -0.996613 0
M  V30 12690 H 1207.13 -0.793771 -4.09579 0
M  V30 12691 H 1205.76 -0.0530285 -3.22756 0
M  V30 12692 H 1204.81 -2.45185 -2.90841 0
M  V30 12693 H 1206.12 -3.04413 -3.95138 0
M  V30 12694 H 1205.28 -1.6383 -5.84162 0
M  V30 12695 H 1204.02 -0.942264 -4.78511 0
M  V30 12696 H 1203.02 -3.22323 -4.45408 0
M  V30 12697 H 1204.25 -3.9205 -5.54503 0
M  V30 12698 H 1202.19 -1.80929 -6.30556 0
M  V30 12699 H 1202.11 -3.49392 -6.70419 0
M  V30 12700 H 1203.38 -2.51432 -7.37836 0
M  V30 12701 N 1207.61 1.06304 -1.1635 0
M  V30 12702 C 1208.83 1.83338 -0.969639 0
M  V30 12703 C 1209.26 1.81945 0.477231 0
M  V30 12704 O 1208.62 1.22018 1.34094 0
M  V30 12705 C 1208.66 3.2785 -1.50155 0
M  V30 12706 O 1207.77 4.06281 -0.707805 0
M  V30 12707 H 1207.11 0.567293 -0.345072 0
M  V30 12708 H 1209.64 1.34033 -1.54584 0
M  V30 12709 H 1209.65 3.7867 -1.51898 0
M  V30 12710 H 1208.32 3.28179 -2.55483 0
M  V30 12711 H 1206.9 3.65055 -0.760872 0
M  V30 12712 N 1209.09 0.96196 1.24836 0
M  V30 12713 C 1210.03 0.479282 2.27609 0
M  V30 12714 C 1211.03 -0.454224 1.63197 0
M  V30 12715 O 1212.23 -0.330146 1.76946 0
M  V30 12716 H 1208.61 0.13651 0.739506 0
M  V30 12717 H 1210.58 1.35817 2.657 0
M  V30 12718 C 1209.33 -0.220499 3.47 0
M  V30 12719 H 1208.65 0.488694 3.96802 0
M  V30 12720 H 1210.09 -0.522137 4.20773 0
M  V30 12721 C 1208.55 -1.44552 3.04313 0
M  V30 12722 O 1209.08 -2.54287 3.10967 0
M  V30 12723 N 1207.29 -1.3095 2.59423 0
M  V30 12724 H 1206.83 -0.416656 2.54208 0
M  V30 12725 H 1206.79 -2.13029 2.31227 0
M  V30 12726 N 1210.56 -1.39601 0.731392 0
M  V30 12727 C 1211.81 -2.0019 0.277208 0
M  V30 12728 C 1212.13 -1.5832 -1.13841 0
M  V30 12729 O 1211.4 -0.829793 -1.77458 0
M  V30 12730 H 1209.98 -0.740344 0.0995006 0
M  V30 12731 H 1212.64 -1.70704 0.940547 0
M  V30 12732 H 1211.74 -3.10427 0.322749 0
M  V30 12733 N 1212.04 -0.478751 -1.50152 0
M  V30 12734 C 1213.32 0.135533 -1.9513 0
M  V30 12735 C 1213.7 1.56253 -1.41944 0
M  V30 12736 O 1213.05 2.19824 -0.623673 0
M  V30 12737 C 1213.26 0.0710037 -3.48928 0
M  V30 12738 C 1214.61 0.256075 -4.23827 0
M  V30 12739 O 1215.63 0.147234 -3.55896 0
M  V30 12740 O 1214.49 0.476741 -5.44417 0
M  V30 12741 H 1211.58 0.107491 -0.819985 0
M  V30 12742 H 1214.13 -0.539701 -1.60889 0
M  V30 12743 H 1212.9 -0.925012 -3.80209 0
M  V30 12744 H 1212.52 0.787362 -3.89726 0
M  V30 12745 N 1213.52 1.56172 -0.211661 0
M  V30 12746 C 1214.77 1.98332 0.423332 0
M  V30 12747 C 1215.1 1.09895 1.60115 0
M  V30 12748 O 1214.37 0.154477 1.93886 0
M  V30 12749 C 1214.66 3.49495 0.86747 0
M  V30 12750 C 1214.51 4.48708 -0.313302 0
M  V30 12751 C 1215.83 4.04793 1.72716 0
M  V30 12752 H 1212.95 0.72107 0.152402 0
M  V30 12753 H 1215.59 1.87521 -0.305912 0
M  V30 12754 H 1213.74 3.58839 1.48885 0
M  V30 12755 H 1215.41 4.51385 -0.951291 0
M  V30 12756 H 1213.66 4.2299 -0.96238 0
M  V30 12757 H 1214.33 5.51985 0.0402402 0
M  V30 12758 H 1216.8 3.98332 1.20296 0
M  V30 12759 H 1215.68 5.10898 2.00684 0
M  V30 12760 H 1215.94 3.51067 2.68709 0
M  V30 12761 N 1215 -0.0618163 1.57479 0
M  V30 12762 C 1216.41 -0.416827 1.54061 0
M  V30 12763 C 1216.61 -1.78584 0.933277 0
M  V30 12764 O 1215.67 -2.46656 0.54009 0
M  V30 12765 C 1216.98 -0.348728 2.98671 0
M  V30 12766 C 1218.53 -0.428194 3.10057 0
M  V30 12767 C 1219.01 -0.389898 4.56337 0
M  V30 12768 N 1220.5 -0.449677 4.61012 0
M  V30 12769 C 1221.23 -0.442418 5.71691 0
M  V30 12770 N 1220.73 -0.389381 6.91705 0
M  V30 12771 N 1222.52 -0.489719 5.59963 0
M  V30 12772 H 1214.67 0.834487 1.9532 0
M  V30 12773 H 1216.94 0.314149 0.894435 0
M  V30 12774 H 1216.64 0.590738 3.46703 0
M  V30 12775 H 1216.52 -1.15511 3.59078 0
M  V30 12776 H 1218.9 -1.35808 2.61992 0
M  V30 12777 H 1218.98 0.406946 2.52542 0
M  V30 12778 H 1218.63 0.536186 5.05062 0
M  V30 12779 H 1218.56 -1.24271 5.11727 0
M  V30 12780 H 1221.05 -0.49451 3.74651 0
M  V30 12781 H 1221.36 -0.388042 7.71825 0
M  V30 12782 H 1219.71 -0.355918 6.94088 0
M  V30 12783 H 1222.9 -0.528915 4.65102 0
M  V30 12784 H 1223.07 -0.480592 6.46215 0
M  V30 12785 N 1216.48 -1.54033 -0.333429 0
M  V30 12786 C 1217.44 -1.82021 -1.39288 0
M  V30 12787 C 1218.44 -0.691623 -1.45166 0
M  V30 12788 O 1219.63 -0.959925 -1.45365 0
M  V30 12789 C 1216.76 -1.97136 -2.78119 0
M  V30 12790 H 1217.95 -2.76671 -1.1573 0
M  V30 12791 H 1215.51 -1.45599 -0.568376 0
M  V30 12792 H 1216.24 -1.04663 -3.06946 0
M  V30 12793 H 1216.03 -2.79251 -2.75247 0
M  V30 12794 H 1217.52 -2.20271 -3.54782 0
M  V30 12795 N 1217.95 0.594978 -1.45938 0
M  V30 12796 C 1218.88 1.71536 -1.58422 0
M  V30 12797 C 1219.87 1.64441 -0.435116 0
M  V30 12798 O 1221.05 1.82647 -0.659839 0
M  V30 12799 C 1218.18 3.10163 -1.56257 0
M  V30 12800 C 1217.13 3.3208 -2.70013 0
M  V30 12801 C 1216.46 4.71108 -2.52905 0
M  V30 12802 C 1217.76 3.21105 -4.11933 0
M  V30 12803 H 1219.45 1.61344 -2.52207 0
M  V30 12804 H 1217 0.774791 -1.2138 0
M  V30 12805 H 1218.95 3.88352 -1.63587 0
M  V30 12806 H 1217.68 3.21225 -0.590093 0
M  V30 12807 H 1216.34 2.56286 -2.62132 0
M  V30 12808 H 1215.98 4.7892 -1.53768 0
M  V30 12809 H 1215.68 4.86727 -3.29197 0
M  V30 12810 H 1217.21 5.51482 -2.62107 0
M  V30 12811 H 1218.62 3.89153 -4.2099 0
M  V30 12812 H 1217.02 3.4825 -4.88715 0
M  V30 12813 H 1218.09 2.18359 -4.32952 0
M  V30 12814 N 1219.43 1.33438 0.838571 0
M  V30 12815 C 1220.66 1.27951 1.62592 0
M  V30 12816 C 1221.08 -0.149502 1.88207 0
M  V30 12817 O 1220.43 -1.09174 1.46244 0
M  V30 12818 C 1220.48 2.0523 2.97595 0
M  V30 12819 O 1220.2 3.42557 2.73105 0
M  V30 12820 C 1221.71 2.06957 3.92025 0
M  V30 12821 H 1218.93 0.440796 0.505905 0
M  V30 12822 H 1221.47 1.75814 1.0445 0
M  V30 12823 H 1219.62 1.61049 3.52338 0
M  V30 12824 H 1220.04 3.82314 3.59076 0
M  V30 12825 H 1221.51 2.65481 4.83967 0
M  V30 12826 H 1221.99 1.0599 4.26219 0
M  V30 12827 H 1222.6 2.51158 3.4322 0
M  V30 12828 N 1220.91 -1.05686 1.16912 0
M  V30 12829 C 1222.14 -1.82018 0.977392 0
M  V30 12830 C 1222.55 -1.83072 -0.477636 0
M  V30 12831 O 1221.89 -1.25296 -1.34338 0
M  V30 12832 C 1221.95 -3.29592 1.4356 0
M  V30 12833 C 1221.62 -3.5223 2.91175 0
M  V30 12834 C 1222.61 -3.44767 3.89142 0
M  V30 12835 C 1220.3 -3.79353 3.29236 0
M  V30 12836 C 1222.29 -3.64104 5.2317 0
M  V30 12837 C 1219.98 -3.98339 4.63432 0
M  V30 12838 C 1220.98 -3.90713 5.60207 0
M  V30 12839 O 1220.67 -4.09175 6.91976 0
M  V30 12840 H 1220.4 -0.580578 0.346273 0
M  V30 12841 H 1222.95 -1.34199 1.55498 0
M  V30 12842 H 1221.18 -3.78302 0.80153 0
M  V30 12843 H 1222.87 -3.87435 1.21032 0
M  V30 12844 H 1223.64 -3.23796 3.61083 0
M  V30 12845 H 1219.52 -3.84395 2.54482 0
M  V30 12846 H 1223.06 -3.58068 5.98693 0
M  V30 12847 H 1218.96 -4.18801 4.91198 0
M  V30 12848 H 1219.73 -4.26429 6.98642 0
M  V30 12849 N 1222.39 -0.968567 -1.24324 0
M  V30 12850 C 1223.63 -0.63879 -1.94162 0
M  V30 12851 C 1223.99 0.81112 -1.74025 0
M  V30 12852 O 1225.19 1.25116 -2.37906 0
M  V30 12853 C 1223.46 -1.00432 -3.42999 0
M  V30 12854 S 1225.02 -0.789227 -4.31644 0
M  V30 12855 H 1221.84 -0.234322 -0.671278 0
M  V30 12856 H 1224.44 -1.2457 -1.50673 0
M  V30 12857 H 1223.15 -2.05643 -3.55161 0
M  V30 12858 H 1222.68 -0.388221 -3.9148 0
M  V30 12859 H 1224.69 0.332976 -4.95082 0
M  V30 12860 N 1223.87 1.39211 -0.738786 0
M  V30 12861 C 1225.14 1.9442 -0.214533 0
M  V30 12862 C 1225.52 1.67528 1.28443 0
M  V30 12863 O 1224.87 1.0056 2.05183 0
M  V30 12864 C 1225.08 3.44603 -0.552232 0
M  V30 12865 C 1226.43 4.21602 -0.503663 0
M  V30 12866 O 1227.45 3.52819 -0.489647 0
M  V30 12867 O 1226.31 5.44194 -0.50153 0
M  V30 12868 H 1223.41 0.826011 -0.0404247 0
M  V30 12869 H 1225.95 1.48689 -0.817902 0
M  V30 12870 H 1224.72 3.57626 -1.58806 0
M  V30 12871 H 1224.35 3.9752 0.0799096 0
M  V30 12872 N 1225.34 0.486708 1.49896 0
M  V30 12873 C 1226.27 -0.288898 2.31706 0
M  V30 12874 C 1227.26 -0.975901 1.3932 0
M  V30 12875 O 1228.44 -0.970065 1.68236 0
M  V30 12876 C 1225.57 -1.36218 3.19471 0
M  V30 12877 C 1224.52 -0.795884 4.20535 0
M  V30 12878 C 1223.85 -1.96862 4.97141 0
M  V30 12879 C 1225.15 0.203421 5.21904 0
M  V30 12880 H 1226.84 0.393934 2.96797 0
M  V30 12881 H 1224.39 0.190894 1.42729 0
M  V30 12882 H 1226.34 -1.91238 3.75508 0
M  V30 12883 H 1225.07 -2.074 2.52295 0
M  V30 12884 H 1223.73 -0.267538 3.65622 0
M  V30 12885 H 1223.37 -2.66779 4.26425 0
M  V30 12886 H 1223.07 -1.59585 5.65514 0
M  V30 12887 H 1224.6 -2.52343 5.56017 0
M  V30 12888 H 1226.01 -0.258144 5.72719 0
M  V30 12889 H 1224.41 0.491273 5.98086 0
M  V30 12890 H 1225.48 1.12414 4.7169 0
M  V30 12891 N 1226.82 -1.56058 0.219941 0
M  V30 12892 C 1227.77 -2.16853 -0.704185 0
M  V30 12893 C 1228.76 -1.11639 -1.15869 0
M  V30 12894 O 1229.95 -1.37632 -1.11295 0
M  V30 12895 C 1227.08 -2.85073 -1.9128 0
M  V30 12896 C 1226.16 -3.9751 -1.47805 0
M  V30 12897 N 1226.56 -5.00121 -0.755792 0
M  V30 12898 C 1224.85 -4.0957 -1.76546 0
M  V30 12899 C 1225.55 -5.79241 -0.534332 0
M  V30 12900 N 1224.53 -5.32549 -1.09055 0
M  V30 12901 H 1228.33 -2.93547 -0.143914 0
M  V30 12902 H 1225.85 -1.62386 0.021133 0
M  V30 12903 H 1227.84 -3.27037 -2.58558 0
M  V30 12904 H 1226.5 -2.09874 -2.47756 0
M  V30 12905 H 1227.51 -5.16285 -0.408647 0
M  V30 12906 H 1224.19 -3.45521 -2.34353 0
M  V30 12907 H 1225.58 -6.71888 0.0404032 0
M  V30 12908 N 1228.3 0.053464 -1.57509 0
M  V30 12909 C 1229.25 1.06155 -2.04939 0
M  V30 12910 C 1230.22 1.37382 -0.93357 0
M  V30 12911 O 1231.4 1.48137 -1.2025 0
M  V30 12912 C 1228.54 2.36476 -2.51343 0
M  V30 12913 C 1227.66 2.1162 -3.76618 0
M  V30 12914 C 1226.79 3.35636 -4.11731 0
M  V30 12915 C 1225.83 3.06226 -5.29993 0
M  V30 12916 N 1224.97 4.22623 -5.60655 0
M  V30 12917 H 1229.81 0.650122 -2.90822 0
M  V30 12918 H 1227.34 0.309421 -1.43809 0
M  V30 12919 H 1229.3 3.12588 -2.76306 0
M  V30 12920 H 1227.93 2.75386 -1.68411 0
M  V30 12921 H 1226.98 1.26116 -3.58886 0
M  V30 12922 H 1228.3 1.85909 -4.6286 0
M  V30 12923 H 1227.45 4.20132 -4.37692 0
M  V30 12924 H 1226.19 3.64439 -3.24092 0
M  V30 12925 H 1225.19 2.20128 -5.03809 0
M  V30 12926 H 1226.42 2.78726 -6.19265 0
M  V30 12927 H 1224.37 4.51424 -4.75976 0
M  V30 12928 H 1224.28 4.0025 -6.41355 0
M  V30 12929 H 1225.55 5.08063 -5.91178 0
M  V30 12930 N 1229.78 1.54207 0.325255 0
M  V30 12931 C 1231.03 1.71544 1.06091 0
M  V30 12932 C 1231.34 0.495137 1.89229 0
M  V30 12933 O 1232.55 0.54982 2.65874 0
M  V30 12934 C 1231 3.03412 1.93569 0
M  V30 12935 C 1230.61 4.32842 1.1555 0
M  V30 12936 C 1232.36 3.30113 2.66881 0
M  V30 12937 C 1230.26 5.55773 2.02164 0
M  V30 12938 H 1229.19 0.639281 0.399795 0
M  V30 12939 H 1231.84 1.80701 0.319261 0
M  V30 12940 H 1230.23 2.88158 2.71626 0
M  V30 12941 H 1231.4 4.58857 0.42276 0
M  V30 12942 H 1229.71 4.12893 0.539277 0
M  V30 12943 H 1232.31 4.19151 3.31988 0
M  V30 12944 H 1232.65 2.47918 3.34428 0
M  V30 12945 H 1233.19 3.46227 1.95887 0
M  V30 12946 H 1229.93 6.40565 1.39128 0
M  V30 12947 H 1229.45 5.3398 2.73177 0
M  V30 12948 H 1231.13 5.92113 2.60789 0
M  V30 12949 N 1231.26 -0.58723 1.46251 0
M  V30 12950 C 1232.21 -1.69141 1.5289 0
M  V30 12951 C 1233.19 -1.56096 0.39024 0
M  V30 12952 O 1234.38 -1.65087 0.638373 0
M  V30 12953 C 1231.51 -3.07922 1.51785 0
M  V30 12954 C 1230.6 -3.2628 2.70928 0
M  V30 12955 N 1230.99 -3.14815 3.95885 0
M  V30 12956 C 1229.29 -3.57207 2.67056 0
M  V30 12957 C 1229.99 -3.35055 4.75514 0
M  V30 12958 N 1228.96 -3.59999 4.0731 0
M  V30 12959 H 1232.77 -1.588 2.47305 0
M  V30 12960 H 1230.28 -0.791124 1.41827 0
M  V30 12961 H 1232.28 -3.87164 1.54628 0
M  V30 12962 H 1230.94 -3.19397 0.584435 0
M  V30 12963 H 1231.95 -2.92778 4.27202 0
M  V30 12964 H 1228.63 -3.75394 1.82717 0
M  V30 12965 H 1230.02 -3.31412 5.84479 0
M  V30 12966 N 1232.74 -1.33881 -0.831482 0
M  V30 12967 C 1234.15 -1.13376 -1.1233 0
M  V30 12968 C 1234.35 0.0704402 -2.01377 0
M  V30 12969 O 1233.41 0.748516 -2.4115 0
M  V30 12970 C 1234.72 -2.42484 -1.77826 0
M  V30 12971 C 1236.27 -2.4846 -1.90359 0
M  V30 12972 C 1236.74 -3.77548 -2.59272 0
M  V30 12973 N 1238.23 -3.7866 -2.66778 0
M  V30 12974 C 1238.97 -4.75258 -3.20807 0
M  V30 12975 N 1238.47 -5.82234 -3.75466 0
M  V30 12976 N 1240.26 -4.62724 -3.19128 0
M  V30 12977 H 1232.41 -2.11051 -0.238998 0
M  V30 12978 H 1234.67 -0.932893 -0.168565 0
M  V30 12979 H 1234.38 -3.30647 -1.19857 0
M  V30 12980 H 1234.25 -2.55186 -2.77777 0
M  V30 12981 H 1236.64 -1.60742 -2.47479 0
M  V30 12982 H 1236.72 -2.39693 -0.893359 0
M  V30 12983 H 1236.36 -4.65651 -2.02808 0
M  V30 12984 H 1236.29 -3.83594 -3.60781 0
M  V30 12985 H 1238.79 -3.01351 -2.28026 0
M  V30 12986 H 1239.1 -6.51968 -4.14918 0
M  V30 12987 H 1237.44 -5.85959 -3.73733 0
M  V30 12988 H 1240.63 -3.78303 -2.75688 0
M  V30 12989 H 1240.81 -5.38175 -3.60932 0
M  V30 12990 N 1234.21 1.05064 -1.1747 0
M  V30 12991 C 1235.49 1.74999 -0.873776 0
M  V30 12992 C 1235.87 2.01615 0.625676 0
M  V30 12993 O 1235.22 1.65324 1.57734 0
M  V30 12994 C 1235.43 3.04231 -1.7101 0
M  V30 12995 C 1236.78 3.78157 -1.93087 0
M  V30 12996 O 1237.8 3.14104 -1.6798 0
M  V30 12997 O 1236.66 4.93255 -2.3529 0
M  V30 12998 H 1233.75 0.761042 -0.323641 0
M  V30 12999 H 1236.3 1.1122 -1.28172 0
M  V30 13000 H 1235.07 2.80621 -2.72704 0
M  V30 13001 H 1234.69 3.75746 -1.30002 0
M  V30 13002 N 1235.69 0.975146 1.23809 0
M  V30 13003 C 1236.97 0.557725 1.8748 0
M  V30 13004 C 1237.35 -0.965164 1.87744 0
M  V30 13005 O 1236.7 -1.83966 1.35531 0
M  V30 13006 C 1236.91 1.15777 3.29236 0
M  V30 13007 C 1238.25 1.24726 4.05868 0
M  V30 13008 O 1239.28 1.11084 3.38436 0
M  V30 13009 O 1238.14 1.46373 5.26533 0
M  V30 13010 H 1235.23 0.187045 0.80557 0
M  V30 13011 H 1237.78 1.06989 1.31725 0
M  V30 13012 H 1236.55 2.20023 3.23583 0
M  V30 13013 H 1236.17 0.630103 3.92575 0
M  V30 13014 N 1237.17 -1.38817 0.746158 0
M  V30 13015 C 1238.1 -2.33144 0.128836 0
M  V30 13016 C 1239.08 -1.54487 -0.711873 0
M  V30 13017 O 1240.27 -1.82836 -0.654577 0
M  V30 13018 C 1237.4 -3.38639 -0.770772 0
M  V30 13019 C 1236.35 -4.27987 -0.0333669 0
M  V30 13020 C 1235.68 -5.24274 -1.05073 0
M  V30 13021 C 1236.98 -5.09915 1.13066 0
M  V30 13022 H 1238.67 -2.85019 0.916778 0
M  V30 13023 H 1236.22 -1.37039 0.442306 0
M  V30 13024 H 1238.17 -4.03587 -1.21225 0
M  V30 13025 H 1236.89 -2.8523 -1.59095 0
M  V30 13026 H 1235.55 -3.64534 0.388612 0
M  V30 13027 H 1235.2 -4.67156 -1.86478 0
M  V30 13028 H 1234.9 -5.84906 -0.562037 0
M  V30 13029 H 1236.42 -5.92099 -1.49169 0
M  V30 13030 H 1237.84 -5.68145 0.767084 0
M  V30 13031 H 1236.23 -5.79744 1.54972 0
M  V30 13032 H 1237.3 -4.4409 1.94709 0
M  V30 13033 N 1238.65 -0.49465 -1.49636 0
M  V30 13034 C 1239.58 0.276606 -2.31856 0
M  V30 13035 C 1240.56 0.968499 -1.39836 0
M  V30 13036 O 1241.74 0.96113 -1.68748 0
M  V30 13037 C 1238.87 1.34522 -3.20189 0
M  V30 13038 C 1237.83 0.773571 -4.20951 0
M  V30 13039 C 1237.15 1.94223 -4.98178 0
M  V30 13040 C 1238.45 -0.231096 -5.21788 0
M  V30 13041 H 1240.15 -0.409668 -2.96584 0
M  V30 13042 H 1237.69 -0.198461 -1.42626 0
M  V30 13043 H 1239.65 1.89244 -3.76517 0
M  V30 13044 H 1238.37 2.06059 -2.53392 0
M  V30 13045 H 1237.03 0.248144 -3.65759 0
M  V30 13046 H 1236.68 2.64514 -4.27834 0
M  V30 13047 H 1236.38 1.56584 -5.66353 0
M  V30 13048 H 1237.9 2.49391 -5.57348 0
M  V30 13049 H 1239.32 0.227768 -5.72847 0
M  V30 13050 H 1237.71 -0.522984 -5.97817 0
M  V30 13051 H 1238.78 -1.14914 -4.71087 0
M  V30 13052 N 1240.13 1.55939 -0.228214 0
M  V30 13053 C 1241.04 2.24213 0.690339 0
M  V30 13054 C 1242.05 1.25197 1.20838 0
M  V30 13055 O 1243.23 1.58026 1.24859 0
M  V30 13056 C 1240.29 2.91384 1.87873 0
M  V30 13057 C 1239.35 4.05761 1.40201 0
M  V30 13058 C 1238.59 4.6972 2.53376 0
M  V30 13059 O 1238.81 4.32687 3.71669 0
M  V30 13060 O 1237.74 5.58587 2.24198 0
M  V30 13061 H 1241.57 3.03383 0.138692 0
M  V30 13062 H 1239.15 1.494 0.00251504 0
M  V30 13063 H 1241.04 3.33758 2.57262 0
M  V30 13064 H 1239.71 2.15168 2.41835 0
M  V30 13065 H 1238.62 3.67943 0.675945 0
M  V30 13066 H 1239.95 4.83739 0.908691 0
M  V30 13067 N 1241.6 -0.0451101 1.57535 0
M  V30 13068 C 1242.85 -0.740209 1.88809 0
M  V30 13069 C 1243.18 -1.75854 0.823956 0
M  V30 13070 O 1242.46 -1.93817 -0.16286 0
M  V30 13071 C 1242.74 -1.42424 3.30737 0
M  V30 13072 C 1242.59 -0.42052 4.4783 0
M  V30 13073 C 1243.91 -2.36241 3.7132 0
M  V30 13074 H 1241.03 -0.267628 0.686691 0
M  V30 13075 H 1243.67 -0.00309149 1.9 0
M  V30 13076 H 1241.82 -2.05254 3.29853 0
M  V30 13077 H 1243.5 0.204625 4.60846 0
M  V30 13078 H 1241.74 0.261739 4.3301 0
M  V30 13079 H 1242.41 -0.937298 5.43984 0
M  V30 13080 H 1244.89 -1.83468 3.73468 0
M  V30 13081 H 1243.76 -2.81091 4.71465 0
M  V30 13082 H 1244.02 -3.2222 3.02699 0
M  V30 13083 N 1243.08 -1.54377 -0.317073 0
M  V30 13084 C 1244.01 -1.8721 -1.39552 0
M  V30 13085 C 1244.99 -0.729483 -1.53664 0
M  V30 13086 O 1246.18 -0.983799 -1.67437 0
M  V30 13087 C 1243.31 -2.1052 -2.76222 0
M  V30 13088 C 1242.26 -3.26366 -2.76892 0
M  V30 13089 C 1241.59 -3.35061 -4.16699 0
M  V30 13090 C 1242.89 -4.63862 -2.40061 0
M  V30 13091 H 1244.58 -2.77532 -1.12323 0
M  V30 13092 H 1242.13 -1.33536 -0.538897 0
M  V30 13093 H 1244.08 -2.32073 -3.51739 0
M  V30 13094 H 1242.81 -1.16953 -3.04942 0
M  V30 13095 H 1241.46 -3.0471 -2.03831 0
M  V30 13096 H 1241.11 -2.39041 -4.4257 0
M  V30 13097 H 1240.81 -4.12923 -4.18053 0
M  V30 13098 H 1242.34 -3.58856 -4.94019 0
M  V30 13099 H 1243.75 -4.85252 -3.05292 0
M  V30 13100 H 1242.15 -5.44321 -2.52655 0
M  V30 13101 H 1243.22 -4.6567 -1.35202 0
M  V30 13102 N 1244.56 0.579466 -1.4656 0
M  V30 13103 C 1245.84 1.33973 -1.42515 0
M  V30 13104 C 1246.22 2.10812 -0.110317 0
M  V30 13105 O 1245.57 2.09679 0.908135 0
M  V30 13106 C 1245.78 2.26301 -2.65686 0
M  V30 13107 C 1247.12 2.88027 -3.1197 0
M  V30 13108 O 1248.15 2.36612 -2.66257 0
M  V30 13109 O 1247.01 3.81423 -3.9138 0
M  V30 13110 H 1244.1 0.602121 -0.566903 0
M  V30 13111 H 1246.65 0.600214 -1.58731 0
M  V30 13112 H 1245.42 1.68973 -3.52936 0
M  V30 13113 H 1245.04 3.07586 -2.51945 0
M  V30 13114 N 1246.04 1.3432 0.824371 0
M  V30 13115 C 1246.97 1.2012 1.94027 0
M  V30 13116 C 1247.95 0.0931808 1.62333 0
M  V30 13117 O 1249.13 0.258069 1.86725 0
M  V30 13118 C 1246.26 0.845628 3.27974 0
M  V30 13119 C 1245.31 1.9632 3.7863 0
M  V30 13120 S 1246.14 3.57642 3.98563 0
M  V30 13121 C 1247.3 3.24124 5.35439 0
M  V30 13122 H 1247.53 2.14579 2.05775 0
M  V30 13123 H 1245.06 1.1933 0.979783 0
M  V30 13124 H 1247.02 0.647266 4.05365 0
M  V30 13125 H 1245.68 -0.0805948 3.13997 0
M  V30 13126 H 1244.87 1.66812 4.75594 0
M  V30 13127 H 1244.48 2.11897 3.08181 0
M  V30 13128 H 1246.77 2.75848 6.188 0
M  V30 13129 H 1247.71 4.20222 5.69929 0
M  V30 13130 H 1248.12 2.60343 5.00881 0
M  V30 13131 N 1247.52 -1.0444 1.18026 0
M  V30 13132 C 1248.75 -1.80971 0.996642 0
M  V30 13133 C 1249.15 -1.83568 -0.458192 0
M  V30 13134 O 1248.5 -1.26713 -1.33002 0
M  V30 13135 C 1248.56 -3.28051 1.47048 0
M  V30 13136 C 1248.22 -3.49122 2.94895 0
M  V30 13137 C 1249.22 -3.40621 3.92777 0
M  V30 13138 C 1246.91 -3.7584 3.33241 0
M  V30 13139 C 1248.9 -3.58535 5.27002 0
M  V30 13140 C 1246.59 -3.93402 4.6763 0
M  V30 13141 C 1247.58 -3.84749 5.6432 0
M  V30 13142 O 1247.27 -4.01813 6.96277 0
M  V30 13143 H 1247 -0.576873 0.352411 0
M  V30 13144 H 1249.56 -1.32542 1.56913 0
M  V30 13145 H 1247.79 -3.77431 0.841609 0
M  V30 13146 H 1249.48 -3.8613 1.25135 0
M  V30 13147 H 1250.24 -3.19948 3.64497 0
M  V30 13148 H 1246.12 -3.81674 2.58545 0
M  V30 13149 H 1249.67 -3.51698 6.02457 0
M  V30 13150 H 1245.56 -4.13568 4.95613 0
M  V30 13151 H 1246.33 -4.18995 7.03126 0
M  V30 13152 N 1248.99 -0.981699 -1.2329 0
M  V30 13153 C 1250.41 -0.688087 -1.73558 0
M  V30 13154 C 1250.76 0.795633 -1.79344 0
M  V30 13155 O 1249.88 1.62227 -1.43218 0
M  V30 13156 C 1250.48 -1.24235 -3.152 0
M  V30 13157 C 1249.04 -0.998356 -3.62918 0
M  V30 13158 C 1248.18 -1.3693 -2.41134 0
M  V30 13159 H 1251.13 -1.15539 -1.08795 0
M  V30 13160 H 1251.15 -0.61541 -3.7549 0
M  V30 13161 H 1250.67 -2.32223 -3.10957 0
M  V30 13162 H 1248.77 0.0653847 -3.72543 0
M  V30 13163 H 1248.88 -1.65385 -4.49649 0
M  V30 13164 H 1247.24 -0.787773 -2.42211 0
M  V30 13165 H 1248.03 -2.45898 -2.39561 0
M  V30 13166 N 1250.47 1.3842 -0.753509 0
M  V30 13167 C 1251.38 2.34252 -0.127811 0
M  V30 13168 C 1252.4 1.59266 0.700743 0
M  V30 13169 O 1253.57 1.9146 0.624914 0
M  V30 13170 C 1250.64 3.38382 0.754886 0
M  V30 13171 C 1249.7 4.2921 -0.0880312 0
M  V30 13172 C 1248.93 5.28367 0.75263 0
M  V30 13173 O 1249.16 5.34537 1.99064 0
M  V30 13174 O 1248.09 6.01656 0.171475 0
M  V30 13175 H 1251.92 2.89454 -0.91925 0
M  V30 13176 H 1249.5 1.40265 -0.514404 0
M  V30 13177 H 1251.38 4.02141 1.25938 0
M  V30 13178 H 1250.06 2.85536 1.52482 0
M  V30 13179 H 1248.97 3.68611 -0.638468 0
M  V30 13180 H 1250.3 4.85311 -0.82062 0
M  V30 13181 N 1251.95 0.502579 1.49372 0
M  V30 13182 C 1253.2 -0.041381 2.02458 0
M  V30 13183 C 1253.53 -1.36848 1.38213 0
M  V30 13184 O 1252.78 -1.89003 0.507568 0
M  V30 13185 C 1253.08 -0.240835 3.56588 0
M  V30 13186 C 1252.75 1.00846 4.39478 0
M  V30 13187 C 1251.41 1.35091 4.61848 0
M  V30 13188 C 1253.76 1.8388 4.87686 0
M  V30 13189 C 1251.09 2.52318 5.29672 0
M  V30 13190 C 1253.44 3.00262 5.56799 0
M  V30 13191 C 1252.1 3.34885 5.77415 0
M  V30 13192 H 1251.37 -0.0151424 0.740845 0
M  V30 13193 H 1254.02 0.663056 1.79655 0
M  V30 13194 H 1252.33 -1.02781 3.78078 0
M  V30 13195 H 1254.02 -0.676194 3.95258 0
M  V30 13196 H 1250.61 0.731719 4.22308 0
M  V30 13197 H 1254.8 1.58738 4.7023 0
M  V30 13198 H 1250.05 2.79379 5.43836 0
M  V30 13199 H 1254.23 3.64927 5.93128 0
M  V30 13200 H 1251.85 4.25824 6.29744 0
M  V30 13201 N 1253.43 -1.55816 0.23648 0
M  V30 13202 C 1254.65 -2.03534 -0.398575 0
M  V30 13203 C 1255.08 -1.11488 -1.51499 0
M  V30 13204 O 1254.44 -0.105848 -1.80991 0
M  V30 13205 C 1254.48 -3.49356 -0.893467 0
M  V30 13206 O 1253.59 -3.60446 -2.00381 0
M  V30 13207 H 1252.93 -0.658102 -0.0883021 0
M  V30 13208 H 1255.46 -2.01417 0.359488 0
M  V30 13209 H 1255.47 -3.89972 -1.19941 0
M  V30 13210 H 1254.14 -4.1583 -0.0764388 0
M  V30 13211 H 1252.72 -3.31723 -1.70336 0
M  V30 13212 N 1254.91 0.036755 -1.57557 0
M  V30 13213 C 1256.18 0.764087 -1.80059 0
M  V30 13214 C 1256.56 1.93983 -0.83269 0
M  V30 13215 O 1255.91 2.28148 0.126815 0
M  V30 13216 C 1256.12 1.20433 -3.27562 0
M  V30 13217 C 1257.47 1.6234 -3.9234 0
M  V30 13218 O 1258.49 1.29911 -3.31665 0
M  V30 13219 O 1257.35 2.22504 -4.99154 0
M  V30 13220 H 1254.45 0.368866 -0.74018 0
M  V30 13221 H 1256.99 0.0141254 -1.69694 0
M  V30 13222 H 1255.76 0.364646 -3.89597 0
M  V30 13223 H 1255.39 2.01454 -3.42786 0
M  V30 13224 N 1256.39 1.54543 0.308881 0
M  V30 13225 C 1257.34 1.81332 1.38212 0
M  V30 13226 C 1258.32 0.670056 1.46284 0
M  V30 13227 O 1259.51 0.930476 1.50569 0
M  V30 13228 C 1256.64 2.05713 2.7484 0
M  V30 13229 C 1255.73 3.26202 2.71023 0
M  V30 13230 N 1256.12 4.46933 2.36822 0
M  V30 13231 C 1254.42 3.28071 3.02135 0
M  V30 13232 C 1255.12 5.28923 2.42106 0
M  V30 13233 N 1254.09 4.66455 2.79143 0
M  V30 13234 H 1257.89 2.72246 1.10722 0
M  V30 13235 H 1255.41 1.53936 0.51743 0
M  V30 13236 H 1257.41 2.23049 3.52214 0
M  V30 13237 H 1256.07 1.16062 3.03249 0
M  V30 13238 H 1257.08 4.73674 2.09413 0
M  V30 13239 H 1253.75 2.48501 3.3549 0
M  V30 13240 H 1255.14 6.35369 2.1853 0
M  V30 13241 N 1257.86 -0.571685 1.46866 0
M  V30 13242 C 1259.11 -1.32948 1.52745 0
M  V30 13243 C 1259.44 -1.93631 0.183694 0
M  V30 13244 O 1258.69 -1.77605 -0.821886 0
M  V30 13245 C 1258.99 -2.47051 2.58264 0
M  V30 13246 C 1258.66 -2.04291 4.01965 0
M  V30 13247 C 1257.32 -1.92345 4.41086 0
M  V30 13248 C 1259.67 -1.71458 4.9219 0
M  V30 13249 C 1257 -1.4584 5.68285 0
M  V30 13250 C 1259.35 -1.26429 6.19837 0
M  V30 13251 C 1258.02 -1.13068 6.57854 0
M  V30 13252 H 1257.29 -0.48649 0.558935 0
M  V30 13253 H 1259.93 -0.642618 1.80396 0
M  V30 13254 H 1258.24 -3.21231 2.24316 0
M  V30 13255 H 1259.94 -3.05254 2.6004 0
M  V30 13256 H 1256.53 -2.14527 3.71047 0
M  V30 13257 H 1260.71 -1.79567 4.62676 0
M  V30 13258 H 1255.97 -1.34148 5.96502 0
M  V30 13259 H 1260.14 -1.00081 6.89171 0
M  V30 13260 H 1257.77 -0.768094 7.5631 0
M  V30 13261 N 1259.34 -1.34755 -0.817236 0
M  V30 13262 C 1260.59 -1.28629 -1.57563 0
M  V30 13263 C 1260.94 0.141015 -1.91883 0
M  V30 13264 O 1260.24 1.08874 -1.57661 0
M  V30 13265 C 1260.43 -2.11611 -2.8802 0
M  V30 13266 C 1260.26 -3.62266 -2.66446 0
M  V30 13267 C 1259.03 -4.3153 -2.62887 0
M  V30 13268 C 1261.23 -4.56145 -2.37564 0
M  V30 13269 N 1259.21 -5.67999 -2.32918 0
M  V30 13270 C 1260.58 -5.80658 -2.17339 0
M  V30 13271 C 1262.63 -4.44999 -2.23339 0
M  V30 13272 C 1261.34 -6.9528 -1.8433 0
M  V30 13273 C 1263.36 -5.5946 -1.91726 0
M  V30 13274 C 1262.73 -6.82995 -1.72329 0
M  V30 13275 H 1258.82 -0.52593 -0.578724 0
M  V30 13276 H 1261.41 -1.69527 -0.957533 0
M  V30 13277 H 1259.58 -1.73 -3.47743 0
M  V30 13278 H 1261.31 -1.97085 -3.53468 0
M  V30 13279 H 1258.07 -3.84029 -2.77162 0
M  V30 13280 H 1258.49 -6.39996 -2.20757 0
M  V30 13281 H 1263.13 -3.50104 -2.37037 0
M  V30 13282 H 1260.85 -7.90152 -1.69369 0
M  V30 13283 H 1264.44 -5.52784 -1.81443 0
M  V30 13284 H 1263.32 -7.70065 -1.48222 0
M  V30 13285 N 1260.82 1.03812 -1.18578 0
M  V30 13286 C 1262.04 1.8124 -1.00831 0
M  V30 13287 C 1262.47 1.82917 0.43853 0
M  V30 13288 O 1261.83 1.24835 1.31476 0
M  V30 13289 C 1261.88 3.24592 -1.57075 0
M  V30 13290 O 1260.98 4.04688 -0.793824 0
M  V30 13291 H 1260.32 0.559846 -0.357028 0
M  V30 13292 H 1262.85 1.30724 -1.57393 0
M  V30 13293 H 1262.86 3.75363 -1.59896 0
M  V30 13294 H 1261.54 3.22686 -2.62387 0
M  V30 13295 H 1260.11 3.63359 -0.838134 0
M  V30 13296 N 1262.3 0.988223 1.22768 0
M  V30 13297 C 1263.52 0.679426 1.95955 0
M  V30 13298 C 1263.95 -0.748483 1.72567 0
M  V30 13299 O 1263.31 -1.51097 1.00197 0
M  V30 13300 C 1263.35 0.985284 3.46878 0
M  V30 13301 O 1262.46 0.0814607 4.1232 0
M  V30 13302 H 1261.8 0.254749 0.613188 0
M  V30 13303 H 1264.33 1.32393 1.55991 0
M  V30 13304 H 1264.34 0.925198 3.97371 0
M  V30 13305 H 1263.01 2.02581 3.63227 0
M  V30 13306 H 1261.59 0.196629 3.72381 0
M  V30 13307 N 1263.78 -1.38018 0.760839 0
M  V30 13308 C 1264.71 -2.32995 0.153557 0
M  V30 13309 C 1265.69 -1.55234 -0.695448 0
M  V30 13310 O 1266.87 -1.8352 -0.635148 0
M  V30 13311 C 1264 -3.39437 -0.734811 0
M  V30 13312 C 1262.96 -4.27998 0.0120287 0
M  V30 13313 C 1262.28 -5.25359 -0.995067 0
M  V30 13314 C 1263.58 -5.08687 1.18468 0
M  V30 13315 H 1265.28 -2.8403 0.946956 0
M  V30 13316 H 1262.82 -1.36562 0.456816 0
M  V30 13317 H 1264.77 -4.0485 -1.16938 0
M  V30 13318 H 1263.5 -2.86901 -1.56061 0
M  V30 13319 H 1262.16 -3.64102 0.427254 0
M  V30 13320 H 1261.81 -4.69108 -1.81512 0
M  V30 13321 H 1261.51 -5.85469 -0.499969 0
M  V30 13322 H 1263.03 -5.93648 -1.4288 0
M  V30 13323 H 1264.44 -5.67299 0.8273 0
M  V30 13324 H 1262.84 -5.78068 1.61112 0
M  V30 13325 H 1263.91 -4.42 1.99409 0
M  V30 13326 N 1265.25 -0.510493 -1.49103 0
M  V30 13327 C 1266.16 0.267176 -2.33074 0
M  V30 13328 C 1267.18 0.958117 -1.45245 0
M  V30 13329 O 1268.36 0.937399 -1.78255 0
M  V30 13330 C 1265.42 1.31212 -3.20911 0
M  V30 13331 C 1264.48 0.633613 -4.24598 0
M  V30 13332 C 1263.71 1.62878 -5.08239 0
M  V30 13333 O 1263.94 2.85958 -4.93543 0
M  V30 13334 O 1262.87 1.17887 -5.90242 0
M  V30 13335 H 1266.7 -0.420384 -3.00776 0
M  V30 13336 H 1264.28 -0.271683 -1.46909 0
M  V30 13337 H 1266.16 1.91647 -3.75299 0
M  V30 13338 H 1264.84 1.98244 -2.55892 0
M  V30 13339 H 1263.75 -0.0107246 -3.74098 0
M  V30 13340 H 1265.08 0.0055777 -4.922 0
M  V30 13341 N 1266.73 1.55688 -0.24474 0
M  V30 13342 C 1267.98 1.98067 0.381081 0
M  V30 13343 C 1268.29 1.13606 1.59227 0
M  V30 13344 O 1269.5 1.45988 2.2891 0
M  V30 13345 C 1267.96 3.52432 0.729385 0
M  V30 13346 C 1267.56 4.45629 -0.460282 0
M  V30 13347 C 1269.31 4.03471 1.31952 0
M  V30 13348 C 1267.21 5.91334 -0.088252 0
M  V30 13349 H 1266.14 0.739699 0.146157 0
M  V30 13350 H 1268.8 1.80235 -0.344615 0
M  V30 13351 H 1267.18 3.65951 1.51315 0
M  V30 13352 H 1268.35 4.43868 -1.23764 0
M  V30 13353 H 1266.67 4.05059 -0.965197 0
M  V30 13354 H 1269.26 5.09849 1.61116 0
M  V30 13355 H 1269.61 3.50691 2.24325 0
M  V30 13356 H 1270.14 3.93269 0.5987 0
M  V30 13357 H 1266.88 6.48147 -0.979069 0
M  V30 13358 H 1266.4 5.96235 0.652947 0
M  V30 13359 H 1268.08 6.46156 0.330324 0
M  V30 13360 N 1268.21 -0.0283989 1.57574 0
M  V30 13361 C 1269.44 -0.730831 1.93563 0
M  V30 13362 C 1269.85 -1.68857 0.844556 0
M  V30 13363 O 1269.21 -1.8162 -0.178971 0
M  V30 13364 C 1269.26 -1.48731 3.29486 0
M  V30 13365 O 1268.98 -0.568017 4.34402 0
M  V30 13366 C 1270.48 -2.28684 3.79761 0
M  V30 13367 H 1267.7 -0.205346 0.638807 0
M  V30 13368 H 1270.25 0.0142728 2.04495 0
M  V30 13369 H 1268.4 -2.18429 3.19949 0
M  V30 13370 H 1268.82 -1.09861 5.12865 0
M  V30 13371 H 1270.29 -2.77157 4.77376 0
M  V30 13372 H 1270.77 -3.10133 3.10989 0
M  V30 13373 H 1271.37 -1.64059 3.92383 0
M  V30 13374 N 1269.69 -1.54705 -0.300681 0
M  V30 13375 C 1270.93 -1.74001 -1.03585 0
M  V30 13376 C 1271.26 -0.525972 -1.87253 0
M  V30 13377 O 1270.52 0.492068 -1.89413 0
M  V30 13378 C 1270.82 -2.98173 -1.97047 0
M  V30 13379 C 1270.48 -4.31948 -1.29352 0
M  V30 13380 C 1269.14 -4.68312 -1.10623 0
M  V30 13381 C 1271.5 -5.14874 -0.809594 0
M  V30 13382 C 1268.82 -5.85181 -0.42185 0
M  V30 13383 C 1271.18 -6.32447 -0.138935 0
M  V30 13384 C 1269.84 -6.67473 0.0603129 0
M  V30 13385 H 1269.11 -0.636716 -0.379044 0
M  V30 13386 H 1271.76 -1.88963 -0.310697 0
M  V30 13387 H 1270.06 -2.77994 -2.76091 0
M  V30 13388 H 1271.76 -3.10297 -2.54001 0
M  V30 13389 H 1268.35 -4.0335 -1.44937 0
M  V30 13390 H 1272.53 -4.87278 -0.942006 0
M  V30 13391 H 1267.79 -6.10862 -0.256494 0
M  V30 13392 H 1271.96 -6.95973 0.243939 0
M  V30 13393 H 1269.59 -7.57887 0.592626 0
M  V30 13394 N 1271.17 0.563888 -1.47167 0
M  V30 13395 C 1272.11 1.69254 -1.59549 0
M  V30 13396 C 1273.11 1.62948 -0.463078 0
M  V30 13397 O 1274.31 1.68214 -0.640639 0
M  V30 13398 H 1270.69 0.559925 -0.501984 0
M  V30 13399 H 1272.66 1.55946 -2.54408 0
M  V30 13400 C 1271.41 3.0762 -1.62066 0
M  V30 13401 H 1270.73 3.13151 -2.48549 0
M  V30 13402 H 1272.17 3.863 -1.74781 0
M  V30 13403 C 1270.63 3.35048 -0.352721 0
M  V30 13404 O 1271.16 3.9793 0.549053 0
M  V30 13405 N 1269.37 2.8965 -0.234805 0
M  V30 13406 H 1268.91 2.38657 -0.969561 0
M  V30 13407 H 1268.87 3.08373 0.61263 0
M  V30 13408 N 1272.64 1.35187 0.810078 0
M  V30 13409 C 1273.57 1.30481 1.93641 0
M  V30 13410 C 1274.56 0.179875 1.69146 0
M  V30 13411 O 1275.74 0.374284 1.90559 0
M  V30 13412 C 1272.87 1.07251 3.30325 0
M  V30 13413 C 1271.82 2.16348 3.69293 0
M  V30 13414 C 1271.15 1.78288 5.04101 0
M  V30 13415 C 1272.45 3.58285 3.80038 0
M  V30 13416 H 1274.14 2.24725 1.97836 0
M  V30 13417 H 1271.69 1.08179 0.950436 0
M  V30 13418 H 1273.64 1.02599 4.08719 0
M  V30 13419 H 1272.37 0.0945203 3.26463 0
M  V30 13420 H 1271.03 2.2009 2.93182 0
M  V30 13421 H 1270.67 0.791163 4.96739 0
M  V30 13422 H 1270.37 2.51315 5.31144 0
M  V30 13423 H 1271.9 1.75155 5.84938 0
M  V30 13424 H 1273.31 3.56884 4.48672 0
M  V30 13425 H 1271.71 4.30044 4.18548 0
M  V30 13426 H 1272.78 3.94691 2.81685 0
M  V30 13427 N 1274.12 -1.03182 1.19127 0
M  V30 13428 C 1275.54 -1.28773 0.942854 0
M  V30 13429 C 1275.74 -1.97759 -0.386483 0
M  V30 13430 O 1274.79 -2.26365 -1.1187 0
M  V30 13431 C 1276.11 -2.13771 2.11476 0
M  V30 13432 C 1277.66 -2.27089 2.15406 0
M  V30 13433 C 1278.13 -3.15458 3.32039 0
M  V30 13434 N 1279.62 -3.23046 3.31957 0
M  V30 13435 C 1280.36 -3.91604 4.18848 0
M  V30 13436 N 1279.85 -4.62418 5.15889 0
M  V30 13437 N 1281.65 -3.87974 4.06734 0
M  V30 13438 H 1273.8 -0.568165 2.0466 0
M  V30 13439 H 1276.06 -0.31328 0.89474 0
M  V30 13440 H 1275.77 -1.704 3.07663 0
M  V30 13441 H 1275.64 -3.14476 2.0829 0
M  V30 13442 H 1278.03 -2.69693 1.19791 0
M  V30 13443 H 1278.11 -1.25945 2.22647 0
M  V30 13444 H 1277.75 -2.73564 4.27931 0
M  V30 13445 H 1277.68 -4.16654 3.22035 0
M  V30 13446 H 1280.17 -2.7261 2.6171 0
M  V30 13447 H 1280.49 -5.12353 5.78545 0
M  V30 13448 H 1278.83 -4.61293 5.1984 0
M  V30 13449 H 1282.02 -3.31789 3.30202 0
M  V30 13450 H 1282.19 -4.4113 4.74666 0
M  V30 13451 N 1275.6 -0.99472 -1.22242 0
M  V30 13452 C 1276.88 -0.587481 -1.86569 0
M  V30 13453 C 1277.26 0.935174 -1.89256 0
M  V30 13454 O 1276.61 1.81787 -1.3844 0
M  V30 13455 C 1276.82 -1.21001 -3.27353 0
M  V30 13456 C 1278.16 -1.31167 -4.03832 0
M  V30 13457 O 1279.19 -1.16454 -3.36626 0
M  V30 13458 O 1278.05 -1.54731 -5.24138 0
M  V30 13459 H 1275.14 -0.199838 -0.802492 0
M  V30 13460 H 1277.69 -1.09071 -1.30006 0
M  V30 13461 H 1276.46 -2.25143 -3.20041 0
M  V30 13462 H 1276.08 -0.692479 -3.91523 0
M  V30 13463 N 1277.08 1.37613 -0.768148 0
M  V30 13464 C 1278.31 2.04052 -0.342111 0
M  V30 13465 C 1278.72 1.57936 1.03449 0
M  V30 13466 O 1278.08 0.758981 1.65969 0
M  V30 13467 C 1278.13 3.5958 -0.372096 0
M  V30 13468 O 1277.85 4.04008 -1.69439 0
M  V30 13469 C 1279.35 4.43251 0.0659884 0
M  V30 13470 H 1276.57 0.655391 -0.143886 0
M  V30 13471 H 1279.12 1.76017 -1.04107 0
M  V30 13472 H 1277.27 3.86399 0.278248 0
M  V30 13473 H 1277.68 4.98511 -1.63054 0
M  V30 13474 H 1279.16 5.52 -0.00614775 0
M  V30 13475 H 1279.64 4.24788 1.11588 0
M  V30 13476 H 1280.24 4.2165 -0.55603 0
M  V30 13477 N 1278.56 0.518393 1.4883 0
M  V30 13478 C 1279.5 -0.264197 2.31095 0
M  V30 13479 C 1280.5 -0.946455 1.40494 0
M  V30 13480 O 1281.7 -0.872161 1.57459 0
M  V30 13481 H 1278.08 -0.104065 0.744765 0
M  V30 13482 H 1280.05 0.449375 2.94997 0
M  V30 13483 C 1278.8 -1.30527 3.2227 0
M  V30 13484 H 1278.12 -0.789695 3.91923 0
M  V30 13485 H 1279.56 -1.82449 3.82738 0
M  V30 13486 C 1278.02 -2.33274 2.43073 0
M  V30 13487 O 1278.55 -3.39493 2.14726 0
M  V30 13488 N 1276.76 -2.06189 2.04779 0
M  V30 13489 H 1276.3 -1.19829 2.28033 0
M  V30 13490 H 1276.26 -2.7516 1.521 0
M  V30 13491 N 1280.03 -1.55556 0.252993 0
M  V30 13492 C 1280.97 -2.17683 -0.684776 0
M  V30 13493 C 1281.95 -1.13077 -1.16843 0
M  V30 13494 O 1283.13 -1.41495 -1.24545 0
M  V30 13495 C 1280.26 -2.78239 -1.93134 0
M  V30 13496 C 1279.3 -3.95953 -1.58504 0
M  V30 13497 S 1280.14 -5.31135 -0.682367 0
M  V30 13498 C 1281.29 -5.95147 -1.93779 0
M  V30 13499 H 1281.52 -2.96886 -0.156823 0
M  V30 13500 H 1279.06 -1.54355 0.0374019 0
M  V30 13501 H 1281.02 -3.13763 -2.64694 0
M  V30 13502 H 1279.68 -1.98971 -2.43042 0
M  V30 13503 H 1278.87 -4.36936 -2.51203 0
M  V30 13504 H 1278.47 -3.61738 -0.949815 0
M  V30 13505 H 1280.76 -6.13035 -2.88435 0
M  V30 13506 H 1281.71 -6.90445 -1.57135 0
M  V30 13507 H 1282.11 -5.24279 -2.09266 0
M  V30 13508 N 1281.51 0.0200419 -1.57587 0
M  V30 13509 C 1282.76 0.708115 -1.88861 0
M  V30 13510 C 1283.07 1.76036 -0.852693 0
M  V30 13511 O 1284.28 2.50165 -1.05497 0
M  V30 13512 C 1282.74 1.31057 -3.3519 0
M  V30 13513 C 1282.34 0.294202 -4.47033 0
M  V30 13514 C 1284.09 1.97799 -3.756 0
M  V30 13515 C 1282 0.905508 -5.84427 0
M  V30 13516 H 1280.93 0.268236 -0.704674 0
M  V30 13517 H 1283.58 -0.0372162 -1.83462 0
M  V30 13518 H 1281.96 2.1059 -3.35362 0
M  V30 13519 H 1283.13 -0.475081 -4.58344 0
M  V30 13520 H 1281.45 -0.271644 -4.15513 0
M  V30 13521 H 1284.04 2.44404 -4.75574 0
M  V30 13522 H 1284.39 2.80004 -3.08064 0
M  V30 13523 H 1284.92 1.25028 -3.77641 0
M  V30 13524 H 1281.66 0.122685 -6.55385 0
M  V30 13525 H 1281.18 1.64442 -5.76818 0
M  V30 13526 H 1282.86 1.41016 -6.31446 0
M  V30 13527 N 1282.99 1.54862 0.292472 0
M  V30 13528 C 1284.4 1.65459 0.864891 0
M  V30 13529 C 1284.75 0.568808 1.87774 0
M  V30 13530 O 1283.88 -0.293107 2.14406 0
M  V30 13531 C 1284.47 2.99939 1.5755 0
M  V30 13532 C 1283.03 3.12628 2.09621 0
M  V30 13533 C 1282.18 2.61179 0.931713 0
M  V30 13534 H 1285.13 1.58549 0.0692679 0
M  V30 13535 H 1285.15 2.91839 2.44152 0
M  V30 13536 H 1284.66 3.78943 0.838088 0
M  V30 13537 H 1282.76 2.3836 2.86383 0
M  V30 13538 H 1282.88 4.18911 2.32488 0
M  V30 13539 H 1281.24 2.17846 1.31967 0
M  V30 13540 H 1282.02 3.42669 0.208121 0
M  V30 13541 N 1284.47 -0.556076 1.47464 0
M  V30 13542 C 1285.72 -1.31061 1.53842 0
M  V30 13543 C 1286.04 -1.93943 0.202806 0
M  V30 13544 O 1285.31 -1.7999 -0.773338 0
M  V30 13545 H 1283.89 -0.486696 0.566689 0
M  V30 13546 H 1286.55 -0.64924 1.83769 0
M  V30 13547 H 1285.65 -2.10354 2.30559 0
M  V30 13548 N 1285.95 -1.35615 -0.802897 0
M  V30 13549 C 1287.17 -1.32377 -1.59659 0
M  V30 13550 C 1287.6 0.0954235 -1.87858 0
M  V30 13551 O 1286.96 1.06336 -1.46842 0
M  V30 13552 C 1287 -2.13972 -2.90256 0
M  V30 13553 O 1286.11 -1.52296 -3.83249 0
M  V30 13554 H 1285.45 -0.453699 -0.484823 0
M  V30 13555 H 1287.98 -1.78708 -0.996217 0
M  V30 13556 H 1287.99 -2.26061 -3.39647 0
M  V30 13557 H 1286.66 -3.17145 -2.69057 0
M  V30 13558 H 1285.24 -1.49068 -3.41809 0
M  V30 13559 N 1287.43 1.02549 -1.19673 0
M  V30 13560 C 1288.84 1.57454 -1.00325 0
M  V30 13561 C 1289.19 1.91136 0.442889 0
M  V30 13562 O 1288.31 1.7126 1.32284 0
M  V30 13563 C 1288.91 2.86091 -1.81486 0
M  V30 13564 C 1287.47 3.37557 -1.6653 0
M  V30 13565 C 1286.61 2.1096 -1.79975 0
M  V30 13566 H 1289.56 0.850364 -1.33994 0
M  V30 13567 H 1289.59 3.5713 -1.31296 0
M  V30 13568 H 1289.1 2.61546 -2.86733 0
M  V30 13569 H 1287.2 3.67083 -0.638834 0
M  V30 13570 H 1287.31 4.1036 -2.47269 0
M  V30 13571 H 1285.68 2.22993 -1.23071 0
M  V30 13572 H 1286.46 1.88852 -2.86688 0
M  V30 13573 N 1288.9 1.00119 1.21713 0
M  V30 13574 C 1290.15 0.680377 1.90303 0
M  V30 13575 C 1290.47 -0.790927 1.7824 0
M  V30 13576 O 1289.74 -1.5676 1.17486 0
M  V30 13577 H 1288.32 0.248665 0.704397 0
M  V30 13578 H 1290.98 1.26948 1.47886 0
M  V30 13579 H 1290.08 0.950188 2.97284 0
M  V30 13580 N 1290.38 -1.37203 0.775435 0
M  V30 13581 C 1291.61 -2.04396 0.351737 0
M  V30 13582 C 1292.03 -1.58099 -1.01913 0
M  V30 13583 O 1291.39 -0.742932 -1.65379 0
M  V30 13584 C 1291.44 -3.58283 0.408105 0
M  V30 13585 O 1290.54 -4.08156 -0.590104 0
M  V30 13586 H 1289.88 -0.646451 0.151647 0
M  V30 13587 H 1292.41 -1.75443 1.05265 0
M  V30 13588 H 1292.42 -4.07127 0.266711 0
M  V30 13589 H 1291.1 -3.91335 1.40819 0
M  V30 13590 H 1289.67 -3.70622 -0.411524 0
M  V30 13591 N 1291.86 -0.526279 -1.48553 0
M  V30 13592 C 1293.09 0.0052277 -2.06899 0
M  V30 13593 C 1293.5 1.2849 -1.38332 0
M  V30 13594 O 1292.86 1.76354 -0.469648 0
M  V30 13595 C 1292.91 0.236709 -3.60724 0
M  V30 13596 O 1292.63 -0.992256 -4.26715 0
M  V30 13597 C 1294.13 0.809014 -4.35855 0
M  V30 13598 H 1291.35 -0.0318426 -0.670244 0
M  V30 13599 H 1293.9 -0.730865 -1.90994 0
M  V30 13600 H 1292.05 0.922842 -3.76248 0
M  V30 13601 H 1292.47 -0.770697 -5.18807 0
M  V30 13602 H 1293.94 0.920428 -5.44272 0
M  V30 13603 H 1294.42 1.81302 -4.00033 0
M  V30 13604 H 1295.02 0.159564 -4.25001 0
M  V30 13605 N 1293.34 1.5542 -0.261239 0
M  V30 13606 C 1294.25 2.25627 0.642625 0
M  V30 13607 C 1295.26 1.27732 1.18155 0
M  V30 13608 O 1296.44 1.60639 1.21479 0
M  V30 13609 C 1293.5 2.95303 1.8165 0
M  V30 13610 C 1292.57 4.08644 1.31563 0
M  V30 13611 C 1291.8 4.74988 2.43355 0
M  V30 13612 O 1292.02 4.40474 3.62407 0
M  V30 13613 O 1290.96 5.63217 2.12299 0
M  V30 13614 H 1294.78 3.03609 0.0743091 0
M  V30 13615 H 1292.37 1.49372 -0.0291754 0
M  V30 13616 H 1294.25 3.3914 2.50125 0
M  V30 13617 H 1292.92 2.2025 2.37217 0
M  V30 13618 H 1291.83 3.69294 0.597746 0
M  V30 13619 H 1293.16 4.85558 0.805878 0
M  V30 13620 N 1294.82 -0.0116844 1.57596 0
M  V30 13621 C 1295.75 -1.00599 2.10718 0
M  V30 13622 C 1296.73 -1.36601 1.01362 0
M  V30 13623 O 1297.91 -1.4518 1.28982 0
M  V30 13624 C 1295.04 -2.30155 2.60089 0
M  V30 13625 C 1294 -2.08347 3.73866 0
M  V30 13626 C 1293.32 -3.43814 4.09507 0
M  V30 13627 C 1294.62 -1.45552 5.01609 0
M  V30 13628 H 1296.32 -0.563721 2.94045 0
M  V30 13629 H 1293.86 -0.269714 1.41452 0
M  V30 13630 H 1295.81 -3.00058 2.95877 0
M  V30 13631 H 1294.54 -2.76473 1.73868 0
M  V30 13632 H 1293.2 -1.40872 3.38453 0
M  V30 13633 H 1292.85 -3.87814 3.20326 0
M  V30 13634 H 1292.55 -3.30043 4.86154 0
M  V30 13635 H 1294.07 -4.15052 4.47844 0
M  V30 13636 H 1295.48 -2.05396 5.35243 0
M  V30 13637 H 1293.88 -1.42304 5.82983 0
M  V30 13638 H 1294.95 -0.423331 4.83049 0
M  V30 13639 N 1296.29 -1.55015 -0.284256 0
M  V30 13640 C 1297.2 -1.90203 -1.37332 0
M  V30 13641 C 1298.22 -0.797994 -1.54622 0
M  V30 13642 O 1299.4 -1.09602 -1.68965 0
M  V30 13643 C 1296.46 -2.15687 -2.71441 0
M  V30 13644 C 1295.52 -3.39313 -2.62993 0
M  V30 13645 C 1294.75 -3.63571 -3.90707 0
M  V30 13646 O 1294.98 -2.90538 -4.9086 0
M  V30 13647 O 1293.91 -4.57102 -3.91589 0
M  V30 13648 H 1297.74 -2.82888 -1.1049 0
M  V30 13649 H 1295.32 -1.41418 -0.481798 0
M  V30 13650 H 1297.2 -2.33553 -3.50758 0
M  V30 13651 H 1295.88 -1.26185 -2.98092 0
M  V30 13652 H 1294.79 -3.26793 -1.82091 0
M  V30 13653 H 1296.12 -4.28997 -2.41293 0
M  V30 13654 N 1297.77 0.548248 -1.47757 0
M  V30 13655 C 1299.02 1.30243 -1.54535 0
M  V30 13656 C 1299.34 1.93832 -0.213089 0
M  V30 13657 O 1298.61 1.80397 0.763782 0
M  V30 13658 H 1297.19 0.483684 -0.569262 0
M  V30 13659 H 1299.85 0.639485 -1.8411 0
M  V30 13660 H 1298.95 2.09128 -2.31672 0
M  V30 13661 N 1299.25 1.36039 0.795694 0
M  V30 13662 C 1300.5 1.29663 1.55023 0
M  V30 13663 C 1300.82 -0.125588 1.94595 0
M  V30 13664 O 1300.09 -1.06447 1.64456 0
M  V30 13665 H 1298.67 0.476962 0.574906 0
M  V30 13666 H 1301.33 1.70265 0.948471 0
M  V30 13667 H 1300.43 1.91982 2.46068 0
M  V30 13668 N 1300.73 -1.01913 1.20215 0
M  V30 13669 C 1301.98 -1.7547 1.01076 0
M  V30 13670 C 1302.3 -1.89045 -0.457404 0
M  V30 13671 O 1301.56 -1.41121 -1.35585 0
M  V30 13672 C 1301.86 -3.17734 1.63646 0
M  V30 13673 C 1301.52 -3.24143 3.13436 0
M  V30 13674 C 1300.19 -3.25599 3.54315 0
M  V30 13675 C 1302.54 -3.22508 4.09436 0
M  V30 13676 C 1299.87 -3.23089 4.89725 0
M  V30 13677 C 1302.22 -3.21539 5.44789 0
M  V30 13678 C 1300.88 -3.21298 5.85085 0
M  V30 13679 H 1300.15 -0.642092 0.369864 0
M  V30 13680 H 1302.8 -1.19547 1.49602 0
M  V30 13681 H 1301.1 -3.76799 1.07375 0
M  V30 13682 H 1302.8 -3.73338 1.46356 0
M  V30 13683 H 1299.39 -3.23743 2.80871 0
M  V30 13684 H 1303.57 -3.20555 3.7889 0
M  V30 13685 H 1298.83 -3.21231 5.20212 0
M  V30 13686 H 1303 -3.19226 6.18924 0
M  V30 13687 H 1300.63 -3.19107 6.89982 0
M  V30 13688 N 1302.21 -1.00763 -1.2118 0
M  V30 13689 C 1303.43 -0.710515 -1.9485 0
M  V30 13690 C 1303.86 0.720934 -1.73736 0
M  V30 13691 O 1303.21 1.49484 -1.02588 0
M  V30 13692 C 1303.26 -1.04035 -3.45267 0
M  V30 13693 O 1302.37 -0.147047 -4.12138 0
M  V30 13694 H 1301.71 -0.264472 -0.609057 0
M  V30 13695 H 1304.24 -1.34858 -1.53865 0
M  V30 13696 H 1304.25 -0.9883 -3.95849 0
M  V30 13697 H 1302.92 -2.08334 -3.59958 0
M  V30 13698 H 1301.5 -0.255847 -3.72021 0
M  V30 13699 N 1303.68 1.3679 -0.7827 0
M  V30 13700 C 1305.1 1.52719 -0.463594 0
M  V30 13701 C 1305.3 1.73827 1.01914 0
M  V30 13702 O 1304.36 1.76591 1.80477 0
M  V30 13703 C 1305.67 2.71709 -1.2882 0
M  V30 13704 C 1307.22 2.85577 -1.2812 0
M  V30 13705 C 1307.69 4.07564 -2.0894 0
M  V30 13706 N 1309.18 4.14697 -2.0635 0
M  V30 13707 C 1309.92 5.08147 -2.65659 0
M  V30 13708 N 1309.41 6.07083 -3.33799 0
M  V30 13709 N 1311.21 5.00712 -2.55429 0
M  V30 13710 H 1303.36 1.21342 -1.74327 0
M  V30 13711 H 1305.62 0.591719 -0.740657 0
M  V30 13712 H 1305.33 2.62612 -2.3394 0
M  V30 13713 H 1305.2 3.65686 -0.924873 0
M  V30 13714 H 1307.59 2.94139 -0.237947 0
M  V30 13715 H 1307.67 1.92528 -1.68424 0
M  V30 13716 H 1307.31 3.99763 -3.13293 0
M  V30 13717 H 1307.24 4.99748 -1.66011 0
M  V30 13718 H 1309.73 3.43856 -1.56752 0
M  V30 13719 H 1310.05 6.74939 -3.764 0
M  V30 13720 H 1308.39 6.07329 -3.379 0
M  V30 13721 H 1311.58 4.22367 -2.01802 0
M  V30 13722 H 1311.76 5.73354 -3.01943 0
M  V30 13723 N 1305.16 0.53415 1.48272 0
M  V30 13724 C 1306.09 -0.263508 2.2768 0
M  V30 13725 C 1307.11 -0.90064 1.35618 0
M  V30 13726 O 1308.3 -0.778379 1.60635 0
M  V30 13727 C 1305.4 -1.38878 3.09138 0
M  V30 13728 C 1304.57 -0.852784 4.29006 0
M  V30 13729 C 1303.63 -1.85969 4.92242 0
M  V30 13730 O 1302.65 -1.41497 5.51332 0
M  V30 13731 N 1303.86 -3.19207 4.84858 0
M  V30 13732 H 1306.62 0.417548 2.96777 0
M  V30 13733 H 1304.18 0.368743 1.57645 0
M  V30 13734 H 1306.17 -2.06062 3.48311 0
M  V30 13735 H 1304.74 -1.97343 2.42434 0
M  V30 13736 H 1303.96 -0.0048227 3.942 0
M  V30 13737 H 1305.25 -0.473634 5.06591 0
M  V30 13738 H 1304.65 -3.58001 4.38009 0
M  V30 13739 H 1303.21 -3.82013 5.28119 0
M  V30 13740 N 1306.64 -1.55279 0.269478 0
M  V30 13741 C 1308.06 -1.59374 -0.0848147 0
M  V30 13742 C 1308.26 -1.2867 -1.55068 0
M  V30 13743 O 1307.31 -1.04486 -2.29867 0
M  V30 13744 C 1308.63 -2.99349 0.284735 0
M  V30 13745 C 1310.17 -3.12147 0.230887 0
M  V30 13746 C 1310.65 -4.54379 0.574795 0
M  V30 13747 N 1312.14 -4.60202 0.526136 0
M  V30 13748 C 1312.87 -5.68273 0.765109 0
M  V30 13749 N 1312.37 -6.84512 1.0684 0
M  V30 13750 N 1314.16 -5.57796 0.694287 0
M  V30 13751 H 1306.31 -1.73503 1.22517 0
M  V30 13752 H 1308.58 -0.808771 0.494564 0
M  V30 13753 H 1308.28 -3.26633 1.30398 0
M  V30 13754 H 1308.16 -3.75309 -0.377199 0
M  V30 13755 H 1310.54 -2.84631 -0.779064 0
M  V30 13756 H 1310.63 -2.38412 0.926998 0
M  V30 13757 H 1310.27 -4.8262 1.58241 0
M  V30 13758 H 1310.2 -5.26406 -0.143044 0
M  V30 13759 H 1312.69 -3.76696 0.301368 0
M  V30 13760 H 1313 -7.62826 1.23757 0
M  V30 13761 H 1311.35 -6.86141 1.10612 0
M  V30 13762 H 1314.54 -4.65862 0.457226 0
M  V30 13763 H 1314.71 -6.41943 0.883913 0
M  V30 13764 N 1308.12 0.00332656 -1.576 0
M  V30 13765 C 1309.07 0.99581 -2.08212 0
M  V30 13766 C 1310.04 1.34342 -0.976804 0
M  V30 13767 O 1311.22 1.44236 -1.24902 0
M  V30 13768 C 1308.36 2.2836 -2.58739 0
M  V30 13769 C 1307.47 1.99531 -3.8316 0
M  V30 13770 C 1306.61 3.22367 -4.222 0
M  V30 13771 C 1305.65 2.89209 -5.39467 0
M  V30 13772 N 1304.78 4.04572 -5.73817 0
M  V30 13773 H 1309.62 0.55727 -2.92743 0
M  V30 13774 H 1307.16 0.263513 -1.4472 0
M  V30 13775 H 1309.12 3.03639 -2.86111 0
M  V30 13776 H 1307.75 2.69889 -1.77087 0
M  V30 13777 H 1306.8 1.14634 -3.62716 0
M  V30 13778 H 1308.11 1.71089 -4.6854 0
M  V30 13779 H 1307.27 4.05994 -4.50837 0
M  V30 13780 H 1306.01 3.53944 -3.35522 0
M  V30 13781 H 1305.01 2.03989 -5.10557 0
M  V30 13782 H 1306.24 2.58883 -6.27819 0
M  V30 13783 H 1304.18 4.36052 -4.90096 0
M  V30 13784 H 1304.1 3.79643 -6.53764 0
M  V30 13785 H 1305.37 4.88998 -6.07043 0
M  V30 13786 N 1309.6 1.55164 0.276031 0
M  V30 13787 C 1311.01 1.46936 0.623061 0
M  V30 13788 C 1311.21 0.680977 1.89644 0
M  V30 13789 O 1310.27 0.198618 2.51718 0
M  V30 13790 C 1311.58 2.91123 0.752839 0
M  V30 13791 C 1313.13 3.01319 0.847093 0
M  V30 13792 C 1313.6 4.46755 1.00867 0
M  V30 13793 N 1315.1 4.5057 1.07427 0
M  V30 13794 C 1315.83 5.60314 1.21804 0
M  V30 13795 N 1315.33 6.7993 1.32919 0
M  V30 13796 N 1317.12 5.4805 1.2489 0
M  V30 13797 H 1309.27 2.04877 -0.560282 0
M  V30 13798 H 1311.53 0.928925 -0.189217 0
M  V30 13799 H 1311.24 3.51521 -0.112333 0
M  V30 13800 H 1311.11 3.39967 1.63408 0
M  V30 13801 H 1313.5 2.41021 1.70274 0
M  V30 13802 H 1313.58 2.55733 -0.0586896 0
M  V30 13803 H 1313.23 5.07655 0.1577 0
M  V30 13804 H 1313.16 4.89995 1.92906 0
M  V30 13805 H 1315.65 3.64404 1.00089 0
M  V30 13806 H 1315.96 7.59319 1.43714 0
M  V30 13807 H 1314.3 6.82747 1.29929 0
M  V30 13808 H 1317.5 4.53542 1.15834 0
M  V30 13809 H 1317.67 6.33621 1.3575 0
M  V30 13810 N 1311.07 -0.540404 1.48045 0
M  V30 13811 C 1312.02 -1.64598 1.61791 0
M  V30 13812 C 1312.99 -1.59595 0.460301 0
M  V30 13813 O 1314.18 -1.78176 0.682482 0
M  V30 13814 C 1311.32 -3.02887 1.65389 0
M  V30 13815 C 1310.43 -3.18202 2.92184 0
M  V30 13816 C 1309.56 -4.46989 2.87009 0
M  V30 13817 C 1308.6 -4.55795 4.08555 0
M  V30 13818 N 1307.74 -5.75958 4.01518 0
M  V30 13819 H 1312.58 -1.52188 2.56208 0
M  V30 13820 H 1310.12 -0.741097 1.27068 0
M  V30 13821 H 1312.08 -3.82988 1.65457 0
M  V30 13822 H 1310.71 -3.14092 0.744703 0
M  V30 13823 H 1309.76 -2.31422 3.01907 0
M  V30 13824 H 1311.07 -3.20571 3.82146 0
M  V30 13825 H 1310.22 -5.35369 2.85421 0
M  V30 13826 H 1308.96 -4.47125 1.94759 0
M  V30 13827 H 1307.97 -3.65824 4.1043 0
M  V30 13828 H 1309.19 -4.57406 5.01953 0
M  V30 13829 H 1307.14 -5.77011 3.12081 0
M  V30 13830 H 1307.06 -5.79777 4.85175 0
M  V30 13831 H 1308.32 -6.66653 4.03972 0
M  V30 13832 N 1312.55 -1.36459 -0.788468 0
M  V30 13833 C 1313.48 -1.33545 -1.91541 0
M  V30 13834 C 1314.46 -0.206762 -1.68839 0
M  V30 13835 O 1315.65 -0.404553 -1.89939 0
M  V30 13836 C 1312.78 -1.12492 -3.28577 0
M  V30 13837 C 1311.73 -2.22196 -3.65805 0
M  V30 13838 C 1311.06 -1.86285 -5.01201 0
M  V30 13839 C 1312.36 -3.64286 -3.7429 0
M  V30 13840 H 1314.05 -2.27844 -1.94236 0
M  V30 13841 H 1311.6 -1.09677 -0.933105 0
M  V30 13842 H 1313.55 -1.09089 -4.07035 0
M  V30 13843 H 1312.28 -0.146446 -3.26272 0
M  V30 13844 H 1310.93 -2.24727 -2.89644 0
M  V30 13845 H 1310.58 -0.87009 -4.95417 0
M  V30 13846 H 1310.28 -2.59734 -5.27079 0
M  V30 13847 H 1311.81 -1.84439 -5.82078 0
M  V30 13848 H 1313.22 -3.63977 -4.42937 0
M  V30 13849 H 1311.62 -4.36648 -4.11653 0
M  V30 13850 H 1312.69 -3.99123 -2.75371 0
M  V30 13851 N 1314.03 1.01274 -1.20754 0
M  V30 13852 C 1315.26 1.7906 -1.04653 0
M  V30 13853 C 1315.68 1.83806 0.399632 0
M  V30 13854 O 1315.04 1.27596 1.28798 0
M  V30 13855 C 1315.09 3.21187 -1.63925 0
M  V30 13856 O 1314.19 4.02913 -0.879486 0
M  V30 13857 H 1313.53 0.552147 -0.368823 0
M  V30 13858 H 1316.06 1.27356 -1.6013 0
M  V30 13859 H 1316.07 3.71887 -1.67822 0
M  V30 13860 H 1314.75 3.17048 -2.69172 0
M  V30 13861 H 1313.32 3.61499 -0.915019 0
M  V30 13862 N 1315.51 1.01404 1.20644 0
M  V30 13863 C 1316.76 0.701909 1.89946 0
M  V30 13864 C 1317.08 -0.768212 1.78686 0
M  V30 13865 O 1316.34 -1.57348 1.16363 0
M  V30 13866 C 1316.64 1.07995 3.40693 0
M  V30 13867 C 1316.3 2.54585 3.72152 0
M  V30 13868 C 1314.97 2.94639 3.80449 0
M  V30 13869 C 1317.32 3.49497 3.86654 0
M  V30 13870 C 1314.65 4.2855 4.00702 0
M  V30 13871 C 1317 4.83093 4.08416 0
M  V30 13872 C 1315.66 5.22857 4.14942 0
M  V30 13873 H 1314.93 0.256847 0.695062 0
M  V30 13874 H 1317.58 1.27415 1.4296 0
M  V30 13875 H 1315.88 0.426089 3.89476 0
M  V30 13876 H 1317.58 0.816176 3.92606 0
M  V30 13877 H 1314.17 2.22548 3.66292 0
M  V30 13878 H 1318.36 3.19713 3.79602 0
M  V30 13879 H 1313.61 4.58916 4.03988 0
M  V30 13880 H 1317.79 5.56565 4.18579 0
M  V30 13881 H 1315.41 6.26634 4.30388 0
M  V30 13882 N 1316.99 -1.36373 0.789944 0
M  V30 13883 C 1318.4 -1.52471 0.471686 0
M  V30 13884 C 1318.6 -1.74365 -1.0099 0
M  V30 13885 O 1317.66 -1.77546 -1.79538 0
M  V30 13886 C 1318.97 -2.71022 1.30259 0
M  V30 13887 C 1320.52 -2.84893 1.29633 0
M  V30 13888 C 1321 -4.0645 2.11098 0
M  V30 13889 N 1322.49 -4.13597 2.08547 0
M  V30 13890 C 1323.22 -5.06731 2.6835 0
M  V30 13891 N 1322.72 -6.05305 3.37013 0
M  V30 13892 N 1324.51 -4.9935 2.58081 0
M  V30 13893 H 1316.66 -1.20416 1.74968 0
M  V30 13894 H 1318.92 -0.587782 0.743785 0
M  V30 13895 H 1318.63 -2.61368 2.35329 0
M  V30 13896 H 1318.5 -3.6519 0.944254 0
M  V30 13897 H 1320.89 -2.94009 0.253542 0
M  V30 13898 H 1320.97 -1.91632 1.69443 0
M  V30 13899 H 1320.62 -3.98096 3.15408 0
M  V30 13900 H 1320.55 -4.98861 1.68659 0
M  V30 13901 H 1323.04 -3.4302 1.58573 0
M  V30 13902 H 1323.35 -6.72934 3.79974 0
M  V30 13903 H 1321.7 -6.05529 3.41116 0
M  V30 13904 H 1324.89 -4.21291 2.04039 0
M  V30 13905 H 1325.06 -5.71745 3.04979 0
M  V30 13906 N 1318.47 -0.542005 -1.47987 0
M  V30 13907 C 1319.88 -0.200691 -1.58333 0
M  V30 13908 C 1320.08 1.29643 -1.54256 0
M  V30 13909 O 1319.14 2.07556 -1.43794 0
M  V30 13910 C 1320.45 -0.813878 -2.89476 0
M  V30 13911 C 1322 -0.783711 -3.0303 0
M  V30 13912 C 1322.47 -1.37569 -4.36851 0
M  V30 13913 N 1323.96 -1.33819 -4.43449 0
M  V30 13914 C 1324.7 -1.76602 -5.45527 0
M  V30 13915 N 1324.2 -2.27169 -6.54497 0
M  V30 13916 N 1325.99 -1.67765 -5.3648 0
M  V30 13917 H 1318.14 -1.51488 -1.4888 0
M  V30 13918 H 1320.4 -0.630835 -0.707638 0
M  V30 13919 H 1320.11 -1.86544 -2.98151 0
M  V30 13920 H 1319.98 -0.297978 -3.76021 0
M  V30 13921 H 1322.37 0.259118 -2.9396 0
M  V30 13922 H 1322.45 -1.33721 -2.18065 0
M  V30 13923 H 1322.09 -2.41751 -4.46675 0
M  V30 13924 H 1322.02 -0.797769 -5.20522 0
M  V30 13925 H 1324.52 -0.968147 -3.65288 0
M  V30 13926 H 1324.83 -2.57777 -7.2854 0
M  V30 13927 H 1323.17 -2.31171 -6.55427 0
M  V30 13928 H 1326.36 -1.28048 -4.50246 0
M  V30 13929 H 1326.54 -2.01426 -6.15899 0
M  V30 13930 N 1319.94 1.55134 -0.277709 0
M  V30 13931 C 1321.36 1.59417 0.0763615 0
M  V30 13932 C 1321.56 1.29491 1.54384 0
M  V30 13933 O 1320.62 1.05703 2.2931 0
M  V30 13934 C 1321.93 2.99194 -0.300607 0
M  V30 13935 C 1323.48 3.1202 -0.247438 0
M  V30 13936 C 1323.95 4.54068 -0.598884 0
M  V30 13937 N 1325.44 4.59917 -0.550534 0
M  V30 13938 C 1326.18 5.67859 -0.795235 0
M  V30 13939 N 1325.67 6.83936 -1.10469 0
M  V30 13940 N 1327.47 5.5742 -0.723859 0
M  V30 13941 H 1319.62 1.72851 -1.23435 0
M  V30 13942 H 1321.88 0.806137 -0.498846 0
M  V30 13943 H 1321.59 3.25937 -1.32129 0
M  V30 13944 H 1321.46 3.75504 0.35729 0
M  V30 13945 H 1323.85 2.8504 0.763959 0
M  V30 13946 H 1323.93 2.37917 -0.939629 0
M  V30 13947 H 1323.57 4.81774 -1.60798 0
M  V30 13948 H 1323.5 5.26474 0.115126 0
M  V30 13949 H 1325.99 3.76531 -0.321341 0
M  V30 13950 H 1326.31 7.62159 -1.278 0
M  V30 13951 H 1324.65 6.85545 -1.14249 0
M  V30 13952 H 1327.84 4.65613 -0.481925 0
M  V30 13953 H 1328.02 6.41465 -0.917944 0
M  V30 13954 N 1321.42 0.00503138 1.57599 0
M  V30 13955 C 1322.65 -0.689609 1.95069 0
M  V30 13956 C 1323.06 -1.67028 0.880183 0
M  V30 13957 O 1322.42 -1.81959 -0.140406 0
M  V30 13958 C 1322.47 -1.41709 3.32567 0
M  V30 13959 O 1322.19 -0.475746 4.35509 0
M  V30 13960 C 1323.69 -2.20578 3.84526 0
M  V30 13961 H 1320.91 -0.19175 0.643019 0
M  V30 13962 H 1323.46 0.057646 2.04419 0
M  V30 13963 H 1321.61 -2.11593 3.2451 0
M  V30 13964 H 1322.03 -0.989573 5.1508 0
M  V30 13965 H 1323.5 -2.66969 4.83148 0
M  V30 13966 H 1323.98 -3.03467 3.17497 0
M  V30 13967 H 1324.58 -1.557 3.95775 0
M  V30 13968 N 1322.9 -1.55308 -0.267798 0
M  V30 13969 C 1324.18 -1.66881 -1.02029 0
M  V30 13970 C 1324.56 -0.538708 -2.04111 0
M  V30 13971 O 1323.9 0.460575 -2.2381 0
M  V30 13972 C 1324.11 -3.06318 -1.67243 0
M  V30 13973 C 1325.46 -3.64237 -2.18212 0
M  V30 13974 O 1326.49 -3.08984 -1.77221 0
M  V30 13975 O 1325.35 -4.61055 -2.93413 0
M  V30 13976 H 1322.44 -0.677967 -0.473593 0
M  V30 13977 H 1324.99 -1.67646 -0.263242 0
M  V30 13978 H 1323.76 -3.80015 -0.932985 0
M  V30 13979 H 1323.38 -3.09475 -2.49622 0
M  V30 13980 N 1324.38 0.532545 -1.4833 0
M  V30 13981 C 1325.32 1.63737 -1.62661 0
M  V30 13982 C 1326.29 1.59348 -0.468758 0
M  V30 13983 O 1327.48 1.77812 -0.691921 0
M  V30 13984 C 1324.62 3.02006 -1.66993 0
M  V30 13985 C 1323.73 3.16648 -2.93867 0
M  V30 13986 C 1322.87 4.4546 -2.89376 0
M  V30 13987 C 1321.91 4.53622 -4.10966 0
M  V30 13988 N 1321.04 5.7382 -4.04567 0
M  V30 13989 H 1325.88 1.50828 -2.57012 0
M  V30 13990 H 1323.42 0.734348 -1.27459 0
M  V30 13991 H 1325.38 3.82105 -1.67486 0
M  V30 13992 H 1324.01 3.13693 -0.76135 0
M  V30 13993 H 1323.06 2.29817 -3.0313 0
M  V30 13994 H 1324.37 3.1854 -3.8384 0
M  V30 13995 H 1323.53 5.33848 -2.88256 0
M  V30 13996 H 1322.27 4.46085 -1.97127 0
M  V30 13997 H 1321.27 3.63642 -4.12364 0
M  V30 13998 H 1322.5 4.54738 -5.04371 0
M  V30 13999 H 1320.44 5.75347 -3.15137 0
M  V30 14000 H 1320.36 5.77196 -4.88243 0
M  V30 14001 H 1321.63 6.64502 -4.07502 0
M  V30 14002 N 1325.86 1.36875 0.78122 0
M  V30 14003 C 1327.13 1.22101 1.52809 0
M  V30 14004 C 1327.51 -0.189402 2.10249 0
M  V30 14005 O 1326.86 -1.19598 1.94701 0
M  V30 14006 C 1327.07 2.30953 2.61652 0
M  V30 14007 C 1328.42 2.68027 3.29313 0
M  V30 14008 O 1329.44 2.30058 2.71941 0
M  V30 14009 O 1328.3 3.33407 4.33015 0
M  V30 14010 H 1325.4 0.4759 0.676349 0
M  V30 14011 H 1327.94 1.48629 0.818998 0
M  V30 14012 H 1326.71 3.25443 2.17261 0
M  V30 14013 H 1326.34 2.05837 3.40172 0
M  V30 14014 N 1327.33 -1.00632 1.21289 0
M  V30 14015 C 1328.56 -1.77967 1.05524 0
M  V30 14016 C 1328.98 -1.84621 -0.395023 0
M  V30 14017 O 1328.33 -1.30664 -1.27409 0
M  V30 14018 C 1328.38 -3.21939 1.64432 0
M  V30 14019 O 1328.11 -3.15669 3.03784 0
M  V30 14020 C 1329.61 -4.1578 1.5376 0
M  V30 14021 H 1326.83 -0.559341 0.370646 0
M  V30 14022 H 1329.37 -1.26604 1.60598 0
M  V30 14023 H 1327.53 -3.70415 1.13453 0
M  V30 14024 H 1327.94 -4.06112 3.31924 0
M  V30 14025 H 1329.41 -5.14602 1.99722 0
M  V30 14026 H 1329.89 -4.36438 0.491811 0
M  V30 14027 H 1330.5 -3.73192 2.0398 0
M  V30 14028 N 1328.81 -1.02043 -1.20104 0
M  V30 14029 C 1329.72 -0.603724 -2.26699 0
M  V30 14030 C 1330.74 0.360558 -1.70223 0
M  V30 14031 O 1331.91 0.220552 -2.00189 0
M  V30 14032 C 1328.98 0.0475988 -3.46667 0
M  V30 14033 C 1328.04 -0.963111 -4.18357 0
M  V30 14034 C 1327.27 -0.342775 -5.32598 0
M  V30 14035 O 1327.5 0.856509 -5.63933 0
M  V30 14036 O 1326.43 -1.06141 -5.92467 0
M  V30 14037 H 1330.26 -1.49125 -2.64566 0
M  V30 14038 H 1327.84 -0.790134 -1.26796 0
M  V30 14039 H 1329.72 0.411177 -4.19389 0
M  V30 14040 H 1328.4 0.909266 -3.10667 0
M  V30 14041 H 1327.3 -1.37813 -3.47791 0
M  V30 14042 H 1328.64 -1.79487 -4.58307 0
M  V30 14043 N 1330.29 1.35952 -0.797165 0
M  V30 14044 C 1331.22 2.28649 -0.15877 0
M  V30 14045 C 1332.24 1.49842 0.636481 0
M  V30 14046 O 1333.42 1.72191 0.47039 0
M  V30 14047 C 1330.52 3.29373 0.797913 0
M  V30 14048 C 1329.7 4.3737 0.0510574 0
M  V30 14049 C 1328.76 5.18009 0.924826 0
M  V30 14050 O 1327.78 5.67935 0.379223 0
M  V30 14051 N 1328.98 5.352 2.24813 0
M  V30 14052 H 1331.75 2.84075 -0.955056 0
M  V30 14053 H 1329.31 1.48201 -0.651767 0
M  V30 14054 H 1331.3 3.80209 1.38646 0
M  V30 14055 H 1329.87 2.74531 1.49504 0
M  V30 14056 H 1329.09 3.87594 -0.718633 0
M  V30 14057 H 1330.38 5.0668 -0.464025 0
M  V30 14058 H 1329.78 4.96266 2.71545 0
M  V30 14059 H 1328.34 5.89252 2.78614 0
M  V30 14060 N 1331.77 0.549846 1.47697 0
M  V30 14061 C 1333.18 0.11453 1.86348 0
M  V30 14062 C 1333.53 -1.31368 1.45729 0
M  V30 14063 O 1332.66 -1.98707 0.856989 0
M  V30 14064 C 1333.25 0.201072 3.38203 0
M  V30 14065 C 1331.81 -0.179162 3.75973 0
M  V30 14066 C 1330.96 0.551951 2.71751 0
M  V30 14067 H 1333.91 0.759989 1.39319 0
M  V30 14068 H 1333.93 -0.582216 3.76019 0
M  V30 14069 H 1333.44 1.24065 3.67736 0
M  V30 14070 H 1331.54 -1.22013 3.52056 0
M  V30 14071 H 1331.65 0.174273 4.78783 0
M  V30 14072 H 1330.02 -0.00411819 2.547 0
M  V30 14073 H 1330.8 1.59254 3.04127 0
M  V30 14074 N 1333.25 -1.54984 0.285932 0
M  V30 14075 C 1334.49 -1.99436 -0.32709 0
M  V30 14076 C 1334.82 -1.17582 -1.55562 0
M  V30 14077 O 1334.09 -0.268002 -1.94058 0
M  V30 14078 H 1332.67 -0.736662 -0.123846 0
M  V30 14079 H 1335.33 -1.90881 0.393774 0
M  V30 14080 H 1334.42 -3.0609 -0.609523 0
M  V30 14081 N 1334.72 -0.0133892 -1.57594 0
M  V30 14082 C 1335.63 0.989701 -2.12702 0
M  V30 14083 C 1336.65 1.36785 -1.07545 0
M  V30 14084 O 1337.83 1.45246 -1.39519 0
M  V30 14085 C 1334.89 2.2586 -2.63036 0
M  V30 14086 C 1333.95 1.94234 -3.82847 0
M  V30 14087 C 1333.19 3.15075 -4.30771 0
M  V30 14088 O 1333.41 4.27212 -3.7795 0
M  V30 14089 O 1332.34 2.98291 -5.22787 0
M  V30 14090 H 1336.17 0.551194 -2.98656 0
M  V30 14091 H 1333.75 0.206264 -1.47969 0
M  V30 14092 H 1335.64 3.0038 -2.9555 0
M  V30 14093 H 1334.31 2.68923 -1.80173 0
M  V30 14094 H 1333.22 1.17148 -3.55285 0
M  V30 14095 H 1334.55 1.55999 -4.66824 0
M  V30 14096 N 1336.2 1.55448 0.259558 0
M  V30 14097 C 1337.45 1.76948 0.990816 0
M  V30 14098 C 1337.78 0.576401 1.85449 0
M  V30 14099 O 1337.06 -0.425693 1.89784 0
M  V30 14100 C 1337.34 3.08221 1.86204 0
M  V30 14101 C 1337.19 4.37909 1.0274 0
M  V30 14102 C 1338.51 3.35627 2.84679 0
M  V30 14103 H 1335.63 0.64377 0.358788 0
M  V30 14104 H 1338.27 1.88182 0.262211 0
M  V30 14105 H 1336.42 2.98775 2.48326 0
M  V30 14106 H 1338.09 4.5933 0.425855 0
M  V30 14107 H 1336.34 4.32533 0.331308 0
M  V30 14108 H 1337.01 5.26116 1.6705 0
M  V30 14109 H 1339.48 3.44954 2.32693 0
M  V30 14110 H 1338.36 4.28719 3.42769 0
M  V30 14111 H 1338.62 2.55921 3.60496 0
M  V30 14112 N 1337.68 -0.524672 1.4861 0
M  V30 14113 C 1338.91 -1.30958 1.60825 0
M  V30 14114 C 1339.33 -1.86142 0.270682 0
M  V30 14115 O 1338.69 -1.64675 -0.758415 0
M  V30 14116 C 1338.74 -2.43252 2.66197 0
M  V30 14117 O 1337.84 -3.4644 2.23725 0
M  V30 14118 H 1337.18 -0.387638 0.539104 0
M  V30 14119 H 1339.71 -0.630755 1.94635 0
M  V30 14120 H 1339.72 -2.89362 2.87635 0
M  V30 14121 H 1338.4 -2.02449 3.63301 0
M  V30 14122 H 1336.97 -3.06413 2.12522 0
M  V30 14123 N 1339.16 -1.37287 -0.77395 0
M  V30 14124 C 1340.12 -1.32699 -1.86878 0
M  V30 14125 C 1341.12 -0.231486 -1.59125 0
M  V30 14126 O 1342.31 -0.487203 -1.67248 0
M  V30 14127 C 1339.44 -1.0609 -3.23972 0
M  V30 14128 H 1340.64 -2.30083 -1.92359 0
M  V30 14129 H 1338.19 -1.22284 -0.973459 0
M  V30 14130 H 1338.92 -0.0922868 -3.24169 0
M  V30 14131 H 1338.71 -1.85383 -3.45508 0
M  V30 14132 H 1340.2 -1.05524 -4.04048 0
M  V30 14133 N 1340.64 0.999871 -1.21821 0
M  V30 14134 C 1341.57 2.10708 -1.00621 0
M  V30 14135 C 1342.55 1.69954 0.0705417 0
M  V30 14136 O 1343.73 1.9399 -0.0903042 0
M  V30 14137 C 1340.86 3.42496 -0.575646 0
M  V30 14138 C 1339.82 3.97068 -1.59754 0
M  V30 14139 C 1339.14 5.24822 -1.02304 0
M  V30 14140 C 1340.44 4.28545 -2.98574 0
M  V30 14141 H 1342.14 2.28701 -1.93226 0
M  V30 14142 H 1339.68 1.09903 -0.930443 0
M  V30 14143 H 1341.64 4.19357 -0.414481 0
M  V30 14144 H 1340.36 3.2431 0.386059 0
M  V30 14145 H 1339.02 3.22332 -1.74636 0
M  V30 14146 H 1338.67 5.02972 -0.0529016 0
M  V30 14147 H 1338.37 5.62299 -1.70567 0
M  V30 14148 H 1339.89 6.04322 -0.873312 0
M  V30 14149 H 1341.3 4.96229 -2.87106 0
M  V30 14150 H 1339.7 4.77178 -3.63897 0
M  V30 14151 H 1340.77 3.36607 -3.49032 0
M  V30 14152 N 1342.11 1.02678 1.19562 0
M  V30 14153 C 1343.36 0.72059 1.88817 0
M  V30 14154 C 1343.68 -0.752942 1.79877 0
M  V30 14155 O 1342.95 -1.54233 1.20785 0
M  V30 14156 H 1341.53 0.26355 0.698964 0
M  V30 14157 H 1344.2 1.30056 1.4516 0
M  V30 14158 H 1343.29 1.01303 2.95202 0
M  V30 14159 N 1343.59 -1.35528 0.804364 0
M  V30 14160 C 1345 -1.81321 0.444933 0
M  V30 14161 C 1345.35 -1.66816 -1.03281 0
M  V30 14162 O 1344.48 -1.19753 -1.80245 0
M  V30 14163 C 1345.07 -3.29199 0.800827 0
M  V30 14164 C 1343.63 -3.73144 0.494026 0
M  V30 14165 C 1342.78 -2.57557 1.02761 0
M  V30 14166 H 1345.73 -1.23537 0.996203 0
M  V30 14167 H 1345.75 -3.80375 0.0975117 0
M  V30 14168 H 1345.26 -3.39725 1.8764 0
M  V30 14169 H 1343.37 -3.68169 -0.572901 0
M  V30 14170 H 1343.48 -4.68005 1.0251 0
M  V30 14171 H 1341.84 -2.50692 0.450048 0
M  V30 14172 H 1342.63 -2.70861 2.10925 0
M  V30 14173 N 1345.07 -0.557671 -1.47404 0
M  V30 14174 C 1346.32 -0.0337216 -2.02072 0
M  V30 14175 C 1346.64 1.32106 -1.43433 0
M  V30 14176 O 1345.91 1.86171 -0.609692 0
M  V30 14177 H 1344.49 -0.00947648 -0.74694 0
M  V30 14178 H 1347.15 -0.727784 -1.80802 0
M  V30 14179 H 1346.25 0.0540331 -3.12053 0
M  V30 14180 N 1346.55 1.54831 -0.294147 0
M  V30 14181 C 1347.97 1.59489 0.0594489 0
M  V30 14182 C 1348.17 1.31121 1.53002 0
M  V30 14183 O 1347.22 1.08129 2.28176 0
M  V30 14184 C 1348.53 2.98858 -0.332323 0
M  V30 14185 C 1350.08 3.1174 -0.280518 0
M  V30 14186 C 1350.56 4.53407 -0.64701 0
M  V30 14187 N 1352.05 4.59307 -0.599284 0
M  V30 14188 C 1352.78 5.66983 -0.85542 0
M  V30 14189 N 1352.28 6.82726 -1.17717 0
M  V30 14190 N 1354.07 5.56621 -0.78294 0
M  V30 14191 H 1346.22 1.71532 -1.25262 0
M  V30 14192 H 1348.49 0.800801 -0.507368 0
M  V30 14193 H 1348.19 3.24517 -1.35578 0
M  V30 14194 H 1348.07 3.75862 0.317443 0
M  V30 14195 H 1350.45 2.85834 0.733683 0
M  V30 14196 H 1350.53 2.36907 -0.96481 0
M  V30 14197 H 1350.18 4.80042 -1.65899 0
M  V30 14198 H 1350.11 5.26567 0.0592796 0
M  V30 14199 H 1352.6 3.76169 -0.361259 0
M  V30 14200 H 1352.91 7.60761 -1.35877 0
M  V30 14201 H 1351.26 6.84295 -1.21513 0
M  V30 14202 H 1354.45 4.65075 -0.531282 0
M  V30 14203 H 1354.62 6.40456 -0.985929 0
M  V30 14204 N 1348.03 0.0217466 1.57585 0
M  V30 14205 C 1348.99 -0.947546 2.08696 0
M  V30 14206 C 1349.99 -1.25879 1.00055 0
M  V30 14207 O 1351.18 -1.20035 1.26242 0
M  V30 14208 C 1348.31 -2.26624 2.54665 0
M  V30 14209 H 1349.51 -0.505016 2.95617 0
M  V30 14210 H 1347.06 -0.226152 1.54655 0
M  V30 14211 H 1347.79 -2.75521 1.71052 0
M  V30 14212 H 1347.58 -2.05347 3.34028 0
M  V30 14213 H 1349.07 -2.96114 2.94459 0
M  V30 14214 N 1349.51 -1.55583 -0.251311 0
M  V30 14215 C 1350.75 -1.76859 -0.978031 0
M  V30 14216 C 1351.07 -0.584924 -1.86021 0
M  V30 14217 O 1350.34 0.399456 -1.91784 0
M  V30 14218 H 1348.92 -0.652252 -0.364111 0
M  V30 14219 H 1351.59 -1.93016 -0.270319 0
M  V30 14220 H 1350.68 -2.67828 -1.60233 0
M  V30 14221 N 1350.98 0.516783 -1.48886 0
M  V30 14222 C 1351.95 1.60226 -1.63891 0
M  V30 14223 C 1352.95 1.52448 -0.511479 0
M  V30 14224 O 1354.14 1.55882 -0.777582 0
M  V30 14225 C 1351.27 2.99867 -1.62151 0
M  V30 14226 H 1352.46 1.48256 -2.60692 0
M  V30 14227 H 1350.01 0.739844 -1.37681 0
M  V30 14228 H 1350.75 3.1733 -0.668764 0
M  V30 14229 H 1350.53 3.0692 -2.44013 0
M  V30 14230 H 1352.02 3.7876 -1.7587 0
M  V30 14231 N 1352.46 1.37696 0.766659 0
M  V30 14232 C 1353.71 1.32922 1.52237 0
M  V30 14233 C 1354.03 -0.0842833 1.94818 0
M  V30 14234 O 1353.3 -1.02934 1.66677 0
M  V30 14235 H 1351.88 0.489049 0.564659 0
M  V30 14236 H 1354.54 1.72238 0.912142 0
M  V30 14237 H 1353.64 1.97158 2.4194 0
M  V30 14238 N 1353.94 -0.993397 1.22349 0
M  V30 14239 C 1355.35 -1.54739 1.04465 0
M  V30 14240 C 1355.7 -1.92243 -0.392057 0
M  V30 14241 O 1354.83 -1.74707 -1.27697 0
M  V30 14242 C 1355.42 -2.81179 1.89007 0
M  V30 14243 C 1353.98 -3.33023 1.75421 0
M  V30 14244 C 1353.13 -2.06114 1.85505 0
M  V30 14245 H 1356.08 -0.814539 1.36202 0
M  V30 14246 H 1356.1 -3.53523 1.40718 0
M  V30 14247 H 1355.61 -2.53851 2.93566 0
M  V30 14248 H 1353.71 -3.6526 0.735935 0
M  V30 14249 H 1353.83 -4.03659 2.58062 0
M  V30 14250 H 1352.19 -2.19651 1.2894 0
M  V30 14251 H 1352.97 -1.81184 2.91594 0
M  V30 14252 N 1355.42 -1.03311 -1.19015 0
M  V30 14253 C 1356.64 -0.751686 -1.93299 0
M  V30 14254 C 1357.07 0.68392 -1.75226 0
M  V30 14255 O 1356.43 1.47274 -1.05736 0
M  V30 14256 C 1356.47 -1.11335 -3.42982 0
M  V30 14257 O 1355.58 -0.234434 -4.11733 0
M  V30 14258 H 1354.92 -0.277331 -0.60331 0
M  V30 14259 H 1357.45 -1.38092 -1.5097 0
M  V30 14260 H 1357.46 -1.07204 -3.93664 0
M  V30 14261 H 1356.13 -2.15922 -3.55458 0
M  V30 14262 H 1354.71 -0.3347 -3.71395 0
M  V30 14263 N 1356.9 1.35099 -0.81154 0
M  V30 14264 C 1358.12 2.03391 -0.405805 0
M  V30 14265 C 1358.55 1.60745 0.97686 0
M  V30 14266 O 1357.9 0.786518 1.63351 0
M  V30 14267 C 1357.95 3.57075 -0.502954 0
M  V30 14268 O 1357.06 4.09577 0.481681 0
M  V30 14269 H 1356.4 0.642203 -0.168733 0
M  V30 14270 H 1358.93 1.72591 -1.0988 0
M  V30 14271 H 1358.94 4.06277 -0.37456 0
M  V30 14272 H 1357.61 3.87463 -1.51145 0
M  V30 14273 H 1356.19 3.71583 0.313115 0
M  V30 14274 N 1358.37 0.56548 1.47106 0
M  V30 14275 C 1359.79 0.225855 1.57994 0
M  V30 14276 C 1359.99 -1.27173 1.56299 0
M  V30 14277 O 1359.05 -2.05242 1.47078 0
M  V30 14278 C 1360.36 0.859829 2.88145 0
M  V30 14279 C 1361.91 0.831821 3.01744 0
M  V30 14280 C 1362.38 1.44502 4.34607 0
M  V30 14281 N 1363.87 1.40857 4.41263 0
M  V30 14282 C 1364.61 1.85258 5.42648 0
M  V30 14283 N 1364.1 2.37553 6.508 0
M  V30 14284 N 1365.9 1.76279 5.33744 0
M  V30 14285 H 1358.05 1.53837 1.46451 0
M  V30 14286 H 1360.31 0.642013 0.697512 0
M  V30 14287 H 1360.02 1.91264 2.95146 0
M  V30 14288 H 1359.89 0.357762 3.755 0
M  V30 14289 H 1362.28 -0.212319 2.94335 0
M  V30 14290 H 1362.36 1.37173 2.1591 0
M  V30 14291 H 1362 2.48827 4.42773 0
M  V30 14292 H 1361.93 0.880479 5.19187 0
M  V30 14293 H 1364.42 1.02614 3.63702 0
M  V30 14294 H 1364.74 2.69335 7.24347 0
M  V30 14295 H 1363.08 2.41569 6.51667 0
M  V30 14296 H 1366.27 1.35195 4.48152 0
M  V30 14297 H 1366.45 2.11199 6.12616 0
M  V30 14298 N 1359.85 -1.54672 0.302354 0
M  V30 14299 C 1361.1 -1.99771 -0.305919 0
M  V30 14300 C 1361.42 -1.19225 -1.54306 0
M  V30 14301 O 1360.69 -0.288569 -1.93763 0
M  V30 14302 H 1359.27 -0.737934 -0.116026 0
M  V30 14303 H 1361.93 -1.90452 0.413997 0
M  V30 14304 H 1361.03 -3.06719 -0.577024 0
M  V30 14305 N 1361.33 -0.0301034 -1.57571 0
M  V30 14306 C 1362.75 0.326296 -1.56229 0
M  V30 14307 C 1362.95 1.72839 -1.03581 0
M  V30 14308 O 1362 2.43088 -0.682979 0
M  V30 14309 C 1363.32 0.174001 -3.00196 0
M  V30 14310 C 1364.86 0.246694 -3.12026 0
M  V30 14311 C 1365.34 0.123177 -4.57834 0
M  V30 14312 N 1366.83 0.180129 -4.6285 0
M  V30 14313 C 1367.56 0.108353 -5.73298 0
M  V30 14314 N 1367.06 -0.0145648 -6.92798 0
M  V30 14315 N 1368.85 0.162411 -5.61865 0
M  V30 14316 H 1361 -0.946945 -1.90123 0
M  V30 14317 H 1363.27 -0.365762 -0.874598 0
M  V30 14318 H 1362.97 -0.791871 -3.42669 0
M  V30 14319 H 1362.85 0.943794 -3.65202 0
M  V30 14320 H 1365.23 1.20303 -2.69465 0
M  V30 14321 H 1365.32 -0.553493 -2.4974 0
M  V30 14322 H 1364.96 -0.82974 -5.01077 0
M  V30 14323 H 1364.89 0.94224 -5.18102 0
M  V30 14324 H 1367.38 0.275236 -3.76896 0
M  V30 14325 H 1367.69 -0.062614 -7.72775 0
M  V30 14326 H 1366.04 -0.0493606 -6.94982 0
M  V30 14327 H 1369.23 0.256847 -4.67395 0
M  V30 14328 H 1369.4 0.103013 -6.47918 0
M  V30 14329 N 1362.81 1.55714 0.243056 0
M  V30 14330 C 1364.22 1.68126 0.811814 0
M  V30 14331 C 1364.57 0.628259 1.85869 0
M  V30 14332 O 1363.7 -0.224747 2.1523 0
M  V30 14333 C 1364.29 3.048 1.47928 0
M  V30 14334 C 1362.85 3.19138 1.99569 0
M  V30 14335 C 1362 2.64011 0.848149 0
M  V30 14336 H 1364.95 1.58689 0.0187918 0
M  V30 14337 H 1364.97 2.99459 2.34743 0
M  V30 14338 H 1364.48 3.81417 0.717106 0
M  V30 14339 H 1362.58 2.4735 2.78655 0
M  V30 14340 H 1362.69 4.26095 2.19043 0
M  V30 14341 H 1361.06 2.21934 1.2497 0
M  V30 14342 H 1361.84 3.43157 0.0989987 0
M  V30 14343 N 1364.29 -0.50888 1.49158 0
M  V30 14344 C 1365.53 -1.261 1.57934 0
M  V30 14345 C 1365.86 -1.93199 0.264405 0
M  V30 14346 O 1365.13 -1.82359 -0.715684 0
M  V30 14347 H 1363.71 -0.468421 0.581886 0
M  V30 14348 H 1366.37 -0.590447 1.85741 0
M  V30 14349 H 1365.46 -2.02913 2.37135 0
M  V30 14350 N 1365.76 -1.381 -0.759346 0
M  V30 14351 C 1367.01 -1.33727 -1.5153 0
M  V30 14352 C 1367.33 0.0739504 -1.9486 0
M  V30 14353 O 1366.6 1.02049 -1.67221 0
M  V30 14354 H 1365.18 -0.492037 -0.562058 0
M  V30 14355 H 1367.85 -1.72719 -0.902995 0
M  V30 14356 H 1366.94 -1.98439 -2.40891 0
M  V30 14357 N 1367.24 0.986894 -1.22875 0
M  V30 14358 C 1368.65 1.54182 -1.05284 0
M  V30 14359 C 1369 1.92448 0.381856 0
M  V30 14360 O 1368.13 1.75381 1.26769 0
M  V30 14361 C 1368.72 2.80173 -1.90496 0
M  V30 14362 C 1367.28 3.32088 -1.77185 0
M  V30 14363 C 1366.43 2.05128 -1.86596 0
M  V30 14364 H 1369.38 0.807304 -1.36632 0
M  V30 14365 H 1369.4 3.52772 -1.42591 0
M  V30 14366 H 1368.91 2.52291 -2.94908 0
M  V30 14367 H 1367.02 3.64864 -0.755295 0
M  V30 14368 H 1367.13 4.02285 -2.60199 0
M  V30 14369 H 1365.49 2.18964 -1.30103 0
M  V30 14370 H 1366.28 1.79635 -2.92551 0
M  V30 14371 N 1368.72 1.0394 1.18466 0
M  V30 14372 C 1369.97 0.752904 1.88952 0
M  V30 14373 C 1370.32 -0.711542 1.78759 0
M  V30 14374 O 1369.61 -1.51248 1.17621 0
M  V30 14375 C 1369.81 1.15198 3.38326 0
M  V30 14376 C 1369.64 2.65367 3.63057 0
M  V30 14377 C 1368.41 3.32495 3.80493 0
M  V30 14378 C 1370.61 3.63586 3.63744 0
M  V30 14379 N 1368.59 4.71659 3.92952 0
M  V30 14380 C 1369.96 4.88417 3.81901 0
M  V30 14381 C 1372.01 3.57234 3.46826 0
M  V30 14382 C 1370.72 6.0766 3.84891 0
M  V30 14383 C 1372.74 4.75903 3.51098 0
M  V30 14384 C 1372.1 5.99553 3.69751 0
M  V30 14385 H 1368.2 0.327542 0.710099 0
M  V30 14386 H 1370.79 1.32883 1.42303 0
M  V30 14387 H 1368.96 0.604141 3.83673 0
M  V30 14388 H 1370.69 0.816625 3.96375 0
M  V30 14389 H 1367.45 2.829 3.79822 0
M  V30 14390 H 1367.87 5.43981 4.03006 0
M  V30 14391 H 1372.51 2.62613 3.31352 0
M  V30 14392 H 1370.23 7.02639 3.99153 0
M  V30 14393 H 1373.82 4.72629 3.39284 0
M  V30 14394 H 1372.7 6.89842 3.72945 0
M  V30 14395 N 1370.2 -1.34667 0.818693 0
M  V30 14396 C 1371.45 -1.98022 0.40396 0
M  V30 14397 C 1371.77 -1.65239 -1.03542 0
M  V30 14398 O 1371.04 -0.94097 -1.71821 0
M  V30 14399 H 1369.62 -0.732517 0.146382 0
M  V30 14400 H 1372.28 -1.64377 1.0472 0
M  V30 14401 H 1371.38 -3.07746 0.519516 0
M  V30 14402 N 1371.68 -0.573274 -1.46804 0
M  V30 14403 C 1372.59 0.168081 -2.33997 0
M  V30 14404 C 1373.6 0.895652 -1.49178 0
M  V30 14405 O 1374.78 0.860951 -1.8207 0
M  V30 14406 C 1371.84 1.17483 -3.26188 0
M  V30 14407 C 1370.9 0.452956 -4.26904 0
M  V30 14408 C 1370.14 1.41175 -5.1469 0
M  V30 14409 O 1370.36 2.64767 -5.05227 0
M  V30 14410 O 1369.29 0.927472 -5.94711 0
M  V30 14411 H 1373.12 -0.547576 -2.98723 0
M  V30 14412 H 1370.71 -0.333747 -1.45624 0
M  V30 14413 H 1372.59 1.75557 -3.8309 0
M  V30 14414 H 1371.26 1.87213 -2.6407 0
M  V30 14415 H 1370.17 -0.169383 -3.73716 0
M  V30 14416 H 1371.5 -0.203186 -4.9178 0
M  V30 14417 N 1373.15 1.5451 -0.310553 0
M  V30 14418 C 1374.38 2.05204 0.301013 0
M  V30 14419 C 1374.8 1.1859 1.46007 0
M  V30 14420 O 1374.16 0.192081 1.8028 0
M  V30 14421 C 1374.21 3.53221 0.725767 0
M  V30 14422 O 1373.31 3.69596 1.82955 0
M  V30 14423 H 1372.66 0.661566 0.0568026 0
M  V30 14424 H 1375.19 1.99473 -0.455178 0
M  V30 14425 H 1375.2 3.9525 1.01198 0
M  V30 14426 H 1373.87 4.15721 -0.122046 0
M  V30 14427 H 1372.45 3.39472 1.54315 0
M  V30 14428 N 1374.63 0.0384594 1.57553 0
M  V30 14429 C 1376.04 -0.499057 1.79906 0
M  V30 14430 C 1376.4 -1.7169 0.949577 0
M  V30 14431 O 1375.52 -2.15788 0.162584 0
M  V30 14432 C 1376.12 -0.912155 3.2629 0
M  V30 14433 C 1374.67 -1.39473 3.49606 0
M  V30 14434 C 1373.82 -0.363859 2.74902 0
M  V30 14435 H 1376.77 0.264433 1.56481 0
M  V30 14436 H 1376.79 -1.77592 3.36513 0
M  V30 14437 H 1376.31 -0.0255928 3.88092 0
M  V30 14438 H 1374.41 -2.3009 2.93068 0
M  V30 14439 H 1374.52 -1.39566 4.58321 0
M  V30 14440 H 1372.88 -0.833993 2.40659 0
M  V30 14441 H 1373.67 0.514398 3.39424 0
M  V30 14442 N 1376.11 -1.55841 -0.234795 0
M  V30 14443 C 1377.34 -1.82649 -0.982547 0
M  V30 14444 C 1377.76 -0.617097 -1.77689 0
M  V30 14445 O 1377.12 0.434022 -1.76028 0
M  V30 14446 C 1377.17 -3.07319 -1.88646 0
M  V30 14447 O 1376.27 -2.85084 -2.97995 0
M  V30 14448 H 1375.61 -0.60257 -0.278936 0
M  V30 14449 H 1378.14 -2.03041 -0.252117 0
M  V30 14450 H 1378.15 -3.37073 -2.29882 0
M  V30 14451 H 1376.83 -3.94978 -1.30251 0
M  V30 14452 H 1375.4 -2.66528 -2.60801 0
M  V30 14453 N 1377.59 0.500963 -1.49426 0
M  V30 14454 C 1378.81 1.28383 -1.62888 0
M  V30 14455 C 1379.24 1.85688 -0.300262 0
M  V30 14456 O 1378.6 1.6586 0.73212 0
M  V30 14457 C 1378.65 2.38987 -2.70033 0
M  V30 14458 O 1377.75 3.42837 -2.29208 0
M  V30 14459 H 1377.09 0.379012 -0.545202 0
M  V30 14460 H 1379.62 0.59971 -1.95613 0
M  V30 14461 H 1379.63 2.84749 -2.92202 0
M  V30 14462 H 1378.31 1.96643 -3.66475 0
M  V30 14463 H 1376.88 3.02993 -2.1737 0
M  V30 14464 N 1379.07 1.38501 0.752011 0
M  V30 14465 C 1380.32 1.34529 1.50819 0
M  V30 14466 C 1380.64 -0.0636155 1.94896 0
M  V30 14467 O 1379.91 -1.01161 1.6776 0
M  V30 14468 H 1378.49 0.49501 0.559441 0
M  V30 14469 H 1381.15 1.73196 0.893822 0
M  V30 14470 H 1380.24 1.99713 2.39835 0
M  V30 14471 N 1380.55 -0.980364 1.23396 0
M  V30 14472 C 1381.96 -1.53622 1.061 0
M  V30 14473 C 1382.31 -1.92648 -0.371645 0
M  V30 14474 O 1381.43 -1.76051 -1.25837 0
M  V30 14475 C 1382.03 -2.79159 1.91979 0
M  V30 14476 C 1380.59 -3.31144 1.78943 0
M  V30 14477 C 1379.73 -2.04135 1.87681 0
M  V30 14478 H 1382.68 -0.800047 1.37058 0
M  V30 14479 H 1382.71 -3.52011 1.4446 0
M  V30 14480 H 1382.22 -2.50723 2.96242 0
M  V30 14481 H 1380.32 -3.64459 0.774634 0
M  V30 14482 H 1380.43 -4.009 2.62329 0
M  V30 14483 H 1378.8 -2.18271 1.31262 0
M  V30 14484 H 1379.58 -1.78081 2.93499 0
M  V30 14485 N 1382.02 -1.04567 -1.17913 0
M  V30 14486 C 1383.25 -0.772146 -1.92491 0
M  V30 14487 C 1383.67 0.665297 -1.75942 0
M  V30 14488 O 1383.03 1.46144 -1.07292 0
M  V30 14489 C 1383.08 -1.14966 -3.41782 0
M  V30 14490 O 1382.18 -0.278091 -4.11461 0
M  V30 14491 H 1381.52 -0.283715 -0.600335 0
M  V30 14492 H 1384.05 -1.39685 -1.49496 0
M  V30 14493 H 1384.06 -1.11374 -3.92505 0
M  V30 14494 H 1382.74 -2.1968 -3.53148 0
M  V30 14495 H 1381.32 -0.374073 -3.71019 0
M  V30 14496 N 1383.5 1.34231 -0.825823 0
M  V30 14497 C 1384.73 2.02949 -0.427354 0
M  V30 14498 C 1385.15 1.61772 0.959755 0
M  V30 14499 O 1384.51 0.803799 1.62508 0
M  V30 14500 C 1384.56 3.56522 -0.540799 0
M  V30 14501 O 1383.66 4.10065 0.438213 0
M  V30 14502 H 1383 0.640378 -0.175535 0
M  V30 14503 H 1385.53 1.71416 -1.11704 0
M  V30 14504 H 1385.54 4.05857 -0.41763 0
M  V30 14505 H 1384.22 3.85839 -1.55246 0
M  V30 14506 H 1382.79 3.71894 0.273687 0
M  V30 14507 N 1384.98 0.581051 1.46498 0
M  V30 14508 C 1386.39 0.154032 1.86064 0
M  V30 14509 C 1386.74 -1.28247 1.48483 0
M  V30 14510 O 1385.87 -1.96845 0.898945 0
M  V30 14511 C 1386.46 0.272764 3.377 0
M  V30 14512 C 1385.02 -0.0993724 3.76269 0
M  V30 14513 C 1384.17 0.60947 2.70519 0
M  V30 14514 H 1387.12 0.78937 1.37676 0
M  V30 14515 H 1387.14 -0.502326 3.7717 0
M  V30 14516 H 1386.65 1.31837 3.65021 0
M  V30 14517 H 1384.75 -1.14517 3.54565 0
M  V30 14518 H 1384.87 0.275791 4.78306 0
M  V30 14519 H 1383.23 0.0499083 2.54651 0
M  V30 14520 H 1384.01 1.65669 3.0068 0
M  V30 14521 N 1386.46 -1.54343 0.318742 0
M  V30 14522 C 1387.37 -2.27856 -0.558442 0
M  V30 14523 C 1388.38 -1.32029 -1.13333 0
M  V30 14524 O 1389.56 -1.65037 -1.15433 0
M  V30 14525 C 1386.62 -3.01842 -1.70565 0
M  V30 14526 C 1385.69 -4.13245 -1.16305 0
M  V30 14527 C 1384.92 -4.83693 -2.25559 0
M  V30 14528 O 1385.14 -4.53621 -3.4581 0
M  V30 14529 O 1384.08 -5.70708 -1.91249 0
M  V30 14530 H 1387.9 -3.03676 0.0384247 0
M  V30 14531 H 1385.49 -1.4916 0.0845936 0
M  V30 14532 H 1387.37 -3.48189 -2.37365 0
M  V30 14533 H 1386.04 -2.28902 -2.28879 0
M  V30 14534 H 1384.95 -3.71258 -0.460274 0
M  V30 14535 H 1386.28 -4.88214 -0.625111 0
M  V30 14536 N 1387.94 -0.0468143 -1.5753 0
M  V30 14537 C 1389.16 0.641161 -1.97241 0
M  V30 14538 C 1389.59 1.6384 -0.92401 0
M  V30 14539 O 1388.94 1.80946 0.113229 0
M  V30 14540 C 1388.99 1.30832 -3.36029 0
M  V30 14541 O 1388.1 2.42394 -3.33645 0
M  V30 14542 H 1387.44 0.167035 -0.642647 0
M  V30 14543 H 1389.97 -0.113921 -2.04283 0
M  V30 14544 H 1389.98 1.66102 -3.72658 0
M  V30 14545 H 1388.65 0.57744 -4.11872 0
M  V30 14546 H 1387.23 2.09104 -3.08756 0
M  V30 14547 N 1389.41 1.55964 0.226527 0
M  V30 14548 C 1390.64 1.83168 0.972846 0
M  V30 14549 C 1391.06 0.626512 1.7736 0
M  V30 14550 O 1390.42 -0.42468 1.76256 0
M  V30 14551 C 1390.47 3.08315 1.87014 0
M  V30 14552 O 1389.57 2.8666 2.96479 0
M  V30 14553 H 1388.92 0.604041 0.275736 0
M  V30 14554 H 1391.45 2.03172 0.241345 0
M  V30 14555 H 1391.46 3.38288 2.28091 0
M  V30 14556 H 1390.13 3.95663 1.28154 0
M  V30 14557 H 1388.71 2.67907 2.59384 0
M  V30 14558 N 1390.89 -0.493031 1.4969 0
M  V30 14559 C 1391.8 -1.61991 1.69694 0
M  V30 14560 C 1392.82 -1.64061 0.579641 0
M  V30 14561 O 1393.99 -1.82335 0.855323 0
M  V30 14562 C 1391.06 -2.98323 1.76648 0
M  V30 14563 C 1390.12 -3.06816 3.00271 0
M  V30 14564 C 1389.35 -4.36644 3.06883 0
M  V30 14565 O 1389.58 -5.25901 2.20872 0
M  V30 14566 O 1388.51 -4.50275 3.99419 0
M  V30 14567 H 1392.34 -1.48042 2.65174 0
M  V30 14568 H 1389.92 -0.670182 1.33525 0
M  V30 14569 H 1391.8 -3.79335 1.83529 0
M  V30 14570 H 1390.48 -3.12517 0.843482 0
M  V30 14571 H 1389.39 -2.24962 2.98903 0
M  V30 14572 H 1390.72 -2.97551 3.92077 0
M  V30 14573 N 1392.37 -1.38898 -0.744656 0
M  V30 14574 C 1393.65 -1.2611 -1.49518 0
M  V30 14575 C 1394.03 0.133592 -2.10677 0
M  V30 14576 O 1393.38 1.14394 -1.97804 0
M  V30 14577 C 1393.59 -2.37809 -2.55437 0
M  V30 14578 C 1394.93 -2.76664 -3.22091 0
M  V30 14579 O 1395.96 -2.37187 -2.65746 0
M  V30 14580 O 1394.82 -3.44771 -4.24023 0
M  V30 14581 H 1391.91 -0.493664 -0.663494 0
M  V30 14582 H 1394.46 -1.50748 -0.779304 0
M  V30 14583 H 1393.23 -3.31089 -2.08556 0
M  V30 14584 H 1392.85 -2.14783 -3.34595 0
M  V30 14585 N 1393.85 0.973806 -1.23914 0
M  V30 14586 C 1394.76 2.10138 -1.04304 0
M  V30 14587 C 1395.77 1.73994 0.0143888 0
M  V30 14588 O 1396.95 2.00572 -0.182481 0
M  V30 14589 C 1394.02 3.40673 -0.643639 0
M  V30 14590 C 1393.08 3.90802 -1.77686 0
M  V30 14591 C 1392.31 5.15108 -1.39642 0
M  V30 14592 O 1392.53 5.69695 -0.283546 0
M  V30 14593 O 1391.47 5.59468 -2.21988 0
M  V30 14594 H 1395.29 2.29574 -1.9882 0
M  V30 14595 H 1392.88 1.08524 -1.02679 0
M  V30 14596 H 1394.76 4.19178 -0.432145 0
M  V30 14597 H 1393.43 3.22551 0.272458 0
M  V30 14598 H 1392.34 3.13385 -2.04305 0
M  V30 14599 H 1393.67 4.1339 -2.67151 0
M  V30 14600 N 1395.33 1.05191 1.17357 0
M  V30 14601 C 1396.57 0.760479 1.87246 0
M  V30 14602 C 1396.9 -0.714618 1.81434 0
M  V30 14603 O 1396.17 -1.51636 1.24029 0
M  V30 14604 H 1394.75 0.278317 0.693216 0
M  V30 14605 H 1397.41 1.33106 1.42369 0
M  V30 14606 H 1396.5 1.07542 2.92987 0
M  V30 14607 N 1396.8 -1.33791 0.83293 0
M  V30 14608 C 1398.22 -1.80336 0.483294 0
M  V30 14609 C 1398.57 -1.68969 -0.997195 0
M  V30 14610 O 1397.69 -1.23549 -1.77664 0
M  V30 14611 C 1398.29 -3.27427 0.870475 0
M  V30 14612 C 1396.85 -3.72012 0.573064 0
M  V30 14613 C 1395.99 -2.55319 1.08201 0
M  V30 14614 H 1398.94 -1.21396 1.02218 0
M  V30 14615 H 1398.96 -3.80083 0.178173 0
M  V30 14616 H 1398.48 -3.35668 1.94804 0
M  V30 14617 H 1396.58 -3.69302 -0.494678 0
M  V30 14618 H 1396.69 -4.65725 1.12414 0
M  V30 14619 H 1395.05 -2.49681 0.503123 0
M  V30 14620 H 1395.84 -2.66326 2.16623 0
M  V30 14621 N 1398.28 -0.588812 -1.46187 0
M  V30 14622 C 1399.53 -0.0765765 -2.01955 0
M  V30 14623 C 1399.85 1.29034 -1.46203 0
M  V30 14624 O 1399.12 1.84836 -0.649044 0
M  V30 14625 H 1397.7 -0.025318 -0.746571 0
M  V30 14626 H 1400.36 -0.765971 -1.79217 0
M  V30 14627 H 1399.46 -0.0121702 -3.12098 0
M  V30 14628 N 1399.76 1.54172 -0.326923 0
M  V30 14629 C 1401.18 1.59579 0.0256055 0
M  V30 14630 C 1401.38 1.34337 1.50186 0
M  V30 14631 O 1400.43 1.12945 2.25831 0
M  V30 14632 C 1401.75 2.98086 -0.395641 0
M  V30 14633 C 1403.29 3.11075 -0.346579 0
M  V30 14634 C 1403.77 4.51932 -0.743039 0
M  V30 14635 N 1405.26 4.57932 -0.696575 0
M  V30 14636 C 1405.99 5.65041 -0.975493 0
M  V30 14637 N 1405.49 6.80075 -1.32172 0
M  V30 14638 N 1407.28 5.54835 -0.900831 0
M  V30 14639 H 1399.43 1.68836 -1.28872 0
M  V30 14640 H 1401.7 0.789858 -0.52424 0
M  V30 14641 H 1401.4 3.21568 -1.42431 0
M  V30 14642 H 1401.28 3.76451 0.237645 0
M  V30 14643 H 1403.66 2.87326 0.672889 0
M  V30 14644 H 1403.75 2.34807 -1.01484 0
M  V30 14645 H 1403.39 4.76415 -1.76044 0
M  V30 14646 H 1403.32 5.26574 -0.0524263 0
M  V30 14647 H 1405.81 3.75318 -0.440969 0
M  V30 14648 H 1406.12 7.57708 -1.51983 0
M  V30 14649 H 1404.47 6.81563 -1.36001 0
M  V30 14650 H 1407.66 4.63844 -0.629812 0
M  V30 14651 H 1407.83 6.3822 -1.12156 0
M  V30 14652 N 1401.24 0.0551678 1.57503 0
M  V30 14653 C 1402.46 -0.630692 1.97578 0
M  V30 14654 C 1402.89 -1.63348 0.932686 0
M  V30 14655 O 1402.25 -1.81004 -0.103632 0
M  V30 14656 C 1402.29 -1.29049 3.36718 0
M  V30 14657 O 1401.4 -2.40621 3.34926 0
M  V30 14658 H 1400.74 -0.163625 0.643524 0
M  V30 14659 H 1403.27 0.124753 2.04219 0
M  V30 14660 H 1403.28 -1.64124 3.73534 0
M  V30 14661 H 1401.95 -0.55559 4.12172 0
M  V30 14662 H 1400.53 -2.07463 3.0986 0
M  V30 14663 N 1402.72 -1.56081 -0.218252 0
M  V30 14664 C 1403.94 -1.83681 -0.963119 0
M  V30 14665 C 1404.37 -0.635909 -1.77025 0
M  V30 14666 O 1403.72 0.415327 -1.76479 0
M  V30 14667 C 1403.77 -3.09302 -1.85376 0
M  V30 14668 O 1402.88 -2.88228 -2.94955 0
M  V30 14669 H 1402.22 -0.605495 -0.272529 0
M  V30 14670 H 1404.75 -2.03297 -0.230567 0
M  V30 14671 H 1404.76 -3.39493 -2.26294 0
M  V30 14672 H 1403.43 -3.96337 -1.26054 0
M  V30 14673 H 1402.01 -2.69279 -2.57959 0
M  V30 14674 N 1404.2 0.485086 -1.49949 0
M  V30 14675 C 1405.42 1.26648 -1.64241 0
M  V30 14676 C 1405.85 1.85359 -0.319939 0
M  V30 14677 O 1405.2 1.66628 0.714487 0
M  V30 14678 C 1405.25 2.36109 -2.72552 0
M  V30 14679 O 1404.36 3.40387 -2.32832 0
M  V30 14680 H 1403.7 0.373208 -0.549192 0
M  V30 14681 H 1406.23 0.578929 -1.96239 0
M  V30 14682 H 1406.24 2.81634 -2.95205 0
M  V30 14683 H 1404.91 1.92745 -3.6854 0
M  V30 14684 H 1403.49 3.0067 -2.20571 0
M  V30 14685 N 1405.67 1.39291 0.737279 0
M  V30 14686 C 1407.08 1.32489 1.31543 0
M  V30 14687 C 1407.44 -0.0118162 1.96196 0
M  V30 14688 O 1406.56 -0.913938 1.96153 0
M  V30 14689 C 1407.16 2.39946 2.39189 0
M  V30 14690 C 1405.71 2.36671 2.92684 0
M  V30 14691 C 1404.86 2.21953 1.66229 0
M  V30 14692 H 1407.81 1.49412 0.534954 0
M  V30 14693 H 1407.83 2.06603 3.19524 0
M  V30 14694 H 1407.35 3.3722 1.92104 0
M  V30 14695 H 1405.45 1.43028 3.44055 0
M  V30 14696 H 1405.56 3.31441 3.45953 0
M  V30 14697 H 1403.92 1.69087 1.90478 0
M  V30 14698 H 1404.71 3.21194 1.21199 0
M  V30 14699 N 1407.15 -0.967221 1.24429 0
M  V30 14700 C 1408.08 -2.07966 1.06172 0
M  V30 14701 C 1409.06 -1.70081 -0.0254566 0
M  V30 14702 O 1410.25 -1.93682 0.141705 0
M  V30 14703 C 1407.38 -3.4085 0.666251 0
M  V30 14704 C 1406.33 -3.92692 1.70225 0
M  V30 14705 C 1405.66 -5.21925 1.16183 0
M  V30 14706 C 1406.96 -4.20478 3.09831 0
M  V30 14707 H 1408.65 -2.23497 1.99222 0
M  V30 14708 H 1406.2 -1.07398 0.959255 0
M  V30 14709 H 1408.15 -4.1811 0.52552 0
M  V30 14710 H 1406.87 -3.2522 -0.299939 0
M  V30 14711 H 1405.53 -3.17588 1.83121 0
M  V30 14712 H 1405.18 -5.02655 0.186237 0
M  V30 14713 H 1404.88 -5.57579 1.85416 0
M  V30 14714 H 1406.41 -6.01795 1.03323 0
M  V30 14715 H 1407.82 -4.88442 3.00162 0
M  V30 14716 H 1406.22 -4.67362 3.7642 0
M  V30 14717 H 1407.29 -3.27235 3.57834 0
M  V30 14718 N 1408.63 -1.05812 -1.16797 0
M  V30 14719 C 1410.05 -0.780649 -1.39205 0
M  V30 14720 C 1410.25 0.622191 -1.91653 0
M  V30 14721 O 1409.3 1.38357 -2.11219 0
M  V30 14722 C 1410.61 -1.84148 -2.37718 0
M  V30 14723 C 1412.16 -1.86442 -2.51413 0
M  V30 14724 C 1412.64 -2.91566 -3.53204 0
M  V30 14725 N 1414.13 -2.90568 -3.60727 0
M  V30 14726 C 1414.86 -3.68556 -4.39265 0
M  V30 14727 N 1414.36 -4.56348 -5.21266 0
M  V30 14728 N 1416.15 -3.56969 -4.342 0
M  V30 14729 H 1408.3 -1.96313 -0.810871 0
M  V30 14730 H 1410.57 -0.850421 -0.418913 0
M  V30 14731 H 1410.27 -2.84864 -2.06265 0
M  V30 14732 H 1410.15 -1.68838 -3.37303 0
M  V30 14733 H 1412.53 -0.863873 -2.82172 0
M  V30 14734 H 1412.61 -2.0583 -1.5188 0
M  V30 14735 H 1412.26 -3.91811 -3.23182 0
M  V30 14736 H 1412.19 -2.69429 -4.52455 0
M  V30 14737 H 1414.68 -2.26918 -3.02186 0
M  V30 14738 H 1414.99 -5.12523 -5.78394 0
M  V30 14739 H 1413.34 -4.60406 -5.20626 0
M  V30 14740 H 1416.53 -2.87772 -3.69195 0
M  V30 14741 H 1416.7 -4.17993 -4.95162 0
M  V30 14742 N 1410.11 1.33347 -0.840014 0
M  V30 14743 C 1411.04 2.31703 -0.289138 0
M  V30 14744 C 1412.02 1.59024 0.603759 0
M  V30 14745 O 1413.2 1.86911 0.527071 0
M  V30 14746 C 1410.33 3.43144 0.53566 0
M  V30 14747 C 1409.29 4.272 -0.261544 0
M  V30 14748 C 1408.61 5.30267 0.687075 0
M  V30 14749 C 1409.91 5.00915 -1.47924 0
M  V30 14750 H 1411.61 2.78026 -1.11094 0
M  V30 14751 H 1409.15 1.33666 -0.535658 0
M  V30 14752 H 1411.11 4.10979 0.931351 0
M  V30 14753 H 1409.83 2.95512 1.39069 0
M  V30 14754 H 1408.49 3.60991 -0.638809 0
M  V30 14755 H 1408.14 4.78893 1.53853 0
M  V30 14756 H 1407.84 5.87388 0.157773 0
M  V30 14757 H 1409.36 6.00968 1.08026 0
M  V30 14758 H 1410.78 5.61511 -1.15664 0
M  V30 14759 H 1409.17 5.67692 -1.94541 0
M  V30 14760 H 1410.24 4.29622 -2.24839 0
M  V30 14761 N 1411.59 0.596556 1.45873 0
M  V30 14762 C 1412.83 0.0875879 2.02611 0
M  V30 14763 C 1413.16 -1.27438 1.46538 0
M  V30 14764 O 1412.44 -1.83815 0.635779 0
M  V30 14765 C 1412.72 0.0367394 3.60081 0
M  V30 14766 C 1412.58 1.42859 4.26511 0
M  V30 14767 C 1413.89 -0.656795 4.35171 0
M  V30 14768 H 1411.01 0.0333031 0.736247 0
M  V30 14769 H 1413.66 0.766413 1.73857 0
M  V30 14770 H 1411.81 -0.541345 3.8471 0
M  V30 14771 H 1413.48 2.0529 4.13102 0
M  V30 14772 H 1411.72 1.99243 3.85337 0
M  V30 14773 H 1412.39 1.34535 5.35354 0
M  V30 14774 H 1414.87 -0.165553 4.15771 0
M  V30 14775 H 1413.74 -0.661445 5.449 0
M  V30 14776 H 1414 -1.72079 4.07236 0
M  V30 14777 N 1413.06 -1.53996 0.335095 0
M  V30 14778 C 1414.47 -1.86092 -0.15058 0
M  V30 14779 C 1414.83 -1.25652 -1.50685 0
M  V30 14780 O 1413.95 -0.566887 -2.08843 0
M  V30 14781 C 1414.55 -3.37641 -0.280007 0
M  V30 14782 C 1413.1 -3.69645 -0.709907 0
M  V30 14783 C 1412.25 -2.7683 0.161461 0
M  V30 14784 H 1415.2 -1.4868 0.554986 0
M  V30 14785 H 1415.22 -3.63981 -1.10896 0
M  V30 14786 H 1414.74 -3.81601 0.707254 0
M  V30 14787 H 1412.84 -3.31224 -1.7065 0
M  V30 14788 H 1412.95 -4.76424 -0.505661 0
M  V30 14789 H 1411.31 -2.52073 -0.364849 0
M  V30 14790 H 1412.1 -3.23618 1.1457 0
M  V30 14791 N 1414.54 -0.0635198 -1.57472 0
M  V30 14792 C 1415.79 0.607484 -1.93173 0
M  V30 14793 C 1416.12 1.70117 -0.942897 0
M  V30 14794 O 1415.37 1.95653 0.042832 0
M  V30 14795 C 1415.67 1.23117 -3.35525 0
M  V30 14796 C 1415.34 0.264457 -4.50124 0
M  V30 14797 C 1414 -0.00151762 -4.812 0
M  V30 14798 C 1416.35 -0.39737 -5.19683 0
M  V30 14799 C 1413.68 -0.936547 -5.79177 0
M  V30 14800 C 1416.03 -1.32067 -6.18661 0
M  V30 14801 C 1414.69 -1.59519 -6.48159 0
M  V30 14802 H 1413.96 0.222294 -0.706871 0
M  V30 14803 H 1416.61 -0.132633 -1.9104 0
M  V30 14804 H 1414.92 2.04684 -3.34084 0
M  V30 14805 H 1416.61 1.7575 -3.60434 0
M  V30 14806 H 1413.2 0.481945 -4.25882 0
M  V30 14807 H 1417.39 -0.20499 -4.95876 0
M  V30 14808 H 1412.64 -1.15658 -6.00361 0
M  V30 14809 H 1416.82 -1.83949 -6.71666 0
M  V30 14810 H 1414.44 -2.32134 -7.23891 0
M  V30 14811 N 1416.02 1.56195 0.209972 0
M  V30 14812 C 1417.24 1.84189 0.953364 0
M  V30 14813 C 1417.67 0.645288 1.76685 0
M  V30 14814 O 1417.03 -0.405962 1.76696 0
M  V30 14815 C 1417.08 3.10281 1.83733 0
M  V30 14816 O 1416.18 2.89788 2.93422 0
M  V30 14817 H 1415.52 0.606931 0.269314 0
M  V30 14818 H 1418.05 2.03416 0.219783 0
M  V30 14819 H 1418.06 3.40688 2.2449 0
M  V30 14820 H 1416.74 3.97 1.23951 0
M  V30 14821 H 1415.31 2.70643 2.56528 0
M  V30 14822 N 1417.5 -0.477127 1.50204 0
M  V30 14823 C 1418.72 -1.25775 1.6491 0
M  V30 14824 C 1419.15 -1.85187 0.329765 0
M  V30 14825 O 1418.51 -1.67004 -0.705641 0
M  V30 14826 C 1418.55 -2.3466 2.73801 0
M  V30 14827 O 1417.66 -3.39147 2.34634 0
M  V30 14828 H 1417 -0.370291 0.551163 0
M  V30 14829 H 1419.53 -0.568514 1.96543 0
M  V30 14830 H 1419.54 -2.80065 2.96695 0
M  V30 14831 H 1418.21 -1.90788 3.69557 0
M  V30 14832 H 1416.79 -2.99496 2.22163 0
M  V30 14833 N 1418.98 -1.3968 -0.729882 0
M  V30 14834 C 1420.39 -1.33184 -1.30839 0
M  V30 14835 C 1420.74 0.00141129 -1.962 0
M  V30 14836 O 1419.86 0.903523 -1.96635 0
M  V30 14837 C 1420.46 -2.41211 -2.37913 0
M  V30 14838 C 1419.02 -2.3822 -2.91424 0
M  V30 14839 C 1418.16 -2.22832 -1.65049 0
M  V30 14840 H 1421.12 -1.49694 -0.527023 0
M  V30 14841 H 1421.14 -2.08294 -3.18424 0
M  V30 14842 H 1420.65 -3.38234 -1.90313 0
M  V30 14843 H 1418.75 -1.4485 -3.43292 0
M  V30 14844 H 1418.86 -3.33271 -3.44191 0
M  V30 14845 H 1417.23 -1.70095 -1.89578 0
M  V30 14846 H 1418.01 -3.21832 -1.19494 0
M  V30 14847 N 1420.45 0.960609 -1.2494 0
M  V30 14848 C 1421.87 1.23057 -1.01633 0
M  V30 14849 C 1422.07 1.99676 0.270527 0
M  V30 14850 O 1421.13 2.32503 0.984823 0
M  V30 14851 C 1422.44 2.01078 -2.2358 0
M  V30 14852 C 1423.99 2.14144 -2.28279 0
M  V30 14853 C 1424.46 2.95563 -3.49867 0
M  V30 14854 N 1425.95 3.03143 -3.50227 0
M  V30 14855 C 1426.69 3.66518 -4.40967 0
M  V30 14856 N 1426.18 4.31553 -5.41972 0
M  V30 14857 N 1427.98 3.636 -4.28663 0
M  V30 14858 H 1420.13 0.447876 -2.07624 0
M  V30 14859 H 1422.39 0.260581 -0.911483 0
M  V30 14860 H 1422.1 1.52172 -3.17075 0
M  V30 14861 H 1421.97 3.01797 -2.2627 0
M  V30 14862 H 1424.36 2.6225 -1.35311 0
M  V30 14863 H 1424.44 1.1275 -2.29611 0
M  V30 14864 H 1424.08 2.48149 -4.43153 0
M  V30 14865 H 1424.01 3.9717 -3.45779 0
M  V30 14866 H 1426.5 2.56888 -2.77159 0
M  V30 14867 H 1426.82 4.7775 -6.07433 0
M  V30 14868 H 1425.16 4.302 -5.45851 0
M  V30 14869 H 1428.35 3.11973 -3.48985 0
M  V30 14870 H 1428.53 4.12706 -4.99578 0
M  V30 14871 N 1421.93 1.0643 1.16234 0
M  V30 14872 C 1423.34 0.806012 1.68405 0
M  V30 14873 C 1423.69 -0.670197 1.84398 0
M  V30 14874 O 1422.82 -1.51975 1.54054 0
M  V30 14875 C 1423.41 1.45654 3.05893 0
M  V30 14876 C 1421.97 1.24599 3.55179 0
M  V30 14877 C 1421.12 1.53216 2.31128 0
M  V30 14878 H 1424.07 1.22759 1.00578 0
M  V30 14879 H 1424.09 0.872616 3.70359 0
M  V30 14880 H 1423.6 2.53092 2.94221 0
M  V30 14881 H 1421.71 0.191407 3.72108 0
M  V30 14882 H 1421.82 1.95967 4.37188 0
M  V30 14883 H 1420.18 0.952755 2.36209 0
M  V30 14884 H 1420.97 2.61816 2.22052 0
M  V30 14885 N 1423.41 -1.329 0.847073 0
M  V30 14886 C 1424.82 -1.79813 0.502394 0
M  V30 14887 C 1425.17 -1.70017 -0.979218 0
M  V30 14888 O 1424.3 -1.25427 -1.76344 0
M  V30 14889 C 1424.89 -3.26485 0.905154 0
M  V30 14890 C 1423.45 -3.71383 0.612489 0
M  V30 14891 C 1422.6 -2.54157 1.10903 0
M  V30 14892 H 1425.55 -1.20306 1.035 0
M  V30 14893 H 1425.57 -3.79872 0.218476 0
M  V30 14894 H 1425.08 -3.33583 1.98353 0
M  V30 14895 H 1423.18 -3.69806 -0.45548 0
M  V30 14896 H 1423.3 -4.64507 1.17347 0
M  V30 14897 H 1421.66 -2.49134 0.529576 0
M  V30 14898 H 1422.44 -2.64013 2.19435 0
M  V30 14899 N 1424.89 -0.604284 -1.45555 0
M  V30 14900 C 1426.14 -0.0979922 -2.01862 0
M  V30 14901 C 1426.46 1.27476 -1.47563 0
M  V30 14902 O 1425.73 1.84137 -0.668612 0
M  V30 14903 H 1424.31 -0.033235 -0.74626 0
M  V30 14904 H 1426.97 -0.784936 -1.78395 0
M  V30 14905 H 1426.07 -0.0452716 -3.12067 0
M  V30 14906 N 1426.37 1.53816 -0.343257 0
M  V30 14907 C 1427.28 2.28716 0.522121 0
M  V30 14908 C 1428.29 1.33815 1.11218 0
M  V30 14909 O 1429.47 1.66853 1.12793 0
M  V30 14910 C 1426.53 3.04517 1.65741 0
M  V30 14911 C 1425.59 4.15043 1.09716 0
M  V30 14912 C 1424.83 4.8722 2.17835 0
M  V30 14913 O 1425.05 4.59065 3.38549 0
M  V30 14914 O 1423.98 5.73678 1.82145 0
M  V30 14915 H 1427.81 3.03576 -0.086732 0
M  V30 14916 H 1425.4 1.49007 -0.108313 0
M  V30 14917 H 1427.28 3.51921 2.31796 0
M  V30 14918 H 1425.95 2.32514 2.25208 0
M  V30 14919 H 1424.86 3.71943 0.401152 0
M  V30 14920 H 1426.19 4.89147 0.547362 0
M  V30 14921 N 1427.84 0.0718701 1.57436 0
M  V30 14922 C 1429.26 -0.460784 1.80924 0
M  V30 14923 C 1429.61 -1.69637 0.985781 0
M  V30 14924 O 1428.73 -2.15395 0.208319 0
M  V30 14925 C 1429.33 -0.842738 3.28151 0
M  V30 14926 C 1427.89 -1.32026 3.52486 0
M  V30 14927 C 1427.03 -0.305466 2.75612 0
M  V30 14928 H 1429.98 0.297566 1.55885 0
M  V30 14929 H 1430 -1.70414 3.40205 0
M  V30 14930 H 1429.52 0.056733 3.88059 0
M  V30 14931 H 1427.62 -2.23822 2.97883 0
M  V30 14932 H 1427.73 -1.29813 4.61178 0
M  V30 14933 H 1426.09 -0.782758 2.42374 0
M  V30 14934 H 1426.88 0.586279 3.38257 0
M  V30 14935 N 1429.32 -1.56304 -0.201686 0
M  V30 14936 C 1430.73 -1.7022 -0.766953 0
M  V30 14937 C 1431.08 -0.677318 -1.84138 0
M  V30 14938 O 1430.21 0.167604 -2.1575 0
M  V30 14939 C 1430.8 -3.08615 -1.39795 0
M  V30 14940 C 1429.36 -3.24317 -1.91037 0
M  V30 14941 C 1428.51 -2.66167 -0.777853 0
M  V30 14942 H 1431.46 -1.58683 0.0232884 0
M  V30 14943 H 1431.48 -3.05578 -2.26721 0
M  V30 14944 H 1430.99 -3.83185 -0.615728 0
M  V30 14945 H 1429.1 -2.54652 -2.71999 0
M  V30 14946 H 1429.21 -4.31753 -2.07669 0
M  V30 14947 H 1427.57 -2.25169 -1.19042 0
M  V30 14948 H 1428.36 -3.43299 -0.00798179 0
M  V30 14949 N 1430.8 0.469154 -1.50455 0
M  V30 14950 C 1432.05 1.21868 -1.61222 0
M  V30 14951 C 1432.37 1.9243 -0.315535 0
M  V30 14952 O 1431.64 1.84192 0.667083 0
M  V30 14953 H 1430.22 0.452828 -0.594101 0
M  V30 14954 H 1432.88 0.540993 -1.87241 0
M  V30 14955 H 1431.98 1.96554 -2.42431 0
M  V30 14956 N 1432.28 1.40065 0.722464 0
M  V30 14957 C 1433.53 1.37698 1.47932 0
M  V30 14958 C 1433.85 -0.0222608 1.94987 0
M  V30 14959 O 1433.12 -0.975795 1.69868 0
M  V30 14960 H 1431.7 0.506766 0.548815 0
M  V30 14961 H 1434.36 1.75053 0.856884 0
M  V30 14962 H 1433.46 2.04756 2.35545 0
M  V30 14963 N 1433.76 -0.95397 1.25448 0
M  V30 14964 C 1434.67 -2.08452 1.07634 0
M  V30 14965 C 1435.68 -1.73995 0.013294 0
M  V30 14966 O 1436.86 -2.00256 0.214367 0
M  V30 14967 C 1433.92 -3.39606 0.697756 0
M  V30 14968 C 1432.99 -3.87926 1.83881 0
M  V30 14969 C 1432.22 -5.12821 1.47819 0
M  V30 14970 O 1432.44 -5.69172 0.374143 0
M  V30 14971 O 1431.38 -5.55866 2.3086 0
M  V30 14972 H 1435.2 -2.26382 2.02447 0
M  V30 14973 H 1432.79 -1.06877 1.04392 0
M  V30 14974 H 1434.67 -4.18438 0.498778 0
M  V30 14975 H 1433.34 -3.22944 -0.221108 0
M  V30 14976 H 1432.25 -3.10095 2.09265 0
M  V30 14977 H 1433.58 -4.09087 2.73694 0
M  V30 14978 N 1435.24 -1.07045 -1.15668 0
M  V30 14979 C 1436.65 -0.814932 -1.67975 0
M  V30 14980 C 1437 0.660408 -1.84751 0
M  V30 14981 O 1436.12 1.51156 -1.54857 0
M  V30 14982 C 1436.72 -1.47274 -3.05116 0
M  V30 14983 C 1435.28 -1.26481 -3.54513 0
M  V30 14984 C 1434.42 -1.54439 -2.30312 0
M  V30 14985 H 1437.37 -1.23291 -0.999251 0
M  V30 14986 H 1437.4 -0.892244 -3.69891 0
M  V30 14987 H 1436.91 -2.54649 -2.92874 0
M  V30 14988 H 1435.01 -0.211138 -3.72001 0
M  V30 14989 H 1435.12 -1.98283 -4.36143 0
M  V30 14990 H 1433.49 -0.965269 -2.357 0
M  V30 14991 H 1434.27 -2.6299 -2.20661 0
M  V30 14992 N 1436.71 1.32449 -0.85411 0
M  V30 14993 C 1437.64 2.31383 -0.313697 0
M  V30 14994 C 1438.62 1.59656 0.586858 0
M  V30 14995 O 1439.81 1.87459 0.507216 0
M  V30 14996 C 1436.94 3.43693 0.499235 0
M  V30 14997 C 1435.89 4.26899 -0.306839 0
M  V30 14998 C 1435.22 5.30966 0.630795 0
M  V30 14999 C 1436.52 4.99318 -1.53229 0
M  V30 15000 H 1438.21 2.76832 -1.14037 0
M  V30 15001 H 1435.76 1.33091 -0.549805 0
M  V30 15002 H 1437.71 4.11944 0.887709 0
M  V30 15003 H 1436.44 2.96971 1.35926 0
M  V30 15004 H 1435.1 3.60294 -0.677061 0
M  V30 15005 H 1434.74 4.80498 1.48765 0
M  V30 15006 H 1434.44 5.87522 0.0954635 0
M  V30 15007 H 1435.97 6.0208 1.01646 0
M  V30 15008 H 1437.38 5.60253 -1.21614 0
M  V30 15009 H 1435.78 5.65596 -2.00552 0
M  V30 15010 H 1436.85 4.27213 -2.29383 0
M  V30 15011 N 1438.19 0.611994 1.45232 0
M  V30 15012 C 1439.12 -0.153214 2.27685 0
M  V30 15013 C 1440.1 -0.869474 1.37401 0
M  V30 15014 O 1441.29 -0.877453 1.66832 0
M  V30 15015 C 1438.41 -1.22224 3.15878 0
M  V30 15016 C 1437.46 -0.608624 4.22135 0
M  V30 15017 S 1438.29 0.586848 5.32275 0
M  V30 15018 C 1439.45 -0.482657 6.24036 0
M  V30 15019 H 1439.68 0.546316 2.92237 0
M  V30 15020 H 1437.21 0.399631 1.49139 0
M  V30 15021 H 1439.17 -1.83413 3.67246 0
M  V30 15022 H 1437.83 -1.89386 2.50583 0
M  V30 15023 H 1437.03 -1.41312 4.83784 0
M  V30 15024 H 1436.63 -0.0717689 3.73931 0
M  V30 15025 H 1438.92 -1.36053 6.63699 0
M  V30 15026 H 1439.86 0.0977803 7.08032 0
M  V30 15027 H 1440.27 -0.799965 5.58803 0
M  V30 15028 N 1439.67 -1.53632 0.351409 0
M  V30 15029 C 1440.58 -2.2899 -0.509985 0
M  V30 15030 C 1441.6 -1.34403 -1.10507 0
M  V30 15031 O 1442.77 -1.67448 -1.11906 0
M  V30 15032 C 1439.84 -3.05392 -1.64124 0
M  V30 15033 C 1438.9 -4.15619 -1.07514 0
M  V30 15034 C 1438.13 -4.88369 -2.15248 0
M  V30 15035 O 1438.35 -4.60854 -3.3611 0
M  V30 15036 O 1437.29 -5.74636 -1.79101 0
M  V30 15037 H 1441.11 -3.03526 0.10283 0
M  V30 15038 H 1438.7 -1.48947 0.116214 0
M  V30 15039 H 1440.58 -3.53146 -2.29926 0
M  V30 15040 H 1439.26 -2.33705 -2.23972 0
M  V30 15041 H 1438.16 -3.7215 -0.381421 0
M  V30 15042 H 1439.5 -4.8943 -0.521413 0
M  V30 15043 N 1441.15 -0.0802183 -1.57396 0
M  V30 15044 C 1442.42 0.628419 -1.8523 0
M  V30 15045 C 1442.8 1.87272 -0.974288 0
M  V30 15046 O 1442.15 2.2846 -0.0427687 0
M  V30 15047 C 1442.36 0.958033 -3.35593 0
M  V30 15048 C 1443.71 1.3279 -4.03301 0
M  V30 15049 O 1444.73 1.04951 -3.40388 0
M  V30 15050 O 1443.59 1.84865 -5.14283 0
M  V30 15051 H 1440.69 0.312945 -0.765503 0
M  V30 15052 H 1443.23 -0.111788 -1.69331 0
M  V30 15053 H 1442.01 0.074648 -3.91229 0
M  V30 15054 H 1441.63 1.75472 -3.56785 0
M  V30 15055 N 1442.63 1.56409 0.193394 0
M  V30 15056 C 1443.87 1.82511 0.920268 0
M  V30 15057 C 1444.23 0.657957 1.80374 0
M  V30 15058 O 1445.43 0.798914 2.56653 0
M  V30 15059 C 1443.7 3.13644 1.71354 0
M  V30 15060 S 1445.26 3.61158 2.4922 0
M  V30 15061 H 1442.08 0.64052 0.308634 0
M  V30 15062 H 1444.68 1.94637 0.183542 0
M  V30 15063 H 1443.38 3.96604 1.05514 0
M  V30 15064 H 1442.92 3.04402 2.49205 0
M  V30 15065 H 1444.93 3.26729 3.73447 0
M  V30 15066 N 1444.1 -0.461169 1.50702 0
M  V30 15067 C 1445.01 -1.58355 1.73092 0
M  V30 15068 C 1446.03 -1.62795 0.61431 0
M  V30 15069 O 1447.21 -1.8048 0.893806 0
M  V30 15070 C 1444.27 -2.94509 1.82936 0
M  V30 15071 C 1443.33 -3.00378 3.06711 0
M  V30 15072 C 1442.56 -4.30037 3.16076 0
M  V30 15073 O 1442.79 -5.21097 2.31978 0
M  V30 15074 O 1441.72 -4.41702 4.08881 0
M  V30 15075 H 1445.55 -1.42384 2.68255 0
M  V30 15076 H 1443.13 -0.641709 1.34916 0
M  V30 15077 H 1445.01 -3.75357 1.91534 0
M  V30 15078 H 1443.69 -3.10658 0.909581 0
M  V30 15079 H 1442.6 -2.18571 3.03608 0
M  V30 15080 H 1443.93 -2.89167 3.983 0
M  V30 15081 N 1445.58 -1.40446 -0.715026 0
M  V30 15082 C 1446.53 -1.40756 -1.82911 0
M  V30 15083 C 1447.5 -0.264443 -1.63981 0
M  V30 15084 O 1448.68 -0.462589 -1.85107 0
M  V30 15085 C 1445.82 -1.27648 -3.20624 0
M  V30 15086 C 1444.94 -2.5167 -3.51121 0
M  V30 15087 C 1444.07 -2.31 -4.78344 0
M  V30 15088 C 1443.11 -3.50596 -5.01746 0
M  V30 15089 N 1442.25 -3.29117 -6.20183 0
M  V30 15090 H 1447.09 -2.35981 -1.8198 0
M  V30 15091 H 1444.62 -1.17201 -0.888951 0
M  V30 15092 H 1446.58 -1.18054 -4.00149 0
M  V30 15093 H 1445.21 -0.360419 -3.20782 0
M  V30 15094 H 1444.26 -2.7179 -2.66147 0
M  V30 15095 H 1445.58 -3.4069 -3.64324 0
M  V30 15096 H 1444.73 -2.18763 -5.65887 0
M  V30 15097 H 1443.47 -1.39406 -4.67351 0
M  V30 15098 H 1442.47 -3.63309 -4.12658 0
M  V30 15099 H 1443.7 -4.43117 -5.14611 0
M  V30 15100 H 1441.65 -2.40206 -6.1044 0
M  V30 15101 H 1441.56 -4.11702 -6.34064 0
M  V30 15102 H 1442.83 -3.20614 -7.10512 0
M  V30 15103 N 1447.06 0.947303 -1.25952 0
M  V30 15104 C 1448.28 1.73261 -1.13997 0
M  V30 15105 C 1448.71 1.85666 0.301639 0
M  V30 15106 O 1448.07 1.34244 1.21854 0
M  V30 15107 C 1448.12 3.12046 -1.8072 0
M  V30 15108 O 1447.22 3.97684 -1.09182 0
M  V30 15109 H 1446.56 0.53182 -0.397572 0
M  V30 15110 H 1449.09 1.18689 -1.66656 0
M  V30 15111 H 1449.1 3.62468 -1.87299 0
M  V30 15112 H 1447.78 3.02334 -2.856 0
M  V30 15113 H 1446.35 3.56141 -1.10536 0
M  V30 15114 N 1448.54 1.07657 1.15099 0
M  V30 15115 C 1449.76 0.82291 1.90376 0
M  V30 15116 C 1450.19 -0.618415 1.77644 0
M  V30 15117 O 1449.55 -1.43248 1.11129 0
M  V30 15118 C 1449.59 1.23988 3.38614 0
M  V30 15119 O 1448.7 0.387085 4.10579 0
M  V30 15120 H 1448.04 0.299532 0.592602 0
M  V30 15121 H 1450.57 1.436 1.4574 0
M  V30 15122 H 1450.58 1.21741 3.89414 0
M  V30 15123 H 1449.25 2.28966 3.472 0
M  V30 15124 H 1447.83 0.472311 3.69897 0
M  V30 15125 N 1450.02 -1.31994 0.861122 0
M  V30 15126 C 1451.29 -1.91699 0.388705 0
M  V30 15127 C 1451.67 -1.78412 -1.12838 0
M  V30 15128 O 1451.02 -1.18625 -1.95296 0
M  V30 15129 C 1451.23 -3.38232 0.860248 0
M  V30 15130 C 1452.58 -4.15355 0.881201 0
M  V30 15131 O 1453.6 -3.46977 0.805313 0
M  V30 15132 O 1452.46 -5.37468 0.98945 0
M  V30 15133 H 1449.56 -0.819017 0.114629 0
M  V30 15134 H 1452.1 -1.40721 0.94845 0
M  V30 15135 H 1450.87 -3.41876 1.9036 0
M  V30 15136 H 1450.5 -3.96625 0.278316 0
M  V30 15137 N 1451.49 -0.619688 -1.44906 0
M  V30 15138 C 1452.72 -0.126363 -2.06514 0
M  V30 15139 C 1453.14 1.19432 -1.46224 0
M  V30 15140 O 1452.49 1.7301 -0.580851 0
M  V30 15141 C 1452.55 0.00682319 -3.61499 0
M  V30 15142 O 1452.27 -1.26162 -4.19541 0
M  V30 15143 C 1453.77 0.530189 -4.40118 0
M  V30 15144 H 1450.99 -0.0744032 -0.666862 0
M  V30 15145 H 1453.53 -0.850851 -1.85959 0
M  V30 15146 H 1451.69 0.681694 -3.81355 0
M  V30 15147 H 1452.1 -1.09908 -5.12855 0
M  V30 15148 H 1453.57 0.572428 -5.49024 0
M  V30 15149 H 1454.05 1.55494 -4.10753 0
M  V30 15150 H 1454.66 -0.111044 -4.25155 0
M  V30 15151 N 1452.97 1.53444 -0.359552 0
M  V30 15152 C 1454.21 2.03077 0.232169 0
M  V30 15153 C 1454.58 1.24125 1.46482 0
M  V30 15154 O 1455.78 1.63735 2.13177 0
M  V30 15155 C 1454.05 3.53554 0.522891 0
M  V30 15156 S 1455.61 4.25068 1.08914 0
M  V30 15157 H 1452.43 0.707738 0.0680317 0
M  V30 15158 H 1455.03 1.88971 -0.501022 0
M  V30 15159 H 1453.73 4.0862 -0.381812 0
M  V30 15160 H 1453.26 3.71811 1.28532 0
M  V30 15161 H 1455.28 4.35734 2.37382 0
M  V30 15162 N 1454.45 0.0885642 1.57351 0
M  V30 15163 C 1455.4 -0.890284 2.14888 0
M  V30 15164 C 1456.39 -1.29671 1.09004 0
M  V30 15165 O 1457.6 -1.272 1.27359 0
M  V30 15166 H 1453.97 -0.305107 0.687324 0
M  V30 15167 H 1455.94 -0.380243 2.95967 0
M  V30 15168 C 1454.69 -2.14216 2.73874 0
M  V30 15169 H 1454.02 -1.8383 3.55031 0
M  V30 15170 H 1455.46 -2.8078 3.17708 0
M  V30 15171 C 1453.92 -2.91186 1.69448 0
M  V30 15172 O 1454.45 -3.85494 1.12949 0
M  V30 15173 N 1452.65 -2.54603 1.40091 0
M  V30 15174 H 1452.2 -1.77984 1.86225 0
M  V30 15175 H 1452.16 -3.06403 0.704577 0
M  V30 15176 N 1455.93 -1.56509 -0.185096 0
M  V30 15177 C 1457.34 -1.71024 -0.748856 0
M  V30 15178 C 1457.69 -0.69681 -1.83409 0
M  V30 15179 O 1456.82 0.144711 -2.15916 0
M  V30 15180 C 1457.41 -3.1008 -1.36513 0
M  V30 15181 C 1455.97 -3.26325 -1.87587 0
M  V30 15182 C 1455.12 -2.66977 -0.749579 0
M  V30 15183 H 1458.07 -1.58649 0.0401175 0
M  V30 15184 H 1458.09 -3.07965 -2.23468 0
M  V30 15185 H 1457.6 -3.83816 -0.575051 0
M  V30 15186 H 1455.7 -2.57522 -2.69283 0
M  V30 15187 H 1455.81 -4.33931 -2.03078 0
M  V30 15188 H 1454.18 -2.26419 -1.16647 0
M  V30 15189 H 1454.96 -3.43288 0.0284301 0
M  V30 15190 N 1457.41 0.45317 -1.50944 0
M  V30 15191 C 1458.34 1.55655 -1.74051 0
M  V30 15192 C 1459.32 1.59545 -0.58987 0
M  V30 15193 O 1460.5 1.75526 -0.830922 0
M  V30 15194 C 1457.63 2.93857 -1.85109 0
M  V30 15195 C 1456.59 3.04832 -3.00435 0
M  V30 15196 C 1455.91 4.44858 -2.96657 0
M  V30 15197 C 1457.21 2.80381 -4.40663 0
M  V30 15198 H 1458.91 1.36571 -2.66437 0
M  V30 15199 H 1456.45 0.655572 -1.28212 0
M  V30 15200 H 1458.41 3.70992 -1.99857 0
M  V30 15201 H 1457.13 3.14138 -0.893579 0
M  V30 15202 H 1455.79 2.30134 -2.85366 0
M  V30 15203 H 1455.44 4.62083 -1.98716 0
M  V30 15204 H 1455.14 4.53134 -3.7409 0
M  V30 15205 H 1456.66 5.23989 -3.13478 0
M  V30 15206 H 1458.07 3.47255 -4.56165 0
M  V30 15207 H 1456.47 3.00083 -5.19683 0
M  V30 15208 H 1457.54 1.76099 -4.51793 0
M  V30 15209 N 1458.88 1.40823 0.707568 0
M  V30 15210 C 1460.11 1.43061 1.50161 0
M  V30 15211 C 1460.53 0.0342144 1.88069 0
M  V30 15212 O 1459.89 -0.959674 1.53818 0
M  V30 15213 C 1459.94 2.33459 2.74826 0
M  V30 15214 O 1459.04 1.78336 3.71847 0
M  V30 15215 H 1458.39 0.48602 0.452417 0
M  V30 15216 H 1460.92 1.85147 0.870742 0
M  V30 15217 H 1460.93 2.48922 3.23267 0
M  V30 15218 H 1459.6 3.34927 2.46571 0
M  V30 15219 H 1458.18 1.7226 3.30728 0
M  V30 15220 N 1460.36 -0.94061 1.26453 0
M  V30 15221 C 1461.61 -1.68354 1.11809 0
M  V30 15222 C 1461.93 -1.9203 -0.339037 0
M  V30 15223 O 1461.2 -1.51739 -1.23903 0
M  V30 15224 H 1459.78 -0.623916 0.410777 0
M  V30 15225 H 1462.44 -1.13014 1.58789 0
M  V30 15226 H 1461.54 -2.65706 1.63728 0
M  V30 15227 N 1461.84 -1.08266 -1.14527 0
M  V30 15228 C 1462.8 -0.715117 -2.17758 0
M  V30 15229 C 1463.8 0.24935 -1.58855 0
M  V30 15230 O 1464.99 0.0290846 -1.74176 0
M  V30 15231 C 1462.13 -0.055575 -3.40855 0
M  V30 15232 H 1463.32 -1.62921 -2.51787 0
M  V30 15233 H 1460.87 -0.880346 -1.2915 0
M  V30 15234 H 1461.61 0.870312 -3.12404 0
M  V30 15235 H 1461.39 -0.749382 -3.84872 0
M  V30 15236 H 1462.88 0.186592 -4.17183 0
M  V30 15237 N 1463.32 1.31536 -0.86811 0
M  V30 15238 C 1464.57 1.96775 -0.47812 0
M  V30 15239 C 1464.89 1.68632 0.9692 0
M  V30 15240 O 1464.15 0.974357 1.6972 0
M  V30 15241 C 1464.45 3.50876 -0.679752 0
M  V30 15242 C 1464.11 3.99034 -2.09958 0
M  V30 15243 C 1462.78 4.11896 -2.48787 0
M  V30 15244 C 1465.13 4.24387 -3.02564 0
M  V30 15245 C 1462.46 4.47461 -3.79468 0
M  V30 15246 C 1464.81 4.61415 -4.32757 0
M  V30 15247 C 1463.47 4.72484 -4.71503 0
M  V30 15248 H 1462.74 0.720049 -0.174957 0
M  V30 15249 H 1465.39 1.56703 -1.10074 0
M  V30 15250 H 1463.69 3.91791 0.0260174 0
M  V30 15251 H 1465.39 3.994 -0.357855 0
M  V30 15252 H 1461.98 3.89518 -1.78811 0
M  V30 15253 H 1466.17 4.13947 -2.73791 0
M  V30 15254 H 1461.42 4.54227 -4.09252 0
M  V30 15255 H 1465.6 4.79985 -5.04566 0
M  V30 15256 H 1463.22 4.99798 -5.72806 0
M  V30 15257 N 1464.8 0.627364 1.44575 0
M  V30 15258 C 1466.02 0.135576 2.06956 0
M  V30 15259 C 1466.45 -1.17922 1.46547 0
M  V30 15260 O 1465.81 -1.72255 0.565509 0
M  V30 15261 C 1465.85 0.030347 3.60587 0
M  V30 15262 O 1464.96 -1.01464 3.99724 0
M  V30 15263 H 1464.3 0.083058 0.658785 0
M  V30 15264 H 1466.83 0.862977 1.8551 0
M  V30 15265 H 1466.84 -0.161461 4.0768 0
M  V30 15266 H 1465.51 0.990285 4.03938 0
M  V30 15267 H 1464.09 -0.797701 3.64268 0
M  V30 15268 N 1466.28 -1.53251 0.367684 0
M  V30 15269 C 1467.52 -2.00889 -0.220914 0
M  V30 15270 C 1467.84 -1.25662 -1.4911 0
M  V30 15271 O 1467.11 -0.370491 -1.92365 0
M  V30 15272 H 1465.69 -0.742191 -0.0846233 0
M  V30 15273 H 1468.36 -1.88525 0.494402 0
M  V30 15274 H 1467.45 -3.08891 -0.446414 0
M  V30 15275 N 1467.75 -0.0969077 -1.57302 0
M  V30 15276 C 1469 0.567212 -1.94706 0
M  V30 15277 C 1469.33 1.67721 -0.978937 0
M  V30 15278 O 1468.61 1.94496 -0.0123016 0
M  V30 15279 C 1468.89 1.12069 -3.42217 0
M  V30 15280 C 1468.74 0.015615 -4.49797 0
M  V30 15281 C 1470.06 2.0185 -3.91081 0
M  V30 15282 H 1467.18 0.204716 -0.707997 0
M  V30 15283 H 1469.82 -0.167984 -1.89256 0
M  V30 15284 H 1467.97 1.74723 -3.46993 0
M  V30 15285 H 1469.65 -0.61871 -4.57132 0
M  V30 15286 H 1467.89 -0.650529 -4.28895 0
M  V30 15287 H 1468.56 0.443724 -5.50214 0
M  V30 15288 H 1471.04 1.49098 -3.8847 0
M  V30 15289 H 1469.91 2.37502 -4.94858 0
M  V30 15290 H 1470.17 2.93659 -3.3048 0
M  V30 15291 N 1469.23 1.56605 0.176793 0
M  V30 15292 C 1470.46 1.8617 0.91408 0
M  V30 15293 C 1470.88 0.68262 1.75277 0
M  V30 15294 O 1470.24 -0.368391 1.77518 0
M  V30 15295 C 1470.29 3.14109 1.7711 0
M  V30 15296 O 1469.39 2.95947 2.87209 0
M  V30 15297 H 1468.73 0.612507 0.25638 0
M  V30 15298 H 1471.26 2.03837 0.176586 0
M  V30 15299 H 1471.27 3.45373 2.17213 0
M  V30 15300 H 1469.95 3.9954 1.15502 0
M  V30 15301 H 1468.52 2.76024 2.50729 0
M  V30 15302 N 1470.71 -0.445159 1.51182 0
M  V30 15303 C 1471.66 -1.5604 1.72494 0
M  V30 15304 C 1472.65 -1.58753 0.591101 0
M  V30 15305 O 1473.86 -1.62591 0.772285 0
M  V30 15306 H 1470.23 -0.518265 0.544891 0
M  V30 15307 H 1472.2 -1.35237 2.65995 0
M  V30 15308 C 1470.95 -2.93768 1.85999 0
M  V30 15309 H 1470.28 -2.9241 2.72647 0
M  V30 15310 H 1471.72 -3.71189 2.04926 0
M  V30 15311 C 1470.17 -3.31186 0.617853 0
M  V30 15312 O 1470.7 -4.01035 -0.231101 0
M  V30 15313 N 1468.91 -2.86868 0.464234 0
M  V30 15314 H 1468.46 -2.30198 1.15614 0
M  V30 15315 H 1468.42 -3.12267 -0.365643 0
M  V30 15316 N 1472.19 -1.41197 -0.700089 0
M  V30 15317 C 1473.44 -1.39611 -1.45574 0
M  V30 15318 C 1473.75 -0.00683378 -1.95599 0
M  V30 15319 O 1474.96 0.131643 -2.71181 0
M  V30 15320 C 1473.41 -2.45452 -2.63214 0
M  V30 15321 C 1473.02 -3.90265 -2.19993 0
M  V30 15322 C 1474.76 -2.52996 -3.40871 0
M  V30 15323 C 1472.67 -4.87668 -3.34565 0
M  V30 15324 H 1471.6 -0.51917 -0.546789 0
M  V30 15325 H 1474.25 -1.67001 -0.760456 0
M  V30 15326 H 1472.63 -2.11186 -3.34987 0
M  V30 15327 H 1473.81 -4.33756 -1.55539 0
M  V30 15328 H 1472.12 -3.86339 -1.55341 0
M  V30 15329 H 1474.72 -3.22952 -4.26153 0
M  V30 15330 H 1475.06 -1.56536 -3.85749 0
M  V30 15331 H 1475.6 -2.86331 -2.76151 0
M  V30 15332 H 1472.33 -5.85517 -2.94704 0
M  V30 15333 H 1471.85 -4.4883 -3.97884 0
M  V30 15334 H 1473.53 -5.08215 -4.00409 0
M  V30 15335 N 1473.67 0.933891 -1.2695 0
M  V30 15336 C 1474.91 1.68091 -1.12924 0
M  V30 15337 C 1475.24 1.91747 0.326088 0
M  V30 15338 O 1474.5 1.50126 1.25541 0
M  V30 15339 C 1474.79 3.05706 -1.85145 0
M  V30 15340 C 1474.46 3.01781 -3.35021 0
M  V30 15341 C 1473.12 3.00417 -3.75903 0
M  V30 15342 C 1475.47 2.93537 -4.3068 0
M  V30 15343 C 1472.8 2.88585 -5.10818 0
M  V30 15344 C 1475.15 2.83246 -5.65645 0
M  V30 15345 C 1473.82 2.80229 -6.05828 0
M  V30 15346 H 1473.09 0.615087 -0.413217 0
M  V30 15347 H 1475.74 1.08957 -1.57482 0
M  V30 15348 H 1474.04 3.68508 -1.33077 0
M  V30 15349 H 1475.74 3.62369 -1.71726 0
M  V30 15350 H 1472.33 3.03626 -3.02505 0
M  V30 15351 H 1476.51 2.93693 -4.00073 0
M  V30 15352 H 1471.77 2.84632 -5.41105 0
M  V30 15353 H 1475.94 2.75832 -6.39445 0
M  V30 15354 H 1473.57 2.70818 -7.10325 0
M  V30 15355 N 1475.14 1.08871 1.13951 0
M  V30 15356 C 1476.37 0.843055 1.89492 0
M  V30 15357 C 1476.79 -0.599539 1.78289 0
M  V30 15358 O 1476.15 -1.42062 1.12642 0
M  V30 15359 C 1476.2 1.27572 3.3728 0
M  V30 15360 O 1475.3 0.430611 4.10146 0
M  V30 15361 H 1474.64 0.3058 0.589391 0
M  V30 15362 H 1477.17 1.45137 1.44209 0
M  V30 15363 H 1477.18 1.25864 3.88101 0
M  V30 15364 H 1475.86 2.32635 3.44751 0
M  V30 15365 H 1474.44 0.511516 3.69375 0
M  V30 15366 N 1476.62 -1.31073 0.875073 0
M  V30 15367 C 1477.87 -1.96518 0.488549 0
M  V30 15368 C 1478.2 -1.69144 -0.960243 0
M  V30 15369 O 1477.45 -0.983344 -1.69201 0
M  V30 15370 C 1477.75 -3.50511 0.698351 0
M  V30 15371 C 1477.42 -3.97915 2.12071 0
M  V30 15372 C 1476.08 -4.10571 2.50968 0
M  V30 15373 C 1478.43 -4.22777 3.0481 0
M  V30 15374 C 1475.76 -4.45442 3.81836 0
M  V30 15375 C 1478.11 -4.59114 4.35198 0
M  V30 15376 C 1476.77 -4.69977 4.74002 0
M  V30 15377 H 1476.04 -0.719111 0.178773 0
M  V30 15378 H 1478.69 -1.56117 1.10904 0
M  V30 15379 H 1477 -3.918 -0.00523937 0
M  V30 15380 H 1478.69 -3.99205 0.379031 0
M  V30 15381 H 1475.28 -3.88565 1.80874 0
M  V30 15382 H 1479.47 -4.12489 2.75983 0
M  V30 15383 H 1474.72 -4.52051 4.11655 0
M  V30 15384 H 1478.9 -4.77303 5.07105 0
M  V30 15385 H 1476.52 -4.96753 5.75448 0
M  V30 15386 N 1478.1 -0.635022 -1.4424 0
M  V30 15387 C 1479.35 -0.149809 -2.02848 0
M  V30 15388 C 1479.7 1.21619 -1.49086 0
M  V30 15389 O 1478.99 1.79619 -0.666909 0
M  V30 15390 C 1479.19 -0.081191 -3.57308 0
M  V30 15391 C 1479.02 -1.439 -4.26055 0
M  V30 15392 C 1477.79 -2.02677 -4.62872 0
M  V30 15393 C 1479.99 -2.37365 -4.56248 0
M  V30 15394 N 1477.97 -3.31652 -5.16605 0
M  V30 15395 C 1479.34 -3.50957 -5.11106 0
M  V30 15396 C 1481.39 -2.36395 -4.38203 0
M  V30 15397 C 1480.1 -4.63781 -5.49818 0
M  V30 15398 C 1482.12 -3.48286 -4.77965 0
M  V30 15399 C 1481.48 -4.60603 -5.3294 0
M  V30 15400 H 1477.58 -0.0988293 -0.77573 0
M  V30 15401 H 1480.17 -0.839365 -1.75678 0
M  V30 15402 H 1478.34 0.577656 -3.8408 0
M  V30 15403 H 1480.07 0.41321 -4.02585 0
M  V30 15404 H 1476.83 -1.55579 -4.47316 0
M  V30 15405 H 1477.25 -3.97602 -5.47943 0
M  V30 15406 H 1481.89 -1.50807 -3.9499 0
M  V30 15407 H 1479.61 -5.50074 -5.91983 0
M  V30 15408 H 1483.2 -3.48716 -4.65713 0
M  V30 15409 H 1482.08 -5.45751 -5.63139 0
M  V30 15410 N 1479.58 1.53054 -0.375806 0
M  V30 15411 C 1480.83 2.01003 0.210257 0
M  V30 15412 C 1481.15 1.26451 1.48442 0
M  V30 15413 O 1480.42 0.380687 1.92166 0
M  V30 15414 H 1479 0.74263 0.0806861 0
M  V30 15415 H 1481.66 1.8826 -0.504393 0
M  V30 15416 H 1480.76 3.09123 0.430027 0
M  V30 15417 N 1481.06 0.105248 1.57248 0
M  V30 15418 C 1482.33 -0.598871 1.86207 0
M  V30 15419 C 1482.71 -1.85698 1.00396 0
M  V30 15420 O 1482.06 -2.28363 0.0791093 0
M  V30 15421 C 1482.27 -0.904522 3.37075 0
M  V30 15422 C 1483.62 -1.26357 4.05363 0
M  V30 15423 O 1484.64 -0.99522 3.42014 0
M  V30 15424 O 1483.5 -1.76659 5.17159 0
M  V30 15425 H 1480.6 -0.300727 0.770384 0
M  V30 15426 H 1483.14 0.138713 1.69132 0
M  V30 15427 H 1481.91 -0.0123974 3.91298 0
M  V30 15428 H 1481.54 -1.69774 3.59531 0
M  V30 15429 N 1482.53 -1.56697 -0.168486 0
M  V30 15430 C 1483.76 -1.86652 -0.904195 0
M  V30 15431 C 1484.18 -0.691906 -1.74912 0
M  V30 15432 O 1483.54 0.358971 -1.77711 0
M  V30 15433 C 1483.59 -3.15043 -1.75442 0
M  V30 15434 O 1482.69 -2.97466 -2.85636 0
M  V30 15435 H 1482.04 -0.613859 -0.253128 0
M  V30 15436 H 1484.57 -2.03927 -0.165773 0
M  V30 15437 H 1484.58 -3.4652 -2.15378 0
M  V30 15438 H 1483.25 -4.00147 -1.13381 0
M  V30 15439 H 1481.83 -2.7735 -2.49262 0
M  V30 15440 N 1484.01 0.437135 -1.51416 0
M  V30 15441 C 1485.43 0.773631 -1.39596 0
M  V30 15442 C 1485.63 1.95737 -0.478463 0
M  V30 15443 O 1484.68 2.52413 0.0662971 0
M  V30 15444 C 1486 1.05381 -2.8163 0
M  V30 15445 C 1487.55 1.15824 -2.90782 0
M  V30 15446 C 1488.02 1.47135 -4.33722 0
M  V30 15447 N 1489.51 1.54059 -4.3683 0
M  V30 15448 C 1490.25 1.79858 -5.44462 0
M  V30 15449 N 1489.74 2.03449 -6.62254 0
M  V30 15450 N 1491.54 1.81642 -5.31942 0
M  V30 15451 H 1483.69 -0.342468 -2.09621 0
M  V30 15452 H 1485.95 -0.0908158 -0.94364 0
M  V30 15453 H 1485.66 0.256708 -3.50762 0
M  V30 15454 H 1485.53 1.98139 -3.20968 0
M  V30 15455 H 1487.92 1.94597 -2.21847 0
M  V30 15456 H 1488 0.209663 -2.54939 0
M  V30 15457 H 1487.64 0.688897 -5.03206 0
M  V30 15458 H 1487.57 2.43199 -4.67078 0
M  V30 15459 H 1490.06 1.3773 -3.51907 0
M  V30 15460 H 1490.38 2.22506 -7.40075 0
M  V30 15461 H 1488.72 2.00771 -6.65369 0
M  V30 15462 H 1491.91 1.62731 -4.38903 0
M  V30 15463 H 1492.08 2.01411 -6.15904 0
M  V30 15464 N 1485.49 1.41566 0.692592 0
M  V30 15465 C 1486.74 1.40805 1.44978 0
M  V30 15466 C 1487.06 0.0191039 1.94991 0
M  V30 15467 O 1486.33 -0.939544 1.71899 0
M  V30 15468 H 1484.91 0.518293 0.537942 0
M  V30 15469 H 1487.57 1.76831 0.81956 0
M  V30 15470 H 1486.67 2.09706 2.31149 0
M  V30 15471 N 1486.97 -0.927146 1.27443 0
M  V30 15472 C 1488.38 -1.20319 1.0486 0
M  V30 15473 C 1488.58 -2.00323 -0.217491 0
M  V30 15474 O 1487.64 -2.35032 -0.922833 0
M  V30 15475 C 1488.95 -1.9508 2.28833 0
M  V30 15476 C 1490.5 -2.08016 2.33877 0
M  V30 15477 C 1490.98 -2.86183 3.5758 0
M  V30 15478 N 1492.47 -2.93751 3.58141 0
M  V30 15479 C 1493.2 -3.54698 4.5053 0
M  V30 15480 N 1492.7 -4.17032 5.53223 0
M  V30 15481 N 1494.49 -3.52107 4.38152 0
M  V30 15482 H 1486.64 -0.392671 2.08739 0
M  V30 15483 H 1488.91 -0.236323 0.918072 0
M  V30 15484 H 1488.61 -1.43712 3.20998 0
M  V30 15485 H 1488.49 -2.95692 2.34193 0
M  V30 15486 H 1490.87 -2.5857 1.42217 0
M  V30 15487 H 1490.95 -1.06622 2.3252 0
M  V30 15488 H 1490.6 -2.36312 4.49576 0
M  V30 15489 H 1490.53 -3.87863 3.56188 0
M  V30 15490 H 1493.02 -2.49449 2.83872 0
M  V30 15491 H 1493.33 -4.61477 6.19886 0
M  V30 15492 H 1491.68 -4.15576 5.57065 0
M  V30 15493 H 1494.87 -3.02611 3.57134 0
M  V30 15494 H 1495.04 -3.99315 5.10344 0
M  V30 15495 N 1488.45 -1.09474 -1.13372 0
M  V30 15496 C 1489.38 -0.692446 -2.1849 0
M  V30 15497 C 1490.39 0.265942 -1.60613 0
M  V30 15498 O 1491.58 0.0519189 -1.78424 0
M  V30 15499 C 1488.68 0.000306083 -3.389 0
M  V30 15500 C 1487.85 -0.979745 -4.26286 0
M  V30 15501 C 1486.91 -0.320309 -5.25224 0
M  V30 15502 O 1485.94 -0.968089 -5.60907 0
M  V30 15503 N 1487.14 0.92536 -5.73077 0
M  V30 15504 H 1489.91 -1.59681 -2.53618 0
M  V30 15505 H 1487.47 -0.982256 -1.28699 0
M  V30 15506 H 1489.46 0.45268 -4.0216 0
M  V30 15507 H 1488.03 0.806927 -3.02006 0
M  V30 15508 H 1487.25 -1.61067 -3.59793 0
M  V30 15509 H 1488.54 -1.64348 -4.81526 0
M  V30 15510 H 1487.93 1.47119 -5.46235 0
M  V30 15511 H 1486.49 1.32105 -6.38272 0
M  V30 15512 N 1489.92 1.30607 -0.882012 0
M  V30 15513 C 1491.15 2.00128 -0.51307 0
M  V30 15514 C 1491.56 1.66307 0.902144 0
M  V30 15515 O 1490.91 0.894797 1.60434 0
M  V30 15516 C 1490.97 3.5438 -0.604547 0
M  V30 15517 C 1490.63 4.1171 -1.98354 0
M  V30 15518 C 1491.63 4.27924 -2.95257 0
M  V30 15519 C 1489.31 4.47158 -2.28812 0
M  V30 15520 C 1491.31 4.78795 -4.20755 0
M  V30 15521 C 1488.99 4.97728 -3.54556 0
M  V30 15522 C 1489.99 5.13499 -4.50342 0
M  V30 15523 O 1489.68 5.62978 -5.73856 0
M  V30 15524 H 1489.41 0.646608 -0.197165 0
M  V30 15525 H 1491.97 1.67532 -1.18837 0
M  V30 15526 H 1490.2 3.86489 0.127719 0
M  V30 15527 H 1491.89 4.05146 -0.247308 0
M  V30 15528 H 1492.65 4.00844 -2.73037 0
M  V30 15529 H 1488.53 4.34152 -1.55026 0
M  V30 15530 H 1492.07 4.91019 -4.95526 0
M  V30 15531 H 1487.97 5.24244 -3.76615 0
M  V30 15532 H 1488.74 5.81326 -5.76196 0
M  V30 15533 N 1491.4 0.642663 1.43901 0
M  V30 15534 C 1492.33 -0.0938945 2.29008 0
M  V30 15535 C 1493.35 -0.797561 1.41925 0
M  V30 15536 O 1494.54 -0.65708 1.65966 0
M  V30 15537 C 1491.64 -1.15564 3.18588 0
M  V30 15538 C 1490.81 -0.532208 4.3415 0
M  V30 15539 C 1489.87 -1.48943 5.0468 0
M  V30 15540 O 1488.89 -1.00211 5.60309 0
M  V30 15541 N 1490.1 -2.82362 5.072 0
M  V30 15542 H 1492.86 0.636539 2.92862 0
M  V30 15543 H 1490.42 0.484665 1.54475 0
M  V30 15544 H 1492.41 -1.79658 3.62636 0
M  V30 15545 H 1490.98 -1.78816 2.56405 0
M  V30 15546 H 1490.2 0.287598 3.93149 0
M  V30 15547 H 1491.49 -0.0965526 5.08708 0
M  V30 15548 H 1490.89 -3.24524 4.63358 0
M  V30 15549 H 1489.45 -3.41786 5.55001 0
M  V30 15550 N 1492.88 -1.52852 0.383918 0
M  V30 15551 C 1493.79 -2.3002 -0.461298 0
M  V30 15552 C 1494.81 -1.36717 -1.07631 0
M  V30 15553 O 1495.98 -1.69784 -1.08329 0
M  V30 15554 C 1493.05 -3.08804 -1.57609 0
M  V30 15555 C 1492.11 -4.17806 -0.986737 0
M  V30 15556 C 1491.34 -4.92825 -2.04841 0
M  V30 15557 O 1491.57 -4.67879 -3.26259 0
M  V30 15558 O 1490.5 -5.78306 -1.66871 0
M  V30 15559 H 1494.33 -3.03239 0.167189 0
M  V30 15560 H 1491.91 -1.48667 0.147781 0
M  V30 15561 H 1493.79 -3.57943 -2.22384 0
M  V30 15562 H 1492.47 -2.38404 -2.18964 0
M  V30 15563 H 1491.37 -3.72876 -0.302396 0
M  V30 15564 H 1492.71 -4.90426 -0.417481 0
M  V30 15565 N 1494.36 -0.113586 -1.5719 0
M  V30 15566 C 1495.29 0.835363 -2.18046 0
M  V30 15567 C 1496.27 1.28114 -1.11897 0
M  V30 15568 O 1497.46 1.34472 -1.40111 0
M  V30 15569 C 1494.59 2.08759 -2.77556 0
M  V30 15570 C 1493.54 1.77979 -3.8924 0
M  V30 15571 C 1492.87 3.10185 -4.35533 0
M  V30 15572 C 1494.17 1.05231 -5.11589 0
M  V30 15573 H 1495.86 0.328275 -2.97595 0
M  V30 15574 H 1493.41 0.156456 -1.43148 0
M  V30 15575 H 1495.36 2.75597 -3.18785 0
M  V30 15576 H 1494.08 2.61783 -1.95288 0
M  V30 15577 H 1492.74 1.13532 -3.48577 0
M  V30 15578 H 1492.39 3.61133 -3.50131 0
M  V30 15579 H 1492.09 2.90367 -5.10843 0
M  V30 15580 H 1493.61 3.78151 -4.7941 0
M  V30 15581 H 1495.03 1.62213 -5.49872 0
M  V30 15582 H 1493.42 0.955269 -5.92448 0
M  V30 15583 H 1494.49 0.038137 -4.84885 0
M  V30 15584 N 1495.84 1.56784 0.160173 0
M  V30 15585 C 1497.25 1.72193 0.721552 0
M  V30 15586 C 1497.6 0.725901 1.82278 0
M  V30 15587 O 1496.72 -0.110343 2.16118 0
M  V30 15588 C 1497.32 3.12212 1.31563 0
M  V30 15589 C 1495.88 3.29268 1.82371 0
M  V30 15590 C 1495.03 2.68136 0.70701 0
M  V30 15591 H 1497.98 1.58565 -0.0653521 0
M  V30 15592 H 1498 3.11481 2.1854 0
M  V30 15593 H 1497.51 3.84682 0.513917 0
M  V30 15594 H 1495.61 2.61774 2.65152 0
M  V30 15595 H 1495.72 4.37107 1.96149 0
M  V30 15596 H 1494.09 2.28246 1.1303 0
M  V30 15597 H 1494.87 3.432 -0.0830407 0
M  V30 15598 N 1497.32 -0.429099 1.51646 0
M  V30 15599 C 1498.73 -0.766217 1.40005 0
M  V30 15600 C 1498.93 -1.95481 0.488837 0
M  V30 15601 O 1497.99 -2.52445 -0.0529101 0
M  V30 15602 C 1499.3 -1.03886 2.82185 0
M  V30 15603 C 1500.85 -1.1428 2.91392 0
M  V30 15604 C 1501.32 -1.44833 4.34497 0
M  V30 15605 N 1502.81 -1.5174 4.37641 0
M  V30 15606 C 1503.55 -1.76968 5.45408 0
M  V30 15607 N 1503.05 -1.99934 6.63324 0
M  V30 15608 N 1504.84 -1.78819 5.32898 0
M  V30 15609 H 1496.99 0.35358 2.09436 0
M  V30 15610 H 1499.25 0.0958189 0.943145 0
M  V30 15611 H 1498.96 -0.238103 3.50893 0
M  V30 15612 H 1498.83 -1.96434 3.22015 0
M  V30 15613 H 1501.22 -1.93418 2.22876 0
M  V30 15614 H 1501.3 -0.19614 2.55047 0
M  V30 15615 H 1500.94 -0.662201 5.03565 0
M  V30 15616 H 1500.87 -2.40718 4.68361 0
M  V30 15617 H 1503.37 -1.35862 3.52633 0
M  V30 15618 H 1503.68 -2.18578 7.41245 0
M  V30 15619 H 1502.02 -1.97239 6.66425 0
M  V30 15620 H 1505.21 -1.60402 4.3976 0
M  V30 15621 H 1505.39 -1.98142 6.16963 0
M  V30 15622 N 1498.79 -1.41931 -0.685074 0
M  V30 15623 C 1500.03 -1.43328 -1.45727 0
M  V30 15624 C 1500.4 -0.0443486 -1.91949 0
M  V30 15625 O 1501.6 0.0669235 -2.68717 0
M  V30 15626 C 1499.87 -2.42071 -2.62938 0
M  V30 15627 S 1501.43 -2.62085 -3.51933 0
M  V30 15628 H 1498.25 -0.507607 -0.497852 0
M  V30 15629 H 1500.85 -1.78453 -0.798414 0
M  V30 15630 H 1499.55 -3.41771 -2.27203 0
M  V30 15631 H 1499.08 -2.08335 -3.33707 0
M  V30 15632 H 1501.1 -1.89613 -4.58543 0
M  V30 15633 N 1500.27 0.920374 -1.27933 0
M  V30 15634 C 1501.68 1.48385 -1.13309 0
M  V30 15635 C 1502.03 1.94202 0.279307 0
M  V30 15636 O 1501.16 1.81855 1.17294 0
M  V30 15637 C 1501.75 2.69681 -2.05079 0
M  V30 15638 C 1500.31 3.22229 -1.94539 0
M  V30 15639 C 1499.46 1.94948 -1.97207 0
M  V30 15640 H 1502.41 0.733744 -1.40719 0
M  V30 15641 H 1502.43 3.44717 -1.6109 0
M  V30 15642 H 1501.94 2.36304 -3.07867 0
M  V30 15643 H 1500.04 3.60348 -0.94764 0
M  V30 15644 H 1500.16 3.87927 -2.81157 0
M  V30 15645 H 1498.52 2.1176 -1.41527 0
M  V30 15646 H 1499.3 1.63875 -3.01662 0
M  V30 15647 N 1501.75 1.10074 1.1279 0
M  V30 15648 C 1502.71 0.74967 2.16593 0
M  V30 15649 C 1503.71 -0.224046 1.59232 0
M  V30 15650 O 1504.9 -0.00137104 1.742 0
M  V30 15651 C 1502.03 0.109795 3.40723 0
M  V30 15652 H 1503.23 1.66906 2.49164 0
M  V30 15653 H 1500.78 0.900781 1.27733 0
M  V30 15654 H 1501.52 -0.820501 3.13749 0
M  V30 15655 H 1501.3 0.810517 3.83631 0
M  V30 15656 H 1502.79 -0.120198 4.17427 0
M  V30 15657 N 1503.23 -1.30138 0.888926 0
M  V30 15658 C 1504.64 -1.78124 0.559346 0
M  V30 15659 C 1504.99 -1.73046 -0.924633 0
M  V30 15660 O 1504.11 -1.30974 -1.72264 0
M  V30 15661 C 1504.71 -3.2344 1.00856 0
M  V30 15662 C 1503.27 -3.69247 0.730332 0
M  V30 15663 C 1502.42 -2.505 1.18933 0
M  V30 15664 H 1505.37 -1.16952 1.07275 0
M  V30 15665 H 1505.39 -3.78985 0.339219 0
M  V30 15666 H 1504.9 -3.27104 2.08865 0
M  V30 15667 H 1503 -3.71067 -0.337599 0
M  V30 15668 H 1503.11 -4.60538 1.32066 0
M  V30 15669 H 1501.48 -2.47323 0.608568 0
M  V30 15670 H 1502.26 -2.56899 2.27724 0
M  V30 15671 N 1504.71 -0.650285 -1.43559 0
M  V30 15672 C 1505.93 -0.170139 -2.06199 0
M  V30 15673 C 1506.35 1.16304 -1.48724 0
M  V30 15674 O 1505.71 1.71739 -0.617418 0
M  V30 15675 C 1505.76 -0.0698577 -3.61432 0
M  V30 15676 O 1505.48 -1.35033 -4.16771 0
M  V30 15677 C 1506.98 0.436714 -4.41144 0
M  V30 15678 H 1504.2 -0.0885316 -0.665134 0
M  V30 15679 H 1506.74 -0.890104 -1.84112 0
M  V30 15680 H 1504.9 0.60065 -3.82715 0
M  V30 15681 H 1505.31 -1.20762 -5.10409 0
M  V30 15682 H 1506.79 0.455843 -5.50115 0
M  V30 15683 H 1507.26 1.46747 -4.13959 0
M  V30 15684 H 1507.87 -0.201201 -4.24824 0
M  V30 15685 N 1506.18 1.52647 -0.392018 0
M  V30 15686 C 1507.59 1.86522 0.0814091 0
M  V30 15687 C 1507.95 1.31158 1.45918 0
M  V30 15688 O 1507.07 0.644007 2.06595 0
M  V30 15689 C 1507.67 3.38448 0.1545 0
M  V30 15690 C 1506.22 3.72025 0.572227 0
M  V30 15691 C 1505.37 2.7604 -0.264093 0
M  V30 15692 H 1508.32 1.46517 -0.609785 0
M  V30 15693 H 1508.34 3.67846 0.973109 0
M  V30 15694 H 1507.86 3.78713 -0.848396 0
M  V30 15695 H 1505.96 3.37329 1.58239 0
M  V30 15696 H 1506.07 4.77973 0.328491 0
M  V30 15697 H 1504.43 2.53254 0.271042 0
M  V30 15698 H 1505.22 3.19143 -1.26502 0
M  V30 15699 N 1507.66 0.121921 1.57128 0
M  V30 15700 C 1508.89 -0.546325 2.00075 0
M  V30 15701 C 1509.31 -1.59245 1.00113 0
M  V30 15702 O 1508.67 -1.8128 -0.0267687 0
M  V30 15703 C 1508.72 -1.14651 3.41888 0
M  V30 15704 O 1507.82 -2.26199 3.4483 0
M  V30 15705 H 1507.16 -0.136184 0.649885 0
M  V30 15706 H 1509.69 0.211257 2.03506 0
M  V30 15707 H 1509.7 -1.48133 3.80159 0
M  V30 15708 H 1508.38 -0.380273 4.14158 0
M  V30 15709 H 1506.96 -1.94134 3.18381 0
M  V30 15710 N 1509.14 -1.56867 -0.151857 0
M  V30 15711 C 1510.07 -2.00932 -1.18949 0
M  V30 15712 C 1511.05 -0.888062 -1.45077 0
M  V30 15713 O 1512.24 -1.15553 -1.56081 0
M  V30 15714 C 1509.37 -2.3858 -2.52383 0
M  V30 15715 C 1508.32 -3.53845 -2.40785 0
M  V30 15716 C 1507.65 -3.77292 -3.78886 0
M  V30 15717 C 1508.95 -4.8667 -1.89605 0
M  V30 15718 H 1510.64 -2.87863 -0.823107 0
M  V30 15719 H 1508.19 -1.38491 -0.394499 0
M  V30 15720 H 1510.14 -2.68006 -3.25193 0
M  V30 15721 H 1508.86 -1.48579 -2.90847 0
M  V30 15722 H 1507.52 -3.24577 -1.70427 0
M  V30 15723 H 1507.17 -2.84551 -4.14777 0
M  V30 15724 H 1506.87 -4.54861 -3.71989 0
M  V30 15725 H 1508.39 -4.09139 -4.53252 0
M  V30 15726 H 1509.81 -5.14846 -2.52204 0
M  V30 15727 H 1508.21 -5.6801 -1.93609 0
M  V30 15728 H 1509.28 -4.77366 -0.851438 0
M  V30 15729 N 1510.62 0.421051 -1.51871 0
M  V30 15730 C 1511.55 1.51928 -1.77313 0
M  V30 15731 C 1512.53 1.58258 -0.623579 0
M  V30 15732 O 1513.71 1.73724 -0.867967 0
M  V30 15733 C 1510.84 2.89865 -1.913 0
M  V30 15734 C 1509.8 2.98391 -3.06834 0
M  V30 15735 C 1509.12 4.38466 -3.06026 0
M  V30 15736 C 1510.42 2.7097 -4.46511 0
M  V30 15737 H 1512.12 1.30889 -2.69274 0
M  V30 15738 H 1509.66 0.628229 -1.29573 0
M  V30 15739 H 1511.62 3.66669 -2.07682 0
M  V30 15740 H 1510.34 3.12172 -0.960011 0
M  V30 15741 H 1509 2.24029 -2.90184 0
M  V30 15742 H 1508.65 4.57764 -2.08472 0
M  V30 15743 H 1508.35 4.45097 -3.83618 0
M  V30 15744 H 1509.87 5.17221 -3.24522 0
M  V30 15745 H 1511.29 3.37501 -4.63428 0
M  V30 15746 H 1509.68 2.88992 -5.25931 0
M  V30 15747 H 1510.75 1.66476 -4.55427 0
M  V30 15748 N 1512.1 1.42293 0.677538 0
M  V30 15749 C 1513.04 1.45787 1.81243 0
M  V30 15750 C 1514.04 0.333895 1.66077 0
M  V30 15751 O 1515.24 0.50678 1.72719 0
M  V30 15752 H 1511.62 0.456538 0.597559 0
M  V30 15753 H 1513.59 2.41398 1.75413 0
M  V30 15754 C 1512.34 1.37449 3.19379 0
M  V30 15755 H 1511.66 2.23231 3.31674 0
M  V30 15756 H 1513.1 1.43955 3.98814 0
M  V30 15757 C 1511.56 0.0889433 3.36783 0
M  V30 15758 O 1512.09 -0.859357 3.924 0
M  V30 15759 N 1510.3 0.00698476 2.90599 0
M  V30 15760 H 1509.84 0.779459 2.45524 0
M  V30 15761 H 1509.8 -0.852522 3.02621 0
M  V30 15762 N 1513.57 -0.913576 1.28419 0
M  V30 15763 C 1514.82 -1.65731 1.14961 0
M  V30 15764 C 1515.14 -1.93269 -0.301079 0
M  V30 15765 O 1516.34 -2.6573 -0.556778 0
M  V30 15766 C 1514.8 -2.98562 2.00969 0
M  V30 15767 C 1514.41 -2.78671 3.5078 0
M  V30 15768 C 1516.15 -3.76439 1.96198 0
M  V30 15769 C 1514.06 -4.07144 4.28938 0
M  V30 15770 H 1512.99 -0.621681 0.426648 0
M  V30 15771 H 1515.64 -1.0138 1.52952 0
M  V30 15772 H 1514.02 -3.64049 1.55835 0
M  V30 15773 H 1515.19 -2.21864 4.03873 0
M  V30 15774 H 1513.51 -2.14206 3.57078 0
M  V30 15775 H 1516.11 -4.71668 2.51861 0
M  V30 15776 H 1516.45 -4.05577 0.938771 0
M  V30 15777 H 1516.98 -3.17772 2.39303 0
M  V30 15778 H 1513.72 -3.83178 5.31841 0
M  V30 15779 H 1513.24 -4.63562 3.80619 0
M  V30 15780 H 1514.92 -4.754 4.38866 0
M  V30 15781 N 1515.05 -1.1067 -1.12204 0
M  V30 15782 C 1516.46 -0.867959 -1.65298 0
M  V30 15783 C 1516.81 0.601297 -1.86759 0
M  V30 15784 O 1515.94 1.46153 -1.59588 0
M  V30 15785 C 1516.53 -1.56906 -3.00276 0
M  V30 15786 C 1515.09 -1.37696 -3.5031 0
M  V30 15787 C 1514.24 -1.61688 -2.25282 0
M  V30 15788 H 1517.19 -1.26408 -0.959521 0
M  V30 15789 H 1517.21 -1.00947 -3.66865 0
M  V30 15790 H 1516.72 -2.63838 -2.84625 0
M  V30 15791 H 1514.83 -0.329381 -3.71141 0
M  V30 15792 H 1514.94 -2.12058 -4.29614 0
M  V30 15793 H 1513.3 -1.03977 -2.3251 0
M  V30 15794 H 1514.09 -2.69877 -2.12182 0
M  V30 15795 N 1516.53 1.29665 -0.895815 0
M  V30 15796 C 1517.46 2.30268 -0.387151 0
M  V30 15797 C 1518.44 1.61442 0.535768 0
M  V30 15798 O 1519.63 1.88978 0.447321 0
M  V30 15799 C 1516.76 3.45107 0.389639 0
M  V30 15800 C 1515.71 4.25706 -0.442498 0
M  V30 15801 C 1515.04 5.32704 0.461552 0
M  V30 15802 C 1516.34 4.9419 -1.69036 0
M  V30 15803 H 1518.03 2.73064 -1.22786 0
M  V30 15804 H 1515.58 1.31274 -0.591869 0
M  V30 15805 H 1517.53 4.14559 0.756203 0
M  V30 15806 H 1516.25 3.01145 1.2641 0
M  V30 15807 H 1514.91 3.57957 -0.791343 0
M  V30 15808 H 1514.56 4.84987 1.33403 0
M  V30 15809 H 1514.26 5.87529 -0.0915006 0
M  V30 15810 H 1515.78 6.05009 0.824395 0
M  V30 15811 H 1517.2 5.561 -1.39376 0
M  V30 15812 H 1515.6 5.5893 -2.18444 0
M  V30 15813 H 1516.67 4.19699 -2.42859 0
M  V30 15814 N 1518.01 0.657889 1.43212 0
M  V30 15815 C 1519.23 0.179444 2.06622 0
M  V30 15816 C 1519.66 -1.14787 1.49015 0
M  V30 15817 O 1519.02 -1.71016 0.60192 0
M  V30 15818 C 1519.06 0.106826 3.60442 0
M  V30 15819 O 1518.17 -0.92962 4.01786 0
M  V30 15820 H 1517.51 0.0970131 0.656875 0
M  V30 15821 H 1520.04 0.902132 1.83638 0
M  V30 15822 H 1520.05 -0.07495 4.07931 0
M  V30 15823 H 1518.72 1.07574 4.01747 0
M  V30 15824 H 1517.3 -0.720255 3.65878 0
M  V30 15825 N 1519.49 -1.52437 0.400108 0
M  V30 15826 C 1520.71 -2.0661 -0.180861 0
M  V30 15827 C 1521.14 -1.269 -1.38845 0
M  V30 15828 O 1520.49 -0.296862 -1.78853 0
M  V30 15829 C 1520.54 -3.56851 -0.518595 0
M  V30 15830 O 1519.65 -3.79634 -1.61095 0
M  V30 15831 H 1518.99 -0.663752 -0.0181348 0
M  V30 15832 H 1521.52 -1.96479 0.570702 0
M  V30 15833 H 1521.53 -4.00478 -0.779817 0
M  V30 15834 H 1520.2 -4.14302 0.364216 0
M  V30 15835 H 1518.78 -3.47892 -1.3426 0
M  V30 15836 N 1520.96 -0.130252 -1.57061 0
M  V30 15837 C 1522.38 0.393318 -1.8251 0
M  V30 15838 C 1522.73 1.65862 -1.04806 0
M  V30 15839 O 1521.85 2.14473 -0.288118 0
M  V30 15840 C 1522.45 0.720366 -3.31053 0
M  V30 15841 C 1521.01 1.18852 -3.57143 0
M  V30 15842 C 1520.15 0.202964 -2.76556 0
M  V30 15843 H 1523.1 -0.355217 -1.54674 0
M  V30 15844 H 1523.12 1.57671 -3.46295 0
M  V30 15845 H 1522.64 -0.200719 -3.87581 0
M  V30 15846 H 1520.74 2.12612 -3.05985 0
M  V30 15847 H 1520.85 1.12607 -4.65678 0
M  V30 15848 H 1519.21 0.692264 -2.45112 0
M  V30 15849 H 1520 -0.711417 -3.35848 0
M  V30 15850 N 1522.44 1.56945 0.143535 0
M  V30 15851 C 1523.69 1.83176 0.853873 0
M  V30 15852 C 1524.01 0.71168 1.81549 0
M  V30 15853 O 1523.28 -0.266391 1.9408 0
M  V30 15854 H 1521.86 0.675785 0.318313 0
M  V30 15855 H 1524.52 1.9442 0.136712 0
M  V30 15856 H 1523.62 2.7823 1.41402 0
M  V30 15857 N 1523.92 -0.412991 1.52093 0
M  V30 15858 C 1525.34 -0.751324 1.40809 0
M  V30 15859 C 1525.54 -1.94951 0.509543 0
M  V30 15860 O 1524.59 -2.52486 -0.026132 0
M  V30 15861 C 1525.91 -1.00888 2.8327 0
M  V30 15862 C 1527.45 -1.11183 2.92587 0
M  V30 15863 C 1527.93 -1.40217 4.36008 0
M  V30 15864 N 1529.42 -1.4709 4.39225 0
M  V30 15865 C 1530.16 -1.71174 5.47254 0
M  V30 15866 N 1529.65 -1.92887 6.65407 0
M  V30 15867 N 1531.44 -1.73157 5.34765 0
M  V30 15868 H 1523.6 0.375774 2.0905 0
M  V30 15869 H 1525.86 0.105817 0.942076 0
M  V30 15870 H 1525.56 -0.200872 3.51126 0
M  V30 15871 H 1525.44 -1.93008 3.2408 0
M  V30 15872 H 1527.83 -1.91043 2.24915 0
M  V30 15873 H 1527.91 -0.169078 2.55241 0
M  V30 15874 H 1527.55 -0.608754 5.04239 0
M  V30 15875 H 1527.48 -2.35737 4.70888 0
M  V30 15876 H 1529.97 -1.32114 3.54054 0
M  V30 15877 H 1530.28 -2.10704 7.43521 0
M  V30 15878 H 1528.63 -1.9016 6.68479 0
M  V30 15879 H 1531.82 -1.55728 4.41437 0
M  V30 15880 H 1531.99 -1.91587 6.1903 0
M  V30 15881 N 1525.4 -1.4265 -0.669982 0
M  V30 15882 C 1526.82 -1.25682 -0.983682 0
M  V30 15883 C 1527.02 -0.164456 -2.00828 0
M  V30 15884 O 1526.07 0.462711 -2.48224 0
M  V30 15885 C 1527.38 -2.61536 -1.4839 0
M  V30 15886 C 1528.93 -2.6893 -1.60143 0
M  V30 15887 C 1529.41 -4.05162 -2.1356 0
M  V30 15888 N 1530.9 -4.07141 -2.20886 0
M  V30 15889 C 1531.63 -5.09371 -2.63303 0
M  V30 15890 N 1531.13 -6.21983 -3.05137 0
M  V30 15891 N 1532.92 -4.96727 -2.63094 0
M  V30 15892 H 1525.07 -2.12398 0.0083059 0
M  V30 15893 H 1527.34 -0.946173 -0.058823 0
M  V30 15894 H 1527.04 -3.42351 -0.805527 0
M  V30 15895 H 1526.92 -2.85786 -2.46183 0
M  V30 15896 H 1529.3 -1.88457 -2.27085 0
M  V30 15897 H 1529.38 -2.48463 -0.608266 0
M  V30 15898 H 1529.03 -4.86094 -1.47224 0
M  V30 15899 H 1528.96 -4.22984 -3.13676 0
M  V30 15900 H 1531.45 -3.25846 -1.91396 0
M  V30 15901 H 1531.76 -6.95835 -3.36204 0
M  V30 15902 H 1530.11 -6.25481 -3.02983 0
M  V30 15903 H 1533.3 -4.07824 -2.29777 0
M  V30 15904 H 1533.47 -5.76531 -2.95831 0
M  V30 15905 N 1526.88 0.906753 -1.28902 0
M  V30 15906 C 1528.29 1.47175 -1.14876 0
M  V30 15907 C 1528.64 1.94487 0.258693 0
M  V30 15908 O 1527.76 1.83088 1.15359 0
M  V30 15909 C 1528.36 2.67491 -2.07928 0
M  V30 15910 C 1526.92 3.20148 -1.97946 0
M  V30 15911 C 1526.07 1.92846 -1.99263 0
M  V30 15912 H 1529.02 0.718777 -1.4149 0
M  V30 15913 H 1529.04 3.42989 -1.64738 0
M  V30 15914 H 1528.55 2.33025 -3.10356 0
M  V30 15915 H 1526.65 3.59322 -0.985806 0
M  V30 15916 H 1526.76 3.84923 -2.85256 0
M  V30 15917 H 1525.13 2.10247 -1.43765 0
M  V30 15918 H 1525.91 1.60666 -3.03383 0
M  V30 15919 N 1528.36 1.11264 1.11616 0
M  V30 15920 C 1529.77 0.846176 1.35322 0
M  V30 15921 C 1529.97 -0.530043 1.94404 0
M  V30 15922 O 1529.03 -1.28122 2.1758 0
M  V30 15923 C 1530.34 1.9528 2.28662 0
M  V30 15924 C 1531.89 1.98225 2.42231 0
M  V30 15925 C 1532.36 3.08086 3.38891 0
M  V30 15926 N 1533.85 3.07448 3.46453 0
M  V30 15927 C 1534.59 3.89094 4.21181 0
M  V30 15928 N 1534.09 4.80698 4.989 0
M  V30 15929 N 1535.88 3.77279 4.16674 0
M  V30 15930 H 1528.03 1.99958 0.716284 0
M  V30 15931 H 1530.29 0.869439 0.377862 0
M  V30 15932 H 1530 2.94381 1.92439 0
M  V30 15933 H 1529.87 1.84739 3.28864 0
M  V30 15934 H 1532.26 0.997517 2.77729 0
M  V30 15935 H 1532.34 2.12842 1.41887 0
M  V30 15936 H 1531.98 4.06784 3.0412 0
M  V30 15937 H 1531.91 2.90709 4.39085 0
M  V30 15938 H 1534.41 2.41077 2.91016 0
M  V30 15939 H 1534.72 5.39535 5.53282 0
M  V30 15940 H 1533.06 4.84721 4.98067 0
M  V30 15941 H 1536.25 3.05059 3.55044 0
M  V30 15942 H 1536.43 4.41142 4.74655 0
M  V30 15943 N 1529.83 -1.29188 0.902679 0
M  V30 15944 C 1531.08 -1.95052 0.529076 0
M  V30 15945 C 1531.4 -1.7149 -0.92824 0
M  V30 15946 O 1530.67 -1.04834 -1.65489 0
M  V30 15947 H 1529.25 -0.721725 0.192671 0
M  V30 15948 H 1531.91 -1.57384 1.14962 0
M  V30 15949 H 1531.01 -3.03819 0.714179 0
M  V30 15950 N 1531.31 -0.665475 -1.42861 0
M  V30 15951 C 1532.59 -0.113252 -1.95272 0
M  V30 15952 C 1532.97 1.36972 -1.6063 0
M  V30 15953 O 1532.32 2.10129 -0.897662 0
M  V30 15954 C 1532.53 -0.372482 -3.47007 0
M  V30 15955 C 1533.87 -0.283982 -4.23649 0
M  V30 15956 O 1534.9 -0.305714 -3.54886 0
M  V30 15957 O 1533.76 -0.218171 -5.46064 0
M  V30 15958 H 1530.85 0.00253712 -0.826996 0
M  V30 15959 H 1533.4 -0.739561 -1.52737 0
M  V30 15960 H 1532.17 -1.40015 -3.65392 0
M  V30 15961 H 1531.79 0.286294 -3.96568 0
M  V30 15962 N 1532.79 1.52222 -0.408187 0
M  V30 15963 C 1534.04 2.02102 0.168154 0
M  V30 15964 C 1534.37 1.2933 1.4487 0
M  V30 15965 O 1533.64 0.399336 1.90356 0
M  V30 15966 C 1533.93 3.57679 0.416821 0
M  V30 15967 C 1533.78 4.41101 -0.880335 0
M  V30 15968 C 1535.1 4.23442 1.19936 0
M  V30 15969 H 1532.22 0.734583 0.0596402 0
M  V30 15970 H 1534.86 1.82121 -0.541467 0
M  V30 15971 H 1533.01 3.74835 1.02131 0
M  V30 15972 H 1534.68 4.35658 -1.51656 0
M  V30 15973 H 1532.92 4.07353 -1.49152 0
M  V30 15974 H 1533.6 5.48031 -0.660748 0
M  V30 15975 H 1536.07 4.10379 0.687605 0
M  V30 15976 H 1534.95 5.32239 1.3421 0
M  V30 15977 H 1535.21 3.82335 2.21973 0
M  V30 15978 N 1534.27 0.138579 1.5699 0
M  V30 15979 C 1535.18 -0.817548 2.19894 0
M  V30 15980 C 1536.19 -1.27806 1.18075 0
M  V30 15981 O 1537.37 -1.33699 1.5062 0
M  V30 15982 C 1534.43 -2.04244 2.80152 0
M  V30 15983 C 1533.5 -1.63197 3.97071 0
M  V30 15984 C 1532.73 -2.79847 4.54446 0
M  V30 15985 O 1532.95 -3.95827 4.10703 0
M  V30 15986 O 1531.89 -2.55804 5.44838 0
M  V30 15987 H 1535.71 -0.312123 3.02092 0
M  V30 15988 H 1533.3 -0.0880281 1.4914 0
M  V30 15989 H 1535.18 -2.75945 3.18485 0
M  V30 15990 H 1533.85 -2.53755 2.00973 0
M  V30 15991 H 1532.76 -0.885448 3.6347 0
M  V30 15992 H 1534.09 -1.1841 4.77745 0
M  V30 15993 N 1535.75 -1.57019 -0.13521 0
M  V30 15994 C 1536.97 -1.88528 -0.864399 0
M  V30 15995 C 1537.4 -0.728852 -1.73405 0
M  V30 15996 O 1536.75 0.321196 -1.78432 0
M  V30 15997 C 1536.8 -3.18694 -1.6872 0
M  V30 15998 O 1535.91 -3.03458 -2.79262 0
M  V30 15999 H 1535.25 -0.61909 -0.24005 0
M  V30 16000 H 1537.78 -2.04233 -0.12248 0
M  V30 16001 H 1537.79 -3.51011 -2.0798 0
M  V30 16002 H 1536.46 -4.02462 -1.04868 0
M  V30 16003 H 1535.04 -2.82575 -2.43323 0
M  V30 16004 N 1537.22 0.404919 -1.52309 0
M  V30 16005 C 1538.64 0.743846 -1.41206 0
M  V30 16006 C 1538.84 1.94678 -0.519874 0
M  V30 16007 O 1537.9 2.52497 0.0127417 0
M  V30 16008 C 1539.21 0.99384 -2.83802 0
M  V30 16009 C 1540.76 1.0963 -2.93173 0
M  V30 16010 C 1541.23 1.37902 -4.36746 0
M  V30 16011 N 1542.72 1.44758 -4.39999 0
M  V30 16012 C 1543.46 1.68269 -5.48154 0
M  V30 16013 N 1542.95 1.89356 -6.6642 0
M  V30 16014 N 1544.75 1.70318 -5.35675 0
M  V30 16015 H 1536.9 -0.386855 -2.08847 0
M  V30 16016 H 1539.16 -0.110811 -0.941501 0
M  V30 16017 H 1538.87 0.182249 -3.51227 0
M  V30 16018 H 1538.74 1.91287 -3.25099 0
M  V30 16019 H 1541.13 1.89847 -2.25925 0
M  V30 16020 H 1541.21 0.155539 -2.55327 0
M  V30 16021 H 1540.85 0.582004 -5.04554 0
M  V30 16022 H 1540.78 2.33237 -4.72132 0
M  V30 16023 H 1543.27 1.30235 -3.5475 0
M  V30 16024 H 1543.59 2.06758 -7.44628 0
M  V30 16025 H 1541.93 1.86612 -6.69478 0
M  V30 16026 H 1545.12 1.53385 -4.42256 0
M  V30 16027 H 1545.3 1.88302 -6.20037 0
M  V30 16028 N 1538.7 1.43003 0.662408 0
M  V30 16029 C 1539.63 1.50248 1.78739 0
M  V30 16030 C 1540.61 0.357934 1.66291 0
M  V30 16031 O 1541.8 0.573919 1.85526 0
M  V30 16032 C 1538.93 1.41618 3.17114 0
M  V30 16033 C 1537.88 2.54228 3.44314 0
M  V30 16034 C 1537.21 2.30653 4.82393 0
M  V30 16035 C 1538.51 3.96505 3.39972 0
M  V30 16036 H 1540.2 2.44406 1.72934 0
M  V30 16037 H 1537.75 1.17633 0.830569 0
M  V30 16038 H 1539.7 1.45293 3.9556 0
M  V30 16039 H 1538.43 0.439605 3.23628 0
M  V30 16040 H 1537.08 2.49891 2.68235 0
M  V30 16041 H 1536.73 1.3126 4.85572 0
M  V30 16042 H 1536.43 3.06134 5.01554 0
M  V30 16043 H 1537.96 2.36096 5.63108 0
M  V30 16044 H 1539.37 4.02378 4.08368 0
M  V30 16045 H 1537.77 4.71937 3.70668 0
M  V30 16046 H 1538.84 4.22295 2.38318 0
M  V30 16047 N 1540.18 -0.899904 1.29381 0
M  V30 16048 C 1541.46 -1.63067 1.08021 0
M  V30 16049 C 1541.84 -2.0773 -0.375716 0
M  V30 16050 O 1541.19 -1.83288 -1.36447 0
M  V30 16051 C 1541.4 -2.81163 2.06757 0
M  V30 16052 C 1542.74 -3.51854 2.37664 0
M  V30 16053 O 1543.77 -2.91332 2.0495 0
M  V30 16054 O 1542.63 -4.60962 2.93558 0
M  V30 16055 H 1539.72 -0.71601 0.413835 0
M  V30 16056 H 1542.27 -0.947991 1.40752 0
M  V30 16057 H 1541.04 -2.45355 3.04822 0
M  V30 16058 H 1540.66 -3.57137 1.74754 0
M  V30 16059 N 1541.66 -1.11854 -1.11024 0
M  V30 16060 C 1542.62 -0.784033 -2.15373 0
M  V30 16061 C 1543.62 0.198686 -1.59568 0
M  V30 16062 O 1544.81 -0.0263428 -1.7418 0
M  V30 16063 C 1541.94 -0.163987 -3.40505 0
M  V30 16064 H 1543.14 -1.70849 -2.46477 0
M  V30 16065 H 1540.69 -0.920988 -1.26283 0
M  V30 16066 H 1541.42 0.770483 -3.15014 0
M  V30 16067 H 1541.21 -0.871447 -3.82293 0
M  V30 16068 H 1542.7 0.0537739 -4.17565 0
M  V30 16069 N 1543.14 1.28707 -0.909517 0
M  V30 16070 C 1544.07 2.29845 -0.411552 0
M  V30 16071 C 1545.05 1.62001 0.518615 0
M  V30 16072 O 1546.23 1.89442 0.427252 0
M  V30 16073 C 1543.36 3.45501 0.353013 0
M  V30 16074 C 1542.32 4.25213 -0.487625 0
M  V30 16075 C 1541.64 5.33164 0.405026 0
M  V30 16076 C 1542.94 4.9237 -1.74268 0
M  V30 16077 H 1544.64 2.71746 -1.25676 0
M  V30 16078 H 1542.18 1.30639 -0.605759 0
M  V30 16079 H 1544.14 4.15338 0.712191 0
M  V30 16080 H 1542.86 3.02469 1.23209 0
M  V30 16081 H 1541.52 3.57098 -0.829265 0
M  V30 16082 H 1541.17 4.86375 1.28252 0
M  V30 16083 H 1540.87 5.87399 -0.153811 0
M  V30 16084 H 1542.39 6.0585 0.760179 0
M  V30 16085 H 1543.8 5.5459 -1.45266 0
M  V30 16086 H 1542.2 5.56581 -2.2436 0
M  V30 16087 H 1543.27 4.171 -2.47297 0
M  V30 16088 N 1544.61 0.673042 1.42506 0
M  V30 16089 C 1545.55 -0.0452975 2.29155 0
M  V30 16090 C 1546.56 -0.767277 1.43585 0
M  V30 16091 O 1547.75 -0.621728 1.67322 0
M  V30 16092 C 1544.85 -1.0878 3.20967 0
M  V30 16093 C 1544.02 -0.439999 4.35181 0
M  V30 16094 C 1543.08 -1.38205 5.07726 0
M  V30 16095 O 1542.11 -0.883031 5.62309 0
M  V30 16096 N 1543.31 -2.7154 5.13075 0
M  V30 16097 H 1546.07 0.698517 2.91446 0
M  V30 16098 H 1543.63 0.517322 1.53412 0
M  V30 16099 H 1545.63 -1.71925 3.66366 0
M  V30 16100 H 1544.2 -1.73337 2.6014 0
M  V30 16101 H 1543.42 0.370926 3.92451 0
M  V30 16102 H 1544.7 0.0113738 5.08799 0
M  V30 16103 H 1544.1 -3.14623 4.70137 0
M  V30 16104 H 1542.66 -3.29937 5.62126 0
M  V30 16105 N 1546.09 -1.52004 0.416254 0
M  V30 16106 C 1547.51 -1.59457 0.0674775 0
M  V30 16107 C 1547.71 -1.42865 -1.42098 0
M  V30 16108 O 1546.76 -1.2592 -2.18862 0
M  V30 16109 C 1548.08 -2.95272 0.56876 0
M  V30 16110 C 1549.63 -3.08525 0.527356 0
M  V30 16111 C 1550.1 -4.46832 1.00526 0
M  V30 16112 N 1551.59 -4.53092 0.962377 0
M  V30 16113 C 1552.33 -5.58393 1.30327 0
M  V30 16114 N 1551.82 -6.71212 1.71597 0
M  V30 16115 N 1553.62 -5.48639 1.22278 0
M  V30 16116 H 1545.77 -1.61036 1.38496 0
M  V30 16117 H 1548.03 -0.75795 0.569399 0
M  V30 16118 H 1547.74 -3.12717 1.60937 0
M  V30 16119 H 1547.61 -3.77196 -0.0177595 0
M  V30 16120 H 1550 -2.9076 -0.504225 0
M  V30 16121 H 1550.08 -2.28491 1.15002 0
M  V30 16122 H 1549.72 -4.6534 2.03521 0
M  V30 16123 H 1549.65 -5.25373 0.359345 0
M  V30 16124 H 1552.14 -3.72109 0.65904 0
M  V30 16125 H 1552.46 -7.47558 1.95901 0
M  V30 16126 H 1550.8 -6.72475 1.75507 0
M  V30 16127 H 1553.99 -4.59383 0.899175 0
M  V30 16128 H 1554.16 -6.30596 1.49175 0
M  V30 16129 N 1547.57 -0.146903 -1.56914 0
M  V30 16130 C 1548.5 0.823803 -2.13883 0
M  V30 16131 C 1549.52 1.21081 -1.08826 0
M  V30 16132 O 1550.7 1.15491 -1.36103 0
M  V30 16133 C 1547.8 2.11686 -2.64655 0
M  V30 16134 C 1546.98 1.89723 -3.94112 0
M  V30 16135 C 1546.04 3.03016 -4.30195 0
M  V30 16136 O 1545.06 2.74711 -4.9852 0
M  V30 16137 N 1546.26 4.30187 -3.89768 0
M  V30 16138 H 1549.03 0.336904 -2.978 0
M  V30 16139 H 1546.59 0.0366704 -1.61858 0
M  V30 16140 H 1548.58 2.86525 -2.85807 0
M  V30 16141 H 1547.15 2.51639 -1.85464 0
M  V30 16142 H 1546.37 0.989208 -3.81587 0
M  V30 16143 H 1547.66 1.72387 -4.78707 0
M  V30 16144 H 1547.06 4.56051 -3.34715 0
M  V30 16145 H 1545.62 5.01807 -4.15972 0
M  V30 16146 N 1549.05 1.57088 0.126881 0
M  V30 16147 C 1549.98 2.02799 1.15737 0
M  V30 16148 C 1550.96 0.911031 1.43646 0
M  V30 16149 O 1552.14 1.18021 1.54223 0
M  V30 16150 C 1549.27 2.42565 2.48555 0
M  V30 16151 C 1548.23 3.57631 2.35125 0
M  V30 16152 C 1547.55 3.83272 3.72836 0
M  V30 16153 C 1548.85 4.89625 1.81838 0
M  V30 16154 H 1550.55 2.89136 0.777207 0
M  V30 16155 H 1548.09 1.39101 0.372416 0
M  V30 16156 H 1550.05 2.73146 3.20888 0
M  V30 16157 H 1548.77 1.53188 2.88446 0
M  V30 16158 H 1547.43 3.27247 1.65242 0
M  V30 16159 H 1547.08 2.91114 4.10197 0
M  V30 16160 H 1546.78 4.60721 3.64705 0
M  V30 16161 H 1548.3 4.16298 4.46686 0
M  V30 16162 H 1549.72 5.18793 2.43981 0
M  V30 16163 H 1548.11 5.71018 1.84548 0
M  V30 16164 H 1549.18 4.7866 0.775385 0
M  V30 16165 N 1550.53 -0.396836 1.52522 0
M  V30 16166 C 1551.47 -1.50474 1.77371 0
M  V30 16167 C 1552.47 -1.56792 0.641307 0
M  V30 16168 O 1553.67 -1.60052 0.823621 0
M  V30 16169 H 1550.05 -0.500667 0.561103 0
M  V30 16170 H 1552.02 -1.26706 2.70163 0
M  V30 16171 C 1550.77 -2.87702 1.95251 0
M  V30 16172 H 1550.09 -2.83588 2.81812 0
M  V30 16173 H 1551.53 -3.64482 2.16631 0
M  V30 16174 C 1549.99 -3.29053 0.722904 0
M  V30 16175 O 1550.52 -4.01567 -0.103398 0
M  V30 16176 N 1548.73 -2.85246 0.555263 0
M  V30 16177 H 1548.27 -2.26403 1.22879 0
M  V30 16178 H 1548.23 -3.13272 -0.266113 0
M  V30 16179 N 1552.01 -1.43353 -0.654814 0
M  V30 16180 C 1553.42 -1.26718 -0.970297 0
M  V30 16181 C 1553.62 -0.185747 -2.00642 0
M  V30 16182 O 1552.68 0.436357 -2.48701 0
M  V30 16183 C 1553.99 -2.63095 -1.45608 0
M  V30 16184 C 1555.54 -2.70613 -1.57281 0
M  V30 16185 C 1556.01 -4.07404 -2.0925 0
M  V30 16186 N 1557.5 -4.09461 -2.16555 0
M  V30 16187 C 1558.24 -5.12135 -2.57885 0
M  V30 16188 N 1557.74 -6.25185 -2.98523 0
M  V30 16189 N 1559.53 -4.9949 -2.57811 0
M  V30 16190 H 1551.68 -2.12378 0.0308331 0
M  V30 16191 H 1553.94 -0.946744 -0.0487843 0
M  V30 16192 H 1553.65 -3.43186 -0.769171 0
M  V30 16193 H 1553.52 -2.88381 -2.43138 0
M  V30 16194 H 1555.91 -1.90855 -2.25074 0
M  V30 16195 H 1555.99 -2.49094 -0.581879 0
M  V30 16196 H 1555.63 -4.87628 -1.4206 0
M  V30 16197 H 1555.56 -4.26287 -3.09172 0
M  V30 16198 H 1558.06 -3.27858 -1.87929 0
M  V30 16199 H 1558.37 -6.99362 -3.28804 0
M  V30 16200 H 1556.71 -6.28659 -2.96332 0
M  V30 16201 H 1559.9 -4.10238 -2.25438 0
M  V30 16202 H 1560.08 -5.79637 -2.89699 0
M  V30 16203 N 1553.48 0.89303 -1.29857 0
M  V30 16204 C 1554.41 2.01422 -1.18117 0
M  V30 16205 C 1555.39 1.6994 -0.0737487 0
M  V30 16206 O 1556.58 1.92527 -0.254387 0
M  V30 16207 C 1553.71 3.36385 -0.863842 0
M  V30 16208 C 1552.66 3.821 -1.92831 0
M  V30 16209 C 1551.99 5.14263 -1.46415 0
M  V30 16210 C 1553.29 4.01699 -3.33819 0
M  V30 16211 H 1554.98 2.11502 -2.11913 0
M  V30 16212 H 1552.53 1.01622 -1.02024 0
M  V30 16213 H 1554.48 4.14335 -0.768397 0
M  V30 16214 H 1553.21 3.26415 0.109816 0
M  V30 16215 H 1551.87 3.06372 -2.01325 0
M  V30 16216 H 1551.51 5.00714 -0.478983 0
M  V30 16217 H 1551.21 5.45821 -2.17609 0
M  V30 16218 H 1552.74 5.94747 -1.38234 0
M  V30 16219 H 1554.15 4.70111 -3.28129 0
M  V30 16220 H 1552.55 4.44621 -4.03029 0
M  V30 16221 H 1553.62 3.05816 -3.76304 0
M  V30 16222 N 1554.96 1.12442 1.10429 0
M  V30 16223 C 1555.87 0.805377 2.20343 0
M  V30 16224 C 1556.89 -0.205836 1.72778 0
M  V30 16225 O 1558.06 -0.0394195 2.01361 0
M  V30 16226 C 1555.13 0.264711 3.45688 0
M  V30 16227 C 1554.19 1.33586 4.07987 0
M  V30 16228 C 1553.42 0.8209 5.27349 0
M  V30 16229 O 1553.65 -0.345303 5.69354 0
M  V30 16230 O 1552.58 1.59052 5.80505 0
M  V30 16231 H 1556.41 1.7234 2.50065 0
M  V30 16232 H 1553.99 0.901084 1.19167 0
M  V30 16233 H 1555.87 -0.0319164 4.21388 0
M  V30 16234 H 1554.55 -0.625869 3.17592 0
M  V30 16235 H 1553.45 1.68566 3.33971 0
M  V30 16236 H 1554.79 2.20021 4.40286 0
M  V30 16237 N 1556.44 -1.28223 0.91633 0
M  V30 16238 C 1557.67 -1.98986 0.566772 0
M  V30 16239 C 1558.08 -1.68455 -0.852553 0
M  V30 16240 O 1557.44 -0.938734 -1.56506 0
M  V30 16241 C 1557.49 -3.53217 0.769423 0
M  V30 16242 O 1557.21 -3.82674 2.1329 0
M  V30 16243 C 1558.71 -4.41238 0.427043 0
M  V30 16244 H 1555.93 -0.63534 0.215834 0
M  V30 16245 H 1558.48 -1.63357 1.23024 0
M  V30 16246 H 1556.63 -3.87098 0.152915 0
M  V30 16247 H 1557.05 -4.77302 2.17448 0
M  V30 16248 H 1558.52 -5.48512 0.619594 0
M  V30 16249 H 1559 -4.34558 -0.63686 0
M  V30 16250 H 1559.6 -4.12858 1.0212 0
M  V30 16251 N 1557.92 -0.68059 -1.42147 0
M  V30 16252 C 1559.33 -0.350691 -1.55699 0
M  V30 16253 C 1559.53 1.1435 -1.6591 0
M  V30 16254 O 1558.59 1.92905 -1.62923 0
M  V30 16255 C 1559.9 -1.08608 -2.80401 0
M  V30 16256 C 1561.45 -1.06897 -2.9418 0
M  V30 16257 C 1561.93 -1.78581 -4.2175 0
M  V30 16258 N 1563.42 -1.75477 -4.28675 0
M  V30 16259 C 1564.15 -2.27794 -5.26211 0
M  V30 16260 N 1563.65 -2.88518 -6.29865 0
M  V30 16261 N 1565.44 -2.18135 -5.18048 0
M  V30 16262 H 1557.59 -1.64988 -1.33763 0
M  V30 16263 H 1559.85 -0.695411 -0.644289 0
M  V30 16264 H 1559.56 -2.14113 -2.79014 0
M  V30 16265 H 1559.43 -0.655022 -3.71469 0
M  V30 16266 H 1561.82 -0.0222464 -2.95092 0
M  V30 16267 H 1561.9 -1.53897 -2.04327 0
M  V30 16268 H 1561.55 -2.83225 -4.21599 0
M  V30 16269 H 1561.48 -1.29027 -5.10548 0
M  V30 16270 H 1563.97 -1.31191 -3.54397 0
M  V30 16271 H 1564.28 -3.26043 -7.00654 0
M  V30 16272 H 1562.63 -2.92589 -6.3041 0
M  V30 16273 H 1565.82 -1.7038 -4.35991 0
M  V30 16274 H 1565.99 -2.59213 -5.93896 0
M  V30 16275 N 1559.4 1.51781 -0.424309 0
M  V30 16276 C 1560.33 2.30313 0.384462 0
M  V30 16277 C 1561.31 1.35166 1.03268 0
M  V30 16278 O 1562.49 1.64081 1.0388 0
M  V30 16279 C 1559.62 3.13566 1.49311 0
M  V30 16280 C 1558.58 4.16884 0.969096 0
M  V30 16281 C 1557.9 4.88576 2.17251 0
M  V30 16282 C 1559.2 5.22298 0.0125613 0
M  V30 16283 H 1560.9 2.98172 -0.270871 0
M  V30 16284 H 1558.44 1.43396 -0.131712 0
M  V30 16285 H 1560.39 3.67279 2.06602 0
M  V30 16286 H 1559.12 2.43504 2.17655 0
M  V30 16287 H 1557.78 3.64203 0.418494 0
M  V30 16288 H 1557.43 4.15029 2.84183 0
M  V30 16289 H 1557.13 5.58432 1.82833 0
M  V30 16290 H 1558.65 5.45107 2.75119 0
M  V30 16291 H 1560.06 5.71161 0.494744 0
M  V30 16292 H 1558.46 5.99606 -0.243544 0
M  V30 16293 H 1559.53 4.75935 -0.92813 0
M  V30 16294 N 1560.87 0.155222 1.56834 0
M  V30 16295 C 1562.1 -0.503763 2.01189 0
M  V30 16296 C 1562.52 -1.57086 1.03468 0
M  V30 16297 O 1561.88 -1.81296 0.0116895 0
M  V30 16298 C 1561.93 -1.07373 3.44243 0
M  V30 16299 O 1561.03 -2.18834 3.49551 0
M  V30 16300 H 1560.37 -0.122368 0.652627 0
M  V30 16301 H 1562.9 0.254377 2.03013 0
M  V30 16302 H 1562.91 -1.40036 3.83215 0
M  V30 16303 H 1561.59 -0.292339 4.14871 0
M  V30 16304 H 1560.17 -1.87337 3.22427 0
M  V30 16305 N 1562.35 -1.57153 -0.118549 0
M  V30 16306 C 1563.31 -1.99438 -1.12947 0
M  V30 16307 C 1564.31 -0.884588 -1.34282 0
M  V30 16308 O 1565.5 -1.15062 -1.30792 0
M  V30 16309 C 1562.64 -2.33492 -2.48384 0
M  V30 16310 H 1563.83 -2.89952 -0.766034 0
M  V30 16311 H 1561.38 -1.5203 -0.362858 0
M  V30 16312 H 1562.12 -1.45859 -2.89647 0
M  V30 16313 H 1561.9 -3.14433 -2.34252 0
M  V30 16314 H 1563.39 -2.66945 -3.21139 0
M  V30 16315 N 1563.83 0.388742 -1.5273 0
M  V30 16316 C 1565.11 1.14799 -1.58368 0
M  V30 16317 C 1565.49 2.07706 -0.377018 0
M  V30 16318 O 1564.83 2.1951 0.634634 0
M  V30 16319 C 1565.04 1.90745 -2.92262 0
M  V30 16320 C 1566.39 2.46098 -3.46007 0
M  V30 16321 O 1567.42 2.00901 -2.94138 0
M  V30 16322 O 1566.28 3.28658 -4.3663 0
M  V30 16323 H 1563.37 0.52529 -0.638748 0
M  V30 16324 H 1565.92 0.393874 -1.65066 0
M  V30 16325 H 1564.69 1.22806 -3.7153 0
M  V30 16326 H 1564.31 2.73118 -2.88951 0
M  V30 16327 N 1565.31 1.43698 0.647203 0
M  V30 16328 C 1566.24 1.43777 1.7721 0
M  V30 16329 C 1567.22 0.298484 1.59837 0
M  V30 16330 O 1568.4 0.493002 1.81939 0
M  V30 16331 C 1565.53 1.2551 3.14587 0
M  V30 16332 C 1564.58 2.42793 3.50647 0
M  V30 16333 S 1565.41 4.05341 3.49941 0
M  V30 16334 C 1566.56 3.89468 4.89965 0
M  V30 16335 H 1566.8 2.38963 1.76873 0
M  V30 16336 H 1564.33 1.30801 0.820387 0
M  V30 16337 H 1566.29 1.15658 3.9387 0
M  V30 16338 H 1564.95 0.318629 3.1248 0
M  V30 16339 H 1564.14 2.25832 4.50573 0
M  V30 16340 H 1563.74 2.49302 2.78791 0
M  V30 16341 H 1566.04 3.52164 5.7878 0
M  V30 16342 H 1566.98 4.89167 5.11978 0
M  V30 16343 H 1567.39 3.21816 4.63783 0
M  V30 16344 N 1566.79 -0.886131 1.30328 0
M  V30 16345 C 1567.75 -1.97328 1.16594 0
M  V30 16346 C 1568.75 -1.60504 0.0975023 0
M  V30 16347 O 1569.94 -1.70739 0.345524 0
M  V30 16348 C 1567.07 -3.31714 0.786045 0
M  V30 16349 H 1568.26 -2.1094 2.13177 0
M  V30 16350 H 1565.82 -1.07238 1.13708 0
M  V30 16351 H 1566.55 -3.23804 -0.179334 0
M  V30 16352 H 1566.34 -3.5981 1.55817 0
M  V30 16353 H 1567.83 -4.11461 0.71339 0
M  V30 16354 N 1568.26 -1.13026 -1.09832 0
M  V30 16355 C 1569.49 -0.91246 -1.85693 0
M  V30 16356 C 1569.91 0.538558 -1.80956 0
M  V30 16357 O 1569.26 1.37262 -1.20273 0
M  V30 16358 C 1569.32 -1.38684 -3.3384 0
M  V30 16359 O 1569.04 -2.78099 -3.38515 0
M  V30 16360 C 1570.54 -1.20688 -4.26555 0
M  V30 16361 H 1567.76 -0.32565 -0.58668 0
M  V30 16362 H 1570.3 -1.50177 -1.38806 0
M  V30 16363 H 1568.46 -0.840617 -3.7817 0
M  V30 16364 H 1568.87 -2.99061 -4.30886 0
M  V30 16365 H 1570.34 -1.5876 -5.28677 0
M  V30 16366 H 1570.82 -0.148111 -4.3895 0
M  V30 16367 H 1571.43 -1.74092 -3.88036 0
M  V30 16368 N 1569.74 1.27735 -0.923117 0
M  V30 16369 C 1570.99 1.94858 -0.56198 0
M  V30 16370 C 1571.32 1.72414 0.893698 0
M  V30 16371 O 1570.6 1.05054 1.63689 0
M  V30 16372 C 1570.88 3.49102 -0.883173 0
M  V30 16373 C 1570.73 3.80908 -2.39227 0
M  V30 16374 C 1572.05 4.38405 -0.385848 0
M  V30 16375 H 1569.17 0.707728 -0.205646 0
M  V30 16376 H 1571.81 1.50935 -1.15406 0
M  V30 16377 H 1569.96 3.86644 -0.379292 0
M  V30 16378 H 1571.63 3.53182 -2.96749 0
M  V30 16379 H 1569.88 3.2762 -2.84337 0
M  V30 16380 H 1570.55 4.88653 -2.56754 0
M  V30 16381 H 1573.02 4.07988 -0.817631 0
M  V30 16382 H 1571.9 5.45161 -0.63958 0
M  V30 16383 H 1572.16 4.36296 0.714009 0
M  V30 16384 N 1571.22 0.688118 1.41784 0
M  V30 16385 C 1572.15 0.0323199 2.33478 0
M  V30 16386 C 1573.13 -0.775145 1.51412 0
M  V30 16387 O 1574.32 -0.72962 1.79973 0
M  V30 16388 C 1571.45 -0.910141 3.35162 0
M  V30 16389 C 1570.4 -0.210312 4.27483 0
M  V30 16390 C 1569.73 -1.26662 5.19481 0
M  V30 16391 C 1571.03 0.918839 5.14154 0
M  V30 16392 H 1572.72 0.798138 2.88566 0
M  V30 16393 H 1570.27 0.385262 1.38751 0
M  V30 16394 H 1572.22 -1.3781 3.98229 0
M  V30 16395 H 1570.94 -1.70754 2.78408 0
M  V30 16396 H 1569.6 0.237544 3.6583 0
M  V30 16397 H 1569.25 -2.05635 4.59046 0
M  V30 16398 H 1568.95 -0.803416 5.82082 0
M  V30 16399 H 1570.47 -1.73524 5.85424 0
M  V30 16400 H 1571.89 0.531499 5.70831 0
M  V30 16401 H 1570.29 1.30867 5.85657 0
M  V30 16402 H 1571.36 1.7618 4.51762 0
M  V30 16403 N 1572.7 -1.51554 0.432352 0
M  V30 16404 C 1573.63 -2.25369 -0.417328 0
M  V30 16405 C 1574.64 -1.29197 -0.990551 0
M  V30 16406 O 1575.83 -1.54985 -0.885539 0
M  V30 16407 C 1572.93 -2.99006 -1.59526 0
M  V30 16408 C 1572.11 -4.22234 -1.1418 0
M  V30 16409 C 1571.16 -4.78495 -2.18928 0
M  V30 16410 O 1570.19 -5.40465 -1.78566 0
M  V30 16411 N 1571.39 -4.62091 -3.51358 0
M  V30 16412 H 1574.16 -2.98926 0.215294 0
M  V30 16413 H 1571.72 -1.59783 0.26097 0
M  V30 16414 H 1573.71 -3.33532 -2.29212 0
M  V30 16415 H 1572.28 -2.28491 -2.13332 0
M  V30 16416 H 1571.5 -3.93259 -0.272182 0
M  V30 16417 H 1572.79 -5.02212 -0.816145 0
M  V30 16418 H 1572.19 -4.12718 -3.86885 0
M  V30 16419 H 1570.74 -5.00992 -4.16953 0
M  V30 16420 N 1574.18 -0.163538 -1.56749 0
M  V30 16421 C 1575.11 0.765571 -2.20593 0
M  V30 16422 C 1576.09 1.24489 -1.15916 0
M  V30 16423 O 1577.27 1.29946 -1.44318 0
M  V30 16424 C 1574.4 1.99823 -2.84057 0
M  V30 16425 C 1573.36 1.65506 -3.94705 0
M  V30 16426 C 1572.68 2.96172 -4.45181 0
M  V30 16427 C 1573.98 0.88902 -5.14678 0
M  V30 16428 H 1575.68 0.233431 -2.98489 0
M  V30 16429 H 1573.22 0.110836 -1.43573 0
M  V30 16430 H 1575.18 2.65316 -3.27392 0
M  V30 16431 H 1573.9 2.55437 -2.03517 0
M  V30 16432 H 1572.56 1.02384 -3.52013 0
M  V30 16433 H 1572.21 3.49811 -3.61443 0
M  V30 16434 H 1571.91 2.73968 -5.19823 0
M  V30 16435 H 1573.43 3.62708 -4.91198 0
M  V30 16436 H 1574.84 1.44637 -5.54755 0
M  V30 16437 H 1573.24 0.766302 -5.95187 0
M  V30 16438 H 1574.31 -0.116145 -4.84761 0
M  V30 16439 N 1575.65 1.57214 0.110213 0
M  V30 16440 C 1576.58 2.04015 1.13579 0
M  V30 16441 C 1577.57 0.926215 1.42672 0
M  V30 16442 O 1578.75 1.19651 1.52962 0
M  V30 16443 C 1575.88 2.45187 2.45969 0
M  V30 16444 C 1574.83 3.60105 2.31319 0
M  V30 16445 C 1574.16 3.87205 3.68749 0
M  V30 16446 C 1575.46 4.91526 1.76635 0
M  V30 16447 H 1577.15 2.89944 0.746496 0
M  V30 16448 H 1574.7 1.39488 0.357642 0
M  V30 16449 H 1576.65 2.76534 3.17973 0
M  V30 16450 H 1575.38 1.56238 2.86805 0
M  V30 16451 H 1574.04 3.28981 1.61762 0
M  V30 16452 H 1573.68 2.95448 4.07087 0
M  V30 16453 H 1573.38 4.64563 3.59798 0
M  V30 16454 H 1574.91 4.21013 4.42245 0
M  V30 16455 H 1576.32 5.21351 2.38465 0
M  V30 16456 H 1574.72 5.72944 1.78482 0
M  V30 16457 H 1575.79 4.79456 0.724573 0
M  V30 16458 N 1577.13 -0.380637 1.52934 0
M  V30 16459 C 1578.06 -1.48518 1.74571 0
M  V30 16460 C 1579.08 -1.50272 0.626263 0
M  V30 16461 O 1580.27 -1.54023 0.902167 0
M  V30 16462 C 1577.37 -2.87339 1.79693 0
M  V30 16463 C 1576.54 -3.09454 3.09123 0
M  V30 16464 C 1575.6 -4.28305 3.05682 0
M  V30 16465 O 1574.62 -4.24205 3.79524 0
M  V30 16466 N 1575.83 -5.34932 2.2545 0
M  V30 16467 H 1578.59 -1.30341 2.69873 0
M  V30 16468 H 1576.15 -0.57023 1.51526 0
M  V30 16469 H 1578.14 -3.64961 1.74887 0
M  V30 16470 H 1576.71 -2.98835 0.917414 0
M  V30 16471 H 1575.93 -2.19623 3.27352 0
M  V30 16472 H 1577.22 -3.21089 3.94689 0
M  V30 16473 H 1576.62 -5.41121 1.64939 0
M  V30 16474 H 1575.18 -6.11189 2.26476 0
M  V30 16475 N 1578.61 -1.44039 -0.639573 0
M  V30 16476 C 1580.03 -1.2774 -0.956802 0
M  V30 16477 C 1580.23 -0.207018 -2.00434 0
M  V30 16478 O 1579.28 0.409954 -2.4915 0
M  V30 16479 C 1580.6 -2.64624 -1.42809 0
M  V30 16480 C 1582.14 -2.72266 -1.54402 0
M  V30 16481 C 1582.62 -4.09601 -2.04918 0
M  V30 16482 N 1584.11 -4.11735 -2.122 0
M  V30 16483 C 1584.84 -5.14842 -2.52439 0
M  V30 16484 N 1584.34 -6.28316 -2.91875 0
M  V30 16485 N 1586.13 -5.02196 -2.52499 0
M  V30 16486 H 1578.28 -2.12333 0.0533569 0
M  V30 16487 H 1580.55 -0.947208 -0.0387401 0
M  V30 16488 H 1580.25 -3.43983 -0.732728 0
M  V30 16489 H 1580.13 -2.90944 -2.40066 0
M  V30 16490 H 1582.51 -1.93232 -2.23037 0
M  V30 16491 H 1582.6 -2.49697 -0.555426 0
M  V30 16492 H 1582.24 -4.89108 -1.3688 0
M  V30 16493 H 1582.17 -4.29542 -3.04633 0
M  V30 16494 H 1584.66 -3.29833 -1.84441 0
M  V30 16495 H 1584.97 -7.0281 -3.21368 0
M  V30 16496 H 1583.32 -6.31767 -2.89647 0
M  V30 16497 H 1586.51 -4.12606 -2.21075 0
M  V30 16498 H 1586.68 -5.82677 -2.83535 0
M  V30 16499 N 1580.09 0.879207 -1.30796 0
M  V30 16500 C 1581.02 1.99134 -1.13482 0
M  V30 16501 C 1582.03 1.6262 -0.0764492 0
M  V30 16502 O 1583.22 1.75553 -0.323038 0
M  V30 16503 C 1580.32 3.31386 -0.709706 0
M  V30 16504 C 1579.5 3.963 -1.85108 0
M  V30 16505 C 1578.55 5.06858 -1.41356 0
M  V30 16506 O 1577.58 5.28178 -2.12172 0
M  V30 16507 N 1578.78 5.79746 -0.295789 0
M  V30 16508 H 1581.55 2.14536 -2.09271 0
M  V30 16509 H 1579.11 1.05264 -1.23009 0
M  V30 16510 H 1581.1 4.02719 -0.399903 0
M  V30 16511 H 1579.67 3.12209 0.156309 0
M  V30 16512 H 1578.89 3.18065 -2.3287 0
M  V30 16513 H 1580.18 4.36408 -2.61582 0
M  V30 16514 H 1579.58 5.64935 0.294166 0
M  V30 16515 H 1578.13 6.51784 -0.0454707 0
M  V30 16516 N 1581.57 1.13606 1.09231 0
M  V30 16517 C 1582.5 0.758936 2.1521 0
M  V30 16518 C 1583.48 -0.255788 1.60575 0
M  V30 16519 O 1584.66 -0.14682 1.87927 0
M  V30 16520 C 1581.79 0.125401 3.38468 0
M  V30 16521 C 1580.84 1.10894 4.11831 0
M  V30 16522 S 1581.67 2.64233 4.65769 0
M  V30 16523 C 1582.82 2.02246 5.92324 0
M  V30 16524 H 1583.06 1.65661 2.46868 0
M  V30 16525 H 1580.59 0.956419 1.2121 0
M  V30 16526 H 1582.55 -0.233725 4.09834 0
M  V30 16527 H 1581.21 -0.749575 3.05025 0
M  V30 16528 H 1580.4 0.613519 5.00252 0
M  V30 16529 H 1580 1.41163 3.46336 0
M  V30 16530 H 1582.3 1.37275 6.63447 0
M  V30 16531 H 1583.24 2.88756 6.46549 0
M  V30 16532 H 1583.65 1.47321 5.44937 0
M  V30 16533 N 1583.05 -1.27244 0.929878 0
M  V30 16534 C 1584.27 -1.98373 0.587845 0
M  V30 16535 C 1584.69 -1.69349 -0.834638 0
M  V30 16536 O 1584.05 -0.955281 -1.55501 0
M  V30 16537 C 1584.1 -3.52381 0.806843 0
M  V30 16538 O 1583.82 -3.8039 2.17337 0
M  V30 16539 C 1585.32 -4.40761 0.473818 0
M  V30 16540 H 1582.54 -0.633015 0.22256 0
M  V30 16541 H 1585.08 -1.62043 1.2475 0
M  V30 16542 H 1583.24 -3.86914 0.193963 0
M  V30 16543 H 1583.65 -4.74968 2.22498 0
M  V30 16544 H 1585.13 -5.47824 0.677736 0
M  V30 16545 H 1585.6 -4.35209 -0.590734 0
M  V30 16546 H 1586.21 -4.11751 1.06493 0
M  V30 16547 N 1584.52 -0.695628 -1.41417 0
M  V30 16548 C 1585.45 -0.0447013 -2.33457 0
M  V30 16549 C 1586.43 0.767104 -1.51821 0
M  V30 16550 O 1587.62 0.720066 -1.80357 0
M  V30 16551 C 1584.75 0.892353 -3.3564 0
M  V30 16552 C 1583.7 0.187638 -4.27588 0
M  V30 16553 C 1583.03 1.23906 -5.20146 0
M  V30 16554 C 1584.33 -0.946093 -5.1366 0
M  V30 16555 H 1586.02 -0.81343 -2.88138 0
M  V30 16556 H 1583.57 -0.392614 -1.38544 0
M  V30 16557 H 1585.52 1.35696 -3.98954 0
M  V30 16558 H 1584.25 1.69275 -2.79309 0
M  V30 16559 H 1582.91 -0.256942 -3.65698 0
M  V30 16560 H 1582.55 2.03198 -4.6013 0
M  V30 16561 H 1582.25 0.772536 -5.82499 0
M  V30 16562 H 1583.78 1.70417 -5.86336 0
M  V30 16563 H 1585.19 -0.561764 -5.70541 0
M  V30 16564 H 1583.59 -1.33971 -5.84954 0
M  V30 16565 H 1584.66 -1.78573 -4.50821 0
M  V30 16566 N 1586 1.51322 -0.440383 0
M  V30 16567 C 1587.25 2.02413 0.125248 0
M  V30 16568 C 1587.58 1.32374 1.42094 0
M  V30 16569 O 1586.86 0.439624 1.89467 0
M  V30 16570 C 1587.14 3.58483 0.340858 0
M  V30 16571 C 1586.99 4.39134 -0.973701 0
M  V30 16572 C 1588.31 4.25891 1.10927 0
M  V30 16573 H 1585.43 0.735683 0.0440452 0
M  V30 16574 H 1588.07 1.80932 -0.579976 0
M  V30 16575 H 1586.22 3.76917 0.941572 0
M  V30 16576 H 1587.89 4.32343 -1.60863 0
M  V30 16577 H 1586.14 4.04097 -1.57759 0
M  V30 16578 H 1586.81 5.46506 -0.776845 0
M  V30 16579 H 1589.28 4.11746 0.600403 0
M  V30 16580 H 1588.16 5.34967 1.2289 0
M  V30 16581 H 1588.42 3.86958 2.13813 0
M  V30 16582 N 1587.48 0.171848 1.5666 0
M  V30 16583 C 1588.89 -0.34479 1.83489 0
M  V30 16584 C 1589.24 -1.63025 1.09167 0
M  V30 16585 O 1588.37 -2.13634 0.34488 0
M  V30 16586 C 1588.96 -0.63234 3.32847 0
M  V30 16587 C 1587.52 -1.09342 3.60169 0
M  V30 16588 C 1586.67 -0.129569 2.76997 0
M  V30 16589 H 1589.62 0.396101 1.53677 0
M  V30 16590 H 1589.64 -1.48434 3.50354 0
M  V30 16591 H 1589.15 0.303409 3.86912 0
M  V30 16592 H 1587.25 -2.04425 3.11514 0
M  V30 16593 H 1587.37 -1.00221 4.685 0
M  V30 16594 H 1585.73 -0.627033 2.46861 0
M  V30 16595 H 1586.51 0.800211 3.33844 0
M  V30 16596 N 1588.96 -1.5727 -0.101874 0
M  V30 16597 C 1590.37 -1.74753 -0.657147 0
M  V30 16598 C 1590.72 -0.793052 -1.79458 0
M  V30 16599 O 1589.84 0.0300559 -2.16379 0
M  V30 16600 C 1590.44 -3.1688 -1.19885 0
M  V30 16601 C 1589 -3.3581 -1.70025 0
M  V30 16602 C 1588.15 -2.70575 -0.607007 0
M  V30 16603 H 1591.1 -1.58214 0.124158 0
M  V30 16604 H 1591.12 -3.19378 -2.06829 0
M  V30 16605 H 1590.63 -3.86325 -0.37079 0
M  V30 16606 H 1588.73 -2.71434 -2.55253 0
M  V30 16607 H 1588.84 -4.44086 -1.79791 0
M  V30 16608 H 1587.21 -2.32284 -1.04481 0
M  V30 16609 H 1587.99 -3.42655 0.21036 0
M  V30 16610 N 1590.44 0.372521 -1.53134 0
M  V30 16611 C 1591.4 1.43875 -1.78417 0
M  V30 16612 C 1592.4 1.46879 -0.654455 0
M  V30 16613 O 1593.59 1.47761 -0.922619 0
M  V30 16614 C 1590.72 2.83046 -1.89994 0
M  V30 16615 H 1591.91 1.22733 -2.73636 0
M  V30 16616 H 1589.47 0.605247 -1.44106 0
M  V30 16617 H 1590.2 3.09511 -0.968179 0
M  V30 16618 H 1589.99 2.82265 -2.72156 0
M  V30 16619 H 1591.48 3.60273 -2.11171 0
M  V30 16620 N 1591.91 1.44376 0.631925 0
M  V30 16621 C 1593.14 1.5038 1.41667 0
M  V30 16622 C 1593.55 0.12709 1.88773 0
M  V30 16623 O 1592.89 -0.877119 1.61407 0
M  V30 16624 C 1592.96 2.40602 2.67116 0
M  V30 16625 C 1592.62 3.87784 2.41812 0
M  V30 16626 C 1593.62 4.78337 2.0369 0
M  V30 16627 C 1591.3 4.32478 2.55476 0
M  V30 16628 C 1593.3 6.11586 1.7956 0
M  V30 16629 C 1590.98 5.65774 2.30961 0
M  V30 16630 C 1591.98 6.55146 1.93061 0
M  V30 16631 O 1591.67 7.85974 1.68818 0
M  V30 16632 H 1591.4 0.5124 0.440933 0
M  V30 16633 H 1593.96 1.9001 0.780096 0
M  V30 16634 H 1592.19 1.95898 3.33408 0
M  V30 16635 H 1593.87 2.37564 3.29117 0
M  V30 16636 H 1594.64 4.45079 1.92691 0
M  V30 16637 H 1590.52 3.63174 2.83946 0
M  V30 16638 H 1594.06 6.81304 1.49903 0
M  V30 16639 H 1589.96 5.98594 2.4157 0
M  V30 16640 H 1590.73 7.97764 1.8307 0
M  V30 16641 N 1593.39 -0.872258 1.31261 0
M  V30 16642 C 1594.62 -1.6632 1.23905 0
M  V30 16643 C 1595.04 -1.87109 -0.192878 0
M  V30 16644 O 1594.4 -1.4112 -1.1382 0
M  V30 16645 C 1594.45 -3.00979 1.98606 0
M  V30 16646 O 1593.55 -3.90642 1.32183 0
M  V30 16647 H 1592.89 -0.507736 0.427902 0
M  V30 16648 H 1595.42 -1.0877 1.73292 0
M  V30 16649 H 1595.43 -3.50931 2.08113 0
M  V30 16650 H 1594.11 -2.85168 3.02741 0
M  V30 16651 H 1592.68 -3.4909 1.31112 0
M  V30 16652 N 1594.87 -1.14184 -1.08627 0
M  V30 16653 C 1595.83 -0.82954 -2.13662 0
M  V30 16654 C 1596.83 0.164794 -1.59953 0
M  V30 16655 O 1598.02 -0.0632831 -1.74085 0
M  V30 16656 C 1595.15 -0.236176 -3.40081 0
M  V30 16657 H 1596.35 -1.76038 -2.42797 0
M  V30 16658 H 1593.9 -0.947568 -1.24301 0
M  V30 16659 H 1594.64 0.70349 -3.16578 0
M  V30 16660 H 1594.42 -0.952341 -3.80359 0
M  V30 16661 H 1595.91 -0.03481 -4.17585 0
M  V30 16662 N 1596.35 1.26749 -0.936613 0
M  V30 16663 C 1597.59 1.94251 -0.582616 0
M  V30 16664 C 1597.93 1.73352 0.875361 0
M  V30 16665 O 1597.2 1.06784 1.62565 0
M  V30 16666 C 1597.49 3.48145 -0.920151 0
M  V30 16667 C 1597.34 3.78349 -2.43253 0
M  V30 16668 C 1598.66 4.37971 -0.432326 0
M  V30 16669 H 1595.78 0.705507 -0.213141 0
M  V30 16670 H 1598.42 1.49703 -1.17001 0
M  V30 16671 H 1596.57 3.8622 -0.420279 0
M  V30 16672 H 1598.24 3.50015 -3.00478 0
M  V30 16673 H 1596.48 3.24586 -2.87795 0
M  V30 16674 H 1597.15 4.85902 -2.61922 0
M  V30 16675 H 1599.63 4.07098 -0.860857 0
M  V30 16676 H 1598.51 5.44452 -0.697366 0
M  V30 16677 H 1598.77 4.37029 0.667694 0
M  V30 16678 N 1597.83 0.703118 1.41046 0
M  V30 16679 C 1599.05 0.246552 2.05426 0
M  V30 16680 C 1599.47 -1.10704 1.52938 0
M  V30 16681 O 1598.83 -1.69329 0.680733 0
M  V30 16682 C 1598.88 0.203953 3.60924 0
M  V30 16683 O 1598.6 1.50408 4.11472 0
M  V30 16684 C 1600.1 -0.272686 4.42461 0
M  V30 16685 H 1597.32 0.113157 0.66139 0
M  V30 16686 H 1599.86 0.957823 1.80682 0
M  V30 16687 H 1598.02 -0.458194 3.84681 0
M  V30 16688 H 1598.43 1.39622 5.05575 0
M  V30 16689 H 1599.91 -0.251357 5.51427 0
M  V30 16690 H 1600.38 -1.31282 4.1912 0
M  V30 16691 H 1600.99 0.358733 4.23784 0
M  V30 16692 N 1599.3 -1.51086 0.448402 0
M  V30 16693 C 1600.53 -2.06593 -0.112695 0
M  V30 16694 C 1600.95 -1.31471 -1.35502 0
M  V30 16695 O 1600.3 -0.377406 -1.78555 0
M  V30 16696 C 1600.36 -3.59008 -0.423769 0
M  V30 16697 O 1600.08 -4.31293 0.769259 0
M  V30 16698 C 1601.58 -4.31064 -1.03433 0
M  V30 16699 H 1598.8 -0.670993 -0.00301626 0
M  V30 16700 H 1601.34 -1.94532 0.630667 0
M  V30 16701 H 1599.5 -3.70946 -1.11704 0
M  V30 16702 H 1599.91 -5.2211 0.500162 0
M  V30 16703 H 1601.38 -5.38756 -1.20191 0
M  V30 16704 H 1601.86 -3.90075 -2.01837 0
M  V30 16705 H 1602.47 -4.23598 -0.380115 0
M  V30 16706 N 1600.78 -0.180154 -1.56567 0
M  V30 16707 C 1602.19 0.335054 -1.83669 0
M  V30 16708 C 1602.54 1.62443 -1.1003 0
M  V30 16709 O 1601.67 2.13448 -0.356205 0
M  V30 16710 C 1602.26 0.61468 -3.33177 0
M  V30 16711 C 1600.82 1.0743 -3.60743 0
M  V30 16712 C 1599.97 0.114877 -2.77062 0
M  V30 16713 H 1602.92 -0.404245 -1.53465 0
M  V30 16714 H 1602.94 1.46574 -3.51136 0
M  V30 16715 H 1602.45 -0.323923 -3.86746 0
M  V30 16716 H 1600.56 2.0277 -3.12594 0
M  V30 16717 H 1600.67 0.977349 -4.69025 0
M  V30 16718 H 1599.03 0.613933 -2.4719 0
M  V30 16719 H 1599.82 -0.817904 -3.33414 0
M  V30 16720 N 1602.26 1.57322 0.0935319 0
M  V30 16721 C 1603.51 1.858 0.795165 0
M  V30 16722 C 1603.83 0.769078 1.79193 0
M  V30 16723 O 1603.1 -0.204511 1.9483 0
M  V30 16724 H 1601.68 0.68557 0.296653 0
M  V30 16725 H 1604.34 1.94756 0.0747892 0
M  V30 16726 H 1603.44 2.82588 1.32479 0
M  V30 16727 N 1603.74 -0.364395 1.53329 0
M  V30 16728 C 1605.15 -0.941133 1.61244 0
M  V30 16729 C 1605.5 -1.90223 0.480596 0
M  V30 16730 O 1604.63 -2.12805 -0.392805 0
M  V30 16731 C 1605.22 -1.7137 2.92263 0
M  V30 16732 C 1603.78 -2.23976 3.02509 0
M  V30 16733 C 1602.93 -1.05253 2.56548 0
M  V30 16734 H 1605.88 -0.143153 1.58053 0
M  V30 16735 H 1605.9 -2.575 2.80132 0
M  V30 16736 H 1605.41 -1.01395 3.74621 0
M  V30 16737 H 1603.51 -2.9719 2.24741 0
M  V30 16738 H 1603.62 -2.51777 4.07609 0
M  V30 16739 H 1601.99 -1.41986 2.11452 0
M  V30 16740 H 1602.77 -0.367744 3.41325 0
M  V30 16741 N 1605.22 -1.44709 -0.62426 0
M  V30 16742 C 1606.46 -1.47561 -1.38094 0
M  V30 16743 C 1606.79 -0.112115 -1.94677 0
M  V30 16744 O 1606.06 0.856458 -1.76186 0
M  V30 16745 H 1604.64 -0.543368 -0.512601 0
M  V30 16746 H 1607.3 -1.8054 -0.734258 0
M  V30 16747 H 1606.39 -2.20496 -2.2088 0
M  V30 16748 N 1606.69 0.865285 -1.31722 0
M  V30 16749 C 1608.11 1.43445 -1.195 0
M  V30 16750 C 1608.46 1.95212 0.196688 0
M  V30 16751 O 1607.58 1.86666 1.09475 0
M  V30 16752 C 1608.18 2.6074 -2.16333 0
M  V30 16753 C 1606.74 3.13688 -2.08031 0
M  V30 16754 C 1605.88 1.86409 -2.05298 0
M  V30 16755 H 1608.83 0.6734 -1.43705 0
M  V30 16756 H 1608.85 3.37575 -1.75566 0
M  V30 16757 H 1608.37 2.23033 -3.17612 0
M  V30 16758 H 1606.47 3.56004 -1.09962 0
M  V30 16759 H 1606.58 3.75653 -2.97358 0
M  V30 16760 H 1604.94 2.05567 -1.50381 0
M  V30 16761 H 1605.73 1.50933 -3.08341 0
M  V30 16762 N 1608.17 1.14759 1.0802 0
M  V30 16763 C 1609.4 0.941887 1.84218 0
M  V30 16764 C 1609.82 -0.509702 1.8179 0
M  V30 16765 O 1609.17 -1.35331 1.22441 0
M  V30 16766 C 1609.22 1.43978 3.31591 0
M  V30 16767 O 1608.94 2.83449 3.34048 0
M  V30 16768 C 1610.45 1.27459 4.24581 0
M  V30 16769 H 1607.67 0.334942 0.581425 0
M  V30 16770 H 1610.21 1.52367 1.36399 0
M  V30 16771 H 1608.36 0.900674 3.76785 0
M  V30 16772 H 1608.78 3.05878 4.26073 0
M  V30 16773 H 1610.25 1.67151 5.26084 0
M  V30 16774 H 1610.73 0.217925 4.38659 0
M  V30 16775 H 1611.34 1.80243 3.85217 0
M  V30 16776 N 1609.65 -1.26251 0.943322 0
M  V30 16777 C 1610.88 -1.98278 0.608341 0
M  V30 16778 C 1611.3 -1.69756 -0.810208 0
M  V30 16779 O 1610.66 -0.946846 -1.54611 0
M  V30 16780 C 1610.71 -3.50205 0.859591 0
M  V30 16781 O 1609.81 -4.12345 -0.0672371 0
M  V30 16782 H 1609.15 -0.621973 0.232477 0
M  V30 16783 H 1611.68 -1.60662 1.26684 0
M  V30 16784 H 1611.69 -4.00449 0.781341 0
M  V30 16785 H 1610.37 -3.70294 1.89354 0
M  V30 16786 H 1608.94 -3.72848 0.0622543 0
M  V30 16787 N 1611.13 -0.710588 -1.40671 0
M  V30 16788 C 1612.36 -0.257442 -2.05292 0
M  V30 16789 C 1612.77 1.09891 -1.53523 0
M  V30 16790 O 1612.13 1.68966 -0.689703 0
M  V30 16791 C 1612.18 -0.223091 -3.60811 0
M  V30 16792 O 1611.9 -1.52588 -4.10668 0
M  V30 16793 C 1613.4 0.249217 -4.42599 0
M  V30 16794 H 1610.62 -0.116663 -0.66078 0
M  V30 16795 H 1613.17 -0.967391 -1.80172 0
M  V30 16796 H 1611.32 0.437787 -3.84918 0
M  V30 16797 H 1611.74 -1.42301 -5.04827 0
M  V30 16798 H 1613.21 0.22211 -5.51553 0
M  V30 16799 H 1613.69 1.29057 -4.19811 0
M  V30 16800 H 1614.29 -0.381202 -4.23588 0
M  V30 16801 N 1612.61 1.50847 -0.456408 0
M  V30 16802 C 1613.83 2.07139 0.104054 0
M  V30 16803 C 1614.26 1.31966 1.34039 0
M  V30 16804 O 1613.62 0.363038 1.77628 0
M  V30 16805 C 1613.66 3.5853 0.385794 0
M  V30 16806 O 1612.77 3.85351 1.46895 0
M  V30 16807 H 1612.11 0.663968 -0.00651246 0
M  V30 16808 H 1614.64 1.94226 -0.64323 0
M  V30 16809 H 1614.65 4.03097 0.630644 0
M  V30 16810 H 1613.32 4.12665 -0.51773 0
M  V30 16811 H 1611.9 3.52635 1.21256 0
M  V30 16812 N 1614.09 0.188454 1.56469 0
M  V30 16813 C 1615.5 -0.325309 1.83844 0
M  V30 16814 C 1615.85 -1.61858 1.1089 0
M  V30 16815 O 1614.97 -2.13256 0.36752 0
M  V30 16816 C 1615.57 -0.597002 3.33499 0
M  V30 16817 C 1614.13 -1.05515 3.61308 0
M  V30 16818 C 1613.27 -0.100182 2.77119 0
M  V30 16819 H 1616.22 0.412378 1.53249 0
M  V30 16820 H 1616.25 -1.44709 3.51908 0
M  V30 16821 H 1615.76 0.344429 3.86569 0
M  V30 16822 H 1613.86 -2.01109 3.13665 0
M  V30 16823 H 1613.97 -0.952461 4.69537 0
M  V30 16824 H 1612.34 -0.600815 2.47512 0
M  V30 16825 H 1613.12 0.835574 3.32976 0
M  V30 16826 N 1615.56 -1.5737 -0.0851874 0
M  V30 16827 C 1616.49 -2.05796 -1.10319 0
M  V30 16828 C 1617.47 -0.948796 -1.4118 0
M  V30 16829 O 1618.66 -1.22069 -1.51039 0
M  V30 16830 C 1615.79 -2.49069 -2.42037 0
M  V30 16831 C 1614.74 -3.6374 -2.25561 0
M  V30 16832 C 1614.07 -3.93023 -3.62543 0
M  V30 16833 C 1615.37 -4.94274 -1.68793 0
M  V30 16834 H 1617.06 -2.91095 -0.700274 0
M  V30 16835 H 1614.61 -1.40039 -0.335405 0
M  V30 16836 H 1616.56 -2.81558 -3.13534 0
M  V30 16837 H 1615.29 -1.60781 -2.84283 0
M  V30 16838 H 1613.95 -3.31513 -1.56507 0
M  V30 16839 H 1613.59 -3.01887 -4.02335 0
M  V30 16840 H 1613.29 -4.70229 -3.52362 0
M  V30 16841 H 1614.82 -4.27995 -4.35491 0
M  V30 16842 H 1616.23 -5.25079 -2.30141 0
M  V30 16843 H 1614.63 -5.75711 -1.69344 0
M  V30 16844 H 1615.7 -4.80548 -0.648204 0
M  V30 16845 N 1617.04 0.356258 -1.53521 0
M  V30 16846 C 1617.97 1.44271 -1.83598 0
M  V30 16847 C 1618.95 1.5547 -0.690141 0
M  V30 16848 O 1620.14 1.69886 -0.940868 0
M  V30 16849 C 1617.27 2.8149 -2.03422 0
M  V30 16850 C 1616.22 2.85108 -3.19213 0
M  V30 16851 C 1615.55 4.25091 -3.24348 0
M  V30 16852 C 1616.85 2.51788 -4.57602 0
M  V30 16853 H 1618.54 1.1935 -2.74583 0
M  V30 16854 H 1616.09 0.572707 -1.32121 0
M  V30 16855 H 1618.04 3.57531 -2.23046 0
M  V30 16856 H 1616.76 3.07819 -1.09155 0
M  V30 16857 H 1615.42 2.1152 -2.99424 0
M  V30 16858 H 1615.07 4.4851 -2.277 0
M  V30 16859 H 1614.77 4.28426 -4.0215 0
M  V30 16860 H 1616.3 5.02992 -3.46167 0
M  V30 16861 H 1617.71 3.17542 -4.77326 0
M  V30 16862 H 1616.11 2.66426 -5.37715 0
M  V30 16863 H 1617.18 1.4701 -4.62078 0
M  V30 16864 N 1618.52 1.45038 0.616577 0
M  V30 16865 C 1619.93 1.4316 1.19842 0
M  V30 16866 C 1620.28 0.154504 1.95591 0
M  V30 16867 O 1619.41 -0.744409 2.03193 0
M  V30 16868 C 1620 2.59354 2.17993 0
M  V30 16869 C 1618.56 2.60625 2.71573 0
M  V30 16870 C 1617.71 2.35243 1.4682 0
M  V30 16871 H 1620.66 1.53408 0.406402 0
M  V30 16872 H 1620.68 2.32939 3.00865 0
M  V30 16873 H 1620.19 3.52288 1.62833 0
M  V30 16874 H 1618.29 1.71672 3.30695 0
M  V30 16875 H 1618.41 3.59568 3.16619 0
M  V30 16876 H 1616.77 1.84622 1.75462 0
M  V30 16877 H 1617.55 3.3031 0.935414 0
M  V30 16878 N 1620 -0.858287 1.32179 0
M  V30 16879 C 1621.24 -1.6146 1.22713 0
M  V30 16880 C 1621.58 -1.93045 -0.211479 0
M  V30 16881 O 1620.85 -1.57034 -1.14764 0
M  V30 16882 C 1621.13 -2.93728 2.08317 0
M  V30 16883 C 1620.99 -2.68947 3.60538 0
M  V30 16884 C 1622.31 -3.94959 1.94153 0
M  V30 16885 H 1619.43 -0.585872 0.447128 0
M  V30 16886 H 1622.07 -0.99134 1.62088 0
M  V30 16887 H 1620.22 -3.4692 1.74867 0
M  V30 16888 H 1621.89 -2.22336 4.04183 0
M  V30 16889 H 1620.13 -2.02974 3.83385 0
M  V30 16890 H 1620.8 -3.63112 4.15756 0
M  V30 16891 H 1623.28 -3.51013 2.23449 0
M  V30 16892 H 1622.16 -4.85371 2.56332 0
M  V30 16893 H 1622.42 -4.32672 0.908132 0
M  V30 16894 N 1621.48 -1.1533 -1.07409 0
M  V30 16895 C 1622.7 -0.952101 -1.84255 0
M  V30 16896 C 1623.13 0.494571 -1.81482 0
M  V30 16897 O 1622.48 1.35253 -1.20733 0
M  V30 16898 C 1622.53 -1.47019 -3.29268 0
M  V30 16899 O 1621.64 -0.669005 -4.06937 0
M  V30 16900 H 1620.98 -0.339643 -0.57056 0
M  V30 16901 H 1623.51 -1.53298 -1.35502 0
M  V30 16902 H 1623.52 -1.48278 -3.80102 0
M  V30 16903 H 1622.19 -2.5234 -3.30602 0
M  V30 16904 H 1620.77 -0.726003 -3.65764 0
M  V30 16905 N 1622.95 1.25748 -0.950004 0
M  V30 16906 C 1624.36 1.75253 -0.643694 0
M  V30 16907 C 1624.72 1.77261 0.841017 0
M  V30 16908 O 1623.84 1.39043 1.65819 0
M  V30 16909 C 1624.44 3.1826 -1.16173 0
M  V30 16910 C 1622.99 3.65342 -0.905672 0
M  V30 16911 C 1622.14 2.4454 -1.30749 0
M  V30 16912 H 1625.09 1.117 -1.12733 0
M  V30 16913 H 1625.11 3.76935 -0.519651 0
M  V30 16914 H 1624.63 3.16766 -2.24234 0
M  V30 16915 H 1622.73 3.72256 0.160174 0
M  V30 16916 H 1622.84 4.53713 -1.53888 0
M  V30 16917 H 1621.2 2.44138 -0.725876 0
M  V30 16918 H 1621.99 2.45741 -2.39721 0
M  V30 16919 N 1624.43 0.718038 1.40292 0
M  V30 16920 C 1625.36 0.0818367 2.33357 0
M  V30 16921 C 1626.34 -0.742854 1.53022 0
M  V30 16922 O 1627.53 -0.691281 1.8148 0
M  V30 16923 C 1624.66 -0.838843 3.37017 0
M  V30 16924 C 1623.61 -0.119589 4.27833 0
M  V30 16925 C 1622.94 -1.15615 5.22051 0
M  V30 16926 C 1624.24 1.02769 5.1209 0
M  V30 16927 H 1625.93 0.859167 2.86808 0
M  V30 16928 H 1623.48 0.414606 1.37902 0
M  V30 16929 H 1625.43 -1.29332 4.01063 0
M  V30 16930 H 1624.15 -1.6481 2.81967 0
M  V30 16931 H 1622.81 0.315088 3.65243 0
M  V30 16932 H 1622.46 -1.95852 4.63304 0
M  V30 16933 H 1622.16 -0.679767 5.83655 0
M  V30 16934 H 1623.69 -1.61068 5.88973 0
M  V30 16935 H 1625.1 0.652461 5.69575 0
M  V30 16936 H 1623.5 1.4326 5.82749 0
M  V30 16937 H 1624.57 1.85723 4.47923 0
M  V30 16938 N 1625.91 -1.50602 0.464402 0
M  V30 16939 C 1627.32 -1.86698 0.00767586 0
M  V30 16940 C 1627.67 -1.37971 -1.39494 0
M  V30 16941 O 1626.8 -0.741843 -2.03287 0
M  V30 16942 C 1627.39 -3.38799 0.00715323 0
M  V30 16943 C 1625.95 -3.74331 -0.394077 0
M  V30 16944 C 1625.1 -2.74465 0.395495 0
M  V30 16945 H 1628.05 -1.43441 0.678996 0
M  V30 16946 H 1628.07 -3.7207 -0.796497 0
M  V30 16947 H 1627.58 -3.74234 1.02812 0
M  V30 16948 H 1625.68 -3.44495 -1.41964 0
M  V30 16949 H 1625.8 -4.78995 -0.10007 0
M  V30 16950 H 1624.16 -2.54258 -0.149903 0
M  V30 16951 H 1624.94 -3.12744 1.41585 0
M  V30 16952 N 1627.39 -0.19675 -1.56367 0
M  V30 16953 C 1628.62 0.447139 -2.02011 0
M  V30 16954 C 1629.03 1.55077 -1.07687 0
M  V30 16955 O 1628.39 1.82316 -0.0820316 0
M  V30 16956 C 1628.44 1.00192 -3.47338 0
M  V30 16957 O 1628.16 -0.0576859 -4.38062 0
M  V30 16958 C 1629.66 1.72152 -4.08508 0
M  V30 16959 H 1626.88 0.112088 -0.661572 0
M  V30 16960 H 1629.43 -0.30594 -2.02199 0
M  V30 16961 H 1627.58 1.70537 -3.47844 0
M  V30 16962 H 1627.99 0.355508 -5.23294 0
M  V30 16963 H 1629.47 2.06199 -5.12041 0
M  V30 16964 H 1629.95 2.62581 -3.52062 0
M  V30 16965 H 1630.55 1.06388 -4.11779 0
M  V30 16966 N 1628.87 1.57413 0.0768405 0
M  V30 16967 C 1629.8 2.06378 1.09226 0
M  V30 16968 C 1630.78 0.956269 1.40675 0
M  V30 16969 O 1631.96 1.22868 1.5039 0
M  V30 16970 C 1629.09 2.50349 2.40712 0
M  V30 16971 C 1628.05 3.64931 2.23628 0
M  V30 16972 C 1627.37 3.9494 3.60453 0
M  V30 16973 C 1628.67 4.95162 1.66169 0
M  V30 16974 H 1630.37 2.91463 0.684827 0
M  V30 16975 H 1627.91 1.40215 0.327974 0
M  V30 16976 H 1629.87 2.83216 3.12036 0
M  V30 16977 H 1628.59 1.62287 2.83426 0
M  V30 16978 H 1627.25 3.32339 1.54747 0
M  V30 16979 H 1626.9 3.04016 4.00728 0
M  V30 16980 H 1626.6 4.72091 3.49863 0
M  V30 16981 H 1628.12 4.30299 4.33215 0
M  V30 16982 H 1629.53 5.26292 2.27353 0
M  V30 16983 H 1627.93 5.76601 1.66289 0
M  V30 16984 H 1629 4.80885 0.62271 0
M  V30 16985 N 1630.34 -0.348112 1.53707 0
M  V30 16986 C 1631.57 -1.10903 1.74666 0
M  V30 16987 C 1631.99 -1.82499 0.483683 0
M  V30 16988 O 1631.34 -1.74191 -0.544419 0
M  V30 16989 C 1631.4 -2.12602 2.92374 0
M  V30 16990 O 1631.12 -1.43918 4.13787 0
M  V30 16991 C 1632.62 -3.01105 3.25347 0
M  V30 16992 H 1629.84 -0.330911 0.583728 0
M  V30 16993 H 1632.38 -0.401707 2.00516 0
M  V30 16994 H 1630.54 -2.78906 2.68869 0
M  V30 16995 H 1630.95 -2.11818 4.79826 0
M  V30 16996 H 1632.42 -3.68408 4.11071 0
M  V30 16997 H 1632.9 -3.66874 2.41455 0
M  V30 16998 H 1633.51 -2.40395 3.50842 0
M  V30 16999 N 1631.82 -1.45363 -0.608876 0
M  V30 17000 C 1632.75 -1.56778 -1.7304 0
M  V30 17001 C 1633.73 -0.419405 -1.64848 0
M  V30 17002 O 1634.92 -0.64238 -1.83268 0
M  V30 17003 C 1632.05 -1.5329 -3.1164 0
M  V30 17004 C 1631 -2.66832 -3.34641 0
M  V30 17005 C 1630.33 -2.48398 -4.735 0
M  V30 17006 C 1631.63 -4.0885 -3.25021 0
M  V30 17007 H 1633.32 -2.50656 -1.63743 0
M  V30 17008 H 1630.87 -1.20635 -0.786338 0
M  V30 17009 H 1632.82 -1.59873 -3.89895 0
M  V30 17010 H 1631.55 -0.559414 -3.21773 0
M  V30 17011 H 1630.2 -2.59675 -2.58775 0
M  V30 17012 H 1629.85 -1.49191 -4.80366 0
M  V30 17013 H 1629.55 -3.24537 -4.89846 0
M  V30 17014 H 1631.08 -2.56833 -5.53958 0
M  V30 17015 H 1632.49 -4.17257 -3.93153 0
M  V30 17016 H 1630.89 -4.85369 -3.52897 0
M  V30 17017 H 1631.96 -4.30849 -2.2248 0
M  V30 17018 N 1633.3 0.851265 -1.32632 0
M  V30 17019 C 1634.58 1.58945 -1.13999 0
M  V30 17020 C 1634.96 2.08981 0.29836 0
M  V30 17021 O 1634.31 1.88226 1.2955 0
M  V30 17022 C 1634.52 2.73296 -2.17049 0
M  V30 17023 C 1635.86 3.42791 -2.50559 0
M  V30 17024 O 1636.89 2.83524 -2.15621 0
M  V30 17025 O 1635.75 4.49749 -3.10464 0
M  V30 17026 H 1632.84 0.700157 -0.440124 0
M  V30 17027 H 1635.39 0.895098 -1.44174 0
M  V30 17028 H 1634.16 2.33873 -3.13718 0
M  V30 17029 H 1633.78 3.50405 -1.87888 0
M  V30 17030 N 1634.78 1.15898 1.06796 0
M  V30 17031 C 1636 0.961859 1.83747 0
M  V30 17032 C 1636.43 -0.48494 1.81741 0
M  V30 17033 O 1635.79 -1.3461 1.21449 0
M  V30 17034 C 1635.83 1.48764 3.28484 0
M  V30 17035 O 1634.94 0.690576 4.06577 0
M  V30 17036 H 1634.28 0.342664 0.568751 0
M  V30 17037 H 1636.81 1.54015 1.34687 0
M  V30 17038 H 1636.82 1.50291 3.79311 0
M  V30 17039 H 1635.49 2.54089 3.29259 0
M  V30 17040 H 1634.07 0.74539 3.65374 0
M  V30 17041 N 1636.26 -1.25243 0.956659 0
M  V30 17042 C 1637.19 -2.28159 0.496574 0
M  V30 17043 C 1638.17 -1.63814 -0.458132 0
M  V30 17044 O 1639.35 -1.90897 -0.356648 0
M  V30 17045 C 1636.48 -3.46573 -0.22454 0
M  V30 17046 C 1635.44 -4.2311 0.645104 0
M  V30 17047 C 1634.76 -5.343 -0.206867 0
M  V30 17048 C 1636.06 -4.85562 1.92422 0
M  V30 17049 H 1637.76 -2.66895 1.35675 0
M  V30 17050 H 1635.3 -1.28301 0.653827 0
M  V30 17051 H 1637.26 -4.17695 -0.55755 0
M  V30 17052 H 1635.98 -3.06833 -1.11898 0
M  V30 17053 H 1634.64 -3.53774 0.961228 0
M  V30 17054 H 1634.29 -4.908 -1.10112 0
M  V30 17055 H 1633.99 -5.86423 0.371714 0
M  V30 17056 H 1635.51 -6.08253 -0.534798 0
M  V30 17057 H 1636.92 -5.48817 1.65749 0
M  V30 17058 H 1635.32 -5.47871 2.44862 0
M  V30 17059 H 1636.39 -4.07634 2.62607 0
M  V30 17060 N 1637.73 -0.725468 -1.3991 0
M  V30 17061 C 1638.96 -0.277821 -2.05531 0
M  V30 17062 C 1639.38 1.07547 -1.54322 0
M  V30 17063 O 1638.74 1.6795 -0.682828 0
M  V30 17064 C 1638.79 -0.278676 -3.59522 0
M  V30 17065 O 1637.89 0.736864 -4.05764 0
M  V30 17066 H 1637.24 -0.128243 -0.651498 0
M  V30 17067 H 1639.77 -0.988721 -1.79124 0
M  V30 17068 H 1639.78 -0.119765 -4.07824 0
M  V30 17069 H 1638.45 -1.2662 -3.96157 0
M  V30 17070 H 1637.03 0.544869 -3.68898 0
M  V30 17071 N 1639.21 1.50354 -0.472382 0
M  V30 17072 C 1640.14 2.26396 0.357429 0
M  V30 17073 C 1641.16 1.31778 0.955949 0
M  V30 17074 O 1642.35 1.57279 0.844136 0
M  V30 17075 C 1639.45 3.03131 1.51542 0
M  V30 17076 C 1638.62 4.25113 1.02945 0
M  V30 17077 C 1637.68 4.84131 2.06164 0
M  V30 17078 O 1636.7 5.4501 1.64174 0
M  V30 17079 N 1637.91 4.71244 3.38983 0
M  V30 17080 H 1640.67 2.9825 -0.294473 0
M  V30 17081 H 1638.23 1.59035 -0.303242 0
M  V30 17082 H 1640.22 3.39492 2.20289 0
M  V30 17083 H 1638.79 2.34067 2.07199 0
M  V30 17084 H 1638.01 3.93843 0.167821 0
M  V30 17085 H 1639.3 5.04199 0.682705 0
M  V30 17086 H 1638.7 4.22831 3.75807 0
M  V30 17087 H 1637.26 5.11871 4.03524 0
M  V30 17088 N 1640.69 0.205039 1.56261 0
M  V30 17089 C 1641.94 -0.431735 1.98151 0
M  V30 17090 C 1642.27 -1.60579 1.09215 0
M  V30 17091 O 1641.55 -1.93949 0.146257 0
M  V30 17092 C 1641.83 -0.882278 3.49124 0
M  V30 17093 C 1641.68 0.294278 4.48836 0
M  V30 17094 C 1643 -1.7443 4.04057 0
M  V30 17095 H 1640.12 -0.155457 0.720418 0
M  V30 17096 H 1642.76 0.29796 1.87649 0
M  V30 17097 H 1640.91 -1.50404 3.58205 0
M  V30 17098 H 1642.58 0.932148 4.51784 0
M  V30 17099 H 1640.83 0.94444 4.23394 0
M  V30 17100 H 1641.5 -0.063639 5.51963 0
M  V30 17101 H 1643.97 -1.21983 3.97818 0
M  V30 17102 H 1642.85 -2.02848 5.10043 0
M  V30 17103 H 1643.11 -2.70195 3.49924 0
M  V30 17104 N 1642.17 -1.57451 -0.0684915 0
M  V30 17105 C 1643.39 -1.92025 -0.78366 0
M  V30 17106 C 1643.82 -0.801743 -1.70158 0
M  V30 17107 O 1643.18 0.245227 -1.79634 0
M  V30 17108 C 1643.23 -3.25563 -1.55051 0
M  V30 17109 O 1642.33 -3.15029 -2.6614 0
M  V30 17110 H 1641.67 -0.628714 -0.213576 0
M  V30 17111 H 1644.2 -2.04569 -0.0357474 0
M  V30 17112 H 1644.21 -3.59516 -1.92905 0
M  V30 17113 H 1642.89 -4.06547 -0.87704 0
M  V30 17114 H 1641.46 -2.9264 -2.31119 0
M  V30 17115 N 1643.65 0.339955 -1.5389 0
M  V30 17116 C 1644.58 1.43837 -1.78448 0
M  V30 17117 C 1645.59 1.48559 -0.665885 0
M  V30 17118 O 1646.78 1.51577 -0.942686 0
M  V30 17119 C 1643.88 2.82474 -1.87248 0
M  V30 17120 C 1643.05 3.01149 -3.17219 0
M  V30 17121 C 1642.11 4.20049 -3.16931 0
M  V30 17122 O 1641.14 4.13994 -3.90638 0
M  V30 17123 N 1642.34 5.28767 -2.39553 0
M  V30 17124 H 1645.11 1.2314 -2.73234 0
M  V30 17125 H 1642.67 0.529855 -1.52984 0
M  V30 17126 H 1644.66 3.60196 -1.84502 0
M  V30 17127 H 1643.23 2.96297 -0.996322 0
M  V30 17128 H 1642.45 2.10867 -3.3306 0
M  V30 17129 H 1643.74 3.10511 -4.03063 0
M  V30 17130 H 1643.14 5.36557 -1.79228 0
M  V30 17131 H 1641.69 6.04969 -2.42601 0
M  V30 17132 N 1645.13 1.45684 0.601159 0
M  V30 17133 C 1646.37 1.50036 1.35998 0
M  V30 17134 C 1646.7 0.144645 1.93961 0
M  V30 17135 O 1645.96 -0.857502 1.75913 0
M  V30 17136 C 1646.25 2.53235 2.52204 0
M  V30 17137 C 1645.92 3.97767 2.12348 0
M  V30 17138 C 1644.58 4.37121 2.01193 0
M  V30 17139 C 1646.93 4.88636 1.8134 0
M  V30 17140 C 1644.26 5.65231 1.5726 0
M  V30 17141 C 1646.61 6.17164 1.38892 0
M  V30 17142 C 1645.28 6.55442 1.26299 0
M  V30 17143 H 1644.55 0.54902 0.497652 0
M  V30 17144 H 1647.2 1.79065 0.678833 0
M  V30 17145 H 1645.5 2.17799 3.25685 0
M  V30 17146 H 1647.2 2.53837 3.10431 0
M  V30 17147 H 1643.79 3.6665 2.21959 0
M  V30 17148 H 1647.97 4.58964 1.88853 0
M  V30 17149 H 1643.23 5.93678 1.46139 0
M  V30 17150 H 1647.4 6.87015 1.13946 0
M  V30 17151 H 1645.03 7.54609 0.920316 0
M  V30 17152 N 1646.6 -0.84422 1.33082 0
M  V30 17153 C 1647.54 -1.95789 1.17226 0
M  V30 17154 C 1648.51 -1.62453 0.0690721 0
M  V30 17155 O 1649.7 -1.87088 0.230322 0
M  V30 17156 C 1646.83 -3.29193 0.796847 0
M  V30 17157 C 1645.87 -3.81503 1.90677 0
M  V30 17158 S 1646.7 -4.03828 3.51686 0
M  V30 17159 C 1647.86 -5.40191 3.16139 0
M  V30 17160 H 1648.09 -2.08938 2.115 0
M  V30 17161 H 1645.63 -0.99739 1.17862 0
M  V30 17162 H 1647.58 -4.06281 0.587018 0
M  V30 17163 H 1646.25 -3.13842 -0.127199 0
M  V30 17164 H 1645.44 -4.78018 1.59734 0
M  V30 17165 H 1645.04 -3.11293 2.07299 0
M  V30 17166 H 1647.33 -6.22827 2.66632 0
M  V30 17167 H 1648.28 -5.76105 4.11715 0
M  V30 17168 H 1648.68 -5.04691 2.52879 0
M  V30 17169 N 1648.08 -1.16463 -1.0618 0
M  V30 17170 C 1649.04 -0.874674 -2.11854 0
M  V30 17171 C 1650.04 0.130829 -1.60267 0
M  V30 17172 O 1651.23 -0.100195 -1.73912 0
M  V30 17173 C 1648.37 -0.30826 -3.39503 0
M  V30 17174 H 1649.56 -1.81149 -2.39009 0
M  V30 17175 H 1647.11 -0.973721 -1.22264 0
M  V30 17176 H 1647.85 0.636181 -3.17999 0
M  V30 17177 H 1647.63 -1.03281 -3.78253 0
M  V30 17178 H 1649.12 -0.123378 -4.17418 0
M  V30 17179 N 1649.56 1.24734 -0.963288 0
M  V30 17180 C 1650.8 1.94431 -0.630554 0
M  V30 17181 C 1651.16 1.7368 0.818489 0
M  V30 17182 O 1652.36 2.37374 1.26123 0
M  V30 17183 C 1650.64 3.43421 -0.989774 0
M  V30 17184 S 1652.19 4.31975 -0.770922 0
M  V30 17185 H 1649.01 0.672265 -0.231474 0
M  V30 17186 H 1651.61 1.512 -1.2393 0
M  V30 17187 H 1650.32 3.5603 -2.04135 0
M  V30 17188 H 1649.85 3.91641 -0.371622 0
M  V30 17189 H 1651.86 4.94936 0.35396 0
M  V30 17190 N 1651.04 0.732878 1.39523 0
M  V30 17191 C 1651.95 0.0930216 2.34416 0
M  V30 17192 C 1652.96 -0.724309 1.58208 0
M  V30 17193 O 1654.14 -0.653267 1.90511 0
M  V30 17194 C 1651.2 -0.805036 3.37224 0
M  V30 17195 C 1650.27 0.0243049 4.29293 0
M  V30 17196 C 1649.5 -0.830984 5.27191 0
M  V30 17197 O 1649.72 -2.06977 5.31523 0
M  V30 17198 O 1648.66 -0.260772 6.01335 0
M  V30 17199 H 1652.48 0.876179 2.90786 0
M  V30 17200 H 1650.07 0.493525 1.41013 0
M  V30 17201 H 1651.95 -1.31894 4.00228 0
M  V30 17202 H 1650.62 -1.56704 2.83241 0
M  V30 17203 H 1649.53 0.583677 3.69519 0
M  V30 17204 H 1650.86 0.748485 4.86476 0
M  V30 17205 N 1652.52 -1.50101 0.480349 0
M  V30 17206 C 1653.43 -2.32488 -0.31408 0
M  V30 17207 C 1654.44 -1.43285 -0.987186 0
M  V30 17208 O 1655.62 -1.7633 -0.973123 0
M  V30 17209 C 1652.68 -3.18203 -1.37651 0
M  V30 17210 C 1651.74 -4.23236 -0.71903 0
M  V30 17211 C 1650.98 -5.04854 -1.73084 0
M  V30 17212 O 1651.2 -4.87681 -2.95843 0
M  V30 17213 O 1650.13 -5.87748 -1.29755 0
M  V30 17214 H 1653.96 -3.01562 0.3597 0
M  V30 17215 H 1651.54 -1.47427 0.242029 0
M  V30 17216 H 1653.43 -3.71362 -1.9917 0
M  V30 17217 H 1652.1 -2.51846 -2.0336 0
M  V30 17218 H 1651.01 -3.74044 -0.0646492 0
M  V30 17219 H 1652.34 -4.92089 -0.104743 0
M  V30 17220 N 1653.99 -0.213323 -1.5615 0
M  V30 17221 C 1654.92 0.695003 -2.22917 0
M  V30 17222 C 1655.9 1.20738 -1.19818 0
M  V30 17223 O 1657.09 1.25289 -1.48379 0
M  V30 17224 C 1654.22 1.90685 -2.9027 0
M  V30 17225 C 1653.17 1.52865 -3.9977 0
M  V30 17226 C 1652.5 2.81859 -4.54378 0
M  V30 17227 C 1653.8 0.724829 -5.17246 0
M  V30 17228 H 1655.49 0.138351 -2.9908 0
M  V30 17229 H 1653.04 0.0651029 -1.43853 0
M  V30 17230 H 1654.99 2.54766 -3.35667 0
M  V30 17231 H 1653.72 2.48833 -2.11541 0
M  V30 17232 H 1652.38 0.911336 -3.55092 0
M  V30 17233 H 1652.02 3.38135 -3.72389 0
M  V30 17234 H 1651.72 2.57291 -5.28275 0
M  V30 17235 H 1653.25 3.46897 -5.02489 0
M  V30 17236 H 1654.66 1.26915 -5.59076 0
M  V30 17237 H 1653.06 0.57656 -5.97324 0
M  V30 17238 H 1654.13 -0.270309 -4.84146 0
M  V30 17239 N 1655.47 1.57485 0.0601405 0
M  V30 17240 C 1656.88 1.76433 0.610583 0
M  V30 17241 C 1657.23 0.840353 1.77292 0
M  V30 17242 O 1656.36 0.0273238 2.16383 0
M  V30 17243 C 1656.95 3.19947 1.11441 0
M  V30 17244 C 1655.51 3.402 1.61062 0
M  V30 17245 C 1654.66 2.72089 0.535055 0
M  V30 17246 H 1657.61 1.57829 -0.166062 0
M  V30 17247 H 1657.63 3.24749 1.98288 0
M  V30 17248 H 1657.14 3.87172 0.268233 0
M  V30 17249 H 1655.25 2.78106 2.47967 0
M  V30 17250 H 1655.36 4.48696 1.67954 0
M  V30 17251 H 1653.72 2.34972 0.982855 0
M  V30 17252 H 1654.51 3.41977 -0.301135 0
M  V30 17253 N 1656.95 -0.331789 1.54068 0
M  V30 17254 C 1658.36 -0.906719 1.63204 0
M  V30 17255 C 1658.71 -1.89161 0.520837 0
M  V30 17256 O 1657.84 -2.1359 -0.347577 0
M  V30 17257 C 1658.43 -1.65132 2.95832 0
M  V30 17258 C 1656.99 -2.17509 3.07192 0
M  V30 17259 C 1656.14 -0.99788 2.58723 0
M  V30 17260 H 1659.09 -0.109595 1.58321 0
M  V30 17261 H 1659.11 -2.515 2.85531 0
M  V30 17262 H 1658.62 -0.934255 3.76687 0
M  V30 17263 H 1656.72 -2.92356 2.30995 0
M  V30 17264 H 1656.84 -2.43074 4.12858 0
M  V30 17265 H 1655.2 -1.37469 2.14417 0
M  V30 17266 H 1655.98 -0.295261 3.42028 0
M  V30 17267 N 1658.43 -1.46001 -0.593424 0
M  V30 17268 C 1659.68 -1.50457 -1.34933 0
M  V30 17269 C 1660 -0.153383 -1.94396 0
M  V30 17270 O 1659.27 0.818894 -1.77963 0
M  V30 17271 H 1657.85 -0.554119 -0.50096 0
M  V30 17272 H 1660.51 -1.82057 -0.695798 0
M  V30 17273 H 1659.61 -2.25131 -2.16154 0
M  V30 17274 N 1659.91 0.83715 -1.33527 0
M  V30 17275 C 1660.87 1.92865 -1.23837 0
M  V30 17276 C 1661.87 1.60032 -0.157005 0
M  V30 17277 O 1663.06 1.69339 -0.408654 0
M  V30 17278 C 1660.19 3.28568 -0.908617 0
M  V30 17279 H 1661.38 2.02883 -2.20859 0
M  V30 17280 H 1658.94 1.02944 -1.1761 0
M  V30 17281 H 1659.67 3.24246 0.0590328 0
M  V30 17282 H 1659.46 3.53779 -1.69064 0
M  V30 17283 H 1660.95 4.0853 -0.86561 0
M  V30 17284 N 1661.38 1.17024 1.05561 0
M  V30 17285 C 1662.8 0.962856 1.59956 0
M  V30 17286 C 1663.15 -0.491388 1.89947 0
M  V30 17287 O 1662.27 -1.366 1.67838 0
M  V30 17288 C 1662.87 1.74146 2.90617 0
M  V30 17289 C 1661.43 1.57885 3.41686 0
M  V30 17290 C 1660.57 1.74548 2.15472 0
M  V30 17291 H 1663.52 1.31787 0.88419 0
M  V30 17292 H 1663.54 1.22165 3.60355 0
M  V30 17293 H 1663.06 2.79984 2.68758 0
M  V30 17294 H 1661.16 0.545207 3.6859 0
M  V30 17295 H 1661.27 2.36745 4.16519 0
M  V30 17296 H 1659.63 1.17356 2.26052 0
M  V30 17297 H 1660.42 2.81789 1.96087 0
M  V30 17298 N 1662.86 -1.24221 0.969889 0
M  V30 17299 C 1663.77 -2.29001 0.509467 0
M  V30 17300 C 1664.79 -1.68587 -0.430637 0
M  V30 17301 O 1665.96 -1.99106 -0.303142 0
M  V30 17302 C 1663.03 -3.46174 -0.190906 0
M  V30 17303 C 1662.09 -4.21982 0.789296 0
M  V30 17304 C 1661.32 -5.3356 0.122252 0
M  V30 17305 O 1661.55 -5.59909 -1.08896 0
M  V30 17306 O 1660.48 -5.9635 0.815517 0
M  V30 17307 H 1664.31 -2.70506 1.38058 0
M  V30 17308 H 1661.89 -1.29955 0.737028 0
M  V30 17309 H 1663.77 -4.1733 -0.584244 0
M  V30 17310 H 1662.45 -3.06642 -1.03695 0
M  V30 17311 H 1661.36 -3.53192 1.23313 0
M  V30 17312 H 1662.69 -4.65337 1.60382 0
M  V30 17313 N 1664.34 -0.740267 -1.39132 0
M  V30 17314 C 1665.27 -0.118951 -2.33197 0
M  V30 17315 C 1666.25 0.718416 -1.54184 0
M  V30 17316 O 1667.44 0.662322 -1.82557 0
M  V30 17317 C 1664.57 0.78512 -3.38309 0
M  V30 17318 C 1663.52 0.0515093 -4.27969 0
M  V30 17319 C 1662.85 1.07295 -5.23824 0
M  V30 17320 C 1664.15 -1.10903 -5.1039 0
M  V30 17321 H 1665.84 -0.904687 -2.85405 0
M  V30 17322 H 1663.39 -0.436493 -1.37225 0
M  V30 17323 H 1665.34 1.22935 -4.03069 0
M  V30 17324 H 1664.06 1.60303 -2.84553 0
M  V30 17325 H 1662.72 -0.373156 -3.64696 0
M  V30 17326 H 1662.37 1.88456 -4.66362 0
M  V30 17327 H 1662.07 0.586827 -5.84662 0
M  V30 17328 H 1663.59 1.51677 -5.91461 0
M  V30 17329 H 1665.01 -0.742993 -5.68465 0
M  V30 17330 H 1663.41 -1.52513 -5.80396 0
M  V30 17331 H 1664.48 -1.92825 -4.44912 0
M  V30 17332 N 1665.82 1.49844 -0.488302 0
M  V30 17333 C 1667.23 1.86663 -0.037377 0
M  V30 17334 C 1667.58 1.40172 1.37281 0
M  V30 17335 O 1666.71 0.77409 2.02081 0
M  V30 17336 C 1667.3 3.38745 -0.0610523 0
M  V30 17337 C 1665.86 3.74911 0.334475 0
M  V30 17338 C 1665.01 2.73801 -0.439109 0
M  V30 17339 H 1667.96 1.42343 -0.70173 0
M  V30 17340 H 1667.98 3.7329 0.737203 0
M  V30 17341 H 1667.49 3.72551 -1.08753 0
M  V30 17342 H 1665.59 3.4671 1.36466 0
M  V30 17343 H 1665.7 4.79094 0.0238536 0
M  V30 17344 H 1664.07 2.54465 0.109433 0
M  V30 17345 H 1664.85 3.10452 -1.46542 0
M  V30 17346 N 1667.3 0.221601 1.56034 0
M  V30 17347 C 1668.23 -0.720818 2.1757 0
M  V30 17348 C 1669.24 -1.15751 1.14479 0
M  V30 17349 O 1670.43 -1.08865 1.41459 0
M  V30 17350 C 1667.53 -1.98817 2.74454 0
M  V30 17351 C 1666.7 -1.70703 4.02715 0
M  V30 17352 C 1665.76 -2.82146 4.44162 0
M  V30 17353 O 1664.79 -2.50614 5.11059 0
M  V30 17354 N 1665.99 -4.11101 4.09849 0
M  V30 17355 H 1668.76 -0.194436 2.99069 0
M  V30 17356 H 1666.32 0.0405962 1.61849 0
M  V30 17357 H 1668.31 -2.72562 2.99152 0
M  V30 17358 H 1666.88 -2.42503 1.97258 0
M  V30 17359 H 1666.1 -0.806022 3.85872 0
M  V30 17360 H 1667.39 -1.49351 4.86387 0
M  V30 17361 H 1666.78 -4.39562 3.56092 0
M  V30 17362 H 1665.34 -4.81389 4.3944 0
M  V30 17363 N 1668.77 -1.57515 -0.0517878 0
M  V30 17364 C 1669.68 -2.08427 -1.07681 0
M  V30 17365 C 1670.7 -1.01797 -1.41115 0
M  V30 17366 O 1671.88 -1.33394 -1.50891 0
M  V30 17367 C 1668.94 -2.53472 -2.36544 0
M  V30 17368 C 1668 -3.74488 -2.09899 0
M  V30 17369 C 1667.24 -4.17374 -3.32618 0
M  V30 17370 O 1667.46 -3.59962 -4.42475 0
M  V30 17371 O 1666.39 -5.10006 -3.19653 0
M  V30 17372 H 1670.22 -2.96122 -0.674217 0
M  V30 17373 H 1667.8 -1.4699 -0.267274 0
M  V30 17374 H 1669.69 -2.82876 -3.12345 0
M  V30 17375 H 1668.36 -1.68899 -2.76143 0
M  V30 17376 H 1667.27 -3.50137 -1.31739 0
M  V30 17377 H 1668.6 -4.59975 -1.75169 0
M  V30 17378 N 1670.25 0.323614 -1.54242 0
M  V30 17379 C 1671.5 1.05947 -1.72104 0
M  V30 17380 C 1671.82 1.88547 -0.497512 0
M  V30 17381 O 1671.09 1.89712 0.488485 0
M  V30 17382 H 1669.67 0.394141 -0.634557 0
M  V30 17383 H 1672.33 0.360063 -1.91545 0
M  V30 17384 H 1671.43 1.72552 -2.60062 0
M  V30 17385 N 1671.73 1.46313 0.585673 0
M  V30 17386 C 1673.14 1.4567 1.16778 0
M  V30 17387 C 1673.49 0.195957 1.95219 0
M  V30 17388 O 1672.62 -0.701142 2.04727 0
M  V30 17389 C 1673.21 2.6392 2.12443 0
M  V30 17390 C 1671.77 2.66327 2.65983 0
M  V30 17391 C 1670.92 2.38304 1.41797 0
M  V30 17392 H 1673.87 1.54236 0.37377 0
M  V30 17393 H 1673.89 2.39268 2.95856 0
M  V30 17394 H 1673.4 3.55663 1.55324 0
M  V30 17395 H 1671.5 1.78648 3.2698 0
M  V30 17396 H 1671.62 3.66203 3.08921 0
M  V30 17397 H 1669.98 1.88302 1.71507 0
M  V30 17398 H 1670.76 3.3222 0.86514 0
M  V30 17399 N 1673.21 -0.830057 1.33969 0
M  V30 17400 C 1674.44 -1.61774 1.28984 0
M  V30 17401 C 1674.85 -1.88299 -0.137515 0
M  V30 17402 O 1674.21 -1.46936 -1.0824 0
M  V30 17403 C 1674.26 -2.96282 2.07121 0
M  V30 17404 O 1673.98 -2.70918 3.44289 0
M  V30 17405 C 1675.48 -3.90699 2.09449 0
M  V30 17406 H 1672.7 -0.503088 0.444008 0
M  V30 17407 H 1675.25 -1.03328 1.76475 0
M  V30 17408 H 1673.4 -3.51305 1.63289 0
M  V30 17409 H 1673.82 -3.56635 3.84593 0
M  V30 17410 H 1675.29 -4.82266 2.68558 0
M  V30 17411 H 1675.77 -4.25536 1.08702 0
M  V30 17412 H 1676.37 -3.41614 2.53338 0
M  V30 17413 N 1674.69 -1.17582 -1.04939 0
M  V30 17414 C 1676.1 -0.923633 -1.30158 0
M  V30 17415 C 1676.3 0.415798 -1.97163 0
M  V30 17416 O 1675.36 1.15218 -2.2468 0
M  V30 17417 C 1676.67 -2.0828 -2.16887 0
M  V30 17418 C 1678.22 -2.12011 -2.30262 0
M  V30 17419 C 1678.7 -3.2732 -3.20352 0
M  V30 17420 N 1680.19 -3.27125 -3.27939 0
M  V30 17421 C 1680.92 -4.12988 -3.97779 0
M  V30 17422 N 1680.42 -5.08968 -4.70025 0
M  V30 17423 N 1682.21 -4.0093 -3.93969 0
M  V30 17424 H 1674.36 -2.03794 -0.598485 0
M  V30 17425 H 1676.62 -0.889991 -0.326528 0
M  V30 17426 H 1676.33 -3.051 -1.74948 0
M  V30 17427 H 1676.2 -2.03599 -3.17533 0
M  V30 17428 H 1678.59 -1.15774 -2.71441 0
M  V30 17429 H 1678.67 -2.20752 -1.29236 0
M  V30 17430 H 1678.32 -4.23823 -2.79886 0
M  V30 17431 H 1678.25 -3.15814 -4.21389 0
M  V30 17432 H 1680.74 -2.57634 -2.76465 0
M  V30 17433 H 1681.05 -5.70876 -5.20885 0
M  V30 17434 H 1679.4 -5.12935 -4.68959 0
M  V30 17435 H 1682.59 -3.2524 -3.36654 0
M  V30 17436 H 1682.76 -4.68065 -4.48128 0
M  V30 17437 N 1676.17 1.23705 -0.976463 0
M  V30 17438 C 1677.58 1.44179 -0.684434 0
M  V30 17439 C 1677.78 1.86992 0.75075 0
M  V30 17440 O 1676.84 2.01349 1.52365 0
M  V30 17441 C 1678.15 2.49661 -1.676 0
M  V30 17442 C 1679.7 2.63479 -1.68961 0
M  V30 17443 C 1680.17 3.72167 -2.66938 0
M  V30 17444 N 1681.66 3.79605 -2.65433 0
M  V30 17445 C 1682.4 4.63251 -3.37914 0
M  V30 17446 N 1681.9 5.51018 -4.19941 0
M  V30 17447 N 1683.69 4.57412 -3.26697 0
M  V30 17448 H 1675.84 0.942155 -1.90361 0
M  V30 17449 H 1678.1 0.475629 -0.820049 0
M  V30 17450 H 1677.81 2.25111 -2.70218 0
M  V30 17451 H 1677.68 3.47978 -1.45571 0
M  V30 17452 H 1680.07 2.87382 -0.670497 0
M  V30 17453 H 1680.15 1.65491 -1.95055 0
M  V30 17454 H 1679.79 3.49013 -3.68988 0
M  V30 17455 H 1679.72 4.69688 -2.3812 0
M  V30 17456 H 1682.22 3.16882 -2.05899 0
M  V30 17457 H 1682.53 6.11825 -4.72113 0
M  V30 17458 H 1680.87 5.50655 -4.24033 0
M  V30 17459 H 1684.06 3.87863 -2.62069 0
M  V30 17460 H 1684.24 5.22373 -3.83446 0
M  V30 17461 N 1677.64 0.747635 1.38738 0
M  V30 17462 C 1678.57 0.131317 2.3313 0
M  V30 17463 C 1679.55 -0.710229 1.54563 0
M  V30 17464 O 1680.74 -0.652631 1.82905 0
M  V30 17465 C 1677.87 -0.767168 3.38721 0
M  V30 17466 C 1676.82 -0.0288124 4.2799 0
M  V30 17467 C 1676.15 -1.04515 5.24386 0
M  V30 17468 C 1677.45 1.13608 5.09795 0
M  V30 17469 H 1679.14 0.91981 2.84921 0
M  V30 17470 H 1676.69 0.443764 1.36992 0
M  V30 17471 H 1678.64 -1.20796 4.03716 0
M  V30 17472 H 1677.37 -1.58792 2.85399 0
M  V30 17473 H 1676.03 0.392491 3.64493 0
M  V30 17474 H 1675.67 -1.8598 4.67355 0
M  V30 17475 H 1675.37 -0.555813 5.84965 0
M  V30 17476 H 1676.9 -1.48538 5.92257 0
M  V30 17477 H 1678.31 0.773129 5.68063 0
M  V30 17478 H 1676.71 1.55589 5.79579 0
M  V30 17479 H 1677.78 1.95182 4.43883 0
M  V30 17480 N 1679.12 -1.49583 0.496242 0
M  V30 17481 C 1680.35 -2.07342 -0.0490986 0
M  V30 17482 C 1680.77 -1.35474 -1.30493 0
M  V30 17483 O 1680.13 -0.410005 -1.76603 0
M  V30 17484 C 1680.18 -3.59427 -0.290601 0
M  V30 17485 O 1679.28 -3.89111 -1.36626 0
M  V30 17486 H 1678.62 -0.663562 0.0241141 0
M  V30 17487 H 1681.15 -1.92452 0.6945 0
M  V30 17488 H 1681.16 -4.04627 -0.523549 0
M  V30 17489 H 1679.84 -4.11147 0.626959 0
M  V30 17490 H 1678.41 -3.55726 -1.11864 0
M  V30 17491 N 1680.6 -0.229873 -1.55915 0
M  V30 17492 C 1681.53 0.671321 -2.23642 0
M  V30 17493 C 1682.51 1.19461 -1.21091 0
M  V30 17494 O 1683.7 1.23708 -1.49699 0
M  V30 17495 C 1680.83 1.87595 -2.92276 0
M  V30 17496 C 1679.78 1.48616 -4.01369 0
M  V30 17497 C 1679.11 2.77024 -4.57342 0
M  V30 17498 C 1680.41 0.669928 -5.17986 0
M  V30 17499 H 1682.1 0.106622 -2.9921 0
M  V30 17500 H 1679.65 0.0498418 -1.43914 0
M  V30 17501 H 1681.6 2.51191 -3.3835 0
M  V30 17502 H 1680.32 2.46576 -2.14168 0
M  V30 17503 H 1678.98 0.873623 -3.56038 0
M  V30 17504 H 1678.63 3.34166 -3.75955 0
M  V30 17505 H 1678.33 2.51674 -5.30975 0
M  V30 17506 H 1679.85 3.41548 -5.0614 0
M  V30 17507 H 1681.27 1.20978 -5.6039 0
M  V30 17508 H 1679.66 0.513174 -5.97902 0
M  V30 17509 H 1680.73 -0.321644 -4.83832 0
M  V30 17510 N 1682.08 1.5754 0.0434337 0
M  V30 17511 C 1683.49 1.77071 0.591836 0
M  V30 17512 C 1683.84 0.85911 1.76391 0
M  V30 17513 O 1682.96 0.0502725 2.16342 0
M  V30 17514 C 1683.56 3.21111 1.08041 0
M  V30 17515 C 1682.12 3.41889 1.57445 0
M  V30 17516 C 1681.27 2.72641 0.506166 0
M  V30 17517 H 1684.22 1.57644 -0.182792 0
M  V30 17518 H 1684.24 3.26834 1.94833 0
M  V30 17519 H 1683.75 3.87435 0.227153 0
M  V30 17520 H 1681.85 2.80721 2.45003 0
M  V30 17521 H 1681.96 4.50452 1.63185 0
M  V30 17522 H 1680.33 2.36002 0.957878 0
M  V30 17523 H 1681.11 3.41638 -0.337389 0
M  V30 17524 N 1683.56 -0.31543 1.54411 0
M  V30 17525 C 1684.8 -1.05033 1.72663 0
M  V30 17526 C 1685.12 -1.8828 0.507504 0
M  V30 17527 O 1684.39 -1.89968 -0.478418 0
M  V30 17528 H 1682.97 -0.39077 0.636638 0
M  V30 17529 H 1685.64 -0.3499 1.91733 0
M  V30 17530 H 1684.73 -1.71171 2.60973 0
M  V30 17531 N 1685.03 -1.46622 -0.577906 0
M  V30 17532 C 1685.97 -1.53587 -1.70128 0
M  V30 17533 C 1686.98 -0.423789 -1.57187 0
M  V30 17534 O 1688.17 -0.692392 -1.64524 0
M  V30 17535 C 1685.27 -1.40459 -3.08422 0
M  V30 17536 C 1684.44 -2.65872 -3.47319 0
M  V30 17537 C 1683.5 -2.46875 -4.64693 0
M  V30 17538 O 1682.53 -3.20617 -4.70312 0
M  V30 17539 N 1683.73 -1.53352 -5.59878 0
M  V30 17540 H 1686.49 -2.50449 -1.64606 0
M  V30 17541 H 1684.05 -1.42739 -0.764014 0
M  V30 17542 H 1686.05 -1.25516 -3.84744 0
M  V30 17543 H 1684.62 -0.517603 -3.08285 0
M  V30 17544 H 1683.84 -2.95724 -2.60655 0
M  V30 17545 H 1685.12 -3.49173 -3.70075 0
M  V30 17546 H 1684.52 -0.925526 -5.58078 0
M  V30 17547 H 1683.08 -1.4437 -6.3561 0
M  V30 17548 N 1686.51 0.822941 -1.34408 0
M  V30 17549 C 1687.44 1.94878 -1.28627 0
M  V30 17550 C 1688.42 1.6931 -0.163727 0
M  V30 17551 O 1689.61 1.90908 -0.356083 0
M  V30 17552 C 1686.74 3.31333 -1.04094 0
M  V30 17553 C 1685.69 3.71341 -2.12814 0
M  V30 17554 C 1685.02 5.05779 -1.73469 0
M  V30 17555 C 1686.32 3.83439 -3.54643 0
M  V30 17556 H 1688.01 1.99972 -2.22827 0
M  V30 17557 H 1685.56 0.960715 -1.07267 0
M  V30 17558 H 1687.51 4.0968 -0.986947 0
M  V30 17559 H 1686.24 3.26539 -0.0633642 0
M  V30 17560 H 1684.89 2.95269 -2.17282 0
M  V30 17561 H 1684.54 4.97471 -0.743727 0
M  V30 17562 H 1684.24 5.33518 -2.46236 0
M  V30 17563 H 1685.77 5.86583 -1.69566 0
M  V30 17564 H 1687.18 4.52057 -3.52587 0
M  V30 17565 H 1685.58 4.22632 -4.2603 0
M  V30 17566 H 1686.65 2.85439 -3.91986 0
M  V30 17567 N 1687.99 1.18137 1.04314 0
M  V30 17568 C 1689.24 0.973277 1.77121 0
M  V30 17569 C 1689.56 -0.498558 1.88519 0
M  V30 17570 O 1688.83 -1.36168 1.40837 0
M  V30 17571 H 1687.41 0.35712 0.656105 0
M  V30 17572 H 1690.07 1.48774 1.25906 0
M  V30 17573 H 1689.17 1.40917 2.78476 0
M  V30 17574 N 1689.47 -1.23186 0.98301 0
M  V30 17575 C 1690.43 -2.22979 0.530366 0
M  V30 17576 C 1691.43 -1.56211 -0.381421 0
M  V30 17577 O 1692.62 -1.73321 -0.17475 0
M  V30 17578 C 1689.75 -3.40124 -0.229882 0
M  V30 17579 H 1690.95 -2.64539 1.41277 0
M  V30 17580 H 1688.5 -1.36064 0.769172 0
M  V30 17581 H 1689.23 -3.04024 -1.12871 0
M  V30 17582 H 1689.02 -3.89794 0.424653 0
M  V30 17583 H 1690.51 -4.14158 -0.535078 0
M  V30 17584 N 1690.95 -0.754982 -1.38339 0
M  V30 17585 C 1691.88 -0.143678 -2.33058 0
M  V30 17586 C 1692.86 0.702022 -1.54938 0
M  V30 17587 O 1694.04 0.642922 -1.83249 0
M  V30 17588 C 1691.17 0.749194 -3.39123 0
M  V30 17589 C 1690.13 0.00611459 -4.28 0
M  V30 17590 C 1689.45 1.01733 -5.24933 0
M  V30 17591 C 1690.75 -1.1631 -5.09185 0
M  V30 17592 H 1692.45 -0.934907 -2.84429 0
M  V30 17593 H 1689.99 -0.451023 -1.36754 0
M  V30 17594 H 1691.95 1.18653 -4.04351 0
M  V30 17595 H 1690.67 1.57276 -2.86237 0
M  V30 17596 H 1689.33 -0.411816 -3.6428 0
M  V30 17597 H 1688.98 1.83499 -4.68334 0
M  V30 17598 H 1688.68 0.524783 -5.85252 0
M  V30 17599 H 1690.2 1.45395 -5.93037 0
M  V30 17600 H 1691.61 -0.803244 -5.67645 0
M  V30 17601 H 1690.01 -1.5866 -5.78746 0
M  V30 17602 H 1691.08 -1.97533 -4.42842 0
M  V30 17603 N 1692.42 1.49318 -0.504168 0
M  V30 17604 C 1693.65 2.06869 0.0359415 0
M  V30 17605 C 1694.07 1.3641 1.30529 0
M  V30 17606 O 1693.42 0.443416 1.77031 0
M  V30 17607 C 1693.48 3.60333 0.290233 0
M  V30 17608 O 1693.2 4.28141 -0.928801 0
M  V30 17609 C 1694.7 4.34606 0.873628 0
M  V30 17610 H 1691.92 0.670643 -0.0218893 0
M  V30 17611 H 1694.46 1.92058 -0.702432 0
M  V30 17612 H 1692.62 3.74836 0.978594 0
M  V30 17613 H 1693.03 5.19894 -0.693595 0
M  V30 17614 H 1694.5 5.42846 1.00112 0
M  V30 17615 H 1694.98 3.97297 1.87221 0
M  V30 17616 H 1695.59 4.24717 0.222638 0
M  V30 17617 N 1693.9 0.238138 1.5579 0
M  V30 17618 C 1695.13 -0.396409 2.03576 0
M  V30 17619 C 1695.55 -1.5138 1.11649 0
M  V30 17620 O 1694.91 -1.80979 0.107774 0
M  V30 17621 C 1694.96 -0.889749 3.49451 0
M  V30 17622 O 1694.06 -1.99997 3.60659 0
M  V30 17623 H 1693.4 -0.0876017 0.658196 0
M  V30 17624 H 1695.93 0.361632 2.01379 0
M  V30 17625 H 1695.94 -1.19526 3.901 0
M  V30 17626 H 1694.62 -0.0720136 4.15838 0
M  V30 17627 H 1693.2 -1.69983 3.31904 0
M  V30 17628 N 1695.38 -1.57561 -0.0350783 0
M  V30 17629 C 1696.31 -2.02953 -1.06502 0
M  V30 17630 C 1697.33 -0.941331 -1.32826 0
M  V30 17631 O 1698.51 -1.21873 -1.30419 0
M  V30 17632 C 1695.61 -2.38471 -2.40801 0
M  V30 17633 C 1694.79 -3.69596 -2.33917 0
M  V30 17634 C 1693.85 -3.9237 -3.50616 0
M  V30 17635 O 1692.87 -4.63504 -3.30382 0
M  V30 17636 N 1694.07 -3.37544 -4.72275 0
M  V30 17637 H 1696.84 -2.91926 -0.678169 0
M  V30 17638 H 1694.4 -1.60355 -0.22313 0
M  V30 17639 H 1696.39 -2.50849 -3.1758 0
M  V30 17640 H 1694.96 -1.55199 -2.71352 0
M  V30 17641 H 1694.18 -3.67629 -1.42277 0
M  V30 17642 H 1695.47 -4.55627 -2.26455 0
M  V30 17643 H 1694.87 -2.79875 -4.91616 0
M  V30 17644 H 1693.43 -3.55312 -5.4644 0
M  V30 17645 N 1696.86 0.307236 -1.54576 0
M  V30 17646 C 1698.27 0.88064 -1.64626 0
M  V30 17647 C 1698.62 1.88308 -0.550865 0
M  V30 17648 O 1697.75 2.14116 0.313553 0
M  V30 17649 C 1698.34 1.60405 -2.98422 0
M  V30 17650 C 1696.9 2.12595 -3.10613 0
M  V30 17651 C 1696.05 0.956593 -2.60278 0
M  V30 17652 H 1699 0.0843939 -1.58475 0
M  V30 17653 H 1699.02 2.46925 -2.89496 0
M  V30 17654 H 1698.53 0.874209 -3.78126 0
M  V30 17655 H 1696.63 2.88644 -2.35617 0
M  V30 17656 H 1696.74 2.36475 -4.16673 0
M  V30 17657 H 1695.11 1.3404 -2.16576 0
M  V30 17658 H 1695.89 0.24081 -3.42454 0
M  V30 17659 N 1698.34 1.46926 0.570122 0
M  V30 17660 C 1699.27 1.61311 1.68822 0
M  V30 17661 C 1700.25 0.462964 1.63678 0
M  V30 17662 O 1701.43 0.690745 1.815 0
M  V30 17663 C 1698.56 1.61499 3.07466 0
M  V30 17664 C 1697.52 2.7561 3.27449 0
M  V30 17665 C 1696.84 2.60865 4.66748 0
M  V30 17666 C 1698.14 4.17324 3.14067 0
M  V30 17667 H 1699.84 2.54909 1.5704 0
M  V30 17668 H 1697.38 1.22677 0.754077 0
M  V30 17669 H 1699.34 1.70155 3.8552 0
M  V30 17670 H 1698.06 0.64453 3.20177 0
M  V30 17671 H 1696.72 2.66444 2.51799 0
M  V30 17672 H 1696.37 1.61875 4.76241 0
M  V30 17673 H 1696.07 3.37411 4.81069 0
M  V30 17674 H 1697.59 2.7143 5.46954 0
M  V30 17675 H 1699 4.27534 3.81952 0
M  V30 17676 H 1697.4 4.94555 3.39905 0
M  V30 17677 H 1698.47 4.36596 2.10979 0
M  V30 17678 N 1699.82 -0.815801 1.34842 0
M  V30 17679 C 1700.77 -1.9162 1.23555 0
M  V30 17680 C 1701.75 -1.6035 0.132922 0
M  V30 17681 O 1702.94 -1.73232 0.363269 0
M  V30 17682 C 1700.07 -3.284 1.00043 0
M  V30 17683 C 1699.16 -3.65765 2.14655 0
M  V30 17684 N 1699.55 -3.74639 3.39822 0
M  V30 17685 C 1697.85 -3.9566 2.05837 0
M  V30 17686 C 1698.55 -4.07478 4.15135 0
M  V30 17687 N 1697.52 -4.21075 3.43797 0
M  V30 17688 H 1701.32 -1.96669 2.184 0
M  V30 17689 H 1698.84 -1.00987 1.27183 0
M  V30 17690 H 1700.84 -4.07059 0.900462 0
M  V30 17691 H 1699.5 -3.24643 0.0607337 0
M  V30 17692 H 1700.51 -3.57951 3.74288 0
M  V30 17693 H 1697.18 -3.99982 1.19667 0
M  V30 17694 H 1698.57 -4.21488 5.23257 0
M  V30 17695 N 1701.29 -1.18689 -1.03686 0
M  V30 17696 C 1702.71 -0.937386 -1.29171 0
M  V30 17697 C 1702.91 0.394863 -1.97593 0
M  V30 17698 O 1701.97 1.12829 -2.25889 0
M  V30 17699 C 1703.28 -2.10568 -2.14666 0
M  V30 17700 C 1704.83 -2.14441 -2.28 0
M  V30 17701 C 1705.3 -3.30699 -3.16863 0
M  V30 17702 N 1706.79 -3.30584 -3.24451 0
M  V30 17703 C 1707.53 -4.17184 -3.93376 0
M  V30 17704 N 1707.02 -5.13924 -4.646 0
M  V30 17705 N 1708.82 -4.05086 -3.89694 0
M  V30 17706 H 1700.97 -2.04417 -0.576836 0
M  V30 17707 H 1703.23 -0.893404 -0.31707 0
M  V30 17708 H 1702.94 -3.06938 -1.71702 0
M  V30 17709 H 1702.81 -2.06955 -3.15356 0
M  V30 17710 H 1705.2 -1.18647 -2.70198 0
M  V30 17711 H 1705.28 -2.22111 -1.26888 0
M  V30 17712 H 1704.92 -4.26768 -2.75375 0
M  V30 17713 H 1704.85 -3.20266 -4.18016 0
M  V30 17714 H 1707.34 -2.60552 -2.73717 0
M  V30 17715 H 1707.66 -5.76368 -5.14801 0
M  V30 17716 H 1706 -5.1788 -4.63492 0
M  V30 17717 H 1709.19 -3.28793 -3.33186 0
M  V30 17718 H 1709.37 -4.72792 -4.43139 0
M  V30 17719 N 1702.77 1.22662 -0.989529 0
M  V30 17720 C 1703.72 2.22262 -0.508279 0
M  V30 17721 C 1704.71 1.55276 0.421694 0
M  V30 17722 O 1705.9 1.75239 0.249062 0
M  V30 17723 C 1703.03 3.42833 0.179058 0
M  V30 17724 C 1702.11 4.17032 -0.771021 0
M  V30 17725 N 1702.5 4.68046 -1.91746 0
M  V30 17726 C 1700.8 4.42131 -0.586208 0
M  V30 17727 C 1701.5 5.24592 -2.51352 0
M  V30 17728 N 1700.48 5.13056 -1.79652 0
M  V30 17729 H 1704.28 2.59343 -1.3827 0
M  V30 17730 H 1701.79 1.38295 -0.85136 0
M  V30 17731 H 1703.79 4.13372 0.541196 0
M  V30 17732 H 1702.45 3.07266 1.04965 0
M  V30 17733 H 1703.46 4.64107 -2.29836 0
M  V30 17734 H 1700.14 4.16818 0.238604 0
M  V30 17735 H 1701.53 5.74623 -3.48221 0
M  V30 17736 N 1704.25 0.762308 1.37937 0
M  V30 17737 C 1705.5 0.321732 1.99523 0
M  V30 17738 C 1705.82 -1.10286 1.60816 0
M  V30 17739 O 1705.09 -1.75565 0.869117 0
M  V30 17740 H 1703.67 0.115967 0.737943 0
M  V30 17741 H 1706.33 0.978339 1.68566 0
M  V30 17742 H 1705.43 0.391818 3.09631 0
M  V30 17743 N 1705.73 -1.49049 0.51208 0
M  V30 17744 C 1706.95 -2.07382 -0.0271044 0
M  V30 17745 C 1707.38 -1.3685 -1.29049 0
M  V30 17746 O 1706.74 -0.428713 -1.76158 0
M  V30 17747 C 1706.78 -3.59715 -0.252462 0
M  V30 17748 O 1705.89 -3.90538 -1.32491 0
M  V30 17749 H 1705.23 -0.663269 0.0311507 0
M  V30 17750 H 1707.76 -1.91705 0.714873 0
M  V30 17751 H 1707.77 -4.05159 -0.480603 0
M  V30 17752 H 1706.44 -4.10459 0.670531 0
M  V30 17753 H 1705.02 -3.56892 -1.08085 0
M  V30 17754 N 1707.21 -0.246397 -1.55662 0
M  V30 17755 C 1708.48 0.42879 -1.90842 0
M  V30 17756 C 1708.86 1.75905 -1.16707 0
M  V30 17757 O 1708.21 2.26723 -0.284391 0
M  V30 17758 C 1708.42 0.597368 -3.4385 0
M  V30 17759 C 1709.77 0.893477 -4.15093 0
M  V30 17760 O 1710.79 0.683251 -3.49586 0
M  V30 17761 O 1709.65 1.2938 -5.30964 0
M  V30 17762 H 1706.75 0.230145 -0.794331 0
M  V30 17763 H 1709.29 -0.290426 -1.67196 0
M  V30 17764 H 1708.06 -0.339952 -3.8982 0
M  V30 17765 H 1707.69 1.36714 -3.73356 0
M  V30 17766 N 1708.68 1.57577 0.026722 0
M  V30 17767 C 1710.09 1.77689 0.573022 0
M  V30 17768 C 1710.45 0.877771 1.7547 0
M  V30 17769 O 1709.57 0.0732156 2.16276 0
M  V30 17770 C 1710.17 3.22239 1.0463 0
M  V30 17771 C 1708.72 3.4354 1.5381 0
M  V30 17772 C 1707.87 2.73163 0.47722 0
M  V30 17773 H 1710.82 1.57441 -0.199502 0
M  V30 17774 H 1710.84 3.28882 1.91355 0
M  V30 17775 H 1710.36 3.87654 0.186047 0
M  V30 17776 H 1708.46 2.83304 2.42012 0
M  V30 17777 H 1708.57 4.52158 1.58398 0
M  V30 17778 H 1706.93 2.37004 0.932793 0
M  V30 17779 H 1707.72 3.41261 -0.373605 0
M  V30 17780 N 1710.16 -0.299034 1.54737 0
M  V30 17781 C 1711.41 -1.03195 1.73767 0
M  V30 17782 C 1711.73 -1.87731 0.527445 0
M  V30 17783 O 1711 -1.90465 -0.458242 0
M  V30 17784 H 1709.58 -0.383996 0.640747 0
M  V30 17785 H 1712.24 -0.329544 1.92094 0
M  V30 17786 H 1711.34 -1.68393 2.62774 0
M  V30 17787 N 1711.64 -1.47227 -0.562322 0
M  V30 17788 C 1712.86 -1.5744 -1.35008 0
M  V30 17789 C 1713.29 -0.223223 -1.86771 0
M  V30 17790 O 1712.65 0.800078 -1.62691 0
M  V30 17791 C 1712.7 -2.5992 -2.49948 0
M  V30 17792 O 1711.8 -2.14836 -3.52022 0
M  V30 17793 H 1711.14 -0.529064 -0.401232 0
M  V30 17794 H 1713.67 -1.92966 -0.680084 0
M  V30 17795 H 1713.68 -2.80177 -2.96588 0
M  V30 17796 H 1712.36 -3.58031 -2.11629 0
M  V30 17797 H 1710.93 -2.04655 -3.11722 0
M  V30 17798 O 1713.16 0.706898 -1.45207 0
M  V30 17799 H 1713.85 1.35818 -1.38106 0
M  V30 END ATOM
M  V30 BEGIN BOND
M  V30 END BOND
M  V30 END CTAB
M  END
$$$$
