drugbank_target|P60493 50S ribosomal protein L27 (DB04447)
 OpenBabel12092120293D

  0  0  0     0  0            999 V3000
M  V30 BEGIN CTAB
M  V30 COUNTS 1370 1379 0 0 0
M  V30 BEGIN ATOM
M  V30 1 H -0.908 1.98254 -0.117106 0
M  V30 2 N 0 1.576 0 0
M  V30 3 C 0.933 2.03868 1.02534 0
M  V30 4 C 1.911 0.928543 1.3348 0
M  V30 5 O 3.095 1.19667 1.45644 0
M  V30 6 C 0.222 2.43627 2.35294 0
M  V30 7 C -0.732 3.65373 2.2001 0
M  V30 8 S 0.101 5.13292 1.52614 0
M  V30 9 C 1.257 5.56322 2.86805 0
M  V30 10 H 1.49 2.90518 0.631377 0
M  V30 11 H -0.977 1.52953 0.210867 0
M  V30 12 H 0.981 2.67203 3.11629 0
M  V30 13 H -0.358 1.57376 2.7183 0
M  V30 14 H -1.165 3.90944 3.18086 0
M  V30 15 H -1.563 3.418 1.51819 0
M  V30 16 H 0.729 5.58782 3.83104 0
M  V30 17 H 1.672 6.56266 2.65933 0
M  V30 18 H 2.08 4.83886 2.90714 0
M  V30 19 N 1.4781 -0.272755 1.55222 0
M  V30 20 C 2.4411 -1.32041 1.87344 0
M  V30 21 C 3.4411 -1.42342 0.74803 0
M  V30 22 O 4.6311 -1.41488 1.0162 0
M  V30 23 C 1.7631 -2.70173 2.07893 0
M  V30 24 H 2.9561 -1.04789 2.80997 0
M  V30 25 H 0.5091 -0.51083 1.47717 0
M  V30 26 H 1.2441 -3.02605 1.16622 0
M  V30 27 H 1.0291 -2.64082 2.89833 0
M  V30 28 H 2.5191 -3.45869 2.34017 0
M  V30 29 N 2.9562 -1.48159 -0.537278 0
M  V30 30 C 3.9062 -1.5854 -1.63857 0
M  V30 31 C 4.8902 -0.442969 -1.54682 0
M  V30 32 O 6.0822 -0.69401 -1.62827 0
M  V30 33 C 3.2112 -1.62144 -3.02596 0
M  V30 34 C 2.2972 -2.81841 -3.16901 0
M  V30 35 N 2.6882 -4.06337 -3.01204 0
M  V30 36 C 0.9862 -2.79021 -3.47942 0
M  V30 37 C 1.6872 -4.86606 -3.18731 0
M  V30 38 N 0.6632 -4.19288 -3.45974 0
M  V30 39 H 4.4652 -2.5255 -1.50319 0
M  V30 40 H 1.9792 -1.4443 -0.742555 0
M  V30 41 H 3.9762 -1.67674 -3.81695 0
M  V30 42 H 2.6362 -0.69245 -3.17231 0
M  V30 43 H 3.6472 -4.36888 -2.78117 0
M  V30 44 H 0.3242 -1.95347 -3.6898 0
M  V30 45 H 1.7142 -5.95385 -3.11394 0
M  V30 46 N 4.4343 0.785586 -1.36625 0
M  V30 47 C 5.3813 1.89838 -1.31264 0
M  V30 48 C 6.3513 1.65115 -0.180633 0
M  V30 49 O 7.5363 1.87222 -0.36777 0
M  V30 50 C 4.6763 3.26706 -1.11163 0
M  V30 51 C 3.7893 3.63476 -2.33472 0
M  V30 52 C 2.9243 4.89481 -2.06353 0
M  V30 53 C 1.9633 5.18941 -3.24602 0
M  V30 54 N 1.1003 6.36131 -2.97123 0
M  V30 55 H 5.9403 1.93756 -2.26413 0
M  V30 56 H 3.4773 0.947454 -1.12524 0
M  V30 57 H 5.4353 4.05639 -0.975337 0
M  V30 58 H 4.0653 3.222 -0.196674 0
M  V30 59 H 3.1173 2.79636 -2.57891 0
M  V30 60 H 4.4293 3.81193 -3.21704 0
M  V30 61 H 3.5833 5.76288 -1.89675 0
M  V30 62 H 2.3223 4.73841 -1.15437 0
M  V30 63 H 1.3273 4.30615 -3.41834 0
M  V30 64 H 2.5523 5.36498 -4.16349 0
M  V30 65 H 0.4983 6.21875 -2.08823 0
M  V30 66 H 0.4153 6.54198 -3.78894 0
M  V30 67 H 1.6833 7.2591 -2.84033 0
M  V30 68 N 5.9124 1.20967 1.01018 0
M  V30 69 C 6.8594 0.964281 2.09691 0
M  V30 70 C 7.8294 -0.107853 1.65749 0
M  V30 71 O 9.0144 0.0381987 1.90762 0
M  V30 72 C 6.1544 0.52943 3.41015 0
M  V30 73 C 5.2674 1.67043 3.98398 0
M  V30 74 C 4.4024 1.18525 5.17808 0
M  V30 75 C 3.4414 2.29892 5.67288 0
M  V30 76 N 2.5784 1.82546 6.77954 0
M  V30 77 H 7.4184 1.89463 2.30017 0
M  V30 78 H 4.9554 0.944289 1.1279 0
M  V30 79 H 6.9134 0.258588 4.16398 0
M  V30 80 H 5.5434 -0.363919 3.20742 0
M  V30 81 H 4.5954 2.05603 3.20049 0
M  V30 82 H 5.9074 2.50877 4.31117 0
M  V30 83 H 5.0614 0.870762 6.00419 0
M  V30 84 H 3.8004 0.316887 4.86669 0
M  V30 85 H 2.8054 2.6215 4.83278 0
M  V30 86 H 4.0304 3.17216 6.00459 0
M  V30 87 H 1.9764 0.980454 6.48632 0
M  V30 88 H 1.8934 2.59956 7.09901 0
M  V30 89 H 3.1614 1.54115 7.64113 0
M  V30 90 N 7.3905 -1.2043 1.01659 0
M  V30 91 C 8.6385 -1.89423 0.704522 0
M  V30 92 C 8.9595 -1.79231 -0.768197 0
M  V30 93 O 8.2295 -1.1947 -1.55254 0
M  V30 94 H 6.8095 -0.701178 0.257602 0
M  V30 95 H 9.4715 -1.4626 1.28818 0
M  V30 96 H 8.5675 -2.96052 0.987916 0
M  V30 97 N 8.8686 -0.792821 -1.36206 0
M  V30 98 C 9.7986 -0.207853 -2.32573 0
M  V30 99 C 10.7796 0.659055 -1.56813 0
M  V30 100 O 11.9646 0.592176 -1.84951 0
M  V30 101 C 9.0946 0.655449 -3.41059 0
M  V30 102 C 8.0486 -0.111842 -4.27854 0
M  V30 103 C 7.3746 0.872274 -5.27537 0
M  V30 104 C 8.6746 -1.30299 -5.05786 0
M  V30 105 H 10.3686 -1.01294 -2.81744 0
M  V30 106 H 7.9146 -0.48854 -1.3546 0
M  V30 107 H 9.8676 1.07464 -4.07467 0
M  V30 108 H 8.5916 1.49328 -2.90463 0
M  V30 109 H 7.2506 -0.512053 -3.63006 0
M  V30 110 H 6.8986 1.70523 -4.73214 0
M  V30 111 H 6.5986 0.363291 -5.86476 0
M  V30 112 H 8.1226 1.28996 -5.96818 0
M  V30 113 H 9.5366 -0.959379 -5.65216 0
M  V30 114 H 7.9336 -1.7455 -5.74154 0
M  V30 115 H 9.0036 -2.09663 -4.37229 0
M  V30 116 N 10.3467 1.47872 -0.545128 0
M  V30 117 C 11.5947 2.02093 -0.016553 0
M  V30 118 C 11.9157 1.42305 1.3332 0
M  V30 119 O 11.1857 0.593853 1.86682 0
M  V30 120 H 9.7657 0.746993 -0.00313038 0
M  V30 121 H 12.4277 1.81414 -0.712397 0
M  V30 122 H 11.5237 3.11996 0.0805422 0
M  V30 123 N 11.8248 0.280983 1.55075 0
M  V30 124 C 13.0498 -0.340154 2.04592 0
M  V30 125 C 13.4748 -1.48246 1.15779 0
M  V30 126 O 12.8328 -1.80614 0.15761 0
M  V30 127 C 12.8808 -0.793104 3.5177 0
M  V30 128 O 11.9848 -1.89981 3.66034 0
M  V30 129 H 11.3258 -0.0694289 0.66036 0
M  V30 130 H 13.8558 0.416993 2.00306 0
M  V30 131 H 13.8658 -1.08729 3.93245 0
M  V30 132 H 12.5408 0.0426163 4.15878 0
M  V30 133 H 11.1178 -1.60771 3.36463 0
M  V30 134 N 13.3029 -1.57598 0.00835791 0
M  V30 135 C 14.5309 -1.95214 -0.68549 0
M  V30 136 C 14.9459 -0.883706 -1.66841 0
M  V30 137 O 14.3029 0.136565 -1.81988 0
M  V30 138 C 14.3539 -3.32865 -1.41007 0
M  V30 139 O 14.0749 -4.35609 -0.466552 0
M  V30 140 C 15.5759 -3.84991 -2.19765 0
M  V30 141 H 12.7959 -0.643422 -0.190392 0
M  V30 142 H 15.3399 -2.04406 0.0619607 0
M  V30 143 H 13.4949 -3.24956 -2.10908 0
M  V30 144 H 13.9089 -5.15288 -0.978699 0
M  V30 145 H 15.3829 -4.8371 -2.65948 0
M  V30 146 H 15.8599 -3.18137 -3.02796 0
M  V30 147 H 16.4659 -3.96103 -1.54864 0
M  V30 148 N 14.781 0.264519 -1.55364 0
M  V30 149 C 16.197 0.61215 -1.47394 0
M  V30 150 C 16.397 1.89134 -0.695018 0
M  V30 151 O 15.453 2.51563 -0.217275 0
M  V30 152 C 16.766 0.731235 -2.91674 0
M  V30 153 C 18.314 0.82473 -3.01939 0
M  V30 154 C 18.789 0.975522 -4.4749 0
M  V30 155 N 20.28 1.04083 -4.51354 0
M  V30 156 C 21.015 1.17646 -5.61201 0
M  V30 157 N 20.511 1.27874 -6.80896 0
M  V30 158 N 22.304 1.20823 -5.48961 0
M  V30 159 H 14.455 -0.575456 -2.04456 0
M  V30 160 H 16.718 -0.196099 -0.927496 0
M  V30 161 H 16.424 -0.138392 -3.51428 0
M  V30 162 H 16.298 1.60883 -3.41169 0
M  V30 163 H 18.685 1.68482 -2.42276 0
M  V30 164 H 18.766 -0.0776479 -2.55682 0
M  V30 165 H 18.41 0.120058 -5.07758 0
M  V30 166 H 18.34 1.89268 -4.91412 0
M  V30 167 H 20.831 0.973846 -3.65136 0
M  V30 168 H 21.144 1.38081 -7.60364 0
M  V30 169 H 19.489 1.24863 -6.83692 0
M  V30 170 H 22.68 1.12469 -4.54388 0
M  V30 171 H 22.853 1.31049 -6.3461 0
M  V30 172 N 16.2591 1.48442 0.529413 0
M  V30 173 C 17.2071 1.63452 1.65487 0
M  V30 174 C 18.2011 0.500955 1.61823 0
M  V30 175 O 19.4071 0.679695 1.66674 0
M  V30 176 H 15.7821 0.514905 0.548066 0
M  V30 177 H 17.7531 2.57975 1.49971 0
M  V30 178 C 16.5021 1.69196 3.03756 0
M  V30 179 H 15.8251 2.55784 3.07269 0
M  V30 180 H 17.2651 1.83743 3.82119 0
M  V30 181 C 15.7241 0.430765 3.34135 0
M  V30 182 O 16.2541 -0.4561 3.99102 0
M  V30 183 N 14.4601 0.302293 2.89023 0
M  V30 184 H 14.0071 1.02496 2.36331 0
M  V30 185 H 13.9651 -0.540546 3.09718 0
M  V30 186 N 17.7372 -0.778329 1.37039 0
M  V30 187 C 18.9852 -1.53361 1.31623 0
M  V30 188 C 19.3062 -1.94739 -0.100831 0
M  V30 189 O 18.5762 -1.65797 -1.04347 0
M  V30 190 H 17.1562 -0.568794 0.484234 0
M  V30 191 H 19.8182 -0.926742 1.71457 0
M  V30 192 H 18.9142 -2.43606 1.95096 0
M  V30 193 N 19.2153 -1.21501 -1.00376 0
M  V30 194 C 20.6313 -0.972629 -1.26539 0
M  V30 195 C 20.8313 0.340257 -1.98606 0
M  V30 196 O 19.8873 1.06561 -2.28913 0
M  V30 197 C 21.2003 -2.16404 -2.08781 0
M  V30 198 C 22.7483 -2.20643 -2.22004 0
M  V30 199 C 23.2233 -3.39306 -3.07629 0
M  V30 200 N 24.7143 -3.39401 -3.15217 0
M  V30 201 C 25.4493 -4.27867 -3.81729 0
M  V30 202 N 24.9453 -5.26533 -4.5026 0
M  V30 203 N 26.7383 -4.15672 -3.78382 0
M  V30 204 H 18.8893 -2.05929 -0.520281 0
M  V30 205 H 21.1523 -0.901803 -0.292328 0
M  V30 206 H 20.8583 -3.11554 -1.63178 0
M  V30 207 H 20.7323 -2.15567 -3.09533 0
M  V30 208 H 23.1193 -1.26048 -2.66825 0
M  V30 209 H 23.2003 -2.25523 -1.20718 0
M  V30 210 H 22.8443 -4.34195 -2.63509 0
M  V30 211 H 22.7743 -3.31665 -4.09031 0
M  V30 212 H 25.2653 -2.67997 -2.66432 0
M  V30 213 H 25.5783 -5.90337 -4.98721 0
M  V30 214 H 23.9233 -5.30457 -4.49044 0
M  V30 215 H 27.1143 -3.3785 -3.23998 0
M  V30 216 H 27.2873 -4.84825 -4.2994 0
M  V30 217 N 20.6934 1.19889 -1.02296 0
M  V30 218 C 21.9704 1.85148 -0.630832 0
M  V30 219 C 22.3504 1.91385 0.890782 0
M  V30 220 O 21.6984 1.42642 1.78509 0
M  V30 221 C 21.9084 3.24442 -1.28602 0
M  V30 222 C 23.2564 4.00663 -1.4055 0
M  V30 223 O 24.2804 3.33818 -1.24273 0
M  V30 224 O 23.1394 5.20387 -1.66913 0
M  V30 225 H 20.2334 0.797613 -0.218499 0
M  V30 226 H 22.7794 1.27427 -1.12074 0
M  V30 227 H 21.5514 3.14704 -2.32545 0
M  V30 228 H 21.1744 3.89802 -0.7836 0
M  V30 229 N 22.1715 0.800033 1.35784 0
M  V30 230 C 23.3965 0.388511 2.03729 0
M  V30 231 C 23.8215 -0.990481 1.5991 0
M  V30 232 O 23.1795 -1.64013 0.772612 0
M  V30 233 C 23.2275 0.4726 3.5749 0
M  V30 234 O 22.3315 -0.51646 4.09153 0
M  V30 235 H 21.6725 0.163271 0.643614 0
M  V30 236 H 24.2025 1.0841 1.73518 0
M  V30 237 H 24.2125 0.34003 4.06581 0
M  V30 238 H 22.8875 1.47848 3.88734 0
M  V30 239 H 21.4645 -0.344673 3.71304 0
M  V30 240 N 23.6496 -1.47581 0.552962 0
M  V30 241 C 24.5816 -2.27997 -0.234533 0
M  V30 242 C 25.5946 -1.36753 -0.883321 0
M  V30 243 O 26.7836 -1.61612 -0.757889 0
M  V30 244 C 23.8836 -3.10879 -1.34935 0
M  V30 245 C 23.0566 -4.30056 -0.798158 0
M  V30 246 C 22.1156 -4.94567 -1.79694 0
M  V30 247 O 21.1416 -5.53087 -1.34474 0
M  V30 248 N 22.3436 -4.88878 -3.13015 0
M  V30 249 H 25.1086 -2.96222 0.455255 0
M  V30 250 H 22.6696 -1.57163 0.388761 0
M  V30 251 H 24.6616 -3.50903 -2.01616 0
M  V30 252 H 23.2316 -2.44924 -1.94244 0
M  V30 253 H 22.4516 -3.94174 0.0453079 0
M  V30 254 H 23.7396 -5.07152 -0.409173 0
M  V30 255 H 23.1376 -4.42526 -3.52402 0
M  V30 256 H 21.6946 -5.32934 -3.75266 0
M  V30 257 N 25.1277 -0.289203 -1.54924 0
M  V30 258 C 26.0907 0.579144 -2.21762 0
M  V30 259 C 27.0907 1.07047 -1.1999 0
M  V30 260 O 28.2807 0.968384 -1.44803 0
M  V30 261 C 25.4127 1.80055 -2.8947 0
M  V30 262 H 26.6057 -0.00464908 -2.999 0
M  V30 263 H 24.1587 -0.0399306 -1.56249 0
M  V30 264 H 24.8937 2.42449 -2.15381 0
M  V30 265 H 24.6787 1.45602 -3.64064 0
M  V30 266 H 26.1687 2.41773 -3.40493 0
M  V30 267 N 26.6058 1.57591 -0.0167156 0
M  V30 268 C 27.5528 2.09462 0.969251 0
M  V30 269 C 28.5228 0.99381 1.33089 0
M  V30 270 O 29.7078 1.26726 1.42636 0
M  V30 271 C 26.8478 2.61622 2.25051 0
M  V30 272 C 25.9608 3.85666 1.94642 0
M  V30 273 C 25.0958 4.26266 3.16972 0
M  V30 274 C 24.1348 5.43101 2.82326 0
M  V30 275 N 23.2718 5.78915 3.97243 0
M  V30 276 H 28.1118 2.93428 0.519997 0
M  V30 277 H 25.6488 1.45044 0.245087 0
M  V30 278 H 27.6068 2.89949 2.99976 0
M  V30 279 H 26.2368 1.80505 2.67615 0
M  V30 280 H 25.2888 3.64145 1.10013 0
M  V30 281 H 26.6008 4.70678 1.65117 0
M  V30 282 H 25.7548 4.55963 4.00228 0
M  V30 283 H 24.4938 3.39996 3.49648 0
M  V30 284 H 23.4988 5.1311 1.97479 0
M  V30 285 H 24.7238 6.3106 2.50879 0
M  V30 286 H 22.6698 4.95602 4.29785 0
M  V30 287 H 22.5868 6.58539 3.71299 0
M  V30 288 H 23.8548 6.13212 4.81239 0
M  V30 289 N 28.0839 -0.256276 1.55502 0
M  V30 290 C 29.4999 -0.604325 1.47716 0
M  V30 291 C 29.6999 -1.88763 0.705039 0
M  V30 292 O 28.7559 -2.51445 0.230613 0
M  V30 293 C 30.0689 -0.715756 2.92057 0
M  V30 294 C 31.6169 -0.808706 3.02372 0
M  V30 295 C 32.0919 -0.951777 4.48001 0
M  V30 296 N 33.5829 -1.01688 4.519 0
M  V30 297 C 34.3179 -1.14668 5.61817 0
M  V30 298 N 33.8139 -1.24261 6.81565 0
M  V30 299 N 35.6069 -1.1791 5.49594 0
M  V30 300 H 27.7579 0.586291 2.04148 0
M  V30 301 H 30.0209 0.201015 0.926443 0
M  V30 302 H 29.7269 0.157027 3.51349 0
M  V30 303 H 29.6009 -1.59071 3.42018 0
M  V30 304 H 31.9879 -1.67195 2.43166 0
M  V30 305 H 32.0689 0.0912063 2.55637 0
M  V30 306 H 31.7129 -0.0931291 5.07815 0
M  V30 307 H 31.6429 -1.86659 4.92408 0
M  V30 308 H 34.1339 -0.954468 3.65648 0
M  V30 309 H 34.4469 -1.34046 7.61086 0
M  V30 310 H 32.7919 -1.21236 6.84344 0
M  V30 311 H 35.9829 -1.10057 4.54978 0
M  V30 312 H 36.1559 -1.27681 6.35296 0
M  V30 313 N 29.562 -1.4872 -0.521534 0
M  V30 314 C 30.492 -1.66771 -1.63431 0
M  V30 315 C 31.473 -0.516499 -1.62069 0
M  V30 316 O 32.658 -0.750013 -1.79132 0
M  V30 317 C 29.788 -1.71515 -3.01993 0
M  V30 318 C 28.742 -2.86222 -3.18216 0
M  V30 319 C 28.068 -2.76061 -4.57924 0
M  V30 320 C 29.368 -4.27419 -3.00184 0
M  V30 321 H 31.062 -2.59932 -1.48579 0
M  V30 322 H 28.608 -1.25089 -0.713358 0
M  V30 323 H 30.561 -1.82731 -3.7972 0
M  V30 324 H 29.285 -0.749393 -3.17886 0
M  V30 325 H 27.944 -2.74575 -2.42908 0
M  V30 326 H 27.592 -1.77437 -4.70665 0
M  V30 327 H 27.292 -3.53037 -4.69722 0
M  V30 328 H 28.816 -2.89256 -5.37739 0
M  V30 329 H 30.23 -4.39855 -3.67697 0
M  V30 330 H 28.627 -5.05458 -3.2347 0
M  V30 331 H 29.697 -4.43293 -1.96518 0
M  V30 332 N 31.0401 0.771051 -1.3745 0
M  V30 333 C 32.2881 1.52661 -1.32435 0
M  V30 334 C 32.6091 1.9479 0.0905024 0
M  V30 335 O 31.8791 1.66348 1.03466 0
M  V30 336 H 30.4591 0.566218 -0.487244 0
M  V30 337 H 33.1211 0.917636 -1.71946 0
M  V30 338 H 32.2171 2.42568 -1.96385 0
M  V30 339 N 32.5182 1.22032 0.997298 0
M  V30 340 C 33.7642 1.04376 1.73878 0
M  V30 341 C 34.0972 -0.420716 1.89588 0
M  V30 342 O 33.3722 -1.31202 1.43583 0
M  V30 343 C 33.6552 1.75047 3.14691 0
M  V30 344 C 33.5082 3.29062 3.06656 0
M  V30 345 C 34.8272 1.49928 4.13775 0
M  V30 346 H 31.9462 0.380578 0.631133 0
M  V30 347 H 34.5882 1.50312 1.16217 0
M  V30 348 H 32.7382 1.35996 3.63919 0
M  V30 349 H 34.4102 3.7753 2.65083 0
M  V30 350 H 32.6532 3.58967 2.43568 0
M  V30 351 H 33.3242 3.73683 4.06282 0
M  V30 352 H 35.8002 1.83842 3.73285 0
M  V30 353 H 34.6762 2.01878 5.10428 0
M  V30 354 H 34.9372 0.430929 4.39995 0
M  V30 355 N 33.9963 -1.19345 1.0293 0
M  V30 356 C 34.9433 -2.2258 0.610464 0
M  V30 357 C 35.9133 -1.6179 -0.375946 0
M  V30 358 O 37.0983 -1.88844 -0.272511 0
M  V30 359 C 34.2383 -3.45085 -0.0321473 0
M  V30 360 C 33.3513 -4.20258 1.00035 0
M  V30 361 C 32.4863 -5.3019 0.32746 0
M  V30 362 C 31.5253 -5.97121 1.34584 0
M  V30 363 N 30.6623 -6.98615 0.698726 0
M  V30 364 H 35.5023 -2.57764 1.49538 0
M  V30 365 H 33.0393 -1.26644 0.748311 0
M  V30 366 H 34.9973 -4.15061 -0.421966 0
M  V30 367 H 33.6273 -3.10555 -0.88064 0
M  V30 368 H 32.6793 -3.49223 1.50823 0
M  V30 369 H 33.9913 -4.66175 1.77433 0
M  V30 370 H 33.1453 -6.06587 -0.11718 0
M  V30 371 H 31.8843 -4.85345 -0.478713 0
M  V30 372 H 30.8893 -5.19474 1.80074 0
M  V30 373 H 32.1143 -6.4405 2.15352 0
M  V30 374 H 30.0603 -6.55942 -0.0873471 0
M  V30 375 H 29.9773 -7.42724 1.41058 0
M  V30 376 H 31.2453 -7.79004 0.278102 0
M  V30 377 N 35.4744 -0.807222 -1.35358 0
M  V30 378 C 36.8904 -0.491038 -1.51858 0
M  V30 379 C 37.0904 0.987648 -1.75635 0
M  V30 380 O 36.1464 1.77265 -1.79815 0
M  V30 381 C 37.4594 -1.33695 -2.69344 0
M  V30 382 C 39.0074 -1.33246 -2.83222 0
M  V30 383 C 39.4824 -2.1625 -4.03733 0
M  V30 384 N 40.9734 -2.1379 -4.10911 0
M  V30 385 C 41.7084 -2.74772 -5.03277 0
M  V30 386 N 41.2044 -3.44684 -6.0097 0
M  V30 387 N 42.9974 -2.6441 -4.96028 0
M  V30 388 H 35.1484 -1.76485 -1.18181 0
M  V30 389 H 37.4114 -0.751199 -0.578276 0
M  V30 390 H 37.1174 -2.38634 -2.58354 0
M  V30 391 H 36.9914 -0.990618 -3.6396 0
M  V30 392 H 39.3784 -0.290911 -2.93663 0
M  V30 393 H 39.4594 -1.71866 -1.89461 0
M  V30 394 H 39.1034 -3.20445 -3.94052 0
M  V30 395 H 39.0334 -1.74989 -4.96675 0
M  V30 396 H 41.5244 -1.62923 -3.40976 0
M  V30 397 H 41.8374 -3.88501 -6.68047 0
M  V30 398 H 40.1824 -3.48788 -6.01142 0
M  V30 399 H 43.3734 -2.0938 -4.18662 0
M  V30 400 H 43.5464 -3.12225 -5.6782 0
M  V30 401 N 36.9525 1.47285 -0.560781 0
M  V30 402 C 38.1825 2.06555 -0.0429638 0
M  V30 403 C 38.5905 1.41339 1.25777 0
M  V30 404 O 37.9335 0.505182 1.76617 0
M  V30 405 C 37.9955 3.58827 0.219887 0
M  V30 406 C 37.6595 4.46105 -0.991944 0
M  V30 407 C 38.6565 4.84 -1.89843 0
M  V30 408 C 36.3415 4.87567 -1.20762 0
M  V30 409 C 38.3355 5.6216 -3.00425 0
M  V30 410 C 36.0225 5.65491 -2.31653 0
M  V30 411 C 37.0205 6.02699 -3.21315 0
M  V30 412 O 36.7085 6.79052 -4.30283 0
M  V30 413 H 36.4405 0.674537 -0.0444468 0
M  V30 414 H 38.9945 1.90225 -0.774818 0
M  V30 415 H 37.2245 3.73383 1.00609 0
M  V30 416 H 38.9135 4.00103 0.683522 0
M  V30 417 H 39.6795 4.52564 -1.74387 0
M  V30 418 H 35.5585 4.5807 -0.518893 0
M  V30 419 H 39.1025 5.9112 -3.70436 0
M  V30 420 H 34.9995 5.9634 -2.47081 0
M  V30 421 H 35.7675 6.9745 -4.28376 0
M  V30 422 N 38.4306 0.297415 1.54768 0
M  V30 423 C 39.3406 -0.58983 2.27064 0
M  V30 424 C 40.3566 -1.15144 1.30453 0
M  V30 425 O 41.5326 -1.17699 1.63428 0
M  V30 426 C 38.5976 -1.74714 2.9946 0
M  V30 427 C 37.6586 -1.21997 4.11601 0
M  V30 428 C 36.8916 -2.32212 4.80535 0
M  V30 429 O 37.1146 -3.52036 4.48806 0
M  V30 430 O 36.0486 -1.99106 5.68014 0
M  V30 431 H 39.8746 -0.00348199 3.037 0
M  V30 432 H 37.4596 0.0640035 1.49263 0
M  V30 433 H 39.3416 -2.42147 3.44881 0
M  V30 434 H 38.0166 -2.32016 2.25722 0
M  V30 435 H 36.9236 -0.511458 3.70587 0
M  V30 436 H 38.2566 -0.692419 4.87305 0
M  V30 437 N 39.9087 -1.5758 0.0250728 0
M  V30 438 C 41.1567 -1.91255 -0.653151 0
M  V30 439 C 41.4777 -0.901691 -1.729 0
M  V30 440 O 40.7477 0.0573785 -1.95816 0
M  V30 441 H 39.3277 -0.705942 -0.244243 0
M  V30 442 H 41.9897 -1.94767 0.0719209 0
M  V30 443 H 41.0857 -2.91752 -1.10847 0
M  V30 444 N 41.3868 0.248026 -1.55636 0
M  V30 445 C 42.3188 1.32993 -1.8667 0
M  V30 446 C 43.3318 1.44345 -0.752877 0
M  V30 447 O 44.5208 1.45715 -1.03098 0
M  V30 448 C 41.6208 2.70863 -2.03682 0
M  V30 449 C 40.7938 2.81792 -3.34532 0
M  V30 450 C 39.8528 4.005 -3.41301 0
M  V30 451 O 38.8788 3.9008 -4.14519 0
M  V30 452 N 40.0808 5.13618 -2.70512 0
M  V30 453 H 42.8458 1.06707 -2.8006 0
M  V30 454 H 40.4068 0.438129 -1.55859 0
M  V30 455 H 42.3988 3.48612 -2.05553 0
M  V30 456 H 40.9688 2.89862 -1.17041 0
M  V30 457 H 40.1888 1.90729 -3.44987 0
M  V30 458 H 41.4768 2.86043 -4.20781 0
M  V30 459 H 40.8748 5.24975 -2.10755 0
M  V30 460 H 39.4318 5.89505 -2.78077 0
M  V30 461 N 42.8649 1.48995 0.513639 0
M  V30 462 C 44.1109 1.58076 1.27042 0
M  V30 463 C 44.4439 0.261026 1.92438 0
M  V30 464 O 43.7189 -0.734393 1.80103 0
M  V30 465 C 44.0019 2.73091 2.34719 0
M  V30 466 C 43.8549 4.14821 1.73907 0
M  V30 467 C 45.1739 2.83796 3.36375 0
M  V30 468 H 42.2929 0.575391 0.460536 0
M  V30 469 H 44.9349 1.81232 0.570516 0
M  V30 470 H 43.0849 2.53479 2.94416 0
M  V30 471 H 44.7569 4.45917 1.18135 0
M  V30 472 H 42.9999 4.21058 1.0437 0
M  V30 473 H 43.6709 4.91147 2.51949 0
M  V30 474 H 46.1469 3.01611 2.86653 0
M  V30 475 H 45.0229 3.65971 4.09093 0
M  V30 476 H 45.2839 1.92624 3.9793 0
M  V30 477 N 44.343 -0.763751 1.37857 0
M  V30 478 C 45.589 -1.52483 1.33704 0
M  V30 479 C 45.922 -1.94051 -0.0759612 0
M  V30 480 O 45.197 -1.64675 -1.03501 0
M  V30 481 C 45.48 -2.78441 2.28348 0
M  V30 482 C 45.333 -2.43075 3.78463 0
M  V30 483 C 46.652 -3.80415 2.21298 0
M  V30 484 H 43.771 -0.553169 0.487005 0
M  V30 485 H 46.413 -0.875562 1.68624 0
M  V30 486 H 44.563 -3.33842 1.987 0
M  V30 487 H 46.235 -1.93527 4.18742 0
M  V30 488 H 44.478 -1.75666 3.96641 0
M  V30 489 H 45.149 -3.33149 4.40132 0
M  V30 490 H 47.625 -3.34527 2.47449 0
M  V30 491 H 46.501 -4.66257 2.89647 0
M  V30 492 H 46.762 -4.25262 1.20849 0
M  V30 493 N 45.8211 -1.22559 -0.990812 0
M  V30 494 C 47.2371 -0.985996 -1.255 0
M  V30 495 C 47.4371 0.319173 -1.98956 0
M  V30 496 O 46.4931 1.04127 -2.3003 0
M  V30 497 C 47.8061 -2.18607 -2.06474 0
M  V30 498 C 49.3541 -2.22985 -2.19651 0
M  V30 499 C 49.8291 -3.4255 -3.04012 0
M  V30 500 N 51.3201 -3.42725 -3.11599 0
M  V30 501 C 52.0551 -4.31892 -3.7717 0
M  V30 502 N 51.5511 -5.31279 -4.44651 0
M  V30 503 N 53.3441 -4.19662 -3.73952 0
M  V30 504 H 45.4951 -2.06469 -0.49841 0
M  V30 505 H 47.7581 -0.904853 -0.282747 0
M  V30 506 H 47.4641 -3.13267 -1.59865 0
M  V30 507 H 47.3381 -2.18838 -3.07229 0
M  V30 508 H 49.7251 -1.28871 -2.65474 0
M  V30 509 H 49.8061 -2.26791 -1.18319 0
M  V30 510 H 49.4501 -4.36965 -2.58889 0
M  V30 511 H 49.3801 -3.35984 -4.0549 0
M  V30 512 H 51.8711 -2.70807 -2.63575 0
M  V30 513 H 52.1841 -5.95593 -4.92431 0
M  V30 514 H 50.5291 -5.3519 -4.43392 0
M  V30 515 H 53.7201 -3.41268 -3.20396 0
M  V30 516 H 53.8931 -4.89358 -4.24774 0
M  V30 517 N 47.2992 1.18797 -1.03562 0
M  V30 518 C 48.2622 2.20464 -0.626769 0
M  V30 519 C 49.2622 1.57721 0.313173 0
M  V30 520 O 50.4522 1.73917 0.0992615 0
M  V30 521 C 47.5842 3.40802 0.0818498 0
M  V30 522 H 48.7772 2.58149 -1.5264 0
M  V30 523 H 46.3302 1.32593 -0.827578 0
M  V30 524 H 47.0652 3.08642 0.995518 0
M  V30 525 H 46.8502 3.8758 -0.593652 0
M  V30 526 H 48.3402 4.16092 0.354584 0
M  V30 527 N 48.7773 0.814389 1.34928 0
M  V30 528 C 50.0253 0.397636 1.9815 0
M  V30 529 C 50.3463 -1.04069 1.64908 0
M  V30 530 O 49.6163 -1.72121 0.93548 0
M  V30 531 H 48.1963 0.144043 0.732981 0
M  V30 532 H 50.8583 1.04195 1.6471 0
M  V30 533 H 49.9543 0.509688 3.0791 0
M  V30 534 N 50.2554 -1.46986 0.568584 0
M  V30 535 C 51.2034 -2.31858 -0.185649 0
M  V30 536 C 52.1974 -1.43624 -0.898249 0
M  V30 537 O 53.4034 -1.60327 -0.818242 0
M  V30 538 H 49.7784 -0.747866 -0.0787399 0
M  V30 539 H 51.7494 -2.93303 0.549191 0
M  V30 540 C 50.4984 -3.26513 -1.19519 0
M  V30 541 H 49.8214 -3.94377 -0.656285 0
M  V30 542 H 51.2614 -3.88707 -1.6936 0
M  V30 543 C 49.7204 -2.50847 -2.24894 0
M  V30 544 O 50.2504 -2.26119 -3.32014 0
M  V30 545 N 48.4564 -2.11656 -1.99124 0
M  V30 546 H 48.0034 -2.31966 -1.12024 0
M  V30 547 H 47.9614 -1.61347 -2.69842 0
M  V30 548 N 51.7335 -0.305618 -1.54608 0
M  V30 549 C 52.9825 0.303098 -1.9941 0
M  V30 550 C 53.2955 1.54648 -1.19764 0
M  V30 551 O 54.5015 2.23007 -1.54855 0
M  V30 552 C 52.9575 0.590588 -3.55021 0
M  V30 553 C 52.5655 -0.634719 -4.43481 0
M  V30 554 C 54.3095 1.16025 -4.08336 0
M  V30 555 C 52.2165 -0.320126 -5.90533 0
M  V30 556 H 51.1465 0.117031 -0.744862 0
M  V30 557 H 53.7975 -0.415045 -1.78745 0
M  V30 558 H 52.1795 1.36845 -3.71604 0
M  V30 559 H 53.3535 -1.41079 -4.38672 0
M  V30 560 H 51.6685 -1.12333 -4.00962 0
M  V30 561 H 54.2655 1.40994 -5.15776 0
M  V30 562 H 54.6085 2.10397 -3.5922 0
M  V30 563 H 55.1415 0.443985 -3.95315 0
M  V30 564 H 51.8805 -1.23254 -6.43808 0
M  V30 565 H 51.4005 0.418579 -5.98338 0
M  V30 566 H 53.0795 0.0766241 -6.46955 0
M  V30 567 N 53.2116 1.57565 -0.0334293 0
M  V30 568 C 54.1416 2.13511 0.945265 0
M  V30 569 C 55.1226 1.05231 1.33643 0
M  V30 570 O 56.3076 1.33084 1.41429 0
M  V30 571 C 53.4376 2.6657 2.22616 0
M  V30 572 C 52.3916 3.79676 1.97561 0
M  V30 573 C 51.7176 4.1918 3.31952 0
M  V30 574 C 53.0176 5.0557 1.31135 0
M  V30 575 H 54.7116 2.95538 0.479325 0
M  V30 576 H 52.2576 1.42166 0.229115 0
M  V30 577 H 54.2106 3.04344 2.91466 0
M  V30 578 H 52.9346 1.8171 2.71384 0
M  V30 579 H 51.5936 3.42347 1.31127 0
M  V30 580 H 51.2416 3.31296 3.78487 0
M  V30 581 H 50.9416 4.95402 3.15992 0
M  V30 582 H 52.4656 4.59541 4.02063 0
M  V30 583 H 53.8796 5.40903 1.89992 0
M  V30 584 H 52.2766 5.86818 1.25559 0
M  V30 585 H 53.3466 4.84062 0.284894 0
M  V30 586 N 54.6897 -0.239769 1.55765 0
M  V30 587 C 55.9357 -0.968234 1.78194 0
M  V30 588 C 56.2687 -1.84701 0.599938 0
M  V30 589 O 55.5437 -1.9031 -0.401524 0
M  V30 590 C 55.8267 -1.8227 3.10564 0
M  V30 591 C 55.6797 -0.971633 4.3918 0
M  V30 592 C 56.9987 -2.80388 3.39221 0
M  V30 593 H 54.1177 -0.350572 0.648281 0
M  V30 594 H 56.7597 -0.238259 1.885 0
M  V30 595 H 54.9097 -2.44507 3.01908 0
M  V30 596 H 56.5817 -0.367408 4.59835 0
M  V30 597 H 54.8247 -0.276276 4.32919 0
M  V30 598 H 55.4957 -1.60346 5.28198 0
M  V30 599 H 57.9717 -2.28287 3.47885 0
M  V30 600 H 56.8477 -3.3729 4.33044 0
M  V30 601 H 57.1087 -3.57212 2.60484 0
M  V30 602 N 56.1678 -1.49265 -0.50573 0
M  V30 603 C 57.5838 -1.35923 -0.836486 0
M  V30 604 C 57.7838 -0.388704 -1.97715 0
M  V30 605 O 56.8398 0.181336 -2.51848 0
M  V30 606 C 58.1528 -2.76531 -1.18115 0
M  V30 607 C 59.7008 -2.85197 -1.28964 0
M  V30 608 C 60.1758 -4.26561 -1.66761 0
M  V30 609 N 61.6668 -4.2935 -1.73819 0
M  V30 610 C 62.4018 -5.35693 -2.045 0
M  V30 611 N 61.8978 -6.52287 -2.33438 0
M  V30 612 N 63.6908 -5.23105 -2.05711 0
M  V30 613 H 55.8418 -2.10965 0.246519 0
M  V30 614 H 58.1048 -0.9468 0.0476887 0
M  V30 615 H 57.8108 -3.49226 -0.416398 0
M  V30 616 H 57.6848 -3.11599 -2.1257 0
M  V30 617 H 60.0718 -2.12742 -2.04511 0
M  V30 618 H 60.1528 -2.53718 -0.325704 0
M  V30 619 H 59.7968 -4.99541 -0.917656 0
M  V30 620 H 59.7268 -4.55502 -2.64246 0
M  V30 621 H 62.2178 -3.4526 -1.53635 0
M  V30 622 H 62.5308 -7.29158 -2.56024 0
M  V30 623 H 60.8758 -6.55521 -2.30905 0
M  V30 624 H 64.0668 -4.31026 -1.82577 0
M  V30 625 H 64.2398 -6.06078 -2.29289 0
M  V30 626 N 57.6459 0.756429 -1.3826 0
M  V30 627 C 58.5779 1.87971 -1.31147 0
M  V30 628 C 59.5909 1.61248 -0.224239 0
M  V30 629 O 60.7799 1.71881 -0.481581 0
M  V30 630 C 57.8799 3.23545 -1.00857 0
M  V30 631 C 57.0529 3.77794 -2.20432 0
M  V30 632 C 56.1119 4.91877 -1.86931 0
M  V30 633 O 55.1379 5.06659 -2.59395 0
M  V30 634 N 56.3399 5.74643 -0.822568 0
M  V30 635 H 59.1049 1.94585 -2.2794 0
M  V30 636 H 56.6659 0.936234 -1.32084 0
M  V30 637 H 58.6579 3.97403 -0.765021 0
M  V30 638 H 57.2279 3.12335 -0.128687 0
M  V30 639 H 56.4479 2.95534 -2.6087 0
M  V30 640 H 57.7359 4.10771 -3.00241 0
M  V30 641 H 57.1339 5.65266 -0.221575 0
M  V30 642 H 55.6909 6.48661 -0.638899 0
M  V30 643 N 59.124 1.23083 0.984299 0
M  V30 644 C 60.54 0.992637 1.24975 0
M  V30 645 C 60.74 -0.308618 1.99123 0
M  V30 646 O 59.796 -1.02905 2.30579 0
M  V30 647 C 61.109 2.19698 2.05312 0
M  V30 648 C 62.657 2.24147 2.18465 0
M  V30 649 C 63.132 3.44157 3.02192 0
M  V30 650 N 64.623 3.44372 3.09777 0
M  V30 651 C 65.358 4.33886 3.74874 0
M  V30 652 N 64.854 5.3363 4.41827 0
M  V30 653 N 66.647 4.21639 3.71721 0
M  V30 654 H 58.798 2.06731 0.487453 0
M  V30 655 H 61.061 0.906339 0.277944 0
M  V30 656 H 60.767 3.1411 1.58201 0
M  V30 657 H 60.641 2.20465 3.06064 0
M  V30 658 H 63.028 1.30277 2.64786 0
M  V30 659 H 63.109 2.27415 1.17115 0
M  V30 660 H 62.753 4.38332 2.56568 0
M  V30 661 H 62.683 3.3813 4.03702 0
M  V30 662 H 65.174 2.72201 2.62135 0
M  V30 663 H 65.487 5.98196 4.89266 0
M  V30 664 H 63.832 5.37534 4.40548 0
M  V30 665 H 67.023 3.42962 3.18582 0
M  V30 666 H 67.196 4.91604 4.22173 0
M  V30 667 N 60.6021 -1.18246 1.0419 0
M  V30 668 C 61.8501 -1.87886 0.744543 0
M  V30 669 C 62.1711 -1.8082 -0.730006 0
M  V30 670 O 61.4411 -1.22736 -1.52685 0
M  V30 671 H 60.0211 -0.695556 0.272417 0
M  V30 672 H 62.6831 -1.43494 1.31892 0
M  V30 673 H 61.7791 -2.9389 1.05049 0
M  V30 674 N 62.0802 -0.821533 -1.34494 0
M  V30 675 C 63.3082 -0.421884 -2.02553 0
M  V30 676 C 63.7232 0.971745 -1.61872 0
M  V30 677 O 63.0802 1.62864 -0.823496 0
M  V30 678 C 63.1312 -0.51285 -3.57844 0
M  V30 679 O 62.8522 -1.85155 -3.97051 0
M  V30 680 C 64.3532 -0.107921 -4.43169 0
M  V30 681 H 61.5732 -0.169482 -0.649243 0
M  V30 682 H 64.1172 -1.1093 -1.71798 0
M  V30 683 H 62.2722 0.126474 -3.87193 0
M  V30 684 H 62.6862 -1.82482 -4.91732 0
M  V30 685 H 64.1602 -0.222657 -5.51551 0
M  V30 686 H 64.6372 0.948401 -4.28838 0
M  V30 687 H 65.2432 -0.720989 -4.19144 0
M  V30 688 N 63.5583 1.46682 -0.576371 0
M  V30 689 C 64.9743 1.57822 -0.237562 0
M  V30 690 C 65.1743 1.57237 1.26011 0
M  V30 691 O 64.2303 1.48596 2.04146 0
M  V30 692 C 65.5433 2.87499 -0.881168 0
M  V30 693 C 67.0913 3.01119 -0.85417 0
M  V30 694 C 67.5663 4.33524 -1.4772 0
M  V30 695 N 69.0573 4.40207 -1.44125 0
M  V30 696 C 69.7923 5.4126 -1.89276 0
M  V30 697 N 69.2883 6.49021 -2.42371 0
M  V30 698 N 71.0813 5.32422 -1.80231 0
M  V30 699 H 63.2323 1.45306 -1.54919 0
M  V30 700 H 65.4953 0.692733 -0.647167 0
M  V30 701 H 65.2013 2.9372 -1.93447 0
M  V30 702 H 65.0753 3.75224 -0.385592 0
M  V30 703 H 67.4623 2.94485 0.190491 0
M  V30 704 H 67.5433 2.14887 -1.3877 0
M  V30 705 H 67.1873 4.40916 -2.52103 0
M  V30 706 H 67.1173 5.1852 -0.918947 0
M  V30 707 H 69.6083 3.62931 -1.05307 0
M  V30 708 H 69.9213 7.2233 -2.74698 0
M  V30 709 H 68.2663 6.49858 -2.46393 0
M  V30 710 H 71.4573 4.47137 -1.38514 0
M  V30 711 H 71.6303 6.11034 -2.15735 0
M  V30 712 N 65.0364 0.313813 1.54444 0
M  V30 713 C 66.2834 -0.291675 2.00388 0
M  V30 714 C 66.6114 -1.52904 1.2021 0
M  V30 715 O 65.8664 -1.93833 0.269707 0
M  V30 716 C 66.1654 -0.680386 3.50864 0
M  V30 717 C 65.8314 0.456699 4.48581 0
M  V30 718 C 64.4934 0.768824 4.75018 0
M  V30 719 C 66.8454 1.22098 5.06697 0
M  V30 720 C 64.1734 1.84812 5.56831 0
M  V30 721 C 66.5254 2.29029 5.89685 0
M  V30 722 C 65.1894 2.60834 6.14428 0
M  V30 723 H 64.4594 -0.106732 0.733273 0
M  V30 724 H 67.1064 0.43557 1.86481 0
M  V30 725 H 65.4114 -1.48791 3.62448 0
M  V30 726 H 67.1084 -1.16026 3.83847 0
M  V30 727 H 63.6984 0.203337 4.28117 0
M  V30 728 H 67.8824 0.993096 4.86263 0
M  V30 729 H 63.1384 2.09912 5.74236 0
M  V30 730 H 67.3124 2.887 6.33739 0
M  V30 731 H 64.9394 3.44596 6.77612 0
M  V30 732 N 66.5145 -1.57545 0.0417849 0
M  V30 733 C 67.4615 -2.10977 -0.935805 0
M  V30 734 C 68.4315 -1.01486 -1.31491 0
M  V30 735 O 69.6165 -1.2898 -1.40602 0
M  V30 736 C 66.7565 -2.65169 -2.2086 0
M  V30 737 C 65.8695 -3.88714 -1.88482 0
M  V30 738 C 65.0045 -4.31254 -3.1015 0
M  V30 739 C 64.0435 -5.47524 -2.7365 0
M  V30 740 N 63.1805 -5.85162 -3.87982 0
M  V30 741 H 68.0205 -2.94218 -0.473249 0
M  V30 742 H 65.5575 -1.45415 -0.221981 0
M  V30 743 H 67.5155 -2.94685 -2.95325 0
M  V30 744 H 66.1455 -1.8474 -2.64709 0
M  V30 745 H 65.1975 -3.65849 -1.04205 0
M  V30 746 H 66.5095 -4.73245 -1.57608 0
M  V30 747 H 65.6635 -4.62273 -3.92923 0
M  V30 748 H 64.4025 -3.45516 -3.44195 0
M  V30 749 H 63.4075 -5.16187 -1.89291 0
M  V30 750 H 64.6325 -6.34971 -2.40807 0
M  V30 751 H 62.5785 -5.02377 -4.21846 0
M  V30 752 H 62.4955 -6.64362 -3.60775 0
M  V30 753 H 63.7635 -6.20791 -4.71422 0
M  V30 754 N 67.9926 0.231505 -1.5589 0
M  V30 755 C 69.4036 0.799327 -1.68724 0
M  V30 756 C 69.7546 1.85398 -0.642022 0
M  V30 757 O 68.8796 2.1539 0.208784 0
M  V30 758 C 69.4746 1.45664 -3.05888 0
M  V30 759 C 68.0336 1.97197 -3.20609 0
M  V30 760 C 67.1806 0.828552 -2.64632 0
M  V30 761 H 70.1316 0.00702616 -1.58698 0
M  V30 762 H 70.1526 2.32517 -3.01191 0
M  V30 763 H 69.6646 0.688808 -3.81939 0
M  V30 764 H 67.7656 2.76813 -2.4941 0
M  V30 765 H 67.8786 2.15878 -4.27707 0
M  V30 766 H 66.2426 1.23321 -2.22854 0
M  V30 767 H 67.0256 0.0735544 -3.43221 0
M  V30 768 N 69.4707 1.49531 0.497807 0
M  V30 769 C 70.7187 1.58865 1.24926 0
M  V30 770 C 71.0397 0.278721 1.92998 0
M  V30 771 O 70.3097 -0.702144 1.82885 0
M  V30 772 H 68.8897 0.585343 0.464094 0
M  V30 773 H 71.5517 1.86174 0.57666 0
M  V30 774 H 70.6477 2.38633 2.01149 0
M  V30 775 N 70.9488 -0.749086 1.3866 0
M  V30 776 C 71.8958 -1.86291 1.36251 0
M  V30 777 C 72.8658 -1.64578 0.224347 0
M  V30 778 O 74.0508 -1.86181 0.417279 0
M  V30 779 C 71.1908 -3.23644 1.19786 0
M  V30 780 C 70.3038 -3.57158 2.43027 0
M  V30 781 C 69.4388 -4.83838 2.19258 0
M  V30 782 C 68.4778 -5.10152 3.38247 0
M  V30 783 N 67.6148 -6.28029 3.13884 0
M  V30 784 H 72.4548 -1.87685 2.3147 0
M  V30 785 H 69.9918 -0.917287 1.14997 0
M  V30 786 H 71.9498 -4.0291 1.08254 0
M  V30 787 H 70.5798 -3.21566 0.282031 0
M  V30 788 H 69.6318 -2.72701 2.65214 0
M  V30 789 H 70.9438 -3.7253 3.31697 0
M  V30 790 H 70.0978 -5.71057 2.04888 0
M  V30 791 H 68.8368 -4.70614 1.2796 0
M  V30 792 H 67.8418 -4.21401 3.53131 0
M  V30 793 H 69.0668 -5.25271 4.30427 0
M  V30 794 H 67.0128 -6.1612 2.25238 0
M  V30 795 H 66.9298 -6.43922 3.96106 0
M  V30 796 H 68.1978 -7.18124 3.03179 0
M  V30 797 N 72.4269 -1.23603 -0.977757 0
M  V30 798 C 73.3749 -1.01704 -2.09187 0
M  V30 799 C 74.3689 0.0448214 -1.69341 0
M  V30 800 O 75.5749 -0.108902 -1.7967 0
M  V30 801 H 71.9499 -0.311803 -0.684312 0
M  V30 802 H 73.9209 -1.96207 -2.24823 0
M  V30 803 C 72.6699 -0.627746 -3.41986 0
M  V30 804 H 71.9929 -1.43656 -3.73099 0
M  V30 805 H 73.4329 -0.514053 -4.20872 0
M  V30 806 C 71.8919 0.664238 -3.30287 0
M  V30 807 O 72.4219 1.71268 -3.6336 0
M  V30 808 N 70.6279 0.641156 -2.83439 0
M  V30 809 H 70.1749 -0.212376 -2.56723 0
M  V30 810 H 70.1329 1.50583 -2.75993 0
M  V30 811 N 73.905 1.17692 -1.04816 0
M  V30 812 C 75.151 1.88137 -0.75711 0
M  V30 813 C 75.484 1.80604 0.713841 0
M  V30 814 O 74.759 1.21146 1.52164 0
M  V30 815 C 75.042 3.38318 -1.2334 0
M  V30 816 C 74.895 3.54622 -2.76701 0
M  V30 817 C 76.214 4.32214 -0.829415 0
M  V30 818 H 73.333 0.683163 -0.27651 0
M  V30 819 H 75.975 1.38424 -1.30149 0
M  V30 820 H 74.125 3.80787 -0.770286 0
M  V30 821 H 75.797 3.21194 -3.31107 0
M  V30 822 H 74.04 2.97026 -3.16161 0
M  V30 823 H 74.711 4.60028 -3.05088 0
M  V30 824 H 77.187 3.97565 -1.22805 0
M  V30 825 H 76.063 5.35838 -1.19033 0
M  V30 826 H 76.324 4.41294 0.266891 0
M  V30 827 N 75.3831 0.828654 1.34056 0
M  V30 828 C 76.6311 0.41863 1.97717 0
M  V30 829 C 76.9521 -1.02314 1.66002 0
M  V30 830 O 76.2221 -1.71119 0.953683 0
M  V30 831 H 74.8021 0.151809 0.731412 0
M  V30 832 H 77.4641 1.05936 1.63596 0
M  V30 833 H 76.5601 0.542318 3.07352 0
M  V30 834 N 76.8612 -1.46375 0.584142 0
M  V30 835 C 77.7942 -2.27351 -0.196676 0
M  V30 836 C 78.7722 -1.35715 -0.895561 0
M  V30 837 O 79.9562 -1.65126 -0.90916 0
M  V30 838 C 77.0832 -3.13486 -1.28235 0
M  V30 839 C 76.1292 -4.20896 -0.689145 0
M  V30 840 S 76.9622 -5.33299 0.48507 0
M  V30 841 C 78.1182 -6.23 -0.601767 0
M  V30 842 H 78.3512 -2.93228 0.490395 0
M  V30 843 H 75.8842 -1.49875 0.371071 0
M  V30 844 H 77.8422 -3.63676 -1.90395 0
M  V30 845 H 76.5032 -2.4692 -1.94138 0
M  V30 846 H 75.6962 -4.80997 -1.50527 0
M  V30 847 H 75.2982 -3.73726 -0.143181 0
M  V30 848 H 77.5902 -6.60979 -1.48705 0
M  V30 849 H 78.5332 -7.0809 -0.0374799 0
M  V30 850 H 78.9412 -5.57173 -0.906557 0
M  V30 851 N 78.3393 -0.321999 -1.54275 0
M  V30 852 C 79.5873 0.280489 -2.00144 0
M  V30 853 C 79.9083 1.52777 -1.21178 0
M  V30 854 O 79.1783 1.9338 -0.313187 0
M  V30 855 H 77.7583 0.106632 -0.73935 0
M  V30 856 H 80.4203 -0.438184 -1.8991 0
M  V30 857 H 79.5163 0.537972 -3.07428 0
M  V30 858 N 79.8174 1.5752 -0.0501392 0
M  V30 859 C 81.2334 1.56631 0.306402 0
M  V30 860 C 81.4334 1.0577 1.71508 0
M  V30 861 O 80.4894 0.713837 2.422 0
M  V30 862 C 81.8024 3.00393 0.135811 0
M  V30 863 C 83.3504 3.12315 0.206993 0
M  V30 864 C 83.8254 4.57954 0.064944 0
M  V30 865 N 85.3164 4.63041 0.121254 0
M  V30 866 C 86.0514 5.73389 0.0354381 0
M  V30 867 N 85.5474 6.92724 -0.102666 0
M  V30 868 N 87.3404 5.62026 0.090946 0
M  V30 869 H 79.4914 1.88903 -0.971046 0
M  V30 870 H 81.7544 0.869876 -0.376855 0
M  V30 871 H 81.4604 3.41635 -0.835384 0
M  V30 872 H 81.3344 3.66373 0.897275 0
M  V30 873 H 83.7214 2.70973 1.16866 0
M  V30 874 H 83.8024 2.49016 -0.585208 0
M  V30 875 H 83.4464 4.99981 -0.893394 0
M  V30 876 H 83.3764 5.19258 0.876277 0
M  V30 877 H 85.8674 3.77216 0.227284 0
M  V30 878 H 86.1804 7.72633 -0.160882 0
M  V30 879 H 84.5254 6.94864 -0.137737 0
M  V30 880 H 87.7164 4.67684 0.197388 0
M  V30 881 H 87.8894 6.47997 0.0206089 0
M  V30 882 N 81.2955 -0.223234 1.56011 0
M  V30 883 C 82.5725 -0.972108 1.69733 0
M  V30 884 C 82.9525 -2.02485 0.59691 0
M  V30 885 O 82.3005 -2.25037 -0.396324 0
M  V30 886 C 82.5105 -1.58407 3.10979 0
M  V30 887 C 83.8585 -2.07696 3.70334 0
M  V30 888 O 84.8825 -1.68304 3.1393 0
M  V30 889 O 83.7415 -2.80096 4.69264 0
M  V30 890 H 80.8355 -0.453993 0.691245 0
M  V30 891 H 83.3815 -0.215149 1.68331 0
M  V30 892 H 82.1535 -0.823831 3.82529 0
M  V30 893 H 81.7765 -2.40661 3.16493 0
M  V30 894 N 82.7736 -1.49793 -0.48987 0
M  V30 895 C 84.0206 -1.59841 -1.24327 0
M  V30 896 C 84.3486 -0.290135 -1.92324 0
M  V30 897 O 83.6036 0.722749 -1.81865 0
M  V30 898 C 83.9026 -2.71488 -2.32441 0
M  V30 899 C 83.5686 -4.12614 -1.81826 0
M  V30 900 C 82.2306 -4.51017 -1.67742 0
M  V30 901 C 84.5826 -5.00892 -1.4407 0
M  V30 902 C 81.9106 -5.75459 -1.14297 0
M  V30 903 C 84.2626 -6.25863 -0.920742 0
M  V30 904 C 82.9266 -6.63086 -0.766383 0
M  V30 905 H 82.1966 -0.584899 -0.454944 0
M  V30 906 H 84.8436 -1.83663 -0.542215 0
M  V30 907 H 83.1486 -2.4168 -3.0838 0
M  V30 908 H 84.8456 -2.76469 -2.90458 0
M  V30 909 H 81.4356 -3.82307 -1.93751 0
M  V30 910 H 85.6196 -4.7187 -1.53794 0
M  V30 911 H 80.8756 -6.02989 -1.01068 0
M  V30 912 H 85.0496 -6.9364 -0.619448 0
M  V30 913 H 82.6766 -7.59393 -0.350083 0
M  V30 914 N 84.2517 0.741722 -1.39055 0
M  V30 915 C 85.4797 1.53098 -1.39171 0
M  V30 916 C 85.8947 1.88794 0.0155099 0
M  V30 917 O 85.2517 1.53626 0.985159 0
M  V30 918 C 85.3027 2.82274 -2.2584 0
M  V30 919 O 85.0237 2.48097 -3.61081 0
M  V30 920 C 86.5247 3.76343 -2.34266 0
M  V30 921 H 83.7447 0.473335 -0.4756 0
M  V30 922 H 86.2887 0.917045 -1.82785 0
M  V30 923 H 84.4437 3.40015 -1.85656 0
M  V30 924 H 84.8577 3.31029 -4.06842 0
M  V30 925 H 86.3317 4.63898 -2.9917 0
M  V30 926 H 86.8087 4.17619 -1.35982 0
M  V30 927 H 87.4147 3.24523 -2.74891 0
M  V30 928 N 85.7298 1.2412 0.971189 0
M  V30 929 C 86.6598 1.05508 2.08304 0
M  V30 930 C 87.6408 -0.0308864 1.70072 0
M  V30 931 O 88.8258 0.135521 1.93727 0
M  V30 932 C 85.9558 0.655365 3.4106 0
M  V30 933 C 84.9098 1.68971 3.93234 0
M  V30 934 C 84.2358 1.14516 5.22293 0
M  V30 935 C 85.5358 3.08487 4.21465 0
M  V30 936 H 87.2298 1.98507 2.24132 0
M  V30 937 H 84.7758 0.955821 1.07704 0
M  V30 938 H 86.7288 0.51217 4.18276 0
M  V30 939 H 85.4528 -0.31032 3.25122 0
M  V30 940 H 84.1118 1.82106 3.18171 0
M  V30 941 H 83.7598 0.170189 5.02712 0
M  V30 942 H 83.4598 1.83635 5.58168 0
M  V30 943 H 84.9838 1.01401 6.02121 0
M  V30 944 H 86.3978 2.98601 4.89398 0
M  V30 945 H 84.7948 3.74926 4.68562 0
M  V30 946 H 85.8648 3.56787 3.28376 0
M  V30 947 N 87.2079 -1.17134 1.05439 0
M  V30 948 C 88.4549 -1.87456 0.765942 0
M  V30 949 C 88.7829 -1.81189 -0.707153 0
M  V30 950 O 88.0379 -1.21633 -1.5331 0
M  V30 951 C 88.3369 -3.36833 1.19491 0
M  V30 952 C 88.0029 -3.63301 2.67063 0
M  V30 953 C 86.6649 -3.70234 3.07376 0
M  V30 954 C 89.0169 -3.74575 3.62413 0
M  V30 955 C 86.3449 -3.85933 4.41896 0
M  V30 956 C 88.6969 -3.91793 4.9667 0
M  V30 957 C 87.3609 -3.96966 5.36633 0
M  V30 958 H 86.6309 -0.685948 0.280278 0
M  V30 959 H 89.2779 -1.38556 1.32192 0
M  V30 960 H 87.5829 -3.87807 0.557969 0
M  V30 961 H 89.2799 -3.89611 0.948893 0
M  V30 962 H 85.8699 -3.58532 2.34846 0
M  V30 963 H 90.0539 -3.68537 3.32406 0
M  V30 964 H 85.3099 -3.88187 4.72357 0
M  V30 965 H 89.4839 -3.99458 5.70444 0
M  V30 966 H 87.1109 -4.08883 6.40874 0
M  V30 967 N 88.686 -0.835752 -1.33615 0
M  V30 968 C 89.649 -0.272 -2.2758 0
M  V30 969 C 90.649 0.557487 -1.50827 0
M  V30 970 O 91.839 0.37173 -1.70188 0
M  V30 971 C 88.971 0.617173 -3.35267 0
M  V30 972 H 90.164 -1.10111 -2.78954 0
M  V30 973 H 87.717 -0.608594 -1.43965 0
M  V30 974 H 88.452 1.46884 -2.89129 0
M  V30 975 H 88.237 0.0237066 -3.92093 0
M  V30 976 H 89.727 1.005 -4.05326 0
M  V30 977 N 90.1641 1.46063 -0.591896 0
M  V30 978 C 91.0941 2.33172 0.123673 0
M  V30 979 C 92.0751 1.45897 0.87453 0
M  V30 980 O 93.2601 1.74698 0.848181 0
M  V30 981 C 90.3901 3.28336 1.13194 0
M  V30 982 C 89.3441 4.25124 0.495324 0
M  V30 983 C 88.6701 5.09863 1.61071 0
M  V30 984 C 89.9701 5.19143 -0.573425 0
M  V30 985 H 91.6641 2.93252 -0.603646 0
M  V30 986 H 89.2101 1.41014 -0.291741 0
M  V30 987 H 91.1631 3.88137 1.64097 0
M  V30 988 H 89.8871 2.66383 1.88965 0
M  V30 989 H 88.5461 3.66599 0.00729452 0
M  V30 990 H 88.1941 4.44288 2.35832 0
M  V30 991 H 87.8941 5.75417 1.19035 0
M  V30 992 H 89.4181 5.72529 2.12233 0
M  V30 993 H 90.8321 5.73106 -0.1491 0
M  V30 994 H 89.2291 5.93089 -0.914636 0
M  V30 995 H 90.2991 4.62519 -1.45617 0
M  V30 996 N 91.6422 0.330177 1.54103 0
M  V30 997 C 92.8882 -0.270806 2.00984 0
M  V30 998 C 93.2212 -1.51265 1.21789 0
M  V30 999 O 92.4962 -1.92142 0.301927 0
M  V30 1000 C 92.7792 -0.598339 3.55094 0
M  V30 1001 C 92.6322 0.654674 4.4501 0
M  V30 1002 C 93.9512 -1.41334 4.16789 0
M  V30 1003 H 91.0702 -0.0969531 0.730595 0
M  V30 1004 H 93.7122 0.448066 1.84641 0
M  V30 1005 H 91.8622 -1.21078 3.69151 0
M  V30 1006 H 93.5342 1.29285 4.42813 0
M  V30 1007 H 91.7772 1.28224 4.14416 0
M  V30 1008 H 92.4482 0.380944 5.50684 0
M  V30 1009 H 94.9242 -0.895597 4.06347 0
M  V30 1010 H 93.8002 -1.61127 5.24718 0
M  V30 1011 H 94.0612 -2.41146 3.70541 0
M  V30 1012 N 93.1203 -1.57491 0.0584922 0
M  V30 1013 C 94.3973 -1.84346 -0.653918 0
M  V30 1014 C 94.7773 -0.948355 -1.88599 0
M  V30 1015 O 94.1253 -0.0112403 -2.28497 0
M  V30 1016 C 94.3353 -3.34239 -1.00425 0
M  V30 1017 C 95.6833 -4.01431 -1.38342 0
M  V30 1018 O 96.7073 -3.38907 -1.09637 0
M  V30 1019 O 95.5663 -5.11683 -1.91943 0
M  V30 1020 H 92.6603 -0.761112 -0.323478 0
M  V30 1021 H 95.2063 -1.6947 0.0884125 0
M  V30 1022 H 93.9783 -3.91089 -0.128625 0
M  V30 1023 H 93.6013 -3.54329 -1.80378 0
M  V30 1024 N 94.5984 0.214957 -1.56127 0
M  V30 1025 C 95.8464 0.936518 -1.79091 0
M  V30 1026 C 96.1674 1.84606 -0.628148 0
M  V30 1027 O 95.4374 1.92664 0.35462 0
M  V30 1028 H 94.0174 0.3488 -0.660566 0
M  V30 1029 H 96.6794 0.22523 -1.93594 0
M  V30 1030 H 95.7754 1.53943 -2.71492 0
M  V30 1031 N 96.0765 1.50051 0.48192 0
M  V30 1032 C 97.3225 1.60736 1.2366 0
M  V30 1033 C 97.6555 0.301786 1.91841 0
M  V30 1034 O 96.9305 -0.696025 1.8162 0
M  V30 1035 C 97.2135 2.78009 2.28874 0
M  V30 1036 C 97.0665 4.18416 1.65069 0
M  V30 1037 C 98.3855 2.90867 3.30279 0
M  V30 1038 H 95.5045 0.585031 0.448228 0
M  V30 1039 H 98.1465 1.82402 0.531946 0
M  V30 1040 H 96.2965 2.59667 2.88973 0
M  V30 1041 H 97.9685 4.48322 1.0865 0
M  V30 1042 H 96.2115 4.23177 0.954148 0
M  V30 1043 H 96.8825 4.96381 2.41474 0
M  V30 1044 H 99.3585 3.07623 2.80191 0
M  V30 1045 H 98.2345 3.74566 4.01238 0
M  V30 1046 H 98.4955 2.01021 3.93755 0
M  V30 1047 N 97.5546 -0.734337 1.39446 0
M  V30 1048 C 98.8006 -1.49613 1.36908 0
M  V30 1049 C 99.1336 -1.94169 -0.0347829 0
M  V30 1050 O 98.4086 -1.66833 -0.999847 0
M  V30 1051 C 98.6916 -2.73534 2.34203 0
M  V30 1052 C 98.5446 -2.34993 3.83534 0
M  V30 1053 C 99.8636 -3.75635 2.29317 0
M  V30 1054 H 96.9826 -0.542714 0.498629 0
M  V30 1055 H 99.6246 -0.839597 1.70443 0
M  V30 1056 H 97.7746 -3.29553 2.05736 0
M  V30 1057 H 99.4466 -1.84601 4.22753 0
M  V30 1058 H 97.6896 -1.67213 4.00278 0
M  V30 1059 H 98.3606 -3.23738 4.47099 0
M  V30 1060 H 100.837 -3.29203 2.54489 0
M  V30 1061 H 99.7126 -4.60008 2.99472 0
M  V30 1062 H 99.9736 -4.22603 1.29842 0
M  V30 1063 N 99.0327 -1.24633 -0.964593 0
M  V30 1064 C 99.9427 -1.05859 -2.09359 0
M  V30 1065 C 100.959 0.00148855 -1.74 0
M  V30 1066 O 102.135 -0.197346 -2.00431 0
M  V30 1067 C 99.1997 -0.668879 -3.40187 0
M  V30 1068 C 98.2607 -1.80578 -3.89474 0
M  V30 1069 C 97.4937 -1.43457 -5.14058 0
M  V30 1070 O 97.7167 -0.325775 -5.69469 0
M  V30 1071 O 96.6507 -2.2613 -5.57807 0
M  V30 1072 H 100.477 -2.00516 -2.28094 0
M  V30 1073 H 98.0617 -1.03481 -1.0776 0
M  V30 1074 H 99.9437 -0.463211 -4.18846 0
M  V30 1075 H 98.6187 0.248536 -3.22744 0
M  V30 1076 H 97.5257 -2.06623 -3.11862 0
M  V30 1077 H 98.8587 -2.70208 -4.11398 0
M  V30 1078 N 100.511 1.16574 -1.06058 0
M  V30 1079 C 101.758 1.87047 -0.775873 0
M  V30 1080 C 102.086 1.81562 0.697534 0
M  V30 1081 O 101.341 1.22445 1.52662 0
M  V30 1082 C 101.64 3.36195 -1.21275 0
M  V30 1083 C 101.306 3.6188 -2.68986 0
M  V30 1084 C 99.9678 3.68599 -3.09335 0
M  V30 1085 C 102.32 3.72648 -3.64394 0
M  V30 1086 C 99.6478 3.83584 -4.43937 0
M  V30 1087 C 102 3.89154 -4.98741 0
M  V30 1088 C 100.664 3.94114 -5.3873 0
M  V30 1089 H 99.9338 0.684452 -0.283912 0
M  V30 1090 H 102.581 1.37853 -1.32925 0
M  V30 1091 H 100.886 3.87505 -0.578528 0
M  V30 1092 H 102.583 3.89103 -0.969542 0
M  V30 1093 H 99.1728 3.57281 -2.36744 0
M  V30 1094 H 103.357 3.66769 -3.34356 0
M  V30 1095 H 98.6128 3.85677 -4.74409 0
M  V30 1096 H 102.787 3.96427 -5.72554 0
M  V30 1097 H 100.414 4.05478 -6.43033 0
M  V30 1098 N 101.989 0.842826 1.3317 0
M  V30 1099 C 102.921 0.236245 2.27979 0
M  V30 1100 C 103.934 -0.585282 1.51915 0
M  V30 1101 O 105.123 -0.411705 1.73687 0
M  V30 1102 C 102.223 -0.685717 3.3189 0
M  V30 1103 C 101.396 0.0973448 4.37292 0
M  V30 1104 C 100.455 -0.748565 5.20848 0
M  V30 1105 O 99.4809 -0.186339 5.68895 0
M  V30 1106 N 100.683 -2.06527 5.42519 0
M  V30 1107 H 103.448 1.05088 2.80672 0
M  V30 1108 H 101.009 0.701667 1.45905 0
M  V30 1109 H 103.001 -1.25669 3.84694 0
M  V30 1110 H 101.571 -1.40105 2.79445 0
M  V30 1111 H 100.791 0.849706 3.84933 0
M  V30 1112 H 102.079 0.635643 5.04814 0
M  V30 1113 H 101.477 -2.54554 5.05192 0
M  V30 1114 H 100.034 -2.58464 5.98364 0
M  V30 1115 N 103.467 -1.45747 0.599634 0
M  V30 1116 C 104.744 -1.95585 0.0240846 0
M  V30 1117 C 105.124 -1.54217 -1.44154 0
M  V30 1118 O 104.472 -0.800903 -2.14004 0
M  V30 1119 C 104.682 -3.48344 0.21385 0
M  V30 1120 C 106.03 -4.24504 0.0904902 0
M  V30 1121 O 107.054 -3.55911 0.143558 0
M  V30 1122 O 105.913 -5.46491 -0.0310766 0
M  V30 1123 H 103.007 -0.82602 -0.0402478 0
M  V30 1124 H 105.553 -1.55951 0.669139 0
M  V30 1125 H 104.325 -3.71397 1.23206 0
M  V30 1126 H 103.948 -3.9485 -0.466842 0
M  V30 1127 N 104.945 -0.338344 -1.53925 0
M  V30 1128 C 106.361 0.0137736 -1.59594 0
M  V30 1129 C 106.561 1.49186 -1.35447 0
M  V30 1130 O 105.617 2.24987 -1.14616 0
M  V30 1131 C 106.93 -0.41773 -2.97784 0
M  V30 1132 C 108.478 -0.369633 -3.1081 0
M  V30 1133 C 108.953 -0.776524 -4.51369 0
M  V30 1134 N 110.444 -0.730506 -4.57403 0
M  V30 1135 C 111.179 -1.01736 -5.64303 0
M  V30 1136 N 110.675 -1.3721 -6.79077 0
M  V30 1137 N 112.468 -0.941942 -5.54151 0
M  V30 1138 H 104.619 -1.3012 -1.67876 0
M  V30 1139 H 106.882 -0.530082 -0.78595 0
M  V30 1140 H 106.588 -1.44811 -3.20504 0
M  V30 1141 H 106.462 0.209729 -3.76616 0
M  V30 1142 H 108.849 0.651568 -2.87817 0
M  V30 1143 H 108.93 -1.03223 -2.34049 0
M  V30 1144 H 108.574 -1.79571 -4.75096 0
M  V30 1145 H 108.504 -0.0914649 -5.26521 0
M  V30 1146 H 110.995 -0.468783 -3.74981 0
M  V30 1147 H 111.308 -1.57597 -7.5656 0
M  V30 1148 H 109.653 -1.4105 -6.80536 0
M  V30 1149 H 112.844 -0.664184 -4.63364 0
M  V30 1150 H 113.017 -1.16884 -6.37371 0
M  V30 1151 N 106.423 1.57458 -0.0668435 0
M  V30 1152 C 107.671 1.92919 0.602214 0
M  V30 1153 C 107.992 0.947215 1.70449 0
M  V30 1154 O 107.262 -0.00544117 1.95899 0
M  V30 1155 H 105.842 0.71217 0.22544 0
M  V30 1156 H 108.504 1.94508 -0.123535 0
M  V30 1157 H 107.6 2.94589 1.03073 0
M  V30 1158 N 107.901 -0.206675 1.56239 0
M  V30 1159 C 109.317 -0.557025 1.49564 0
M  V30 1160 C 109.517 -1.86424 0.764735 0
M  V30 1161 O 108.573 -2.50584 0.310491 0
M  V30 1162 C 109.886 -0.622478 2.94186 0
M  V30 1163 C 111.434 -0.712099 3.04792 0
M  V30 1164 C 111.909 -0.808767 4.50803 0
M  V30 1165 N 113.4 -0.8726 4.54907 0
M  V30 1166 C 114.135 -0.967365 5.65181 0
M  V30 1167 N 113.631 -1.02515 6.85173 0
M  V30 1168 N 115.424 -1.00366 5.53067 0
M  V30 1169 H 107.575 0.650943 2.02179 0
M  V30 1170 H 109.838 0.230387 0.919579 0
M  V30 1171 H 109.544 0.268727 3.50672 0
M  V30 1172 H 109.418 -1.4811 3.46905 0
M  V30 1173 H 111.805 -1.59374 2.48363 0
M  V30 1174 H 111.886 0.172489 2.55218 0
M  V30 1175 H 111.53 0.0684754 5.07854 0
M  V30 1176 H 111.46 -1.70899 4.98098 0
M  V30 1177 H 113.951 -0.837657 3.68499 0
M  V30 1178 H 114.264 -1.09765 7.64965 0
M  V30 1179 H 112.609 -0.994026 6.87855 0
M  V30 1180 H 115.8 -0.95527 4.58249 0
M  V30 1181 H 115.973 -1.07405 6.39037 0
M  V30 1182 N 109.379 -1.50304 -0.473955 0
M  V30 1183 C 110.309 -1.71886 -1.58042 0
M  V30 1184 C 111.29 -0.567799 -1.60344 0
M  V30 1185 O 112.475 -0.806623 -1.76656 0
M  V30 1186 C 109.605 -1.81036 -2.96384 0
M  V30 1187 C 108.559 -2.962 -3.08949 0
M  V30 1188 C 107.885 -2.9049 -4.48909 0
M  V30 1189 C 109.185 -4.36752 -2.86434 0
M  V30 1190 H 110.879 -2.64527 -1.40234 0
M  V30 1191 H 108.425 -1.27295 -0.673201 0
M  V30 1192 H 110.378 -1.94719 -3.73714 0
M  V30 1193 H 109.102 -0.850147 -3.15341 0
M  V30 1194 H 107.761 -2.82164 -2.3405 0
M  V30 1195 H 107.409 -1.92321 -4.64781 0
M  V30 1196 H 107.109 -3.67802 -4.58253 0
M  V30 1197 H 108.633 -3.06218 -5.28264 0
M  V30 1198 H 110.047 -4.5133 -3.53517 0
M  V30 1199 H 108.444 -5.15493 -3.07225 0
M  V30 1200 H 109.514 -4.49321 -1.82316 0
M  V30 1201 N 110.857 0.726932 -1.39834 0
M  V30 1202 C 112.105 1.4837 -1.37225 0
M  V30 1203 C 112.426 1.94979 0.0284857 0
M  V30 1204 O 111.696 1.69555 0.981213 0
M  V30 1205 H 110.276 0.55043 -0.505011 0
M  V30 1206 H 112.938 0.862468 -1.74778 0
M  V30 1207 H 112.034 2.36198 -2.04003 0
M  V30 1208 N 112.336 1.25143 0.95797 0
M  V30 1209 C 113.752 1.01892 1.22842 0
M  V30 1210 C 113.952 -0.266311 1.99732 0
M  V30 1211 O 113.008 -0.979913 2.3271 0
M  V30 1212 C 114.321 2.24004 2.00606 0
M  V30 1213 C 115.869 2.28731 2.13662 0
M  V30 1214 C 116.344 3.5049 2.94823 0
M  V30 1215 N 117.835 3.50866 3.02403 0
M  V30 1216 C 118.57 4.4174 3.65586 0
M  V30 1217 N 118.066 5.42882 4.30408 0
M  V30 1218 N 119.859 4.29429 3.62694 0
M  V30 1219 H 112.01 2.07718 0.443493 0
M  V30 1220 H 114.273 0.912031 0.258657 0
M  V30 1221 H 113.979 3.17395 1.51503 0
M  V30 1222 H 113.853 2.26907 3.01319 0
M  V30 1223 H 116.24 1.35865 2.61963 0
M  V30 1224 H 116.321 2.29848 1.12265 0
M  V30 1225 H 115.965 4.43676 2.47213 0
M  V30 1226 H 115.895 3.46617 3.96439 0
M  V30 1227 H 118.386 2.777 2.56302 0
M  V30 1228 H 118.699 6.0844 4.76467 0
M  V30 1229 H 117.044 5.46758 4.29047 0
M  V30 1230 H 120.235 3.49643 3.11236 0
M  V30 1231 H 120.408 5.00448 4.1165 0
M  V30 1232 N 113.814 -1.1601 1.06675 0
M  V30 1233 C 115.044 -1.90251 0.805497 0
M  V30 1234 C 115.452 -1.77891 -0.64431 0
M  V30 1235 O 114.795 -1.12383 -1.45313 0
M  V30 1236 C 114.857 -3.41419 1.12576 0
M  V30 1237 C 114.521 -3.77564 2.57477 0
M  V30 1238 C 115.518 -3.79161 3.55715 0
M  V30 1239 C 113.203 -4.08079 2.92877 0
M  V30 1240 C 115.197 -4.10767 4.8739 0
M  V30 1241 C 112.884 -4.39351 4.24751 0
M  V30 1242 C 113.882 -4.40675 5.21818 0
M  V30 1243 O 113.57 -4.71202 6.51325 0
M  V30 1244 H 113.302 -0.610018 0.291297 0
M  V30 1245 H 115.856 -1.47958 1.4247 0
M  V30 1246 H 114.086 -3.84079 0.449503 0
M  V30 1247 H 115.775 -3.9694 0.84814 0
M  V30 1248 H 116.541 -3.55693 3.29708 0
M  V30 1249 H 112.42 -4.06211 2.17976 0
M  V30 1250 H 115.964 -4.11715 5.63148 0
M  V30 1251 H 111.861 -4.62285 4.50514 0
M  V30 1252 H 112.629 -4.88996 6.56373 0
M  V30 1253 N 115.292 -0.849877 -1.32721 0
M  V30 1254 C 116.538 -0.451591 -1.97708 0
M  V30 1255 C 116.871 0.989175 -1.6712 0
M  V30 1256 O 116.146 1.69334 -0.956891 0
M  V30 1257 C 116.429 -0.685598 -3.53513 0
M  V30 1258 C 116.282 -2.17444 -3.93749 0
M  V30 1259 C 117.601 -0.138874 -4.39881 0
M  V30 1260 H 114.72 -0.16555 -0.718166 0
M  V30 1261 H 117.362 -1.06742 -1.57182 0
M  V30 1262 H 115.512 -0.161416 -3.88165 0
M  V30 1263 H 117.184 -2.76433 -3.693 0
M  V30 1264 H 115.427 -2.65476 -3.43081 0
M  V30 1265 H 116.098 -2.28888 -5.02309 0
M  V30 1266 H 118.574 -0.587068 -4.11938 0
M  V30 1267 H 117.45 -0.332213 -5.47894 0
M  V30 1268 H 117.711 0.95806 -4.31594 0
M  V30 1269 N 116.77 1.45427 -0.607355 0
M  V30 1270 C 117.72 2.27612 0.133038 0
M  V30 1271 C 118.704 1.37307 0.838785 0
M  V30 1272 O 119.896 1.61299 0.728813 0
M  V30 1273 C 117.025 3.24173 1.12991 0
M  V30 1274 C 116.111 4.21965 0.425011 0
M  V30 1275 N 116.502 5.02982 -0.533217 0
M  V30 1276 C 114.8 4.40899 0.672593 0
M  V30 1277 C 115.501 5.73931 -0.947518 0
M  V30 1278 N 114.477 5.42819 -0.291321 0
M  V30 1279 H 118.279 2.87649 -0.602935 0
M  V30 1280 H 115.793 1.56576 -0.431006 0
M  V30 1281 H 117.79 3.81783 1.67473 0
M  V30 1282 H 116.45 2.65696 1.86644 0
M  V30 1283 H 117.461 5.09843 -0.90995 0
M  V30 1284 H 114.138 3.93547 1.39382 0
M  V30 1285 H 115.528 6.49037 -1.73782 0
M  V30 1286 N 118.248 0.346503 1.53744 0
M  V30 1287 C 119.494 -0.249473 2.0126 0
M  V30 1288 C 119.827 -1.49965 1.23386 0
M  V30 1289 O 119.102 -1.91811 0.32229 0
M  V30 1290 C 119.385 -0.560643 3.55709 0
M  V30 1291 C 119.238 0.701836 4.44291 0
M  V30 1292 C 120.557 -1.36905 4.18264 0
M  V30 1293 H 117.676 -0.0891987 0.731582 0
M  V30 1294 H 120.318 0.467624 1.84156 0
M  V30 1295 H 118.468 -1.17156 3.70414 0
M  V30 1296 H 120.14 1.33974 4.41417 0
M  V30 1297 H 118.383 1.32612 4.13033 0
M  V30 1298 H 119.054 0.43933 5.50249 0
M  V30 1299 H 121.53 -0.852448 4.07275 0
M  V30 1300 H 120.406 -1.55553 5.26398 0
M  V30 1301 H 120.667 -2.37203 3.73078 0
M  V30 1302 N 119.726 -1.57421 0.075193 0
M  V30 1303 C 121.142 -1.57099 -0.281444 0
M  V30 1304 C 121.342 -1.08486 -1.69803 0
M  V30 1305 O 120.398 -0.752279 -2.41033 0
M  V30 1306 C 121.711 -3.00571 -0.0880041 0
M  V30 1307 C 123.259 -3.12605 -0.157281 0
M  V30 1308 C 123.734 -4.57999 0.0079207 0
M  V30 1309 N 125.225 -4.63176 -0.0475725 0
M  V30 1310 C 125.96 -5.73373 0.0557876 0
M  V30 1311 N 125.456 -6.92473 0.21286 0
M  V30 1312 N 127.249 -5.621 -0.00152098 0
M  V30 1313 H 119.4 -1.87335 1.00098 0
M  V30 1314 H 121.663 -0.86377 0.390646 0
M  V30 1315 H 121.369 -3.40262 0.889629 0
M  V30 1316 H 121.243 -3.67754 -0.838875 0
M  V30 1317 H 123.63 -2.72798 -1.1254 0
M  V30 1318 H 123.711 -2.48053 0.62475 0
M  V30 1319 H 123.355 -4.98496 0.972824 0
M  V30 1320 H 123.285 -5.20586 -0.793556 0
M  V30 1321 H 125.776 -3.7753 -0.167244 0
M  V30 1322 H 126.089 -7.72279 0.283781 0
M  V30 1323 H 124.434 -6.94556 0.248267 0
M  V30 1324 H 127.625 -4.67938 -0.122958 0
M  V30 1325 H 127.798 -6.47948 0.0824844 0
M  V30 1326 N 121.204 0.198386 -1.56346 0
M  V30 1327 C 122.615 0.763358 -1.70381 0
M  V30 1328 C 122.966 1.83995 -0.681203 0
M  V30 1329 O 122.091 2.15785 0.16305 0
M  V30 1330 C 122.686 1.39143 -3.08909 0
M  V30 1331 C 121.245 1.90352 -3.2472 0
M  V30 1332 C 120.392 0.772233 -2.6633 0
M  V30 1333 H 123.343 -0.0266377 -1.58678 0
M  V30 1334 H 123.364 2.26076 -3.06055 0
M  V30 1335 H 122.876 0.607638 -3.83314 0
M  V30 1336 H 120.977 2.71461 -2.55225 0
M  V30 1337 H 121.09 2.06757 -4.3219 0
M  V30 1338 H 119.454 1.18566 -2.2542 0
M  V30 1339 H 120.237 0.00073556 -3.433 0
M  V30 1340 N 122.682 1.50554 0.465978 0
M  V30 1341 C 123.612 1.72722 1.57128 0
M  V30 1342 C 124.593 0.576294 1.6004 0
M  V30 1343 O 125.778 0.81598 1.76225 0
M  V30 1344 C 122.908 1.82605 2.95419 0
M  V30 1345 C 121.862 2.97835 3.07373 0
M  V30 1346 C 121.188 2.92867 4.47363 0
M  V30 1347 C 122.488 4.38265 2.84114 0
M  V30 1348 H 124.182 2.65267 1.38829 0
M  V30 1349 H 121.728 1.2765 0.666441 0
M  V30 1350 H 123.681 1.96698 3.72677 0
M  V30 1351 H 122.405 0.866858 3.14886 0
M  V30 1352 H 121.064 2.83401 2.3255 0
M  V30 1353 H 120.712 1.94783 4.63755 0
M  V30 1354 H 120.412 3.70227 4.56296 0
M  V30 1355 H 121.936 3.09015 5.26633 0
M  V30 1356 H 123.35 4.53198 3.51118 0
M  V30 1357 H 121.747 5.17115 3.04487 0
M  V30 1358 H 122.817 4.50281 1.7993 0
M  V30 1359 N 124.16 -0.719506 1.40217 0
M  V30 1360 C 125.123 -1.8153 1.39927 0
M  V30 1361 C 126.123 -1.58095 0.293723 0
M  V30 1362 O 127.313 -1.65209 0.552429 0
M  V30 1363 C 124.445 -3.19561 1.18716 0
M  V30 1364 H 125.638 -1.83186 2.37451 0
M  V30 1365 H 123.191 -0.924746 1.26008 0
M  V30 1366 H 123.926 -3.23557 0.219366 0
M  V30 1367 H 123.711 -3.3797 1.98793 0
M  V30 1368 H 125.201 -3.99598 1.21291 0
M  V30 1369 O 125.677 -1.36634 -0.861018 0
M  V30 1370 H 126.368 -1.22472 -1.50067 0
M  V30 END ATOM
M  V30 BEGIN BOND
M  V30 END BOND
M  V30 END CTAB
M  END
$$$$
