drugbank_target|P18505 Gamma-aminobutyric acid receptor subunit beta-1 (DB00186; DB00189; DB00228; DB00231; DB00237; DB00241; DB00252; DB00292; DB00306; DB00312; DB00349; DB00371; DB00402; DB00404; DB00463; DB00475; DB00543; DB00546; DB00555; DB00603; DB00628; DB00659; DB00683; DB00690; DB00753; DB00794; DB00801; DB00818; DB00829; DB00842; DB00897; DB01028; DB01043; DB01068; DB01107; DB01159; DB01189; DB01205; DB01215; DB01236; DB01437; DB01489; DB01511; DB01544; DB01545; DB01553; DB01558; DB01559; DB01587; DB01588; DB01589; DB01594; DB01595; DB01708; DB01956; DB09017; DB09118; DB09166; DB11582; DB11859; DB11901; DB12404; DB12537; DB13335; DB13437; DB13643; DB13837; DB13872; DB14028; DB14672; DB14715; DB14719; DB15489)
 OpenBabel12092120093D

  0  0  0     0  0            999 V3000
M  V30 BEGIN CTAB
M  V30 COUNTS 7644 7734 0 0 0
M  V30 BEGIN ATOM
M  V30 1 H -0.908 1.98254 -0.117106 0
M  V30 2 N 0 1.576 0 0
M  V30 3 C 0.933 2.03868 1.02534 0
M  V30 4 C 1.911 0.928543 1.3348 0
M  V30 5 O 3.095 1.19667 1.45644 0
M  V30 6 C 0.222 2.43627 2.35294 0
M  V30 7 C -0.732 3.65373 2.2001 0
M  V30 8 S 0.101 5.13292 1.52614 0
M  V30 9 C 1.257 5.56322 2.86805 0
M  V30 10 H 1.49 2.90518 0.631377 0
M  V30 11 H -0.977 1.52953 0.210867 0
M  V30 12 H 0.981 2.67203 3.11629 0
M  V30 13 H -0.358 1.57376 2.7183 0
M  V30 14 H -1.165 3.90944 3.18086 0
M  V30 15 H -1.563 3.418 1.51819 0
M  V30 16 H 0.729 5.58782 3.83104 0
M  V30 17 H 1.672 6.56266 2.65933 0
M  V30 18 H 2.08 4.83886 2.90714 0
M  V30 19 N 1.4781 -0.272755 1.55222 0
M  V30 20 C 2.7241 -1.00172 1.77023 0
M  V30 21 C 3.0791 -1.83928 0.564633 0
M  V30 22 O 2.3721 -1.86416 -0.442674 0
M  V30 23 C 2.5661 -1.91642 3.01675 0
M  V30 24 C 2.3951 -1.16888 4.34243 0
M  V30 25 C 1.1651 -0.884464 4.97499 0
M  V30 26 C 3.3631 -0.55919 5.11251 0
M  V30 27 N 1.3451 -0.11015 6.13801 0
M  V30 28 C 2.7161 0.0809469 6.19947 0
M  V30 29 C 4.7711 -0.467058 4.95705 0
M  V30 30 C 3.4741 0.804335 7.14789 0
M  V30 31 C 5.5001 0.242739 5.90902 0
M  V30 32 C 4.8621 0.871613 6.98987 0
M  V30 33 H 0.9611 -0.348529 0.700037 0
M  V30 34 H 3.5451 -0.277365 1.92714 0
M  V30 35 H 1.7161 -2.61303 2.87359 0
M  V30 36 H 3.4481 -2.57901 3.1188 0
M  V30 37 H 0.2031 -1.18979 4.58411 0
M  V30 38 H 0.6271 0.264344 6.76484 0
M  V30 39 H 5.2691 -0.93894 4.12242 0
M  V30 40 H 2.9871 1.2879 7.97771 0
M  V30 41 H 6.5731 0.314347 5.8095 0
M  V30 42 H 5.4531 1.4121 7.71381 0
M  V30 43 N 2.9562 -1.48159 -0.537278 0
M  V30 44 C 4.1842 -1.59454 -1.31841 0
M  V30 45 C 4.5992 -0.252065 -1.8711 0
M  V30 46 O 3.9562 0.757621 -1.66031 0
M  V30 47 C 4.0072 -2.63546 -2.47439 0
M  V30 48 O 3.7282 -3.92583 -1.94449 0
M  V30 49 C 5.2292 -2.85212 -3.39366 0
M  V30 50 H 2.4492 -0.53785 -0.401196 0
M  V30 51 H 4.9932 -1.93932 -0.648891 0
M  V30 52 H 3.1482 -2.31946 -3.1029 0
M  V30 53 H 3.5622 -4.49629 -2.70063 0
M  V30 54 H 5.0362 -3.61863 -4.16844 0
M  V30 55 H 5.5132 -1.93765 -3.94147 0
M  V30 56 H 6.1192 -3.18086 -2.82314 0
M  V30 57 N 4.4343 0.785586 -1.36625 0
M  V30 58 C 5.6803 1.54591 -1.31261 0
M  V30 59 C 6.0133 1.93906 0.106823 0
M  V30 60 O 5.2883 1.63007 1.06108 0
M  V30 61 C 5.5713 2.82038 -2.23889 0
M  V30 62 C 5.4243 2.49066 -3.74548 0
M  V30 63 C 6.7433 3.83887 -2.15217 0
M  V30 64 H 3.8623 0.560846 -0.478143 0
M  V30 65 H 6.5043 0.902278 -1.67209 0
M  V30 66 H 4.6543 3.36961 -1.93363 0
M  V30 67 H 6.3263 2.00164 -4.15611 0
M  V30 68 H 4.5693 1.81954 -3.93796 0
M  V30 69 H 5.2403 3.40109 -4.34776 0
M  V30 70 H 7.7163 3.38421 -2.42096 0
M  V30 71 H 6.5923 4.70806 -2.82193 0
M  V30 72 H 6.8533 4.27131 -1.14068 0
M  V30 73 N 5.9124 1.20967 1.01018 0
M  V30 74 C 6.8444 0.922059 2.09835 0
M  V30 75 C 7.8574 -0.0927106 1.62536 0
M  V30 76 O 9.0464 0.139127 1.77957 0
M  V30 77 C 6.1464 0.362004 3.36961 0
M  V30 78 C 5.3194 1.42986 4.13369 0
M  V30 79 C 4.3784 0.879976 5.1879 0
M  V30 80 O 3.4044 1.56219 5.47343 0
M  V30 81 N 4.6064 -0.307396 5.79686 0
M  V30 82 H 7.3714 1.8588 2.35093 0
M  V30 83 H 4.9324 1.11422 1.1746 0
M  V30 84 H 6.9244 -0.0201474 4.04695 0
M  V30 85 H 5.4944 -0.479437 3.08902 0
M  V30 86 H 4.7144 1.98608 3.40512 0
M  V30 87 H 6.0024 2.14885 4.61196 0
M  V30 88 H 5.4004 -0.878796 5.58832 0
M  V30 89 H 3.9574 -0.631115 6.48737 0
M  V30 90 N 7.3905 -1.2043 1.01659 0
M  V30 91 C 8.3385 -2.25249 0.580143 0
M  V30 92 C 9.3325 -1.65057 -0.381115 0
M  V30 93 O 10.5385 -1.78241 -0.251039 0
M  V30 94 H 6.9135 -0.732695 0.169299 0
M  V30 95 H 8.8845 -2.59389 1.47512 0
M  V30 96 C 7.6335 -3.47638 -0.065788 0
M  V30 97 H 6.9565 -3.94233 0.664874 0
M  V30 98 H 8.3965 -4.2268 -0.334282 0
M  V30 99 C 6.8555 -3.10447 -1.3086 0
M  V30 100 O 7.3855 -3.21981 -2.4019 0
M  V30 101 N 5.5915 -2.64996 -1.1927 0
M  V30 102 H 5.1385 -2.55811 -0.303064 0
M  V30 103 H 5.0965 -2.40482 -2.02523 0
M  V30 104 N 8.8686 -0.792821 -1.36206 0
M  V30 105 C 10.2846 -0.474903 -1.52371 0
M  V30 106 C 10.4846 1.00622 -1.74578 0
M  V30 107 O 9.5406 1.79162 -1.77924 0
M  V30 108 C 10.8536 -1.3083 -2.70747 0
M  V30 109 C 12.4016 -1.30234 -2.84619 0
M  V30 110 C 12.8766 -2.11956 -4.06004 0
M  V30 111 N 14.3676 -2.09419 -4.13156 0
M  V30 112 C 15.1026 -2.69419 -5.06163 0
M  V30 113 N 14.5986 -3.3829 -6.04592 0
M  V30 114 N 16.3916 -2.59134 -4.98804 0
M  V30 115 H 8.5426 -1.75222 -1.20046 0
M  V30 116 H 10.8056 -0.745024 -0.586211 0
M  V30 117 H 10.5116 -2.35881 -2.6087 0
M  V30 118 H 10.3856 -0.95196 -3.6499 0
M  V30 119 H 12.7726 -0.259748 -2.93955 0
M  V30 120 H 12.8536 -1.69847 -1.91274 0
M  V30 121 H 12.4976 -3.16248 -3.97429 0
M  V30 122 H 12.4276 -1.69711 -4.98503 0
M  V30 123 H 14.9186 -1.59297 -3.42685 0
M  V30 124 H 15.2316 -3.81394 -6.7213 0
M  V30 125 H 13.5766 -3.42393 -6.04807 0
M  V30 126 H 16.7676 -2.04927 -4.20859 0
M  V30 127 H 16.9406 -3.06185 -5.711 0
M  V30 128 N 10.3467 1.47872 -0.545128 0
M  V30 129 C 11.2567 2.33633 0.212746 0
M  V30 130 C 12.2727 1.4744 0.923983 0
M  V30 131 O 13.4487 1.80393 0.895572 0
M  V30 132 C 10.5137 3.23884 1.23693 0
M  V30 133 C 9.5747 4.25961 0.534417 0
M  V30 134 C 8.8077 5.11899 1.5098 0
M  V30 135 O 9.0307 5.00077 2.7437 0
M  V30 136 O 7.9647 5.92831 1.0409 0
M  V30 137 H 11.7907 2.99714 -0.490416 0
M  V30 138 H 9.3757 1.46235 -0.305871 0
M  V30 139 H 11.2577 3.79666 1.82843 0
M  V30 140 H 9.9327 2.60446 1.92222 0
M  V30 141 H 8.8397 3.73972 -0.0979679 0
M  V30 142 H 10.1727 4.92079 -0.109213 0
M  V30 143 N 11.8248 0.280983 1.55075 0
M  V30 144 C 13.0498 -0.340154 2.04592 0
M  V30 145 C 13.4748 -1.48246 1.15779 0
M  V30 146 O 12.8328 -1.80614 0.15761 0
M  V30 147 C 12.8808 -0.793104 3.5177 0
M  V30 148 O 11.9848 -1.89981 3.66034 0
M  V30 149 H 11.3258 -0.0694289 0.66036 0
M  V30 150 H 13.8558 0.416993 2.00306 0
M  V30 151 H 13.8658 -1.08729 3.93245 0
M  V30 152 H 12.5408 0.0426163 4.15878 0
M  V30 153 H 11.1178 -1.60771 3.36463 0
M  V30 154 N 13.3029 -1.57598 0.00835791 0
M  V30 155 C 14.2329 -2.1198 -0.979113 0
M  V30 156 C 15.2139 -1.03091 -1.35301 0
M  V30 157 O 16.3989 -1.30818 -1.43528 0
M  V30 158 C 13.5289 -2.62995 -2.26828 0
M  V30 159 C 12.4829 -3.76485 -2.03576 0
M  V30 160 C 11.8089 -4.13846 -3.38579 0
M  V30 161 C 13.1089 -5.0342 -1.39161 0
M  V30 162 H 14.8029 -2.94738 -0.526281 0
M  V30 163 H 12.3489 -1.41783 -0.251704 0
M  V30 164 H 14.3019 -2.99669 -2.96271 0
M  V30 165 H 13.0259 -1.7737 -2.7424 0
M  V30 166 H 11.6849 -3.40217 -1.36557 0
M  V30 167 H 11.3329 -3.25232 -3.83709 0
M  V30 168 H 11.0329 -4.90312 -3.23834 0
M  V30 169 H 12.5569 -4.53086 -4.09323 0
M  V30 170 H 13.9709 -5.37812 -1.98573 0
M  V30 171 H 12.3679 -5.84746 -1.34878 0
M  V30 172 H 13.4379 -4.83548 -0.361868 0
M  V30 173 N 14.781 0.264519 -1.55364 0
M  V30 174 C 16.029 0.993021 -1.76021 0
M  V30 175 C 16.35 1.86511 -0.569099 0
M  V30 176 O 15.62 1.91438 0.415735 0
M  V30 177 H 14.2 0.369639 -0.649135 0
M  V30 178 H 16.862 0.286707 -1.9278 0
M  V30 179 H 15.958 1.62502 -2.66457 0
M  V30 180 N 16.2591 1.48442 0.529413 0
M  V30 181 C 17.1891 1.65902 1.64313 0
M  V30 182 C 18.1701 0.507897 1.6234 0
M  V30 183 O 19.3551 0.740503 1.79528 0
M  V30 184 C 16.4851 1.69911 3.02898 0
M  V30 185 C 15.4391 2.8453 3.19729 0
M  V30 186 C 14.7651 2.73629 4.59381 0
M  V30 187 C 16.0651 4.25821 3.02447 0
M  V30 188 H 17.7591 2.5914 1.49955 0
M  V30 189 H 15.3051 1.24709 0.719982 0
M  V30 190 H 17.2581 1.80715 3.80684 0
M  V30 191 H 15.9821 0.732524 3.18279 0
M  V30 192 H 14.6411 2.73283 2.44361 0
M  V30 193 H 14.2891 1.74938 4.71599 0
M  V30 194 H 13.9891 3.50541 4.71588 0
M  V30 195 H 15.5131 2.86401 5.39265 0
M  V30 196 H 16.9271 4.37898 3.70024 0
M  V30 197 H 15.3241 5.03735 3.26146 0
M  V30 198 H 16.3941 4.42244 1.98867 0
M  V30 199 N 17.7372 -0.778329 1.37039 0
M  V30 200 C 18.6672 -1.90546 1.34962 0
M  V30 201 C 19.6482 -1.68681 0.219274 0
M  V30 202 O 20.8332 -1.89634 0.418624 0
M  V30 203 C 17.9632 -3.27734 1.14925 0
M  V30 204 C 16.9172 -3.64147 2.24902 0
M  V30 205 C 16.2432 -4.99806 1.89996 0
M  V30 206 C 17.5432 -3.71579 3.67051 0
M  V30 207 H 19.2372 -1.92541 2.29277 0
M  V30 208 H 16.7832 -0.924948 1.10366 0
M  V30 209 H 18.7362 -4.06215 1.12104 0
M  V30 210 H 17.4602 -3.26154 0.170631 0
M  V30 211 H 16.1192 -2.8797 2.26868 0
M  V30 212 H 15.7672 -4.94759 0.906796 0
M  V30 213 H 15.4672 -5.25139 2.63634 0
M  V30 214 H 16.9912 -5.80694 1.88749 0
M  V30 215 H 18.4052 -4.40227 3.67251 0
M  V30 216 H 16.8022 -4.08405 4.39688 0
M  V30 217 H 17.8722 -2.72404 4.01154 0
M  V30 218 N 19.2153 -1.21501 -1.00376 0
M  V30 219 C 20.4403 -1.05977 -1.78279 0
M  V30 220 C 20.8653 0.385994 -1.84097 0
M  V30 221 O 20.2233 1.27849 -1.28547 0
M  V30 222 C 20.2713 -1.66302 -3.19963 0
M  V30 223 O 19.3753 -0.909333 -4.0225 0
M  V30 224 H 18.7163 -0.372906 -0.549397 0
M  V30 225 H 21.2463 -1.6107 -1.26165 0
M  V30 226 H 21.2563 -1.70574 -3.70632 0
M  V30 227 H 19.9313 -2.71515 -3.15043 0
M  V30 228 H 18.5083 -0.941795 -3.60811 0
M  V30 229 N 20.6934 1.19889 -1.02296 0
M  V30 230 C 21.9404 1.8942 -0.715972 0
M  V30 231 C 22.2684 1.79251 0.754944 0
M  V30 232 O 21.5234 1.17526 1.56481 0
M  V30 233 C 21.8224 3.39883 -1.10518 0
M  V30 234 C 21.4884 3.70254 -2.57337 0
M  V30 235 C 20.1504 3.78254 -2.97452 0
M  V30 236 C 22.5024 3.84052 -3.52354 0
M  V30 237 C 19.8304 3.97514 -4.31509 0
M  V30 238 C 22.1824 4.04824 -4.86108 0
M  V30 239 C 20.8464 4.11054 -5.25919 0
M  V30 240 H 20.1164 0.693138 -0.261993 0
M  V30 241 H 22.7634 1.42012 -1.28472 0
M  V30 242 H 21.0684 3.8915 -0.454953 0
M  V30 243 H 22.7654 3.9199 -0.845261 0
M  V30 244 H 19.3554 3.64632 -2.25258 0
M  V30 245 H 23.5394 3.77221 -3.22518 0
M  V30 246 H 18.7954 4.00574 -4.61898 0
M  V30 247 H 22.9694 4.14442 -5.59653 0
M  V30 248 H 20.5964 4.2573 -6.29808 0
M  V30 249 N 22.1715 0.800033 1.35784 0
M  V30 250 C 23.5825 0.439142 1.81462 0
M  V30 251 C 23.9335 -1.03813 1.66485 0
M  V30 252 O 23.0585 -1.80626 1.19177 0
M  V30 253 C 23.6535 0.790314 3.29453 0
M  V30 254 C 22.2125 0.482111 3.733 0
M  V30 255 C 21.3595 1.01938 2.57883 0
M  V30 256 H 24.3105 0.992254 1.23855 0
M  V30 257 H 24.3315 0.0853677 3.80404 0
M  V30 258 H 23.8435 1.86554 3.40322 0
M  V30 259 H 21.9445 -0.584652 3.67984 0
M  V30 260 H 22.0575 1.01015 4.6833 0
M  V30 261 H 20.4215 0.442043 2.50835 0
M  V30 262 H 21.2045 2.10059 2.71533 0
M  V30 263 N 23.6496 -1.47581 0.552962 0
M  V30 264 C 24.8956 -2.02782 0.0273648 0
M  V30 265 C 25.2286 -1.42687 -1.31734 0
M  V30 266 O 24.5036 -0.580897 -1.85623 0
M  V30 267 C 24.7866 -3.60031 -0.0702371 0
M  V30 268 C 24.6396 -4.30566 1.30126 0
M  V30 269 C 25.9586 -4.33028 -0.785771 0
M  V30 270 H 23.0776 -0.736912 0.0114185 0
M  V30 271 H 25.7196 -1.76056 0.714432 0
M  V30 272 H 23.8696 -3.82932 -0.655382 0
M  V30 273 H 25.5416 -4.19018 1.92929 0
M  V30 274 H 23.7846 -3.91086 1.87709 0
M  V30 275 H 24.4556 -5.39114 1.18573 0
M  V30 276 H 26.9316 -4.15095 -0.288982 0
M  V30 277 H 25.8076 -5.42695 -0.823013 0
M  V30 278 H 26.0686 -4.01945 -1.841 0
M  V30 279 N 25.1277 -0.289203 -1.54924 0
M  V30 280 C 26.0607 0.633823 -2.19221 0
M  V30 281 C 27.0387 1.14174 -1.15772 0
M  V30 282 O 28.2227 1.21211 -1.44361 0
M  V30 283 C 25.3497 1.86592 -2.82668 0
M  V30 284 C 24.3957 1.49227 -3.99542 0
M  V30 285 S 25.2287 0.558312 -5.32582 0
M  V30 286 C 26.3847 1.79847 -5.99505 0
M  V30 287 H 26.6177 0.0875416 -2.97171 0
M  V30 288 H 24.1507 -0.0733899 -1.54225 0
M  V30 289 H 26.1087 2.57305 -3.19851 0
M  V30 290 H 24.7697 2.38335 -2.04585 0
M  V30 291 H 23.9627 2.40945 -4.42676 0
M  V30 292 H 23.5647 0.865193 -3.63855 0
M  V30 293 H 25.8567 2.7406 -6.19595 0
M  V30 294 H 26.7997 1.4099 -6.93922 0
M  V30 295 H 27.2077 1.96982 -5.29016 0
M  V30 296 N 26.6058 1.57591 -0.0167156 0
M  V30 297 C 27.8548 1.90461 0.663877 0
M  V30 298 C 28.1678 0.893515 1.73999 0
M  V30 299 O 29.3738 1.11302 2.47637 0
M  V30 300 C 27.8298 3.38155 1.23204 0
M  V30 301 C 27.4378 4.47597 0.189866 0
M  V30 302 C 29.1818 3.80111 1.88986 0
M  V30 303 C 27.0888 5.86379 0.768964 0
M  V30 304 H 26.0188 0.710738 0.251729 0
M  V30 305 H 28.6698 1.83326 -0.0799926 0
M  V30 306 H 27.0518 3.40182 2.02712 0
M  V30 307 H 28.2258 4.57112 -0.581846 0
M  V30 308 H 26.5408 4.14766 -0.368475 0
M  V30 309 H 29.1378 4.81145 2.33247 0
M  V30 310 H 29.4808 3.14511 2.72743 0
M  V30 311 H 30.0138 3.80454 1.16187 0
M  V30 312 H 26.7528 6.55493 -0.0301957 0
M  V30 313 H 26.2728 5.80496 1.50945 0
M  V30 314 H 27.9518 6.34563 1.26251 0
M  V30 315 N 28.0839 -0.256276 1.55502 0
M  V30 316 C 29.3119 -1.00342 1.8094 0
M  V30 317 C 29.7269 -1.79307 0.59114 0
M  V30 318 O 29.0839 -1.77114 -0.440081 0
M  V30 319 C 29.1349 -1.94875 3.04476 0
M  V30 320 O 28.8559 -1.19107 4.21598 0
M  V30 321 C 30.3569 -2.81266 3.42644 0
M  V30 322 H 27.5769 -0.295685 0.602338 0
M  V30 323 H 30.1209 -0.281998 2.02546 0
M  V30 324 H 28.2759 -2.62457 2.84947 0
M  V30 325 H 28.6899 -1.82969 4.91551 0
M  V30 326 H 30.1639 -3.43362 4.32211 0
M  V30 327 H 30.6409 -3.51897 2.62802 0
M  V30 328 H 31.2469 -2.1915 3.64491 0
M  V30 329 N 29.562 -1.4872 -0.521534 0
M  V30 330 C 30.495 -1.58451 -1.64221 0
M  V30 331 C 31.473 -0.434513 -1.56687 0
M  V30 332 O 32.657 -0.647275 -1.77038 0
M  V30 333 C 29.784 -1.52037 -3.02659 0
M  V30 334 C 28.83 -2.71981 -3.28525 0
M  V30 335 S 29.663 -4.33869 -3.13876 0
M  V30 336 C 30.819 -4.30067 -4.54745 0
M  V30 337 H 31.052 -2.53256 -1.55719 0
M  V30 338 H 28.585 -1.37358 -0.705143 0
M  V30 339 H 30.543 -1.49023 -3.82495 0
M  V30 340 H 29.204 -0.585541 -3.08594 0
M  V30 341 H 28.397 -2.63656 -4.29536 0
M  V30 342 H 27.999 -2.72302 -2.56374 0
M  V30 343 H 30.291 -4.00521 -5.46433 0
M  V30 344 H 31.234 -5.31287 -4.68123 0
M  V30 345 H 31.642 -3.60419 -4.34463 0
M  V30 346 N 31.0401 0.771051 -1.3745 0
M  V30 347 C 32.2861 1.5319 -1.32894 0
M  V30 348 C 32.6191 1.94008 0.0862511 0
M  V30 349 O 31.8941 1.64124 1.04373 0
M  V30 350 C 32.1771 2.79648 -2.26868 0
M  V30 351 C 32.0301 2.45079 -3.77169 0
M  V30 352 C 33.3491 3.81583 -2.19277 0
M  V30 353 H 30.4681 0.555744 -0.484064 0
M  V30 354 H 33.1101 0.884492 -1.68157 0
M  V30 355 H 31.2601 3.34891 -1.96926 0
M  V30 356 H 32.9321 1.95745 -4.1771 0
M  V30 357 H 31.1751 1.77767 -3.95704 0
M  V30 358 H 31.8461 3.35478 -4.38359 0
M  V30 359 H 34.3221 3.35835 -2.45671 0
M  V30 360 H 33.1981 4.67787 -2.87171 0
M  V30 361 H 33.4591 4.25897 -1.18592 0
M  V30 362 N 32.5182 1.22032 0.997298 0
M  V30 363 C 33.7582 1.05375 1.75144 0
M  V30 364 C 34.1222 -0.404696 1.87686 0
M  V30 365 O 35.3232 -0.691998 2.5974 0
M  V30 366 C 33.5942 1.74046 3.12158 0
M  V30 367 S 35.1532 1.72745 4.03366 0
M  V30 368 H 31.9712 0.377449 0.602539 0
M  V30 369 H 34.5732 1.54902 1.19272 0
M  V30 370 H 33.2772 2.79332 3.00669 0
M  V30 371 H 32.8082 1.24731 3.73103 0
M  V30 372 H 34.8232 0.774015 4.90126 0
M  V30 373 N 33.9963 -1.19345 1.0293 0
M  V30 374 C 35.2363 -1.90738 0.734727 0
M  V30 375 C 35.6003 -1.7785 -0.723414 0
M  V30 376 O 36.8013 -2.43844 -1.13108 0
M  V30 377 C 35.0723 -3.37569 1.17396 0
M  V30 378 S 36.6313 -4.27176 1.00329 0
M  V30 379 H 33.4493 -0.658771 0.267474 0
M  V30 380 H 36.0513 -1.4428 1.31922 0
M  V30 381 H 34.7553 -3.44475 2.23081 0
M  V30 382 H 34.2863 -3.8906 0.582772 0
M  V30 383 H 36.3013 -4.96126 -0.0859152 0
M  V30 384 N 35.4744 -0.807222 -1.35358 0
M  V30 385 C 36.4374 -0.223665 -2.28106 0
M  V30 386 C 37.4374 0.589354 -1.4961 0
M  V30 387 O 38.6274 0.407745 -1.69361 0
M  V30 388 C 35.7594 0.688149 -3.33882 0
M  V30 389 H 36.9524 -1.04169 -2.81227 0
M  V30 390 H 34.5054 -0.577921 -1.45223 0
M  V30 391 H 35.2404 1.52984 -2.85948 0
M  V30 392 H 35.0254 0.10687 -3.91954 0
M  V30 393 H 36.5154 1.09075 -4.03104 0
M  V30 394 N 36.9525 1.47285 -0.560781 0
M  V30 395 C 37.9025 2.27073 0.205384 0
M  V30 396 C 38.8865 1.34569 0.882044 0
M  V30 397 O 40.0785 1.58899 0.77976 0
M  V30 398 C 37.2075 3.20414 1.23247 0
M  V30 399 C 36.2935 4.20399 0.559041 0
M  V30 400 N 36.6845 5.04423 -0.372927 0
M  V30 401 C 34.9825 4.38536 0.812522 0
M  V30 402 C 35.6835 5.76655 -0.764446 0
M  V30 403 N 34.6595 5.43471 -0.11848 0
M  V30 404 H 38.4615 2.89422 -0.511117 0
M  V30 405 H 35.9755 1.57868 -0.380975 0
M  V30 406 H 37.9725 3.76262 1.79534 0
M  V30 407 H 36.6325 2.59623 1.95002 0
M  V30 408 H 37.6435 5.1248 -0.747287 0
M  V30 409 H 34.3205 3.88913 1.51832 0
M  V30 410 H 35.7105 6.54238 -1.53045 0
M  V30 411 N 38.4306 0.297415 1.54768 0
M  V30 412 C 39.6556 -0.318435 2.04941 0
M  V30 413 C 40.0806 -1.4701 1.17345 0
M  V30 414 O 39.4386 -1.80436 0.176758 0
M  V30 415 C 39.4866 -0.755749 3.52592 0
M  V30 416 O 38.5906 -1.86088 3.68028 0
M  V30 417 H 37.9316 -0.062421 0.661059 0
M  V30 418 H 40.4616 0.438215 1.99852 0
M  V30 419 H 40.4716 -1.04552 3.94376 0
M  V30 420 H 39.1466 0.0867233 4.1581 0
M  V30 421 H 37.7236 -1.57193 3.38149 0
M  V30 422 N 39.9087 -1.5758 0.0250728 0
M  V30 423 C 41.1367 -1.9593 -0.664747 0
M  V30 424 C 41.5517 -0.901352 -1.65895 0
M  V30 425 O 40.9087 0.117255 -1.82123 0
M  V30 426 C 40.9597 -3.34342 -1.37468 0
M  V30 427 O 40.6807 -4.36079 -0.420324 0
M  V30 428 C 42.1817 -3.873 -2.1567 0
M  V30 429 H 39.4017 -0.645405 -0.183557 0
M  V30 430 H 41.9457 -2.04329 0.0836372 0
M  V30 431 H 40.1007 -3.27175 -2.0745 0
M  V30 432 H 40.5147 -5.16297 -0.923991 0
M  V30 433 H 41.9887 -4.86504 -2.60803 0
M  V30 434 H 42.4657 -3.21331 -2.99405 0
M  V30 435 H 43.0717 -3.97723 -1.50654 0
M  V30 436 N 41.3868 0.248026 -1.55636 0
M  V30 437 C 42.3348 1.32683 -1.91045 0
M  V30 438 C 43.3288 1.49883 -0.789401 0
M  V30 439 O 44.5348 1.51371 -0.974007 0
M  V30 440 H 40.9098 0.444272 -0.606734 0
M  V30 441 H 42.8808 1.00085 -2.81115 0
M  V30 442 C 41.6298 2.6755 -2.22064 0
M  V30 443 H 40.9528 2.55114 -3.07826 0
M  V30 444 H 42.3928 3.41912 -2.50743 0
M  V30 445 C 40.8518 3.20556 -1.0366 0
M  V30 446 O 41.3818 4.00695 -0.284016 0
M  V30 447 N 39.5878 2.78568 -0.82753 0
M  V30 448 H 39.1348 2.1351 -1.44123 0
M  V30 449 H 39.0928 3.14378 -0.0369803 0
M  V30 450 N 42.8649 1.48995 0.513639 0
M  V30 451 C 43.7749 1.67443 1.64317 0
M  V30 452 C 44.7909 0.556947 1.64846 0
M  V30 453 O 45.9669 0.830082 1.83498 0
M  V30 454 C 43.0319 1.72515 3.00732 0
M  V30 455 C 42.0929 2.96009 3.1093 0
M  V30 456 C 41.3259 3.00829 4.40837 0
M  V30 457 O 41.5489 2.13594 5.28898 0
M  V30 458 O 40.4829 3.93168 4.55744 0
M  V30 459 H 44.3089 2.63106 1.51687 0
M  V30 460 H 41.8939 1.32588 0.688543 0
M  V30 461 H 43.7759 1.78277 3.81831 0
M  V30 462 H 42.4509 0.800278 3.13651 0
M  V30 463 H 41.3579 2.9577 2.29065 0
M  V30 464 H 42.6909 3.87934 3.02933 0
M  V30 465 N 44.343 -0.763751 1.37857 0
M  V30 466 C 45.754 -1.3405 1.29952 0
M  V30 467 C 46.105 -1.96138 -0.0492898 0
M  V30 468 O 45.23 -1.94372 -0.951239 0
M  V30 469 C 45.825 -2.43729 2.35333 0
M  V30 470 C 44.384 -2.97151 2.31037 0
M  V30 471 C 43.531 -1.70438 2.18738 0
M  V30 472 H 46.482 -0.563396 1.48363 0
M  V30 473 H 46.503 -3.23412 2.00462 0
M  V30 474 H 46.015 -1.9851 3.33489 0
M  V30 475 H 44.116 -3.46724 1.3643 0
M  V30 476 H 44.229 -3.52221 3.24772 0
M  V30 477 H 42.593 -1.93673 1.65418 0
M  V30 478 H 43.376 -1.27312 3.18821 0
M  V30 479 N 45.8211 -1.22559 -0.990812 0
M  V30 480 C 47.0461 -1.07862 -1.77145 0
M  V30 481 C 47.4711 0.366447 -1.84496 0
M  V30 482 O 46.8291 1.26478 -1.29896 0
M  V30 483 C 46.8771 -1.69686 -3.18181 0
M  V30 484 O 45.9811 -0.951946 -4.01263 0
M  V30 485 H 45.3221 -0.378712 -0.545411 0
M  V30 486 H 47.8521 -1.62399 -1.2445 0
M  V30 487 H 47.8621 -1.74496 -3.68802 0
M  V30 488 H 46.5371 -2.74841 -3.12146 0
M  V30 489 H 45.1141 -0.980011 -3.59792 0
M  V30 490 N 47.2992 1.18797 -1.03562 0
M  V30 491 C 48.2472 2.24297 -0.615905 0
M  V30 492 C 49.2412 1.65643 0.354808 0
M  V30 493 O 50.4472 1.78618 0.22265 0
M  V30 494 H 46.8222 0.729909 -0.180934 0
M  V30 495 H 48.7932 2.5701 -1.5162 0
M  V30 496 C 47.5422 3.47698 0.0104735 0
M  V30 497 H 46.8652 3.93125 -0.727509 0
M  V30 498 H 48.3052 4.23159 0.266995 0
M  V30 499 C 46.7642 3.12489 1.25905 0
M  V30 500 O 47.2942 3.25761 2.35038 0
M  V30 501 N 45.5002 2.6686 1.15039 0
M  V30 502 H 45.0472 2.56261 0.262328 0
M  V30 503 H 45.0052 2.43674 1.98672 0
M  V30 504 N 48.7773 0.814389 1.34928 0
M  V30 505 C 49.7103 0.175641 2.27523 0
M  V30 506 C 50.6883 -0.662953 1.48471 0
M  V30 507 O 51.8723 -0.628545 1.77712 0
M  V30 508 C 48.9993 -0.755516 3.30166 0
M  V30 509 C 48.0453 0.00445305 4.265 0
M  V30 510 S 48.8783 1.34582 5.18313 0
M  V30 511 C 50.0343 0.419315 6.24494 0
M  V30 512 H 50.2673 0.960691 2.8135 0
M  V30 513 H 47.8003 0.609846 1.41846 0
M  V30 514 H 49.7583 -1.28723 3.89796 0
M  V30 515 H 48.4193 -1.51402 2.75202 0
M  V30 516 H 47.6123 -0.703077 4.99072 0
M  V30 517 H 47.2143 0.466447 3.7108 0
M  V30 518 H 49.5063 -0.392432 6.76362 0
M  V30 519 H 50.4493 1.11446 6.99275 0
M  V30 520 H 50.8573 0.0115389 5.64499 0
M  V30 521 N 50.2554 -1.46986 0.568584 0
M  V30 522 C 51.4804 -2.07335 0.0520528 0
M  V30 523 C 51.9054 -1.41675 -1.23733 0
M  V30 524 O 51.2634 -0.495623 -1.74394 0
M  V30 525 C 51.3114 -3.60417 -0.11501 0
M  V30 526 O 50.4154 -3.95309 -1.17492 0
M  V30 527 H 49.7564 -0.661597 0.0564385 0
M  V30 528 H 52.2864 -1.88837 0.787507 0
M  V30 529 H 52.2964 -4.06698 -0.325644 0
M  V30 530 H 50.9714 -4.07601 0.826675 0
M  V30 531 H 49.5484 -3.60757 -0.943869 0
M  V30 532 N 51.7335 -0.305618 -1.54608 0
M  V30 533 C 52.9635 0.304333 -2.04346 0
M  V30 534 C 53.3715 1.47715 -1.18224 0
M  V30 535 O 52.7145 1.82591 -0.201577 0
M  V30 536 C 52.7765 0.819031 -3.50046 0
M  V30 537 C 52.4405 -0.22912 -4.56425 0
M  V30 538 C 53.4375 -1.05914 -5.08997 0
M  V30 539 C 51.1225 -0.372148 -5.0092 0
M  V30 540 C 53.1165 -2.01809 -6.04609 0
M  V30 541 C 50.8035 -1.33454 -5.9635 0
M  V30 542 C 51.8015 -2.15599 -6.48079 0
M  V30 543 O 51.4895 -3.10205 -7.41639 0
M  V30 544 H 51.2215 0.0693996 -0.672428 0
M  V30 545 H 53.7755 -0.444548 -2.00532 0
M  V30 546 H 52.0055 1.61852 -3.51199 0
M  V30 547 H 53.6945 1.34537 -3.82955 0
M  V30 548 H 54.4605 -0.959538 -4.75413 0
M  V30 549 H 50.3395 0.257304 -4.60281 0
M  V30 550 H 53.8835 -2.65966 -6.44909 0
M  V30 551 H 49.7805 -1.43485 -6.29351 0
M  V30 552 H 50.5485 -3.05237 -7.59455 0
M  V30 553 N 53.2116 1.57565 -0.0334293 0
M  V30 554 C 54.4576 1.92262 0.645226 0
M  V30 555 C 54.7906 0.910543 1.71531 0
M  V30 556 O 54.0656 -0.066099 1.94388 0
M  V30 557 C 54.3486 3.37422 1.2577 0
M  V30 558 C 54.2016 4.49369 0.196891 0
M  V30 559 C 55.5206 3.82628 2.17449 0
M  V30 560 H 52.6396 0.699171 0.233085 0
M  V30 561 H 55.2816 1.89779 -0.0915694 0
M  V30 562 H 53.4316 3.39669 1.88566 0
M  V30 563 H 55.1036 4.59254 -0.433962 0
M  V30 564 H 53.3466 4.31168 -0.477137 0
M  V30 565 H 54.0176 5.47978 0.665124 0
M  V30 566 H 56.4936 3.82145 1.64634 0
M  V30 567 H 55.3696 4.84883 2.57254 0
M  V30 568 H 55.6306 3.18376 3.0674 0
M  V30 569 N 54.6897 -0.239769 1.55765 0
M  V30 570 C 55.6367 -1.29696 1.90913 0
M  V30 571 C 56.6067 -1.47478 0.764164 0
M  V30 572 O 57.7917 -1.61345 1.01845 0
M  V30 573 C 54.9317 -2.64598 2.21544 0
M  V30 574 C 54.0447 -2.54765 3.48882 0
M  V30 575 C 53.1797 -3.82069 3.69049 0
M  V30 576 C 52.2187 -3.66883 4.89963 0
M  V30 577 N 51.3557 -4.86094 5.06614 0
M  V30 578 H 56.1957 -0.990224 2.81067 0
M  V30 579 H 53.7327 -0.477684 1.39128 0
M  V30 580 H 55.6907 -3.43132 2.3731 0
M  V30 581 H 54.3207 -2.93405 1.34585 0
M  V30 582 H 53.3727 -1.67763 3.41409 0
M  V30 583 H 54.6847 -2.39457 4.37563 0
M  V30 584 H 53.8387 -4.69046 3.84812 0
M  V30 585 H 52.5777 -4.00282 2.78614 0
M  V30 586 H 51.5827 -2.78289 4.74168 0
M  V30 587 H 52.8077 -3.50157 5.81865 0
M  V30 588 H 50.7537 -5.04655 4.19117 0
M  V30 589 H 50.6707 -4.73443 5.89396 0
M  V30 590 H 51.9387 -5.74549 5.26795 0
M  V30 591 N 56.1678 -1.49265 -0.50573 0
M  V30 592 C 57.0778 -1.68312 -1.63427 0
M  V30 593 C 58.0938 -0.565682 -1.64548 0
M  V30 594 O 59.2698 -0.839801 -1.83055 0
M  V30 595 C 56.3348 -1.74107 -2.99813 0
M  V30 596 C 55.3958 -2.97653 -3.09356 0
M  V30 597 C 54.6288 -3.03163 -4.39236 0
M  V30 598 O 54.8518 -2.16396 -5.27758 0
M  V30 599 O 53.7858 -3.9558 -4.53652 0
M  V30 600 H 57.6118 -2.63907 -1.50289 0
M  V30 601 H 55.1968 -1.32951 -0.681502 0
M  V30 602 H 57.0788 -1.803 -3.80881 0
M  V30 603 H 55.7538 -0.816901 -3.13223 0
M  V30 604 H 54.6608 -2.96981 -2.27493 0
M  V30 605 H 55.9938 -3.89535 -3.00871 0
M  V30 606 N 57.6459 0.756429 -1.3826 0
M  V30 607 C 58.8739 1.54565 -1.3754 0
M  V30 608 C 59.2889 1.88767 0.0355331 0
M  V30 609 O 58.6459 1.52572 1.0014 0
M  V30 610 C 58.6969 2.84654 -2.22833 0
M  V30 611 O 58.4179 2.51912 -3.5843 0
M  V30 612 C 59.9189 3.78807 -2.30261 0
M  V30 613 H 57.1389 0.478353 -0.470553 0
M  V30 614 H 59.6829 0.936381 -1.81803 0
M  V30 615 H 57.8379 3.41965 -1.8204 0
M  V30 616 H 58.2519 3.35325 -4.03308 0
M  V30 617 H 59.7259 4.67045 -2.94233 0
M  V30 618 H 60.2029 4.19038 -1.31545 0
M  V30 619 H 60.8089 3.2742 -2.71433 0
M  V30 620 N 59.124 1.23083 0.984299 0
M  V30 621 C 60.37 1.06214 1.72761 0
M  V30 622 C 60.703 -0.400584 1.90024 0
M  V30 623 O 59.978 -1.29672 1.44967 0
M  V30 624 C 60.261 1.78375 3.12817 0
M  V30 625 C 60.114 3.32296 3.03149 0
M  V30 626 C 61.433 1.54309 4.12161 0
M  V30 627 H 58.552 0.387251 0.627061 0
M  V30 628 H 61.194 1.51536 1.14616 0
M  V30 629 H 59.344 1.39848 3.62457 0
M  V30 630 H 61.016 3.8032 2.61064 0
M  V30 631 H 59.259 3.6153 2.39747 0
M  V30 632 H 59.93 3.77972 4.02295 0
M  V30 633 H 62.406 1.87791 3.71314 0
M  V30 634 H 61.282 2.07281 5.08258 0
M  V30 635 H 61.543 0.477572 4.39513 0
M  V30 636 N 60.6021 -1.18246 1.0419 0
M  V30 637 C 61.8791 -1.84121 0.660208 0
M  V30 638 C 62.2591 -1.92778 -0.860221 0
M  V30 639 O 61.6071 -1.45464 -1.76217 0
M  V30 640 C 61.8171 -3.22355 1.33747 0
M  V30 641 C 63.1651 -3.98376 1.46906 0
M  V30 642 O 64.1891 -3.31799 1.29568 0
M  V30 643 O 63.0481 -5.17665 1.75171 0
M  V30 644 H 60.1421 -0.794036 0.231161 0
M  V30 645 H 62.6881 -1.25628 1.14087 0
M  V30 646 H 61.4601 -3.10964 2.37522 0
M  V30 647 H 61.0831 -3.88506 0.845515 0
M  V30 648 N 62.0802 -0.821533 -1.34494 0
M  V30 649 C 63.4962 -0.507117 -1.51329 0
M  V30 650 C 63.6962 0.968964 -1.76673 0
M  V30 651 O 62.7522 1.75348 -1.81685 0
M  V30 652 C 64.0652 -1.36544 -2.67911 0
M  V30 653 C 65.6132 -1.36242 -2.81793 0
M  V30 654 C 66.0882 -2.2052 -4.01416 0
M  V30 655 N 67.5792 -2.18136 -4.08621 0
M  V30 656 C 68.3142 -2.80095 -5.00334 0
M  V30 657 N 67.8102 -3.51039 -5.9728 0
M  V30 658 N 69.6032 -2.69656 -4.93196 0
M  V30 659 H 61.7542 -1.77729 -1.16302 0
M  V30 660 H 64.0172 -0.757291 -0.570276 0
M  V30 661 H 63.7232 -2.41361 -2.55808 0
M  V30 662 H 63.5972 -1.02917 -3.62888 0
M  V30 663 H 65.9842 -0.322041 -2.93338 0
M  V30 664 H 66.0652 -1.73866 -1.87628 0
M  V30 665 H 65.7092 -3.24607 -3.90631 0
M  V30 666 H 65.6392 -1.80247 -4.94791 0
M  V30 667 H 68.1302 -1.6653 -3.39229 0
M  V30 668 H 68.4432 -3.95565 -6.63889 0
M  V30 669 H 66.7882 -3.55145 -5.97409 0
M  V30 670 H 69.9792 -2.13808 -4.16418 0
M  V30 671 H 70.1522 -3.1823 -5.64476 0
M  V30 672 N 63.5583 1.46682 -0.576371 0
M  V30 673 C 64.4883 2.33028 0.148397 0
M  V30 674 C 65.4693 1.44961 0.889956 0
M  V30 675 O 66.6543 1.73789 0.866662 0
M  V30 676 C 63.7843 3.27117 1.1667 0
M  V30 677 C 62.7383 4.24575 0.540386 0
M  V30 678 C 62.0643 5.08126 1.6647 0
M  V30 679 C 63.3643 5.19722 -0.518331 0
M  V30 680 H 65.0583 2.93875 -0.572509 0
M  V30 681 H 62.6043 1.41315 -0.276768 0
M  V30 682 H 64.5573 3.86374 1.68204 0
M  V30 683 H 63.2813 2.64364 1.9178 0
M  V30 684 H 61.9403 3.66571 0.0461769 0
M  V30 685 H 61.5883 4.41762 2.40531 0
M  V30 686 H 61.2883 5.74122 1.25131 0
M  V30 687 H 62.8123 5.70246 2.18293 0
M  V30 688 H 64.2263 5.73232 -0.0883058 0
M  V30 689 H 62.6233 5.94026 -0.851679 0
M  V30 690 H 63.6933 4.64037 -1.40703 0
M  V30 691 N 65.0364 0.313813 1.54444 0
M  V30 692 C 65.9664 -0.549454 2.26943 0
M  V30 693 C 66.9474 -1.12741 1.27372 0
M  V30 694 O 68.1324 -1.15436 1.56167 0
M  V30 695 C 65.2624 -1.71523 3.01989 0
M  V30 696 C 64.2164 -1.26703 4.08816 0
M  V30 697 C 63.5424 -2.51898 4.71647 0
M  V30 698 C 64.8424 -0.388962 5.2085 0
M  V30 699 H 66.5364 0.0552661 2.99349 0
M  V30 700 H 64.0824 0.0280207 1.43973 0
M  V30 701 H 66.0354 -2.32535 3.51433 0
M  V30 702 H 64.7594 -2.34639 2.27183 0
M  V30 703 H 63.4184 -0.679896 3.6024 0
M  V30 704 H 63.0664 -3.13356 3.93468 0
M  V30 705 H 62.7664 -2.22605 5.43802 0
M  V30 706 H 64.2904 -3.1369 5.23861 0
M  V30 707 H 65.7044 -0.905107 5.6611 0
M  V30 708 H 64.1014 -0.18924 5.99802 0
M  V30 709 H 65.1714 0.582699 4.81386 0
M  V30 710 N 66.5145 -1.57545 0.0417849 0
M  V30 711 C 67.4615 -2.10977 -0.935805 0
M  V30 712 C 68.4315 -1.01486 -1.31491 0
M  V30 713 O 69.6165 -1.2898 -1.40602 0
M  V30 714 C 66.7565 -2.65169 -2.2086 0
M  V30 715 C 65.8695 -3.88714 -1.88482 0
M  V30 716 C 65.0045 -4.31254 -3.1015 0
M  V30 717 C 64.0435 -5.47524 -2.7365 0
M  V30 718 N 63.1805 -5.85162 -3.87982 0
M  V30 719 H 68.0205 -2.94218 -0.473249 0
M  V30 720 H 65.5575 -1.45415 -0.221981 0
M  V30 721 H 67.5155 -2.94685 -2.95325 0
M  V30 722 H 66.1455 -1.8474 -2.64709 0
M  V30 723 H 65.1975 -3.65849 -1.04205 0
M  V30 724 H 66.5095 -4.73245 -1.57608 0
M  V30 725 H 65.6635 -4.62273 -3.92923 0
M  V30 726 H 64.4025 -3.45516 -3.44195 0
M  V30 727 H 63.4075 -5.16187 -1.89291 0
M  V30 728 H 64.6325 -6.34971 -2.40807 0
M  V30 729 H 62.5785 -5.02377 -4.21846 0
M  V30 730 H 62.4955 -6.64362 -3.60775 0
M  V30 731 H 63.7635 -6.20791 -4.71422 0
M  V30 732 N 67.9926 0.231505 -1.5589 0
M  V30 733 C 69.2406 0.955461 -1.78088 0
M  V30 734 C 69.5616 1.85262 -0.608533 0
M  V30 735 O 68.8316 1.92277 0.375035 0
M  V30 736 H 67.4116 0.355787 -0.656829 0
M  V30 737 H 70.0736 0.245751 -1.93344 0
M  V30 738 H 69.1696 1.56814 -2.69844 0
M  V30 739 N 69.4707 1.49531 0.497807 0
M  V30 740 C 70.7007 1.62657 1.27382 0
M  V30 741 C 71.1087 0.298488 1.86831 0
M  V30 742 O 70.4517 -0.72647 1.68725 0
M  V30 743 C 70.5137 2.6393 2.44093 0
M  V30 744 C 70.1777 4.08195 2.05489 0
M  V30 745 C 71.1747 4.949 1.59279 0
M  V30 746 C 68.8597 4.53948 2.15026 0
M  V30 747 C 70.8537 6.25397 1.23113 0
M  V30 748 C 68.5407 5.84458 1.78473 0
M  V30 749 C 69.5387 6.70006 1.32591 0
M  V30 750 O 69.2267 7.98083 0.965327 0
M  V30 751 H 68.9587 0.550429 0.392434 0
M  V30 752 H 71.5127 1.96325 0.603801 0
M  V30 753 H 69.7427 2.25449 3.14181 0
M  V30 754 H 71.4317 2.66552 3.06113 0
M  V30 755 H 72.1977 4.60779 1.51354 0
M  V30 756 H 68.0767 3.87525 2.4969 0
M  V30 757 H 71.6207 6.92125 0.872299 0
M  V30 758 H 67.5177 6.18107 1.86048 0
M  V30 759 H 68.2857 8.11122 1.09652 0
M  V30 760 N 70.9488 -0.749086 1.3866 0
M  V30 761 C 72.2258 -1.4992 1.25632 0
M  V30 762 C 72.6058 -2.10633 -0.140317 0
M  V30 763 O 71.9538 -1.97437 -1.15025 0
M  V30 764 C 72.1638 -2.56195 2.36992 0
M  V30 765 C 73.5118 -3.22972 2.75634 0
M  V30 766 O 74.5358 -2.66502 2.36337 0
M  V30 767 O 73.3948 -4.25122 3.43415 0
M  V30 768 H 70.4888 -0.665067 0.491544 0
M  V30 769 H 73.0348 -0.784113 1.50498 0
M  V30 770 H 71.8068 -2.09612 3.30422 0
M  V30 771 H 71.4298 -3.35279 2.13714 0
M  V30 772 N 72.4269 -1.23603 -0.977757 0
M  V30 773 C 73.6759 -1.06377 -1.71368 0
M  V30 774 C 73.9889 0.399062 -1.91486 0
M  V30 775 O 75.1949 0.691312 -2.62551 0
M  V30 776 C 73.6509 -1.85512 -3.08404 0
M  V30 777 C 73.2589 -3.36141 -2.96164 0
M  V30 778 C 75.0029 -1.76783 -3.85938 0
M  V30 779 C 72.9099 -4.07659 -4.28449 0
M  V30 780 H 71.8399 -0.394452 -0.642591 0
M  V30 781 H 74.4909 -1.47594 -1.09034 0
M  V30 782 H 72.8729 -1.37103 -3.71509 0
M  V30 783 H 74.0469 -3.92056 -2.42133 0
M  V30 784 H 72.3619 -3.45712 -2.32104 0
M  V30 785 H 74.9589 -2.27526 -4.83876 0
M  V30 786 H 75.3019 -0.731116 -4.0983 0
M  V30 787 H 75.8349 -2.22818 -3.2954 0
M  V30 788 H 72.5739 -5.11648 -4.09752 0
M  V30 789 H 72.0939 -3.5653 -4.82334 0
M  V30 790 H 73.7729 -4.141 -4.97122 0
M  V30 791 N 73.905 1.17692 -1.04816 0
M  V30 792 C 75.321 1.39863 -0.768794 0
M  V30 793 C 75.521 1.91118 0.638451 0
M  V30 794 O 74.577 2.10036 1.40146 0
M  V30 795 C 75.89 2.39274 -1.82122 0
M  V30 796 C 77.438 2.52987 -1.843 0
M  V30 797 C 77.913 3.55669 -2.88555 0
M  V30 798 N 79.404 3.63183 -2.87493 0
M  V30 799 C 80.139 4.42381 -3.64811 0
M  V30 800 N 79.635 5.25125 -4.51903 0
M  V30 801 N 81.428 4.37217 -3.53267 0
M  V30 802 H 73.579 0.82752 -1.95617 0
M  V30 803 H 75.842 0.426123 -0.846831 0
M  V30 804 H 75.548 2.08678 -2.83102 0
M  V30 805 H 75.422 3.38725 -1.65967 0
M  V30 806 H 77.809 2.82896 -0.839869 0
M  V30 807 H 77.89 1.53623 -2.04532 0
M  V30 808 H 77.534 3.26499 -3.89051 0
M  V30 809 H 77.464 4.54728 -2.65575 0
M  V30 810 H 79.955 3.04103 -2.24343 0
M  V30 811 H 80.268 5.82728 -5.07591 0
M  V30 812 H 78.613 5.24519 -4.55966 0
M  V30 813 H 81.804 3.71626 -2.84625 0
M  V30 814 H 81.977 4.98696 -4.13771 0
M  V30 815 N 75.3831 0.828654 1.34056 0
M  V30 816 C 76.3131 0.269443 2.3194 0
M  V30 817 C 77.2941 -0.617247 1.58506 0
M  V30 818 O 78.4791 -0.542931 1.86456 0
M  V30 819 C 75.6091 -0.564793 3.42677 0
M  V30 820 C 74.5631 0.225241 4.27407 0
M  V30 821 C 73.8891 -0.7321 5.29664 0
M  V30 822 C 75.1891 1.43663 5.02154 0
M  V30 823 H 76.8831 1.08728 2.7896 0
M  V30 824 H 74.4291 0.524283 1.34117 0
M  V30 825 H 76.3821 -0.966233 4.10173 0
M  V30 826 H 75.1061 -1.41574 2.9432 0
M  V30 827 H 73.7651 0.608117 3.61521 0
M  V30 828 H 73.4131 -1.57916 4.77568 0
M  V30 829 H 73.1131 -0.20767 5.87233 0
M  V30 830 H 74.6371 -1.13128 6.00029 0
M  V30 831 H 76.0511 1.1089 5.62473 0
M  V30 832 H 74.4481 1.89711 5.69324 0
M  V30 833 H 75.5181 2.21181 4.31517 0
M  V30 834 N 76.8612 -1.46375 0.584142 0
M  V30 835 C 78.2772 -1.57694 0.245929 0
M  V30 836 C 78.4772 -1.57903 -1.25175 0
M  V30 837 O 77.5332 -1.49676 -2.03355 0
M  V30 838 C 78.8462 -2.87028 0.896402 0
M  V30 839 C 80.3942 -3.00662 0.870127 0
M  V30 840 C 80.8692 -4.32734 1.50017 0
M  V30 841 N 82.3602 -4.39436 1.46458 0
M  V30 842 C 83.0952 -5.40248 1.92144 0
M  V30 843 N 82.5912 -6.47726 2.4581 0
M  V30 844 N 84.3842 -5.31459 1.83052 0
M  V30 845 H 76.5352 -1.44483 1.55687 0
M  V30 846 H 78.7982 -0.689291 0.650831 0
M  V30 847 H 78.5042 -2.9269 1.95002 0
M  V30 848 H 78.3782 -3.75014 0.405486 0
M  V30 849 H 80.7652 -2.94581 -0.174871 0
M  V30 850 H 80.8462 -2.14148 1.39908 0
M  V30 851 H 80.4902 -4.39573 2.54437 0
M  V30 852 H 80.4202 -5.18025 0.946432 0
M  V30 853 H 82.9112 -3.62367 1.07231 0
M  V30 854 H 83.2242 -7.20863 2.78525 0
M  V30 855 H 81.5692 -6.48542 2.49836 0
M  V30 856 H 84.7602 -4.46396 1.40883 0
M  V30 857 H 84.9332 -6.09881 2.18973 0
M  V30 858 N 78.3393 -0.321999 -1.54275 0
M  V30 859 C 79.7503 0.166384 -1.85957 0
M  V30 860 C 80.1013 1.51747 -1.24367 0
M  V30 861 O 79.2263 2.09317 -0.549124 0
M  V30 862 C 79.8213 0.308681 -3.37391 0
M  V30 863 C 78.3803 0.741286 -3.69028 0
M  V30 864 C 77.5273 -0.137937 -2.76957 0
M  V30 865 H 80.4783 -0.542335 -1.49146 0
M  V30 866 H 80.4993 1.13984 -3.63026 0
M  V30 867 H 80.0113 -0.674809 -3.82188 0
M  V30 868 H 78.1123 1.73458 -3.29762 0
M  V30 869 H 78.2253 0.546118 -4.75977 0
M  V30 870 H 76.5893 0.386251 -2.51754 0
M  V30 871 H 77.3723 -1.11816 -3.2458 0
M  V30 872 N 79.8174 1.5752 -0.0501392 0
M  V30 873 C 81.0944 1.83996 0.663685 0
M  V30 874 C 81.4744 0.938339 1.89099 0
M  V30 875 O 80.8224 -0.00087759 2.285 0
M  V30 876 C 81.0324 3.33702 1.02196 0
M  V30 877 C 82.3804 4.00691 1.40469 0
M  V30 878 O 83.4044 3.38321 1.11433 0
M  V30 879 O 82.2634 5.10658 1.94654 0
M  V30 880 H 79.3574 0.759385 0.32751 0
M  V30 881 H 81.9034 1.69514 -0.0794238 0
M  V30 882 H 80.6754 3.91015 0.149364 0
M  V30 883 H 80.2984 3.53368 1.82255 0
M  V30 884 N 81.2955 -0.223234 1.56011 0
M  V30 885 C 82.5425 -0.947875 1.78946 0
M  V30 886 C 82.8705 -1.844 0.618608 0
M  V30 887 O 82.1255 -1.91629 -0.397093 0
M  V30 888 C 82.4245 -1.81948 3.0762 0
M  V30 889 C 82.0905 -1.07672 4.37856 0
M  V30 890 C 80.7525 -0.871544 4.73242 0
M  V30 891 C 83.1045 -0.552081 5.18268 0
M  V30 892 C 80.4325 -0.129791 5.86556 0
M  V30 893 C 82.7845 0.17632 6.32354 0
M  V30 894 C 81.4485 0.39277 6.66343 0
M  V30 895 H 80.7185 -0.346852 0.654809 0
M  V30 896 H 83.3655 -0.216171 1.90276 0
M  V30 897 H 81.6705 -2.61899 2.91404 0
M  V30 898 H 83.3675 -2.38227 3.22566 0
M  V30 899 H 79.9575 -1.24662 4.1007 0
M  V30 900 H 84.1415 -0.698076 4.91366 0
M  V30 901 H 79.3975 0.048153 6.11381 0
M  V30 902 H 83.5715 0.590367 6.93893 0
M  V30 903 H 81.1985 0.969466 7.53993 0
M  V30 904 N 82.7736 -1.49793 -0.48987 0
M  V30 905 C 84.0216 -1.59525 -1.24081 0
M  V30 906 C 84.3426 -0.288953 -1.92847 0
M  V30 907 O 83.6126 0.692436 -1.83254 0
M  V30 908 H 82.1926 -0.587796 -0.460983 0
M  V30 909 H 84.8546 -1.86477 -0.566778 0
M  V30 910 H 83.9506 -2.39696 -1.99881 0
M  V30 911 N 84.2517 0.741722 -1.39055 0
M  V30 912 C 85.4997 1.49818 -1.35643 0
M  V30 913 C 85.8207 1.94938 0.0491642 0
M  V30 914 O 85.0907 1.68505 0.999141 0
M  V30 915 H 83.6707 0.555755 -0.499144 0
M  V30 916 H 86.3327 0.880957 -1.73854 0
M  V30 917 H 85.4287 2.38348 -2.01486 0
M  V30 918 N 85.7298 1.2412 0.971189 0
M  V30 919 C 87.1408 1.07236 1.52831 0
M  V30 920 C 87.4918 -0.357352 1.92918 0
M  V30 921 O 86.6168 -1.24528 1.76979 0
M  V30 922 C 87.2118 1.94043 2.77728 0
M  V30 923 C 85.7708 1.81394 3.29808 0
M  V30 924 C 84.9178 1.89189 2.02738 0
M  V30 925 H 87.8688 1.37648 0.789864 0
M  V30 926 H 87.8898 1.47066 3.5093 0
M  V30 927 H 87.4018 2.98093 2.4852 0
M  V30 928 H 85.5028 0.801634 3.63874 0
M  V30 929 H 85.6158 2.65294 3.98944 0
M  V30 930 H 83.9798 1.32877 2.17292 0
M  V30 931 H 84.7628 2.94812 1.759 0
M  V30 932 N 87.2079 -1.17134 1.05439 0
M  V30 933 C 88.6189 -1.69084 0.791676 0
M  V30 934 C 88.9699 -1.83822 -0.685839 0
M  V30 935 O 88.0949 -1.52757 -1.53278 0
M  V30 936 C 88.6899 -3.07119 1.4305 0
M  V30 937 C 87.2489 -3.56225 1.21577 0
M  V30 938 C 86.3959 -2.32421 1.51247 0
M  V30 939 H 89.3469 -1.01617 1.219 0
M  V30 940 H 89.3679 -3.71087 0.84112 0
M  V30 941 H 88.8799 -2.9636 2.50584 0
M  V30 942 H 86.9809 -3.72257 0.159787 0
M  V30 943 H 87.0939 -4.38837 1.92246 0
M  V30 944 H 85.4579 -2.3701 0.932653 0
M  V30 945 H 86.2409 -2.24268 2.5992 0
M  V30 946 N 88.686 -0.835752 -1.33615 0
M  V30 947 C 89.932 -0.430596 -1.98176 0
M  V30 948 C 90.265 1.00684 -1.66061 0
M  V30 949 O 89.54 1.70339 -0.938877 0
M  V30 950 C 89.823 -0.648065 -3.5422 0
M  V30 951 C 89.676 -2.13255 -3.96033 0
M  V30 952 C 90.995 -0.0922113 -4.40003 0
M  V30 953 H 88.114 -0.157924 -0.719881 0
M  V30 954 H 90.756 -1.05069 -1.58305 0
M  V30 955 H 88.906 -0.120237 -3.88314 0
M  V30 956 H 90.578 -2.725 -3.72211 0
M  V30 957 H 88.821 -2.61823 -3.45878 0
M  V30 958 H 89.492 -2.23547 -5.04708 0
M  V30 959 H 91.968 -0.543343 -4.12537 0
M  V30 960 H 90.844 -0.274083 -5.48215 0
M  V30 961 H 91.105 1.00378 -4.30554 0
M  V30 962 N 90.1641 1.46063 -0.591896 0
M  V30 963 C 91.4411 1.95595 -0.0137119 0
M  V30 964 C 91.8211 1.5345 1.4497 0
M  V30 965 O 91.1691 0.789543 2.14426 0
M  V30 966 C 91.3791 3.48453 -0.195373 0
M  V30 967 C 92.7271 4.24546 -0.0679765 0
M  V30 968 O 93.7511 3.55982 -0.124681 0
M  V30 969 O 92.6101 5.46467 0.0600579 0
M  V30 970 H 89.7041 0.825795 0.0446279 0
M  V30 971 H 92.2501 1.56303 -0.660859 0
M  V30 972 H 91.0221 3.72045 -1.21235 0
M  V30 973 H 90.6451 3.94597 0.487775 0
M  V30 974 N 91.6422 0.330177 1.54103 0
M  V30 975 C 92.8882 -0.270806 2.00984 0
M  V30 976 C 93.2212 -1.51265 1.21789 0
M  V30 977 O 92.4962 -1.92142 0.301927 0
M  V30 978 C 92.7792 -0.598339 3.55094 0
M  V30 979 C 92.6322 0.654674 4.4501 0
M  V30 980 C 93.9512 -1.41334 4.16789 0
M  V30 981 H 91.0702 -0.0969531 0.730595 0
M  V30 982 H 93.7122 0.448066 1.84641 0
M  V30 983 H 91.8622 -1.21078 3.69151 0
M  V30 984 H 93.5342 1.29285 4.42813 0
M  V30 985 H 91.7772 1.28224 4.14416 0
M  V30 986 H 92.4482 0.380944 5.50684 0
M  V30 987 H 94.9242 -0.895597 4.06347 0
M  V30 988 H 93.8002 -1.61127 5.24718 0
M  V30 989 H 94.0612 -2.41146 3.70541 0
M  V30 990 N 93.1203 -1.57491 0.0584922 0
M  V30 991 C 94.3683 -1.92597 -0.612436 0
M  V30 992 C 94.6893 -0.938162 -1.70949 0
M  V30 993 O 93.9593 0.0158301 -1.95894 0
M  V30 994 H 92.5393 -0.710964 -0.229214 0
M  V30 995 H 95.2013 -1.94571 0.113218 0
M  V30 996 H 94.2973 -2.94038 -1.04633 0
M  V30 997 N 94.5984 0.214957 -1.56127 0
M  V30 998 C 95.5314 1.29382 -1.87977 0
M  V30 999 C 96.5094 1.44897 -0.737807 0
M  V30 1000 O 97.6934 1.60605 -0.986833 0
M  V30 1001 C 94.8204 2.66325 -2.09258 0
M  V30 1002 C 93.8664 2.67789 -3.31951 0
M  V30 1003 S 94.6994 2.21198 -4.8768 0
M  V30 1004 C 95.8554 3.60003 -5.12004 0
M  V30 1005 H 96.0884 1.02173 -2.79192 0
M  V30 1006 H 93.6214 0.417516 -1.48648 0
M  V30 1007 H 95.5794 3.45162 -2.22201 0
M  V30 1008 H 94.2404 2.90755 -1.18829 0
M  V30 1009 H 93.4334 3.68436 -3.43906 0
M  V30 1010 H 93.0354 1.9702 -3.17898 0
M  V30 1011 H 95.3274 4.55739 -5.01307 0
M  V30 1012 H 96.2704 3.52959 -6.13861 0
M  V30 1013 H 96.6784 3.53996 -4.39712 0
M  V30 1014 N 96.0765 1.50051 0.48192 0
M  V30 1015 C 97.4925 1.37237 0.814756 0
M  V30 1016 C 97.6925 0.420109 1.97072 0
M  V30 1017 O 96.7485 -0.141246 2.52105 0
M  V30 1018 C 98.0615 2.78375 1.13701 0
M  V30 1019 C 99.6095 2.87213 1.2441 0
M  V30 1020 C 100.084 4.29161 1.59954 0
M  V30 1021 N 101.575 4.32061 1.66967 0
M  V30 1022 C 102.31 5.38879 1.95952 0
M  V30 1023 N 101.806 6.55918 2.23031 0
M  V30 1024 N 103.599 5.26312 1.97363 0
M  V30 1025 H 95.7505 2.10546 -0.28005 0
M  V30 1026 H 98.0135 0.945921 -0.0627454 0
M  V30 1027 H 97.7195 3.49845 0.360787 0
M  V30 1028 H 97.5935 3.14941 2.07586 0
M  V30 1029 H 99.9805 2.15969 2.01101 0
M  V30 1030 H 100.061 2.54204 0.285299 0
M  V30 1031 H 99.7055 5.00938 0.838067 0
M  V30 1032 H 99.6355 4.59648 2.56966 0
M  V30 1033 H 102.126 3.47661 1.48123 0
M  V30 1034 H 102.439 7.33139 2.44391 0
M  V30 1035 H 100.784 6.59112 2.20447 0
M  V30 1036 H 103.975 4.33876 1.75697 0
M  V30 1037 H 104.148 6.09649 2.19618 0
M  V30 1038 N 97.5546 -0.734337 1.39446 0
M  V30 1039 C 98.8036 -1.48937 1.36017 0
M  V30 1040 C 99.1166 -1.95557 -0.0409005 0
M  V30 1041 O 100.323 -2.70779 -0.19778 0
M  V30 1042 C 98.7786 -2.69125 2.38955 0
M  V30 1043 C 98.3866 -2.29452 3.8478 0
M  V30 1044 C 100.131 -3.46944 2.44603 0
M  V30 1045 C 98.0376 -3.46366 4.79358 0
M  V30 1046 H 96.9676 -0.559296 0.505672 0
M  V30 1047 H 99.6186 -0.800983 1.65095 0
M  V30 1048 H 98.0006 -3.40041 2.02948 0
M  V30 1049 H 99.1746 -1.66077 4.29831 0
M  V30 1050 H 97.4896 -1.64723 3.82433 0
M  V30 1051 H 100.087 -4.33907 3.12456 0
M  V30 1052 H 100.43 -3.89454 1.47076 0
M  V30 1053 H 100.963 -2.83056 2.79507 0
M  V30 1054 H 97.7016 -3.08905 5.78151 0
M  V30 1055 H 97.2216 -4.08719 4.38986 0
M  V30 1056 H 98.9006 -4.12691 4.98292 0
M  V30 1057 N 99.0327 -1.24633 -0.964593 0
M  V30 1058 C 100.31 -0.995809 -1.68354 0
M  V30 1059 C 100.69 0.480964 -2.05548 0
M  V30 1060 O 100.038 1.45599 -1.76105 0
M  V30 1061 C 100.248 -1.92177 -2.91323 0
M  V30 1062 C 101.596 -2.19446 -3.63495 0
M  V30 1063 O 102.62 -1.89855 -3.01386 0
M  V30 1064 O 101.479 -2.69714 -4.75307 0
M  V30 1065 H 98.5727 -0.376854 -0.736146 0
M  V30 1066 H 101.119 -1.35745 -1.0184 0
M  V30 1067 H 99.8907 -2.91938 -2.60553 0
M  V30 1068 H 99.5137 -1.56349 -3.65569 0
M  V30 1069 N 100.511 1.16574 -1.06058 0
M  V30 1070 C 101.757 1.87324 -0.777022 0
M  V30 1071 C 102.09 1.81351 0.694645 0
M  V30 1072 O 101.365 1.22753 1.50871 0
M  V30 1073 C 101.648 3.36991 -1.26922 0
M  V30 1074 C 101.501 3.51667 -2.80447 0
M  V30 1075 C 102.82 4.3131 -0.87521 0
M  V30 1076 H 99.9388 0.680191 -0.28374 0
M  V30 1077 H 102.581 1.37036 -1.3161 0
M  V30 1078 H 100.731 3.79949 -0.81063 0
M  V30 1079 H 102.403 3.17664 -3.34495 0
M  V30 1080 H 100.646 2.93656 -3.19294 0
M  V30 1081 H 101.317 4.56766 -3.0995 0
M  V30 1082 H 103.793 3.9624 -1.27014 0
M  V30 1083 H 102.669 5.34545 -1.2471 0
M  V30 1084 H 102.93 4.41552 0.220071 0
M  V30 1085 N 101.989 0.842826 1.3317 0
M  V30 1086 C 102.952 0.284065 2.27433 0
M  V30 1087 C 103.952 -0.54948 1.5112 0
M  V30 1088 O 105.142 -0.362699 1.70382 0
M  V30 1089 C 102.274 -0.599384 3.35589 0
M  V30 1090 H 103.467 1.11589 2.78366 0
M  V30 1091 H 101.02 0.616221 1.4364 0
M  V30 1092 H 101.755 -1.45349 2.89904 0
M  V30 1093 H 101.54 -0.00291266 3.921 0
M  V30 1094 H 103.03 -0.983488 4.05854 0
M  V30 1095 N 103.467 -1.45747 0.599634 0
M  V30 1096 C 104.692 -2.07178 0.0960198 0
M  V30 1097 C 105.117 -1.44268 -1.207 0
M  V30 1098 O 104.475 -0.532503 -1.73303 0
M  V30 1099 C 104.523 -3.60579 -0.0385348 0
M  V30 1100 O 103.627 -3.97713 -1.0908 0
M  V30 1101 H 102.968 -0.660251 0.0704593 0
M  V30 1102 H 105.498 -1.87124 0.827385 0
M  V30 1103 H 105.508 -4.07298 -0.239304 0
M  V30 1104 H 104.183 -4.05756 0.912947 0
M  V30 1105 H 102.76 -3.62678 -0.867135 0
M  V30 1106 N 104.945 -0.338344 -1.53925 0
M  V30 1107 C 106.194 0.260732 -2.00008 0
M  V30 1108 C 106.507 1.52073 -1.23017 0
M  V30 1109 O 107.713 2.19672 -1.5955 0
M  V30 1110 C 106.169 0.51515 -3.56194 0
M  V30 1111 C 105.777 -0.728645 -4.42035 0
M  V30 1112 C 107.521 1.07337 -4.10706 0
M  V30 1113 C 105.428 -0.445315 -5.89721 0
M  V30 1114 H 104.358 0.101205 -0.747177 0
M  V30 1115 H 107.009 -0.452866 -1.77824 0
M  V30 1116 H 105.391 1.28932 -3.74423 0
M  V30 1117 H 106.565 -1.50352 -4.35581 0
M  V30 1118 H 104.88 -1.20813 -3.98489 0
M  V30 1119 H 107.477 1.30022 -5.18651 0
M  V30 1120 H 107.82 2.0273 -3.63602 0
M  V30 1121 H 108.353 0.360034 -3.96167 0
M  V30 1122 H 105.092 -1.36883 -6.41049 0
M  V30 1123 H 104.612 0.291569 -5.99091 0
M  V30 1124 H 106.291 -0.0606218 -6.46972 0
M  V30 1125 N 106.423 1.57458 -0.0668435 0
M  V30 1126 C 107.7 1.8469 0.644132 0
M  V30 1127 C 108.08 0.958343 1.88093 0
M  V30 1128 O 107.428 0.0233579 2.28488 0
M  V30 1129 C 107.638 3.34767 0.986509 0
M  V30 1130 C 108.986 4.02159 1.36212 0
M  V30 1131 O 110.01 3.39484 1.07839 0
M  V30 1132 O 108.869 5.12694 1.89227 0
M  V30 1133 H 105.963 0.762816 0.319437 0
M  V30 1134 H 108.509 1.6942 -0.0973986 0
M  V30 1135 H 107.281 3.91151 0.107883 0
M  V30 1136 H 106.904 3.55281 1.78497 0
M  V30 1137 N 107.901 -0.206675 1.56239 0
M  V30 1138 C 108.834 -1.28383 1.88661 0
M  V30 1139 C 109.812 -1.44504 0.745481 0
M  V30 1140 O 110.996 -1.60079 0.995336 0
M  V30 1141 C 108.123 -2.65211 2.10667 0
M  V30 1142 C 107.169 -2.66025 3.33366 0
M  V30 1143 S 108.002 -2.18609 4.88846 0
M  V30 1144 C 109.158 -3.57283 5.13906 0
M  V30 1145 H 109.391 -1.00691 2.7973 0
M  V30 1146 H 106.924 -0.409627 1.48867 0
M  V30 1147 H 108.882 -3.43979 2.24029 0
M  V30 1148 H 107.543 -2.90121 1.20369 0
M  V30 1149 H 106.736 -3.66607 3.45855 0
M  V30 1150 H 106.338 -1.95331 3.18938 0
M  V30 1151 H 108.63 -4.53074 5.03717 0
M  V30 1152 H 109.573 -3.49699 6.15724 0
M  V30 1153 H 109.981 -3.51659 4.41583 0
M  V30 1154 N 109.379 -1.50304 -0.473955 0
M  V30 1155 C 110.625 -1.61389 -1.22806 0
M  V30 1156 C 110.958 -0.311955 -1.91678 0
M  V30 1157 O 110.233 0.686384 -1.81986 0
M  V30 1158 C 110.516 -2.79219 -2.27396 0
M  V30 1159 C 110.369 -4.19286 -1.62848 0
M  V30 1160 C 111.688 -2.92614 -3.28732 0
M  V30 1161 H 108.807 -0.587399 -0.445119 0
M  V30 1162 H 111.449 -1.82681 -0.522265 0
M  V30 1163 H 109.599 -2.61195 -2.87592 0
M  V30 1164 H 111.271 -4.48892 -1.06271 0
M  V30 1165 H 109.514 -4.23677 -0.931693 0
M  V30 1166 H 110.185 -4.97655 -2.38838 0
M  V30 1167 H 112.661 -3.09105 -2.78556 0
M  V30 1168 H 111.537 -3.76688 -3.99246 0
M  V30 1169 H 111.798 -2.03107 -3.92683 0
M  V30 1170 N 110.857 0.726932 -1.39834 0
M  V30 1171 C 112.082 1.52121 -1.40976 0
M  V30 1172 C 112.507 1.88098 -0.00826029 0
M  V30 1173 O 111.865 1.52479 0.980807 0
M  V30 1174 C 111.913 2.78021 -2.29644 0
M  V30 1175 O 111.017 3.74272 -1.73188 0
M  V30 1176 H 110.358 0.45908 -0.479731 0
M  V30 1177 H 112.888 0.896207 -1.83927 0
M  V30 1178 H 112.898 3.26671 -2.44438 0
M  V30 1179 H 111.573 2.51169 -3.31492 0
M  V30 1180 H 110.15 3.33073 -1.6768 0
M  V30 1181 N 112.336 1.25143 0.95797 0
M  V30 1182 C 113.246 1.06968 2.08794 0
M  V30 1183 C 114.262 0.00773911 1.73998 0
M  V30 1184 O 115.438 0.207972 2.00323 0
M  V30 1185 C 112.503 0.68691 3.39827 0
M  V30 1186 C 111.564 1.82641 3.88511 0
M  V30 1187 C 110.797 1.46181 5.1329 0
M  V30 1188 O 111.02 0.355971 5.69288 0
M  V30 1189 O 109.954 2.29085 5.566 0
M  V30 1190 H 113.78 2.01723 2.27027 0
M  V30 1191 H 111.365 1.04051 1.07209 0
M  V30 1192 H 113.247 0.485417 4.18595 0
M  V30 1193 H 111.922 -0.231417 3.22872 0
M  V30 1194 H 110.829 2.08274 3.10762 0
M  V30 1195 H 112.162 2.72386 4.09959 0
M  V30 1196 N 113.814 -1.1601 1.06675 0
M  V30 1197 C 115.06 -1.86909 0.786945 0
M  V30 1198 C 115.393 -1.81717 -0.685018 0
M  V30 1199 O 114.668 -1.23551 -1.50218 0
M  V30 1200 C 114.951 -3.36313 1.28707 0
M  V30 1201 C 114.804 -3.50175 2.82308 0
M  V30 1202 C 116.123 -4.3084 0.898071 0
M  V30 1203 H 113.242 -0.678677 0.287343 0
M  V30 1204 H 115.884 -1.36336 1.32334 0
M  V30 1205 H 114.034 -3.79513 0.830768 0
M  V30 1206 H 115.706 -3.15886 3.36175 0
M  V30 1207 H 113.949 -2.91959 3.20847 0
M  V30 1208 H 114.62 -4.55116 3.12368 0
M  V30 1209 H 117.096 -3.95561 1.29114 0
M  V30 1210 H 115.972 -5.33876 1.27543 0
M  V30 1211 H 116.233 -4.41662 -0.196651 0
M  V30 1212 N 115.292 -0.849877 -1.32721 0
M  V30 1213 C 116.24 -0.279745 -2.30912 0
M  V30 1214 C 117.234 0.594278 -1.58634 0
M  V30 1215 O 118.44 0.482613 -1.73409 0
M  V30 1216 H 114.815 -0.0717521 -0.748569 0
M  V30 1217 H 116.786 -1.12222 -2.76494 0
M  V30 1218 C 115.535 0.521108 -3.43773 0
M  V30 1219 H 114.858 -0.142141 -3.99547 0
M  V30 1220 H 116.298 0.885693 -4.14646 0
M  V30 1221 C 114.757 1.70442 -2.90605 0
M  V30 1222 O 115.287 2.8034 -2.87702 0
M  V30 1223 N 113.493 1.52991 -2.47067 0
M  V30 1224 H 113.04 0.635914 -2.49628 0
M  V30 1225 H 112.998 2.32311 -2.11847 0
M  V30 1226 N 116.77 1.45427 -0.607355 0
M  V30 1227 C 117.703 2.27635 0.160482 0
M  V30 1228 C 118.681 1.37122 0.873857 0
M  V30 1229 O 119.865 1.66551 0.882775 0
M  V30 1230 C 116.992 3.15486 1.23231 0
M  V30 1231 C 116.038 4.21939 0.622097 0
M  V30 1232 S 116.871 5.32459 -0.569852 0
M  V30 1233 C 118.027 6.23879 0.502577 0
M  V30 1234 H 118.26 2.9241 -0.536983 0
M  V30 1235 H 115.793 1.49265 -0.394868 0
M  V30 1236 H 117.751 3.66659 1.84585 0
M  V30 1237 H 116.412 2.49977 1.90185 0
M  V30 1238 H 115.605 4.8333 1.42856 0
M  V30 1239 H 115.207 3.73906 0.0837063 0
M  V30 1240 H 117.499 6.63261 1.38171 0
M  V30 1241 H 118.442 7.0806 -0.0751759 0
M  V30 1242 H 118.85 5.58545 0.8178 0
M  V30 1243 N 118.248 0.346503 1.53744 0
M  V30 1244 C 119.525 -0.304532 1.93215 0
M  V30 1245 C 119.905 -1.67993 1.27834 0
M  V30 1246 O 119.253 -2.24411 0.430352 0
M  V30 1247 C 119.463 -0.373852 3.46992 0
M  V30 1248 C 120.811 -0.62329 4.2 0
M  V30 1249 O 121.835 -0.455847 3.53271 0
M  V30 1250 O 120.694 -0.947879 5.38217 0
M  V30 1251 H 117.788 -0.178318 0.807547 0
M  V30 1252 H 120.334 0.397895 1.64969 0
M  V30 1253 H 119.106 0.591224 3.86808 0
M  V30 1254 H 118.729 -1.12294 3.81413 0
M  V30 1255 N 119.726 -1.57421 0.075193 0
M  V30 1256 C 120.956 -1.97659 -0.601203 0
M  V30 1257 C 121.364 -0.952427 -1.63479 0
M  V30 1258 O 120.707 0.0688241 -1.83571 0
M  V30 1259 C 120.769 -3.34218 -1.32434 0
M  V30 1260 C 120.433 -4.5484 -0.443826 0
M  V30 1261 C 121.43 -5.19034 0.299969 0
M  V30 1262 C 119.115 -5.00952 -0.367709 0
M  V30 1263 C 121.109 -6.27695 1.10807 0
M  V30 1264 C 118.796 -6.09484 0.444058 0
M  V30 1265 C 119.794 -6.72719 1.18061 0
M  V30 1266 O 119.482 -7.79161 1.97898 0
M  V30 1267 H 119.214 -0.65494 -0.167422 0
M  V30 1268 H 121.768 -2.04886 0.145157 0
M  V30 1269 H 119.998 -3.23615 -2.11685 0
M  V30 1270 H 121.687 -3.59038 -1.89331 0
M  V30 1271 H 122.453 -4.84351 0.250776 0
M  V30 1272 H 118.332 -4.51509 -0.930638 0
M  V30 1273 H 121.876 -6.76982 1.68347 0
M  V30 1274 H 117.773 -6.43601 0.494803 0
M  V30 1275 H 118.541 -7.96055 1.90367 0
M  V30 1276 N 121.204 0.198386 -1.56346 0
M  V30 1277 C 122.432 0.935572 -1.84539 0
M  V30 1278 C 122.847 1.76989 -0.657281 0
M  V30 1279 O 122.204 1.78626 0.374043 0
M  V30 1280 C 122.255 1.8344 -3.11499 0
M  V30 1281 O 121.976 1.03377 -4.25728 0
M  V30 1282 C 123.477 2.68355 -3.52846 0
M  V30 1283 H 120.697 0.273126 -0.612897 0
M  V30 1284 H 123.241 0.20663 -2.03453 0
M  V30 1285 H 121.396 2.51701 -2.94492 0
M  V30 1286 H 121.81 1.64599 -4.98003 0
M  V30 1287 H 123.284 3.27085 -4.44657 0
M  V30 1288 H 123.761 3.41901 -2.75681 0
M  V30 1289 H 124.367 2.05471 -3.72373 0
M  V30 1290 N 122.682 1.50554 0.465978 0
M  V30 1291 C 123.612 1.72722 1.57128 0
M  V30 1292 C 124.593 0.576294 1.6004 0
M  V30 1293 O 125.778 0.81598 1.76225 0
M  V30 1294 C 122.908 1.82605 2.95419 0
M  V30 1295 C 121.862 2.97835 3.07373 0
M  V30 1296 C 121.188 2.92867 4.47363 0
M  V30 1297 C 122.488 4.38265 2.84114 0
M  V30 1298 H 124.182 2.65267 1.38829 0
M  V30 1299 H 121.728 1.2765 0.666441 0
M  V30 1300 H 123.681 1.96698 3.72677 0
M  V30 1301 H 122.405 0.866858 3.14886 0
M  V30 1302 H 121.064 2.83401 2.3255 0
M  V30 1303 H 120.712 1.94783 4.63755 0
M  V30 1304 H 120.412 3.70227 4.56296 0
M  V30 1305 H 121.936 3.09015 5.26633 0
M  V30 1306 H 123.35 4.53198 3.51118 0
M  V30 1307 H 121.747 5.17115 3.04487 0
M  V30 1308 H 122.817 4.50281 1.7993 0
M  V30 1309 N 124.16 -0.719506 1.40217 0
M  V30 1310 C 125.388 -1.50864 1.41589 0
M  V30 1311 C 125.803 -1.88794 0.0145275 0
M  V30 1312 O 125.16 -1.55174 -0.960594 0
M  V30 1313 C 125.211 -2.78646 2.30302 0
M  V30 1314 O 124.932 -2.42321 3.64983 0
M  V30 1315 C 126.433 -3.72569 2.40224 0
M  V30 1316 H 123.653 -0.465709 0.48307 0
M  V30 1317 H 126.197 -0.88785 1.84221 0
M  V30 1318 H 124.352 -3.37019 1.91042 0
M  V30 1319 H 124.766 -3.24514 4.12057 0
M  V30 1320 H 126.24 -4.5908 3.06512 0
M  V30 1321 H 126.717 -4.15403 1.42608 0
M  V30 1322 H 127.323 -3.20109 2.80019 0
M  V30 1323 N 125.638 -1.25649 -0.95132 0
M  V30 1324 C 126.571 -1.00644 -2.04807 0
M  V30 1325 C 127.549 0.0654271 -1.62468 0
M  V30 1326 O 128.733 -0.074911 -1.88351 0
M  V30 1327 C 125.86 -0.522052 -3.34653 0
M  V30 1328 C 124.906 -1.58495 -3.95957 0
M  V30 1329 S 125.739 -3.17108 -4.31512 0
M  V30 1330 C 126.895 -2.70412 -5.64471 0
M  V30 1331 H 127.128 -1.93508 -2.25703 0
M  V30 1332 H 124.661 -1.09216 -1.09139 0
M  V30 1333 H 126.619 -0.24923 -4.09743 0
M  V30 1334 H 125.28 0.386146 -3.11717 0
M  V30 1335 H 124.473 -1.1968 -4.89584 0
M  V30 1336 H 124.075 -1.80862 -3.2736 0
M  V30 1337 H 126.367 -2.14245 -6.42733 0
M  V30 1338 H 127.31 -3.62693 -6.08161 0
M  V30 1339 H 127.718 -2.10302 -5.23864 0
M  V30 1340 N 127.117 1.15442 -1.07289 0
M  V30 1341 C 128.347 1.89821 -0.815576 0
M  V30 1342 C 128.755 1.7823 0.634867 0
M  V30 1343 O 128.098 1.13152 1.44715 0
M  V30 1344 C 128.16 3.40817 -1.14385 0
M  V30 1345 C 127.824 3.76193 -2.59476 0
M  V30 1346 C 128.821 3.77269 -3.57721 0
M  V30 1347 C 126.506 4.0652 -2.95037 0
M  V30 1348 C 128.5 4.08176 -4.89562 0
M  V30 1349 C 126.187 4.37092 -4.27076 0
M  V30 1350 C 127.185 4.37902 -5.24148 0
M  V30 1351 O 126.873 4.67741 -6.53815 0
M  V30 1352 H 126.605 0.608465 -0.294528 0
M  V30 1353 H 129.159 1.472 -1.43252 0
M  V30 1354 H 127.389 3.83835 -0.469865 0
M  V30 1355 H 129.078 3.96485 -0.869179 0
M  V30 1356 H 129.844 3.5394 -3.3159 0
M  V30 1357 H 125.723 4.05049 -2.20128 0
M  V30 1358 H 129.267 4.08723 -5.65324 0
M  V30 1359 H 125.164 4.59889 -4.5296 0
M  V30 1360 H 125.932 4.85509 -6.58957 0
M  V30 1361 N 128.595 0.856903 1.32268 0
M  V30 1362 C 129.842 0.461386 1.97174 0
M  V30 1363 C 130.17 -0.983491 1.67803 0
M  V30 1364 O 129.425 -1.70541 0.959903 0
M  V30 1365 C 129.724 0.649919 3.51441 0
M  V30 1366 C 129.39 2.0656 4.00804 0
M  V30 1367 C 128.052 2.45279 4.13995 0
M  V30 1368 C 130.404 2.98947 4.26943 0
M  V30 1369 C 127.732 3.75653 4.50668 0
M  V30 1370 C 130.084 4.28822 4.65075 0
M  V30 1371 C 128.748 4.67472 4.76472 0
M  V30 1372 H 128.018 0.168833 0.72151 0
M  V30 1373 H 130.665 1.08739 1.57633 0
M  V30 1374 H 128.97 -0.0593018 3.91755 0
M  V30 1375 H 130.667 0.32391 3.9969 0
M  V30 1376 H 127.257 1.75495 3.91024 0
M  V30 1377 H 131.441 2.70265 4.16258 0
M  V30 1378 H 126.697 4.05379 4.57688 0
M  V30 1379 H 130.871 5.0047 4.84255 0
M  V30 1380 H 128.498 5.68539 5.04646 0
M  V30 1381 N 130.073 -1.45103 0.615059 0
M  V30 1382 C 131.005 -2.28786 -0.13762 0
M  V30 1383 C 132.018 -1.40376 -0.824525 0
M  V30 1384 O 133.207 -1.64681 -0.688662 0
M  V30 1385 C 130.307 -3.16322 -1.21628 0
M  V30 1386 C 129.48 -4.33054 -0.615039 0
M  V30 1387 C 128.539 -5.01743 -1.58556 0
M  V30 1388 O 127.565 -5.58293 -1.10895 0
M  V30 1389 N 128.767 -5.01714 -2.91998 0
M  V30 1390 H 131.532 -2.94025 0.580483 0
M  V30 1391 H 129.093 -1.55373 0.45507 0
M  V30 1392 H 131.085 -3.59139 -1.86552 0
M  V30 1393 H 129.655 -2.52943 -1.83681 0
M  V30 1394 H 128.875 -3.93627 0.21245 0
M  V30 1395 H 130.163 -5.08431 -0.193704 0
M  V30 1396 H 129.561 -4.57075 -3.33316 0
M  V30 1397 H 128.118 -5.48371 -3.52325 0
M  V30 1398 N 131.551 -0.354651 -1.53558 0
M  V30 1399 C 132.483 0.5315 -2.22952 0
M  V30 1400 C 133.496 1.05503 -1.23988 0
M  V30 1401 O 134.685 0.963279 -1.50277 0
M  V30 1402 C 131.785 1.74538 -2.90499 0
M  V30 1403 C 130.958 1.35524 -4.15875 0
M  V30 1404 C 130.017 2.42999 -4.66731 0
M  V30 1405 O 129.043 2.05844 -5.30676 0
M  V30 1406 N 130.245 3.74423 -4.43608 0
M  V30 1407 H 133.01 -0.0628615 -2.99634 0
M  V30 1408 H 130.571 -0.179302 -1.60904 0
M  V30 1409 H 132.563 2.45892 -3.21433 0
M  V30 1410 H 131.133 2.24686 -2.17336 0
M  V30 1411 H 130.353 0.471998 -3.91364 0
M  V30 1412 H 131.641 1.07071 -4.97406 0
M  V30 1413 H 131.039 4.07391 -3.92491 0
M  V30 1414 H 129.596 4.41913 -4.7912 0
M  V30 1415 N 133.029 1.57378 -0.0835403 0
M  V30 1416 C 134.254 1.98682 0.594987 0
M  V30 1417 C 134.679 0.961969 1.61641 0
M  V30 1418 O 134.037 -0.0709989 1.81161 0
M  V30 1419 C 134.085 3.38988 1.2296 0
M  V30 1420 O 133.189 3.39208 2.34546 0
M  V30 1421 H 132.53 0.646368 0.152002 0
M  V30 1422 H 135.06 2.03961 -0.161533 0
M  V30 1423 H 135.07 3.76431 1.57366 0
M  V30 1424 H 133.745 4.13107 0.481228 0
M  V30 1425 H 132.322 3.13548 2.01846 0
M  V30 1426 N 134.507 -0.190092 1.56449 0
M  V30 1427 C 135.753 -0.906472 1.82084 0
M  V30 1428 C 136.108 -1.80677 0.661335 0
M  V30 1429 O 135.401 -1.88501 -0.343237 0
M  V30 1430 C 135.595 -1.75382 3.1141 0
M  V30 1431 C 135.424 -0.937053 4.39829 0
M  V30 1432 C 134.194 -0.619507 5.01488 0
M  V30 1433 C 136.392 -0.2874 5.13496 0
M  V30 1434 N 134.374 0.215367 6.13522 0
M  V30 1435 C 135.745 0.409454 6.18646 0
M  V30 1436 C 137.8 -0.203639 4.97483 0
M  V30 1437 C 136.503 1.1821 7.0952 0
M  V30 1438 C 138.529 0.555622 5.88784 0
M  V30 1439 C 137.891 1.24091 6.93384 0
M  V30 1440 H 133.99 -0.310931 0.717528 0
M  V30 1441 H 136.574 -0.174821 1.93914 0
M  V30 1442 H 134.745 -2.45703 3.00806 0
M  V30 1443 H 136.477 -2.41006 3.25112 0
M  V30 1444 H 133.232 -0.945126 4.64074 0
M  V30 1445 H 133.656 0.622562 6.74131 0
M  V30 1446 H 138.298 -0.719099 4.1664 0
M  V30 1447 H 136.016 1.70897 7.89823 0
M  V30 1448 H 139.602 0.621854 5.78467 0
M  V30 1449 H 138.482 1.81901 7.62812 0
M  V30 1450 N 135.985 -1.50799 -0.457987 0
M  V30 1451 C 136.932 -1.70617 -1.5543 0
M  V30 1452 C 137.902 -0.547562 -1.56815 0
M  V30 1453 O 139.087 -0.779647 -1.74144 0
M  V30 1454 C 136.227 -1.81831 -2.93311 0
M  V30 1455 C 135.34 -3.09278 -3.01615 0
M  V30 1456 C 134.475 -3.11209 -4.30491 0
M  V30 1457 C 133.514 -4.33055 -4.32585 0
M  V30 1458 N 132.651 -4.32652 -5.52952 0
M  V30 1459 H 137.491 -2.64207 -1.37836 0
M  V30 1460 H 135.028 -1.30959 -0.669937 0
M  V30 1461 H 136.986 -1.86314 -3.73287 0
M  V30 1462 H 135.616 -0.916685 -3.0951 0
M  V30 1463 H 134.668 -3.14203 -2.1443 0
M  V30 1464 H 135.98 -3.99233 -2.99022 0
M  V30 1465 H 135.134 -3.14494 -5.18824 0
M  V30 1466 H 133.873 -2.19106 -4.35711 0
M  V30 1467 H 132.878 -4.29969 -3.42647 0
M  V30 1468 H 134.103 -5.264 -4.29046 0
M  V30 1469 H 132.049 -3.43409 -5.58933 0
M  V30 1470 H 131.966 -5.16392 -5.52155 0
M  V30 1471 H 133.234 -4.40101 -6.43375 0
M  V30 1472 N 137.463 0.71206 -1.40597 0
M  V30 1473 C 138.74 1.46536 -1.29563 0
M  V30 1474 C 139.12 2.10931 0.0844217 0
M  V30 1475 O 138.468 2.00418 1.0975 0
M  V30 1476 C 138.678 2.49821 -2.43701 0
M  V30 1477 C 140.026 3.15551 -2.841 0
M  V30 1478 O 141.05 2.60142 -2.4332 0
M  V30 1479 O 139.909 4.15867 -3.54566 0
M  V30 1480 H 137.003 0.651801 -0.509004 0
M  V30 1481 H 139.549 0.743935 -1.52524 0
M  V30 1482 H 138.321 2.00778 -3.35863 0
M  V30 1483 H 137.944 3.29495 -2.22528 0
M  V30 1484 N 138.941 1.26152 0.944643 0
M  V30 1485 C 139.888 1.07408 2.04285 0
M  V30 1486 C 140.858 -0.0198413 1.66088 0
M  V30 1487 O 142.043 0.139264 1.90291 0
M  V30 1488 C 139.183 0.70945 3.37729 0
M  V30 1489 C 138.296 1.87926 3.88983 0
M  V30 1490 C 137.431 1.45807 5.10797 0
M  V30 1491 C 136.47 2.5964 5.54305 0
M  V30 1492 N 135.607 2.18226 6.67324 0
M  V30 1493 H 140.447 2.01389 2.1965 0
M  V30 1494 H 137.984 1.00275 1.07626 0
M  V30 1495 H 139.942 0.478948 4.14442 0
M  V30 1496 H 138.572 -0.193389 3.2222 0
M  V30 1497 H 137.624 2.22279 3.08701 0
M  V30 1498 H 138.936 2.73377 4.17213 0
M  V30 1499 H 138.09 1.18781 5.94959 0
M  V30 1500 H 136.829 0.574414 4.84305 0
M  V30 1501 H 135.834 2.87399 4.68702 0
M  V30 1502 H 137.059 3.48599 5.828 0
M  V30 1503 H 135.005 1.3229 6.42523 0
M  V30 1504 H 134.922 2.97221 6.95123 0
M  V30 1505 H 136.19 1.94403 7.54869 0
M  V30 1506 N 140.419 -1.14872 1.07899 0
M  V30 1507 C 141.835 -1.37776 0.805606 0
M  V30 1508 C 142.035 -1.92743 -0.587555 0
M  V30 1509 O 141.091 -2.13678 -1.34528 0
M  V30 1510 C 142.404 -2.34361 1.88402 0
M  V30 1511 C 143.952 -2.48012 1.90942 0
M  V30 1512 C 144.427 -3.47893 2.97883 0
M  V30 1513 N 145.918 -3.55433 2.97021 0
M  V30 1514 C 146.653 -4.32553 3.76412 0
M  V30 1515 N 146.149 -5.12959 4.65666 0
M  V30 1516 N 147.942 -4.27697 3.64735 0
M  V30 1517 H 140.093 -0.775365 1.97742 0
M  V30 1518 H 142.356 -0.403521 0.857831 0
M  V30 1519 H 142.062 -2.01098 2.88535 0
M  V30 1520 H 141.936 -3.34206 1.74889 0
M  V30 1521 H 144.323 -2.8057 0.914579 0
M  V30 1522 H 144.404 -1.48147 2.08534 0
M  V30 1523 H 144.048 -3.16069 3.97571 0
M  V30 1524 H 143.978 -4.47527 2.77538 0
M  V30 1525 H 146.469 -2.98048 2.32326 0
M  V30 1526 H 146.782 -5.69065 5.22862 0
M  V30 1527 H 145.127 -5.12245 4.69712 0
M  V30 1528 H 148.318 -3.63949 2.94378 0
M  V30 1529 H 148.491 -4.8755 4.26848 0
M  V30 1530 N 141.898 -0.863906 -1.31812 0
M  V30 1531 C 142.828 -0.330843 -2.31144 0
M  V30 1532 C 143.809 0.575005 -1.60087 0
M  V30 1533 O 144.994 0.493304 -1.8783 0
M  V30 1534 C 142.124 0.47374 -3.44054 0
M  V30 1535 C 141.078 -0.338481 -4.26659 0
M  V30 1536 C 140.404 0.591412 -5.31419 0
M  V30 1537 C 141.704 -1.56926 -4.98168 0
M  V30 1538 H 143.398 -1.16086 -2.75979 0
M  V30 1539 H 140.944 -0.559657 -1.32679 0
M  V30 1540 H 142.897 0.857143 -4.12591 0
M  V30 1541 H 141.621 1.33721 -2.9797 0
M  V30 1542 H 140.28 -0.703754 -3.59782 0
M  V30 1543 H 139.928 1.45199 -4.81587 0
M  V30 1544 H 139.628 0.0519022 -5.87577 0
M  V30 1545 H 141.152 0.97179 -6.02817 0
M  V30 1546 H 142.566 -1.25764 -5.59336 0
M  V30 1547 H 140.963 -2.04739 -5.64094 0
M  V30 1548 H 142.033 -2.32544 -4.25501 0
M  V30 1549 N 143.376 1.44774 -0.622745 0
M  V30 1550 C 144.601 2.06999 -0.128968 0
M  V30 1551 C 145.026 1.4617 1.1839 0
M  V30 1552 O 144.384 0.560007 1.72434 0
M  V30 1553 C 144.432 3.60595 -0.0188351 0
M  V30 1554 O 143.536 3.99398 1.02739 0
M  V30 1555 H 142.877 0.659047 -0.0809544 0
M  V30 1556 H 145.407 1.85784 -0.85705 0
M  V30 1557 H 145.417 4.07627 0.174476 0
M  V30 1558 H 144.092 4.04252 -0.977384 0
M  V30 1559 H 142.669 3.64011 0.809326 0
M  V30 1560 N 144.854 0.36279 1.53368 0
M  V30 1561 C 146.084 -0.228281 2.05335 0
M  V30 1562 C 146.492 -1.43226 1.23625 0
M  V30 1563 O 145.835 -1.81717 0.269206 0
M  V30 1564 C 145.897 -0.688549 3.52845 0
M  V30 1565 C 145.561 0.398362 4.5526 0
M  V30 1566 C 146.558 1.24732 5.04716 0
M  V30 1567 C 144.243 0.557805 4.99193 0
M  V30 1568 C 146.237 2.2411 5.96702 0
M  V30 1569 C 143.924 1.55495 5.90986 0
M  V30 1570 C 144.922 2.39503 6.39631 0
M  V30 1571 O 144.61 3.37517 7.29615 0
M  V30 1572 H 144.342 -0.044395 0.674541 0
M  V30 1573 H 146.896 0.518668 1.98744 0
M  V30 1574 H 145.126 -1.48706 3.56964 0
M  V30 1575 H 146.815 -1.20231 3.87685 0
M  V30 1576 H 147.581 1.13532 4.71525 0
M  V30 1577 H 143.46 -0.0862959 4.60919 0
M  V30 1578 H 147.004 2.89718 6.34594 0
M  V30 1579 H 142.901 1.66744 6.23592 0
M  V30 1580 H 143.669 3.33213 7.47604 0
M  V30 1581 N 146.332 -1.57332 0.0918853 0
M  V30 1582 C 147.557 -1.98995 -0.584442 0
M  V30 1583 C 147.982 -0.970528 -1.61128 0
M  V30 1584 O 147.34 0.0613904 -1.81196 0
M  V30 1585 C 147.388 -3.39636 -1.21161 0
M  V30 1586 O 146.492 -3.40447 -2.32744 0
M  V30 1587 H 145.833 -0.647165 -0.148572 0
M  V30 1588 H 148.363 -2.03873 0.172347 0
M  V30 1589 H 148.373 -3.7726 -1.55367 0
M  V30 1590 H 147.048 -4.13356 -0.459313 0
M  V30 1591 H 145.625 -3.14614 -2.0018 0
M  V30 1592 N 147.81 0.181792 -1.56548 0
M  V30 1593 C 149.058 0.89832 -1.81038 0
M  V30 1594 C 149.379 1.83232 -0.667164 0
M  V30 1595 O 148.649 1.93372 0.313673 0
M  V30 1596 H 147.229 0.33471 -0.667816 0
M  V30 1597 H 149.891 0.184116 -1.94028 0
M  V30 1598 H 148.987 1.4815 -2.74696 0
M  V30 1599 N 149.288 1.51039 0.449983 0
M  V30 1600 C 150.537 1.62317 1.19733 0
M  V30 1601 C 150.85 0.339101 1.92638 0
M  V30 1602 O 152.056 0.331069 2.69474 0
M  V30 1603 C 150.512 2.86608 2.17678 0
M  V30 1604 C 150.12 4.21972 1.50479 0
M  V30 1605 C 151.864 3.07239 2.92924 0
M  V30 1606 C 149.771 5.37426 2.46834 0
M  V30 1607 H 148.701 0.604532 0.450619 0
M  V30 1608 H 151.352 1.77494 0.465625 0
M  V30 1609 H 149.734 2.65037 2.94231 0
M  V30 1610 H 150.908 4.53878 0.795716 0
M  V30 1611 H 149.223 4.07117 0.874344 0
M  V30 1612 H 151.82 3.90668 3.65079 0
M  V30 1613 H 152.163 2.19807 3.5354 0
M  V30 1614 H 152.696 3.29091 2.23481 0
M  V30 1615 H 149.435 6.27079 1.90926 0
M  V30 1616 H 148.955 5.09912 3.15832 0
M  V30 1617 H 150.634 5.68862 3.08228 0
M  V30 1618 N 150.766 -0.704594 1.40972 0
M  V30 1619 C 152.177 -1.28418 1.3552 0
M  V30 1620 C 152.528 -1.96171 0.0339434 0
M  V30 1621 O 151.653 -1.98231 -0.867944 0
M  V30 1622 C 152.248 -2.33528 2.45459 0
M  V30 1623 C 150.807 -2.87085 2.43433 0
M  V30 1624 C 149.954 -1.61007 2.2577 0
M  V30 1625 H 152.905 -0.499963 1.50619 0
M  V30 1626 H 152.926 -3.14619 2.13998 0
M  V30 1627 H 152.438 -1.84187 3.41609 0
M  V30 1628 H 150.539 -3.40626 1.51013 0
M  V30 1629 H 150.652 -3.3813 3.39419 0
M  V30 1630 H 149.016 -1.86482 1.73483 0
M  V30 1631 H 149.799 -1.13675 3.23933 0
M  V30 1632 N 152.244 -1.26651 -0.937939 0
M  V30 1633 C 153.174 -1.10993 -2.05433 0
M  V30 1634 C 154.155 -0.0142161 -1.70094 0
M  V30 1635 O 155.34 -0.186837 -1.93299 0
M  V30 1636 C 152.47 -0.745561 -3.39203 0
M  V30 1637 C 151.424 -1.79337 -3.88616 0
M  V30 1638 C 150.75 -1.28324 -5.19073 0
M  V30 1639 C 152.05 -3.19553 -4.13138 0
M  V30 1640 H 153.744 -2.0438 -2.1879 0
M  V30 1641 H 151.29 -0.984041 -1.05131 0
M  V30 1642 H 153.243 -0.622888 -4.16771 0
M  V30 1643 H 151.967 0.22401 -3.25831 0
M  V30 1644 H 150.626 -1.90477 -3.13231 0
M  V30 1645 H 150.274 -0.303414 -5.02084 0
M  V30 1646 H 149.974 -1.98369 -5.53103 0
M  V30 1647 H 151.498 -1.1733 -5.99221 0
M  V30 1648 H 152.912 -3.11471 -4.81309 0
M  V30 1649 H 151.309 -3.87218 -4.58457 0
M  V30 1650 H 152.379 -3.65368 -3.18801 0
M  V30 1651 N 153.722 1.14298 -1.08507 0
M  V30 1652 C 154.67 2.21483 -0.710483 0
M  V30 1653 C 155.664 1.66998 0.284234 0
M  V30 1654 O 156.87 1.79401 0.146692 0
M  V30 1655 H 153.245 0.721578 -0.211729 0
M  V30 1656 H 155.216 2.50348 -1.62384 0
M  V30 1657 C 153.965 3.4743 -0.137007 0
M  V30 1658 H 153.288 3.89686 -0.893592 0
M  V30 1659 H 154.728 4.2391 0.0872789 0
M  V30 1660 C 153.187 3.17548 1.12538 0
M  V30 1661 O 153.717 3.35437 2.21009 0
M  V30 1662 N 151.923 2.71499 1.03617 0
M  V30 1663 H 151.47 2.57143 0.153403 0
M  V30 1664 H 151.428 2.51881 1.88158 0
M  V30 1665 N 155.201 0.870884 1.31352 0
M  V30 1666 C 156.131 0.343096 2.30966 0
M  V30 1667 C 157.112 -0.566507 1.60389 0
M  V30 1668 O 158.297 -0.483336 1.88089 0
M  V30 1669 C 155.427 -0.455487 3.443 0
M  V30 1670 C 154.381 0.361103 4.26474 0
M  V30 1671 C 153.707 -0.563221 5.31725 0
M  V30 1672 C 155.007 1.59566 4.97329 0
M  V30 1673 H 156.701 1.17548 2.75359 0
M  V30 1674 H 154.247 0.566686 1.32381 0
M  V30 1675 H 156.2 -0.83525 4.13039 0
M  V30 1676 H 154.924 -1.32139 2.98675 0
M  V30 1677 H 153.583 0.722825 3.59403 0
M  V30 1678 H 153.231 -1.42643 4.82351 0
M  V30 1679 H 152.931 -0.0207409 5.87596 0
M  V30 1680 H 154.455 -0.939808 6.03324 0
M  V30 1681 H 155.869 1.28728 5.58661 0
M  V30 1682 H 154.266 2.07728 5.63 0
M  V30 1683 H 155.336 2.34798 4.24262 0
M  V30 1684 N 156.679 -1.44442 0.630414 0
M  V30 1685 C 157.907 -2.06414 0.141671 0
M  V30 1686 C 158.322 -1.47105 -1.18345 0
M  V30 1687 O 157.679 -0.593662 -1.72574 0
M  V30 1688 C 157.73 -3.61494 0.0199784 0
M  V30 1689 O 157.451 -4.18594 1.29269 0
M  V30 1690 C 158.952 -4.40499 -0.497544 0
M  V30 1691 H 156.172 -0.666292 0.0793452 0
M  V30 1692 H 158.716 -1.85323 0.864614 0
M  V30 1693 H 156.871 -3.8185 -0.653402 0
M  V30 1694 H 157.285 -5.12026 1.13707 0
M  V30 1695 H 158.759 -5.49433 -0.531708 0
M  V30 1696 H 159.236 -4.11895 -1.52445 0
M  V30 1697 H 159.842 -4.25061 0.142562 0
M  V30 1698 N 158.157 -0.370918 -1.53173 0
M  V30 1699 C 159.087 0.464847 -2.28826 0
M  V30 1700 C 160.068 1.07936 -1.31468 0
M  V30 1701 O 161.253 1.0956 -1.60344 0
M  V30 1702 C 158.383 1.60196 -3.08147 0
M  V30 1703 C 157.337 1.11443 -4.13237 0
M  V30 1704 C 156.663 2.3422 -4.80672 0
M  V30 1705 C 157.963 0.195384 -5.21934 0
M  V30 1706 H 159.657 -0.166329 -2.98938 0
M  V30 1707 H 157.203 -0.0814359 -1.4377 0
M  V30 1708 H 159.156 2.19332 -3.59822 0
M  V30 1709 H 157.88 2.26045 -2.35735 0
M  V30 1710 H 156.539 0.545727 -3.62515 0
M  V30 1711 H 156.187 2.98537 -4.04827 0
M  V30 1712 H 155.887 2.02269 -5.51689 0
M  V30 1713 H 157.411 2.94032 -5.35143 0
M  V30 1714 H 158.825 0.694375 -5.69079 0
M  V30 1715 H 157.222 -0.0335027 -6.00091 0
M  V30 1716 H 158.292 -0.760961 -4.78892 0
M  V30 1717 N 159.635 1.57281 -0.100228 0
M  V30 1718 C 160.912 1.86014 0.604812 0
M  V30 1719 C 161.292 0.998025 1.86018 0
M  V30 1720 O 160.64 0.0718184 2.28387 0
M  V30 1721 C 160.85 3.36784 0.915278 0
M  V30 1722 C 162.198 4.04957 1.27651 0
M  V30 1723 O 163.222 3.41695 1.00613 0
M  V30 1724 O 162.081 5.16593 1.7831 0
M  V30 1725 H 159.175 0.76942 0.303185 0
M  V30 1726 H 161.721 1.69176 -0.133313 0
M  V30 1727 H 160.493 3.91292 0.0248896 0
M  V30 1728 H 160.116 3.58987 1.70921 0
M  V30 1729 N 161.113 -0.173488 1.56642 0
M  V30 1730 C 162.061 -1.23417 1.97157 0
M  V30 1731 C 163.055 -1.45946 0.860013 0
M  V30 1732 O 164.261 -1.46551 1.04512 0
M  V30 1733 H 160.636 -0.414818 0.62724 0
M  V30 1734 H 162.607 -0.865582 2.8557 0
M  V30 1735 C 161.356 -2.5665 2.34576 0
M  V30 1736 H 160.679 -2.40137 3.19647 0
M  V30 1737 H 162.119 -3.2956 2.6677 0
M  V30 1738 C 160.578 -3.15245 1.18836 0
M  V30 1739 O 161.108 -3.98883 0.474869 0
M  V30 1740 N 159.314 -2.74303 0.959497 0
M  V30 1741 H 158.861 -2.0639 1.54146 0
M  V30 1742 H 158.819 -3.13844 0.186932 0
M  V30 1743 N 162.591 -1.51276 -0.441967 0
M  V30 1744 C 164.007 -1.39349 -0.778083 0
M  V30 1745 C 164.207 -0.472212 -1.95889 0
M  V30 1746 O 163.263 0.0743551 -2.5239 0
M  V30 1747 C 164.576 -2.81292 -1.0628 0
M  V30 1748 C 166.124 -2.9041 -1.16751 0
M  V30 1749 C 166.599 -4.33251 -1.48519 0
M  V30 1750 N 168.09 -4.36336 -1.55453 0
M  V30 1751 C 168.825 -5.43885 -1.81596 0
M  V30 1752 N 168.321 -6.61601 -2.05562 0
M  V30 1753 N 170.114 -5.3136 -1.8334 0
M  V30 1754 H 162.265 -2.09729 0.335774 0
M  V30 1755 H 164.528 -0.943925 0.0878028 0
M  V30 1756 H 164.234 -3.50678 -0.267905 0
M  V30 1757 H 164.108 -3.20334 -1.99163 0
M  V30 1758 H 166.495 -2.21225 -1.95304 0
M  V30 1759 H 166.576 -2.54871 -0.217801 0
M  V30 1760 H 166.22 -5.02984 -0.704958 0
M  V30 1761 H 166.15 -4.66299 -2.44689 0
M  V30 1762 H 168.641 -3.51466 -1.38853 0
M  V30 1763 H 168.954 -7.39361 -2.24867 0
M  V30 1764 H 167.299 -6.64725 -2.02894 0
M  V30 1765 H 170.49 -4.38382 -1.64132 0
M  V30 1766 H 170.663 -6.15258 -2.03377 0
M  V30 1767 N 164.069 0.697108 -1.41344 0
M  V30 1768 C 165.315 1.4593 -1.40827 0
M  V30 1769 C 165.648 1.94193 -0.0167098 0
M  V30 1770 O 164.923 1.69425 0.955263 0
M  V30 1771 C 165.206 2.67229 -2.41373 0
M  V30 1772 C 165.059 2.24741 -3.8963 0
M  V30 1773 C 166.378 3.69423 -2.39196 0
M  V30 1774 H 163.497 0.529303 -0.512842 0
M  V30 1775 H 166.139 0.794112 -1.72609 0
M  V30 1776 H 164.289 3.23982 -2.14401 0
M  V30 1777 H 165.961 1.73327 -4.27499 0
M  V30 1778 H 164.204 1.56542 -4.0457 0
M  V30 1779 H 164.875 3.1177 -4.55525 0
M  V30 1780 H 167.351 3.2234 -2.63128 0
M  V30 1781 H 166.227 4.51907 -3.11563 0
M  V30 1782 H 166.488 4.19012 -1.41001 0
M  V30 1783 N 165.547 1.27147 0.931209 0
M  V30 1784 C 166.51 1.09615 2.01289 0
M  V30 1785 C 167.51 0.0412581 1.60747 0
M  V30 1786 O 168.7 0.285545 1.71844 0
M  V30 1787 C 165.832 0.669447 3.34262 0
M  V30 1788 H 167.025 2.05662 2.18273 0
M  V30 1789 H 164.578 1.09885 1.11153 0
M  V30 1790 H 165.313 -0.292572 3.22978 0
M  V30 1791 H 165.098 1.43127 3.65044 0
M  V30 1792 H 166.588 0.568921 4.13706 0
M  V30 1793 N 167.025 -1.13721 1.09112 0
M  V30 1794 C 168.302 -1.81155 0.737706 0
M  V30 1795 C 168.682 -1.96253 -0.777683 0
M  V30 1796 O 168.03 -1.52807 -1.69889 0
M  V30 1797 C 168.24 -3.16392 1.47299 0
M  V30 1798 C 169.588 -3.91787 1.63671 0
M  V30 1799 O 170.612 -3.26005 1.43524 0
M  V30 1800 O 169.471 -5.0977 1.96969 0
M  V30 1801 H 166.565 -0.783518 0.26463 0
M  V30 1802 H 169.111 -1.20676 1.19312 0
M  V30 1803 H 167.883 -3.0061 2.50498 0
M  V30 1804 H 167.506 -3.8457 1.00953 0
M  V30 1805 N 168.503 -0.877838 -1.30888 0
M  V30 1806 C 169.435 -0.296607 -2.27273 0
M  V30 1807 C 170.448 0.544799 -1.53414 0
M  V30 1808 O 171.637 0.365511 -1.74718 0
M  V30 1809 C 168.737 0.597481 -3.33592 0
M  V30 1810 C 167.91 -0.213251 -4.3688 0
M  V30 1811 C 166.969 0.610208 -5.2265 0
M  V30 1812 O 165.995 0.035441 -5.69189 0
M  V30 1813 N 167.197 1.92071 -5.47804 0
M  V30 1814 H 169.962 -1.12492 -2.77787 0
M  V30 1815 H 167.523 -0.740105 -1.43993 0
M  V30 1816 H 169.515 1.15425 -3.87891 0
M  V30 1817 H 168.085 1.32647 -2.83061 0
M  V30 1818 H 167.305 -0.951466 -3.82545 0
M  V30 1819 H 168.593 -0.769262 -5.02951 0
M  V30 1820 H 167.991 2.4107 -5.11763 0
M  V30 1821 H 166.548 2.42508 -6.05007 0
M  V30 1822 N 169.982 1.44106 -0.638065 0
M  V30 1823 C 170.912 2.33448 0.0494287 0
M  V30 1824 C 171.893 1.48606 0.827672 0
M  V30 1825 O 173.078 1.77308 0.792173 0
M  V30 1826 C 170.208 3.31771 1.02691 0
M  V30 1827 C 169.162 4.26485 0.359823 0
M  V30 1828 C 168.488 5.14729 1.44769 0
M  V30 1829 C 169.788 5.17056 -0.738296 0
M  V30 1830 H 171.482 2.91183 -0.696636 0
M  V30 1831 H 169.028 1.40014 -0.336456 0
M  V30 1832 H 170.981 3.93161 1.51666 0
M  V30 1833 H 169.705 2.7226 1.80395 0
M  V30 1834 H 168.364 3.66437 -0.10934 0
M  V30 1835 H 168.012 4.51566 2.21578 0
M  V30 1836 H 167.712 5.78913 1.00668 0
M  V30 1837 H 169.236 5.78991 1.93911 0
M  V30 1838 H 170.65 5.72342 -0.331354 0
M  V30 1839 H 169.047 5.89879 -1.10286 0
M  V30 1840 H 170.117 4.57652 -1.60258 0
M  V30 1841 N 171.46 0.379036 1.52974 0
M  V30 1842 C 172.706 -0.199244 2.02422 0
M  V30 1843 C 173.061 -1.4532 1.26095 0
M  V30 1844 O 172.354 -1.88377 0.34996 0
M  V30 1845 C 172.548 -0.53096 3.53434 0
M  V30 1846 C 172.377 0.689298 4.44386 0
M  V30 1847 C 171.147 1.20546 4.9071 0
M  V30 1848 C 173.345 1.55856 4.90116 0
M  V30 1849 N 171.327 2.38434 5.65705 0
M  V30 1850 C 172.698 2.58396 5.63588 0
M  V30 1851 C 174.753 1.57986 4.7217 0
M  V30 1852 C 173.456 3.62939 6.21022 0
M  V30 1853 C 175.482 2.6143 5.30479 0
M  V30 1854 C 174.844 3.62693 6.03849 0
M  V30 1855 H 170.943 -0.0352671 0.781204 0
M  V30 1856 H 173.527 0.526614 1.87443 0
M  V30 1857 H 171.698 -1.22588 3.68547 0
M  V30 1858 H 173.43 -1.0955 3.89591 0
M  V30 1859 H 170.185 0.768022 4.67331 0
M  V30 1860 H 170.609 2.98055 6.07859 0
M  V30 1861 H 175.251 0.810475 4.14959 0
M  V30 1862 H 172.969 4.40751 6.77321 0
M  V30 1863 H 176.555 2.63949 5.18481 0
M  V30 1864 H 175.435 4.41424 6.48163 0
M  V30 1865 N 172.938 -1.57226 0.108567 0
M  V30 1866 C 174.184 -1.95121 -0.552761 0
M  V30 1867 C 174.517 -0.991345 -1.66991 0
M  V30 1868 O 173.792 -0.0267211 -1.94482 0
M  V30 1869 C 174.075 -3.43039 -1.09528 0
M  V30 1870 C 173.928 -4.49797 0.0177332 0
M  V30 1871 C 175.247 -3.92567 -1.98945 0
M  V30 1872 H 172.366 -0.709496 -0.199461 0
M  V30 1873 H 175.008 -1.89126 0.182011 0
M  V30 1874 H 173.158 -3.48279 -1.72146 0
M  V30 1875 H 174.83 -4.56661 0.652584 0
M  V30 1876 H 173.073 -4.284 0.682309 0
M  V30 1877 H 173.744 -5.50528 -0.402919 0
M  V30 1878 H 176.22 -3.89565 -1.46214 0
M  V30 1879 H 175.096 -4.96605 -2.33827 0
M  V30 1880 H 175.357 -3.32648 -2.91201 0
M  V30 1881 N 174.416 0.165178 -1.56732 0
M  V30 1882 C 175.827 0.727046 -1.71962 0
M  V30 1883 C 176.178 1.82508 -0.720078 0
M  V30 1884 O 175.303 2.16082 0.117242 0
M  V30 1885 C 175.898 1.32559 -3.11791 0
M  V30 1886 C 174.457 1.83422 -3.28684 0
M  V30 1887 C 173.604 0.715567 -2.67908 0
M  V30 1888 H 176.555 -0.0602896 -1.58585 0
M  V30 1889 H 176.576 2.19533 -3.10782 0
M  V30 1890 H 176.088 0.526195 -3.84516 0
M  V30 1891 H 174.189 2.65986 -2.60926 0
M  V30 1892 H 174.302 1.97543 -4.36478 0
M  V30 1893 H 172.666 1.13758 -2.27884 0
M  V30 1894 H 173.449 -0.0720836 -3.43224 0
M  V30 1895 N 175.894 1.51508 0.433938 0
M  V30 1896 C 177.171 1.54888 1.19453 0
M  V30 1897 C 177.551 0.315154 2.08734 0
M  V30 1898 O 176.899 -0.699558 2.17528 0
M  V30 1899 C 177.109 2.86467 1.99342 0
M  V30 1900 C 178.457 3.38545 2.56267 0
M  V30 1901 O 179.481 2.88041 2.0955 0
M  V30 1902 O 178.34 4.26675 3.41483 0
M  V30 1903 H 175.434 0.622863 0.544032 0
M  V30 1904 H 177.98 1.63823 0.442732 0
M  V30 1905 H 176.752 3.67718 1.33788 0
M  V30 1906 H 176.375 2.8071 2.8158 0
M  V30 1907 N 177.372 -0.689602 1.41712 0
M  V30 1908 C 178.6 -1.47827 1.44758 0
M  V30 1909 C 179.015 -1.88721 0.0545703 0
M  V30 1910 O 178.372 -1.57176 -0.927463 0
M  V30 1911 C 178.423 -2.73698 2.3616 0
M  V30 1912 O 178.144 -2.34524 3.7004 0
M  V30 1913 C 179.645 -3.67389 2.48072 0
M  V30 1914 H 176.865 -0.455357 0.49284 0
M  V30 1915 H 179.409 -0.848574 1.86063 0
M  V30 1916 H 177.564 -3.32891 1.98148 0
M  V30 1917 H 177.978 -3.15701 4.18847 0
M  V30 1918 H 179.452 -4.52475 3.16181 0
M  V30 1919 H 179.929 -4.12284 1.51388 0
M  V30 1920 H 180.535 -3.14097 2.86746 0
M  V30 1921 N 178.85 -1.27639 -0.924453 0
M  V30 1922 C 180.08 -1.16819 -1.70402 0
M  V30 1923 C 180.488 0.277191 -1.87158 0
M  V30 1924 O 179.831 1.20025 -1.39067 0
M  V30 1925 C 179.893 -1.78305 -3.12166 0
M  V30 1926 C 179.557 -3.27502 -3.18734 0
M  V30 1927 C 180.554 -4.2409 -3.00738 0
M  V30 1928 C 178.239 -3.68269 -3.4159 0
M  V30 1929 C 180.233 -5.59422 -3.05492 0
M  V30 1930 C 177.92 -5.0373 -3.45977 0
M  V30 1931 C 178.918 -5.99116 -3.27946 0
M  V30 1932 O 178.606 -7.32108 -3.32074 0
M  V30 1933 H 178.338 -0.406931 -0.539799 0
M  V30 1934 H 180.892 -1.69078 -1.16626 0
M  V30 1935 H 179.122 -1.20528 -3.67437 0
M  V30 1936 H 180.811 -1.62154 -3.72103 0
M  V30 1937 H 181.577 -3.93931 -2.82919 0
M  V30 1938 H 177.456 -2.94496 -3.54673 0
M  V30 1939 H 181 -6.33852 -2.91337 0
M  V30 1940 H 176.897 -5.33543 -3.63321 0
M  V30 1941 H 177.665 -7.40598 -3.48507 0
M  V30 1942 N 180.328 1.1314 -1.09713 0
M  V30 1943 C 181.575 1.84484 -0.834987 0
M  V30 1944 C 181.903 1.83689 0.639418 0
M  V30 1945 O 181.158 1.2724 1.4869 0
M  V30 1946 C 181.457 3.32167 -1.3191 0
M  V30 1947 C 181.123 3.53139 -2.80363 0
M  V30 1948 C 179.785 3.58571 -3.20905 0
M  V30 1949 C 182.137 3.60866 -3.76065 0
M  V30 1950 C 179.465 3.69267 -4.55916 0
M  V30 1951 C 181.817 3.73089 -5.10869 0
M  V30 1952 C 180.481 3.76775 -5.50996 0
M  V30 1953 H 179.751 0.675073 -0.305544 0
M  V30 1954 H 182.398 1.33554 -1.37243 0
M  V30 1955 H 180.703 3.85469 -0.701517 0
M  V30 1956 H 182.4 3.85821 -1.09284 0
M  V30 1957 H 178.99 3.49569 -2.47991 0
M  V30 1958 H 183.174 3.55946 -3.45855 0
M  V30 1959 H 178.43 3.70388 -4.86438 0
M  V30 1960 H 182.604 3.78011 -5.84877 0
M  V30 1961 H 180.231 3.84815 -6.55608 0
M  V30 1962 N 181.806 0.884767 1.30421 0
M  V30 1963 C 182.736 0.367574 2.30589 0
M  V30 1964 C 183.717 -0.549464 1.60981 0
M  V30 1965 O 184.902 -0.46336 1.88591 0
M  V30 1966 C 182.032 -0.418944 3.44764 0
M  V30 1967 C 180.986 0.406316 4.26067 0
M  V30 1968 C 180.312 -0.506793 5.32293 0
M  V30 1969 C 181.612 1.64832 4.95608 0
M  V30 1970 H 183.306 1.20462 2.74097 0
M  V30 1971 H 180.852 0.580695 1.31772 0
M  V30 1972 H 182.805 -0.791395 4.13902 0
M  V30 1973 H 181.529 -1.28964 3.0006 0
M  V30 1974 H 180.188 0.760903 3.58617 0
M  V30 1975 H 179.836 -1.37519 4.83836 0
M  V30 1976 H 179.536 0.0415828 5.87585 0
M  V30 1977 H 181.06 -0.875764 6.04287 0
M  V30 1978 H 182.474 1.34646 5.57264 0
M  V30 1979 H 180.871 2.13688 5.60765 0
M  V30 1980 H 181.941 2.39284 4.21748 0
M  V30 1981 N 183.284 -1.43765 0.645699 0
M  V30 1982 C 184.232 -2.32516 -0.0624849 0
M  V30 1983 C 185.226 -1.48183 -0.820855 0
M  V30 1984 O 186.432 -1.64439 -0.732106 0
M  V30 1985 H 182.807 -0.750989 -0.0389864 0
M  V30 1986 H 184.778 -2.89979 0.703892 0
M  V30 1987 C 183.527 -3.32389 -1.02044 0
M  V30 1988 H 182.85 -3.97301 -0.446312 0
M  V30 1989 H 184.29 -3.97138 -1.48517 0
M  V30 1990 C 182.749 -2.62416 -2.11281 0
M  V30 1991 O 183.279 -2.434 -3.19561 0
M  V30 1992 N 181.485 -2.21913 -1.87624 0
M  V30 1993 H 181.032 -2.37578 -0.995703 0
M  V30 1994 H 180.99 -1.75424 -2.6091 0
M  V30 1995 N 184.763 -0.387143 -1.52771 0
M  V30 1996 C 186.04 0.253197 -1.93954 0
M  V30 1997 C 186.42 1.64545 -1.32243 0
M  V30 1998 O 185.768 2.23191 -0.489699 0
M  V30 1999 C 185.978 0.281722 -3.47861 0
M  V30 2000 C 187.326 0.511715 -4.21505 0
M  V30 2001 O 188.35 0.362023 -3.54356 0
M  V30 2002 O 187.209 0.804847 -5.40541 0
M  V30 2003 H 184.303 0.156845 -0.811991 0
M  V30 2004 H 186.849 -0.441494 -1.63856 0
M  V30 2005 H 185.621 -0.693571 -3.85104 0
M  V30 2006 H 185.244 1.02142 -3.84256 0
M  V30 2007 N 186.241 1.57166 -0.116904 0
M  V30 2008 C 187.188 2.15202 0.83408 0
M  V30 2009 C 188.158 1.07644 1.26499 0
M  V30 2010 O 189.343 1.35541 1.34288 0
M  V30 2011 C 186.483 2.75405 2.07957 0
M  V30 2012 C 185.596 3.97264 1.69721 0
M  V30 2013 C 184.731 4.45561 2.89221 0
M  V30 2014 C 183.77 5.59956 2.47215 0
M  V30 2015 N 182.907 6.03006 3.59622 0
M  V30 2016 H 187.747 2.96141 0.332335 0
M  V30 2017 H 185.284 1.46309 0.152349 0
M  V30 2018 H 187.242 3.08439 2.80929 0
M  V30 2019 H 185.872 1.97159 2.55594 0
M  V30 2020 H 184.924 3.70404 0.866316 0
M  V30 2021 H 186.236 4.80226 1.34849 0
M  V30 2022 H 185.39 4.80493 3.7042 0
M  V30 2023 H 184.129 3.61544 3.27318 0
M  V30 2024 H 183.134 5.2463 1.64448 0
M  V30 2025 H 184.359 6.45738 2.10238 0
M  V30 2026 H 182.305 5.21931 3.97396 0
M  V30 2027 H 182.222 6.80819 3.28667 0
M  V30 2028 H 183.49 6.42576 4.41267 0
M  V30 2029 N 187.719 -0.156864 1.56817 0
M  V30 2030 C 188.666 -1.19394 1.97519 0
M  V30 2031 C 189.636 -1.4322 0.841265 0
M  V30 2032 O 190.821 -1.55719 1.10255 0
M  V30 2033 C 187.961 -2.52483 2.35258 0
M  V30 2034 C 187.074 -2.35914 3.61896 0
M  V30 2035 C 186.209 -3.61969 3.88782 0
M  V30 2036 C 185.248 -3.40395 5.08722 0
M  V30 2037 N 184.385 -4.58556 5.31668 0
M  V30 2038 H 189.225 -0.839845 2.85921 0
M  V30 2039 H 186.762 -0.403264 1.41464 0
M  V30 2040 H 188.72 -3.30071 2.55165 0
M  V30 2041 H 187.35 -2.85859 1.49949 0
M  V30 2042 H 186.402 -1.49429 3.49821 0
M  V30 2043 H 187.714 -2.15926 4.49641 0
M  V30 2044 H 186.868 -4.47989 4.09135 0
M  V30 2045 H 185.607 -3.84951 2.9944 0
M  V30 2046 H 184.612 -2.52763 4.88253 0
M  V30 2047 H 185.837 -3.18822 5.99608 0
M  V30 2048 H 183.783 -4.81729 4.45279 0
M  V30 2049 H 183.7 -4.41535 6.13664 0
M  V30 2050 H 184.968 -5.45817 5.5651 0
M  V30 2051 N 189.197 -1.51736 -0.425897 0
M  V30 2052 C 190.422 -1.69082 -1.20108 0
M  V30 2053 C 190.847 -0.392398 -1.83962 0
M  V30 2054 O 190.205 0.64858 -1.69302 0
M  V30 2055 C 190.253 -2.81604 -2.25237 0
M  V30 2056 O 189.357 -2.46004 -3.30992 0
M  V30 2057 H 188.698 -0.563408 -0.35138 0
M  V30 2058 H 191.228 -1.98358 -0.501512 0
M  V30 2059 H 191.238 -3.06025 -2.69838 0
M  V30 2060 H 189.913 -3.75817 -1.78142 0
M  V30 2061 H 188.49 -2.32195 -2.91787 0
M  V30 2062 N 190.675 0.682077 -1.42076 0
M  V30 2063 C 191.922 1.44215 -1.42156 0
M  V30 2064 C 192.25 1.94468 -0.0354186 0
M  V30 2065 O 191.505 1.70816 0.955002 0
M  V30 2066 C 191.804 2.66036 -2.38662 0
M  V30 2067 C 191.47 2.34366 -3.85206 0
M  V30 2068 C 190.132 2.25439 -4.25124 0
M  V30 2069 C 192.484 2.08513 -4.77673 0
M  V30 2070 C 189.812 1.88775 -5.55501 0
M  V30 2071 C 192.164 1.73354 -6.08384 0
M  V30 2072 C 190.828 1.62933 -6.47309 0
M  V30 2073 H 190.098 0.527718 -0.520187 0
M  V30 2074 H 192.745 0.778387 -1.74967 0
M  V30 2075 H 191.05 3.3741 -1.99152 0
M  V30 2076 H 192.747 3.24205 -2.35991 0
M  V30 2077 H 189.337 2.42213 -3.53597 0
M  V30 2078 H 193.521 2.14346 -4.47626 0
M  V30 2079 H 188.777 1.7927 -5.84527 0
M  V30 2080 H 192.951 1.52373 -6.79526 0
M  V30 2081 H 190.578 1.34292 -7.48244 0
M  V30 2082 N 192.153 1.28127 0.917671 0
M  V30 2083 C 193.399 1.15223 1.66888 0
M  V30 2084 C 193.732 -0.299293 1.9188 0
M  V30 2085 O 193.007 -1.21805 1.51637 0
M  V30 2086 C 193.29 1.94706 3.02922 0
M  V30 2087 C 193.143 3.47898 2.85109 0
M  V30 2088 C 194.462 1.75939 4.03402 0
M  V30 2089 H 191.581 0.419946 0.605652 0
M  V30 2090 H 194.223 1.57398 1.06423 0
M  V30 2091 H 192.373 1.58864 3.54534 0
M  V30 2092 H 194.045 3.93624 2.40537 0
M  V30 2093 H 192.288 3.7373 2.20246 0
M  V30 2094 H 192.959 3.98765 3.81694 0
M  V30 2095 H 195.435 2.07209 3.60837 0
M  V30 2096 H 194.311 2.33931 4.96556 0
M  V30 2097 H 194.572 0.709877 4.36364 0
M  V30 2098 N 193.631 -1.12557 1.10312 0
M  V30 2099 C 194.581 -2.16331 0.720076 0
M  V30 2100 C 195.565 -1.58616 -0.270115 0
M  V30 2101 O 196.757 -1.76823 -0.0790507 0
M  V30 2102 C 193.886 -3.42963 0.152113 0
M  V30 2103 C 192.972 -4.07663 1.16927 0
M  V30 2104 N 193.363 -4.47392 2.35953 0
M  V30 2105 C 191.661 -4.34425 1.0095 0
M  V30 2106 C 192.362 -4.97932 3.0073 0
M  V30 2107 N 191.338 -4.93358 2.28252 0
M  V30 2108 H 195.14 -2.44813 1.62616 0
M  V30 2109 H 192.654 -1.29449 0.980654 0
M  V30 2110 H 194.651 -4.16664 -0.14037 0
M  V30 2111 H 193.311 -3.1595 -0.748701 0
M  V30 2112 H 194.322 -4.39802 2.73486 0
M  V30 2113 H 190.999 -4.17177 0.164134 0
M  V30 2114 H 192.389 -5.38397 4.01969 0
M  V30 2115 N 195.109 -0.891671 -1.2995 0
M  V30 2116 C 196.357 -0.512486 -1.95494 0
M  V30 2117 C 196.678 0.942776 -1.70695 0
M  V30 2118 O 195.948 1.66374 -1.03424 0
M  V30 2119 H 194.528 -0.186533 -0.723336 0
M  V30 2120 H 197.19 -1.13621 -1.58355 0
M  V30 2121 H 196.286 -0.688342 -3.04415 0
M  V30 2122 N 196.587 1.43421 -0.653314 0
M  V30 2123 C 197.833 2.02111 -0.166992 0
M  V30 2124 C 198.166 1.51423 1.21592 0
M  V30 2125 O 197.441 0.707389 1.8118 0
M  V30 2126 C 197.724 3.5966 -0.177948 0
M  V30 2127 C 197.577 4.20579 -1.59478 0
M  V30 2128 C 198.896 4.37413 0.4856 0
M  V30 2129 H 196.015 0.734374 -0.0621557 0
M  V30 2130 H 198.657 1.70717 -0.834016 0
M  V30 2131 H 196.807 3.86537 0.390032 0
M  V30 2132 H 198.479 4.04732 -2.21336 0
M  V30 2133 H 196.722 3.77226 -2.14204 0
M  V30 2134 H 197.393 5.29665 -1.5543 0
M  V30 2135 H 199.869 4.161 0.00234528 0
M  V30 2136 H 198.745 5.47075 0.447207 0
M  V30 2137 H 199.006 4.13672 1.55974 0
M  V30 2138 N 198.065 0.39524 1.52563 0
M  V30 2139 C 199.293 -0.184943 2.06072 0
M  V30 2140 C 199.708 -1.40021 1.26647 0
M  V30 2141 O 199.065 -1.79767 0.314672 0
M  V30 2142 C 199.116 -0.549179 3.57304 0
M  V30 2143 O 198.837 0.617813 4.33722 0
M  V30 2144 C 200.338 -1.18459 4.2718 0
M  V30 2145 H 197.558 -0.0265025 0.670476 0
M  V30 2146 H 200.102 0.562184 1.96621 0
M  V30 2147 H 198.257 -1.2462 3.66809 0
M  V30 2148 H 198.671 0.317091 5.23541 0
M  V30 2149 H 200.145 -1.38976 5.34219 0
M  V30 2150 H 200.622 -2.15368 3.82771 0
M  V30 2151 H 201.228 -0.528163 4.22008 0
M  V30 2152 N 199.544 -1.57102 0.125237 0
M  V30 2153 C 200.79 -1.95697 -0.532035 0
M  V30 2154 C 201.123 -1.009 -1.6593 0
M  V30 2155 O 200.398 -0.047347 -1.94442 0
M  V30 2156 C 200.681 -3.44181 -1.05884 0
M  V30 2157 C 200.534 -4.49752 0.0654392 0
M  V30 2158 C 201.853 -3.94655 -1.9477 0
M  V30 2159 H 198.972 -0.711571 -0.191925 0
M  V30 2160 H 201.614 -1.88923 0.20206 0
M  V30 2161 H 199.764 -3.50085 -1.68442 0
M  V30 2162 H 201.436 -4.55943 0.700982 0
M  V30 2163 H 199.679 -4.27653 0.727709 0
M  V30 2164 H 200.35 -5.50924 -0.344505 0
M  V30 2165 H 202.826 -3.91094 -1.42074 0
M  V30 2166 H 201.702 -4.99057 -2.28546 0
M  V30 2167 H 201.963 -3.35718 -2.87656 0
M  V30 2168 N 201.022 0.148545 -1.56898 0
M  V30 2169 C 201.969 1.18345 -1.98149 0
M  V30 2170 C 202.939 1.42772 -0.848848 0
M  V30 2171 O 204.124 1.55132 -1.11079 0
M  V30 2172 C 201.264 2.51231 -2.36594 0
M  V30 2173 C 200.377 2.33991 -3.63142 0
M  V30 2174 C 199.512 3.59902 -3.90697 0
M  V30 2175 C 198.551 3.37692 -5.1052 0
M  V30 2176 N 197.688 4.5573 -5.34092 0
M  V30 2177 H 202.528 0.82467 -2.86362 0
M  V30 2178 H 200.065 0.395756 -1.41676 0
M  V30 2179 H 202.023 3.28713 -2.56912 0
M  V30 2180 H 200.653 2.85059 -1.51463 0
M  V30 2181 H 199.705 1.47572 -3.50609 0
M  V30 2182 H 201.017 2.13539 -4.5078 0
M  V30 2183 H 200.171 4.45813 -4.11505 0
M  V30 2184 H 198.91 3.83357 -3.01477 0
M  V30 2185 H 197.915 2.5017 -4.89587 0
M  V30 2186 H 199.14 3.15637 -6.0129 0
M  V30 2187 H 197.086 4.79361 -4.47827 0
M  V30 2188 H 197.003 4.38274 -6.15996 0
M  V30 2189 H 198.271 5.42858 -5.59397 0
M  V30 2190 N 202.5 1.5196 0.417844 0
M  V30 2191 C 203.448 1.75278 1.52907 0
M  V30 2192 C 204.442 0.619611 1.57662 0
M  V30 2193 O 205.648 0.801457 1.61173 0
M  V30 2194 H 202.023 0.554141 0.508362 0
M  V30 2195 H 203.994 2.68389 1.30422 0
M  V30 2196 C 202.743 1.91262 2.90369 0
M  V30 2197 H 202.066 2.77872 2.8745 0
M  V30 2198 H 203.506 2.11581 3.67436 0
M  V30 2199 C 201.965 0.677431 3.30019 0
M  V30 2200 O 202.495 -0.158799 4.01386 0
M  V30 2201 N 200.701 0.515851 2.85985 0
M  V30 2202 H 200.248 1.19744 2.28077 0
M  V30 2203 H 200.206 -0.309315 3.12875 0
M  V30 2204 N 203.978 -0.674533 1.42435 0
M  V30 2205 C 205.394 -0.98769 1.25367 0
M  V30 2206 C 205.594 -2.00879 0.158044 0
M  V30 2207 O 204.65 -2.48075 -0.470633 0
M  V30 2208 C 205.963 -1.49224 2.6106 0
M  V30 2209 C 207.511 -1.61 2.68417 0
M  V30 2210 C 207.986 -2.14852 4.04478 0
M  V30 2211 N 209.477 -2.22185 4.06434 0
M  V30 2212 C 210.212 -2.64928 5.08528 0
M  V30 2213 N 209.708 -3.07121 6.21006 0
M  V30 2214 N 211.501 -2.64679 4.95885 0
M  V30 2215 H 203.652 0.00152503 2.124 0
M  V30 2216 H 205.915 -0.0618434 0.945981 0
M  V30 2217 H 205.621 -0.816453 3.42092 0
M  V30 2218 H 205.495 -2.47094 2.84999 0
M  V30 2219 H 207.882 -2.27686 1.87732 0
M  V30 2220 H 207.963 -0.616195 2.48267 0
M  V30 2221 H 207.607 -1.48775 4.85622 0
M  V30 2222 H 207.537 -3.15024 4.2198 0
M  V30 2223 H 210.028 -1.92435 3.25234 0
M  V30 2224 H 210.341 -3.38423 6.94759 0
M  V30 2225 H 208.686 -3.04978 6.24511 0
M  V30 2226 H 211.877 -2.31078 4.07088 0
M  V30 2227 H 212.05 -2.9767 5.75584 0
M  V30 2228 N 205.456 -1.28612 -0.910864 0
M  V30 2229 C 206.389 -1.07109 -2.01502 0
M  V30 2230 C 207.367 0.013706 -1.62594 0
M  V30 2231 O 208.551 -0.134796 -1.88017 0
M  V30 2232 C 205.678 -0.628255 -3.32822 0
M  V30 2233 C 204.724 -1.71012 -3.90714 0
M  V30 2234 S 205.557 -3.30676 -4.21205 0
M  V30 2235 C 206.713 -2.88234 -5.55583 0
M  V30 2236 H 206.946 -2.00591 -2.19432 0
M  V30 2237 H 204.479 -1.12633 -1.05609 0
M  V30 2238 H 206.437 -0.37946 -4.08742 0
M  V30 2239 H 205.098 0.28678 -3.12788 0
M  V30 2240 H 204.291 -1.35195 -4.85529 0
M  V30 2241 H 203.893 -1.91186 -3.21441 0
M  V30 2242 H 206.185 -2.34584 -6.35591 0
M  V30 2243 H 207.128 -3.81857 -5.96314 0
M  V30 2244 H 207.536 -2.26862 -5.16908 0
M  V30 2245 N 206.934 1.1197 -1.10907 0
M  V30 2246 C 208.183 1.82947 -0.849302 0
M  V30 2247 C 208.496 1.85275 0.627112 0
M  V30 2248 O 209.702 2.52296 1.00295 0
M  V30 2249 C 208.158 3.28529 -1.46959 0
M  V30 2250 C 207.766 3.34546 -2.97965 0
M  V30 2251 C 209.51 4.04443 -1.28942 0
M  V30 2252 C 207.417 4.74491 -3.53004 0
M  V30 2253 H 206.347 0.685477 -0.314065 0
M  V30 2254 H 208.998 1.2604 -1.33365 0
M  V30 2255 H 207.38 3.85333 -0.912917 0
M  V30 2256 H 208.554 2.87654 -3.59989 0
M  V30 2257 H 206.869 2.72108 -3.15192 0
M  V30 2258 H 209.466 5.07787 -1.67502 0
M  V30 2259 H 209.809 4.15656 -0.231456 0
M  V30 2260 H 210.342 3.5401 -1.81443 0
M  V30 2261 H 207.081 4.68474 -4.58489 0
M  V30 2262 H 206.601 5.21816 -2.9575 0
M  V30 2263 H 208.28 5.4344 -3.51115 0
M  V30 2264 N 208.412 0.89855 1.29475 0
M  V30 2265 C 209.828 0.594483 1.48115 0
M  V30 2266 C 210.028 -0.86431 1.82022 0
M  V30 2267 O 209.084 -1.64457 1.91599 0
M  V30 2268 C 210.397 1.51932 2.59494 0
M  V30 2269 C 211.945 1.5244 2.7337 0
M  V30 2270 C 212.42 2.43548 3.87877 0
M  V30 2271 N 213.911 2.41589 3.95208 0
M  V30 2272 C 214.646 3.08789 4.83153 0
M  V30 2273 N 214.142 3.85265 5.75798 0
M  V30 2274 N 215.935 2.97952 4.76635 0
M  V30 2275 H 208.086 1.84207 1.05742 0
M  V30 2276 H 210.349 0.789251 0.525154 0
M  V30 2277 H 210.055 2.55865 2.41301 0
M  V30 2278 H 209.929 1.23899 3.56271 0
M  V30 2279 H 212.316 0.492518 2.90961 0
M  V30 2280 H 212.397 1.8451 1.77172 0
M  V30 2281 H 212.041 3.46829 3.71041 0
M  V30 2282 H 211.971 2.08788 4.83441 0
M  V30 2283 H 214.462 1.86025 3.28943 0
M  V30 2284 H 214.775 4.33598 6.39697 0
M  V30 2285 H 213.12 3.89371 5.75687 0
M  V30 2286 H 216.311 2.37723 4.03244 0
M  V30 2287 H 216.484 3.50599 5.44962 0
M  V30 2288 N 209.89 -1.43072 0.660911 0
M  V30 2289 C 210.82 -2.33497 -0.0122829 0
M  V30 2290 C 211.801 -1.49903 -0.803925 0
M  V30 2291 O 212.986 -1.78546 -0.763864 0
M  V30 2292 C 210.116 -3.33363 -0.973994 0
M  V30 2293 C 209.07 -4.27003 -0.291928 0
M  V30 2294 C 208.396 -5.16967 -1.36562 0
M  V30 2295 C 209.696 -5.15816 0.820462 0
M  V30 2296 H 211.39 -2.90038 0.742873 0
M  V30 2297 H 208.936 -1.39461 0.358688 0
M  V30 2298 H 210.889 -3.95524 -1.45392 0
M  V30 2299 H 209.613 -2.75095 -1.7604 0
M  V30 2300 H 208.272 -3.66217 0.167623 0
M  V30 2301 H 207.92 -4.55034 -2.14366 0
M  V30 2302 H 207.62 -5.80441 -0.914454 0
M  V30 2303 H 209.144 -5.82003 -1.84675 0
M  V30 2304 H 210.558 -5.71742 0.422366 0
M  V30 2305 H 208.955 -5.8805 1.19656 0
M  V30 2306 H 210.025 -4.55045 1.67518 0
M  V30 2307 N 211.368 -0.403325 -1.52352 0
M  V30 2308 C 212.318 0.442244 -2.2367 0
M  V30 2309 C 213.302 1.01823 -1.24583 0
M  V30 2310 O 214.494 0.942005 -1.49851 0
M  V30 2311 C 211.623 1.5615 -3.05732 0
M  V30 2312 C 210.709 0.996575 -4.12225 0
M  V30 2313 N 211.1 0.157804 -5.05554 0
M  V30 2314 C 209.398 1.26767 -4.27605 0
M  V30 2315 C 210.099 -0.155853 -5.81491 0
M  V30 2316 N 209.075 0.451775 -5.41719 0
M  V30 2317 H 212.877 -0.204964 -2.93184 0
M  V30 2318 H 210.391 -0.213418 -1.60992 0
M  V30 2319 H 212.388 2.17981 -3.55373 0
M  V30 2320 H 211.048 2.21139 -2.37755 0
M  V30 2321 H 212.059 -0.206049 -5.1749 0
M  V30 2322 H 208.736 1.91757 -3.70858 0
M  V30 2323 H 210.126 -0.836329 -6.66675 0
M  V30 2324 N 212.846 1.57033 -0.133567 0
M  V30 2325 C 214.257 1.82593 0.389464 0
M  V30 2326 C 214.608 1.05156 1.6564 0
M  V30 2327 O 213.733 0.292644 2.14412 0
M  V30 2328 C 214.328 3.31204 0.713377 0
M  V30 2329 C 212.887 3.57393 1.18098 0
M  V30 2330 C 212.034 2.76598 0.197126 0
M  V30 2331 H 214.985 1.54598 -0.358481 0
M  V30 2332 H 215.006 3.46627 1.56939 0
M  V30 2333 H 214.518 3.87537 -0.2089 0
M  V30 2334 H 212.619 3.06433 2.11966 0
M  V30 2335 H 212.732 4.65915 1.11624 0
M  V30 2336 H 211.096 2.45257 0.687088 0
M  V30 2337 H 211.879 3.35697 -0.718504 0
M  V30 2338 N 214.325 -0.140222 1.56975 0
M  V30 2339 C 215.602 -0.880769 1.74648 0
M  V30 2340 C 215.982 -1.99036 0.703404 0
M  V30 2341 O 215.33 -2.26821 -0.27648 0
M  V30 2342 C 215.54 -1.417 3.18939 0
M  V30 2343 C 216.888 -1.87774 3.80823 0
M  V30 2344 O 217.912 -1.51427 3.2241 0
M  V30 2345 O 216.771 -2.54827 4.83452 0
M  V30 2346 H 213.865 -0.416713 0.714338 0
M  V30 2347 H 216.411 -0.125618 1.69234 0
M  V30 2348 H 215.183 -0.619902 3.86359 0
M  V30 2349 H 214.806 -2.23546 3.28805 0
M  V30 2350 N 215.803 -1.52179 -0.40978 0
M  V30 2351 C 217.051 -1.65878 -1.15451 0
M  V30 2352 C 217.372 -0.390771 -1.91044 0
M  V30 2353 O 216.642 0.594323 -1.86667 0
M  V30 2354 H 215.222 -0.611405 -0.429177 0
M  V30 2355 H 217.884 -1.89219 -0.467134 0
M  V30 2356 H 216.98 -2.49954 -1.86894 0
M  V30 2357 N 217.281 0.66697 -1.42791 0
M  V30 2358 C 218.509 1.45505 -1.47091 0
M  V30 2359 C 218.924 1.8861 -0.0845873 0
M  V30 2360 O 218.281 1.58632 0.90234 0
M  V30 2361 C 218.332 2.69906 -2.40485 0
M  V30 2362 O 218.053 2.28608 -3.73725 0
M  V30 2363 C 219.554 3.63396 -2.53886 0
M  V30 2364 H 216.774 0.447459 -0.500022 0
M  V30 2365 H 219.318 0.818866 -1.8739 0
M  V30 2366 H 217.473 3.29696 -2.03419 0
M  V30 2367 H 217.887 3.08997 -4.23817 0
M  V30 2368 H 219.361 4.47387 -3.2334 0
M  V30 2369 H 219.838 4.09824 -1.57927 0
M  V30 2370 H 220.444 3.09495 -2.91706 0
M  V30 2371 N 218.759 1.29093 0.90403 0
M  V30 2372 C 220.005 1.16986 1.65656 0
M  V30 2373 C 220.338 -0.278925 1.92186 0
M  V30 2374 O 219.613 -1.2019 1.5292 0
M  V30 2375 C 219.896 1.97908 3.0084 0
M  V30 2376 C 219.749 3.50903 2.81403 0
M  V30 2377 C 221.068 1.80208 4.01513 0
M  V30 2378 H 218.187 0.426346 0.601164 0
M  V30 2379 H 220.829 1.58518 1.04747 0
M  V30 2380 H 218.979 1.62616 3.52829 0
M  V30 2381 H 220.651 3.96153 2.36348 0
M  V30 2382 H 218.894 3.76045 2.1627 0
M  V30 2383 H 219.565 4.02791 3.77443 0
M  V30 2384 H 222.041 2.11025 3.58619 0
M  V30 2385 H 220.917 2.39184 4.94047 0
M  V30 2386 H 221.178 0.756119 4.35586 0
M  V30 2387 N 220.237 -1.11381 1.11499 0
M  V30 2388 C 221.167 -2.19509 0.796125 0
M  V30 2389 C 222.148 -1.68458 -0.235796 0
M  V30 2390 O 223.333 -1.93947 -0.0991344 0
M  V30 2391 C 220.463 -3.46475 0.239205 0
M  V30 2392 C 219.417 -4.10744 1.20307 0
M  V30 2393 C 218.743 -5.32293 0.50683 0
M  V30 2394 C 220.043 -4.55597 2.55399 0
M  V30 2395 H 221.737 -2.46439 1.70024 0
M  V30 2396 H 219.283 -1.18446 0.818935 0
M  V30 2397 H 221.236 -4.214 0.00392006 0
M  V30 2398 H 219.96 -3.19006 -0.700206 0
M  V30 2399 H 218.619 -3.37813 1.42399 0
M  V30 2400 H 218.267 -5.01095 -0.437408 0
M  V30 2401 H 217.967 -5.76243 1.1497 0
M  V30 2402 H 219.491 -6.09956 0.280351 0
M  V30 2403 H 220.905 -5.21841 2.37391 0
M  V30 2404 H 219.302 -5.10363 3.15673 0
M  V30 2405 H 220.372 -3.69013 3.14575 0
M  V30 2406 N 221.715 -0.905404 -1.28997 0
M  V30 2407 C 222.945 -0.549049 -1.99171 0
M  V30 2408 C 223.353 0.87203 -1.67906 0
M  V30 2409 O 222.696 1.58796 -0.923561 0
M  V30 2410 C 222.758 -0.668306 -3.53234 0
M  V30 2411 C 222.422 -2.0574 -4.08069 0
M  V30 2412 C 223.419 -3.0292 -4.22534 0
M  V30 2413 C 221.104 -2.36833 -4.42962 0
M  V30 2414 C 223.098 -4.29314 -4.71135 0
M  V30 2415 C 220.785 -3.63467 -4.91258 0
M  V30 2416 C 221.783 -4.59522 -5.053 0
M  V30 2417 O 221.471 -5.83907 -5.52546 0
M  V30 2418 H 221.203 -0.208784 -0.64295 0
M  V30 2419 H 223.757 -1.21836 -1.65363 0
M  V30 2420 H 221.987 0.0580547 -3.86656 0
M  V30 2421 H 223.676 -0.320273 -4.04634 0
M  V30 2422 H 224.442 -2.80216 -3.95859 0
M  V30 2423 H 220.321 -1.62824 -4.31288 0
M  V30 2424 H 223.865 -5.04293 -4.8201 0
M  V30 2425 H 219.762 -3.86 -5.17372 0
M  V30 2426 H 220.53 -5.86578 -5.70849 0
M  V30 2427 N 223.193 1.4272 -0.668489 0
M  V30 2428 C 224.441 2.01226 -0.187769 0
M  V30 2429 C 224.762 1.53092 1.2078 0
M  V30 2430 O 224.032 0.74993 1.80977 0
M  V30 2431 H 222.612 0.744041 -0.0664272 0
M  V30 2432 H 225.274 1.74723 -0.863583 0
M  V30 2433 H 224.37 3.11556 -0.184166 0
M  V30 2434 N 224.671 0.411399 1.52136 0
M  V30 2435 C 225.601 -0.404015 2.29978 0
M  V30 2436 C 226.582 -1.04412 1.34284 0
M  V30 2437 O 227.767 -1.0527 1.63192 0
M  V30 2438 C 224.897 -1.5197 3.12286 0
M  V30 2439 C 223.851 -1.00448 4.16046 0
M  V30 2440 C 223.177 -2.21393 4.86712 0
M  V30 2441 C 224.477 -0.0569336 5.22269 0
M  V30 2442 H 226.171 0.245529 2.98392 0
M  V30 2443 H 223.717 0.119525 1.43503 0
M  V30 2444 H 225.67 -2.09715 3.6551 0
M  V30 2445 H 224.394 -2.19716 2.41646 0
M  V30 2446 H 223.053 -0.449421 3.63835 0
M  V30 2447 H 222.701 -2.87699 4.12599 0
M  V30 2448 H 222.401 -1.87571 5.56858 0
M  V30 2449 H 223.925 -2.7974 5.4275 0
M  V30 2450 H 225.339 -0.54325 5.7072 0
M  V30 2451 H 223.736 0.192594 5.99791 0
M  V30 2452 H 224.806 0.887663 4.76706 0
M  V30 2453 N 226.149 -1.5696 0.141893 0
M  V30 2454 C 227.565 -1.58151 -0.21456 0
M  V30 2455 C 227.765 -1.1559 -1.65049 0
M  V30 2456 O 226.821 -0.853832 -2.37626 0
M  V30 2457 C 228.134 -3.00674 0.0395576 0
M  V30 2458 C 229.682 -3.1299 -0.0245529 0
M  V30 2459 C 230.157 -4.57554 0.202167 0
M  V30 2460 N 231.648 -4.62961 0.148919 0
M  V30 2461 C 232.383 -5.7262 0.298924 0
M  V30 2462 N 231.879 -6.90947 0.50637 0
M  V30 2463 N 233.672 -5.61601 0.236886 0
M  V30 2464 H 225.823 -1.8292 1.07953 0
M  V30 2465 H 228.086 -0.846425 0.42693 0
M  V30 2466 H 227.792 -3.36183 1.03315 0
M  V30 2467 H 227.666 -3.70981 -0.682143 0
M  V30 2468 H 230.053 -2.77326 -1.00869 0
M  V30 2469 H 230.134 -2.4518 0.729396 0
M  V30 2470 H 229.778 -4.93922 1.18338 0
M  V30 2471 H 229.708 -5.23484 -0.572044 0
M  V30 2472 H 232.199 -3.77899 -0.00697015 0
M  V30 2473 H 232.512 -7.7038 0.611076 0
M  V30 2474 H 230.857 -6.92878 0.542628 0
M  V30 2475 H 234.048 -4.68039 0.0756209 0
M  V30 2476 H 234.221 -6.47015 0.357227 0
M  V30 2477 N 227.627 0.131896 -1.57047 0
M  V30 2478 C 228.876 0.84044 -1.83356 0
M  V30 2479 C 229.189 1.81646 -0.725535 0
M  V30 2480 O 230.395 2.57025 -0.874659 0
M  V30 2481 C 228.851 1.54528 -3.25037 0
M  V30 2482 C 228.459 0.610902 -4.43815 0
M  V30 2483 C 230.203 2.23972 -3.60606 0
M  V30 2484 C 228.11 1.31823 -5.76521 0
M  V30 2485 H 227.04 0.317599 -0.683847 0
M  V30 2486 H 229.691 0.0931561 -1.83263 0
M  V30 2487 H 228.073 2.33873 -3.19561 0
M  V30 2488 H 229.247 -0.148407 -4.60561 0
M  V30 2489 H 227.562 0.0241016 -4.16393 0
M  V30 2490 H 230.159 2.77558 -4.57018 0
M  V30 2491 H 230.502 3.01173 -2.87403 0
M  V30 2492 H 231.035 1.51529 -3.6781 0
M  V30 2493 H 227.774 0.587771 -6.52859 0
M  V30 2494 H 227.294 2.04987 -5.63685 0
M  V30 2495 H 228.973 1.855 -6.19838 0
M  V30 2496 N 229.106 1.52395 0.401703 0
M  V30 2497 C 230.334 1.70676 1.16949 0
M  V30 2498 C 230.749 0.419503 1.8408 0
M  V30 2499 O 230.106 -0.605061 1.72178 0
M  V30 2500 C 230.157 2.84753 2.22706 0
M  V30 2501 O 229.878 4.08495 1.58314 0
M  V30 2502 C 231.379 3.14608 3.12309 0
M  V30 2503 H 228.599 0.571787 0.351142 0
M  V30 2504 H 231.143 1.98987 0.471652 0
M  V30 2505 H 229.298 2.58941 2.88147 0
M  V30 2506 H 229.712 4.72117 2.28485 0
M  V30 2507 H 231.186 3.97923 3.82572 0
M  V30 2508 H 231.663 2.28464 3.75101 0
M  V30 2509 H 232.269 3.42212 2.52529 0
M  V30 2510 N 230.584 -0.659388 1.43143 0
M  V30 2511 C 231.812 -1.44723 1.47861 0
M  V30 2512 C 232.227 -1.88563 0.0945886 0
M  V30 2513 O 231.584 -1.59108 -0.893915 0
M  V30 2514 C 231.635 -2.68627 2.41913 0
M  V30 2515 O 231.356 -2.26623 3.74932 0
M  V30 2516 C 232.857 -3.62045 2.55809 0
M  V30 2517 H 230.077 -0.444801 0.502387 0
M  V30 2518 H 232.621 -0.808916 1.87821 0
M  V30 2519 H 230.776 -3.28613 2.05164 0
M  V30 2520 H 231.19 -3.06745 4.2545 0
M  V30 2521 H 232.664 -4.45666 3.25708 0
M  V30 2522 H 233.141 -4.08981 1.60099 0
M  V30 2523 H 233.747 -3.07944 2.93344 0
M  V30 2524 N 232.062 -1.29571 -0.897171 0
M  V30 2525 C 233.29 -1.20583 -1.68129 0
M  V30 2526 C 233.705 0.233181 -1.87354 0
M  V30 2527 O 233.062 1.15579 -1.41236 0
M  V30 2528 C 233.113 -1.91772 -3.06441 0
M  V30 2529 O 232.834 -3.30053 -2.88091 0
M  V30 2530 C 234.335 -1.89291 -4.00854 0
M  V30 2531 H 231.555 -0.417826 -0.525036 0
M  V30 2532 H 234.099 -1.70987 -1.12177 0
M  V30 2533 H 232.254 -1.45196 -3.59161 0
M  V30 2534 H 232.668 -3.65942 -3.75748 0
M  V30 2535 H 234.142 -2.43662 -4.95311 0
M  V30 2536 H 234.619 -0.869014 -4.30517 0
M  V30 2537 H 235.225 -2.35622 -3.54066 0
M  V30 2538 N 233.54 1.10788 -1.12088 0
M  V30 2539 C 234.503 2.15207 -0.788577 0
M  V30 2540 C 235.503 1.59609 0.195317 0
M  V30 2541 O 236.693 1.74174 -0.0300193 0
M  V30 2542 C 233.825 3.4047 -0.171174 0
M  V30 2543 H 235.018 2.46116 -1.71368 0
M  V30 2544 H 232.571 1.26089 -0.923652 0
M  V30 2545 H 233.306 3.15176 0.763832 0
M  V30 2546 H 233.091 3.82109 -0.879514 0
M  V30 2547 H 234.581 4.17576 0.04496 0
M  V30 2548 N 235.018 0.912232 1.28515 0
M  V30 2549 C 235.981 0.404223 2.25607 0
M  V30 2550 C 236.981 -0.468602 1.53821 0
M  V30 2551 O 238.171 -0.271873 1.72065 0
M  V30 2552 C 235.303 -0.420653 3.38295 0
M  V30 2553 H 236.496 1.26188 2.7206 0
M  V30 2554 H 234.049 0.691495 1.40171 0
M  V30 2555 H 234.784 -1.29777 2.97201 0
M  V30 2556 H 234.569 0.204935 3.91564 0
M  V30 2557 H 236.059 -0.766971 4.10496 0
M  V30 2558 N 236.496 -1.42363 0.676048 0
M  V30 2559 C 237.736 -2.03392 0.20273 0
M  V30 2560 C 238.1 -1.52306 -1.16906 0
M  V30 2561 O 239.301 -2.05129 -1.73711 0
M  V30 2562 C 237.572 -3.56614 0.236947 0
M  V30 2563 S 239.131 -4.38489 -0.165186 0
M  V30 2564 H 235.949 -0.70611 0.0832418 0
M  V30 2565 H 238.551 -1.74093 0.88948 0
M  V30 2566 H 237.255 -3.91293 1.23767 0
M  V30 2567 H 236.786 -3.90587 -0.469596 0
M  V30 2568 H 238.801 -4.76093 -1.39822 0
M  V30 2569 N 237.974 -0.419461 -1.51915 0
M  V30 2570 C 238.907 0.445751 -2.23804 0
M  V30 2571 C 239.885 1.03951 -1.25031 0
M  V30 2572 O 241.069 1.08541 -1.54114 0
M  V30 2573 C 238.196 1.61964 -2.97465 0
M  V30 2574 C 237.242 1.14828 -4.10751 0
M  V30 2575 S 238.075 0.104938 -5.35397 0
M  V30 2576 C 239.231 1.28391 -6.1259 0
M  V30 2577 H 239.464 -0.164627 -2.96844 0
M  V30 2578 H 236.997 -0.203833 -1.53049 0
M  V30 2579 H 238.955 2.29271 -3.40507 0
M  V30 2580 H 237.616 2.20139 -2.24048 0
M  V30 2581 H 236.809 2.02561 -4.61503 0
M  V30 2582 H 236.411 0.553712 -3.69878 0
M  V30 2583 H 238.703 2.20563 -6.40592 0
M  V30 2584 H 239.646 0.816724 -7.03374 0
M  V30 2585 H 240.054 1.51439 -5.43807 0
M  V30 2586 N 239.452 1.56882 -0.150215 0
M  V30 2587 C 240.385 2.12712 0.826358 0
M  V30 2588 C 241.363 1.05154 1.24022 0
M  V30 2589 O 242.547 1.33004 1.33575 0
M  V30 2590 C 239.674 2.64945 2.11002 0
M  V30 2591 C 238.72 3.8468 1.84183 0
M  V30 2592 S 239.553 5.25502 1.02995 0
M  V30 2593 C 240.709 5.81125 2.32474 0
M  V30 2594 H 240.942 2.95214 0.351598 0
M  V30 2595 H 238.475 1.54267 0.0641211 0
M  V30 2596 H 240.433 2.95689 2.84742 0
M  V30 2597 H 239.094 1.82568 2.55593 0
M  V30 2598 H 238.287 4.19482 2.79375 0
M  V30 2599 H 237.889 3.54714 1.1855 0
M  V30 2600 H 240.181 5.92753 3.281 0
M  V30 2601 H 241.124 6.78625 2.02171 0
M  V30 2602 H 241.532 5.09392 2.43269 0
M  V30 2603 N 240.93 -0.123565 1.57115 0
M  V30 2604 C 242.207 -0.862196 1.75572 0
M  V30 2605 C 242.587 -1.98279 0.724475 0
M  V30 2606 O 241.935 -2.27102 -0.252407 0
M  V30 2607 C 242.145 -1.38309 3.20424 0
M  V30 2608 C 243.493 -1.83724 3.82793 0
M  V30 2609 O 244.517 -1.47999 3.23998 0
M  V30 2610 O 243.376 -2.49685 4.86127 0
M  V30 2611 H 240.47 -0.409113 0.718718 0
M  V30 2612 H 243.016 -0.107661 1.69358 0
M  V30 2613 H 241.788 -0.578889 3.86994 0
M  V30 2614 H 241.411 -2.20046 3.31158 0
M  V30 2615 N 242.408 -1.52605 -0.393616 0
M  V30 2616 C 243.338 -1.80022 -1.48709 0
M  V30 2617 C 244.319 -0.651995 -1.57108 0
M  V30 2618 O 245.504 -0.89913 -1.72132 0
M  V30 2619 C 242.634 -1.96492 -2.86371 0
M  V30 2620 C 241.588 -3.12161 -2.92813 0
M  V30 2621 C 240.914 -3.13877 -4.3288 0
M  V30 2622 C 242.214 -4.51322 -2.6288 0
M  V30 2623 H 243.908 -2.71589 -1.26015 0
M  V30 2624 H 241.454 -1.30684 -0.604778 0
M  V30 2625 H 243.407 -2.14255 -3.62867 0
M  V30 2626 H 242.131 -1.01611 -3.10391 0
M  V30 2627 H 240.79 -2.94173 -2.18764 0
M  V30 2628 H 240.438 -2.16687 -4.53933 0
M  V30 2629 H 240.138 -3.91576 -4.38112 0
M  V30 2630 H 241.662 -3.33789 -5.1129 0
M  V30 2631 H 243.076 -4.69435 -3.29096 0
M  V30 2632 H 241.473 -5.31053 -2.79468 0
M  V30 2633 H 242.543 -4.58353 -1.58242 0
M  V30 2634 N 243.887 0.651787 -1.4349 0
M  V30 2635 C 245.303 0.96762 -1.26922 0
M  V30 2636 C 245.503 2.00602 -0.189982 0
M  V30 2637 O 244.559 2.48793 0.431107 0
M  V30 2638 C 245.872 1.45052 -2.63401 0
M  V30 2639 C 247.42 1.5671 -2.70945 0
M  V30 2640 C 247.895 2.0839 -4.07845 0
M  V30 2641 N 249.386 2.1569 -4.09917 0
M  V30 2642 C 250.121 2.56804 -5.12679 0
M  V30 2643 N 249.617 2.97203 -6.25813 0
M  V30 2644 N 251.41 2.56756 -5.00033 0
M  V30 2645 H 243.561 -0.0353158 -2.12371 0
M  V30 2646 H 245.824 0.0467858 -0.946845 0
M  V30 2647 H 245.53 0.761926 -3.43348 0
M  V30 2648 H 245.404 2.42529 -2.88894 0
M  V30 2649 H 247.791 2.2467 -1.9133 0
M  V30 2650 H 247.872 0.57662 -2.49216 0
M  V30 2651 H 247.516 1.41031 -4.87927 0
M  V30 2652 H 247.446 3.08271 -4.26938 0
M  V30 2653 H 249.937 1.87237 -3.28254 0
M  V30 2654 H 250.25 3.27328 -7.00055 0
M  V30 2655 H 248.595 2.95004 -6.29283 0
M  V30 2656 H 251.786 2.24572 -4.10713 0
M  V30 2657 H 251.959 2.88475 -5.80247 0
M  V30 2658 N 245.365 1.30045 0.890287 0
M  V30 2659 C 246.781 1.08261 1.17268 0
M  V30 2660 C 246.981 -0.160063 2.00863 0
M  V30 2661 O 246.037 -0.855181 2.37577 0
M  V30 2662 C 247.35 2.34323 1.8845 0
M  V30 2663 C 248.898 2.39735 2.01237 0
M  V30 2664 C 249.373 3.65625 2.7583 0
M  V30 2665 N 250.864 3.66402 2.83379 0
M  V30 2666 C 251.599 4.60498 3.41657 0
M  V30 2667 N 251.095 5.64933 4.01026 0
M  V30 2668 N 252.888 4.48051 3.39421 0
M  V30 2669 H 245.039 2.09777 0.332762 0
M  V30 2670 H 247.302 0.92446 0.209948 0
M  V30 2671 H 247.008 3.2498 1.34465 0
M  V30 2672 H 246.882 2.4256 2.88867 0
M  V30 2673 H 249.269 1.4956 2.54393 0
M  V30 2674 H 249.35 2.35476 0.999232 0
M  V30 2675 H 248.994 4.56156 2.23347 0
M  V30 2676 H 248.924 3.67144 3.77509 0
M  V30 2677 H 251.415 2.90896 2.41222 0
M  V30 2678 H 251.728 6.32841 4.43545 0
M  V30 2679 H 250.073 5.68732 3.99461 0
M  V30 2680 H 253.264 3.65649 2.92264 0
M  V30 2681 H 253.437 5.21565 3.84544 0
M  V30 2682 N 246.843 -1.10192 1.12674 0
M  V30 2683 C 248.073 -1.85713 0.905213 0
M  V30 2684 C 248.481 -1.81056 -0.549108 0
M  V30 2685 O 247.824 -1.19927 -1.39151 0
M  V30 2686 C 247.886 -3.34972 1.30516 0
M  V30 2687 C 247.55 -3.63385 2.77129 0
M  V30 2688 C 248.547 -3.59772 3.75313 0
M  V30 2689 C 246.232 -3.91981 3.14096 0
M  V30 2690 C 248.226 -3.84354 5.08479 0
M  V30 2691 C 245.913 -4.16218 4.47443 0
M  V30 2692 C 246.911 -4.12395 5.44444 0
M  V30 2693 O 246.599 -4.36014 6.75387 0
M  V30 2694 H 246.331 -0.593719 0.323223 0
M  V30 2695 H 248.885 -1.40198 1.50112 0
M  V30 2696 H 247.115 -3.81156 0.652463 0
M  V30 2697 H 248.804 -3.91886 1.05736 0
M  V30 2698 H 249.57 -3.37716 3.48099 0
M  V30 2699 H 245.449 -3.94085 2.39202 0
M  V30 2700 H 248.993 -3.81285 5.84181 0
M  V30 2701 H 244.89 -4.37754 4.74386 0
M  V30 2702 H 245.658 -4.53516 6.8137 0
M  V30 2703 N 248.321 -0.919034 -1.28029 0
M  V30 2704 C 249.732 -0.600735 -1.76771 0
M  V30 2705 C 250.083 0.884024 -1.75156 0
M  V30 2706 O 249.208 1.69163 -1.34956 0
M  V30 2707 C 249.803 -1.08372 -3.21 0
M  V30 2708 C 248.362 -0.816248 -3.67443 0
M  V30 2709 C 247.509 -1.24742 -2.47658 0
M  V30 2710 H 250.46 -1.09974 -1.14418 0
M  V30 2711 H 250.481 -0.427512 -3.78091 0
M  V30 2712 H 249.993 -2.16437 -3.22144 0
M  V30 2713 H 248.094 0.250968 -3.71754 0
M  V30 2714 H 248.207 -1.4277 -4.57333 0
M  V30 2715 H 246.571 -0.666083 -2.45836 0
M  V30 2716 H 247.354 -2.33653 -2.51518 0
M  V30 2717 N 249.799 1.42003 -0.683588 0
M  V30 2718 C 250.729 2.33487 -0.024866 0
M  V30 2719 C 251.71 1.51163 0.779975 0
M  V30 2720 O 252.895 1.79739 0.735362 0
M  V30 2721 C 250.025 3.3487 0.920836 0
M  V30 2722 C 248.979 4.27414 0.223958 0
M  V30 2723 C 248.305 5.19074 1.2832 0
M  V30 2724 C 249.605 5.14445 -0.90242 0
M  V30 2725 H 251.299 2.88819 -0.788921 0
M  V30 2726 H 248.845 1.38873 -0.38083 0
M  V30 2727 H 250.798 3.97787 1.39081 0
M  V30 2728 H 249.522 2.77861 1.71642 0
M  V30 2729 H 248.181 3.65904 -0.225864 0
M  V30 2730 H 247.829 4.58387 2.071 0
M  V30 2731 H 247.529 5.81822 0.821995 0
M  V30 2732 H 249.053 5.84867 1.75392 0
M  V30 2733 H 250.467 5.70998 -0.513272 0
M  V30 2734 H 248.864 5.86072 -1.28997 0
M  V30 2735 H 249.934 4.52322 -1.74737 0
M  V30 2736 N 251.277 0.427512 1.51691 0
M  V30 2737 C 252.554 -0.201684 1.94557 0
M  V30 2738 C 252.934 -1.60981 1.36559 0
M  V30 2739 O 252.282 -2.21814 0.548702 0
M  V30 2740 C 252.492 -0.189394 3.48486 0
M  V30 2741 C 253.84 -0.39978 4.22714 0
M  V30 2742 O 254.864 -0.267945 3.55191 0
M  V30 2743 O 253.723 -0.661249 5.42485 0
M  V30 2744 H 250.817 -0.135261 0.815864 0
M  V30 2745 H 253.363 0.484782 1.62628 0
M  V30 2746 H 252.135 0.795431 3.8313 0
M  V30 2747 H 251.758 -0.919187 3.86829 0
M  V30 2748 N 252.755 -1.56801 0.158532 0
M  V30 2749 C 253.665 -2.20916 -0.789518 0
M  V30 2750 C 254.681 -1.1969 -1.26294 0
M  V30 2751 O 255.857 -1.52308 -1.31773 0
M  V30 2752 C 252.922 -2.82727 -2.00665 0
M  V30 2753 C 251.983 -3.99114 -1.58134 0
M  V30 2754 C 251.216 -4.57968 -2.74045 0
M  V30 2755 O 251.439 -4.15704 -3.90572 0
M  V30 2756 O 250.373 -5.48047 -2.48855 0
M  V30 2757 H 254.199 -3.02464 -0.273681 0
M  V30 2758 H 251.784 -1.4924 -0.0690548 0
M  V30 2759 H 253.666 -3.21968 -2.71872 0
M  V30 2760 H 252.341 -2.04184 -2.51179 0
M  V30 2761 H 251.248 -3.64567 -0.839155 0
M  V30 2762 H 252.581 -4.79212 -1.12325 0
M  V30 2763 N 254.233 0.115231 -1.57178 0
M  V30 2764 C 255.165 1.16694 -1.97269 0
M  V30 2765 C 256.178 1.37445 -0.872502 0
M  V30 2766 O 257.367 1.36454 -1.15077 0
M  V30 2767 C 254.467 2.52627 -2.25905 0
M  V30 2768 C 253.64 2.52427 -3.57211 0
M  V30 2769 C 252.699 3.70134 -3.74016 0
M  V30 2770 O 251.725 3.53546 -4.46087 0
M  V30 2771 N 252.927 4.88844 -3.13068 0
M  V30 2772 H 255.692 0.82588 -2.88096 0
M  V30 2773 H 253.253 0.304461 -1.59011 0
M  V30 2774 H 255.245 3.29937 -2.34359 0
M  V30 2775 H 253.815 2.789 -1.41186 0
M  V30 2776 H 253.035 1.60805 -3.5991 0
M  V30 2777 H 254.323 2.49353 -4.43509 0
M  V30 2778 H 253.721 5.05225 -2.54489 0
M  V30 2779 H 252.278 5.63817 -3.27037 0
M  V30 2780 N 255.711 1.52812 0.385517 0
M  V30 2781 C 256.659 1.78482 1.49155 0
M  V30 2782 C 257.653 0.652914 1.56312 0
M  V30 2783 O 258.859 0.835464 1.59436 0
M  V30 2784 H 255.234 0.5648 0.496493 0
M  V30 2785 H 257.205 2.71095 1.24699 0
M  V30 2786 C 255.954 1.97378 2.86247 0
M  V30 2787 H 255.277 2.83907 2.81491 0
M  V30 2788 H 256.717 2.19327 3.62866 0
M  V30 2789 C 255.176 0.74728 3.28508 0
M  V30 2790 O 255.706 -0.0736232 4.01633 0
M  V30 2791 N 253.912 0.576396 2.84826 0
M  V30 2792 H 253.459 1.24555 2.25486 0
M  V30 2793 H 253.417 -0.24288 3.1346 0
M  V30 2794 N 257.189 -0.644168 1.43834 0
M  V30 2795 C 258.429 -1.41565 1.47441 0
M  V30 2796 C 258.793 -1.91743 0.0992723 0
M  V30 2797 O 259.994 -2.68798 0.0100192 0
M  V30 2798 C 258.265 -2.55902 2.49498 0
M  V30 2799 S 259.824 -3.44287 2.72051 0
M  V30 2800 H 256.642 -0.483118 0.521649 0
M  V30 2801 H 259.244 -0.747008 1.80666 0
M  V30 2802 H 257.948 -2.17327 3.48134 0
M  V30 2803 H 257.479 -3.27607 2.17801 0
M  V30 2804 H 259.494 -4.52927 2.0266 0
M  V30 2805 N 258.668 -1.30515 -0.883378 0
M  V30 2806 C 259.896 -1.22359 -1.66841 0
M  V30 2807 C 260.311 0.213296 -1.87591 0
M  V30 2808 O 259.668 1.14075 -1.42454 0
M  V30 2809 C 259.719 -1.95011 -3.04389 0
M  V30 2810 O 259.44 -3.3309 -2.84575 0
M  V30 2811 C 260.941 -1.93532 -3.98824 0
M  V30 2812 H 258.161 -0.423371 -0.520575 0
M  V30 2813 H 260.705 -1.72167 -1.10357 0
M  V30 2814 H 258.86 -1.48997 -3.57601 0
M  V30 2815 H 259.274 -3.69907 -3.71846 0
M  V30 2816 H 260.748 -2.48902 -4.92699 0
M  V30 2817 H 261.225 -0.914627 -4.29571 0
M  V30 2818 H 261.831 -2.39364 -3.51547 0
M  V30 2819 N 260.146 1.09593 -1.13257 0
M  V30 2820 C 261.076 2.18214 -0.830946 0
M  V30 2821 C 262.057 1.68812 0.208966 0
M  V30 2822 O 263.242 1.9408 0.0682666 0
M  V30 2823 C 260.372 3.46051 -0.294296 0
M  V30 2824 C 259.326 4.08778 -1.26826 0
M  V30 2825 C 258.652 5.31419 -0.591449 0
M  V30 2826 C 259.952 4.51476 -2.62615 0
M  V30 2827 H 261.646 2.43703 -1.73923 0
M  V30 2828 H 259.192 1.17128 -0.837675 0
M  V30 2829 H 261.145 4.2134 -0.0709606 0
M  V30 2830 H 259.869 3.20079 0.649366 0
M  V30 2831 H 258.528 3.35505 -1.47756 0
M  V30 2832 H 258.176 5.01727 0.357633 0
M  V30 2833 H 257.876 5.74341 -1.24123 0
M  V30 2834 H 259.4 6.09433 -0.377355 0
M  V30 2835 H 260.814 5.17999 -2.45663 0
M  V30 2836 H 259.211 5.05277 -3.23752 0
M  V30 2837 H 260.281 3.63962 -3.20406 0
M  V30 2838 N 261.624 0.925811 1.2754 0
M  V30 2839 C 262.534 0.428993 2.30644 0
M  V30 2840 C 263.55 -0.489387 1.66976 0
M  V30 2841 O 264.726 -0.372653 1.97922 0
M  V30 2842 C 261.791 -0.311967 3.45294 0
M  V30 2843 C 260.852 0.641098 4.24486 0
M  V30 2844 C 260.085 -0.0645955 5.33661 0
M  V30 2845 O 260.308 -1.28429 5.55754 0
M  V30 2846 O 259.242 0.606265 5.98839 0
M  V30 2847 H 263.068 1.28504 2.75173 0
M  V30 2848 H 260.653 0.691086 1.32455 0
M  V30 2849 H 262.535 -0.729972 4.15029 0
M  V30 2850 H 261.21 -1.14365 3.02824 0
M  V30 2851 H 260.117 1.10874 3.57292 0
M  V30 2852 H 261.45 1.43995 4.70666 0
M  V30 2853 N 263.102 -1.41638 0.69111 0
M  V30 2854 C 264.351 -2.00526 0.217318 0
M  V30 2855 C 264.664 -1.55353 -1.18848 0
M  V30 2856 O 265.87 -2.06769 -1.75951 0
M  V30 2857 C 264.326 -3.58313 0.337639 0
M  V30 2858 C 263.934 -4.12469 1.74852 0
M  V30 2859 C 265.678 -4.24431 -0.0766066 0
M  V30 2860 C 263.585 -5.62675 1.82074 0
M  V30 2861 H 262.515 -0.750008 0.0774893 0
M  V30 2862 H 265.166 -1.6217 0.858661 0
M  V30 2863 H 263.548 -3.9425 -0.371879 0
M  V30 2864 H 264.722 -3.8796 2.48644 0
M  V30 2865 H 263.037 -3.58861 2.11205 0
M  V30 2866 H 265.634 -5.34683 -0.0430284 0
M  V30 2867 H 265.977 -4.01101 -1.1146 0
M  V30 2868 H 266.51 -3.93512 0.582476 0
M  V30 2869 H 263.249 -5.90826 2.83911 0
M  V30 2870 H 262.769 -5.89124 1.12661 0
M  V30 2871 H 264.448 -6.27371 1.58159 0
M  V30 2872 N 264.58 -0.43555 -1.51462 0
M  V30 2873 C 265.49 0.383001 -2.31453 0
M  V30 2874 C 266.506 1.02931 -1.4029 0
M  V30 2875 O 267.682 1.02507 -1.73362 0
M  V30 2876 C 264.747 1.47043 -3.13973 0
M  V30 2877 C 263.808 0.844433 -4.20913 0
M  V30 2878 C 263.041 1.88004 -4.9949 0
M  V30 2879 O 263.264 3.10199 -4.78678 0
M  V30 2880 O 262.198 1.47157 -5.83634 0
M  V30 2881 H 266.024 -0.269964 -3.02498 0
M  V30 2882 H 263.609 -0.19813 -1.4808 0
M  V30 2883 H 265.491 2.10113 -3.65281 0
M  V30 2884 H 264.166 2.10751 -2.45695 0
M  V30 2885 H 263.073 0.175729 -3.73687 0
M  V30 2886 H 264.406 0.250869 -4.9156 0
M  V30 2887 N 266.058 1.56714 -0.166846 0
M  V30 2888 C 267.283 2.01557 0.488833 0
M  V30 2889 C 267.708 1.0463 1.56314 0
M  V30 2890 O 267.066 0.0251304 1.81283 0
M  V30 2891 C 267.114 3.4503 1.04818 0
M  V30 2892 O 266.218 3.51163 2.16236 0
M  V30 2893 H 265.559 0.653516 0.117526 0
M  V30 2894 H 268.089 2.02818 -0.269421 0
M  V30 2895 H 268.099 3.84243 1.37191 0
M  V30 2896 H 266.774 4.15077 0.261572 0
M  V30 2897 H 265.351 3.23807 1.84942 0
M  V30 2898 N 267.536 -0.106894 1.57237 0
M  V30 2899 C 268.766 -0.825191 1.89405 0
M  V30 2900 C 269.174 -1.73374 0.757496 0
M  V30 2901 O 268.517 -1.81552 -0.280115 0
M  V30 2902 C 268.579 -1.70102 3.1671 0
M  V30 2903 C 268.243 -0.965523 4.46684 0
M  V30 2904 C 269.24 -0.300741 5.19029 0
M  V30 2905 C 266.925 -0.943105 4.93367 0
M  V30 2906 C 268.919 0.376622 6.36286 0
M  V30 2907 C 266.606 -0.261949 6.10538 0
M  V30 2908 C 267.604 0.396748 6.81847 0
M  V30 2909 O 267.292 1.06701 7.96787 0
M  V30 2910 H 267.024 -0.241852 0.631255 0
M  V30 2911 H 269.578 -0.0921491 2.05193 0
M  V30 2912 H 267.808 -2.47601 2.97036 0
M  V30 2913 H 269.497 -2.29483 3.34802 0
M  V30 2914 H 270.263 -0.309599 4.84011 0
M  V30 2915 H 266.142 -1.44524 4.3776 0
M  V30 2916 H 269.686 0.891334 6.91882 0
M  V30 2917 H 265.583 -0.250896 6.45012 0
M  V30 2918 H 266.351 0.972707 8.127 0
M  V30 2919 N 269.014 -1.53014 -0.377408 0
M  V30 2920 C 270.262 -1.6829 -1.11906 0
M  V30 2921 C 270.583 -0.431206 -1.90173 0
M  V30 2922 O 269.853 0.554595 -1.87886 0
M  V30 2923 H 268.433 -0.620371 -0.416112 0
M  V30 2924 H 271.095 -1.90167 -0.426893 0
M  V30 2925 H 270.191 -2.53862 -1.8155 0
M  V30 2926 N 270.492 0.636531 -1.44174 0
M  V30 2927 C 271.722 1.42146 -1.49927 0
M  V30 2928 C 272.13 1.88812 -0.121063 0
M  V30 2929 O 271.473 1.61126 0.882267 0
M  V30 2930 C 271.535 2.67883 -2.39748 0
M  V30 2931 C 271.199 2.43048 -3.8701 0
M  V30 2932 C 272.196 2.05216 -4.77684 0
M  V30 2933 C 269.881 2.56856 -4.3166 0
M  V30 2934 C 271.875 1.81512 -6.11009 0
M  V30 2935 C 269.562 2.32766 -5.65034 0
M  V30 2936 C 270.56 1.95152 -6.54526 0
M  V30 2937 O 270.248 1.71326 -7.85431 0
M  V30 2938 H 269.98 0.442567 -0.51099 0
M  V30 2939 H 272.534 0.786158 -1.8976 0
M  V30 2940 H 270.764 3.34032 -1.94832 0
M  V30 2941 H 272.453 3.29874 -2.36513 0
M  V30 2942 H 273.219 1.94111 -4.44462 0
M  V30 2943 H 269.098 2.85104 -3.62266 0
M  V30 2944 H 272.642 1.52077 -6.80822 0
M  V30 2945 H 268.539 2.43479 -5.97819 0
M  V30 2946 H 269.307 1.85616 -7.97176 0
M  V30 2947 N 271.97 1.30982 0.876444 0
M  V30 2948 C 273.198 1.23242 1.6619 0
M  V30 2949 C 273.613 -0.203345 1.87702 0
M  V30 2950 O 272.97 -1.13317 1.43057 0
M  V30 2951 C 273.021 1.96623 3.03351 0
M  V30 2952 O 272.742 3.34594 2.82804 0
M  V30 2953 C 274.243 1.95644 3.97792 0
M  V30 2954 H 271.463 0.426126 0.518322 0
M  V30 2955 H 274.007 1.7275 1.09442 0
M  V30 2956 H 272.162 1.50892 3.56806 0
M  V30 2957 H 272.576 3.71873 3.69879 0
M  V30 2958 H 274.05 2.51511 4.91372 0
M  V30 2959 H 274.527 0.937395 4.2908 0
M  V30 2960 H 275.133 2.41225 3.50272 0
M  V30 2961 N 273.449 -1.08991 1.13837 0
M  V30 2962 C 274.677 -1.85011 0.926202 0
M  V30 2963 C 275.092 -1.8135 -0.525127 0
M  V30 2964 O 274.449 -1.21287 -1.36366 0
M  V30 2965 C 274.5 -3.32802 1.41155 0
M  V30 2966 O 274.221 -3.36444 2.80601 0
M  V30 2967 C 275.722 -4.25649 1.23847 0
M  V30 2968 H 272.942 -0.584249 0.32999 0
M  V30 2969 H 275.486 -1.37688 1.51202 0
M  V30 2970 H 273.641 -3.77536 0.868631 0
M  V30 2971 H 274.055 -4.28657 3.02248 0
M  V30 2972 H 275.529 -5.27485 1.62675 0
M  V30 2973 H 276.006 -4.38828 0.18065 0
M  V30 2974 H 276.612 -3.86735 1.76964 0
M  V30 2975 N 274.927 -0.932562 -1.27047 0
M  V30 2976 C 276.204 -0.49377 -1.89265 0
M  V30 2977 C 276.584 1.02833 -1.8436 0
M  V30 2978 O 275.932 1.88461 -1.29209 0
M  V30 2979 C 276.142 -1.04536 -3.32976 0
M  V30 2980 C 277.49 -1.10879 -4.09867 0
M  V30 2981 O 278.514 -0.995327 -3.42011 0
M  V30 2982 O 277.373 -1.28417 -5.31198 0
M  V30 2983 H 274.467 -0.159596 -0.811454 0
M  V30 2984 H 277.013 -1.02457 -1.3528 0
M  V30 2985 H 275.785 -2.08913 -3.30864 0
M  V30 2986 H 275.408 -0.496494 -3.94488 0
M  V30 2987 N 276.405 1.4127 -0.698611 0
M  V30 2988 C 277.682 1.94955 -0.158762 0
M  V30 2989 C 278.062 1.63781 1.33188 0
M  V30 2990 O 277.41 0.946423 2.07979 0
M  V30 2991 C 277.62 3.46044 -0.453309 0
M  V30 2992 C 278.968 4.22872 -0.382707 0
M  V30 2993 O 279.992 3.54076 -0.388396 0
M  V30 2994 O 278.851 5.45407 -0.345463 0
M  V30 2995 H 275.945 0.82683 -0.0167505 0
M  V30 2996 H 278.491 1.50971 -0.77498 0
M  V30 2997 H 277.263 3.62028 -1.48498 0
M  V30 2998 H 276.886 3.97128 0.19373 0
M  V30 2999 N 277.883 0.443576 1.51229 0
M  V30 3000 C 279.132 -0.122332 2.01329 0
M  V30 3001 C 279.445 -1.43237 1.33201 0
M  V30 3002 O 280.651 -2.0816 1.74304 0
M  V30 3003 C 279.107 -0.268551 3.58897 0
M  V30 3004 C 278.715 1.03142 4.35965 0
M  V30 3005 C 280.459 -0.787894 4.17124 0
M  V30 3006 C 278.366 0.850504 5.85252 0
M  V30 3007 H 277.296 -0.0494929 0.752374 0
M  V30 3008 H 279.947 0.574289 1.74282 0
M  V30 3009 H 278.329 -1.02832 3.82415 0
M  V30 3010 H 279.503 1.80001 4.24189 0
M  V30 3011 H 277.818 1.47977 3.89219 0
M  V30 3012 H 280.415 -0.939841 5.26375 0
M  V30 3013 H 280.758 -1.77201 3.76703 0
M  V30 3014 H 281.291 -0.0862669 3.97706 0
M  V30 3015 H 278.03 1.80718 6.30096 0
M  V30 3016 H 277.55 0.121825 5.99676 0
M  V30 3017 H 279.229 0.506163 6.45017 0
M  V30 3018 N 279.361 -1.56624 0.175154 0
M  V30 3019 C 280.271 -2.21741 -0.766042 0
M  V30 3020 C 281.287 -1.21023 -1.25018 0
M  V30 3021 O 282.463 -1.53697 -1.3015 0
M  V30 3022 C 279.528 -2.84839 -1.97655 0
M  V30 3023 C 278.589 -4.00769 -1.53892 0
M  V30 3024 C 277.822 -4.60849 -2.69173 0
M  V30 3025 O 278.045 -4.19823 -3.86141 0
M  V30 3026 O 276.979 -5.50655 -2.43028 0
M  V30 3027 H 280.805 -3.02738 -0.241585 0
M  V30 3028 H 278.39 -1.49305 -0.053222 0
M  V30 3029 H 280.272 -3.24834 -2.68442 0
M  V30 3030 H 278.947 -2.06836 -2.48999 0
M  V30 3031 H 277.854 -3.65436 -0.80044 0
M  V30 3032 H 279.187 -4.80376 -1.07236 0
M  V30 3033 N 280.839 0.0985539 -1.57292 0
M  V30 3034 C 282.086 0.802678 -1.85912 0
M  V30 3035 C 282.414 1.78901 -0.763186 0
M  V30 3036 O 281.669 1.94178 0.243559 0
M  V30 3037 C 281.968 1.56927 -3.21105 0
M  V30 3038 C 281.634 0.725376 -4.45027 0
M  V30 3039 C 280.296 0.492726 -4.78671 0
M  V30 3040 C 282.648 0.138493 -5.21016 0
M  V30 3041 C 279.976 -0.336727 -5.85733 0
M  V30 3042 C 282.328 -0.678264 -6.28953 0
M  V30 3043 C 280.992 -0.921039 -6.61115 0
M  V30 3044 H 280.262 0.293721 -0.680301 0
M  V30 3045 H 282.909 0.0642841 -1.91392 0
M  V30 3046 H 281.214 2.37914 -3.11294 0
M  V30 3047 H 282.911 2.11841 -3.40477 0
M  V30 3048 H 279.501 0.916815 -4.18679 0
M  V30 3049 H 283.685 0.305404 -4.95359 0
M  V30 3050 H 278.941 -0.533836 -6.09065 0
M  V30 3051 H 283.115 -1.1399 -6.87007 0
M  V30 3052 H 280.742 -1.56556 -7.43905 0
M  V30 3053 N 282.317 1.53212 0.369288 0
M  V30 3054 C 283.547 1.72868 1.13139 0
M  V30 3055 C 283.955 0.455754 1.83629 0
M  V30 3056 O 283.298 -0.580861 1.74275 0
M  V30 3057 C 283.36 2.83667 2.20847 0
M  V30 3058 C 283.024 4.24142 1.70155 0
M  V30 3059 C 284.021 5.06619 1.16763 0
M  V30 3060 C 281.706 4.70539 1.7578 0
M  V30 3061 C 283.7 6.33581 0.696678 0
M  V30 3062 C 281.387 5.97481 1.28297 0
M  V30 3063 C 282.385 6.78833 0.753307 0
M  V30 3064 O 282.073 8.03393 0.285475 0
M  V30 3065 H 281.805 0.581707 0.344373 0
M  V30 3066 H 284.359 2.00736 0.435243 0
M  V30 3067 H 282.589 2.51265 2.93944 0
M  V30 3068 H 284.278 2.91536 2.82421 0
M  V30 3069 H 285.044 4.71948 1.11758 0
M  V30 3070 H 280.923 4.07293 2.15949 0
M  V30 3071 H 284.467 6.97027 0.282581 0
M  V30 3072 H 280.364 6.31651 1.32994 0
M  V30 3073 H 281.132 8.17497 0.405145 0
M  V30 3074 N 283.795 -0.628877 1.44509 0
M  V30 3075 C 285.041 -1.38863 1.48623 0
M  V30 3076 C 285.396 -1.92038 0.117933 0
M  V30 3077 O 284.689 -1.70853 -0.86716 0
M  V30 3078 C 284.883 -2.56995 2.48371 0
M  V30 3079 C 284.712 -2.15385 3.94765 0
M  V30 3080 C 283.482 -2.02558 4.62924 0
M  V30 3081 C 285.68 -1.74158 4.83915 0
M  V30 3082 N 283.662 -1.54534 5.94132 0
M  V30 3083 C 285.033 -1.37396 6.04584 0
M  V30 3084 C 287.088 -1.61559 4.7096 0
M  V30 3085 C 285.791 -0.892948 7.13736 0
M  V30 3086 C 287.817 -1.14862 5.80139 0
M  V30 3087 C 287.179 -0.790516 6.9995 0
M  V30 3088 H 283.278 -0.502858 0.59888 0
M  V30 3089 H 285.862 -0.72121 1.8085 0
M  V30 3090 H 284.033 -3.21362 2.1813 0
M  V30 3091 H 285.765 -3.23801 2.42766 0
M  V30 3092 H 282.52 -2.23082 4.1777 0
M  V30 3093 H 282.944 -1.32815 6.63844 0
M  V30 3094 H 287.586 -1.87876 3.78764 0
M  V30 3095 H 285.304 -0.617291 8.05739 0
M  V30 3096 H 288.89 -1.05569 5.72142 0
M  V30 3097 H 287.77 -0.434713 7.82994 0
M  V30 3098 N 285.273 -1.31445 -0.869486 0
M  V30 3099 C 286.221 -1.19067 -1.99814 0
M  V30 3100 C 287.215 -0.0988569 -1.69111 0
M  V30 3101 O 288.421 -0.260781 -1.78101 0
M  V30 3102 H 284.796 -0.368677 -0.655425 0
M  V30 3103 H 286.767 -2.14555 -2.07385 0
M  V30 3104 C 285.516 -0.915323 -3.35436 0
M  V30 3105 H 284.839 -1.74759 -3.59582 0
M  V30 3106 H 286.279 -0.868895 -4.15001 0
M  V30 3107 C 284.738 0.381928 -3.34728 0
M  V30 3108 O 285.268 1.39857 -3.76567 0
M  V30 3109 N 283.474 0.398633 -2.87853 0
M  V30 3110 H 283.021 -0.429186 -2.54 0
M  V30 3111 H 282.979 1.26651 -2.87762 0
M  V30 3112 N 286.751 1.08385 -1.14413 0
M  V30 3113 C 287.999 1.80419 -0.910679 0
M  V30 3114 C 288.32 1.86658 0.564243 0
M  V30 3115 O 287.59 1.35985 1.41014 0
M  V30 3116 H 286.17 0.668204 -0.333934 0
M  V30 3117 H 288.832 1.31037 -1.44275 0
M  V30 3118 H 287.928 2.83238 -1.31082 0
M  V30 3119 N 288.23 0.939286 1.26551 0
M  V30 3120 C 289.478 0.58469 1.93457 0
M  V30 3121 C 289.799 -0.878774 1.74076 0
M  V30 3122 O 289.069 -1.62421 1.09528 0
M  V30 3123 H 287.649 0.21325 0.715914 0
M  V30 3124 H 290.311 1.1942 1.54029 0
M  V30 3125 H 289.407 0.800849 3.0165 0
M  V30 3126 N 289.708 -1.40897 0.706093 0
M  V30 3127 C 290.618 -2.3455 0.0482286 0
M  V30 3128 C 291.634 -1.56796 -0.754396 0
M  V30 3129 O 292.81 -1.89228 -0.689538 0
M  V30 3130 C 289.875 -3.35625 -0.869303 0
M  V30 3131 C 288.936 -4.29261 -0.0576994 0
M  V30 3132 C 288.169 -5.25508 -0.931531 0
M  V30 3133 O 288.392 -5.27472 -2.17092 0
M  V30 3134 O 287.326 -6.00727 -0.375587 0
M  V30 3135 H 291.152 -2.92407 0.820476 0
M  V30 3136 H 288.737 -1.4193 0.4665 0
M  V30 3137 H 290.619 -3.97635 -1.39514 0
M  V30 3138 H 289.294 -2.80196 -1.62086 0
M  V30 3139 H 288.201 -3.70566 0.512988 0
M  V30 3140 H 289.534 -4.87817 0.655426 0
M  V30 3141 N 291.186 -0.45159 -1.50991 0
M  V30 3142 C 292.434 0.109857 -2.01801 0
M  V30 3143 C 292.755 1.41958 -1.3369 0
M  V30 3144 O 292.025 1.9003 -0.475951 0
M  V30 3145 H 290.605 0.0435884 -0.745727 0
M  V30 3146 H 293.267 -0.597557 -1.85514 0
M  V30 3147 H 292.363 0.275489 -3.10882 0
M  V30 3148 N 292.664 1.56529 -0.183458 0
M  V30 3149 C 293.627 2.17324 0.728223 0
M  V30 3150 C 294.627 1.12453 1.14939 0
M  V30 3151 O 295.817 1.37902 1.06437 0
M  V30 3152 C 292.949 2.76591 1.99274 0
M  V30 3153 H 294.142 2.99241 0.198772 0
M  V30 3154 H 291.695 1.5616 0.0661391 0
M  V30 3155 H 292.43 1.98441 2.56499 0
M  V30 3156 H 292.215 3.5335 1.69959 0
M  V30 3157 H 293.705 3.23311 2.6431 0
M  V30 3158 N 294.142 -0.090211 1.57342 0
M  V30 3159 C 295.388 -0.793982 1.86611 0
M  V30 3160 C 295.721 -1.78142 0.773252 0
M  V30 3161 O 294.996 -1.93271 -0.218304 0
M  V30 3162 C 295.279 -1.51839 3.26523 0
M  V30 3163 C 295.132 -0.548609 4.46442 0
M  V30 3164 C 296.451 -2.46779 3.64401 0
M  V30 3165 H 293.57 -0.287186 0.678744 0
M  V30 3166 H 296.212 -0.0575076 1.89913 0
M  V30 3167 H 294.362 -2.14617 3.23839 0
M  V30 3168 H 296.034 0.0725513 4.61243 0
M  V30 3169 H 294.277 0.137614 4.33582 0
M  V30 3170 H 294.948 -1.09271 5.41076 0
M  V30 3171 H 297.424 -1.94089 3.68061 0
M  V30 3172 H 296.3 -2.94479 4.63221 0
M  V30 3173 H 296.561 -3.30758 2.93346 0
M  V30 3174 N 295.62 -1.53406 -0.361157 0
M  V30 3175 C 296.848 -1.73717 -1.12383 0
M  V30 3176 C 297.263 -0.468161 -1.82904 0
M  V30 3177 O 296.62 0.559198 -1.73722 0
M  V30 3178 C 296.671 -2.90558 -2.15078 0
M  V30 3179 O 296.392 -4.12549 -1.47428 0
M  V30 3180 C 297.893 -3.22777 -3.03858 0
M  V30 3181 H 295.113 -0.580896 -0.335858 0
M  V30 3182 H 297.657 -2.00167 -0.418728 0
M  V30 3183 H 295.812 -2.66489 -2.8118 0
M  V30 3184 H 296.226 -4.78009 -2.15887 0
M  V30 3185 H 297.7 -4.07927 -3.71887 0
M  V30 3186 H 298.177 -2.38329 -3.68912 0
M  V30 3187 H 298.783 -3.48787 -2.43367 0
M  V30 3188 N 297.098 0.621204 -1.44841 0
M  V30 3189 C 298.346 1.37783 -1.47852 0
M  V30 3190 C 298.667 1.94653 -0.116224 0
M  V30 3191 O 297.937 1.76367 0.852737 0
M  V30 3192 H 296.517 0.511453 -0.544449 0
M  V30 3193 H 299.179 0.730446 -1.80694 0
M  V30 3194 H 298.275 2.20414 -2.20961 0
M  V30 3195 N 298.576 1.31904 0.862503 0
M  V30 3196 C 299.822 1.22197 1.61851 0
M  V30 3197 C 300.155 -0.217641 1.92977 0
M  V30 3198 O 299.43 -1.15264 1.56666 0
M  V30 3199 C 299.713 2.07378 2.94391 0
M  V30 3200 C 299.566 3.59678 2.70096 0
M  V30 3201 C 300.885 1.92891 3.95577 0
M  V30 3202 H 298.004 0.445255 0.587296 0
M  V30 3203 H 300.646 1.6177 0.99651 0
M  V30 3204 H 298.796 1.73758 3.47477 0
M  V30 3205 H 300.468 4.03472 2.23625 0
M  V30 3206 H 298.711 3.82735 2.04197 0
M  V30 3207 H 299.382 4.14595 3.64438 0
M  V30 3208 H 301.858 2.22327 3.51724 0
M  V30 3209 H 300.734 2.54781 4.86187 0
M  V30 3210 H 300.995 0.894315 4.3296 0
M  V30 3211 N 300.054 -1.07777 1.14986 0
M  V30 3212 C 301.002 -2.16964 0.838406 0
M  V30 3213 C 301.996 -1.68372 -0.186386 0
M  V30 3214 O 303.202 -1.79951 -0.0418465 0
M  V30 3215 H 299.577 -0.708006 0.253439 0
M  V30 3216 H 301.548 -2.40454 1.76704 0
M  V30 3217 C 300.297 -3.4604 0.339335 0
M  V30 3218 H 299.62 -3.83813 1.11927 0
M  V30 3219 H 301.06 -4.23698 0.160021 0
M  V30 3220 C 299.519 -3.23569 -0.938325 0
M  V30 3221 O 300.049 -3.47752 -2.01077 0
M  V30 3222 N 298.255 -2.77079 -0.876117 0
M  V30 3223 H 297.802 -2.576 -0.00322037 0
M  V30 3224 H 297.76 -2.62422 -1.73153 0
M  V30 3225 N 301.532 -0.945985 -1.26051 0
M  V30 3226 C 302.479 -0.45809 -2.26208 0
M  V30 3227 C 303.449 0.484816 -1.58867 0
M  V30 3228 O 304.634 0.399969 -1.86561 0
M  V30 3229 C 301.774 0.266131 -3.44072 0
M  V30 3230 C 300.887 -0.713005 -4.26075 0
M  V30 3231 C 300.022 0.0329013 -5.3119 0
M  V30 3232 C 299.061 -0.93774 -6.04874 0
M  V30 3233 N 298.198 -0.223274 -7.01745 0
M  V30 3234 H 303.038 -1.3171 -2.67313 0
M  V30 3235 H 300.575 -0.66069 -1.31428 0
M  V30 3236 H 302.533 0.702514 -4.11243 0
M  V30 3237 H 301.163 1.08925 -3.03867 0
M  V30 3238 H 300.215 -1.26789 -3.58648 0
M  V30 3239 H 301.527 -1.45406 -4.77136 0
M  V30 3240 H 300.681 0.528335 -6.04395 0
M  V30 3241 H 299.42 0.806801 -4.8098 0
M  V30 3242 H 298.425 -1.44425 -5.30492 0
M  V30 3243 H 299.65 -1.71172 -6.57173 0
M  V30 3244 H 297.596 0.532046 -6.53839 0
M  V30 3245 H 297.513 -0.90357 -7.50581 0
M  V30 3246 H 298.781 0.250907 -7.79096 0
M  V30 3247 N 303.011 1.40521 -0.713556 0
M  V30 3248 C 304.26 2.00155 -0.249192 0
M  V30 3249 C 304.573 1.57224 1.16362 0
M  V30 3250 O 305.779 2.09542 1.72639 0
M  V30 3251 C 304.235 3.5773 -0.3946 0
M  V30 3252 C 303.843 4.09635 -1.81392 0
M  V30 3253 C 305.587 4.24499 0.00907364 0
M  V30 3254 C 303.494 5.59707 -1.91003 0
M  V30 3255 H 302.424 0.74868 -0.0894114 0
M  V30 3256 H 305.075 1.60784 -0.884352 0
M  V30 3257 H 303.457 3.94792 0.30911 0
M  V30 3258 H 304.631 3.83955 -2.54785 0
M  V30 3259 H 302.946 3.55456 -2.16888 0
M  V30 3260 H 305.543 5.34683 -0.0420404 0
M  V30 3261 H 305.886 4.02824 1.05065 0
M  V30 3262 H 306.419 3.92536 -0.645007 0
M  V30 3263 H 303.158 5.86234 -2.93275 0
M  V30 3264 H 302.678 5.87258 -1.22019 0
M  V30 3265 H 304.357 6.24776 -1.6812 0
M  V30 3266 N 304.489 0.459591 1.5075 0
M  V30 3267 C 305.399 -0.34613 2.32033 0
M  V30 3268 C 306.415 -1.00686 1.41909 0
M  V30 3269 O 307.591 -0.997361 1.7497 0
M  V30 3270 C 304.656 -1.42029 3.16273 0
M  V30 3271 C 303.717 -0.777362 4.22203 0
M  V30 3272 C 302.95 -1.80034 5.02418 0
M  V30 3273 O 303.173 -3.02544 4.83553 0
M  V30 3274 O 302.107 -1.37853 5.85901 0
M  V30 3275 H 305.933 0.318054 3.0203 0
M  V30 3276 H 303.518 0.221663 1.47746 0
M  V30 3277 H 305.4 -2.04275 3.68578 0
M  V30 3278 H 304.075 -2.06815 2.49016 0
M  V30 3279 H 302.982 -0.116256 3.73919 0
M  V30 3280 H 304.315 -0.172634 4.91897 0
M  V30 3281 N 305.967 -1.56429 0.191757 0
M  V30 3282 C 306.897 -2.21937 -0.725696 0
M  V30 3283 C 307.878 -1.1814 -1.2238 0
M  V30 3284 O 309.063 -1.46636 -1.27325 0
M  V30 3285 C 306.193 -2.87611 -1.94672 0
M  V30 3286 C 305.147 -3.97623 -1.58366 0
M  V30 3287 C 304.473 -4.50446 -2.88102 0
M  V30 3288 C 305.773 -5.16197 -0.796133 0
M  V30 3289 H 307.467 -2.98861 -0.179606 0
M  V30 3290 H 305.013 -1.43749 -0.0849464 0
M  V30 3291 H 306.966 -3.3212 -2.59373 0
M  V30 3292 H 305.69 -2.08087 -2.51728 0
M  V30 3293 H 304.349 -3.53801 -0.960247 0
M  V30 3294 H 303.997 -3.67688 -3.43241 0
M  V30 3295 H 303.697 -5.24675 -2.64556 0
M  V30 3296 H 305.221 -4.97654 -3.53798 0
M  V30 3297 H 306.635 -5.57271 -1.34618 0
M  V30 3298 H 305.032 -5.96471 -0.658928 0
M  V30 3299 H 306.102 -4.84473 0.203478 0
M  V30 3300 N 307.445 0.0818655 -1.57387 0
M  V30 3301 C 308.856 0.634871 -1.75574 0
M  V30 3302 C 309.207 1.78435 -0.815809 0
M  V30 3303 O 308.332 2.164 0.0025366 0
M  V30 3304 C 308.927 1.15845 -3.18379 0
M  V30 3305 C 307.486 1.65741 -3.37945 0
M  V30 3306 C 306.633 0.572549 -2.71325 0
M  V30 3307 H 309.584 -0.144268 -1.58043 0
M  V30 3308 H 309.605 2.02751 -3.21982 0
M  V30 3309 H 309.117 0.321631 -3.86765 0
M  V30 3310 H 307.218 2.51781 -2.74658 0
M  V30 3311 H 307.331 1.74129 -4.46336 0
M  V30 3312 H 305.695 1.01518 -2.33594 0
M  V30 3313 H 306.478 -0.253918 -3.4236 0
M  V30 3314 N 308.923 1.53595 0.353017 0
M  V30 3315 C 309.855 1.77219 1.45348 0
M  V30 3316 C 310.868 0.65324 1.49119 0
M  V30 3317 O 312.057 0.929775 1.52373 0
M  V30 3318 C 309.157 1.84841 2.84055 0
M  V30 3319 C 308.33 3.14649 3.03833 0
M  V30 3320 C 307.389 3.13351 4.22727 0
M  V30 3321 O 306.415 3.87107 4.17297 0
M  V30 3322 N 307.617 2.35052 5.30783 0
M  V30 3323 H 310.382 2.72178 1.25457 0
M  V30 3324 H 307.943 1.52528 0.542833 0
M  V30 3325 H 309.935 1.81435 3.61751 0
M  V30 3326 H 308.505 0.971114 2.97133 0
M  V30 3327 H 307.725 3.31256 2.13689 0
M  V30 3328 H 309.013 4.00411 3.13925 0
M  V30 3329 H 308.411 1.74663 5.38061 0
M  V30 3330 H 306.968 2.37453 6.07009 0
M  V30 3331 N 310.401 -0.613514 1.45168 0
M  V30 3332 C 311.648 -1.37268 1.48875 0
M  V30 3333 C 311.976 -1.94077 0.128161 0
M  V30 3334 O 311.231 -1.75178 -0.872416 0
M  V30 3335 C 311.53 -2.54347 2.51083 0
M  V30 3336 C 311.196 -2.1572 3.95949 0
M  V30 3337 C 309.858 -2.04899 4.35396 0
M  V30 3338 C 312.21 -1.85485 4.87078 0
M  V30 3339 C 309.538 -1.62057 5.63875 0
M  V30 3340 C 311.89 -1.4413 6.15962 0
M  V30 3341 C 310.554 -1.31863 6.54346 0
M  V30 3342 H 309.824 -0.502299 0.544773 0
M  V30 3343 H 312.471 -0.694021 1.78481 0
M  V30 3344 H 310.776 -3.27524 2.15024 0
M  V30 3345 H 312.473 -3.12577 2.51191 0
M  V30 3346 H 309.063 -2.25066 3.64751 0
M  V30 3347 H 313.247 -1.92745 4.57343 0
M  V30 3348 H 308.503 -1.51177 5.92415 0
M  V30 3349 H 312.677 -1.19778 6.86022 0
M  V30 3350 H 310.304 -0.984392 7.538 0
M  V30 3351 N 311.879 -1.3236 -0.855495 0
M  V30 3352 C 313.104 -1.2601 -1.64731 0
M  V30 3353 C 313.529 0.169068 -1.87339 0
M  V30 3354 O 312.887 1.12016 -1.42556 0
M  V30 3355 C 312.935 -2.02417 -2.98429 0
M  V30 3356 O 312.039 -1.3714 -3.8893 0
M  V30 3357 H 311.38 -0.434325 -0.502253 0
M  V30 3358 H 313.91 -1.74661 -1.06558 0
M  V30 3359 H 313.92 -2.12559 -3.48257 0
M  V30 3360 H 312.595 -3.06343 -2.81295 0
M  V30 3361 H 311.172 -1.3554 -3.47395 0
M  V30 3362 N 313.357 1.07166 -1.15556 0
M  V30 3363 C 314.606 1.79181 -0.926132 0
M  V30 3364 C 314.919 1.87768 0.547967 0
M  V30 3365 O 316.125 2.56323 0.895036 0
M  V30 3366 C 314.581 3.22 -1.60761 0
M  V30 3367 C 314.189 3.21607 -3.11886 0
M  V30 3368 C 315.933 3.9861 -1.4598 0
M  V30 3369 C 313.84 4.59092 -3.72812 0
M  V30 3370 H 312.77 0.67154 -0.342856 0
M  V30 3371 H 315.421 1.2027 -1.3859 0
M  V30 3372 H 313.803 3.81115 -1.07553 0
M  V30 3373 H 314.977 2.72127 -3.71865 0
M  V30 3374 H 313.292 2.58495 -3.2645 0
M  V30 3375 H 315.889 5.00225 -1.88888 0
M  V30 3376 H 316.232 4.143 -0.407541 0
M  V30 3377 H 316.765 3.45996 -1.96295 0
M  V30 3378 H 313.504 4.48606 -4.77946 0
M  V30 3379 H 313.024 5.08803 -3.17616 0
M  V30 3380 H 314.703 5.28059 -3.73848 0
M  V30 3381 N 314.835 0.952656 1.25548 0
M  V30 3382 C 316.081 0.607272 1.93494 0
M  V30 3383 C 316.414 -0.853245 1.74452 0
M  V30 3384 O 315.689 -1.61194 1.08843 0
M  V30 3385 C 315.972 0.96435 3.46947 0
M  V30 3386 C 315.825 2.48045 3.75225 0
M  V30 3387 C 317.144 0.487987 4.37386 0
M  V30 3388 H 314.263 0.222096 0.702739 0
M  V30 3389 H 316.905 1.18895 1.48203 0
M  V30 3390 H 315.055 0.469361 3.85654 0
M  V30 3391 H 316.727 3.04905 3.46166 0
M  V30 3392 H 314.97 2.919 3.209 0
M  V30 3393 H 315.641 2.6808 4.82532 0
M  V30 3394 H 318.117 0.912558 4.0597 0
M  V30 3395 H 316.993 0.766547 5.43521 0
M  V30 3396 H 317.254 -0.612063 4.37843 0
M  V30 3397 N 316.313 -1.40141 0.720998 0
M  V30 3398 C 317.59 -1.94677 0.189757 0
M  V30 3399 C 317.97 -1.65879 -1.30566 0
M  V30 3400 O 317.318 -0.979391 -2.06447 0
M  V30 3401 C 317.528 -3.45279 0.508304 0
M  V30 3402 C 318.876 -4.22209 0.449934 0
M  V30 3403 O 319.9 -3.53413 0.444677 0
M  V30 3404 O 318.759 -5.44788 0.432189 0
M  V30 3405 H 315.853 -0.826459 0.0299026 0
M  V30 3406 H 318.399 -1.49719 0.7989 0
M  V30 3407 H 317.171 -3.59619 1.54239 0
M  V30 3408 H 316.794 -3.97386 -0.130525 0
M  V30 3409 N 317.792 -0.46758 -1.50504 0
M  V30 3410 C 319.022 0.086288 -2.0642 0
M  V30 3411 C 319.43 1.34369 -1.33197 0
M  V30 3412 O 318.773 1.79431 -0.393747 0
M  V30 3413 C 318.835 0.443846 -3.5675 0
M  V30 3414 C 318.499 -0.711035 -4.51435 0
M  V30 3415 C 319.496 -1.59205 -4.94924 0
M  V30 3416 C 317.181 -0.900363 -4.94165 0
M  V30 3417 C 319.175 -2.64683 -5.79846 0
M  V30 3418 C 316.862 -1.95837 -5.7887 0
M  V30 3419 C 317.86 -2.82997 -6.21612 0
M  V30 3420 O 317.548 -3.86977 -7.0463 0
M  V30 3421 H 317.28 -0.00217814 -0.675996 0
M  V30 3422 H 319.834 -0.654346 -1.94698 0
M  V30 3423 H 318.064 1.23762 -3.6636 0
M  V30 3424 H 319.753 0.932386 -3.95046 0
M  V30 3425 H 320.519 -1.45745 -4.62583 0
M  V30 3426 H 316.398 -0.231427 -4.60419 0
M  V30 3427 H 319.942 -3.32745 -6.13128 0
M  V30 3428 H 315.839 -2.09305 -6.10624 0
M  V30 3429 H 316.607 -3.83923 -7.22873 0
M  V30 3430 N 319.27 1.56325 -0.20005 0
M  V30 3431 C 320.217 2.1932 0.718833 0
M  V30 3432 C 321.187 1.14198 1.20615 0
M  V30 3433 O 322.372 1.42469 1.26914 0
M  V30 3434 C 319.512 2.86041 1.93066 0
M  V30 3435 C 318.625 4.05702 1.48425 0
M  V30 3436 C 317.76 4.60266 2.65196 0
M  V30 3437 C 316.799 5.72273 2.17185 0
M  V30 3438 N 315.936 6.21221 3.27152 0
M  V30 3439 H 320.776 2.97486 0.17489 0
M  V30 3440 H 318.313 1.46911 0.0745794 0
M  V30 3441 H 320.271 3.22897 2.64184 0
M  V30 3442 H 318.901 2.1043 2.44783 0
M  V30 3443 H 317.953 3.74475 0.668755 0
M  V30 3444 H 319.265 4.86699 1.09204 0
M  V30 3445 H 318.419 4.99453 3.4443 0
M  V30 3446 H 317.158 3.78386 3.07693 0
M  V30 3447 H 316.163 5.3261 1.36407 0
M  V30 3448 H 317.388 6.55974 1.75713 0
M  V30 3449 H 315.334 5.42263 3.69171 0
M  V30 3450 H 315.251 6.97284 2.92116 0
M  V30 3451 H 316.519 6.65063 4.06585 0
M  V30 3452 N 320.748 -0.0735177 1.57428 0
M  V30 3453 C 321.681 -1.11932 1.98863 0
M  V30 3454 C 322.659 -1.37666 0.865266 0
M  V30 3455 O 323.843 -1.51068 1.12742 0
M  V30 3456 C 320.97 -2.46403 2.32386 0
M  V30 3457 C 320.016 -2.36815 3.54713 0
M  V30 3458 S 320.849 -1.76392 5.05614 0
M  V30 3459 C 322.005 -3.12444 5.42337 0
M  V30 3460 H 322.238 -0.766212 2.87257 0
M  V30 3461 H 319.771 -0.281987 1.51803 0
M  V30 3462 H 321.729 -3.23755 2.52375 0
M  V30 3463 H 320.39 -2.78876 1.44524 0
M  V30 3464 H 319.583 -3.35977 3.7568 0
M  V30 3465 H 319.185 -1.67598 3.34345 0
M  V30 3466 H 321.477 -4.08753 5.40303 0
M  V30 3467 H 322.42 -2.96258 6.43146 0
M  V30 3468 H 322.828 -3.1297 4.69798 0
M  V30 3469 N 322.226 -1.5378 -0.344866 0
M  V30 3470 C 323.472 -1.71216 -1.08687 0
M  V30 3471 C 323.805 -0.473281 -1.88345 0
M  V30 3472 O 323.08 0.52968 -1.87149 0
M  V30 3473 C 323.363 -2.97486 -2.02914 0
M  V30 3474 C 323.216 -4.31579 -1.26727 0
M  V30 3475 C 324.535 -3.19422 -3.0275 0
M  V30 3476 H 321.654 -0.62301 -0.393735 0
M  V30 3477 H 324.296 -1.8645 -0.365563 0
M  V30 3478 H 322.446 -2.84629 -2.64421 0
M  V30 3479 H 324.118 -4.56284 -0.67845 0
M  V30 3480 H 322.361 -4.30049 -0.569273 0
M  V30 3481 H 323.032 -5.16106 -1.95803 0
M  V30 3482 H 325.508 -3.316 -2.51357 0
M  V30 3483 H 324.384 -4.09169 -3.65885 0
M  V30 3484 H 324.645 -2.35656 -3.74057 0
M  V30 3485 N 323.704 0.605807 -1.45491 0
M  V30 3486 C 324.929 1.39625 -1.53361 0
M  V30 3487 C 325.354 1.87351 -0.167645 0
M  V30 3488 O 324.712 1.60243 0.848051 0
M  V30 3489 C 324.76 2.57559 -2.5238 0
M  V30 3490 O 323.864 3.58248 -2.04285 0
M  V30 3491 H 323.205 0.416771 -0.516912 0
M  V30 3492 H 325.735 0.737103 -1.90861 0
M  V30 3493 H 325.745 3.0478 -2.71244 0
M  V30 3494 H 324.42 2.22171 -3.51586 0
M  V30 3495 H 322.997 3.17664 -1.95305 0
M  V30 3496 N 325.182 1.32811 0.848464 0
M  V30 3497 C 326.129 1.22265 1.95755 0
M  V30 3498 C 327.099 0.103413 1.65778 0
M  V30 3499 O 328.284 0.280033 1.88734 0
M  V30 3500 C 325.424 0.958014 3.31536 0
M  V30 3501 C 324.537 2.16262 3.73971 0
M  V30 3502 C 323.672 1.83295 4.98575 0
M  V30 3503 C 322.711 3.00041 5.33518 0
M  V30 3504 N 321.848 2.67125 6.49299 0
M  V30 3505 H 326.688 2.17128 2.04107 0
M  V30 3506 H 324.225 1.07982 0.998913 0
M  V30 3507 H 326.183 0.785052 4.09747 0
M  V30 3508 H 324.813 0.046159 3.22767 0
M  V30 3509 H 323.865 2.44565 2.91362 0
M  V30 3510 H 325.177 3.03572 3.95785 0
M  V30 3511 H 324.331 1.62586 5.84509 0
M  V30 3512 H 323.07 0.932078 4.7871 0
M  V30 3513 H 322.075 3.21374 4.46093 0
M  V30 3514 H 323.3 3.90869 5.55336 0
M  V30 3515 H 321.246 1.79586 6.3094 0
M  V30 3516 H 321.163 3.47965 6.71161 0
M  V30 3517 H 322.431 2.49861 7.3837 0
M  V30 3518 N 326.66 -1.06551 1.16123 0
M  V30 3519 C 327.607 -2.13961 0.865414 0
M  V30 3520 C 328.577 -1.65066 -0.185055 0
M  V30 3521 O 329.762 -1.90732 -0.05083 0
M  V30 3522 C 326.902 -3.43113 0.369776 0
M  V30 3523 C 326.015 -4.05756 1.48276 0
M  V30 3524 C 325.15 -5.22773 0.942414 0
M  V30 3525 C 324.189 -5.77395 2.03179 0
M  V30 3526 N 323.326 -6.85731 1.50721 0
M  V30 3527 H 328.166 -2.38605 1.78527 0
M  V30 3528 H 325.703 -1.17072 0.890646 0
M  V30 3529 H 327.661 -4.17151 0.0640643 0
M  V30 3530 H 326.291 -3.18695 -0.513143 0
M  V30 3531 H 325.343 -3.29292 1.9045 0
M  V30 3532 H 326.655 -4.42351 2.30493 0
M  V30 3533 H 325.809 -6.03827 0.589729 0
M  V30 3534 H 324.548 -4.87618 0.0895191 0
M  V30 3535 H 323.553 -4.94981 2.3932 0
M  V30 3536 H 324.778 -6.14603 2.8886 0
M  V30 3537 H 322.724 -6.52499 0.676811 0
M  V30 3538 H 322.641 -7.21254 2.26557 0
M  V30 3539 H 323.909 -7.7047 1.18303 0
M  V30 3540 N 328.138 -0.959301 -1.25041 0
M  V30 3541 C 329.384 -0.617525 -1.9317 0
M  V30 3542 C 329.717 0.843981 -1.74902 0
M  V30 3543 O 328.992 1.60615 -1.09696 0
M  V30 3544 C 329.275 -0.982736 -3.46431 0
M  V30 3545 C 329.128 -2.50032 -3.73904 0
M  V30 3546 C 330.447 -0.511176 -4.37121 0
M  V30 3547 H 327.566 -0.22582 -0.701552 0
M  V30 3548 H 330.208 -1.19679 -1.4757 0
M  V30 3549 H 328.358 -0.489806 -3.854 0
M  V30 3550 H 330.03 -3.06737 -3.44544 0
M  V30 3551 H 328.273 -2.93598 -3.19348 0
M  V30 3552 H 328.944 -2.70635 -4.81103 0
M  V30 3553 H 331.42 -0.934075 -4.0548 0
M  V30 3554 H 330.296 -0.795361 -5.43107 0
M  V30 3555 H 330.557 0.588834 -4.38161 0
M  V30 3556 N 329.616 1.39756 -0.72842 0
M  V30 3557 C 330.526 2.34444 -0.0855374 0
M  V30 3558 C 331.542 1.57976 0.729356 0
M  V30 3559 O 332.718 1.90301 0.659346 0
M  V30 3560 C 329.783 3.36965 0.815798 0
M  V30 3561 C 328.844 4.29299 -0.0105996 0
M  V30 3562 C 328.077 5.26923 0.84781 0
M  V30 3563 O 328.3 5.30859 2.08673 0
M  V30 3564 O 327.234 6.01249 0.279969 0
M  V30 3565 H 331.06 2.91065 -0.866892 0
M  V30 3566 H 328.645 1.4117 -0.48902 0
M  V30 3567 H 330.527 3.99804 1.33171 0
M  V30 3568 H 329.202 2.82739 1.57608 0
M  V30 3569 H 328.109 3.69703 -0.571877 0
M  V30 3570 H 329.442 4.86712 -0.73295 0
M  V30 3571 N 331.094 0.475555 1.50254 0
M  V30 3572 C 332.341 -0.0778919 2.0235 0
M  V30 3573 C 332.669 -1.39319 1.35722 0
M  V30 3574 O 331.924 -1.89888 0.473395 0
M  V30 3575 C 332.223 -0.305114 3.56095 0
M  V30 3576 C 331.889 0.92903 4.41225 0
M  V30 3577 C 330.551 1.26739 4.6421 0
M  V30 3578 C 332.903 1.75054 4.90923 0
M  V30 3579 C 330.231 2.42724 5.34137 0
M  V30 3580 C 332.583 2.9017 5.62125 0
M  V30 3581 C 331.247 3.24416 5.83362 0
M  V30 3582 H 330.517 -0.0285027 0.740452 0
M  V30 3583 H 333.164 0.630543 1.80821 0
M  V30 3584 H 331.469 -1.09584 3.76163 0
M  V30 3585 H 333.166 -0.747377 3.93974 0
M  V30 3586 H 329.756 0.655428 4.23559 0
M  V30 3587 H 333.94 1.50231 4.73016 0
M  V30 3588 H 329.196 2.69525 5.48786 0
M  V30 3589 H 333.37 3.54169 5.99614 0
M  V30 3590 H 330.997 4.14396 6.37323 0
M  V30 3591 N 332.573 -1.56217 0.208337 0
M  V30 3592 C 333.801 -2.02337 -0.43215 0
M  V30 3593 C 334.216 -1.08834 -1.54275 0
M  V30 3594 O 333.573 -0.0955462 -1.8225 0
M  V30 3595 C 333.624 -3.48072 -0.976138 0
M  V30 3596 O 333.345 -4.38007 0.0901621 0
M  V30 3597 C 334.846 -4.09773 -1.69119 0
M  V30 3598 H 332.066 -0.662385 -0.10718 0
M  V30 3599 H 334.61 -2.01966 0.320923 0
M  V30 3600 H 332.765 -3.49099 -1.67954 0
M  V30 3601 H 333.179 -5.23543 -0.316701 0
M  V30 3602 H 334.653 -5.13556 -2.02397 0
M  V30 3603 H 335.13 -3.53999 -2.59964 0
M  V30 3604 H 335.736 -4.12556 -1.03332 0
M  V30 3605 N 334.051 0.0651679 -1.57465 0
M  V30 3606 C 335.279 0.775808 -1.91804 0
M  V30 3607 C 335.694 1.70782 -0.804916 0
M  V30 3608 O 335.051 1.81153 0.221311 0
M  V30 3609 C 335.102 1.56381 -3.25925 0
M  V30 3610 O 334.823 0.669248 -4.32958 0
M  V30 3611 C 336.324 2.37485 -3.7432 0
M  V30 3612 H 333.544 0.2202 -0.63384 0
M  V30 3613 H 336.088 0.0334587 -2.04473 0
M  V30 3614 H 334.243 2.25837 -3.14764 0
M  V30 3615 H 334.657 1.21801 -5.10162 0
M  V30 3616 H 336.131 2.88223 -4.70778 0
M  V30 3617 H 336.608 3.17307 -3.03666 0
M  V30 3618 H 337.214 1.73173 -3.88447 0
M  V30 3619 N 335.529 1.53961 0.336706 0
M  V30 3620 C 336.777 1.71197 1.07405 0
M  V30 3621 C 337.098 0.481475 1.88962 0
M  V30 3622 O 336.368 -0.504585 1.8929 0
M  V30 3623 H 334.948 0.631185 0.399517 0
M  V30 3624 H 337.61 1.91232 0.376323 0
M  V30 3625 H 336.706 2.58587 1.74755 0
M  V30 3626 N 337.007 -0.598083 1.45811 0
M  V30 3627 C 337.97 -1.69018 1.54808 0
M  V30 3628 C 338.97 -1.55037 0.426652 0
M  V30 3629 O 340.16 -1.59932 0.690456 0
M  V30 3630 C 337.292 -3.0835 1.45371 0
M  V30 3631 H 338.485 -1.62403 2.52121 0
M  V30 3632 H 336.038 -0.814626 1.33392 0
M  V30 3633 H 336.773 -3.20534 0.492793 0
M  V30 3634 H 336.558 -3.19907 2.26721 0
M  V30 3635 H 338.048 -3.8788 1.54721 0
M  V30 3636 N 338.485 -1.33259 -0.841409 0
M  V30 3637 C 339.715 -1.2742 -1.62628 0
M  V30 3638 C 340.123 0.157604 -1.88542 0
M  V30 3639 O 339.466 1.10938 -1.46419 0
M  V30 3640 C 339.528 -1.97797 -3.00194 0
M  V30 3641 C 339.192 -3.47109 -2.97261 0
M  V30 3642 C 340.189 -4.42358 -2.73159 0
M  V30 3643 C 337.874 -3.89247 -3.17478 0
M  V30 3644 C 339.868 -5.77718 -2.69296 0
M  V30 3645 C 337.555 -5.24713 -3.13241 0
M  V30 3646 C 338.553 -6.1876 -2.89181 0
M  V30 3647 O 338.241 -7.51745 -2.84843 0
M  V30 3648 H 337.973 -0.440436 -0.512827 0
M  V30 3649 H 340.527 -1.76153 -1.05638 0
M  V30 3650 H 338.757 -1.43652 -3.59028 0
M  V30 3651 H 340.446 -1.8549 -3.61038 0
M  V30 3652 H 341.212 -4.11127 -2.57294 0
M  V30 3653 H 337.091 -3.16456 -3.35226 0
M  V30 3654 H 340.635 -6.51097 -2.50436 0
M  V30 3655 H 336.532 -5.55569 -3.28654 0
M  V30 3656 H 337.3 -7.61262 -3.00702 0
M  V30 3657 N 339.963 1.05934 -1.16686 0
M  V30 3658 C 341.374 1.60263 -0.957745 0
M  V30 3659 C 341.725 1.89789 0.49745 0
M  V30 3660 O 340.85 1.67401 1.37135 0
M  V30 3661 C 341.445 2.91172 -1.73218 0
M  V30 3662 C 340.004 3.42188 -1.56794 0
M  V30 3663 C 339.151 2.16028 -1.73859 0
M  V30 3664 H 342.102 0.888392 -1.31504 0
M  V30 3665 H 342.123 3.60744 -1.21014 0
M  V30 3666 H 341.635 2.6965 -2.79124 0
M  V30 3667 H 339.736 3.68762 -0.533437 0
M  V30 3668 H 339.849 4.17273 -2.35414 0
M  V30 3669 H 338.213 2.26426 -1.16633 0
M  V30 3670 H 338.996 1.96985 -2.81161 0
M  V30 3671 N 341.441 0.965919 1.2453 0
M  V30 3672 C 342.857 0.67216 1.44756 0
M  V30 3673 C 343.057 -0.766609 1.86347 0
M  V30 3674 O 342.113 -1.5407 2.00047 0
M  V30 3675 C 343.426 1.65473 2.51076 0
M  V30 3676 C 344.974 1.66716 2.64905 0
M  V30 3677 C 345.449 2.63766 3.74421 0
M  V30 3678 N 346.94 2.62198 3.81846 0
M  V30 3679 C 347.675 3.33966 4.66106 0
M  V30 3680 N 347.171 4.15245 5.54566 0
M  V30 3681 N 348.964 3.22799 4.60171 0
M  V30 3682 H 341.115 1.89553 0.958293 0
M  V30 3683 H 343.378 0.815979 0.482579 0
M  V30 3684 H 343.084 2.68296 2.27399 0
M  V30 3685 H 342.958 1.4261 3.49202 0
M  V30 3686 H 345.345 0.646057 2.87941 0
M  V30 3687 H 345.426 1.93642 1.67142 0
M  V30 3688 H 345.07 3.6601 3.52135 0
M  V30 3689 H 345 2.34121 4.71694 0
M  V30 3690 H 347.491 2.032 3.18619 0
M  V30 3691 H 347.804 4.66898 6.15814 0
M  V30 3692 H 346.149 4.1934 5.54237 0
M  V30 3693 H 349.34 2.58764 3.90075 0
M  V30 3694 H 349.513 3.78994 5.25612 0
M  V30 3695 N 342.919 -1.39368 0.735821 0
M  V30 3696 C 343.849 -2.33234 0.111506 0
M  V30 3697 C 344.83 -1.53954 -0.723334 0
M  V30 3698 O 346.015 -1.82344 -0.668147 0
M  V30 3699 C 343.145 -3.38057 -0.795917 0
M  V30 3700 C 342.099 -4.2795 -0.065172 0
M  V30 3701 C 341.425 -5.23479 -1.08967 0
M  V30 3702 C 342.725 -5.10741 1.09273 0
M  V30 3703 H 344.419 -2.85692 0.895571 0
M  V30 3704 H 341.965 -1.37364 0.432109 0
M  V30 3705 H 343.918 -4.02675 -1.24221 0
M  V30 3706 H 342.642 -2.8404 -1.61211 0
M  V30 3707 H 341.301 -3.64813 0.361511 0
M  V30 3708 H 340.949 -4.65758 -1.89944 0
M  V30 3709 H 340.649 -5.84472 -0.605489 0
M  V30 3710 H 342.173 -5.90974 -1.53565 0
M  V30 3711 H 343.587 -5.68699 0.724841 0
M  V30 3712 H 341.984 -5.8088 1.50659 0
M  V30 3713 H 343.054 -4.45525 1.91404 0
M  V30 3714 N 344.397 -0.483516 -1.5 0
M  V30 3715 C 345.622 0.0667119 -2.07293 0
M  V30 3716 C 346.047 1.3164 -1.3436 0
M  V30 3717 O 345.405 1.76945 -0.394987 0
M  V30 3718 C 345.453 0.321126 -3.59167 0
M  V30 3719 O 344.557 1.39927 -3.87936 0
M  V30 3720 H 343.898 -0.0184758 -0.663743 0
M  V30 3721 H 346.428 -0.678125 -1.93035 0
M  V30 3722 H 346.438 0.557906 -4.04168 0
M  V30 3723 H 345.113 -0.592007 -4.11665 0
M  V30 3724 H 343.69 1.14882 -3.54763 0
M  V30 3725 N 345.875 1.56104 -0.216619 0
M  V30 3726 C 346.805 2.23063 0.690296 0
M  V30 3727 C 347.786 1.20072 1.20485 0
M  V30 3728 O 348.971 1.48643 1.24976 0
M  V30 3729 C 346.101 2.90672 1.90072 0
M  V30 3730 C 345.055 4.00092 1.5202 0
M  V30 3731 C 344.381 4.54972 2.80899 0
M  V30 3732 C 345.681 5.17398 0.71391 0
M  V30 3733 H 347.375 2.99109 0.132038 0
M  V30 3734 H 344.921 1.43866 0.0620664 0
M  V30 3735 H 346.874 3.36204 2.54057 0
M  V30 3736 H 345.598 2.12066 2.48386 0
M  V30 3737 H 344.257 3.55283 0.903839 0
M  V30 3738 H 343.905 3.73102 3.37348 0
M  V30 3739 H 343.605 5.28817 2.56176 0
M  V30 3740 H 345.129 5.0322 3.45836 0
M  V30 3741 H 346.543 5.59342 1.25735 0
M  V30 3742 H 344.94 5.97444 0.563951 0
M  V30 3743 H 346.01 4.84088 -0.280527 0
M  V30 3744 N 347.353 -0.0568162 1.57498 0
M  V30 3745 C 348.578 -0.769402 1.92601 0
M  V30 3746 C 349.003 -1.69559 0.814336 0
M  V30 3747 O 348.361 -1.79811 -0.231903 0
M  V30 3748 C 348.409 -1.52634 3.26704 0
M  V30 3749 O 347.513 -2.63797 3.16994 0
M  V30 3750 H 346.854 -0.208909 0.63028 0
M  V30 3751 H 349.384 -0.0205798 2.0459 0
M  V30 3752 H 349.394 -1.90234 3.60936 0
M  V30 3753 H 348.069 -0.846875 4.07186 0
M  V30 3754 H 346.646 -2.28943 2.94346 0
M  V30 3755 N 348.832 -1.54138 -0.328536 0
M  V30 3756 C 350.079 -1.72105 -1.06706 0
M  V30 3757 C 350.407 -0.492111 -1.88171 0
M  V30 3758 O 349.662 0.526153 -1.88494 0
M  V30 3759 C 349.961 -2.9457 -2.02393 0
M  V30 3760 C 349.627 -4.29544 -1.37122 0
M  V30 3761 C 348.289 -4.6624 -1.19052 0
M  V30 3762 C 350.641 -5.1333 -0.902331 0
M  V30 3763 C 347.969 -5.84325 -0.527331 0
M  V30 3764 C 350.321 -6.32094 -0.252988 0
M  V30 3765 C 348.985 -6.67473 -0.0600901 0
M  V30 3766 H 348.255 -0.629775 -0.390466 0
M  V30 3767 H 350.902 -1.88372 -0.34473 0
M  V30 3768 H 349.207 -2.72969 -2.81061 0
M  V30 3769 H 350.904 -3.05665 -2.59557 0
M  V30 3770 H 347.494 -4.0067 -1.52188 0
M  V30 3771 H 351.678 -4.855 -1.02974 0
M  V30 3772 H 346.934 -6.103 -0.366634 0
M  V30 3773 H 351.108 -6.96299 0.118366 0
M  V30 3774 H 348.735 -7.58832 0.455828 0
M  V30 3775 N 350.31 0.590341 -1.46126 0
M  V30 3776 C 351.726 0.912917 -1.30912 0
M  V30 3777 C 351.926 1.99616 -0.274893 0
M  V30 3778 O 350.982 2.50397 0.325197 0
M  V30 3779 C 352.295 1.3375 -2.69317 0
M  V30 3780 C 353.843 1.45077 -2.77348 0
M  V30 3781 C 354.318 1.90904 -4.16317 0
M  V30 3782 N 355.809 1.9811 -4.18696 0
M  V30 3783 C 356.544 2.34828 -5.23109 0
M  V30 3784 N 356.04 2.70393 -6.37856 0
M  V30 3785 N 357.833 2.35317 -5.10473 0
M  V30 3786 H 349.984 -0.125358 -2.1203 0
M  V30 3787 H 352.247 0.00658481 -0.947977 0
M  V30 3788 H 351.953 0.615614 -3.4627 0
M  V30 3789 H 351.827 2.30058 -2.9892 0
M  V30 3790 H 354.214 2.16353 -2.00687 0
M  V30 3791 H 354.295 0.4704 -2.51438 0
M  V30 3792 H 353.939 1.20209 -4.9347 0
M  V30 3793 H 353.869 2.89886 -4.39629 0
M  V30 3794 H 356.36 1.73146 -3.359 0
M  V30 3795 H 356.673 2.97341 -7.13308 0
M  V30 3796 H 355.018 2.68048 -6.41229 0
M  V30 3797 H 358.209 2.0695 -4.19868 0
M  V30 3798 H 358.382 2.63605 -5.9196 0
M  V30 3799 N 351.788 1.33704 0.83433 0
M  V30 3800 C 352.718 1.26967 1.95963 0
M  V30 3801 C 353.699 0.149337 1.69443 0
M  V30 3802 O 354.884 0.339852 1.91203 0
M  V30 3803 C 352.014 1.01275 3.32206 0
M  V30 3804 C 350.968 2.09652 3.73136 0
M  V30 3805 C 350.294 1.69166 5.07235 0
M  V30 3806 C 351.594 3.51372 3.86439 0
M  V30 3807 H 353.288 2.2112 2.01857 0
M  V30 3808 H 350.834 1.06447 0.969793 0
M  V30 3809 H 352.787 0.952106 4.10503 0
M  V30 3810 H 351.511 0.0356203 3.26581 0
M  V30 3811 H 350.17 2.14766 2.97104 0
M  V30 3812 H 349.818 0.701437 4.98085 0
M  V30 3813 H 349.518 2.41694 5.35591 0
M  V30 3814 H 351.042 1.64576 5.88003 0
M  V30 3815 H 352.456 3.48734 4.55036 0
M  V30 3816 H 350.853 4.22425 4.26236 0
M  V30 3817 H 351.923 3.89546 2.88759 0
M  V30 3818 N 353.266 -1.05314 1.17247 0
M  V30 3819 C 354.213 -2.13031 0.888058 0
M  V30 3820 C 355.183 -1.65253 -0.167537 0
M  V30 3821 O 356.368 -1.90775 -0.0305974 0
M  V30 3822 C 353.508 -3.42702 0.406147 0
M  V30 3823 C 352.621 -4.04161 1.52572 0
M  V30 3824 C 351.756 -5.21744 0.997808 0
M  V30 3825 C 350.795 -5.75207 2.09291 0
M  V30 3826 N 349.932 -6.84094 1.57986 0
M  V30 3827 H 354.772 -2.36698 1.81048 0
M  V30 3828 H 352.309 -1.16121 0.903013 0
M  V30 3829 H 354.267 -4.17059 0.108305 0
M  V30 3830 H 352.897 -3.19222 -0.479313 0
M  V30 3831 H 351.949 -3.27253 1.93931 0
M  V30 3832 H 353.261 -4.39881 2.35172 0
M  V30 3833 H 352.415 -6.03168 0.653739 0
M  V30 3834 H 351.154 -4.87495 0.141232 0
M  V30 3835 H 350.159 -4.92414 2.44557 0
M  V30 3836 H 351.384 -6.11505 2.95362 0
M  V30 3837 H 349.33 -6.51745 0.74598 0
M  V30 3838 H 349.247 -7.18811 2.34195 0
M  V30 3839 H 350.515 -7.69172 1.26468 0
M  V30 3840 N 354.744 -0.972509 -1.24016 0
M  V30 3841 C 356.16 -0.679827 -1.44397 0
M  V30 3842 C 356.36 0.756716 -1.86751 0
M  V30 3843 O 355.416 1.53007 -2.00861 0
M  V30 3844 C 356.729 -1.66803 -2.50195 0
M  V30 3845 C 358.277 -1.68119 -2.64017 0
M  V30 3846 C 358.752 -2.65748 -3.73017 0
M  V30 3847 N 360.243 -2.64219 -3.8045 0
M  V30 3848 C 360.978 -3.36433 -4.64328 0
M  V30 3849 N 360.474 -4.1818 -5.52356 0
M  V30 3850 N 362.267 -3.25235 -4.58453 0
M  V30 3851 H 354.418 -1.90059 -0.948228 0
M  V30 3852 H 356.681 -0.818527 -0.478245 0
M  V30 3853 H 356.387 -2.69498 -2.25973 0
M  V30 3854 H 356.261 -1.4446 -3.48441 0
M  V30 3855 H 358.648 -0.661319 -2.87594 0
M  V30 3856 H 358.729 -1.94525 -1.66113 0
M  V30 3857 H 358.373 -3.67872 -3.50189 0
M  V30 3858 H 358.303 -2.36619 -4.70446 0
M  V30 3859 H 360.794 -2.04887 -3.17537 0
M  V30 3860 H 361.107 -4.70157 -6.13329 0
M  V30 3861 H 359.452 -4.22273 -5.52006 0
M  V30 3862 H 362.643 -2.60829 -3.88698 0
M  V30 3863 H 362.816 -3.81776 -5.23594 0
M  V30 3864 N 356.222 1.38976 -0.743202 0
M  V30 3865 C 357.17 2.32394 -0.0978389 0
M  V30 3866 C 358.164 1.53486 0.716824 0
M  V30 3867 O 359.37 1.69092 0.617088 0
M  V30 3868 H 355.745 0.75189 -0.0128402 0
M  V30 3869 H 357.716 2.84441 -0.901981 0
M  V30 3870 C 356.465 3.38629 0.789036 0
M  V30 3871 H 355.788 3.99432 0.171559 0
M  V30 3872 H 357.228 4.06426 1.20807 0
M  V30 3873 C 355.687 2.76347 1.92702 0
M  V30 3874 O 356.217 2.64836 3.02034 0
M  V30 3875 N 354.423 2.34311 1.71891 0
M  V30 3876 H 353.97 2.43873 0.829675 0
M  V30 3877 H 353.928 1.9298 2.48205 0
M  V30 3878 N 357.7 0.491464 1.49741 0
M  V30 3879 C 358.949 -0.0582189 2.01616 0
M  V30 3880 C 359.262 -1.38927 1.3769 0
M  V30 3881 O 360.468 -2.02509 1.80838 0
M  V30 3882 C 358.924 -0.154235 3.59569 0
M  V30 3883 C 358.532 1.1696 4.32463 0
M  V30 3884 C 360.276 -0.65479 4.1942 0
M  V30 3885 C 358.183 1.03627 5.8225 0
M  V30 3886 H 357.113 -0.0255317 0.753568 0
M  V30 3887 H 359.764 0.629445 1.72367 0
M  V30 3888 H 358.146 -0.906138 3.85493 0
M  V30 3889 H 359.32 1.93405 4.18248 0
M  V30 3890 H 357.635 1.60285 3.84315 0
M  V30 3891 H 360.232 -0.771903 5.29099 0
M  V30 3892 H 360.575 -1.65127 3.8215 0
M  V30 3893 H 361.108 0.040304 3.9778 0
M  V30 3894 H 357.847 2.00672 6.24028 0
M  V30 3895 H 357.367 0.312546 5.98985 0
M  V30 3896 H 359.046 0.711114 6.4308 0
M  V30 3897 N 359.178 -1.55987 0.224894 0
M  V30 3898 C 360.426 -1.97998 -0.405099 0
M  V30 3899 C 360.747 -1.11387 -1.60056 0
M  V30 3900 O 360.017 -0.191645 -1.9496 0
M  V30 3901 H 358.597 -0.731235 -0.152658 0
M  V30 3902 H 361.259 -1.92279 0.318567 0
M  V30 3903 H 360.355 -3.03463 -0.729167 0
M  V30 3904 N 360.656 0.0484629 -1.57525 0
M  V30 3905 C 361.886 0.754326 -1.92337 0
M  V30 3906 C 362.294 1.70443 -0.82132 0
M  V30 3907 O 361.637 1.82466 0.21254 0
M  V30 3908 C 361.699 1.58231 -3.22805 0
M  V30 3909 C 361.363 0.799074 -4.4996 0
M  V30 3910 C 362.36 0.1079 -5.19788 0
M  V30 3911 C 360.045 0.759345 -4.96527 0
M  V30 3912 C 362.039 -0.612516 -6.3445 0
M  V30 3913 C 359.726 0.0351713 -6.1109 0
M  V30 3914 C 360.724 -0.649537 -6.79904 0
M  V30 3915 O 360.412 -1.36199 -7.92278 0
M  V30 3916 H 360.144 0.218257 -0.639797 0
M  V30 3917 H 362.698 0.0159295 -2.05394 0
M  V30 3918 H 360.928 2.36406 -3.06021 0
M  V30 3919 H 362.617 2.16898 -3.43089 0
M  V30 3920 H 363.383 0.129748 -4.84826 0
M  V30 3921 H 359.262 1.28177 -4.42822 0
M  V30 3922 H 362.806 -1.14751 -6.88097 0
M  V30 3923 H 358.703 0.0113314 -6.45499 0
M  V30 3924 H 359.471 -1.27366 -8.0853 0
M  V30 3925 N 362.134 1.5431 0.320358 0
M  V30 3926 C 363.381 1.72668 1.05792 0
M  V30 3927 C 363.709 0.502084 1.87908 0
M  V30 3928 O 362.964 -0.516149 1.88771 0
M  V30 3929 C 363.263 2.95639 2.00828 0
M  V30 3930 C 362.929 4.30265 1.34843 0
M  V30 3931 C 361.591 4.66865 1.16578 0
M  V30 3932 C 363.943 5.13801 0.875095 0
M  V30 3933 C 361.271 5.84597 0.496336 0
M  V30 3934 C 363.623 6.32219 0.219463 0
M  V30 3935 C 362.287 6.67495 0.0246915 0
M  V30 3936 H 361.557 0.631837 0.387121 0
M  V30 3937 H 364.204 1.88552 0.334735 0
M  V30 3938 H 362.509 2.74456 2.79609 0
M  V30 3939 H 364.206 3.07038 2.57932 0
M  V30 3940 H 360.796 4.01472 1.50061 0
M  V30 3941 H 364.98 4.86039 1.00398 0
M  V30 3942 H 360.236 6.10486 0.334264 0
M  V30 3943 H 364.41 6.96227 -0.155291 0
M  V30 3944 H 362.037 7.5858 -0.496065 0
M  V30 3945 N 363.613 -0.582584 1.46437 0
M  V30 3946 C 364.862 -1.337 1.5102 0
M  V30 3947 C 365.175 -1.94891 0.166359 0
M  V30 3948 O 366.381 -2.71351 0.0899954 0
M  V30 3949 C 364.837 -2.42315 2.66104 0
M  V30 3950 C 364.445 -1.87427 4.06909 0
M  V30 3951 C 366.189 -3.19099 2.79958 0
M  V30 3952 C 364.096 -2.93672 5.13333 0
M  V30 3953 H 363.026 -0.502619 0.562041 0
M  V30 3954 H 365.677 -0.621701 1.72647 0
M  V30 3955 H 364.059 -3.16645 2.37807 0
M  V30 3956 H 365.233 -1.19639 4.44998 0
M  V30 3957 H 363.548 -1.2331 3.97723 0
M  V30 3958 H 366.145 -3.9839 3.56636 0
M  V30 3959 H 366.488 -3.71695 1.87479 0
M  V30 3960 H 367.021 -2.51875 3.07902 0
M  V30 3961 H 363.76 -2.45962 6.07604 0
M  V30 3962 H 363.28 -3.59948 4.79789 0
M  V30 3963 H 364.959 -3.5762 5.39182 0
M  V30 3964 N 365.091 -1.34144 -0.827227 0
M  V30 3965 C 366.021 -1.28005 -1.95287 0
M  V30 3966 C 367.002 -0.158321 -1.69362 0
M  V30 3967 O 368.187 -0.349987 -1.9102 0
M  V30 3968 C 365.317 -1.03036 -3.31664 0
M  V30 3969 C 364.271 -2.11628 -3.72019 0
M  V30 3970 C 363.597 -1.71854 -5.0633 0
M  V30 3971 C 364.897 -3.53417 -3.8457 0
M  V30 3972 H 366.591 -2.22187 -2.00682 0
M  V30 3973 H 364.137 -1.0696 -0.964135 0
M  V30 3974 H 366.09 -0.973863 -4.09993 0
M  V30 3975 H 364.814 -0.0529391 -3.26557 0
M  V30 3976 H 363.473 -2.16339 -2.95961 0
M  V30 3977 H 363.121 -0.727841 -4.97706 0
M  V30 3978 H 362.821 -2.44531 -5.34302 0
M  V30 3979 H 364.345 -1.67692 -5.87122 0
M  V30 3980 H 365.759 -3.51142 -4.5318 0
M  V30 3981 H 364.156 -4.24679 -4.2399 0
M  V30 3982 H 365.226 -3.91072 -2.86689 0
M  V30 3983 N 366.569 1.04691 -1.17803 0
M  V30 3984 C 367.501 2.12571 -0.857097 0
M  V30 3985 C 368.514 1.62174 0.142647 0
M  V30 3986 O 369.703 1.78301 -0.0843387 0
M  V30 3987 C 366.803 3.37915 -0.258216 0
M  V30 3988 C 365.976 4.1757 -1.30207 0
M  V30 3989 C 365.035 5.2125 -0.720029 0
M  V30 3990 O 364.061 5.51888 -1.39314 0
M  V30 3991 N 365.263 5.78466 0.485507 0
M  V30 3992 H 368.028 2.40698 -1.78562 0
M  V30 3993 H 365.589 1.20831 -1.07757 0
M  V30 3994 H 367.581 4.04442 0.144584 0
M  V30 3995 H 366.151 3.07281 0.574199 0
M  V30 3996 H 365.371 3.46458 -1.88043 0
M  V30 3997 H 366.659 4.67586 -2.00601 0
M  V30 3998 H 366.057 5.55866 1.05022 0
M  V30 3999 H 364.614 6.4649 0.830307 0
M  V30 4000 N 368.047 0.979072 1.23499 0
M  V30 4001 C 369.275 0.665202 1.95915 0
M  V30 4002 C 369.69 -0.767571 1.72493 0
M  V30 4003 O 369.047 -1.51635 1.01554 0
M  V30 4004 C 369.098 0.944438 3.48945 0
M  V30 4005 O 368.819 2.3209 3.71572 0
M  V30 4006 C 370.32 0.646336 4.38563 0
M  V30 4007 H 367.54 0.247218 0.623798 0
M  V30 4008 H 370.084 1.31009 1.57025 0
M  V30 4009 H 368.239 0.345575 3.85856 0
M  V30 4010 H 368.653 2.40957 4.65876 0
M  V30 4011 H 370.127 0.892091 5.44744 0
M  V30 4012 H 370.604 -0.419575 4.37191 0
M  V30 4013 H 371.21 1.22562 4.07258 0
M  V30 4014 N 369.525 -1.3858 0.750561 0
M  V30 4015 C 370.755 -2.04175 0.31564 0
M  V30 4016 C 371.163 -1.56726 -1.05989 0
M  V30 4017 O 370.506 -0.734225 -1.68389 0
M  V30 4018 C 370.568 -3.58585 0.256389 0
M  V30 4019 C 370.232 -4.29077 1.57296 0
M  V30 4020 C 371.229 -4.54656 2.52159 0
M  V30 4021 C 368.914 -4.67324 1.84156 0
M  V30 4022 C 370.908 -5.17512 3.72103 0
M  V30 4023 C 368.595 -5.29905 3.04374 0
M  V30 4024 C 369.593 -5.54933 3.98168 0
M  V30 4025 O 369.281 -6.16212 5.16273 0
M  V30 4026 H 369.013 -0.662742 0.133226 0
M  V30 4027 H 371.567 -1.78313 1.01948 0
M  V30 4028 H 369.797 -3.83406 -0.503677 0
M  V30 4029 H 371.486 -4.05628 -0.148612 0
M  V30 4030 H 372.252 -4.25539 2.32683 0
M  V30 4031 H 368.131 -4.47191 1.11988 0
M  V30 4032 H 371.675 -5.36963 4.45327 0
M  V30 4033 H 367.572 -5.58444 3.23745 0
M  V30 4034 H 368.34 -6.34701 5.16815 0
M  V30 4035 N 371.003 -0.499398 -1.49478 0
M  V30 4036 C 371.936 0.326491 -2.25852 0
M  V30 4037 C 372.914 0.971776 -1.30366 0
M  V30 4038 O 374.098 1.00219 -1.59651 0
M  V30 4039 C 371.225 1.45969 -3.05632 0
M  V30 4040 C 370.271 0.928938 -4.16261 0
M  V30 4041 S 371.104 -0.179012 -5.35201 0
M  V30 4042 C 372.26 0.957389 -6.18534 0
M  V30 4043 H 372.493 -0.321746 -2.95554 0
M  V30 4044 H 370.026 -0.284674 -1.51753 0
M  V30 4045 H 371.984 2.109 -3.52181 0
M  V30 4046 H 370.645 2.07953 -2.35402 0
M  V30 4047 H 369.838 1.77813 -4.71592 0
M  V30 4048 H 369.44 0.356869 -3.72293 0
M  V30 4049 H 371.732 1.86296 -6.51383 0
M  V30 4050 H 372.675 0.442733 -7.06715 0
M  V30 4051 H 373.083 1.224 -5.5107 0
M  V30 4052 N 372.481 1.55866 -0.233164 0
M  V30 4053 C 373.892 1.847 0.272554 0
M  V30 4054 C 374.243 1.15477 1.58617 0
M  V30 4055 O 373.368 0.42841 2.12117 0
M  V30 4056 C 373.963 3.35071 0.501299 0
M  V30 4057 C 372.522 3.6418 0.951304 0
M  V30 4058 C 371.669 2.77292 0.0208209 0
M  V30 4059 H 374.62 1.52005 -0.456074 0
M  V30 4060 H 374.641 3.55906 1.34577 0
M  V30 4061 H 374.153 3.85424 -0.454936 0
M  V30 4062 H 372.254 3.19293 1.92049 0
M  V30 4063 H 372.367 4.72071 0.817675 0
M  V30 4064 H 370.731 2.49131 0.529723 0
M  V30 4065 H 371.514 3.30448 -0.93054 0
M  V30 4066 N 373.959 -0.0401083 1.57549 0
M  V30 4067 C 375.184 -0.748931 1.93406 0
M  V30 4068 C 375.609 -1.68686 0.832274 0
M  V30 4069 O 374.967 -1.80047 -0.212818 0
M  V30 4070 C 375.015 -1.4916 3.28304 0
M  V30 4071 O 374.119 -2.6042 3.19774 0
M  V30 4072 H 373.46 -0.202212 0.63246 0
M  V30 4073 H 375.99 0.00112086 2.046 0
M  V30 4074 H 376 -1.86395 3.62934 0
M  V30 4075 H 374.675 -0.80364 4.08062 0
M  V30 4076 H 373.252 -2.25808 2.96758 0
M  V30 4077 N 375.437 -1.54477 -0.31217 0
M  V30 4078 C 376.665 -1.77205 -1.068 0
M  V30 4079 C 377.08 -0.526114 -1.81321 0
M  V30 4080 O 376.437 0.503647 -1.75413 0
M  V30 4081 C 376.488 -2.97253 -2.05725 0
M  V30 4082 O 376.209 -4.1703 -1.34228 0
M  V30 4083 C 377.71 -3.32281 -2.93435 0
M  V30 4084 H 374.93 -0.591287 -0.317208 0
M  V30 4085 H 377.474 -2.01398 -0.354834 0
M  V30 4086 H 375.629 -2.753 -2.72559 0
M  V30 4087 H 376.043 -4.84636 -2.00571 0
M  V30 4088 H 377.517 -4.19551 -3.58721 0
M  V30 4089 H 377.994 -2.49945 -3.61143 0
M  V30 4090 H 378.6 -3.56353 -2.32147 0
M  V30 4091 N 376.915 0.57481 -1.46744 0
M  V30 4092 C 377.845 1.69337 -1.60771 0
M  V30 4093 C 378.826 1.63825 -0.457736 0
M  V30 4094 O 380.011 1.8172 -0.684947 0
M  V30 4095 C 377.141 3.0798 -1.60517 0
M  V30 4096 C 376.095 3.28327 -2.74564 0
M  V30 4097 C 375.421 4.67578 -2.59373 0
M  V30 4098 C 376.721 3.15398 -4.16319 0
M  V30 4099 H 378.415 1.57853 -2.54407 0
M  V30 4100 H 375.961 0.75799 -1.22436 0
M  V30 4101 H 377.914 3.86061 -1.68923 0
M  V30 4102 H 376.638 3.20381 -0.634305 0
M  V30 4103 H 375.297 2.52649 -2.65639 0
M  V30 4104 H 374.945 4.76755 -1.60353 0
M  V30 4105 H 374.645 4.82144 -3.35873 0
M  V30 4106 H 376.169 5.47817 -2.69682 0
M  V30 4107 H 377.583 3.83315 -4.26313 0
M  V30 4108 H 375.98 3.41482 -4.93468 0
M  V30 4109 H 377.05 2.12372 -4.3592 0
M  V30 4110 N 378.394 1.34581 0.820102 0
M  V30 4111 C 379.643 1.26437 1.57151 0
M  V30 4112 C 379.956 -0.163111 1.94919 0
M  V30 4113 O 381.162 -0.366722 2.69012 0
M  V30 4114 C 379.618 2.21658 2.83541 0
M  V30 4115 C 379.226 3.69679 2.53065 0
M  V30 4116 C 380.97 2.22428 3.61561 0
M  V30 4117 C 378.877 4.56761 3.75664 0
M  V30 4118 H 377.807 0.469707 0.589823 0
M  V30 4119 H 380.458 1.59763 0.902656 0
M  V30 4120 H 378.84 1.81287 3.52067 0
M  V30 4121 H 380.014 4.18605 1.92631 0
M  V30 4122 H 378.329 3.71384 1.88316 0
M  V30 4123 H 380.926 2.8471 4.52597 0
M  V30 4124 H 381.269 1.22434 3.97889 0
M  V30 4125 H 381.802 2.61259 2.99981 0
M  V30 4126 H 378.541 5.57702 3.44454 0
M  V30 4127 H 378.061 4.12568 4.35371 0
M  V30 4128 H 379.74 4.71509 4.43044 0
M  V30 4129 N 379.872 -1.04064 1.18357 0
M  V30 4130 C 381.1 -1.80916 1.00384 0
M  V30 4131 C 381.515 -1.83414 -0.447738 0
M  V30 4132 O 380.872 -1.26962 -1.31099 0
M  V30 4133 C 380.923 -3.26516 1.55144 0
M  V30 4134 O 380.644 -3.2424 2.94618 0
M  V30 4135 C 382.145 -4.20013 1.41789 0
M  V30 4136 H 379.365 -0.569728 0.354474 0
M  V30 4137 H 381.909 -1.31151 1.56906 0
M  V30 4138 H 380.064 -3.73512 1.02798 0
M  V30 4139 H 380.478 -4.15452 3.20156 0
M  V30 4140 H 381.952 -5.20111 1.84901 0
M  V30 4141 H 382.429 -4.37667 0.36661 0
M  V30 4142 H 383.035 -3.78881 1.93207 0
M  V30 4143 N 381.35 -0.985608 -1.22978 0
M  V30 4144 C 382.599 -0.652881 -1.90841 0
M  V30 4145 C 382.912 0.817842 -1.77681 0
M  V30 4146 O 384.118 1.26185 -2.40395 0
M  V30 4147 C 382.574 -1.11717 -3.42122 0
M  V30 4148 C 382.182 -2.6126 -3.63933 0
M  V30 4149 C 383.926 -0.85843 -4.1573 0
M  V30 4150 C 381.833 -3.0133 -5.08876 0
M  V30 4151 H 380.763 -0.240491 -0.714619 0
M  V30 4152 H 383.414 -1.1942 -1.39324 0
M  V30 4153 H 381.796 -0.504027 -3.92779 0
M  V30 4154 H 382.97 -3.27858 -3.23799 0
M  V30 4155 H 381.285 -2.84937 -3.03644 0
M  V30 4156 H 383.882 -1.13359 -5.22546 0
M  V30 4157 H 384.225 0.205461 -4.15793 0
M  V30 4158 H 384.758 -1.43341 -3.71077 0
M  V30 4159 H 381.497 -4.06864 -5.13947 0
M  V30 4160 H 381.017 -2.3943 -5.49939 0
M  V30 4161 H 382.696 -2.92224 -5.77247 0
M  V30 4162 N 382.828 1.3818 -0.7579 0
M  V30 4163 C 383.758 2.33027 -0.148597 0
M  V30 4164 C 384.739 1.55085 0.69875 0
M  V30 4165 O 385.924 1.83384 0.639053 0
M  V30 4166 C 383.054 3.3928 0.742034 0
M  V30 4167 C 382.008 4.28 -0.00291946 0
M  V30 4168 C 381.334 5.25146 1.00625 0
M  V30 4169 C 382.634 5.08938 -1.17385 0
M  V30 4170 H 384.328 2.84231 -0.940909 0
M  V30 4171 H 381.874 1.36659 -0.453908 0
M  V30 4172 H 383.827 4.046 1.17799 0
M  V30 4173 H 382.551 2.86569 1.56671 0
M  V30 4174 H 381.21 3.64192 -0.419504 0
M  V30 4175 H 380.858 4.68721 1.8251 0
M  V30 4176 H 380.558 5.85361 0.512428 0
M  V30 4177 H 382.082 5.93342 1.44143 0
M  V30 4178 H 383.496 5.67474 -0.815224 0
M  V30 4179 H 381.893 5.7841 -1.59882 0
M  V30 4180 H 382.963 4.42424 -1.98468 0
M  V30 4181 N 384.306 0.507319 1.49211 0
M  V30 4182 C 385.531 -0.033725 2.07373 0
M  V30 4183 C 385.956 -1.29485 1.36437 0
M  V30 4184 O 385.314 -1.76294 0.423087 0
M  V30 4185 C 385.362 -0.263945 3.59633 0
M  V30 4186 O 384.466 -1.33737 3.90113 0
M  V30 4187 H 383.807 0.0290331 0.663365 0
M  V30 4188 H 386.337 0.708749 1.91932 0
M  V30 4189 H 386.347 -0.493536 4.05004 0
M  V30 4190 H 385.022 0.657424 4.10671 0
M  V30 4191 H 383.599 -1.09224 3.56545 0
M  V30 4192 N 385.784 -1.5574 0.241426 0
M  V30 4193 C 387.03 -1.99846 -0.378555 0
M  V30 4194 C 387.385 -1.12665 -1.55963 0
M  V30 4195 O 386.678 -0.180966 -1.90743 0
M  V30 4196 C 386.872 -3.47308 -0.843317 0
M  V30 4197 C 386.701 -4.48756 0.291178 0
M  V30 4198 C 385.471 -4.9949 0.764077 0
M  V30 4199 C 387.669 -5.02039 1.11631 0
M  V30 4200 N 385.651 -5.84676 1.87156 0
M  V30 4201 C 387.022 -5.84343 2.07226 0
M  V30 4202 C 389.077 -4.84354 1.15349 0
M  V30 4203 C 387.78 -6.50851 3.06245 0
M  V30 4204 C 389.806 -5.51636 2.13195 0
M  V30 4205 C 389.168 -6.33724 3.07528 0
M  V30 4206 H 385.267 -0.774968 -0.104634 0
M  V30 4207 H 387.851 -1.91385 0.357751 0
M  V30 4208 H 386.022 -3.56178 -1.54893 0
M  V30 4209 H 387.754 -3.78299 -1.43779 0
M  V30 4210 H 384.509 -4.72311 0.349175 0
M  V30 4211 H 384.933 -6.31967 2.42789 0
M  V30 4212 H 389.575 -4.20525 0.438057 0
M  V30 4213 H 387.293 -7.1385 3.78739 0
M  V30 4214 H 390.879 -5.39909 2.16771 0
M  V30 4215 H 389.759 -6.84867 3.82003 0
M  V30 4216 N 387.262 0.0317525 -1.57568 0
M  V30 4217 C 388.508 0.724175 -1.8943 0
M  V30 4218 C 388.841 1.75149 -0.838836 0
M  V30 4219 O 388.116 1.93948 0.146422 0
M  V30 4220 C 388.399 1.39615 -3.31933 0
M  V30 4221 C 388.252 0.382537 -4.4817 0
M  V30 4222 C 389.571 2.33084 -3.73309 0
M  V30 4223 H 386.69 0.261797 -0.688935 0
M  V30 4224 H 389.332 -0.013017 -1.89996 0
M  V30 4225 H 387.482 2.02451 -3.31581 0
M  V30 4226 H 389.154 -0.243689 -4.60656 0
M  V30 4227 H 387.397 -0.29844 -4.32772 0
M  V30 4228 H 388.068 0.891145 -5.44759 0
M  V30 4229 H 390.544 1.80295 -3.7501 0
M  V30 4230 H 389.42 2.77084 -4.73831 0
M  V30 4231 H 389.681 3.19643 -3.05419 0
M  V30 4232 N 388.74 1.54641 0.303973 0
M  V30 4233 C 389.965 1.78092 1.06292 0
M  V30 4234 C 390.39 0.537342 1.80262 0
M  V30 4235 O 389.748 -0.511993 1.7392 0
M  V30 4236 C 389.796 2.98612 2.02147 0
M  V30 4237 O 388.9 2.71528 3.10397 0
M  V30 4238 H 388.241 0.589548 0.305497 0
M  V30 4239 H 390.771 2.01716 0.3423 0
M  V30 4240 H 390.781 3.265 2.44667 0
M  V30 4241 H 389.456 3.88785 1.47714 0
M  V30 4242 H 388.033 2.54648 2.72413 0
M  V30 4243 N 390.218 -0.567019 1.47046 0
M  V30 4244 C 391.465 -1.32462 1.53167 0
M  V30 4245 C 391.793 -1.93571 0.189841 0
M  V30 4246 O 391.048 -1.77865 -0.816243 0
M  V30 4247 C 391.347 -2.4623 2.59047 0
M  V30 4248 C 391.013 -2.03014 4.02612 0
M  V30 4249 C 389.675 -1.90944 4.41694 0
M  V30 4250 C 392.027 -1.69895 4.92732 0
M  V30 4251 C 389.355 -1.44035 5.68745 0
M  V30 4252 C 391.707 -1.2446 6.20236 0
M  V30 4253 C 390.371 -1.10979 6.5821 0
M  V30 4254 H 389.641 -0.484713 0.560477 0
M  V30 4255 H 392.288 -0.636888 1.80599 0
M  V30 4256 H 390.593 -3.20517 2.25335 0
M  V30 4257 H 392.29 -3.04427 2.61008 0
M  V30 4258 H 388.88 -2.13348 3.71726 0
M  V30 4259 H 393.064 -1.78098 4.63244 0
M  V30 4260 H 388.32 -1.32254 5.96925 0
M  V30 4261 H 392.494 -0.978924 6.89485 0
M  V30 4262 H 390.121 -0.744078 7.5655 0
M  V30 4263 N 391.696 -1.35014 -0.812953 0
M  V30 4264 C 392.942 -1.29129 -1.57154 0
M  V30 4265 C 393.297 0.134922 -1.91926 0
M  V30 4266 O 392.59 1.08373 -1.58006 0
M  V30 4267 C 392.784 -2.12524 -2.87347 0
M  V30 4268 C 392.613 -3.6311 -2.65294 0
M  V30 4269 C 391.383 -4.32363 -2.61516 0
M  V30 4270 C 393.581 -4.56897 -2.36114 0
M  V30 4271 N 391.563 -5.68735 -2.31113 0
M  V30 4272 C 392.934 -5.81345 -2.15494 0
M  V30 4273 C 394.989 -4.45706 -2.21925 0
M  V30 4274 C 393.692 -6.95862 -1.82122 0
M  V30 4275 C 395.718 -5.60066 -1.89948 0
M  V30 4276 C 395.08 -6.83539 -1.7016 0
M  V30 4277 H 391.179 -0.527764 -0.577052 0
M  V30 4278 H 393.763 -1.6983 -0.952146 0
M  V30 4279 H 391.934 -1.74104 -3.47192 0
M  V30 4280 H 393.666 -1.98207 -3.5284 0
M  V30 4281 H 390.421 -3.84907 -2.75941 0
M  V30 4282 H 390.845 -6.40694 -2.18724 0
M  V30 4283 H 395.487 -3.50855 -2.35925 0
M  V30 4284 H 393.205 -7.90685 -1.6686 0
M  V30 4285 H 396.791 -5.53357 -1.79687 0
M  V30 4286 H 395.671 -7.70531 -1.45777 0
M  V30 4287 N 393.175 1.03435 -1.18907 0
M  V30 4288 C 394.424 1.76143 -0.982669 0
M  V30 4289 C 394.737 1.89416 0.487953 0
M  V30 4290 O 395.943 2.59041 0.813036 0
M  V30 4291 C 394.399 3.16722 -1.70924 0
M  V30 4292 C 394.007 3.11522 -3.21959 0
M  V30 4293 C 395.751 3.93764 -1.58588 0
M  V30 4294 C 393.658 4.46999 -3.87228 0
M  V30 4295 H 392.588 0.660292 -0.364047 0
M  V30 4296 H 395.239 1.158 -1.42347 0
M  V30 4297 H 393.621 3.775 -1.19623 0
M  V30 4298 H 394.795 2.60158 -3.80335 0
M  V30 4299 H 393.11 2.47978 -3.34508 0
M  V30 4300 H 395.707 4.93963 -2.04707 0
M  V30 4301 H 396.05 4.12794 -0.539142 0
M  V30 4302 H 396.583 3.39576 -2.07203 0
M  V30 4303 H 393.322 4.33174 -4.91976 0
M  V30 4304 H 392.842 4.98441 -3.33642 0
M  V30 4305 H 394.521 5.15898 -3.90459 0
M  V30 4306 N 394.653 0.992116 1.22453 0
M  V30 4307 C 395.601 0.534644 2.26372 0
M  V30 4308 C 396.595 -0.414293 1.64256 0
M  V30 4309 O 397.801 -0.286899 1.77699 0
M  V30 4310 H 394.176 0.154502 0.735957 0
M  V30 4311 H 396.147 1.42256 2.62309 0
M  V30 4312 C 394.896 -0.135815 3.47435 0
M  V30 4313 H 394.219 0.585311 3.95492 0
M  V30 4314 H 395.659 -0.419374 4.21921 0
M  V30 4315 C 394.118 -1.37089 3.07747 0
M  V30 4316 O 394.648 -2.46629 3.17076 0
M  V30 4317 N 392.854 -1.24585 2.62539 0
M  V30 4318 H 392.401 -0.354542 2.55149 0
M  V30 4319 H 392.359 -2.07327 2.36353 0
M  V30 4320 N 396.131 -1.37776 0.765217 0
M  V30 4321 C 397.361 -2.03828 0.337277 0
M  V30 4322 C 397.769 -1.57841 -1.04321 0
M  V30 4323 O 397.112 -0.752043 -1.67601 0
M  V30 4324 C 397.174 -3.58292 0.294407 0
M  V30 4325 C 396.838 -4.27384 1.61838 0
M  V30 4326 C 397.835 -4.51956 2.56967 0
M  V30 4327 C 395.52 -4.65345 1.89102 0
M  V30 4328 C 397.514 -5.13536 3.77571 0
M  V30 4329 C 395.201 -5.26647 3.09978 0
M  V30 4330 C 396.199 -5.50679 4.04032 0
M  V30 4331 O 395.887 -6.10702 5.2278 0
M  V30 4332 H 395.619 -0.661292 0.140248 0
M  V30 4333 H 398.173 -1.77222 1.03834 0
M  V30 4334 H 396.403 -3.83918 -0.462983 0
M  V30 4335 H 398.092 -4.05763 -0.105581 0
M  V30 4336 H 398.858 -4.23048 2.37183 0
M  V30 4337 H 394.737 -4.45978 1.16725 0
M  V30 4338 H 398.281 -5.3221 4.50997 0
M  V30 4339 H 394.178 -5.54979 3.29649 0
M  V30 4340 H 394.946 -6.29183 5.23517 0
M  V30 4341 N 397.609 -0.515225 -1.4894 0
M  V30 4342 C 398.886 0.0879088 -1.95402 0
M  V30 4343 C 399.266 1.52745 -1.45712 0
M  V30 4344 O 398.614 2.18238 -0.677093 0
M  V30 4345 C 398.824 -0.0141055 -3.48997 0
M  V30 4346 C 400.172 0.152646 -4.24326 0
M  V30 4347 O 401.196 0.0604025 -3.56149 0
M  V30 4348 O 400.055 0.34384 -5.45417 0
M  V30 4349 H 397.149 0.0874636 -0.822362 0
M  V30 4350 H 399.695 -0.578775 -1.59525 0
M  V30 4351 H 398.467 -1.01745 -3.77841 0
M  V30 4352 H 398.09 0.692091 -3.9153 0
M  V30 4353 N 399.087 1.5561 -0.249682 0
M  V30 4354 C 400.05 2.20217 0.635394 0
M  V30 4355 C 401.05 1.17227 1.10066 0
M  V30 4356 O 402.24 1.42292 1.00492 0
M  V30 4357 C 399.372 2.84794 1.87363 0
M  V30 4358 H 400.565 2.99814 0.0716752 0
M  V30 4359 H 398.118 1.563 -0.000153234 0
M  V30 4360 H 398.853 2.09142 2.47851 0
M  V30 4361 H 398.638 3.60241 1.5482 0
M  V30 4362 H 400.128 3.3423 2.5036 0
M  V30 4363 N 400.565 -0.0233959 1.57583 0
M  V30 4364 C 401.79 -0.728376 1.94189 0
M  V30 4365 C 402.215 -1.67793 0.850119 0
M  V30 4366 O 401.573 -1.80262 -0.19371 0
M  V30 4367 C 401.621 -1.45669 3.29868 0
M  V30 4368 O 400.725 -2.57013 3.22518 0
M  V30 4369 H 400.066 -0.195493 0.63457 0
M  V30 4370 H 402.596 0.0228214 2.04587 0
M  V30 4371 H 402.606 -1.82535 3.6489 0
M  V30 4372 H 401.281 -0.760314 4.08891 0
M  V30 4373 H 399.858 -2.22648 2.99136 0
M  V30 4374 N 402.043 -1.548 -0.295768 0
M  V30 4375 C 403.006 -1.85363 -1.34808 0
M  V30 4376 C 404.006 -0.726817 -1.43436 0
M  V30 4377 O 405.196 -0.995088 -1.42981 0
M  V30 4378 C 402.328 -2.03859 -2.73229 0
M  V30 4379 H 403.521 -2.7941 -1.08949 0
M  V30 4380 H 401.074 -1.46942 -0.532702 0
M  V30 4381 H 401.809 -1.12117 -3.04303 0
M  V30 4382 H 401.594 -2.8588 -2.68356 0
M  V30 4383 H 403.084 -2.28857 -3.49305 0
M  V30 4384 N 403.521 0.559213 -1.47345 0
M  V30 4385 C 404.484 1.64854 -1.59235 0
M  V30 4386 C 405.484 1.53851 -0.467607 0
M  V30 4387 O 406.674 1.58045 -0.732617 0
M  V30 4388 C 403.806 3.04388 -1.53496 0
M  V30 4389 H 404.999 1.55662 -2.56339 0
M  V30 4390 H 402.552 0.778973 -1.35505 0
M  V30 4391 H 403.287 3.19115 -0.577604 0
M  V30 4392 H 403.072 3.13783 -2.35123 0
M  V30 4393 H 404.562 3.83642 -1.6495 0
M  V30 4394 N 404.999 1.35443 0.805782 0
M  V30 4395 C 406.415 1.15499 1.10146 0
M  V30 4396 C 406.615 -0.0319975 2.01475 0
M  V30 4397 O 405.671 -0.70236 2.42535 0
M  V30 4398 C 406.984 2.45833 1.73166 0
M  V30 4399 C 408.532 2.52047 1.85583 0
M  V30 4400 C 409.007 3.82427 2.52019 0
M  V30 4401 N 410.498 3.83682 2.59504 0
M  V30 4402 C 411.233 4.81294 3.11679 0
M  V30 4403 N 410.729 5.89294 3.64287 0
M  V30 4404 N 412.522 4.6873 3.1024 0
M  V30 4405 H 404.673 2.11469 0.198678 0
M  V30 4406 H 406.936 0.93594 0.150731 0
M  V30 4407 H 406.642 3.32874 1.13526 0
M  V30 4408 H 406.516 2.6044 2.72857 0
M  V30 4409 H 408.903 1.65435 2.44367 0
M  V30 4410 H 408.984 2.41354 0.847455 0
M  V30 4411 H 408.628 4.69437 1.93885 0
M  V30 4412 H 408.558 3.90409 3.53395 0
M  V30 4413 H 411.049 3.05648 2.22234 0
M  V30 4414 H 411.362 6.59768 4.02401 0
M  V30 4415 H 409.707 5.92985 3.62483 0
M  V30 4416 H 412.898 3.83496 2.68419 0
M  V30 4417 H 413.071 5.44965 3.50596 0
M  V30 4418 N 406.477 -1.02803 1.19454 0
M  V30 4419 C 407.723 -1.76478 0.999171 0
M  V30 4420 C 408.056 -1.88456 -0.468828 0
M  V30 4421 O 407.331 -1.40198 -1.34814 0
M  V30 4422 C 407.614 -3.19044 1.66981 0
M  V30 4423 C 407.467 -3.14932 3.21151 0
M  V30 4424 C 408.786 -4.17456 1.39349 0
M  V30 4425 H 405.905 -0.640614 0.364393 0
M  V30 4426 H 408.547 -1.20005 1.47305 0
M  V30 4427 H 406.697 -3.67263 1.2669 0
M  V30 4428 H 408.369 -2.74605 3.70661 0
M  V30 4429 H 406.612 -2.52625 3.52652 0
M  V30 4430 H 407.283 -4.1566 3.63223 0
M  V30 4431 H 409.759 -3.77842 1.74283 0
M  V30 4432 H 408.635 -5.154 1.88823 0
M  V30 4433 H 408.896 -4.40949 0.318813 0
M  V30 4434 N 407.956 -0.998596 -1.21925 0
M  V30 4435 C 408.919 -0.558679 -2.22287 0
M  V30 4436 C 409.919 0.361525 -1.56683 0
M  V30 4437 O 411.109 0.152695 -1.73529 0
M  V30 4438 C 408.241 0.18661 -3.40389 0
M  V30 4439 H 409.434 -1.4463 -2.62721 0
M  V30 4440 H 406.987 -0.786413 -1.35075 0
M  V30 4441 H 407.722 1.08996 -3.05435 0
M  V30 4442 H 407.507 -0.474188 -3.89222 0
M  V30 4443 H 408.997 0.482367 -4.14805 0
M  V30 4444 N 409.434 1.37368 -0.772513 0
M  V30 4445 C 410.364 2.32856 -0.173304 0
M  V30 4446 C 411.345 1.55818 0.682262 0
M  V30 4447 O 412.53 1.84052 0.619566 0
M  V30 4448 C 409.66 3.40048 0.706007 0
M  V30 4449 C 408.614 4.27973 -0.0483144 0
M  V30 4450 C 407.94 5.26184 0.950491 0
M  V30 4451 C 409.24 5.07665 -1.22776 0
M  V30 4452 H 410.934 2.83217 -0.971002 0
M  V30 4453 H 408.48 1.3617 -0.468377 0
M  V30 4454 H 410.433 4.05827 1.13501 0
M  V30 4455 H 409.157 2.88214 1.53623 0
M  V30 4456 H 407.816 3.63726 -0.458107 0
M  V30 4457 H 407.464 4.7063 1.77529 0
M  V30 4458 H 407.164 5.85872 0.450314 0
M  V30 4459 H 408.688 5.94838 1.37842 0
M  V30 4460 H 410.102 5.66578 -0.875366 0
M  V30 4461 H 408.499 5.76681 -1.66007 0
M  V30 4462 H 409.569 4.40294 -2.03149 0
M  V30 4463 N 410.912 0.523116 1.48665 0
M  V30 4464 C 412.16 -0.0134497 2.02096 0
M  V30 4465 C 412.481 -1.35418 1.40311 0
M  V30 4466 O 411.751 -1.87543 0.566074 0
M  V30 4467 H 410.331 -0.00795915 0.746958 0
M  V30 4468 H 412.993 0.685388 1.82451 0
M  V30 4469 H 412.089 -0.126849 3.11842 0
M  V30 4470 N 412.39 -1.55475 0.257931 0
M  V30 4471 C 413.639 -1.98383 -0.364275 0
M  V30 4472 C 413.952 -1.14952 -1.58258 0
M  V30 4473 O 415.158 -1.47924 -2.27664 0
M  V30 4474 C 413.614 -3.53037 -0.699479 0
M  V30 4475 C 413.222 -4.45223 0.498046 0
M  V30 4476 C 414.966 -4.04575 -1.28526 0
M  V30 4477 C 412.873 -5.91238 0.138383 0
M  V30 4478 H 411.803 -0.740911 -0.13988 0
M  V30 4479 H 414.454 -1.79936 0.359883 0
M  V30 4480 H 412.836 -3.6722 -1.48207 0
M  V30 4481 H 414.01 -4.42803 1.27522 0
M  V30 4482 H 412.325 -4.04226 0.999503 0
M  V30 4483 H 414.922 -5.11196 -1.56788 0
M  V30 4484 H 415.265 -3.5258 -2.21344 0
M  V30 4485 H 415.798 -3.93762 -0.565337 0
M  V30 4486 H 412.537 -6.47294 1.03398 0
M  V30 4487 H 412.057 -5.96768 -0.602374 0
M  V30 4488 H 413.736 -6.46413 -0.27553 0
M  V30 4489 N 413.868 0.0150385 -1.57593 0
M  V30 4490 C 415.096 0.714395 -1.94175 0
M  V30 4491 C 415.511 1.68135 -0.858841 0
M  V30 4492 O 414.868 1.81766 0.163567 0
M  V30 4493 C 414.919 1.45933 -3.30735 0
M  V30 4494 O 414.64 0.531167 -4.34868 0
M  V30 4495 C 416.141 2.25456 -3.81686 0
M  V30 4496 H 413.361 0.199923 -0.640525 0
M  V30 4497 H 415.905 -0.0316096 -2.04476 0
M  V30 4498 H 414.06 2.15709 -3.21789 0
M  V30 4499 H 414.474 1.05509 -5.13778 0
M  V30 4500 H 415.948 2.731 -4.79709 0
M  V30 4501 H 416.425 3.07485 -3.13607 0
M  V30 4502 H 417.031 1.60727 -3.9376 0
M  V30 4503 N 415.346 1.54954 0.287554 0
M  V30 4504 C 416.574 1.78881 1.03967 0
M  V30 4505 C 416.989 0.554894 1.80462 0
M  V30 4506 O 416.346 -0.475676 1.76192 0
M  V30 4507 C 416.397 3.00488 2.0097 0
M  V30 4508 O 416.118 4.19113 1.27577 0
M  V30 4509 C 417.619 3.36907 2.88112 0
M  V30 4510 H 414.839 0.596259 0.307761 0
M  V30 4511 H 417.383 2.01937 0.322749 0
M  V30 4512 H 415.538 2.79601 2.68145 0
M  V30 4513 H 415.952 4.87765 1.92835 0
M  V30 4514 H 417.426 4.25205 3.52001 0
M  V30 4515 H 417.903 2.55659 3.57121 0
M  V30 4516 H 418.509 3.60001 2.26449 0
M  V30 4517 N 416.824 -0.551391 1.4764 0
M  V30 4518 C 418.07 -1.31024 1.54792 0
M  V30 4519 C 418.403 -1.9304 0.211967 0
M  V30 4520 O 417.678 -1.78175 -0.77999 0
M  V30 4521 C 417.961 -2.41593 2.67029 0
M  V30 4522 C 417.814 -1.84408 4.10261 0
M  V30 4523 C 419.133 -3.43488 2.75143 0
M  V30 4524 H 416.252 -0.475031 0.563485 0
M  V30 4525 H 418.894 -0.616454 1.79722 0
M  V30 4526 H 417.044 -3.00772 2.45904 0
M  V30 4527 H 418.716 -1.29445 4.42766 0
M  V30 4528 H 416.959 -1.15051 4.18265 0
M  V30 4529 H 417.63 -2.64367 4.84576 0
M  V30 4530 H 420.106 -2.94236 2.94218 0
M  V30 4531 H 418.982 -4.18274 3.55441 0
M  V30 4532 H 419.243 -4.02703 1.82435 0
M  V30 4533 N 418.302 -1.35869 -0.798587 0
M  V30 4534 C 419.232 -1.32118 -1.92528 0
M  V30 4535 C 420.213 -0.194209 -1.68988 0
M  V30 4536 O 421.398 -0.390426 -1.90235 0
M  V30 4537 C 418.528 -1.10047 -3.29404 0
M  V30 4538 C 417.482 -2.19471 -3.67446 0
M  V30 4539 C 416.808 -1.82555 -5.02571 0
M  V30 4540 C 418.108 -3.61495 -3.76987 0
M  V30 4541 H 419.802 -2.26394 -1.95924 0
M  V30 4542 H 417.348 -1.08981 -0.94123 0
M  V30 4543 H 419.301 -1.06061 -4.07835 0
M  V30 4544 H 418.025 -0.122195 -3.26371 0
M  V30 4545 H 416.684 -2.22568 -2.91306 0
M  V30 4546 H 416.332 -0.833249 -4.9605 0
M  V30 4547 H 416.032 -2.5581 -5.28995 0
M  V30 4548 H 417.556 -1.80108 -5.83432 0
M  V30 4549 H 418.97 -3.60676 -4.4563 0
M  V30 4550 H 417.367 -4.33577 -4.14887 0
M  V30 4551 H 418.437 -3.97065 -2.78329 0
M  V30 4552 N 419.78 1.02168 -1.19998 0
M  V30 4553 C 421.008 1.79296 -1.03249 0
M  V30 4554 C 421.423 1.84103 0.418502 0
M  V30 4555 O 420.78 1.29031 1.29063 0
M  V30 4556 C 420.831 3.24007 -1.60319 0
M  V30 4557 O 420.552 3.19512 -2.99739 0
M  V30 4558 C 422.053 4.17704 -1.48453 0
M  V30 4559 H 419.273 0.564016 -0.363493 0
M  V30 4560 H 421.817 1.28639 -1.58973 0
M  V30 4561 H 419.972 3.7183 -1.08727 0
M  V30 4562 H 420.386 4.10306 -3.26725 0
M  V30 4563 H 421.86 5.17104 -1.93153 0
M  V30 4564 H 422.337 4.37029 -0.436193 0
M  V30 4565 H 422.943 3.7576 -1.99211 0
M  V30 4566 N 421.258 1.00505 1.21394 0
M  V30 4567 C 422.191 0.51032 2.22421 0
M  V30 4568 C 423.169 -0.436 1.56645 0
M  V30 4569 O 424.353 -0.358709 1.85055 0
M  V30 4570 C 421.48 -0.258733 3.3771 0
M  V30 4571 C 420.526 0.635395 4.2174 0
M  V30 4572 S 421.359 2.09783 4.92698 0
M  V30 4573 C 422.515 1.33862 6.11418 0
M  V30 4574 H 422.748 1.36637 2.64041 0
M  V30 4575 H 420.281 0.812991 1.31262 0
M  V30 4576 H 422.239 -0.696372 4.0455 0
M  V30 4577 H 420.9 -1.0902 2.94573 0
M  V30 4578 H 420.093 0.0430189 5.03982 0
M  V30 4579 H 419.695 1.01031 3.60095 0
M  V30 4580 H 421.987 0.612541 6.74725 0
M  V30 4581 H 422.93 2.13675 6.75092 0
M  V30 4582 H 423.338 0.846568 5.58116 0
M  V30 4583 N 422.737 -1.36956 0.779787 0
M  V30 4584 C 423.965 -2.03755 0.359398 0
M  V30 4585 C 424.38 -1.58807 -1.02106 0
M  V30 4586 O 423.737 -0.773024 -1.6532 0
M  V30 4587 C 423.788 -3.59251 0.402568 0
M  V30 4588 O 423.509 -4.02557 1.72858 0
M  V30 4589 C 425.01 -4.43291 -0.0284068 0
M  V30 4590 H 422.23 -0.654148 0.149437 0
M  V30 4591 H 424.774 -1.75128 1.05595 0
M  V30 4592 H 422.929 -3.86621 -0.245478 0
M  V30 4593 H 423.343 -4.97111 1.67275 0
M  V30 4594 H 424.817 -5.51975 0.0529466 0
M  V30 4595 H 425.294 -4.25719 -1.07982 0
M  V30 4596 H 425.9 -4.21163 0.591758 0
M  V30 4597 N 424.215 -0.530993 -1.48385 0
M  V30 4598 C 425.443 -0.00134122 -2.069 0
M  V30 4599 C 425.858 1.2805 -1.3874 0
M  V30 4600 O 425.215 1.76204 -0.475244 0
M  V30 4601 C 425.266 0.225256 -3.60798 0
M  V30 4602 O 424.987 -1.0058 -4.26398 0
M  V30 4603 C 426.488 0.795172 -4.3611 0
M  V30 4604 H 423.708 -0.0339704 -0.67014 0
M  V30 4605 H 426.252 -0.736926 -1.90761 0
M  V30 4606 H 424.407 0.910891 -3.76539 0
M  V30 4607 H 424.821 -0.787165 -5.1856 0
M  V30 4608 H 426.295 0.903143 -5.44562 0
M  V30 4609 H 426.772 1.80031 -4.00606 0
M  V30 4610 H 427.378 0.146069 -4.25049 0
M  V30 4611 N 425.693 1.55336 -0.266172 0
M  V30 4612 C 426.942 1.98574 0.353749 0
M  V30 4613 C 427.255 1.15789 1.57646 0
M  V30 4614 O 428.461 1.49129 2.26876 0
M  V30 4615 C 426.917 3.53403 0.680747 0
M  V30 4616 C 426.525 4.44953 -0.52165 0
M  V30 4617 C 428.269 4.05251 1.26379 0
M  V30 4618 C 426.176 5.91156 -0.169736 0
M  V30 4619 H 425.106 0.741643 0.135949 0
M  V30 4620 H 427.757 1.79743 -0.369421 0
M  V30 4621 H 426.139 3.68001 1.46257 0
M  V30 4622 H 427.313 4.42121 -1.29869 0
M  V30 4623 H 425.628 4.03691 -1.02093 0
M  V30 4624 H 428.225 5.12021 1.54074 0
M  V30 4625 H 428.568 3.53749 2.19471 0
M  V30 4626 H 429.101 3.94057 0.544447 0
M  V30 4627 H 425.84 6.46736 -1.0683 0
M  V30 4628 H 425.36 5.97079 0.570717 0
M  V30 4629 H 427.039 6.4655 0.241245 0
M  V30 4630 N 427.171 -0.0066808 1.57599 0
M  V30 4631 C 428.396 -0.707738 1.94951 0
M  V30 4632 C 428.821 -1.66882 0.867868 0
M  V30 4633 O 428.179 -1.80457 -0.17458 0
M  V30 4634 C 428.227 -1.42162 3.31394 0
M  V30 4635 O 427.331 -2.53578 3.25226 0
M  V30 4636 H 426.672 -0.188752 0.636607 0
M  V30 4637 H 429.202 0.0445193 2.04552 0
M  V30 4638 H 429.212 -1.78655 3.66806 0
M  V30 4639 H 427.887 -0.716903 4.09675 0
M  V30 4640 H 426.464 -2.19463 3.01481 0
M  V30 4641 N 428.649 -1.55105 -0.279332 0
M  V30 4642 C 429.877 -1.7943 -1.03017 0
M  V30 4643 C 430.292 -0.564456 -1.80165 0
M  V30 4644 O 429.649 0.466326 -1.76442 0
M  V30 4645 C 429.7 -3.0155 -1.99374 0
M  V30 4646 O 429.421 -4.19784 -1.25352 0
M  V30 4647 C 430.922 -3.3843 -2.86321 0
M  V30 4648 H 428.142 -0.597882 -0.304594 0
M  V30 4649 H 430.686 -2.02105 -0.312035 0
M  V30 4650 H 428.841 -2.81019 -2.66659 0
M  V30 4651 H 429.255 -4.88781 -1.90246 0
M  V30 4652 H 430.729 -4.27066 -3.49741 0
M  V30 4653 H 431.206 -2.57549 -3.5576 0
M  V30 4654 H 431.812 -3.61197 -2.24536 0
M  V30 4655 N 430.127 0.543554 -1.4793 0
M  V30 4656 C 431.077 1.64527 -1.57844 0
M  V30 4657 C 432.061 1.54869 -0.436408 0
M  V30 4658 O 433.253 1.63119 -0.687101 0
M  V30 4659 C 430.382 3.03281 -1.6086 0
M  V30 4660 C 429.468 3.18093 -2.80495 0
M  V30 4661 N 429.859 3.02923 -4.05057 0
M  V30 4662 C 428.157 3.49121 -2.77543 0
M  V30 4663 C 428.858 3.20791 -4.85251 0
M  V30 4664 N 427.834 3.47749 -4.17818 0
M  V30 4665 H 431.636 1.51388 -2.5191 0
M  V30 4666 H 429.15 0.748671 -1.44113 0
M  V30 4667 H 431.147 3.82403 -1.66054 0
M  V30 4668 H 429.807 3.17521 -0.678996 0
M  V30 4669 H 430.818 2.79966 -4.35705 0
M  V30 4670 H 427.495 3.69804 -1.93781 0
M  V30 4671 H 428.885 3.13915 -5.9406 0
M  V30 4672 N 431.605 1.3629 0.791371 0
M  V30 4673 C 432.535 1.33137 1.91825 0
M  V30 4674 C 433.516 0.203168 1.68882 0
M  V30 4675 O 434.701 0.400509 1.90025 0
M  V30 4676 C 431.831 1.11793 3.28816 0
M  V30 4677 C 430.785 2.21417 3.66277 0
M  V30 4678 C 430.111 1.85218 5.01596 0
M  V30 4679 C 431.411 3.63489 3.75064 0
M  V30 4680 H 433.105 2.2743 1.9472 0
M  V30 4681 H 430.651 1.09479 0.935437 0
M  V30 4682 H 432.604 1.08222 4.07266 0
M  V30 4683 H 431.328 0.139501 3.26302 0
M  V30 4684 H 429.987 2.2411 2.90121 0
M  V30 4685 H 429.635 0.859544 4.95602 0
M  V30 4686 H 429.335 2.58611 5.27631 0
M  V30 4687 H 430.859 1.832 5.82469 0
M  V30 4688 H 432.273 3.63034 4.43711 0
M  V30 4689 H 430.67 4.35771 4.12582 0
M  V30 4690 H 431.74 3.98536 2.76219 0
M  V30 4691 N 433.083 -1.0153 1.20538 0
M  V30 4692 C 434.499 -1.27461 0.96051 0
M  V30 4693 C 434.699 -1.98273 -0.359193 0
M  V30 4694 O 433.755 -2.27886 -1.0874 0
M  V30 4695 C 435.068 -2.10837 2.14402 0
M  V30 4696 C 436.616 -2.24099 2.18515 0
M  V30 4697 C 437.091 -3.10852 3.36355 0
M  V30 4698 N 438.582 -3.18441 3.36377 0
M  V30 4699 C 439.317 -3.85795 4.24205 0
M  V30 4700 N 438.813 -4.55264 5.22213 0
M  V30 4701 N 440.606 -3.82331 4.12043 0
M  V30 4702 H 432.757 -0.539907 2.05423 0
M  V30 4703 H 435.02 -0.30092 0.898972 0
M  V30 4704 H 434.726 -1.66144 3.09983 0
M  V30 4705 H 434.6 -3.11576 2.12604 0
M  V30 4706 H 436.987 -2.68016 1.23497 0
M  V30 4707 H 437.068 -1.22865 2.24361 0
M  V30 4708 H 436.712 -2.6764 4.31661 0
M  V30 4709 H 436.642 -4.12177 3.27746 0
M  V30 4710 H 439.133 -2.68978 2.65442 0
M  V30 4711 H 439.446 -5.04331 5.85551 0
M  V30 4712 H 437.791 -4.54085 5.26148 0
M  V30 4713 H 440.982 -3.27207 3.34743 0
M  V30 4714 H 441.155 -4.34547 4.807 0
M  V30 4715 N 434.561 -1.01147 -1.20859 0
M  V30 4716 C 435.471 -0.58686 -2.27141 0
M  V30 4717 C 436.487 0.373198 -1.69951 0
M  V30 4718 O 437.663 0.235423 -2.00019 0
M  V30 4719 C 434.728 0.0733602 -3.46622 0
M  V30 4720 C 433.789 -0.931995 -4.19061 0
M  V30 4721 C 433.022 -0.303186 -5.32838 0
M  V30 4722 O 433.245 0.898395 -5.63281 0
M  V30 4723 O 432.179 -1.01735 -5.9324 0
M  V30 4724 H 436.005 -1.47155 -2.65667 0
M  V30 4725 H 433.59 -0.780689 -1.2738 0
M  V30 4726 H 435.472 0.442333 -4.19072 0
M  V30 4727 H 434.147 0.932329 -3.09983 0
M  V30 4728 H 433.054 -1.35224 -3.48805 0
M  V30 4729 H 434.387 -1.76076 -4.59628 0
M  V30 4730 N 436.039 1.36541 -0.78704 0
M  V30 4731 C 437.267 2.03561 -0.370199 0
M  V30 4732 C 437.682 1.59347 1.01263 0
M  V30 4733 O 437.039 0.781781 1.64907 0
M  V30 4734 C 437.09 3.59033 -0.421614 0
M  V30 4735 O 436.811 4.01634 -1.7499 0
M  V30 4736 C 438.312 4.433 0.00489763 0
M  V30 4737 H 435.532 0.653346 -0.152904 0
M  V30 4738 H 438.076 1.74566 -1.06522 0
M  V30 4739 H 436.231 3.86746 0.224971 0
M  V30 4740 H 436.645 4.96217 -1.69909 0
M  V30 4741 H 438.119 5.51939 -0.0822184 0
M  V30 4742 H 438.596 4.26285 1.05723 0
M  V30 4743 H 439.202 4.20843 -0.614085 0
M  V30 4744 N 437.518 0.538854 1.48102 0
M  V30 4745 C 438.448 -0.207654 2.32575 0
M  V30 4746 C 439.429 -0.926559 1.4265 0
M  V30 4747 O 440.614 -0.91061 1.71527 0
M  V30 4748 C 437.744 -1.24957 3.24042 0
M  V30 4749 C 436.698 -0.648263 4.23062 0
M  V30 4750 C 436.024 -1.79348 5.03725 0
M  V30 4751 C 437.324 0.385897 5.20872 0
M  V30 4752 H 439.018 0.497534 2.95237 0
M  V30 4753 H 436.564 0.240715 1.41974 0
M  V30 4754 H 438.517 -1.77983 3.81969 0
M  V30 4755 H 437.241 -1.98446 2.59397 0
M  V30 4756 H 435.9 -0.139452 3.66335 0
M  V30 4757 H 435.548 -2.51696 4.35498 0
M  V30 4758 H 435.248 -1.39702 5.70751 0
M  V30 4759 H 436.772 -2.32735 5.64506 0
M  V30 4760 H 438.186 -0.057607 5.73271 0
M  V30 4761 H 436.583 0.700227 5.96001 0
M  V30 4762 H 437.653 1.28848 4.67468 0
M  V30 4763 N 438.996 -1.55193 0.274407 0
M  V30 4764 C 440.407 -1.85358 -0.223488 0
M  V30 4765 C 440.758 -1.19642 -1.555 0
M  V30 4766 O 439.883 -0.484498 -2.10907 0
M  V30 4767 C 440.478 -3.36282 -0.412285 0
M  V30 4768 C 439.037 -3.66574 -0.854413 0
M  V30 4769 C 438.184 -2.7725 0.0527056 0
M  V30 4770 H 441.135 -1.50743 0.496215 0
M  V30 4771 H 441.156 -3.59349 -1.25094 0
M  V30 4772 H 440.668 -3.84083 0.556965 0
M  V30 4773 H 438.769 -3.24273 -1.83516 0
M  V30 4774 H 438.882 -4.74073 -0.692226 0
M  V30 4775 H 437.246 -2.50447 -0.463484 0
M  V30 4776 H 438.029 -3.27865 1.01783 0
M  V30 4777 N 440.474 -0.00167713 -1.576 0
M  V30 4778 C 441.421 0.989195 -2.08527 0
M  V30 4779 C 442.391 1.34031 -0.981065 0
M  V30 4780 O 443.576 1.43839 -1.2536 0
M  V30 4781 C 440.716 2.27537 -2.59463 0
M  V30 4782 C 439.829 1.98314 -3.83791 0
M  V30 4783 C 438.964 3.21025 -4.23222 0
M  V30 4784 C 438.003 2.87495 -5.40382 0
M  V30 4785 N 437.14 4.02749 -5.75098 0
M  V30 4786 H 441.98 0.547973 -2.92919 0
M  V30 4787 H 439.517 0.258917 -1.44803 0
M  V30 4788 H 441.475 3.02729 -2.87073 0
M  V30 4789 H 440.105 2.69325 -1.77943 0
M  V30 4790 H 439.157 1.13482 -3.63078 0
M  V30 4791 H 440.469 1.69601 -4.69081 0
M  V30 4792 H 439.623 4.04561 -4.52123 0
M  V30 4793 H 438.362 3.52877 -3.36644 0
M  V30 4794 H 437.367 2.02367 -5.11202 0
M  V30 4795 H 438.592 2.56889 -6.28637 0
M  V30 4796 H 436.538 4.34494 -4.91478 0
M  V30 4797 H 436.455 3.77566 -6.54966 0
M  V30 4798 H 437.723 4.87068 -6.08592 0
M  V30 4799 N 441.952 1.55251 0.271103 0
M  V30 4800 C 443.201 1.75151 1.00025 0
M  V30 4801 C 443.514 0.561041 1.87381 0
M  V30 4802 O 444.72 0.642506 2.63788 0
M  V30 4803 C 443.176 3.09999 1.82835 0
M  V30 4804 C 442.784 4.3662 1.00336 0
M  V30 4805 C 444.528 3.39249 2.55168 0
M  V30 4806 C 442.435 5.62506 1.82595 0
M  V30 4807 H 441.365 0.652877 0.377183 0
M  V30 4808 H 444.016 1.81708 0.255843 0
M  V30 4809 H 442.398 2.97485 2.61378 0
M  V30 4810 H 443.572 4.60055 0.261959 0
M  V30 4811 H 441.887 4.14527 0.394486 0
M  V30 4812 H 444.484 4.3051 3.1712 0
M  V30 4813 H 444.827 2.59467 3.2555 0
M  V30 4814 H 445.36 3.52869 1.83653 0
M  V30 4815 H 442.099 6.45041 1.16631 0
M  V30 4816 H 441.619 5.43211 2.54327 0
M  V30 4817 H 443.298 6.00875 2.39913 0
M  V30 4818 N 443.43 -0.535701 1.48216 0
M  V30 4819 C 444.841 -1.11769 1.49548 0
M  V30 4820 C 445.192 -1.94442 0.26207 0
M  V30 4821 O 444.317 -2.06987 -0.631287 0
M  V30 4822 C 444.912 -2.03367 2.70975 0
M  V30 4823 C 443.471 -2.56795 2.75196 0
M  V30 4824 C 442.618 -1.33631 2.42977 0
M  V30 4825 H 445.569 -0.321232 1.55415 0
M  V30 4826 H 445.59 -2.87569 2.49167 0
M  V30 4827 H 445.102 -1.43169 3.60727 0
M  V30 4828 H 443.203 -3.20731 1.89638 0
M  V30 4829 H 443.316 -2.9632 3.76472 0
M  V30 4830 H 441.68 -1.6502 1.94012 0
M  V30 4831 H 442.463 -0.75194 3.34964 0
M  V30 4832 N 444.908 -1.36708 -0.784132 0
M  V30 4833 C 446.138 -1.34203 -1.57077 0
M  V30 4834 C 446.546 0.0774945 -1.89041 0
M  V30 4835 O 445.889 1.04628 -1.50992 0
M  V30 4836 C 445.951 -2.10351 -2.91535 0
M  V30 4837 C 445.615 -3.59405 -2.82272 0
M  V30 4838 C 446.612 -4.53545 -2.54151 0
M  V30 4839 C 444.297 -4.02362 -3.00683 0
M  V30 4840 C 446.291 -5.8862 -2.44551 0
M  V30 4841 C 443.978 -5.37526 -2.90704 0
M  V30 4842 C 444.976 -6.30468 -2.62677 0
M  V30 4843 O 444.664 -7.63149 -2.52702 0
M  V30 4844 H 444.396 -0.461791 -0.493685 0
M  V30 4845 H 446.95 -1.80475 -0.980712 0
M  V30 4846 H 445.18 -1.5875 -3.52612 0
M  V30 4847 H 446.869 -2.00636 -3.52845 0
M  V30 4848 H 447.635 -4.21669 -2.39625 0
M  V30 4849 H 443.514 -3.30389 -3.21503 0
M  V30 4850 H 447.058 -6.61133 -2.22596 0
M  V30 4851 H 442.955 -5.69008 -3.04795 0
M  V30 4852 H 443.723 -7.73331 -2.68144 0
M  V30 4853 N 446.386 1.0089 -1.21074 0
M  V30 4854 C 447.632 1.74866 -1.02712 0
M  V30 4855 C 447.965 1.89178 0.438787 0
M  V30 4856 O 447.24 1.42325 1.32567 0
M  V30 4857 C 447.523 3.16347 -1.72036 0
M  V30 4858 C 447.376 3.09782 -3.26121 0
M  V30 4859 C 448.695 4.15187 -1.45973 0
M  V30 4860 H 445.814 0.634736 -0.374539 0
M  V30 4861 H 448.456 1.17646 -1.49196 0
M  V30 4862 H 446.606 3.65201 -1.32517 0
M  V30 4863 H 448.278 2.68673 -3.74983 0
M  V30 4864 H 446.521 2.46982 -3.56626 0
M  V30 4865 H 447.192 4.09829 -3.6979 0
M  V30 4866 H 449.668 3.75022 -1.80272 0
M  V30 4867 H 448.544 5.12331 -1.96999 0
M  V30 4868 H 448.805 4.40386 -0.388924 0
M  V30 4869 N 447.864 1.01787 1.20321 0
M  V30 4870 C 448.811 0.589197 2.23153 0
M  V30 4871 C 449.781 -0.391367 1.61423 0
M  V30 4872 O 450.966 -0.290518 1.88575 0
M  V30 4873 C 448.106 -0.0650747 3.45039 0
M  V30 4874 C 447.219 0.960207 4.21194 0
M  V30 4875 C 446.354 0.276854 5.30478 0
M  V30 4876 C 445.393 1.2888 5.98378 0
M  V30 4877 N 444.53 0.632031 6.99249 0
M  V30 4878 H 449.37 1.47071 2.59179 0
M  V30 4879 H 446.907 0.736192 1.27352 0
M  V30 4880 H 448.865 -0.461552 4.14639 0
M  V30 4881 H 447.495 -0.910233 3.09701 0
M  V30 4882 H 446.547 1.47484 3.50646 0
M  V30 4883 H 447.859 1.72977 4.67847 0
M  V30 4884 H 447.013 -0.175056 6.06447 0
M  V30 4885 H 445.752 -0.525004 4.84866 0
M  V30 4886 H 444.757 1.75109 5.21169 0
M  V30 4887 H 445.982 2.09196 6.46076 0
M  V30 4888 H 443.928 -0.149935 6.55829 0
M  V30 4889 H 443.845 1.33964 7.44036 0
M  V30 4890 H 445.113 0.203755 7.79234 0
M  V30 4891 N 449.342 -1.36122 0.79427 0
M  V30 4892 C 450.305 -2.28309 0.201889 0
M  V30 4893 C 451.305 -1.49041 -0.603603 0
M  V30 4894 O 452.495 -1.68964 -0.423888 0
M  V30 4895 C 449.627 -3.3321 -0.719978 0
M  V30 4896 H 450.82 -2.82208 1.01481 0
M  V30 4897 H 448.373 -1.45768 0.564037 0
M  V30 4898 H 449.108 -2.84475 -1.55706 0
M  V30 4899 H 448.893 -3.91835 -0.144266 0
M  V30 4900 H 450.383 -4.02044 -1.12916 0
M  V30 4901 N 450.82 -0.546701 -1.47814 0
M  V30 4902 C 452.069 -0.0166497 -2.01693 0
M  V30 4903 C 452.382 1.33721 -1.42752 0
M  V30 4904 O 453.588 1.95658 -1.8823 0
M  V30 4905 C 452.044 0.0206769 -3.59894 0
M  V30 4906 C 451.652 -1.3293 -4.27824 0
M  V30 4907 C 453.396 0.498674 -4.21561 0
M  V30 4908 C 451.303 -1.25165 -5.78003 0
M  V30 4909 H 450.233 -0.0024541 -0.753996 0
M  V30 4910 H 452.884 -0.692984 -1.69912 0
M  V30 4911 H 451.266 0.76244 -3.88591 0
M  V30 4912 H 452.44 -2.08795 -4.10781 0
M  V30 4913 H 450.755 -1.74438 -3.78101 0
M  V30 4914 H 453.352 0.575 -5.31599 0
M  V30 4915 H 453.695 1.5083 -3.88016 0
M  V30 4916 H 454.228 -0.18791 -3.97356 0
M  V30 4917 H 450.967 -2.23695 -6.1615 0
M  V30 4918 H 450.487 -0.53464 -5.97412 0
M  V30 4919 H 452.166 -0.949299 -6.39998 0
M  V30 4920 N 452.299 1.55045 -0.282633 0
M  V30 4921 C 453.576 1.9179 0.384166 0
M  V30 4922 C 453.956 1.20778 1.73136 0
M  V30 4923 O 453.304 0.33719 2.25998 0
M  V30 4924 C 453.514 3.45149 0.517014 0
M  V30 4925 C 454.862 4.17064 0.796427 0
M  V30 4926 O 455.886 3.51084 0.601535 0
M  V30 4927 O 454.745 5.33837 1.16962 0
M  V30 4928 H 451.839 0.799483 0.211558 0
M  V30 4929 H 454.385 1.66474 -0.32934 0
M  V30 4930 H 453.157 3.88922 -0.430772 0
M  V30 4931 H 452.78 3.76443 1.2797 0
M  V30 4932 N 453.777 0.010035 1.57597 0
M  V30 4933 C 455.026 -0.671945 1.90178 0
M  V30 4934 C 455.339 -1.74376 0.886131 0
M  V30 4935 O 456.545 -2.48107 1.10252 0
M  V30 4936 C 455.001 -1.24636 3.3763 0
M  V30 4937 C 454.609 -0.208838 4.47513 0
M  V30 4938 C 456.353 -1.90595 3.79307 0
M  V30 4939 C 454.26 -0.793814 5.86048 0
M  V30 4940 H 453.19 -0.25474 0.709665 0
M  V30 4941 H 455.841 0.0722206 1.83358 0
M  V30 4942 H 454.223 -2.04152 3.3932 0
M  V30 4943 H 455.397 0.562463 4.57354 0
M  V30 4944 H 453.712 0.350889 4.14919 0
M  V30 4945 H 456.309 -2.35284 4.80151 0
M  V30 4946 H 456.652 -2.74074 3.13352 0
M  V30 4947 H 457.185 -1.17798 3.79958 0
M  V30 4948 H 453.924 0.00240855 6.555 0
M  V30 4949 H 453.444 -1.53404 5.79851 0
M  V30 4950 H 455.123 -1.2894 6.34022 0
M  V30 4951 N 455.255 -1.55392 -0.262866 0
M  V30 4952 C 456.485 -1.80251 -1.00961 0
M  V30 4953 C 456.893 -0.58117 -1.80053 0
M  V30 4954 O 456.236 0.459427 -1.77862 0
M  V30 4955 C 456.298 -2.98207 -2.00781 0
M  V30 4956 C 455.962 -4.34856 -1.40533 0
M  V30 4957 C 456.959 -5.13459 -0.815853 0
M  V30 4958 C 454.644 -4.8153 -1.42948 0
M  V30 4959 C 456.638 -6.36875 -0.258562 0
M  V30 4960 C 454.325 -6.04899 -0.868334 0
M  V30 4961 C 455.323 -6.8241 -0.283884 0
M  V30 4962 O 455.011 -8.03451 0.268644 0
M  V30 4963 H 454.743 -0.604049 -0.303482 0
M  V30 4964 H 457.297 -2.03257 -0.295926 0
M  V30 4965 H 455.527 -2.70917 -2.75936 0
M  V30 4966 H 457.216 -3.10299 -2.61667 0
M  V30 4967 H 457.982 -4.78526 -0.789812 0
M  V30 4968 H 453.861 -4.21201 -1.87378 0
M  V30 4969 H 457.405 -6.97318 0.198257 0
M  V30 4970 H 453.302 -6.39312 -0.891649 0
M  V30 4971 H 454.07 -8.18346 0.158974 0
M  V30 4972 N 456.733 0.527833 -1.48498 0
M  V30 4973 C 457.663 1.64136 -1.66077 0
M  V30 4974 C 458.644 1.62286 -0.509625 0
M  V30 4975 O 459.829 1.79449 -0.742413 0
M  V30 4976 C 456.959 3.02717 -1.70234 0
M  V30 4977 C 455.913 3.19426 -2.8487 0
M  V30 4978 C 455.239 4.5909 -2.74118 0
M  V30 4979 C 456.539 3.01993 -4.26142 0
M  V30 4980 H 458.233 1.4968 -2.593 0
M  V30 4981 H 455.779 0.718654 -1.24785 0
M  V30 4982 H 457.732 3.80491 -1.8112 0
M  V30 4983 H 456.456 3.18201 -0.735911 0
M  V30 4984 H 455.115 2.4407 -2.73542 0
M  V30 4985 H 454.763 4.71413 -1.7544 0
M  V30 4986 H 454.463 4.71214 -3.51042 0
M  V30 4987 H 455.987 5.3896 -2.86974 0
M  V30 4988 H 457.401 3.69558 -4.38292 0
M  V30 4989 H 455.798 3.2561 -5.04082 0
M  V30 4990 H 456.868 1.98396 -4.42456 0
M  V30 4991 N 458.211 1.37122 0.776871 0
M  V30 4992 C 459.144 1.26835 1.89705 0
M  V30 4993 C 460.122 0.14992 1.61907 0
M  V30 4994 O 461.306 0.323242 1.85708 0
M  V30 4995 C 458.433 0.95986 3.24814 0
M  V30 4996 C 457.479 2.09447 3.7153 0
M  V30 4997 S 458.312 3.71368 3.85806 0
M  V30 4998 C 459.468 3.42659 5.23771 0
M  V30 4999 H 459.701 2.21647 1.98141 0
M  V30 5000 H 457.234 1.22685 0.937433 0
M  V30 5001 H 459.192 0.788696 4.02852 0
M  V30 5002 H 457.853 0.0293137 3.14086 0
M  V30 5003 H 457.046 1.8335 4.69467 0
M  V30 5004 H 456.648 2.2255 3.00578 0
M  V30 5005 H 458.94 2.9733 6.0877 0
M  V30 5006 H 459.883 4.39905 5.54878 0
M  V30 5007 H 460.291 2.77708 4.91466 0
M  V30 5008 N 459.689 -1.00246 1.21608 0
M  V30 5009 C 460.937 -1.73717 1.0328 0
M  V30 5010 C 461.258 -1.90102 -0.434318 0
M  V30 5011 O 460.528 -1.45376 -1.31311 0
M  V30 5012 H 459.108 -0.643613 0.379172 0
M  V30 5013 H 461.77 -1.20787 1.52959 0
M  V30 5014 H 460.866 -2.73535 1.50283 0
M  V30 5015 N 461.167 -1.02423 -1.1978 0
M  V30 5016 C 462.407 -0.726635 -1.91048 0
M  V30 5017 C 462.771 0.730947 -1.77542 0
M  V30 5018 O 463.972 1.14141 -2.43362 0
M  V30 5019 C 462.243 -1.15964 -3.38064 0
M  V30 5020 S 463.802 -0.985172 -4.27598 0
M  V30 5021 H 460.62 -0.264679 -0.659899 0
M  V30 5022 H 463.222 -1.31309 -1.44838 0
M  V30 5023 H 461.926 -2.21619 -3.45417 0
M  V30 5024 H 461.457 -0.566274 -3.89303 0
M  V30 5025 H 463.472 0.106946 -4.96085 0
M  V30 5026 N 462.645 1.35699 -0.801477 0
M  V30 5027 C 463.892 1.98913 -0.379459 0
M  V30 5028 C 464.22 1.63592 1.05204 0
M  V30 5029 O 463.475 0.888563 1.74365 0
M  V30 5030 C 463.774 3.53828 -0.504041 0
M  V30 5031 C 463.44 4.09002 -1.8981 0
M  V30 5032 C 462.102 4.23783 -2.27951 0
M  V30 5033 C 464.454 4.38939 -2.81038 0
M  V30 5034 C 461.782 4.65816 -3.56696 0
M  V30 5035 C 464.134 4.82409 -4.09224 0
M  V30 5036 C 462.798 4.95395 -4.4737 0
M  V30 5037 H 462.068 0.727874 -0.138854 0
M  V30 5038 H 464.715 1.61994 -1.02128 0
M  V30 5039 H 463.02 3.91175 0.221242 0
M  V30 5040 H 464.717 4.00687 -0.158361 0
M  V30 5041 H 461.307 3.97946 -1.59176 0
M  V30 5042 H 465.491 4.27077 -2.52821 0
M  V30 5043 H 460.747 4.74059 -3.86106 0
M  V30 5044 H 464.921 5.04535 -4.80018 0
M  V30 5045 H 462.548 5.27724 -5.47185 0
M  V30 5046 N 464.123 0.554532 1.47522 0
M  V30 5047 C 465.369 0.0295227 2.02779 0
M  V30 5048 C 465.702 -1.31582 1.42828 0
M  V30 5049 O 464.977 -1.85561 0.582872 0
M  V30 5050 C 465.26 -0.0664057 3.60039 0
M  V30 5051 C 465.113 1.30585 4.30427 0
M  V30 5052 C 466.432 -0.781162 4.33112 0
M  V30 5053 H 463.551 0.0122027 0.736899 0
M  V30 5054 H 466.193 0.716305 1.7598 0
M  V30 5055 H 464.343 -0.651307 3.83002 0
M  V30 5056 H 466.015 1.93374 4.18813 0
M  V30 5057 H 464.258 1.88125 3.90886 0
M  V30 5058 H 464.929 1.19147 5.38988 0
M  V30 5059 H 467.405 -0.284565 4.15126 0
M  V30 5060 H 466.281 -0.817237 5.42782 0
M  V30 5061 H 466.542 -1.83672 4.0214 0
M  V30 5062 N 465.601 -1.54893 0.290851 0
M  V30 5063 C 466.848 -1.99933 -0.321391 0
M  V30 5064 C 467.176 -1.17927 -1.54672 0
M  V30 5065 O 466.431 -0.240902 -1.94212 0
M  V30 5066 C 466.73 -3.49815 -0.732397 0
M  V30 5067 C 466.396 -4.4921 0.390056 0
M  V30 5068 C 465.058 -4.76107 0.698223 0
M  V30 5069 C 467.41 -5.08453 1.14562 0
M  V30 5070 C 464.738 -5.59514 1.76526 0
M  V30 5071 C 467.09 -5.9302 2.2025 0
M  V30 5072 C 465.754 -6.18232 2.51684 0
M  V30 5073 H 465.024 -0.731608 -0.117605 0
M  V30 5074 H 467.671 -1.87107 0.407839 0
M  V30 5075 H 465.976 -3.60199 -1.54155 0
M  V30 5076 H 467.673 -3.82083 -1.21712 0
M  V30 5077 H 464.263 -4.28372 0.13976 0
M  V30 5078 H 468.447 -4.87683 0.920801 0
M  V30 5079 H 463.703 -5.77289 2.01364 0
M  V30 5080 H 467.877 -6.37955 2.7926 0
M  V30 5081 H 465.504 -6.82653 3.34499 0
M  V30 5082 N 467.08 -0.0183926 -1.57589 0
M  V30 5083 C 468.326 0.663543 -1.91638 0
M  V30 5084 C 468.659 1.72392 -0.894134 0
M  V30 5085 O 467.934 1.94316 0.0846449 0
M  V30 5086 C 468.217 1.28984 -3.36207 0
M  V30 5087 C 468.07 0.239761 -4.49161 0
M  V30 5088 C 469.389 2.2109 -3.80536 0
M  V30 5089 H 466.508 0.239746 -0.696915 0
M  V30 5090 H 469.15 -0.073456 -1.89858 0
M  V30 5091 H 467.3 1.91799 -3.37854 0
M  V30 5092 H 468.972 -0.390119 -4.59647 0
M  V30 5093 H 467.215 -0.435972 -4.31604 0
M  V30 5094 H 467.886 0.717383 -5.47319 0
M  V30 5095 H 470.362 1.68273 -3.80557 0
M  V30 5096 H 469.238 2.61869 -4.82406 0
M  V30 5097 H 469.499 3.09764 -3.15434 0
M  V30 5098 N 468.558 1.5553 0.254621 0
M  V30 5099 C 469.805 1.77 0.983736 0
M  V30 5100 C 470.133 0.58133 1.85609 0
M  V30 5101 O 469.388 -0.435621 1.9079 0
M  V30 5102 C 469.687 3.03891 1.88109 0
M  V30 5103 C 469.353 4.35597 1.16472 0
M  V30 5104 C 468.015 4.7139 0.966714 0
M  V30 5105 C 470.367 5.1705 0.656387 0
M  V30 5106 C 467.695 5.86176 0.247942 0
M  V30 5107 C 470.047 6.32581 -0.0488807 0
M  V30 5108 C 468.711 6.67 -0.258438 0
M  V30 5109 H 467.981 0.647688 0.359974 0
M  V30 5110 H 470.628 1.89802 0.254463 0
M  V30 5111 H 468.933 2.86068 2.67717 0
M  V30 5112 H 470.63 3.17701 2.44677 0
M  V30 5113 H 467.22 4.07475 1.32899 0
M  V30 5114 H 471.404 4.8986 0.796933 0
M  V30 5115 H 466.66 6.11354 0.075035 0
M  V30 5116 H 470.834 6.94942 -0.450444 0
M  V30 5117 H 468.461 7.55793 -0.817358 0
M  V30 5118 N 470.036 -0.519951 1.48776 0
M  V30 5119 C 470.966 -1.63253 1.66945 0
M  V30 5120 C 471.947 -1.62014 0.518224 0
M  V30 5121 O 473.132 -1.79053 0.751919 0
M  V30 5122 C 470.262 -3.0181 1.71836 0
M  V30 5123 C 469.216 -3.17911 2.8656 0
M  V30 5124 C 468.542 -4.5763 2.76548 0
M  V30 5125 C 469.842 -2.99729 4.27738 0
M  V30 5126 H 471.536 -1.48302 2.6009 0
M  V30 5127 H 469.082 -0.712026 1.25165 0
M  V30 5128 H 471.035 -3.79525 1.83135 0
M  V30 5129 H 469.759 -3.17806 0.752775 0
M  V30 5130 H 468.418 -2.42616 2.74833 0
M  V30 5131 H 468.066 -4.70476 1.77937 0
M  V30 5132 H 467.766 -4.69346 3.53536 0
M  V30 5133 H 469.29 -5.37431 2.89828 0
M  V30 5134 H 470.704 -3.67228 4.40246 0
M  V30 5135 H 469.101 -3.22932 5.05801 0
M  V30 5136 H 470.171 -1.96047 4.43502 0
M  V30 5137 N 471.514 -1.37532 -0.769588 0
M  V30 5138 C 472.477 -1.33292 -1.86456 0
M  V30 5139 C 473.477 -0.236537 -1.59051 0
M  V30 5140 O 474.667 -0.492511 -1.67093 0
M  V30 5141 C 471.799 -1.07118 -3.23633 0
M  V30 5142 H 472.992 -2.30692 -1.91628 0
M  V30 5143 H 470.545 -1.22593 -0.969572 0
M  V30 5144 H 471.28 -0.102578 -3.24138 0
M  V30 5145 H 471.065 -1.86479 -3.44917 0
M  V30 5146 H 472.555 -1.06806 -4.03711 0
M  V30 5147 N 472.992 0.995999 -1.22138 0
M  V30 5148 C 473.922 2.10387 -1.01289 0
M  V30 5149 C 474.903 1.69975 0.0651454 0
M  V30 5150 O 476.088 1.9396 -0.0964628 0
M  V30 5151 C 473.218 3.42312 -0.586517 0
M  V30 5152 C 472.172 3.96558 -1.61014 0
M  V30 5153 C 471.498 5.24494 -1.0397 0
M  V30 5154 C 472.798 4.27595 -2.99933 0
M  V30 5155 H 474.492 2.28086 -1.93951 0
M  V30 5156 H 472.038 1.09607 -0.933928 0
M  V30 5157 H 473.991 4.19223 -0.427793 0
M  V30 5158 H 472.715 3.24431 0.375761 0
M  V30 5159 H 471.374 3.21776 -1.75658 0
M  V30 5160 H 471.022 5.02953 -0.0688703 0
M  V30 5161 H 470.722 5.61755 -1.72352 0
M  V30 5162 H 472.246 6.04042 -0.892494 0
M  V30 5163 H 473.66 4.95315 -2.8868 0
M  V30 5164 H 472.057 4.76021 -3.6541 0
M  V30 5165 H 473.127 3.35498 -3.50099 0
M  V30 5166 N 474.47 1.03057 1.19235 0
M  V30 5167 C 475.4 0.633497 2.24742 0
M  V30 5168 C 476.381 -0.358335 1.66283 0
M  V30 5169 O 477.566 -0.240676 1.92703 0
M  V30 5170 C 474.696 -0.0147648 3.47297 0
M  V30 5171 C 473.65 0.899527 4.18441 0
M  V30 5172 C 472.976 0.116281 5.34574 0
M  V30 5173 C 474.276 2.21404 4.73051 0
M  V30 5174 H 475.97 1.5155 2.58211 0
M  V30 5175 H 473.516 0.73014 1.24117 0
M  V30 5176 H 475.469 -0.304202 4.20301 0
M  V30 5177 H 474.193 -0.931577 3.13032 0
M  V30 5178 H 472.852 1.17319 3.47321 0
M  V30 5179 H 472.5 -0.802619 4.96555 0
M  V30 5180 H 472.2 0.725293 5.83107 0
M  V30 5181 H 473.724 -0.166376 6.10373 0
M  V30 5182 H 475.138 1.98601 5.37802 0
M  V30 5183 H 473.535 2.77512 5.32078 0
M  V30 5184 H 474.605 2.86752 3.91026 0
M  V30 5185 N 475.948 -1.35272 0.808662 0
M  V30 5186 C 476.858 -2.33546 0.222079 0
M  V30 5187 C 477.874 -1.6196 -0.636011 0
M  V30 5188 O 479.05 -1.93822 -0.547274 0
M  V30 5189 C 476.115 -3.41148 -0.61795 0
M  V30 5190 C 475.176 -4.28507 0.260875 0
M  V30 5191 C 474.409 -5.3097 -0.539156 0
M  V30 5192 O 474.632 -5.42123 -1.77367 0
M  V30 5193 O 473.566 -6.01858 0.0710526 0
M  V30 5194 H 477.392 -2.85515 1.03512 0
M  V30 5195 H 474.977 -1.38079 0.570495 0
M  V30 5196 H 476.859 -4.06889 -1.09634 0
M  V30 5197 H 475.534 -2.91447 -1.40855 0
M  V30 5198 H 474.441 -3.6574 0.786451 0
M  V30 5199 H 475.774 -4.81611 1.01547 0
M  V30 5200 N 477.426 -0.562348 -1.47226 0
M  V30 5201 C 478.656 -0.0451619 -2.06551 0
M  V30 5202 C 479.064 1.25626 -1.41473 0
M  V30 5203 O 478.407 1.76563 -0.507061 0
M  V30 5204 C 478.469 0.216068 -3.5885 0
M  V30 5205 C 478.133 -0.996691 -4.45999 0
M  V30 5206 C 479.13 -1.90358 -4.83797 0
M  V30 5207 C 476.815 -1.21281 -4.87438 0
M  V30 5208 C 478.809 -3.01023 -5.6184 0
M  V30 5209 C 476.496 -2.32255 -5.65244 0
M  V30 5210 C 477.494 -3.21956 -6.02356 0
M  V30 5211 O 477.182 -4.31005 -6.78594 0
M  V30 5212 H 476.914 -0.0451646 -0.67449 0
M  V30 5213 H 479.468 -0.776842 -1.90143 0
M  V30 5214 H 477.698 1.00212 -3.7349 0
M  V30 5215 H 479.387 0.679264 -4.00176 0
M  V30 5216 H 480.153 -1.74868 -4.52378 0
M  V30 5217 H 476.032 -0.523767 -4.58015 0
M  V30 5218 H 479.576 -3.71064 -5.90726 0
M  V30 5219 H 475.473 -2.47715 -5.96077 0
M  V30 5220 H 476.241 -4.29118 -6.96994 0
M  V30 5221 N 478.904 1.54736 -0.299062 0
M  V30 5222 C 479.867 2.22127 0.565012 0
M  V30 5223 C 480.867 1.20669 1.06281 0
M  V30 5224 O 482.057 1.45417 0.959145 0
M  V30 5225 C 479.189 2.90611 1.78208 0
M  V30 5226 H 480.382 2.99891 -0.0237448 0
M  V30 5227 H 477.935 1.5622 -0.0498788 0
M  V30 5228 H 478.67 2.16921 2.41072 0
M  V30 5229 H 478.455 3.64984 1.43281 0
M  V30 5230 H 479.945 3.42026 2.396 0
M  V30 5231 N 480.382 0.0267497 1.57577 0
M  V30 5232 C 481.629 -0.652404 1.91703 0
M  V30 5233 C 481.957 -1.72271 0.902936 0
M  V30 5234 O 481.212 -1.955 -0.0884843 0
M  V30 5235 C 481.511 -1.30914 3.3256 0
M  V30 5236 C 481.177 -0.369441 4.49384 0
M  V30 5237 C 479.839 -0.110791 4.81072 0
M  V30 5238 C 482.191 0.275971 5.20469 0
M  V30 5239 C 479.519 0.801116 5.81205 0
M  V30 5240 C 481.871 1.17592 6.21575 0
M  V30 5241 C 480.535 1.44348 6.51705 0
M  V30 5242 H 479.805 -0.238732 0.70149 0
M  V30 5243 H 482.452 0.0880091 1.91298 0
M  V30 5244 H 480.757 -2.12425 3.29216 0
M  V30 5245 H 482.454 -1.84115 3.56234 0
M  V30 5246 H 479.044 -0.581211 4.24641 0
M  V30 5247 H 483.228 0.0892 4.9622 0
M  V30 5248 H 478.484 1.01614 6.02897 0
M  V30 5249 H 482.658 1.68223 6.75777 0
M  V30 5250 H 480.285 2.15176 7.29111 0
M  V30 5251 N 481.861 -1.55662 -0.24637 0
M  V30 5252 C 483.107 -1.77782 -0.975779 0
M  V30 5253 C 483.44 -0.592103 -1.84953 0
M  V30 5254 O 482.715 0.409588 -1.90138 0
M  V30 5255 C 482.998 -3.09788 -1.83584 0
M  V30 5256 C 482.851 -4.38764 -0.990241 0
M  V30 5257 C 484.17 -3.38029 -2.81823 0
M  V30 5258 H 481.289 -0.646789 -0.353317 0
M  V30 5259 H 483.931 -1.88398 -0.246248 0
M  V30 5260 H 482.081 -3.00869 -2.45784 0
M  V30 5261 H 483.753 -4.59675 -0.386897 0
M  V30 5262 H 481.996 -4.32798 -0.294626 0
M  V30 5263 H 482.667 -5.27514 -1.62584 0
M  V30 5264 H 485.143 -3.46915 -2.2976 0
M  V30 5265 H 484.019 -4.3161 -3.39122 0
M  V30 5266 H 484.28 -2.58968 -3.58313 0
M  V30 5267 N 483.339 0.512053 -1.4905 0
M  V30 5268 C 484.287 1.63568 -1.65373 0
M  V30 5269 C 485.281 1.61228 -0.519806 0
M  V30 5270 O 486.487 1.65869 -0.699101 0
M  V30 5271 H 482.862 0.542019 -0.521267 0
M  V30 5272 H 484.833 1.4695 -2.59708 0
M  V30 5273 C 483.582 3.01761 -1.7273 0
M  V30 5274 H 482.905 3.04263 -2.59353 0
M  V30 5275 H 484.345 3.79948 -1.8819 0
M  V30 5276 C 482.804 3.33609 -0.46973 0
M  V30 5277 O 483.334 3.99607 0.409492 0
M  V30 5278 N 481.54 2.88651 -0.336003 0
M  V30 5279 H 481.087 2.35119 -1.05247 0
M  V30 5280 H 481.045 3.10328 0.504363 0
M  V30 5281 N 484.817 1.37938 0.762283 0
M  V30 5282 C 486.047 1.36685 1.54922 0
M  V30 5283 C 486.455 -0.0474099 1.89141 0
M  V30 5284 O 485.798 -1.02213 1.52638 0
M  V30 5285 C 485.86 2.14963 2.88152 0
M  V30 5286 C 485.524 3.6385 2.76518 0
M  V30 5287 C 486.521 4.57531 2.46904 0
M  V30 5288 C 484.206 4.07095 2.94243 0
M  V30 5289 C 486.2 5.92436 2.35156 0
M  V30 5290 C 483.887 5.42083 2.82116 0
M  V30 5291 C 484.885 6.34567 2.52614 0
M  V30 5292 O 484.573 7.67073 2.40529 0
M  V30 5293 H 484.305 0.469586 0.486276 0
M  V30 5294 H 486.859 1.82012 0.951876 0
M  V30 5295 H 485.089 1.6434 3.50042 0
M  V30 5296 H 486.778 2.06224 3.49609 0
M  V30 5297 H 487.544 4.25428 2.32886 0
M  V30 5298 H 483.423 3.35462 3.16206 0
M  V30 5299 H 486.967 6.64591 2.12049 0
M  V30 5300 H 482.864 5.73785 2.95704 0
M  V30 5301 H 483.632 7.77499 2.55807 0
M  V30 5302 N 486.295 -0.989507 1.22664 0
M  V30 5303 C 487.544 -1.72375 1.04737 0
M  V30 5304 C 487.857 -1.91096 -0.417316 0
M  V30 5305 O 489.063 -2.6188 -0.716334 0
M  V30 5306 C 487.519 -3.10161 1.82561 0
M  V30 5307 C 487.127 -2.99358 3.333 0
M  V30 5308 C 488.871 -3.87607 1.73093 0
M  V30 5309 C 486.778 -4.32319 4.03552 0
M  V30 5310 H 485.708 -0.646326 0.388302 0
M  V30 5311 H 488.359 -1.10437 1.46546 0
M  V30 5312 H 486.741 -3.728 1.33552 0
M  V30 5313 H 487.915 -2.45863 3.89728 0
M  V30 5314 H 486.23 -2.35392 3.43481 0
M  V30 5315 H 488.827 -4.86025 2.22899 0
M  V30 5316 H 489.17 -4.10509 0.691976 0
M  V30 5317 H 489.703 -3.31652 2.19663 0
M  V30 5318 H 486.442 -4.14616 5.07714 0
M  V30 5319 H 485.962 -4.85714 3.51911 0
M  V30 5320 H 487.641 -5.01051 4.09337 0
M  V30 5321 N 487.773 -1.03688 -1.18687 0
M  V30 5322 C 489.02 -0.73803 -1.88572 0
M  V30 5323 C 489.348 0.733973 -1.8012 0
M  V30 5324 O 488.603 1.55098 -1.19344 0
M  V30 5325 C 488.902 -1.14477 -3.3857 0
M  V30 5326 C 488.568 -2.61641 -3.67226 0
M  V30 5327 C 487.23 -3.01846 -3.74757 0
M  V30 5328 C 489.582 -3.56812 -3.79914 0
M  V30 5329 C 486.91 -4.36118 -3.92451 0
M  V30 5330 C 489.262 -4.90799 -3.99123 0
M  V30 5331 C 487.926 -5.3068 -4.04888 0
M  V30 5332 H 487.196 -0.270064 -0.690034 0
M  V30 5333 H 489.843 -1.3012 -1.40503 0
M  V30 5334 H 488.148 -0.500337 -3.88592 0
M  V30 5335 H 489.845 -0.89095 -3.90977 0
M  V30 5336 H 486.435 -2.29498 -3.61979 0
M  V30 5337 H 490.619 -3.26899 -3.73431 0
M  V30 5338 H 485.875 -4.66542 -3.95157 0
M  V30 5339 H 490.049 -5.64451 -4.07882 0
M  V30 5340 H 487.676 -6.34733 -4.18351 0
M  V30 5341 N 489.251 1.34841 -0.815825 0
M  V30 5342 C 490.498 1.98499 -0.400535 0
M  V30 5343 C 490.826 1.64699 1.03463 0
M  V30 5344 O 490.081 0.907006 1.73412 0
M  V30 5345 C 490.38 3.53273 -0.541541 0
M  V30 5346 C 490.046 4.06966 -1.94138 0
M  V30 5347 C 488.708 4.21341 -2.32433 0
M  V30 5348 C 491.06 4.35933 -2.85677 0
M  V30 5349 C 488.388 4.62007 -3.61617 0
M  V30 5350 C 490.74 4.78042 -4.14317 0
M  V30 5351 C 489.404 4.90622 -4.52599 0
M  V30 5352 H 488.674 0.72636 -0.146566 0
M  V30 5353 H 491.321 1.60902 -1.0384 0
M  V30 5354 H 489.626 3.91387 0.179741 0
M  V30 5355 H 491.323 4.00497 -0.20085 0
M  V30 5356 H 487.913 3.96235 -1.63388 0
M  V30 5357 H 492.097 4.24372 -2.57337 0
M  V30 5358 H 487.353 4.69937 -3.91113 0
M  V30 5359 H 491.527 4.99415 -4.85342 0
M  V30 5360 H 489.154 5.2189 -5.52752 0
M  V30 5361 N 490.729 0.570148 1.46925 0
M  V30 5362 C 491.977 0.0508523 2.02036 0
M  V30 5363 C 492.298 -1.30885 1.44548 0
M  V30 5364 O 491.568 -1.85647 0.625453 0
M  V30 5365 H 490.148 0.0158088 0.746833 0
M  V30 5366 H 492.81 0.743086 1.80178 0
M  V30 5367 H 491.906 -0.027575 3.12088 0
M  V30 5368 N 492.207 -1.54576 0.307264 0
M  V30 5369 C 493.154 -2.23751 -0.56604 0
M  V30 5370 C 494.124 -1.22235 -1.12462 0
M  V30 5371 O 495.309 -1.50873 -1.16799 0
M  V30 5372 C 492.449 -2.98661 -1.72903 0
M  V30 5373 C 491.562 -4.14963 -1.20124 0
M  V30 5374 C 490.697 -4.77441 -2.3286 0
M  V30 5375 C 489.736 -5.85875 -1.77247 0
M  V30 5376 N 488.873 -6.42282 -2.8358 0
M  V30 5377 H 493.713 -2.97984 0.0304578 0
M  V30 5378 H 491.25 -1.47076 0.0268015 0
M  V30 5379 H 493.208 -3.40329 -2.41313 0
M  V30 5380 H 491.838 -2.26793 -2.29706 0
M  V30 5381 H 490.89 -3.78193 -0.409198 0
M  V30 5382 H 492.202 -4.93066 -0.754171 0
M  V30 5383 H 491.356 -5.21993 -3.09205 0
M  V30 5384 H 490.095 -3.98684 -2.80896 0
M  V30 5385 H 489.1 -5.40741 -0.993926 0
M  V30 5386 H 490.325 -6.6652 -1.30107 0
M  V30 5387 H 488.271 -5.66406 -3.30939 0
M  V30 5388 H 488.188 -7.1575 -2.43388 0
M  V30 5389 H 489.456 -6.91492 -3.59804 0
M  V30 5390 N 493.685 -0.035106 -1.57561 0
M  V30 5391 C 494.933 0.64096 -1.91667 0
M  V30 5392 C 495.254 1.72323 -0.912681 0
M  V30 5393 O 494.524 1.95849 0.0449089 0
M  V30 5394 H 493.104 0.239743 -0.707483 0
M  V30 5395 H 495.766 -0.084321 -1.94718 0
M  V30 5396 H 494.862 1.08987 -2.92452 0
M  V30 5397 N 495.163 1.55791 0.238111 0
M  V30 5398 C 496.574 1.68383 0.806472 0
M  V30 5399 C 496.925 0.634157 1.85669 0
M  V30 5400 O 496.05 -0.217913 2.153 0
M  V30 5401 C 496.645 3.05268 1.46959 0
M  V30 5402 C 495.204 3.1977 1.98555 0
M  V30 5403 C 494.351 2.64279 0.839763 0
M  V30 5404 H 497.302 1.58694 0.0137535 0
M  V30 5405 H 497.323 3.00203 2.33792 0
M  V30 5406 H 496.835 3.81643 0.704993 0
M  V30 5407 H 494.936 2.48234 2.77868 0
M  V30 5408 H 495.049 4.26788 2.17689 0
M  V30 5409 H 493.413 2.22329 1.24265 0
M  V30 5410 H 494.196 3.43187 0.0881032 0
M  V30 5411 N 496.642 -0.504142 1.49319 0
M  V30 5412 C 497.574 -1.62265 1.61872 0
M  V30 5413 C 498.587 -1.54881 0.501573 0
M  V30 5414 O 499.776 -1.6087 0.773497 0
M  V30 5415 C 496.876 -3.01042 1.55651 0
M  V30 5416 C 496.049 -3.33642 2.82845 0
M  V30 5417 C 495.108 -4.51816 2.69719 0
M  V30 5418 O 494.134 -4.53755 3.4365 0
M  V30 5419 N 495.336 -5.51543 1.81055 0
M  V30 5420 H 498.101 -1.51924 2.58339 0
M  V30 5421 H 495.662 -0.691954 1.46368 0
M  V30 5422 H 497.654 -3.78013 1.44528 0
M  V30 5423 H 496.224 -3.05323 0.670546 0
M  V30 5424 H 495.444 -2.45598 3.08343 0
M  V30 5425 H 496.732 -3.5222 3.67177 0
M  V30 5426 H 496.13 -5.52774 1.20241 0
M  V30 5427 H 494.687 -6.27629 1.75856 0
M  V30 5428 N 498.12 -1.38341 -0.754957 0
M  V30 5429 C 499.067 -1.3546 -1.86867 0
M  V30 5430 C 500.037 -0.217369 -1.64672 0
M  V30 5431 O 501.222 -0.409383 -1.86356 0
M  V30 5432 C 498.362 -1.18413 -3.24149 0
M  V30 5433 C 497.475 -2.41511 -3.58185 0
M  V30 5434 C 496.61 -2.17205 -4.84763 0
M  V30 5435 C 495.649 -3.36081 -5.11582 0
M  V30 5436 N 494.786 -3.11219 -6.29354 0
M  V30 5437 H 499.626 -2.30672 -1.88664 0
M  V30 5438 H 497.163 -1.14607 -0.922154 0
M  V30 5439 H 499.121 -1.06545 -4.03366 0
M  V30 5440 H 497.751 -0.268397 -3.21682 0
M  V30 5441 H 496.803 -2.64056 -2.73822 0
M  V30 5442 H 498.115 -3.30115 -3.73932 0
M  V30 5443 H 497.269 -2.02465 -5.7192 0
M  V30 5444 H 496.008 -1.25964 -4.71152 0
M  V30 5445 H 495.013 -3.51341 -4.22894 0
M  V30 5446 H 496.238 -4.28196 -5.27091 0
M  V30 5447 H 494.184 -2.22624 -6.17069 0
M  V30 5448 H 494.101 -3.93373 -6.45596 0
M  V30 5449 H 495.369 -3.00132 -7.19403 0
M  V30 5450 N 499.598 0.982988 -1.23187 0
M  V30 5451 C 500.545 2.07491 -1.01075 0
M  V30 5452 C 501.515 1.65949 0.070905 0
M  V30 5453 O 502.7 1.90629 -0.0806822 0
M  V30 5454 C 499.84 3.39751 -0.605261 0
M  V30 5455 C 498.953 3.94578 -1.75876 0
M  V30 5456 C 498.088 5.15039 -1.3003 0
M  V30 5457 C 497.127 5.62027 -2.42472 0
M  V30 5458 N 496.264 6.73719 -1.97602 0
M  V30 5459 H 501.104 2.25739 -1.9454 0
M  V30 5460 H 498.641 1.10659 -0.969179 0
M  V30 5461 H 500.599 4.15719 -0.351279 0
M  V30 5462 H 499.229 3.21473 0.292382 0
M  V30 5463 H 498.281 3.1539 -2.12681 0
M  V30 5464 H 499.593 4.25422 -2.60418 0
M  V30 5465 H 498.747 5.9833 -1.00429 0
M  V30 5466 H 497.486 4.85843 -0.425216 0
M  V30 5467 H 496.491 4.77318 -2.7285 0
M  V30 5468 H 497.716 5.93244 -3.30512 0
M  V30 5469 H 495.662 6.46287 -1.1247 0
M  V30 5470 H 495.579 7.03934 -2.75705 0
M  V30 5471 H 496.847 7.6049 -1.71098 0
M  V30 5472 N 501.076 1.04316 1.18135 0
M  V30 5473 C 502.324 0.746542 1.87806 0
M  V30 5474 C 502.645 -0.728082 1.80898 0
M  V30 5475 O 501.915 -1.52554 1.22899 0
M  V30 5476 H 500.495 0.273157 0.695265 0
M  V30 5477 H 503.157 1.32044 1.43354 0
M  V30 5478 H 502.253 1.05362 2.93778 0
M  V30 5479 N 502.554 -1.34406 0.822964 0
M  V30 5480 C 503.517 -2.2783 0.250271 0
M  V30 5481 C 504.517 -1.50288 -0.571854 0
M  V30 5482 O 505.707 -1.69825 -0.387952 0
M  V30 5483 C 502.839 -3.34663 -0.649137 0
M  V30 5484 H 504.032 -2.79992 1.07444 0
M  V30 5485 H 501.585 -1.44539 0.594829 0
M  V30 5486 H 502.32 -2.87714 -1.49637 0
M  V30 5487 H 502.105 -3.92052 -0.0611199 0
M  V30 5488 H 503.595 -4.04349 -1.04363 0
M  V30 5489 N 504.032 -0.577932 -1.46621 0
M  V30 5490 C 505.257 -0.0652536 -2.07297 0
M  V30 5491 C 505.682 1.22828 -1.4246 0
M  V30 5492 O 505.04 1.74075 -0.506718 0
M  V30 5493 C 505.088 0.0920589 -3.60482 0
M  V30 5494 O 504.192 1.14972 -3.96049 0
M  V30 5495 H 503.533 -0.06065 -0.661224 0
M  V30 5496 H 506.063 -0.799515 -1.88332 0
M  V30 5497 H 506.073 0.299741 -4.06897 0
M  V30 5498 H 504.748 -0.852612 -4.07067 0
M  V30 5499 H 503.325 0.920879 -3.61351 0
M  V30 5500 N 505.51 1.54411 -0.315457 0
M  V30 5501 C 506.457 2.24048 0.554166 0
M  V30 5502 C 507.427 1.2283 1.11812 0
M  V30 5503 O 508.612 1.51491 1.15997 0
M  V30 5504 C 505.752 2.99574 1.71316 0
M  V30 5505 C 504.865 4.15594 1.17922 0
M  V30 5506 C 504 4.78669 2.30324 0
M  V30 5507 C 503.039 5.86807 1.74137 0
M  V30 5508 N 502.176 6.43777 2.8017 0
M  V30 5509 H 507.016 2.97964 -0.0462602 0
M  V30 5510 H 504.553 1.47059 -0.0346009 0
M  V30 5511 H 506.511 3.41604 2.39505 0
M  V30 5512 H 505.141 2.28008 2.285 0
M  V30 5513 H 504.193 3.78404 0.389136 0
M  V30 5514 H 505.505 4.93459 0.728012 0
M  V30 5515 H 504.659 5.23626 3.06433 0
M  V30 5516 H 503.398 4.00168 2.78778 0
M  V30 5517 H 502.403 5.41261 0.965236 0
M  V30 5518 H 503.628 6.67201 1.2657 0
M  V30 5519 H 501.574 5.68153 3.2793 0
M  V30 5520 H 501.491 7.17031 2.39588 0
M  V30 5521 H 502.759 6.9339 3.56132 0
M  V30 5522 N 506.988 0.0434614 1.5754 0
M  V30 5523 C 507.92 -0.962586 2.08007 0
M  V30 5524 C 508.933 -1.27972 1.00634 0
M  V30 5525 O 510.122 -1.24186 1.28219 0
M  V30 5526 C 507.222 -2.28621 2.50171 0
M  V30 5527 C 506.395 -2.15214 3.80791 0
M  V30 5528 C 505.454 -3.30633 4.09351 0
M  V30 5529 O 504.48 -3.0688 4.79388 0
M  V30 5530 N 505.682 -4.54873 3.60654 0
M  V30 5531 H 508.447 -0.531891 2.94942 0
M  V30 5532 H 506.008 -0.142965 1.61268 0
M  V30 5533 H 508 -3.04689 2.66359 0
M  V30 5534 H 506.57 -2.63283 1.68525 0
M  V30 5535 H 505.79 -1.23785 3.74261 0
M  V30 5536 H 507.078 -2.03475 4.66343 0
M  V30 5537 H 506.476 -4.77063 3.04019 0
M  V30 5538 H 505.033 -5.2806 3.82094 0
M  V30 5539 N 508.466 -1.55915 -0.229846 0
M  V30 5540 C 509.743 -1.6932 -0.979295 0
M  V30 5541 C 510.123 -0.588321 -2.02736 0
M  V30 5542 O 509.471 0.40586 -2.24867 0
M  V30 5543 C 509.681 -3.10305 -1.59724 0
M  V30 5544 C 511.029 -3.6945 -2.09264 0
M  V30 5545 O 512.053 -3.13214 -1.69633 0
M  V30 5546 O 510.912 -4.68072 -2.82082 0
M  V30 5547 H 508.006 -0.689314 -0.456919 0
M  V30 5548 H 510.552 -1.68238 -0.222283 0
M  V30 5549 H 509.324 -3.82177 -0.840039 0
M  V30 5550 H 508.947 -3.1547 -2.42001 0
M  V30 5551 N 509.944 0.496216 -1.49584 0
M  V30 5552 C 510.876 1.61404 -1.62731 0
M  V30 5553 C 511.889 1.54613 -0.50978 0
M  V30 5554 O 513.078 1.60458 -0.782017 0
M  V30 5555 C 510.178 3.00212 -1.57245 0
M  V30 5556 C 509.351 3.32138 -2.84611 0
M  V30 5557 C 508.41 4.5038 -2.72112 0
M  V30 5558 O 507.436 4.51926 -3.46051 0
M  V30 5559 N 508.638 5.50575 -1.83977 0
M  V30 5560 H 511.403 1.50552 -2.59141 0
M  V30 5561 H 508.964 0.684182 -1.46733 0
M  V30 5562 H 510.956 3.77241 -1.4653 0
M  V30 5563 H 509.526 3.04964 -0.686729 0
M  V30 5564 H 508.746 2.4396 -3.09641 0
M  V30 5565 H 510.034 3.50268 -3.69039 0
M  V30 5566 H 509.432 5.52128 -1.23171 0
M  V30 5567 H 507.989 6.26687 -1.79182 0
M  V30 5568 N 511.423 1.38739 0.74761 0
M  V30 5569 C 512.648 1.38702 1.54197 0
M  V30 5570 C 513.073 -0.019664 1.8809 0
M  V30 5571 O 512.431 -1.00333 1.51006 0
M  V30 5572 C 512.479 2.25492 2.814 0
M  V30 5573 O 511.583 1.67613 3.76802 0
M  V30 5574 H 510.924 0.472863 0.466151 0
M  V30 5575 H 513.454 1.82577 0.923413 0
M  V30 5576 H 513.464 2.39561 3.30264 0
M  V30 5577 H 512.139 3.27727 2.56062 0
M  V30 5578 H 510.716 1.62718 3.35526 0
M  V30 5579 N 512.901 -0.976442 1.23707 0
M  V30 5580 C 513.864 -2.0511 1.02287 0
M  V30 5581 C 514.864 -1.60791 -0.0167195 0
M  V30 5582 O 516.054 -1.72761 0.223408 0
M  V30 5583 C 513.186 -3.36458 0.548507 0
M  V30 5584 H 514.379 -2.25545 1.9766 0
M  V30 5585 H 511.932 -1.15042 1.05806 0
M  V30 5586 H 512.667 -3.21713 -0.408818 0
M  V30 5587 H 512.452 -3.69967 1.29874 0
M  V30 5588 H 513.942 -4.15489 0.419406 0
M  V30 5589 N 514.379 -1.04941 -1.1758 0
M  V30 5590 C 515.327 -0.64204 -2.23563 0
M  V30 5591 C 516.321 0.335453 -1.66045 0
M  V30 5592 O 517.527 0.20179 -1.78865 0
M  V30 5593 H 513.902 -0.18944 -0.727748 0
M  V30 5594 H 515.873 -1.54609 -2.55223 0
M  V30 5595 C 514.622 -0.0301051 -3.47687 0
M  V30 5596 H 513.945 -0.773339 -3.92249 0
M  V30 5597 H 515.385 0.217592 -4.23441 0
M  V30 5598 C 513.844 1.2225 -3.13937 0
M  V30 5599 O 514.374 2.3122 -3.28482 0
M  V30 5600 N 512.58 1.11917 -2.68185 0
M  V30 5601 H 512.127 0.232403 -2.5655 0
M  V30 5602 H 512.085 1.95814 -2.45976 0
M  V30 5603 N 515.857 1.33968 -0.830081 0
M  V30 5604 C 516.767 2.33164 -0.259207 0
M  V30 5605 C 517.783 1.62951 0.610164 0
M  V30 5606 O 518.959 1.94668 0.516369 0
M  V30 5607 C 516.024 3.42088 0.563598 0
M  V30 5608 C 515.085 4.28037 -0.329014 0
M  V30 5609 C 514.318 5.3176 0.454616 0
M  V30 5610 O 514.541 5.44876 1.6872 0
M  V30 5611 O 513.475 6.01669 -0.166794 0
M  V30 5612 H 517.301 2.83832 -1.08041 0
M  V30 5613 H 514.886 1.37154 -0.59239 0
M  V30 5614 H 516.768 4.08581 1.03147 0
M  V30 5615 H 515.443 2.93651 1.36201 0
M  V30 5616 H 514.35 3.64443 -0.844538 0
M  V30 5617 H 515.683 4.79934 -1.09196 0
M  V30 5618 N 517.335 0.585699 1.46312 0
M  V30 5619 C 518.282 -0.145835 2.30339 0
M  V30 5620 C 519.252 -0.881215 1.40797 0
M  V30 5621 O 520.437 -0.871293 1.69744 0
M  V30 5622 C 517.577 -1.15161 3.25318 0
M  V30 5623 C 516.69 -0.419367 4.2996 0
M  V30 5624 C 515.825 -1.41293 5.12064 0
M  V30 5625 C 514.864 -0.667261 6.08452 0
M  V30 5626 N 514.001 -1.60903 6.83414 0
M  V30 5627 H 518.841 0.576755 2.92365 0
M  V30 5628 H 516.378 0.296237 1.44086 0
M  V30 5629 H 518.336 -1.74763 3.78832 0
M  V30 5630 H 516.966 -1.84188 2.65094 0
M  V30 5631 H 516.018 0.291751 3.7928 0
M  V30 5632 H 517.33 0.163433 4.98532 0
M  V30 5633 H 516.484 -2.08167 5.6987 0
M  V30 5634 H 515.223 -2.02966 4.43459 0
M  V30 5635 H 514.228 0.0152356 5.49798 0
M  V30 5636 H 515.453 -0.0558817 6.79077 0
M  V30 5637 H 513.399 -2.21381 6.17516 0
M  V30 5638 H 513.316 -1.07911 7.48259 0
M  V30 5639 H 514.584 -2.26802 7.45775 0
M  V30 5640 N 518.813 -1.54241 0.323641 0
M  V30 5641 C 519.761 -2.25813 -0.557804 0
M  V30 5642 C 520.755 -1.27225 -1.11849 0
M  V30 5643 O 521.961 -1.45001 -1.06652 0
M  V30 5644 H 518.336 -0.72532 -0.198532 0
M  V30 5645 H 520.307 -2.98322 0.0681112 0
M  V30 5646 C 519.056 -3.02913 -1.70701 0
M  V30 5647 H 518.379 -3.78593 -1.28482 0
M  V30 5648 H 519.819 -3.56238 -2.29935 0
M  V30 5649 C 518.278 -2.11217 -2.62467 0
M  V30 5650 O 518.808 -1.69508 -3.64184 0
M  V30 5651 N 517.014 -1.76704 -2.30703 0
M  V30 5652 H 516.561 -2.1082 -1.48029 0
M  V30 5653 H 516.519 -1.15631 -2.92364 0
M  V30 5654 N 520.291 -0.0518155 -1.57515 0
M  V30 5655 C 521.238 0.922352 -2.11569 0
M  V30 5656 C 522.208 1.30842 -1.02321 0
M  V30 5657 O 523.393 1.39778 -1.29872 0
M  V30 5658 C 520.533 2.19167 -2.6657 0
M  V30 5659 C 519.646 1.86003 -3.89906 0
M  V30 5660 C 518.781 3.07398 -4.33221 0
M  V30 5661 C 517.82 2.70158 -5.49255 0
M  V30 5662 N 516.957 3.84248 -5.8762 0
M  V30 5663 H 521.797 0.454506 -2.94514 0
M  V30 5664 H 519.334 0.212718 -1.45554 0
M  V30 5665 H 521.292 2.93443 -2.96559 0
M  V30 5666 H 519.922 2.63528 -1.86421 0
M  V30 5667 H 518.974 1.01874 -3.66505 0
M  V30 5668 H 520.286 1.54592 -4.74239 0
M  V30 5669 H 519.44 3.89972 -4.64765 0
M  V30 5670 H 518.179 3.41988 -3.477 0
M  V30 5671 H 517.184 1.86001 -5.17382 0
M  V30 5672 H 518.409 2.36759 -6.36492 0
M  V30 5673 H 516.355 4.18638 -5.05053 0
M  V30 5674 H 516.272 3.56538 -6.66646 0
M  V30 5675 H 517.54 4.6746 -6.2378 0
M  V30 5676 N 521.769 1.56035 0.221574 0
M  V30 5677 C 522.699 1.95434 1.2778 0
M  V30 5678 C 523.68 0.822564 1.48889 0
M  V30 5679 O 524.865 1.08486 1.61072 0
M  V30 5680 C 521.995 2.27102 2.62759 0
M  V30 5681 C 520.949 3.4277 2.56306 0
M  V30 5682 C 520.275 3.60043 3.95314 0
M  V30 5683 C 521.575 4.77742 2.11093 0
M  V30 5684 H 523.269 2.83912 0.950504 0
M  V30 5685 H 520.815 1.36596 0.455791 0
M  V30 5686 H 522.768 2.53256 3.36807 0
M  V30 5687 H 521.492 1.35478 2.97176 0
M  V30 5688 H 520.151 3.16664 1.84715 0
M  V30 5689 H 519.799 2.65794 4.27039 0
M  V30 5690 H 519.499 4.37841 3.91879 0
M  V30 5691 H 521.023 3.88545 4.71025 0
M  V30 5692 H 522.437 5.03102 2.74885 0
M  V30 5693 H 520.834 5.58823 2.18716 0
M  V30 5694 H 521.904 4.731 1.06321 0
M  V30 5695 N 523.247 -0.488276 1.49845 0
M  V30 5696 C 524.157 -1.61451 1.70207 0
M  V30 5697 C 525.173 -1.63877 0.584846 0
M  V30 5698 O 526.349 -1.82063 0.861107 0
M  V30 5699 C 523.414 -2.9776 1.77594 0
M  V30 5700 C 522.475 -3.05861 3.01243 0
M  V30 5701 C 521.708 -4.35668 3.08268 0
M  V30 5702 O 521.931 -5.25197 2.22541 0
M  V30 5703 O 520.865 -4.49005 4.00847 0
M  V30 5704 H 524.691 -1.47199 2.65643 0
M  V30 5705 H 522.276 -0.665939 1.33737 0
M  V30 5706 H 524.158 -3.7875 1.84732 0
M  V30 5707 H 522.833 -3.12248 0.8534 0
M  V30 5708 H 521.74 -2.24012 2.99616 0
M  V30 5709 H 523.073 -2.96304 3.9302 0
M  V30 5710 N 524.725 -1.39134 -0.740242 0
M  V30 5711 C 525.658 -1.3182 -1.86276 0
M  V30 5712 C 526.636 -0.192794 -1.61453 0
M  V30 5713 O 527.82 -0.372365 -1.84786 0
M  V30 5714 C 524.947 -1.04564 -3.22155 0
M  V30 5715 C 523.993 -2.19224 -3.65846 0
M  V30 5716 S 524.826 -3.81466 -3.75824 0
M  V30 5717 C 525.982 -3.56425 -5.14502 0
M  V30 5718 H 526.215 -2.26822 -1.92195 0
M  V30 5719 H 523.748 -1.25127 -0.904576 0
M  V30 5720 H 525.706 -0.895228 -4.00619 0
M  V30 5721 H 524.367 -0.112578 -3.13898 0
M  V30 5722 H 523.56 -1.95732 -4.6444 0
M  V30 5723 H 523.162 -2.30441 -2.94572 0
M  V30 5724 H 525.454 -3.13366 -6.00673 0
M  V30 5725 H 526.397 -4.54462 -5.43019 0
M  V30 5726 H 526.805 -2.90641 -4.8393 0
M  V30 5727 N 526.204 0.969867 -1.24223 0
M  V30 5728 C 527.152 2.08535 -1.03034 0
M  V30 5729 C 528.146 1.69366 0.0340379 0
M  V30 5730 O 529.352 1.79597 -0.12034 0
M  V30 5731 H 525.727 0.682313 -0.316154 0
M  V30 5732 H 527.698 2.23569 -1.97635 0
M  V30 5733 C 526.447 3.4158 -0.649509 0
M  V30 5734 H 525.77 3.72177 -1.46028 0
M  V30 5735 H 527.21 4.20536 -0.540841 0
M  V30 5736 C 525.669 3.30703 0.643194 0
M  V30 5737 O 526.199 3.64443 1.68951 0
M  V30 5738 N 524.405 2.83841 0.623095 0
M  V30 5739 H 523.952 2.56583 -0.228719 0
M  V30 5740 H 523.91 2.76946 1.48823 0
M  V30 5741 N 527.682 1.05563 1.17022 0
M  V30 5742 C 528.629 0.659893 2.21165 0
M  V30 5743 C 529.599 -0.339813 1.62587 0
M  V30 5744 O 530.784 -0.230378 1.89404 0
M  V30 5745 C 527.924 0.0447297 3.45071 0
M  V30 5746 C 527.037 1.09372 4.17926 0
M  V30 5747 C 526.172 0.445481 5.29329 0
M  V30 5748 C 525.211 1.47852 5.93975 0
M  V30 5749 N 524.348 0.854172 6.96885 0
M  V30 5750 H 529.188 1.55243 2.54369 0
M  V30 5751 H 526.725 0.776336 1.24946 0
M  V30 5752 H 528.683 -0.329404 4.15898 0
M  V30 5753 H 527.313 -0.811244 3.1244 0
M  V30 5754 H 526.365 1.58564 3.45777 0
M  V30 5755 H 527.677 1.87773 4.62107 0
M  V30 5756 H 526.831 0.0179688 6.06697 0
M  V30 5757 H 525.57 -0.370481 4.86291 0
M  V30 5758 H 524.575 1.91601 5.15334 0
M  V30 5759 H 525.8 2.29645 6.39093 0
M  V30 5760 H 523.746 0.0587882 6.55974 0
M  V30 5761 H 523.663 1.57567 7.39397 0
M  V30 5762 H 524.931 0.451559 7.78191 0
M  V30 5763 N 529.16 -1.33526 0.837174 0
M  V30 5764 C 530.406 -1.9813 0.432704 0
M  V30 5765 C 530.739 -1.66168 -1.00508 0
M  V30 5766 O 530.014 -0.94069 -1.70239 0
M  V30 5767 C 530.297 -3.54151 0.651834 0
M  V30 5768 C 530.15 -3.95806 2.13676 0
M  V30 5769 C 531.469 -4.39993 0.0968937 0
M  V30 5770 H 528.588 -0.719713 0.15869 0
M  V30 5771 H 531.23 -1.58193 1.05237 0
M  V30 5772 H 529.38 -3.88301 0.124369 0
M  V30 5773 H 531.052 -3.71921 2.72896 0
M  V30 5774 H 529.295 -3.45599 2.62191 0
M  V30 5775 H 529.966 -5.0447 2.24084 0
M  V30 5776 H 532.442 -4.12479 0.547733 0
M  V30 5777 H 531.318 -5.48186 0.279917 0
M  V30 5778 H 531.579 -4.3066 -0.9992 0
M  V30 5779 N 530.638 -0.59345 -1.46 0
M  V30 5780 C 531.57 0.171569 -2.28557 0
M  V30 5781 C 532.583 0.845273 -1.39137 0
M  V30 5782 O 533.772 0.713033 -1.6364 0
M  V30 5783 C 530.872 1.26311 -3.14482 0
M  V30 5784 C 530.045 0.679258 -4.32094 0
M  V30 5785 C 529.104 1.65987 -4.99334 0
M  V30 5786 O 528.13 1.19171 -5.56585 0
M  V30 5787 N 529.332 2.99414 -4.97324 0
M  V30 5788 H 532.097 -0.536771 -2.94854 0
M  V30 5789 H 529.658 -0.431954 -1.56031 0
M  V30 5790 H 531.65 1.91863 -3.5633 0
M  V30 5791 H 530.22 1.87416 -2.50188 0
M  V30 5792 H 529.44 -0.153992 -3.93899 0
M  V30 5793 H 530.728 0.26916 -5.08088 0
M  V30 5794 H 530.126 3.40064 -4.52076 0
M  V30 5795 H 528.683 3.60426 -5.4308 0
M  V30 5796 N 532.116 1.54067 -0.331816 0
M  V30 5797 C 533.362 2.01012 0.268667 0
M  V30 5798 C 533.695 1.2195 1.51136 0
M  V30 5799 O 532.97 0.303972 1.9211 0
M  V30 5800 C 533.253 3.55158 0.59456 0
M  V30 5801 C 533.106 4.4494 -0.659409 0
M  V30 5802 C 534.425 4.16939 1.4089 0
M  V30 5803 H 531.544 0.730698 0.0961756 0
M  V30 5804 H 534.186 1.84593 -0.450031 0
M  V30 5805 H 532.336 3.6928 1.20685 0
M  V30 5806 H 534.008 4.42675 -1.29756 0
M  V30 5807 H 532.251 4.1428 -1.28665 0
M  V30 5808 H 532.922 5.50643 -0.386804 0
M  V30 5809 H 535.398 4.06443 0.891272 0
M  V30 5810 H 534.274 5.24889 1.60569 0
M  V30 5811 H 534.535 3.70798 2.40752 0
M  V30 5812 N 533.594 0.0601682 1.57485 0
M  V30 5813 C 534.871 -0.651956 1.84415 0
M  V30 5814 C 535.251 -1.88498 0.950361 0
M  V30 5815 O 534.599 -2.28496 0.0136719 0
M  V30 5816 C 534.809 -1.00069 3.34346 0
M  V30 5817 C 536.157 -1.37915 4.01578 0
M  V30 5818 O 537.181 -1.09277 3.39024 0
M  V30 5819 O 536.04 -1.91399 5.11887 0
M  V30 5820 H 533.134 -0.322668 0.761455 0
M  V30 5821 H 535.68 0.0902159 1.6946 0
M  V30 5822 H 534.452 -0.124463 3.91102 0
M  V30 5823 H 534.075 -1.80001 3.54521 0
M  V30 5824 N 535.072 -1.5615 -0.213296 0
M  V30 5825 C 536.035 -1.92249 -1.24792 0
M  V30 5826 C 537.035 -0.801828 -1.39382 0
M  V30 5827 O 538.225 -1.06948 -1.37506 0
M  V30 5828 C 535.357 -2.18056 -2.62039 0
M  V30 5829 H 536.55 -2.84793 -0.939845 0
M  V30 5830 H 534.103 -1.49559 -0.454062 0
M  V30 5831 H 534.838 -1.2809 -2.97932 0
M  V30 5832 H 534.623 -2.99703 -2.52825 0
M  V30 5833 H 536.113 -2.47051 -3.36683 0
M  V30 5834 N 536.55 0.480323 -1.50102 0
M  V30 5835 C 537.5 1.57685 -1.6468 0
M  V30 5836 C 538.484 1.52878 -0.5017 0
M  V30 5837 O 539.676 1.60058 -0.755668 0
M  V30 5838 C 536.805 2.96185 -1.73578 0
M  V30 5839 C 535.891 3.0591 -2.93734 0
M  V30 5840 N 536.282 2.85471 -4.1754 0
M  V30 5841 C 534.58 3.37036 -2.92101 0
M  V30 5842 C 535.281 2.99921 -4.9842 0
M  V30 5843 N 534.257 3.29715 -4.32191 0
M  V30 5844 H 538.059 1.40568 -2.58104 0
M  V30 5845 H 535.573 0.686874 -1.47159 0
M  V30 5846 H 537.57 3.75015 -1.82124 0
M  V30 5847 H 536.23 3.14356 -0.813057 0
M  V30 5848 H 537.241 2.61235 -4.47188 0
M  V30 5849 H 533.918 3.61253 -2.09291 0
M  V30 5850 H 535.308 2.88436 -6.06839 0
M  V30 5851 N 538.028 1.39524 0.732853 0
M  V30 5852 C 539.276 1.36594 1.48951 0
M  V30 5853 C 539.597 -0.0367507 1.94965 0
M  V30 5854 O 538.867 -0.988391 1.69138 0
M  V30 5855 H 537.447 0.502673 0.552566 0
M  V30 5856 H 540.109 1.74411 0.869869 0
M  V30 5857 H 539.205 2.03 2.3706 0
M  V30 5858 N 539.506 -0.963266 1.24736 0
M  V30 5859 C 540.454 -2.07985 1.04139 0
M  V30 5860 C 541.448 -1.69381 -0.0250556 0
M  V30 5861 O 542.654 -1.79531 0.129863 0
M  V30 5862 H 539.029 -0.680627 0.319768 0
M  V30 5863 H 541 -2.22517 1.98818 0
M  V30 5864 C 539.749 -3.4123 0.667615 0
M  V30 5865 H 539.072 -3.71397 1.48 0
M  V30 5866 H 540.512 -4.20244 0.563136 0
M  V30 5867 C 538.971 -3.3104 -0.625647 0
M  V30 5868 O 539.501 -3.65334 -1.67016 0
M  V30 5869 N 537.707 -2.84168 -0.608033 0
M  V30 5870 H 537.254 -2.56458 0.242323 0
M  V30 5871 H 537.212 -2.77732 -1.47352 0
M  V30 5872 N 540.985 -1.06182 -1.16461 0
M  V30 5873 C 542.234 -0.772927 -1.86303 0
M  V30 5874 C 542.547 0.703187 -1.82523 0
M  V30 5875 O 543.753 1.10641 -2.47933 0
M  V30 5876 C 542.209 -1.33249 -3.34324 0
M  V30 5877 C 541.817 -2.83876 -3.46581 0
M  V30 5878 C 543.561 -1.12108 -4.09429 0
M  V30 5879 C 541.468 -3.33082 -4.88682 0
M  V30 5880 H 540.398 -0.285452 -0.697878 0
M  V30 5881 H 543.049 -1.28039 -1.31447 0
M  V30 5882 H 541.431 -0.7528 -3.88779 0
M  V30 5883 H 542.605 -3.47786 -3.02293 0
M  V30 5884 H 540.92 -3.03671 -2.84909 0
M  V30 5885 H 543.517 -1.46361 -5.14279 0
M  V30 5886 H 543.86 -0.0593832 -4.16258 0
M  V30 5887 H 544.393 -1.6665 -3.6121 0
M  V30 5888 H 541.132 -4.38726 -4.87032 0
M  V30 5889 H 540.652 -2.73919 -5.33599 0
M  V30 5890 H 542.331 -3.28344 -5.57494 0
M  V30 5891 N 542.463 1.3308 -0.844243 0
M  V30 5892 C 543.393 2.3161 -0.296493 0
M  V30 5893 C 544.374 1.59215 0.598707 0
M  V30 5894 O 545.559 1.87077 0.521134 0
M  V30 5895 C 542.689 3.43313 0.524762 0
M  V30 5896 C 541.643 4.27115 -0.275106 0
M  V30 5897 C 540.969 5.30483 0.670236 0
M  V30 5898 C 542.269 5.00443 -1.49514 0
M  V30 5899 H 543.963 2.77672 -1.11976 0
M  V30 5900 H 541.509 1.33496 -0.539899 0
M  V30 5901 H 543.462 4.11273 0.918298 0
M  V30 5902 H 542.186 2.95952 1.3813 0
M  V30 5903 H 540.845 3.60787 -0.650267 0
M  V30 5904 H 540.493 4.79379 1.52332 0
M  V30 5905 H 540.193 5.87435 0.139123 0
M  V30 5906 H 541.717 6.01308 1.06117 0
M  V30 5907 H 543.131 5.61141 -1.17447 0
M  V30 5908 H 541.528 5.67071 -1.96343 0
M  V30 5909 H 542.598 4.28906 -2.26202 0
M  V30 5910 N 543.941 0.601185 1.45683 0
M  V30 5911 C 544.871 -0.108824 2.33246 0
M  V30 5912 C 545.852 -0.865223 1.46451 0
M  V30 5913 O 547.037 -0.83704 1.75235 0
M  V30 5914 C 544.167 -1.11101 3.2905 0
M  V30 5915 C 543.121 -0.468244 4.25431 0
M  V30 5916 C 542.447 -1.57822 5.10878 0
M  V30 5917 C 543.747 0.606469 5.18767 0
M  V30 5918 H 545.441 0.622306 2.92861 0
M  V30 5919 H 542.987 0.300714 1.40825 0
M  V30 5920 H 544.94 -1.61622 3.89174 0
M  V30 5921 H 543.664 -1.87265 2.67581 0
M  V30 5922 H 542.323 0.0160484 3.66596 0
M  V30 5923 H 541.971 -2.32998 4.45781 0
M  V30 5924 H 541.671 -1.15369 5.76163 0
M  V30 5925 H 543.195 -2.08583 5.73869 0
M  V30 5926 H 544.609 0.185589 5.73 0
M  V30 5927 H 543.006 0.952381 5.92494 0
M  V30 5928 H 544.076 1.48559 4.61582 0
M  V30 5929 N 545.419 -1.53889 0.339982 0
M  V30 5930 C 546.644 -2.05741 -0.261798 0
M  V30 5931 C 547.069 -1.21354 -1.43718 0
M  V30 5932 O 546.427 -0.22645 -1.7988 0
M  V30 5933 C 546.475 -3.54542 -0.658228 0
M  V30 5934 O 545.579 -3.7302 -1.75869 0
M  V30 5935 H 544.92 -0.662529 -0.0441672 0
M  V30 5936 H 547.45 -1.98568 0.493161 0
M  V30 5937 H 547.46 -3.9711 -0.936368 0
M  V30 5938 H 546.135 -4.15412 0.201358 0
M  V30 5939 H 544.712 -3.42355 -1.47809 0
M  V30 5940 N 546.897 -0.0685191 -1.57451 0
M  V30 5941 C 548.125 0.610462 -1.97689 0
M  V30 5942 C 548.54 1.63346 -0.946758 0
M  V30 5943 O 547.897 1.82377 0.0669868 0
M  V30 5944 C 547.948 1.28196 -3.38006 0
M  V30 5945 O 547.669 0.299906 -4.37072 0
M  V30 5946 C 549.17 2.04907 -3.931 0
M  V30 5947 H 546.39 0.165689 -0.650222 0
M  V30 5948 H 548.934 -0.139953 -2.04021 0
M  V30 5949 H 547.089 1.98348 -3.32771 0
M  V30 5950 H 547.503 0.78126 -5.18649 0
M  V30 5951 H 548.977 2.47287 -4.93511 0
M  V30 5952 H 549.454 2.9043 -3.29465 0
M  V30 5953 H 550.06 1.39629 -4.01726 0
M  V30 5954 N 548.375 1.56261 0.205012 0
M  V30 5955 C 549.305 1.96779 1.257 0
M  V30 5956 C 550.286 0.838309 1.48008 0
M  V30 5957 O 551.471 1.10189 1.59913 0
M  V30 5958 C 548.601 2.29876 2.60335 0
M  V30 5959 C 547.555 3.45469 2.52656 0
M  V30 5960 C 546.881 3.64215 3.91473 0
M  V30 5961 C 548.181 4.79954 2.06014 0
M  V30 5962 H 549.875 2.84904 0.920338 0
M  V30 5963 H 547.421 1.37072 0.441277 0
M  V30 5964 H 549.374 2.56814 3.34102 0
M  V30 5965 H 548.098 1.38622 2.95722 0
M  V30 5966 H 546.757 3.18605 1.81345 0
M  V30 5967 H 546.405 2.70309 4.24196 0
M  V30 5968 H 546.105 4.41973 3.87213 0
M  V30 5969 H 547.629 3.93519 4.66878 0
M  V30 5970 H 549.043 5.05989 2.69533 0
M  V30 5971 H 547.44 5.61111 2.12777 0
M  V30 5972 H 548.51 4.74201 1.01297 0
M  V30 5973 N 549.853 -0.472356 1.50355 0
M  V30 5974 C 550.763 -1.59637 1.7191 0
M  V30 5975 C 551.779 -1.63247 0.602195 0
M  V30 5976 O 552.955 -1.81139 0.880369 0
M  V30 5977 C 550.02 -2.9586 1.80742 0
M  V30 5978 C 549.081 -3.02649 3.04471 0
M  V30 5979 C 548.314 -4.32374 3.12872 0
M  V30 5980 O 548.537 -5.22807 2.28099 0
M  V30 5981 O 547.471 -4.44728 4.05587 0
M  V30 5982 H 551.297 -1.44373 2.67189 0
M  V30 5983 H 548.882 -0.651717 1.34436 0
M  V30 5984 H 550.764 -3.7677 1.88739 0
M  V30 5985 H 549.439 -3.11325 0.88647 0
M  V30 5986 H 548.346 -2.20821 3.01975 0
M  V30 5987 H 549.679 -2.92119 3.9614 0
M  V30 5988 N 551.331 -1.39911 -0.725443 0
M  V30 5989 C 552.58 -1.36963 -1.48068 0
M  V30 5990 C 552.893 0.0284478 -1.95579 0
M  V30 5991 O 554.099 0.180535 -2.70899 0
M  V30 5992 C 552.555 -2.40664 -2.67598 0
M  V30 5993 C 552.163 -3.86234 -2.26997 0
M  V30 5994 C 553.907 -2.46807 -3.45379 0
M  V30 5995 C 551.814 -4.81554 -3.43307 0
M  V30 5996 H 550.744 -0.509223 -0.556065 0
M  V30 5997 H 553.395 -1.65602 -0.790454 0
M  V30 5998 H 551.777 -2.05109 -3.38742 0
M  V30 5999 H 552.951 -4.3088 -1.63337 0
M  V30 6000 H 551.266 -3.83475 -1.62284 0
M  V30 6001 H 553.863 -3.15213 -4.31909 0
M  V30 6002 H 554.206 -1.49552 -3.8851 0
M  V30 6003 H 554.739 -2.81303 -2.81271 0
M  V30 6004 H 551.478 -5.80106 -3.05217 0
M  V30 6005 H 550.998 -4.4158 -4.05915 0
M  V30 6006 H 552.677 -5.0091 -4.0951 0
M  V30 6007 N 552.809 0.956637 -1.25245 0
M  V30 6008 C 554.225 1.22733 -1.02023 0
M  V30 6009 C 554.425 1.99761 0.264186 0
M  V30 6010 O 553.481 2.32814 0.977436 0
M  V30 6011 C 554.794 2.00367 -2.24217 0
M  V30 6012 C 556.342 2.13418 -2.28958 0
M  V30 6013 C 556.817 2.9445 -3.50803 0
M  V30 6014 N 558.308 3.02029 -3.51187 0
M  V30 6015 C 559.043 3.65116 -4.42129 0
M  V30 6016 N 558.539 4.2983 -5.43339 0
M  V30 6017 N 560.332 3.62237 -4.29815 0
M  V30 6018 H 552.483 0.441282 -2.07765 0
M  V30 6019 H 554.746 0.257686 -0.912306 0
M  V30 6020 H 554.452 1.51165 -3.17556 0
M  V30 6021 H 554.326 3.01077 -2.27228 0
M  V30 6022 H 556.713 2.61819 -1.36143 0
M  V30 6023 H 556.794 1.1202 -2.29968 0
M  V30 6024 H 556.438 2.46741 -4.43939 0
M  V30 6025 H 556.368 3.9607 -3.47039 0
M  V30 6026 H 558.859 2.56007 -2.77973 0
M  V30 6027 H 559.172 4.75819 -6.08947 0
M  V30 6028 H 557.517 4.28465 -5.47214 0
M  V30 6029 H 560.708 3.10863 -3.49974 0
M  V30 6030 H 560.881 4.11117 -5.00886 0
M  V30 6031 N 554.287 1.06798 1.15896 0
M  V30 6032 C 555.235 0.677525 2.22514 0
M  V30 6033 C 556.229 -0.308994 1.66558 0
M  V30 6034 O 557.435 -0.173308 1.79164 0
M  V30 6035 H 553.81 0.200994 0.724642 0
M  V30 6036 H 555.781 1.5865 2.52731 0
M  V30 6037 C 554.53 0.0854153 3.47595 0
M  V30 6038 H 553.853 0.835645 3.90969 0
M  V30 6039 H 555.293 -0.150199 4.23734 0
M  V30 6040 C 553.752 -1.1724 3.15843 0
M  V30 6041 O 554.282 -2.25965 3.32119 0
M  V30 6042 N 552.488 -1.07636 2.69931 0
M  V30 6043 H 552.035 -0.191559 2.56887 0
M  V30 6044 H 551.993 -1.91876 2.4906 0
M  V30 6045 N 555.766 -1.3263 0.851289 0
M  V30 6046 C 556.676 -2.32722 0.296268 0
M  V30 6047 C 557.692 -1.63901 -0.584162 0
M  V30 6048 O 558.868 -1.95465 -0.485334 0
M  V30 6049 C 555.933 -3.42942 -0.509103 0
M  V30 6050 C 554.994 -4.2746 0.397069 0
M  V30 6051 C 554.227 -5.32416 -0.36996 0
M  V30 6052 O 554.45 -5.47491 -1.6003 0
M  V30 6053 O 553.384 -6.01327 0.262493 0
M  V30 6054 H 557.21 -2.82078 1.12543 0
M  V30 6055 H 554.795 -1.36194 0.614135 0
M  V30 6056 H 556.677 -4.1017 -0.96634 0
M  V30 6057 H 555.352 -2.95781 -1.31512 0
M  V30 6058 H 554.259 -3.63053 0.902411 0
M  V30 6059 H 555.592 -4.78136 1.16818 0
M  V30 6060 N 557.244 -0.608902 -1.45362 0
M  V30 6061 C 558.472 -0.111013 -2.06602 0
M  V30 6062 C 558.887 1.20516 -1.45332 0
M  V30 6063 O 558.244 1.73437 -0.567978 0
M  V30 6064 C 558.295 0.033688 -3.61484 0
M  V30 6065 O 558.016 -1.23041 -4.20467 0
M  V30 6066 C 559.517 0.562882 -4.39712 0
M  V30 6067 H 556.737 -0.0694453 -0.667397 0
M  V30 6068 H 559.281 -0.837008 -1.86586 0
M  V30 6069 H 557.436 0.710016 -3.80838 0
M  V30 6070 H 557.85 -1.06094 -5.13658 0
M  V30 6071 H 559.324 0.613213 -5.48583 0
M  V30 6072 H 559.801 1.58543 -4.09586 0
M  V30 6073 H 560.407 -0.0794454 -4.25226 0
M  V30 6074 N 558.722 1.53707 -0.348139 0
M  V30 6075 C 559.947 2.05877 0.250883 0
M  V30 6076 C 560.372 1.22115 1.43072 0
M  V30 6077 O 559.73 0.235986 1.79758 0
M  V30 6078 C 559.778 3.54886 0.639416 0
M  V30 6079 O 558.882 3.73948 1.73888 0
M  V30 6080 H 558.223 0.662754 0.040653 0
M  V30 6081 H 560.753 1.98303 -0.503685 0
M  V30 6082 H 560.763 3.97601 0.915295 0
M  V30 6083 H 559.438 4.153 -0.223386 0
M  V30 6084 H 558.015 3.43134 1.45991 0
M  V30 6085 N 560.2 0.0768682 1.57412 0
M  V30 6086 C 561.448 -0.589918 1.93299 0
M  V30 6087 C 561.769 -1.69842 0.958049 0
M  V30 6088 O 561.039 -1.95899 0.00703261 0
M  V30 6089 H 559.619 -0.220901 0.713591 0
M  V30 6090 H 562.281 0.135917 1.94425 0
M  V30 6091 H 561.377 -1.01195 2.95239 0
M  V30 6092 N 561.678 -1.56367 -0.196722 0
M  V30 6093 C 562.903 -1.84991 -0.937714 0
M  V30 6094 C 563.328 -0.660244 -1.76132 0
M  V30 6095 O 562.686 0.390967 -1.77034 0
M  V30 6096 C 562.734 -3.11828 -1.81096 0
M  V30 6097 O 561.838 -2.92266 -2.90955 0
M  V30 6098 H 561.179 -0.609193 -0.264159 0
M  V30 6099 H 563.709 -2.03595 -0.202529 0
M  V30 6100 H 563.719 -3.42579 -2.21594 0
M  V30 6101 H 562.394 -3.98037 -1.2058 0
M  V30 6102 H 560.971 -2.72809 -2.54224 0
M  V30 6103 N 563.156 0.464375 -1.50603 0
M  V30 6104 C 564.066 1.58723 -1.72754 0
M  V30 6105 C 565.082 1.62925 -0.610844 0
M  V30 6106 O 566.258 1.8067 -0.889963 0
M  V30 6107 C 563.323 2.94897 -1.82309 0
M  V30 6108 C 562.384 3.0103 -3.06071 0
M  V30 6109 C 561.617 4.30708 -3.1516 0
M  V30 6110 O 561.84 5.2159 -2.30868 0
M  V30 6111 O 560.774 4.42571 -4.0794 0
M  V30 6112 H 564.6 1.42954 -2.67951 0
M  V30 6113 H 562.185 0.644579 -1.3478 0
M  V30 6114 H 564.067 3.75764 -1.90735 0
M  V30 6115 H 562.742 3.10851 -0.902967 0
M  V30 6116 H 561.649 2.19217 -3.03142 0
M  V30 6117 H 562.982 2.90014 -3.97684 0
M  V30 6118 N 564.634 1.40294 0.718013 0
M  V30 6119 C 565.88 1.38645 1.48005 0
M  V30 6120 C 566.213 -0.0121202 1.94196 0
M  V30 6121 O 565.488 -0.980309 1.67989 0
M  V30 6122 C 565.771 2.37379 2.70782 0
M  V30 6123 C 565.624 3.8625 2.30501 0
M  V30 6124 C 566.943 2.33685 3.72933 0
M  V30 6125 H 564.062 0.504928 0.536858 0
M  V30 6126 H 566.704 1.71411 0.819649 0
M  V30 6127 H 564.854 2.09568 3.27129 0
M  V30 6128 H 566.526 4.24879 1.79655 0
M  V30 6129 H 564.769 4.02202 1.6253 0
M  V30 6130 H 565.44 4.50847 3.18498 0
M  V30 6131 H 567.916 2.58314 3.2621 0
M  V30 6132 H 566.792 3.0482 4.56482 0
M  V30 6133 H 567.053 1.34765 4.21059 0
M  V30 6134 N 566.112 -0.949982 1.2575 0
M  V30 6135 C 567.042 -2.06483 1.09028 0
M  V30 6136 C 568.023 -1.701 -0.00201532 0
M  V30 6137 O 569.208 -1.93469 0.168383 0
M  V30 6138 C 566.338 -3.39899 0.71316 0
M  V30 6139 C 565.292 -3.90309 1.75621 0
M  V30 6140 C 564.618 -5.20274 1.23365 0
M  V30 6141 C 565.918 -4.16169 3.15596 0
M  V30 6142 H 567.612 -2.20731 2.02283 0
M  V30 6143 H 565.158 -1.06066 0.973964 0
M  V30 6144 H 567.111 -4.17346 0.58309 0
M  V30 6145 H 565.835 -3.25602 -0.255091 0
M  V30 6146 H 564.494 -3.15035 1.8748 0
M  V30 6147 H 564.142 -5.02351 0.255491 0
M  V30 6148 H 563.842 -5.54971 1.93082 0
M  V30 6149 H 565.366 -6.00314 1.11607 0
M  V30 6150 H 566.78 -4.84259 3.06864 0
M  V30 6151 H 565.177 -4.62131 3.82825 0
M  V30 6152 H 566.247 -3.22273 3.6231 0
M  V30 6153 N 567.59 -1.07411 -1.15328 0
M  V30 6154 C 568.818 -0.818782 -1.90009 0
M  V30 6155 C 569.233 0.628072 -1.78047 0
M  V30 6156 O 568.59 1.43085 -1.13282 0
M  V30 6157 C 568.641 -1.21874 -3.40337 0
M  V30 6158 O 568.362 -2.60883 -3.51954 0
M  V30 6159 C 569.863 -0.992796 -4.3204 0
M  V30 6160 H 567.083 -0.296007 -0.60218 0
M  V30 6161 H 569.627 -1.43073 -1.46117 0
M  V30 6162 H 567.782 -0.651103 -3.81889 0
M  V30 6163 H 568.196 -2.77216 -4.45255 0
M  V30 6164 H 569.67 -1.32215 -5.35932 0
M  V30 6165 H 570.147 0.0708331 -4.39143 0
M  V30 6166 H 570.753 -1.54537 -3.9623 0
M  V30 6167 N 569.068 1.32177 -0.85831 0
M  V30 6168 C 570.293 2.01847 -0.476718 0
M  V30 6169 C 570.718 1.64065 0.920021 0
M  V30 6170 O 570.076 0.843189 1.60499 0
M  V30 6171 C 570.124 3.55097 -0.627578 0
M  V30 6172 O 569.228 4.11012 0.338086 0
M  V30 6173 H 568.569 0.635907 -0.191099 0
M  V30 6174 H 571.099 1.68641 -1.15851 0
M  V30 6175 H 571.109 4.04718 -0.516476 0
M  V30 6176 H 569.784 3.81938 -1.64609 0
M  V30 6177 H 568.361 3.72451 0.182917 0
M  V30 6178 N 570.547 0.616602 1.45037 0
M  V30 6179 C 571.793 0.115501 2.02471 0
M  V30 6180 C 572.126 -1.25406 1.4828 0
M  V30 6181 O 571.401 -1.82922 0.661051 0
M  V30 6182 C 571.684 0.0863588 3.59996 0
M  V30 6183 C 571.537 1.48723 4.24501 0
M  V30 6184 C 572.856 -0.596762 4.36035 0
M  V30 6185 H 569.975 0.0434461 0.735718 0
M  V30 6186 H 572.617 0.7903 1.72784 0
M  V30 6187 H 570.767 -0.488277 3.85419 0
M  V30 6188 H 572.439 2.10964 4.10234 0
M  V30 6189 H 570.682 2.04534 3.82555 0
M  V30 6190 H 571.353 1.419 5.3345 0
M  V30 6191 H 573.829 -0.10824 4.15959 0
M  V30 6192 H 572.705 -0.586289 5.4576 0
M  V30 6193 H 572.966 -1.66451 4.09569 0
M  V30 6194 N 572.025 -1.5352 0.356285 0
M  V30 6195 C 573.25 -2.06007 -0.239961 0
M  V30 6196 C 573.675 -1.22872 -1.42422 0
M  V30 6197 O 573.033 -0.245516 -1.7963 0
M  V30 6198 C 573.081 -3.5522 -0.620587 0
M  V30 6199 O 572.185 -3.74864 -1.71902 0
M  V30 6200 H 571.526 -0.662961 -0.0371377 0
M  V30 6201 H 574.056 -1.98033 0.514194 0
M  V30 6202 H 574.066 -3.98081 -0.894197 0
M  V30 6203 H 572.741 -4.15175 0.245407 0
M  V30 6204 H 571.318 -3.43904 -1.44169 0
M  V30 6205 N 573.503 -0.0852151 -1.57369 0
M  V30 6206 C 574.78 0.622534 -1.85429 0
M  V30 6207 C 575.16 1.86962 -0.980229 0
M  V30 6208 O 574.508 2.28445 -0.0500219 0
M  V30 6209 C 574.718 0.947374 -3.35896 0
M  V30 6210 C 576.066 1.31509 -4.03721 0
M  V30 6211 O 577.09 1.03869 -3.40719 0
M  V30 6212 O 575.949 1.83231 -5.14868 0
M  V30 6213 H 573.043 0.310513 -0.766492 0
M  V30 6214 H 575.589 -0.117164 -1.69295 0
M  V30 6215 H 574.361 0.0622264 -3.91251 0
M  V30 6216 H 573.984 1.74338 -3.5734 0
M  V30 6217 N 574.981 1.5647 0.188427 0
M  V30 6218 C 576.392 1.70864 0.752494 0
M  V30 6219 C 576.743 0.692905 1.83557 0
M  V30 6220 O 575.868 -0.149307 2.15884 0
M  V30 6221 C 576.463 3.09789 1.37173 0
M  V30 6222 C 575.022 3.25925 1.88281 0
M  V30 6223 C 574.169 2.66817 0.755259 0
M  V30 6224 H 577.12 1.58657 -0.0367408 0
M  V30 6225 H 577.141 3.07489 2.24122 0
M  V30 6226 H 576.653 3.83693 0.583219 0
M  V30 6227 H 574.754 2.56948 2.6983 0
M  V30 6228 H 574.867 4.33498 2.04001 0
M  V30 6229 H 573.231 2.2617 1.17128 0
M  V30 6230 H 574.014 3.43294 -0.0211237 0
M  V30 6231 N 576.459 -0.456382 1.50847 0
M  V30 6232 C 577.406 -1.55249 1.70782 0
M  V30 6233 C 578.376 -1.56757 0.549231 0
M  V30 6234 O 579.561 -1.74061 0.7815 0
M  V30 6235 C 576.701 -2.93118 1.82143 0
M  V30 6236 C 575.814 -3.01285 3.09598 0
M  V30 6237 C 574.949 -4.30159 3.11667 0
M  V30 6238 C 573.988 -4.32124 4.33515 0
M  V30 6239 N 573.125 -5.52492 4.3324 0
M  V30 6240 H 577.965 -1.37555 2.64353 0
M  V30 6241 H 575.502 -0.668543 1.3103 0
M  V30 6242 H 577.46 -3.73088 1.86711 0
M  V30 6243 H 576.09 -3.09413 0.919978 0
M  V30 6244 H 575.142 -2.14096 3.14431 0
M  V30 6245 H 576.454 -2.98597 3.99551 0
M  V30 6246 H 575.608 -5.18489 3.15046 0
M  V30 6247 H 574.347 -4.35477 2.1957 0
M  V30 6248 H 573.352 -3.42189 4.30333 0
M  V30 6249 H 574.577 -4.28485 5.26856 0
M  V30 6250 H 572.523 -5.58567 3.44004 0
M  V30 6251 H 572.44 -5.51605 5.16979 0
M  V30 6252 H 573.708 -6.42906 4.40786 0
M  V30 6253 N 577.937 -1.40673 -0.710563 0
M  V30 6254 C 578.9 -1.4108 -1.80635 0
M  V30 6255 C 579.9 -0.303783 -1.57904 0
M  V30 6256 O 581.09 -0.562937 -1.64853 0
M  V30 6257 C 578.222 -1.20748 -3.18799 0
M  V30 6258 H 579.415 -2.38612 -1.81671 0
M  V30 6259 H 576.968 -1.26595 -0.916704 0
M  V30 6260 H 577.703 -0.239964 -3.23411 0
M  V30 6261 H 577.488 -2.00941 -3.36698 0
M  V30 6262 H 578.978 -1.23833 -3.98817 0
M  V30 6263 N 579.415 0.9433 -1.26252 0
M  V30 6264 C 580.643 1.72367 -1.14443 0
M  V30 6265 C 581.058 1.86392 0.300572 0
M  V30 6266 O 580.415 1.36978 1.20596 0
M  V30 6267 C 580.466 3.13155 -1.806 0
M  V30 6268 O 580.187 2.99803 -3.19452 0
M  V30 6269 C 581.688 4.07417 -1.74717 0
M  V30 6270 H 578.908 0.539758 -0.398626 0
M  V30 6271 H 581.452 1.18268 -1.66832 0
M  V30 6272 H 579.607 3.64162 -1.32154 0
M  V30 6273 H 580.021 3.88697 -3.52158 0
M  V30 6274 H 581.495 5.03773 -2.25647 0
M  V30 6275 H 581.972 4.3337 -0.713244 0
M  V30 6276 H 582.578 3.6233 -2.22704 0
M  V30 6277 N 580.893 1.08022 1.14757 0
M  V30 6278 C 581.826 0.650738 2.18725 0
M  V30 6279 C 582.804 -0.335496 1.59101 0
M  V30 6280 O 583.988 -0.240295 1.86962 0
M  V30 6281 C 581.115 -0.0434377 3.38672 0
M  V30 6282 C 580.161 0.90232 4.16846 0
M  V30 6283 S 580.994 2.40693 4.78359 0
M  V30 6284 C 582.15 1.72475 6.01667 0
M  V30 6285 H 582.383 1.53152 2.54817 0
M  V30 6286 H 579.916 0.894823 1.25826 0
M  V30 6287 H 581.874 -0.437684 4.0816 0
M  V30 6288 H 580.535 -0.900659 3.0091 0
M  V30 6289 H 579.728 0.363445 5.02688 0
M  V30 6290 H 579.33 1.23728 3.52941 0
M  V30 6291 H 581.622 1.0404 6.69464 0
M  V30 6292 H 582.565 2.56175 6.60136 0
M  V30 6293 H 582.973 1.19979 5.51602 0
M  V30 6294 N 582.371 -1.3172 0.865308 0
M  V30 6295 C 583.601 -2.00765 0.487543 0
M  V30 6296 C 584.009 -1.65145 -0.92325 0
M  V30 6297 O 583.352 -0.874294 -1.61561 0
M  V30 6298 C 583.414 -3.55122 0.559369 0
M  V30 6299 C 583.078 -4.14202 1.93095 0
M  V30 6300 C 584.075 -4.3165 2.89784 0
M  V30 6301 C 581.76 -4.50036 2.23099 0
M  V30 6302 C 583.754 -4.84114 4.14623 0
M  V30 6303 C 581.441 -5.02203 3.48189 0
M  V30 6304 C 582.439 -5.19192 4.43767 0
M  V30 6305 O 582.127 -5.70241 5.6664 0
M  V30 6306 H 581.859 -0.649066 0.188915 0
M  V30 6307 H 584.413 -1.69032 1.16694 0
M  V30 6308 H 582.643 -3.86295 -0.176926 0
M  V30 6309 H 584.332 -4.05428 0.195694 0
M  V30 6310 H 585.098 -4.04288 2.6791 0
M  V30 6311 H 580.977 -4.36091 1.49485 0
M  V30 6312 H 584.521 -4.9729 4.89233 0
M  V30 6313 H 580.418 -5.28997 3.69908 0
M  V30 6314 H 581.186 -5.88617 5.68746 0
M  V30 6315 N 583.85 -0.624285 -1.44708 0
M  V30 6316 C 585.075 -0.131171 -2.06985 0
M  V30 6317 C 585.5 1.18234 -1.46295 0
M  V30 6318 O 584.858 1.72375 -0.561842 0
M  V30 6319 C 584.906 -0.0226724 -3.60593 0
M  V30 6320 O 584.01 1.02314 -3.99507 0
M  V30 6321 H 583.351 -0.0816556 -0.65896 0
M  V30 6322 H 585.88 -0.859027 -1.85693 0
M  V30 6323 H 585.891 0.170138 -4.07645 0
M  V30 6324 H 584.566 -0.981685 -4.04148 0
M  V30 6325 H 583.143 0.805452 -3.64097 0
M  V30 6326 N 585.328 1.53329 -0.364422 0
M  V30 6327 C 586.558 2.05359 0.226096 0
M  V30 6328 C 586.966 1.23777 1.43094 0
M  V30 6329 O 586.309 0.271139 1.81688 0
M  V30 6330 C 586.371 3.52918 0.684794 0
M  V30 6331 C 586.035 4.55218 -0.403206 0
M  V30 6332 C 587.032 5.04583 -1.2527 0
M  V30 6333 C 584.717 4.99134 -0.563117 0
M  V30 6334 C 586.711 5.96463 -2.24745 0
M  V30 6335 C 584.398 5.9082 -1.56124 0
M  V30 6336 C 585.396 6.39375 -2.40184 0
M  V30 6337 O 585.084 7.29255 -3.38293 0
M  V30 6338 H 584.816 0.674588 0.0436772 0
M  V30 6339 H 587.37 1.98688 -0.520782 0
M  V30 6340 H 585.6 3.57122 1.48326 0
M  V30 6341 H 587.289 3.87812 1.19818 0
M  V30 6342 H 588.055 4.71403 -1.14034 0
M  V30 6343 H 583.934 4.60928 0.0813909 0
M  V30 6344 H 587.478 6.34285 -2.90393 0
M  V30 6345 H 583.375 6.23414 -1.67407 0
M  V30 6346 H 584.143 7.47249 -3.34009 0
M  V30 6347 N 586.806 0.0935595 1.57322 0
M  V30 6348 C 588.083 -0.612692 1.85756 0
M  V30 6349 C 588.463 -1.86439 0.99013 0
M  V30 6350 O 587.811 -2.28416 0.0621362 0
M  V30 6351 C 588.021 -0.929547 3.36393 0
M  V30 6352 C 589.369 -1.29366 4.04413 0
M  V30 6353 O 590.393 -1.02061 3.41265 0
M  V30 6354 O 589.252 -1.80498 5.15832 0
M  V30 6355 H 586.346 -0.306444 0.768128 0
M  V30 6356 H 588.892 0.126141 1.69231 0
M  V30 6357 H 587.664 -0.0414766 3.91278 0
M  V30 6358 H 587.287 -1.72441 3.5826 0
M  V30 6359 N 588.284 -1.56567 -0.180126 0
M  V30 6360 C 589.509 -1.85975 -0.918041 0
M  V30 6361 C 589.934 -0.678888 -1.75422 0
M  V30 6362 O 589.292 0.372168 -1.77439 0
M  V30 6363 C 589.34 -3.13731 -1.77779 0
M  V30 6364 O 588.444 -2.95335 -2.87838 0
M  V30 6365 H 587.785 -0.61196 -0.257683 0
M  V30 6366 H 590.315 -2.03798 -0.180923 0
M  V30 6367 H 590.325 -3.4491 -2.17948 0
M  V30 6368 H 589 -3.99293 -1.16352 0
M  V30 6369 H 587.577 -2.7549 -2.51316 0
M  V30 6370 N 589.762 0.448376 -1.51087 0
M  V30 6371 C 590.725 1.52588 -1.71025 0
M  V30 6372 C 591.725 1.49958 -0.580442 0
M  V30 6373 O 592.915 1.52176 -0.847833 0
M  V30 6374 C 590.047 2.92163 -1.75652 0
M  V30 6375 H 591.24 1.36218 -2.67179 0
M  V30 6376 H 588.793 0.676313 -1.4091 0
M  V30 6377 H 589.528 3.13951 -0.812724 0
M  V30 6378 H 589.313 2.95478 -2.57751 0
M  V30 6379 H 590.803 3.70349 -1.92953 0
M  V30 6380 N 591.24 1.41047 0.703093 0
M  V30 6381 C 592.465 1.43537 1.49706 0
M  V30 6382 C 592.89 0.0401853 1.88057 0
M  V30 6383 O 592.248 -0.954785 1.54122 0
M  V30 6384 C 592.296 2.3433 2.74084 0
M  V30 6385 O 591.4 1.79515 3.71279 0
M  V30 6386 H 590.741 0.487454 0.450871 0
M  V30 6387 H 593.271 1.85422 0.86486 0
M  V30 6388 H 593.281 2.49947 3.22476 0
M  V30 6389 H 591.956 3.35708 2.45506 0
M  V30 6390 H 590.533 1.7331 3.30179 0
M  V30 6391 N 592.718 -0.936591 1.26751 0
M  V30 6392 C 593.967 -1.67778 1.11953 0
M  V30 6393 C 594.28 -1.92694 -0.33589 0
M  V30 6394 O 595.486 -2.64682 -0.604618 0
M  V30 6395 C 593.942 -3.02138 1.95551 0
M  V30 6396 C 593.55 -2.84953 3.45696 0
M  V30 6397 C 595.294 -3.79917 1.89377 0
M  V30 6398 C 593.201 -4.14814 4.21525 0
M  V30 6399 H 592.131 -0.629275 0.415366 0
M  V30 6400 H 594.782 -1.04122 1.51099 0
M  V30 6401 H 593.164 -3.668 1.49243 0
M  V30 6402 H 594.338 -2.29112 3.99805 0
M  V30 6403 H 592.653 -2.20612 3.53156 0
M  V30 6404 H 595.25 -4.76134 2.43312 0
M  V30 6405 H 595.593 -4.07204 0.865464 0
M  V30 6406 H 596.126 -3.22037 2.33532 0
M  V30 6407 H 592.865 -3.92709 5.24843 0
M  V30 6408 H 592.385 -4.70352 3.72195 0
M  V30 6409 H 594.064 -4.83239 4.3022 0
M  V30 6410 N 594.196 -1.08629 -1.14182 0
M  V30 6411 C 595.128 -0.676189 -2.18998 0
M  V30 6412 C 596.141 0.277871 -1.60411 0
M  V30 6413 O 597.33 0.0651771 -1.78381 0
M  V30 6414 C 594.43 0.0254916 -3.3889 0
M  V30 6415 C 593.603 -0.948039 -4.27002 0
M  V30 6416 C 592.662 -0.281268 -5.25448 0
M  V30 6417 O 591.688 -0.926378 -5.61611 0
M  V30 6418 N 592.89 0.967923 -5.72374 0
M  V30 6419 H 595.655 -1.57792 -2.54798 0
M  V30 6420 H 593.216 -0.972665 -1.29425 0
M  V30 6421 H 595.208 0.482554 -4.01813 0
M  V30 6422 H 593.778 0.829348 -3.01398 0
M  V30 6423 H 592.998 -1.58388 -3.6098 0
M  V30 6424 H 594.286 -1.60765 -4.82734 0
M  V30 6425 H 593.684 1.51175 -5.45126 0
M  V30 6426 H 592.241 1.36844 -6.37273 0
M  V30 6427 N 595.674 1.31259 -0.872281 0
M  V30 6428 C 596.904 2.00504 -0.498183 0
M  V30 6429 C 597.312 1.65632 0.914479 0
M  V30 6430 O 596.655 0.882849 1.61095 0
M  V30 6431 C 596.717 3.5482 -0.578194 0
M  V30 6432 C 596.381 4.13172 -1.95289 0
M  V30 6433 C 597.378 4.30107 -2.92069 0
M  V30 6434 C 595.063 4.48846 -2.25483 0
M  V30 6435 C 597.057 4.81908 -4.17185 0
M  V30 6436 C 594.744 5.00349 -3.50847 0
M  V30 6437 C 595.742 5.16831 -4.46514 0
M  V30 6438 O 595.43 5.67228 -5.69656 0
M  V30 6439 H 595.162 0.648055 -0.192354 0
M  V30 6440 H 597.716 1.6841 -1.17589 0
M  V30 6441 H 595.946 3.86383 0.156438 0
M  V30 6442 H 597.635 4.05318 -0.217192 0
M  V30 6443 H 598.401 4.02862 -2.7005 0
M  V30 6444 H 594.28 4.35292 -1.51795 0
M  V30 6445 H 597.824 4.94688 -4.91863 0
M  V30 6446 H 593.721 5.27028 -3.72708 0
M  V30 6447 H 594.489 5.85592 -5.7186 0
M  V30 6448 N 597.152 0.631951 1.44375 0
M  V30 6449 C 598.568 0.297642 1.568 0
M  V30 6450 C 598.768 -1.19916 1.61934 0
M  V30 6451 O 597.824 -1.98324 1.56281 0
M  V30 6452 C 599.137 0.990286 2.83926 0
M  V30 6453 C 600.685 0.968507 2.97639 0
M  V30 6454 C 601.16 1.64163 4.27568 0
M  V30 6455 N 602.651 1.60826 4.34384 0
M  V30 6456 C 603.386 2.09802 5.33639 0
M  V30 6457 N 602.882 2.66973 6.39294 0
M  V30 6458 N 604.675 2.00426 5.25153 0
M  V30 6459 H 596.826 1.60353 1.39286 0
M  V30 6460 H 599.089 0.673142 0.667521 0
M  V30 6461 H 598.795 2.04519 2.8612 0
M  V30 6462 H 598.669 0.528563 3.73478 0
M  V30 6463 H 601.056 -0.0779247 2.94997 0
M  V30 6464 H 601.137 1.46873 2.09433 0
M  V30 6465 H 600.781 2.68752 4.3097 0
M  V30 6466 H 600.711 1.11624 5.14634 0
M  V30 6467 H 603.202 1.19087 3.58646 0
M  V30 6468 H 603.515 3.02074 7.11316 0
M  V30 6469 H 601.86 2.71024 6.39977 0
M  V30 6470 H 605.051 1.55483 4.41523 0
M  V30 6471 H 605.224 2.38906 6.02352 0
M  V30 6472 N 598.631 -1.53133 0.372548 0
M  V30 6473 C 599.578 -2.25951 -0.470631 0
M  V30 6474 C 600.548 -1.26895 -1.07176 0
M  V30 6475 O 601.733 -1.55691 -1.10294 0
M  V30 6476 C 598.873 -3.05726 -1.6008 0
M  V30 6477 C 597.986 -4.19684 -1.02416 0
M  V30 6478 C 597.121 -4.86888 -2.124 0
M  V30 6479 C 596.16 -5.92866 -1.52238 0
M  V30 6480 N 595.297 -6.53732 -2.56084 0
M  V30 6481 H 600.137 -2.97587 0.156816 0
M  V30 6482 H 597.674 -1.4683 0.0891571 0
M  V30 6483 H 599.632 -3.50258 -2.26661 0
M  V30 6484 H 598.262 -2.36331 -2.1988 0
M  V30 6485 H 597.314 -3.79588 -0.248426 0
M  V30 6486 H 598.626 -4.95821 -0.544366 0
M  V30 6487 H 597.78 -5.34638 -2.86787 0
M  V30 6488 H 596.519 -4.10239 -2.63734 0
M  V30 6489 H 595.524 -5.4447 -0.763685 0
M  V30 6490 H 596.749 -6.71439 -1.0172 0
M  V30 6491 H 594.695 -5.79932 -3.06618 0
M  V30 6492 H 594.612 -7.25429 -2.12811 0
M  V30 6493 H 595.88 -7.0613 -3.30152 0
M  V30 6494 N 600.109 -0.101901 -1.5727 0
M  V30 6495 C 601.52 0.426173 -1.81771 0
M  V30 6496 C 601.871 1.67725 -1.01797 0
M  V30 6497 O 600.996 2.14958 -0.249386 0
M  V30 6498 C 601.591 0.779962 -3.297 0
M  V30 6499 C 600.15 1.25275 -3.54941 0
M  V30 6500 C 599.297 0.252814 -2.76145 0
M  V30 6501 H 602.248 -0.32726 -1.55289 0
M  V30 6502 H 602.269 1.63891 -3.43395 0
M  V30 6503 H 601.781 -0.130778 -3.8788 0
M  V30 6504 H 599.882 2.18097 -3.021 0
M  V30 6505 H 599.995 1.20988 -4.63572 0
M  V30 6506 H 598.359 0.736362 -2.43823 0
M  V30 6507 H 599.142 -0.650724 -3.37076 0
M  V30 6508 N 601.587 1.56661 0.17182 0
M  V30 6509 C 602.517 1.99401 1.21498 0
M  V30 6510 C 603.498 0.869516 1.46197 0
M  V30 6511 O 604.683 1.13556 1.57539 0
M  V30 6512 C 601.813 2.35346 2.55401 0
M  V30 6513 C 600.767 3.5075 2.45272 0
M  V30 6514 C 600.093 3.72437 3.8366 0
M  V30 6515 C 601.393 4.84216 1.95787 0
M  V30 6516 H 603.087 2.86792 0.859699 0
M  V30 6517 H 600.633 1.37977 0.412103 0
M  V30 6518 H 602.586 2.63843 3.2858 0
M  V30 6519 H 601.31 1.44864 2.92715 0
M  V30 6520 H 599.969 3.2238 1.74547 0
M  V30 6521 H 599.617 2.79246 4.18367 0
M  V30 6522 H 599.317 4.50087 3.77751 0
M  V30 6523 H 600.841 4.03334 4.58426 0
M  V30 6524 H 602.255 5.11592 2.5874 0
M  V30 6525 H 600.652 5.65498 2.00827 0
M  V30 6526 H 601.722 4.76243 0.912159 0
M  V30 6527 N 603.065 -0.440357 1.51323 0
M  V30 6528 C 604.29 -1.21716 1.67928 0
M  V30 6529 C 604.715 -1.84328 0.374826 0
M  V30 6530 O 604.073 -1.68675 -0.664706 0
M  V30 6531 C 604.121 -2.27914 2.79442 0
M  V30 6532 O 603.225 -3.33325 2.42834 0
M  V30 6533 H 602.566 -0.35674 0.560029 0
M  V30 6534 H 605.096 -0.520417 1.97871 0
M  V30 6535 H 605.106 -2.72746 3.03436 0
M  V30 6536 H 603.781 -1.8172 3.741 0
M  V30 6537 H 602.358 -2.9399 2.294 0
M  V30 6538 N 604.543 -1.41418 -0.695603 0
M  V30 6539 C 605.768 -1.44329 -1.48942 0
M  V30 6540 C 606.193 -0.0501579 -1.88033 0
M  V30 6541 O 605.551 0.946598 -1.54626 0
M  V30 6542 C 605.599 -2.3578 -2.72837 0
M  V30 6543 O 604.703 -1.81482 -3.70322 0
M  V30 6544 H 604.044 -0.489838 -0.44828 0
M  V30 6545 H 606.574 -1.85878 -0.855014 0
M  V30 6546 H 606.584 -2.51654 -3.21145 0
M  V30 6547 H 605.259 -3.37005 -2.43722 0
M  V30 6548 H 603.836 -1.75058 -3.29255 0
M  V30 6549 N 606.021 0.929856 -1.27246 0
M  V30 6550 C 607.437 1.20542 -1.04603 0
M  V30 6551 C 607.637 2.00276 0.221754 0
M  V30 6552 O 606.693 2.34835 0.927833 0
M  V30 6553 C 608.006 1.95566 -2.28417 0
M  V30 6554 C 609.554 2.08513 -2.33433 0
M  V30 6555 C 610.029 2.86943 -3.5697 0
M  V30 6556 N 611.52 2.94512 -3.57515 0
M  V30 6557 C 612.255 3.55656 -4.49774 0
M  V30 6558 N 611.751 4.18209 -5.52334 0
M  V30 6559 N 613.544 3.53038 -4.37402 0
M  V30 6560 H 605.695 0.397113 -2.08655 0
M  V30 6561 H 607.958 0.238277 -0.917566 0
M  V30 6562 H 607.664 1.44395 -3.20691 0
M  V30 6563 H 607.538 2.9619 -2.33563 0
M  V30 6564 H 609.925 2.58872 -1.41666 0
M  V30 6565 H 610.006 1.07117 -2.32292 0
M  V30 6566 H 609.65 2.37268 -4.49072 0
M  V30 6567 H 609.58 3.8862 -3.55362 0
M  V30 6568 H 612.071 2.50053 -2.83341 0
M  V30 6569 H 612.384 4.62796 -6.18902 0
M  V30 6570 H 610.729 4.16761 -5.56179 0
M  V30 6571 H 613.92 3.0337 -3.56489 0
M  V30 6572 H 614.093 4.004 -5.09493 0
M  V30 6573 N 607.499 1.09233 1.13605 0
M  V30 6574 C 608.409 0.741939 2.22559 0
M  V30 6575 C 609.425 -0.255236 1.72118 0
M  V30 6576 O 610.601 -0.0970747 2.01166 0
M  V30 6577 C 607.666 0.165595 3.46304 0
M  V30 6578 C 606.727 1.21846 4.11645 0
M  V30 6579 C 605.96 0.669526 5.29484 0
M  V30 6580 O 606.183 -0.508228 5.68131 0
M  V30 6581 O 605.117 1.42361 5.84822 0
M  V30 6582 H 608.943 1.65107 2.54899 0
M  V30 6583 H 606.528 0.866584 1.21699 0
M  V30 6584 H 608.41 -0.152592 4.21124 0
M  V30 6585 H 607.085 -0.716573 3.15669 0
M  V30 6586 H 605.992 1.58931 3.38662 0
M  V30 6587 H 607.325 2.07321 4.46407 0
M  V30 6588 N 608.977 -1.30795 0.87923 0
M  V30 6589 C 609.94 -2.26563 0.346676 0
M  V30 6590 C 610.94 -1.52578 -0.507597 0
M  V30 6591 O 612.13 -1.71318 -0.315575 0
M  V30 6592 C 609.262 -3.37115 -0.506611 0
M  V30 6593 H 610.455 -2.75183 1.19223 0
M  V30 6594 H 608.008 -1.41886 0.655598 0
M  V30 6595 H 608.743 -2.93802 -1.37299 0
M  V30 6596 H 608.528 -3.91959 0.105218 0
M  V30 6597 H 610.018 -4.08412 -0.871192 0
M  V30 6598 N 610.455 -0.639598 -1.44038 0
M  V30 6599 C 611.685 -0.154586 -2.06021 0
M  V30 6600 C 612.093 1.17951 -1.47933 0
M  V30 6601 O 611.436 1.73627 -0.59994 0
M  V30 6602 C 611.498 0.0255459 -3.59491 0
M  V30 6603 C 611.162 -1.2317 -4.40089 0
M  V30 6604 C 612.159 -2.15735 -4.73027 0
M  V30 6605 C 609.844 -1.46949 -4.80324 0
M  V30 6606 C 611.838 -3.30382 -5.45093 0
M  V30 6607 C 609.525 -2.61891 -5.52138 0
M  V30 6608 C 610.523 -3.53433 -5.84443 0
M  V30 6609 O 610.211 -4.6637 -6.54793 0
M  V30 6610 H 609.943 -0.0808543 -0.671147 0
M  V30 6611 H 612.497 -0.876541 -1.85758 0
M  V30 6612 H 610.727 0.802733 -3.78276 0
M  V30 6613 H 612.416 0.466184 -4.03214 0
M  V30 6614 H 613.182 -1.98602 -4.42473 0
M  V30 6615 H 609.061 -0.765815 -4.54595 0
M  V30 6616 H 612.605 -4.01856 -5.70226 0
M  V30 6617 H 608.502 -2.78964 -5.82108 0
M  V30 6618 H 609.27 -4.6546 -6.73267 0
M  V30 6619 N 611.933 1.52934 -0.380664 0
M  V30 6620 C 613.181 2.01069 0.203874 0
M  V30 6621 C 613.502 1.26922 1.4804 0
M  V30 6622 O 612.772 0.386787 1.92044 0
M  V30 6623 H 611.352 0.742882 0.0783279 0
M  V30 6624 H 614.014 1.88099 -0.510368 0
M  V30 6625 H 613.11 3.09258 0.42021 0
M  V30 6626 N 613.412 0.11024 1.57214 0
M  V30 6627 C 614.828 -0.24638 1.57687 0
M  V30 6628 C 615.028 -1.67344 1.12241 0
M  V30 6629 O 614.084 -2.39298 0.805783 0
M  V30 6630 C 615.397 -0.0210288 3.00693 0
M  V30 6631 C 616.945 -0.0876077 3.12877 0
M  V30 6632 C 617.42 0.10994 4.57868 0
M  V30 6633 N 618.911 0.0556135 4.63167 0
M  V30 6634 C 619.646 0.183495 5.73106 0
M  V30 6635 N 619.142 0.367058 6.91827 0
M  V30 6636 N 620.935 0.123689 5.61964 0
M  V30 6637 H 613.086 1.04246 1.85058 0
M  V30 6638 H 615.349 0.40979 0.854854 0
M  V30 6639 H 615.055 0.965203 3.38196 0
M  V30 6640 H 614.929 -0.756748 3.69531 0
M  V30 6641 H 617.316 -1.06436 2.75237 0
M  V30 6642 H 617.397 0.67985 2.466 0
M  V30 6643 H 617.041 1.08362 4.96206 0
M  V30 6644 H 616.971 -0.677397 5.22225 0
M  V30 6645 H 619.462 -0.0831062 3.77809 0
M  V30 6646 H 619.775 0.455739 7.71455 0
M  V30 6647 H 618.12 0.40292 6.93831 0
M  V30 6648 H 621.311 -0.0186928 4.68096 0
M  V30 6649 H 621.484 0.226797 6.47603 0
M  V30 6650 N 614.89 -1.56749 -0.16351 0
M  V30 6651 C 615.853 -1.96121 -1.18613 0
M  V30 6652 C 616.853 -0.845765 -1.36761 0
M  V30 6653 O 618.043 -1.11268 -1.34033 0
M  V30 6654 C 615.175 -2.26282 -2.54969 0
M  V30 6655 H 616.368 -2.87639 -0.848764 0
M  V30 6656 H 613.921 -1.50928 -0.406251 0
M  V30 6657 H 614.656 -1.37504 -2.93706 0
M  V30 6658 H 614.441 -3.07595 -2.43162 0
M  V30 6659 H 615.931 -2.57638 -3.28653 0
M  V30 6660 N 616.368 0.432326 -1.51554 0
M  V30 6661 C 617.298 1.53242 -1.76179 0
M  V30 6662 C 618.279 1.58717 -0.611801 0
M  V30 6663 O 619.464 1.74364 -0.855033 0
M  V30 6664 C 616.594 2.91278 -1.89141 0
M  V30 6665 C 615.548 3.00663 -3.04608 0
M  V30 6666 C 614.874 4.40728 -3.02759 0
M  V30 6667 C 616.174 2.74281 -4.44485 0
M  V30 6668 H 617.868 1.32886 -2.68294 0
M  V30 6669 H 615.414 0.637841 -1.29103 0
M  V30 6670 H 617.367 3.68203 -2.04951 0
M  V30 6671 H 616.091 3.12877 -0.936785 0
M  V30 6672 H 614.75 2.26179 -2.88511 0
M  V30 6673 H 614.398 4.59301 -2.05065 0
M  V30 6674 H 614.098 4.47936 -3.80299 0
M  V30 6675 H 615.622 5.19619 -3.20669 0
M  V30 6676 H 617.036 3.40936 -4.60907 0
M  V30 6677 H 615.433 2.92893 -5.23769 0
M  V30 6678 H 616.503 1.69856 -4.54177 0
M  V30 6679 N 617.846 1.41785 0.688094 0
M  V30 6680 C 619.123 1.32031 1.44316 0
M  V30 6681 C 619.503 -0.0486079 2.11044 0
M  V30 6682 O 618.851 -1.06332 2.02252 0
M  V30 6683 C 619.061 2.47906 2.45649 0
M  V30 6684 C 620.409 2.89415 3.10683 0
M  V30 6685 O 621.433 2.477 2.55975 0
M  V30 6686 O 620.292 3.61573 4.09789 0
M  V30 6687 H 617.386 0.519994 0.643067 0
M  V30 6688 H 619.932 1.53765 0.71794 0
M  V30 6689 H 618.704 3.39222 1.95048 0
M  V30 6690 H 618.327 2.28089 3.25671 0
M  V30 6691 N 619.324 -0.923095 1.27737 0
M  V30 6692 C 620.74 -1.19985 1.05241 0
M  V30 6693 C 620.94 -2.00391 -0.21113 0
M  V30 6694 O 619.996 -2.35324 -0.915366 0
M  V30 6695 C 621.309 -1.94352 2.29451 0
M  V30 6696 C 622.857 -2.07273 2.34536 0
M  V30 6697 C 623.332 -2.85046 3.58487 0
M  V30 6698 N 624.823 -2.92612 3.59072 0
M  V30 6699 C 625.558 -3.53266 4.51654 0
M  V30 6700 N 625.054 -4.15274 5.54545 0
M  V30 6701 N 626.847 -3.50714 4.39268 0
M  V30 6702 H 618.998 -0.386042 2.08862 0
M  V30 6703 H 621.261 -0.233407 0.918817 0
M  V30 6704 H 620.967 -1.42692 3.21453 0
M  V30 6705 H 620.841 -2.94947 2.3513 0
M  V30 6706 H 623.228 -2.58117 1.43037 0
M  V30 6707 H 623.309 -1.05884 2.32857 0
M  V30 6708 H 622.953 -2.34884 4.50324 0
M  V30 6709 H 622.883 -3.8673 3.57418 0
M  V30 6710 H 625.374 -2.48547 2.84663 0
M  V30 6711 H 625.687 -4.59507 6.21348 0
M  V30 6712 H 624.032 -4.13806 5.58382 0
M  V30 6713 H 627.223 -3.01475 3.58093 0
M  V30 6714 H 627.396 -3.97693 5.1161 0
M  V30 6715 N 620.802 -1.09834 -1.13024 0
M  V30 6716 C 621.752 -0.710899 -2.16634 0
M  V30 6717 C 622.736 0.276836 -1.58501 0
M  V30 6718 O 623.928 0.0865457 -1.76788 0
M  V30 6719 C 621.057 -0.137574 -3.43024 0
M  V30 6720 C 620.143 -1.15198 -4.08155 0
M  V30 6721 N 620.534 -2.34054 -4.48388 0
M  V30 6722 C 618.832 -0.991074 -4.34849 0
M  V30 6723 C 619.533 -2.98616 -4.99203 0
M  V30 6724 N 618.509 -2.26159 -4.94321 0
M  V30 6725 H 622.311 -1.61576 -2.455 0
M  V30 6726 H 619.825 -0.975158 -1.29863 0
M  V30 6727 H 621.822 0.158031 -4.166 0
M  V30 6728 H 620.482 0.762088 -3.1563 0
M  V30 6729 H 621.493 -2.7162 -4.40957 0
M  V30 6730 H 618.17 -0.146448 -4.17243 0
M  V30 6731 H 619.56 -3.99683 -5.40096 0
M  V30 6732 N 622.28 1.30327 -0.886154 0
M  V30 6733 C 623.528 1.9571 -0.504195 0
M  V30 6734 C 623.849 1.70294 0.950003 0
M  V30 6735 O 623.119 1.02718 1.66811 0
M  V30 6736 H 621.699 0.72412 -0.183465 0
M  V30 6737 H 624.361 1.58835 -1.12949 0
M  V30 6738 H 623.457 3.04704 -0.675431 0
M  V30 6739 N 623.758 0.647228 1.43697 0
M  V30 6740 C 625.004 0.158422 2.0218 0
M  V30 6741 C 625.337 -1.22233 1.50907 0
M  V30 6742 O 624.612 -1.81478 0.699702 0
M  V30 6743 C 624.895 0.1627 3.59732 0
M  V30 6744 C 624.748 1.57694 4.21251 0
M  V30 6745 C 626.067 -0.504138 4.37203 0
M  V30 6746 H 623.186 0.059042 0.734631 0
M  V30 6747 H 625.828 0.826772 1.71069 0
M  V30 6748 H 623.978 -0.406414 3.86368 0
M  V30 6749 H 625.65 2.19618 4.05667 0
M  V30 6750 H 623.893 2.12603 3.7813 0
M  V30 6751 H 624.564 1.53183 5.3032 0
M  V30 6752 H 627.04 -0.0199841 4.16095 0
M  V30 6753 H 625.916 -0.470394 5.46881 0
M  V30 6754 H 626.177 -1.57726 4.13007 0
M  V30 6755 N 625.236 -1.5273 0.388769 0
M  V30 6756 C 626.647 -1.86505 -0.0853788 0
M  V30 6757 C 626.998 -1.30847 -1.46197 0
M  V30 6758 O 626.123 -0.639609 -2.06732 0
M  V30 6759 C 626.718 -3.38414 -0.161703 0
M  V30 6760 C 625.277 -3.71902 -0.580144 0
M  V30 6761 C 624.424 -2.76095 0.258218 0
M  V30 6762 H 627.375 -1.46647 0.606665 0
M  V30 6763 H 627.396 -3.67638 -0.980936 0
M  V30 6764 H 626.908 -3.78893 0.840333 0
M  V30 6765 H 625.009 -3.36992 -1.58957 0
M  V30 6766 H 625.122 -4.77902 -0.338663 0
M  V30 6767 H 623.486 -2.53195 -0.276432 0
M  V30 6768 H 624.269 -3.19411 1.25822 0
M  V30 6769 N 626.714 -0.118576 -1.57153 0
M  V30 6770 C 627.939 0.550582 -1.99958 0
M  V30 6771 C 628.364 1.59458 -0.997736 0
M  V30 6772 O 627.722 1.81274 0.0306269 0
M  V30 6773 C 627.77 1.15379 -3.41643 0
M  V30 6774 O 626.874 2.26932 -3.44348 0
M  V30 6775 H 626.215 0.137567 -0.649593 0
M  V30 6776 H 628.745 -0.206926 -2.03551 0
M  V30 6777 H 628.755 1.48942 -3.79843 0
M  V30 6778 H 627.43 0.389087 -4.14076 0
M  V30 6779 H 626.007 1.94812 -3.17967 0
M  V30 6780 N 628.193 1.56834 0.155195 0
M  V30 6781 C 629.14 1.97646 1.19184 0
M  V30 6782 C 630.11 0.842788 1.4313 0
M  V30 6783 O 631.295 1.1042 1.55602 0
M  V30 6784 C 628.435 2.35527 2.52232 0
M  V30 6785 C 627.548 3.62147 2.35529 0
M  V30 6786 C 626.683 3.89167 3.61555 0
M  V30 6787 C 625.722 5.09084 3.39853 0
M  V30 6788 N 624.859 5.32156 4.5799 0
M  V30 6789 H 629.699 2.8601 0.836802 0
M  V30 6790 H 627.236 1.41507 0.401758 0
M  V30 6791 H 629.194 2.55516 3.29799 0
M  V30 6792 H 627.824 1.50253 2.85699 0
M  V30 6793 H 626.876 3.4998 1.49057 0
M  V30 6794 H 628.188 4.49871 2.15448 0
M  V30 6795 H 627.342 4.09611 4.47553 0
M  V30 6796 H 626.081 2.9985 3.84632 0
M  V30 6797 H 625.086 4.88522 2.52243 0
M  V30 6798 H 626.311 5.99947 3.18183 0
M  V30 6799 H 624.257 4.45791 4.81255 0
M  V30 6800 H 624.174 6.14133 4.40882 0
M  V30 6801 H 625.442 5.57091 5.45225 0
M  V30 6802 N 629.671 -0.424282 1.51781 0
M  V30 6803 C 630.919 -1.17028 1.64769 0
M  V30 6804 C 631.24 -1.91409 0.372523 0
M  V30 6805 O 630.51 -1.86091 -0.612108 0
M  V30 6806 H 629.09 -0.434992 0.607282 0
M  V30 6807 H 631.752 -0.485169 1.88765 0
M  V30 6808 H 630.848 -1.8927 2.4816 0
M  V30 6809 N 631.149 -1.42148 -0.680565 0
M  V30 6810 C 632.565 -1.24947 -0.992995 0
M  V30 6811 C 632.765 -0.149527 -2.00944 0
M  V30 6812 O 631.821 0.481145 -2.47873 0
M  V30 6813 C 633.134 -2.60426 -1.5033 0
M  V30 6814 C 634.682 -2.67733 -1.62137 0
M  V30 6815 C 635.157 -4.03564 -2.16565 0
M  V30 6816 N 636.648 -4.05488 -2.23905 0
M  V30 6817 C 637.383 -5.07401 -2.67081 0
M  V30 6818 N 636.879 -6.19698 -3.09751 0
M  V30 6819 N 638.672 -4.94758 -2.66778 0
M  V30 6820 H 630.823 -2.12399 -0.0074788 0
M  V30 6821 H 633.086 -0.94571 -0.0658529 0
M  V30 6822 H 632.792 -3.41743 -0.830947 0
M  V30 6823 H 632.666 -2.83949 -2.483 0
M  V30 6824 H 635.053 -1.86765 -2.2848 0
M  V30 6825 H 635.134 -2.48004 -0.626713 0
M  V30 6826 H 634.778 -4.84987 -1.50833 0
M  V30 6827 H 634.708 -4.20641 -3.1681 0
M  V30 6828 H 637.199 -3.24415 -1.93812 0
M  V30 6829 H 637.512 -6.93318 -3.41365 0
M  V30 6830 H 635.857 -6.23212 -3.07623 0
M  V30 6831 H 639.048 -4.06105 -2.32801 0
M  V30 6832 H 639.221 -5.74317 -3.00107 0
M  V30 6833 N 632.627 0.916307 -1.28225 0
M  V30 6834 C 633.876 1.65975 -1.14608 0
M  V30 6835 C 634.189 1.93204 0.305191 0
M  V30 6836 O 635.395 2.65611 0.562432 0
M  V30 6837 C 633.851 2.98989 -2.00333 0
M  V30 6838 C 633.459 2.79417 -3.50186 0
M  V30 6839 C 635.203 3.76856 -1.95397 0
M  V30 6840 C 633.11 4.08056 -4.28071 0
M  V30 6841 H 632.04 0.622587 -0.425324 0
M  V30 6842 H 634.691 1.01705 -1.52736 0
M  V30 6843 H 633.073 3.6438 -1.5506 0
M  V30 6844 H 634.247 2.22723 -4.034 0
M  V30 6845 H 632.562 2.14966 -3.56621 0
M  V30 6846 H 635.159 4.72203 -2.50856 0
M  V30 6847 H 635.502 4.05776 -0.930137 0
M  V30 6848 H 636.035 3.1828 -2.38626 0
M  V30 6849 H 632.774 3.8431 -5.31024 0
M  V30 6850 H 632.294 4.64371 -3.79631 0
M  V30 6851 H 633.973 4.76333 -4.37854 0
M  V30 6852 N 634.105 1.10431 1.1244 0
M  V30 6853 C 635.521 0.836096 1.35947 0
M  V30 6854 C 635.721 -0.544475 1.94004 0
M  V30 6855 O 634.777 -1.29735 2.16622 0
M  V30 6856 C 636.09 1.93575 2.30107 0
M  V30 6857 C 637.638 1.9642 2.43697 0
M  V30 6858 C 638.113 3.05559 3.41171 0
M  V30 6859 N 639.604 3.04865 3.48728 0
M  V30 6860 C 640.339 3.85954 4.24061 0
M  V30 6861 N 639.835 4.76977 5.02458 0
M  V30 6862 N 641.628 3.74172 4.19466 0
M  V30 6863 H 633.779 1.9942 0.731124 0
M  V30 6864 H 636.042 0.866607 0.384312 0
M  V30 6865 H 635.748 2.92943 1.94621 0
M  V30 6866 H 635.622 1.8229 3.30227 0
M  V30 6867 H 638.009 0.97685 2.78463 0
M  V30 6868 H 638.09 2.11782 1.43465 0
M  V30 6869 H 637.734 4.04513 3.07135 0
M  V30 6870 H 637.664 2.87438 4.41234 0
M  V30 6871 H 640.155 2.38908 2.92799 0
M  V30 6872 H 640.468 5.35409 5.57277 0
M  V30 6873 H 638.813 4.81006 5.01655 0
M  V30 6874 H 642.004 3.02412 3.57302 0
M  V30 6875 H 642.177 4.37602 4.77921 0
M  V30 6876 N 635.583 -1.29855 0.893053 0
M  V30 6877 C 636.999 -1.48366 0.588199 0
M  V30 6878 C 637.199 -1.81654 -0.872018 0
M  V30 6879 O 636.255 -1.909 -1.65268 0
M  V30 6880 C 637.568 -2.60136 1.5083 0
M  V30 6881 C 639.116 -2.74014 1.51279 0
M  V30 6882 C 639.591 -3.88905 2.41902 0
M  V30 6883 N 641.082 -3.96228 2.39911 0
M  V30 6884 C 641.817 -4.84458 3.06738 0
M  V30 6885 N 641.313 -5.77426 3.8282 0
M  V30 6886 N 643.106 -4.77894 2.95929 0
M  V30 6887 H 635.257 -1.06522 1.83757 0
M  V30 6888 H 637.52 -0.528495 0.787018 0
M  V30 6889 H 637.226 -2.42383 2.54839 0
M  V30 6890 H 637.1 -3.56793 1.22388 0
M  V30 6891 H 639.487 -2.91167 0.480179 0
M  V30 6892 H 639.568 -1.77952 1.83757 0
M  V30 6893 H 639.212 -3.72508 3.45253 0
M  V30 6894 H 639.142 -4.84322 2.06737 0
M  V30 6895 H 641.633 -3.29728 1.84629 0
M  V30 6896 H 641.946 -6.41529 4.30883 0
M  V30 6897 H 640.291 -5.77332 3.86927 0
M  V30 6898 H 643.482 -4.04248 2.36012 0
M  V30 6899 H 643.655 -5.46444 3.48286 0
M  V30 6900 N 637.061 -0.65484 -1.43351 0
M  V30 6901 C 638.477 -0.32255 -1.56307 0
M  V30 6902 C 638.677 1.17324 -1.63821 0
M  V30 6903 O 637.733 1.95813 -1.59417 0
M  V30 6904 C 639.046 -1.03533 -2.82314 0
M  V30 6905 C 640.594 -1.01574 -2.9606 0
M  V30 6906 C 641.069 -1.70945 -4.24902 0
M  V30 6907 N 642.56 -1.67716 -4.3177 0
M  V30 6908 C 643.295 -2.18265 -5.30234 0
M  V30 6909 N 642.791 -2.7711 -6.34966 0
M  V30 6910 N 644.584 -2.08756 -5.21898 0
M  V30 6911 H 636.735 -1.62549 -1.36717 0
M  V30 6912 H 638.998 -0.683676 -0.656727 0
M  V30 6913 H 638.704 -2.09045 -2.8283 0
M  V30 6914 H 638.578 -0.587913 -3.7259 0
M  V30 6915 H 640.965 0.0309834 -2.95084 0
M  V30 6916 H 641.046 -1.50186 -2.07069 0
M  V30 6917 H 640.69 -2.75574 -4.26639 0
M  V30 6918 H 640.62 -1.19797 -5.12793 0
M  V30 6919 H 643.111 -1.24777 -3.56706 0
M  V30 6920 H 643.424 -3.13353 -7.06421 0
M  V30 6921 H 641.769 -2.81171 -6.35585 0
M  V30 6922 H 644.96 -1.62488 -4.38994 0
M  V30 6923 H 645.133 -2.48459 -5.98475 0
M  V30 6924 N 638.539 1.52521 -0.396863 0
M  V30 6925 C 639.502 2.2527 0.422604 0
M  V30 6926 C 640.502 1.27184 0.983913 0
M  V30 6927 O 641.692 1.51222 0.864723 0
M  V30 6928 C 638.824 3.01356 1.59365 0
M  V30 6929 H 640.017 2.99133 -0.214416 0
M  V30 6930 H 637.57 1.55587 -0.149128 0
M  V30 6931 H 638.305 2.31813 2.26789 0
M  V30 6932 H 638.09 3.73357 1.19779 0
M  V30 6933 H 639.58 3.56571 2.17363 0
M  V30 6934 N 640.017 0.126909 1.57088 0
M  V30 6935 C 641.242 -0.53997 2.00248 0
M  V30 6936 C 641.667 -1.58927 1.00618 0
M  V30 6937 O 641.025 -1.81288 -0.0210131 0
M  V30 6938 C 641.073 -1.13565 3.4225 0
M  V30 6939 O 640.177 -2.25103 3.45547 0
M  V30 6940 H 639.518 -0.13412 0.650314 0
M  V30 6941 H 642.048 0.217718 2.03438 0
M  V30 6942 H 642.058 -1.46925 3.80627 0
M  V30 6943 H 640.733 -0.367122 4.14277 0
M  V30 6944 H 639.31 -1.93123 3.18995 0
M  V30 6945 N 641.495 -1.56914 -0.146875 0
M  V30 6946 C 642.427 -1.94878 -1.20645 0
M  V30 6947 C 643.44 -0.844633 -1.39175 0
M  V30 6948 O 644.629 -1.12304 -1.38744 0
M  V30 6949 C 641.729 -2.20769 -2.57127 0
M  V30 6950 C 640.902 -3.52053 -2.59572 0
M  V30 6951 C 639.961 -3.66482 -3.77594 0
M  V30 6952 O 638.987 -4.38873 -3.62462 0
M  V30 6953 N 640.189 -3.03156 -4.95052 0
M  V30 6954 H 642.954 -2.86374 -0.883757 0
M  V30 6955 H 640.515 -1.58366 -0.336436 0
M  V30 6956 H 642.507 -2.27664 -3.34591 0
M  V30 6957 H 641.077 -1.35538 -2.81688 0
M  V30 6958 H 640.297 -3.56598 -1.68023 0
M  V30 6959 H 641.585 -4.38396 -2.58238 0
M  V30 6960 H 640.983 -2.44258 -5.10249 0
M  V30 6961 H 639.54 -3.15611 -5.70292 0
M  V30 6962 N 642.974 0.416227 -1.52004 0
M  V30 6963 C 643.904 1.51365 -1.77795 0
M  V30 6964 C 644.885 1.58059 -0.628601 0
M  V30 6965 O 646.07 1.73447 -0.873478 0
M  V30 6966 C 643.2 2.89256 -1.92219 0
M  V30 6967 C 642.154 2.97415 -3.0778 0
M  V30 6968 C 641.48 4.37492 -3.07417 0
M  V30 6969 C 642.78 2.69551 -4.47369 0
M  V30 6970 H 644.474 1.30033 -2.69688 0
M  V30 6971 H 642.02 0.624112 -1.29772 0
M  V30 6972 H 643.973 3.66008 -2.08845 0
M  V30 6973 H 642.697 3.11866 -0.969917 0
M  V30 6974 H 641.356 2.23107 -2.90893 0
M  V30 6975 H 641.004 4.571 -2.09925 0
M  V30 6976 H 640.704 4.43877 -3.85029 0
M  V30 6977 H 642.228 5.16188 -3.26162 0
M  V30 6978 H 643.642 3.36028 -4.64497 0
M  V30 6979 H 642.039 2.87321 -5.26846 0
M  V30 6980 H 643.109 1.65029 -4.55953 0
M  V30 6981 N 644.452 1.42507 0.673017 0
M  V30 6982 C 645.399 1.46124 1.78651 0
M  V30 6983 C 646.369 0.313007 1.63124 0
M  V30 6984 O 647.554 0.517337 1.83653 0
M  V30 6985 C 644.694 1.3711 3.16694 0
M  V30 6986 C 643.807 2.61983 3.43495 0
M  V30 6987 C 642.942 2.45098 4.71275 0
M  V30 6988 C 641.981 3.65336 4.91117 0
M  V30 6989 N 641.118 3.47383 6.10139 0
M  V30 6990 H 645.958 2.4128 1.74895 0
M  V30 6991 H 643.495 1.19788 0.853766 0
M  V30 6992 H 645.453 1.29881 3.96468 0
M  V30 6993 H 644.083 0.45549 3.1957 0
M  V30 6994 H 643.135 2.79571 2.57961 0
M  V30 6995 H 644.447 3.51355 3.5405 0
M  V30 6996 H 643.601 2.35466 5.59143 0
M  V30 6997 H 642.34 1.53219 4.63007 0
M  V30 6998 H 641.345 3.754 4.0169 0
M  V30 6999 H 642.57 4.58199 5.01229 0
M  V30 7000 H 640.516 2.58222 6.0304 0
M  V30 7001 H 640.433 4.30344 6.21563 0
M  V30 7002 H 641.701 3.41565 7.00681 0
M  V30 7003 N 645.93 -0.909495 1.28709 0
M  V30 7004 C 647.176 -1.66151 1.16283 0
M  V30 7005 C 647.509 -1.92067 -0.287069 0
M  V30 7006 O 646.784 -1.52409 -1.20837 0
M  V30 7007 C 647.067 -3.01676 1.9663 0
M  V30 7008 C 646.92 -2.82888 3.49707 0
M  V30 7009 C 648.239 -4.02274 1.78504 0
M  V30 7010 H 645.358 -0.602966 0.423793 0
M  V30 7011 H 648 -1.05418 1.58073 0
M  V30 7012 H 646.15 -3.53515 1.61119 0
M  V30 7013 H 647.822 -2.38026 3.95147 0
M  V30 7014 H 646.065 -2.17862 3.75125 0
M  V30 7015 H 646.736 -3.79147 4.01187 0
M  V30 7016 H 649.212 -3.59511 2.09503 0
M  V30 7017 H 648.088 -4.95056 2.37088 0
M  V30 7018 H 648.349 -4.35903 0.737647 0
M  V30 7019 N 647.408 -1.11026 -1.11852 0
M  V30 7020 C 648.355 -0.764662 -2.17765 0
M  V30 7021 C 649.325 0.261854 -1.64023 0
M  V30 7022 O 650.51 0.139748 -1.90288 0
M  V30 7023 C 647.65 -0.209317 -3.44465 0
M  V30 7024 C 646.763 -1.29187 -4.12231 0
M  V30 7025 C 645.898 -0.697523 -5.266 0
M  V30 7026 C 644.937 -1.76023 -5.86244 0
M  V30 7027 N 644.074 -1.18569 -6.92016 0
M  V30 7028 H 648.914 -1.67202 -2.46673 0
M  V30 7029 H 646.451 -0.835065 -1.21099 0
M  V30 7030 H 648.409 0.130599 -4.16996 0
M  V30 7031 H 647.039 0.661251 -3.15955 0
M  V30 7032 H 646.091 -1.74881 -3.37818 0
M  V30 7033 H 647.403 -2.09607 -4.52622 0
M  V30 7034 H 646.557 -0.307412 -6.05921 0
M  V30 7035 H 645.296 0.138044 -4.87505 0
M  V30 7036 H 644.301 -2.1597 -5.05606 0
M  V30 7037 H 645.526 -2.59875 -6.27409 0
M  V30 7038 H 643.472 -0.371695 -6.54946 0
M  V30 7039 H 643.389 -1.92666 -7.31038 0
M  V30 7040 H 644.657 -0.82233 -7.7515 0
M  V30 7041 N 648.886 1.2938 -0.899927 0
M  V30 7042 C 650.135 1.9483 -0.521937 0
M  V30 7043 C 650.448 1.71725 0.936473 0
M  V30 7044 O 651.654 2.31282 1.42199 0
M  V30 7045 C 650.11 3.48911 -0.88255 0
M  V30 7046 C 649.718 3.80815 -2.35974 0
M  V30 7047 C 651.462 4.20595 -0.57448 0
M  V30 7048 C 649.369 5.28142 -2.66121 0
M  V30 7049 H 648.299 0.729285 -0.191468 0
M  V30 7050 H 650.95 1.47103 -1.09695 0
M  V30 7051 H 649.332 3.95293 -0.236459 0
M  V30 7052 H 650.506 3.45291 -3.05141 0
M  V30 7053 H 648.821 3.22271 -2.63686 0
M  V30 7054 H 651.418 5.29031 -0.776556 0
M  V30 7055 H 651.761 4.13442 0.487005 0
M  V30 7056 H 652.294 3.79945 -1.17842 0
M  V30 7057 H 649.033 5.4036 -3.71068 0
M  V30 7058 H 648.553 5.64913 -2.01578 0
M  V30 7059 H 650.232 5.95738 -2.52399 0
M  V30 7060 N 650.364 0.662433 1.43002 0
M  V30 7061 C 651.775 0.258315 1.84904 0
M  V30 7062 C 652.126 -1.19703 1.55453 0
M  V30 7063 O 651.251 -1.91484 1.00811 0
M  V30 7064 C 651.846 0.462047 3.35635 0
M  V30 7065 C 650.405 0.112165 3.76233 0
M  V30 7066 C 649.552 0.760479 2.66668 0
M  V30 7067 H 652.503 0.865467 1.33024 0
M  V30 7068 H 652.524 -0.289646 3.79396 0
M  V30 7069 H 652.036 1.52135 3.57039 0
M  V30 7070 H 650.137 -0.944179 3.60439 0
M  V30 7071 H 650.25 0.544058 4.76001 0
M  V30 7072 H 648.614 0.192887 2.53969 0
M  V30 7073 H 649.397 1.82299 2.90898 0
M  V30 7074 N 651.842 -1.52309 0.404946 0
M  V30 7075 C 653.119 -1.94237 -0.230544 0
M  V30 7076 C 653.499 -1.34154 -1.6299 0
M  V30 7077 O 652.847 -0.515713 -2.22604 0
M  V30 7078 C 653.057 -3.48166 -0.241106 0
M  V30 7079 C 654.405 -4.22074 -0.462488 0
M  V30 7080 O 655.429 -3.54754 -0.320644 0
M  V30 7081 O 654.288 -5.41443 -0.741708 0
M  V30 7082 H 651.382 -0.813766 -0.147358 0
M  V30 7083 H 653.928 -1.6333 0.460587 0
M  V30 7084 H 652.7 -3.84269 0.738467 0
M  V30 7085 H 652.323 -3.85422 -0.97651 0
M  V30 7086 N 653.32 -0.135238 -1.57019 0
M  V30 7087 C 654.25 0.805235 -2.19176 0
M  V30 7088 C 655.231 1.2656 -1.13651 0
M  V30 7089 O 656.416 1.32528 -1.4195 0
M  V30 7090 C 653.546 2.04914 -2.80406 0
M  V30 7091 C 652.5 1.72598 -3.91655 0
M  V30 7092 C 651.826 3.04154 -4.39766 0
M  V30 7093 C 653.126 0.981709 -5.12991 0
M  V30 7094 H 654.82 0.287232 -2.98019 0
M  V30 7095 H 652.366 0.136714 -1.4335 0
M  V30 7096 H 654.319 2.71178 -3.22553 0
M  V30 7097 H 653.043 2.59067 -1.98877 0
M  V30 7098 H 651.702 1.08717 -3.50109 0
M  V30 7099 H 651.35 3.56274 -3.55075 0
M  V30 7100 H 651.05 2.83299 -5.14796 0
M  V30 7101 H 652.574 3.71509 -4.84576 0
M  V30 7102 H 653.988 1.5462 -5.52056 0
M  V30 7103 H 652.385 0.873533 -5.93708 0
M  V30 7104 H 653.455 -0.0286887 -4.84892 0
M  V30 7105 N 654.798 1.5699 0.138552 0
M  V30 7106 C 656.026 1.87976 0.864437 0
M  V30 7107 C 656.441 0.724372 1.74351 0
M  V30 7108 O 655.798 -0.305575 1.79924 0
M  V30 7109 C 655.849 3.18276 1.71414 0
M  V30 7110 O 655.57 4.29365 0.870487 0
M  V30 7111 C 657.071 3.62834 2.54688 0
M  V30 7112 H 654.291 0.622878 0.249528 0
M  V30 7113 H 656.835 2.04094 0.128805 0
M  V30 7114 H 654.99 3.03886 2.40274 0
M  V30 7115 H 655.404 5.03924 1.45466 0
M  V30 7116 H 656.878 4.5682 3.0987 0
M  V30 7117 H 657.355 2.88533 3.31127 0
M  V30 7118 H 657.961 3.79946 1.91105 0
M  V30 7119 N 656.276 -0.40816 1.52223 0
M  V30 7120 C 657.553 -1.16807 1.56893 0
M  V30 7121 C 657.933 -2.08169 0.350537 0
M  V30 7122 O 657.281 -2.18684 -0.662536 0
M  V30 7123 C 657.491 -1.94451 2.8981 0
M  V30 7124 C 658.839 -2.50484 3.42845 0
M  V30 7125 O 659.863 -2.0463 2.91556 0
M  V30 7126 O 658.722 -3.34192 4.3241 0
M  V30 7127 H 655.816 -0.533382 0.632007 0
M  V30 7128 H 658.362 -0.414862 1.64551 0
M  V30 7129 H 657.134 -1.27527 3.69936 0
M  V30 7130 H 656.757 -2.76775 2.85449 0
M  V30 7131 N 657.755 -1.42862 -0.66545 0
M  V30 7132 C 659.001 -1.44043 -1.42757 0
M  V30 7133 C 659.334 -0.0599629 -1.94107 0
M  V30 7134 O 658.609 0.917286 -1.71511 0
M  V30 7135 C 658.892 -2.47266 -2.61786 0
M  V30 7136 C 658.745 -3.94539 -2.16007 0
M  V30 7137 C 660.064 -2.47365 -3.64003 0
M  V30 7138 H 657.183 -0.524506 -0.517748 0
M  V30 7139 H 659.825 -1.74335 -0.755466 0
M  V30 7140 H 657.975 -2.21565 -3.19126 0
M  V30 7141 H 659.647 -4.31254 -1.63762 0
M  V30 7142 H 657.89 -4.07957 -1.47491 0
M  V30 7143 H 658.561 -4.62357 -3.01546 0
M  V30 7144 H 661.037 -2.70243 -3.16399 0
M  V30 7145 H 659.913 -3.21552 -4.44854 0
M  V30 7146 H 660.174 -1.50299 -4.15767 0
M  V30 7147 N 659.233 0.902656 -1.29189 0
M  V30 7148 C 660.181 2.0278 -1.13943 0
M  V30 7149 C 661.175 1.69308 -0.055787 0
M  V30 7150 O 662.381 1.78707 -0.215371 0
M  V30 7151 H 658.756 0.664595 -0.351877 0
M  V30 7152 H 660.727 2.12778 -2.09208 0
M  V30 7153 C 659.476 3.37657 -0.82966 0
M  V30 7154 H 658.799 3.63913 -1.65551 0
M  V30 7155 H 660.239 4.17078 -0.762998 0
M  V30 7156 C 658.698 3.33648 0.466991 0
M  V30 7157 O 659.228 3.72886 1.49395 0
M  V30 7158 N 657.434 2.86745 0.471761 0
M  V30 7159 H 656.981 2.55009 -0.364406 0
M  V30 7160 H 656.939 2.84446 1.33933 0
M  V30 7161 N 660.711 1.11618 1.11262 0
M  V30 7162 C 661.936 0.889013 1.8738 0
M  V30 7163 C 662.361 -0.555884 1.79698 0
M  V30 7164 O 661.719 -1.39272 1.16073 0
M  V30 7165 C 661.767 1.35759 3.34069 0
M  V30 7166 O 660.871 0.530499 4.08974 0
M  V30 7167 H 660.212 0.320082 0.581759 0
M  V30 7168 H 662.742 1.48611 1.40627 0
M  V30 7169 H 662.752 1.35291 3.84916 0
M  V30 7170 H 661.427 2.40973 3.38976 0
M  V30 7171 H 660.004 0.601439 3.68018 0
M  V30 7172 N 662.189 -1.289 0.906776 0
M  V30 7173 C 663.438 -1.9455 0.532262 0
M  V30 7174 C 663.751 -1.72219 -0.927353 0
M  V30 7175 O 664.957 -2.32033 -1.40971 0
M  V30 7176 C 663.413 -3.48438 0.901041 0
M  V30 7177 C 663.021 -3.79558 2.37991 0
M  V30 7178 C 664.765 -4.20284 0.596777 0
M  V30 7179 C 662.672 -5.26723 2.68918 0
M  V30 7180 H 661.602 -0.728259 0.195333 0
M  V30 7181 H 664.253 -1.46519 1.10474 0
M  V30 7182 H 662.635 -3.95162 0.257419 0
M  V30 7183 H 663.809 -3.43668 3.06967 0
M  V30 7184 H 662.124 -3.20868 2.65391 0
M  V30 7185 H 664.721 -5.28612 0.8046 0
M  V30 7186 H 665.064 -4.13694 -0.465072 0
M  V30 7187 H 665.597 -3.79315 1.19855 0
M  V30 7188 H 662.336 -5.38384 3.73928 0
M  V30 7189 H 661.856 -5.63836 2.04571 0
M  V30 7190 H 663.535 -5.94391 2.55555 0
M  V30 7191 N 663.667 -0.670007 -1.42649 0
M  V30 7192 C 664.944 -0.119451 -1.95235 0
M  V30 7193 C 665.324 1.36461 -1.61064 0
M  V30 7194 O 664.672 2.09843 -0.904329 0
M  V30 7195 C 664.882 -0.383498 -3.46887 0
M  V30 7196 C 666.23 -0.297431 -4.23557 0
M  V30 7197 O 667.254 -0.31698 -3.54787 0
M  V30 7198 O 666.113 -0.235507 -5.45992 0
M  V30 7199 H 663.207 -8.85474e-05 -0.827 0
M  V30 7200 H 665.753 -0.744406 -1.52501 0
M  V30 7201 H 664.525 -1.41174 -3.64946 0
M  V30 7202 H 664.148 0.273702 -3.96657 0
M  V30 7203 N 665.145 1.52092 -0.413018 0
M  V30 7204 C 666.092 2.27119 0.410558 0
M  V30 7205 C 667.062 1.29692 1.03774 0
M  V30 7206 O 668.247 1.58561 1.06128 0
M  V30 7207 C 665.387 3.09863 1.51918 0
M  V30 7208 C 664.5 4.22252 0.912528 0
M  V30 7209 C 663.635 4.92348 1.99417 0
M  V30 7210 C 662.674 5.96694 1.36466 0
M  V30 7211 N 661.811 6.60292 2.38661 0
M  V30 7212 H 666.651 2.97067 -0.235661 0
M  V30 7213 H 664.188 1.46542 -0.128055 0
M  V30 7214 H 666.146 3.56144 2.17295 0
M  V30 7215 H 664.776 2.42078 2.13537 0
M  V30 7216 H 663.828 3.80113 0.147697 0
M  V30 7217 H 665.14 4.9709 0.412717 0
M  V30 7218 H 664.294 5.42054 2.72512 0
M  V30 7219 H 663.033 4.17087 2.52764 0
M  V30 7220 H 662.038 5.46304 0.61906 0
M  V30 7221 H 663.263 6.73899 0.838827 0
M  V30 7222 H 661.209 5.87858 2.91134 0
M  V30 7223 H 661.126 7.30816 1.93503 0
M  V30 7224 H 662.394 7.14635 3.11314 0
M  V30 7225 N 666.623 0.143563 1.56945 0
M  V30 7226 C 667.869 -0.502787 1.97088 0
M  V30 7227 C 668.224 -1.62703 1.02691 0
M  V30 7228 O 667.517 -1.91502 0.0613323 0
M  V30 7229 C 667.711 -1.05885 3.41355 0
M  V30 7230 C 667.54 0.00998209 4.49699 0
M  V30 7231 C 666.31 0.450229 5.0329 0
M  V30 7232 C 668.508 0.800174 5.08037 0
M  V30 7233 N 666.49 1.50227 5.95235 0
M  V30 7234 C 667.861 1.70279 5.96158 0
M  V30 7235 C 669.916 0.848344 4.9062 0
M  V30 7236 C 668.619 2.64945 6.68728 0
M  V30 7237 C 670.645 1.78281 5.63888 0
M  V30 7238 C 670.007 2.67296 6.51715 0
M  V30 7239 H 666.106 -0.152891 0.766908 0
M  V30 7240 H 668.69 0.23737 1.93248 0
M  V30 7241 H 666.861 -1.76863 3.45795 0
M  V30 7242 H 668.593 -1.67154 3.68567 0
M  V30 7243 H 665.348 0.0531355 4.7357 0
M  V30 7244 H 665.772 2.02795 6.45913 0
M  V30 7245 H 670.414 0.174228 4.22441 0
M  V30 7246 H 668.132 3.33358 7.36137 0
M  V30 7247 H 671.718 1.82584 5.52408 0
M  V30 7248 H 670.598 3.38428 7.07415 0
M  V30 7249 N 668.101 -1.57061 -0.130224 0
M  V30 7250 C 669.326 -1.88802 -0.858409 0
M  V30 7251 C 669.751 -0.734353 -1.73173 0
M  V30 7252 O 669.109 0.315529 -1.78533 0
M  V30 7253 C 669.157 -3.19228 -1.67708 0
M  V30 7254 O 668.261 -3.04343 -2.78297 0
M  V30 7255 H 667.602 -0.619849 -0.238083 0
M  V30 7256 H 670.132 -2.04271 -0.115995 0
M  V30 7257 H 670.142 -3.51669 -2.06864 0
M  V30 7258 H 668.817 -4.02793 -1.0359 0
M  V30 7259 H 667.394 -2.83346 -2.42425 0
M  V30 7260 N 669.579 0.400081 -1.52437 0
M  V30 7261 C 670.995 0.739359 -1.41441 0
M  V30 7262 C 671.195 1.94512 -0.526053 0
M  V30 7263 O 670.251 2.525 0.00472502 0
M  V30 7264 C 671.564 0.984824 -2.84116 0
M  V30 7265 C 673.112 1.08698 -2.93519 0
M  V30 7266 C 673.587 1.36515 -4.37181 0
M  V30 7267 N 675.078 1.43361 -4.40457 0
M  V30 7268 C 675.813 1.66528 -5.48686 0
M  V30 7269 N 675.309 1.87239 -6.67018 0
M  V30 7270 N 677.102 1.68617 -5.36213 0
M  V30 7271 H 669.253 -0.393484 -2.08723 0
M  V30 7272 H 671.516 -0.1138 -0.941145 0
M  V30 7273 H 671.222 0.171096 -3.51284 0
M  V30 7274 H 671.096 1.90253 -3.25705 0
M  V30 7275 H 673.483 1.89129 -2.26526 0
M  V30 7276 H 673.564 0.147432 -2.55375 0
M  V30 7277 H 673.208 0.565982 -5.04737 0
M  V30 7278 H 673.138 2.31737 -4.7287 0
M  V30 7279 H 675.629 1.29108 -3.55161 0
M  V30 7280 H 675.942 2.04392 -7.45281 0
M  V30 7281 H 674.287 1.84486 -6.70067 0
M  V30 7282 H 677.478 1.5198 -4.42741 0
M  V30 7283 H 677.651 1.86332 -6.20632 0
M  V30 7284 N 671.057 1.43213 0.657864 0
M  V30 7285 C 671.99 1.42456 1.78273 0
M  V30 7286 C 672.968 0.286598 1.60054 0
M  V30 7287 O 674.152 0.479467 1.823 0
M  V30 7288 C 671.279 1.23169 3.15511 0
M  V30 7289 C 670.325 2.40181 3.52442 0
M  V30 7290 S 671.158 4.02729 3.52944 0
M  V30 7291 C 672.314 3.85816 4.92846 0
M  V30 7292 H 672.547 2.37642 1.78644 0
M  V30 7293 H 670.08 1.30188 0.830084 0
M  V30 7294 H 672.038 1.12728 3.94719 0
M  V30 7295 H 670.699 0.295398 3.12708 0
M  V30 7296 H 669.892 2.22478 4.52239 0
M  V30 7297 H 669.494 2.47224 2.80636 0
M  V30 7298 H 671.786 3.47853 5.81381 0
M  V30 7299 H 672.729 4.85348 5.15599 0
M  V30 7300 H 673.137 3.18361 4.66162 0
M  V30 7301 N 672.536 -0.895792 1.29666 0
M  V30 7302 C 673.783 -1.64664 1.17864 0
M  V30 7303 C 674.111 -1.92631 -0.26902 0
M  V30 7304 O 673.366 -1.53787 -1.21029 0
M  V30 7305 C 673.665 -3.00075 1.94139 0
M  V30 7306 C 673.331 -2.91702 3.43833 0
M  V30 7307 C 671.993 -2.89126 3.84656 0
M  V30 7308 C 674.345 -2.80622 4.39205 0
M  V30 7309 C 671.673 -2.73293 5.1916 0
M  V30 7310 C 674.025 -2.66329 5.73805 0
M  V30 7311 C 672.689 -2.62121 6.1388 0
M  V30 7312 H 671.959 -0.602549 0.431295 0
M  V30 7313 H 674.606 -1.04234 1.60648 0
M  V30 7314 H 672.911 -3.64394 1.43958 0
M  V30 7315 H 674.608 -3.57111 1.82408 0
M  V30 7316 H 671.198 -2.94511 3.11386 0
M  V30 7317 H 675.382 -2.81686 4.08615 0
M  V30 7318 H 670.638 -2.68443 5.49316 0
M  V30 7319 H 674.812 -2.56727 6.47352 0
M  V30 7320 H 672.439 -2.49611 7.18052 0
M  V30 7321 N 674.014 -1.12206 -1.10668 0
M  V30 7322 C 675.261 -0.875875 -1.82578 0
M  V30 7323 C 675.589 0.598342 -1.85068 0
M  V30 7324 O 674.844 1.45818 -1.3052 0
M  V30 7325 C 675.143 -1.39276 -3.29146 0
M  V30 7326 C 674.809 -2.8816 -3.46806 0
M  V30 7327 C 673.471 -3.28813 -3.51334 0
M  V30 7328 C 675.823 -3.8401 -3.52399 0
M  V30 7329 C 673.151 -4.64028 -3.59019 0
M  V30 7330 C 675.503 -5.19053 -3.61617 0
M  V30 7331 C 674.167 -5.59252 -3.64408 0
M  V30 7332 H 673.437 -0.320505 -0.6681 0
M  V30 7333 H 676.084 -1.40184 -1.30464 0
M  V30 7334 H 674.389 -0.787207 -3.8381 0
M  V30 7335 H 676.086 -1.17851 -3.83291 0
M  V30 7336 H 672.676 -2.55716 -3.43958 0
M  V30 7337 H 676.86 -3.53698 -3.48154 0
M  V30 7338 H 672.116 -4.94568 -3.59461 0
M  V30 7339 H 676.29 -5.93152 -3.64889 0
M  V30 7340 H 673.917 -6.64017 -3.70116 0
M  V30 7341 N 675.492 1.28418 -0.913599 0
M  V30 7342 C 676.903 1.77024 -0.593237 0
M  V30 7343 C 677.254 1.74779 0.891441 0
M  V30 7344 O 676.379 1.34237 1.69733 0
M  V30 7345 C 676.974 3.21456 -1.07011 0
M  V30 7346 C 675.533 3.67786 -0.800664 0
M  V30 7347 C 674.68 2.48185 -1.23691 0
M  V30 7348 H 677.631 1.14883 -1.09487 0
M  V30 7349 H 677.652 3.78269 -0.411481 0
M  V30 7350 H 677.164 3.23058 -2.1507 0
M  V30 7351 H 675.265 3.71644 0.266725 0
M  V30 7352 H 675.378 4.57934 -1.4083 0
M  V30 7353 H 673.742 2.46116 -0.655655 0
M  V30 7354 H 674.525 2.52506 -2.32585 0
M  V30 7355 N 676.97 0.677563 1.42291 0
M  V30 7356 C 678.219 0.198173 2.00724 0
M  V30 7357 C 678.532 -1.20325 1.54211 0
M  V30 7358 O 679.738 -1.77916 2.05081 0
M  V30 7359 C 678.194 0.303432 3.58619 0
M  V30 7360 C 677.802 1.70909 4.14119 0
M  V30 7361 C 679.546 -0.117103 4.24338 0
M  V30 7362 C 677.453 1.76696 5.64387 0
M  V30 7363 H 676.383 0.070329 0.750713 0
M  V30 7364 H 679.034 0.843147 1.62982 0
M  V30 7365 H 677.416 -0.409482 3.93877 0
M  V30 7366 H 678.59 2.44931 3.90315 0
M  V30 7367 H 676.905 2.07771 3.6086 0
M  V30 7368 H 679.502 -0.0940471 5.34617 0
M  V30 7369 H 679.845 -1.15283 4.00019 0
M  V30 7370 H 680.378 0.5449 3.9405 0
M  V30 7371 H 677.117 2.7826 5.93508 0
M  V30 7372 H 676.637 1.07034 5.90173 0
M  V30 7373 H 678.316 1.52166 6.28852 0
M  V30 7374 N 678.448 -1.51871 0.421078 0
M  V30 7375 C 679.676 -2.06356 -0.14994 0
M  V30 7376 C 680.091 -1.29006 -1.37851 0
M  V30 7377 O 679.448 -0.345139 -1.79207 0
M  V30 7378 C 679.499 -3.58185 -0.488454 0
M  V30 7379 O 679.22 -4.32611 0.691341 0
M  V30 7380 C 680.721 -4.29129 -1.11191 0
M  V30 7381 H 677.941 -0.67083 -0.0151186 0
M  V30 7382 H 680.485 -1.95638 0.595476 0
M  V30 7383 H 678.64 -3.68871 -1.18376 0
M  V30 7384 H 679.054 -5.22927 0.405906 0
M  V30 7385 H 680.528 -5.36501 -1.29889 0
M  V30 7386 H 681.005 -3.86371 -2.0884 0
M  V30 7387 H 681.611 -4.22843 -0.456458 0
M  V30 7388 N 679.926 -0.151884 -1.56866 0
M  V30 7389 C 681.173 0.498004 -1.96281 0
M  V30 7390 C 681.501 1.64551 -1.03698 0
M  V30 7391 O 680.756 1.95585 -0.0671497 0
M  V30 7392 C 681.055 1.04074 -3.41911 0
M  V30 7393 C 680.721 0.0111688 -4.50899 0
M  V30 7394 C 679.383 -0.271844 -4.80432 0
M  V30 7395 C 681.735 -0.68869 -5.1663 0
M  V30 7396 C 679.063 -1.26044 -5.73001 0
M  V30 7397 C 681.415 -1.66613 -6.10264 0
M  V30 7398 C 680.079 -1.9568 -6.38174 0
M  V30 7399 H 679.349 0.182233 -0.718242 0
M  V30 7400 H 681.996 -0.239746 -1.89993 0
M  V30 7401 H 680.301 1.85592 -3.45055 0
M  V30 7402 H 681.998 1.55224 -3.69738 0
M  V30 7403 H 678.588 0.241932 -4.27917 0
M  V30 7404 H 682.772 -0.48324 -4.93942 0
M  V30 7405 H 678.028 -1.49202 -5.92915 0
M  V30 7406 H 682.202 -2.21392 -6.60272 0
M  V30 7407 H 679.829 -2.72434 -7.09707 0
M  V30 7408 N 681.404 1.57128 0.121893 0
M  V30 7409 C 682.629 1.89254 0.848385 0
M  V30 7410 C 683.054 0.743527 1.72781 0
M  V30 7411 O 682.412 -0.306056 1.78698 0
M  V30 7412 C 682.46 3.20113 1.66012 0
M  V30 7413 O 681.564 3.05815 2.76679 0
M  V30 7414 H 680.905 0.621103 0.234793 0
M  V30 7415 H 683.435 2.0433 0.10516 0
M  V30 7416 H 683.445 3.52761 2.04996 0
M  V30 7417 H 682.12 4.03336 1.01452 0
M  V30 7418 H 680.697 2.84627 2.40918 0
M  V30 7419 N 682.882 -0.391992 1.52647 0
M  V30 7420 C 683.812 -1.48517 1.8018 0
M  V30 7421 C 684.793 -1.57039 0.653667 0
M  V30 7422 O 685.978 -1.72036 0.900962 0
M  V30 7423 C 683.108 -2.86161 1.96797 0
M  V30 7424 C 682.062 -2.92481 3.12472 0
M  V30 7425 C 681.388 -4.32546 3.14338 0
M  V30 7426 C 682.688 -2.624 4.51601 0
M  V30 7427 H 684.382 -1.25726 2.71723 0
M  V30 7428 H 681.928 -0.603387 1.30749 0
M  V30 7429 H 683.881 -3.62639 2.14641 0
M  V30 7430 H 682.605 -3.10283 1.01941 0
M  V30 7431 H 681.264 -2.18451 2.94406 0
M  V30 7432 H 680.912 -4.53703 2.1717 0
M  V30 7433 H 680.612 -4.37695 3.92042 0
M  V30 7434 H 682.136 -5.10934 3.34333 0
M  V30 7435 H 683.55 -3.28596 4.69785 0
M  V30 7436 H 681.947 -2.78903 5.3135 0
M  V30 7437 H 683.017 -1.57754 4.58521 0
M  V30 7438 N 684.36 -1.4356 -0.65026 0
M  V30 7439 C 685.607 -1.45333 -1.41012 0
M  V30 7440 C 685.935 -0.0787282 -1.94341 0
M  V30 7441 O 685.19 0.916715 -1.72901 0
M  V30 7442 C 685.489 -2.44528 -2.60654 0
M  V30 7443 C 685.155 -3.90331 -2.25727 0
M  V30 7444 C 683.817 -4.3004 -2.15914 0
M  V30 7445 C 686.169 -4.822 -1.97821 0
M  V30 7446 C 683.497 -5.59568 -1.76354 0
M  V30 7447 C 685.849 -6.12095 -1.59759 0
M  V30 7448 C 684.513 -6.50778 -1.48473 0
M  V30 7449 H 683.783 -0.531813 -0.516 0
M  V30 7450 H 686.43 -1.76657 -0.739219 0
M  V30 7451 H 684.735 -2.06619 -3.3289 0
M  V30 7452 H 686.432 -2.43155 -3.18868 0
M  V30 7453 H 683.022 -3.58905 -2.34276 0
M  V30 7454 H 687.206 -4.5229 -2.04322 0
M  V30 7455 H 682.462 -5.88376 -1.66205 0
M  V30 7456 H 686.636 -6.82751 -1.37198 0
M  V30 7457 H 684.263 -7.5105 -1.17591 0
M  V30 7458 N 685.838 0.888903 -1.30139 0
M  V30 7459 C 686.786 2.0156 -1.16088 0
M  V30 7460 C 687.78 1.69239 -0.0737413 0
M  V30 7461 O 688.986 1.78468 -0.234313 0
M  V30 7462 H 685.361 0.660825 -0.358907 0
M  V30 7463 H 687.332 2.10547 -2.11453 0
M  V30 7464 C 686.081 3.36758 -0.865426 0
M  V30 7465 H 685.404 3.62137 -1.69402 0
M  V30 7466 H 686.844 4.16246 -0.807192 0
M  V30 7467 C 685.303 3.34124 0.431577 0
M  V30 7468 O 685.833 3.7445 1.45431 0
M  V30 7469 N 684.039 2.87229 0.441321 0
M  V30 7470 H 683.586 2.54609 -0.391433 0
M  V30 7471 H 683.544 2.8585 1.30909 0
M  V30 7472 N 687.317 1.12792 1.10072 0
M  V30 7473 C 688.563 0.886857 1.82381 0
M  V30 7474 C 688.896 -0.58576 1.85155 0
M  V30 7475 O 688.171 -1.43317 1.31493 0
M  V30 7476 C 688.454 1.46703 3.28862 0
M  V30 7477 C 688.307 3.00829 3.34398 0
M  V30 7478 C 689.626 1.12971 4.25353 0
M  V30 7479 H 686.745 0.32362 0.662148 0
M  V30 7480 H 689.387 1.39513 1.28982 0
M  V30 7481 H 687.537 1.03476 3.74466 0
M  V30 7482 H 689.209 3.52764 2.97247 0
M  V30 7483 H 687.452 3.36164 2.74183 0
M  V30 7484 H 688.123 3.36519 4.3756 0
M  V30 7485 H 690.599 1.50313 3.88001 0
M  V30 7486 H 689.475 1.56223 5.26199 0
M  V30 7487 H 689.736 0.0424452 4.4208 0
M  V30 7488 N 688.795 -1.27931 0.920396 0
M  V30 7489 C 690.041 -1.94977 0.557832 0
M  V30 7490 C 690.374 -1.72224 -0.897365 0
M  V30 7491 O 689.649 -1.04705 -1.63912 0
M  V30 7492 C 689.932 -3.49289 0.875741 0
M  V30 7493 C 689.785 -3.81416 2.38416 0
M  V30 7494 C 691.104 -4.38486 0.376517 0
M  V30 7495 H 688.223 -0.708164 0.20414 0
M  V30 7496 H 690.865 -1.5118 1.15085 0
M  V30 7497 H 689.015 -3.86724 0.371062 0
M  V30 7498 H 690.687 -3.53813 2.95997 0
M  V30 7499 H 688.93 -3.28225 2.83639 0
M  V30 7500 H 689.601 -4.89198 2.55713 0
M  V30 7501 H 692.077 -4.08161 0.808945 0
M  V30 7502 H 690.953 -5.45296 0.627976 0
M  V30 7503 H 691.214 -4.36143 -0.723293 0
M  V30 7504 N 690.273 -0.685099 -1.4193 0
M  V30 7505 C 691.503 -0.220052 -2.05425 0
M  V30 7506 C 691.911 1.13185 -1.51611 0
M  V30 7507 O 691.254 1.71631 -0.654875 0
M  V30 7508 C 691.316 -0.0888364 -3.5939 0
M  V30 7509 C 690.98 -1.37109 -4.35947 0
M  V30 7510 C 691.977 -2.30675 -4.65924 0
M  V30 7511 C 689.662 -1.62155 -4.75406 0
M  V30 7512 C 691.656 -3.47556 -5.34306 0
M  V30 7513 C 689.343 -2.79324 -5.43527 0
M  V30 7514 C 690.341 -3.71848 -5.72903 0
M  V30 7515 O 690.029 -4.86966 -6.39624 0
M  V30 7516 H 689.761 -0.102165 -0.668235 0
M  V30 7517 H 692.315 -0.935194 -1.82875 0
M  V30 7518 H 690.545 0.681981 -3.80639 0
M  V30 7519 H 692.234 0.337669 -4.04493 0
M  V30 7520 H 693 -2.12579 -4.3593 0
M  V30 7521 H 688.879 -0.910053 -4.51928 0
M  V30 7522 H 692.423 -4.19794 -5.57153 0
M  V30 7523 H 688.32 -2.97342 -5.72938 0
M  V30 7524 H 689.088 -4.86644 -6.58118 0
M  V30 7525 N 691.751 1.51645 -0.429126 0
M  V30 7526 C 692.997 2.02967 0.132584 0
M  V30 7527 C 693.352 1.30804 1.41096 0
M  V30 7528 O 692.645 0.411705 1.87124 0
M  V30 7529 C 692.839 3.54989 0.414472 0
M  V30 7530 C 692.668 4.41879 -0.83503 0
M  V30 7531 C 691.438 4.86482 -1.36614 0
M  V30 7532 C 693.636 4.84727 -1.71886 0
M  V30 7533 N 691.618 5.5756 -2.56904 0
M  V30 7534 C 692.989 5.54788 -2.76786 0
M  V30 7535 C 695.044 4.66721 -1.73425 0
M  V30 7536 C 693.747 6.08753 -3.8316 0
M  V30 7537 C 695.773 5.21597 -2.7873 0
M  V30 7538 C 695.135 5.91598 -3.8235 0
M  V30 7539 H 691.234 0.781942 0.00956367 0
M  V30 7540 H 693.818 1.8561 -0.587957 0
M  V30 7541 H 691.989 3.72378 1.10405 0
M  V30 7542 H 693.721 3.92982 0.966817 0
M  V30 7543 H 690.476 4.64553 -0.921255 0
M  V30 7544 H 690.9 5.97731 -3.17879 0
M  V30 7545 H 695.542 4.1207 -0.946467 0
M  V30 7546 H 693.26 6.62464 -4.62782 0
M  V30 7547 H 696.846 5.09522 -2.80853 0
M  V30 7548 H 695.726 6.33299 -4.62495 0
M  V30 7549 N 693.229 0.160201 1.56784 0
M  V30 7550 C 694.159 -0.770264 2.2043 0
M  V30 7551 C 695.14 -1.24736 1.15651 0
M  V30 7552 O 696.325 -1.30253 1.44041 0
M  V30 7553 C 693.455 -2.00427 2.83631 0
M  V30 7554 C 692.409 -1.66345 3.94352 0
M  V30 7555 C 691.735 -2.97119 4.4455 0
M  V30 7556 C 693.035 -0.899972 5.14488 0
M  V30 7557 H 694.729 -0.239783 2.98438 0
M  V30 7558 H 692.275 -0.113891 1.43549 0
M  V30 7559 H 694.228 -2.66012 3.26827 0
M  V30 7560 H 692.952 -2.5587 2.02973 0
M  V30 7561 H 691.611 -1.03133 3.51794 0
M  V30 7562 H 691.259 -3.5058 3.60698 0
M  V30 7563 H 690.959 -2.75073 5.19238 0
M  V30 7564 H 692.483 -3.63753 4.90425 0
M  V30 7565 H 693.897 -1.45818 5.54446 0
M  V30 7566 H 692.294 -0.778968 5.95023 0
M  V30 7567 H 693.364 0.105827 4.84785 0
M  V30 7568 N 694.707 -1.5719 -0.113559 0
M  V30 7569 C 695.937 -1.89053 -0.833212 0
M  V30 7570 C 696.345 -0.750139 -1.73694 0
M  V30 7571 O 695.688 0.287808 -1.81431 0
M  V30 7572 C 695.75 -3.15986 -1.71443 0
M  V30 7573 C 695.414 -4.46271 -0.984449 0
M  V30 7574 C 696.411 -5.18897 -0.322741 0
M  V30 7575 C 694.096 -4.92963 -0.964011 0
M  V30 7576 C 696.09 -6.3644 0.349646 0
M  V30 7577 C 693.777 -6.10422 -0.287828 0
M  V30 7578 C 694.775 -6.82009 0.36784 0
M  V30 7579 O 694.463 -7.97233 1.03322 0
M  V30 7580 H 694.195 -0.630225 -0.244526 0
M  V30 7581 H 696.749 -2.05152 -0.100847 0
M  V30 7582 H 694.979 -2.95984 -2.48858 0
M  V30 7583 H 696.668 -3.33826 -2.309 0
M  V30 7584 H 697.434 -4.83875 -0.330114 0
M  V30 7585 H 693.313 -4.37143 -1.46379 0
M  V30 7586 H 696.857 -6.92254 0.861996 0
M  V30 7587 H 692.754 -6.449 -0.278237 0
M  V30 7588 H 693.522 -8.13105 0.938247 0
M  V30 7589 N 696.185 0.383891 -1.52853 0
M  V30 7590 C 697.415 1.14783 -1.7178 0
M  V30 7591 C 697.823 1.84055 -0.438211 0
M  V30 7592 O 697.166 1.73713 0.597465 0
M  V30 7593 C 697.228 2.23543 -2.81547 0
M  V30 7594 C 696.892 1.74195 -4.22499 0
M  V30 7595 C 697.889 1.21591 -5.05481 0
M  V30 7596 C 695.574 1.80262 -4.6884 0
M  V30 7597 C 697.568 0.757104 -6.32888 0
M  V30 7598 C 695.255 1.33993 -5.96229 0
M  V30 7599 C 696.253 0.818049 -6.78083 0
M  V30 7600 O 695.941 0.362123 -8.03084 0
M  V30 7601 H 695.673 0.349908 -0.578395 0
M  V30 7602 H 698.227 0.454377 -2.00311 0
M  V30 7603 H 696.457 2.96328 -2.48449 0
M  V30 7604 H 698.146 2.8519 -2.88828 0
M  V30 7605 H 698.912 1.16257 -4.7086 0
M  V30 7606 H 694.791 2.19825 -4.05213 0
M  V30 7607 H 698.335 0.34908 -6.96726 0
M  V30 7608 H 694.232 1.39015 -6.30353 0
M  V30 7609 H 695 0.483134 -8.17073 0
M  V30 7610 N 697.663 1.43903 0.642637 0
M  V30 7611 C 698.909 1.46296 1.40447 0
M  V30 7612 C 699.242 0.0908361 1.93987 0
M  V30 7613 O 698.517 -0.889884 1.72949 0
M  V30 7614 C 698.8 2.51399 2.57819 0
M  V30 7615 C 698.653 3.97926 2.09702 0
M  V30 7616 C 699.972 2.53125 3.60022 0
M  V30 7617 H 697.091 0.532676 0.509338 0
M  V30 7618 H 699.733 1.75515 0.727635 0
M  V30 7619 H 697.883 2.26614 3.1556 0
M  V30 7620 H 699.555 4.33804 1.5688 0
M  V30 7621 H 697.798 4.10252 1.40982 0
M  V30 7622 H 698.469 4.67096 2.94152 0
M  V30 7623 H 700.945 2.75242 3.12059 0
M  V30 7624 H 699.821 3.28589 4.39682 0
M  V30 7625 H 700.082 1.56895 4.13324 0
M  V30 7626 N 699.141 -0.881989 1.30609 0
M  V30 7627 C 700.091 -1.97539 1.13852 0
M  V30 7628 C 701.075 -1.60813 0.0528428 0
M  V30 7629 O 702.267 -1.74827 0.276484 0
M  V30 7630 C 699.396 -3.32977 0.835519 0
M  V30 7631 C 698.482 -3.76008 1.96159 0
M  V30 7632 N 698.873 -3.91109 3.20729 0
M  V30 7633 C 697.171 -4.05427 1.85863 0
M  V30 7634 C 697.872 -4.27661 3.94311 0
M  V30 7635 N 696.848 -4.37686 3.22385 0
M  V30 7636 H 700.65 -2.07309 2.08327 0
M  V30 7637 H 698.164 -1.072 1.21992 0
M  V30 7638 H 700.161 -4.11041 0.696477 0
M  V30 7639 H 698.821 -3.24542 -0.101135 0
M  V30 7640 H 699.832 -3.7616 3.55984 0
M  V30 7641 H 696.509 -4.05449 0.995847 0
M  V30 7642 H 697.899 -4.47042 5.01601 0
M  V30 7643 O 700.658 -1.25359 -1.0182 0
M  V30 7644 H 701.349 -1.03652 -1.63634 0
M  V30 END ATOM
M  V30 BEGIN BOND
M  V30 END BOND
M  V30 END CTAB
M  END
$$$$
