drugbank_target|P0C0X1 Dihydropteroate synthase (DB00250)
 OpenBabel12092120043D

  0  0  0     0  0            999 V3000
M  V30 BEGIN CTAB
M  V30 COUNTS 4169 4206 0 0 0
M  V30 BEGIN ATOM
M  V30 1 H -0.908 1.98254 -0.117106 0
M  V30 2 N 0 1.576 0 0
M  V30 3 C 0.933 2.03868 1.02534 0
M  V30 4 C 1.911 0.928543 1.3348 0
M  V30 5 O 3.095 1.19667 1.45644 0
M  V30 6 C 0.222 2.43627 2.35294 0
M  V30 7 C -0.732 3.65373 2.2001 0
M  V30 8 S 0.101 5.13292 1.52614 0
M  V30 9 C 1.257 5.56322 2.86805 0
M  V30 10 H 1.49 2.90518 0.631377 0
M  V30 11 H -0.977 1.52953 0.210867 0
M  V30 12 H 0.981 2.67203 3.11629 0
M  V30 13 H -0.358 1.57376 2.7183 0
M  V30 14 H -1.165 3.90944 3.18086 0
M  V30 15 H -1.563 3.418 1.51819 0
M  V30 16 H 0.729 5.58782 3.83104 0
M  V30 17 H 1.672 6.56266 2.65933 0
M  V30 18 H 2.08 4.83886 2.90714 0
M  V30 19 N 1.4781 -0.272755 1.55222 0
M  V30 20 C 2.7031 -1.02683 1.80197 0
M  V30 21 C 3.1281 -1.79142 0.573551 0
M  V30 22 O 2.4861 -1.74917 -0.476849 0
M  V30 23 C 2.5341 -1.9609 3.02624 0
M  V30 24 O 1.6381 -3.04863 2.77727 0
M  V30 25 H 0.9791 -0.293557 0.595584 0
M  V30 26 H 3.5091 -0.30159 2.02365 0
M  V30 27 H 3.5191 -2.38039 3.31363 0
M  V30 28 H 2.1941 -1.39851 3.91682 0
M  V30 29 H 0.7711 -2.67228 2.60084 0
M  V30 30 N 2.9562 -1.48159 -0.537278 0
M  V30 31 C 3.8862 -1.65029 -1.6519 0
M  V30 32 C 4.8672 -0.499281 -1.62607 0
M  V30 33 O 6.0522 -0.730972 -1.79918 0
M  V30 34 C 3.1822 -1.68303 -3.03795 0
M  V30 35 C 2.1362 -2.8283 -3.21234 0
M  V30 36 C 1.4622 -2.71189 -4.60826 0
M  V30 37 C 2.7622 -4.24211 -3.04701 0
M  V30 38 H 4.4562 -2.58341 -1.51328 0
M  V30 39 H 2.0022 -1.24325 -0.726585 0
M  V30 40 H 3.9552 -1.78693 -3.81637 0
M  V30 41 H 2.6792 -0.715635 -3.18663 0
M  V30 42 H 1.3382 -2.71983 -2.45807 0
M  V30 43 H 0.9862 -1.72435 -4.7252 0
M  V30 44 H 0.6862 -3.48035 -4.7344 0
M  V30 45 H 2.2102 -2.83537 -5.40777 0
M  V30 46 H 3.6242 -4.3593 -3.72341 0
M  V30 47 H 2.0212 -5.01998 -3.28813 0
M  V30 48 H 3.0912 -4.41184 -2.01209 0
M  V30 49 N 4.4343 0.785586 -1.36625 0
M  V30 50 C 5.3973 1.87999 -1.31107 0
M  V30 51 C 6.3973 1.59316 -0.217959 0
M  V30 52 O 7.5873 1.67656 -0.472977 0
M  V30 53 C 4.7193 3.24861 -1.03334 0
M  V30 54 H 5.9123 1.94307 -2.2844 0
M  V30 55 H 3.4653 0.983813 -1.21453 0
M  V30 56 H 4.2003 3.24235 -0.0647432 0
M  V30 57 H 3.9853 3.4707 -1.82441 0
M  V30 58 H 5.4753 4.04929 -1.02088 0
M  V30 59 N 5.9124 1.20967 1.01018 0
M  V30 60 C 7.3234 1.02319 1.56165 0
M  V30 61 C 7.6744 -0.418546 1.91684 0
M  V30 62 O 6.7994 -1.30096 1.72928 0
M  V30 63 C 7.3944 1.85109 2.8376 0
M  V30 64 C 5.9534 1.70809 3.35412 0
M  V30 65 C 5.1004 1.82643 2.08655 0
M  V30 66 H 8.0514 1.35065 0.833255 0
M  V30 67 H 8.0724 1.35827 3.55431 0
M  V30 68 H 7.5844 2.90035 2.57878 0
M  V30 69 H 5.6854 0.685464 3.66241 0
M  V30 70 H 5.7984 2.52467 4.07182 0
M  V30 71 H 4.1624 1.25896 2.21409 0
M  V30 72 H 4.9454 2.89066 1.85191 0
M  V30 73 N 7.3905 -1.2043 1.01659 0
M  V30 74 C 8.6365 -1.90079 0.706963 0
M  V30 75 C 8.9695 -1.78648 -0.761474 0
M  V30 76 O 8.2445 -1.17069 -1.55323 0
M  V30 77 C 8.5275 -3.41469 1.14327 0
M  V30 78 C 8.3805 -3.61833 2.67201 0
M  V30 79 C 9.6995 -4.34261 0.714529 0
M  V30 80 H 6.8185 -0.690254 0.2583 0
M  V30 81 H 9.4605 -1.41826 1.26433 0
M  V30 82 H 7.6105 -3.82696 0.669056 0
M  V30 83 H 9.2825 -3.2986 3.22475 0
M  V30 84 H 7.5255 -3.05304 3.08175 0
M  V30 85 H 8.1965 -4.67955 2.92783 0
M  V30 86 H 10.6725 -4.00682 1.12221 0
M  V30 87 H 9.5485 -5.38806 1.04784 0
M  V30 88 H 9.8095 -4.40431 -0.383799 0
M  V30 89 N 8.8686 -0.792821 -1.36206 0
M  V30 90 C 9.8006 -0.151469 -2.28699 0
M  V30 91 C 10.8136 0.641262 -1.49638 0
M  V30 92 O 12.0026 0.475885 -1.72039 0
M  V30 93 C 9.1026 0.808424 -3.29117 0
M  V30 94 C 8.2756 0.0650202 -4.37352 0
M  V30 95 C 7.3346 0.941358 -5.17711 0
M  V30 96 O 6.3606 0.397352 -5.67811 0
M  V30 97 N 7.5626 2.2652 -5.3448 0
M  V30 98 H 10.3276 -0.945982 -2.84379 0
M  V30 99 H 7.8886 -0.647032 -1.48409 0
M  V30 100 H 9.8806 1.3986 -3.79765 0
M  V30 101 H 8.4506 1.5038 -2.74052 0
M  V30 102 H 7.6706 -0.706255 -3.87822 0
M  V30 103 H 8.9586 -0.447847 -5.06825 0
M  V30 104 H 8.3566 2.73128 -4.95396 0
M  V30 105 H 6.9136 2.80493 -5.88359 0
M  V30 106 N 10.3467 1.47872 -0.545128 0
M  V30 107 C 11.5927 2.02793 -0.0166104 0
M  V30 108 C 11.9257 1.41987 1.32489 0
M  V30 109 O 11.2007 0.571045 1.85928 0
M  V30 110 C 11.4837 3.59989 0.0893294 0
M  V30 111 C 11.3367 4.3125 -1.27841 0
M  V30 112 C 12.6557 4.32606 0.808724 0
M  V30 113 H 9.7747 0.736962 -0.00751035 0
M  V30 114 H 12.4167 1.76433 -0.705085 0
M  V30 115 H 10.5667 3.82579 0.675681 0
M  V30 116 H 12.2387 4.20035 -1.90704 0
M  V30 117 H 10.4817 3.92076 -1.85632 0
M  V30 118 H 11.1527 5.39736 -1.15713 0
M  V30 119 H 13.6287 4.14936 0.310992 0
M  V30 120 H 12.5047 5.42251 0.851782 0
M  V30 121 H 12.7657 4.00963 1.86229 0
M  V30 122 N 11.8248 0.280983 1.55075 0
M  V30 123 C 13.0738 -0.334784 1.98902 0
M  V30 124 C 13.3868 -1.56534 1.17288 0
M  V30 125 O 14.5928 -2.25443 1.51287 0
M  V30 126 C 13.0488 -0.646994 3.54037 0
M  V30 127 C 12.6568 0.564085 4.44435 0
M  V30 128 C 14.4008 -1.22506 4.06439 0
M  V30 129 C 12.3078 0.226137 5.90967 0
M  V30 130 H 11.2378 -0.128866 0.742906 0
M  V30 131 H 13.8888 0.386556 1.79382 0
M  V30 132 H 12.2708 -1.42739 3.6938 0
M  V30 133 H 13.4448 1.34082 4.40861 0
M  V30 134 H 11.7598 1.0594 4.02698 0
M  V30 135 H 14.3568 -1.49182 5.13468 0
M  V30 136 H 14.6998 -2.16085 3.55827 0
M  V30 137 H 15.2328 -0.50682 3.94558 0
M  V30 138 H 11.9718 1.12996 6.45687 0
M  V30 139 H 11.4918 -0.513717 5.97596 0
M  V30 140 H 13.1708 -0.179539 6.46751 0
M  V30 141 N 13.3029 -1.57598 0.00835791 0
M  V30 142 C 14.5509 -1.90551 -0.6734 0
M  V30 143 C 14.8719 -0.883301 -1.73847 0
M  V30 144 O 14.1419 0.0781442 -1.95744 0
M  V30 145 H 12.7219 -0.703312 -0.251717 0
M  V30 146 H 15.3839 -1.94833 0.0512592 0
M  V30 147 H 14.4799 -2.9056 -1.13935 0
M  V30 148 N 14.781 0.264519 -1.55364 0
M  V30 149 C 16.027 0.99646 -1.76631 0
M  V30 150 C 16.36 1.85632 -0.570478 0
M  V30 151 O 15.635 1.89647 0.43175 0
M  V30 152 C 15.918 1.87187 -3.07625 0
M  V30 153 C 15.771 1.04138 -4.37579 0
M  V30 154 C 17.09 2.85749 -3.34717 0
M  V30 155 H 14.209 0.360841 -0.642622 0
M  V30 156 H 16.851 0.268218 -1.88097 0
M  V30 157 H 15.001 2.49279 -2.9798 0
M  V30 158 H 16.673 0.440517 -4.59192 0
M  V30 159 H 14.916 0.345115 -4.32425 0
M  V30 160 H 15.587 1.68729 -5.2558 0
M  V30 161 H 18.063 2.33793 -3.4421 0
M  V30 162 H 16.939 3.44136 -4.27623 0
M  V30 163 H 17.2 3.61311 -2.54768 0
M  V30 164 N 16.2591 1.48442 0.529413 0
M  V30 165 C 17.1891 1.65902 1.64313 0
M  V30 166 C 18.1701 0.507897 1.6234 0
M  V30 167 O 19.3551 0.740503 1.79528 0
M  V30 168 C 16.4851 1.69911 3.02898 0
M  V30 169 C 15.4391 2.8453 3.19729 0
M  V30 170 C 14.7651 2.73629 4.59381 0
M  V30 171 C 16.0651 4.25821 3.02447 0
M  V30 172 H 17.7591 2.5914 1.49955 0
M  V30 173 H 15.3051 1.24709 0.719982 0
M  V30 174 H 17.2581 1.80715 3.80684 0
M  V30 175 H 15.9821 0.732524 3.18279 0
M  V30 176 H 14.6411 2.73283 2.44361 0
M  V30 177 H 14.2891 1.74938 4.71599 0
M  V30 178 H 13.9891 3.50541 4.71588 0
M  V30 179 H 15.5131 2.86401 5.39265 0
M  V30 180 H 16.9271 4.37898 3.70024 0
M  V30 181 H 15.3241 5.03735 3.26146 0
M  V30 182 H 16.3941 4.42244 1.98867 0
M  V30 183 N 17.7372 -0.778329 1.37039 0
M  V30 184 C 18.6852 -1.91278 1.32345 0
M  V30 185 C 19.6792 -1.68051 0.213331 0
M  V30 186 O 20.8852 -1.75922 0.38098 0
M  V30 187 H 17.2602 -0.628909 0.412283 0
M  V30 188 H 19.2312 -1.92355 2.28127 0
M  V30 189 C 17.9802 -3.28455 1.14073 0
M  V30 190 H 17.3032 -3.46901 1.98746 0
M  V30 191 H 18.7432 -4.08152 1.14837 0
M  V30 192 C 17.2022 -3.36548 -0.154015 0
M  V30 193 O 17.7322 -3.85186 -1.13993 0
M  V30 194 N 15.9382 -2.89894 -0.202475 0
M  V30 195 H 15.4852 -2.50504 0.600476 0
M  V30 196 H 15.4432 -2.9569 -1.06841 0
M  V30 197 N 19.2153 -1.21501 -1.00376 0
M  V30 198 C 20.4613 -1.03452 -1.74429 0
M  V30 199 C 20.7943 0.430764 -1.89362 0
M  V30 200 O 20.0693 1.31962 -1.42886 0
M  V30 201 C 20.3523 -1.73375 -3.15615 0
M  V30 202 C 20.2053 -3.27431 -3.08397 0
M  V30 203 C 21.5243 -1.47732 -4.14564 0
M  V30 204 H 18.6433 -0.377226 -0.633143 0
M  V30 205 H 21.2853 -1.49693 -1.17013 0
M  V30 206 H 19.4353 -1.34064 -3.64636 0
M  V30 207 H 21.1073 -3.76119 -2.67081 0
M  V30 208 H 19.3503 -3.5767 -2.45468 0
M  V30 209 H 20.0213 -3.71524 -4.08258 0
M  V30 210 H 22.4973 -1.8186 -3.74254 0
M  V30 211 H 21.3733 -1.99169 -5.11491 0
M  V30 212 H 21.6343 -0.407589 -4.40217 0
M  V30 213 N 20.6934 1.19889 -1.02296 0
M  V30 214 C 21.9214 1.9339 -0.735399 0
M  V30 215 C 22.3364 1.75148 0.704887 0
M  V30 216 O 21.6934 1.06954 1.47875 0
M  V30 217 C 21.7444 3.45313 -1.06962 0
M  V30 218 O 21.4654 3.62964 -2.45334 0
M  V30 219 C 22.9664 4.35948 -0.804021 0
M  V30 220 H 20.1864 0.61448 -0.269546 0
M  V30 221 H 22.7304 1.522 -1.36585 0
M  V30 222 H 20.8854 3.84359 -0.484455 0
M  V30 223 H 21.2994 4.56886 -2.57595 0
M  V30 224 H 22.7734 5.41174 -1.0879 0
M  V30 225 H 23.2504 4.3842 0.261691 0
M  V30 226 H 23.8564 4.02574 -1.37164 0
M  V30 227 N 22.1715 0.800033 1.35784 0
M  V30 228 C 23.4485 0.30088 1.93272 0
M  V30 229 C 23.8285 -1.20857 1.73081 0
M  V30 230 O 23.1765 -2.00502 1.09596 0
M  V30 231 C 23.3865 0.70511 3.41803 0
M  V30 232 C 24.7345 0.690871 4.18942 0
M  V30 233 O 25.7585 0.646244 3.50289 0
M  V30 234 O 24.6175 0.74332 5.41421 0
M  V30 235 H 21.7115 0.0771605 0.823393 0
M  V30 236 H 24.2575 0.88329 1.449 0
M  V30 237 H 23.0295 1.74571 3.50201 0
M  V30 238 H 22.6525 0.0971541 3.97481 0
M  V30 239 N 23.6496 -1.47581 0.552962 0
M  V30 240 C 24.5976 -2.31648 -0.21023 0
M  V30 241 C 25.5916 -1.42663 -0.913432 0
M  V30 242 O 26.7976 -1.5945 -0.835201 0
M  V30 243 H 23.1726 -0.746989 -0.0866676 0
M  V30 244 H 25.1436 -2.93869 0.518051 0
M  V30 245 C 23.8926 -3.25226 -1.22976 0
M  V30 246 H 23.2156 -3.93658 -0.698077 0
M  V30 247 H 24.6556 -3.86889 -1.73473 0
M  V30 248 C 23.1146 -2.48448 -2.27542 0
M  V30 249 O 23.6446 -2.22585 -3.34393 0
M  V30 250 N 21.8506 -2.09532 -2.01357 0
M  V30 251 H 21.3976 -2.30765 -1.14478 0
M  V30 252 H 21.3556 -1.58476 -2.71538 0
M  V30 253 N 25.1277 -0.289203 -1.54924 0
M  V30 254 C 26.3527 0.329299 -2.04769 0
M  V30 255 C 26.7777 1.4763 -1.16564 0
M  V30 256 O 26.1357 1.80527 -0.167186 0
M  V30 257 C 26.1837 0.774438 -3.52186 0
M  V30 258 O 25.2877 1.88038 -3.67036 0
M  V30 259 H 24.6287 0.0659259 -0.660719 0
M  V30 260 H 27.1587 -0.42761 -2.00082 0
M  V30 261 H 27.1687 1.06642 -3.93816 0
M  V30 262 H 25.8437 -0.0646707 -4.1585 0
M  V30 263 H 24.4207 1.58985 -3.3731 0
M  V30 264 N 26.6058 1.57591 -0.0167156 0
M  V30 265 C 27.8528 1.91283 0.664597 0
M  V30 266 C 28.1808 0.891949 1.72842 0
M  V30 267 O 27.4358 -0.100931 1.9544 0
M  V30 268 C 27.7348 3.3172 1.33029 0
M  V30 269 C 27.4008 4.4914 0.398047 0
M  V30 270 C 26.0628 4.80992 0.141421 0
M  V30 271 C 28.4148 5.20634 -0.242825 0
M  V30 272 C 25.7428 5.81703 -0.764092 0
M  V30 273 C 28.0948 6.22311 -1.13632 0
M  V30 274 C 26.7588 6.52611 -1.40196 0
M  V30 275 H 26.0288 0.699956 0.243193 0
M  V30 276 H 28.6758 1.9135 -0.0758267 0
M  V30 277 H 26.9808 3.27856 2.14517 0
M  V30 278 H 28.6778 3.55055 1.86379 0
M  V30 279 H 25.2678 4.24262 0.608238 0
M  V30 280 H 29.4518 4.96267 -0.0576019 0
M  V30 281 H 24.7078 6.03532 -0.977732 0
M  V30 282 H 28.8818 6.76834 -1.63917 0
M  V30 283 H 26.5088 7.30467 -2.10529 0
M  V30 284 N 28.0839 -0.256276 1.55502 0
M  V30 285 C 29.3089 -1.00766 1.81276 0
M  V30 286 C 29.7339 -1.78524 0.59252 0
M  V30 287 O 29.0919 -1.75413 -0.45827 0
M  V30 288 C 29.1399 -1.92869 3.04687 0
M  V30 289 O 28.2439 -3.019 2.80945 0
M  V30 290 H 27.5849 -0.287224 0.598664 0
M  V30 291 H 30.1149 -0.280109 2.02674 0
M  V30 292 H 30.1249 -2.34511 3.33869 0
M  V30 293 H 28.7999 -1.35689 3.93143 0
M  V30 294 H 27.3769 -2.64454 2.62904 0
M  V30 295 N 29.562 -1.4872 -0.521534 0
M  V30 296 C 30.839 -1.4766 -1.2828 0
M  V30 297 C 31.219 -0.19292 -2.10217 0
M  V30 298 O 30.567 0.825193 -2.13079 0
M  V30 299 C 30.777 -2.74358 -2.15705 0
M  V30 300 C 32.125 -3.23028 -2.75569 0
M  V30 301 O 33.149 -2.75333 -2.25987 0
M  V30 302 O 32.008 -4.0604 -3.65778 0
M  V30 303 H 29.102 -0.590085 -0.579421 0
M  V30 304 H 31.648 -1.60963 -0.537492 0
M  V30 305 H 30.42 -3.59292 -1.54999 0
M  V30 306 H 30.043 -2.63816 -2.97467 0
M  V30 307 N 31.0401 0.771051 -1.3745 0
M  V30 308 C 32.2881 1.52661 -1.32435 0
M  V30 309 C 32.6091 1.9479 0.0905024 0
M  V30 310 O 31.8791 1.66348 1.03466 0
M  V30 311 H 30.4591 0.566218 -0.487244 0
M  V30 312 H 33.1211 0.917636 -1.71946 0
M  V30 313 H 32.2171 2.42568 -1.96385 0
M  V30 314 N 32.5182 1.22032 0.997298 0
M  V30 315 C 33.7662 1.04016 1.73278 0
M  V30 316 C 34.0872 -0.426255 1.90284 0
M  V30 317 O 33.3572 -1.30694 1.45931 0
M  V30 318 H 31.9372 0.381897 0.642 0
M  V30 319 H 34.5992 1.5347 1.20137 0
M  V30 320 H 33.6952 1.51441 2.72896 0
M  V30 321 N 33.9963 -1.19345 1.0293 0
M  V30 322 C 35.4123 -1.41069 0.746446 0
M  V30 323 C 35.6123 -1.90078 -0.668776 0
M  V30 324 O 34.6683 -2.0778 -1.4347 0
M  V30 325 C 35.9813 -2.42141 1.78292 0
M  V30 326 C 37.5293 -2.55887 1.80252 0
M  V30 327 C 38.0043 -3.60214 2.8286 0
M  V30 328 N 39.4953 -3.67711 2.81679 0
M  V30 329 C 40.2303 -4.48128 3.57727 0
M  V30 330 N 39.7263 -5.32248 4.43491 0
M  V30 331 N 41.5193 -4.42782 3.46267 0
M  V30 332 H 33.6703 -0.858536 1.94275 0
M  V30 333 H 35.9333 -0.439541 0.839945 0
M  V30 334 H 35.6393 -2.13155 2.79746 0
M  V30 335 H 35.5133 -3.41323 1.60557 0
M  V30 336 H 37.9003 -2.84196 0.794757 0
M  V30 337 H 37.9813 -1.56858 2.02062 0
M  V30 338 H 37.6253 -3.32647 3.83807 0
M  V30 339 H 37.5553 -4.58895 2.58307 0
M  V30 340 H 40.0463 -3.07634 2.19476 0
M  V30 341 H 40.3593 -5.90729 4.98256 0
M  V30 342 H 38.7043 -5.31707 4.47564 0
M  V30 343 H 41.8953 -3.76107 2.78677 0
M  V30 344 H 42.0683 -5.05215 4.05785 0
M  V30 345 N 35.4744 -0.807222 -1.35358 0
M  V30 346 C 36.7044 -0.399796 -2.02695 0
M  V30 347 C 37.1124 0.994176 -1.60974 0
M  V30 348 O 36.4554 1.65209 -0.803226 0
M  V30 349 C 36.5174 -0.404445 -3.57218 0
M  V30 350 C 36.1814 -1.74904 -4.22206 0
M  V30 351 C 37.1784 -2.70743 -4.4384 0
M  V30 352 C 34.8634 -2.03322 -4.5931 0
M  V30 353 C 36.8574 -3.93183 -5.01683 0
M  V30 354 C 34.5444 -3.26026 -5.16866 0
M  V30 355 C 35.5424 -4.20774 -5.37994 0
M  V30 356 O 35.2304 -5.41312 -5.94337 0
M  V30 357 H 34.9624 -0.160517 -0.656666 0
M  V30 358 H 37.5164 -1.09235 -1.73945 0
M  V30 359 H 35.7464 0.344707 -3.85161 0
M  V30 360 H 37.4354 -0.0192429 -4.05895 0
M  V30 361 H 38.2014 -2.5008 -4.15554 0
M  V30 362 H 34.0804 -1.30384 -4.42178 0
M  V30 363 H 37.6244 -4.6715 -5.1809 0
M  V30 364 H 33.5214 -3.46559 -5.44579 0
M  V30 365 H 34.2894 -5.42618 -6.12787 0
M  V30 366 N 36.9525 1.47285 -0.560781 0
M  V30 367 C 37.8825 2.32857 0.173105 0
M  V30 368 C 38.8635 1.44009 0.905281 0
M  V30 369 O 40.0485 1.7286 0.885046 0
M  V30 370 C 37.1785 3.25861 1.20133 0
M  V30 371 C 36.1325 4.23978 0.585388 0
M  V30 372 C 35.4585 5.06332 1.7185 0
M  V30 373 C 36.7585 5.20242 -0.463178 0
M  V30 374 H 38.4525 2.94466 -0.541307 0
M  V30 375 H 35.9985 1.41601 -0.261764 0
M  V30 376 H 37.9515 3.84569 1.72293 0
M  V30 377 H 36.6755 2.62315 1.94573 0
M  V30 378 H 35.3345 3.66501 0.085054 0
M  V30 379 H 34.9825 4.39186 2.45203 0
M  V30 380 H 34.6825 5.72762 1.31213 0
M  V30 381 H 36.2065 5.67899 2.24329 0
M  V30 382 H 37.6205 5.73293 -0.027502 0
M  V30 383 H 36.0175 5.94896 -0.788627 0
M  V30 384 H 37.0875 4.65504 -1.35773 0
M  V30 385 N 38.4306 0.297415 1.54768 0
M  V30 386 C 39.7076 -0.365847 1.92148 0
M  V30 387 C 40.0876 -1.71975 1.22424 0
M  V30 388 O 39.4356 -2.25666 0.358739 0
M  V30 389 C 39.6456 -0.484056 3.45627 0
M  V30 390 C 40.9936 -0.756594 4.17805 0
M  V30 391 O 42.0176 -0.568007 3.51642 0
M  V30 392 O 40.8766 -1.11863 5.34929 0
M  V30 393 H 37.9706 -0.203919 0.801465 0
M  V30 394 H 40.5166 0.34521 1.66152 0
M  V30 395 H 39.2886 0.467865 3.88493 0
M  V30 396 H 38.9116 -1.24372 3.77647 0
M  V30 397 N 39.9087 -1.5758 0.0250728 0
M  V30 398 C 41.3197 -1.79476 -0.514323 0
M  V30 399 C 41.6707 -0.934956 -1.72491 0
M  V30 400 O 40.7957 -0.144245 -2.15919 0
M  V30 401 C 41.3907 -3.25503 -0.939842 0
M  V30 402 C 39.9497 -3.48408 -1.42438 0
M  V30 403 C 39.0967 -2.74583 -0.387201 0
M  V30 404 H 42.0477 -1.567 0.25113 0
M  V30 405 H 42.0687 -3.34992 -1.80445 0
M  V30 406 H 41.5807 -3.88056 -0.0585628 0
M  V30 407 H 39.6817 -2.91103 -2.32572 0
M  V30 408 H 39.7947 -4.57119 -1.43455 0
M  V30 409 H 38.1587 -2.39942 -0.854409 0
M  V30 410 H 38.9417 -3.39849 0.485543 0
M  V30 411 N 41.3868 0.248026 -1.55636 0
M  V30 412 C 42.6638 0.998988 -1.68165 0
M  V30 413 C 43.0438 2.03409 -0.564621 0
M  V30 414 O 42.3918 2.24378 0.432076 0
M  V30 415 C 42.6018 1.63334 -3.0842 0
M  V30 416 C 43.9498 2.13562 -3.66983 0
M  V30 417 O 44.9738 1.73277 -3.11213 0
M  V30 418 O 43.8328 2.87526 -4.64749 0
M  V30 419 H 40.9268 0.464933 -0.683935 0
M  V30 420 H 43.4728 0.241902 -1.67967 0
M  V30 421 H 42.2448 0.884583 -3.8117 0
M  V30 422 H 41.8678 2.45666 -3.12624 0
M  V30 423 N 42.8649 1.48995 0.513639 0
M  V30 424 C 44.1419 1.48338 1.27495 0
M  V30 425 C 44.5219 0.204065 2.10111 0
M  V30 426 O 43.8699 -0.813881 2.13514 0
M  V30 427 C 44.0799 2.75498 2.14247 0
M  V30 428 C 45.4279 3.24484 2.73852 0
M  V30 429 O 46.4519 2.76528 2.24523 0
M  V30 430 O 45.3109 4.07974 3.6362 0
M  V30 431 H 42.4049 0.593149 0.576284 0
M  V30 432 H 44.9509 1.61246 0.528948 0
M  V30 433 H 43.7229 3.60109 1.53092 0
M  V30 434 H 43.3459 2.6539 2.96064 0
M  V30 435 N 44.343 -0.763751 1.37857 0
M  V30 436 C 45.306 -1.85889 1.34081 0
M  V30 437 C 46.306 -1.58949 0.243277 0
M  V30 438 O 47.496 -1.66882 0.499589 0
M  V30 439 C 44.628 -3.23176 1.08489 0
M  V30 440 H 45.821 -1.90648 2.31502 0
M  V30 441 H 43.374 -0.964367 1.23003 0
M  V30 442 H 44.109 -3.24091 0.116318 0
M  V30 443 H 43.894 -3.44124 1.8794 0
M  V30 444 H 45.384 -4.03254 1.08517 0
M  V30 445 N 45.8211 -1.22559 -0.990812 0
M  V30 446 C 47.0671 -1.05297 -1.73322 0
M  V30 447 C 47.4001 0.410655 -1.89808 0
M  V30 448 O 46.6751 1.30439 -1.44277 0
M  V30 449 C 46.9581 -1.76713 -3.13759 0
M  V30 450 C 46.8111 -3.30684 -3.04907 0
M  V30 451 C 48.1301 -1.52121 -4.12974 0
M  V30 452 H 45.2491 -0.38392 -0.629106 0
M  V30 453 H 47.8911 -1.50926 -1.15418 0
M  V30 454 H 46.0411 -1.37924 -3.63193 0
M  V30 455 H 47.7131 -3.7893 -2.63077 0
M  V30 456 H 45.9561 -3.60253 -2.41661 0
M  V30 457 H 46.6271 -3.75833 -4.04294 0
M  V30 458 H 49.1031 -1.85819 -3.72304 0
M  V30 459 H 47.9791 -2.04582 -5.0935 0
M  V30 460 H 48.2401 -0.454257 -4.3976 0
M  V30 461 N 47.2992 1.18797 -1.03562 0
M  V30 462 C 48.2312 2.21731 -0.580337 0
M  V30 463 C 49.2442 1.59051 0.347349 0
M  V30 464 O 50.4332 1.77929 0.142669 0
M  V30 465 C 47.5332 3.38459 0.172805 0
M  V30 466 C 46.7062 4.3072 -0.761496 0
M  V30 467 C 45.7652 5.26174 -0.0525547 0
M  V30 468 O 44.7912 5.65108 -0.681333 0
M  V30 469 N 45.9932 5.67624 1.21586 0
M  V30 470 H 48.7582 2.61417 -1.46565 0
M  V30 471 H 46.3192 1.33531 -0.915476 0
M  V30 472 H 48.3112 3.99335 0.656793 0
M  V30 473 H 46.8812 2.97507 0.959602 0
M  V30 474 H 46.1012 3.67525 -1.42544 0
M  V30 475 H 47.3892 4.89267 -1.39626 0
M  V30 476 H 46.7872 5.38038 1.74732 0
M  V30 477 H 45.3442 6.30721 1.64421 0
M  V30 478 N 48.7773 0.814389 1.34928 0
M  V30 479 C 49.7273 0.202752 2.27097 0
M  V30 480 C 50.7113 -0.62799 1.48139 0
M  V30 481 O 51.9033 -0.483969 1.70255 0
M  V30 482 C 49.0323 -0.64146 3.37254 0
M  V30 483 C 48.1183 0.19944 4.23631 0
M  V30 484 N 48.5093 1.26628 4.89693 0
M  V30 485 C 46.8073 -0.0176433 4.45997 0
M  V30 486 C 47.5083 1.78031 5.53787 0
M  V30 487 N 46.4843 1.08553 5.32651 0
M  V30 488 H 50.2863 1.01893 2.75672 0
M  V30 489 H 47.8003 0.656332 1.48546 0
M  V30 490 H 49.7973 -1.09575 4.02243 0
M  V30 491 H 48.4573 -1.4559 2.9023 0
M  V30 492 H 49.4683 1.64901 4.90946 0
M  V30 493 H 46.1453 -0.800601 4.09752 0
M  V30 494 H 47.5353 2.67236 6.16469 0
M  V30 495 N 50.2554 -1.46986 0.568584 0
M  V30 496 C 51.5034 -2.02041 0.0487022 0
M  V30 497 C 51.8244 -1.44408 -1.31039 0
M  V30 498 O 51.0944 -0.623477 -1.85714 0
M  V30 499 H 49.6744 -0.746849 0.015014 0
M  V30 500 H 52.3364 -1.80257 0.741168 0
M  V30 501 H 51.4324 -3.12085 -0.0308961 0
M  V30 502 N 51.7335 -0.305618 -1.54608 0
M  V30 503 C 52.6635 0.561482 -2.26649 0
M  V30 504 C 53.6445 1.13415 -1.26772 0
M  V30 505 O 54.8295 1.16262 -1.55553 0
M  V30 506 C 51.9595 1.73122 -3.01075 0
M  V30 507 C 50.9135 1.2887 -4.08138 0
M  V30 508 C 50.2395 2.54396 -4.70305 0
M  V30 509 C 51.5395 0.416578 -5.20636 0
M  V30 510 H 53.2335 -0.0393902 -2.99374 0
M  V30 511 H 50.7795 -0.020385 -1.43986 0
M  V30 512 H 52.7325 2.34396 -3.50195 0
M  V30 513 H 51.4565 2.3584 -2.25936 0
M  V30 514 H 50.1155 0.698991 -3.59875 0
M  V30 515 H 49.7635 3.15439 -3.918 0
M  V30 516 H 49.4635 2.25486 -5.42614 0
M  V30 517 H 50.9875 3.16464 -5.2219 0
M  V30 518 H 52.4015 0.935116 -5.65622 0
M  V30 519 H 50.7985 0.221046 -5.99693 0
M  V30 520 H 51.8685 -0.557162 -4.81688 0
M  V30 521 N 53.2116 1.57565 -0.0334293 0
M  V30 522 C 54.1746 2.09393 0.932048 0
M  V30 523 C 55.1746 1.00986 1.25134 0
M  V30 524 O 56.3646 1.27129 1.19096 0
M  V30 525 C 53.4966 2.56338 2.2473 0
M  V30 526 H 54.6896 2.95984 0.483085 0
M  V30 527 H 52.2426 1.54819 0.21468 0
M  V30 528 H 52.9776 1.7309 2.74245 0
M  V30 529 H 52.7626 3.35542 2.02865 0
M  V30 530 H 54.2526 2.96646 2.93923 0
M  V30 531 N 54.6897 -0.239769 1.55765 0
M  V30 532 C 55.6227 -1.32356 1.85895 0
M  V30 533 C 56.6007 -1.46053 0.714662 0
M  V30 534 O 57.7847 -1.62154 0.961157 0
M  V30 535 C 54.9117 -2.6962 2.04994 0
M  V30 536 C 53.9577 -2.73036 3.27648 0
M  V30 537 S 54.7907 -2.28929 4.84099 0
M  V30 538 C 55.9467 -3.68103 5.06212 0
M  V30 539 H 56.1797 -1.06601 2.77531 0
M  V30 540 H 53.7127 -0.441112 1.47965 0
M  V30 541 H 55.6707 -3.48653 2.16682 0
M  V30 542 H 54.3317 -2.92609 1.14188 0
M  V30 543 H 53.5247 -3.7386 3.38 0
M  V30 544 H 53.1267 -2.02052 3.14723 0
M  V30 545 H 55.4187 -4.63656 4.93993 0
M  V30 546 H 56.3617 -3.6268 6.08168 0
M  V30 547 H 56.7697 -3.60947 4.34025 0
M  V30 548 N 56.1678 -1.49265 -0.50573 0
M  V30 549 C 57.4138 -1.58748 -1.26202 0
M  V30 550 C 57.7468 -0.271227 -1.92297 0
M  V30 551 O 57.0218 0.724831 -1.80489 0
M  V30 552 C 57.3048 -2.74332 -2.33268 0
M  V30 553 C 57.1578 -4.15737 -1.71705 0
M  V30 554 C 58.4768 -2.85576 -3.34865 0
M  V30 555 H 55.5958 -0.577826 -0.457478 0
M  V30 556 H 58.2378 -1.81532 -0.560897 0
M  V30 557 H 56.3878 -2.55036 -2.93068 0
M  V30 558 H 58.0598 -4.46537 -1.15769 0
M  V30 559 H 56.3028 -4.21605 -1.02135 0
M  V30 560 H 56.9738 -4.92477 -2.49341 0
M  V30 561 H 59.4498 -3.03127 -2.8505 0
M  V30 562 H 58.3258 -3.68135 -4.07146 0
M  V30 563 H 58.5868 -1.94732 -3.96903 0
M  V30 564 N 57.6459 0.756429 -1.3826 0
M  V30 565 C 58.6089 1.85176 -1.35065 0
M  V30 566 C 59.6089 1.58818 -0.251703 0
M  V30 567 O 60.7989 1.66615 -0.508433 0
M  V30 568 C 57.9309 3.22596 -1.10201 0
M  V30 569 H 59.1239 1.89417 -2.3251 0
M  V30 570 H 56.6769 0.95783 -1.23512 0
M  V30 571 H 57.4119 3.24025 -0.133504 0
M  V30 572 H 57.1969 3.43122 -1.89762 0
M  V30 573 H 58.6869 4.02673 -1.10654 0
M  V30 574 N 59.124 1.23083 0.984299 0
M  V30 575 C 60.034 1.02515 2.11016 0
M  V30 576 C 61.05 -0.0291702 1.73976 0
M  V30 577 O 62.226 0.165434 2.00719 0
M  V30 578 C 59.291 0.614673 3.41208 0
M  V30 579 C 58.352 1.74359 3.92297 0
M  V30 580 C 57.585 1.35261 5.16275 0
M  V30 581 O 57.808 0.235136 5.69915 0
M  V30 582 O 56.742 2.17227 5.61334 0
M  V30 583 H 60.568 1.96862 2.31255 0
M  V30 584 H 58.153 1.01753 1.09392 0
M  V30 585 H 60.035 0.396518 4.1953 0
M  V30 586 H 58.71 -0.299851 3.22308 0
M  V30 587 H 57.617 2.01635 3.1511 0
M  V30 588 H 58.95 2.63629 4.15645 0
M  V30 589 N 60.6021 -1.18246 1.0419 0
M  V30 590 C 61.8501 -1.87886 0.744543 0
M  V30 591 C 62.1711 -1.8082 -0.730006 0
M  V30 592 O 61.4411 -1.22736 -1.52685 0
M  V30 593 H 60.0211 -0.695556 0.272417 0
M  V30 594 H 62.6831 -1.43494 1.31892 0
M  V30 595 H 61.7791 -2.9389 1.05049 0
M  V30 596 N 62.0802 -0.821533 -1.34494 0
M  V30 597 C 63.0432 -0.247847 -2.27856 0
M  V30 598 C 64.0432 0.573453 -1.50227 0
M  V30 599 O 65.2332 0.389759 -1.69784 0
M  V30 600 C 62.3652 0.652698 -3.34593 0
M  V30 601 H 63.5582 -1.07146 -2.80107 0
M  V30 602 H 61.1112 -0.593291 -1.44602 0
M  V30 603 H 61.8462 1.49943 -2.87555 0
M  V30 604 H 61.6312 0.065292 -3.92046 0
M  V30 605 H 63.1212 1.04793 -4.04238 0
M  V30 606 N 63.5583 1.46682 -0.576371 0
M  V30 607 C 64.5213 2.28707 0.150239 0
M  V30 608 C 65.5213 1.38035 0.824794 0
M  V30 609 O 66.7113 1.60476 0.677719 0
M  V30 610 C 63.8433 3.18248 1.22192 0
M  V30 611 H 65.0363 2.94423 -0.570521 0
M  V30 612 H 62.5893 1.52688 -0.334078 0
M  V30 613 H 63.3243 2.57265 1.97447 0
M  V30 614 H 63.1093 3.85 0.742812 0
M  V30 615 H 64.5993 3.80001 1.73172 0
M  V30 616 N 65.0364 0.313813 1.54444 0
M  V30 617 C 66.2854 -0.292519 1.99568 0
M  V30 618 C 66.5984 -1.54011 1.20582 0
M  V30 619 O 67.8044 -2.22183 1.56035 0
M  V30 620 C 66.2604 -0.571752 3.55329 0
M  V30 621 C 65.8684 0.658229 4.43138 0
M  V30 622 C 67.6124 -1.13857 4.08946 0
M  V30 623 C 65.5194 0.351439 5.90355 0
M  V30 624 H 64.4494 -0.113079 0.745472 0
M  V30 625 H 67.1004 0.424518 1.78522 0
M  V30 626 H 65.4824 -1.34872 3.72325 0
M  V30 627 H 66.6564 1.43403 4.37918 0
M  V30 628 H 64.9714 1.14458 4.0036 0
M  V30 629 H 67.5684 -1.38257 5.16516 0
M  V30 630 H 67.9114 -2.08489 3.6033 0
M  V30 631 H 68.4444 -0.423015 3.95544 0
M  V30 632 H 65.1834 1.26667 6.43145 0
M  V30 633 H 64.7034 -0.386842 5.98551 0
M  V30 634 H 66.3824 -0.0423134 6.46986 0
M  V30 635 N 66.5145 -1.57545 0.0417849 0
M  V30 636 C 67.7605 -1.92601 -0.635021 0
M  V30 637 C 68.0935 -0.919627 -1.71045 0
M  V30 638 O 67.3685 0.0557892 -1.9442 0
M  V30 639 C 67.6515 -3.38085 -1.23979 0
M  V30 640 C 67.5045 -4.49467 -0.173057 0
M  V30 641 C 68.8235 -3.83776 -2.15416 0
M  V30 642 H 65.9425 -0.700397 -0.229374 0
M  V30 643 H 68.5845 -1.89728 0.101633 0
M  V30 644 H 66.7345 -3.40664 -1.86762 0
M  V30 645 H 68.4065 -4.59018 0.458312 0
M  V30 646 H 66.6495 -4.30909 0.499996 0
M  V30 647 H 67.3205 -5.48323 -0.636054 0
M  V30 648 H 69.7965 -3.83013 -1.62605 0
M  V30 649 H 68.6725 -4.8624 -2.54679 0
M  V30 650 H 68.9335 -3.19998 -3.05047 0
M  V30 651 N 67.9926 0.231505 -1.5589 0
M  V30 652 C 69.2696 0.981096 -1.69215 0
M  V30 653 C 69.6496 2.02799 -0.586164 0
M  V30 654 O 68.9976 2.24823 0.408253 0
M  V30 655 C 69.2076 1.60054 -3.10135 0
M  V30 656 C 70.5556 2.09658 -3.69227 0
M  V30 657 O 71.5796 1.69967 -3.13033 0
M  V30 658 O 70.4386 2.8258 -4.67772 0
M  V30 659 H 67.5326 0.457653 -0.688827 0
M  V30 660 H 70.0786 0.224073 -1.68214 0
M  V30 661 H 68.8506 0.844105 -3.82087 0
M  V30 662 H 68.4736 2.42336 -3.15212 0
M  V30 663 N 69.4707 1.49531 0.497807 0
M  V30 664 C 70.7167 1.59415 1.25358 0
M  V30 665 C 71.0497 0.281422 1.9215 0
M  V30 666 O 70.3247 -0.715249 1.80871 0
M  V30 667 C 70.6077 2.75566 2.3181 0
M  V30 668 C 70.4607 4.16642 1.69498 0
M  V30 669 C 71.7797 2.87347 3.33346 0
M  V30 670 H 68.8987 0.580244 0.454408 0
M  V30 671 H 71.5407 1.81827 0.551262 0
M  V30 672 H 69.6907 2.56587 2.91711 0
M  V30 673 H 71.3627 4.47145 1.13399 0
M  V30 674 H 69.6057 4.22141 0.998978 0
M  V30 675 H 70.2767 4.93792 2.46725 0
M  V30 676 H 72.7527 3.04634 2.83438 0
M  V30 677 H 71.6287 3.70289 4.05188 0
M  V30 678 H 71.8897 1.96834 3.95865 0
M  V30 679 N 70.9488 -0.749086 1.3866 0
M  V30 680 C 72.1968 -1.50535 1.34847 0
M  V30 681 C 72.5178 -1.94909 -0.0595016 0
M  V30 682 O 71.7878 -1.67973 -1.00806 0
M  V30 683 H 70.3678 -0.558395 0.49619 0
M  V30 684 H 73.0298 -0.890165 1.73384 0
M  V30 685 H 72.1258 -2.39413 2.00219 0
M  V30 686 N 72.4269 -1.23603 -0.977757 0
M  V30 687 C 73.6749 -1.06759 -1.71601 0
M  V30 688 C 73.9959 0.395929 -1.90938 0
M  V30 689 O 73.2659 1.28356 -1.47992 0
M  V30 690 H 71.8459 -0.392062 -0.635843 0
M  V30 691 H 74.5079 -1.55362 -1.1768 0
M  V30 692 H 73.6039 -1.55763 -2.70452 0
M  V30 693 N 73.905 1.17692 -1.04816 0
M  V30 694 C 74.815 2.25229 -0.65643 0
M  V30 695 C 75.831 1.71018 0.320761 0
M  V30 696 O 77.007 2.00649 0.173805 0
M  V30 697 C 74.072 3.46684 -0.0332629 0
M  V30 698 C 73.133 4.15997 -1.06042 0
M  V30 699 C 72.366 5.31654 -0.466893 0
M  V30 700 O 72.589 5.65777 0.724758 0
M  V30 701 O 71.523 5.89831 -1.1993 0
M  V30 702 H 75.349 2.61016 -1.55255 0
M  V30 703 H 72.934 1.24919 -0.81949 0
M  V30 704 H 74.816 4.20234 0.313256 0
M  V30 705 H 73.491 3.12703 0.836566 0
M  V30 706 H 72.398 3.44482 -1.45886 0
M  V30 707 H 73.731 4.53996 -1.90127 0
M  V30 708 N 75.3831 0.828654 1.34056 0
M  V30 709 C 76.6081 0.431637 2.02859 0
M  V30 710 C 77.0331 -0.956339 1.61975 0
M  V30 711 O 76.3911 -1.62338 0.807228 0
M  V30 712 C 76.4391 0.548323 3.56407 0
M  V30 713 O 75.5431 -0.429556 4.10157 0
M  V30 714 H 74.8841 0.176886 0.640006 0
M  V30 715 H 77.4141 1.12066 1.71179 0
M  V30 716 H 77.4241 0.426196 4.05768 0
M  V30 717 H 76.0991 1.5606 3.8551 0
M  V30 718 H 74.6761 -0.265836 3.71951 0
M  V30 719 N 76.8612 -1.46375 0.584142 0
M  V30 720 C 78.0892 -2.06761 0.0759296 0
M  V30 721 C 78.5042 -1.43266 -1.22965 0
M  V30 722 O 77.8612 -0.538458 -1.74376 0
M  V30 723 C 77.9122 -3.61375 -0.0950384 0
M  V30 724 O 77.6332 -4.22495 1.15887 0
M  V30 725 C 79.1342 -4.38693 -0.637434 0
M  V30 726 H 76.3542 -0.668479 0.0581075 0
M  V30 727 H 78.8982 -1.8798 0.805218 0
M  V30 728 H 77.0532 -3.79578 -0.774554 0
M  V30 729 H 77.4672 -5.15385 0.973598 0
M  V30 730 H 78.9412 -5.47464 -0.706237 0
M  V30 731 H 79.4182 -4.06836 -1.65472 0
M  V30 732 H 80.0242 -4.25299 0.00725967 0
M  V30 733 N 78.3393 -0.321999 -1.54275 0
M  V30 734 C 79.7553 0.0306999 -1.5957 0
M  V30 735 C 79.9553 1.50614 -1.33857 0
M  V30 736 O 79.0113 2.2619 -1.12223 0
M  V30 737 C 80.3243 -0.386122 -2.98211 0
M  V30 738 C 81.8723 -0.336647 -3.11184 0
M  V30 739 C 82.3473 -0.728607 -4.52167 0
M  V30 740 N 83.8383 -0.681952 -4.58152 0
M  V30 741 C 84.5733 -0.957449 -5.6535 0
M  V30 742 N 84.0693 -1.3 -6.80494 0
M  V30 743 N 85.8623 -0.883113 -5.55119 0
M  V30 744 H 78.0133 -1.28332 -1.69247 0
M  V30 745 H 80.2763 -0.521716 -0.791528 0
M  V30 746 H 79.9823 -1.41404 -3.22022 0
M  V30 747 H 79.8563 0.249662 -3.76373 0
M  V30 748 H 82.2433 0.682058 -2.8711 0
M  V30 749 H 82.3243 -1.00734 -2.3513 0
M  V30 750 H 81.9683 -1.74522 -4.76974 0
M  V30 751 H 81.8983 -0.0356152 -5.26588 0
M  V30 752 H 84.3893 -0.428985 -3.75457 0
M  V30 753 H 84.7023 -1.49563 -7.58189 0
M  V30 754 H 83.0473 -1.33824 -6.81994 0
M  V30 755 H 86.2383 -0.615001 -4.64042 0
M  V30 756 H 86.4113 -1.10118 -6.38575 0
M  V30 757 N 79.8174 1.5752 -0.0501392 0
M  V30 758 C 81.2284 1.80271 0.485705 0
M  V30 759 C 81.5794 0.96228 1.70981 0
M  V30 760 O 80.7044 0.178578 2.15662 0
M  V30 761 C 81.2994 3.26957 0.887938 0
M  V30 762 C 79.8584 3.5063 1.36877 0
M  V30 763 C 79.0054 2.75165 0.343468 0
M  V30 764 H 81.9564 1.56281 -0.276028 0
M  V30 765 H 81.9774 3.37821 1.75093 0
M  V30 766 H 81.4894 3.881 -0.0031809 0
M  V30 767 H 79.5904 2.94766 2.27911 0
M  V30 768 H 79.7034 4.59343 1.36164 0
M  V30 769 H 78.0674 2.4127 0.816128 0
M  V30 770 H 78.8504 3.39034 -0.539548 0
M  V30 771 N 81.2955 -0.223234 1.56011 0
M  V30 772 C 82.5435 -0.946003 1.78592 0
M  V30 773 C 82.8645 -1.84936 0.618349 0
M  V30 774 O 82.1345 -1.92473 -0.364833 0
M  V30 775 H 80.7145 -0.352298 0.658707 0
M  V30 776 H 83.3765 -0.235494 1.93472 0
M  V30 777 H 82.4725 -1.55381 2.70672 0
M  V30 778 N 82.7736 -1.49793 -0.48987 0
M  V30 779 C 83.7366 -1.66752 -1.57246 0
M  V30 780 C 84.7366 -0.538867 -1.51502 0
M  V30 781 O 85.9266 -0.805545 -1.54456 0
M  V30 782 C 83.0586 -1.67528 -2.96896 0
M  V30 783 H 84.2516 -2.63321 -1.43534 0
M  V30 784 H 81.8046 -1.38992 -0.714914 0
M  V30 785 H 82.5396 -0.725837 -3.16073 0
M  V30 786 H 82.3246 -2.49504 -3.02473 0
M  V30 787 H 83.8146 -1.82667 -3.7553 0
M  V30 788 N 84.2517 0.741722 -1.39055 0
M  V30 789 C 85.5007 1.49656 -1.35225 0
M  V30 790 C 85.8137 1.95533 0.0512708 0
M  V30 791 O 87.0197 2.7067 0.212138 0
M  V30 792 C 85.4757 2.70389 -2.37525 0
M  V30 793 C 85.0837 2.31489 -3.83558 0
M  V30 794 C 86.8277 3.48236 -2.42759 0
M  V30 795 C 84.7347 3.48903 -4.77515 0
M  V30 796 H 83.6647 0.56197 -0.502699 0
M  V30 797 H 86.3157 0.809727 -1.64668 0
M  V30 798 H 84.6977 3.41113 -2.01142 0
M  V30 799 H 85.8717 1.68354 -4.28945 0
M  V30 800 H 84.1867 1.66749 -3.81554 0
M  V30 801 H 86.7837 4.35558 -3.1015 0
M  V30 802 H 87.1267 3.90229 -1.45008 0
M  V30 803 H 87.6597 2.84535 -2.78002 0
M  V30 804 H 84.3987 3.11966 -5.76504 0
M  V30 805 H 83.9187 4.11041 -4.36813 0
M  V30 806 H 85.5977 4.15328 -4.96096 0
M  V30 807 N 85.7298 1.2412 0.971189 0
M  V30 808 C 87.1458 1.00584 1.23916 0
M  V30 809 C 87.3458 -0.287481 1.99439 0
M  V30 810 O 86.4018 -1.00454 2.31658 0
M  V30 811 C 87.7148 2.21864 2.0297 0
M  V30 812 C 89.2628 2.26452 2.16076 0
M  V30 813 C 89.7378 3.47343 2.98524 0
M  V30 814 N 91.2288 3.47639 3.06107 0
M  V30 815 C 91.9638 4.37837 3.70251 0
M  V30 816 N 91.4598 5.38286 4.36142 0
M  V30 817 N 93.2528 4.25558 3.67228 0
M  V30 818 H 85.4038 2.07236 0.465499 0
M  V30 819 H 87.6668 0.909236 0.268315 0
M  V30 820 H 87.3728 3.15771 1.54861 0
M  V30 821 H 87.2468 2.23698 3.03709 0
M  V30 822 H 89.6338 1.33078 2.6339 0
M  V30 823 H 89.7148 2.28645 1.14696 0
M  V30 824 H 89.3588 4.41029 2.51905 0
M  V30 825 H 89.2888 3.42393 4.00093 0
M  V30 826 H 91.7798 2.74966 2.59233 0
M  V30 827 H 92.0928 6.03352 4.82894 0
M  V30 828 H 90.4378 5.42176 4.34822 0
M  V30 829 H 93.6288 3.46322 3.14927 0
M  V30 830 H 93.8018 4.96054 4.16935 0
M  V30 831 N 87.2079 -1.17134 1.05439 0
M  V30 832 C 88.4359 -1.91372 0.786414 0
M  V30 833 C 88.8509 -1.76955 -0.658202 0
M  V30 834 O 88.2079 -1.10838 -1.44987 0
M  V30 835 C 88.2589 -3.42356 1.1608 0
M  V30 836 O 87.9799 -3.56332 2.54871 0
M  V30 837 C 89.4809 -4.33663 0.919322 0
M  V30 838 H 86.7009 -0.607118 0.285743 0
M  V30 839 H 89.2449 -1.48525 1.40572 0
M  V30 840 H 87.3999 -3.82939 0.586191 0
M  V30 841 H 87.8139 -4.49896 2.69618 0
M  V30 842 H 89.2879 -5.38099 1.231 0
M  V30 843 H 89.7649 -4.38959 -0.145359 0
M  V30 844 H 90.3709 -3.98796 1.47789 0
M  V30 845 N 88.686 -0.835752 -1.33615 0
M  V30 846 C 89.963 -0.352017 -1.92406 0
M  V30 847 C 90.343 1.16225 -1.76224 0
M  V30 848 O 89.691 1.97526 -1.14873 0
M  V30 849 C 89.901 -0.795485 -3.39813 0
M  V30 850 C 91.249 -0.801703 -4.16963 0
M  V30 851 O 92.273 -0.738889 -3.48452 0
M  V30 852 O 91.132 -0.886607 -5.3926 0
M  V30 853 H 88.226 -0.0989641 -0.821057 0
M  V30 854 H 90.772 -0.921397 -1.42507 0
M  V30 855 H 89.544 -1.83795 -3.45449 0
M  V30 856 H 89.167 -0.202505 -3.97084 0
M  V30 857 N 90.1641 1.46063 -0.591896 0
M  V30 858 C 91.5751 1.85944 -0.167822 0
M  V30 859 C 91.9261 1.49429 1.27143 0
M  V30 860 O 91.0511 0.913515 1.96173 0
M  V30 861 C 91.6461 3.37489 -0.297794 0
M  V30 862 C 90.2051 3.76332 0.0714732 0
M  V30 863 C 89.3521 2.7006 -0.629509 0
M  V30 864 H 92.3031 1.37087 -0.799555 0
M  V30 865 H 92.3241 3.77532 0.474349 0
M  V30 866 H 91.8361 3.64034 -1.3454 0
M  V30 867 H 89.9371 3.55405 1.11886 0
M  V30 868 H 90.0501 4.78088 -0.311245 0
M  V30 869 H 88.4141 2.54607 -0.0687867 0
M  V30 870 H 89.1971 2.99444 -1.67894 0
M  V30 871 N 91.6422 0.330177 1.54103 0
M  V30 872 C 93.0582 -0.0222371 1.59585 0
M  V30 873 C 93.2582 -1.49902 1.34654 0
M  V30 874 O 92.3142 -2.25592 1.13421 0
M  V30 875 C 93.6272 0.401932 2.98002 0
M  V30 876 C 95.1752 0.353145 3.11001 0
M  V30 877 C 95.6502 0.752576 4.51775 0
M  V30 878 N 97.1412 0.706239 4.57784 0
M  V30 879 C 97.8762 0.987417 5.64834 0
M  V30 880 N 97.3722 1.33607 6.79795 0
M  V30 881 N 99.1652 0.91254 5.54643 0
M  V30 882 H 91.3162 1.29228 1.68564 0
M  V30 883 H 93.5792 0.525906 0.78875 0
M  V30 884 H 93.2852 1.4311 3.21267 0
M  V30 885 H 93.1592 -0.229699 3.765 0
M  V30 886 H 95.5462 -0.666822 2.87467 0
M  V30 887 H 95.6272 1.0198 2.34593 0
M  V30 888 H 95.2712 1.77049 4.76042 0
M  V30 889 H 95.2012 0.0635409 5.26562 0
M  V30 890 H 97.6922 0.44889 3.75224 0
M  V30 891 H 98.0052 1.53582 7.57385 0
M  V30 892 H 96.3502 1.37439 6.81275 0
M  V30 893 H 99.5412 0.639601 4.6371 0
M  V30 894 H 99.7142 1.13503 6.37982 0
M  V30 895 N 93.1203 -1.57491 0.0584922 0
M  V30 896 C 94.3663 -1.93264 -0.614558 0
M  V30 897 C 94.6993 -0.937717 -1.7006 0
M  V30 898 O 93.9743 0.0351652 -1.94468 0
M  V30 899 C 94.2573 -3.3938 -1.20386 0
M  V30 900 C 94.1103 -4.49625 -0.125375 0
M  V30 901 C 95.4293 -3.86039 -2.11334 0
M  V30 902 H 92.5483 -0.702791 -0.221933 0
M  V30 903 H 95.1903 -1.8961 0.12175 0
M  V30 904 H 93.3403 -3.42626 -1.83139 0
M  V30 905 H 95.0123 -4.58506 0.506971 0
M  V30 906 H 93.2553 -4.30354 0.545672 0
M  V30 907 H 93.9263 -5.48967 -0.577861 0
M  V30 908 H 96.4023 -3.84716 -1.58534 0
M  V30 909 H 95.2783 -4.88914 -2.49507 0
M  V30 910 H 95.5393 -3.23215 -3.01636 0
M  V30 911 N 94.5984 0.214957 -1.56127 0
M  V30 912 C 95.5084 1.28727 -1.96129 0
M  V30 913 C 96.5244 1.50916 -0.866044 0
M  V30 914 O 97.7004 1.63918 -1.17016 0
M  V30 915 C 94.7654 2.61569 -2.27558 0
M  V30 916 C 93.8264 2.47625 -3.50685 0
M  V30 917 C 93.0594 3.74132 -3.80606 0
M  V30 918 O 93.2824 4.77438 -3.12104 0
M  V30 919 O 92.2164 3.70849 -4.74083 0
M  V30 920 H 96.0424 0.977855 -2.87527 0
M  V30 921 H 93.6274 0.418358 -1.43423 0
M  V30 922 H 95.5094 3.40012 -2.48938 0
M  V30 923 H 94.1844 2.92178 -1.39332 0
M  V30 924 H 93.0914 1.67361 -3.34576 0
M  V30 925 H 94.4244 2.21954 -4.39315 0
M  V30 926 N 96.0765 1.50051 0.48192 0
M  V30 927 C 97.0065 1.71046 1.58951 0
M  V30 928 C 97.9875 0.559288 1.60642 0
M  V30 929 O 99.1725 0.797243 1.77081 0
M  V30 930 C 96.3025 1.79462 2.97339 0
M  V30 931 C 95.2565 2.94558 3.10515 0
M  V30 932 C 94.5825 2.88105 4.50444 0
M  V30 933 C 95.8825 4.35227 2.88747 0
M  V30 934 H 97.5765 2.6378 1.41635 0
M  V30 935 H 95.1225 1.26936 0.679942 0
M  V30 936 H 97.0755 1.92734 3.74742 0
M  V30 937 H 95.7995 0.833412 3.15788 0
M  V30 938 H 94.4585 2.80918 2.35543 0
M  V30 939 H 94.1065 1.89853 4.65795 0
M  V30 940 H 93.8065 3.65366 4.60197 0
M  V30 941 H 95.3305 3.03412 5.29881 0
M  V30 942 H 96.7445 4.49449 3.55905 0
M  V30 943 H 95.1415 5.13856 3.09955 0
M  V30 944 H 96.2115 4.48347 1.84696 0
M  V30 945 N 97.5546 -0.734337 1.39446 0
M  V30 946 C 98.7796 -1.52866 1.40167 0
M  V30 947 C 99.2046 -1.881 -0.00171513 0
M  V30 948 O 98.5626 -1.51957 -0.988879 0
M  V30 949 C 98.6106 -2.79235 2.28167 0
M  V30 950 O 97.7146 -3.75185 1.71201 0
M  V30 951 H 97.0556 -0.461618 0.477289 0
M  V30 952 H 99.5856 -0.905949 1.8345 0
M  V30 953 H 99.5956 -3.27963 2.42702 0
M  V30 954 H 98.2706 -2.52923 3.30156 0
M  V30 955 H 96.8476 -3.33958 1.65912 0
M  V30 956 N 99.0327 -1.24633 -0.964593 0
M  V30 957 C 100.449 -1.01239 -1.2338 0
M  V30 958 C 100.649 0.2769 -1.99588 0
M  V30 959 O 99.7047 0.992241 -2.32187 0
M  V30 960 C 101.018 -2.22937 -2.01791 0
M  V30 961 C 102.566 -2.27594 -2.14872 0
M  V30 962 C 103.041 -3.48921 -2.96678 0
M  V30 963 N 104.532 -3.49257 -3.04259 0
M  V30 964 C 105.267 -4.39795 -3.67924 0
M  V30 965 N 104.763 -5.40591 -4.33281 0
M  V30 966 N 106.556 -4.275 -3.64966 0
M  V30 967 H 98.7067 -2.0748 -0.454502 0
M  V30 968 H 100.97 -0.910647 -0.26349 0
M  V30 969 H 100.676 -3.16587 -1.53184 0
M  V30 970 H 100.55 -2.25306 -3.02518 0
M  V30 971 H 102.937 -1.34473 -2.6268 0
M  V30 972 H 103.018 -2.2925 -1.13482 0
M  V30 973 H 102.662 -4.42359 -2.49562 0
M  V30 974 H 102.592 -3.4451 -3.98272 0
M  V30 975 H 105.083 -2.76337 -2.57771 0
M  V30 976 H 105.396 -6.05904 -4.79687 0
M  V30 977 H 103.741 -5.44475 -4.3194 0
M  V30 978 H 106.932 -3.47987 -3.13086 0
M  V30 979 H 107.105 -4.98258 -4.14298 0
M  V30 980 N 100.511 1.16574 -1.06058 0
M  V30 981 C 101.76 1.86385 -0.770944 0
M  V30 982 C 102.073 1.82448 0.705129 0
M  V30 983 O 103.279 2.47815 1.10905 0
M  V30 984 C 101.735 3.34466 -1.32893 0
M  V30 985 C 101.343 3.46883 -2.83507 0
M  V30 986 C 103.087 4.09548 -1.11672 0
M  V30 987 C 100.994 4.89036 -3.32562 0
M  V30 988 H 99.9238 0.698181 -0.284709 0
M  V30 989 H 102.575 1.31583 -1.27899 0
M  V30 990 H 100.957 3.88859 -0.748662 0
M  V30 991 H 102.131 3.02663 -3.47465 0
M  V30 992 H 100.446 2.85232 -3.03368 0
M  V30 993 H 103.043 5.14434 -1.45814 0
M  V30 994 H 103.386 4.16264 -0.0549535 0
M  V30 995 H 103.919 3.61387 -1.66265 0
M  V30 996 H 100.658 4.87499 -4.38207 0
M  V30 997 H 100.178 5.3389 -2.73351 0
M  V30 998 H 101.857 5.57843 -3.2775 0
M  V30 999 N 101.989 0.842826 1.3317 0
M  V30 1000 C 103.235 0.441099 1.97945 0
M  V30 1001 C 103.568 -0.998024 1.66593 0
M  V30 1002 O 102.843 -1.69839 0.947898 0
M  V30 1003 C 103.126 0.666841 3.53872 0
M  V30 1004 C 102.979 2.15352 3.94897 0
M  V30 1005 C 104.298 0.115544 4.39948 0
M  V30 1006 H 101.417 0.161739 0.719034 0
M  V30 1007 H 104.059 1.05907 1.57746 0
M  V30 1008 H 102.209 0.140828 3.88245 0
M  V30 1009 H 103.881 2.7447 3.70761 0
M  V30 1010 H 102.124 2.63653 3.44484 0
M  V30 1011 H 102.795 2.26221 5.03516 0
M  V30 1012 H 105.271 0.565213 4.12243 0
M  V30 1013 H 104.147 0.303152 5.48062 0
M  V30 1014 H 104.408 -0.980935 4.3108 0
M  V30 1015 N 103.467 -1.45747 0.599634 0
M  V30 1016 C 104.878 -1.85853 0.177681 0
M  V30 1017 C 105.229 -1.50102 -1.26348 0
M  V30 1018 O 104.354 -0.923905 -1.95686 0
M  V30 1019 C 104.949 -3.37326 0.315688 0
M  V30 1020 C 103.508 -3.76365 -0.0515144 0
M  V30 1021 C 102.655 -2.69722 0.643822 0
M  V30 1022 H 105.606 -1.36661 0.806814 0
M  V30 1023 H 105.627 -3.77778 -0.454321 0
M  V30 1024 H 105.139 -3.63315 1.36468 0
M  V30 1025 H 103.24 -3.55993 -1.09999 0
M  V30 1026 H 103.353 -4.77916 0.336594 0
M  V30 1027 H 101.717 -2.54567 0.0822881 0
M  V30 1028 H 102.5 -2.98549 1.6948 0
M  V30 1029 N 104.945 -0.338344 -1.53925 0
M  V30 1030 C 106.191 0.260143 -2.01125 0
M  V30 1031 C 106.524 1.50617 -1.22589 0
M  V30 1032 O 105.799 1.91979 -0.312113 0
M  V30 1033 C 106.082 0.579499 -3.55407 0
M  V30 1034 C 105.935 -0.678264 -4.44657 0
M  V30 1035 C 107.254 1.39122 -4.17532 0
M  V30 1036 H 104.373 0.0930772 -0.731099 0
M  V30 1037 H 107.015 -0.457852 -1.84401 0
M  V30 1038 H 105.165 1.19118 -3.69788 0
M  V30 1039 H 106.837 -1.31631 -4.42121 0
M  V30 1040 H 105.08 -1.3042 -4.13731 0
M  V30 1041 H 105.751 -0.410143 -5.50474 0
M  V30 1042 H 108.227 0.874035 -4.06817 0
M  V30 1043 H 107.103 1.58342 -5.25565 0
M  V30 1044 H 107.364 2.39178 -3.71815 0
M  V30 1045 N 106.423 1.57458 -0.0668435 0
M  V30 1046 C 107.669 1.93587 0.6043 0
M  V30 1047 C 108.002 0.946722 1.69561 0
M  V30 1048 O 107.277 -0.0248516 1.94484 0
M  V30 1049 C 107.56 3.40014 1.18585 0
M  V30 1050 C 107.413 4.49685 0.101529 0
M  V30 1051 C 108.732 3.87154 2.09284 0
M  V30 1052 H 105.851 0.703958 0.218202 0
M  V30 1053 H 108.493 1.89542 -0.131804 0
M  V30 1054 H 106.643 3.43592 1.81319 0
M  V30 1055 H 108.315 4.5823 -0.531279 0
M  V30 1056 H 106.558 4.30059 -0.568487 0
M  V30 1057 H 107.229 5.49266 0.54874 0
M  V30 1058 H 109.705 3.85551 1.56491 0
M  V30 1059 H 108.581 4.90231 2.46911 0
M  V30 1060 H 108.842 3.2481 2.99918 0
M  V30 1061 N 107.901 -0.206675 1.56239 0
M  V30 1062 C 108.848 -1.25617 1.93621 0
M  V30 1063 C 109.818 -1.45824 0.795274 0
M  V30 1064 O 111.003 -1.59148 1.05245 0
M  V30 1065 C 108.143 -2.59839 2.27107 0
M  V30 1066 C 107.256 -2.47308 3.54207 0
M  V30 1067 C 106.391 -3.74155 3.7707 0
M  V30 1068 C 105.43 -3.56407 4.97635 0
M  V30 1069 N 104.567 -4.75238 5.1681 0
M  V30 1070 H 109.407 -0.930383 2.83104 0
M  V30 1071 H 106.944 -0.448065 1.4011 0
M  V30 1072 H 108.902 -3.38021 2.44535 0
M  V30 1073 H 107.532 -2.90485 1.40778 0
M  V30 1074 H 106.584 -1.60483 3.4489 0
M  V30 1075 H 107.896 -2.30122 4.42544 0
M  V30 1076 H 107.05 -4.60778 3.94675 0
M  V30 1077 H 105.789 -3.94282 2.87042 0
M  V30 1078 H 104.794 -2.68168 4.79964 0
M  V30 1079 H 106.019 -3.37736 5.89161 0
M  V30 1080 H 103.965 -4.95651 4.29728 0
M  V30 1081 H 103.882 -4.60835 5.99306 0
M  V30 1082 H 105.15 -5.63246 5.38864 0
M  V30 1083 N 109.379 -1.50304 -0.473955 0
M  V30 1084 C 110.289 -1.7174 -1.5982 0
M  V30 1085 C 111.305 -0.600457 -1.63311 0
M  V30 1086 O 112.481 -0.878441 -1.81233 0
M  V30 1087 C 109.546 -1.80427 -2.96052 0
M  V30 1088 C 108.607 -3.04148 -3.02972 0
M  V30 1089 C 107.84 -3.12411 -4.32706 0
M  V30 1090 O 108.063 -2.27542 -5.23049 0
M  V30 1091 O 106.997 -4.05113 -4.45159 0
M  V30 1092 H 110.823 -2.67035 -1.44657 0
M  V30 1093 H 108.408 -1.34366 -0.653148 0
M  V30 1094 H 110.29 -1.88338 -3.7697 0
M  V30 1095 H 108.965 -0.883156 -3.11419 0
M  V30 1096 H 107.872 -3.0174 -2.21142 0
M  V30 1097 H 109.205 -3.95829 -2.92541 0
M  V30 1098 N 110.857 0.726932 -1.39834 0
M  V30 1099 C 111.787 1.85405 -1.41941 0
M  V30 1100 C 112.768 1.67751 -0.281728 0
M  V30 1101 O 113.953 1.8795 -0.488717 0
M  V30 1102 C 111.083 3.23243 -1.2701 0
M  V30 1103 C 110.037 3.55549 -2.38262 0
M  V30 1104 C 109.363 4.9241 -2.08415 0
M  V30 1105 C 110.663 3.577 -3.80589 0
M  V30 1106 H 112.357 1.83899 -2.36266 0
M  V30 1107 H 109.903 0.883349 -1.13723 0
M  V30 1108 H 111.856 4.01775 -1.27103 0
M  V30 1109 H 110.58 3.25296 -0.291564 0
M  V30 1110 H 109.239 2.79351 -2.37399 0
M  V30 1111 H 108.887 4.91052 -1.0898 0
M  V30 1112 H 108.587 5.14992 -2.82943 0
M  V30 1113 H 110.111 5.73289 -2.10171 0
M  V30 1114 H 111.525 4.26293 -3.83337 0
M  V30 1115 H 109.922 3.91804 -4.54543 0
M  V30 1116 H 110.992 2.57328 -4.10987 0
M  V30 1117 N 112.336 1.25143 0.95797 0
M  V30 1118 C 113.299 1.05321 2.03569 0
M  V30 1119 C 114.299 0.007152 1.60798 0
M  V30 1120 O 115.489 0.24903 1.72411 0
M  V30 1121 C 112.621 0.598394 3.35607 0
M  V30 1122 H 113.814 2.00986 2.22586 0
M  V30 1123 H 111.367 1.07502 1.13459 0
M  V30 1124 H 112.102 -0.361014 3.22284 0
M  V30 1125 H 111.887 1.35351 3.67998 0
M  V30 1126 H 113.377 0.48104 4.1482 0
M  V30 1127 N 113.814 -1.1601 1.06675 0
M  V30 1128 C 114.777 -2.18724 0.685001 0
M  V30 1129 C 115.777 -1.58496 -0.271246 0
M  V30 1130 O 116.967 -1.74119 -0.0531156 0
M  V30 1131 C 114.099 -3.40899 0.00853648 0
M  V30 1132 H 115.292 -2.54011 1.59431 0
M  V30 1133 H 112.845 -1.30352 0.862441 0
M  V30 1134 H 113.58 -3.11173 -0.913337 0
M  V30 1135 H 113.365 -3.8587 0.696204 0
M  V30 1136 H 114.855 -4.16886 -0.24414 0
M  V30 1137 N 115.292 -0.849877 -1.32721 0
M  V30 1138 C 116.224 -0.248332 -2.27851 0
M  V30 1139 C 117.237 0.577218 -1.52224 0
M  V30 1140 O 118.426 0.402489 -1.73903 0
M  V30 1141 C 115.526 0.668107 -3.32249 0
M  V30 1142 C 114.699 -0.120534 -4.37234 0
M  V30 1143 C 113.758 0.720932 -5.21238 0
M  V30 1144 O 112.784 0.156166 -5.68986 0
M  V30 1145 N 113.986 2.03647 -5.43607 0
M  V30 1146 H 116.751 -1.06575 -2.80111 0
M  V30 1147 H 114.312 -0.709395 -1.45531 0
M  V30 1148 H 116.304 1.23627 -3.85355 0
M  V30 1149 H 114.874 1.38621 -2.80184 0
M  V30 1150 H 114.094 -0.870108 -3.84477 0
M  V30 1151 H 115.382 -0.662406 -5.0447 0
M  V30 1152 H 114.78 2.51871 -5.06535 0
M  V30 1153 H 113.337 2.55287 -5.99727 0
M  V30 1154 N 116.77 1.45427 -0.607355 0
M  V30 1155 C 118.018 2.01841 -0.102253 0
M  V30 1156 C 118.339 1.47832 1.27164 0
M  V30 1157 O 117.609 0.672497 1.83995 0
M  V30 1158 H 116.189 0.746188 -0.0348101 0
M  V30 1159 H 118.851 1.78229 -0.7887 0
M  V30 1160 H 117.947 3.12057 -0.0518585 0
M  V30 1161 N 118.248 0.346503 1.53744 0
M  V30 1162 C 119.497 -0.250122 2.00143 0
M  V30 1163 C 119.81 -1.51418 1.23822 0
M  V30 1164 O 121.016 -2.18823 1.60713 0
M  V30 1165 C 119.472 -0.496252 3.56462 0
M  V30 1166 C 119.08 0.752077 4.41642 0
M  V30 1167 C 120.824 -1.05157 4.11269 0
M  V30 1168 C 118.731 0.476583 5.89477 0
M  V30 1169 H 117.661 -0.0972409 0.747703 0
M  V30 1170 H 120.312 0.46229 1.77581 0
M  V30 1171 H 118.694 -1.26944 3.75102 0
M  V30 1172 H 119.868 1.5266 4.34778 0
M  V30 1173 H 118.183 1.22925 3.97842 0
M  V30 1174 H 120.78 -1.27269 5.19333 0
M  V30 1175 H 121.123 -2.00799 3.64672 0
M  V30 1176 H 121.656 -0.339019 3.96353 0
M  V30 1177 H 118.395 1.4028 6.40314 0
M  V30 1178 H 117.915 -0.259794 5.99237 0
M  V30 1179 H 119.594 0.0949315 6.4693 0
M  V30 1180 N 119.726 -1.57421 0.075193 0
M  V30 1181 C 120.954 -1.97946 -0.602076 0
M  V30 1182 C 121.369 -0.953674 -1.62943 0
M  V30 1183 O 120.726 0.0592551 -1.82404 0
M  V30 1184 C 120.777 -3.38546 -1.26762 0
M  V30 1185 O 120.498 -4.37195 -0.281376 0
M  V30 1186 C 121.999 -3.93966 -2.03239 0
M  V30 1187 H 119.219 -0.650918 -0.162931 0
M  V30 1188 H 121.763 -2.03959 0.148601 0
M  V30 1189 H 119.918 -3.33609 -1.96936 0
M  V30 1190 H 120.332 -5.18975 -0.759267 0
M  V30 1191 H 121.806 -4.94555 -2.45193 0
M  V30 1192 H 122.283 -3.30693 -2.8903 0
M  V30 1193 H 122.889 -4.02315 -1.37924 0
M  V30 1194 N 121.204 0.198386 -1.56346 0
M  V30 1195 C 122.45 0.920648 -1.80698 0
M  V30 1196 C 122.783 1.83045 -0.648697 0
M  V30 1197 O 122.058 1.91308 0.350925 0
M  V30 1198 C 122.341 1.73971 -3.15287 0
M  V30 1199 C 122.194 0.85485 -4.41602 0
M  V30 1200 C 123.513 2.71296 -3.46535 0
M  V30 1201 H 120.632 0.333261 -0.657348 0
M  V30 1202 H 123.274 0.188198 -1.89066 0
M  V30 1203 H 121.424 2.36416 -3.08285 0
M  V30 1204 H 123.096 0.245362 -4.60647 0
M  V30 1205 H 121.339 0.161398 -4.335 0
M  V30 1206 H 122.01 1.46286 -5.32264 0
M  V30 1207 H 124.486 2.18983 -3.53816 0
M  V30 1208 H 123.362 3.2569 -4.41834 0
M  V30 1209 H 123.623 3.5018 -2.69864 0
M  V30 1210 N 122.682 1.50554 0.465978 0
M  V30 1211 C 123.907 1.65838 1.24549 0
M  V30 1212 C 124.332 0.343486 1.84937 0
M  V30 1213 O 123.69 -0.69324 1.67523 0
M  V30 1214 C 123.738 2.75533 2.32624 0
M  V30 1215 O 122.842 2.37142 3.37398 0
M  V30 1216 H 122.183 0.553893 0.366194 0
M  V30 1217 H 124.713 1.96959 0.553927 0
M  V30 1218 H 124.723 2.98763 2.77857 0
M  V30 1219 H 123.398 3.70962 1.88043 0
M  V30 1220 H 121.975 2.24377 2.97841 0
M  V30 1221 N 124.16 -0.719506 1.40217 0
M  V30 1222 C 125.409 -1.47486 1.37589 0
M  V30 1223 C 125.722 -1.9559 -0.0201568 0
M  V30 1224 O 126.928 -2.70973 -0.169049 0
M  V30 1225 C 125.384 -2.66575 2.41796 0
M  V30 1226 C 124.992 -2.25358 3.87192 0
M  V30 1227 C 126.736 -3.4433 2.48269 0
M  V30 1228 C 124.643 -3.41262 4.83005 0
M  V30 1229 H 123.573 -0.553901 0.511576 0
M  V30 1230 H 126.224 -0.783427 1.65936 0
M  V30 1231 H 124.606 -3.3787 2.06543 0
M  V30 1232 H 125.78 -1.61509 4.31569 0
M  V30 1233 H 124.095 -1.60657 3.84159 0
M  V30 1234 H 126.692 -4.30569 3.17041 0
M  V30 1235 H 127.035 -3.87872 1.51198 0
M  V30 1236 H 127.568 -2.80076 2.82493 0
M  V30 1237 H 124.307 -3.02755 5.81394 0
M  V30 1238 H 123.827 -4.0404 4.43297 0
M  V30 1239 H 125.506 -4.07383 5.02641 0
M  V30 1240 N 125.638 -1.25649 -0.95132 0
M  V30 1241 C 126.915 -1.01361 -1.67288 0
M  V30 1242 C 127.295 0.459135 -2.06046 0
M  V30 1243 O 126.643 1.43723 -1.7764 0
M  V30 1244 C 126.853 -1.95256 -2.89268 0
M  V30 1245 C 128.201 -2.23289 -3.61147 0
M  V30 1246 O 129.225 -1.93041 -2.99355 0
M  V30 1247 O 128.084 -2.74741 -4.72419 0
M  V30 1248 H 125.178 -0.38464 -0.732107 0
M  V30 1249 H 127.724 -1.36817 -1.00395 0
M  V30 1250 H 126.496 -2.94685 -2.57442 0
M  V30 1251 H 126.119 -1.60218 -3.6389 0
M  V30 1252 N 127.117 1.15442 -1.07289 0
M  V30 1253 C 128.345 1.90096 -0.81676 0
M  V30 1254 C 128.76 1.7798 0.629966 0
M  V30 1255 O 128.117 1.1313 1.43206 0
M  V30 1256 C 128.168 3.40466 -1.21512 0
M  V30 1257 O 127.889 3.52232 -2.60508 0
M  V30 1258 C 129.39 4.32145 -0.988198 0
M  V30 1259 H 126.61 0.602495 -0.295366 0
M  V30 1260 H 129.154 1.4627 -1.42918 0
M  V30 1261 H 127.309 3.81958 -0.647039 0
M  V30 1262 H 127.723 4.45549 -2.76742 0
M  V30 1263 H 129.197 5.36072 -1.31645 0
M  V30 1264 H 129.674 4.39135 0.0755063 0
M  V30 1265 H 130.28 3.96395 -1.54115 0
M  V30 1266 N 128.595 0.856903 1.32268 0
M  V30 1267 C 129.823 0.475439 2.01363 0
M  V30 1268 C 130.238 -0.928486 1.64392 0
M  V30 1269 O 129.595 -1.60624 0.866387 0
M  V30 1270 C 129.646 0.607545 3.56358 0
M  V30 1271 O 129.367 1.95617 3.92002 0
M  V30 1272 C 130.868 0.225382 4.42727 0
M  V30 1273 H 128.088 0.186636 0.644521 0
M  V30 1274 H 130.632 1.15446 1.68797 0
M  V30 1275 H 128.787 -0.0237719 3.87393 0
M  V30 1276 H 129.201 1.95455 4.86721 0
M  V30 1277 H 130.675 0.368813 5.50767 0
M  V30 1278 H 131.152 -0.834369 4.31202 0
M  V30 1279 H 131.758 0.831864 4.17085 0
M  V30 1280 N 130.073 -1.45103 0.615059 0
M  V30 1281 C 131.489 -1.57137 0.279322 0
M  V30 1282 C 131.689 -1.60523 -1.21797 0
M  V30 1283 O 130.745 -1.53956 -2.00134 0
M  V30 1284 C 132.058 -2.85062 0.957083 0
M  V30 1285 C 133.606 -2.98749 0.933706 0
M  V30 1286 C 134.081 -4.29455 1.59162 0
M  V30 1287 N 135.572 -4.36231 1.55746 0
M  V30 1288 C 136.307 -5.36051 2.0356 0
M  V30 1289 N 135.803 -6.42367 2.59494 0
M  V30 1290 N 137.596 -5.27456 1.94284 0
M  V30 1291 H 129.747 -1.41148 1.58717 0
M  V30 1292 H 132.01 -0.675331 0.665306 0
M  V30 1293 H 131.716 -2.88488 2.01166 0
M  V30 1294 H 131.59 -3.7407 0.48494 0
M  V30 1295 H 133.977 -2.94886 -0.112347 0
M  V30 1296 H 134.058 -2.11132 1.44419 0
M  V30 1297 H 133.702 -4.34077 2.63704 0
M  V30 1298 H 133.632 -5.15901 1.0561 0
M  V30 1299 H 136.123 -3.60011 1.14893 0
M  V30 1300 H 136.436 -7.14793 2.93752 0
M  V30 1301 H 134.781 -6.43097 2.63537 0
M  V30 1302 H 137.972 -4.43308 1.5032 0
M  V30 1303 H 138.145 -6.05099 2.3186 0
M  V30 1304 N 131.551 -0.354651 -1.53558 0
M  V30 1305 C 132.514 0.484566 -2.24019 0
M  V30 1306 C 133.514 1.01861 -1.24422 0
M  V30 1307 O 134.704 0.906097 -1.4878 0
M  V30 1308 C 131.836 1.67615 -2.96847 0
M  V30 1309 H 133.029 -0.131843 -2.9961 0
M  V30 1310 H 130.582 -0.106165 -1.55939 0
M  V30 1311 H 131.317 2.33095 -2.25471 0
M  V30 1312 H 131.102 1.30029 -3.69912 0
M  V30 1313 H 132.592 2.27114 -3.50441 0
M  V30 1314 N 133.029 1.57378 -0.0835403 0
M  V30 1315 C 134.306 1.85363 0.624507 0
M  V30 1316 C 134.686 0.978239 1.87066 0
M  V30 1317 O 134.034 0.0475908 2.2845 0
M  V30 1318 C 134.244 3.35795 0.950947 0
M  V30 1319 C 135.592 4.03581 1.31939 0
M  V30 1320 O 136.616 3.40609 1.04232 0
M  V30 1321 O 135.475 5.14672 1.83779 0
M  V30 1322 H 132.569 0.766162 0.311329 0
M  V30 1323 H 135.115 1.69307 -0.115362 0
M  V30 1324 H 133.887 3.91244 0.0663899 0
M  V30 1325 H 133.51 3.57154 1.74719 0
M  V30 1326 N 134.507 -0.190092 1.56449 0
M  V30 1327 C 135.753 -0.911052 1.81184 0
M  V30 1328 C 136.086 -1.82699 0.658396 0
M  V30 1329 O 135.361 -1.91491 -0.340775 0
M  V30 1330 C 135.644 -1.72297 3.16205 0
M  V30 1331 C 135.497 -0.831419 4.42049 0
M  V30 1332 C 136.816 -2.69454 3.47969 0
M  V30 1333 H 133.935 -0.32977 0.659106 0
M  V30 1334 H 136.577 -0.178169 1.89163 0
M  V30 1335 H 134.727 -2.34778 3.09534 0
M  V30 1336 H 136.399 -0.220929 4.60771 0
M  V30 1337 H 134.642 -0.138406 4.33579 0
M  V30 1338 H 135.313 -1.43461 5.33032 0
M  V30 1339 H 137.789 -2.17104 3.54972 0
M  V30 1340 H 136.665 -3.23342 4.43555 0
M  V30 1341 H 136.926 -3.48744 2.71717 0
M  V30 1342 N 135.985 -1.50799 -0.457987 0
M  V30 1343 C 136.948 -1.7005 -1.53674 0
M  V30 1344 C 137.948 -0.570881 -1.50325 0
M  V30 1345 O 139.138 -0.838126 -1.52712 0
M  V30 1346 C 136.27 -1.73788 -2.93276 0
M  V30 1347 H 137.463 -2.66306 -1.37917 0
M  V30 1348 H 135.016 -1.40477 -0.685271 0
M  V30 1349 H 135.751 -0.792717 -3.14462 0
M  V30 1350 H 135.536 -2.55864 -2.97113 0
M  V30 1351 H 137.026 -1.90591 -3.71571 0
M  V30 1352 N 137.463 0.71206 -1.40597 0
M  V30 1353 C 138.879 1.02058 -1.22704 0
M  V30 1354 C 139.079 2.01228 -0.104729 0
M  V30 1355 O 138.135 2.4674 0.53624 0
M  V30 1356 C 139.448 1.56094 -2.57012 0
M  V30 1357 C 140.996 1.6806 -2.64054 0
M  V30 1358 C 141.471 2.25501 -3.9864 0
M  V30 1359 N 142.962 2.32882 -4.004 0
M  V30 1360 C 143.697 2.78317 -5.01325 0
M  V30 1361 N 143.193 3.23478 -6.12645 0
M  V30 1362 N 144.986 2.77733 -4.88693 0
M  V30 1363 H 137.137 0.0547896 -2.12329 0
M  V30 1364 H 139.4 0.0869027 -0.944008 0
M  V30 1365 H 139.106 0.906865 -3.39807 0
M  V30 1366 H 138.98 2.54564 -2.78347 0
M  V30 1367 H 141.367 2.32583 -1.81629 0
M  V30 1368 H 141.448 0.681802 -2.46546 0
M  V30 1369 H 141.092 1.61598 -4.81506 0
M  V30 1370 H 141.022 3.26102 -4.13479 0
M  V30 1371 H 143.513 2.00991 -3.20017 0
M  V30 1372 H 143.826 3.56725 -6.85542 0
M  V30 1373 H 142.171 3.21429 -6.16205 0
M  V30 1374 H 145.362 2.4179 -4.00818 0
M  V30 1375 H 145.535 3.12826 -5.67489 0
M  V30 1376 N 138.941 1.26152 0.944643 0
M  V30 1377 C 139.904 1.07474 2.0244 0
M  V30 1378 C 140.904 0.0242064 1.60782 0
M  V30 1379 O 142.094 0.267302 1.72137 0
M  V30 1380 C 139.226 0.633956 3.34953 0
M  V30 1381 H 140.419 2.03336 2.20442 0
M  V30 1382 H 137.972 1.087 1.12312 0
M  V30 1383 H 138.707 -0.326811 3.22649 0
M  V30 1384 H 138.492 1.39247 3.66542 0
M  V30 1385 H 139.982 0.52501 4.14287 0
M  V30 1386 N 140.419 -1.14872 1.07899 0
M  V30 1387 C 141.382 -2.17986 0.708161 0
M  V30 1388 C 142.382 -1.58775 -0.25442 0
M  V30 1389 O 143.572 -1.74166 -0.034645 0
M  V30 1390 C 140.704 -3.40871 0.0446929 0
M  V30 1391 H 141.897 -2.52306 1.62116 0
M  V30 1392 H 139.45 -1.2943 0.876218 0
M  V30 1393 H 140.185 -3.12124 -0.880281 0
M  V30 1394 H 139.97 -3.8511 0.737091 0
M  V30 1395 H 141.46 -4.17121 -0.19991 0
M  V30 1396 N 141.898 -0.863906 -1.31812 0
M  V30 1397 C 142.828 -0.330843 -2.31144 0
M  V30 1398 C 143.809 0.575005 -1.60087 0
M  V30 1399 O 144.994 0.493304 -1.8783 0
M  V30 1400 C 142.124 0.47374 -3.44054 0
M  V30 1401 C 141.078 -0.338481 -4.26659 0
M  V30 1402 C 140.404 0.591412 -5.31419 0
M  V30 1403 C 141.704 -1.56926 -4.98168 0
M  V30 1404 H 143.398 -1.16086 -2.75979 0
M  V30 1405 H 140.944 -0.559657 -1.32679 0
M  V30 1406 H 142.897 0.857143 -4.12591 0
M  V30 1407 H 141.621 1.33721 -2.9797 0
M  V30 1408 H 140.28 -0.703754 -3.59782 0
M  V30 1409 H 139.928 1.45199 -4.81587 0
M  V30 1410 H 139.628 0.0519022 -5.87577 0
M  V30 1411 H 141.152 0.97179 -6.02817 0
M  V30 1412 H 142.566 -1.25764 -5.59336 0
M  V30 1413 H 140.963 -2.04739 -5.64094 0
M  V30 1414 H 142.033 -2.32544 -4.25501 0
M  V30 1415 N 143.376 1.44774 -0.622745 0
M  V30 1416 C 144.308 2.28856 0.125485 0
M  V30 1417 C 145.321 1.40811 0.817069 0
M  V30 1418 O 146.51 1.65044 0.679918 0
M  V30 1419 C 143.61 3.16963 1.19949 0
M  V30 1420 C 142.783 4.33374 0.592064 0
M  V30 1421 C 141.842 5.02577 1.55893 0
M  V30 1422 O 140.868 5.58873 1.07933 0
M  V30 1423 N 142.07 5.03256 2.89334 0
M  V30 1424 H 144.835 2.93713 -0.596068 0
M  V30 1425 H 142.396 1.55129 -0.463303 0
M  V30 1426 H 144.388 3.60123 1.84644 0
M  V30 1427 H 142.958 2.53913 1.82337 0
M  V30 1428 H 142.178 3.93509 -0.233322 0
M  V30 1429 H 143.466 5.08527 0.166738 0
M  V30 1430 H 142.864 4.58836 3.30887 0
M  V30 1431 H 141.421 5.50232 3.49412 0
M  V30 1432 N 144.854 0.36279 1.53368 0
M  V30 1433 C 146.079 -0.231226 2.06107 0
M  V30 1434 C 146.504 -1.419 1.23474 0
M  V30 1435 O 145.862 -1.79524 0.253128 0
M  V30 1436 C 145.91 -0.605523 3.5548 0
M  V30 1437 O 145.014 -1.70312 3.7559 0
M  V30 1438 H 144.355 -0.034327 0.663112 0
M  V30 1439 H 146.885 0.522584 1.97814 0
M  V30 1440 H 146.895 -0.877314 3.98456 0
M  V30 1441 H 145.57 0.263004 4.15068 0
M  V30 1442 H 144.147 -1.4271 3.44512 0
M  V30 1443 N 146.332 -1.57332 0.0918853 0
M  V30 1444 C 147.58 -1.93853 -0.571446 0
M  V30 1445 C 147.901 -0.974212 -1.6892 0
M  V30 1446 O 147.171 -0.0257254 -1.95883 0
M  V30 1447 H 145.751 -0.715666 -0.214082 0
M  V30 1448 H 148.413 -1.94287 0.154464 0
M  V30 1449 H 147.509 -2.96191 -0.983729 0
M  V30 1450 N 147.81 0.181792 -1.56548 0
M  V30 1451 C 148.773 1.20894 -1.94724 0
M  V30 1452 C 149.773 1.37738 -0.829747 0
M  V30 1453 O 150.963 1.35323 -1.09697 0
M  V30 1454 C 148.095 2.57593 -2.23291 0
M  V30 1455 H 149.288 0.882275 -2.86629 0
M  V30 1456 H 146.841 0.423838 -1.50444 0
M  V30 1457 H 147.576 2.95291 -1.34067 0
M  V30 1458 H 147.361 2.46735 -3.04736 0
M  V30 1459 H 148.851 3.31637 -2.53785 0
M  V30 1460 N 149.288 1.51039 0.449983 0
M  V30 1461 C 150.704 1.38934 0.785462 0
M  V30 1462 C 150.904 0.461817 1.96136 0
M  V30 1463 O 149.96 -0.0877389 2.52348 0
M  V30 1464 C 151.273 2.80724 1.0777 0
M  V30 1465 C 152.821 2.89787 1.1829 0
M  V30 1466 C 153.296 4.32457 1.50815 0
M  V30 1467 N 154.787 4.35505 1.57764 0
M  V30 1468 C 155.522 5.42914 1.84477 0
M  V30 1469 N 155.018 6.60502 2.09068 0
M  V30 1470 N 156.811 5.3038 1.86155 0
M  V30 1471 H 148.962 2.09904 -0.324647 0
M  V30 1472 H 151.225 0.944378 -0.0827957 0
M  V30 1473 H 150.931 3.50531 0.286498 0
M  V30 1474 H 150.805 3.19273 2.00859 0
M  V30 1475 H 153.192 2.20186 1.96474 0
M  V30 1476 H 153.273 2.54752 0.231314 0
M  V30 1477 H 152.917 5.02603 0.731622 0
M  V30 1478 H 152.847 4.64995 2.47158 0
M  V30 1479 H 155.338 3.50724 1.40715 0
M  V30 1480 H 155.651 7.38158 2.28785 0
M  V30 1481 H 153.996 6.63639 2.06416 0
M  V30 1482 H 157.187 4.37505 1.66454 0
M  V30 1483 H 157.36 6.1417 2.06637 0
M  V30 1484 N 150.766 -0.704594 1.40972 0
M  V30 1485 C 152.015 -1.46018 1.39146 0
M  V30 1486 C 152.328 -1.956 0.000589254 0
M  V30 1487 O 153.534 -2.71137 -0.1403 0
M  V30 1488 C 151.99 -2.63996 2.4461 0
M  V30 1489 C 151.598 -2.21238 3.89561 0
M  V30 1490 C 153.342 -3.41677 2.51907 0
M  V30 1491 C 151.249 -3.3612 4.86598 0
M  V30 1492 H 150.179 -0.548444 0.517422 0
M  V30 1493 H 152.83 -0.765784 1.66757 0
M  V30 1494 H 151.212 -3.3566 2.10115 0
M  V30 1495 H 152.386 -1.56923 4.33257 0
M  V30 1496 H 150.701 -1.56574 3.85841 0
M  V30 1497 H 153.298 -4.27182 3.2159 0
M  V30 1498 H 153.641 -3.86247 1.55303 0
M  V30 1499 H 154.174 -2.77064 2.85448 0
M  V30 1500 H 150.913 -2.96572 5.84573 0
M  V30 1501 H 150.433 -3.99315 4.47557 0
M  V30 1502 H 152.112 -4.02029 5.06934 0
M  V30 1503 N 152.244 -1.26651 -0.937939 0
M  V30 1504 C 153.49 -1.12553 -1.687 0
M  V30 1505 C 153.823 0.329782 -1.91379 0
M  V30 1506 O 153.098 1.24202 -1.4968 0
M  V30 1507 C 153.381 -1.89862 -3.05981 0
M  V30 1508 C 153.234 -3.43318 -2.90607 0
M  V30 1509 C 154.553 -1.69499 -4.0615 0
M  V30 1510 H 151.672 -0.410257 -0.612257 0
M  V30 1511 H 154.314 -1.55685 -1.08913 0
M  V30 1512 H 152.464 -1.53204 -3.57017 0
M  V30 1513 H 154.136 -3.89747 -2.46769 0
M  V30 1514 H 152.379 -3.70179 -2.26164 0
M  V30 1515 H 153.05 -3.92642 -3.8799 0
M  V30 1516 H 155.526 -2.01442 -3.64088 0
M  V30 1517 H 154.402 -2.26002 -5.00214 0
M  V30 1518 H 154.663 -0.640365 -4.37438 0
M  V30 1519 N 153.722 1.14298 -1.08507 0
M  V30 1520 C 154.67 2.21483 -0.710483 0
M  V30 1521 C 155.664 1.66998 0.284234 0
M  V30 1522 O 156.87 1.79401 0.146692 0
M  V30 1523 H 153.245 0.721578 -0.211729 0
M  V30 1524 H 155.216 2.50348 -1.62384 0
M  V30 1525 C 153.965 3.4743 -0.137007 0
M  V30 1526 H 153.288 3.89686 -0.893592 0
M  V30 1527 H 154.728 4.2391 0.0872789 0
M  V30 1528 C 153.187 3.17548 1.12538 0
M  V30 1529 O 153.717 3.35437 2.21009 0
M  V30 1530 N 151.923 2.71499 1.03617 0
M  V30 1531 H 151.47 2.57143 0.153403 0
M  V30 1532 H 151.428 2.51881 1.88158 0
M  V30 1533 N 155.201 0.870884 1.31352 0
M  V30 1534 C 156.478 0.402907 1.91405 0
M  V30 1535 C 156.858 -1.11512 1.79244 0
M  V30 1536 O 156.206 -1.94411 1.2007 0
M  V30 1537 C 156.416 0.885301 3.37585 0
M  V30 1538 C 157.764 0.911971 4.14691 0
M  V30 1539 O 158.788 0.831016 3.46371 0
M  V30 1540 O 157.647 1.02927 5.3672 0
M  V30 1541 H 154.741 0.120698 0.818145 0
M  V30 1542 H 157.287 0.958857 1.40014 0
M  V30 1543 H 156.059 1.92889 3.40455 0
M  V30 1544 H 155.682 0.307714 3.96407 0
M  V30 1545 N 156.679 -1.44442 0.630414 0
M  V30 1546 C 157.925 -2.02351 0.134816 0
M  V30 1547 C 158.258 -1.4947 -1.23986 0
M  V30 1548 O 157.533 -0.678475 -1.82283 0
M  V30 1549 C 157.816 -3.59898 0.120707 0
M  V30 1550 C 157.669 -4.23063 1.52767 0
M  V30 1551 C 158.988 -4.36585 -0.555127 0
M  V30 1552 H 156.107 -0.73527 0.0504646 0
M  V30 1553 H 158.749 -1.72022 0.806751 0
M  V30 1554 H 156.899 -3.85868 -0.451477 0
M  V30 1555 H 158.571 -4.08202 2.14869 0
M  V30 1556 H 156.814 -3.80586 2.08175 0
M  V30 1557 H 157.485 -5.32071 1.46984 0
M  V30 1558 H 159.961 -4.16044 -0.0685429 0
M  V30 1559 H 158.837 -5.46294 -0.534185 0
M  V30 1560 H 159.098 -4.11138 -1.62535 0
M  V30 1561 N 158.157 -0.370918 -1.53173 0
M  V30 1562 C 159.382 0.220293 -2.06227 0
M  V30 1563 C 159.807 1.41243 -1.24225 0
M  V30 1564 O 159.165 1.79387 -0.262645 0
M  V30 1565 C 159.213 0.586663 -3.55796 0
M  V30 1566 O 158.317 1.68317 -3.76488 0
M  V30 1567 H 157.658 0.0308099 -0.663285 0
M  V30 1568 H 160.188 -0.533068 -1.97534 0
M  V30 1569 H 160.198 0.85617 -3.98916 0
M  V30 1570 H 158.873 -0.285013 -4.14922 0
M  V30 1571 H 157.45 1.40881 -3.45264 0
M  V30 1572 N 159.635 1.57281 -0.100228 0
M  V30 1573 C 160.883 1.94153 0.561157 0
M  V30 1574 C 161.204 0.983157 1.68401 0
M  V30 1575 O 160.474 0.0361132 1.95867 0
M  V30 1576 H 159.054 0.716791 0.210283 0
M  V30 1577 H 161.716 1.94202 -0.164765 0
M  V30 1578 H 160.812 2.96709 0.968008 0
M  V30 1579 N 161.113 -0.173488 1.56642 0
M  V30 1580 C 162.361 -0.888706 1.81512 0
M  V30 1581 C 162.682 -1.82875 0.676872 0
M  V30 1582 O 161.952 -1.93536 -0.303414 0
M  V30 1583 H 160.532 -0.331164 0.669582 0
M  V30 1584 H 163.194 -0.173823 1.94123 0
M  V30 1585 H 162.29 -1.46691 2.75478 0
M  V30 1586 N 162.591 -1.51276 -0.441967 0
M  V30 1587 C 164.007 -1.39349 -0.778083 0
M  V30 1588 C 164.207 -0.472212 -1.95889 0
M  V30 1589 O 163.263 0.0743551 -2.5239 0
M  V30 1590 C 164.576 -2.81292 -1.0628 0
M  V30 1591 C 166.124 -2.9041 -1.16751 0
M  V30 1592 C 166.599 -4.33251 -1.48519 0
M  V30 1593 N 168.09 -4.36336 -1.55453 0
M  V30 1594 C 168.825 -5.43885 -1.81596 0
M  V30 1595 N 168.321 -6.61601 -2.05562 0
M  V30 1596 N 170.114 -5.3136 -1.8334 0
M  V30 1597 H 162.265 -2.09729 0.335774 0
M  V30 1598 H 164.528 -0.943925 0.0878028 0
M  V30 1599 H 164.234 -3.50678 -0.267905 0
M  V30 1600 H 164.108 -3.20334 -1.99163 0
M  V30 1601 H 166.495 -2.21225 -1.95304 0
M  V30 1602 H 166.576 -2.54871 -0.217801 0
M  V30 1603 H 166.22 -5.02984 -0.704958 0
M  V30 1604 H 166.15 -4.66299 -2.44689 0
M  V30 1605 H 168.641 -3.51466 -1.38853 0
M  V30 1606 H 168.954 -7.39361 -2.24867 0
M  V30 1607 H 167.299 -6.64725 -2.02894 0
M  V30 1608 H 170.49 -4.38382 -1.64132 0
M  V30 1609 H 170.663 -6.15258 -2.03377 0
M  V30 1610 N 164.069 0.697108 -1.41344 0
M  V30 1611 C 165.032 1.79281 -1.42797 0
M  V30 1612 C 166.032 1.57607 -0.318837 0
M  V30 1613 O 167.222 1.64309 -0.578642 0
M  V30 1614 C 164.354 3.17632 -1.23785 0
M  V30 1615 H 165.547 1.79385 -2.40335 0
M  V30 1616 H 163.1 0.904582 -1.27464 0
M  V30 1617 H 163.835 3.23167 -0.270814 0
M  V30 1618 H 163.62 3.34765 -2.04144 0
M  V30 1619 H 165.11 3.97617 -1.27633 0
M  V30 1620 N 165.547 1.27147 0.931209 0
M  V30 1621 C 166.824 1.0401 1.65654 0
M  V30 1622 C 167.204 -0.426297 2.06751 0
M  V30 1623 O 166.552 -1.40879 1.79904 0
M  V30 1624 C 166.762 1.99834 2.86125 0
M  V30 1625 C 168.11 2.29007 3.57549 0
M  V30 1626 O 169.134 1.97779 2.96246 0
M  V30 1627 O 167.993 2.82222 4.67989 0
M  V30 1628 H 165.087 0.396239 0.725895 0
M  V30 1629 H 167.633 1.38397 0.982056 0
M  V30 1630 H 166.405 2.98744 2.52721 0
M  V30 1631 H 166.028 1.65987 3.61295 0
M  V30 1632 N 167.025 -1.13721 1.09112 0
M  V30 1633 C 168.436 -1.6648 0.845068 0
M  V30 1634 C 168.787 -1.85911 -0.62701 0
M  V30 1635 O 167.912 -1.57556 -1.48341 0
M  V30 1636 C 168.507 -3.02413 1.52748 0
M  V30 1637 C 167.066 -3.52176 1.32849 0
M  V30 1638 C 166.213 -2.27492 1.58564 0
M  V30 1639 H 169.164 -0.976872 1.25072 0
M  V30 1640 H 169.185 -3.68223 0.958752 0
M  V30 1641 H 168.697 -2.88238 2.59885 0
M  V30 1642 H 166.798 -3.7156 0.278137 0
M  V30 1643 H 166.911 -4.32499 2.0611 0
M  V30 1644 H 165.275 -2.33923 1.00758 0
M  V30 1645 H 166.058 -2.15886 2.66924 0
M  V30 1646 N 168.503 -0.877838 -1.30888 0
M  V30 1647 C 169.466 -0.344265 -2.266 0
M  V30 1648 C 170.466 0.50922 -1.52524 0
M  V30 1649 O 171.656 0.317398 -1.71284 0
M  V30 1650 C 168.788 0.510198 -3.37061 0
M  V30 1651 H 169.981 -1.1893 -2.7531 0
M  V30 1652 H 167.534 -0.654088 -1.41956 0
M  V30 1653 H 168.269 1.37612 -2.93655 0
M  V30 1654 H 168.054 -0.101047 -3.9197 0
M  V30 1655 H 169.544 0.875537 -4.08319 0
M  V30 1656 N 169.982 1.44106 -0.638065 0
M  V30 1657 C 170.915 2.27924 0.112161 0
M  V30 1658 C 171.893 1.38945 0.844574 0
M  V30 1659 O 173.077 1.68386 0.847248 0
M  V30 1660 C 170.204 3.18029 1.16512 0
M  V30 1661 C 169.25 4.23163 0.532458 0
M  V30 1662 S 170.083 5.31131 -0.682666 0
M  V30 1663 C 171.239 6.24805 0.37013 0
M  V30 1664 H 171.472 2.91205 -0.598887 0
M  V30 1665 H 169.005 1.48394 -0.426441 0
M  V30 1666 H 170.963 3.70492 1.76766 0
M  V30 1667 H 169.624 2.53955 1.8484 0
M  V30 1668 H 168.817 4.86252 1.32571 0
M  V30 1669 H 168.419 3.74 0.00437644 0
M  V30 1670 H 170.711 6.66042 1.24071 0
M  V30 1671 H 171.654 7.07741 -0.225349 0
M  V30 1672 H 172.062 5.60154 0.699141 0
M  V30 1673 N 171.46 0.379036 1.52974 0
M  V30 1674 C 172.423 -0.448865 2.24762 0
M  V30 1675 C 173.423 -0.998689 1.26027 0
M  V30 1676 O 174.613 -0.882313 1.50203 0
M  V30 1677 C 171.745 -1.62872 2.99476 0
M  V30 1678 H 172.938 0.179491 2.99362 0
M  V30 1679 H 170.491 0.13096 1.5575 0
M  V30 1680 H 171.226 -2.29479 2.29151 0
M  V30 1681 H 171.011 -1.24128 3.71934 0
M  V30 1682 H 172.501 -2.2151 3.5401 0
M  V30 1683 N 172.938 -1.57226 0.108567 0
M  V30 1684 C 174.349 -1.8195 -0.418464 0
M  V30 1685 C 174.7 -1.02508 -1.67292 0
M  V30 1686 O 173.825 -0.258496 -2.14851 0
M  V30 1687 C 174.42 -3.30028 -0.765979 0
M  V30 1688 C 172.979 -3.55469 -1.23769 0
M  V30 1689 C 172.126 -2.7625 -0.241106 0
M  V30 1690 H 175.077 -1.55149 0.33384 0
M  V30 1691 H 175.098 -3.44086 -1.62434 0
M  V30 1692 H 174.61 -3.87821 0.147219 0
M  V30 1693 H 172.711 -3.03022 -2.16814 0
M  V30 1694 H 172.824 -4.6408 -1.19022 0
M  V30 1695 H 171.188 -2.44133 -0.72602 0
M  V30 1696 H 171.971 -3.36797 0.665007 0
M  V30 1697 N 174.416 0.165178 -1.56732 0
M  V30 1698 C 175.346 1.20651 -1.99914 0
M  V30 1699 C 176.327 1.45827 -0.875705 0
M  V30 1700 O 177.512 1.57057 -1.14223 0
M  V30 1701 C 174.642 2.54401 -2.36427 0
M  V30 1702 C 173.596 2.43782 -3.51787 0
M  V30 1703 C 172.922 3.82078 -3.7406 0
M  V30 1704 C 174.222 1.93732 -4.85041 0
M  V30 1705 H 175.916 0.847534 -2.87154 0
M  V30 1706 H 173.462 0.40625 -1.38151 0
M  V30 1707 H 175.415 3.27458 -2.65234 0
M  V30 1708 H 174.139 2.92098 -1.46103 0
M  V30 1709 H 172.798 1.73178 -3.23117 0
M  V30 1710 H 172.446 4.17179 -2.81017 0
M  V30 1711 H 172.146 3.7584 -4.51684 0
M  V30 1712 H 173.67 4.56712 -4.05274 0
M  V30 1713 H 175.084 2.56569 -5.12684 0
M  V30 1714 H 173.481 1.98428 -5.66345 0
M  V30 1715 H 174.551 0.891962 -4.76626 0
M  V30 1716 N 175.894 1.51508 0.433938 0
M  V30 1717 C 177.14 1.64588 1.18484 0
M  V30 1718 C 177.473 0.362666 1.90784 0
M  V30 1719 O 176.748 -0.637892 1.83742 0
M  V30 1720 C 177.031 2.85149 2.19913 0
M  V30 1721 C 176.884 4.23456 1.51674 0
M  V30 1722 C 178.203 3.01227 3.20858 0
M  V30 1723 H 175.322 0.598994 0.429389 0
M  V30 1724 H 177.964 1.84002 0.473647 0
M  V30 1725 H 176.114 2.68729 2.80566 0
M  V30 1726 H 177.786 4.51552 0.943322 0
M  V30 1727 H 176.029 4.25998 0.819035 0
M  V30 1728 H 176.7 5.03812 2.2556 0
M  V30 1729 H 179.176 3.16382 2.70263 0
M  V30 1730 H 178.052 3.87141 3.89118 0
M  V30 1731 H 178.313 2.13447 3.8716 0
M  V30 1732 N 177.372 -0.689602 1.41712 0
M  V30 1733 C 178.335 -1.78521 1.43746 0
M  V30 1734 C 179.335 -1.57436 0.327191 0
M  V30 1735 O 180.525 -1.64 0.587348 0
M  V30 1736 C 177.657 -3.16971 1.25467 0
M  V30 1737 H 178.85 -1.78108 2.41283 0
M  V30 1738 H 176.403 -0.89781 1.27942 0
M  V30 1739 H 177.138 -3.23019 0.287948 0
M  V30 1740 H 176.923 -3.33678 2.05917 0
M  V30 1741 H 178.413 -3.96935 1.2974 0
M  V30 1742 N 178.85 -1.27639 -0.924453 0
M  V30 1743 C 179.76 -1.12466 -2.05885 0
M  V30 1744 C 180.776 -0.053869 -1.73917 0
M  V30 1745 O 181.952 -0.261012 -1.99702 0
M  V30 1746 C 179.017 -0.776768 -3.37886 0
M  V30 1747 C 178.078 -1.92878 -3.83532 0
M  V30 1748 C 177.311 -1.59739 -5.09234 0
M  V30 1749 O 177.534 -0.506782 -5.68144 0
M  V30 1750 O 176.468 -2.43761 -5.50331 0
M  V30 1751 H 180.294 -2.07671 -2.21599 0
M  V30 1752 H 177.879 -1.06857 -1.04413 0
M  V30 1753 H 179.761 -0.596229 -4.17161 0
M  V30 1754 H 178.436 0.145732 -3.23372 0
M  V30 1755 H 177.343 -2.1644 -3.0513 0
M  V30 1756 H 178.676 -2.8316 -4.02593 0
M  V30 1757 N 180.328 1.1314 -1.09713 0
M  V30 1758 C 181.291 2.16831 -0.742751 0
M  V30 1759 C 182.291 1.59159 0.229129 0
M  V30 1760 O 183.481 1.74199 0.00693237 0
M  V30 1761 C 180.613 3.40756 -0.0989168 0
M  V30 1762 H 181.806 2.49695 -1.66109 0
M  V30 1763 H 179.359 1.2802 -0.896699 0
M  V30 1764 H 180.094 3.13485 0.830514 0
M  V30 1765 H 179.879 3.83888 -0.798265 0
M  V30 1766 H 181.369 4.17386 0.133524 0
M  V30 1767 N 181.806 0.884767 1.30421 0
M  V30 1768 C 183.054 0.502112 1.95763 0
M  V30 1769 C 183.375 -0.951815 1.70192 0
M  V30 1770 O 182.645 -1.6692 1.0254 0
M  V30 1771 H 181.225 0.182694 0.724315 0
M  V30 1772 H 183.887 1.1278 1.58955 0
M  V30 1773 H 182.983 0.672188 3.04775 0
M  V30 1774 N 183.284 -1.43765 0.645699 0
M  V30 1775 C 184.53 -2.02197 0.156271 0
M  V30 1776 C 184.863 -1.50776 -1.22393 0
M  V30 1777 O 184.138 -0.697771 -1.81553 0
M  V30 1778 C 184.421 -3.59749 0.158872 0
M  V30 1779 C 184.274 -4.21419 1.57245 0
M  V30 1780 C 185.593 -4.37149 -0.50879 0
M  V30 1781 H 182.712 -0.734694 0.0582602 0
M  V30 1782 H 185.354 -1.71157 0.824951 0
M  V30 1783 H 183.504 -3.86325 -0.410525 0
M  V30 1784 H 185.176 -4.059 2.19186 0
M  V30 1785 H 183.419 -3.78356 2.122 0
M  V30 1786 H 184.09 -5.30482 1.52619 0
M  V30 1787 H 186.566 -4.16093 -0.024412 0
M  V30 1788 H 185.442 -5.4683 -0.476213 0
M  V30 1789 H 185.703 -4.12839 -1.58165 0
M  V30 1790 N 184.763 -0.387143 -1.52771 0
M  V30 1791 C 185.726 0.436939 -2.24997 0
M  V30 1792 C 186.726 0.991991 -1.26555 0
M  V30 1793 O 187.916 0.874335 -1.50669 0
M  V30 1794 C 185.048 1.61281 -3.00335 0
M  V30 1795 H 186.241 -0.195365 -2.99263 0
M  V30 1796 H 183.794 -0.139218 -1.55679 0
M  V30 1797 H 184.529 2.2826 -2.30364 0
M  V30 1798 H 184.314 1.22154 -3.72587 0
M  V30 1799 H 185.804 2.19629 -3.5518 0
M  V30 1800 N 186.241 1.57166 -0.116904 0
M  V30 1801 C 187.487 1.96206 0.536166 0
M  V30 1802 C 187.842 0.99915 1.64422 0
M  V30 1803 O 187.135 0.0288195 1.91578 0
M  V30 1804 C 187.329 3.39508 1.11664 0
M  V30 1805 C 187.158 4.49651 0.0663474 0
M  V30 1806 C 185.928 5.03982 -0.36474 0
M  V30 1807 C 188.126 5.09322 -0.713829 0
M  V30 1808 N 186.108 5.97699 -1.40102 0
M  V30 1809 C 187.479 5.98963 -1.60136 0
M  V30 1810 C 189.534 4.91989 -0.764948 0
M  V30 1811 C 188.237 6.73128 -2.53556 0
M  V30 1812 C 190.263 5.66833 -1.68685 0
M  V30 1813 C 189.625 6.56158 -2.56196 0
M  V30 1814 H 185.724 0.764203 0.165886 0
M  V30 1815 H 188.308 1.93623 -0.204535 0
M  V30 1816 H 186.479 3.42743 1.82707 0
M  V30 1817 H 188.211 3.65677 1.73386 0
M  V30 1818 H 184.966 4.73592 0.027252 0
M  V30 1819 H 185.39 6.49262 -1.91802 0
M  V30 1820 H 190.032 4.22676 -0.102501 0
M  V30 1821 H 187.75 7.41689 -3.20816 0
M  V30 1822 H 191.336 5.55427 -1.73181 0
M  V30 1823 H 190.216 7.13057 -3.26372 0
M  V30 1824 N 187.719 -0.156864 1.56817 0
M  V30 1825 C 188.965 -0.872416 1.83076 0
M  V30 1826 C 189.298 -1.81261 0.697001 0
M  V30 1827 O 188.573 -1.92171 -0.30008 0
M  V30 1828 C 188.856 -1.65551 3.19789 0
M  V30 1829 C 188.709 -0.737467 4.43713 0
M  V30 1830 C 190.028 -2.62012 3.53606 0
M  V30 1831 H 187.147 -0.315715 0.665953 0
M  V30 1832 H 189.789 -0.138004 1.89498 0
M  V30 1833 H 187.939 -2.28159 3.14445 0
M  V30 1834 H 189.611 -0.123143 4.61136 0
M  V30 1835 H 187.854 -0.0464067 4.33775 0
M  V30 1836 H 188.525 -1.32122 5.35955 0
M  V30 1837 H 191.001 -2.09525 3.59497 0
M  V30 1838 H 189.877 -3.13861 4.50314 0
M  V30 1839 H 190.138 -3.42902 2.79053 0
M  V30 1840 N 189.197 -1.51736 -0.425897 0
M  V30 1841 C 190.127 -1.76827 -1.52494 0
M  V30 1842 C 191.108 -0.618524 -1.58456 0
M  V30 1843 O 192.293 -0.862416 -1.74 0
M  V30 1844 C 189.423 -1.90374 -2.90474 0
M  V30 1845 C 188.377 -3.0588 -2.99369 0
M  V30 1846 C 187.703 -3.04625 -4.3944 0
M  V30 1847 C 189.003 -4.45644 -2.72394 0
M  V30 1848 H 190.697 -2.68855 -1.31748 0
M  V30 1849 H 188.243 -1.29372 -0.632362 0
M  V30 1850 H 190.196 -2.0651 -3.6733 0
M  V30 1851 H 188.92 -0.95004 -3.12477 0
M  V30 1852 H 187.579 -2.89467 -2.24954 0
M  V30 1853 H 187.227 -2.0701 -4.58428 0
M  V30 1854 H 186.927 -3.82195 -4.46319 0
M  V30 1855 H 188.451 -3.22869 -5.18255 0
M  V30 1856 H 189.865 -4.62348 -3.38979 0
M  V30 1857 H 188.262 -5.25006 -2.9067 0
M  V30 1858 H 189.332 -4.54893 -1.67929 0
M  V30 1859 N 190.675 0.682077 -1.42076 0
M  V30 1860 C 191.608 1.80666 -1.3941 0
M  V30 1861 C 192.586 1.60518 -0.25939 0
M  V30 1862 O 193.77 1.83088 -0.448456 0
M  V30 1863 C 190.897 3.17556 -1.17796 0
M  V30 1864 C 189.943 3.56468 -2.34164 0
M  V30 1865 S 190.776 3.59729 -3.96681 0
M  V30 1866 C 191.932 4.99323 -3.77395 0
M  V30 1867 H 192.165 1.82652 -2.34575 0
M  V30 1868 H 189.698 0.852062 -1.2876 0
M  V30 1869 H 191.656 3.96575 -1.06012 0
M  V30 1870 H 190.317 3.13164 -0.242279 0
M  V30 1871 H 189.51 4.5595 -2.1477 0
M  V30 1872 H 189.112 2.84792 -2.42425 0
M  V30 1873 H 191.404 5.87202 -3.37935 0
M  V30 1874 H 192.347 5.23763 -4.76527 0
M  V30 1875 H 192.755 4.71498 -3.10403 0
M  V30 1876 N 192.153 1.28127 0.917671 0
M  V30 1877 C 193.103 1.08361 2.00604 0
M  V30 1878 C 194.087 0.00847518 1.60898 0
M  V30 1879 O 195.279 0.228167 1.75523 0
M  V30 1880 C 192.408 0.743376 3.35155 0
M  V30 1881 C 191.494 1.85716 3.81275 0
M  V30 1882 N 191.885 3.09822 3.99805 0
M  V30 1883 C 190.183 1.74612 4.10398 0
M  V30 1884 C 190.884 3.82368 4.38372 0
M  V30 1885 N 189.86 3.10192 4.4641 0
M  V30 1886 H 193.662 2.02531 2.12975 0
M  V30 1887 H 191.176 1.18989 1.10523 0
M  V30 1888 H 193.173 0.582859 4.12805 0
M  V30 1889 H 191.833 -0.190595 3.2414 0
M  V30 1890 H 192.844 3.45475 3.85833 0
M  V30 1891 H 189.521 0.883657 4.08041 0
M  V30 1892 H 190.911 4.89082 4.60704 0
M  V30 1893 N 193.631 -1.12557 1.10312 0
M  V30 1894 C 194.877 -1.84515 0.855901 0
M  V30 1895 C 195.232 -1.82409 -0.611936 0
M  V30 1896 O 194.525 -1.25778 -1.44535 0
M  V30 1897 C 194.719 -3.31462 1.33669 0
M  V30 1898 C 194.548 -3.47879 2.84974 0
M  V30 1899 C 193.318 -3.61589 3.52961 0
M  V30 1900 C 195.516 -3.43152 3.83081 0
M  V30 1901 N 193.498 -3.66359 4.926 0
M  V30 1902 C 194.869 -3.54401 5.08724 0
M  V30 1903 C 196.924 -3.2661 3.75807 0
M  V30 1904 C 195.627 -3.50815 6.2795 0
M  V30 1905 C 197.653 -3.24335 4.94531 0
M  V30 1906 C 197.015 -3.36144 6.19021 0
M  V30 1907 H 193.114 -0.690967 0.366182 0
M  V30 1908 H 195.698 -1.34763 1.40524 0
M  V30 1909 H 193.869 -3.7976 0.814686 0
M  V30 1910 H 195.601 -3.91272 1.03385 0
M  V30 1911 H 192.356 -3.63652 3.03404 0
M  V30 1912 H 192.78 -3.72411 5.65366 0
M  V30 1913 H 197.422 -3.16375 2.80476 0
M  V30 1914 H 195.14 -3.5982 7.23571 0
M  V30 1915 H 198.726 -3.12719 4.9061 0
M  V30 1916 H 197.606 -3.34357 7.09348 0
M  V30 1917 N 195.109 -0.891671 -1.2995 0
M  V30 1918 C 196.525 -0.58662 -1.48428 0
M  V30 1919 C 196.725 0.873951 -1.81561 0
M  V30 1920 O 195.781 1.65471 -1.90724 0
M  V30 1921 C 197.094 -1.50553 -2.60296 0
M  V30 1922 C 198.642 -1.50988 -2.74175 0
M  V30 1923 C 199.117 -2.41488 -3.89163 0
M  V30 1924 N 200.608 -2.39489 -3.96483 0
M  V30 1925 C 201.343 -3.06223 -4.84784 0
M  V30 1926 N 200.839 -3.82206 -5.77833 0
M  V30 1927 N 202.632 -2.95421 -4.78208 0
M  V30 1928 H 194.783 -1.83644 -1.06718 0
M  V30 1929 H 197.046 -0.786455 -0.529332 0
M  V30 1930 H 196.752 -2.54581 -2.42654 0
M  V30 1931 H 196.626 -1.22008 -3.56923 0
M  V30 1932 H 199.013 -0.47708 -2.91218 0
M  V30 1933 H 199.094 -1.83567 -1.78148 0
M  V30 1934 H 198.738 -3.44857 -3.72876 0
M  V30 1935 H 198.668 -2.06222 -4.84541 0
M  V30 1936 H 201.159 -1.84278 -3.29924 0
M  V30 1937 H 201.472 -4.302 -6.41988 0
M  V30 1938 H 199.817 -3.86313 -5.77743 0
M  V30 1939 H 203.008 -2.35581 -4.04499 0
M  V30 1940 H 203.181 -3.47704 -5.46814 0
M  V30 1941 N 196.587 1.43421 -0.653314 0
M  V30 1942 C 197.517 2.33487 0.0246656 0
M  V30 1943 C 198.498 1.49475 0.811863 0
M  V30 1944 O 199.683 1.78139 0.773322 0
M  V30 1945 C 196.813 3.32841 0.99166 0
M  V30 1946 C 195.767 4.26842 0.314568 0
M  V30 1947 C 195.093 5.16236 1.39302 0
M  V30 1948 C 196.393 5.16243 -0.793095 0
M  V30 1949 H 198.087 2.90427 -0.727481 0
M  V30 1950 H 195.633 1.39649 -0.351287 0
M  V30 1951 H 197.586 3.94747 1.47487 0
M  V30 1952 H 196.31 2.74158 1.77497 0
M  V30 1953 H 194.969 3.663 -0.148199 0
M  V30 1954 H 194.617 4.53891 2.16776 0
M  V30 1955 H 194.317 5.79948 0.945223 0
M  V30 1956 H 195.841 5.81015 1.87759 0
M  V30 1957 H 197.255 5.71958 -0.392039 0
M  V30 1958 H 195.652 5.88676 -1.16536 0
M  V30 1959 H 196.722 4.55927 -1.65103 0
M  V30 1960 N 198.065 0.39524 1.52563 0
M  V30 1961 C 198.998 -0.4813 2.23067 0
M  V30 1962 C 199.976 -1.05927 1.23362 0
M  V30 1963 O 201.16 -1.10979 1.52368 0
M  V30 1964 C 198.287 -1.66676 2.9485 0
M  V30 1965 C 197.333 -1.21348 4.08873 0
M  V30 1966 S 198.166 -0.190102 5.35162 0
M  V30 1967 C 199.322 -1.38121 6.1047 0
M  V30 1968 H 199.555 0.117381 2.97068 0
M  V30 1969 H 197.088 0.179458 1.53354 0
M  V30 1970 H 199.046 -2.3466 3.36816 0
M  V30 1971 H 197.707 -2.23676 2.20518 0
M  V30 1972 H 196.9 -2.09877 4.58222 0
M  V30 1973 H 196.502 -0.612486 3.68951 0
M  V30 1974 H 198.794 -2.30726 6.37002 0
M  V30 1975 H 199.737 -0.928521 7.01986 0
M  V30 1976 H 200.145 -1.60071 5.41329 0
M  V30 1977 N 199.544 -1.57102 0.125237 0
M  V30 1978 C 200.769 -2.0019 -0.542101 0
M  V30 1979 C 201.194 -1.00449 -1.59034 0
M  V30 1980 O 200.552 0.0229423 -1.81285 0
M  V30 1981 C 200.6 -3.42129 -1.13929 0
M  V30 1982 O 199.704 -3.45307 -2.2547 0
M  V30 1983 H 199.045 -0.650171 -0.134812 0
M  V30 1984 H 201.575 -2.03461 0.215553 0
M  V30 1985 H 201.585 -3.80471 -1.4733 0
M  V30 1986 H 200.26 -4.14237 -0.371531 0
M  V30 1987 H 198.837 -3.1879 -1.93462 0
M  V30 1988 N 201.022 0.148545 -1.56898 0
M  V30 1989 C 201.985 1.16736 -1.97244 0
M  V30 1990 C 202.985 1.35947 -0.858777 0
M  V30 1991 O 204.175 1.32966 -1.12542 0
M  V30 1992 C 201.307 2.52798 -2.28705 0
M  V30 1993 H 202.5 0.821279 -2.88435 0
M  V30 1994 H 200.053 0.391831 -1.51309 0
M  V30 1995 H 200.788 2.92381 -1.403 0
M  V30 1996 H 200.573 2.40216 -3.09901 0
M  V30 1997 H 202.063 3.26179 -2.60762 0
M  V30 1998 N 202.5 1.5196 0.417844 0
M  V30 1999 C 203.41 1.77554 1.53336 0
M  V30 2000 C 204.426 0.660655 1.6097 0
M  V30 2001 O 205.602 0.945099 1.77848 0
M  V30 2002 C 202.667 1.91291 2.89152 0
M  V30 2003 C 201.728 3.15183 2.91475 0
M  V30 2004 C 200.961 3.28256 4.20813 0
M  V30 2005 O 201.184 2.46798 5.14244 0
M  V30 2006 O 200.118 4.21356 4.29817 0
M  V30 2007 H 203.944 2.7222 1.34647 0
M  V30 2008 H 201.529 1.36698 0.602828 0
M  V30 2009 H 203.411 2.02199 3.69721 0
M  V30 2010 H 202.086 0.998129 3.07927 0
M  V30 2011 H 200.993 3.09739 2.09791 0
M  V30 2012 H 202.326 4.06414 2.77648 0
M  V30 2013 N 203.978 -0.674533 1.42435 0
M  V30 2014 C 205.394 -0.98769 1.25367 0
M  V30 2015 C 205.594 -2.00879 0.158044 0
M  V30 2016 O 204.65 -2.48075 -0.470633 0
M  V30 2017 C 205.963 -1.49224 2.6106 0
M  V30 2018 C 207.511 -1.61 2.68417 0
M  V30 2019 C 207.986 -2.14852 4.04478 0
M  V30 2020 N 209.477 -2.22185 4.06434 0
M  V30 2021 C 210.212 -2.64928 5.08528 0
M  V30 2022 N 209.708 -3.07121 6.21006 0
M  V30 2023 N 211.501 -2.64679 4.95885 0
M  V30 2024 H 203.652 0.00152503 2.124 0
M  V30 2025 H 205.915 -0.0618434 0.945981 0
M  V30 2026 H 205.621 -0.816453 3.42092 0
M  V30 2027 H 205.495 -2.47094 2.84999 0
M  V30 2028 H 207.882 -2.27686 1.87732 0
M  V30 2029 H 207.963 -0.616195 2.48267 0
M  V30 2030 H 207.607 -1.48775 4.85622 0
M  V30 2031 H 207.537 -3.15024 4.2198 0
M  V30 2032 H 210.028 -1.92435 3.25234 0
M  V30 2033 H 210.341 -3.38423 6.94759 0
M  V30 2034 H 208.686 -3.04978 6.24511 0
M  V30 2035 H 211.877 -2.31078 4.07088 0
M  V30 2036 H 212.05 -2.9767 5.75584 0
M  V30 2037 N 205.456 -1.28612 -0.910864 0
M  V30 2038 C 206.867 -1.14406 -1.47541 0
M  V30 2039 C 207.218 0.264901 -1.94403 0
M  V30 2040 O 206.343 1.15942 -1.82719 0
M  V30 2041 C 206.938 -2.07073 -2.68153 0
M  V30 2042 C 205.497 -1.96923 -3.20778 0
M  V30 2043 C 204.644 -1.98646 -1.93481 0
M  V30 2044 H 207.595 -1.41259 -0.723291 0
M  V30 2045 H 207.616 -1.63642 -3.43514 0
M  V30 2046 H 207.128 -3.09611 -2.34015 0
M  V30 2047 H 205.229 -0.97433 -3.59635 0
M  V30 2048 H 205.342 -2.84026 -3.85832 0
M  V30 2049 H 203.706 -1.43093 -2.10705 0
M  V30 2050 H 204.489 -3.02868 -1.61634 0
M  V30 2051 N 206.934 1.1197 -1.10907 0
M  V30 2052 C 208.164 1.8713 -0.875553 0
M  V30 2053 C 208.572 1.8016 0.577843 0
M  V30 2054 O 207.915 1.17699 1.41042 0
M  V30 2055 C 207.977 3.37005 -1.2517 0
M  V30 2056 C 207.641 3.67748 -2.71313 0
M  V30 2057 C 208.638 3.65698 -3.69542 0
M  V30 2058 C 206.323 3.96928 -3.07821 0
M  V30 2059 C 208.317 3.92395 -5.023 0
M  V30 2060 C 206.004 4.23284 -4.40765 0
M  V30 2061 C 207.002 4.21005 -5.37814 0
M  V30 2062 O 206.69 4.46704 -6.68364 0
M  V30 2063 H 206.422 0.598786 -0.313737 0
M  V30 2064 H 208.976 1.42568 -1.47863 0
M  V30 2065 H 207.206 3.82146 -0.591741 0
M  V30 2066 H 208.895 3.93519 -0.994877 0
M  V30 2067 H 209.661 3.43211 -3.42682 0
M  V30 2068 H 205.54 3.97841 -2.32902 0
M  V30 2069 H 209.084 3.90531 -5.78041 0
M  V30 2070 H 204.981 4.45246 -4.67361 0
M  V30 2071 H 205.749 4.64299 -6.74069 0
M  V30 2072 N 208.412 0.89855 1.29475 0
M  V30 2073 C 209.322 0.379974 2.31502 0
M  V30 2074 C 210.338 -0.524695 1.659 0
M  V30 2075 O 211.514 -0.414551 1.97087 0
M  V30 2076 C 208.579 -0.385138 3.44554 0
M  V30 2077 C 207.64 0.550914 4.2575 0
M  V30 2078 C 206.873 -0.177778 5.33404 0
M  V30 2079 O 207.096 -1.40189 5.52904 0
M  V30 2080 O 206.03 0.479106 5.9999 0
M  V30 2081 H 209.856 1.22639 2.77837 0
M  V30 2082 H 207.441 0.662834 1.33891 0
M  V30 2083 H 209.323 -0.817841 4.13388 0
M  V30 2084 H 207.998 -1.20763 3.0033 0
M  V30 2085 H 206.905 1.03271 3.59564 0
M  V30 2086 H 208.238 1.33979 4.73614 0
M  V30 2087 N 209.89 -1.43072 0.660911 0
M  V30 2088 C 210.853 -2.29194 -0.0166406 0
M  V30 2089 C 211.853 -1.42609 -0.742912 0
M  V30 2090 O 213.043 -1.64155 -0.583004 0
M  V30 2091 C 210.175 -3.24831 -1.0343 0
M  V30 2092 H 211.368 -2.90596 0.741208 0
M  V30 2093 H 208.921 -1.5048 0.422532 0
M  V30 2094 H 209.656 -2.68339 -1.82111 0
M  V30 2095 H 209.441 -3.88676 -0.517082 0
M  V30 2096 H 210.931 -3.89451 -1.50723 0
M  V30 2097 N 211.368 -0.403325 -1.52352 0
M  V30 2098 C 212.779 0.0675782 -1.86578 0
M  V30 2099 C 213.13 1.44941 -1.32236 0
M  V30 2100 O 212.255 2.06112 -0.659307 0
M  V30 2101 C 212.85 0.129404 -3.38553 0
M  V30 2102 C 211.409 0.544629 -3.72439 0
M  V30 2103 C 210.556 -0.284551 -2.75836 0
M  V30 2104 H 213.507 -0.620631 -1.46061 0
M  V30 2105 H 213.528 0.94581 -3.68558 0
M  V30 2106 H 213.04 -0.87645 -3.78074 0
M  V30 2107 H 211.141 1.55734 -3.38493 0
M  V30 2108 H 211.254 0.293046 -4.78203 0
M  V30 2109 H 209.618 0.252258 -2.53448 0
M  V30 2110 H 210.401 -1.28865 -3.18196 0
M  V30 2111 N 212.846 1.57033 -0.133567 0
M  V30 2112 C 213.794 2.17348 0.828412 0
M  V30 2113 C 214.788 1.12671 1.26498 0
M  V30 2114 O 215.994 1.30947 1.23502 0
M  V30 2115 H 212.369 0.695775 0.285309 0
M  V30 2116 H 214.34 2.96935 0.295372 0
M  V30 2117 C 213.089 2.79893 2.06289 0
M  V30 2118 H 212.412 3.60147 1.73592 0
M  V30 2119 H 213.852 3.25615 2.71572 0
M  V30 2120 C 212.311 1.77713 2.86216 0
M  V30 2121 O 212.841 1.23937 3.82103 0
M  V30 2122 N 211.047 1.47321 2.50489 0
M  V30 2123 H 210.594 1.91243 1.7258 0
M  V30 2124 H 210.552 0.79199 3.04261 0
M  V30 2125 N 214.325 -0.140222 1.56975 0
M  V30 2126 C 215.555 -0.865181 1.87612 0
M  V30 2127 C 215.963 -1.74942 0.72055 0
M  V30 2128 O 215.306 -1.80917 -0.318561 0
M  V30 2129 C 215.368 -1.76782 3.13031 0
M  V30 2130 C 215.032 -1.06005 4.44536 0
M  V30 2131 C 216.029 -0.410768 5.18275 0
M  V30 2132 C 213.714 -1.04754 4.91255 0
M  V30 2133 C 215.708 0.241572 6.36942 0
M  V30 2134 C 213.395 -0.391394 6.09845 0
M  V30 2135 C 214.393 0.252029 6.82535 0
M  V30 2136 O 214.081 0.897757 7.98871 0
M  V30 2137 H 213.813 -0.255188 0.625983 0
M  V30 2138 H 216.367 -0.135653 2.04952 0
M  V30 2139 H 214.597 -2.53846 2.91718 0
M  V30 2140 H 216.286 -2.36533 3.29859 0
M  V30 2141 H 217.052 -0.412195 4.83245 0
M  V30 2142 H 212.931 -1.53777 4.34596 0
M  V30 2143 H 216.475 0.744375 6.93617 0
M  V30 2144 H 212.372 -0.387656 6.44335 0
M  V30 2145 H 213.14 0.800102 8.1458 0
M  V30 2146 N 215.803 -1.52179 -0.40978 0
M  V30 2147 C 217.219 -1.40968 -0.74835 0
M  V30 2148 C 217.419 -0.513657 -1.94843 0
M  V30 2149 O 216.475 0.0208026 -2.52491 0
M  V30 2150 C 217.788 -2.83483 -1.0029 0
M  V30 2151 C 219.336 -2.92821 -1.10565 0
M  V30 2152 C 219.811 -4.36303 -1.39296 0
M  V30 2153 N 221.302 -4.39535 -1.46162 0
M  V30 2154 C 222.037 -5.47614 -1.70018 0
M  V30 2155 N 221.533 -6.65812 -1.91483 0
M  V30 2156 N 223.326 -5.35129 -1.72027 0
M  V30 2157 H 215.477 -2.0897 0.380186 0
M  V30 2158 H 217.74 -0.94185 0.107805 0
M  V30 2159 H 217.446 -3.51168 -0.193461 0
M  V30 2160 H 217.32 -3.24487 -1.92323 0
M  V30 2161 H 219.707 -2.25318 -1.90568 0
M  V30 2162 H 219.788 -2.55276 -0.16369 0
M  V30 2163 H 219.432 -5.04366 -0.598109 0
M  V30 2164 H 219.362 -4.71385 -2.34743 0
M  V30 2165 H 221.853 -3.54332 -1.31367 0
M  V30 2166 H 222.166 -7.43964 -2.09134 0
M  V30 2167 H 220.511 -6.68879 -1.88749 0
M  V30 2168 H 223.702 -4.41764 -1.54796 0
M  V30 2169 H 223.875 -6.19433 -1.9028 0
M  V30 2170 N 217.281 0.66697 -1.42791 0
M  V30 2171 C 218.558 1.4234 -1.34159 0
M  V30 2172 C 218.938 2.11093 0.0172729 0
M  V30 2173 O 218.286 2.03808 1.03318 0
M  V30 2174 C 218.496 2.41942 -2.51526 0
M  V30 2175 C 219.844 3.06353 -2.93995 0
M  V30 2176 O 220.868 2.52269 -2.51473 0
M  V30 2177 O 219.727 4.04376 -3.67617 0
M  V30 2178 H 216.821 0.635277 -0.529483 0
M  V30 2179 H 219.367 0.695034 -1.54814 0
M  V30 2180 H 218.139 1.89991 -3.42081 0
M  V30 2181 H 217.762 3.22249 -2.32898 0
M  V30 2182 N 218.759 1.29093 0.90403 0
M  V30 2183 C 220.005 1.16986 1.65656 0
M  V30 2184 C 220.338 -0.278925 1.92186 0
M  V30 2185 O 219.613 -1.2019 1.5292 0
M  V30 2186 C 219.896 1.97908 3.0084 0
M  V30 2187 C 219.749 3.50903 2.81403 0
M  V30 2188 C 221.068 1.80208 4.01513 0
M  V30 2189 H 218.187 0.426346 0.601164 0
M  V30 2190 H 220.829 1.58518 1.04747 0
M  V30 2191 H 218.979 1.62616 3.52829 0
M  V30 2192 H 220.651 3.96153 2.36348 0
M  V30 2193 H 218.894 3.76045 2.1627 0
M  V30 2194 H 219.565 4.02791 3.77443 0
M  V30 2195 H 222.041 2.11025 3.58619 0
M  V30 2196 H 220.917 2.39184 4.94047 0
M  V30 2197 H 221.178 0.756119 4.35586 0
M  V30 2198 N 220.237 -1.11381 1.11499 0
M  V30 2199 C 221.483 -1.83403 0.865512 0
M  V30 2200 C 221.816 -1.84459 -0.607329 0
M  V30 2201 O 221.091 -1.29811 -1.44842 0
M  V30 2202 C 221.374 -3.30552 1.42855 0
M  V30 2203 C 221.227 -3.37886 2.96906 0
M  V30 2204 C 222.546 -4.26643 1.08 0
M  V30 2205 H 219.665 -0.665879 0.31587 0
M  V30 2206 H 222.307 -1.30601 1.37998 0
M  V30 2207 H 220.457 -3.75648 0.990985 0
M  V30 2208 H 222.129 -3.01343 3.49271 0
M  V30 2209 H 220.372 -2.78088 3.32941 0
M  V30 2210 H 221.043 -4.41458 3.31389 0
M  V30 2211 H 223.519 -3.89729 1.45775 0
M  V30 2212 H 222.395 -5.27986 1.50072 0
M  V30 2213 H 222.656 -4.42099 -0.00915037 0
M  V30 2214 N 221.715 -0.905404 -1.28997 0
M  V30 2215 C 222.678 -0.392253 -2.25819 0
M  V30 2216 C 223.678 0.476753 -1.5357 0
M  V30 2217 O 224.868 0.280994 -1.71919 0
M  V30 2218 C 222 0.438588 -3.38067 0
M  V30 2219 H 223.193 -1.24743 -2.72725 0
M  V30 2220 H 220.746 -0.684051 -1.40536 0
M  V30 2221 H 221.481 1.31352 -2.96508 0
M  V30 2222 H 221.266 -0.184167 -3.91667 0
M  V30 2223 H 222.756 0.78873 -4.10084 0
M  V30 2224 N 223.193 1.4272 -0.668489 0
M  V30 2225 C 224.103 2.34596 0.0139753 0
M  V30 2226 C 225.119 1.5474 0.795703 0
M  V30 2227 O 226.295 1.87334 0.739466 0
M  V30 2228 C 223.36 3.33202 0.957982 0
M  V30 2229 C 222.421 4.28957 0.17149 0
M  V30 2230 C 221.654 5.22853 1.07053 0
M  V30 2231 O 221.877 5.21531 2.31001 0
M  V30 2232 O 220.811 5.9952 0.534727 0
M  V30 2233 H 224.637 2.9448 -0.742661 0
M  V30 2234 H 222.222 1.43117 -0.428705 0
M  V30 2235 H 224.104 3.93796 1.50008 0
M  V30 2236 H 222.779 2.758 1.69458 0
M  V30 2237 H 221.686 3.71796 -0.414558 0
M  V30 2238 H 223.019 4.89383 -0.52586 0
M  V30 2239 N 224.671 0.411399 1.52136 0
M  V30 2240 C 225.917 -0.163888 2.02137 0
M  V30 2241 C 226.25 -1.44597 1.29636 0
M  V30 2242 O 225.525 -1.90272 0.403353 0
M  V30 2243 C 225.808 -0.40927 3.57767 0
M  V30 2244 C 225.661 0.889643 4.40914 0
M  V30 2245 C 226.98 -1.19042 4.23694 0
M  V30 2246 H 224.099 -0.0580896 0.734707 0
M  V30 2247 H 226.741 0.54531 1.82007 0
M  V30 2248 H 224.891 -1.0134 3.7505 0
M  V30 2249 H 226.563 1.52575 4.35337 0
M  V30 2250 H 224.806 1.50011 4.07037 0
M  V30 2251 H 225.477 0.672314 5.4789 0
M  V30 2252 H 227.953 -0.678942 4.10524 0
M  V30 2253 H 226.829 -1.33086 5.32522 0
M  V30 2254 H 227.09 -2.21166 3.82803 0
M  V30 2255 N 226.149 -1.5696 0.141893 0
M  V30 2256 C 227.565 -1.58151 -0.21456 0
M  V30 2257 C 227.765 -1.1559 -1.65049 0
M  V30 2258 O 226.821 -0.853832 -2.37626 0
M  V30 2259 C 228.134 -3.00674 0.0395576 0
M  V30 2260 C 229.682 -3.1299 -0.0245529 0
M  V30 2261 C 230.157 -4.57554 0.202167 0
M  V30 2262 N 231.648 -4.62961 0.148919 0
M  V30 2263 C 232.383 -5.7262 0.298924 0
M  V30 2264 N 231.879 -6.90947 0.50637 0
M  V30 2265 N 233.672 -5.61601 0.236886 0
M  V30 2266 H 225.823 -1.8292 1.07953 0
M  V30 2267 H 228.086 -0.846425 0.42693 0
M  V30 2268 H 227.792 -3.36183 1.03315 0
M  V30 2269 H 227.666 -3.70981 -0.682143 0
M  V30 2270 H 230.053 -2.77326 -1.00869 0
M  V30 2271 H 230.134 -2.4518 0.729396 0
M  V30 2272 H 229.778 -4.93922 1.18338 0
M  V30 2273 H 229.708 -5.23484 -0.572044 0
M  V30 2274 H 232.199 -3.77899 -0.00697015 0
M  V30 2275 H 232.512 -7.7038 0.611076 0
M  V30 2276 H 230.857 -6.92878 0.542628 0
M  V30 2277 H 234.048 -4.68039 0.0756209 0
M  V30 2278 H 234.221 -6.47015 0.357227 0
M  V30 2279 N 227.627 0.131896 -1.57047 0
M  V30 2280 C 228.59 1.14638 -1.98471 0
M  V30 2281 C 229.59 1.35029 -0.873148 0
M  V30 2282 O 230.78 1.31764 -1.13946 0
M  V30 2283 C 227.912 2.50358 -2.31373 0
M  V30 2284 H 229.105 0.79064 -2.8929 0
M  V30 2285 H 226.658 0.375761 -1.51716 0
M  V30 2286 H 227.393 2.90876 -1.43393 0
M  V30 2287 H 227.178 2.36915 -3.12432 0
M  V30 2288 H 228.668 3.23395 -2.64207 0
M  V30 2289 N 229.106 1.52395 0.401703 0
M  V30 2290 C 230.383 1.57387 1.16141 0
M  V30 2291 C 230.763 0.359359 2.08019 0
M  V30 2292 O 230.111 -0.65326 2.18963 0
M  V30 2293 C 230.321 2.90631 1.93221 0
M  V30 2294 C 231.669 3.43904 2.49028 0
M  V30 2295 O 232.693 2.92421 2.03393 0
M  V30 2296 O 231.552 4.33823 3.32356 0
M  V30 2297 H 228.646 0.634262 0.530698 0
M  V30 2298 H 231.192 1.64725 0.407883 0
M  V30 2299 H 229.964 3.70473 1.25958 0
M  V30 2300 H 229.587 2.8662 2.75563 0
M  V30 2301 N 230.584 -0.659388 1.43143 0
M  V30 2302 C 231.514 -1.78422 1.50625 0
M  V30 2303 C 232.495 -1.66216 0.361443 0
M  V30 2304 O 233.68 -1.85404 0.577834 0
M  V30 2305 C 230.81 -3.16815 1.42287 0
M  V30 2306 C 229.764 -3.43777 2.54954 0
M  V30 2307 C 229.09 -4.81905 2.31671 0
M  V30 2308 C 230.39 -3.39134 3.97222 0
M  V30 2309 H 232.084 -1.72417 2.44771 0
M  V30 2310 H 229.63 -0.828084 1.17808 0
M  V30 2311 H 231.583 -3.95253 1.46127 0
M  V30 2312 H 230.307 -3.23534 0.446435 0
M  V30 2313 H 228.966 -2.67707 2.50457 0
M  V30 2314 H 228.614 -4.85294 1.32284 0
M  V30 2315 H 228.314 -5.00906 3.07192 0
M  V30 2316 H 229.838 -5.62609 2.37284 0
M  V30 2317 H 231.252 -4.07518 4.03239 0
M  V30 2318 H 229.649 -3.69671 4.72719 0
M  V30 2319 H 230.719 -2.37426 4.22797 0
M  V30 2320 N 232.062 -1.29571 -0.897171 0
M  V30 2321 C 232.992 -1.17473 -2.01798 0
M  V30 2322 C 233.973 -0.068323 -1.69963 0
M  V30 2323 O 235.158 -0.248239 -1.92607 0
M  V30 2324 C 232.288 -0.853099 -3.36659 0
M  V30 2325 C 231.242 -1.9161 -3.82713 0
M  V30 2326 C 230.568 -1.44773 -5.14728 0
M  V30 2327 C 231.868 -3.32535 -4.02763 0
M  V30 2328 H 233.562 -2.11237 -2.12177 0
M  V30 2329 H 231.108 -1.01699 -1.01948 0
M  V30 2330 H 233.061 -0.755165 -4.14578 0
M  V30 2331 H 231.785 0.120236 -3.26379 0
M  V30 2332 H 230.444 -2.00346 -3.07013 0
M  V30 2333 H 230.092 -0.462995 -5.00865 0
M  V30 2334 H 229.792 -2.15865 -5.46513 0
M  V30 2335 H 231.316 -1.36334 -5.95185 0
M  V30 2336 H 232.73 -3.26626 -4.71156 0
M  V30 2337 H 231.127 -4.01607 -4.45905 0
M  V30 2338 H 232.197 -3.75326 -3.07016 0
M  V30 2339 N 233.54 1.10788 -1.12088 0
M  V30 2340 C 234.503 2.15207 -0.788577 0
M  V30 2341 C 235.503 1.59609 0.195317 0
M  V30 2342 O 236.693 1.74174 -0.0300193 0
M  V30 2343 C 233.825 3.4047 -0.171174 0
M  V30 2344 H 235.018 2.46116 -1.71368 0
M  V30 2345 H 232.571 1.26089 -0.923652 0
M  V30 2346 H 233.306 3.15176 0.763832 0
M  V30 2347 H 233.091 3.82109 -0.879514 0
M  V30 2348 H 234.581 4.17576 0.04496 0
M  V30 2349 N 235.018 0.912232 1.28515 0
M  V30 2350 C 236.266 0.543523 1.94654 0
M  V30 2351 C 236.587 -0.9155 1.72173 0
M  V30 2352 O 235.857 -1.64708 1.06058 0
M  V30 2353 H 234.437 0.198017 0.720277 0
M  V30 2354 H 237.099 1.16126 1.56527 0
M  V30 2355 H 236.195 0.736684 3.03281 0
M  V30 2356 N 236.496 -1.42363 0.676048 0
M  V30 2357 C 237.742 -2.0182 0.199125 0
M  V30 2358 C 238.075 -1.53339 -1.19168 0
M  V30 2359 O 237.35 -0.736124 -1.80032 0
M  V30 2360 C 237.633 -3.59331 0.235144 0
M  V30 2361 C 237.486 -4.17989 1.66149 0
M  V30 2362 C 238.805 -4.3813 -0.41595 0
M  V30 2363 H 235.924 -0.733293 0.0738311 0
M  V30 2364 H 238.566 -1.69368 0.86107 0
M  V30 2365 H 236.716 -3.87109 -0.328487 0
M  V30 2366 H 238.388 -4.0116 2.27747 0
M  V30 2367 H 236.631 -3.7377 2.20178 0
M  V30 2368 H 237.302 -5.27126 1.63837 0
M  V30 2369 H 239.778 -4.16051 0.0638529 0
M  V30 2370 H 238.654 -5.47717 -0.360115 0
M  V30 2371 H 238.915 -4.16101 -1.49373 0
M  V30 2372 N 237.974 -0.419461 -1.51915 0
M  V30 2373 C 239.251 0.211999 -1.94448 0
M  V30 2374 C 239.631 1.61703 -1.35703 0
M  V30 2375 O 238.979 2.22102 -0.536931 0
M  V30 2376 C 239.189 0.207872 -3.4838 0
M  V30 2377 C 240.537 0.422192 -4.22496 0
M  V30 2378 O 241.561 0.286778 -3.55044 0
M  V30 2379 O 240.42 0.690009 -5.42126 0
M  V30 2380 H 237.514 0.139586 -0.815135 0
M  V30 2381 H 240.06 -0.476151 -1.62883 0
M  V30 2382 H 238.832 -0.775102 -3.83546 0
M  V30 2383 H 238.455 0.939688 -3.86336 0
M  V30 2384 N 239.452 1.56882 -0.150215 0
M  V30 2385 C 240.384 2.14057 0.819286 0
M  V30 2386 C 241.397 1.09082 1.20851 0
M  V30 2387 O 242.586 1.36347 1.15203 0
M  V30 2388 C 239.686 2.65102 2.11127 0
M  V30 2389 C 238.859 3.94511 1.88891 0
M  V30 2390 C 237.918 4.30834 3.02107 0
M  V30 2391 O 236.944 4.99099 2.73659 0
M  V30 2392 N 238.146 3.90676 4.29363 0
M  V30 2393 H 240.911 2.97871 0.330618 0
M  V30 2394 H 238.472 1.61866 0.0332538 0
M  V30 2395 H 240.464 2.86411 2.85921 0
M  V30 2396 H 239.034 1.85994 2.51247 0
M  V30 2397 H 238.254 3.81795 0.981152 0
M  V30 2398 H 239.542 4.7907 1.71376 0
M  V30 2399 H 238.94 3.35677 4.55343 0
M  V30 2400 H 237.497 4.1703 5.00928 0
M  V30 2401 N 240.93 -0.123565 1.57115 0
M  V30 2402 C 241.893 -1.13583 1.99076 0
M  V30 2403 C 242.893 -1.34564 0.880296 0
M  V30 2404 O 244.083 -1.31158 1.14644 0
M  V30 2405 C 241.215 -2.49128 2.32698 0
M  V30 2406 H 242.408 -0.775287 2.89706 0
M  V30 2407 H 239.961 -0.36771 1.51913 0
M  V30 2408 H 240.696 -2.90111 1.44934 0
M  V30 2409 H 240.481 -2.35255 3.13684 0
M  V30 2410 H 241.971 -3.2199 2.65918 0
M  V30 2411 N 242.408 -1.52605 -0.393616 0
M  V30 2412 C 243.654 -1.67672 -1.14079 0
M  V30 2413 C 243.987 -0.413121 -1.89755 0
M  V30 2414 O 243.262 0.588952 -1.85369 0
M  V30 2415 C 243.545 -2.9088 -2.12276 0
M  V30 2416 C 243.398 -4.27329 -1.40394 0
M  V30 2417 C 244.717 -3.09628 -3.12759 0
M  V30 2418 H 241.836 -0.610168 -0.413356 0
M  V30 2419 H 244.478 -1.85193 -0.424696 0
M  V30 2420 H 242.628 -2.76073 -2.73342 0
M  V30 2421 H 244.3 -4.53894 -0.82327 0
M  V30 2422 H 242.543 -4.2802 -0.705801 0
M  V30 2423 H 243.214 -5.09615 -2.12123 0
M  V30 2424 H 245.69 -3.23436 -2.61779 0
M  V30 2425 H 244.566 -3.97322 -3.78717 0
M  V30 2426 H 244.827 -2.23637 -3.81365 0
M  V30 2427 N 243.887 0.651787 -1.4349 0
M  V30 2428 C 244.85 1.74647 -1.48429 0
M  V30 2429 C 245.85 1.56513 -0.368817 0
M  V30 2430 O 247.04 1.62385 -0.630623 0
M  V30 2431 C 244.172 3.13533 -1.33827 0
M  V30 2432 H 245.365 1.71649 -2.4592 0
M  V30 2433 H 242.918 0.863573 -1.30277 0
M  V30 2434 H 243.653 3.22142 -0.37349 0
M  V30 2435 H 243.438 3.28101 -2.14691 0
M  V30 2436 H 244.928 3.93356 -1.40218 0
M  V30 2437 N 245.365 1.30045 0.890287 0
M  V30 2438 C 246.328 1.15963 1.977 0
M  V30 2439 C 247.328 0.0923777 1.60534 0
M  V30 2440 O 248.518 0.340071 1.70848 0
M  V30 2441 C 245.65 0.775451 3.31963 0
M  V30 2442 H 246.843 2.12502 2.11619 0
M  V30 2443 H 244.396 1.13366 1.07601 0
M  V30 2444 H 245.131 -0.189671 3.23745 0
M  V30 2445 H 244.916 1.54668 3.60306 0
M  V30 2446 H 246.406 0.700251 4.11687 0
M  V30 2447 N 246.843 -1.10192 1.12674 0
M  V30 2448 C 248.091 -1.81845 0.881861 0
M  V30 2449 C 248.412 -1.85737 -0.593867 0
M  V30 2450 O 247.682 -1.33724 -1.4316 0
M  V30 2451 H 246.262 -0.673432 0.323261 0
M  V30 2452 H 248.924 -1.33316 1.42172 0
M  V30 2453 H 248.02 -2.85288 1.2656 0
M  V30 2454 N 248.321 -0.919034 -1.28029 0
M  V30 2455 C 249.567 -0.555757 -1.95036 0
M  V30 2456 C 249.9 0.899198 -1.72128 0
M  V30 2457 O 249.175 1.64023 -1.04531 0
M  V30 2458 C 249.458 -0.872024 -3.49382 0
M  V30 2459 C 249.311 -2.3801 -3.81669 0
M  V30 2460 C 250.63 -0.37185 -4.38526 0
M  V30 2461 H 247.749 -0.203386 -0.708381 0
M  V30 2462 H 250.391 -1.14924 -1.51303 0
M  V30 2463 H 248.541 -0.366946 -3.86763 0
M  V30 2464 H 250.213 -2.9562 -3.54128 0
M  V30 2465 H 248.456 -2.83289 -3.28526 0
M  V30 2466 H 249.127 -2.55192 -4.8947 0
M  V30 2467 H 251.603 -0.804602 -4.08247 0
M  V30 2468 H 250.479 -0.622173 -5.45362 0
M  V30 2469 H 250.74 0.727934 -4.36066 0
M  V30 2470 N 249.799 1.42003 -0.683588 0
M  V30 2471 C 251.076 1.95112 -0.138075 0
M  V30 2472 C 251.456 1.62359 1.34918 0
M  V30 2473 O 250.804 0.924311 2.08971 0
M  V30 2474 C 251.014 3.46505 -0.416581 0
M  V30 2475 C 252.362 4.23254 -0.337834 0
M  V30 2476 O 253.386 3.54468 -0.35082 0
M  V30 2477 O 252.245 5.45743 -0.287596 0
M  V30 2478 H 249.339 0.826961 -0.00797996 0
M  V30 2479 H 251.885 1.51784 -0.758924 0
M  V30 2480 H 250.657 3.63582 -1.4465 0
M  V30 2481 H 250.28 3.969 0.235839 0
M  V30 2482 N 251.277 0.427512 1.51691 0
M  V30 2483 C 252.688 -0.0378867 1.86662 0
M  V30 2484 C 253.039 -1.42819 1.34525 0
M  V30 2485 O 252.164 -2.05037 0.692014 0
M  V30 2486 C 252.759 -0.0755266 3.38716 0
M  V30 2487 C 251.318 -0.485309 3.73258 0
M  V30 2488 C 250.465 0.328399 2.75349 0
M  V30 2489 H 253.416 0.64379 1.45055 0
M  V30 2490 H 253.437 -0.887056 3.70016 0
M  V30 2491 H 252.949 0.936487 3.76632 0
M  V30 2492 H 251.05 -1.50329 3.40928 0
M  V30 2493 H 251.163 -0.21693 4.78609 0
M  V30 2494 H 249.527 -0.211905 2.53817 0
M  V30 2495 H 250.31 1.3391 3.16106 0
M  V30 2496 N 252.755 -1.56801 0.158532 0
M  V30 2497 C 254.003 -1.96102 -0.488712 0
M  V30 2498 C 254.324 -1.04498 -1.64636 0
M  V30 2499 O 253.594 -0.108783 -1.95598 0
M  V30 2500 H 252.174 -0.724102 -0.183535 0
M  V30 2501 H 254.836 -1.93457 0.236728 0
M  V30 2502 H 253.932 -3.00097 -0.857219 0
M  V30 2503 N 254.233 0.115231 -1.57178 0
M  V30 2504 C 255.458 0.840354 -1.89612 0
M  V30 2505 C 255.883 1.72464 -0.750845 0
M  V30 2506 O 255.241 1.78826 0.298478 0
M  V30 2507 C 255.289 1.64654 -3.20814 0
M  V30 2508 O 254.393 2.7538 -3.06985 0
M  V30 2509 H 253.734 0.232158 -0.622092 0
M  V30 2510 H 256.264 0.0964977 -2.04372 0
M  V30 2511 H 256.274 2.03499 -3.53627 0
M  V30 2512 H 254.949 0.997416 -4.03763 0
M  V30 2513 H 253.526 2.3971 -2.85646 0
M  V30 2514 N 255.711 1.52812 0.385517 0
M  V30 2515 C 256.641 1.80808 1.47752 0
M  V30 2516 C 257.622 0.660318 1.5676 0
M  V30 2517 O 258.807 0.908246 1.71652 0
M  V30 2518 C 255.937 1.98008 2.85324 0
M  V30 2519 C 254.891 3.13709 2.91154 0
M  V30 2520 C 254.217 3.16169 4.31209 0
M  V30 2521 C 255.517 4.52709 2.60483 0
M  V30 2522 H 257.211 2.72253 1.24573 0
M  V30 2523 H 254.757 1.31003 0.597839 0
M  V30 2524 H 256.71 2.16176 3.61726 0
M  V30 2525 H 255.434 1.03255 3.09848 0
M  V30 2526 H 254.093 2.95329 2.17201 0
M  V30 2527 H 253.741 2.19092 4.52778 0
M  V30 2528 H 253.441 3.93894 4.36029 0
M  V30 2529 H 254.965 3.36496 5.09512 0
M  V30 2530 H 256.379 4.71173 3.26602 0
M  V30 2531 H 254.776 5.32528 2.76648 0
M  V30 2532 H 255.846 4.59186 1.55809 0
M  V30 2533 N 257.189 -0.644168 1.43834 0
M  V30 2534 C 258.435 -1.40603 1.46146 0
M  V30 2535 C 258.768 -1.93997 0.0887717 0
M  V30 2536 O 258.043 -1.72854 -0.891724 0
M  V30 2537 C 258.326 -2.58086 2.51124 0
M  V30 2538 C 258.179 -2.10126 3.97702 0
M  V30 2539 C 259.498 -3.60291 2.52742 0
M  V30 2540 H 256.617 -0.509905 0.532134 0
M  V30 2541 H 259.259 -0.729502 1.75437 0
M  V30 2542 H 257.409 -3.15801 2.26278 0
M  V30 2543 H 259.081 -1.57342 4.33637 0
M  V30 2544 H 257.324 -1.41419 4.10101 0
M  V30 2545 H 257.995 -2.94649 4.66783 0
M  V30 2546 H 260.471 -3.12352 2.7491 0
M  V30 2547 H 259.347 -4.40032 3.28121 0
M  V30 2548 H 259.608 -4.1349 1.56455 0
M  V30 2549 N 258.668 -1.30515 -0.883378 0
M  V30 2550 C 259.917 -1.18795 -1.63005 0
M  V30 2551 C 260.23 0.255923 -1.93919 0
M  V30 2552 O 261.436 0.494654 -2.66956 0
M  V30 2553 C 259.892 -2.07878 -2.93794 0
M  V30 2554 C 259.5 -3.57184 -2.70414 0
M  V30 2555 C 261.244 -2.04924 -3.71761 0
M  V30 2556 C 259.151 -4.38317 -3.97029 0
M  V30 2557 H 258.081 -0.441031 -0.611562 0
M  V30 2558 H 260.732 -1.55275 -0.977854 0
M  V30 2559 H 259.114 -1.64283 -3.60315 0
M  V30 2560 H 260.288 -4.08937 -2.12384 0
M  V30 2561 H 258.603 -3.61976 -2.0582 0
M  V30 2562 H 261.2 -2.62792 -4.65665 0
M  V30 2563 H 261.543 -1.0331 -4.03277 0
M  V30 2564 H 262.076 -2.46649 -3.12104 0
M  V30 2565 H 258.815 -5.40632 -3.70671 0
M  V30 2566 H 258.335 -3.91326 -4.54559 0
M  V30 2567 H 260.014 -4.49834 -4.65036 0
M  V30 2568 N 260.146 1.09593 -1.13257 0
M  V30 2569 C 261.423 1.78293 -0.804432 0
M  V30 2570 C 261.803 1.99004 0.70431 0
M  V30 2571 O 261.151 1.59007 1.641 0
M  V30 2572 C 261.361 3.10707 -1.5894 0
M  V30 2573 C 262.709 3.85443 -1.78099 0
M  V30 2574 O 263.733 3.20454 -1.55525 0
M  V30 2575 O 262.592 5.02108 -2.15753 0
M  V30 2576 H 259.686 0.773156 -0.293528 0
M  V30 2577 H 262.232 1.16164 -1.23709 0
M  V30 2578 H 261.004 2.91106 -2.61482 0
M  V30 2579 H 260.627 3.80558 -1.15157 0
M  V30 2580 N 261.624 0.925811 1.2754 0
M  V30 2581 C 263.035 0.610102 1.7645 0
M  V30 2582 C 263.386 -0.874723 1.75622 0
M  V30 2583 O 262.511 -1.68444 1.35851 0
M  V30 2584 C 263.106 1.10073 3.20421 0
M  V30 2585 C 261.665 0.835723 3.67005 0
M  V30 2586 C 260.812 1.26054 2.46993 0
M  V30 2587 H 263.763 1.10579 1.13833 0
M  V30 2588 H 263.784 0.447557 3.77859 0
M  V30 2589 H 263.296 2.18143 3.20991 0
M  V30 2590 H 261.397 -0.231249 3.71882 0
M  V30 2591 H 261.51 1.45193 4.56569 0
M  V30 2592 H 259.874 0.679111 2.45479 0
M  V30 2593 H 260.657 2.34984 2.50275 0
M  V30 2594 N 263.102 -1.41638 0.69111 0
M  V30 2595 C 264.35 -2.00902 0.219758 0
M  V30 2596 C 264.671 -1.54994 -1.18329 0
M  V30 2597 O 263.941 -0.778628 -1.79762 0
M  V30 2598 H 262.521 -0.74289 0.0782558 0
M  V30 2599 H 265.183 -1.73327 0.891271 0
M  V30 2600 H 264.279 -3.11224 0.233708 0
M  V30 2601 N 264.58 -0.43555 -1.51462 0
M  V30 2602 C 265.51 0.367376 -2.30592 0
M  V30 2603 C 266.491 1.02263 -1.35928 0
M  V30 2604 O 267.676 1.02661 -1.64847 0
M  V30 2605 C 264.806 1.46983 -3.14664 0
M  V30 2606 C 263.76 0.938161 -4.17591 0
M  V30 2607 C 263.086 2.13622 -4.90173 0
M  V30 2608 C 264.386 -0.0261621 -5.22293 0
M  V30 2609 H 266.08 -0.292969 -2.97963 0
M  V30 2610 H 263.626 -0.14234 -1.43295 0
M  V30 2611 H 265.579 2.03873 -3.688 0
M  V30 2612 H 264.303 2.15843 -2.4511 0
M  V30 2613 H 262.962 0.391481 -3.64504 0
M  V30 2614 H 262.61 2.81098 -4.17124 0
M  V30 2615 H 262.31 1.78688 -5.59772 0
M  V30 2616 H 263.834 2.7107 -5.47132 0
M  V30 2617 H 265.248 0.452384 -5.71512 0
M  V30 2618 H 263.645 -0.287992 -5.99409 0
M  V30 2619 H 264.715 -0.963391 -4.75233 0
M  V30 2620 N 266.058 1.56714 -0.166846 0
M  V30 2621 C 267.306 1.96358 0.478305 0
M  V30 2622 C 267.627 1.0537 1.6408 0
M  V30 2623 O 266.897 0.119154 1.95537 0
M  V30 2624 H 265.477 0.725065 0.179692 0
M  V30 2625 H 268.139 1.93329 -0.246985 0
M  V30 2626 H 267.235 3.00547 0.841292 0
M  V30 2627 N 267.536 -0.106894 1.57237 0
M  V30 2628 C 268.783 -0.812526 1.85484 0
M  V30 2629 C 269.111 -1.79304 0.753687 0
M  V30 2630 O 268.366 -1.94047 -0.253853 0
M  V30 2631 C 268.665 -1.58628 3.20268 0
M  V30 2632 C 268.331 -0.748967 4.44636 0
M  V30 2633 C 266.993 -0.518104 4.78403 0
M  V30 2634 C 269.345 -0.166122 5.20935 0
M  V30 2635 C 266.673 0.305659 5.85903 0
M  V30 2636 C 269.025 0.644899 6.29304 0
M  V30 2637 C 267.689 0.885965 6.61594 0
M  V30 2638 H 266.959 -0.297324 0.678734 0
M  V30 2639 H 269.606 -0.0744332 1.91355 0
M  V30 2640 H 267.911 -2.39562 3.10028 0
M  V30 2641 H 269.608 -2.13643 3.39349 0
M  V30 2642 H 266.198 -0.939006 4.18187 0
M  V30 2643 H 270.382 -0.33167 4.95191 0
M  V30 2644 H 265.638 0.501528 6.0934 0
M  V30 2645 H 269.812 1.10345 6.87602 0
M  V30 2646 H 267.439 1.52609 7.44725 0
M  V30 2647 N 269.014 -1.53014 -0.377408 0
M  V30 2648 C 269.977 -1.77957 -1.44444 0
M  V30 2649 C 270.977 -0.649763 -1.47087 0
M  V30 2650 O 272.167 -0.917897 -1.48055 0
M  V30 2651 C 269.299 -1.89089 -2.83651 0
M  V30 2652 H 270.492 -2.73243 -1.23606 0
M  V30 2653 H 268.045 -1.43912 -0.609844 0
M  V30 2654 H 268.78 -0.958293 -3.09818 0
M  V30 2655 H 268.565 -2.71254 -2.83132 0
M  V30 2656 H 270.055 -2.1002 -3.60945 0
M  V30 2657 N 270.492 0.636531 -1.44174 0
M  V30 2658 C 271.439 1.74875 -1.50624 0
M  V30 2659 C 272.409 1.62275 -0.35442 0
M  V30 2660 O 273.594 1.82276 -0.563908 0
M  V30 2661 C 270.734 3.13102 -1.45125 0
M  V30 2662 C 269.847 3.36717 -2.7064 0
M  V30 2663 C 268.982 4.64885 -2.57013 0
M  V30 2664 C 268.021 4.8166 -3.77717 0
M  V30 2665 N 267.158 6.01101 -3.62798 0
M  V30 2666 H 271.998 1.68697 -2.45653 0
M  V30 2667 H 269.535 0.823004 -1.21922 0
M  V30 2668 H 271.493 3.93034 -1.39929 0
M  V30 2669 H 270.123 3.18308 -0.536671 0
M  V30 2670 H 269.175 2.50763 -2.86046 0
M  V30 2671 H 270.487 3.44993 -3.60252 0
M  V30 2672 H 269.641 5.52969 -2.49619 0
M  V30 2673 H 268.38 4.58957 -1.64953 0
M  V30 2674 H 267.385 3.92007 -3.85501 0
M  V30 2675 H 268.61 4.89406 -4.70807 0
M  V30 2676 H 266.556 5.96273 -2.73486 0
M  V30 2677 H 266.473 6.10409 -4.46023 0
M  V30 2678 H 267.741 6.91761 -3.59286 0
M  V30 2679 N 271.97 1.30982 0.876444 0
M  V30 2680 C 273.198 1.23242 1.6619 0
M  V30 2681 C 273.613 -0.203345 1.87702 0
M  V30 2682 O 272.97 -1.13317 1.43057 0
M  V30 2683 C 273.021 1.96623 3.03351 0
M  V30 2684 O 272.742 3.34594 2.82804 0
M  V30 2685 C 274.243 1.95644 3.97792 0
M  V30 2686 H 271.463 0.426126 0.518322 0
M  V30 2687 H 274.007 1.7275 1.09442 0
M  V30 2688 H 272.162 1.50892 3.56806 0
M  V30 2689 H 272.576 3.71873 3.69879 0
M  V30 2690 H 274.05 2.51511 4.91372 0
M  V30 2691 H 274.527 0.937395 4.2908 0
M  V30 2692 H 275.133 2.41225 3.50272 0
M  V30 2693 N 273.449 -1.08991 1.13837 0
M  V30 2694 C 274.697 -1.80899 0.901098 0
M  V30 2695 C 275.018 -1.86356 -0.574134 0
M  V30 2696 O 274.288 -1.35235 -1.41733 0
M  V30 2697 H 272.868 -0.669966 0.330386 0
M  V30 2698 H 275.53 -1.318 1.43578 0
M  V30 2699 H 274.626 -2.83929 1.29578 0
M  V30 2700 N 274.927 -0.932562 -1.27047 0
M  V30 2701 C 275.859 -0.392734 -2.2581 0
M  V30 2702 C 276.872 0.479241 -1.55586 0
M  V30 2703 O 278.061 0.291078 -1.76111 0
M  V30 2704 C 275.161 0.455456 -3.35826 0
M  V30 2705 C 274.334 -0.398355 -4.35582 0
M  V30 2706 C 273.393 0.387985 -5.24768 0
M  V30 2707 O 272.419 -0.206003 -5.68827 0
M  V30 2708 N 273.621 1.68664 -5.55457 0
M  V30 2709 H 276.386 -1.24173 -2.72766 0
M  V30 2710 H 273.947 -0.800511 -1.40725 0
M  V30 2711 H 275.939 0.988692 -3.92437 0
M  V30 2712 H 274.509 1.20522 -2.88432 0
M  V30 2713 H 273.729 -1.11286 -3.78165 0
M  V30 2714 H 275.017 -0.981889 -4.99236 0
M  V30 2715 H 274.415 2.19147 -5.21528 0
M  V30 2716 H 272.972 2.1663 -6.14748 0
M  V30 2717 N 276.405 1.4127 -0.698611 0
M  V30 2718 C 277.355 2.27997 -0.0119836 0
M  V30 2719 C 278.339 1.42363 0.749765 0
M  V30 2720 O 279.531 1.65607 0.624758 0
M  V30 2721 C 276.66 3.30702 0.921458 0
M  V30 2722 C 275.746 4.23814 0.155796 0
M  V30 2723 N 276.137 4.98572 -0.852015 0
M  V30 2724 C 274.435 4.44284 0.390836 0
M  V30 2725 C 275.136 5.66744 -1.3106 0
M  V30 2726 N 274.112 5.39867 -0.635944 0
M  V30 2727 H 277.914 2.83232 -0.784649 0
M  V30 2728 H 275.428 1.53518 -0.529711 0
M  V30 2729 H 277.425 3.91661 1.42854 0
M  V30 2730 H 276.085 2.77028 1.69369 0
M  V30 2731 H 277.096 5.03024 -1.23235 0
M  V30 2732 H 273.773 4.01614 1.14071 0
M  V30 2733 H 275.163 6.36672 -2.14707 0
M  V30 2734 N 277.883 0.443576 1.51229 0
M  V30 2735 C 278.831 -0.37904 2.29491 0
M  V30 2736 C 279.825 -1.0153 1.35603 0
M  V30 2737 O 281.031 -0.94955 1.52917 0
M  V30 2738 H 277.406 -0.141053 0.738653 0
M  V30 2739 H 279.377 0.301799 2.9687 0
M  V30 2740 C 278.126 -1.46426 3.15364 0
M  V30 2741 H 277.449 -0.984037 3.87501 0
M  V30 2742 H 278.889 -2.01297 3.7317 0
M  V30 2743 C 277.348 -2.45099 2.31146 0
M  V30 2744 O 277.878 -3.49773 1.9754 0
M  V30 2745 N 276.084 -2.16139 1.94249 0
M  V30 2746 H 275.631 -1.31044 2.21777 0
M  V30 2747 H 275.589 -2.82398 1.38198 0
M  V30 2748 N 279.361 -1.56624 0.175154 0
M  V30 2749 C 280.607 -1.98061 -0.462976 0
M  V30 2750 C 280.962 -1.05949 -1.60601 0
M  V30 2751 O 280.255 -0.0999027 -1.91339 0
M  V30 2752 C 280.449 -3.43419 -0.989864 0
M  V30 2753 C 280.278 -4.49587 0.100583 0
M  V30 2754 C 279.048 -5.02281 0.551539 0
M  V30 2755 C 281.246 -5.06322 0.902369 0
M  V30 2756 N 279.228 -5.92088 1.62189 0
M  V30 2757 C 280.599 -5.92607 1.82256 0
M  V30 2758 C 282.654 -4.88811 0.947019 0
M  V30 2759 C 281.357 -6.63254 2.78364 0
M  V30 2760 C 283.383 -5.60182 1.89606 0
M  V30 2761 C 282.745 -6.46197 2.80372 0
M  V30 2762 H 278.844 -0.769833 -0.137409 0
M  V30 2763 H 281.428 -1.9273 0.276256 0
M  V30 2764 H 279.599 -3.49288 -1.6986 0
M  V30 2765 H 281.331 -3.7186 -1.59694 0
M  V30 2766 H 278.086 -4.73367 0.148537 0
M  V30 2767 H 278.51 -6.41696 2.15767 0
M  V30 2768 H 283.152 -4.22004 0.259304 0
M  V30 2769 H 280.87 -7.29271 3.48122 0
M  V30 2770 H 284.456 -5.48617 1.93676 0
M  V30 2771 H 283.336 -7.00453 3.52612 0
M  V30 2772 N 280.839 0.0985539 -1.57292 0
M  V30 2773 C 281.802 1.10402 -2.00858 0
M  V30 2774 C 282.802 1.33146 -0.901593 0
M  V30 2775 O 283.992 1.29318 -1.16716 0
M  V30 2776 C 281.124 2.45394 -2.36632 0
M  V30 2777 H 282.317 0.729099 -2.90902 0
M  V30 2778 H 279.87 0.343495 -1.52479 0
M  V30 2779 H 280.605 2.87769 -1.49531 0
M  V30 2780 H 280.39 2.30235 -3.17387 0
M  V30 2781 H 281.88 3.17718 -2.71007 0
M  V30 2782 N 282.317 1.53212 0.369288 0
M  V30 2783 C 283.247 1.82365 1.45826 0
M  V30 2784 C 284.228 0.676907 1.56051 0
M  V30 2785 O 285.413 0.926401 1.70679 0
M  V30 2786 C 282.543 2.01023 2.83208 0
M  V30 2787 C 281.497 3.1678 2.8781 0
M  V30 2788 C 280.823 3.20724 4.27832 0
M  V30 2789 C 282.123 4.55447 2.55667 0
M  V30 2790 H 283.817 2.73559 1.21678 0
M  V30 2791 H 281.363 1.3163 0.583911 0
M  V30 2792 H 283.316 2.20001 3.59413 0
M  V30 2793 H 282.04 1.06536 3.08736 0
M  V30 2794 H 280.699 2.97616 2.14056 0
M  V30 2795 H 280.347 2.23882 4.50429 0
M  V30 2796 H 280.047 3.98496 4.31827 0
M  V30 2797 H 281.571 3.41881 5.05915 0
M  V30 2798 H 282.985 4.74611 3.21586 0
M  V30 2799 H 281.382 5.35432 2.70984 0
M  V30 2800 H 282.452 4.60812 1.5093 0
M  V30 2801 N 283.795 -0.628877 1.44509 0
M  V30 2802 C 284.725 -1.75187 1.54376 0
M  V30 2803 C 285.706 -1.65411 0.396618 0
M  V30 2804 O 286.891 -1.84137 0.617031 0
M  V30 2805 C 284.021 -3.13725 1.48976 0
M  V30 2806 C 282.975 -3.38291 2.62189 0
M  V30 2807 C 282.301 -4.76883 2.41841 0
M  V30 2808 C 283.601 -3.30632 4.04326 0
M  V30 2809 H 285.295 -1.67187 2.48373 0
M  V30 2810 H 282.841 -0.802909 1.19538 0
M  V30 2811 H 284.794 -3.92064 1.54478 0
M  V30 2812 H 283.518 -3.22515 0.514961 0
M  V30 2813 H 282.177 -2.62334 2.56079 0
M  V30 2814 H 281.825 -4.82378 1.42548 0
M  V30 2815 H 281.525 -4.94278 3.17747 0
M  V30 2816 H 283.049 -5.57449 2.49165 0
M  V30 2817 H 284.463 -3.98873 4.11793 0
M  V30 2818 H 282.86 -3.59561 4.80454 0
M  V30 2819 H 283.93 -2.28404 4.27738 0
M  V30 2820 N 285.273 -1.31445 -0.869486 0
M  V30 2821 C 286.221 -1.19067 -1.99814 0
M  V30 2822 C 287.215 -0.0988569 -1.69111 0
M  V30 2823 O 288.421 -0.260781 -1.78101 0
M  V30 2824 H 284.796 -0.368677 -0.655425 0
M  V30 2825 H 286.767 -2.14555 -2.07385 0
M  V30 2826 C 285.516 -0.915323 -3.35436 0
M  V30 2827 H 284.839 -1.74759 -3.59582 0
M  V30 2828 H 286.279 -0.868895 -4.15001 0
M  V30 2829 C 284.738 0.381928 -3.34728 0
M  V30 2830 O 285.268 1.39857 -3.76567 0
M  V30 2831 N 283.474 0.398633 -2.87853 0
M  V30 2832 H 283.021 -0.429186 -2.54 0
M  V30 2833 H 282.979 1.26651 -2.87762 0
M  V30 2834 N 286.751 1.08385 -1.14413 0
M  V30 2835 C 287.714 2.13486 -0.834048 0
M  V30 2836 C 288.714 1.59988 0.161418 0
M  V30 2837 O 289.904 1.74071 -0.0669575 0
M  V30 2838 C 287.036 3.4003 -0.243354 0
M  V30 2839 H 288.229 2.42425 -1.7655 0
M  V30 2840 H 285.782 1.24101 -0.950189 0
M  V30 2841 H 286.517 3.16726 0.696807 0
M  V30 2842 H 286.302 3.80157 -0.960367 0
M  V30 2843 H 287.792 4.17577 -0.0436242 0
M  V30 2844 N 288.23 0.939286 1.26551 0
M  V30 2845 C 289.16 0.465044 2.28822 0
M  V30 2846 C 290.141 -0.480692 1.63167 0
M  V30 2847 O 291.326 -0.382955 1.90387 0
M  V30 2848 C 288.456 -0.27234 3.46231 0
M  V30 2849 C 287.41 0.58666 4.2396 0
M  V30 2850 C 286.736 -0.280573 5.33963 0
M  V30 2851 C 288.036 1.85704 4.88171 0
M  V30 2852 H 289.73 1.31979 2.68741 0
M  V30 2853 H 287.276 0.636061 1.29191 0
M  V30 2854 H 289.229 -0.615133 4.16886 0
M  V30 2855 H 287.953 -1.16121 3.0526 0
M  V30 2856 H 286.612 0.91232 3.55067 0
M  V30 2857 H 286.26 -1.16874 4.89234 0
M  V30 2858 H 285.96 0.29076 5.8688 0
M  V30 2859 H 287.484 -0.618678 6.07458 0
M  V30 2860 H 288.898 1.58161 5.51052 0
M  V30 2861 H 287.295 2.37279 5.51197 0
M  V30 2862 H 288.365 2.56957 4.11219 0
M  V30 2863 N 289.708 -1.40897 0.706093 0
M  V30 2864 C 291.119 -1.84023 0.315052 0
M  V30 2865 C 291.47 -1.5906 -1.14866 0
M  V30 2866 O 290.595 -1.06651 -1.88293 0
M  V30 2867 C 291.19 -3.34055 0.565038 0
M  V30 2868 C 289.749 -3.7571 0.227806 0
M  V30 2869 C 288.896 -2.64204 0.842122 0
M  V30 2870 H 291.847 -1.303 0.905963 0
M  V30 2871 H 291.868 -3.80107 -0.172843 0
M  V30 2872 H 291.38 -3.52192 1.63042 0
M  V30 2873 H 289.481 -3.63172 -0.832895 0
M  V30 2874 H 289.594 -4.74103 0.690174 0
M  V30 2875 H 287.958 -2.53255 0.270893 0
M  V30 2876 H 288.741 -2.85155 1.91158 0
M  V30 2877 N 291.186 -0.45159 -1.50991 0
M  V30 2878 C 292.096 0.358431 -2.31846 0
M  V30 2879 C 293.112 1.01438 -1.41373 0
M  V30 2880 O 294.288 1.00663 -1.74439 0
M  V30 2881 C 291.353 1.43704 -3.15515 0
M  V30 2882 C 290.414 0.799742 -4.21785 0
M  V30 2883 C 289.647 1.82696 -5.01456 0
M  V30 2884 O 289.87 3.05105 -4.81941 0
M  V30 2885 O 288.804 1.40958 -5.85162 0
M  V30 2886 H 292.63 -0.302032 -3.02194 0
M  V30 2887 H 290.215 -0.213825 -1.47862 0
M  V30 2888 H 292.097 2.06227 -3.67489 0
M  V30 2889 H 290.772 2.08133 -2.47916 0
M  V30 2890 H 289.679 0.136084 -3.73852 0
M  V30 2891 H 291.012 0.198718 -4.91799 0
M  V30 2892 N 292.664 1.56529 -0.183458 0
M  V30 2893 C 293.594 2.21549 0.737456 0
M  V30 2894 C 294.575 1.17489 1.23005 0
M  V30 2895 O 295.76 1.45959 1.281 0
M  V30 2896 C 292.89 2.86575 1.96194 0
M  V30 2897 C 291.844 3.96778 1.60473 0
M  V30 2898 C 291.17 4.48911 2.90487 0
M  V30 2899 C 292.47 5.15767 0.823497 0
M  V30 2900 H 294.164 2.98761 0.195453 0
M  V30 2901 H 291.71 1.43702 0.0925686 0
M  V30 2902 H 293.663 3.30739 2.61131 0
M  V30 2903 H 292.387 2.06749 2.52828 0
M  V30 2904 H 291.046 3.53286 0.978997 0
M  V30 2905 H 290.694 3.65862 3.45186 0
M  V30 2906 H 290.394 5.23265 2.67335 0
M  V30 2907 H 291.918 4.95771 3.56432 0
M  V30 2908 H 293.332 5.56549 1.37571 0
M  V30 2909 H 291.729 5.96114 0.690551 0
M  V30 2910 H 292.799 4.84574 -0.177782 0
M  V30 2911 N 294.142 -0.090211 1.57342 0
M  V30 2912 C 295.388 -0.793982 1.86611 0
M  V30 2913 C 295.721 -1.78142 0.773252 0
M  V30 2914 O 294.996 -1.93271 -0.218304 0
M  V30 2915 C 295.279 -1.51839 3.26523 0
M  V30 2916 C 295.132 -0.548609 4.46442 0
M  V30 2917 C 296.451 -2.46779 3.64401 0
M  V30 2918 H 293.57 -0.287186 0.678744 0
M  V30 2919 H 296.212 -0.0575076 1.89913 0
M  V30 2920 H 294.362 -2.14617 3.23839 0
M  V30 2921 H 296.034 0.0725513 4.61243 0
M  V30 2922 H 294.277 0.137614 4.33582 0
M  V30 2923 H 294.948 -1.09271 5.41076 0
M  V30 2924 H 297.424 -1.94089 3.68061 0
M  V30 2925 H 296.3 -2.94479 4.63221 0
M  V30 2926 H 296.561 -3.30758 2.93346 0
M  V30 2927 N 295.62 -1.53406 -0.361157 0
M  V30 2928 C 296.583 -1.79479 -1.42548 0
M  V30 2929 C 297.583 -0.665327 -1.4639 0
M  V30 2930 O 298.773 -0.933549 -1.47073 0
M  V30 2931 C 295.905 -1.92087 -2.8163 0
M  V30 2932 H 297.098 -2.74538 -1.20701 0
M  V30 2933 H 294.651 -1.4455 -0.594546 0
M  V30 2934 H 295.386 -0.991099 -3.08784 0
M  V30 2935 H 295.171 -2.74241 -2.80239 0
M  V30 2936 H 296.661 -2.13836 -3.58697 0
M  V30 2937 N 297.098 0.621204 -1.44841 0
M  V30 2938 C 298.326 1.40752 -1.51646 0
M  V30 2939 C 298.741 1.88246 -0.144549 0
M  V30 2940 O 298.098 1.61422 0.851416 0
M  V30 2941 C 298.149 2.62119 -2.4895 0
M  V30 2942 O 297.87 2.16602 -3.80808 0
M  V30 2943 C 299.371 3.55135 -2.65319 0
M  V30 2944 H 296.591 0.431325 -0.514004 0
M  V30 2945 H 299.135 0.758835 -1.899 0
M  V30 2946 H 297.29 3.23058 -2.13805 0
M  V30 2947 H 297.704 2.95358 -4.33433 0
M  V30 2948 H 299.178 4.36874 -3.37409 0
M  V30 2949 H 299.655 4.04592 -1.70886 0
M  V30 2950 H 300.261 3.00058 -3.01405 0
M  V30 2951 N 298.576 1.31904 0.862503 0
M  V30 2952 C 299.824 1.21776 1.61292 0
M  V30 2953 C 300.145 -0.222413 1.93727 0
M  V30 2954 O 299.415 -1.1451 1.58947 0
M  V30 2955 H 297.995 0.447717 0.597962 0
M  V30 2956 H 300.657 1.65326 1.03215 0
M  V30 2957 H 299.753 1.7948 2.5533 0
M  V30 2958 N 300.054 -1.07777 1.14986 0
M  V30 2959 C 301.3 -1.80557 0.923422 0
M  V30 2960 C 301.633 -1.86298 -0.548337 0
M  V30 2961 O 300.908 -1.34354 -1.40639 0
M  V30 2962 C 301.191 -3.25839 1.53299 0
M  V30 2963 C 301.044 -3.28269 3.07505 0
M  V30 2964 C 302.363 -4.22991 1.21518 0
M  V30 2965 H 299.482 -0.655493 0.336894 0
M  V30 2966 H 302.124 -1.26144 1.42083 0
M  V30 2967 H 300.274 -3.72306 1.10999 0
M  V30 2968 H 301.946 -2.90079 3.58681 0
M  V30 2969 H 300.189 -2.67355 3.4162 0
M  V30 2970 H 300.86 -4.30691 3.45266 0
M  V30 2971 H 303.336 -3.84894 1.581 0
M  V30 2972 H 302.212 -5.22945 1.66793 0
M  V30 2973 H 302.473 -4.41904 0.131505 0
M  V30 2974 N 301.532 -0.945985 -1.26051 0
M  V30 2975 C 302.943 -0.638096 -1.75457 0
M  V30 2976 C 303.294 0.846672 -1.76991 0
M  V30 2977 O 302.419 1.66262 -1.38513 0
M  V30 2978 C 303.014 -1.15157 -3.18629 0
M  V30 2979 C 301.573 -0.894004 -3.65629 0
M  V30 2980 C 300.72 -1.29967 -2.44957 0
M  V30 2981 H 303.671 -1.12376 -1.1206 0
M  V30 2982 H 303.692 -0.507615 -3.77099 0
M  V30 2983 H 303.204 -2.23222 -3.1748 0
M  V30 2984 H 301.305 0.172057 -3.72203 0
M  V30 2985 H 301.418 -1.52439 -4.54202 0
M  V30 2986 H 299.782 -0.718078 -2.44368 0
M  V30 2987 H 300.565 -2.38935 -2.46505 0
M  V30 2988 N 303.011 1.40521 -0.713556 0
M  V30 2989 C 304.26 2.00155 -0.249192 0
M  V30 2990 C 304.573 1.57224 1.16362 0
M  V30 2991 O 305.779 2.09542 1.72639 0
M  V30 2992 C 304.235 3.5773 -0.3946 0
M  V30 2993 C 303.843 4.09635 -1.81392 0
M  V30 2994 C 305.587 4.24499 0.00907364 0
M  V30 2995 C 303.494 5.59707 -1.91003 0
M  V30 2996 H 302.424 0.74868 -0.0894114 0
M  V30 2997 H 305.075 1.60784 -0.884352 0
M  V30 2998 H 303.457 3.94792 0.30911 0
M  V30 2999 H 304.631 3.83955 -2.54785 0
M  V30 3000 H 302.946 3.55456 -2.16888 0
M  V30 3001 H 305.543 5.34683 -0.0420404 0
M  V30 3002 H 305.886 4.02824 1.05065 0
M  V30 3003 H 306.419 3.92536 -0.645007 0
M  V30 3004 H 303.158 5.86234 -2.93275 0
M  V30 3005 H 302.678 5.87258 -1.22019 0
M  V30 3006 H 304.357 6.24776 -1.6812 0
M  V30 3007 N 304.489 0.459591 1.5075 0
M  V30 3008 C 305.419 -0.330644 2.31147 0
M  V30 3009 C 306.4 -1.00087 1.37538 0
M  V30 3010 O 307.585 -1.00025 1.66459 0
M  V30 3011 C 304.715 -1.41958 3.16962 0
M  V30 3012 C 303.669 -0.871608 4.19031 0
M  V30 3013 C 302.995 -2.05797 4.9351 0
M  V30 3014 C 304.295 0.109251 5.22186 0
M  V30 3015 H 305.989 0.340336 2.97459 0
M  V30 3016 H 303.535 0.165119 1.4305 0
M  V30 3017 H 305.488 -1.9798 3.71997 0
M  V30 3018 H 304.212 -2.11917 2.48513 0
M  V30 3019 H 302.871 -0.333442 3.6508 0
M  V30 3020 H 302.519 -2.74427 4.21544 0
M  V30 3021 H 302.219 -1.6976 5.62544 0
M  V30 3022 H 303.743 -2.62331 5.51375 0
M  V30 3023 H 305.157 -0.361405 5.7216 0
M  V30 3024 H 303.554 0.383316 5.98875 0
M  V30 3025 H 304.624 1.03887 4.73641 0
M  V30 3026 N 305.967 -1.56429 0.191757 0
M  V30 3027 C 306.897 -2.21937 -0.725696 0
M  V30 3028 C 307.878 -1.1814 -1.2238 0
M  V30 3029 O 309.063 -1.46636 -1.27325 0
M  V30 3030 C 306.193 -2.87611 -1.94672 0
M  V30 3031 C 305.147 -3.97623 -1.58366 0
M  V30 3032 C 304.473 -4.50446 -2.88102 0
M  V30 3033 C 305.773 -5.16197 -0.796133 0
M  V30 3034 H 307.467 -2.98861 -0.179606 0
M  V30 3035 H 305.013 -1.43749 -0.0849464 0
M  V30 3036 H 306.966 -3.3212 -2.59373 0
M  V30 3037 H 305.69 -2.08087 -2.51728 0
M  V30 3038 H 304.349 -3.53801 -0.960247 0
M  V30 3039 H 303.997 -3.67688 -3.43241 0
M  V30 3040 H 303.697 -5.24675 -2.64556 0
M  V30 3041 H 305.221 -4.97654 -3.53798 0
M  V30 3042 H 306.635 -5.57271 -1.34618 0
M  V30 3043 H 305.032 -5.96471 -0.658928 0
M  V30 3044 H 306.102 -4.84473 0.203478 0
M  V30 3045 N 307.445 0.0818655 -1.57387 0
M  V30 3046 C 308.693 0.781368 -1.86384 0
M  V30 3047 C 309.014 1.78618 -0.782342 0
M  V30 3048 O 308.284 1.94976 0.190061 0
M  V30 3049 H 306.864 0.291562 -0.687751 0
M  V30 3050 H 309.526 0.060348 -1.94807 0
M  V30 3051 H 308.622 1.3038 -2.83562 0
M  V30 3052 N 308.923 1.53595 0.353017 0
M  V30 3053 C 309.886 1.80232 1.41594 0
M  V30 3054 C 310.886 0.673081 1.46035 0
M  V30 3055 O 312.076 0.941335 1.46576 0
M  V30 3056 C 309.208 1.93578 2.80607 0
M  V30 3057 H 310.401 2.75174 1.19244 0
M  V30 3058 H 307.954 1.44864 0.586872 0
M  V30 3059 H 308.689 1.00746 3.08254 0
M  V30 3060 H 308.474 2.75724 2.78781 0
M  V30 3061 H 309.964 2.15735 3.57558 0
M  V30 3062 N 310.401 -0.613514 1.45168 0
M  V30 3063 C 311.626 -1.40437 1.52618 0
M  V30 3064 C 312.051 -1.87438 0.157707 0
M  V30 3065 O 311.409 -1.59791 -0.856537 0
M  V30 3066 C 311.457 -2.58894 2.51011 0
M  V30 3067 O 310.561 -3.59326 2.02382 0
M  V30 3068 H 309.902 -0.419506 0.514695 0
M  V30 3069 H 312.432 -0.747215 1.90467 0
M  V30 3070 H 312.442 -3.06214 2.69624 0
M  V30 3071 H 311.117 -2.24032 3.50403 0
M  V30 3072 H 309.694 -3.18695 1.93618 0
M  V30 3073 N 311.879 -1.3236 -0.855495 0
M  V30 3074 C 313.295 -1.11332 -1.14356 0
M  V30 3075 C 313.495 0.106751 -2.01217 0
M  V30 3076 O 312.551 0.791891 -2.39761 0
M  V30 3077 C 313.864 -2.39237 -1.82171 0
M  V30 3078 C 315.412 -2.44986 -1.9481 0
M  V30 3079 C 315.887 -3.7281 -2.66039 0
M  V30 3080 N 317.378 -3.73787 -2.73565 0
M  V30 3081 C 318.113 -4.69394 -3.29327 0
M  V30 3082 N 317.609 -5.75367 -3.85907 0
M  V30 3083 N 319.402 -4.56893 -3.27423 0
M  V30 3084 H 311.553 -2.10586 -0.277027 0
M  V30 3085 H 313.816 -0.929701 -0.185364 0
M  V30 3086 H 313.522 -3.28431 -1.25802 0
M  V30 3087 H 313.396 -2.50134 -2.82335 0
M  V30 3088 H 315.783 -1.56252 -2.50338 0
M  V30 3089 H 315.864 -2.38043 -0.936448 0
M  V30 3090 H 315.508 -4.61918 -2.11174 0
M  V30 3091 H 315.438 -3.77024 -3.67642 0
M  V30 3092 H 317.929 -2.97189 -2.33424 0
M  V30 3093 H 318.242 -6.44378 -4.26611 0
M  V30 3094 H 316.587 -5.79123 -3.84242 0
M  V30 3095 H 319.778 -3.73269 -2.82467 0
M  V30 3096 H 319.951 -5.31577 -3.7058 0
M  V30 3097 N 313.357 1.07166 -1.15556 0
M  V30 3098 C 314.304 2.14417 -0.854055 0
M  V30 3099 C 315.274 1.64965 0.193806 0
M  V30 3100 O 316.459 1.90703 0.0609443 0
M  V30 3101 C 313.599 3.43304 -0.351574 0
M  V30 3102 C 312.712 4.06537 -1.46123 0
M  V30 3103 C 311.847 5.23266 -0.914677 0
M  V30 3104 C 310.886 5.78464 -2.00114 0
M  V30 3105 N 310.023 6.86521 -1.47083 0
M  V30 3106 H 314.863 2.39548 -1.77259 0
M  V30 3107 H 312.4 1.17543 -0.884425 0
M  V30 3108 H 314.358 4.17179 -0.0419409 0
M  V30 3109 H 312.988 3.18419 0.530037 0
M  V30 3110 H 312.04 3.30297 -1.88701 0
M  V30 3111 H 313.352 4.43567 -2.28144 0
M  V30 3112 H 312.506 6.04131 -0.557698 0
M  V30 3113 H 311.245 4.87658 -0.0636583 0
M  V30 3114 H 310.25 4.96243 -2.36692 0
M  V30 3115 H 311.475 6.16126 -2.85597 0
M  V30 3116 H 309.421 6.52849 -0.642198 0
M  V30 3117 H 309.338 7.22446 -2.22729 0
M  V30 3118 H 310.606 7.71087 -1.14215 0
M  V30 3119 N 314.835 0.952656 1.25548 0
M  V30 3120 C 316.251 0.656769 1.4546 0
M  V30 3121 C 316.451 -0.78633 1.85524 0
M  V30 3122 O 315.507 -1.56183 1.98402 0
M  V30 3123 C 316.82 1.62801 2.52817 0
M  V30 3124 C 318.368 1.63897 2.66659 0
M  V30 3125 C 318.843 2.5978 3.77198 0
M  V30 3126 N 320.334 2.58133 3.84606 0
M  V30 3127 C 321.069 3.29003 4.69621 0
M  V30 3128 N 320.565 4.09339 5.58939 0
M  V30 3129 N 322.358 3.179 4.63569 0
M  V30 3130 H 314.509 1.88526 0.978344 0
M  V30 3131 H 316.772 0.810815 0.491206 0
M  V30 3132 H 316.478 2.65869 2.30232 0
M  V30 3133 H 316.352 1.38898 3.50695 0
M  V30 3134 H 318.739 0.615481 2.8861 0
M  V30 3135 H 318.82 1.91858 1.69187 0
M  V30 3136 H 318.464 3.62254 3.55997 0
M  V30 3137 H 318.394 2.29105 4.7415 0
M  V30 3138 H 320.885 1.99809 3.20757 0
M  V30 3139 H 321.198 4.6034 6.20731 0
M  V30 3140 H 319.543 4.13438 5.58654 0
M  V30 3141 H 322.734 2.54612 3.92798 0
M  V30 3142 H 322.907 3.73398 5.29602 0
M  V30 3143 N 316.313 -1.40141 0.720998 0
M  V30 3144 C 317.56 -2.00787 0.262842 0
M  V30 3145 C 317.888 -1.5718 -1.14563 0
M  V30 3146 O 317.143 -0.785391 -1.79249 0
M  V30 3147 C 317.442 -3.56165 0.296892 0
M  V30 3148 C 317.108 -4.19373 1.65641 0
M  V30 3149 C 315.77 -4.36352 2.02855 0
M  V30 3150 C 318.122 -4.54578 2.54968 0
M  V30 3151 C 315.45 -4.8582 3.28931 0
M  V30 3152 C 317.802 -5.05447 3.80402 0
M  V30 3153 C 316.466 -5.20635 4.17726 0
M  V30 3154 H 315.736 -0.734731 0.0961807 0
M  V30 3155 H 318.383 -1.67673 0.925093 0
M  V30 3156 H 316.688 -3.8922 -0.448932 0
M  V30 3157 H 318.385 -4.00929 -0.0755208 0
M  V30 3158 H 314.975 -4.06549 1.35704 0
M  V30 3159 H 319.159 -4.41091 2.27491 0
M  V30 3160 H 314.415 -4.95764 3.57811 0
M  V30 3161 H 318.589 -5.31663 4.49786 0
M  V30 3162 H 316.216 -5.58728 5.15487 0
M  V30 3163 N 317.792 -0.46758 -1.50504 0
M  V30 3164 C 318.722 0.318381 -2.31319 0
M  V30 3165 C 319.703 0.993564 -1.38066 0
M  V30 3166 O 320.888 0.991411 -1.66987 0
M  V30 3167 C 318.018 1.40275 -3.17711 0
M  V30 3168 C 316.972 0.849373 -4.19487 0
M  V30 3169 C 316.298 2.03177 -4.94594 0
M  V30 3170 C 317.598 -0.136942 -5.2212 0
M  V30 3171 H 319.292 -0.356106 -2.97275 0
M  V30 3172 H 316.838 -0.172703 -1.42961 0
M  V30 3173 H 318.791 1.96004 -3.73042 0
M  V30 3174 H 317.515 2.10596 -2.49634 0
M  V30 3175 H 316.174 0.314076 -3.65252 0
M  V30 3176 H 315.822 2.72187 -4.22993 0
M  V30 3177 H 315.522 1.66774 -5.63436 0
M  V30 3178 H 317.046 2.59403 -5.52759 0
M  V30 3179 H 318.46 0.331056 -5.72343 0
M  V30 3180 H 316.857 -0.41507 -5.98663 0
M  V30 3181 H 317.927 -1.06398 -4.73083 0
M  V30 3182 N 319.27 1.56325 -0.20005 0
M  V30 3183 C 320.518 1.97329 0.436547 0
M  V30 3184 C 320.839 1.08826 1.61808 0
M  V30 3185 O 320.109 0.160604 1.95241 0
M  V30 3186 H 318.689 0.728714 0.164272 0
M  V30 3187 H 321.351 1.92761 -0.287937 0
M  V30 3188 H 320.447 3.02264 0.777353 0
M  V30 3189 N 320.748 -0.0735177 1.57428 0
M  V30 3190 C 322.164 -0.428264 1.53747 0
M  V30 3191 C 322.364 -1.79272 0.91998 0
M  V30 3192 O 321.42 -2.47051 0.521745 0
M  V30 3193 C 322.733 -0.370914 2.98404 0
M  V30 3194 C 324.281 -0.451224 3.0973 0
M  V30 3195 C 324.756 -0.4238 4.56035 0
M  V30 3196 N 326.247 -0.483925 4.60665 0
M  V30 3197 C 326.982 -0.484891 5.71346 0
M  V30 3198 N 326.478 -0.440775 6.91396 0
M  V30 3199 N 328.271 -0.531319 5.59583 0
M  V30 3200 H 320.422 0.819949 1.95935 0
M  V30 3201 H 322.685 0.307493 0.896745 0
M  V30 3202 H 322.391 0.564956 3.47133 0
M  V30 3203 H 322.265 -1.18176 3.5821 0
M  V30 3204 H 324.652 -1.37752 2.60976 0
M  V30 3205 H 324.733 0.388167 2.52838 0
M  V30 3206 H 324.377 0.498638 5.05446 0
M  V30 3207 H 324.307 -1.2807 5.10789 0
M  V30 3208 H 326.798 -0.522338 3.74273 0
M  V30 3209 H 327.111 -0.44539 7.71515 0
M  V30 3210 H 325.456 -0.40749 6.93804 0
M  V30 3211 H 328.647 -0.563464 4.64696 0
M  V30 3212 H 328.82 -0.528603 6.4584 0
M  V30 3213 N 322.226 -1.5378 -0.344866 0
M  V30 3214 C 323.156 -1.84662 -1.42906 0
M  V30 3215 C 324.137 -0.701648 -1.54955 0
M  V30 3216 O 325.322 -0.953438 -1.69184 0
M  V30 3217 C 322.452 -2.05503 -2.79974 0
M  V30 3218 C 321.406 -3.21318 -2.82734 0
M  V30 3219 C 320.732 -3.2749 -4.22675 0
M  V30 3220 C 322.032 -4.59456 -2.48389 0
M  V30 3221 H 323.726 -2.75461 -1.17311 0
M  V30 3222 H 321.272 -1.32542 -0.562896 0
M  V30 3223 H 323.225 -2.25691 -3.55867 0
M  V30 3224 H 321.949 -1.11434 -3.07002 0
M  V30 3225 H 320.608 -3.00984 -2.09294 0
M  V30 3226 H 320.256 -2.31019 -4.4681 0
M  V30 3227 H 319.956 -4.05316 -4.25433 0
M  V30 3228 H 321.48 -3.49887 -5.00412 0
M  V30 3229 H 322.894 -4.79667 -3.13995 0
M  V30 3230 H 321.291 -5.39675 -2.62432 0
M  V30 3231 H 322.361 -4.63155 -1.4358 0
M  V30 3232 N 323.704 0.605807 -1.45491 0
M  V30 3233 C 324.634 1.72709 -1.57143 0
M  V30 3234 C 325.615 1.6476 -0.422884 0
M  V30 3235 O 326.8 1.83132 -0.646247 0
M  V30 3236 C 323.93 3.11316 -1.53948 0
M  V30 3237 C 322.884 3.34077 -2.67537 0
M  V30 3238 C 322.21 4.72975 -2.49397 0
M  V30 3239 C 323.51 3.24158 -4.09535 0
M  V30 3240 H 325.204 1.63214 -2.51001 0
M  V30 3241 H 322.75 0.78379 -1.208 0
M  V30 3242 H 324.703 3.89557 -1.60696 0
M  V30 3243 H 323.427 3.21655 -0.566205 0
M  V30 3244 H 322.086 2.58227 -2.6022 0
M  V30 3245 H 321.734 4.8005 -1.50205 0
M  V30 3246 H 321.434 4.8916 -3.25571 0
M  V30 3247 H 322.958 5.53414 -2.58002 0
M  V30 3248 H 324.372 3.92271 -4.18086 0
M  V30 3249 H 322.769 3.51872 -4.86113 0
M  V30 3250 H 323.839 2.2157 -4.31317 0
M  V30 3251 N 325.182 1.32811 0.848464 0
M  V30 3252 C 326.145 1.22194 1.9391 0
M  V30 3253 C 327.145 0.143404 1.60159 0
M  V30 3254 O 328.335 0.394253 1.6968 0
M  V30 3255 C 325.467 0.88067 3.29328 0
M  V30 3256 H 326.66 2.19127 2.04752 0
M  V30 3257 H 324.213 1.16731 1.0394 0
M  V30 3258 H 324.948 -0.0865776 3.24184 0
M  V30 3259 H 324.733 1.66052 3.55203 0
M  V30 3260 H 326.223 0.830871 4.09251 0
M  V30 3261 N 326.66 -1.06551 1.16123 0
M  V30 3262 C 327.908 -1.78947 0.939267 0
M  V30 3263 C 328.229 -1.87532 -0.534476 0
M  V30 3264 O 327.499 -1.38211 -1.38833 0
M  V30 3265 H 326.079 -0.662807 0.344523 0
M  V30 3266 H 328.741 -1.28725 1.46342 0
M  V30 3267 H 327.837 -2.81117 1.35572 0
M  V30 3268 N 328.138 -0.959301 -1.25041 0
M  V30 3269 C 329.101 -0.487677 -2.23952 0
M  V30 3270 C 330.101 0.41119 -1.55454 0
M  V30 3271 O 331.291 0.207825 -1.72956 0
M  V30 3272 C 328.423 0.294807 -3.39623 0
M  V30 3273 H 329.616 -1.36198 -2.67189 0
M  V30 3274 H 327.169 -0.743042 -1.37508 0
M  V30 3275 H 327.904 1.18658 -3.01813 0
M  V30 3276 H 327.689 -0.35012 -3.90534 0
M  V30 3277 H 329.179 0.614089 -4.1306 0
M  V30 3278 N 329.616 1.39756 -0.72842 0
M  V30 3279 C 330.893 1.94574 -0.200079 0
M  V30 3280 C 331.273 1.66569 1.29684 0
M  V30 3281 O 330.621 0.990326 2.05924 0
M  V30 3282 C 330.831 3.45004 -0.526608 0
M  V30 3283 C 332.179 4.21965 -0.472318 0
M  V30 3284 O 333.203 3.53173 -0.463413 0
M  V30 3285 O 332.062 5.44552 -0.461075 0
M  V30 3286 H 329.156 0.826289 -0.0342851 0
M  V30 3287 H 331.702 1.49293 -0.806829 0
M  V30 3288 H 330.474 3.58796 -1.56144 0
M  V30 3289 H 330.097 3.97449 0.109449 0
M  V30 3290 N 331.094 0.475555 1.50254 0
M  V30 3291 C 332.342 -0.077738 2.0195 0
M  V30 3292 C 332.663 -1.39813 1.35931 0
M  V30 3293 O 331.933 -1.89249 0.506123 0
M  V30 3294 H 330.513 -0.031719 0.746326 0
M  V30 3295 H 333.175 0.626995 1.84539 0
M  V30 3296 H 332.271 -0.225995 3.11281 0
M  V30 3297 N 332.573 -1.56217 0.208337 0
M  V30 3298 C 333.536 -2.18455 -0.693557 0
M  V30 3299 C 334.536 -1.14268 -1.13135 0
M  V30 3300 O 335.726 -1.39577 -1.0423 0
M  V30 3301 C 332.858 -2.79727 -1.94848 0
M  V30 3302 H 334.051 -2.99519 -0.15114 0
M  V30 3303 H 331.604 -1.56245 -0.041287 0
M  V30 3304 H 332.339 -2.02497 -2.53309 0
M  V30 3305 H 332.124 -3.56009 -1.64316 0
M  V30 3306 H 333.614 -3.27475 -2.59133 0
M  V30 3307 N 334.051 0.0651679 -1.57465 0
M  V30 3308 C 335.297 0.764193 -1.87851 0
M  V30 3309 C 335.63 1.76889 -0.801495 0
M  V30 3310 O 334.905 1.93594 0.187528 0
M  V30 3311 C 335.188 1.46625 -3.28897 0
M  V30 3312 C 335.041 0.477515 -4.47258 0
M  V30 3313 C 336.36 2.4095 -3.68281 0
M  V30 3314 H 333.479 0.276351 -0.683227 0
M  V30 3315 H 336.121 0.0272868 -1.8998 0
M  V30 3316 H 334.271 2.09438 -3.27212 0
M  V30 3317 H 335.943 -0.145922 -4.61069 0
M  V30 3318 H 334.186 -0.206576 -4.33308 0
M  V30 3319 H 334.857 1.0065 -5.42746 0
M  V30 3320 H 337.333 1.88209 -3.71102 0
M  V30 3321 H 336.209 2.87072 -4.67847 0
M  V30 3322 H 336.47 3.26049 -2.98571 0
M  V30 3323 N 335.529 1.53961 0.336706 0
M  V30 3324 C 336.945 1.44378 0.680241 0
M  V30 3325 C 337.145 0.606034 1.9217 0
M  V30 3326 O 336.201 0.099688 2.52303 0
M  V30 3327 C 337.514 2.87945 0.8665 0
M  V30 3328 C 339.062 2.97763 0.964682 0
M  V30 3329 C 339.537 4.42453 1.18321 0
M  V30 3330 N 341.028 4.46008 1.25025 0
M  V30 3331 C 341.763 5.55102 1.43697 0
M  V30 3332 N 341.259 6.7419 1.59498 0
M  V30 3333 N 343.052 5.42727 1.463 0
M  V30 3334 H 335.203 2.06918 -0.479455 0
M  V30 3335 H 337.466 0.935634 -0.152619 0
M  V30 3336 H 337.172 3.51691 0.0256937 0
M  V30 3337 H 337.046 3.33293 1.76623 0
M  V30 3338 H 339.433 2.34153 1.796 0
M  V30 3339 H 339.514 2.55766 0.041708 0
M  V30 3340 H 339.158 5.06645 0.356788 0
M  V30 3341 H 339.088 4.82048 2.11985 0
M  V30 3342 H 341.579 3.60196 1.14312 0
M  V30 3343 H 341.892 7.53095 1.734 0
M  V30 3344 H 340.237 6.77123 1.56621 0
M  V30 3345 H 343.428 4.48647 1.33543 0
M  V30 3346 H 343.601 6.27806 1.6051 0
M  V30 3347 N 337.007 -0.598083 1.45811 0
M  V30 3348 C 338.418 -1.18011 1.44673 0
M  V30 3349 C 338.769 -1.95378 0.179364 0
M  V30 3350 O 337.894 -2.04124 -0.718509 0
M  V30 3351 C 338.489 -2.14677 2.62105 0
M  V30 3352 C 337.048 -2.68236 2.64057 0
M  V30 3353 C 336.195 -1.43816 2.37091 0
M  V30 3354 H 339.146 -0.38686 1.53913 0
M  V30 3355 H 339.167 -2.97878 2.36746 0
M  V30 3356 H 338.679 -1.5834 3.5433 0
M  V30 3357 H 336.78 -3.28486 1.75864 0
M  V30 3358 H 336.893 -3.12021 3.63566 0
M  V30 3359 H 335.257 -1.731 1.86838 0
M  V30 3360 H 336.04 -0.893333 3.31473 0
M  V30 3361 N 338.485 -1.33259 -0.841409 0
M  V30 3362 C 339.896 -1.22066 -1.41269 0
M  V30 3363 C 340.247 0.161479 -1.95534 0
M  V30 3364 O 339.372 1.06094 -1.88608 0
M  V30 3365 C 339.967 -2.20996 -2.568 0
M  V30 3366 C 338.526 -2.13649 -3.09888 0
M  V30 3367 C 337.673 -2.08623 -1.82679 0
M  V30 3368 H 340.624 -1.44895 -0.647395 0
M  V30 3369 H 340.645 -1.81621 -3.34356 0
M  V30 3370 H 340.157 -3.2158 -2.17274 0
M  V30 3371 H 338.258 -1.16359 -3.53965 0
M  V30 3372 H 338.371 -3.04079 -3.70234 0
M  V30 3373 H 336.735 -1.54061 -2.02824 0
M  V30 3374 H 337.518 -3.1101 -1.45353 0
M  V30 3375 N 339.963 1.05934 -1.16686 0
M  V30 3376 C 341.24 1.75643 -0.860747 0
M  V30 3377 C 341.62 2.01144 0.640641 0
M  V30 3378 O 340.968 1.64147 1.58959 0
M  V30 3379 C 341.178 3.05493 -1.68745 0
M  V30 3380 C 342.526 3.79581 -1.90271 0
M  V30 3381 O 343.55 3.15344 -1.65641 0
M  V30 3382 O 342.409 4.9499 -2.31618 0
M  V30 3383 H 339.503 0.763426 -0.317977 0
M  V30 3384 H 342.049 1.1217 -1.27342 0
M  V30 3385 H 340.821 2.8264 -2.70611 0
M  V30 3386 H 340.444 3.76702 -1.27206 0
M  V30 3387 N 341.441 0.965919 1.2453 0
M  V30 3388 C 342.689 0.625593 1.92174 0
M  V30 3389 C 343.01 -0.841652 1.75901 0
M  V30 3390 O 342.28 -1.60061 1.12948 0
M  V30 3391 H 340.86 0.228388 0.71123 0
M  V30 3392 H 343.522 1.2266 1.51461 0
M  V30 3393 H 342.618 0.864653 2.99884 0
M  V30 3394 N 342.919 -1.39368 0.735821 0
M  V30 3395 C 344.335 -1.54204 0.411492 0
M  V30 3396 C 344.535 -1.70268 -1.07755 0
M  V30 3397 O 343.591 -1.70364 -1.86366 0
M  V30 3398 C 344.904 -2.75925 1.19523 0
M  V30 3399 C 346.452 -2.89761 1.18354 0
M  V30 3400 C 346.927 -4.14421 1.94986 0
M  V30 3401 N 348.418 -4.21462 1.92156 0
M  V30 3402 C 349.153 -5.16871 2.48258 0
M  V30 3403 N 348.649 -6.18063 3.13001 0
M  V30 3404 N 350.442 -5.09093 2.38287 0
M  V30 3405 H 342.593 -1.27189 1.70108 0
M  V30 3406 H 344.856 -0.616517 0.720147 0
M  V30 3407 H 344.562 -2.70401 2.24892 0
M  V30 3408 H 344.436 -3.68614 0.800222 0
M  V30 3409 H 346.823 -2.94777 0.137975 0
M  V30 3410 H 346.904 -1.98133 1.61793 0
M  V30 3411 H 346.548 -4.10166 2.99543 0
M  V30 3412 H 346.478 -5.05095 1.48953 0
M  V30 3413 H 348.969 -3.48979 1.44991 0
M  V30 3414 H 349.282 -6.87326 3.53275 0
M  V30 3415 H 347.627 -6.18448 3.17091 0
M  V30 3416 H 350.818 -4.28973 1.8735 0
M  V30 3417 H 350.991 -5.83272 2.82308 0
M  V30 3418 N 344.397 -0.483516 -1.5 0
M  V30 3419 C 345.307 0.309172 -2.32554 0
M  V30 3420 C 346.323 0.984159 -1.43493 0
M  V30 3421 O 347.499 0.969399 -1.76535 0
M  V30 3422 C 344.564 1.36979 -3.18493 0
M  V30 3423 C 343.625 0.710095 -4.23387 0
M  V30 3424 C 342.858 1.72018 -5.05218 0
M  V30 3425 O 343.081 2.94813 -4.88305 0
M  V30 3426 O 342.015 1.28515 -5.8802 0
M  V30 3427 H 345.841 -0.366064 -3.01486 0
M  V30 3428 H 343.426 -0.24514 -1.47375 0
M  V30 3429 H 345.308 1.98385 -3.71781 0
M  V30 3430 H 343.983 2.02828 -2.52275 0
M  V30 3431 H 342.89 0.0567539 -3.74057 0
M  V30 3432 H 344.223 0.0943557 -4.9211 0
M  V30 3433 N 345.875 1.56104 -0.216619 0
M  V30 3434 C 347.103 2.02563 0.421413 0
M  V30 3435 C 347.518 1.0965 1.53695 0
M  V30 3436 O 346.875 0.10521 1.82196 0
M  V30 3437 C 346.926 3.48584 0.957665 0
M  V30 3438 O 346.647 4.37953 -0.113389 0
M  V30 3439 C 348.148 4.10664 1.66943 0
M  V30 3440 H 345.368 0.662944 0.103665 0
M  V30 3441 H 347.912 2.01793 -0.331629 0
M  V30 3442 H 346.067 3.49985 1.661 0
M  V30 3443 H 346.481 5.23704 0.288932 0
M  V30 3444 H 347.955 5.14622 1.99671 0
M  V30 3445 H 348.432 3.55373 2.58083 0
M  V30 3446 H 349.038 4.13098 1.01142 0
M  V30 3447 N 347.353 -0.0568162 1.57498 0
M  V30 3448 C 348.316 -1.05038 2.03715 0
M  V30 3449 C 349.316 -1.30709 0.936577 0
M  V30 3450 O 350.506 -1.26178 1.20103 0
M  V30 3451 C 347.638 -2.39034 2.43055 0
M  V30 3452 H 348.831 -0.651715 2.92733 0
M  V30 3453 H 346.384 -0.302947 1.53336 0
M  V30 3454 H 347.119 -2.83703 1.57108 0
M  V30 3455 H 346.904 -2.21739 3.2338 0
M  V30 3456 H 348.394 -3.10421 2.79336 0
M  V30 3457 N 348.832 -1.54138 -0.328536 0
M  V30 3458 C 350.06 -1.76062 -1.08673 0
M  V30 3459 C 350.475 -0.506852 -1.81869 0
M  V30 3460 O 349.832 0.522223 -1.74869 0
M  V30 3461 C 349.883 -2.95054 -2.08866 0
M  V30 3462 O 349.604 -4.15583 -1.38644 0
M  V30 3463 C 351.105 -3.2915 -2.96943 0
M  V30 3464 H 348.325 -0.587889 -0.323461 0
M  V30 3465 H 350.869 -2.0101 -0.376175 0
M  V30 3466 H 349.024 -2.72394 -2.75464 0
M  V30 3467 H 349.438 -4.82481 -2.05699 0
M  V30 3468 H 350.912 -4.15723 -3.63151 0
M  V30 3469 H 351.389 -2.461 -3.63774 0
M  V30 3470 H 351.995 -3.53871 -2.35914 0
M  V30 3471 N 350.31 0.590341 -1.46126 0
M  V30 3472 C 351.273 1.68194 -1.55703 0
M  V30 3473 C 352.273 1.54808 -0.434868 0
M  V30 3474 O 353.463 1.59564 -0.698928 0
M  V30 3475 C 350.595 3.07575 -1.47005 0
M  V30 3476 H 351.788 1.61064 -2.52979 0
M  V30 3477 H 349.341 0.807541 -1.33823 0
M  V30 3478 H 350.076 3.20268 -0.509785 0
M  V30 3479 H 349.861 3.187 -2.28414 0
M  V30 3480 H 351.351 3.87055 -1.56776 0
M  V30 3481 N 351.788 1.33704 0.83433 0
M  V30 3482 C 353.034 1.25603 1.59222 0
M  V30 3483 C 353.367 -0.176659 1.93395 0
M  V30 3484 O 352.642 -1.11915 1.59076 0
M  V30 3485 C 352.925 2.13576 2.89926 0
M  V30 3486 C 352.778 3.65326 2.62406 0
M  V30 3487 C 354.097 2.01238 3.91397 0
M  V30 3488 H 351.216 0.457613 0.577719 0
M  V30 3489 H 353.858 1.63848 0.961972 0
M  V30 3490 H 352.008 1.8109 3.43713 0
M  V30 3491 H 353.68 4.08124 2.15017 0
M  V30 3492 H 351.923 3.8698 1.96033 0
M  V30 3493 H 352.594 4.22232 3.55562 0
M  V30 3494 H 355.07 2.29738 3.46929 0
M  V30 3495 H 353.946 2.65036 4.80673 0
M  V30 3496 H 354.207 0.985951 4.30966 0
M  V30 3497 N 353.266 -1.05314 1.17247 0
M  V30 3498 C 354.515 -1.77685 0.954521 0
M  V30 3499 C 354.828 -1.88616 -0.518025 0
M  V30 3500 O 356.034 -2.57714 -0.854144 0
M  V30 3501 C 354.49 -3.19402 1.65863 0
M  V30 3502 C 354.098 -3.16605 3.16963 0
M  V30 3503 C 355.842 -3.96237 1.52303 0
M  V30 3504 C 353.749 -4.53103 3.80068 0
M  V30 3505 H 352.679 -0.666 0.353496 0
M  V30 3506 H 355.33 -1.1805 1.40486 0
M  V30 3507 H 353.712 -3.79355 1.13602 0
M  V30 3508 H 354.886 -2.66176 3.76148 0
M  V30 3509 H 353.201 -2.53268 3.30521 0
M  V30 3510 H 355.798 -4.97157 1.96822 0
M  V30 3511 H 356.141 -4.136 0.473401 0
M  V30 3512 H 356.674 -3.42829 2.01775 0
M  V30 3513 H 353.413 -4.40946 4.85023 0
M  V30 3514 H 352.933 -5.03686 3.2567 0
M  V30 3515 H 354.612 -5.22045 3.82202 0
M  V30 3516 N 354.744 -0.972509 -1.24016 0
M  V30 3517 C 355.969 -0.654417 -1.96805 0
M  V30 3518 C 356.394 0.770398 -1.716 0
M  V30 3519 O 355.752 1.52361 -0.982647 0
M  V30 3520 C 355.8 -0.941031 -3.48105 0
M  V30 3521 O 354.904 -0.0289472 -4.1239 0
M  V30 3522 H 354.245 -0.24692 -0.616382 0
M  V30 3523 H 356.775 -1.30396 -1.57664 0
M  V30 3524 H 356.785 -0.87452 -3.98517 0
M  V30 3525 H 355.46 -1.97939 -3.65777 0
M  V30 3526 H 354.037 -0.149192 -3.72601 0
M  V30 3527 N 356.222 1.38976 -0.743202 0
M  V30 3528 C 357.185 2.28901 -0.117014 0
M  V30 3529 C 358.185 1.46698 0.658503 0
M  V30 3530 O 359.375 1.67274 0.486305 0
M  V30 3531 C 356.507 3.30309 0.84315 0
M  V30 3532 H 357.7 2.8578 -0.909373 0
M  V30 3533 H 355.253 1.47761 -0.509547 0
M  V30 3534 H 355.988 2.785 1.66157 0
M  V30 3535 H 355.773 3.91029 0.289594 0
M  V30 3536 H 357.263 3.97577 1.2776 0
M  V30 3537 N 357.7 0.491464 1.49741 0
M  V30 3538 C 358.63 -0.28154 2.31796 0
M  V30 3539 C 359.611 -0.971473 1.3963 0
M  V30 3540 O 360.796 -0.964719 1.68543 0
M  V30 3541 C 357.926 -1.35203 3.19902 0
M  V30 3542 C 356.88 -0.782529 4.20786 0
M  V30 3543 C 356.206 -1.95283 4.97764 0
M  V30 3544 C 357.506 0.21999 5.21837 0
M  V30 3545 H 359.2 0.403355 2.96671 0
M  V30 3546 H 356.746 0.195425 1.42668 0
M  V30 3547 H 358.699 -1.90045 3.76113 0
M  V30 3548 H 357.423 -2.06598 2.52953 0
M  V30 3549 H 356.082 -0.255928 3.65706 0
M  V30 3550 H 355.73 -2.65423 4.2727 0
M  V30 3551 H 355.43 -1.57789 5.66018 0
M  V30 3552 H 356.954 -2.50577 5.56816 0
M  V30 3553 H 358.368 -0.23996 5.72798 0
M  V30 3554 H 356.765 0.51026 5.97927 0
M  V30 3555 H 357.835 1.13911 4.7133 0
M  V30 3556 N 359.178 -1.55987 0.224894 0
M  V30 3557 C 360.141 -2.19178 -0.670348 0
M  V30 3558 C 361.141 -1.15461 -1.11917 0
M  V30 3559 O 362.331 -1.40675 -1.02743 0
M  V30 3560 C 359.463 -2.81777 -1.9187 0
M  V30 3561 H 360.656 -2.99662 -0.119364 0
M  V30 3562 H 358.209 -1.5628 -0.0247128 0
M  V30 3563 H 358.944 -2.05172 -2.51147 0
M  V30 3564 H 358.729 -3.57732 -1.60531 0
M  V30 3565 H 360.219 -3.30205 -2.55645 0
M  V30 3566 N 360.656 0.0484629 -1.57525 0
M  V30 3567 C 361.619 1.03956 -2.04269 0
M  V30 3568 C 362.619 1.30211 -0.943496 0
M  V30 3569 O 363.809 1.25539 -1.20771 0
M  V30 3570 C 360.941 2.37742 -2.44319 0
M  V30 3571 H 362.134 0.636182 -2.93075 0
M  V30 3572 H 359.687 0.294811 -1.53494 0
M  V30 3573 H 360.422 2.82866 -1.5861 0
M  V30 3574 H 360.207 2.20021 -3.24551 0
M  V30 3575 H 361.697 3.08936 -2.80978 0
M  V30 3576 N 362.134 1.5431 0.320358 0
M  V30 3577 C 363.064 1.86912 1.3995 0
M  V30 3578 C 364.045 0.726211 1.53819 0
M  V30 3579 O 365.23 0.980233 1.67646 0
M  V30 3580 C 362.36 2.09932 2.7667 0
M  V30 3581 C 361.314 3.25776 2.77586 0
M  V30 3582 C 360.64 3.34173 4.17412 0
M  V30 3583 C 361.94 4.6335 2.41048 0
M  V30 3584 H 363.634 2.77292 1.12914 0
M  V30 3585 H 361.18 1.33421 0.541738 0
M  V30 3586 H 363.133 2.31324 3.52232 0
M  V30 3587 H 361.857 1.16304 3.0519 0
M  V30 3588 H 360.516 3.04276 2.04479 0
M  V30 3589 H 360.164 2.38098 4.43078 0
M  V30 3590 H 359.864 4.12033 4.18931 0
M  V30 3591 H 361.388 3.57803 4.94782 0
M  V30 3592 H 362.802 4.84602 3.06324 0
M  V30 3593 H 361.199 5.43782 2.53813 0
M  V30 3594 H 362.269 4.65381 1.36193 0
M  V30 3595 N 363.613 -0.582584 1.46437 0
M  V30 3596 C 364.563 -1.68654 1.53426 0
M  V30 3597 C 365.547 -1.55971 0.395194 0
M  V30 3598 O 366.739 -1.64884 0.643612 0
M  V30 3599 C 363.868 -3.07439 1.52762 0
M  V30 3600 C 362.954 -3.25418 2.71963 0
M  V30 3601 N 363.345 -3.13556 3.96883 0
M  V30 3602 C 361.643 -3.56357 2.68189 0
M  V30 3603 C 362.344 -3.33543 4.76575 0
M  V30 3604 N 361.32 -3.58704 4.08451 0
M  V30 3605 H 365.122 -1.58014 2.47808 0
M  V30 3606 H 362.636 -0.786617 1.42078 0
M  V30 3607 H 364.633 -3.86671 1.55857 0
M  V30 3608 H 363.293 -3.1921 0.594573 0
M  V30 3609 H 364.304 -2.9142 4.28129 0
M  V30 3610 H 360.981 -3.74812 1.83908 0
M  V30 3611 H 362.371 -3.29555 5.85528 0
M  V30 3612 N 365.091 -1.34144 -0.827227 0
M  V30 3613 C 366.339 -1.26009 -1.58007 0
M  V30 3614 C 366.66 0.170971 -1.94249 0
M  V30 3615 O 365.93 1.10256 -1.61927 0
M  V30 3616 H 364.51 -0.463414 -0.585881 0
M  V30 3617 H 367.172 -1.68005 -0.987951 0
M  V30 3618 H 366.268 -1.86187 -2.50481 0
M  V30 3619 N 366.569 1.04691 -1.17803 0
M  V30 3620 C 367.532 2.10724 -0.901545 0
M  V30 3621 C 368.532 1.6042 0.110437 0
M  V30 3622 O 369.722 1.7377 -0.122303 0
M  V30 3623 C 366.854 3.39084 -0.351409 0
M  V30 3624 H 368.047 2.36686 -1.84174 0
M  V30 3625 H 365.6 1.21015 -0.98919 0
M  V30 3626 H 366.335 3.18782 0.59569 0
M  V30 3627 H 366.12 3.76909 -1.08083 0
M  V30 3628 H 367.61 4.17227 -0.176451 0
M  V30 3629 N 368.047 0.979072 1.23499 0
M  V30 3630 C 369.293 0.6578 1.9247 0
M  V30 3631 C 369.648 -0.799746 1.74991 0
M  V30 3632 O 368.941 -1.56922 1.09937 0
M  V30 3633 C 369.135 0.981932 3.43646 0
M  V30 3634 C 368.964 2.46944 3.75831 0
M  V30 3635 C 367.734 3.13119 3.96591 0
M  V30 3636 C 369.932 3.45006 3.81412 0
M  V30 3637 N 367.914 4.51489 4.15969 0
M  V30 3638 C 369.285 4.68778 4.05768 0
M  V30 3639 C 371.34 3.39505 3.64198 0
M  V30 3640 C 370.043 5.87723 4.14697 0
M  V30 3641 C 372.069 4.57814 3.7438 0
M  V30 3642 C 371.431 5.80381 3.99171 0
M  V30 3643 H 367.53 0.291746 0.72554 0
M  V30 3644 H 370.114 1.25626 1.48749 0
M  V30 3645 H 368.285 0.412179 3.86207 0
M  V30 3646 H 370.017 0.618068 3.99953 0
M  V30 3647 H 366.772 2.63619 3.93449 0
M  V30 3648 H 367.196 5.23221 4.29615 0
M  V30 3649 H 371.838 2.45773 3.44029 0
M  V30 3650 H 369.556 6.81874 4.33675 0
M  V30 3651 H 373.142 4.55132 3.62417 0
M  V30 3652 H 372.022 6.70398 4.06861 0
M  V30 3653 N 369.525 -1.3858 0.750561 0
M  V30 3654 C 370.773 -1.99789 0.30477 0
M  V30 3655 C 371.094 -1.59874 -1.11649 0
M  V30 3656 O 370.364 -0.85417 -1.76297 0
M  V30 3657 H 368.944 -0.738902 0.109694 0
M  V30 3658 H 371.606 -1.69391 0.963983 0
M  V30 3659 H 370.702 -3.09952 0.365499 0
M  V30 3660 N 371.003 -0.499398 -1.49478 0
M  V30 3661 C 372.249 0.0457576 -2.02748 0
M  V30 3662 C 372.582 1.36793 -1.37846 0
M  V30 3663 O 371.857 1.87596 -0.513601 0
M  V30 3664 C 372.14 0.199986 -3.59544 0
M  V30 3665 C 371.993 -1.1452 -4.34977 0
M  V30 3666 C 373.312 0.94137 -4.29914 0
M  V30 3667 H 370.431 0.0151552 -0.736844 0
M  V30 3668 H 373.073 -0.650498 -1.78518 0
M  V30 3669 H 371.223 0.793007 -3.8032 0
M  V30 3670 H 372.895 -1.77697 -4.25701 0
M  V30 3671 H 371.138 -1.73488 -3.97598 0
M  V30 3672 H 371.809 -0.990607 -5.43039 0
M  V30 3673 H 374.285 0.43844 -4.13784 0
M  V30 3674 H 373.161 1.01812 -5.39375 0
M  V30 3675 H 373.422 1.98471 -3.95046 0
M  V30 3676 N 372.481 1.55866 -0.233164 0
M  V30 3677 C 373.897 1.59133 0.121988 0
M  V30 3678 C 374.097 1.25016 1.58029 0
M  V30 3679 O 373.153 0.990922 2.32243 0
M  V30 3680 C 374.466 2.99932 -0.214792 0
M  V30 3681 C 376.014 3.12601 -0.157971 0
M  V30 3682 C 376.489 4.55597 -0.46859 0
M  V30 3683 N 377.98 4.61305 -0.418585 0
M  V30 3684 C 378.715 5.69903 -0.63227 0
M  V30 3685 N 378.211 6.86819 -0.90835 0
M  V30 3686 N 380.004 5.59264 -0.563913 0
M  V30 3687 H 372.155 1.76315 -1.18434 0
M  V30 3688 H 374.418 0.820093 -0.475553 0
M  V30 3689 H 374.124 3.29588 -1.22739 0
M  V30 3690 H 373.998 3.74327 0.464691 0
M  V30 3691 H 376.385 2.82735 0.845283 0
M  V30 3692 H 376.466 2.40511 -0.871102 0
M  V30 3693 H 376.11 4.86182 -1.46934 0
M  V30 3694 H 376.04 5.25928 0.265865 0
M  V30 3695 H 378.531 3.77297 -0.213368 0
M  V30 3696 H 378.844 7.65507 -1.05919 0
M  V30 3697 H 377.189 6.88536 -0.945673 0
M  V30 3698 H 380.38 4.66802 -0.348372 0
M  V30 3699 H 380.553 6.43831 -0.733847 0
M  V30 3700 N 373.959 -0.0401083 1.57549 0
M  V30 3701 C 375.205 -0.734211 1.89043 0
M  V30 3702 C 375.538 -1.75591 0.829535 0
M  V30 3703 O 374.813 -1.93868 -0.156706 0
M  V30 3704 C 375.096 -1.41374 3.31188 0
M  V30 3705 C 374.949 -0.406299 4.47961 0
M  V30 3706 C 376.268 -2.35061 3.72068 0
M  V30 3707 H 373.387 -0.265447 0.687537 0
M  V30 3708 H 376.029 0.00294087 1.9 0
M  V30 3709 H 374.179 -2.04206 3.30503 0
M  V30 3710 H 375.851 0.219255 4.60779 0
M  V30 3711 H 374.094 0.275485 4.32924 0
M  V30 3712 H 374.765 -0.920022 5.44279 0
M  V30 3713 H 377.241 -1.82282 3.74049 0
M  V30 3714 H 376.117 -2.79593 4.72355 0
M  V30 3715 H 376.378 -3.21258 3.0372 0
M  V30 3716 N 375.437 -1.54477 -0.31217 0
M  V30 3717 C 376.387 -1.81037 -1.38598 0
M  V30 3718 C 377.371 -0.666941 -1.46426 0
M  V30 3719 O 378.563 -0.927269 -1.50767 0
M  V30 3720 C 375.692 -2.05127 -2.75277 0
M  V30 3721 C 374.778 -3.25624 -2.71716 0
M  V30 3722 N 375.169 -4.46428 -2.37773 0
M  V30 3723 C 373.467 -3.27427 -3.02833 0
M  V30 3724 C 374.168 -5.28406 -2.43232 0
M  V30 3725 N 373.144 -4.6586 -2.80135 0
M  V30 3726 H 376.946 -2.7201 -1.11301 0
M  V30 3727 H 374.46 -1.53826 -0.520705 0
M  V30 3728 H 376.457 -2.22299 -3.52688 0
M  V30 3729 H 375.117 -1.15416 -3.03495 0
M  V30 3730 H 376.128 -4.73227 -2.1042 0
M  V30 3731 H 372.805 -2.47786 -3.36018 0
M  V30 3732 H 374.195 -6.34903 -2.19882 0
M  V30 3733 N 376.915 0.57481 -1.46744 0
M  V30 3734 C 378.192 1.3352 -1.4294 0
M  V30 3735 C 378.572 2.10775 -0.117009 0
M  V30 3736 O 377.92 2.09966 0.901474 0
M  V30 3737 C 378.13 2.25456 -2.66403 0
M  V30 3738 C 379.478 2.87035 -3.12883 0
M  V30 3739 O 380.502 2.35766 -2.67007 0
M  V30 3740 O 379.361 3.80179 -3.92589 0
M  V30 3741 H 376.455 0.600318 -0.568812 0
M  V30 3742 H 379.001 0.595171 -1.58921 0
M  V30 3743 H 377.773 1.67851 -3.53471 0
M  V30 3744 H 377.396 3.06785 -2.52921 0
M  V30 3745 N 378.394 1.34581 0.820102 0
M  V30 3746 C 379.64 1.27285 1.57881 0
M  V30 3747 C 379.973 -0.156137 1.93571 0
M  V30 3748 O 379.248 -1.10222 1.60254 0
M  V30 3749 C 379.531 2.16639 2.87645 0
M  V30 3750 C 379.384 3.68088 2.58517 0
M  V30 3751 C 380.703 2.05378 3.8924 0
M  V30 3752 H 377.822 0.463714 0.572833 0
M  V30 3753 H 380.464 1.64859 0.944539 0
M  V30 3754 H 378.614 1.84725 3.41773 0
M  V30 3755 H 380.286 4.10382 2.10676 0
M  V30 3756 H 378.529 3.89038 1.91917 0
M  V30 3757 H 379.2 4.2598 3.51063 0
M  V30 3758 H 381.676 2.33404 3.44473 0
M  V30 3759 H 380.552 2.7012 4.77835 0
M  V30 3760 H 380.813 1.0316 4.29896 0
M  V30 3761 N 379.872 -1.04064 1.18357 0
M  V30 3762 C 381.288 -1.2947 0.933258 0
M  V30 3763 C 381.488 -1.97466 -0.401169 0
M  V30 3764 O 380.544 -2.25528 -1.13549 0
M  V30 3765 C 381.857 -2.15337 2.09882 0
M  V30 3766 C 383.405 -2.28683 2.13712 0
M  V30 3767 C 383.88 -3.17917 3.29686 0
M  V30 3768 N 385.371 -3.25504 3.29547 0
M  V30 3769 C 386.106 -3.94706 4.15926 0
M  V30 3770 N 385.602 -4.66239 5.12439 0
M  V30 3771 N 387.395 -3.90986 4.0384 0
M  V30 3772 H 379.546 -0.583359 2.04232 0
M  V30 3773 H 381.809 -0.319921 0.892387 0
M  V30 3774 H 381.515 -1.72682 3.06389 0
M  V30 3775 H 381.389 -3.16015 2.05947 0
M  V30 3776 H 383.776 -2.70575 1.17784 0
M  V30 3777 H 383.857 -1.27596 2.21705 0
M  V30 3778 H 383.501 -2.76736 4.25887 0
M  V30 3779 H 383.431 -4.19036 3.1893 0
M  V30 3780 H 385.922 -2.74547 2.59677 0
M  V30 3781 H 386.235 -5.16638 5.74722 0
M  V30 3782 H 384.58 -4.65143 5.16398 0
M  V30 3783 H 387.771 -3.34234 3.27727 0
M  V30 3784 H 387.944 -4.44646 4.71375 0
M  V30 3785 N 381.35 -0.985608 -1.22978 0
M  V30 3786 C 382.313 -0.535071 -2.22867 0
M  V30 3787 C 383.313 0.378123 -1.56291 0
M  V30 3788 O 384.503 0.171092 -1.73358 0
M  V30 3789 C 381.635 0.222702 -3.40172 0
M  V30 3790 H 382.828 -1.41835 -2.6424 0
M  V30 3791 H 380.381 -0.772042 -1.35901 0
M  V30 3792 H 381.116 1.12229 -3.04262 0
M  V30 3793 H 380.901 -0.43288 -3.89703 0
M  V30 3794 H 382.391 0.526335 -4.1427 0
M  V30 3795 N 382.828 1.3818 -0.7579 0
M  V30 3796 C 384.053 2.04827 -0.325679 0
M  V30 3797 C 384.478 1.56788 1.03919 0
M  V30 3798 O 383.836 0.721811 1.66312 0
M  V30 3799 C 383.884 3.58774 -0.362447 0
M  V30 3800 O 382.988 4.07372 0.642033 0
M  V30 3801 H 382.329 0.64833 -0.143402 0
M  V30 3802 H 384.859 1.7677 -1.03023 0
M  V30 3803 H 384.869 4.07434 -0.214844 0
M  V30 3804 H 383.544 3.93096 -1.35824 0
M  V30 3805 H 382.121 3.70068 0.458688 0
M  V30 3806 N 384.306 0.507319 1.49211 0
M  V30 3807 C 385.552 -0.0350047 2.0277 0
M  V30 3808 C 385.885 -1.3606 1.38569 0
M  V30 3809 O 385.16 -1.87321 0.523542 0
M  V30 3810 C 385.443 -0.180916 3.59645 0
M  V30 3811 C 385.296 1.16825 4.34364 0
M  V30 3812 C 386.615 -0.918558 4.30407 0
M  V30 3813 H 383.734 -0.0112473 0.736914 0
M  V30 3814 H 386.376 0.659956 1.7817 0
M  V30 3815 H 384.526 -0.772826 3.80736 0
M  V30 3816 H 386.198 1.79952 4.24753 0
M  V30 3817 H 384.441 1.75594 3.96673 0
M  V30 3818 H 385.112 1.01939 5.42506 0
M  V30 3819 H 387.588 -0.41649 4.1401 0
M  V30 3820 H 386.464 -0.989505 5.39907 0
M  V30 3821 H 386.725 -1.96373 3.96093 0
M  V30 3822 N 385.784 -1.5574 0.241426 0
M  V30 3823 C 387.061 -1.90704 -0.434881 0
M  V30 3824 C 387.441 -1.16145 -1.76277 0
M  V30 3825 O 386.789 -0.277152 -2.26813 0
M  V30 3826 C 386.999 -3.43657 -0.608343 0
M  V30 3827 C 388.347 -4.14806 -0.906725 0
M  V30 3828 O 389.371 -3.49366 -0.694408 0
M  V30 3829 O 388.23 -5.30548 -1.31075 0
M  V30 3830 H 385.324 -0.793592 -0.23268 0
M  V30 3831 H 387.87 -1.67288 0.285086 0
M  V30 3832 H 386.642 -3.89927 0.327505 0
M  V30 3833 H 386.265 -3.72918 -1.37906 0
M  V30 3834 N 387.262 0.0317525 -1.57568 0
M  V30 3835 C 388.225 1.01783 -2.0536 0
M  V30 3836 C 389.225 1.29203 -0.957253 0
M  V30 3837 O 390.415 1.24251 -1.22095 0
M  V30 3838 C 387.547 2.35137 -2.46827 0
M  V30 3839 H 388.74 0.605062 -2.93733 0
M  V30 3840 H 386.293 0.278514 -1.53799 0
M  V30 3841 H 387.028 2.81168 -1.61602 0
M  V30 3842 H 386.813 2.16566 -3.26866 0
M  V30 3843 H 388.303 3.05938 -2.84239 0
M  V30 3844 N 388.74 1.54641 0.303973 0
M  V30 3845 C 389.67 1.88386 1.3796 0
M  V30 3846 C 390.651 0.742485 1.5304 0
M  V30 3847 O 391.836 0.997959 1.66597 0
M  V30 3848 C 388.966 2.12854 2.74427 0
M  V30 3849 C 387.92 3.28702 2.74115 0
M  V30 3850 C 387.246 3.38582 4.13844 0
M  V30 3851 C 388.546 4.65881 2.3612 0
M  V30 3852 H 390.24 2.78474 1.09966 0
M  V30 3853 H 387.786 1.33988 0.527556 0
M  V30 3854 H 389.739 2.35047 3.49758 0
M  V30 3855 H 388.463 1.19535 3.03939 0
M  V30 3856 H 387.122 3.06428 2.0124 0
M  V30 3857 H 386.77 2.42784 4.40528 0
M  V30 3858 H 386.47 4.16453 4.14537 0
M  V30 3859 H 387.994 3.63031 4.90959 0
M  V30 3860 H 389.408 4.87823 3.01167 0
M  V30 3861 H 387.805 5.46444 2.48031 0
M  V30 3862 H 388.875 4.66799 1.3125 0
M  V30 3863 N 390.218 -0.567019 1.47046 0
M  V30 3864 C 391.165 -1.67489 1.58796 0
M  V30 3865 C 392.135 -1.60399 0.43144 0
M  V30 3866 O 393.32 -1.79378 0.650233 0
M  V30 3867 C 390.46 -3.05821 1.59899 0
M  V30 3868 C 389.573 -3.2342 2.86397 0
M  V30 3869 C 388.708 -4.52093 2.789 0
M  V30 3870 C 387.747 -4.6309 4.00267 0
M  V30 3871 N 386.884 -5.83106 3.91064 0
M  V30 3872 H 391.724 -1.56785 2.53422 0
M  V30 3873 H 389.261 -0.763896 1.2571 0
M  V30 3874 H 391.219 -3.8591 1.58522 0
M  V30 3875 H 389.849 -3.15384 0.687929 0
M  V30 3876 H 388.901 -2.3683 2.97684 0
M  V30 3877 H 390.213 -3.27412 3.76301 0
M  V30 3878 H 389.367 -5.4043 2.75718 0
M  V30 3879 H 388.106 -4.50565 1.86662 0
M  V30 3880 H 387.111 -3.73168 4.03765 0
M  V30 3881 H 388.336 -4.66386 4.93621 0
M  V30 3882 H 386.282 -5.82546 3.01623 0
M  V30 3883 H 386.199 -5.88434 4.74638 0
M  V30 3884 H 387.467 -6.73831 3.91882 0
M  V30 3885 N 391.696 -1.35014 -0.812953 0
M  V30 3886 C 392.942 -1.2812 -1.57204 0
M  V30 3887 C 393.275 0.145869 -1.93651 0
M  V30 3888 O 392.55 1.0937 -1.60836 0
M  V30 3889 C 392.833 -2.18162 -2.86492 0
M  V30 3890 C 392.686 -3.69454 -2.56561 0
M  V30 3891 C 394.005 -2.07439 -3.88145 0
M  V30 3892 H 391.124 -0.466746 -0.570366 0
M  V30 3893 H 393.766 -1.65357 -0.935783 0
M  V30 3894 H 391.916 -1.86535 -3.40789 0
M  V30 3895 H 393.588 -4.11493 -2.08497 0
M  V30 3896 H 391.831 -3.9005 -1.89851 0
M  V30 3897 H 392.502 -4.27835 -3.48799 0
M  V30 3898 H 394.978 -2.35228 -3.4323 0
M  V30 3899 H 393.854 -2.7265 -4.76396 0
M  V30 3900 H 394.115 -1.05439 -4.29343 0
M  V30 3901 N 393.175 1.03435 -1.18907 0
M  V30 3902 C 394.421 1.77005 -0.989798 0
M  V30 3903 C 394.754 1.88205 0.478816 0
M  V30 3904 O 394.029 1.39481 1.35556 0
M  V30 3905 C 394.312 3.19925 -1.65287 0
M  V30 3906 C 394.165 3.1663 -3.19477 0
M  V30 3907 C 395.484 4.18189 -1.37134 0
M  V30 3908 H 392.603 0.642538 -0.360991 0
M  V30 3909 H 395.245 1.20784 -1.46667 0
M  V30 3910 H 393.395 3.67929 -1.24741 0
M  V30 3911 H 395.067 2.76567 -3.692 0
M  V30 3912 H 393.31 2.54491 -3.51307 0
M  V30 3913 H 393.981 4.1758 -3.61013 0
M  V30 3914 H 396.457 3.78761 -1.72276 0
M  V30 3915 H 395.333 5.16394 -1.86087 0
M  V30 3916 H 395.594 4.41112 -0.295424 0
M  V30 3917 N 394.653 0.992116 1.22453 0
M  V30 3918 C 395.901 0.666215 1.90804 0
M  V30 3919 C 396.222 -0.804152 1.77647 0
M  V30 3920 O 395.492 -1.57629 1.16318 0
M  V30 3921 H 394.072 0.243423 0.706225 0
M  V30 3922 H 396.734 1.25845 1.48825 0
M  V30 3923 H 395.83 0.928069 2.97982 0
M  V30 3924 N 396.131 -1.37776 0.765217 0
M  V30 3925 C 397.094 -2.28686 0.153416 0
M  V30 3926 C 398.094 -1.47727 -0.635081 0
M  V30 3927 O 399.284 -1.68027 -0.459632 0
M  V30 3928 C 396.416 -3.31608 -0.790495 0
M  V30 3929 H 397.609 -2.84297 0.954723 0
M  V30 3930 H 395.162 -1.46932 0.53299 0
M  V30 3931 H 395.897 -2.81109 -1.61705 0
M  V30 3932 H 395.682 -3.9144 -0.227348 0
M  V30 3933 H 397.172 -3.99559 -1.21419 0
M  V30 3934 N 397.609 -0.515225 -1.4894 0
M  V30 3935 C 398.855 0.016187 -2.03394 0
M  V30 3936 C 399.21 1.33377 -1.38666 0
M  V30 3937 O 398.503 1.84461 -0.518141 0
M  V30 3938 C 398.697 0.210595 -3.56779 0
M  V30 3939 C 398.526 -1.08659 -4.36375 0
M  V30 3940 C 397.296 -1.64237 -4.77864 0
M  V30 3941 C 399.494 -1.9935 -4.74093 0
M  V30 3942 N 397.476 -2.88398 -5.41941 0
M  V30 3943 C 398.847 -3.08088 -5.38035 0
M  V30 3944 C 400.902 -1.99856 -4.56029 0
M  V30 3945 C 399.605 -4.17377 -5.85823 0
M  V30 3946 C 401.631 -3.08129 -5.04787 0
M  V30 3947 C 400.993 -4.15586 -5.68742 0
M  V30 3948 H 397.092 -0.0352107 -0.781207 0
M  V30 3949 H 399.676 -0.693237 -1.8194 0
M  V30 3950 H 397.847 0.889088 -3.78087 0
M  V30 3951 H 399.579 0.740287 -3.97872 0
M  V30 3952 H 396.334 -1.18566 -4.58518 0
M  V30 3953 H 396.758 -3.51572 -5.78555 0
M  V30 3954 H 401.4 -1.18079 -4.05977 0
M  V30 3955 H 399.118 -4.99943 -6.34888 0
M  V30 3956 H 402.704 -3.09557 -4.92611 0
M  V30 3957 H 401.584 -4.97987 -6.05787 0
M  V30 3958 N 399.087 1.5561 -0.249682 0
M  V30 3959 C 400.017 2.24477 0.642826 0
M  V30 3960 C 400.998 1.22601 1.17911 0
M  V30 3961 O 402.183 1.5126 1.21795 0
M  V30 3962 C 399.313 2.94638 1.83863 0
M  V30 3963 C 398.267 4.03227 1.435 0
M  V30 3964 C 397.593 4.60828 2.71186 0
M  V30 3965 C 398.893 5.18796 0.604002 0
M  V30 3966 H 400.587 2.99321 0.0685625 0
M  V30 3967 H 398.133 1.43965 0.0315363 0
M  V30 3968 H 400.086 3.41517 2.46868 0
M  V30 3969 H 398.81 2.17287 2.43832 0
M  V30 3970 H 397.469 3.57121 0.828275 0
M  V30 3971 H 397.117 3.80174 3.29358 0
M  V30 3972 H 396.817 5.34132 2.44901 0
M  V30 3973 H 398.341 5.10442 3.35084 0
M  V30 3974 H 399.755 5.61883 1.13842 0
M  V30 3975 H 398.152 5.98506 0.437097 0
M  V30 3976 H 399.222 4.83384 -0.383147 0
M  V30 3977 N 400.565 -0.0233959 1.57583 0
M  V30 3978 C 401.515 -1.03023 2.03397 0
M  V30 3979 C 402.499 -1.31701 0.924315 0
M  V30 3980 O 403.691 -1.31191 1.18819 0
M  V30 3981 C 400.82 -2.32961 2.52159 0
M  V30 3982 C 399.906 -2.07349 3.69956 0
M  V30 3983 N 400.297 -1.51814 4.82479 0
M  V30 3984 C 398.595 -2.37606 3.77438 0
M  V30 3985 C 399.296 -1.42136 5.64068 0
M  V30 3986 N 398.272 -1.89891 5.09355 0
M  V30 3987 H 402.074 -0.594962 2.87815 0
M  V30 3988 H 399.588 -0.229586 1.60769 0
M  V30 3989 H 401.585 -3.05906 2.83244 0
M  V30 3990 H 400.245 -2.77162 1.69149 0
M  V30 3991 H 401.256 -1.20008 5.03804 0
M  V30 3992 H 397.933 -2.84842 3.05239 0
M  V30 3993 H 399.323 -0.996405 6.64471 0
M  V30 3994 N 402.043 -1.548 -0.295768 0
M  V30 3995 C 403.006 -1.85363 -1.34808 0
M  V30 3996 C 404.006 -0.726817 -1.43436 0
M  V30 3997 O 405.196 -0.995088 -1.42981 0
M  V30 3998 C 402.328 -2.03859 -2.73229 0
M  V30 3999 H 403.521 -2.7941 -1.08949 0
M  V30 4000 H 401.074 -1.46942 -0.532702 0
M  V30 4001 H 401.809 -1.12117 -3.04303 0
M  V30 4002 H 401.594 -2.8588 -2.68356 0
M  V30 4003 H 403.084 -2.28857 -3.49305 0
M  V30 4004 N 403.521 0.559213 -1.47345 0
M  V30 4005 C 404.769 1.31388 -1.53563 0
M  V30 4006 C 405.09 1.93985 -0.198678 0
M  V30 4007 O 404.36 1.79825 0.777167 0
M  V30 4008 H 402.94 0.487901 -0.565652 0
M  V30 4009 H 405.602 0.65315 -1.8363 0
M  V30 4010 H 404.698 2.10844 -2.30111 0
M  V30 4011 N 404.999 1.35443 0.805782 0
M  V30 4012 C 406.41 1.25768 1.37983 0
M  V30 4013 C 406.761 -0.10958 1.95894 0
M  V30 4014 O 405.886 -1.01056 1.91355 0
M  V30 4015 C 406.481 2.27727 2.5085 0
M  V30 4016 C 405.04 2.2179 3.04115 0
M  V30 4017 C 404.187 2.13393 1.77084 0
M  V30 4018 H 407.138 1.4656 0.608752 0
M  V30 4019 H 407.159 1.90422 3.29424 0
M  V30 4020 H 406.671 3.27227 2.08671 0
M  V30 4021 H 404.772 1.25703 3.50756 0
M  V30 4022 H 404.885 3.13788 3.62042 0
M  V30 4023 H 403.249 1.59384 1.98668 0
M  V30 4024 H 404.032 3.14755 1.37056 0
M  V30 4025 N 406.477 -1.02803 1.19454 0
M  V30 4026 C 407.409 -2.11181 0.890807 0
M  V30 4027 C 408.422 -1.6238 -0.116829 0
M  V30 4028 O 409.611 -1.78144 0.112694 0
M  V30 4029 C 406.711 -3.37461 0.311942 0
M  V30 4030 C 405.884 -4.15446 1.36834 0
M  V30 4031 C 404.943 -5.20039 0.802864 0
M  V30 4032 O 403.969 -5.49602 1.48077 0
M  V30 4033 N 405.171 -5.79165 -0.393417 0
M  V30 4034 H 407.936 -2.37827 1.82369 0
M  V30 4035 H 405.497 -1.19101 1.09666 0
M  V30 4036 H 407.489 -4.0462 -0.0802225 0
M  V30 4037 H 406.059 -3.08156 -0.52524 0
M  V30 4038 H 405.279 -3.43423 1.93531 0
M  V30 4039 H 406.567 -4.64335 2.08015 0
M  V30 4040 H 405.965 -5.57466 -0.961658 0
M  V30 4041 H 404.522 -6.47729 -0.727351 0
M  V30 4042 N 407.956 -0.998596 -1.21925 0
M  V30 4043 C 409.205 -0.673085 -1.90138 0
M  V30 4044 C 409.518 0.79895 -1.78539 0
M  V30 4045 O 410.724 1.23628 -2.4172 0
M  V30 4046 C 409.18 -1.15339 -3.40918 0
M  V30 4047 C 408.788 -2.65106 -3.61141 0
M  V30 4048 C 410.532 -0.902476 -4.14796 0
M  V30 4049 C 408.439 -3.0671 -5.05651 0
M  V30 4050 H 407.369 -0.248057 -0.712028 0
M  V30 4051 H 410.02 -1.20891 -1.38049 0
M  V30 4052 H 408.402 -0.545658 -3.92223 0
M  V30 4053 H 409.576 -3.31274 -3.20304 0
M  V30 4054 H 407.891 -2.88142 -3.00605 0
M  V30 4055 H 410.488 -1.18895 -5.21314 0
M  V30 4056 H 410.831 0.161349 -4.15987 0
M  V30 4057 H 411.364 -1.47269 -3.69536 0
M  V30 4058 H 408.103 -4.12292 -5.09603 0
M  V30 4059 H 407.623 -2.45249 -5.47369 0
M  V30 4060 H 409.302 -2.9833 -5.74115 0
M  V30 4061 N 409.434 1.37368 -0.772513 0
M  V30 4062 C 410.344 2.34053 -0.160081 0
M  V30 4063 C 411.36 1.60216 0.678728 0
M  V30 4064 O 412.536 1.92303 0.59847 0
M  V30 4065 C 409.601 3.3939 0.708182 0
M  V30 4066 C 408.662 4.29048 -0.147172 0
M  V30 4067 C 407.895 5.29354 0.679744 0
M  V30 4068 O 408.118 5.3723 1.91678 0
M  V30 4069 O 407.052 6.01835 0.0885444 0
M  V30 4070 H 410.878 2.88159 -0.959053 0
M  V30 4071 H 408.463 1.39543 -0.533685 0
M  V30 4072 H 410.345 4.03839 1.20384 0
M  V30 4073 H 409.02 2.8761 1.48533 0
M  V30 4074 H 407.927 3.67697 -0.689205 0
M  V30 4075 H 409.26 4.84134 -0.887423 0
M  V30 4076 N 410.912 0.523116 1.48665 0
M  V30 4077 C 411.859 -0.243398 2.29513 0
M  V30 4078 C 412.829 -0.940139 1.36933 0
M  V30 4079 O 414.014 -0.942503 1.65896 0
M  V30 4080 C 411.154 -1.28855 3.20141 0
M  V30 4081 C 410.267 -0.60135 4.27794 0
M  V30 4082 C 409.402 -1.62884 5.05611 0
M  V30 4083 C 408.441 -0.924726 6.05075 0
M  V30 4084 N 407.578 -1.89744 6.75975 0
M  V30 4085 H 412.418 0.452234 2.94549 0
M  V30 4086 H 409.955 0.234858 1.45213 0
M  V30 4087 H 411.913 -1.90674 3.71079 0
M  V30 4088 H 410.543 -1.95266 2.57043 0
M  V30 4089 H 409.595 0.130623 3.80176 0
M  V30 4090 H 410.907 -0.0481585 4.98777 0
M  V30 4091 H 410.061 -2.32149 5.60528 0
M  V30 4092 H 408.8 -2.21592 4.34452 0
M  V30 4093 H 407.805 -0.217966 5.49368 0
M  V30 4094 H 409.03 -0.343851 6.78229 0
M  V30 4095 H 406.976 -2.47373 6.07571 0
M  V30 4096 H 406.893 -1.3955 7.43009 0
M  V30 4097 H 408.161 -2.58229 7.35485 0
M  V30 4098 N 412.39 -1.55475 0.257931 0
M  V30 4099 C 413.636 -1.99502 -0.364266 0
M  V30 4100 C 413.969 -1.146 -1.56782 0
M  V30 4101 O 413.244 -0.211968 -1.93342 0
M  V30 4102 C 413.527 -3.51917 -0.763333 0
M  V30 4103 C 413.38 -4.4758 0.446371 0
M  V30 4104 C 414.699 -4.09742 -1.60623 0
M  V30 4105 H 411.818 -0.725277 -0.130929 0
M  V30 4106 H 414.46 -1.8653 0.361446 0
M  V30 4107 H 412.61 -3.63101 -1.38166 0
M  V30 4108 H 414.282 -4.48362 1.08487 0
M  V30 4109 H 412.525 -4.19947 1.08753 0
M  V30 4110 H 413.196 -5.51862 0.123645 0
M  V30 4111 H 415.672 -4.01727 -1.08418 0
M  V30 4112 H 414.548 -5.16631 -1.85429 0
M  V30 4113 H 414.809 -3.58889 -2.58169 0
M  V30 4114 N 413.868 0.0150385 -1.57593 0
M  V30 4115 C 415.284 0.370907 -1.5523 0
M  V30 4116 C 415.484 1.75735 -0.985882 0
M  V30 4117 O 414.54 2.44944 -0.613077 0
M  V30 4118 C 415.853 0.259908 -2.99575 0
M  V30 4119 C 417.401 0.335959 -3.11192 0
M  V30 4120 C 417.876 0.254253 -4.57294 0
M  V30 4121 N 419.367 0.312618 -4.62144 0
M  V30 4122 C 420.102 0.272505 -5.72752 0
M  V30 4123 N 419.598 0.183864 -6.92556 0
M  V30 4124 N 421.391 0.323267 -5.6117 0
M  V30 4125 H 413.542 -0.892104 -1.92757 0
M  V30 4126 H 415.805 -0.340563 -0.884715 0
M  V30 4127 H 415.511 -0.693403 -3.44797 0
M  V30 4128 H 415.385 1.048 -3.62349 0
M  V30 4129 H 417.772 1.27971 -2.65909 0
M  V30 4130 H 417.853 -0.481739 -2.51223 0
M  V30 4131 H 417.497 -0.685887 -5.03247 0
M  V30 4132 H 417.427 1.09024 -5.15191 0
M  V30 4133 H 419.918 0.38307 -3.75953 0
M  V30 4134 H 420.231 0.15874 -7.72637 0
M  V30 4135 H 418.576 0.149708 -6.94839 0
M  V30 4136 H 421.767 0.390607 -4.66467 0
M  V30 4137 H 421.94 0.288539 -6.47357 0
M  V30 4138 N 415.346 1.54954 0.287554 0
M  V30 4139 C 416.586 1.76617 1.02887 0
M  V30 4140 C 416.95 0.547759 1.84021 0
M  V30 4141 O 418.151 0.642365 2.61012 0
M  V30 4142 C 416.422 3.02717 1.89993 0
M  V30 4143 S 417.981 3.45438 2.70588 0
M  V30 4144 H 414.799 0.6207 0.346775 0
M  V30 4145 H 417.401 1.93172 0.30082 0
M  V30 4146 H 416.105 3.89503 1.29287 0
M  V30 4147 H 415.636 2.88787 2.67144 0
M  V30 4148 H 417.651 3.03566 3.92508 0
M  V30 4149 N 416.824 -0.551391 1.4764 0
M  V30 4150 C 418.101 -1.31229 1.45046 0
M  V30 4151 C 418.481 -2.10563 0.150527 0
M  V30 4152 O 417.829 -2.11374 -0.867956 0
M  V30 4153 C 418.039 -2.21189 2.69956 0
M  V30 4154 C 419.387 -2.82021 3.1741 0
M  V30 4155 O 420.411 -2.31488 2.70724 0
M  V30 4156 O 419.27 -3.73885 3.98588 0
M  V30 4157 H 416.364 -0.591193 0.578291 0
M  V30 4158 H 418.91 -0.569813 1.59847 0
M  V30 4159 H 417.682 -1.62207 3.56096 0
M  V30 4160 H 417.305 -3.02722 2.57769 0
M  V30 4161 N 418.302 -1.35869 -0.798587 0
M  V30 4162 C 419.55 -1.29332 -1.55298 0
M  V30 4163 C 419.871 0.129729 -1.94568 0
M  V30 4164 O 419.141 1.06796 -1.6423 0
M  V30 4165 H 417.721 -0.475737 -0.57592 0
M  V30 4166 H 420.383 -1.70062 -0.952093 0
M  V30 4167 H 419.479 -1.91458 -2.46476 0
M  V30 4168 O 419.819 0.937816 -1.31481 0
M  V30 4169 H 420.51 1.56832 -1.13682 0
M  V30 END ATOM
M  V30 BEGIN BOND
M  V30 END BOND
M  V30 END CTAB
M  END
$$$$
