drugbank_target|P04004 Vitronectin (DB00054; DB01593; DB09130; DB14487; DB14533; DB14548)
 OpenBabel12092119473D

  0  0  0     0  0            999 V3000
M  V30 BEGIN CTAB
M  V30 COUNTS 7445 7556 0 0 0
M  V30 BEGIN ATOM
M  V30 1 H -0.908 1.98254 -0.117106 0
M  V30 2 N 0 1.576 0 0
M  V30 3 C 0.933 2.03868 1.02534 0
M  V30 4 C 1.911 0.928543 1.3348 0
M  V30 5 O 3.095 1.19667 1.45644 0
M  V30 6 C 0.222 2.43627 2.35294 0
M  V30 7 C -0.732 3.65373 2.2001 0
M  V30 8 S 0.101 5.13292 1.52614 0
M  V30 9 C 1.257 5.56322 2.86805 0
M  V30 10 H 1.49 2.90518 0.631377 0
M  V30 11 H -0.977 1.52953 0.210867 0
M  V30 12 H 0.981 2.67203 3.11629 0
M  V30 13 H -0.358 1.57376 2.7183 0
M  V30 14 H -1.165 3.90944 3.18086 0
M  V30 15 H -1.563 3.418 1.51819 0
M  V30 16 H 0.729 5.58782 3.83104 0
M  V30 17 H 1.672 6.56266 2.65933 0
M  V30 18 H 2.08 4.83886 2.90714 0
M  V30 19 N 1.4781 -0.272755 1.55222 0
M  V30 20 C 2.4411 -1.32041 1.87344 0
M  V30 21 C 3.4411 -1.42342 0.74803 0
M  V30 22 O 4.6311 -1.41488 1.0162 0
M  V30 23 C 1.7631 -2.70173 2.07893 0
M  V30 24 H 2.9561 -1.04789 2.80997 0
M  V30 25 H 0.5091 -0.51083 1.47717 0
M  V30 26 H 1.2441 -3.02605 1.16622 0
M  V30 27 H 1.0291 -2.64082 2.89833 0
M  V30 28 H 2.5191 -3.45869 2.34017 0
M  V30 29 N 2.9562 -1.48159 -0.537278 0
M  V30 30 C 4.3672 -1.49429 -1.11928 0
M  V30 31 C 4.7182 -0.26 -1.9447 0
M  V30 32 O 3.8432 0.633489 -2.0692 0
M  V30 33 C 4.4382 -2.70758 -2.03656 0
M  V30 34 C 2.9972 -2.74923 -2.57088 0
M  V30 35 C 2.1442 -2.42835 -1.3389 0
M  V30 36 H 5.0952 -1.55381 -0.322886 0
M  V30 37 H 5.1162 -2.48861 -2.87834 0
M  V30 38 H 4.6282 -3.60575 -1.43553 0
M  V30 39 H 2.7292 -1.89296 -3.20933 0
M  V30 40 H 2.8422 -3.76157 -2.9672 0
M  V30 41 H 1.2062 -1.93836 -1.65226 0
M  V30 42 H 1.9892 -3.34884 -0.755504 0
M  V30 43 N 4.4343 0.785586 -1.36625 0
M  V30 44 C 5.3643 1.91259 -1.33949 0
M  V30 45 C 6.3453 1.68795 -0.210325 0
M  V30 46 O 7.5303 1.89854 -0.408561 0
M  V30 47 C 4.6603 3.28339 -1.13186 0
M  V30 48 C 3.6143 3.65335 -2.22967 0
M  V30 49 C 2.9403 5.00806 -1.87342 0
M  V30 50 C 4.2403 3.7352 -3.65075 0
M  V30 51 H 5.9343 1.93755 -2.28253 0
M  V30 52 H 3.4803 0.930788 -1.09874 0
M  V30 53 H 5.4333 4.06804 -1.09948 0
M  V30 54 H 4.1573 3.2624 -0.153332 0
M  V30 55 H 2.8163 2.89169 -2.25337 0
M  V30 56 H 2.4643 4.95233 -0.880545 0
M  V30 57 H 2.1643 5.26529 -2.60846 0
M  V30 58 H 3.6883 5.81687 -1.85667 0
M  V30 59 H 5.1023 4.42168 -3.64911 0
M  V30 60 H 3.4993 4.10731 -4.37516 0
M  V30 61 H 4.5693 2.74527 -3.99703 0
M  V30 62 N 5.9124 1.20967 1.01018 0
M  V30 63 C 7.3284 0.965905 1.27053 0
M  V30 64 C 7.5284 -0.350785 1.98423 0
M  V30 65 O 6.5844 -1.07773 2.28344 0
M  V30 66 C 7.8974 2.15294 2.09926 0
M  V30 67 C 9.4454 2.19463 2.23171 0
M  V30 68 C 9.9204 3.3767 3.09424 0
M  V30 69 N 11.4114 3.37724 3.17012 0
M  V30 70 C 12.1464 4.25837 3.83993 0
M  V30 71 N 11.6424 5.24138 4.53047 0
M  V30 72 N 13.4354 4.1366 3.80581 0
M  V30 73 H 5.5864 2.0565 0.531194 0
M  V30 74 H 7.8494 0.90024 0.297106 0
M  V30 75 H 7.5554 3.10684 1.64828 0
M  V30 76 H 7.4294 2.13923 3.10672 0
M  V30 77 H 9.8164 1.24632 2.6749 0
M  V30 78 H 9.8974 2.2488 1.21912 0
M  V30 79 H 9.5414 4.32791 2.65808 0
M  V30 80 H 9.4714 3.29491 4.10784 0
M  V30 81 H 11.9624 2.6658 2.6785 0
M  V30 82 H 12.2754 5.87684 5.01844 0
M  V30 83 H 10.6204 5.28068 4.5185 0
M  V30 84 H 13.8114 3.36127 3.25785 0
M  V30 85 H 13.9844 4.82538 4.32505 0
M  V30 86 N 7.3905 -1.2043 1.01659 0
M  V30 87 C 8.8015 -1.71517 0.737482 0
M  V30 88 C 9.1525 -1.81547 -0.743973 0
M  V30 89 O 8.2775 -1.47803 -1.58061 0
M  V30 90 C 8.8725 -3.11515 1.33206 0
M  V30 91 C 7.4315 -3.59912 1.10183 0
M  V30 92 C 6.5785 -2.37116 1.43776 0
M  V30 93 H 9.5295 -1.05444 1.18606 0
M  V30 94 H 9.5505 -3.73575 0.722636 0
M  V30 95 H 9.0625 -3.04182 2.41028 0
M  V30 96 H 7.1635 -3.72577 0.0412756 0
M  V30 97 H 7.2765 -4.44731 1.78188 0
M  V30 98 H 5.6405 -2.39857 0.856778 0
M  V30 99 H 6.4235 -2.32424 2.52654 0
M  V30 100 N 8.8686 -0.792821 -1.36206 0
M  V30 101 C 9.7986 -0.207853 -2.32573 0
M  V30 102 C 10.7796 0.659055 -1.56813 0
M  V30 103 O 11.9646 0.592176 -1.84951 0
M  V30 104 C 9.0946 0.655449 -3.41059 0
M  V30 105 C 8.0486 -0.111842 -4.27854 0
M  V30 106 C 7.3746 0.872274 -5.27537 0
M  V30 107 C 8.6746 -1.30299 -5.05786 0
M  V30 108 H 10.3686 -1.01294 -2.81744 0
M  V30 109 H 7.9146 -0.48854 -1.3546 0
M  V30 110 H 9.8676 1.07464 -4.07467 0
M  V30 111 H 8.5916 1.49328 -2.90463 0
M  V30 112 H 7.2506 -0.512053 -3.63006 0
M  V30 113 H 6.8986 1.70523 -4.73214 0
M  V30 114 H 6.5986 0.363291 -5.86476 0
M  V30 115 H 8.1226 1.28996 -5.96818 0
M  V30 116 H 9.5366 -0.959379 -5.65216 0
M  V30 117 H 7.9336 -1.7455 -5.74154 0
M  V30 118 H 9.0036 -2.09663 -4.37229 0
M  V30 119 N 10.3467 1.47872 -0.545128 0
M  V30 120 C 11.2767 2.32661 0.197793 0
M  V30 121 C 12.2577 1.43041 0.920504 0
M  V30 122 O 13.4427 1.71912 0.90333 0
M  V30 123 C 10.5727 3.24569 1.23582 0
M  V30 124 C 9.5267 4.23333 0.630323 0
M  V30 125 C 8.8527 5.0448 1.77211 0
M  V30 126 C 10.1527 5.20704 -0.407974 0
M  V30 127 H 11.8467 2.95024 -0.510045 0
M  V30 128 H 9.3927 1.4187 -0.246731 0
M  V30 129 H 11.3457 3.8272 1.76362 0
M  V30 130 H 10.0697 2.60236 1.97344 0
M  V30 131 H 8.7287 3.6639 0.123922 0
M  V30 132 H 8.3767 4.36561 2.49847 0
M  V30 133 H 8.0767 5.71339 1.37281 0
M  V30 134 H 9.6007 5.65487 2.3034 0
M  V30 135 H 11.0147 5.7329 0.033305 0
M  V30 136 H 9.4117 5.95699 -0.725486 0
M  V30 137 H 10.4817 4.66917 -1.30828 0
M  V30 138 N 11.8248 0.280983 1.55075 0
M  V30 139 C 13.0738 -0.334784 1.98902 0
M  V30 140 C 13.3868 -1.56534 1.17288 0
M  V30 141 O 14.5928 -2.25443 1.51287 0
M  V30 142 C 13.0488 -0.646994 3.54037 0
M  V30 143 C 12.6568 0.564085 4.44435 0
M  V30 144 C 14.4008 -1.22506 4.06439 0
M  V30 145 C 12.3078 0.226137 5.90967 0
M  V30 146 H 11.2378 -0.128866 0.742906 0
M  V30 147 H 13.8888 0.386556 1.79382 0
M  V30 148 H 12.2708 -1.42739 3.6938 0
M  V30 149 H 13.4448 1.34082 4.40861 0
M  V30 150 H 11.7598 1.0594 4.02698 0
M  V30 151 H 14.3568 -1.49182 5.13468 0
M  V30 152 H 14.6998 -2.16085 3.55827 0
M  V30 153 H 15.2328 -0.50682 3.94558 0
M  V30 154 H 11.9718 1.12996 6.45687 0
M  V30 155 H 11.4918 -0.513717 5.97596 0
M  V30 156 H 13.1708 -0.179539 6.46751 0
M  V30 157 N 13.3029 -1.57598 0.00835791 0
M  V30 158 C 14.2329 -2.1198 -0.979113 0
M  V30 159 C 15.2139 -1.03091 -1.35301 0
M  V30 160 O 16.3989 -1.30818 -1.43528 0
M  V30 161 C 13.5289 -2.62995 -2.26828 0
M  V30 162 C 12.4829 -3.76485 -2.03576 0
M  V30 163 C 11.8089 -4.13846 -3.38579 0
M  V30 164 C 13.1089 -5.0342 -1.39161 0
M  V30 165 H 14.8029 -2.94738 -0.526281 0
M  V30 166 H 12.3489 -1.41783 -0.251704 0
M  V30 167 H 14.3019 -2.99669 -2.96271 0
M  V30 168 H 13.0259 -1.7737 -2.7424 0
M  V30 169 H 11.6849 -3.40217 -1.36557 0
M  V30 170 H 11.3329 -3.25232 -3.83709 0
M  V30 171 H 11.0329 -4.90312 -3.23834 0
M  V30 172 H 12.5569 -4.53086 -4.09323 0
M  V30 173 H 13.9709 -5.37812 -1.98573 0
M  V30 174 H 12.3679 -5.84746 -1.34878 0
M  V30 175 H 13.4379 -4.83548 -0.361868 0
M  V30 176 N 14.781 0.264519 -1.55364 0
M  V30 177 C 15.744 1.31046 -1.88042 0
M  V30 178 C 16.744 1.41943 -0.755569 0
M  V30 179 O 17.934 1.40947 -1.02369 0
M  V30 180 C 15.066 2.69067 -2.09323 0
M  V30 181 H 16.259 1.03297 -2.81549 0
M  V30 182 H 13.812 0.502989 -1.47986 0
M  V30 183 H 14.547 3.01982 -1.18226 0
M  V30 184 H 14.332 2.62542 -2.91229 0
M  V30 185 H 15.822 3.44623 -2.35848 0
M  V30 186 N 16.2591 1.48442 0.529413 0
M  V30 187 C 17.1891 1.65902 1.64313 0
M  V30 188 C 18.1701 0.507897 1.6234 0
M  V30 189 O 19.3551 0.740503 1.79528 0
M  V30 190 C 16.4851 1.69911 3.02898 0
M  V30 191 C 15.4391 2.8453 3.19729 0
M  V30 192 C 14.7651 2.73629 4.59381 0
M  V30 193 C 16.0651 4.25821 3.02447 0
M  V30 194 H 17.7591 2.5914 1.49955 0
M  V30 195 H 15.3051 1.24709 0.719982 0
M  V30 196 H 17.2581 1.80715 3.80684 0
M  V30 197 H 15.9821 0.732524 3.18279 0
M  V30 198 H 14.6411 2.73283 2.44361 0
M  V30 199 H 14.2891 1.74938 4.71599 0
M  V30 200 H 13.9891 3.50541 4.71588 0
M  V30 201 H 15.5131 2.86401 5.39265 0
M  V30 202 H 16.9271 4.37898 3.70024 0
M  V30 203 H 15.3241 5.03735 3.26146 0
M  V30 204 H 16.3941 4.42244 1.98867 0
M  V30 205 N 17.7372 -0.778329 1.37039 0
M  V30 206 C 18.6672 -1.90546 1.34962 0
M  V30 207 C 19.6482 -1.68681 0.219274 0
M  V30 208 O 20.8332 -1.89634 0.418624 0
M  V30 209 C 17.9632 -3.27734 1.14925 0
M  V30 210 C 16.9172 -3.64147 2.24902 0
M  V30 211 C 16.2432 -4.99806 1.89996 0
M  V30 212 C 17.5432 -3.71579 3.67051 0
M  V30 213 H 19.2372 -1.92541 2.29277 0
M  V30 214 H 16.7832 -0.924948 1.10366 0
M  V30 215 H 18.7362 -4.06215 1.12104 0
M  V30 216 H 17.4602 -3.26154 0.170631 0
M  V30 217 H 16.1192 -2.8797 2.26868 0
M  V30 218 H 15.7672 -4.94759 0.906796 0
M  V30 219 H 15.4672 -5.25139 2.63634 0
M  V30 220 H 16.9912 -5.80694 1.88749 0
M  V30 221 H 18.4052 -4.40227 3.67251 0
M  V30 222 H 16.8022 -4.08405 4.39688 0
M  V30 223 H 17.8722 -2.72404 4.01154 0
M  V30 224 N 19.2153 -1.21501 -1.00376 0
M  V30 225 C 20.1783 -0.976927 -2.07337 0
M  V30 226 C 21.1783 0.0525322 -1.60714 0
M  V30 227 O 22.3683 -0.184869 -1.73216 0
M  V30 228 C 19.5003 -0.473423 -3.37597 0
M  V30 229 H 20.6933 -1.92587 -2.29892 0
M  V30 230 H 18.2463 -1.03217 -1.17371 0
M  V30 231 H 18.9813 0.480379 -3.20722 0
M  V30 232 H 18.7663 -1.216 -3.72768 0
M  V30 233 H 20.2563 -0.32675 -4.1632 0
M  V30 234 N 20.6934 1.19889 -1.02296 0
M  V30 235 C 21.9394 1.89973 -0.726759 0
M  V30 236 C 22.2944 1.7776 0.73614 0
M  V30 237 O 21.5874 1.15523 1.52856 0
M  V30 238 C 21.7814 3.39883 -1.10518 0
M  V30 239 C 21.6104 3.66684 -2.60332 0
M  V30 240 C 20.3804 3.85045 -3.27213 0
M  V30 241 C 22.5784 3.68727 -3.58532 0
M  V30 242 N 20.5604 3.99422 -4.66192 0
M  V30 243 C 21.9314 3.88604 -4.83101 0
M  V30 244 C 23.9864 3.51722 -3.52414 0
M  V30 245 C 22.6894 3.9324 -6.02292 0
M  V30 246 C 24.7154 3.57632 -4.71013 0
M  V30 247 C 24.0774 3.77988 -5.94394 0
M  V30 248 H 20.1764 0.714551 -0.317712 0
M  V30 249 H 22.7604 1.44123 -1.30907 0
M  V30 250 H 20.9314 3.8447 -0.551142 0
M  V30 251 H 22.6634 3.97464 -0.761853 0
M  V30 252 H 19.4184 3.83689 -2.77632 0
M  V30 253 H 19.8424 4.10473 -5.38368 0
M  V30 254 H 24.4844 3.34945 -2.58015 0
M  V30 255 H 22.2024 4.08811 -6.97065 0
M  V30 256 H 25.7884 3.45773 -4.67902 0
M  V30 257 H 24.6684 3.82428 -6.8463 0
M  V30 258 N 22.1715 0.800033 1.35784 0
M  V30 259 C 23.4175 0.377901 1.99248 0
M  V30 260 C 23.7505 -1.05052 1.63333 0
M  V30 261 O 23.0255 -1.72768 0.893385 0
M  V30 262 C 23.3085 0.553922 3.55814 0
M  V30 263 C 23.1615 2.0268 4.01548 0
M  V30 264 C 24.4805 -0.0244802 4.40093 0
M  V30 265 H 21.5995 0.138782 0.723815 0
M  V30 266 H 24.2415 1.00835 1.61035 0
M  V30 267 H 22.3915 0.0172398 3.88496 0
M  V30 268 H 24.0635 2.62536 3.79305 0
M  V30 269 H 22.3065 2.5256 3.52698 0
M  V30 270 H 22.9775 2.10087 5.10458 0
M  V30 271 H 25.4535 0.433775 4.13833 0
M  V30 272 H 24.3295 0.128637 5.48749 0
M  V30 273 H 24.5905 -1.11758 4.27741 0
M  V30 274 N 23.6496 -1.47581 0.552962 0
M  V30 275 C 24.6126 -2.28439 -0.186605 0
M  V30 276 C 25.6126 -1.36706 -0.84665 0
M  V30 277 O 26.8026 -1.59378 -0.703164 0
M  V30 278 C 23.9346 -3.16264 -1.2724 0
M  V30 279 H 25.1276 -2.95294 0.523609 0
M  V30 280 H 22.6806 -1.532 0.309745 0
M  V30 281 H 23.4156 -2.54091 -2.01514 0
M  V30 282 H 23.2006 -3.83769 -0.803968 0
M  V30 283 H 24.6906 -3.77198 -1.79196 0
M  V30 284 N 25.1277 -0.289203 -1.54924 0
M  V30 285 C 26.0577 0.58549 -2.2604 0
M  V30 286 C 27.0387 1.14753 -1.25562 0
M  V30 287 O 28.2237 1.17906 -1.54311 0
M  V30 288 C 25.3537 1.76305 -2.99222 0
M  V30 289 C 24.3077 1.33191 -4.06748 0
M  V30 290 C 23.6337 2.5937 -4.6758 0
M  V30 291 C 24.9337 0.471775 -5.20165 0
M  V30 292 H 26.6277 -0.00763532 -2.99399 0
M  V30 293 H 24.1737 -0.00511229 -1.43999 0
M  V30 294 H 26.1267 2.38097 -3.47689 0
M  V30 295 H 24.8507 2.38223 -2.23422 0
M  V30 296 H 23.5097 0.737121 -3.59113 0
M  V30 297 H 23.1577 3.19576 -3.88433 0
M  V30 298 H 22.8577 2.31228 -5.40192 0
M  V30 299 H 24.3817 3.21985 -5.18804 0
M  V30 300 H 25.7957 0.995056 -5.64599 0
M  V30 301 H 24.1927 0.284639 -5.99425 0
M  V30 302 H 25.2627 -0.506041 -4.82252 0
M  V30 303 N 26.6058 1.57591 -0.0167156 0
M  V30 304 C 27.5688 2.08393 0.954204 0
M  V30 305 C 28.5688 0.996531 1.26198 0
M  V30 306 O 29.7588 1.25858 1.20438 0
M  V30 307 C 26.8908 2.5394 2.27436 0
M  V30 308 H 28.0838 2.95455 0.514451 0
M  V30 309 H 25.6368 1.54582 0.231089 0
M  V30 310 H 26.3718 1.70171 2.76066 0
M  V30 311 H 26.1568 3.33371 2.06412 0
M  V30 312 H 27.6468 2.93512 2.97053 0
M  V30 313 N 28.0839 -0.256276 1.55502 0
M  V30 314 C 29.3609 -1.00789 1.67633 0
M  V30 315 C 29.7409 -2.03706 0.553826 0
M  V30 316 O 29.0889 -2.24145 -0.443969 0
M  V30 317 C 29.2989 -1.64968 3.07549 0
M  V30 318 C 30.6469 -2.15505 3.65845 0
M  V30 319 O 31.6709 -1.74925 3.1029 0
M  V30 320 O 30.5299 -2.89986 4.63217 0
M  V30 321 H 27.6239 -0.468553 0.681459 0
M  V30 322 H 30.1699 -0.250806 1.67836 0
M  V30 323 H 28.9419 -0.904785 3.80696 0
M  V30 324 H 28.5649 -2.47321 3.11317 0
M  V30 325 N 29.562 -1.4872 -0.521534 0
M  V30 326 C 30.494 -1.59968 -1.64143 0
M  V30 327 C 31.507 -0.483463 -1.55456 0
M  V30 328 O 32.696 -0.75467 -1.61762 0
M  V30 329 C 29.796 -1.52127 -3.02838 0
M  V30 330 C 28.969 -2.78932 -3.36921 0
M  V30 331 C 28.028 -2.64428 -4.54933 0
M  V30 332 O 27.054 -3.38331 -4.57735 0
M  V30 333 N 28.256 -1.74606 -5.53618 0
M  V30 334 H 31.021 -2.56548 -1.54929 0
M  V30 335 H 28.582 -1.45551 -0.708988 0
M  V30 336 H 30.574 -1.40106 -3.79674 0
M  V30 337 H 29.144 -0.634868 -3.06085 0
M  V30 338 H 28.364 -3.05455 -2.4918 0
M  V30 339 H 29.652 -3.63041 -3.56481 0
M  V30 340 H 29.05 -1.13782 -5.54139 0
M  V30 341 H 27.607 -1.6852 -6.29638 0
M  V30 342 N 31.0401 0.771051 -1.3745 0
M  V30 343 C 31.9501 1.91538 -1.35464 0
M  V30 344 C 32.9661 1.72134 -0.254123 0
M  V30 345 O 34.1421 1.95358 -0.489626 0
M  V30 346 C 31.2071 3.26671 -1.16134 0
M  V30 347 C 30.2681 3.58723 -2.35831 0
M  V30 348 C 29.5011 4.87409 -2.17413 0
M  V30 349 O 29.7241 5.58506 -1.15876 0
M  V30 350 O 28.6581 5.18539 -3.05615 0
M  V30 351 H 32.4841 1.96165 -2.31847 0
M  V30 352 H 30.0691 0.9139 -1.18187 0
M  V30 353 H 31.9511 4.07499 -1.07345 0
M  V30 354 H 30.6261 3.22894 -0.228251 0
M  V30 355 H 29.5331 2.78127 -2.50192 0
M  V30 356 H 30.8661 3.67243 -3.27709 0
M  V30 357 N 32.5182 1.22032 0.997298 0
M  V30 358 C 33.7432 1.06921 1.77715 0
M  V30 359 C 34.1682 -0.376226 1.84299 0
M  V30 360 O 33.5262 -1.27165 1.29223 0
M  V30 361 C 33.5742 1.67996 3.19076 0
M  V30 362 O 32.6782 0.930653 4.01762 0
M  V30 363 H 32.0192 0.375814 0.547412 0
M  V30 364 H 34.5492 1.61737 1.25309 0
M  V30 365 H 34.5592 1.72538 3.69723 0
M  V30 366 H 33.2342 2.73182 3.13599 0
M  V30 367 H 31.8112 0.960917 3.60307 0
M  V30 368 N 33.9963 -1.19345 1.0293 0
M  V30 369 C 35.2363 -1.90738 0.734727 0
M  V30 370 C 35.6003 -1.7785 -0.723414 0
M  V30 371 O 36.8013 -2.43844 -1.13108 0
M  V30 372 C 35.0723 -3.37569 1.17396 0
M  V30 373 S 36.6313 -4.27176 1.00329 0
M  V30 374 H 33.4493 -0.658771 0.267474 0
M  V30 375 H 36.0513 -1.4428 1.31922 0
M  V30 376 H 34.7553 -3.44475 2.23081 0
M  V30 377 H 34.2863 -3.8906 0.582772 0
M  V30 378 H 36.3013 -4.96126 -0.0859152 0
M  V30 379 N 35.4744 -0.807222 -1.35358 0
M  V30 380 C 36.4214 -0.216037 -2.29787 0
M  V30 381 C 37.3914 0.650278 -1.52842 0
M  V30 382 O 38.5764 0.595227 -1.81278 0
M  V30 383 C 35.7164 0.628893 -3.39321 0
M  V30 384 C 34.8294 -0.257927 -4.31229 0
M  V30 385 C 33.9644 0.595069 -5.27856 0
M  V30 386 C 33.0034 -0.292111 -6.11403 0
M  V30 387 N 32.1404 0.520895 -7.00165 0
M  V30 388 H 36.9804 -1.02671 -2.79755 0
M  V30 389 H 34.5174 -0.517839 -1.37684 0
M  V30 390 H 36.4754 1.13393 -4.01494 0
M  V30 391 H 35.1054 1.40482 -2.90628 0
M  V30 392 H 34.1574 -0.881076 -3.70056 0
M  V30 393 H 35.4694 -0.940759 -4.89848 0
M  V30 394 H 34.6234 1.16522 -5.95405 0
M  V30 395 H 33.3624 1.31146 -4.69736 0
M  V30 396 H 32.3674 -0.874525 -5.428 0
M  V30 397 H 33.5924 -1.00638 -6.71602 0
M  V30 398 H 31.5384 1.22125 -6.44532 0
M  V30 399 H 31.4554 -0.103877 -7.55929 0
M  V30 400 H 32.7234 1.0743 -7.72062 0
M  V30 401 N 36.9525 1.47285 -0.560781 0
M  V30 402 C 38.2005 2.02064 -0.0379868 0
M  V30 403 C 38.5215 1.43711 1.31803 0
M  V30 404 O 37.7915 0.61362 1.86042 0
M  V30 405 H 36.3715 0.746918 -0.0110531 0
M  V30 406 H 39.0335 1.80648 -0.731598 0
M  V30 407 H 38.1295 3.12064 0.0474463 0
M  V30 408 N 38.4306 0.297415 1.54768 0
M  V30 409 C 39.8466 -0.0560823 1.59501 0
M  V30 410 C 40.0466 -1.52725 1.31444 0
M  V30 411 O 39.1026 -2.27947 1.08611 0
M  V30 412 C 40.4156 0.338631 2.98787 0
M  V30 413 C 41.9636 0.287097 3.11681 0
M  V30 414 C 42.4386 0.656579 4.53269 0
M  V30 415 N 43.9296 0.608977 4.59179 0
M  V30 416 C 44.6646 0.867385 5.66802 0
M  V30 417 N 44.1606 1.19157 6.82476 0
M  V30 418 N 45.9536 0.794687 5.56454 0
M  V30 419 H 38.1046 1.25624 1.71267 0
M  V30 420 H 40.3676 0.509057 0.799728 0
M  V30 421 H 40.0736 1.36263 3.2423 0
M  V30 422 H 39.9476 -0.309508 3.75928 0
M  V30 423 H 42.3346 -0.727649 2.85988 0
M  V30 424 H 42.4156 0.969809 2.36703 0
M  V30 425 H 42.0596 1.66912 4.7969 0
M  V30 426 H 41.9896 -0.0481649 5.26578 0
M  V30 427 H 44.4806 0.369198 3.76092 0
M  V30 428 H 44.7936 1.37482 7.60473 0
M  V30 429 H 43.1386 1.22958 6.84037 0
M  V30 430 H 46.3296 0.541098 4.64962 0
M  V30 431 H 46.5026 0.999445 6.40246 0
M  V30 432 N 39.9087 -1.5758 0.0250728 0
M  V30 433 C 41.1487 -1.93497 -0.65865 0
M  V30 434 C 41.5127 -0.901409 -1.69525 0
M  V30 435 O 42.7137 -1.14664 -2.43116 0
M  V30 436 C 40.9847 -3.34352 -1.26267 0
M  V30 437 S 42.5437 -3.92191 -1.96803 0
M  V30 438 H 39.3617 -0.67709 -0.216958 0
M  V30 439 H 41.9637 -1.95303 0.0877692 0
M  V30 440 H 40.6677 -4.07395 -0.495741 0
M  V30 441 H 40.1987 -3.3598 -2.04648 0
M  V30 442 H 42.2137 -3.75298 -3.24601 0
M  V30 443 N 41.3868 0.248026 -1.55636 0
M  V30 444 C 42.6148 0.993808 -1.81469 0
M  V30 445 C 43.0298 1.78991 -0.60064 0
M  V30 446 O 42.3868 1.77345 0.430682 0
M  V30 447 C 42.4378 1.93258 -3.05506 0
M  V30 448 O 42.1588 1.16869 -4.22224 0
M  V30 449 C 43.6598 2.79444 -3.4413 0
M  V30 450 H 40.8798 0.292486 -0.603898 0
M  V30 451 H 43.4238 0.271253 -2.02693 0
M  V30 452 H 41.5788 2.60943 -2.86335 0
M  V30 453 H 41.9928 1.80359 -4.92515 0
M  V30 454 H 43.4668 3.41066 -4.34026 0
M  V30 455 H 43.9438 3.50499 -2.64665 0
M  V30 456 H 44.5498 2.17214 -3.65648 0
M  V30 457 N 42.8649 1.48995 0.513639 0
M  V30 458 C 43.7749 1.67443 1.64317 0
M  V30 459 C 44.7909 0.556947 1.64846 0
M  V30 460 O 45.9669 0.830082 1.83498 0
M  V30 461 C 43.0319 1.72515 3.00732 0
M  V30 462 C 42.0929 2.96009 3.1093 0
M  V30 463 C 41.3259 3.00829 4.40837 0
M  V30 464 O 41.5489 2.13594 5.28898 0
M  V30 465 O 40.4829 3.93168 4.55744 0
M  V30 466 H 44.3089 2.63106 1.51687 0
M  V30 467 H 41.8939 1.32588 0.688543 0
M  V30 468 H 43.7759 1.78277 3.81831 0
M  V30 469 H 42.4509 0.800278 3.13651 0
M  V30 470 H 41.3579 2.9577 2.29065 0
M  V30 471 H 42.6909 3.87934 3.02933 0
M  V30 472 N 44.343 -0.763751 1.37857 0
M  V30 473 C 45.591 -1.51957 1.33243 0
M  V30 474 C 45.912 -1.94835 -0.0801709 0
M  V30 475 O 45.182 -1.66894 -1.02582 0
M  V30 476 H 43.762 -0.563626 0.49024 0
M  V30 477 H 46.424 -0.908504 1.7243 0
M  V30 478 H 45.52 -2.41523 1.97669 0
M  V30 479 N 45.8211 -1.22559 -0.990812 0
M  V30 480 C 47.0681 -1.05141 -1.73065 0
M  V30 481 C 47.3961 0.413191 -1.9006 0
M  V30 482 O 46.6511 1.32257 -1.44245 0
M  V30 483 C 46.9501 -1.71011 -3.13831 0
M  V30 484 C 46.6161 -3.20911 -3.16745 0
M  V30 485 C 45.2781 -3.61812 -3.17247 0
M  V30 486 C 47.6301 -4.16846 -3.12872 0
M  V30 487 C 44.9581 -4.97127 -3.1158 0
M  V30 488 C 47.3101 -5.5214 -3.08746 0
M  V30 489 C 45.9741 -5.92419 -3.07565 0
M  V30 490 H 45.2441 -0.384738 -0.633291 0
M  V30 491 H 47.8911 -1.5235 -1.16025 0
M  V30 492 H 46.1961 -1.16133 -3.74193 0
M  V30 493 H 47.8931 -1.55023 -3.69823 0
M  V30 494 H 44.4831 -2.88344 -3.17105 0
M  V30 495 H 48.6671 -3.86263 -3.11632 0
M  V30 496 H 43.9231 -5.27562 -3.09012 0
M  V30 497 H 48.0971 -6.26201 -3.04705 0
M  V30 498 H 45.7241 -6.97236 -3.02929 0
M  V30 499 N 47.2992 1.18797 -1.03562 0
M  V30 500 C 48.2472 2.24297 -0.615905 0
M  V30 501 C 49.2412 1.65643 0.354808 0
M  V30 502 O 50.4472 1.78618 0.22265 0
M  V30 503 H 46.8222 0.729909 -0.180934 0
M  V30 504 H 48.7932 2.5701 -1.5162 0
M  V30 505 C 47.5422 3.47698 0.0104735 0
M  V30 506 H 46.8652 3.93125 -0.727509 0
M  V30 507 H 48.3052 4.23159 0.266995 0
M  V30 508 C 46.7642 3.12489 1.25905 0
M  V30 509 O 47.2942 3.25761 2.35038 0
M  V30 510 N 45.5002 2.6686 1.15039 0
M  V30 511 H 45.0472 2.56261 0.262328 0
M  V30 512 H 45.0052 2.43674 1.98672 0
M  V30 513 N 48.7773 0.814389 1.34928 0
M  V30 514 C 50.0233 0.399013 1.98836 0
M  V30 515 C 50.3563 -1.03314 1.64438 0
M  V30 516 O 49.6313 -1.71811 0.911659 0
M  V30 517 C 49.9143 0.591629 3.55207 0
M  V30 518 C 49.7673 2.06928 3.99376 0
M  V30 519 C 51.0863 0.022199 4.40094 0
M  V30 520 H 48.2053 0.146451 0.722303 0
M  V30 521 H 50.8473 1.02537 1.59957 0
M  V30 522 H 48.9973 0.0584441 3.88456 0
M  V30 523 H 50.6693 2.66544 3.76499 0
M  V30 524 H 48.9123 2.56287 3.49999 0
M  V30 525 H 49.5833 2.1549 5.08201 0
M  V30 526 H 52.0593 0.477643 4.13349 0
M  V30 527 H 50.9353 0.186832 5.48582 0
M  V30 528 H 51.1963 -1.07215 4.28902 0
M  V30 529 N 50.2554 -1.46986 0.568584 0
M  V30 530 C 51.5324 -1.95592 -0.0174074 0
M  V30 531 C 51.9124 -1.51124 -1.47393 0
M  V30 532 O 51.2604 -0.755329 -2.15655 0
M  V30 533 C 51.4704 -3.48719 0.139913 0
M  V30 534 C 52.8184 -4.246 0.000426376 0
M  V30 535 O 53.8424 -3.56135 0.0680316 0
M  V30 536 O 52.7014 -5.46302 -0.146988 0
M  V30 537 H 49.7954 -0.82498 -0.0577599 0
M  V30 538 H 52.3414 -1.57335 0.635909 0
M  V30 539 H 51.1134 -3.73927 1.15301 0
M  V30 540 H 50.7364 -3.93771 -0.550491 0
M  V30 541 N 51.7335 -0.305618 -1.54608 0
M  V30 542 C 52.6805 0.568421 -2.23691 0
M  V30 543 C 53.6505 1.12592 -1.22116 0
M  V30 544 O 54.8355 1.16959 -1.50749 0
M  V30 545 C 51.9755 1.7322 -2.98477 0
M  V30 546 C 51.0885 1.20566 -4.14835 0
M  V30 547 C 50.2235 2.33368 -4.77193 0
M  V30 548 C 49.2625 1.7787 -5.85686 0
M  V30 549 N 48.3995 2.84263 -6.4198 0
M  V30 550 H 53.2395 -0.0272867 -2.97988 0
M  V30 551 H 50.7765 -0.0252363 -1.47078 0
M  V30 552 H 52.7345 2.41675 -3.40072 0
M  V30 553 H 51.3645 2.29947 -2.26548 0
M  V30 554 H 50.4165 0.413223 -3.78149 0
M  V30 555 H 51.7285 0.759417 -4.92985 0
M  V30 556 H 50.8825 3.09761 -5.21664 0
M  V30 557 H 49.6215 2.8132 -3.98385 0
M  V30 558 H 48.6265 0.99968 -5.40635 0
M  V30 559 H 49.8515 1.30816 -6.66381 0
M  V30 560 H 47.7975 3.31541 -5.66053 0
M  V30 561 H 47.7145 2.44149 -7.15491 0
M  V30 562 H 48.9825 3.6054 -6.91109 0
M  V30 563 N 53.2116 1.57565 -0.0334293 0
M  V30 564 C 54.1586 2.10478 0.946981 0
M  V30 565 C 55.1286 1.00787 1.32027 0
M  V30 566 O 56.3136 1.28232 1.41284 0
M  V30 567 C 53.4536 2.63994 2.22263 0
M  V30 568 C 52.5666 3.87709 1.90541 0
M  V30 569 C 51.7016 4.29604 3.12433 0
M  V30 570 C 50.7406 5.46065 2.76549 0
M  V30 571 N 49.8776 5.83096 3.9108 0
M  V30 572 H 54.7176 2.93963 0.488846 0
M  V30 573 H 52.2546 1.45296 0.22969 0
M  V30 574 H 54.2126 2.93114 2.96884 0
M  V30 575 H 52.8426 1.83333 2.65685 0
M  V30 576 H 51.8946 3.65291 1.06144 0
M  V30 577 H 53.2066 4.72403 1.60116 0
M  V30 578 H 52.3606 4.60182 3.9537 0
M  V30 579 H 51.0996 3.43685 3.46023 0
M  V30 580 H 50.1046 5.15176 1.92026 0
M  V30 581 H 51.3296 6.33685 2.44171 0
M  V30 582 H 49.2756 5.00132 4.24504 0
M  V30 583 H 49.1926 6.6244 3.64293 0
M  V30 584 H 50.4606 6.18282 4.74708 0
M  V30 585 N 54.6897 -0.239769 1.55765 0
M  V30 586 C 55.9297 -0.974076 1.79697 0
M  V30 587 C 56.2937 -1.82249 0.604088 0
M  V30 588 O 57.4947 -2.58913 0.722324 0
M  V30 589 C 55.7657 -1.80595 3.08416 0
M  V30 590 S 57.3247 -2.59838 3.53596 0
M  V30 591 H 54.1427 -0.327524 0.63107 0
M  V30 592 H 56.7447 -0.241277 1.94005 0
M  V30 593 H 55.4487 -1.17249 3.93295 0
M  V30 594 H 54.9797 -2.58137 2.96865 0
M  V30 595 H 56.9947 -3.82987 3.15492 0
M  V30 596 N 56.1678 -1.49265 -0.50573 0
M  V30 597 C 57.0998 -1.617 -1.62437 0
M  V30 598 C 58.1128 -0.499924 -1.54934 0
M  V30 599 O 59.3018 -0.771785 -1.60953 0
M  V30 600 C 56.4018 -1.5533 -3.01207 0
M  V30 601 C 55.5748 -2.8249 -3.33943 0
M  V30 602 C 54.6338 -2.69238 -4.52103 0
M  V30 603 O 53.6598 -3.43167 -4.5412 0
M  V30 604 N 54.8618 -1.80468 -5.51735 0
M  V30 605 H 57.6268 -2.58177 -1.52199 0
M  V30 606 H 55.1878 -1.46294 -0.693511 0
M  V30 607 H 57.1798 -1.44125 -3.78167 0
M  V30 608 H 55.7498 -0.667297 -3.05395 0
M  V30 609 H 54.9698 -3.08081 -2.45926 0
M  V30 610 H 56.2578 -3.66802 -3.5261 0
M  V30 611 H 55.6558 -1.19653 -5.52901 0
M  V30 612 H 54.2128 -1.75188 -6.27816 0
M  V30 613 N 57.6459 0.756429 -1.3826 0
M  V30 614 C 58.8859 1.52833 -1.35725 0
M  V30 615 C 59.2499 1.91926 0.0534106 0
M  V30 616 O 60.4509 2.68028 0.203613 0
M  V30 617 C 58.7219 2.74919 -2.28373 0
M  V30 618 S 60.2809 3.64817 -2.43832 0
M  V30 619 H 57.0989 0.523043 -0.481608 0
M  V30 620 H 59.7009 0.888212 -1.74158 0
M  V30 621 H 58.4049 2.44304 -3.29763 0
M  V30 622 H 57.9359 3.43878 -1.91079 0
M  V30 623 H 59.9509 4.676 -1.66027 0
M  V30 624 N 59.124 1.23083 0.984299 0
M  V30 625 C 60.401 0.9689 1.69917 0
M  V30 626 C 60.781 -0.513604 2.04757 0
M  V30 627 O 60.129 -1.48383 1.73767 0
M  V30 628 C 60.339 1.87518 2.94343 0
M  V30 629 C 61.687 2.13636 3.6694 0
M  V30 630 O 62.711 1.85036 3.04368 0
M  V30 631 O 61.57 2.62119 4.79537 0
M  V30 632 H 58.664 0.365095 0.742048 0
M  V30 633 H 61.21 1.34107 1.03987 0
M  V30 634 H 59.982 2.87756 2.65164 0
M  V30 635 H 59.605 1.50514 3.6801 0
M  V30 636 N 60.6021 -1.18246 1.0419 0
M  V30 637 C 61.5121 -2.25574 0.644476 0
M  V30 638 C 62.5281 -1.70845 -0.329826 0
M  V30 639 O 63.7041 -2.00554 -0.184443 0
M  V30 640 C 60.7691 -3.46697 0.014877 0
M  V30 641 C 59.8301 -4.16554 1.03834 0
M  V30 642 C 59.0631 -5.31894 0.438692 0
M  V30 643 O 59.2861 -5.65385 -0.754752 0
M  V30 644 O 58.2201 -5.90459 1.168 0
M  V30 645 H 62.0461 -2.61836 1.53869 0
M  V30 646 H 59.6311 -1.25352 0.812854 0
M  V30 647 H 61.5131 -4.20062 -0.335538 0
M  V30 648 H 60.1881 -3.12255 -0.853138 0
M  V30 649 H 59.0951 -3.45251 1.44057 0
M  V30 650 H 60.4281 -4.54998 1.87716 0
M  V30 651 N 62.0802 -0.821533 -1.34494 0
M  V30 652 C 63.0102 -0.257138 -2.3208 0
M  V30 653 C 63.9912 0.625645 -1.58176 0
M  V30 654 O 65.1762 0.552811 -1.86166 0
M  V30 655 C 62.3062 0.582958 -3.42372 0
M  V30 656 C 61.2602 -0.202571 -4.2752 0
M  V30 657 C 60.5862 0.760179 -5.29269 0
M  V30 658 C 61.8862 -1.40998 -5.02908 0
M  V30 659 H 63.5802 -1.07247 -2.79532 0
M  V30 660 H 61.1262 -0.517163 -1.34393 0
M  V30 661 H 63.0792 0.987972 -4.09655 0
M  V30 662 H 61.8032 1.43133 -2.93565 0
M  V30 663 H 60.4622 -0.588936 -3.61838 0
M  V30 664 H 60.1102 1.60447 -4.76724 0
M  V30 665 H 59.8102 0.238809 -5.87115 0
M  V30 666 H 61.3342 1.16308 -5.9942 0
M  V30 667 H 62.7482 -1.07905 -5.63054 0
M  V30 668 H 61.1452 -1.86689 -5.70322 0
M  V30 669 H 62.2152 -2.1889 -4.32684 0
M  V30 670 N 63.5583 1.46682 -0.576371 0
M  V30 671 C 64.7983 2.04306 -0.0621356 0
M  V30 672 C 65.1623 1.4389 1.2712 0
M  V30 673 O 66.3633 1.92675 1.87429 0
M  V30 674 C 64.6343 3.57399 0.00927922 0
M  V30 675 S 66.1933 4.36309 0.466859 0
M  V30 676 H 63.0113 0.710167 -0.0344016 0
M  V30 677 H 65.6133 1.79807 -0.767437 0
M  V30 678 H 64.3173 3.98889 -0.965178 0
M  V30 679 H 63.8483 3.86424 0.737547 0
M  V30 680 H 65.8633 4.6533 1.72287 0
M  V30 681 N 65.0364 0.313813 1.54444 0
M  V30 682 C 66.2614 -0.296681 2.05267 0
M  V30 683 C 66.6864 -1.45757 1.18897 0
M  V30 684 O 66.0444 -1.80239 0.195886 0
M  V30 685 C 66.0924 -0.71831 3.53373 0
M  V30 686 O 65.1964 -1.82175 3.69981 0
M  V30 687 H 64.5374 -0.0554061 0.661684 0
M  V30 688 H 67.0674 0.459387 1.99376 0
M  V30 689 H 67.0774 -1.00364 3.95463 0
M  V30 690 H 65.7524 0.130821 4.15694 0
M  V30 691 H 64.3294 -1.53598 3.39797 0
M  V30 692 N 66.5145 -1.57545 0.0417849 0
M  V30 693 C 67.7445 -1.96339 -0.642995 0
M  V30 694 C 68.1525 -0.917536 -1.65463 0
M  V30 695 O 67.4955 0.107747 -1.83384 0
M  V30 696 C 67.5575 -3.31333 -1.39494 0
M  V30 697 C 67.2215 -4.53796 -0.540204 0
M  V30 698 C 68.2185 -5.19553 0.189806 0
M  V30 699 C 65.9035 -5.0006 -0.473886 0
M  V30 700 C 67.8975 -6.29904 0.974674 0
M  V30 701 C 65.5845 -6.10289 0.314677 0
M  V30 702 C 66.5825 -6.75072 1.03765 0
M  V30 703 O 66.2705 -7.83183 1.81327 0
M  V30 704 H 66.0025 -0.651241 -0.181277 0
M  V30 705 H 68.5565 -2.05148 0.101665 0
M  V30 706 H 66.7865 -3.19052 -2.18502 0
M  V30 707 H 68.4755 -3.54942 -1.96904 0
M  V30 708 H 69.2415 -4.84774 0.147981 0
M  V30 709 H 65.1205 -4.49433 -1.0262 0
M  V30 710 H 68.6645 -6.80401 1.5395 0
M  V30 711 H 64.5615 -6.44506 0.358174 0
M  V30 712 H 65.3295 -7.99913 1.73438 0
M  V30 713 N 67.9926 0.231505 -1.5589 0
M  V30 714 C 69.2226 0.973092 -1.82248 0
M  V30 715 C 69.6306 1.78845 -0.617328 0
M  V30 716 O 68.9736 1.78752 0.423499 0
M  V30 717 C 69.0356 1.94732 -3.02192 0
M  V30 718 C 68.6996 1.31743 -4.37599 0
M  V30 719 C 69.6966 0.712238 -5.14998 0
M  V30 720 C 67.3816 1.33218 -4.84312 0
M  V30 721 C 69.3756 0.130195 -6.37267 0
M  V30 722 C 67.0626 0.746286 -6.06526 0
M  V30 723 C 68.0606 0.146337 -6.82843 0
M  V30 724 O 67.7486 -0.430465 -8.02747 0
M  V30 725 H 67.4806 0.29125 -0.61004 0
M  V30 726 H 70.0346 0.254915 -2.03812 0
M  V30 727 H 68.2646 2.70422 -2.76422 0
M  V30 728 H 69.9536 2.55362 -3.15508 0
M  V30 729 H 70.7196 0.69324 -4.8002 0
M  V30 730 H 66.5986 1.78854 -4.24891 0
M  V30 731 H 70.1426 -0.33871 -6.96777 0
M  V30 732 H 66.0396 0.762663 -6.40979 0
M  V30 733 H 66.8076 -0.323818 -8.17859 0
M  V30 734 N 69.4707 1.49531 0.497807 0
M  V30 735 C 70.4027 1.62559 1.61578 0
M  V30 736 C 71.4157 0.508134 1.54667 0
M  V30 737 O 72.6047 0.780309 1.60541 0
M  V30 738 C 69.7047 1.56925 3.00379 0
M  V30 739 C 68.8777 2.84257 3.3244 0
M  V30 740 C 67.9367 2.71632 4.50669 0
M  V30 741 O 66.9627 3.4557 4.52294 0
M  V30 742 N 68.1647 1.83391 5.5077 0
M  V30 743 H 70.9297 2.58981 1.50828 0
M  V30 744 H 68.4907 1.4666 0.685743 0
M  V30 745 H 70.4827 1.46129 3.77397 0
M  V30 746 H 69.0527 0.683483 3.05037 0
M  V30 747 H 68.2727 3.09381 2.44289 0
M  V30 748 H 69.5607 3.68666 3.5066 0
M  V30 749 H 68.9587 1.22583 5.52259 0
M  V30 750 H 67.5157 1.78515 6.26878 0
M  V30 751 N 70.9488 -0.749086 1.3866 0
M  V30 752 C 72.1738 -1.54344 1.38538 0
M  V30 753 C 72.5988 -1.88088 -0.0216655 0
M  V30 754 O 71.9568 -1.50899 -1.00494 0
M  V30 755 C 72.0048 -2.8164 2.25192 0
M  V30 756 O 71.1088 -3.7698 1.67212 0
M  V30 757 H 70.4498 -0.466654 0.472367 0
M  V30 758 H 72.9798 -0.925355 1.82478 0
M  V30 759 H 72.9898 -3.30519 2.3921 0
M  V30 760 H 71.6648 -2.56411 3.27454 0
M  V30 761 H 70.2418 -3.35699 1.6236 0
M  V30 762 N 72.4269 -1.23603 -0.977757 0
M  V30 763 C 73.6669 -1.08148 -1.73446 0
M  V30 764 C 74.0309 0.374785 -1.88307 0
M  V30 765 O 75.2319 0.650588 -2.60808 0
M  V30 766 C 73.5029 -1.78991 -3.0935 0
M  V30 767 S 75.0619 -1.79141 -4.00567 0
M  V30 768 H 71.8799 -0.386987 -0.596458 0
M  V30 769 H 74.4819 -1.5678 -1.16792 0
M  V30 770 H 73.1859 -2.8408 -2.96187 0
M  V30 771 H 72.7169 -1.30651 -3.71071 0
M  V30 772 H 74.7319 -0.851892 -4.88833 0
M  V30 773 N 73.905 1.17692 -1.04816 0
M  V30 774 C 75.145 1.89545 -0.764979 0
M  V30 775 C 75.509 1.78979 0.695028 0
M  V30 776 O 76.71 2.45613 1.09215 0
M  V30 777 C 74.981 3.35659 -1.22751 0
M  V30 778 S 76.54 4.25526 -1.07112 0
M  V30 779 H 73.358 0.654432 -0.27792 0
M  V30 780 H 75.96 1.42163 -1.34201 0
M  V30 781 H 74.664 3.40882 -2.28533 0
M  V30 782 H 74.195 3.88083 -0.644594 0
M  V30 783 H 76.21 4.962 0.00697508 0
M  V30 784 N 75.3831 0.828654 1.34056 0
M  V30 785 C 76.6111 0.43262 2.02326 0
M  V30 786 C 77.0261 -0.963147 1.62385 0
M  V30 787 O 76.3831 -1.62425 0.832121 0
M  V30 788 C 76.4341 0.53182 3.57567 0
M  V30 789 O 76.1551 1.87258 3.96063 0
M  V30 790 C 77.6561 0.131422 4.43105 0
M  V30 791 H 74.8761 0.172923 0.648335 0
M  V30 792 H 77.4201 1.1184 1.71208 0
M  V30 793 H 75.5751 -0.105938 3.87255 0
M  V30 794 H 75.9891 1.85087 4.90758 0
M  V30 795 H 77.4631 0.251904 5.51425 0
M  V30 796 H 77.9401 -0.925645 4.29335 0
M  V30 797 H 78.5461 0.743207 4.18756 0
M  V30 798 N 76.8612 -1.46375 0.584142 0
M  V30 799 C 78.1382 -1.956 0.0033388 0
M  V30 800 C 78.5182 -1.52679 -1.45782 0
M  V30 801 O 77.8662 -0.77816 -2.14842 0
M  V30 802 C 78.0762 -3.48551 0.176891 0
M  V30 803 C 79.4242 -4.24576 0.0454609 0
M  V30 804 O 80.4482 -3.56043 0.105801 0
M  V30 805 O 79.3072 -5.46427 -0.0890376 0
M  V30 806 H 76.4012 -0.825547 -0.0490066 0
M  V30 807 H 78.9472 -1.56652 0.65256 0
M  V30 808 H 77.7192 -3.72683 1.1926 0
M  V30 809 H 77.3422 -3.94332 -0.508695 0
M  V30 810 N 78.3393 -0.321999 -1.54275 0
M  V30 811 C 79.5693 0.282642 -2.04658 0
M  V30 812 C 79.9773 1.46453 -1.19784 0
M  V30 813 O 79.3203 1.82367 -0.220932 0
M  V30 814 C 79.3823 0.781857 -3.50895 0
M  V30 815 C 79.0463 -0.277517 -4.56157 0
M  V30 816 C 80.0433 -1.11307 -5.07845 0
M  V30 817 C 77.7283 -0.425256 -5.00497 0
M  V30 818 C 79.7223 -2.08211 -6.02434 0
M  V30 819 C 77.4093 -1.39771 -5.94901 0
M  V30 820 C 78.4073 -2.2246 -6.45756 0
M  V30 821 O 78.0953 -3.18054 -7.38307 0
M  V30 822 H 77.8273 0.0622636 -0.673126 0
M  V30 823 H 80.3813 -0.465792 -2.00049 0
M  V30 824 H 78.6113 1.58118 -3.52896 0
M  V30 825 H 80.3003 1.30467 -3.84361 0
M  V30 826 H 81.0663 -1.00991 -4.74369 0
M  V30 827 H 76.9453 0.20847 -4.60528 0
M  V30 828 H 80.4893 -2.72791 -6.42052 0
M  V30 829 H 76.3863 -1.50152 -6.27794 0
M  V30 830 H 77.1543 -3.13275 -7.56175 0
M  V30 831 N 79.8174 1.5752 -0.0501392 0
M  V30 832 C 81.0454 1.96963 0.633492 0
M  V30 833 C 81.4604 0.927631 1.6444 0
M  V30 834 O 80.8174 -0.0882665 1.82286 0
M  V30 835 C 80.8684 3.36487 1.32132 0
M  V30 836 O 80.5894 4.36693 0.350894 0
M  V30 837 C 82.0904 3.90682 2.09481 0
M  V30 838 H 79.3104 0.648244 0.173266 0
M  V30 839 H 81.8544 2.0417 -0.116134 0
M  V30 840 H 80.0094 3.30434 2.02218 0
M  V30 841 H 80.4234 5.17702 0.841735 0
M  V30 842 H 81.8974 4.90591 2.5303 0
M  V30 843 H 82.3744 3.26053 2.94255 0
M  V30 844 H 82.9804 4.00069 1.44307 0
M  V30 845 N 81.2955 -0.223234 1.56011 0
M  V30 846 C 82.2585 -1.26014 1.9145 0
M  V30 847 C 83.2585 -1.3989 0.792937 0
M  V30 848 O 84.4485 -1.38184 1.0607 0
M  V30 849 C 81.5805 -2.63422 2.16383 0
M  V30 850 H 82.7735 -0.95796 2.84189 0
M  V30 851 H 80.3265 -0.463576 1.49267 0
M  V30 852 H 81.0615 -2.98741 1.2619 0
M  V30 853 H 80.8465 -2.54728 2.98088 0
M  V30 854 H 82.3365 -3.38249 2.44903 0
M  V30 855 N 82.7736 -1.49793 -0.48987 0
M  V30 856 C 83.6836 -1.70036 -1.61632 0
M  V30 857 C 84.6996 -0.583102 -1.63939 0
M  V30 858 O 85.8756 -0.859169 -1.82154 0
M  V30 859 C 82.9406 -1.77277 -2.97949 0
M  V30 860 C 82.0016 -3.00918 -3.06181 0
M  V30 861 C 81.2346 -3.07804 -4.35996 0
M  V30 862 O 81.4576 -2.21982 -5.25433 0
M  V30 863 O 80.3916 -4.00369 -4.49431 0
M  V30 864 H 84.2176 -2.65486 -1.47482 0
M  V30 865 H 81.8026 -1.33666 -0.667362 0
M  V30 866 H 83.6846 -1.84329 -3.78947 0
M  V30 867 H 82.3596 -0.850076 -3.12339 0
M  V30 868 H 81.2666 -2.99377 -2.2433 0
M  V30 869 H 82.5996 -3.92704 -2.96723 0
M  V30 870 N 84.2517 0.741722 -1.39055 0
M  V30 871 C 85.4917 1.51385 -1.37338 0
M  V30 872 C 85.8557 1.91972 0.0330513 0
M  V30 873 O 87.0567 2.68229 0.175174 0
M  V30 874 C 85.3277 2.72481 -2.31276 0
M  V30 875 S 86.8867 3.62211 -2.47687 0
M  V30 876 H 83.7047 0.517906 -0.487129 0
M  V30 877 H 86.3067 0.86969 -1.7509 0
M  V30 878 H 85.0107 2.40793 -3.32336 0
M  V30 879 H 84.5417 3.41832 -1.94716 0
M  V30 880 H 86.5567 4.65812 -1.70978 0
M  V30 881 N 85.7298 1.2412 0.971189 0
M  V30 882 C 86.6768 1.0305 2.06517 0
M  V30 883 C 87.6468 -0.0550666 1.66009 0
M  V30 884 O 88.8318 0.0988688 1.90544 0
M  V30 885 C 85.9718 0.637653 3.39158 0
M  V30 886 C 85.0848 1.79633 3.92882 0
M  V30 887 C 84.2198 1.34939 5.13775 0
M  V30 888 C 83.2588 2.47823 5.59687 0
M  V30 889 N 82.3958 2.04022 6.71803 0
M  V30 890 H 87.2358 1.96685 2.23873 0
M  V30 891 H 84.7728 0.979694 1.09729 0
M  V30 892 H 86.7308 0.390931 4.15364 0
M  V30 893 H 85.3608 -0.261693 3.21737 0
M  V30 894 H 84.4128 2.15681 3.13346 0
M  V30 895 H 85.7248 2.64466 4.22918 0
M  V30 896 H 84.8788 1.06134 5.97345 0
M  V30 897 H 83.6178 0.471557 4.85415 0
M  V30 898 H 82.6228 2.77392 4.74693 0
M  V30 899 H 83.8478 3.36158 5.90063 0
M  V30 900 H 81.7938 1.18632 6.45184 0
M  V30 901 H 81.7108 2.82409 7.01271 0
M  V30 902 H 82.9788 1.78347 7.58823 0
M  V30 903 N 87.2079 -1.17134 1.05439 0
M  V30 904 C 88.6189 -1.69084 0.791676 0
M  V30 905 C 88.9699 -1.83822 -0.685839 0
M  V30 906 O 88.0949 -1.52757 -1.53278 0
M  V30 907 C 88.6899 -3.07119 1.4305 0
M  V30 908 C 87.2489 -3.56225 1.21577 0
M  V30 909 C 86.3959 -2.32421 1.51247 0
M  V30 910 H 89.3469 -1.01617 1.219 0
M  V30 911 H 89.3679 -3.71087 0.84112 0
M  V30 912 H 88.8799 -2.9636 2.50584 0
M  V30 913 H 86.9809 -3.72257 0.159787 0
M  V30 914 H 87.0939 -4.38837 1.92246 0
M  V30 915 H 85.4579 -2.3701 0.932653 0
M  V30 916 H 86.2409 -2.24268 2.5992 0
M  V30 917 N 88.686 -0.835752 -1.33615 0
M  V30 918 C 89.618 -0.224151 -2.28101 0
M  V30 919 C 90.631 0.593331 -1.51603 0
M  V30 920 O 91.82 0.420911 -1.73466 0
M  V30 921 C 88.92 0.703309 -3.31522 0
M  V30 922 C 88.093 -0.0741528 -4.37337 0
M  V30 923 C 87.152 0.776176 -5.20444 0
M  V30 924 O 86.178 0.216506 -5.68788 0
M  V30 925 N 87.38 2.09401 -5.41416 0
M  V30 926 H 90.145 -1.03598 -2.81225 0
M  V30 927 H 87.706 -0.69392 -1.46275 0
M  V30 928 H 89.698 1.27707 -3.84022 0
M  V30 929 H 88.268 1.41585 -2.78698 0
M  V30 930 H 87.488 -0.82928 -3.85378 0
M  V30 931 H 88.776 -0.608863 -5.05144 0
M  V30 932 H 88.174 2.57229 -5.03835 0
M  V30 933 H 86.731 2.61633 -5.96985 0
M  V30 934 N 90.1641 1.46063 -0.591896 0
M  V30 935 C 91.4101 2.02638 -0.0811191 0
M  V30 936 C 91.7431 1.4613 1.27905 0
M  V30 937 O 91.0181 0.629908 1.84017 0
M  V30 938 C 91.3011 3.60091 -0.0252436 0
M  V30 939 C 91.1541 4.26965 -1.41496 0
M  V30 940 C 92.4731 4.3496 0.670685 0
M  V30 941 H 89.5921 0.73635 -0.0309524 0
M  V30 942 H 92.2341 1.741 -0.760859 0
M  V30 943 H 90.3841 3.84535 0.553624 0
M  V30 944 H 92.0561 4.13756 -2.0397 0
M  V30 945 H 90.2991 3.85971 -1.98011 0
M  V30 946 H 90.9701 5.35781 -1.32825 0
M  V30 947 H 93.4461 4.15716 0.178825 0
M  V30 948 H 92.3221 5.44686 0.678837 0
M  V30 949 H 92.5831 4.06685 1.73379 0
M  V30 950 N 91.6422 0.330177 1.54103 0
M  V30 951 C 92.8702 -0.272179 2.05102 0
M  V30 952 C 93.2852 -1.45267 1.20595 0
M  V30 953 O 92.6422 -1.8094 0.238144 0
M  V30 954 C 92.6932 -0.70023 3.54653 0
M  V30 955 O 92.4142 0.433301 4.35952 0
M  V30 956 C 93.9152 -1.3647 4.21771 0
M  V30 957 H 91.1352 -0.0549159 0.668749 0
M  V30 958 H 93.6792 0.478285 1.98828 0
M  V30 959 H 91.8342 -1.40066 3.61193 0
M  V30 960 H 92.2482 0.0947539 5.24414 0
M  V30 961 H 93.7222 -1.61509 5.27843 0
M  V30 962 H 94.1992 -2.31409 3.73292 0
M  V30 963 H 94.8052 -0.706675 4.19388 0
M  V30 964 N 93.1203 -1.57491 0.0584922 0
M  V30 965 C 94.5363 -1.56792 -0.298091 0
M  V30 966 C 94.7363 -1.06679 -1.70944 0
M  V30 967 O 93.7923 -0.726672 -2.41818 0
M  V30 968 C 95.1053 -3.00461 -0.119879 0
M  V30 969 C 96.6533 -3.1242 -0.190428 0
M  V30 970 C 97.1283 -4.57982 -0.0406567 0
M  V30 971 N 98.6193 -4.63099 -0.0966958 0
M  V30 972 C 99.3543 -5.734 -0.00502943 0
M  V30 973 N 98.8503 -6.9266 0.139402 0
M  V30 974 N 100.643 -5.62067 -0.0611391 0
M  V30 975 H 92.7943 -1.88386 0.98105 0
M  V30 976 H 95.0573 -0.867865 0.381463 0
M  V30 977 H 94.7633 -3.41187 0.85349 0
M  V30 978 H 94.6373 -3.66843 -0.877833 0
M  V30 979 H 97.0243 -2.71589 -1.15427 0
M  V30 980 H 97.1053 -2.48702 0.598405 0
M  V30 981 H 96.7493 -4.995 0.919897 0
M  V30 982 H 96.6793 -5.19715 -0.848727 0
M  V30 983 H 99.1703 -3.77331 -0.207277 0
M  V30 984 H 99.4833 -7.72536 0.201855 0
M  V30 985 H 97.8283 -6.94781 0.174586 0
M  V30 986 H 101.019 -4.67782 -0.172583 0
M  V30 987 H 101.192 -6.47999 0.0137562 0
M  V30 988 N 94.5984 0.214957 -1.56127 0
M  V30 989 C 95.8464 0.936518 -1.79091 0
M  V30 990 C 96.1674 1.84606 -0.628148 0
M  V30 991 O 95.4374 1.92664 0.35462 0
M  V30 992 H 94.0174 0.3488 -0.660566 0
M  V30 993 H 96.6794 0.22523 -1.93594 0
M  V30 994 H 95.7754 1.53943 -2.71492 0
M  V30 995 N 96.0765 1.50051 0.48192 0
M  V30 996 C 97.3535 1.51009 1.2432 0
M  V30 997 C 97.7335 0.248587 2.09631 0
M  V30 998 O 97.0815 -0.768409 2.15192 0
M  V30 999 C 97.2915 2.79981 2.08355 0
M  V30 1000 C 98.6395 3.3022 2.66908 0
M  V30 1001 O 99.6635 2.81228 2.18607 0
M  V30 1002 O 98.5225 4.15595 3.54884 0
M  V30 1003 H 95.6165 0.605239 0.563573 0
M  V30 1004 H 98.1625 1.62332 0.494627 0
M  V30 1005 H 96.9345 3.63275 1.45419 0
M  V30 1006 H 96.5575 2.7161 2.90368 0
M  V30 1007 N 97.5546 -0.734337 1.39446 0
M  V30 1008 C 98.8006 -1.49613 1.36908 0
M  V30 1009 C 99.1336 -1.94169 -0.0347829 0
M  V30 1010 O 98.4086 -1.66833 -0.999847 0
M  V30 1011 C 98.6916 -2.73534 2.34203 0
M  V30 1012 C 98.5446 -2.34993 3.83534 0
M  V30 1013 C 99.8636 -3.75635 2.29317 0
M  V30 1014 H 96.9826 -0.542714 0.498629 0
M  V30 1015 H 99.6246 -0.839597 1.70443 0
M  V30 1016 H 97.7746 -3.29553 2.05736 0
M  V30 1017 H 99.4466 -1.84601 4.22753 0
M  V30 1018 H 97.6896 -1.67213 4.00278 0
M  V30 1019 H 98.3606 -3.23738 4.47099 0
M  V30 1020 H 100.837 -3.29203 2.54489 0
M  V30 1021 H 99.7126 -4.60008 2.99472 0
M  V30 1022 H 99.9736 -4.22603 1.29842 0
M  V30 1023 N 99.0327 -1.24633 -0.964593 0
M  V30 1024 C 100.28 -1.08788 -1.70796 0
M  V30 1025 C 100.608 0.372783 -1.90894 0
M  V30 1026 O 99.8627 1.29167 -1.47018 0
M  V30 1027 C 100.162 -1.7763 -3.10133 0
M  V30 1028 C 99.8277 -3.27557 -3.09866 0
M  V30 1029 C 98.4897 -3.6846 -3.09501 0
M  V30 1030 C 100.842 -4.23389 -3.03959 0
M  V30 1031 C 98.1697 -5.03624 -3.00965 0
M  V30 1032 C 100.522 -5.58565 -2.96965 0
M  V30 1033 C 99.1857 -5.98809 -2.9493 0
M  V30 1034 H 98.4557 -0.398084 -0.624988 0
M  V30 1035 H 101.103 -1.54777 -1.12767 0
M  V30 1036 H 99.4077 -1.24044 -3.71645 0
M  V30 1037 H 101.105 -1.62832 -3.66451 0
M  V30 1038 H 97.6947 -2.95006 -3.10917 0
M  V30 1039 H 101.879 -3.92787 -3.03368 0
M  V30 1040 H 97.1347 -5.33998 -2.97752 0
M  V30 1041 H 101.309 -6.32523 -2.91354 0
M  V30 1042 H 98.9357 -7.03505 -2.88071 0
M  V30 1043 N 100.511 1.16574 -1.06058 0
M  V30 1044 C 101.739 1.90952 -0.796552 0
M  V30 1045 C 102.154 1.77302 0.648808 0
M  V30 1046 O 101.511 1.11605 1.44397 0
M  V30 1047 C 101.562 3.41736 -1.17894 0
M  V30 1048 O 101.283 3.54975 -2.56758 0
M  V30 1049 C 102.784 4.33169 -0.942308 0
M  V30 1050 H 100.004 0.605594 -0.288959 0
M  V30 1051 H 102.548 1.47777 -1.41358 0
M  V30 1052 H 100.703 3.82623 -0.606491 0
M  V30 1053 H 101.117 4.4846 -2.72 0
M  V30 1054 H 102.591 5.37439 -1.25952 0
M  V30 1055 H 103.068 4.3903 0.122078 0
M  V30 1056 H 103.674 3.98007 -1.49902 0
M  V30 1057 N 101.989 0.842826 1.3317 0
M  V30 1058 C 102.922 0.223862 2.27099 0
M  V30 1059 C 103.9 -0.631311 1.49844 0
M  V30 1060 O 105.084 -0.590708 1.79005 0
M  V30 1061 C 102.211 -0.685313 3.31694 0
M  V30 1062 C 101.257 0.094919 4.26394 0
M  V30 1063 S 102.09 1.45546 5.15341 0
M  V30 1064 C 103.246 0.551685 6.23464 0
M  V30 1065 H 103.479 1.02015 2.79249 0
M  V30 1066 H 101.012 0.639797 1.4052 0
M  V30 1067 H 102.97 -1.20426 3.92438 0
M  V30 1068 H 101.631 -1.4553 2.78352 0
M  V30 1069 H 100.824 -0.597059 5.00451 0
M  V30 1070 H 100.426 0.545054 3.70007 0
M  V30 1071 H 102.718 -0.248877 6.77043 0
M  V30 1072 H 103.661 1.26253 6.96754 0
M  V30 1073 H 104.069 0.131275 5.64347 0
M  V30 1074 N 103.467 -1.45747 0.599634 0
M  V30 1075 C 104.878 -1.85853 0.177681 0
M  V30 1076 C 105.229 -1.50102 -1.26348 0
M  V30 1077 O 104.354 -0.923905 -1.95686 0
M  V30 1078 C 104.949 -3.37326 0.315688 0
M  V30 1079 C 103.508 -3.76365 -0.0515144 0
M  V30 1080 C 102.655 -2.69722 0.643822 0
M  V30 1081 H 105.606 -1.36661 0.806814 0
M  V30 1082 H 105.627 -3.77778 -0.454321 0
M  V30 1083 H 105.139 -3.63315 1.36468 0
M  V30 1084 H 103.24 -3.55993 -1.09999 0
M  V30 1085 H 103.353 -4.77916 0.336594 0
M  V30 1086 H 101.717 -2.54567 0.0822881 0
M  V30 1087 H 102.5 -2.98549 1.6948 0
M  V30 1088 N 104.945 -0.338344 -1.53925 0
M  V30 1089 C 105.855 0.529421 -2.28548 0
M  V30 1090 C 106.871 1.11645 -1.3346 0
M  V30 1091 O 108.047 1.13325 -1.66492 0
M  V30 1092 C 105.112 1.66713 -3.03987 0
M  V30 1093 C 104.173 1.11041 -4.14691 0
M  V30 1094 C 103.406 2.19389 -4.86522 0
M  V30 1095 O 103.629 3.40013 -4.57982 0
M  V30 1096 O 102.563 1.83976 -5.73094 0
M  V30 1097 H 106.389 -0.0770399 -3.03602 0
M  V30 1098 H 103.974 -0.103555 -1.49041 0
M  V30 1099 H 105.856 2.32918 -3.5118 0
M  V30 1100 H 104.531 2.25949 -2.31794 0
M  V30 1101 H 103.438 0.413024 -3.71813 0
M  V30 1102 H 104.771 0.562975 -4.8897 0
M  V30 1103 N 106.423 1.57458 -0.0668435 0
M  V30 1104 C 107.7 1.8469 0.644132 0
M  V30 1105 C 108.08 0.958343 1.88093 0
M  V30 1106 O 107.428 0.0233579 2.28488 0
M  V30 1107 C 107.638 3.34767 0.986509 0
M  V30 1108 C 108.986 4.02159 1.36212 0
M  V30 1109 O 110.01 3.39484 1.07839 0
M  V30 1110 O 108.869 5.12694 1.89227 0
M  V30 1111 H 105.963 0.762816 0.319437 0
M  V30 1112 H 108.509 1.6942 -0.0973986 0
M  V30 1113 H 107.281 3.91151 0.107883 0
M  V30 1114 H 106.904 3.55281 1.78497 0
M  V30 1115 N 107.901 -0.206675 1.56239 0
M  V30 1116 C 108.811 -1.27686 1.96808 0
M  V30 1117 C 109.827 -1.50455 0.874035 0
M  V30 1118 O 111.003 -1.63295 1.17884 0
M  V30 1119 C 108.068 -2.60358 2.28942 0
M  V30 1120 C 107.129 -2.45762 3.51994 0
M  V30 1121 C 106.362 -3.72108 3.82585 0
M  V30 1122 O 106.585 -4.75776 3.14631 0
M  V30 1123 O 105.519 -3.6833 4.76043 0
M  V30 1124 H 109.345 -0.962593 2.88041 0
M  V30 1125 H 106.93 -0.410746 1.43643 0
M  V30 1126 H 108.812 -3.38687 2.50737 0
M  V30 1127 H 107.487 -2.91435 1.4088 0
M  V30 1128 H 106.394 -1.65584 3.35459 0
M  V30 1129 H 107.727 -2.19621 4.40486 0
M  V30 1130 N 109.379 -1.50304 -0.473955 0
M  V30 1131 C 110.609 -1.64663 -1.24778 0
M  V30 1132 C 111.017 -0.328174 -1.86332 0
M  V30 1133 O 110.36 0.699536 -1.69859 0
M  V30 1134 C 110.422 -2.6778 -2.39863 0
M  V30 1135 C 110.086 -4.11413 -1.98969 0
M  V30 1136 C 111.083 -4.97372 -1.51385 0
M  V30 1137 C 108.768 -4.57312 -2.07777 0
M  V30 1138 C 110.762 -6.27277 -1.13148 0
M  V30 1139 C 108.449 -5.87223 -1.69152 0
M  V30 1140 C 109.447 -6.72031 -1.21915 0
M  V30 1141 O 109.135 -7.99518 -0.838237 0
M  V30 1142 H 108.867 -0.556602 -0.383627 0
M  V30 1143 H 111.421 -1.9726 -0.572491 0
M  V30 1144 H 109.651 -2.30419 -3.10554 0
M  V30 1145 H 111.34 -2.71388 -3.01833 0
M  V30 1146 H 112.106 -4.63128 -1.44004 0
M  V30 1147 H 107.985 -3.91449 -2.43493 0
M  V30 1148 H 111.529 -6.93425 -0.762077 0
M  V30 1149 H 107.426 -6.20989 -1.76191 0
M  V30 1150 H 108.194 -8.12764 -0.967339 0
M  V30 1151 N 110.857 0.726932 -1.39834 0
M  V30 1152 C 112.085 1.51613 -1.40787 0
M  V30 1153 C 112.5 1.88799 -0.00451505 0
M  V30 1154 O 111.857 1.54662 0.968809 0
M  V30 1155 C 111.908 2.79863 -2.28821 0
M  V30 1156 O 111.629 2.44253 -3.63692 0
M  V30 1157 C 113.13 3.73837 -2.38245 0
M  V30 1158 H 110.35 0.468264 -0.480593 0
M  V30 1159 H 112.894 0.897607 -1.83748 0
M  V30 1160 H 111.049 3.38027 -1.89252 0
M  V30 1161 H 111.463 3.26695 -4.1033 0
M  V30 1162 H 112.937 4.60699 -3.04073 0
M  V30 1163 H 113.414 4.16153 -1.40403 0
M  V30 1164 H 114.02 3.21589 -2.78317 0
M  V30 1165 N 112.336 1.25143 0.95797 0
M  V30 1166 C 113.582 1.09855 1.70469 0
M  V30 1167 C 113.915 -0.360187 1.90831 0
M  V30 1168 O 113.19 -1.26568 1.47685 0
M  V30 1169 C 113.473 1.8497 3.08963 0
M  V30 1170 C 113.326 3.38652 2.96032 0
M  V30 1171 C 114.645 1.63016 4.08795 0
M  V30 1172 H 111.764 0.400465 0.618706 0
M  V30 1173 H 114.406 1.53933 1.11376 0
M  V30 1174 H 112.556 1.47505 3.59409 0
M  V30 1175 H 114.228 3.85772 2.52938 0
M  V30 1176 H 112.471 3.66534 2.32025 0
M  V30 1177 H 113.142 3.8642 3.94187 0
M  V30 1178 H 115.618 1.95625 3.67247 0
M  V30 1179 H 114.494 2.18015 5.03747 0
M  V30 1180 H 114.755 0.570692 4.38401 0
M  V30 1181 N 113.814 -1.1601 1.06675 0
M  V30 1182 C 115.044 -1.90251 0.805497 0
M  V30 1183 C 115.452 -1.77891 -0.64431 0
M  V30 1184 O 114.795 -1.12383 -1.45313 0
M  V30 1185 C 114.857 -3.41419 1.12576 0
M  V30 1186 C 114.521 -3.77564 2.57477 0
M  V30 1187 C 115.518 -3.79161 3.55715 0
M  V30 1188 C 113.203 -4.08079 2.92877 0
M  V30 1189 C 115.197 -4.10767 4.8739 0
M  V30 1190 C 112.884 -4.39351 4.24751 0
M  V30 1191 C 113.882 -4.40675 5.21818 0
M  V30 1192 O 113.57 -4.71202 6.51325 0
M  V30 1193 H 113.302 -0.610018 0.291297 0
M  V30 1194 H 115.856 -1.47958 1.4247 0
M  V30 1195 H 114.086 -3.84079 0.449503 0
M  V30 1196 H 115.775 -3.9694 0.84814 0
M  V30 1197 H 116.541 -3.55693 3.29708 0
M  V30 1198 H 112.42 -4.06211 2.17976 0
M  V30 1199 H 115.964 -4.11715 5.63148 0
M  V30 1200 H 111.861 -4.62285 4.50514 0
M  V30 1201 H 112.629 -4.88996 6.56373 0
M  V30 1202 N 115.292 -0.849877 -1.32721 0
M  V30 1203 C 116.569 -0.372405 -1.92022 0
M  V30 1204 C 116.949 1.1435 -1.77447 0
M  V30 1205 O 116.297 1.96296 -1.16962 0
M  V30 1206 C 116.507 -0.831482 -3.3895 0
M  V30 1207 C 117.855 -0.845882 -4.16089 0
M  V30 1208 O 118.879 -0.775806 -3.47649 0
M  V30 1209 O 117.738 -0.943753 -5.38289 0
M  V30 1210 H 114.832 -0.107667 -0.819961 0
M  V30 1211 H 117.378 -0.93646 -1.41522 0
M  V30 1212 H 116.15 -1.87448 -3.4348 0
M  V30 1213 H 115.773 -0.24461 -3.96847 0
M  V30 1214 N 116.77 1.45427 -0.607355 0
M  V30 1215 C 118.047 1.9557 -0.0344566 0
M  V30 1216 C 118.427 1.54979 1.43334 0
M  V30 1217 O 117.775 0.812241 2.13576 0
M  V30 1218 C 117.985 3.48226 -0.232321 0
M  V30 1219 C 119.333 4.2445 -0.113001 0
M  V30 1220 O 120.357 3.55829 -0.162431 0
M  V30 1221 O 119.216 5.465 0.00209442 0
M  V30 1222 H 116.31 0.826222 0.0358667 0
M  V30 1223 H 118.856 1.55594 -0.6774 0
M  V30 1224 H 117.628 3.70739 -1.25174 0
M  V30 1225 H 117.251 3.95092 0.445896 0
M  V30 1226 N 118.248 0.346503 1.53744 0
M  V30 1227 C 119.496 -0.248612 2.00565 0
M  V30 1228 C 119.817 -1.5083 1.23593 0
M  V30 1229 O 119.087 -1.92858 0.343912 0
M  V30 1230 H 117.667 -0.0948564 0.740953 0
M  V30 1231 H 120.329 0.468341 1.89189 0
M  V30 1232 H 119.425 -0.488994 3.08245 0
M  V30 1233 N 119.726 -1.57421 0.075193 0
M  V30 1234 C 120.636 -2.1642 -0.905511 0
M  V30 1235 C 121.652 -1.12828 -1.32461 0
M  V30 1236 O 122.828 -1.45109 -1.39661 0
M  V30 1237 C 119.893 -2.71693 -2.15369 0
M  V30 1238 C 118.954 -3.90171 -1.79068 0
M  V30 1239 C 118.187 -4.42798 -2.97936 0
M  V30 1240 O 118.41 -3.94416 -4.12058 0
M  V30 1241 O 117.344 -5.34085 -2.77555 0
M  V30 1242 H 121.17 -3.00588 -0.433626 0
M  V30 1243 H 118.755 -1.48664 -0.148067 0
M  V30 1244 H 120.637 -3.07104 -2.88557 0
M  V30 1245 H 119.312 -1.90582 -2.61649 0
M  V30 1246 H 118.219 -3.59606 -1.03122 0
M  V30 1247 H 119.552 -4.72584 -1.37569 0
M  V30 1248 N 121.204 0.198386 -1.56346 0
M  V30 1249 C 122.114 1.2664 -1.97483 0
M  V30 1250 C 123.13 1.49989 -0.882002 0
M  V30 1251 O 124.306 1.62668 -1.18748 0
M  V30 1252 C 121.371 2.59141 -2.30319 0
M  V30 1253 C 120.432 2.43892 -3.53292 0
M  V30 1254 C 119.665 3.70074 -3.84553 0
M  V30 1255 O 119.888 4.74101 -3.1715 0
M  V30 1256 O 118.822 3.658 -4.7799 0
M  V30 1257 H 122.648 0.947304 -2.88548 0
M  V30 1258 H 120.233 0.403123 -1.43859 0
M  V30 1259 H 122.115 3.37352 -2.5253 0
M  V30 1260 H 120.79 2.90684 -1.42423 0
M  V30 1261 H 119.697 1.63803 -3.36332 0
M  V30 1262 H 121.03 2.17282 -4.41644 0
M  V30 1263 N 122.682 1.50554 0.465978 0
M  V30 1264 C 123.629 1.6979 1.56333 0
M  V30 1265 C 124.599 0.539239 1.57103 0
M  V30 1266 O 125.784 0.770401 1.74555 0
M  V30 1267 C 122.924 1.80273 2.94271 0
M  V30 1268 C 122.037 3.07674 3.0325 0
M  V30 1269 C 121.172 3.08922 4.32135 0
M  V30 1270 C 120.211 4.30755 4.34875 0
M  V30 1271 N 119.348 4.29714 5.55239 0
M  V30 1272 H 124.188 2.63472 1.39235 0
M  V30 1273 H 121.725 1.30602 0.676873 0
M  V30 1274 H 123.683 1.84332 3.74269 0
M  V30 1275 H 122.313 0.900258 3.09992 0
M  V30 1276 H 121.365 3.13062 2.16094 0
M  V30 1277 H 122.677 3.97642 3.01135 0
M  V30 1278 H 121.831 3.11738 5.20485 0
M  V30 1279 H 120.57 2.16792 4.36866 0
M  V30 1280 H 119.575 4.28146 3.44922 0
M  V30 1281 H 120.8 5.24117 4.31831 0
M  V30 1282 H 118.746 3.4044 5.60746 0
M  V30 1283 H 118.663 5.13456 5.54886 0
M  V30 1284 H 119.931 4.36683 6.457 0
M  V30 1285 N 124.16 -0.719506 1.40217 0
M  V30 1286 C 125.108 -1.85493 1.40339 0
M  V30 1287 C 126.102 -1.66995 0.284415 0
M  V30 1288 O 127.308 -1.74148 0.455252 0
M  V30 1289 H 123.683 -0.610857 0.438586 0
M  V30 1290 H 125.654 -1.82506 2.36081 0
M  V30 1291 C 124.403 -3.23321 1.27901 0
M  V30 1292 H 123.726 -3.38159 2.1328 0
M  V30 1293 H 125.166 -4.02914 1.32045 0
M  V30 1294 C 123.625 -3.36898 -0.0111355 0
M  V30 1295 O 124.155 -3.89674 -0.975538 0
M  V30 1296 N 122.361 -2.90492 -0.0793393 0
M  V30 1297 H 121.908 -2.47731 0.706183 0
M  V30 1298 H 121.866 -2.99955 -0.942038 0
M  V30 1299 N 125.638 -1.25649 -0.95132 0
M  V30 1300 C 126.586 -1.06118 -2.06982 0
M  V30 1301 C 127.58 0.00889169 -1.69398 0
M  V30 1302 O 128.786 -0.146988 -1.79399 0
M  V30 1303 H 125.161 -0.326248 -0.677544 0
M  V30 1304 H 127.132 -2.00932 -2.2061 0
M  V30 1305 C 125.881 -0.700145 -3.40578 0
M  V30 1306 H 125.204 -1.51537 -3.69968 0
M  V30 1307 H 126.644 -0.603211 -4.19687 0
M  V30 1308 C 125.103 0.59403 -3.31622 0
M  V30 1309 O 125.633 1.63522 -3.66911 0
M  V30 1310 N 123.839 0.58089 -2.84735 0
M  V30 1311 H 123.386 -0.266783 -2.56215 0
M  V30 1312 H 123.344 1.44695 -2.79125 0
M  V30 1313 N 127.117 1.15442 -1.07289 0
M  V30 1314 C 128.08 2.18358 -0.696591 0
M  V30 1315 C 129.08 1.58637 0.262837 0
M  V30 1316 O 130.27 1.74145 0.0438809 0
M  V30 1317 C 127.402 3.4089 -0.0266151 0
M  V30 1318 H 128.595 2.53162 -1.60776 0
M  V30 1319 H 126.148 1.29893 -0.869342 0
M  V30 1320 H 126.883 3.11653 0.896822 0
M  V30 1321 H 126.668 3.85495 -0.716657 0
M  V30 1322 H 128.158 4.17009 0.222028 0
M  V30 1323 N 128.595 0.856903 1.32268 0
M  V30 1324 C 129.823 0.475439 2.01363 0
M  V30 1325 C 130.238 -0.928486 1.64392 0
M  V30 1326 O 129.595 -1.60624 0.866387 0
M  V30 1327 C 129.646 0.607545 3.56358 0
M  V30 1328 O 129.367 1.95617 3.92002 0
M  V30 1329 C 130.868 0.225382 4.42727 0
M  V30 1330 H 128.088 0.186636 0.644521 0
M  V30 1331 H 130.632 1.15446 1.68797 0
M  V30 1332 H 128.787 -0.0237719 3.87393 0
M  V30 1333 H 129.201 1.95455 4.86721 0
M  V30 1334 H 130.675 0.368813 5.50767 0
M  V30 1335 H 131.152 -0.834369 4.31202 0
M  V30 1336 H 131.758 0.831864 4.17085 0
M  V30 1337 N 130.073 -1.45103 0.615059 0
M  V30 1338 C 131.319 -2.02483 0.113347 0
M  V30 1339 C 131.652 -1.48146 -1.25564 0
M  V30 1340 O 130.927 -0.659104 -1.82992 0
M  V30 1341 C 131.21 -3.60005 0.0825278 0
M  V30 1342 C 131.063 -4.2466 1.48271 0
M  V30 1343 C 132.382 -4.35972 -0.601401 0
M  V30 1344 H 129.501 -0.735764 0.0426632 0
M  V30 1345 H 132.143 -1.72868 0.788461 0
M  V30 1346 H 130.293 -3.85367 -0.492378 0
M  V30 1347 H 131.965 -4.10458 2.10527 0
M  V30 1348 H 130.208 -3.82772 2.04127 0
M  V30 1349 H 130.879 -5.336 1.41332 0
M  V30 1350 H 133.355 -4.15947 -0.112666 0
M  V30 1351 H 132.231 -5.45697 -0.592097 0
M  V30 1352 H 132.492 -4.09391 -1.66887 0
M  V30 1353 N 131.551 -0.354651 -1.53558 0
M  V30 1354 C 132.501 0.513179 -2.2215 0
M  V30 1355 C 133.485 1.05734 -1.21281 0
M  V30 1356 O 134.677 0.989202 -1.46778 0
M  V30 1357 C 131.806 1.65798 -3.00609 0
M  V30 1358 C 130.892 1.12722 -4.08845 0
M  V30 1359 N 131.283 0.318563 -5.04796 0
M  V30 1360 C 129.581 1.40307 -4.23356 0
M  V30 1361 C 130.282 0.0292224 -5.81693 0
M  V30 1362 N 129.258 0.623891 -5.40008 0
M  V30 1363 H 133.06 -0.111586 -2.93688 0
M  V30 1364 H 130.574 -0.162091 -1.61589 0
M  V30 1365 H 132.571 2.29176 -3.48258 0
M  V30 1366 H 131.231 2.28591 -2.306 0
M  V30 1367 H 132.242 -0.0413091 -5.17884 0
M  V30 1368 H 128.919 2.03458 -3.6457 0
M  V30 1369 H 130.309 -0.623808 -6.68998 0
M  V30 1370 N 133.029 1.57378 -0.0835403 0
M  V30 1371 C 133.939 2.16897 0.894021 0
M  V30 1372 C 134.955 1.13528 1.31861 0
M  V30 1373 O 136.131 1.45848 1.3889 0
M  V30 1374 C 133.196 2.72831 2.13925 0
M  V30 1375 C 132.257 3.91115 1.76997 0
M  V30 1376 C 131.49 4.44371 2.95584 0
M  V30 1377 O 131.713 3.96596 4.09961 0
M  V30 1378 O 130.647 5.35549 2.74719 0
M  V30 1379 H 134.473 3.00814 0.417679 0
M  V30 1380 H 132.058 1.48741 0.140181 0
M  V30 1381 H 133.94 3.0863 2.86924 0
M  V30 1382 H 132.615 1.91967 2.60635 0
M  V30 1383 H 131.522 3.60148 1.01214 0
M  V30 1384 H 132.855 4.73307 1.3506 0
M  V30 1385 N 134.507 -0.190092 1.56449 0
M  V30 1386 C 135.439 -1.25973 1.91477 0
M  V30 1387 C 136.452 -1.41452 0.805931 0
M  V30 1388 O 137.641 -1.41789 1.08435 0
M  V30 1389 C 134.741 -2.63117 2.13594 0
M  V30 1390 C 133.914 -2.69182 3.4476 0
M  V30 1391 C 132.973 -3.87557 3.5593 0
M  V30 1392 O 131.999 -3.74427 4.28711 0
M  V30 1393 N 133.201 -5.03224 2.89388 0
M  V30 1394 H 135.966 -0.962394 2.83828 0
M  V30 1395 H 133.527 -0.379981 1.57378 0
M  V30 1396 H 135.519 -3.40742 2.1835 0
M  V30 1397 H 134.089 -2.85319 1.27719 0
M  V30 1398 H 133.309 -1.77793 3.51828 0
M  V30 1399 H 134.597 -2.70229 4.31107 0
M  V30 1400 H 133.995 -5.16791 2.30094 0
M  V30 1401 H 132.552 -5.78778 2.99764 0
M  V30 1402 N 135.985 -1.50799 -0.457987 0
M  V30 1403 C 137.231 -1.62683 -1.21088 0
M  V30 1404 C 137.564 -0.332268 -1.91336 0
M  V30 1405 O 136.839 0.667043 -1.82704 0
M  V30 1406 C 137.122 -2.81615 -2.24422 0
M  V30 1407 C 136.975 -4.20989 -1.58392 0
M  V30 1408 C 138.294 -2.96085 -3.2561 0
M  V30 1409 H 135.413 -0.592087 -0.438864 0
M  V30 1410 H 138.055 -1.83225 -0.50286 0
M  V30 1411 H 136.205 -2.64231 -2.84806 0
M  V30 1412 H 137.877 -4.49994 -1.01504 0
M  V30 1413 H 136.12 -4.24641 -0.886704 0
M  V30 1414 H 136.791 -5.0016 -2.33547 0
M  V30 1415 H 139.267 -3.12042 -2.75262 0
M  V30 1416 H 138.143 -3.80902 -3.95228 0
M  V30 1417 H 138.404 -2.0726 -3.90507 0
M  V30 1418 N 137.463 0.71206 -1.40597 0
M  V30 1419 C 138.711 1.46907 -1.38791 0
M  V30 1420 C 139.032 1.94998 0.00780391 0
M  V30 1421 O 138.302 1.70587 0.963174 0
M  V30 1422 H 136.882 0.545043 -0.51082 0
M  V30 1423 H 139.544 0.843882 -1.75683 0
M  V30 1424 H 138.64 2.34021 -2.06496 0
M  V30 1425 N 138.941 1.26152 0.944643 0
M  V30 1426 C 140.189 1.11271 1.6871 0
M  V30 1427 C 140.51 -0.345166 1.91921 0
M  V30 1428 O 139.78 -1.24387 1.51343 0
M  V30 1429 H 138.36 0.408783 0.625224 0
M  V30 1430 H 141.022 1.58427 1.1352 0
M  V30 1431 H 140.118 1.62879 2.66227 0
M  V30 1432 N 140.419 -1.14872 1.07899 0
M  V30 1433 C 141.83 -1.67367 0.827363 0
M  V30 1434 C 142.181 -1.85236 -0.646693 0
M  V30 1435 O 141.306 -1.55974 -1.50004 0
M  V30 1436 C 141.901 -3.04016 1.49532 0
M  V30 1437 C 140.46 -3.53566 1.29106 0
M  V30 1438 C 139.607 -2.29161 1.56143 0
M  V30 1439 H 142.558 -0.990083 1.24028 0
M  V30 1440 H 142.579 -3.69219 0.919643 0
M  V30 1441 H 142.091 -2.90978 2.56814 0
M  V30 1442 H 140.192 -3.71835 0.238713 0
M  V30 1443 H 140.305 -4.34661 2.01511 0
M  V30 1444 H 138.669 -2.34978 0.982717 0
M  V30 1445 H 139.452 -2.18705 2.64619 0
M  V30 1446 N 141.898 -0.863906 -1.31812 0
M  V30 1447 C 143.123 -0.48527 -2.01643 0
M  V30 1448 C 143.548 0.913058 -1.64453 0
M  V30 1449 O 142.906 1.6014 -0.849985 0
M  V30 1450 C 142.954 -0.642625 -3.54828 0
M  V30 1451 O 142.058 0.320659 -4.11151 0
M  V30 1452 H 141.399 -0.193793 -0.635091 0
M  V30 1453 H 143.929 -1.16565 -1.68148 0
M  V30 1454 H 143.939 -0.533628 -4.04495 0
M  V30 1455 H 142.614 -1.66227 -3.81237 0
M  V30 1456 H 141.191 0.167126 -3.72525 0
M  V30 1457 N 143.376 1.44774 -0.622745 0
M  V30 1458 C 144.306 2.33382 0.0741861 0
M  V30 1459 C 145.287 1.47719 0.843387 0
M  V30 1460 O 146.472 1.76458 0.810934 0
M  V30 1461 C 143.602 3.30663 1.06204 0
M  V30 1462 C 142.556 4.26079 0.405037 0
M  V30 1463 C 141.882 5.13165 1.5022 0
M  V30 1464 C 143.182 5.1781 -0.683414 0
M  V30 1465 H 144.876 2.91905 -0.665713 0
M  V30 1466 H 142.422 1.40363 -0.321587 0
M  V30 1467 H 144.375 3.9153 1.55827 0
M  V30 1468 H 143.099 2.70331 1.83272 0
M  V30 1469 H 141.758 3.66532 -0.0704683 0
M  V30 1470 H 141.406 4.49191 2.26355 0
M  V30 1471 H 141.106 5.77812 1.06803 0
M  V30 1472 H 142.63 5.76902 2.00041 0
M  V30 1473 H 144.044 5.72661 -0.270631 0
M  V30 1474 H 142.441 5.91015 -1.04023 0
M  V30 1475 H 143.511 4.59326 -1.55395 0
M  V30 1476 N 144.854 0.36279 1.53368 0
M  V30 1477 C 146.082 -0.228613 2.05633 0
M  V30 1478 C 146.497 -1.42676 1.23649 0
M  V30 1479 O 145.854 -1.80394 0.27647 0
M  V30 1480 C 145.905 -0.624845 3.56059 0
M  V30 1481 O 145.626 0.525675 4.34935 0
M  V30 1482 C 147.127 -1.27493 4.24571 0
M  V30 1483 H 144.347 -0.0407183 0.669763 0
M  V30 1484 H 146.891 0.520352 1.97769 0
M  V30 1485 H 145.046 -1.32373 3.64083 0
M  V30 1486 H 145.46 0.205969 5.24095 0
M  V30 1487 H 146.934 -1.50277 5.31151 0
M  V30 1488 H 147.411 -2.23439 3.78116 0
M  V30 1489 H 148.017 -0.617558 4.20792 0
M  V30 1490 N 146.332 -1.57332 0.0918853 0
M  V30 1491 C 147.557 -1.98995 -0.584442 0
M  V30 1492 C 147.982 -0.970528 -1.61128 0
M  V30 1493 O 147.34 0.0613904 -1.81196 0
M  V30 1494 C 147.388 -3.39636 -1.21161 0
M  V30 1495 O 146.492 -3.40447 -2.32744 0
M  V30 1496 H 145.833 -0.647165 -0.148572 0
M  V30 1497 H 148.363 -2.03873 0.172347 0
M  V30 1498 H 148.373 -3.7726 -1.55367 0
M  V30 1499 H 147.048 -4.13356 -0.459313 0
M  V30 1500 H 145.625 -3.14614 -2.0018 0
M  V30 1501 N 147.81 0.181792 -1.56548 0
M  V30 1502 C 149.087 0.926765 -1.72251 0
M  V30 1503 C 149.467 2.00831 -0.650386 0
M  V30 1504 O 148.815 2.26008 0.336521 0
M  V30 1505 C 149.025 1.50106 -3.1507 0
M  V30 1506 C 150.373 1.97805 -3.75711 0
M  V30 1507 O 151.397 1.59922 -3.18282 0
M  V30 1508 O 150.256 2.67555 -4.76525 0
M  V30 1509 H 147.35 0.435506 -0.703039 0
M  V30 1510 H 149.896 0.170443 -1.68842 0
M  V30 1511 H 148.668 0.72212 -3.84579 0
M  V30 1512 H 148.291 2.32186 -3.22763 0
M  V30 1513 N 149.288 1.51039 0.449983 0
M  V30 1514 C 150.218 1.74379 1.55288 0
M  V30 1515 C 151.199 0.593236 1.5942 0
M  V30 1516 O 152.384 0.834625 1.7535 0
M  V30 1517 C 149.514 1.85728 2.93466 0
M  V30 1518 C 148.468 3.01078 3.04197 0
M  V30 1519 C 147.794 2.97595 4.44231 0
M  V30 1520 C 149.094 4.41254 2.7945 0
M  V30 1521 H 150.788 2.66725 1.36008 0
M  V30 1522 H 148.334 1.2835 0.652864 0
M  V30 1523 H 150.287 2.0064 3.70569 0
M  V30 1524 H 149.011 0.900207 3.13949 0
M  V30 1525 H 147.67 2.85851 2.29531 0
M  V30 1526 H 147.318 1.99691 4.61663 0
M  V30 1527 H 147.018 3.75046 4.52343 0
M  V30 1528 H 148.542 3.14583 5.23326 0
M  V30 1529 H 149.956 4.56897 3.46292 0
M  V30 1530 H 148.353 5.20315 2.98985 0
M  V30 1531 H 149.423 4.52164 1.75144 0
M  V30 1532 N 150.766 -0.704594 1.40972 0
M  V30 1533 C 151.698 -1.82974 1.38033 0
M  V30 1534 C 152.711 -1.60305 0.283931 0
M  V30 1535 O 153.9 -1.69975 0.545042 0
M  V30 1536 C 151 -3.19578 1.12795 0
M  V30 1537 C 150.173 -3.69352 2.34302 0
M  V30 1538 C 149.232 -4.84601 2.05058 0
M  V30 1539 O 148.258 -4.96682 2.7802 0
M  V30 1540 N 149.46 -5.71194 1.03528 0
M  V30 1541 H 152.225 -1.85991 2.35005 0
M  V30 1542 H 149.786 -0.886567 1.35468 0
M  V30 1543 H 151.778 -3.9429 0.911987 0
M  V30 1544 H 150.348 -3.11642 0.24452 0
M  V30 1545 H 149.568 -2.85649 2.71659 0
M  V30 1546 H 150.856 -3.99345 3.1528 0
M  V30 1547 H 150.254 -5.64054 0.431217 0
M  V30 1548 H 148.811 -6.45843 0.879205 0
M  V30 1549 N 152.244 -1.26651 -0.937939 0
M  V30 1550 C 153.207 -1.08546 -2.01867 0
M  V30 1551 C 154.207 -0.0327327 -1.60767 0
M  V30 1552 O 155.397 -0.276427 -1.71993 0
M  V30 1553 C 152.529 -0.651711 -3.34613 0
M  V30 1554 H 153.722 -2.04502 -2.1936 0
M  V30 1555 H 151.275 -1.09294 -1.11734 0
M  V30 1556 H 152.01 0.309696 -3.22818 0
M  V30 1557 H 151.795 -1.41189 -3.65798 0
M  V30 1558 H 153.285 -0.546973 -4.14002 0
M  V30 1559 N 153.722 1.14298 -1.08507 0
M  V30 1560 C 154.654 2.1907 -0.673859 0
M  V30 1561 C 155.667 1.60381 0.279577 0
M  V30 1562 O 156.856 1.78374 0.0670754 0
M  V30 1563 C 153.956 3.38888 0.0290979 0
M  V30 1564 C 153.129 4.27103 -0.943494 0
M  V30 1565 C 152.188 5.25477 -0.275676 0
M  V30 1566 O 151.214 5.61709 -0.920401 0
M  V30 1567 N 152.416 5.7227 0.974013 0
M  V30 1568 H 155.181 2.54965 -1.57521 0
M  V30 1569 H 152.742 1.29528 -0.971287 0
M  V30 1570 H 154.734 4.01761 0.48683 0
M  V30 1571 H 153.304 3.01309 0.832555 0
M  V30 1572 H 152.524 3.61149 -1.58004 0
M  V30 1573 H 153.812 4.82905 -1.60251 0
M  V30 1574 H 153.21 5.44965 1.51755 0
M  V30 1575 H 151.767 6.37127 1.37522 0
M  V30 1576 N 155.201 0.870884 1.31352 0
M  V30 1577 C 156.426 0.495957 2.01383 0
M  V30 1578 C 156.851 -0.904324 1.64935 0
M  V30 1579 O 156.209 -1.59687 0.858466 0
M  V30 1580 C 156.257 0.661433 3.54482 0
M  V30 1581 O 155.361 -0.298851 4.11316 0
M  V30 1582 H 154.702 0.197158 0.634054 0
M  V30 1583 H 157.232 1.17455 1.67527 0
M  V30 1584 H 157.242 0.555072 4.04207 0
M  V30 1585 H 155.917 1.68246 3.8035 0
M  V30 1586 H 154.494 -0.147368 3.72609 0
M  V30 1587 N 156.679 -1.44442 0.630414 0
M  V30 1588 C 157.626 -2.30678 -0.0749355 0
M  V30 1589 C 158.596 -1.4344 -0.837502 0
M  V30 1590 O 159.781 -1.72343 -0.818684 0
M  V30 1591 C 156.921 -3.28706 -1.05103 0
M  V30 1592 C 156.034 -4.31046 -0.286954 0
M  V30 1593 C 155.169 -5.16167 -1.2548 0
M  V30 1594 C 154.208 -6.10216 -0.479843 0
M  V30 1595 N 153.345 -6.88039 -1.39811 0
M  V30 1596 H 158.185 -2.90454 0.666386 0
M  V30 1597 H 155.722 -1.43107 0.340404 0
M  V30 1598 H 157.68 -3.84027 -1.63031 0
M  V30 1599 H 156.31 -2.70632 -1.75949 0
M  V30 1600 H 155.362 -3.78203 0.408243 0
M  V30 1601 H 156.674 -4.97794 0.316657 0
M  V30 1602 H 155.828 -5.76002 -1.90544 0
M  V30 1603 H 154.567 -4.49491 -1.89233 0
M  V30 1604 H 153.572 -5.49491 0.184295 0
M  V30 1605 H 154.797 -6.78928 0.152965 0
M  V30 1606 H 152.743 -6.24032 -2.02287 0
M  V30 1607 H 152.66 -7.51223 -0.848508 0
M  V30 1608 H 153.928 -7.52397 -2.03762 0
M  V30 1609 N 158.157 -0.370918 -1.53173 0
M  V30 1610 C 159.405 0.216673 -2.00935 0
M  V30 1611 C 159.726 1.48845 -1.25977 0
M  V30 1612 O 158.996 1.92286 -0.374551 0
M  V30 1613 H 157.576 0.0830565 -0.742368 0
M  V30 1614 H 160.238 -0.49838 -1.8842 0
M  V30 1615 H 159.334 0.439893 -3.08984 0
M  V30 1616 N 159.635 1.57281 -0.100228 0
M  V30 1617 C 160.583 2.15542 0.874328 0
M  V30 1618 C 161.577 1.09962 1.28859 0
M  V30 1619 O 162.783 1.28298 1.26252 0
M  V30 1620 H 159.158 0.689567 0.300003 0
M  V30 1621 H 161.129 2.96241 0.35829 0
M  V30 1622 C 159.878 2.75454 2.1218 0
M  V30 1623 H 159.201 3.56384 1.81193 0
M  V30 1624 H 160.641 3.19781 2.78417 0
M  V30 1625 C 159.1 1.71602 2.89921 0
M  V30 1626 O 159.63 1.15804 3.84646 0
M  V30 1627 N 157.836 1.41975 2.53558 0
M  V30 1628 H 157.383 1.87539 1.76598 0
M  V30 1629 H 157.341 0.727274 3.05873 0
M  V30 1630 N 161.113 -0.173488 1.56642 0
M  V30 1631 C 162.524 -0.736155 1.71574 0
M  V30 1632 C 162.875 -1.82888 0.710389 0
M  V30 1633 O 162 -2.16017 -0.1287 0
M  V30 1634 C 162.595 -1.34211 3.11083 0
M  V30 1635 C 161.154 -1.85162 3.27707 0
M  V30 1636 C 160.301 -0.729765 2.67525 0
M  V30 1637 H 163.252 0.0518786 1.58615 0
M  V30 1638 H 163.273 -2.21178 3.09613 0
M  V30 1639 H 162.785 -0.546579 3.84232 0
M  V30 1640 H 160.886 -2.67366 2.59512 0
M  V30 1641 H 160.999 -1.99855 4.35425 0
M  V30 1642 H 159.363 -1.14965 2.27278 0
M  V30 1643 H 160.146 0.0538806 3.43258 0
M  V30 1644 N 162.591 -1.51276 -0.441967 0
M  V30 1645 C 163.501 -1.75092 -1.56141 0
M  V30 1646 C 164.517 -0.634963 -1.62001 0
M  V30 1647 O 165.693 -0.916686 -1.79329 0
M  V30 1648 C 162.758 -1.86666 -2.92158 0
M  V30 1649 C 161.819 -3.10506 -2.96453 0
M  V30 1650 C 161.052 -3.21519 -4.25982 0
M  V30 1651 O 161.275 -2.38586 -5.18105 0
M  V30 1652 O 160.209 -4.14465 -4.36466 0
M  V30 1653 H 164.035 -2.70044 -1.38961 0
M  V30 1654 H 161.62 -1.35722 -0.624499 0
M  V30 1655 H 163.502 -1.96292 -3.72891 0
M  V30 1656 H 162.177 -0.949014 -3.09476 0
M  V30 1657 H 161.084 -3.06363 -2.14692 0
M  V30 1658 H 162.417 -4.01945 -2.84079 0
M  V30 1659 N 164.069 0.697108 -1.41344 0
M  V30 1660 C 165.001 1.8224 -1.39001 0
M  V30 1661 C 166.014 1.60152 -0.292428 0
M  V30 1662 O 167.203 1.69684 -0.554048 0
M  V30 1663 C 164.303 3.18976 -1.14489 0
M  V30 1664 C 163.476 3.68105 -2.36258 0
M  V30 1665 C 162.535 4.83506 -2.07625 0
M  V30 1666 O 161.561 4.95201 -2.8065 0
M  V30 1667 N 162.763 5.70637 -1.06555 0
M  V30 1668 H 165.528 1.84742 -2.35988 0
M  V30 1669 H 163.089 0.87937 -1.35936 0
M  V30 1670 H 165.081 3.93801 -0.932885 0
M  V30 1671 H 163.651 3.11508 -0.261043 0
M  V30 1672 H 162.871 2.84204 -2.7317 0
M  V30 1673 H 164.159 3.97667 -3.17393 0
M  V30 1674 H 163.557 5.63817 -0.461125 0
M  V30 1675 H 162.114 6.45368 -0.913444 0
M  V30 1676 N 165.547 1.27147 0.931209 0
M  V30 1677 C 166.775 1.16082 1.71267 0
M  V30 1678 C 167.19 -0.282772 1.8667 0
M  V30 1679 O 166.547 -1.19283 1.38122 0
M  V30 1680 C 166.598 1.8358 3.11417 0
M  V30 1681 O 166.319 3.22299 2.96741 0
M  V30 1682 C 167.82 1.78597 4.05732 0
M  V30 1683 H 165.04 0.403758 0.535929 0
M  V30 1684 H 167.584 1.67953 1.16671 0
M  V30 1685 H 165.739 1.35623 3.62885 0
M  V30 1686 H 166.153 3.55851 3.85319 0
M  V30 1687 H 167.627 2.30444 5.01597 0
M  V30 1688 H 168.104 0.754564 4.3267 0
M  V30 1689 H 168.71 2.26152 3.60188 0
M  V30 1690 N 167.025 -1.13721 1.09112 0
M  V30 1691 C 168.436 -1.6648 0.845068 0
M  V30 1692 C 168.787 -1.85911 -0.62701 0
M  V30 1693 O 167.912 -1.57556 -1.48341 0
M  V30 1694 C 168.507 -3.02413 1.52748 0
M  V30 1695 C 167.066 -3.52176 1.32849 0
M  V30 1696 C 166.213 -2.27492 1.58564 0
M  V30 1697 H 169.164 -0.976872 1.25072 0
M  V30 1698 H 169.185 -3.68223 0.958752 0
M  V30 1699 H 168.697 -2.88238 2.59885 0
M  V30 1700 H 166.798 -3.7156 0.278137 0
M  V30 1701 H 166.911 -4.32499 2.0611 0
M  V30 1702 H 165.275 -2.33923 1.00758 0
M  V30 1703 H 166.058 -2.15886 2.66924 0
M  V30 1704 N 168.503 -0.877838 -1.30888 0
M  V30 1705 C 169.749 -0.493426 -1.96706 0
M  V30 1706 C 170.082 0.953504 -1.6918 0
M  V30 1707 O 169.357 1.67266 -0.992594 0
M  V30 1708 C 169.64 -0.760429 -3.51979 0
M  V30 1709 C 169.493 -2.25747 -3.89048 0
M  V30 1710 C 170.812 -0.232148 -4.39487 0
M  V30 1711 H 167.931 -0.180746 -0.714493 0
M  V30 1712 H 170.573 -1.10052 -1.54882 0
M  V30 1713 H 168.723 -0.243715 -3.87735 0
M  V30 1714 H 170.395 -2.84204 -3.63354 0
M  V30 1715 H 168.638 -2.72694 -3.37373 0
M  V30 1716 H 169.309 -2.39491 -4.97341 0
M  V30 1717 H 171.785 -0.674314 -4.106 0
M  V30 1718 H 170.661 -0.448355 -5.47066 0
M  V30 1719 H 170.922 0.866297 -4.33529 0
M  V30 1720 N 169.982 1.44106 -0.638065 0
M  V30 1721 C 170.912 2.33448 0.0494287 0
M  V30 1722 C 171.893 1.48606 0.827672 0
M  V30 1723 O 173.078 1.77308 0.792173 0
M  V30 1724 C 170.208 3.31771 1.02691 0
M  V30 1725 C 169.162 4.26485 0.359823 0
M  V30 1726 C 168.488 5.14729 1.44769 0
M  V30 1727 C 169.788 5.17056 -0.738296 0
M  V30 1728 H 171.482 2.91183 -0.696636 0
M  V30 1729 H 169.028 1.40014 -0.336456 0
M  V30 1730 H 170.981 3.93161 1.51666 0
M  V30 1731 H 169.705 2.7226 1.80395 0
M  V30 1732 H 168.364 3.66437 -0.10934 0
M  V30 1733 H 168.012 4.51566 2.21578 0
M  V30 1734 H 167.712 5.78913 1.00668 0
M  V30 1735 H 169.236 5.78991 1.93911 0
M  V30 1736 H 170.65 5.72342 -0.331354 0
M  V30 1737 H 169.047 5.89879 -1.10286 0
M  V30 1738 H 170.117 4.57652 -1.60258 0
M  V30 1739 N 171.46 0.379036 1.52974 0
M  V30 1740 C 172.407 -0.461048 2.26148 0
M  V30 1741 C 173.377 -1.06637 1.27349 0
M  V30 1742 O 174.562 -1.09633 1.56157 0
M  V30 1743 C 171.702 -1.58782 3.06402 0
M  V30 1744 C 170.815 -1.00636 4.20115 0
M  V30 1745 C 169.95 -2.10334 4.87784 0
M  V30 1746 C 168.989 -1.49724 5.93506 0
M  V30 1747 N 168.126 -2.5331 6.54812 0
M  V30 1748 H 172.966 0.169429 2.97518 0
M  V30 1749 H 170.503 0.0953806 1.4679 0
M  V30 1750 H 172.461 -2.25174 3.51215 0
M  V30 1751 H 171.091 -2.18876 2.37261 0
M  V30 1752 H 170.143 -0.232332 3.7969 0
M  V30 1753 H 171.455 -0.523343 4.96047 0
M  V30 1754 H 170.609 -2.84519 5.35849 0
M  V30 1755 H 169.348 -2.61992 4.11353 0
M  V30 1756 H 168.353 -0.740598 5.44789 0
M  V30 1757 H 169.578 -0.988732 6.71864 0
M  V30 1758 H 167.524 -3.04156 5.81227 0
M  V30 1759 H 167.441 -2.09734 7.26325 0
M  V30 1760 H 168.709 -3.27155 7.07524 0
M  V30 1761 N 172.938 -1.57226 0.108567 0
M  V30 1762 C 174.349 -1.8195 -0.418464 0
M  V30 1763 C 174.7 -1.02508 -1.67292 0
M  V30 1764 O 173.825 -0.258496 -2.14851 0
M  V30 1765 C 174.42 -3.30028 -0.765979 0
M  V30 1766 C 172.979 -3.55469 -1.23769 0
M  V30 1767 C 172.126 -2.7625 -0.241106 0
M  V30 1768 H 175.077 -1.55149 0.33384 0
M  V30 1769 H 175.098 -3.44086 -1.62434 0
M  V30 1770 H 174.61 -3.87821 0.147219 0
M  V30 1771 H 172.711 -3.03022 -2.16814 0
M  V30 1772 H 172.824 -4.6408 -1.19022 0
M  V30 1773 H 171.188 -2.44133 -0.72602 0
M  V30 1774 H 171.971 -3.36797 0.665007 0
M  V30 1775 N 174.416 0.165178 -1.56732 0
M  V30 1776 C 175.326 1.22423 -2.00125 0
M  V30 1777 C 176.342 1.48084 -0.913619 0
M  V30 1778 O 177.518 1.60112 -1.22172 0
M  V30 1779 C 174.583 2.54197 -2.35764 0
M  V30 1780 C 173.644 2.36343 -3.58386 0
M  V30 1781 C 172.877 3.61834 -3.92316 0
M  V30 1782 O 173.1 4.67267 -3.27135 0
M  V30 1783 O 172.034 3.55579 -4.85641 0
M  V30 1784 H 175.86 0.885886 -2.90492 0
M  V30 1785 H 173.445 0.372518 -1.44681 0
M  V30 1786 H 175.327 3.3192 -2.59629 0
M  V30 1787 H 174.002 2.87598 -1.48557 0
M  V30 1788 H 172.909 1.56632 -3.39731 0
M  V30 1789 H 174.242 2.07865 -4.46154 0
M  V30 1790 N 175.894 1.51508 0.433938 0
M  V30 1791 C 176.804 1.75917 1.5521 0
M  V30 1792 C 177.82 0.643545 1.61662 0
M  V30 1793 O 178.996 0.926183 1.7884 0
M  V30 1794 C 176.061 1.88213 2.91164 0
M  V30 1795 C 175.122 3.12074 2.94802 0
M  V30 1796 C 174.355 3.23774 4.24271 0
M  V30 1797 O 174.578 2.4133 5.16833 0
M  V30 1798 O 173.512 4.16774 4.34262 0
M  V30 1799 H 177.338 2.70777 1.37527 0
M  V30 1800 H 174.923 1.36051 0.617293 0
M  V30 1801 H 176.805 1.98267 3.71845 0
M  V30 1802 H 175.48 0.965413 3.08968 0
M  V30 1803 H 174.387 3.07497 2.13065 0
M  V30 1804 H 175.72 4.03446 2.81943 0
M  V30 1805 N 177.372 -0.689602 1.41712 0
M  V30 1806 C 178.282 -1.83314 1.46401 0
M  V30 1807 C 179.298 -1.7036 0.35405 0
M  V30 1808 O 180.474 -1.92171 0.602692 0
M  V30 1809 C 177.539 -3.19344 1.34982 0
M  V30 1810 C 176.6 -3.44363 2.56344 0
M  V30 1811 C 175.833 -4.73904 2.45461 0
M  V30 1812 O 176.056 -5.508 1.48241 0
M  V30 1813 O 174.99 -4.99839 3.35328 0
M  V30 1814 H 178.816 -1.82314 2.42889 0
M  V30 1815 H 176.401 -0.843438 1.23315 0
M  V30 1816 H 178.283 -4.00547 1.3092 0
M  V30 1817 H 176.958 -3.21014 0.41612 0
M  V30 1818 H 175.865 -2.63067 2.65982 0
M  V30 1819 H 177.198 -3.47512 3.48563 0
M  V30 1820 N 178.85 -1.27639 -0.924453 0
M  V30 1821 C 179.813 -1.10681 -2.00705 0
M  V30 1822 C 180.813 -0.0497823 -1.60723 0
M  V30 1823 O 182.003 -0.294654 -1.7169 0
M  V30 1824 C 179.135 -0.687164 -3.33902 0
M  V30 1825 H 180.328 -2.06817 -2.17179 0
M  V30 1826 H 177.881 -1.10473 -1.10569 0
M  V30 1827 H 178.616 0.275439 -3.23128 0
M  V30 1828 H 178.401 -1.45061 -3.6428 0
M  V30 1829 H 179.891 -0.590853 -4.13399 0
M  V30 1830 N 180.328 1.1314 -1.09713 0
M  V30 1831 C 181.739 1.66029 -0.853885 0
M  V30 1832 C 182.09 1.86241 0.617142 0
M  V30 1833 O 181.215 1.5834 1.47503 0
M  V30 1834 C 181.81 3.01599 -1.5435 0
M  V30 1835 C 180.369 3.51467 -1.34714 0
M  V30 1836 C 179.516 2.26648 -1.59769 0
M  V30 1837 H 182.467 0.970226 -1.25588 0
M  V30 1838 H 182.488 3.67709 -0.978267 0
M  V30 1839 H 182 2.86856 -2.6141 0
M  V30 1840 H 180.101 3.71408 -0.297838 0
M  V30 1841 H 180.214 4.314 -2.08401 0
M  V30 1842 H 178.578 2.33385 -1.01998 0
M  V30 1843 H 179.361 2.14467 -2.68065 0
M  V30 1844 N 181.806 0.884767 1.30421 0
M  V30 1845 C 182.769 0.356277 2.26414 0
M  V30 1846 C 183.769 -0.501124 1.52792 0
M  V30 1847 O 184.959 -0.30831 1.7145 0
M  V30 1848 C 182.091 -0.492316 3.37326 0
M  V30 1849 H 183.284 1.20389 2.74675 0
M  V30 1850 H 180.837 0.661607 1.41607 0
M  V30 1851 H 181.572 -1.36052 2.94381 0
M  V30 1852 H 181.357 0.121832 3.91911 0
M  V30 1853 H 182.847 -0.853871 4.08777 0
M  V30 1854 N 183.284 -1.43765 0.645699 0
M  V30 1855 C 184.695 -1.85193 0.236719 0
M  V30 1856 C 185.046 -1.54045 -1.21509 0
M  V30 1857 O 184.171 -0.985694 -1.92647 0
M  V30 1858 C 184.766 -3.36151 0.422845 0
M  V30 1859 C 183.325 -3.76338 0.0682492 0
M  V30 1860 C 182.472 -2.67538 0.729306 0
M  V30 1861 H 185.423 -1.34025 0.849883 0
M  V30 1862 H 185.444 -3.79032 -0.333904 0
M  V30 1863 H 184.956 -3.5879 1.47958 0
M  V30 1864 H 183.057 -3.59312 -0.986179 0
M  V30 1865 H 183.17 -4.76603 0.488469 0
M  V30 1866 H 181.534 -2.54176 0.163235 0
M  V30 1867 H 182.317 -2.93006 1.78892 0
M  V30 1868 N 184.763 -0.387143 -1.52771 0
M  V30 1869 C 185.673 0.456442 -2.30117 0
M  V30 1870 C 186.689 1.07342 -1.36944 0
M  V30 1871 O 187.865 1.07971 -1.70013 0
M  V30 1872 C 184.93 1.56957 -3.09136 0
M  V30 1873 C 183.991 0.977916 -4.18014 0
M  V30 1874 C 183.224 2.038 -4.93256 0
M  V30 1875 O 183.447 3.25271 -4.68567 0
M  V30 1876 O 182.381 1.6565 -5.78657 0
M  V30 1877 H 186.207 -0.17359 -3.03203 0
M  V30 1878 H 183.792 -0.150919 -1.48636 0
M  V30 1879 H 185.674 2.21628 -3.58412 0
M  V30 1880 H 184.349 2.18461 -2.38865 0
M  V30 1881 H 183.256 0.294525 -3.72939 0
M  V30 1882 H 184.589 0.407128 -4.90513 0
M  V30 1883 N 186.241 1.57166 -0.116904 0
M  V30 1884 C 187.487 1.95412 0.542405 0
M  V30 1885 C 187.82 1.00019 1.66463 0
M  V30 1886 O 187.095 0.0370346 1.94465 0
M  V30 1887 C 187.378 3.43615 1.07708 0
M  V30 1888 C 187.231 4.49781 -0.0415868 0
M  V30 1889 C 188.55 3.93616 1.96861 0
M  V30 1890 H 185.669 0.710543 0.195696 0
M  V30 1891 H 188.311 1.89027 -0.192038 0
M  V30 1892 H 186.461 3.49187 1.70296 0
M  V30 1893 H 188.133 4.56308 -0.676793 0
M  V30 1894 H 186.376 4.28033 -0.705019 0
M  V30 1895 H 187.047 5.50733 0.373717 0
M  V30 1896 H 189.523 3.90335 1.44146 0
M  V30 1897 H 188.399 4.97838 2.3119 0
M  V30 1898 H 188.66 3.34188 2.89432 0
M  V30 1899 N 187.719 -0.156864 1.56817 0
M  V30 1900 C 188.967 -0.869404 1.82444 0
M  V30 1901 C 189.288 -1.82147 0.69623 0
M  V30 1902 O 188.558 -1.93847 -0.28287 0
M  V30 1903 H 187.138 -0.324043 0.673056 0
M  V30 1904 H 189.8 -0.153224 1.94297 0
M  V30 1905 H 188.896 -1.43761 2.77019 0
M  V30 1906 N 189.197 -1.51736 -0.425897 0
M  V30 1907 C 190.16 -1.73271 -1.50032 0
M  V30 1908 C 191.16 -0.602639 -1.4908 0
M  V30 1909 O 192.35 -0.87033 -1.509 0
M  V30 1910 C 189.482 -1.79969 -2.89523 0
M  V30 1911 H 190.675 -2.69172 -1.32237 0
M  V30 1912 H 188.228 -1.41899 -0.65532 0
M  V30 1913 H 188.963 -0.859241 -3.1271 0
M  V30 1914 H 188.748 -2.62109 -2.91619 0
M  V30 1915 H 190.238 -1.9843 -3.67444 0
M  V30 1916 N 190.675 0.682077 -1.42076 0
M  V30 1917 C 191.9 1.47558 -1.45744 0
M  V30 1918 C 192.325 1.87977 -0.0680981 0
M  V30 1919 O 191.683 1.55522 0.9318 0
M  V30 1920 C 191.731 2.70575 -2.38373 0
M  V30 1921 O 190.835 3.68573 -1.85007 0
M  V30 1922 H 190.176 0.443585 -0.494093 0
M  V30 1923 H 192.706 0.837238 -1.86686 0
M  V30 1924 H 192.716 3.18729 -2.54707 0
M  V30 1925 H 191.391 2.40495 -3.39315 0
M  V30 1926 H 189.968 3.2757 -1.78192 0
M  V30 1927 N 192.153 1.28127 0.917671 0
M  V30 1928 C 193.1 1.11717 2.0196 0
M  V30 1929 C 194.07 0.0153929 1.66093 0
M  V30 1930 O 195.255 0.179596 1.89953 0
M  V30 1931 C 192.395 0.780927 3.36148 0
M  V30 1932 C 191.508 1.96135 3.84909 0
M  V30 1933 C 190.643 1.56609 5.0759 0
M  V30 1934 C 189.682 2.71339 5.48673 0
M  V30 1935 N 188.819 2.32332 6.62545 0
M  V30 1936 H 193.659 2.06003 2.15329 0
M  V30 1937 H 191.196 1.02535 1.05475 0
M  V30 1938 H 193.154 0.56675 4.13333 0
M  V30 1939 H 191.784 -0.124998 3.22558 0
M  V30 1940 H 190.836 2.28777 3.03916 0
M  V30 1941 H 192.148 2.82165 4.1132 0
M  V30 1942 H 191.302 1.31374 5.92305 0
M  V30 1943 H 190.041 0.677014 4.82978 0
M  V30 1944 H 189.046 2.97276 4.62501 0
M  V30 1945 H 190.271 3.60882 5.75274 0
M  V30 1946 H 188.217 1.45889 6.39572 0
M  V30 1947 H 188.134 3.11899 6.88662 0
M  V30 1948 H 189.402 2.10371 7.50576 0
M  V30 1949 N 193.631 -1.12557 1.10312 0
M  V30 1950 C 195.042 -1.65574 0.862678 0
M  V30 1951 C 195.393 -1.86566 -0.607256 0
M  V30 1952 O 194.518 -1.59121 -1.46662 0
M  V30 1953 C 195.113 -3.00776 1.55947 0
M  V30 1954 C 193.672 -3.50748 1.36576 0
M  V30 1955 C 192.819 -2.25797 1.60968 0
M  V30 1956 H 195.77 -0.963552 1.26101 0
M  V30 1957 H 195.791 -3.67185 0.997753 0
M  V30 1958 H 195.303 -2.85465 2.62928 0
M  V30 1959 H 193.404 -3.71245 0.317531 0
M  V30 1960 H 193.517 -4.30289 2.10686 0
M  V30 1961 H 191.881 -2.32841 1.03234 0
M  V30 1962 H 192.664 -2.13043 2.69198 0
M  V30 1963 N 195.109 -0.891671 -1.2995 0
M  V30 1964 C 196.019 -0.367691 -2.31701 0
M  V30 1965 C 197.035 0.533486 -1.6562 0
M  V30 1966 O 198.211 0.424997 -1.96865 0
M  V30 1967 C 195.276 0.403406 -3.44345 0
M  V30 1968 C 194.337 -0.528328 -4.26037 0
M  V30 1969 C 193.57 0.206063 -5.33302 0
M  V30 1970 O 193.793 1.43119 -5.52153 0
M  V30 1971 O 192.727 -0.447281 -6.00236 0
M  V30 1972 H 196.553 -1.21163 -2.78484 0
M  V30 1973 H 194.138 -0.655725 -1.34241 0
M  V30 1974 H 196.02 0.839753 -4.12948 0
M  V30 1975 H 194.695 1.22354 -2.99685 0
M  V30 1976 H 193.602 -1.01362 -3.60106 0
M  V30 1977 H 194.935 -1.31465 -4.74318 0
M  V30 1978 N 196.587 1.43421 -0.653314 0
M  V30 1979 C 197.835 2.01414 -0.166415 0
M  V30 1980 C 198.156 1.51803 1.22397 0
M  V30 1981 O 197.426 0.730693 1.81763 0
M  V30 1982 H 196.006 0.744703 -0.0585319 0
M  V30 1983 H 198.668 1.75629 -0.845003 0
M  V30 1984 H 197.764 3.11734 -0.151111 0
M  V30 1985 N 198.065 0.39524 1.52563 0
M  V30 1986 C 199.314 -0.186321 2.00838 0
M  V30 1987 C 199.627 -1.47402 1.28577 0
M  V30 1988 O 200.833 -2.13599 1.67593 0
M  V30 1989 C 199.289 -0.382595 3.57861 0
M  V30 1990 C 198.897 0.892202 4.39026 0
M  V30 1991 C 200.641 -0.9202 4.14406 0
M  V30 1992 C 198.548 0.66388 5.87662 0
M  V30 1993 H 197.478 -0.0734041 0.750418 0
M  V30 1994 H 200.129 0.518552 1.76021 0
M  V30 1995 H 198.511 -1.14946 3.7895 0
M  V30 1996 H 199.685 1.66414 4.29701 0
M  V30 1997 H 198 1.35519 3.9373 0
M  V30 1998 H 200.597 -1.10683 5.23119 0
M  V30 1999 H 200.94 -1.89096 3.70875 0
M  V30 2000 H 201.473 -0.212751 3.97231 0
M  V30 2001 H 198.212 1.6058 6.35527 0
M  V30 2002 H 197.732 -0.0690193 5.9976 0
M  V30 2003 H 199.411 0.300699 6.46301 0
M  V30 2004 N 199.544 -1.57102 0.125237 0
M  V30 2005 C 200.821 -1.86953 -0.575142 0
M  V30 2006 C 201.201 -1.02749 -1.84407 0
M  V30 2007 O 200.549 -0.108144 -2.28244 0
M  V30 2008 C 200.759 -3.38198 -0.861583 0
M  V30 2009 C 202.107 -4.06937 -1.21192 0
M  V30 2010 O 203.131 -3.43252 -0.951645 0
M  V30 2011 O 201.99 -5.19364 -1.70068 0
M  V30 2012 H 199.084 -0.774147 -0.290906 0
M  V30 2013 H 201.63 -1.68942 0.160211 0
M  V30 2014 H 200.402 -3.91282 0.0373647 0
M  V30 2015 H 200.025 -3.61661 -1.65188 0
M  V30 2016 N 201.022 0.148545 -1.56898 0
M  V30 2017 C 202.247 0.880385 -1.87787 0
M  V30 2018 C 202.672 1.74018 -0.714093 0
M  V30 2019 O 202.03 1.78153 0.336343 0
M  V30 2020 C 202.078 1.71422 -3.17249 0
M  V30 2021 O 201.182 2.8183 -3.01074 0
M  V30 2022 H 200.523 0.245301 -0.617028 0
M  V30 2023 H 203.053 0.139826 -2.04122 0
M  V30 2024 H 203.063 2.10954 -3.49231 0
M  V30 2025 H 201.738 1.08284 -4.01556 0
M  V30 2026 H 200.315 2.45715 -2.80497 0
M  V30 2027 N 202.5 1.5196 0.417844 0
M  V30 2028 C 203.916 1.40569 0.755816 0
M  V30 2029 C 204.116 0.503316 1.95113 0
M  V30 2030 O 203.172 -0.0341925 2.52477 0
M  V30 2031 C 204.485 2.82947 1.01791 0
M  V30 2032 C 206.033 2.92231 1.12116 0
M  V30 2033 C 206.508 4.35559 1.41608 0
M  V30 2034 N 207.999 4.38753 1.48491 0
M  V30 2035 C 208.734 5.46705 1.7292 0
M  V30 2036 N 208.23 6.64788 1.95011 0
M  V30 2037 N 210.023 5.34209 1.74863 0
M  V30 2038 H 202.174 2.09168 -0.369098 0
M  V30 2039 H 204.437 0.942409 -0.102809 0
M  V30 2040 H 204.143 3.5106 0.212081 0
M  V30 2041 H 204.017 3.23462 1.94042 0
M  V30 2042 H 206.404 2.24304 1.9176 0
M  V30 2043 H 206.485 2.55185 0.177225 0
M  V30 2044 H 206.129 5.04042 0.624848 0
M  V30 2045 H 206.059 4.70133 2.37239 0
M  V30 2046 H 208.55 3.5363 1.33244 0
M  V30 2047 H 208.863 7.42845 2.13076 0
M  V30 2048 H 207.208 6.67869 1.92293 0
M  V30 2049 H 210.399 4.40937 1.57137 0
M  V30 2050 H 210.572 6.18415 1.93563 0
M  V30 2051 N 203.978 -0.674533 1.42435 0
M  V30 2052 C 205.389 -1.25514 1.38214 0
M  V30 2053 C 205.74 -1.96055 0.0755464 0
M  V30 2054 O 204.865 -2.00028 -0.8257 0
M  V30 2055 C 205.46 -2.28269 2.50357 0
M  V30 2056 C 204.019 -2.81856 2.49467 0
M  V30 2057 C 203.166 -1.56182 2.29134 0
M  V30 2058 H 206.117 -0.467902 1.51646 0
M  V30 2059 H 206.138 -3.10009 2.20624 0
M  V30 2060 H 205.65 -1.769 3.45439 0
M  V30 2061 H 203.751 -3.37346 1.58204 0
M  V30 2062 H 203.864 -3.30854 3.46515 0
M  V30 2063 H 202.228 -1.82761 1.774 0
M  V30 2064 H 203.011 -1.06778 3.26272 0
M  V30 2065 N 205.456 -1.28612 -0.910864 0
M  V30 2066 C 206.366 -1.14643 -2.0468 0
M  V30 2067 C 207.382 -0.0723121 -1.7385 0
M  V30 2068 O 208.558 -0.282178 -1.99413 0
M  V30 2069 C 205.623 -0.812561 -3.37044 0
M  V30 2070 C 204.684 -1.96935 -3.81465 0
M  V30 2071 C 203.917 -1.65131 -5.07511 0
M  V30 2072 O 204.14 -0.567013 -5.67575 0
M  V30 2073 O 203.074 -2.49585 -5.47714 0
M  V30 2074 H 206.9 -2.1001 -2.19384 0
M  V30 2075 H 204.485 -1.07958 -1.03274 0
M  V30 2076 H 206.367 -0.640441 -4.16505 0
M  V30 2077 H 205.042 0.111426 -3.23508 0
M  V30 2078 H 203.949 -2.19664 -3.02818 0
M  V30 2079 H 205.282 -2.87414 -3.99567 0
M  V30 2080 N 206.934 1.1197 -1.10907 0
M  V30 2081 C 208.162 1.87402 -0.876824 0
M  V30 2082 C 208.577 1.79894 0.573025 0
M  V30 2083 O 207.934 1.17629 1.39534 0
M  V30 2084 C 207.985 3.36428 -1.32282 0
M  V30 2085 O 207.706 3.43765 -2.71582 0
M  V30 2086 C 209.207 4.28783 -1.12518 0
M  V30 2087 H 206.427 0.592793 -0.314384 0
M  V30 2088 H 208.971 1.41649 -1.47499 0
M  V30 2089 H 207.126 3.79706 -0.768229 0
M  V30 2090 H 207.54 4.3652 -2.90776 0
M  V30 2091 H 209.014 5.31613 -1.48633 0
M  V30 2092 H 209.491 4.39153 -0.0642394 0
M  V30 2093 H 210.097 3.91291 -1.66648 0
M  V30 2094 N 208.412 0.89855 1.29475 0
M  V30 2095 C 209.342 0.39201 2.30186 0
M  V30 2096 C 210.323 -0.532359 1.61555 0
M  V30 2097 O 211.508 -0.443331 1.89072 0
M  V30 2098 C 208.638 -0.382353 3.45189 0
M  V30 2099 C 207.592 0.451483 4.25612 0
M  V30 2100 C 206.918 -0.450307 5.328 0
M  V30 2101 C 208.218 1.70079 4.93832 0
M  V30 2102 H 209.912 1.23362 2.72804 0
M  V30 2103 H 207.458 0.594638 1.31149 0
M  V30 2104 H 209.411 -0.747451 4.14718 0
M  V30 2105 H 208.135 -1.25774 3.01411 0
M  V30 2106 H 206.794 0.798897 3.57789 0
M  V30 2107 H 206.442 -1.32379 4.85268 0
M  V30 2108 H 206.142 0.103902 5.87508 0
M  V30 2109 H 207.666 -0.811623 6.05182 0
M  V30 2110 H 209.08 1.40549 5.55805 0
M  V30 2111 H 207.477 2.19623 5.58467 0
M  V30 2112 H 208.547 2.43744 4.19186 0
M  V30 2113 N 209.89 -1.43072 0.660911 0
M  V30 2114 C 210.84 -2.27948 -0.04847 0
M  V30 2115 C 211.824 -1.40325 -0.787246 0
M  V30 2116 O 213.016 -1.63893 -0.668446 0
M  V30 2117 C 210.145 -3.28143 -1.00881 0
M  V30 2118 C 209.231 -4.23252 -0.268108 0
M  V30 2119 N 209.622 -5.00656 0.719528 0
M  V30 2120 C 207.92 -4.43092 -0.508493 0
M  V30 2121 C 208.621 -5.70019 1.15988 0
M  V30 2122 N 207.597 -5.41364 0.492584 0
M  V30 2123 H 211.399 -2.85213 0.709279 0
M  V30 2124 H 208.913 -1.54869 0.488822 0
M  V30 2125 H 210.91 -3.87736 -1.53188 0
M  V30 2126 H 209.57 -2.7244 -1.76654 0
M  V30 2127 H 210.581 -5.06115 1.09855 0
M  V30 2128 H 207.258 -3.98449 -1.24679 0
M  V30 2129 H 208.648 -6.4214 1.97751 0
M  V30 2130 N 211.368 -0.403325 -1.52352 0
M  V30 2131 C 212.779 0.0675782 -1.86578 0
M  V30 2132 C 213.13 1.44941 -1.32236 0
M  V30 2133 O 212.255 2.06112 -0.659307 0
M  V30 2134 C 212.85 0.129404 -3.38553 0
M  V30 2135 C 211.409 0.544629 -3.72439 0
M  V30 2136 C 210.556 -0.284551 -2.75836 0
M  V30 2137 H 213.507 -0.620631 -1.46061 0
M  V30 2138 H 213.528 0.94581 -3.68558 0
M  V30 2139 H 213.04 -0.87645 -3.78074 0
M  V30 2140 H 211.141 1.55734 -3.38493 0
M  V30 2141 H 211.254 0.293046 -4.78203 0
M  V30 2142 H 209.618 0.252258 -2.53448 0
M  V30 2143 H 210.401 -1.28865 -3.18196 0
M  V30 2144 N 212.846 1.57033 -0.133567 0
M  V30 2145 C 214.094 1.953 0.519848 0
M  V30 2146 C 214.415 1.01866 1.66278 0
M  V30 2147 O 213.685 0.0776513 1.95746 0
M  V30 2148 H 212.265 0.721091 0.195032 0
M  V30 2149 H 214.927 1.93809 -0.205921 0
M  V30 2150 H 214.023 2.98695 0.904854 0
M  V30 2151 N 214.325 -0.140222 1.56975 0
M  V30 2152 C 215.741 -0.493088 1.51792 0
M  V30 2153 C 215.941 -1.83013 0.843116 0
M  V30 2154 O 214.997 -2.49041 0.416493 0
M  V30 2155 C 216.31 -0.497144 2.96562 0
M  V30 2156 C 217.858 -0.582186 3.07538 0
M  V30 2157 C 218.333 -0.616838 4.53827 0
M  V30 2158 N 219.824 -0.678873 4.58198 0
M  V30 2159 C 220.559 -0.726782 5.68775 0
M  V30 2160 N 220.055 -0.733623 6.88905 0
M  V30 2161 N 221.848 -0.768179 5.56826 0
M  V30 2162 H 213.999 0.736108 1.99237 0
M  V30 2163 H 216.262 0.269182 0.90898 0
M  V30 2164 H 215.968 0.417217 3.49217 0
M  V30 2165 H 215.842 -1.33263 3.52875 0
M  V30 2166 H 218.229 -1.48697 2.54899 0
M  V30 2167 H 218.31 0.280581 2.54257 0
M  V30 2168 H 217.954 0.283812 5.07106 0
M  V30 2169 H 217.884 -1.49619 5.04898 0
M  V30 2170 H 220.375 -0.68061 3.7172 0
M  V30 2171 H 220.688 -0.772215 7.68932 0
M  V30 2172 H 219.033 -0.701389 6.91452 0
M  V30 2173 H 222.224 -0.760051 4.61888 0
M  V30 2174 H 222.397 -0.80205 6.43017 0
M  V30 2175 N 215.803 -1.52179 -0.40978 0
M  V30 2176 C 217.214 -1.58377 -0.988615 0
M  V30 2177 C 217.565 -0.423879 -1.91566 0
M  V30 2178 O 216.69 0.455844 -2.11544 0
M  V30 2179 C 217.285 -2.87044 -1.79976 0
M  V30 2180 C 215.844 -2.95722 -2.32863 0
M  V30 2181 C 214.991 -2.53309 -1.12828 0
M  V30 2182 H 217.942 -1.57558 -0.190039 0
M  V30 2183 H 217.963 -2.7236 -2.65707 0
M  V30 2184 H 217.475 -3.71444 -1.12478 0
M  V30 2185 H 215.576 -2.15814 -3.03735 0
M  V30 2186 H 215.689 -3.99951 -2.63773 0
M  V30 2187 H 214.053 -2.07142 -1.48204 0
M  V30 2188 H 214.836 -3.40082 -0.46897 0
M  V30 2189 N 217.281 0.66697 -1.42791 0
M  V30 2190 C 218.213 1.7925 -1.42836 0
M  V30 2191 C 219.226 1.59496 -0.326333 0
M  V30 2192 O 220.415 1.6847 -0.589916 0
M  V30 2193 C 217.515 3.16476 -1.21229 0
M  V30 2194 C 216.688 3.63011 -2.44013 0
M  V30 2195 C 215.747 4.78993 -2.17834 0
M  V30 2196 O 214.773 4.89137 -2.91091 0
M  V30 2197 N 215.975 5.68248 -1.18635 0
M  V30 2198 H 218.74 1.79695 -2.39854 0
M  V30 2199 H 216.301 0.850338 -1.37771 0
M  V30 2200 H 218.293 3.91734 -1.01621 0
M  V30 2201 H 216.863 3.10884 -0.32706 0
M  V30 2202 H 216.083 2.78346 -2.79137 0
M  V30 2203 H 217.371 3.90845 -3.25757 0
M  V30 2204 H 216.769 5.62712 -0.580615 0
M  V30 2205 H 215.326 6.43285 -1.05013 0
M  V30 2206 N 218.759 1.29093 0.90403 0
M  V30 2207 C 220.17 1.15186 1.46932 0
M  V30 2208 C 220.521 -0.254587 1.94541 0
M  V30 2209 O 219.646 -1.14972 1.83332 0
M  V30 2210 C 220.241 2.08492 2.67051 0
M  V30 2211 C 218.8 1.98621 3.19729 0
M  V30 2212 C 217.947 1.9967 1.92425 0
M  V30 2213 H 220.898 1.41641 0.715789 0
M  V30 2214 H 220.919 1.65461 3.42641 0
M  V30 2215 H 220.431 3.10847 2.3237 0
M  V30 2216 H 218.532 0.993389 3.59114 0
M  V30 2217 H 218.645 2.86068 3.8432 0
M  V30 2218 H 217.009 1.44208 2.09943 0
M  V30 2219 H 217.792 3.03721 1.60026 0
M  V30 2220 N 220.237 -1.11381 1.11499 0
M  V30 2221 C 221.648 -1.6465 0.880191 0
M  V30 2222 C 221.999 -1.87199 -0.587434 0
M  V30 2223 O 221.124 -1.60667 -1.44966 0
M  V30 2224 C 221.719 -2.99105 1.59128 0
M  V30 2225 C 220.278 -3.49279 1.40289 0
M  V30 2226 C 219.425 -2.24077 1.63354 0
M  V30 2227 H 222.376 -0.950123 1.27116 0
M  V30 2228 H 222.397 -3.66107 1.03664 0
M  V30 2229 H 221.909 -2.82661 2.65941 0
M  V30 2230 H 220.01 -3.70887 0.356888 0
M  V30 2231 H 220.123 -4.2803 2.15238 0
M  V30 2232 H 218.487 -2.31733 1.05698 0
M  V30 2233 H 219.27 -2.10175 2.71443 0
M  V30 2234 N 221.715 -0.905404 -1.28997 0
M  V30 2235 C 222.678 -0.392253 -2.25819 0
M  V30 2236 C 223.678 0.476753 -1.5357 0
M  V30 2237 O 224.868 0.280994 -1.71919 0
M  V30 2238 C 222 0.438588 -3.38067 0
M  V30 2239 H 223.193 -1.24743 -2.72725 0
M  V30 2240 H 220.746 -0.684051 -1.40536 0
M  V30 2241 H 221.481 1.31352 -2.96508 0
M  V30 2242 H 221.266 -0.184167 -3.91667 0
M  V30 2243 H 222.756 0.78873 -4.10084 0
M  V30 2244 N 223.193 1.4272 -0.668489 0
M  V30 2245 C 224.103 2.34596 0.0139753 0
M  V30 2246 C 225.119 1.5474 0.795703 0
M  V30 2247 O 226.295 1.87334 0.739466 0
M  V30 2248 C 223.36 3.33202 0.957982 0
M  V30 2249 C 222.421 4.28957 0.17149 0
M  V30 2250 C 221.654 5.22853 1.07053 0
M  V30 2251 O 221.877 5.21531 2.31001 0
M  V30 2252 O 220.811 5.9952 0.534727 0
M  V30 2253 H 224.637 2.9448 -0.742661 0
M  V30 2254 H 222.222 1.43117 -0.428705 0
M  V30 2255 H 224.104 3.93796 1.50008 0
M  V30 2256 H 222.779 2.758 1.69458 0
M  V30 2257 H 221.686 3.71796 -0.414558 0
M  V30 2258 H 223.019 4.89383 -0.52586 0
M  V30 2259 N 224.671 0.411399 1.52136 0
M  V30 2260 C 225.581 -0.419774 2.30814 0
M  V30 2261 C 226.597 -1.0515 1.38634 0
M  V30 2262 O 227.773 -1.05252 1.71709 0
M  V30 2263 C 224.838 -1.52019 3.11594 0
M  V30 2264 C 223.899 -0.91129 4.19516 0
M  V30 2265 C 223.132 -1.95927 4.96436 0
M  V30 2266 O 223.355 -3.17775 4.73683 0
M  V30 2267 O 222.289 -1.56423 5.81219 0
M  V30 2268 H 226.115 0.221805 3.02889 0
M  V30 2269 H 223.7 0.174547 1.48377 0
M  V30 2270 H 225.582 -2.15898 3.61892 0
M  V30 2271 H 224.257 -2.14633 2.42311 0
M  V30 2272 H 223.164 -0.235157 3.7336 0
M  V30 2273 H 224.497 -0.32904 4.91099 0
M  V30 2274 N 226.149 -1.5696 0.141893 0
M  V30 2275 C 227.059 -2.20066 -0.812905 0
M  V30 2276 C 228.075 -1.18344 -1.27557 0
M  V30 2277 O 229.251 -1.50902 -1.33381 0
M  V30 2278 C 226.316 -2.80583 -2.03652 0
M  V30 2279 C 225.377 -3.97414 -1.62359 0
M  V30 2280 C 224.61 -4.55036 -2.78887 0
M  V30 2281 O 224.833 -4.11538 -3.94959 0
M  V30 2282 O 223.767 -5.45376 -2.54653 0
M  V30 2283 H 227.593 -3.02157 -0.305746 0
M  V30 2284 H 225.178 -1.49159 -0.0848799 0
M  V30 2285 H 227.06 -3.19067 -2.75272 0
M  V30 2286 H 225.735 -2.01508 -2.5333 0
M  V30 2287 H 224.642 -3.63656 -0.877775 0
M  V30 2288 H 225.975 -4.77994 -1.17401 0
M  V30 2289 N 227.627 0.131896 -1.57047 0
M  V30 2290 C 228.557 1.16384 -2.02428 0
M  V30 2291 C 229.538 1.43936 -0.90644 0
M  V30 2292 O 230.723 1.54599 -1.17528 0
M  V30 2293 C 227.853 2.49328 -2.4177 0
M  V30 2294 C 226.807 2.36266 -3.56879 0
M  V30 2295 C 226.133 3.74057 -3.8208 0
M  V30 2296 C 227.433 1.834 -4.89042 0
M  V30 2297 H 229.127 0.786433 -2.88887 0
M  V30 2298 H 226.673 0.376855 -1.38981 0
M  V30 2299 H 228.626 3.21759 -2.7212 0
M  V30 2300 H 227.35 2.88934 -1.52266 0
M  V30 2301 H 226.009 1.66286 -3.26718 0
M  V30 2302 H 225.657 4.11125 -2.89803 0
M  V30 2303 H 225.357 3.66174 -4.59554 0
M  V30 2304 H 226.881 4.48012 -4.1487 0
M  V30 2305 H 228.295 2.45636 -5.18011 0
M  V30 2306 H 226.692 1.8637 -5.70426 0
M  V30 2307 H 227.762 0.790662 -4.7841 0
M  V30 2308 N 229.106 1.52395 0.401703 0
M  V30 2309 C 230.346 1.68498 1.15705 0
M  V30 2310 C 230.71 0.409748 1.87577 0
M  V30 2311 O 231.911 0.446983 2.65058 0
M  V30 2312 C 230.182 2.87789 2.11924 0
M  V30 2313 S 231.741 3.24415 2.95466 0
M  V30 2314 H 228.559 0.593267 0.391862 0
M  V30 2315 H 231.161 1.90408 0.443282 0
M  V30 2316 H 229.865 3.7884 1.57824 0
M  V30 2317 H 229.396 2.68175 2.87829 0
M  V30 2318 H 231.411 2.73614 4.13944 0
M  V30 2319 N 230.584 -0.659388 1.43143 0
M  V30 2320 C 231.809 -1.45221 1.48073 0
M  V30 2321 C 232.234 -1.87845 0.097995 0
M  V30 2322 O 231.592 -1.56985 -0.90694 0
M  V30 2323 C 231.64 -2.66748 2.42647 0
M  V30 2324 O 230.744 -3.65583 1.90848 0
M  V30 2325 H 230.085 -0.435669 0.501088 0
M  V30 2326 H 232.615 -0.807432 1.87994 0
M  V30 2327 H 232.625 -3.14637 2.59745 0
M  V30 2328 H 231.3 -2.35067 3.43098 0
M  V30 2329 H 229.877 -3.24693 1.83381 0
M  V30 2330 N 232.062 -1.29571 -0.897171 0
M  V30 2331 C 233.31 -1.17456 -1.64464 0
M  V30 2332 C 233.631 0.273698 -1.9307 0
M  V30 2333 O 232.901 1.18684 -1.55855 0
M  V30 2334 H 231.481 -0.431706 -0.609622 0
M  V30 2335 H 234.143 -1.62531 -1.07562 0
M  V30 2336 H 233.239 -1.72648 -2.59998 0
M  V30 2337 N 233.54 1.10788 -1.12088 0
M  V30 2338 C 234.487 2.17025 -0.785407 0
M  V30 2339 C 235.457 1.64265 0.246191 0
M  V30 2340 O 236.642 1.90412 0.121584 0
M  V30 2341 C 233.782 3.44249 -0.242177 0
M  V30 2342 C 232.895 4.1098 -1.33115 0
M  V30 2343 C 232.03 5.25911 -0.747741 0
M  V30 2344 C 231.069 5.84538 -1.81609 0
M  V30 2345 N 230.206 6.90853 -1.25167 0
M  V30 2346 H 235.046 2.45066 -1.69548 0
M  V30 2347 H 232.583 1.20297 -0.846582 0
M  V30 2348 H 234.541 4.17101 0.0908026 0
M  V30 2349 H 233.171 3.16571 0.631072 0
M  V30 2350 H 232.223 3.36133 -1.78097 0
M  V30 2351 H 233.535 4.50601 -2.13917 0
M  V30 2352 H 232.689 6.056 -0.365216 0
M  V30 2353 H 231.428 4.87614 0.0915188 0
M  V30 2354 H 230.433 5.03522 -2.20785 0
M  V30 2355 H 231.658 6.249 -2.6585 0
M  V30 2356 H 229.604 6.54562 -0.434174 0
M  V30 2357 H 229.521 7.29166 -1.99633 0
M  V30 2358 H 230.789 7.7433 -0.896259 0
M  V30 2359 N 235.018 0.912232 1.28515 0
M  V30 2360 C 236.429 0.591352 1.77087 0
M  V30 2361 C 236.78 -0.8933 1.74684 0
M  V30 2362 O 235.905 -1.69876 1.34056 0
M  V30 2363 C 236.5 1.06668 3.2157 0
M  V30 2364 C 235.059 0.79675 3.67871 0
M  V30 2365 C 234.206 1.23427 2.48316 0
M  V30 2366 H 237.157 1.09365 1.15 0
M  V30 2367 H 237.178 0.407455 3.78312 0
M  V30 2368 H 236.69 2.14726 3.23287 0
M  V30 2369 H 234.791 -0.270679 3.71616 0
M  V30 2370 H 234.904 1.40343 4.58084 0
M  V30 2371 H 233.268 0.653036 2.46186 0
M  V30 2372 H 234.051 2.32316 2.52753 0
M  V30 2373 N 236.496 -1.42363 0.676048 0
M  V30 2374 C 237.743 -2.01522 0.19883 0
M  V30 2375 C 238.071 -1.53456 -1.19505 0
M  V30 2376 O 237.326 -0.727967 -1.81657 0
M  V30 2377 C 237.625 -3.56929 0.183431 0
M  V30 2378 C 237.291 -4.24431 1.52215 0
M  V30 2379 C 235.953 -4.42585 1.8887 0
M  V30 2380 C 238.305 -4.62459 2.40377 0
M  V30 2381 C 235.633 -4.96039 3.13309 0
M  V30 2382 C 237.985 -5.17294 3.64129 0
M  V30 2383 C 236.649 -5.33661 4.00951 0
M  V30 2384 H 235.919 -0.737419 0.0727571 0
M  V30 2385 H 238.566 -1.70531 0.871281 0
M  V30 2386 H 236.871 -3.87594 -0.572532 0
M  V30 2387 H 238.568 -4.00486 -0.203035 0
M  V30 2388 H 235.158 -4.10661 1.22701 0
M  V30 2389 H 239.342 -4.48105 2.13343 0
M  V30 2390 H 234.598 -5.06896 3.41857 0
M  V30 2391 H 238.772 -5.45704 4.32644 0
M  V30 2392 H 236.399 -5.74845 4.9745 0
M  V30 2393 N 237.974 -0.419461 -1.51915 0
M  V30 2394 C 239.251 0.211999 -1.94448 0
M  V30 2395 C 239.631 1.61703 -1.35703 0
M  V30 2396 O 238.979 2.22102 -0.536931 0
M  V30 2397 C 239.189 0.207872 -3.4838 0
M  V30 2398 C 240.537 0.422192 -4.22496 0
M  V30 2399 O 241.561 0.286778 -3.55044 0
M  V30 2400 O 240.42 0.690009 -5.42126 0
M  V30 2401 H 237.514 0.139586 -0.815135 0
M  V30 2402 H 240.06 -0.476151 -1.62883 0
M  V30 2403 H 238.832 -0.775102 -3.83546 0
M  V30 2404 H 238.455 0.939688 -3.86336 0
M  V30 2405 N 239.452 1.56882 -0.150215 0
M  V30 2406 C 240.415 2.1573 0.774157 0
M  V30 2407 C 241.415 1.0999 1.17298 0
M  V30 2408 O 242.605 1.35613 1.09338 0
M  V30 2409 C 239.737 2.72302 2.05096 0
M  V30 2410 H 240.93 2.98752 0.262201 0
M  V30 2411 H 238.483 1.55985 0.099248 0
M  V30 2412 H 239.218 1.92956 2.6065 0
M  V30 2413 H 239.003 3.49665 1.77416 0
M  V30 2414 H 240.493 3.17632 2.71109 0
M  V30 2415 N 240.93 -0.123565 1.57115 0
M  V30 2416 C 242.177 -0.832153 1.84612 0
M  V30 2417 C 242.505 -1.80093 0.734627 0
M  V30 2418 O 241.76 -1.93766 -0.27442 0
M  V30 2419 C 242.059 -1.62016 3.18568 0
M  V30 2420 C 241.725 -0.796084 4.43817 0
M  V30 2421 C 240.387 -0.568816 4.77826 0
M  V30 2422 C 242.739 -0.221364 5.2073 0
M  V30 2423 C 240.067 0.243499 5.86194 0
M  V30 2424 C 242.419 0.578117 6.29953 0
M  V30 2425 C 241.083 0.815744 6.62497 0
M  V30 2426 H 240.353 -0.304507 0.675542 0
M  V30 2427 H 243 -0.0947248 1.91266 0
M  V30 2428 H 241.305 -2.42837 3.0747 0
M  V30 2429 H 243.002 -2.17231 3.37064 0
M  V30 2430 H 239.592 -0.983307 4.17168 0
M  V30 2431 H 243.776 -0.384173 4.94811 0
M  V30 2432 H 239.032 0.436871 6.09837 0
M  V30 2433 H 243.206 1.03046 6.88734 0
M  V30 2434 H 240.833 1.44701 7.46301 0
M  V30 2435 N 242.408 -1.52605 -0.393616 0
M  V30 2436 C 243.636 -1.71294 -1.16043 0
M  V30 2437 C 244.051 -0.429259 -1.83855 0
M  V30 2438 O 243.408 0.595921 -1.72496 0
M  V30 2439 C 243.459 -2.8593 -2.21193 0
M  V30 2440 O 243.18 -4.09329 -1.56146 0
M  V30 2441 C 244.681 -3.16259 -3.10636 0
M  V30 2442 H 241.901 -0.573641 -0.348104 0
M  V30 2443 H 244.445 -1.99234 -0.461092 0
M  V30 2444 H 242.6 -2.60465 -2.86769 0
M  V30 2445 H 243.014 -4.73323 -2.25978 0
M  V30 2446 H 244.488 -3.99946 -3.80456 0
M  V30 2447 H 244.965 -2.3045 -3.73884 0
M  V30 2448 H 245.571 -3.43547 -2.50711 0
M  V30 2449 N 243.887 0.651787 -1.4349 0
M  V30 2450 C 245.164 1.40909 -1.35661 0
M  V30 2451 C 245.544 2.11099 -0.00511733 0
M  V30 2452 O 244.892 2.04892 1.0115 0
M  V30 2453 C 245.102 2.3926 -2.54078 0
M  V30 2454 C 246.45 3.03217 -2.97228 0
M  V30 2455 O 247.474 2.49588 -2.54135 0
M  V30 2456 O 246.333 4.00455 -3.71885 0
M  V30 2457 H 243.427 0.629625 -0.536191 0
M  V30 2458 H 245.973 0.678575 -1.55542 0
M  V30 2459 H 244.745 1.86352 -3.44076 0
M  V30 2460 H 244.368 3.1976 -2.36303 0
M  V30 2461 N 245.365 1.30045 0.890287 0
M  V30 2462 C 246.295 1.18541 2.01172 0
M  V30 2463 C 247.276 0.0773356 1.69924 0
M  V30 2464 O 248.461 0.25845 1.92473 0
M  V30 2465 C 245.591 0.870941 3.36202 0
M  V30 2466 C 244.545 1.93637 3.81692 0
M  V30 2467 C 243.871 1.475 5.13953 0
M  V30 2468 C 245.171 3.34666 4.00994 0
M  V30 2469 H 246.865 2.12359 2.11054 0
M  V30 2470 H 244.411 1.02238 1.01407 0
M  V30 2471 H 246.364 0.777141 4.14172 0
M  V30 2472 H 245.088 -0.102926 3.26438 0
M  V30 2473 H 243.747 2.01972 3.05946 0
M  V30 2474 H 243.395 0.489551 5.00612 0
M  V30 2475 H 243.095 2.1876 5.4536 0
M  V30 2476 H 244.619 1.39489 5.94454 0
M  V30 2477 H 246.033 3.2912 4.69417 0
M  V30 2478 H 244.43 4.03966 4.43769 0
M  V30 2479 H 245.5 3.76949 3.05021 0
M  V30 2480 N 246.843 -1.10192 1.12674 0
M  V30 2481 C 247.79 -2.16606 0.796906 0
M  V30 2482 C 248.76 -1.64394 -0.237476 0
M  V30 2483 O 249.945 -1.90474 -0.111484 0
M  V30 2484 C 247.085 -3.44116 0.26043 0
M  V30 2485 C 246.198 -4.10268 1.35293 0
M  V30 2486 C 245.333 -5.25507 0.775621 0
M  V30 2487 C 244.372 -5.83567 1.84706 0
M  V30 2488 N 243.509 -6.90179 1.28829 0
M  V30 2489 H 248.349 -2.44163 1.70846 0
M  V30 2490 H 245.886 -1.19846 0.85295 0
M  V30 2491 H 247.844 -4.17143 -0.0686814 0
M  V30 2492 H 246.474 -3.16901 -0.614274 0
M  V30 2493 H 245.526 -3.35184 1.79877 0
M  V30 2494 H 246.838 -4.4946 2.16303 0
M  V30 2495 H 245.992 -6.05398 0.397327 0
M  V30 2496 H 244.731 -4.87656 -0.0656581 0
M  V30 2497 H 243.736 -5.02344 2.23452 0
M  V30 2498 H 244.961 -6.23482 2.69161 0
M  V30 2499 H 242.907 -6.54322 0.468881 0
M  V30 2500 H 242.824 -7.28097 2.03497 0
M  V30 2501 H 244.092 -7.73844 0.937311 0
M  V30 2502 N 248.321 -0.919034 -1.28029 0
M  V30 2503 C 249.269 -0.401753 -2.29104 0
M  V30 2504 C 250.263 0.509354 -1.61561 0
M  V30 2505 O 251.469 0.390014 -1.75724 0
M  V30 2506 H 247.844 -0.111331 -0.743713 0
M  V30 2507 H 249.815 -1.2672 -2.70156 0
M  V30 2508 C 248.564 0.338148 -3.46052 0
M  V30 2509 H 247.887 -0.353732 -3.98232 0
M  V30 2510 H 249.327 0.664653 -4.18758 0
M  V30 2511 C 247.786 1.54798 -2.99231 0
M  V30 2512 O 248.316 2.64696 -3.02157 0
M  V30 2513 N 246.522 1.3968 -2.54829 0
M  V30 2514 H 246.069 0.502698 -2.52647 0
M  V30 2515 H 246.027 2.20755 -2.23863 0
M  V30 2516 N 249.799 1.42003 -0.683588 0
M  V30 2517 C 251.047 2.01015 -0.209101 0
M  V30 2518 C 251.368 1.54365 1.19149 0
M  V30 2519 O 250.638 0.769083 1.80172 0
M  V30 2520 H 249.218 0.743294 -0.074315 0
M  V30 2521 H 251.88 1.73798 -0.882066 0
M  V30 2522 H 250.976 3.11343 -0.2172 0
M  V30 2523 N 251.277 0.427512 1.51691 0
M  V30 2524 C 252.502 -0.143601 2.06902 0
M  V30 2525 C 252.927 -1.36536 1.29382 0
M  V30 2526 O 252.285 -1.78289 0.329043 0
M  V30 2527 C 252.333 -0.454207 3.57728 0
M  V30 2528 O 251.437 -1.54228 3.82475 0
M  V30 2529 H 250.778 -0.00617128 0.663971 0
M  V30 2530 H 253.308 0.606014 1.95419 0
M  V30 2531 H 253.318 -0.707525 4.01818 0
M  V30 2532 H 251.993 0.438812 4.13579 0
M  V30 2533 H 250.57 -1.2797 3.50254 0
M  V30 2534 N 252.755 -1.56801 0.158532 0
M  V30 2535 C 253.685 -2.20347 -0.772609 0
M  V30 2536 C 254.666 -1.15518 -1.24859 0
M  V30 2537 O 255.851 -1.43902 -1.30406 0
M  V30 2538 C 252.981 -2.83417 -2.00729 0
M  V30 2539 C 251.935 -3.94174 -1.66765 0
M  V30 2540 C 251.261 -4.44233 -2.97592 0
M  V30 2541 C 252.561 -5.14392 -0.905447 0
M  V30 2542 H 254.255 -2.98413 -0.242959 0
M  V30 2543 H 251.801 -1.43537 -0.115419 0
M  V30 2544 H 253.754 -3.26543 -2.6636 0
M  V30 2545 H 252.478 -2.02701 -2.56086 0
M  V30 2546 H 251.137 -3.51684 -1.03508 0
M  V30 2547 H 250.785 -3.60325 -3.50963 0
M  V30 2548 H 250.485 -5.18945 -2.75626 0
M  V30 2549 H 252.009 -4.90037 -3.64274 0
M  V30 2550 H 253.423 -5.5429 -1.46408 0
M  V30 2551 H 251.82 -5.9494 -0.7853 0
M  V30 2552 H 252.89 -4.84795 0.100668 0
M  V30 2553 N 254.233 0.115231 -1.57178 0
M  V30 2554 C 255.48 0.822351 -1.8505 0
M  V30 2555 C 255.808 1.79701 -0.744168 0
M  V30 2556 O 255.063 1.93909 0.26414 0
M  V30 2557 C 255.362 1.60324 -3.19423 0
M  V30 2558 C 255.028 0.772536 -4.44233 0
M  V30 2559 C 253.69 0.543468 -4.78121 0
M  V30 2560 C 256.042 0.193746 -5.2084 0
M  V30 2561 C 253.37 -0.274583 -5.86057 0
M  V30 2562 C 255.722 -0.611517 -6.29637 0
M  V30 2563 C 254.386 -0.850867 -6.62055 0
M  V30 2564 H 253.656 0.30092 -0.677147 0
M  V30 2565 H 256.303 0.0845802 -1.91313 0
M  V30 2566 H 254.608 2.41203 -3.08753 0
M  V30 2567 H 256.305 2.1544 -3.38211 0
M  V30 2568 H 252.895 0.96117 -4.17683 0
M  V30 2569 H 257.079 0.357926 -4.95008 0
M  V30 2570 H 252.335 -0.469206 -6.09597 0
M  V30 2571 H 256.509 -1.06697 -6.88178 0
M  V30 2572 H 254.136 -1.48657 -7.45523 0
M  V30 2573 N 255.711 1.52812 0.385517 0
M  V30 2574 C 256.674 1.77188 1.45386 0
M  V30 2575 C 257.674 0.641953 1.4743 0
M  V30 2576 O 258.864 0.910033 1.4854 0
M  V30 2577 C 255.996 1.87582 2.8465 0
M  V30 2578 H 257.189 2.72583 1.25054 0
M  V30 2579 H 254.742 1.43586 0.617467 0
M  V30 2580 H 255.477 0.941849 3.10322 0
M  V30 2581 H 255.262 2.69748 2.84567 0
M  V30 2582 H 256.752 2.08102 3.62054 0
M  V30 2583 N 257.189 -0.644168 1.43834 0
M  V30 2584 C 258.436 -1.40395 1.4593 0
M  V30 2585 C 258.764 -1.94305 0.0869658 0
M  V30 2586 O 258.019 -1.73288 -0.909378 0
M  V30 2587 C 258.318 -2.59615 2.45631 0
M  V30 2588 C 257.984 -2.2407 3.91284 0
M  V30 2589 C 256.646 -2.14089 4.30952 0
M  V30 2590 C 258.998 -1.95775 4.83034 0
M  V30 2591 C 256.326 -1.73981 5.6031 0
M  V30 2592 C 258.678 -1.57163 6.12766 0
M  V30 2593 C 257.342 -1.45713 6.51402 0
M  V30 2594 H 256.612 -0.513741 0.533995 0
M  V30 2595 H 259.259 -0.731724 1.76969 0
M  V30 2596 H 257.564 -3.32011 2.08028 0
M  V30 2597 H 259.261 -3.17834 2.44504 0
M  V30 2598 H 255.851 -2.32753 3.59895 0
M  V30 2599 H 260.035 -2.02403 4.53152 0
M  V30 2600 H 255.291 -1.63709 5.89075 0
M  V30 2601 H 259.465 -1.34303 6.83327 0
M  V30 2602 H 257.092 -1.14406 7.51542 0
M  V30 2603 N 258.668 -1.30515 -0.883378 0
M  V30 2604 C 260.084 -1.08881 -1.16692 0
M  V30 2605 C 260.284 0.149409 -2.00945 0
M  V30 2606 O 259.34 0.84257 -2.38027 0
M  V30 2607 C 260.653 -2.35319 -1.87204 0
M  V30 2608 C 262.201 -2.40799 -1.99962 0
M  V30 2609 C 262.676 -3.67083 -2.73887 0
M  V30 2610 N 264.167 -3.679 -2.81432 0
M  V30 2611 C 264.902 -4.62303 -3.3921 0
M  V30 2612 N 264.398 -5.67052 -3.98025 0
M  V30 2613 N 266.191 -4.49845 -3.3704 0
M  V30 2614 H 258.342 -2.09951 -0.321633 0
M  V30 2615 H 260.605 -0.92556 -0.205043 0
M  V30 2616 H 260.311 -3.25689 -1.3274 0
M  V30 2617 H 260.185 -2.44089 -2.87577 0
M  V30 2618 H 262.572 -1.50907 -2.53597 0
M  V30 2619 H 262.653 -2.36003 -0.98673 0
M  V30 2620 H 262.297 -4.57334 -2.20925 0
M  V30 2621 H 262.227 -3.69141 -3.75556 0
M  V30 2622 H 264.718 -2.92171 -2.39676 0
M  V30 2623 H 265.031 -6.35184 -4.40183 0
M  V30 2624 H 263.376 -5.70842 -3.96439 0
M  V30 2625 H 266.567 -3.67194 -2.90321 0
M  V30 2626 H 266.74 -5.23597 -3.81772 0
M  V30 2627 N 260.146 1.09593 -1.13257 0
M  V30 2628 C 261.394 1.81375 -0.891492 0
M  V30 2629 C 261.715 1.86049 0.584009 0
M  V30 2630 O 260.985 1.34481 1.42449 0
M  V30 2631 H 259.565 0.671708 -0.326828 0
M  V30 2632 H 262.227 1.3256 -1.42877 0
M  V30 2633 H 261.323 2.84612 -1.28071 0
M  V30 2634 N 261.624 0.925811 1.2754 0
M  V30 2635 C 262.556 0.380753 2.26015 0
M  V30 2636 C 263.569 -0.487485 1.5533 0
M  V30 2637 O 264.758 -0.300413 1.75954 0
M  V30 2638 C 261.858 -0.473259 3.35579 0
M  V30 2639 C 261.031 0.375249 4.35787 0
M  V30 2640 C 260.09 -0.415809 5.24555 0
M  V30 2641 O 259.116 0.175834 5.68928 0
M  V30 2642 N 260.318 -1.71607 5.54555 0
M  V30 2643 H 263.083 1.22725 2.73421 0
M  V30 2644 H 260.644 0.793037 1.41147 0
M  V30 2645 H 262.636 -1.00949 3.91907 0
M  V30 2646 H 261.206 -1.2205 2.87789 0
M  V30 2647 H 260.426 1.09279 3.7875 0
M  V30 2648 H 261.714 0.955399 4.99749 0
M  V30 2649 H 261.112 -2.2191 5.20358 0
M  V30 2650 H 259.669 -2.19887 6.1359 0
M  V30 2651 N 263.102 -1.41638 0.69111 0
M  V30 2652 C 264.332 -2.0533 0.228758 0
M  V30 2653 C 264.74 -1.52089 -1.12541 0
M  V30 2654 O 264.083 -0.662145 -1.71351 0
M  V30 2655 C 264.145 -3.59349 0.10407 0
M  V30 2656 C 263.809 -4.35362 1.38956 0
M  V30 2657 C 264.806 -4.64942 2.32648 0
M  V30 2658 C 262.491 -4.74714 1.64169 0
M  V30 2659 C 264.485 -5.32828 3.49818 0
M  V30 2660 C 262.172 -5.42338 2.81625 0
M  V30 2661 C 263.17 -5.71322 3.74273 0
M  V30 2662 O 262.858 -6.37554 4.89673 0
M  V30 2663 H 262.59 -0.667796 0.104997 0
M  V30 2664 H 265.144 -1.82477 0.942938 0
M  V30 2665 H 263.374 -3.80924 -0.665839 0
M  V30 2666 H 265.063 -4.04633 -0.320519 0
M  V30 2667 H 265.829 -4.35025 2.14425 0
M  V30 2668 H 261.708 -4.51538 0.929202 0
M  V30 2669 H 265.252 -5.55368 4.22152 0
M  V30 2670 H 261.149 -5.71673 2.99768 0
M  V30 2671 H 261.917 -6.56049 4.8943 0
M  V30 2672 N 264.58 -0.43555 -1.51462 0
M  V30 2673 C 265.82 0.130708 -2.03982 0
M  V30 2674 C 266.184 1.40117 -1.31268 0
M  V30 2675 O 267.385 2.04755 -1.74152 0
M  V30 2676 C 265.656 0.346102 -3.5572 0
M  V30 2677 S 267.215 0.876022 -4.29967 0
M  V30 2678 H 264.033 0.0326881 -0.710248 0
M  V30 2679 H 266.635 -0.594544 -1.8624 0
M  V30 2680 H 265.339 -0.584911 -4.0621 0
M  V30 2681 H 264.87 1.09849 -3.77752 0
M  V30 2682 H 266.885 2.15379 -4.47019 0
M  V30 2683 N 266.058 1.56714 -0.166846 0
M  V30 2684 C 267.288 2.00828 0.48494 0
M  V30 2685 C 267.696 1.04612 1.57648 0
M  V30 2686 O 267.039 0.0383201 1.8366 0
M  V30 2687 C 267.101 3.4137 1.12723 0
M  V30 2688 C 266.765 4.56654 0.177886 0
M  V30 2689 C 267.762 5.16402 -0.60207 0
M  V30 2690 C 265.447 5.02244 0.0750139 0
M  V30 2691 C 267.441 6.20167 -1.47215 0
M  V30 2692 C 265.128 6.05859 -0.798649 0
M  V30 2693 C 266.126 6.64691 -1.57082 0
M  V30 2694 O 265.814 7.66297 -2.42989 0
M  V30 2695 H 265.546 0.663587 0.128953 0
M  V30 2696 H 268.1 2.03692 -0.264365 0
M  V30 2697 H 266.33 3.35406 1.92457 0
M  V30 2698 H 268.019 3.69466 1.68076 0
M  V30 2699 H 268.785 4.82065 -0.53274 0
M  V30 2700 H 264.664 4.56167 0.665812 0
M  V30 2701 H 268.208 6.66016 -2.07531 0
M  V30 2702 H 264.105 6.39621 -0.869199 0
M  V30 2703 H 264.873 7.83601 -2.36455 0
M  V30 2704 N 267.536 -0.106894 1.57237 0
M  V30 2705 C 268.446 -1.14911 2.0453 0
M  V30 2706 C 269.462 -1.44592 0.96795 0
M  V30 2707 O 270.638 -1.55468 1.2803 0
M  V30 2708 C 267.703 -2.45272 2.45036 0
M  V30 2709 C 266.764 -2.22879 3.66911 0
M  V30 2710 C 265.997 -3.47024 4.05475 0
M  V30 2711 O 266.22 -4.54804 3.44252 0
M  V30 2712 O 265.154 -3.3731 4.98504 0
M  V30 2713 H 268.98 -0.777461 2.9358 0
M  V30 2714 H 266.565 -0.318563 1.45964 0
M  V30 2715 H 268.447 -3.22055 2.71769 0
M  V30 2716 H 267.122 -2.81886 1.59129 0
M  V30 2717 H 266.029 -1.43915 3.45311 0
M  V30 2718 H 267.362 -1.91163 4.53561 0
M  V30 2719 N 269.014 -1.53014 -0.377408 0
M  V30 2720 C 269.944 -1.81589 -1.46791 0
M  V30 2721 C 270.925 -0.668622 -1.56408 0
M  V30 2722 O 272.11 -0.917337 -1.71168 0
M  V30 2723 C 269.24 -1.99519 -2.8427 0
M  V30 2724 C 268.194 -3.15249 -2.89486 0
M  V30 2725 C 267.52 -3.18451 -4.29527 0
M  V30 2726 C 268.82 -4.54084 -2.58079 0
M  V30 2727 H 270.514 -2.7291 -1.23127 0
M  V30 2728 H 268.06 -1.31319 -0.590883 0
M  V30 2729 H 270.013 -2.18092 -3.60575 0
M  V30 2730 H 268.737 -1.04897 -3.09296 0
M  V30 2731 H 267.396 -2.96477 -2.15631 0
M  V30 2732 H 267.044 -2.2149 -4.5161 0
M  V30 2733 H 266.744 -3.962 -4.33934 0
M  V30 2734 H 268.268 -3.39193 -5.07721 0
M  V30 2735 H 269.682 -4.72899 -3.24098 0
M  V30 2736 H 268.079 -5.33987 -2.7382 0
M  V30 2737 H 269.149 -4.60006 -1.53372 0
M  V30 2738 N 270.492 0.636531 -1.44174 0
M  V30 2739 C 271.769 1.39463 -1.37148 0
M  V30 2740 C 272.149 2.11082 -0.027507 0
M  V30 2741 O 271.497 2.05954 0.989716 0
M  V30 2742 C 271.707 2.36552 -2.56601 0
M  V30 2743 C 273.055 3.00048 -3.00427 0
M  V30 2744 O 274.079 2.46878 -2.56767 0
M  V30 2745 O 272.938 3.96488 -3.76111 0
M  V30 2746 H 270.032 0.623903 -0.542839 0
M  V30 2747 H 272.578 0.662039 -1.56253 0
M  V30 2748 H 271.35 1.82692 -3.46034 0
M  V30 2749 H 270.973 3.17236 -2.39681 0
M  V30 2750 N 271.97 1.30982 0.876444 0
M  V30 2751 C 272.88 1.2003 2.01569 0
M  V30 2752 C 273.896 0.11838 1.73597 0
M  V30 2753 O 275.072 0.33495 1.98595 0
M  V30 2754 C 272.137 0.901637 3.34771 0
M  V30 2755 C 271.198 2.06979 3.76109 0
M  V30 2756 C 270.431 1.78529 5.02954 0
M  V30 2757 O 270.654 0.717296 5.65872 0
M  V30 2758 O 269.588 2.64019 5.40905 0
M  V30 2759 H 273.414 2.15753 2.13739 0
M  V30 2760 H 270.999 1.10658 1.00375 0
M  V30 2761 H 272.881 0.750645 4.1466 0
M  V30 2762 H 271.556 -0.0256141 3.2369 0
M  V30 2763 H 270.463 2.27616 2.96887 0
M  V30 2764 H 271.796 2.97907 3.91807 0
M  V30 2765 N 273.449 -1.08991 1.13837 0
M  V30 2766 C 274.396 -2.15748 0.819835 0
M  V30 2767 C 275.366 -1.64636 -0.220026 0
M  V30 2768 O 276.551 -1.90582 -0.0912757 0
M  V30 2769 C 273.691 -3.4382 0.296913 0
M  V30 2770 C 272.804 -4.0881 1.39636 0
M  V30 2771 C 271.939 -5.24655 0.831314 0
M  V30 2772 C 270.978 -5.81575 1.90886 0
M  V30 2773 N 270.115 -6.88774 1.36142 0
M  V30 2774 H 274.955 -2.42338 1.73426 0
M  V30 2775 H 272.492 -1.18935 0.865613 0
M  V30 2776 H 274.45 -4.17193 -0.0244339 0
M  V30 2777 H 273.08 -3.17535 -0.580628 0
M  V30 2778 H 272.132 -3.33258 1.83422 0
M  V30 2779 H 273.444 -4.47141 2.21058 0
M  V30 2780 H 272.598 -6.04942 0.461515 0
M  V30 2781 H 271.337 -4.87698 -0.013932 0
M  V30 2782 H 270.342 -4.99946 2.28767 0
M  V30 2783 H 271.567 -6.20592 2.75758 0
M  V30 2784 H 269.513 -6.53788 0.538254 0
M  V30 2785 H 269.43 -7.25898 2.11208 0
M  V30 2786 H 270.698 -7.72806 1.01933 0
M  V30 2787 N 274.927 -0.932562 -1.27047 0
M  V30 2788 C 275.89 -0.440064 -2.24936 0
M  V30 2789 C 276.89 0.444071 -1.54547 0
M  V30 2790 O 278.08 0.244465 -1.72476 0
M  V30 2791 C 275.212 0.36678 -3.38921 0
M  V30 2792 H 276.405 -1.305 -2.70018 0
M  V30 2793 H 273.958 -0.713707 -1.39054 0
M  V30 2794 H 274.693 1.25033 -2.99228 0
M  V30 2795 H 274.478 -0.267204 -3.91188 0
M  V30 2796 H 275.968 0.701567 -4.11665 0
M  V30 2797 N 276.405 1.4127 -0.698611 0
M  V30 2798 C 277.651 2.01478 -0.231207 0
M  V30 2799 C 277.984 1.55215 1.16713 0
M  V30 2800 O 277.259 0.764672 1.78838 0
M  V30 2801 C 277.542 3.58912 -0.292281 0
M  V30 2802 C 277.395 4.15293 -1.72778 0
M  V30 2803 C 278.714 4.38736 0.346194 0
M  V30 2804 H 275.833 0.732025 -0.0854878 0
M  V30 2805 H 278.475 1.67977 -0.887906 0
M  V30 2806 H 276.625 3.87582 0.26686 0
M  V30 2807 H 278.297 3.97486 -2.341 0
M  V30 2808 H 276.54 3.7022 -2.26096 0
M  V30 2809 H 277.211 5.24452 -1.72202 0
M  V30 2810 H 279.687 4.15897 -0.130035 0
M  V30 2811 H 278.563 5.48221 0.272932 0
M  V30 2812 H 278.824 4.18425 1.42734 0
M  V30 2813 N 277.883 0.443576 1.51229 0
M  V30 2814 C 279.299 0.0962001 1.5931 0
M  V30 2815 C 279.499 -1.39501 1.45402 0
M  V30 2816 O 278.555 -2.16557 1.29843 0
M  V30 2817 C 279.868 0.621875 2.94199 0
M  V30 2818 C 281.416 0.582865 3.07525 0
M  V30 2819 C 281.891 1.08562 4.44948 0
M  V30 2820 N 283.382 1.04387 4.51284 0
M  V30 2821 C 284.117 1.40368 5.55954 0
M  V30 2822 N 283.613 1.83664 6.68011 0
M  V30 2823 N 285.406 1.32145 5.46346 0
M  V30 2824 H 277.557 1.41376 1.58514 0
M  V30 2825 H 279.82 0.582965 0.747567 0
M  V30 2826 H 279.526 1.66546 3.09767 0
M  V30 2827 H 279.4 0.0502125 3.77167 0
M  V30 2828 H 281.787 -0.451749 2.91622 0
M  V30 2829 H 281.868 1.191 2.26382 0
M  V30 2830 H 281.512 2.11873 4.61598 0
M  V30 2831 H 281.442 0.453956 5.2464 0
M  V30 2832 H 283.933 0.725986 3.70861 0
M  V30 2833 H 284.246 2.0934 7.43906 0
M  V30 2834 H 282.591 1.87596 6.69203 0
M  V30 2835 H 285.782 0.981808 4.57688 0
M  V30 2836 H 285.955 1.60514 6.27805 0
M  V30 2837 N 279.361 -1.56624 0.175154 0
M  V30 2838 C 280.772 -1.83561 -0.340916 0
M  V30 2839 C 281.123 -1.09511 -1.62794 0
M  V30 2840 O 280.248 -0.349389 -2.13561 0
M  V30 2841 C 280.843 -3.32979 -0.625313 0
M  V30 2842 C 279.402 -3.60399 -1.08581 0
M  V30 2843 C 278.549 -2.77024 -0.123722 0
M  V30 2844 H 281.5 -1.53593 0.399344 0
M  V30 2845 H 281.521 -3.50666 -1.47694 0
M  V30 2846 H 281.033 -3.86847 0.311575 0
M  V30 2847 H 279.134 -3.11945 -2.03767 0
M  V30 2848 H 279.247 -4.68711 -0.992317 0
M  V30 2849 H 277.611 -2.46993 -0.621821 0
M  V30 2850 H 278.394 -3.33674 0.807256 0
M  V30 2851 N 280.839 0.0985539 -1.57292 0
M  V30 2852 C 282.087 0.801092 -1.85545 0
M  V30 2853 C 282.408 1.79438 -0.763353 0
M  V30 2854 O 281.678 1.94763 0.21073 0
M  V30 2855 H 280.258 0.29884 -0.684619 0
M  V30 2856 H 282.92 0.0810064 -1.94732 0
M  V30 2857 H 282.016 1.3338 -2.82163 0
M  V30 2858 N 282.317 1.53212 0.369288 0
M  V30 2859 C 283.547 1.72868 1.13139 0
M  V30 2860 C 283.955 0.455754 1.83629 0
M  V30 2861 O 283.298 -0.580861 1.74275 0
M  V30 2862 C 283.36 2.83667 2.20847 0
M  V30 2863 C 283.024 4.24142 1.70155 0
M  V30 2864 C 284.021 5.06619 1.16763 0
M  V30 2865 C 281.706 4.70539 1.7578 0
M  V30 2866 C 283.7 6.33581 0.696678 0
M  V30 2867 C 281.387 5.97481 1.28297 0
M  V30 2868 C 282.385 6.78833 0.753307 0
M  V30 2869 O 282.073 8.03393 0.285475 0
M  V30 2870 H 281.805 0.581707 0.344373 0
M  V30 2871 H 284.359 2.00736 0.435243 0
M  V30 2872 H 282.589 2.51265 2.93944 0
M  V30 2873 H 284.278 2.91536 2.82421 0
M  V30 2874 H 285.044 4.71948 1.11758 0
M  V30 2875 H 280.923 4.07293 2.15949 0
M  V30 2876 H 284.467 6.97027 0.282581 0
M  V30 2877 H 280.364 6.31651 1.32994 0
M  V30 2878 H 281.132 8.17497 0.405145 0
M  V30 2879 N 283.795 -0.628877 1.44509 0
M  V30 2880 C 285.206 -1.21054 1.42137 0
M  V30 2881 C 285.557 -1.95715 0.137881 0
M  V30 2882 O 284.682 -2.02554 -0.761645 0
M  V30 2883 C 285.277 -2.20189 2.57493 0
M  V30 2884 C 283.836 -2.73777 2.58308 0
M  V30 2885 C 282.983 -1.48813 2.33987 0
M  V30 2886 H 285.934 -0.41942 1.53057 0
M  V30 2887 H 285.955 -3.02833 2.30375 0
M  V30 2888 H 285.467 -1.6582 3.50892 0
M  V30 2889 H 283.568 -3.32142 1.68856 0
M  V30 2890 H 283.681 -3.19662 3.56865 0
M  V30 2891 H 282.045 -1.77024 1.83124 0
M  V30 2892 H 282.828 -0.963442 3.29504 0
M  V30 2893 N 285.273 -1.31445 -0.869486 0
M  V30 2894 C 286.22 -1.19135 -1.97675 0
M  V30 2895 C 287.19 -0.0770266 -1.65921 0
M  V30 2896 O 288.375 -0.249972 -1.89155 0
M  V30 2897 C 285.515 -0.905149 -3.33018 0
M  V30 2898 C 284.628 -2.10285 -3.77365 0
M  V30 2899 C 283.763 -1.75339 -5.01427 0
M  V30 2900 C 282.802 -2.91515 -5.38224 0
M  V30 2901 N 281.939 -2.56762 -6.53466 0
M  V30 2902 H 286.779 -2.13853 -2.07535 0
M  V30 2903 H 284.316 -1.06379 -1.01597 0
M  V30 2904 H 286.274 -0.719765 -4.10944 0
M  V30 2905 H 284.904 0.00519624 -3.228 0
M  V30 2906 H 283.956 -2.39899 -2.95216 0
M  V30 2907 H 285.268 -2.97237 -4.00564 0
M  V30 2908 H 284.422 -1.53266 -5.87022 0
M  V30 2909 H 283.161 -0.855801 -4.80133 0
M  V30 2910 H 282.166 -3.14237 -4.51149 0
M  V30 2911 H 283.391 -3.81985 -5.61484 0
M  V30 2912 H 281.337 -1.69526 -6.33717 0
M  V30 2913 H 281.254 -3.37243 -6.76612 0
M  V30 2914 H 282.522 -2.38083 -7.42251 0
M  V30 2915 N 286.751 1.08385 -1.14413 0
M  V30 2916 C 287.681 2.17321 -0.854044 0
M  V30 2917 C 288.662 1.69024 0.191049 0
M  V30 2918 O 289.847 1.94141 0.0476779 0
M  V30 2919 C 286.977 3.45719 -0.330983 0
M  V30 2920 C 285.931 4.07409 -1.31155 0
M  V30 2921 C 285.257 5.30762 -0.64778 0
M  V30 2922 C 286.557 4.48665 -2.67388 0
M  V30 2923 H 288.251 2.41845 -1.76498 0
M  V30 2924 H 285.797 1.16233 -0.850051 0
M  V30 2925 H 287.75 4.21241 -0.115645 0
M  V30 2926 H 286.474 3.2075 0.615381 0
M  V30 2927 H 285.133 3.33919 -1.51306 0
M  V30 2928 H 284.781 5.02078 0.304398 0
M  V30 2929 H 284.481 5.72992 -1.30207 0
M  V30 2930 H 286.005 6.08998 -0.441972 0
M  V30 2931 H 287.419 5.15364 -2.51143 0
M  V30 2932 H 285.816 5.01814 -3.29093 0
M  V30 2933 H 286.886 3.60543 -3.24248 0
M  V30 2934 N 288.23 0.939286 1.26551 0
M  V30 2935 C 289.479 0.581601 1.93133 0
M  V30 2936 C 289.792 -0.883224 1.74524 0
M  V30 2937 O 290.998 -1.3502 2.35546 0
M  V30 2938 C 289.454 0.989425 3.46032 0
M  V30 2939 C 289.062 2.47573 3.73379 0
M  V30 2940 C 290.806 0.703544 4.18629 0
M  V30 2941 C 288.713 2.82235 5.19709 0
M  V30 2942 H 287.643 0.213803 0.723052 0
M  V30 2943 H 290.294 1.14167 1.4366 0
M  V30 2944 H 288.676 0.357902 3.94379 0
M  V30 2945 H 289.85 3.15614 3.35744 0
M  V30 2946 H 288.165 2.73471 3.1401 0
M  V30 2947 H 290.762 0.938869 5.26393 0
M  V30 2948 H 291.105 -0.359639 4.14744 0
M  V30 2949 H 291.638 1.2947 3.76141 0
M  V30 2950 H 288.377 3.87509 5.28694 0
M  V30 2951 H 287.897 2.18854 5.58447 0
M  V30 2952 H 289.576 2.70599 5.87695 0
M  V30 2953 N 289.708 -1.40897 0.706093 0
M  V30 2954 C 291.124 -1.55042 0.37869 0
M  V30 2955 C 291.324 -1.67944 -1.11342 0
M  V30 2956 O 290.38 -1.66372 -1.89938 0
M  V30 2957 C 291.693 -2.78398 1.13643 0
M  V30 2958 C 293.241 -2.92206 1.12181 0
M  V30 2959 C 293.716 -4.18463 1.86152 0
M  V30 2960 N 295.207 -4.25443 1.83173 0
M  V30 2961 C 295.942 -5.2202 2.37239 0
M  V30 2962 N 295.438 -6.24563 2.99821 0
M  V30 2963 N 297.231 -5.14033 2.27435 0
M  V30 2964 H 289.382 -1.30769 1.67372 0
M  V30 2965 H 291.645 -0.631653 0.706907 0
M  V30 2966 H 291.351 -2.7511 2.19106 0
M  V30 2967 H 291.225 -3.70228 0.721853 0
M  V30 2968 H 293.612 -2.95004 0.0754171 0
M  V30 2969 H 293.693 -2.01521 1.57554 0
M  V30 2970 H 293.337 -4.16427 2.90776 0
M  V30 2971 H 293.267 -5.08141 1.38206 0
M  V30 2972 H 295.758 -3.51976 1.37556 0
M  V30 2973 H 296.071 -6.94665 3.38616 0
M  V30 2974 H 294.416 -6.25035 3.03902 0
M  V30 2975 H 297.607 -4.3285 1.78208 0
M  V30 2976 H 297.78 -5.89129 2.69873 0
M  V30 2977 N 291.186 -0.45159 -1.50991 0
M  V30 2978 C 292.463 0.170707 -1.94854 0
M  V30 2979 C 292.843 1.58788 -1.39103 0
M  V30 2980 O 292.191 2.20913 -0.583921 0
M  V30 2981 C 292.401 0.133929 -3.48743 0
M  V30 2982 C 293.749 0.33248 -4.23296 0
M  V30 2983 O 294.773 0.211403 -3.55572 0
M  V30 2984 O 293.632 0.57486 -5.43468 0
M  V30 2985 H 290.726 0.122264 -0.817912 0
M  V30 2986 H 293.272 -0.510594 -1.61836 0
M  V30 2987 H 292.044 -0.856283 -3.81816 0
M  V30 2988 H 291.667 0.857529 -3.88242 0
M  V30 2989 N 292.664 1.56529 -0.183458 0
M  V30 2990 C 293.91 1.97537 0.459036 0
M  V30 2991 C 294.243 1.06989 1.62071 0
M  V30 2992 O 293.518 0.11948 1.94133 0
M  V30 2993 C 293.801 3.47874 0.930368 0
M  V30 2994 C 293.654 4.492 -0.232317 0
M  V30 2995 C 294.973 4.01612 1.79989 0
M  V30 2996 H 292.092 0.718204 0.165383 0
M  V30 2997 H 294.734 1.88042 -0.272038 0
M  V30 2998 H 292.884 3.56095 1.55333 0
M  V30 2999 H 294.556 4.53027 -0.86972 0
M  V30 3000 H 292.799 4.24657 -0.885928 0
M  V30 3001 H 293.47 5.51823 0.139796 0
M  V30 3002 H 295.946 3.96097 1.27461 0
M  V30 3003 H 294.822 5.07195 2.09867 0
M  V30 3004 H 295.083 3.46163 2.74998 0
M  V30 3005 N 294.142 -0.090211 1.57342 0
M  V30 3006 C 295.388 -0.788838 1.8748 0
M  V30 3007 C 295.743 -1.76105 0.7749 0
M  V30 3008 O 295.036 -1.90302 -0.222663 0
M  V30 3009 C 295.23 -1.55222 3.21933 0
M  V30 3010 C 295.059 -0.655441 4.44898 0
M  V30 3011 C 293.829 -0.299325 5.04413 0
M  V30 3012 C 296.027 0.0397458 5.14285 0
M  V30 3013 N 294.009 0.605108 6.10911 0
M  V30 3014 C 295.38 0.802061 6.1479 0
M  V30 3015 C 297.435 0.113154 4.97771 0
M  V30 3016 C 296.138 1.63093 7.00566 0
M  V30 3017 C 298.164 0.928942 5.84059 0
M  V30 3018 C 297.526 1.67936 6.84088 0
M  V30 3019 H 293.625 -0.26467 0.735849 0
M  V30 3020 H 296.209 -0.0511453 1.94633 0
M  V30 3021 H 294.38 -2.26076 3.15823 0
M  V30 3022 H 296.112 -2.19843 3.39781 0
M  V30 3023 H 292.867 -0.648079 4.69145 0
M  V30 3024 H 293.291 1.05002 6.68808 0
M  V30 3025 H 297.933 -0.452676 4.2037 0
M  V30 3026 H 295.651 2.20781 7.77355 0
M  V30 3027 H 299.237 0.988478 5.73341 0
M  V30 3028 H 298.117 2.30044 7.49699 0
M  V30 3029 N 295.62 -1.53406 -0.361157 0
M  V30 3030 C 296.868 -1.69467 -1.10115 0
M  V30 3031 C 297.189 -0.451352 -1.89705 0
M  V30 3032 O 296.459 0.534636 -1.88463 0
M  V30 3033 H 295.039 -0.624749 -0.409508 0
M  V30 3034 H 297.701 -1.90609 -0.406699 0
M  V30 3035 H 296.797 -2.55774 -1.78847 0
M  V30 3036 N 297.098 0.621204 -1.44841 0
M  V30 3037 C 298.347 1.37658 -1.47422 0
M  V30 3038 C 298.66 1.95264 -0.114629 0
M  V30 3039 O 299.866 2.71494 -0.0180199 0
M  V30 3040 C 298.322 2.49285 -2.59586 0
M  V30 3041 C 297.93 1.98149 -4.01797 0
M  V30 3042 C 299.674 3.26409 -2.71399 0
M  V30 3043 C 297.581 3.07178 -5.05367 0
M  V30 3044 H 296.511 0.517344 -0.548517 0
M  V30 3045 H 299.162 0.667257 -1.70938 0
M  V30 3046 H 297.544 3.22839 -2.29328 0
M  V30 3047 H 298.718 1.31395 -4.41669 0
M  V30 3048 H 297.033 1.33812 -3.94314 0
M  V30 3049 H 299.63 4.07706 -3.45948 0
M  V30 3050 H 299.973 3.76535 -1.77559 0
M  V30 3051 H 300.506 2.5995 -3.01116 0
M  V30 3052 H 297.245 2.61985 -6.00869 0
M  V30 3053 H 296.765 3.72542 -4.70077 0
M  V30 3054 H 298.444 3.71789 -5.29511 0
M  V30 3055 N 298.576 1.31904 0.862503 0
M  V30 3056 C 299.486 1.22161 2.00285 0
M  V30 3057 C 300.502 0.136785 1.73462 0
M  V30 3058 O 301.678 0.355994 1.98229 0
M  V30 3059 C 298.743 0.937093 3.33796 0
M  V30 3060 C 297.804 2.10957 3.73893 0
M  V30 3061 C 297.037 1.83853 5.01033 0
M  V30 3062 O 297.26 0.777274 5.65079 0
M  V30 3063 O 296.194 2.69741 5.38074 0
M  V30 3064 H 300.02 2.18008 2.11439 0
M  V30 3065 H 297.605 1.11716 0.991957 0
M  V30 3066 H 299.487 0.794583 4.13841 0
M  V30 3067 H 298.162 0.00871894 3.23699 0
M  V30 3068 H 297.069 2.30752 2.94456 0
M  V30 3069 H 298.402 3.02046 3.88625 0
M  V30 3070 N 300.054 -1.07777 1.14986 0
M  V30 3071 C 301.302 -1.79934 0.920235 0
M  V30 3072 C 301.623 -1.86955 -0.554336 0
M  V30 3073 O 300.893 -1.36731 -1.40291 0
M  V30 3074 H 299.473 -0.666424 0.337473 0
M  V30 3075 H 302.135 -1.3027 1.44968 0
M  V30 3076 H 301.231 -2.82539 1.32583 0
M  V30 3077 N 301.532 -0.945985 -1.26051 0
M  V30 3078 C 302.943 -0.638096 -1.75457 0
M  V30 3079 C 303.294 0.846672 -1.76991 0
M  V30 3080 O 302.419 1.66262 -1.38513 0
M  V30 3081 C 303.014 -1.15157 -3.18629 0
M  V30 3082 C 301.573 -0.894004 -3.65629 0
M  V30 3083 C 300.72 -1.29967 -2.44957 0
M  V30 3084 H 303.671 -1.12376 -1.1206 0
M  V30 3085 H 303.692 -0.507615 -3.77099 0
M  V30 3086 H 303.204 -2.23222 -3.1748 0
M  V30 3087 H 301.305 0.172057 -3.72203 0
M  V30 3088 H 301.418 -1.52439 -4.54202 0
M  V30 3089 H 299.782 -0.718078 -2.44368 0
M  V30 3090 H 300.565 -2.38935 -2.46505 0
M  V30 3091 N 303.011 1.40521 -0.713556 0
M  V30 3092 C 304.26 2.00155 -0.249192 0
M  V30 3093 C 304.573 1.57224 1.16362 0
M  V30 3094 O 305.779 2.09542 1.72639 0
M  V30 3095 C 304.235 3.5773 -0.3946 0
M  V30 3096 C 303.843 4.09635 -1.81392 0
M  V30 3097 C 305.587 4.24499 0.00907364 0
M  V30 3098 C 303.494 5.59707 -1.91003 0
M  V30 3099 H 302.424 0.74868 -0.0894114 0
M  V30 3100 H 305.075 1.60784 -0.884352 0
M  V30 3101 H 303.457 3.94792 0.30911 0
M  V30 3102 H 304.631 3.83955 -2.54785 0
M  V30 3103 H 302.946 3.55456 -2.16888 0
M  V30 3104 H 305.543 5.34683 -0.0420404 0
M  V30 3105 H 305.886 4.02824 1.05065 0
M  V30 3106 H 306.419 3.92536 -0.645007 0
M  V30 3107 H 303.158 5.86234 -2.93275 0
M  V30 3108 H 302.678 5.87258 -1.22019 0
M  V30 3109 H 304.357 6.24776 -1.6812 0
M  V30 3110 N 304.489 0.459591 1.5075 0
M  V30 3111 C 305.766 -0.160371 1.94941 0
M  V30 3112 C 306.146 -1.58048 1.39943 0
M  V30 3113 O 305.494 -2.206 0.595629 0
M  V30 3114 C 305.704 -0.115432 3.48809 0
M  V30 3115 C 307.052 -0.310026 4.23467 0
M  V30 3116 O 308.076 -0.192543 3.55679 0
M  V30 3117 O 306.935 -0.546031 5.43765 0
M  V30 3118 H 304.029 -0.117925 0.818549 0
M  V30 3119 H 306.575 0.519169 1.61563 0
M  V30 3120 H 305.347 0.87652 3.81357 0
M  V30 3121 H 304.97 -0.836928 3.88692 0
M  V30 3122 N 305.967 -1.56429 0.191757 0
M  V30 3123 C 306.93 -2.17707 -0.716688 0
M  V30 3124 C 307.93 -1.13061 -1.14341 0
M  V30 3125 O 309.12 -1.38464 -1.05704 0
M  V30 3126 C 306.252 -2.77644 -1.97804 0
M  V30 3127 H 307.445 -2.99342 -0.1829 0
M  V30 3128 H 304.998 -1.56193 -0.0578566 0
M  V30 3129 H 305.733 -1.99799 -2.55443 0
M  V30 3130 H 305.518 -3.54246 -1.68083 0
M  V30 3131 H 307.008 -3.24708 -2.62592 0
M  V30 3132 N 307.445 0.0818655 -1.57387 0
M  V30 3133 C 308.408 1.08265 -2.02018 0
M  V30 3134 C 309.408 1.32183 -0.915664 0
M  V30 3135 O 310.598 1.28073 -1.18081 0
M  V30 3136 C 307.73 2.42871 -2.39221 0
M  V30 3137 H 308.923 0.698204 -2.91659 0
M  V30 3138 H 306.476 0.327303 -1.52835 0
M  V30 3139 H 307.211 2.86167 -1.52575 0
M  V30 3140 H 306.996 2.26855 -3.19811 0
M  V30 3141 H 308.486 3.14826 -2.74362 0
M  V30 3142 N 308.923 1.53595 0.353017 0
M  V30 3143 C 310.17 1.70385 1.09431 0
M  V30 3144 C 310.498 0.462113 1.88931 0
M  V30 3145 O 309.753 -0.556074 1.87633 0
M  V30 3146 C 310.052 2.91313 2.07054 0
M  V30 3147 C 309.718 4.27308 1.43939 0
M  V30 3148 C 308.38 4.64287 1.26454 0
M  V30 3149 C 310.732 5.11829 0.983883 0
M  V30 3150 C 308.06 5.83412 0.620226 0
M  V30 3151 C 310.412 6.31611 0.353516 0
M  V30 3152 C 309.076 6.67293 0.166272 0
M  V30 3153 H 308.346 0.623484 0.400436 0
M  V30 3154 H 310.993 1.87799 0.374655 0
M  V30 3155 H 309.298 2.68463 2.85368 0
M  V30 3156 H 310.995 3.01497 2.64387 0
M  V30 3157 H 307.585 3.98198 1.58543 0
M  V30 3158 H 311.769 4.838 1.10685 0
M  V30 3159 H 307.025 6.09639 0.463681 0
M  V30 3160 H 311.199 6.964 -0.00757555 0
M  V30 3161 H 308.826 7.59461 -0.335047 0
M  V30 3162 N 310.401 -0.613514 1.45168 0
M  V30 3163 C 311.629 -1.39946 1.5239 0
M  V30 3164 C 312.044 -1.88167 0.154531 0
M  V30 3165 O 311.401 -1.61872 -0.842843 0
M  V30 3166 C 311.452 -2.60795 2.50337 0
M  V30 3167 O 311.173 -2.1458 3.81952 0
M  V30 3168 C 312.674 -3.53723 2.67198 0
M  V30 3169 H 309.894 -0.428593 0.516284 0
M  V30 3170 H 312.438 -0.748753 1.903 0
M  V30 3171 H 310.593 -3.21919 2.15515 0
M  V30 3172 H 311.007 -2.93055 4.34993 0
M  V30 3173 H 312.481 -4.35079 3.39721 0
M  V30 3174 H 312.958 -4.0368 1.73029 0
M  V30 3175 H 313.564 -2.98456 3.02992 0
M  V30 3176 N 311.879 -1.3236 -0.855495 0
M  V30 3177 C 313.295 -1.11332 -1.14356 0
M  V30 3178 C 313.495 0.106751 -2.01217 0
M  V30 3179 O 312.551 0.791891 -2.39761 0
M  V30 3180 C 313.864 -2.39237 -1.82171 0
M  V30 3181 C 315.412 -2.44986 -1.9481 0
M  V30 3182 C 315.887 -3.7281 -2.66039 0
M  V30 3183 N 317.378 -3.73787 -2.73565 0
M  V30 3184 C 318.113 -4.69394 -3.29327 0
M  V30 3185 N 317.609 -5.75367 -3.85907 0
M  V30 3186 N 319.402 -4.56893 -3.27423 0
M  V30 3187 H 311.553 -2.10586 -0.277027 0
M  V30 3188 H 313.816 -0.929701 -0.185364 0
M  V30 3189 H 313.522 -3.28431 -1.25802 0
M  V30 3190 H 313.396 -2.50134 -2.82335 0
M  V30 3191 H 315.783 -1.56252 -2.50338 0
M  V30 3192 H 315.864 -2.38043 -0.936448 0
M  V30 3193 H 315.508 -4.61918 -2.11174 0
M  V30 3194 H 315.438 -3.77024 -3.67642 0
M  V30 3195 H 317.929 -2.97189 -2.33424 0
M  V30 3196 H 318.242 -6.44378 -4.26611 0
M  V30 3197 H 316.587 -5.79123 -3.84242 0
M  V30 3198 H 319.778 -3.73269 -2.82467 0
M  V30 3199 H 319.951 -5.31577 -3.7058 0
M  V30 3200 N 313.357 1.07166 -1.15556 0
M  V30 3201 C 314.606 1.79181 -0.926132 0
M  V30 3202 C 314.919 1.87768 0.547967 0
M  V30 3203 O 316.125 2.56323 0.895036 0
M  V30 3204 C 314.581 3.22 -1.60761 0
M  V30 3205 C 314.189 3.21607 -3.11886 0
M  V30 3206 C 315.933 3.9861 -1.4598 0
M  V30 3207 C 313.84 4.59092 -3.72812 0
M  V30 3208 H 312.77 0.67154 -0.342856 0
M  V30 3209 H 315.421 1.2027 -1.3859 0
M  V30 3210 H 313.803 3.81115 -1.07553 0
M  V30 3211 H 314.977 2.72127 -3.71865 0
M  V30 3212 H 313.292 2.58495 -3.2645 0
M  V30 3213 H 315.889 5.00225 -1.88888 0
M  V30 3214 H 316.232 4.143 -0.407541 0
M  V30 3215 H 316.765 3.45996 -1.96295 0
M  V30 3216 H 313.504 4.48606 -4.77946 0
M  V30 3217 H 313.024 5.08803 -3.17616 0
M  V30 3218 H 314.703 5.28059 -3.73848 0
M  V30 3219 N 314.835 0.952656 1.25548 0
M  V30 3220 C 315.783 0.462354 2.27958 0
M  V30 3221 C 316.777 -0.46634 1.62855 0
M  V30 3222 O 317.983 -0.343287 1.76696 0
M  V30 3223 H 314.358 0.13101 0.7405 0
M  V30 3224 H 316.329 1.33839 2.66702 0
M  V30 3225 C 315.078 -0.24628 3.46827 0
M  V30 3226 H 314.401 0.459192 3.97154 0
M  V30 3227 H 315.841 -0.553393 4.20373 0
M  V30 3228 C 314.3 -1.4681 3.0323 0
M  V30 3229 O 314.83 -2.56591 3.09069 0
M  V30 3230 N 313.036 -1.32874 2.58443 0
M  V30 3231 H 312.583 -0.435536 2.53891 0
M  V30 3232 H 312.541 -2.14742 2.29637 0
M  V30 3233 N 316.313 -1.40141 0.720998 0
M  V30 3234 C 317.553 -2.02644 0.267335 0
M  V30 3235 C 317.917 -1.55948 -1.12001 0
M  V30 3236 O 319.118 -2.10552 -1.67097 0
M  V30 3237 C 317.389 -3.55679 0.350281 0
M  V30 3238 S 318.948 -4.38793 -0.0256004 0
M  V30 3239 H 315.766 -0.703105 0.105664 0
M  V30 3240 H 318.368 -1.71175 0.944416 0
M  V30 3241 H 317.072 -3.87157 1.36153 0
M  V30 3242 H 316.603 -3.91883 -0.345096 0
M  V30 3243 H 318.618 -4.803 -1.24604 0
M  V30 3244 N 317.792 -0.46758 -1.50504 0
M  V30 3245 C 318.724 0.364655 -2.26281 0
M  V30 3246 C 319.737 0.960151 -1.31472 0
M  V30 3247 O 320.926 0.849153 -1.57008 0
M  V30 3248 C 318.026 1.52509 -3.02645 0
M  V30 3249 C 317.199 1.04302 -4.24782 0
M  V30 3250 C 316.258 2.07709 -4.8347 0
M  V30 3251 O 315.284 1.65913 -5.44483 0
M  V30 3252 N 316.486 3.40485 -4.70159 0
M  V30 3253 H 319.251 -0.28495 -2.98342 0
M  V30 3254 H 316.812 -0.298163 -1.59131 0
M  V30 3255 H 318.804 2.21371 -3.38787 0
M  V30 3256 H 317.374 2.07945 -2.33404 0
M  V30 3257 H 316.594 0.180393 -3.93787 0
M  V30 3258 H 317.882 0.698798 -5.03978 0
M  V30 3259 H 317.28 3.77155 -4.21629 0
M  V30 3260 H 315.837 4.05156 -5.1058 0
M  V30 3261 N 319.27 1.56325 -0.20005 0
M  V30 3262 C 320.518 1.97329 0.436547 0
M  V30 3263 C 320.839 1.08826 1.61808 0
M  V30 3264 O 320.109 0.160604 1.95241 0
M  V30 3265 H 318.689 0.728714 0.164272 0
M  V30 3266 H 321.351 1.92761 -0.287937 0
M  V30 3267 H 320.447 3.02264 0.777353 0
M  V30 3268 N 320.748 -0.0735177 1.57428 0
M  V30 3269 C 321.695 -1.08756 2.0357 0
M  V30 3270 C 322.665 -1.38559 0.916 0
M  V30 3271 O 323.85 -1.49656 1.18354 0
M  V30 3272 C 320.99 -2.39657 2.48311 0
M  V30 3273 C 320.103 -2.16399 3.73892 0
M  V30 3274 C 319.238 -3.40852 4.07423 0
M  V30 3275 C 318.277 -3.1295 5.2605 0
M  V30 3276 N 317.414 -4.29729 5.55228 0
M  V30 3277 H 322.254 -0.687104 2.8997 0
M  V30 3278 H 319.791 -0.327709 1.43403 0
M  V30 3279 H 321.749 -3.16081 2.72303 0
M  V30 3280 H 320.379 -2.77508 1.64891 0
M  V30 3281 H 319.431 -1.30676 3.57251 0
M  V30 3282 H 320.743 -1.91788 4.60455 0
M  V30 3283 H 319.897 -4.25671 4.32306 0
M  V30 3284 H 318.636 -3.68537 3.19425 0
M  V30 3285 H 317.641 -2.26526 5.00965 0
M  V30 3286 H 318.866 -2.86589 6.15665 0
M  V30 3287 H 316.812 -4.57448 4.70188 0
M  V30 3288 H 316.729 -4.08385 6.36206 0
M  V30 3289 H 317.997 -5.1555 5.84661 0
M  V30 3290 N 322.226 -1.5378 -0.344866 0
M  V30 3291 C 323.454 -1.74899 -1.10534 0
M  V30 3292 C 323.869 -0.487534 -1.82397 0
M  V30 3293 O 323.226 0.540741 -1.74305 0
M  V30 3294 C 323.277 -2.92822 -2.11984 0
M  V30 3295 O 322.998 -4.14089 -1.43044 0
M  V30 3296 C 324.499 -3.25982 -3.00417 0
M  V30 3297 H 321.719 -0.584426 -0.329678 0
M  V30 3298 H 324.263 -2.006 -0.397474 0
M  V30 3299 H 322.418 -2.69457 -2.78338 0
M  V30 3300 H 322.832 -4.80272 -2.10805 0
M  V30 3301 H 324.306 -4.11848 -3.67539 0
M  V30 3302 H 324.783 -2.42228 -3.66363 0
M  V30 3303 H 325.389 -3.51349 -2.39654 0
M  V30 3304 N 323.704 0.605807 -1.45491 0
M  V30 3305 C 324.934 1.38934 -1.52908 0
M  V30 3306 C 325.342 1.88513 -0.161086 0
M  V30 3307 O 324.685 1.62962 0.847891 0
M  V30 3308 C 324.747 2.62737 -2.45376 0
M  V30 3309 C 324.411 2.34785 -3.92078 0
M  V30 3310 C 325.408 1.95038 -4.8193 0
M  V30 3311 C 323.093 2.47642 -4.37011 0
M  V30 3312 C 325.087 1.68511 -6.14722 0
M  V30 3313 C 322.774 2.20728 -5.69844 0
M  V30 3314 C 323.772 1.81225 -6.58519 0
M  V30 3315 O 323.46 1.54627 -7.88889 0
M  V30 3316 H 323.192 0.431629 -0.520262 0
M  V30 3317 H 325.746 0.74573 -1.91384 0
M  V30 3318 H 323.976 3.29824 -2.01874 0
M  V30 3319 H 325.665 3.24783 -2.43456 0
M  V30 3320 H 326.431 1.84639 -4.48479 0
M  V30 3321 H 322.31 2.77356 -3.68232 0
M  V30 3322 H 325.854 1.37602 -6.83894 0
M  V30 3323 H 321.751 2.30744 -6.02849 0
M  V30 3324 H 322.519 1.68665 -8.00933 0
M  V30 3325 N 325.182 1.32811 0.848464 0
M  V30 3326 C 326.112 1.24882 1.97299 0
M  V30 3327 C 327.093 0.131357 1.69592 0
M  V30 3328 O 328.278 0.319553 1.91553 0
M  V30 3329 C 325.408 0.97746 3.33261 0
M  V30 3330 C 324.362 2.05682 3.75338 0
M  V30 3331 C 323.688 1.63777 5.09 0
M  V30 3332 C 324.988 3.47254 3.90144 0
M  V30 3333 H 326.682 2.18966 2.04191 0
M  V30 3334 H 324.228 1.05413 0.981029 0
M  V30 3335 H 326.181 0.908513 4.1149 0
M  V30 3336 H 324.905 0.000980011 3.266 0
M  V30 3337 H 323.564 2.11603 2.99366 0
M  V30 3338 H 323.212 0.648569 4.98801 0
M  V30 3339 H 322.912 2.36 5.38124 0
M  V30 3340 H 324.436 1.5833 5.89715 0
M  V30 3341 H 325.85 3.43888 4.58709 0
M  V30 3342 H 324.247 4.1788 4.30693 0
M  V30 3343 H 325.317 3.86462 2.92874 0
M  V30 3344 N 326.66 -1.06551 1.16123 0
M  V30 3345 C 327.907 -1.79302 0.941126 0
M  V30 3346 C 328.235 -1.87105 -0.531235 0
M  V30 3347 O 327.49 -1.35692 -1.41018 0
M  V30 3348 C 327.789 -3.23911 1.51052 0
M  V30 3349 C 327.455 -3.36193 3.00475 0
M  V30 3350 C 326.117 -3.39252 3.41265 0
M  V30 3351 C 328.469 -3.38326 3.96465 0
M  V30 3352 C 325.797 -3.42057 4.76669 0
M  V30 3353 C 328.149 -3.4267 5.31752 0
M  V30 3354 C 326.813 -3.4401 5.72026 0
M  V30 3355 H 326.083 -0.656111 0.344382 0
M  V30 3356 H 328.73 -1.25325 1.44796 0
M  V30 3357 H 327.035 -3.80723 0.925063 0
M  V30 3358 H 328.732 -3.78793 1.31593 0
M  V30 3359 H 325.322 -3.34516 2.6795 0
M  V30 3360 H 329.506 -3.35176 3.6602 0
M  V30 3361 H 324.762 -3.41398 5.07206 0
M  V30 3362 H 328.936 -3.43268 6.05921 0
M  V30 3363 H 326.563 -3.45937 6.76928 0
M  V30 3364 N 328.138 -0.959301 -1.25041 0
M  V30 3365 C 329.085 -0.482057 -2.2571 0
M  V30 3366 C 330.055 0.467939 -1.59372 0
M  V30 3367 O 331.24 0.380159 -1.86974 0
M  V30 3368 C 328.38 0.229623 -3.44335 0
M  V30 3369 C 327.493 -0.758156 -4.25295 0
M  V30 3370 C 326.628 -0.0234403 -5.31195 0
M  V30 3371 C 325.667 -1.00184 -6.03846 0
M  V30 3372 N 324.804 -0.29769 -7.01469 0
M  V30 3373 H 329.644 -1.34538 -2.65901 0
M  V30 3374 H 327.181 -0.674592 -1.3072 0
M  V30 3375 H 329.139 0.658856 -4.11965 0
M  V30 3376 H 327.769 1.05696 -3.05005 0
M  V30 3377 H 326.821 -1.30586 -3.57284 0
M  V30 3378 H 328.133 -1.50458 -4.75567 0
M  V30 3379 H 327.287 0.464201 -6.04922 0
M  V30 3380 H 326.026 0.755741 -4.81809 0
M  V30 3381 H 325.031 -1.50044 -5.2893 0
M  V30 3382 H 326.256 -1.78133 -6.55321 0
M  V30 3383 H 324.202 0.462668 -6.54366 0
M  V30 3384 H 324.119 -0.983128 -7.4958 0
M  V30 3385 H 325.387 0.16826 -7.79318 0
M  V30 3386 N 329.616 1.39756 -0.72842 0
M  V30 3387 C 330.864 2.00248 -0.272946 0
M  V30 3388 C 331.185 1.58077 1.14178 0
M  V30 3389 O 330.455 0.826014 1.77634 0
M  V30 3390 H 329.035 0.740554 -0.0979247 0
M  V30 3391 H 331.697 1.70903 -0.936912 0
M  V30 3392 H 330.793 3.10495 -0.316142 0
M  V30 3393 N 331.094 0.475555 1.50254 0
M  V30 3394 C 332.319 -0.0777042 2.07254 0
M  V30 3395 C 332.744 -1.3235 1.3366 0
M  V30 3396 O 332.102 -1.77152 0.385597 0
M  V30 3397 C 332.15 -0.340169 3.58992 0
M  V30 3398 O 331.254 -1.41982 3.87188 0
M  V30 3399 H 330.595 0.0149556 0.663832 0
M  V30 3400 H 333.125 0.667878 1.93392 0
M  V30 3401 H 333.135 -0.579332 4.03866 0
M  V30 3402 H 331.81 0.570167 4.11973 0
M  V30 3403 H 330.387 -1.16762 3.54148 0
M  V30 3404 N 332.573 -1.56217 0.208337 0
M  V30 3405 C 333.505 -2.1695 -0.739276 0
M  V30 3406 C 334.518 -1.13492 -1.1672 0
M  V30 3407 O 335.707 -1.40529 -1.10063 0
M  V30 3408 C 332.807 -2.72755 -2.01142 0
M  V30 3409 C 331.98 -4.0125 -1.74118 0
M  V30 3410 C 331.039 -4.41749 -2.85909 0
M  V30 3411 O 330.065 -5.08912 -2.54946 0
M  V30 3412 N 331.267 -4.06342 -4.14568 0
M  V30 3413 H 334.032 -2.98893 -0.219837 0
M  V30 3414 H 331.593 -1.61878 0.0268445 0
M  V30 3415 H 333.585 -2.96826 -2.75094 0
M  V30 3416 H 332.155 -1.95191 -2.4417 0
M  V30 3417 H 331.375 -3.85173 -0.838775 0
M  V30 3418 H 332.663 -4.851 -1.53477 0
M  V30 3419 H 332.061 -3.52345 -4.42571 0
M  V30 3420 H 330.618 -4.35335 -4.85105 0
M  V30 3421 N 334.051 0.0651679 -1.57465 0
M  V30 3422 C 335.281 0.774683 -1.91526 0
M  V30 3423 C 335.689 1.71305 -0.803196 0
M  V30 3424 O 335.032 1.82231 0.231881 0
M  V30 3425 C 335.094 1.61645 -3.21109 0
M  V30 3426 C 334.758 0.846753 -4.49087 0
M  V30 3427 C 335.755 0.163024 -5.19644 0
M  V30 3428 C 333.44 0.811966 -4.95694 0
M  V30 3429 C 335.434 -0.54519 -6.35064 0
M  V30 3430 C 333.121 0.0999836 -6.11018 0
M  V30 3431 C 334.119 -0.577388 -6.80555 0
M  V30 3432 O 333.807 -1.27789 -7.93678 0
M  V30 3433 H 333.539 0.225031 -0.637446 0
M  V30 3434 H 336.093 0.0377134 -2.05365 0
M  V30 3435 H 334.323 2.39638 -3.03497 0
M  V30 3436 H 336.012 2.20525 -3.40769 0
M  V30 3437 H 336.778 0.181163 -4.84662 0
M  V30 3438 H 332.657 1.32867 -4.41438 0
M  V30 3439 H 336.201 -1.07446 -6.89276 0
M  V30 3440 H 332.098 0.0797945 -6.45451 0
M  V30 3441 H 332.866 -1.18784 -8.09835 0
M  V30 3442 N 335.529 1.53961 0.336706 0
M  V30 3443 C 336.775 1.7273 1.07406 0
M  V30 3444 C 337.13 0.488095 1.86106 0
M  V30 3445 O 336.423 -0.519379 1.84426 0
M  V30 3446 C 336.617 2.93493 2.03953 0
M  V30 3447 C 336.446 4.29039 1.34744 0
M  V30 3448 C 335.216 4.93416 1.08942 0
M  V30 3449 C 337.414 5.08501 0.770115 0
M  V30 3450 N 335.396 6.12821 0.363864 0
M  V30 3451 C 336.767 6.19752 0.175472 0
M  V30 3452 C 338.822 4.93349 0.671633 0
M  V30 3453 C 337.525 7.17503 -0.508081 0
M  V30 3454 C 339.551 5.914 0.0018076 0
M  V30 3455 C 338.913 7.01993 -0.581835 0
M  V30 3456 H 335.012 0.685026 0.377177 0
M  V30 3457 H 337.596 1.91403 0.356815 0
M  V30 3458 H 335.767 2.76308 2.72962 0
M  V30 3459 H 337.499 3.00949 2.70577 0
M  V30 3460 H 334.254 4.53099 1.37833 0
M  V30 3461 H 334.678 6.76998 0.0156092 0
M  V30 3462 H 339.32 4.08007 1.1086 0
M  V30 3463 H 337.038 8.02414 -0.956918 0
M  V30 3464 H 340.624 5.81753 -0.0738538 0
M  V30 3465 H 339.504 7.76561 -1.09192 0
M  V30 3466 N 337.007 -0.598083 1.45811 0
M  V30 3467 C 338.423 -0.919847 1.30426 0
M  V30 3468 C 338.623 -1.99759 0.264303 0
M  V30 3469 O 337.679 -2.50221 -0.338472 0
M  V30 3470 C 338.992 -1.35176 2.68603 0
M  V30 3471 C 340.54 -1.46546 2.76574 0
M  V30 3472 C 341.015 -1.9311 4.15298 0
M  V30 3473 N 342.506 -2.00328 4.1764 0
M  V30 3474 C 343.241 -2.37599 5.21856 0
M  V30 3475 N 342.737 -2.73771 6.36413 0
M  V30 3476 N 344.53 -2.38021 5.09218 0
M  V30 3477 H 336.681 0.114111 2.12093 0
M  V30 3478 H 338.944 -0.0116121 0.947929 0
M  V30 3479 H 338.65 -0.633969 3.45939 0
M  V30 3480 H 338.524 -2.3164 2.97696 0
M  V30 3481 H 340.911 -2.17415 1.99537 0
M  V30 3482 H 340.992 -0.483727 2.51185 0
M  V30 3483 H 340.636 -1.22824 4.92825 0
M  V30 3484 H 340.566 -2.92213 4.38086 0
M  V30 3485 H 343.057 -1.74925 3.34977 0
M  V30 3486 H 343.37 -3.0112 7.11721 0
M  V30 3487 H 341.715 -2.71445 6.39799 0
M  V30 3488 H 344.906 -2.09174 4.18765 0
M  V30 3489 H 345.079 -2.66741 5.90554 0
M  V30 3490 N 338.485 -1.33259 -0.841409 0
M  V30 3491 C 339.732 -1.24572 -1.5965 0
M  V30 3492 C 340.06 0.189137 -1.93578 0
M  V30 3493 O 339.315 1.14566 -1.5866 0
M  V30 3494 C 339.614 -2.06381 -2.9179 0
M  V30 3495 C 339.28 -3.556 -2.77235 0
M  V30 3496 C 337.942 -3.96282 -2.72973 0
M  V30 3497 C 340.294 -4.50433 -2.62221 0
M  V30 3498 C 337.622 -5.30017 -2.51592 0
M  V30 3499 C 339.974 -5.84327 -2.42374 0
M  V30 3500 C 338.638 -6.24194 -2.36512 0
M  V30 3501 H 337.908 -0.455842 -0.5842 0
M  V30 3502 H 340.555 -1.6482 -0.975016 0
M  V30 3503 H 338.86 -1.58903 -3.5813 0
M  V30 3504 H 340.557 -1.97019 -3.49263 0
M  V30 3505 H 337.147 -3.23298 -2.81384 0
M  V30 3506 H 341.331 -4.19914 -2.64549 0
M  V30 3507 H 336.587 -5.59947 -2.45499 0
M  V30 3508 H 340.761 -6.57414 -2.29739 0
M  V30 3509 H 338.388 -7.27759 -2.19706 0
M  V30 3510 N 339.963 1.05934 -1.16686 0
M  V30 3511 C 340.873 2.17014 -0.891183 0
M  V30 3512 C 341.889 1.73453 0.137907 0
M  V30 3513 O 343.065 2.01361 -0.039592 0
M  V30 3514 C 340.13 3.44384 -0.400099 0
M  V30 3515 C 339.191 4.02433 -1.49486 0
M  V30 3516 C 338.424 5.23723 -1.02711 0
M  V30 3517 O 338.647 5.7027 0.121716 0
M  V30 3518 O 337.581 5.7382 -1.81699 0
M  V30 3519 H 341.407 2.43113 -1.82015 0
M  V30 3520 H 338.992 1.15541 -0.947132 0
M  V30 3521 H 340.874 4.21189 -0.133392 0
M  V30 3522 H 339.549 3.19802 0.500817 0
M  V30 3523 H 338.456 3.27102 -1.81535 0
M  V30 3524 H 339.789 4.31317 -2.37121 0
M  V30 3525 N 341.441 0.965919 1.2453 0
M  V30 3526 C 342.718 0.543777 1.87889 0
M  V30 3527 C 343.098 -0.97909 1.87021 0
M  V30 3528 O 342.446 -1.84969 1.3416 0
M  V30 3529 C 342.656 1.13327 3.30088 0
M  V30 3530 C 344.004 1.21707 4.06783 0
M  V30 3531 O 345.028 1.08566 3.39252 0
M  V30 3532 O 343.887 1.42456 5.27606 0
M  V30 3533 H 340.981 0.181054 0.806938 0
M  V30 3534 H 343.527 1.06007 1.32516 0
M  V30 3535 H 342.299 2.17612 3.25209 0
M  V30 3536 H 341.922 0.600911 3.93033 0
M  V30 3537 N 342.919 -1.39368 0.735821 0
M  V30 3538 C 344.167 -2.00101 0.283562 0
M  V30 3539 C 344.488 -1.5868 -1.13338 0
M  V30 3540 O 343.758 -0.835423 -1.77193 0
M  V30 3541 H 342.338 -0.740024 0.101851 0
M  V30 3542 H 345 -1.70404 0.945962 0
M  V30 3543 H 344.096 -3.10323 0.332604 0
M  V30 3544 N 344.397 -0.483516 -1.5 0
M  V30 3545 C 345.643 0.0672592 -2.02688 0
M  V30 3546 C 345.976 1.38247 -1.36387 0
M  V30 3547 O 345.251 1.88131 -0.493675 0
M  V30 3548 C 345.534 0.238109 -3.59312 0
M  V30 3549 C 345.387 -1.099 -4.36168 0
M  V30 3550 C 346.706 0.986916 -4.28892 0
M  V30 3551 H 343.825 0.0229696 -0.736642 0
M  V30 3552 H 346.467 -0.631527 -1.79197 0
M  V30 3553 H 344.617 0.8333 -3.79458 0
M  V30 3554 H 346.289 -1.73172 -4.27562 0
M  V30 3555 H 344.532 -1.69261 -3.99416 0
M  V30 3556 H 345.203 -0.932954 -5.44059 0
M  V30 3557 H 347.679 0.482302 -4.13295 0
M  V30 3558 H 346.555 1.07527 -5.38265 0
M  V30 3559 H 346.816 2.0265 -3.92919 0
M  V30 3560 N 345.875 1.56104 -0.216619 0
M  V30 3561 C 346.805 2.23063 0.690296 0
M  V30 3562 C 347.786 1.20072 1.20485 0
M  V30 3563 O 348.971 1.48643 1.24976 0
M  V30 3564 C 346.101 2.90672 1.90072 0
M  V30 3565 C 345.055 4.00092 1.5202 0
M  V30 3566 C 344.381 4.54972 2.80899 0
M  V30 3567 C 345.681 5.17398 0.71391 0
M  V30 3568 H 347.375 2.99109 0.132038 0
M  V30 3569 H 344.921 1.43866 0.0620664 0
M  V30 3570 H 346.874 3.36204 2.54057 0
M  V30 3571 H 345.598 2.12066 2.48386 0
M  V30 3572 H 344.257 3.55283 0.903839 0
M  V30 3573 H 343.905 3.73102 3.37348 0
M  V30 3574 H 343.605 5.28817 2.56176 0
M  V30 3575 H 345.129 5.0322 3.45836 0
M  V30 3576 H 346.543 5.59342 1.25735 0
M  V30 3577 H 344.94 5.97444 0.563951 0
M  V30 3578 H 346.01 4.84088 -0.280527 0
M  V30 3579 N 347.353 -0.0568162 1.57498 0
M  V30 3580 C 348.63 -0.786954 1.79071 0
M  V30 3581 C 349.01 -1.95028 0.80792 0
M  V30 3582 O 348.358 -2.27968 -0.155858 0
M  V30 3583 C 348.568 -1.24594 3.26002 0
M  V30 3584 C 349.916 -1.67323 3.90241 0
M  V30 3585 O 350.94 -1.34124 3.29984 0
M  V30 3586 O 349.799 -2.28842 4.9628 0
M  V30 3587 H 346.893 -0.378262 0.735423 0
M  V30 3588 H 349.439 -0.035734 1.69662 0
M  V30 3589 H 348.211 -0.41423 3.89101 0
M  V30 3590 H 347.834 -2.05803 3.40192 0
M  V30 3591 N 348.832 -1.54138 -0.328536 0
M  V30 3592 C 350.243 -1.63395 -0.903272 0
M  V30 3593 C 350.594 -0.524828 -1.8905 0
M  V30 3594 O 349.719 0.343068 -2.13663 0
M  V30 3595 C 350.314 -2.9618 -1.64507 0
M  V30 3596 C 348.873 -3.0765 -2.1686 0
M  V30 3597 C 348.02 -2.58933 -0.992416 0
M  V30 3598 H 350.971 -1.58344 -0.106253 0
M  V30 3599 H 350.992 -2.86061 -2.50897 0
M  V30 3600 H 350.504 -3.76884 -0.926302 0
M  V30 3601 H 348.605 -2.31611 -2.91868 0
M  V30 3602 H 348.718 -4.1337 -2.42202 0
M  V30 3603 H 347.082 -2.14706 -1.37016 0
M  V30 3604 H 347.865 -3.42089 -0.288041 0
M  V30 3605 N 350.31 0.590341 -1.46126 0
M  V30 3606 C 351.587 1.35029 -1.41515 0
M  V30 3607 C 351.967 2.10888 -0.0946472 0
M  V30 3608 O 351.315 2.08998 0.923693 0
M  V30 3609 C 351.525 2.28269 -2.63997 0
M  V30 3610 C 352.873 2.90338 -3.09821 0
M  V30 3611 O 353.897 2.38585 -2.64492 0
M  V30 3612 O 352.756 3.84321 -3.88535 0
M  V30 3613 H 349.85 0.606317 -0.562413 0
M  V30 3614 H 352.396 0.611994 -1.58281 0
M  V30 3615 H 351.168 1.71591 -3.51671 0
M  V30 3616 H 350.791 3.0945 -2.49652 0
M  V30 3617 N 351.788 1.33704 0.83433 0
M  V30 3618 C 353.018 1.28281 1.6195 0
M  V30 3619 C 353.426 -0.147603 1.88623 0
M  V30 3620 O 352.769 -1.1016 1.47005 0
M  V30 3621 C 352.831 1.99386 2.99141 0
M  V30 3622 C 352.495 3.48681 2.95416 0
M  V30 3623 C 353.492 4.438 2.70809 0
M  V30 3624 C 351.177 3.90925 3.15409 0
M  V30 3625 C 353.171 5.79138 2.66229 0
M  V30 3626 C 350.858 5.26366 3.10454 0
M  V30 3627 C 351.856 6.20284 2.85895 0
M  V30 3628 O 351.544 7.53245 2.80852 0
M  V30 3629 H 351.276 0.44315 0.510484 0
M  V30 3630 H 353.83 1.76711 1.04702 0
M  V30 3631 H 352.06 1.45554 3.58261 0
M  V30 3632 H 353.749 1.87403 3.60049 0
M  V30 3633 H 354.515 4.12485 2.5511 0
M  V30 3634 H 350.394 3.18229 3.33543 0
M  V30 3635 H 353.938 6.52416 2.4698 0
M  V30 3636 H 349.835 5.57304 3.25703 0
M  V30 3637 H 350.603 7.62846 2.96661 0
M  V30 3638 N 353.266 -1.05314 1.17247 0
M  V30 3639 C 354.677 -1.59753 0.96623 0
M  V30 3640 C 355.028 -1.9005 -0.487378 0
M  V30 3641 O 354.153 -1.68126 -1.36245 0
M  V30 3642 C 354.748 -2.90249 1.74759 0
M  V30 3643 C 353.307 -3.41352 1.58606 0
M  V30 3644 C 352.454 -2.15103 1.75002 0
M  V30 3645 H 355.405 -0.881406 1.31973 0
M  V30 3646 H 355.426 -3.60097 1.22925 0
M  V30 3647 H 354.938 -2.68166 2.8055 0
M  V30 3648 H 353.039 -3.68474 0.552985 0
M  V30 3649 H 353.152 -4.16019 2.37624 0
M  V30 3650 H 351.516 -2.25804 1.17833 0
M  V30 3651 H 352.299 -1.95491 2.82202 0
M  V30 3652 N 354.744 -0.972509 -1.24016 0
M  V30 3653 C 356.16 -0.679827 -1.44397 0
M  V30 3654 C 356.36 0.756716 -1.86751 0
M  V30 3655 O 355.416 1.53007 -2.00861 0
M  V30 3656 C 356.729 -1.66803 -2.50195 0
M  V30 3657 C 358.277 -1.68119 -2.64017 0
M  V30 3658 C 358.752 -2.65748 -3.73017 0
M  V30 3659 N 360.243 -2.64219 -3.8045 0
M  V30 3660 C 360.978 -3.36433 -4.64328 0
M  V30 3661 N 360.474 -4.1818 -5.52356 0
M  V30 3662 N 362.267 -3.25235 -4.58453 0
M  V30 3663 H 354.418 -1.90059 -0.948228 0
M  V30 3664 H 356.681 -0.818527 -0.478245 0
M  V30 3665 H 356.387 -2.69498 -2.25973 0
M  V30 3666 H 356.261 -1.4446 -3.48441 0
M  V30 3667 H 358.648 -0.661319 -2.87594 0
M  V30 3668 H 358.729 -1.94525 -1.66113 0
M  V30 3669 H 358.373 -3.67872 -3.50189 0
M  V30 3670 H 358.303 -2.36619 -4.70446 0
M  V30 3671 H 360.794 -2.04887 -3.17537 0
M  V30 3672 H 361.107 -4.70157 -6.13329 0
M  V30 3673 H 359.452 -4.22273 -5.52006 0
M  V30 3674 H 362.643 -2.60829 -3.88698 0
M  V30 3675 H 362.816 -3.81776 -5.23594 0
M  V30 3676 N 356.222 1.38976 -0.743202 0
M  V30 3677 C 357.17 2.32394 -0.0978389 0
M  V30 3678 C 358.164 1.53486 0.716824 0
M  V30 3679 O 359.37 1.69092 0.617088 0
M  V30 3680 H 355.745 0.75189 -0.0128402 0
M  V30 3681 H 357.716 2.84441 -0.901981 0
M  V30 3682 C 356.465 3.38629 0.789036 0
M  V30 3683 H 355.788 3.99432 0.171559 0
M  V30 3684 H 357.228 4.06426 1.20807 0
M  V30 3685 C 355.687 2.76347 1.92702 0
M  V30 3686 O 356.217 2.64836 3.02034 0
M  V30 3687 N 354.423 2.34311 1.71891 0
M  V30 3688 H 353.97 2.43873 0.829675 0
M  V30 3689 H 353.928 1.9298 2.48205 0
M  V30 3690 N 357.7 0.491464 1.49741 0
M  V30 3691 C 358.949 -0.0582189 2.01616 0
M  V30 3692 C 359.262 -1.38927 1.3769 0
M  V30 3693 O 360.468 -2.02509 1.80838 0
M  V30 3694 C 358.924 -0.154235 3.59569 0
M  V30 3695 C 358.532 1.1696 4.32463 0
M  V30 3696 C 360.276 -0.65479 4.1942 0
M  V30 3697 C 358.183 1.03627 5.8225 0
M  V30 3698 H 357.113 -0.0255317 0.753568 0
M  V30 3699 H 359.764 0.629445 1.72367 0
M  V30 3700 H 358.146 -0.906138 3.85493 0
M  V30 3701 H 359.32 1.93405 4.18248 0
M  V30 3702 H 357.635 1.60285 3.84315 0
M  V30 3703 H 360.232 -0.771903 5.29099 0
M  V30 3704 H 360.575 -1.65127 3.8215 0
M  V30 3705 H 361.108 0.040304 3.9778 0
M  V30 3706 H 357.847 2.00672 6.24028 0
M  V30 3707 H 357.367 0.312546 5.98985 0
M  V30 3708 H 359.046 0.711114 6.4308 0
M  V30 3709 N 359.178 -1.55987 0.224894 0
M  V30 3710 C 360.403 -2.03232 -0.41369 0
M  V30 3711 C 360.828 -1.10359 -1.52323 0
M  V30 3712 O 360.186 -0.092395 -1.81064 0
M  V30 3713 C 360.234 -3.48682 -0.919405 0
M  V30 3714 O 359.338 -3.58947 -2.03054 0
M  V30 3715 H 358.679 -0.657428 -0.0931903 0
M  V30 3716 H 361.209 -2.01679 0.34451 0
M  V30 3717 H 361.219 -3.8907 -1.22835 0
M  V30 3718 H 359.894 -4.15761 -0.107339 0
M  V30 3719 H 358.471 -3.30448 -1.72796 0
M  V30 3720 N 360.656 0.0484629 -1.57525 0
M  V30 3721 C 361.933 0.777447 -1.79486 0
M  V30 3722 C 362.313 1.94597 -0.818251 0
M  V30 3723 O 361.661 2.28047 0.143767 0
M  V30 3724 C 361.871 1.22864 -3.26658 0
M  V30 3725 C 363.219 1.65251 -3.91123 0
M  V30 3726 O 364.243 1.32372 -3.3069 0
M  V30 3727 O 363.102 2.26207 -4.97486 0
M  V30 3728 H 360.196 0.374357 -0.737419 0
M  V30 3729 H 362.742 0.0267359 -1.69679 0
M  V30 3730 H 361.514 0.393589 -3.89316 0
M  V30 3731 H 361.137 2.03996 -3.41279 0
M  V30 3732 N 362.134 1.5431 0.320358 0
M  V30 3733 C 363.382 1.72327 1.05583 0
M  V30 3734 C 363.703 0.50149 1.88441 0
M  V30 3735 O 362.973 -0.48448 1.89815 0
M  V30 3736 H 361.553 0.635387 0.3928 0
M  V30 3737 H 364.215 1.91621 0.356019 0
M  V30 3738 H 363.311 2.60426 1.72003 0
M  V30 3739 N 363.613 -0.582584 1.46437 0
M  V30 3740 C 364.86 -1.34079 1.51753 0
M  V30 3741 C 365.188 -1.93762 0.169299 0
M  V30 3742 O 364.443 -1.76989 -0.835062 0
M  V30 3743 C 364.742 -2.48964 2.56421 0
M  V30 3744 C 364.408 -2.07273 4.00436 0
M  V30 3745 C 363.07 -1.95618 4.39644 0
M  V30 3746 C 365.422 -1.75111 4.90903 0
M  V30 3747 C 362.75 -1.5006 5.67185 0
M  V30 3748 C 365.102 -1.31032 6.18881 0
M  V30 3749 C 363.766 -1.17954 6.56996 0
M  V30 3750 H 363.036 -0.49063 0.555304 0
M  V30 3751 H 365.683 -0.656007 1.79913 0
M  V30 3752 H 363.988 -3.22889 2.21923 0
M  V30 3753 H 365.685 -3.07178 2.57765 0
M  V30 3754 H 362.275 -2.17279 3.69443 0
M  V30 3755 H 366.459 -1.83001 4.61329 0
M  V30 3756 H 361.715 -1.38577 5.95488 0
M  V30 3757 H 365.889 -1.052 6.88408 0
M  V30 3758 H 363.516 -0.824279 7.55718 0
M  V30 3759 N 365.091 -1.34144 -0.827227 0
M  V30 3760 C 366.368 -1.16844 -1.56865 0
M  V30 3761 C 366.748 0.260654 -2.09485 0
M  V30 3762 O 366.096 1.26138 -1.9053 0
M  V30 3763 C 366.306 -2.21939 -2.6934 0
M  V30 3764 C 367.654 -2.56695 -3.3822 0
M  V30 3765 O 368.678 -2.20695 -2.79593 0
M  V30 3766 O 367.537 -3.18518 -4.44082 0
M  V30 3767 H 364.631 -0.452669 -0.692112 0
M  V30 3768 H 367.177 -1.45763 -0.868973 0
M  V30 3769 H 365.949 -3.17882 -2.28182 0
M  V30 3770 H 365.572 -1.94172 -3.46962 0
M  V30 3771 N 366.569 1.04691 -1.17803 0
M  V30 3772 C 367.817 1.7743 -0.967617 0
M  V30 3773 C 368.138 1.88359 0.504574 0
M  V30 3774 O 367.408 1.40402 1.36617 0
M  V30 3775 H 365.988 0.657242 -0.355024 0
M  V30 3776 H 368.65 1.2638 -1.48371 0
M  V30 3777 H 367.746 2.78924 -1.40027 0
M  V30 3778 N 368.047 0.979072 1.23499 0
M  V30 3779 C 369.296 0.642751 1.91185 0
M  V30 3780 C 369.609 -0.827253 1.77245 0
M  V30 3781 O 370.815 -1.27458 2.39722 0
M  V30 3782 C 369.271 1.09901 3.42709 0
M  V30 3783 C 368.879 2.59327 3.65313 0
M  V30 3784 C 370.623 0.836371 4.16179 0
M  V30 3785 C 368.53 2.98627 5.10467 0
M  V30 3786 H 367.46 0.236698 0.715884 0
M  V30 3787 H 370.111 1.1868 1.39955 0
M  V30 3788 H 368.493 0.48319 3.93041 0
M  V30 3789 H 369.667 3.26136 3.25533 0
M  V30 3790 H 367.982 2.83323 3.05151 0
M  V30 3791 H 370.579 1.10586 5.23139 0
M  V30 3792 H 370.922 -0.227509 4.15678 0
M  V30 3793 H 371.455 1.41371 3.71832 0
M  V30 3794 H 368.194 4.04133 5.16098 0
M  V30 3795 H 367.714 2.3651 5.51201 0
M  V30 3796 H 369.393 2.89159 5.78788 0
M  V30 3797 N 369.525 -1.3858 0.750561 0
M  V30 3798 C 370.936 -1.82927 0.373438 0
M  V30 3799 C 371.287 -1.62634 -1.09748 0
M  V30 3800 O 370.412 -1.12588 -1.84805 0
M  V30 3801 C 371.007 -3.32088 0.671029 0
M  V30 3802 C 369.566 -3.74795 0.34722 0
M  V30 3803 C 368.713 -2.61391 0.92575 0
M  V30 3804 H 371.664 -1.27351 0.946958 0
M  V30 3805 H 371.685 -3.80465 -0.0518269 0
M  V30 3806 H 371.197 -3.46826 1.74164 0
M  V30 3807 H 369.298 -3.65638 -0.716933 0
M  V30 3808 H 369.411 -4.71667 0.840656 0
M  V30 3809 H 367.775 -2.52265 0.351327 0
M  V30 3810 H 368.558 -2.78929 2.00133 0
M  V30 3811 N 371.003 -0.499398 -1.49478 0
M  V30 3812 C 372.28 0.108629 -1.95298 0
M  V30 3813 C 372.66 1.54282 -1.44084 0
M  V30 3814 O 372.008 2.18944 -0.653908 0
M  V30 3815 C 372.218 0.0229111 -3.48992 0
M  V30 3816 C 373.566 0.197643 -4.2414 0
M  V30 3817 O 374.59 0.0981735 -3.56065 0
M  V30 3818 O 373.449 0.401669 -5.45022 0
M  V30 3819 H 370.543 0.096181 -0.821388 0
M  V30 3820 H 373.089 -0.561822 -1.6013 0
M  V30 3821 H 371.861 -0.977321 -3.78899 0
M  V30 3822 H 371.484 0.733579 -3.90774 0
M  V30 3823 N 372.481 1.55866 -0.233164 0
M  V30 3824 C 373.429 2.22176 0.68851 0
M  V30 3825 C 374.423 1.20487 1.19076 0
M  V30 3826 O 375.629 1.38536 1.14925 0
M  V30 3827 H 372.004 0.712511 0.240483 0
M  V30 3828 H 373.975 2.98212 0.105935 0
M  V30 3829 C 372.724 2.92446 1.88071 0
M  V30 3830 H 372.047 3.70458 1.50337 0
M  V30 3831 H 373.487 3.42226 2.50314 0
M  V30 3832 C 371.946 1.95555 2.74335 0
M  V30 3833 O 372.476 1.47986 3.73447 0
M  V30 3834 N 370.682 1.62953 2.40613 0
M  V30 3835 H 370.229 2.01831 1.60069 0
M  V30 3836 H 370.187 0.983886 2.98609 0
M  V30 3837 N 373.959 -0.0401083 1.57549 0
M  V30 3838 C 375.205 -0.734211 1.89043 0
M  V30 3839 C 375.538 -1.75591 0.829535 0
M  V30 3840 O 374.813 -1.93868 -0.156706 0
M  V30 3841 C 375.096 -1.41374 3.31188 0
M  V30 3842 C 374.949 -0.406299 4.47961 0
M  V30 3843 C 376.268 -2.35061 3.72068 0
M  V30 3844 H 373.387 -0.265447 0.687537 0
M  V30 3845 H 376.029 0.00294087 1.9 0
M  V30 3846 H 374.179 -2.04206 3.30503 0
M  V30 3847 H 375.851 0.219255 4.60779 0
M  V30 3848 H 374.094 0.275485 4.32924 0
M  V30 3849 H 374.765 -0.920022 5.44279 0
M  V30 3850 H 377.241 -1.82282 3.74049 0
M  V30 3851 H 376.117 -2.79593 4.72355 0
M  V30 3852 H 376.378 -3.21258 3.0372 0
M  V30 3853 N 375.437 -1.54477 -0.31217 0
M  V30 3854 C 376.714 -1.63891 -1.06767 0
M  V30 3855 C 377.094 -0.480028 -2.0557 0
M  V30 3856 O 376.442 0.524487 -2.22399 0
M  V30 3857 C 376.652 -3.01402 -1.75948 0
M  V30 3858 C 378 -3.57838 -2.28554 0
M  V30 3859 O 379.024 -3.03782 -1.85998 0
M  V30 3860 O 377.883 -4.52462 -3.06497 0
M  V30 3861 H 374.977 -0.664125 -0.492816 0
M  V30 3862 H 377.523 -1.66823 -0.311149 0
M  V30 3863 H 376.295 -3.77187 -1.04144 0
M  V30 3864 H 375.918 -3.02199 -2.58383 0
M  V30 3865 N 376.915 0.57481 -1.46744 0
M  V30 3866 C 377.878 1.66533 -1.57478 0
M  V30 3867 C 378.878 1.54338 -0.451263 0
M  V30 3868 O 380.068 1.58814 -0.715813 0
M  V30 3869 C 377.2 3.05999 -1.50259 0
M  V30 3870 H 378.393 1.58372 -2.54673 0
M  V30 3871 H 375.946 0.793301 -1.34672 0
M  V30 3872 H 376.681 3.19709 -0.543725 0
M  V30 3873 H 376.466 3.16259 -2.31781 0
M  V30 3874 H 377.956 3.8537 -1.60872 0
M  V30 3875 N 378.394 1.34581 0.820102 0
M  V30 3876 C 379.357 1.2628 1.91275 0
M  V30 3877 C 380.357 0.177344 1.59819 0
M  V30 3878 O 381.547 0.430156 1.68806 0
M  V30 3879 C 378.679 0.950327 3.27386 0
M  V30 3880 H 379.872 2.23421 2.00057 0
M  V30 3881 H 377.425 1.1891 1.0144 0
M  V30 3882 H 378.16 -0.0177938 3.24295 0
M  V30 3883 H 377.945 1.73549 3.51601 0
M  V30 3884 H 379.435 0.917492 4.07396 0
M  V30 3885 N 379.872 -1.04064 1.18357 0
M  V30 3886 C 380.802 -2.14001 0.934113 0
M  V30 3887 C 381.783 -1.69616 -0.128186 0
M  V30 3888 O 382.968 -1.94185 0.0244093 0
M  V30 3889 C 380.098 -3.44253 0.459066 0
M  V30 3890 C 379.052 -4.02261 1.46185 0
M  V30 3891 C 378.378 -5.27992 0.844322 0
M  V30 3892 C 379.678 -4.38432 2.83856 0
M  V30 3893 H 381.372 -2.35127 1.85352 0
M  V30 3894 H 378.918 -1.12998 0.892604 0
M  V30 3895 H 380.871 -4.20522 0.271907 0
M  V30 3896 H 379.595 -3.22813 -0.495912 0
M  V30 3897 H 378.254 -3.28074 1.63595 0
M  V30 3898 H 377.902 -5.02862 -0.117845 0
M  V30 3899 H 377.602 -5.67765 1.51384 0
M  V30 3900 H 379.126 -6.06938 0.667693 0
M  V30 3901 H 380.54 -5.05688 2.70098 0
M  V30 3902 H 378.937 -4.89254 3.47491 0
M  V30 3903 H 380.007 -3.4826 3.37406 0
M  V30 3904 N 381.35 -0.985608 -1.22978 0
M  V30 3905 C 382.313 -0.535071 -2.22867 0
M  V30 3906 C 383.313 0.378123 -1.56291 0
M  V30 3907 O 384.503 0.171092 -1.73358 0
M  V30 3908 C 381.635 0.222702 -3.40172 0
M  V30 3909 H 382.828 -1.41835 -2.6424 0
M  V30 3910 H 380.381 -0.772042 -1.35901 0
M  V30 3911 H 381.116 1.12229 -3.04262 0
M  V30 3912 H 380.901 -0.43288 -3.89703 0
M  V30 3913 H 382.391 0.526335 -4.1427 0
M  V30 3914 N 382.828 1.3818 -0.7579 0
M  V30 3915 C 383.758 2.33027 -0.148597 0
M  V30 3916 C 384.739 1.55085 0.69875 0
M  V30 3917 O 385.924 1.83384 0.639053 0
M  V30 3918 C 383.054 3.3928 0.742034 0
M  V30 3919 C 382.008 4.28 -0.00291946 0
M  V30 3920 C 381.334 5.25146 1.00625 0
M  V30 3921 C 382.634 5.08938 -1.17385 0
M  V30 3922 H 384.328 2.84231 -0.940909 0
M  V30 3923 H 381.874 1.36659 -0.453908 0
M  V30 3924 H 383.827 4.046 1.17799 0
M  V30 3925 H 382.551 2.86569 1.56671 0
M  V30 3926 H 381.21 3.64192 -0.419504 0
M  V30 3927 H 380.858 4.68721 1.8251 0
M  V30 3928 H 380.558 5.85361 0.512428 0
M  V30 3929 H 382.082 5.93342 1.44143 0
M  V30 3930 H 383.496 5.67474 -0.815224 0
M  V30 3931 H 381.893 5.7841 -1.59882 0
M  V30 3932 H 382.963 4.42424 -1.98468 0
M  V30 3933 N 384.306 0.507319 1.49211 0
M  V30 3934 C 385.717 0.0611118 1.866 0
M  V30 3935 C 386.068 -1.35488 1.41907 0
M  V30 3936 O 385.193 -2.0108 0.799726 0
M  V30 3937 C 385.788 0.104125 3.3864 0
M  V30 3938 C 384.347 -0.28677 3.75306 0
M  V30 3939 C 383.494 0.473893 2.73221 0
M  V30 3940 H 386.445 0.719775 1.41439 0
M  V30 3941 H 386.466 -0.689672 3.74198 0
M  V30 3942 H 385.978 1.13482 3.71138 0
M  V30 3943 H 384.079 -1.32046 3.48417 0
M  V30 3944 H 384.192 0.0370745 4.79086 0
M  V30 3945 H 382.556 -0.0770644 2.54583 0
M  V30 3946 H 383.339 1.50478 3.08563 0
M  V30 3947 N 385.784 -1.5574 0.241426 0
M  V30 3948 C 386.747 -2.19877 -0.647063 0
M  V30 3949 C 387.747 -1.16642 -1.10686 0
M  V30 3950 O 388.937 -1.41757 -1.01245 0
M  V30 3951 C 386.069 -2.83797 -1.88871 0
M  V30 3952 H 387.262 -2.99772 -0.087574 0
M  V30 3953 H 384.815 -1.56298 -0.00813574 0
M  V30 3954 H 385.55 -2.07824 -2.48957 0
M  V30 3955 H 385.335 -3.59414 -1.56728 0
M  V30 3956 H 386.825 -3.32898 -2.52129 0
M  V30 3957 N 387.262 0.0317525 -1.57568 0
M  V30 3958 C 388.212 1.04101 -2.02847 0
M  V30 3959 C 389.196 1.3219 -0.917317 0
M  V30 3960 O 390.388 1.31819 -1.18121 0
M  V30 3961 C 387.517 2.34295 -2.5092 0
M  V30 3962 C 386.603 2.09308 -3.68851 0
M  V30 3963 N 386.994 1.5437 -4.81667 0
M  V30 3964 C 385.292 2.39604 -3.76172 0
M  V30 3965 C 385.993 1.45126 -5.63306 0
M  V30 3966 N 384.969 1.92589 -5.08341 0
M  V30 3967 H 388.771 0.610217 -2.87495 0
M  V30 3968 H 386.285 0.238108 -1.60645 0
M  V30 3969 H 388.282 3.07404 -2.81617 0
M  V30 3970 H 386.942 2.78055 -1.67677 0
M  V30 3971 H 387.953 1.22678 -5.03161 0
M  V30 3972 H 384.63 2.86457 -3.03724 0
M  V30 3973 H 386.02 1.03163 -6.63933 0
M  V30 3974 N 388.74 1.54641 0.303973 0
M  V30 3975 C 389.965 1.78092 1.06292 0
M  V30 3976 C 390.39 0.537342 1.80262 0
M  V30 3977 O 389.748 -0.511993 1.7392 0
M  V30 3978 C 389.796 2.98612 2.02147 0
M  V30 3979 O 388.9 2.71528 3.10397 0
M  V30 3980 H 388.241 0.589548 0.305497 0
M  V30 3981 H 390.771 2.01716 0.3423 0
M  V30 3982 H 390.781 3.265 2.44667 0
M  V30 3983 H 389.456 3.88785 1.47714 0
M  V30 3984 H 388.033 2.54648 2.72413 0
M  V30 3985 N 390.218 -0.567019 1.47046 0
M  V30 3986 C 391.448 -1.34831 1.56538 0
M  V30 3987 C 391.856 -1.8802 0.21101 0
M  V30 3988 O 391.199 -1.65152 -0.804387 0
M  V30 3989 C 391.261 -2.56139 2.52256 0
M  V30 3990 C 390.925 -2.24307 3.98165 0
M  V30 3991 C 391.922 -1.82192 4.86931 0
M  V30 3992 C 389.607 -2.35968 4.43423 0
M  V30 3993 C 391.601 -1.52153 6.18973 0
M  V30 3994 C 389.288 -2.05542 5.75496 0
M  V30 3995 C 390.286 -1.63701 6.63092 0
M  V30 3996 O 389.974 -1.33657 7.92711 0
M  V30 3997 H 389.706 -0.417683 0.531523 0
M  V30 3998 H 392.26 -0.694726 1.93294 0
M  V30 3999 H 390.49 -3.24356 2.10548 0
M  V30 4000 H 392.179 -3.18214 2.51982 0
M  V30 4001 H 392.945 -1.72684 4.53217 0
M  V30 4002 H 388.824 -2.67495 3.75456 0
M  V30 4003 H 392.368 -1.19421 6.87302 0
M  V30 4004 H 388.265 -2.14679 6.08755 0
M  V30 4005 H 389.033 -1.4737 8.05124 0
M  V30 4006 N 391.696 -1.35014 -0.812953 0
M  V30 4007 C 392.921 -1.31187 -1.60639 0
M  V30 4008 C 393.346 0.109382 -1.87782 0
M  V30 4009 O 392.704 1.07424 -1.46047 0
M  V30 4010 C 392.752 -2.11809 -2.91838 0
M  V30 4011 O 391.856 -1.49444 -3.8437 0
M  V30 4012 H 391.197 -0.450084 -0.488181 0
M  V30 4013 H 393.727 -1.77963 -1.00947 0
M  V30 4014 H 393.737 -2.23531 -3.41318 0
M  V30 4015 H 392.412 -3.15137 -2.71407 0
M  V30 4016 H 390.989 -1.46524 -3.42907 0
M  V30 4017 N 393.175 1.03435 -1.18907 0
M  V30 4018 C 394.423 1.76394 -0.986382 0
M  V30 4019 C 394.744 1.88883 0.484567 0
M  V30 4020 O 394.014 1.41843 1.3512 0
M  V30 4021 H 392.594 0.65344 -0.361975 0
M  V30 4022 H 395.256 1.248 -1.49703 0
M  V30 4023 H 394.352 2.77424 -1.42978 0
M  V30 4024 N 394.653 0.992116 1.22453 0
M  V30 4025 C 396.069 0.702713 1.43297 0
M  V30 4026 C 396.269 -0.726909 1.87932 0
M  V30 4027 O 395.325 -1.49792 2.0327 0
M  V30 4028 C 396.638 1.70762 2.47509 0
M  V30 4029 C 398.186 1.72298 2.61309 0
M  V30 4030 C 398.661 2.71649 3.68742 0
M  V30 4031 N 400.152 2.70239 3.76199 0
M  V30 4032 C 400.887 3.43778 4.58917 0
M  V30 4033 N 400.383 4.26914 5.45633 0
M  V30 4034 N 402.176 3.32487 4.5322 0
M  V30 4035 H 394.327 1.91543 0.917871 0
M  V30 4036 H 396.59 0.826031 0.465162 0
M  V30 4037 H 396.296 2.73059 2.21657 0
M  V30 4038 H 396.17 1.49985 3.46099 0
M  V30 4039 H 398.557 0.706989 2.86506 0
M  V30 4040 H 398.638 1.97143 1.62997 0
M  V30 4041 H 398.282 3.73397 3.44292 0
M  V30 4042 H 398.212 2.44074 4.66622 0
M  V30 4043 H 400.703 2.09912 3.14237 0
M  V30 4044 H 401.016 4.79855 6.05771 0
M  V30 4045 H 399.361 4.31002 5.45218 0
M  V30 4046 H 402.552 2.6698 3.84499 0
M  V30 4047 H 402.725 3.90058 5.17454 0
M  V30 4048 N 396.131 -1.37776 0.765217 0
M  V30 4049 C 397.041 -2.34135 0.147666 0
M  V30 4050 C 398.057 -1.59854 -0.687215 0
M  V30 4051 O 399.233 -1.91983 -0.608659 0
M  V30 4052 C 396.298 -3.3901 -0.72617 0
M  V30 4053 C 395.359 -4.2912 0.124417 0
M  V30 4054 C 394.592 -5.28986 -0.707807 0
M  V30 4055 O 394.815 -5.36205 -1.94525 0
M  V30 4056 O 393.749 -6.01779 -0.12046 0
M  V30 4057 H 397.575 -2.88664 0.943758 0
M  V30 4058 H 395.16 -1.39824 0.526277 0
M  V30 4059 H 397.042 -4.03195 -1.22524 0
M  V30 4060 H 395.717 -2.86819 -1.50056 0
M  V30 4061 H 394.624 -3.68057 0.669696 0
M  V30 4062 H 395.957 -4.84598 0.861736 0
M  V30 4063 N 397.609 -0.515225 -1.4894 0
M  V30 4064 C 399.025 -0.172099 -1.58669 0
M  V30 4065 C 399.225 1.32405 -1.51892 0
M  V30 4066 O 398.281 2.10116 -1.40027 0
M  V30 4067 C 399.594 -0.761533 -2.90897 0
M  V30 4068 C 401.142 -0.728926 -3.04394 0
M  V30 4069 C 401.617 -1.29667 -4.39261 0
M  V30 4070 N 403.108 -1.25799 -4.4579 0
M  V30 4071 C 403.843 -1.66733 -5.48623 0
M  V30 4072 N 403.339 -2.15327 -6.58488 0
M  V30 4073 N 405.132 -1.58061 -5.39419 0
M  V30 4074 H 397.283 -1.48778 -1.51588 0
M  V30 4075 H 399.546 -0.617968 -0.718901 0
M  V30 4076 H 399.252 -1.81136 -3.01468 0
M  V30 4077 H 399.126 -0.230106 -3.76497 0
M  V30 4078 H 401.513 0.312098 -2.93445 0
M  V30 4079 H 401.594 -1.29766 -2.20442 0
M  V30 4080 H 401.238 -2.33655 -4.50963 0
M  V30 4081 H 401.168 -0.703752 -5.21876 0
M  V30 4082 H 403.659 -0.902102 -3.66975 0
M  V30 4083 H 403.972 -2.44594 -7.33071 0
M  V30 4084 H 402.317 -2.19311 -6.59491 0
M  V30 4085 H 405.508 -1.19906 -4.52482 0
M  V30 4086 H 405.681 -1.90284 -6.19432 0
M  V30 4087 N 399.087 1.5561 -0.249682 0
M  V30 4088 C 400.333 1.99306 0.374841 0
M  V30 4089 C 400.666 1.13767 1.57387 0
M  V30 4090 O 399.941 0.201711 1.93451 0
M  V30 4091 C 400.224 3.51507 0.781986 0
M  V30 4092 C 400.077 4.4781 -0.422629 0
M  V30 4093 C 401.396 4.08884 1.62793 0
M  V30 4094 H 398.515 0.724572 0.134773 0
M  V30 4095 H 401.157 1.86719 -0.351549 0
M  V30 4096 H 399.307 3.62363 1.4009 0
M  V30 4097 H 400.979 4.48931 -1.06108 0
M  V30 4098 H 399.222 4.20518 -1.06524 0
M  V30 4099 H 399.893 5.51919 -0.0943766 0
M  V30 4100 H 402.369 4.01147 1.10547 0
M  V30 4101 H 401.245 5.1564 1.88166 0
M  V30 4102 H 401.506 3.57515 2.60068 0
M  V30 4103 N 400.565 -0.0233959 1.57583 0
M  V30 4104 C 401.795 -0.723631 1.93513 0
M  V30 4105 C 402.203 -1.69115 0.848333 0
M  V30 4106 O 401.546 -1.82781 -0.183484 0
M  V30 4107 C 401.608 -1.53075 3.25282 0
M  V30 4108 C 401.272 -0.727388 4.51174 0
M  V30 4109 C 402.269 -0.0251924 5.19894 0
M  V30 4110 C 399.954 -0.680256 4.97672 0
M  V30 4111 C 401.948 0.713374 6.33395 0
M  V30 4112 C 399.635 0.0620523 6.11068 0
M  V30 4113 C 400.633 0.757622 6.78785 0
M  V30 4114 O 400.321 1.48787 7.90011 0
M  V30 4115 H 400.053 -0.208051 0.643188 0
M  V30 4116 H 402.607 0.0167489 2.05393 0
M  V30 4117 H 400.837 -2.31508 3.09744 0
M  V30 4118 H 402.526 -2.11413 3.46496 0
M  V30 4119 H 403.292 -0.0526003 4.84971 0
M  V30 4120 H 399.171 -1.21116 4.44805 0
M  V30 4121 H 402.715 1.25683 6.86185 0
M  V30 4122 H 398.612 0.0913634 6.45435 0
M  V30 4123 H 399.38 1.40213 8.06401 0
M  V30 4124 N 402.043 -1.548 -0.295768 0
M  V30 4125 C 403.29 -1.74329 -1.03032 0
M  V30 4126 C 403.618 -0.531915 -1.87085 0
M  V30 4127 O 402.873 0.486052 -1.89568 0
M  V30 4128 C 403.172 -2.98797 -1.961 0
M  V30 4129 C 402.838 -4.32356 -1.2798 0
M  V30 4130 C 401.5 -4.68661 -1.09135 0
M  V30 4131 C 403.852 -5.15128 -0.793243 0
M  V30 4132 C 401.18 -5.85312 -0.403269 0
M  V30 4133 C 403.532 -6.32488 -0.118854 0
M  V30 4134 C 402.196 -6.6745 0.0815043 0
M  V30 4135 H 401.466 -0.637916 -0.37702 0
M  V30 4136 H 404.113 -1.8906 -0.304696 0
M  V30 4137 H 402.418 -2.78869 -2.75207 0
M  V30 4138 H 404.115 -3.11102 -2.53015 0
M  V30 4139 H 400.705 -4.03808 -1.43655 0
M  V30 4140 H 404.889 -4.87575 -0.92653 0
M  V30 4141 H 400.145 -6.1094 -0.237098 0
M  V30 4142 H 404.319 -6.95892 0.266035 0
M  V30 4143 H 401.946 -7.57695 0.616685 0
M  V30 4144 N 403.521 0.559213 -1.47345 0
M  V30 4145 C 404.768 1.31648 -1.53867 0
M  V30 4146 C 405.096 1.93468 -0.200104 0
M  V30 4147 O 404.351 1.78295 0.806799 0
M  V30 4148 C 404.65 2.44853 -2.6035 0
M  V30 4149 C 404.316 2.00876 -4.03683 0
M  V30 4150 C 402.978 1.88599 -4.42701 0
M  V30 4151 C 405.33 1.67279 -4.93626 0
M  V30 4152 C 402.658 1.41017 -5.69501 0
M  V30 4153 C 405.01 1.21169 -6.20887 0
M  V30 4154 C 403.674 1.07487 -6.58789 0
M  V30 4155 H 402.944 0.481734 -0.56304 0
M  V30 4156 H 405.591 0.627301 -1.80934 0
M  V30 4157 H 403.896 3.19318 -2.27032 0
M  V30 4158 H 405.593 3.03039 -2.62619 0
M  V30 4159 H 402.183 2.11374 -3.72853 0
M  V30 4160 H 406.367 1.75638 -4.64182 0
M  V30 4161 H 401.623 1.29086 -5.97618 0
M  V30 4162 H 405.797 0.942345 -6.89995 0
M  V30 4163 H 403.424 0.703946 -7.56934 0
M  V30 4164 N 404.999 1.35443 0.805782 0
M  V30 4165 C 405.946 1.28431 1.91766 0
M  V30 4166 C 406.916 0.156102 1.65365 0
M  V30 4167 O 408.101 0.339936 1.87747 0
M  V30 4168 C 405.241 1.06301 3.2832 0
M  V30 4169 C 404.354 2.2805 3.66902 0
M  V30 4170 C 403.489 1.99064 4.92491 0
M  V30 4171 C 402.528 3.16863 5.23703 0
M  V30 4172 N 401.665 2.87647 6.40471 0
M  V30 4173 H 406.505 2.23511 1.97096 0
M  V30 4174 H 404.042 1.11105 0.964054 0
M  V30 4175 H 406 0.915012 4.07042 0
M  V30 4176 H 404.63 0.148822 3.22457 0
M  V30 4177 H 403.682 2.53711 2.83434 0
M  V30 4178 H 404.994 3.1601 3.85927 0
M  V30 4179 H 404.148 1.81099 5.7904 0
M  V30 4180 H 402.887 1.0839 4.75503 0
M  V30 4181 H 401.892 3.35404 4.35642 0
M  V30 4182 H 403.117 4.08339 5.4262 0
M  V30 4183 H 401.063 1.99568 6.24907 0
M  V30 4184 H 400.98 3.69141 6.59751 0
M  V30 4185 H 402.248 2.73226 7.30047 0
M  V30 4186 N 406.477 -1.02803 1.19454 0
M  V30 4187 C 407.725 -1.75869 0.995722 0
M  V30 4188 C 408.046 -1.89138 -0.474543 0
M  V30 4189 O 407.316 -1.42558 -1.34366 0
M  V30 4190 H 405.896 -0.651511 0.365435 0
M  V30 4191 H 408.558 -1.24004 1.50363 0
M  V30 4192 H 407.654 -2.76661 1.44447 0
M  V30 4193 N 407.956 -0.998596 -1.21925 0
M  V30 4194 C 408.903 -0.553621 -2.24062 0
M  V30 4195 C 409.873 0.416999 -1.6078 0
M  V30 4196 O 411.058 0.320482 -1.88089 0
M  V30 4197 C 408.198 0.119959 -3.44891 0
M  V30 4198 C 407.311 -0.893077 -4.22668 0
M  V30 4199 C 406.446 -0.192424 -5.30851 0
M  V30 4200 C 405.485 -1.19344 -6.00353 0
M  V30 4201 N 404.622 -0.520707 -7.00166 0
M  V30 4202 H 409.462 -1.4293 -2.61486 0
M  V30 4203 H 406.999 -0.715838 -1.28507 0
M  V30 4204 H 408.957 0.527459 -4.13852 0
M  V30 4205 H 407.587 0.959389 -3.08214 0
M  V30 4206 H 406.639 -1.41886 -3.52948 0
M  V30 4207 H 407.951 -1.65512 -4.70539 0
M  V30 4208 H 407.105 0.271515 -6.06092 0
M  V30 4209 H 405.844 0.602075 -4.83969 0
M  V30 4210 H 404.849 -1.66795 -5.23889 0
M  V30 4211 H 406.074 -1.98891 -6.49322 0
M  V30 4212 H 404.02 0.254252 -6.55507 0
M  V30 4213 H 403.937 -1.2211 -7.46073 0
M  V30 4214 H 405.205 -0.0797596 -7.79459 0
M  V30 4215 N 409.434 1.37368 -0.772513 0
M  V30 4216 C 410.366 2.28899 -0.117502 0
M  V30 4217 C 411.379 1.4867 0.663405 0
M  V30 4218 O 412.568 1.71314 0.501372 0
M  V30 4219 C 409.668 3.2788 0.857192 0
M  V30 4220 C 408.841 4.37207 0.129938 0
M  V30 4221 C 407.9 5.16257 1.01811 0
M  V30 4222 O 406.926 5.67159 0.481601 0
M  V30 4223 N 408.128 5.31058 2.3443 0
M  V30 4224 H 410.893 2.85752 -0.903662 0
M  V30 4225 H 408.454 1.49353 -0.62493 0
M  V30 4226 H 410.446 3.77647 1.45482 0
M  V30 4227 H 409.016 2.7179 1.54432 0
M  V30 4228 H 408.236 3.88827 -0.648605 0
M  V30 4229 H 409.524 5.07434 -0.372559 0
M  V30 4230 H 408.922 4.91287 2.80452 0
M  V30 4231 H 407.479 5.84131 2.89197 0
M  V30 4232 N 410.912 0.523116 1.48665 0
M  V30 4233 C 412.142 -0.00961724 2.06598 0
M  V30 4234 C 412.55 -1.29333 1.38093 0
M  V30 4235 O 411.893 -1.77846 0.46007 0
M  V30 4236 C 411.955 -0.311135 3.58151 0
M  V30 4237 C 411.619 0.878092 4.48485 0
M  V30 4238 C 412.616 1.77464 4.88674 0
M  V30 4239 C 410.301 1.08315 4.90483 0
M  V30 4240 C 412.295 2.86021 5.69623 0
M  V30 4241 C 409.982 2.17187 5.71203 0
M  V30 4242 C 410.98 3.05873 6.10681 0
M  V30 4243 O 410.668 4.12862 6.89783 0
M  V30 4244 H 410.4 0.0272658 0.67545 0
M  V30 4245 H 412.954 0.726156 1.92136 0
M  V30 4246 H 411.184 -1.10079 3.70701 0
M  V30 4247 H 412.873 -0.785125 3.98234 0
M  V30 4248 H 413.639 1.62813 4.56855 0
M  V30 4249 H 409.518 0.402149 4.59243 0
M  V30 4250 H 413.062 3.55272 6.00356 0
M  V30 4251 H 408.959 2.31824 6.02435 0
M  V30 4252 H 409.727 4.10487 7.08126 0
M  V30 4253 N 412.39 -1.55475 0.257931 0
M  V30 4254 C 413.636 -2.00237 -0.357338 0
M  V30 4255 C 413.991 -1.14313 -1.54759 0
M  V30 4256 O 413.284 -0.201187 -1.90541 0
M  V30 4257 C 413.478 -3.48183 -0.806433 0
M  V30 4258 C 413.307 -4.48422 0.338758 0
M  V30 4259 C 412.077 -4.98651 0.817011 0
M  V30 4260 C 414.275 -5.00827 1.16949 0
M  V30 4261 N 412.257 -5.82658 1.93346 0
M  V30 4262 C 413.628 -5.82113 2.13413 0
M  V30 4263 C 415.683 -4.83104 1.2048 0
M  V30 4264 C 414.386 -6.47566 3.13131 0
M  V30 4265 C 416.412 -5.49343 2.19034 0
M  V30 4266 C 415.774 -6.30427 3.14232 0
M  V30 4267 H 411.873 -0.776034 -0.0964083 0
M  V30 4268 H 414.457 -1.90995 0.37803 0
M  V30 4269 H 412.628 -3.57801 -1.51107 0
M  V30 4270 H 414.36 -3.79802 -1.39758 0
M  V30 4271 H 411.115 -4.71914 0.39925 0
M  V30 4272 H 411.539 -6.29356 2.49478 0
M  V30 4273 H 416.181 -4.20036 0.482634 0
M  V30 4274 H 413.899 -7.09793 3.8629 0
M  V30 4275 H 417.485 -5.37579 2.22485 0
M  V30 4276 H 416.365 -6.80777 3.89246 0
M  V30 4277 N 413.868 0.0150385 -1.57593 0
M  V30 4278 C 414.778 1.02791 -2.10882 0
M  V30 4279 C 415.794 1.38702 -1.0506 0
M  V30 4280 O 416.97 1.47739 -1.36877 0
M  V30 4281 C 414.035 2.30568 -2.58919 0
M  V30 4282 C 413.096 2.01108 -3.79281 0
M  V30 4283 C 412.329 3.22794 -4.25018 0
M  V30 4284 O 412.552 4.33959 -3.70183 0
M  V30 4285 O 411.486 3.07672 -5.17322 0
M  V30 4286 H 415.312 0.604973 -2.97613 0
M  V30 4287 H 412.897 0.23292 -1.47573 0
M  V30 4288 H 414.779 3.05662 -2.90084 0
M  V30 4289 H 413.454 2.72129 -1.75293 0
M  V30 4290 H 412.361 1.23537 -3.53114 0
M  V30 4291 H 413.694 1.64394 -4.63935 0
M  V30 4292 N 415.346 1.54954 0.287554 0
M  V30 4293 C 416.576 1.78622 1.03816 0
M  V30 4294 C 416.984 0.552451 1.80955 0
M  V30 4295 O 416.327 -0.487665 1.77109 0
M  V30 4296 C 416.389 2.94975 2.055 0
M  V30 4297 C 416.053 4.32565 1.47433 0
M  V30 4298 C 417.05 5.12096 0.897436 0
M  V30 4299 C 414.735 4.79195 1.50591 0
M  V30 4300 C 416.729 6.36383 0.359851 0
M  V30 4301 C 414.416 6.03441 0.964459 0
M  V30 4302 C 415.414 6.81872 0.392413 0
M  V30 4303 O 415.102 8.03777 -0.140788 0
M  V30 4304 H 414.834 0.599144 0.313053 0
M  V30 4305 H 417.388 2.02761 0.328225 0
M  V30 4306 H 415.618 2.66493 2.80211 0
M  V30 4307 H 417.307 3.06097 2.6657 0
M  V30 4308 H 418.073 4.77209 0.865841 0
M  V30 4309 H 413.952 4.18167 1.94055 0
M  V30 4310 H 417.496 6.97545 -0.0872951 0
M  V30 4311 H 413.393 6.37813 0.993246 0
M  V30 4312 H 414.161 8.18495 -0.0287617 0
M  V30 4313 N 416.824 -0.551391 1.4764 0
M  V30 4314 C 417.756 -1.67333 1.56628 0
M  V30 4315 C 418.769 -1.56398 0.452045 0
M  V30 4316 O 419.958 -1.6325 0.721926 0
M  V30 4317 C 417.058 -3.05841 1.45994 0
M  V30 4318 C 416.231 -3.42472 2.72088 0
M  V30 4319 C 415.29 -4.60168 2.55209 0
M  V30 4320 O 414.316 -4.64458 3.2904 0
M  V30 4321 N 415.518 -5.57024 1.63416 0
M  V30 4322 H 418.283 -1.60066 2.53375 0
M  V30 4323 H 415.844 -0.738169 1.44093 0
M  V30 4324 H 417.836 -3.8242 1.32428 0
M  V30 4325 H 416.406 -3.07302 0.573071 0
M  V30 4326 H 415.626 -2.55284 3.00373 0
M  V30 4327 H 416.914 -3.63723 3.55785 0
M  V30 4328 H 416.312 -5.56319 1.02594 0
M  V30 4329 H 414.869 -6.32906 1.558 0
M  V30 4330 N 418.302 -1.35869 -0.798587 0
M  V30 4331 C 419.549 -1.29588 -1.55606 0
M  V30 4332 C 419.877 0.127456 -1.94082 0
M  V30 4333 O 419.132 1.09461 -1.62225 0
M  V30 4334 C 419.431 -2.1556 -2.85077 0
M  V30 4335 C 419.097 -3.6424 -2.65781 0
M  V30 4336 C 417.759 -4.04766 -2.60227 0
M  V30 4337 C 420.111 -4.58547 -2.47758 0
M  V30 4338 C 417.439 -5.37753 -2.34603 0
M  V30 4339 C 419.791 -5.91742 -2.23662 0
M  V30 4340 C 418.455 -6.31402 -2.16534 0
M  V30 4341 H 417.725 -0.474197 -0.569402 0
M  V30 4342 H 420.372 -1.67839 -0.922086 0
M  V30 4343 H 418.677 -1.70216 -3.52893 0
M  V30 4344 H 420.374 -2.08031 -3.42818 0
M  V30 4345 H 416.964 -3.32086 -2.70956 0
M  V30 4346 H 421.148 -4.28117 -2.51056 0
M  V30 4347 H 416.404 -5.67474 -2.2756 0
M  V30 4348 H 420.578 -6.6439 -2.08708 0
M  V30 4349 H 418.205 -7.34381 -1.96441 0
M  V30 4350 N 419.78 1.02168 -1.19998 0
M  V30 4351 C 420.712 2.10705 -0.901994 0
M  V30 4352 C 421.725 1.6244 0.108216 0
M  V30 4353 O 422.914 1.78082 -0.12214 0
M  V30 4354 C 420.014 3.37291 -0.329834 0
M  V30 4355 C 419.187 4.14714 -1.39035 0
M  V30 4356 C 418.246 5.19606 -0.830432 0
M  V30 4357 O 417.272 5.48809 -1.50989 0
M  V30 4358 N 418.474 5.79366 0.362696 0
M  V30 4359 H 421.239 2.36856 -1.83628 0
M  V30 4360 H 418.8 1.18518 -1.10296 0
M  V30 4361 H 420.792 4.04657 0.0587633 0
M  V30 4362 H 419.362 3.0843 0.508891 0
M  V30 4363 H 418.582 3.42392 -1.9535 0
M  V30 4364 H 419.87 4.63226 -2.10474 0
M  V30 4365 H 419.268 5.57968 0.932081 0
M  V30 4366 H 417.825 6.48106 0.69299 0
M  V30 4367 N 421.258 1.00505 1.21394 0
M  V30 4368 C 422.208 0.536503 2.21598 0
M  V30 4369 C 423.192 -0.401914 1.55799 0
M  V30 4370 O 424.384 -0.226757 1.75541 0
M  V30 4371 C 421.513 -0.135446 3.43033 0
M  V30 4372 C 420.599 0.823992 4.16018 0
M  V30 4373 N 420.99 1.97683 4.6557 0
M  V30 4374 C 419.288 0.642387 4.4135 0
M  V30 4375 C 419.989 2.58003 5.21354 0
M  V30 4376 N 418.965 1.86162 5.1073 0
M  V30 4377 H 422.767 1.41557 2.57563 0
M  V30 4378 H 420.281 0.868878 1.37202 0
M  V30 4379 H 422.278 -0.488584 4.14027 0
M  V30 4380 H 420.938 -1.01049 3.08576 0
M  V30 4381 H 421.949 2.3572 4.61147 0
M  V30 4382 H 418.626 -0.185578 4.17087 0
M  V30 4383 H 420.016 3.555 5.70149 0
M  V30 4384 N 422.737 -1.36956 0.779787 0
M  V30 4385 C 423.669 -2.28833 0.129639 0
M  V30 4386 C 424.682 -1.4902 -0.655511 0
M  V30 4387 O 425.871 -1.71578 -0.492279 0
M  V30 4388 C 422.971 -3.2833 -0.839792 0
M  V30 4389 C 422.144 -4.3727 -0.10675 0
M  V30 4390 C 421.203 -5.16789 -0.990717 0
M  V30 4391 O 420.229 -5.67406 -0.451516 0
M  V30 4392 N 421.431 -5.32294 -2.3161 0
M  V30 4393 H 424.196 -2.85268 0.918803 0
M  V30 4394 H 421.757 -1.49019 0.632841 0
M  V30 4395 H 423.749 -3.78413 -1.43477 0
M  V30 4396 H 422.319 -2.72605 -1.52988 0
M  V30 4397 H 421.539 -3.88478 0.669216 0
M  V30 4398 H 422.827 -5.07229 0.399464 0
M  V30 4399 H 422.225 -4.92768 -2.77843 0
M  V30 4400 H 420.782 -5.85656 -2.86095 0
M  V30 4401 N 424.215 -0.530993 -1.48385 0
M  V30 4402 C 425.626 -0.0907905 -1.86479 0
M  V30 4403 C 425.977 1.33213 -1.44044 0
M  V30 4404 O 425.102 1.99783 -0.831615 0
M  V30 4405 C 425.697 -0.157987 -3.38431 0
M  V30 4406 C 424.256 0.227026 -3.75715 0
M  V30 4407 C 423.403 -0.5173 -2.72432 0
M  V30 4408 H 426.354 -0.742186 -1.40276 0
M  V30 4409 H 426.375 0.630053 -3.75247 0
M  V30 4410 H 425.887 -1.19372 -3.69286 0
M  V30 4411 H 423.988 1.26486 -3.50474 0
M  V30 4412 H 424.101 -0.113288 -4.78966 0
M  V30 4413 H 422.465 0.0365527 -2.54674 0
M  V30 4414 H 423.248 -1.55368 -3.0613 0
M  V30 4415 N 425.693 1.55336 -0.266172 0
M  V30 4416 C 426.918 2.04258 0.359661 0
M  V30 4417 C 427.343 1.14359 1.49344 0
M  V30 4418 O 426.701 0.140369 1.80756 0
M  V30 4419 C 426.749 3.50997 0.826635 0
M  V30 4420 O 425.853 3.64204 1.93466 0
M  V30 4421 H 425.194 0.659668 0.075727 0
M  V30 4422 H 427.724 2.00694 -0.39786 0
M  V30 4423 H 427.734 3.9219 1.12477 0
M  V30 4424 H 426.409 4.159 -0.00293032 0
M  V30 4425 H 424.986 3.34913 1.63974 0
M  V30 4426 N 427.171 -0.0066808 1.57599 0
M  V30 4427 C 428.103 -1.02827 2.04839 0
M  V30 4428 C 429.116 -1.31108 0.965113 0
M  V30 4429 O 430.305 -1.28202 1.24203 0
M  V30 4430 C 427.405 -2.36464 2.42771 0
M  V30 4431 C 426.578 -2.27219 3.73751 0
M  V30 4432 C 425.637 -3.43489 3.98625 0
M  V30 4433 O 424.663 -3.21976 4.69382 0
M  V30 4434 N 425.865 -4.66116 3.46 0
M  V30 4435 H 428.63 -0.625455 2.93101 0
M  V30 4436 H 426.191 -0.194198 1.60731 0
M  V30 4437 H 428.183 -3.13008 2.56531 0
M  V30 4438 H 426.753 -2.68512 1.60063 0
M  V30 4439 H 425.973 -1.35629 3.70133 0
M  V30 4440 H 427.261 -2.18208 4.59633 0
M  V30 4441 H 426.659 -4.86493 2.88688 0
M  V30 4442 H 425.216 -5.39949 3.65101 0
M  V30 4443 N 428.649 -1.55105 -0.279332 0
M  V30 4444 C 429.559 -1.90638 -1.36727 0
M  V30 4445 C 430.575 -0.802899 -1.54368 0
M  V30 4446 O 431.751 -1.10138 -1.68616 0
M  V30 4447 C 428.816 -2.16547 -2.70755 0
M  V30 4448 C 427.877 -3.40146 -2.61915 0
M  V30 4449 C 427.11 -3.6481 -3.8955 0
M  V30 4450 O 427.333 -2.92095 -4.89935 0
M  V30 4451 O 426.267 -4.58343 -3.90135 0
M  V30 4452 H 430.093 -2.83237 -1.09591 0
M  V30 4453 H 427.678 -1.4157 -0.477306 0
M  V30 4454 H 429.56 -2.34665 -3.50014 0
M  V30 4455 H 428.235 -1.27131 -2.9769 0
M  V30 4456 H 427.142 -3.2737 -1.81052 0
M  V30 4457 H 428.475 -4.29761 -2.3993 0
M  V30 4458 N 430.127 0.543554 -1.4793 0
M  V30 4459 C 431.037 1.67657 -1.64098 0
M  V30 4460 C 432.053 1.65934 -0.523622 0
M  V30 4461 O 433.229 1.85133 -0.792943 0
M  V30 4462 C 430.294 3.04146 -1.66421 0
M  V30 4463 C 429.355 3.16831 -2.89684 0
M  V30 4464 C 428.588 4.46809 -2.91886 0
M  V30 4465 O 428.811 5.33095 -2.02895 0
M  V30 4466 O 427.745 4.63573 -3.83906 0
M  V30 4467 H 431.571 1.56957 -2.59997 0
M  V30 4468 H 429.156 0.715116 -1.31173 0
M  V30 4469 H 431.038 3.85346 -1.70548 0
M  V30 4470 H 429.713 3.152 -0.736923 0
M  V30 4471 H 428.62 2.34977 -2.91095 0
M  V30 4472 H 429.953 3.10687 -3.81752 0
M  V30 4473 N 431.605 1.3629 0.791371 0
M  V30 4474 C 432.845 1.31792 1.56238 0
M  V30 4475 C 433.209 -0.102237 1.91728 0
M  V30 4476 O 434.41 -0.271759 2.67423 0
M  V30 4477 C 432.681 2.21303 2.80642 0
M  V30 4478 S 434.24 2.34468 3.70904 0
M  V30 4479 H 431.058 0.468141 0.535131 0
M  V30 4480 H 433.66 1.71841 0.932246 0
M  V30 4481 H 432.364 3.23439 2.52617 0
M  V30 4482 H 431.895 1.82266 3.4863 0
M  V30 4483 H 433.91 1.54074 4.71673 0
M  V30 4484 N 433.083 -1.0153 1.20538 0
M  V30 4485 C 433.993 -2.13557 0.971113 0
M  V30 4486 C 435.009 -1.73845 -0.0734366 0
M  V30 4487 O 436.185 -2.01075 0.114299 0
M  V30 4488 C 433.25 -3.42661 0.527639 0
M  V30 4489 C 432.311 -3.96608 1.64319 0
M  V30 4490 C 431.544 -5.1955 1.22078 0
M  V30 4491 O 431.767 -5.70329 0.0900198 0
M  V30 4492 O 430.701 -5.66681 2.02871 0
M  V30 4493 H 434.527 -2.3619 1.90913 0
M  V30 4494 H 432.112 -1.11946 0.989362 0
M  V30 4495 H 433.994 -4.20404 0.289621 0
M  V30 4496 H 432.669 -3.21441 -0.381779 0
M  V30 4497 H 431.576 -3.20139 1.93551 0
M  V30 4498 H 432.909 -4.22219 2.52966 0
M  V30 4499 N 434.561 -1.01147 -1.20859 0
M  V30 4500 C 435.809 -0.696486 -1.89719 0
M  V30 4501 C 436.13 0.775788 -1.78904 0
M  V30 4502 O 435.4 1.55759 -1.18811 0
M  V30 4503 H 433.98 -0.254628 -0.702263 0
M  V30 4504 H 436.642 -1.28197 -1.46804 0
M  V30 4505 H 435.738 -0.975357 -2.96468 0
M  V30 4506 N 436.039 1.36541 -0.78704 0
M  V30 4507 C 437.264 2.0409 -0.369053 0
M  V30 4508 C 437.689 1.58957 1.00569 0
M  V30 4509 O 437.047 0.756926 1.64743 0
M  V30 4510 C 437.095 3.57924 -0.438466 0
M  V30 4511 O 436.199 4.08642 0.555479 0
M  V30 4512 H 435.54 0.645142 -0.157122 0
M  V30 4513 H 438.07 1.74545 -1.06749 0
M  V30 4514 H 438.08 4.06887 -0.301218 0
M  V30 4515 H 436.755 3.90127 -1.44132 0
M  V30 4516 H 435.332 3.70958 0.380088 0
M  V30 4517 N 437.518 0.538854 1.48102 0
M  V30 4518 C 438.743 0.0102694 2.07397 0
M  V30 4519 C 439.168 -1.26562 1.39153 0
M  V30 4520 O 438.526 -1.75357 0.460387 0
M  V30 4521 C 438.574 -0.187602 3.60112 0
M  V30 4522 O 437.678 -1.25432 3.92862 0
M  V30 4523 H 437.019 0.0430975 0.6626 0
M  V30 4524 H 439.549 0.749301 1.90385 0
M  V30 4525 H 439.559 -0.407517 4.0596 0
M  V30 4526 H 438.234 0.744386 4.09184 0
M  V30 4527 H 436.811 -1.01636 3.58782 0
M  V30 4528 N 438.996 -1.55193 0.274407 0
M  V30 4529 C 439.926 -2.25471 -0.607032 0
M  V30 4530 C 440.907 -1.24461 -1.15946 0
M  V30 4531 O 442.092 -1.53179 -1.19373 0
M  V30 4532 C 439.222 -2.97526 -1.79153 0
M  V30 4533 C 438.176 -4.05459 -1.37067 0
M  V30 4534 C 437.502 -4.65084 -2.6382 0
M  V30 4535 C 438.802 -5.19691 -0.521389 0
M  V30 4536 H 440.496 -2.99393 -0.0209343 0
M  V30 4537 H 438.042 -1.43997 -0.00862866 0
M  V30 4538 H 439.995 -3.45402 -2.41404 0
M  V30 4539 H 438.719 -2.21138 -2.40344 0
M  V30 4540 H 437.378 -3.58393 -0.771355 0
M  V30 4541 H 437.026 -3.85365 -3.23268 0
M  V30 4542 H 436.726 -5.37961 -2.36372 0
M  V30 4543 H 438.25 -5.15708 -3.26921 0
M  V30 4544 H 439.664 -5.63623 -1.04889 0
M  V30 4545 H 438.061 -5.99126 -0.341825 0
M  V30 4546 H 439.131 -4.82713 0.46 0
M  V30 4547 N 440.474 -0.00167713 -1.576 0
M  V30 4548 C 441.699 0.69739 -1.95323 0
M  V30 4549 C 442.124 1.6642 -0.876706 0
M  V30 4550 O 441.482 1.80548 0.165007 0
M  V30 4551 C 441.53 1.40403 -3.32144 0
M  V30 4552 O 440.634 2.5185 -3.26566 0
M  V30 4553 H 439.975 0.185373 -0.637599 0
M  V30 4554 H 442.505 -0.0553665 -2.04525 0
M  V30 4555 H 442.515 1.76707 -3.67748 0
M  V30 4556 H 441.19 0.695167 -4.10049 0
M  V30 4557 H 439.767 2.17861 -3.0264 0
M  V30 4558 N 441.952 1.55251 0.271103 0
M  V30 4559 C 442.915 1.87484 1.31842 0
M  V30 4560 C 443.915 0.749545 1.42262 0
M  V30 4561 O 445.105 1.01771 1.4138 0
M  V30 4562 C 442.237 2.0818 2.69951 0
M  V30 4563 H 443.43 2.81108 1.0449 0
M  V30 4564 H 440.983 1.47771 0.509258 0
M  V30 4565 H 441.718 1.16944 3.02481 0
M  V30 4566 H 441.503 2.90114 2.63774 0
M  V30 4567 H 442.993 2.34385 3.4562 0
M  V30 4568 N 443.43 -0.535701 1.48216 0
M  V30 4569 C 444.676 -1.29375 1.56173 0
M  V30 4570 C 445.009 -1.92804 0.232429 0
M  V30 4571 O 444.284 -1.78992 -0.761048 0
M  V30 4572 C 444.567 -2.38747 2.69577 0
M  V30 4573 C 444.42 -1.80046 4.12193 0
M  V30 4574 C 445.739 -3.40551 2.78771 0
M  V30 4575 H 442.858 -0.469027 0.568491 0
M  V30 4576 H 445.5 -0.597358 1.80365 0
M  V30 4577 H 443.65 -2.98147 2.4908 0
M  V30 4578 H 445.322 -1.24742 4.44114 0
M  V30 4579 H 443.565 -1.10609 4.19462 0
M  V30 4580 H 444.236 -2.59212 4.87353 0
M  V30 4581 H 446.712 -2.91099 2.97322 0
M  V30 4582 H 445.588 -4.1448 3.59857 0
M  V30 4583 H 445.849 -4.00746 1.86696 0
M  V30 4584 N 444.908 -1.36708 -0.784132 0
M  V30 4585 C 446.155 -1.31231 -1.54222 0
M  V30 4586 C 446.483 0.106864 -1.94206 0
M  V30 4587 O 445.738 1.07734 -1.63376 0
M  V30 4588 C 446.037 -2.18571 -2.82774 0
M  V30 4589 C 445.703 -3.67039 -2.61903 0
M  V30 4590 C 444.365 -4.07503 -2.55919 0
M  V30 4591 C 446.717 -4.61149 -2.4288 0
M  V30 4592 C 444.045 -5.40211 -2.28886 0
M  V30 4593 C 446.397 -5.94081 -2.17373 0
M  V30 4594 C 445.061 -6.33664 -2.09825 0
M  V30 4595 H 444.331 -0.48021 -0.56434 0
M  V30 4596 H 446.978 -1.68807 -0.904233 0
M  V30 4597 H 445.283 -1.73949 -3.51068 0
M  V30 4598 H 446.98 -2.11655 -3.40592 0
M  V30 4599 H 443.57 -3.34941 -2.67418 0
M  V30 4600 H 447.754 -4.30756 -2.46501 0
M  V30 4601 H 443.01 -5.69855 -2.21529 0
M  V30 4602 H 447.184 -6.66566 -2.01649 0
M  V30 4603 H 444.811 -7.36423 -1.88641 0
M  V30 4604 N 446.386 1.0089 -1.21074 0
M  V30 4605 C 447.296 2.13039 -0.982425 0
M  V30 4606 C 448.312 1.73881 0.0642161 0
M  V30 4607 O 449.488 2.01012 -0.12496 0
M  V30 4608 C 446.553 3.42377 -0.545803 0
M  V30 4609 C 445.614 3.95731 -1.6642 0
M  V30 4610 C 444.847 5.18896 -1.24832 0
M  V30 4611 O 445.07 5.70273 -0.120265 0
M  V30 4612 O 444.004 5.65597 -2.05873 0
M  V30 4613 H 447.83 2.35175 -1.92163 0
M  V30 4614 H 445.415 1.1142 -0.995285 0
M  V30 4615 H 447.297 4.20244 -0.311912 0
M  V30 4616 H 445.972 3.21639 0.364727 0
M  V30 4617 H 444.879 3.19108 -1.95246 0
M  V30 4618 H 446.212 4.20872 -2.55201 0
M  V30 4619 N 447.864 1.01787 1.20321 0
M  V30 4620 C 448.814 0.559976 2.21016 0
M  V30 4621 C 449.798 -0.385366 1.56217 0
M  V30 4622 O 450.99 -0.208126 1.75772 0
M  V30 4623 C 448.119 -0.0990553 3.43157 0
M  V30 4624 C 447.205 0.86807 4.15121 0
M  V30 4625 N 447.596 2.0261 4.63447 0
M  V30 4626 C 445.894 0.689162 4.40643 0
M  V30 4627 C 446.595 2.63518 5.18588 0
M  V30 4628 N 445.571 1.91569 5.08726 0
M  V30 4629 H 449.373 1.44281 2.56048 0
M  V30 4630 H 446.887 0.883381 1.36272 0
M  V30 4631 H 448.884 -0.444643 4.14522 0
M  V30 4632 H 447.544 -0.977709 3.0963 0
M  V30 4633 H 448.555 2.40598 4.58621 0
M  V30 4634 H 445.232 -0.14133 4.17261 0
M  V30 4635 H 446.622 3.61527 5.66346 0
M  V30 4636 N 449.342 -1.36122 0.79427 0
M  V30 4637 C 450.589 -1.99111 0.368905 0
M  V30 4638 C 450.917 -1.63032 -1.0607 0
M  V30 4639 O 450.172 -0.879303 -1.74833 0
M  V30 4640 C 450.471 -3.5409 0.48527 0
M  V30 4641 C 450.137 -4.10003 1.87638 0
M  V30 4642 C 448.799 -4.24986 2.257 0
M  V30 4643 C 451.151 -4.40423 2.78706 0
M  V30 4644 C 448.479 -4.67701 3.54221 0
M  V30 4645 C 450.831 -4.84573 4.0666 0
M  V30 4646 C 449.495 -4.97761 4.44737 0
M  V30 4647 H 448.765 -0.7286 0.134992 0
M  V30 4648 H 451.412 -1.62534 1.01267 0
M  V30 4649 H 449.717 -3.91052 -0.241984 0
M  V30 4650 H 451.414 -4.00766 0.137109 0
M  V30 4651 H 448.004 -3.98784 1.57064 0
M  V30 4652 H 452.188 -4.28412 2.50553 0
M  V30 4653 H 447.444 -4.761 3.83587 0
M  V30 4654 H 451.618 -5.07074 4.77336 0
M  V30 4655 H 449.245 -5.30618 5.44379 0
M  V30 4656 N 450.82 -0.546701 -1.47814 0
M  V30 4657 C 451.783 0.196287 -2.28358 0
M  V30 4658 C 452.783 0.852437 -1.36346 0
M  V30 4659 O 453.973 0.709913 -1.59078 0
M  V30 4660 C 451.105 1.28579 -3.15722 0
M  V30 4661 H 452.298 -0.511086 -2.95513 0
M  V30 4662 H 449.851 -0.303248 -1.5333 0
M  V30 4663 H 450.586 2.0259 -2.53235 0
M  V30 4664 H 450.371 0.820229 -3.83425 0
M  V30 4665 H 451.861 1.80793 -3.76435 0
M  V30 4666 N 452.299 1.55045 -0.282633 0
M  V30 4667 C 453.232 2.18951 0.64311 0
M  V30 4668 C 454.21 1.15287 1.14664 0
M  V30 4669 O 455.394 1.43846 1.21822 0
M  V30 4670 C 452.521 2.81874 1.87789 0
M  V30 4671 C 451.567 3.98906 1.50919 0
M  V30 4672 S 452.4 5.3234 0.580884 0
M  V30 4673 C 453.556 5.98737 1.82387 0
M  V30 4674 H 453.789 2.97131 0.100138 0
M  V30 4675 H 451.322 1.54255 -0.0668514 0
M  V30 4676 H 453.28 3.18757 2.58658 0
M  V30 4677 H 451.941 2.03573 2.392 0
M  V30 4678 H 451.134 4.4165 2.42819 0
M  V30 4679 H 450.736 3.63485 0.88061 0
M  V30 4680 H 453.028 6.18427 2.76684 0
M  V30 4681 H 453.971 6.93318 1.4393 0
M  V30 4682 H 454.379 5.28177 1.99223 0
M  V30 4683 N 453.777 0.010035 1.57597 0
M  V30 4684 C 454.71 -1.01234 2.04516 0
M  V30 4685 C 455.688 -1.32886 0.937024 0
M  V30 4686 O 456.872 -1.44879 1.20592 0
M  V30 4687 C 453.999 -2.33738 2.45121 0
M  V30 4688 C 453.045 -2.17679 3.66767 0
M  V30 4689 S 453.878 -1.49343 5.14254 0
M  V30 4690 C 455.034 -2.83256 5.58137 0
M  V30 4691 H 455.267 -0.612866 2.90914 0
M  V30 4692 H 452.8 -0.201124 1.53084 0
M  V30 4693 H 454.758 -3.09922 2.69182 0
M  V30 4694 H 453.419 -2.70823 1.59103 0
M  V30 4695 H 452.612 -3.1559 3.92962 0
M  V30 4696 H 452.214 -1.4964 3.42759 0
M  V30 4697 H 454.506 -3.79538 5.6121 0
M  V30 4698 H 455.449 -2.61749 6.57946 0
M  V30 4699 H 455.857 -2.87627 4.85727 0
M  V30 4700 N 455.255 -1.55392 -0.262866 0
M  V30 4701 C 456.187 -1.85392 -1.34768 0
M  V30 4702 C 457.2 -0.739069 -1.45057 0
M  V30 4703 O 458.389 -1.01703 -1.46693 0
M  V30 4704 C 455.489 -2.01088 -2.72795 0
M  V30 4705 C 454.662 -3.31828 -2.84972 0
M  V30 4706 C 453.721 -3.37464 -4.03738 0
M  V30 4707 O 452.747 -4.10778 -3.94018 0
M  V30 4708 N 453.949 -2.65599 -5.16176 0
M  V30 4709 H 456.714 -2.79029 -1.09375 0
M  V30 4710 H 454.275 -1.55434 -0.452981 0
M  V30 4711 H 456.267 -2.02217 -3.50557 0
M  V30 4712 H 454.837 -1.1427 -2.90966 0
M  V30 4713 H 454.057 -3.43152 -1.94012 0
M  V30 4714 H 455.345 -4.18032 -2.90045 0
M  V30 4715 H 454.743 -2.05736 -5.26962 0
M  V30 4716 H 453.3 -2.72439 -5.92132 0
M  V30 4717 N 456.733 0.527833 -1.48498 0
M  V30 4718 C 458.149 0.856571 -1.34666 0
M  V30 4719 C 458.349 1.98271 -0.35931 0
M  V30 4720 O 457.405 2.51551 0.218703 0
M  V30 4721 C 458.718 1.22207 -2.74747 0
M  V30 4722 C 460.266 1.33183 -2.83251 0
M  V30 4723 C 460.741 1.73075 -4.24039 0
M  V30 4724 N 462.232 1.80174 -4.26722 0
M  V30 4725 C 462.967 2.1243 -5.32598 0
M  V30 4726 N 462.463 2.43096 -6.4875 0
M  V30 4727 N 464.256 2.13454 -5.19994 0
M  V30 4728 H 456.407 -0.215174 -2.11307 0
M  V30 4729 H 458.67 -0.0336281 -0.947403 0
M  V30 4730 H 458.376 0.468195 -3.4857 0
M  V30 4731 H 458.25 2.17173 -3.08409 0
M  V30 4732 H 460.637 2.07647 -2.09683 0
M  V30 4733 H 460.718 0.363333 -2.53206 0
M  V30 4734 H 460.362 0.991712 -4.98124 0
M  V30 4735 H 460.292 2.70979 -4.51529 0
M  V30 4736 H 462.783 1.58744 -3.42942 0
M  V30 4737 H 463.096 2.6682 -7.25277 0
M  V30 4738 H 461.441 2.40611 -6.52021 0
M  V30 4739 H 464.632 1.88956 -4.28268 0
M  V30 4740 H 464.805 2.38261 -6.02608 0
M  V30 4741 N 458.211 1.37122 0.776871 0
M  V30 4742 C 459.488 1.22586 1.52421 0
M  V30 4743 C 459.868 -0.182726 2.10308 0
M  V30 4744 O 459.216 -1.18979 1.9508 0
M  V30 4745 C 459.426 2.31782 2.60918 0
M  V30 4746 C 460.774 2.69071 3.2846 0
M  V30 4747 O 461.798 2.3092 2.71209 0
M  V30 4748 O 460.657 3.3478 4.31954 0
M  V30 4749 H 457.751 0.478045 0.674835 0
M  V30 4750 H 460.297 1.48888 0.814275 0
M  V30 4751 H 459.069 3.26131 2.16227 0
M  V30 4752 H 458.692 2.06916 3.39517 0
M  V30 4753 N 459.689 -1.00246 1.21608 0
M  V30 4754 C 460.914 -1.78167 1.06167 0
M  V30 4755 C 461.339 -1.84138 -0.384035 0
M  V30 4756 O 460.697 -1.28683 -1.27712 0
M  V30 4757 C 460.745 -3.19786 1.66642 0
M  V30 4758 O 459.849 -4.02153 0.913613 0
M  V30 4759 H 459.19 -0.549 0.37349 0
M  V30 4760 H 461.72 -1.25994 1.61204 0
M  V30 4761 H 461.73 -3.70451 1.70969 0
M  V30 4762 H 460.405 -3.14754 2.7185 0
M  V30 4763 H 458.982 -3.60711 0.945635 0
M  V30 4764 N 461.167 -1.02423 -1.1978 0
M  V30 4765 C 462.413 -0.72878 -1.89896 0
M  V30 4766 C 462.768 0.734248 -1.77839 0
M  V30 4767 O 462.061 1.52733 -1.15685 0
M  V30 4768 C 462.255 -1.1088 -3.39765 0
M  V30 4769 C 462.084 -2.60722 -3.66407 0
M  V30 4770 C 460.854 -3.27623 -3.84696 0
M  V30 4771 C 463.052 -3.58924 -3.68345 0
M  V30 4772 N 461.034 -4.66617 -3.98926 0
M  V30 4773 C 462.405 -4.83514 -3.8809 0
M  V30 4774 C 464.46 -3.52788 -3.51347 0
M  V30 4775 C 463.163 -6.0271 -3.92598 0
M  V30 4776 C 465.189 -4.71394 -3.5713 0
M  V30 4777 C 464.551 -5.94796 -3.77356 0
M  V30 4778 H 460.65 -0.318473 -0.714212 0
M  V30 4779 H 463.234 -1.3106 -1.43984 0
M  V30 4780 H 461.405 -0.555233 -3.84411 0
M  V30 4781 H 463.137 -0.766082 -3.97383 0
M  V30 4782 H 459.892 -2.7804 -3.83393 0
M  V30 4783 H 460.316 -5.38805 -4.099 0
M  V30 4784 H 464.958 -2.58372 -3.3467 0
M  V30 4785 H 462.676 -6.97499 -4.08069 0
M  V30 4786 H 466.262 -4.6827 -3.45275 0
M  V30 4787 H 465.142 -6.85037 -3.81699 0
M  V30 4788 N 462.645 1.35699 -0.801477 0
M  V30 4789 C 463.555 2.33661 -0.209691 0
M  V30 4790 C 464.571 1.6162 0.644591 0
M  V30 4791 O 465.747 1.93529 0.557545 0
M  V30 4792 C 462.812 3.40816 0.636033 0
M  V30 4793 C 461.873 4.28639 -0.238147 0
M  V30 4794 C 461.106 5.30676 0.567307 0
M  V30 4795 O 461.329 5.41174 1.8024 0
M  V30 4796 O 460.263 6.01887 -0.0391336 0
M  V30 4797 H 464.089 2.8606 -1.01996 0
M  V30 4798 H 461.674 1.38379 -0.563164 0
M  V30 4799 H 463.556 4.06301 1.11791 0
M  V30 4800 H 462.231 2.90696 1.42399 0
M  V30 4801 H 461.138 3.66152 -0.767044 0
M  V30 4802 H 462.471 4.82143 -0.989915 0
M  V30 4803 N 464.123 0.554532 1.47522 0
M  V30 4804 C 465.4 -0.0360704 1.95567 0
M  V30 4805 C 465.78 -1.48828 1.49711 0
M  V30 4806 O 465.128 -2.16366 0.734717 0
M  V30 4807 C 465.338 0.106631 3.48837 0
M  V30 4808 C 466.686 -0.0400899 4.24581 0
M  V30 4809 O 467.71 0.0340453 3.56184 0
M  V30 4810 O 466.569 -0.199111 5.46137 0
M  V30 4811 H 463.663 -0.0656294 0.824392 0
M  V30 4812 H 466.209 0.620867 1.57935 0
M  V30 4813 H 464.981 1.11727 3.7501 0
M  V30 4814 H 464.604 -0.58804 3.93227 0
M  V30 4815 N 465.601 -1.54893 0.290851 0
M  V30 4816 C 466.85 -1.99111 -0.322113 0
M  V30 4817 C 467.163 -1.18283 -1.55784 0
M  V30 4818 O 468.369 -1.5272 -2.24475 0
M  V30 4819 C 466.825 -3.54442 -0.624438 0
M  V30 4820 C 466.433 -4.44066 0.592373 0
M  V30 4821 C 468.177 -4.07211 -1.19916 0
M  V30 4822 C 466.084 -5.90812 0.263762 0
M  V30 4823 H 465.014 -0.743712 -0.124133 0
M  V30 4824 H 467.665 -1.79132 0.39797 0
M  V30 4825 H 466.047 -3.70281 -1.40384 0
M  V30 4826 H 467.221 -4.39999 1.36886 0
M  V30 4827 H 465.536 -4.02015 1.08502 0
M  V30 4828 H 468.133 -5.14407 -1.45909 0
M  V30 4829 H 468.476 -3.57196 -2.13815 0
M  V30 4830 H 469.009 -3.94873 -0.481687 0
M  V30 4831 H 465.748 -6.44955 1.17105 0
M  V30 4832 H 465.268 -5.97911 -0.475655 0
M  V30 4833 H 466.947 -6.46852 -0.138354 0
M  V30 4834 N 467.08 -0.0183926 -1.57589 0
M  V30 4835 C 468.327 0.662562 -1.91354 0
M  V30 4836 C 468.655 1.72747 -0.893788 0
M  V30 4837 O 467.91 1.9545 0.0988509 0
M  V30 4838 C 468.209 1.32676 -3.31861 0
M  V30 4839 C 467.875 0.393267 -4.49182 0
M  V30 4840 C 466.537 0.136302 -4.81007 0
M  V30 4841 C 468.889 -0.248366 -5.20608 0
M  V30 4842 C 466.217 -0.770282 -5.81621 0
M  V30 4843 C 468.569 -1.14294 -6.22189 0
M  V30 4844 C 467.233 -1.4089 -6.52462 0
M  V30 4845 H 466.503 0.242448 -0.700214 0
M  V30 4846 H 469.15 -0.0778629 -1.91342 0
M  V30 4847 H 467.455 2.14168 -3.28084 0
M  V30 4848 H 469.152 1.86001 -3.55253 0
M  V30 4849 H 465.742 0.603723 -4.24327 0
M  V30 4850 H 469.926 -0.062883 -4.9626 0
M  V30 4851 H 465.182 -0.984154 -6.03427 0
M  V30 4852 H 469.356 -1.64637 -6.76659 0
M  V30 4853 H 466.983 -2.11306 -7.30242 0
M  V30 4854 N 468.558 1.5553 0.254621 0
M  V30 4855 C 469.468 1.92789 1.33677 0
M  V30 4856 C 470.484 0.827356 1.53071 0
M  V30 4857 O 471.66 1.12807 1.66843 0
M  V30 4858 C 468.725 2.20827 2.67275 0
M  V30 4859 C 467.786 3.4427 2.5647 0
M  V30 4860 C 467.019 3.70961 3.83697 0
M  V30 4861 O 467.242 2.99852 4.85227 0
M  V30 4862 O 466.176 4.64491 3.82794 0
M  V30 4863 H 470.002 2.84945 1.05071 0
M  V30 4864 H 467.587 1.42312 0.454723 0
M  V30 4865 H 469.469 2.40204 3.46237 0
M  V30 4866 H 468.144 1.31851 2.9563 0
M  V30 4867 H 467.051 3.30209 1.75821 0
M  V30 4868 H 468.384 4.33524 2.33062 0
M  V30 4869 N 470.036 -0.519951 1.48776 0
M  V30 4870 C 470.966 -1.63253 1.66945 0
M  V30 4871 C 471.947 -1.62014 0.518224 0
M  V30 4872 O 473.132 -1.79053 0.751919 0
M  V30 4873 C 470.262 -3.0181 1.71836 0
M  V30 4874 C 469.216 -3.17911 2.8656 0
M  V30 4875 C 468.542 -4.5763 2.76548 0
M  V30 4876 C 469.842 -2.99729 4.27738 0
M  V30 4877 H 471.536 -1.48302 2.6009 0
M  V30 4878 H 469.082 -0.712026 1.25165 0
M  V30 4879 H 471.035 -3.79525 1.83135 0
M  V30 4880 H 469.759 -3.17806 0.752775 0
M  V30 4881 H 468.418 -2.42616 2.74833 0
M  V30 4882 H 468.066 -4.70476 1.77937 0
M  V30 4883 H 467.766 -4.69346 3.53536 0
M  V30 4884 H 469.29 -5.37431 2.89828 0
M  V30 4885 H 470.704 -3.67228 4.40246 0
M  V30 4886 H 469.101 -3.22932 5.05801 0
M  V30 4887 H 470.171 -1.96047 4.43502 0
M  V30 4888 N 471.514 -1.37532 -0.769588 0
M  V30 4889 C 472.444 -1.36172 -1.89682 0
M  V30 4890 C 473.425 -0.23001 -1.68538 0
M  V30 4891 O 474.61 -0.43069 -1.89364 0
M  V30 4892 C 471.74 -1.1701 -3.26995 0
M  V30 4893 C 470.694 -2.27216 -3.62708 0
M  V30 4894 C 470.02 -1.93174 -4.98586 0
M  V30 4895 C 471.32 -3.6941 -3.69234 0
M  V30 4896 H 473.014 -2.30499 -1.91078 0
M  V30 4897 H 470.56 -1.10953 -0.917902 0
M  V30 4898 H 472.513 -1.14688 -4.05493 0
M  V30 4899 H 471.237 -0.191395 -3.26039 0
M  V30 4900 H 469.896 -2.28697 -2.86519 0
M  V30 4901 H 469.544 -0.938281 -4.94171 0
M  V30 4902 H 469.244 -2.66973 -5.23449 0
M  V30 4903 H 470.768 -1.92443 -5.79481 0
M  V30 4904 H 472.182 -3.70047 -4.37879 0
M  V30 4905 H 470.579 -4.4228 -4.05597 0
M  V30 4906 H 471.649 -4.0288 -2.69844 0
M  V30 4907 N 472.992 0.995999 -1.22138 0
M  V30 4908 C 474.239 1.7351 -1.04406 0
M  V30 4909 C 474.567 1.89884 0.421244 0
M  V30 4910 O 473.822 1.43683 1.32867 0
M  V30 4911 C 474.121 3.14553 -1.6968 0
M  V30 4912 C 473.787 3.18102 -3.19565 0
M  V30 4913 C 472.449 3.18778 -3.60464 0
M  V30 4914 C 474.801 3.14636 -4.15516 0
M  V30 4915 C 472.129 3.13684 -4.95801 0
M  V30 4916 C 474.481 3.11084 -5.50826 0
M  V30 4917 C 473.145 3.10074 -5.91109 0
M  V30 4918 H 472.415 0.634916 -0.38205 0
M  V30 4919 H 475.062 1.1667 -1.51857 0
M  V30 4920 H 473.367 3.74682 -1.14546 0
M  V30 4921 H 475.064 3.70477 -1.53454 0
M  V30 4922 H 471.654 3.18324 -2.86998 0
M  V30 4923 H 475.838 3.13266 -3.84939 0
M  V30 4924 H 471.094 3.11245 -5.26247 0
M  V30 4925 H 475.268 3.07357 -6.24904 0
M  V30 4926 H 472.895 3.05882 -6.95946 0
M  V30 4927 N 474.47 1.03057 1.19235 0
M  V30 4928 C 475.716 0.738841 1.89506 0
M  V30 4929 C 476.071 -0.724807 1.78225 0
M  V30 4930 O 475.364 -1.52118 1.16494 0
M  V30 4931 C 475.558 1.1268 3.39172 0
M  V30 4932 C 475.387 2.62662 3.65019 0
M  V30 4933 C 474.157 3.29658 3.82954 0
M  V30 4934 C 476.355 3.60873 3.66436 0
M  V30 4935 N 474.337 4.68726 3.96446 0
M  V30 4936 C 475.708 4.85566 3.8552 0
M  V30 4937 C 477.763 3.54647 3.49471 0
M  V30 4938 C 476.466 6.04783 3.89397 0
M  V30 4939 C 478.492 4.73281 3.54625 0
M  V30 4940 C 477.854 5.96789 3.74196 0
M  V30 4941 H 473.953 0.322256 0.712513 0
M  V30 4942 H 476.537 1.31822 1.43287 0
M  V30 4943 H 474.708 0.575612 3.84111 0
M  V30 4944 H 476.44 0.787145 3.96971 0
M  V30 4945 H 473.195 2.8007 3.81913 0
M  V30 4946 H 473.619 5.40971 4.07037 0
M  V30 4947 H 478.261 2.60143 3.33295 0
M  V30 4948 H 475.979 6.99654 4.04364 0
M  V30 4949 H 479.565 4.70094 3.42787 0
M  V30 4950 H 478.445 6.87051 3.78061 0
M  V30 4951 N 475.948 -1.35272 0.808662 0
M  V30 4952 C 477.196 -1.98316 0.389233 0
M  V30 4953 C 477.517 -1.64465 -1.04767 0
M  V30 4954 O 476.787 -0.928175 -1.72516 0
M  V30 4955 H 475.367 -0.733585 0.140935 0
M  V30 4956 H 478.029 -1.6515 1.03496 0
M  V30 4957 H 477.125 -3.08123 0.496631 0
M  V30 4958 N 477.426 -0.562348 -1.47226 0
M  V30 4959 C 478.842 -0.222492 -1.58042 0
M  V30 4960 C 479.042 1.27505 -1.56028 0
M  V30 4961 O 478.098 2.05555 -1.46641 0
M  V30 4962 C 479.411 -0.853694 -2.88327 0
M  V30 4963 C 480.959 -0.825397 -3.01921 0
M  V30 4964 C 481.434 -1.43576 -4.34914 0
M  V30 4965 N 482.925 -1.39918 -4.41562 0
M  V30 4966 C 483.66 -1.84103 -5.43041 0
M  V30 4967 N 483.156 -2.36167 -6.51304 0
M  V30 4968 N 484.949 -1.75142 -5.34118 0
M  V30 4969 H 477.1 -1.53525 -1.46778 0
M  V30 4970 H 479.363 -0.640527 -0.698877 0
M  V30 4971 H 479.069 -1.90635 -2.95552 0
M  V30 4972 H 478.943 -0.34977 -3.75575 0
M  V30 4973 H 481.33 0.218583 -2.94289 0
M  V30 4974 H 481.411 -1.36713 -2.16202 0
M  V30 4975 H 481.055 -2.47884 -4.43301 0
M  V30 4976 H 480.985 -0.869427 -5.19373 0
M  V30 4977 H 483.476 -1.0184 -3.63919 0
M  V30 4978 H 483.789 -2.67793 -7.24919 0
M  V30 4979 H 482.134 -2.40181 -6.52179 0
M  V30 4980 H 485.325 -1.34241 -4.48439 0
M  V30 4981 H 485.498 -2.09895 -6.13065 0
M  V30 4982 N 478.904 1.54736 -0.299062 0
M  V30 4983 C 480.132 2.04512 0.313447 0
M  V30 4984 C 480.547 1.17643 1.47667 0
M  V30 4985 O 479.904 0.20164 1.81383 0
M  V30 4986 C 479.955 3.53171 0.771542 0
M  V30 4987 O 479.676 4.36736 -0.345379 0
M  V30 4988 C 481.177 4.18936 1.4494 0
M  V30 4989 H 478.397 0.667507 0.0683784 0
M  V30 4990 H 480.941 1.99752 -0.438129 0
M  V30 4991 H 479.096 3.58298 1.47314 0
M  V30 4992 H 479.51 5.24499 0.0109219 0
M  V30 4993 H 480.984 5.24482 1.72111 0
M  V30 4994 H 481.461 3.68554 2.38883 0
M  V30 4995 H 482.067 4.17879 0.791028 0
M  V30 4996 N 480.382 0.0267497 1.57577 0
M  V30 4997 C 481.607 -0.666227 1.96408 0
M  V30 4998 C 482.032 -1.65004 0.903071 0
M  V30 4999 O 481.39 -1.80787 -0.136263 0
M  V30 5000 C 481.438 -1.35101 3.34335 0
M  V30 5001 O 480.542 -2.46623 3.30531 0
M  V30 5002 H 479.883 -0.175206 0.640468 0
M  V30 5003 H 482.413 0.0878977 2.04411 0
M  V30 5004 H 482.423 -1.70834 3.70513 0
M  V30 5005 H 481.098 -0.629844 4.11103 0
M  V30 5006 H 479.675 -2.13019 3.06068 0
M  V30 5007 N 481.861 -1.55662 -0.24637 0
M  V30 5008 C 482.824 -1.89558 -1.28842 0
M  V30 5009 C 483.824 -0.772082 -1.41052 0
M  V30 5010 O 485.014 -1.04007 -1.39743 0
M  V30 5011 C 482.146 -2.12449 -2.66605 0
M  V30 5012 H 483.339 -2.82735 -1.00004 0
M  V30 5013 H 480.892 -1.48562 -0.485684 0
M  V30 5014 H 481.627 -1.21742 -3.00582 0
M  V30 5015 H 481.412 -2.94273 -2.59125 0
M  V30 5016 H 482.902 -2.39854 -3.41847 0
M  V30 5017 N 483.339 0.512053 -1.4905 0
M  V30 5018 C 484.587 1.26436 -1.57665 0
M  V30 5019 C 484.908 1.93255 -0.260293 0
M  V30 5020 O 484.178 1.82206 0.719564 0
M  V30 5021 H 482.758 0.469658 -0.580888 0
M  V30 5022 H 485.42 0.594398 -1.85615 0
M  V30 5023 H 484.516 2.03417 -2.36702 0
M  V30 5024 N 484.817 1.37938 0.762283 0
M  V30 5025 C 486.045 1.36883 1.55147 0
M  V30 5026 C 486.46 -0.0435348 1.8875 0
M  V30 5027 O 485.817 -1.00786 1.52146 0
M  V30 5028 C 485.868 2.21624 2.85596 0
M  V30 5029 O 485.589 3.57358 2.5343 0
M  V30 5030 C 487.09 2.28653 3.7978 0
M  V30 5031 H 484.31 0.468521 0.480343 0
M  V30 5032 H 486.854 1.81404 0.944079 0
M  V30 5033 H 485.009 1.80588 3.42734 0
M  V30 5034 H 485.423 4.01883 3.37032 0
M  V30 5035 H 486.897 2.9225 4.68288 0
M  V30 5036 H 487.374 1.29767 4.19592 0
M  V30 5037 H 487.98 2.70043 3.28568 0
M  V30 5038 N 486.295 -0.989507 1.22664 0
M  V30 5039 C 487.711 -1.25395 0.987331 0
M  V30 5040 C 487.911 -1.9899 -0.317056 0
M  V30 5041 O 486.967 -2.30141 -1.03882 0
M  V30 5042 C 488.28 -2.06242 2.18826 0
M  V30 5043 C 489.828 -2.19413 2.23219 0
M  V30 5044 C 490.303 -3.03648 3.42873 0
M  V30 5045 N 491.794 -3.11234 3.43056 0
M  V30 5046 C 492.529 -3.7671 4.32293 0
M  V30 5047 N 492.025 -4.44085 5.31752 0
M  V30 5048 N 493.818 -3.73505 4.2006 0
M  V30 5049 H 485.969 -0.496212 2.06522 0
M  V30 5050 H 488.232 -0.281784 0.905153 0
M  V30 5051 H 487.938 -1.59531 3.13437 0
M  V30 5052 H 487.812 -3.06996 2.19165 0
M  V30 5053 H 490.199 -2.65336 1.29154 0
M  V30 5054 H 490.28 -1.18078 2.26917 0
M  V30 5055 H 489.924 -2.58424 4.37241 0
M  V30 5056 H 489.854 -4.05132 3.36416 0
M  V30 5057 H 492.345 -2.63287 2.71088 0
M  V30 5058 H 492.658 -4.91797 5.96117 0
M  V30 5059 H 491.003 -4.42822 5.35662 0
M  V30 5060 H 494.194 -3.20033 3.41609 0
M  V30 5061 H 494.367 -4.24253 4.8981 0
M  V30 5062 N 487.773 -1.03688 -1.18687 0
M  V30 5063 C 488.705 -0.582696 -2.21669 0
M  V30 5064 C 489.718 0.345656 -1.59088 0
M  V30 5065 O 490.907 0.140776 -1.77944 0
M  V30 5066 C 488.007 0.169204 -3.38477 0
M  V30 5067 C 487.18 -0.766079 -4.30639 0
M  V30 5068 C 486.239 -0.0581541 -5.26168 0
M  V30 5069 O 485.265 -0.687346 -5.65035 0
M  V30 5070 N 486.467 1.20981 -5.67753 0
M  V30 5071 H 489.232 -1.46843 -2.61261 0
M  V30 5072 H 486.793 -0.916896 -1.33434 0
M  V30 5073 H 488.785 0.652543 -3.99405 0
M  V30 5074 H 487.355 0.956435 -2.97609 0
M  V30 5075 H 486.575 -1.42935 -3.67373 0
M  V30 5076 H 487.863 -1.40146 -4.89118 0
M  V30 5077 H 487.261 1.74159 -5.38224 0
M  V30 5078 H 485.818 1.6375 -6.30896 0
M  V30 5079 N 489.251 1.34841 -0.815825 0
M  V30 5080 C 490.662 1.80937 -0.46029 0
M  V30 5081 C 491.013 1.67685 1.01863 0
M  V30 5082 O 490.138 1.21277 1.79223 0
M  V30 5083 C 490.733 3.28509 -0.828708 0
M  V30 5084 C 489.292 3.72712 -0.525644 0
M  V30 5085 C 488.439 2.56676 -1.04941 0
M  V30 5086 H 491.39 1.22688 -1.00664 0
M  V30 5087 H 491.411 3.80279 -0.129757 0
M  V30 5088 H 490.923 3.38122 -1.90513 0
M  V30 5089 H 489.024 3.68642 0.541666 0
M  V30 5090 H 489.137 4.67119 -1.06474 0
M  V30 5091 H 487.501 2.50302 -0.471286 0
M  V30 5092 H 488.284 2.69063 -2.13214 0
M  V30 5093 N 490.729 0.570148 1.46925 0
M  V30 5094 C 491.661 -0.207909 2.28255 0
M  V30 5095 C 492.674 -0.867301 1.37774 0
M  V30 5096 O 493.863 -0.738976 1.62485 0
M  V30 5097 C 490.963 -1.31298 3.12433 0
M  V30 5098 C 490.136 -0.747915 4.30958 0
M  V30 5099 C 489.195 -1.7391 4.9663 0
M  V30 5100 O 488.221 -1.2801 5.54619 0
M  V30 5101 N 489.423 -3.07288 4.92498 0
M  V30 5102 H 492.188 0.489794 2.95671 0
M  V30 5103 H 489.749 0.407076 1.56699 0
M  V30 5104 H 491.741 -1.97507 3.53232 0
M  V30 5105 H 490.311 -1.91373 2.47175 0
M  V30 5106 H 489.531 0.0913066 3.94094 0
M  V30 5107 H 490.819 -0.349958 5.07595 0
M  V30 5108 H 490.217 -3.47213 4.46609 0
M  V30 5109 H 488.774 -3.69021 5.37277 0
M  V30 5110 N 492.207 -1.54576 0.307264 0
M  V30 5111 C 493.454 -2.00263 -0.300167 0
M  V30 5112 C 493.782 -1.19561 -1.53413 0
M  V30 5113 O 493.037 -0.261487 -1.93945 0
M  V30 5114 C 493.336 -3.50572 -0.695253 0
M  V30 5115 C 493.002 -4.48771 0.437679 0
M  V30 5116 C 491.664 -4.7534 0.748681 0
M  V30 5117 C 494.016 -5.0721 1.19949 0
M  V30 5118 C 491.344 -5.5761 1.8245 0
M  V30 5119 C 493.696 -5.90651 2.26527 0
M  V30 5120 C 492.36 -6.15528 2.58227 0
M  V30 5121 H 491.63 -0.732814 -0.109839 0
M  V30 5122 H 494.277 -1.86664 0.427661 0
M  V30 5123 H 492.582 -3.61814 -1.50326 0
M  V30 5124 H 494.279 -3.83352 -1.17653 0
M  V30 5125 H 490.869 -4.282 0.185187 0
M  V30 5126 H 495.053 -4.86679 0.972474 0
M  V30 5127 H 490.309 -5.75121 2.07476 0
M  V30 5128 H 494.483 -6.34957 2.86011 0
M  V30 5129 H 492.11 -6.79066 3.4172 0
M  V30 5130 N 493.685 -0.035106 -1.57561 0
M  V30 5131 C 494.934 0.641604 -1.91223 0
M  V30 5132 C 495.247 1.72944 -0.913761 0
M  V30 5133 O 496.453 2.46321 -1.14185 0
M  V30 5134 C 494.909 1.19249 -3.3957 0
M  V30 5135 C 494.517 0.137616 -4.47789 0
M  V30 5136 C 496.261 1.84537 -3.82291 0
M  V30 5137 C 494.168 0.700478 -5.87237 0
M  V30 5138 H 493.098 0.243417 -0.713627 0
M  V30 5139 H 495.749 -0.101382 -1.8322 0
M  V30 5140 H 494.131 1.98728 -3.42525 0
M  V30 5141 H 495.305 -0.635153 -4.56402 0
M  V30 5142 H 493.62 -0.416855 -4.14308 0
M  V30 5143 H 496.217 2.27616 -4.83834 0
M  V30 5144 H 496.56 2.69054 -3.17672 0
M  V30 5145 H 497.093 1.11739 -3.81784 0
M  V30 5146 H 493.832 -0.106693 -6.55413 0
M  V30 5147 H 493.352 1.4416 -5.82218 0
M  V30 5148 H 495.031 1.18837 -6.35993 0
M  V30 5149 N 495.163 1.55791 0.238111 0
M  V30 5150 C 496.388 1.8244 0.986432 0
M  V30 5151 C 496.813 0.613314 1.7782 0
M  V30 5152 O 496.171 -0.437767 1.75935 0
M  V30 5153 C 496.219 3.06917 1.893 0
M  V30 5154 O 495.323 2.84449 2.98601 0
M  V30 5155 H 494.664 0.601975 0.280218 0
M  V30 5156 H 497.194 2.02987 0.256437 0
M  V30 5157 H 497.204 3.36583 2.30598 0
M  V30 5158 H 495.879 3.947 1.31091 0
M  V30 5159 H 494.456 2.65972 2.61368 0
M  V30 5160 N 496.642 -0.504142 1.49319 0
M  V30 5161 C 498.058 -0.835039 1.36012 0
M  V30 5162 C 498.258 -1.97674 0.390808 0
M  V30 5163 O 497.314 -2.51867 -0.178655 0
M  V30 5164 C 498.627 -1.17821 2.76656 0
M  V30 5165 C 500.175 -1.2866 2.85334 0
M  V30 5166 C 500.65 -1.66307 4.26739 0
M  V30 5167 N 502.141 -1.73362 4.29534 0
M  V30 5168 C 502.876 -2.0393 5.35911 0
M  V30 5169 N 502.372 -2.32744 6.52535 0
M  V30 5170 N 504.165 -2.05155 5.23324 0
M  V30 5171 H 496.316 0.248764 2.10938 0
M  V30 5172 H 498.579 0.0486962 0.946748 0
M  V30 5173 H 498.285 -0.412682 3.4927 0
M  V30 5174 H 498.159 -2.12239 3.11825 0
M  V30 5175 H 500.546 -2.04285 2.1296 0
M  V30 5176 H 500.627 -0.323004 2.53752 0
M  V30 5177 H 500.271 -0.91234 4.99639 0
M  V30 5178 H 500.201 -2.63761 4.55782 0
M  V30 5179 H 502.692 -1.53268 3.45424 0
M  V30 5180 H 503.005 -2.55248 7.2943 0
M  V30 5181 H 501.35 -2.30207 6.55767 0
M  V30 5182 H 504.541 -1.82119 4.3122 0
M  V30 5183 H 504.714 -2.28644 6.06322 0
M  V30 5184 N 498.12 -1.38341 -0.754957 0
M  V30 5185 C 499.397 -1.24995 -1.50451 0
M  V30 5186 C 499.777 0.149244 -2.10572 0
M  V30 5187 O 499.125 1.15861 -1.96948 0
M  V30 5188 C 499.335 -2.35904 -2.57197 0
M  V30 5189 C 500.683 -2.74262 -3.24138 0
M  V30 5190 O 501.707 -2.35205 -2.67501 0
M  V30 5191 O 500.566 -3.4161 -4.26574 0
M  V30 5192 H 497.66 -0.48872 -0.667144 0
M  V30 5193 H 500.206 -1.50165 -0.790486 0
M  V30 5194 H 498.978 -3.2953 -2.11011 0
M  V30 5195 H 498.601 -2.12291 -3.36182 0
M  V30 5196 N 499.598 0.982988 -1.23187 0
M  V30 5197 C 500.844 1.7273 -1.07405 0
M  V30 5198 C 501.199 1.885 0.385447 0
M  V30 5199 O 500.492 1.4243 1.28157 0
M  V30 5200 C 500.686 3.12736 -1.73006 0
M  V30 5201 C 500.515 3.10621 -3.25184 0
M  V30 5202 C 499.285 3.15957 -3.94334 0
M  V30 5203 C 501.483 2.93992 -4.21987 0
M  V30 5204 N 499.465 3.03701 -5.33516 0
M  V30 5205 C 500.836 2.8987 -5.48065 0
M  V30 5206 C 502.891 2.78457 -4.12754 0
M  V30 5207 C 501.594 2.71804 -6.65969 0
M  V30 5208 C 503.62 2.61754 -5.30319 0
M  V30 5209 C 502.982 2.58328 -6.55321 0
M  V30 5210 H 499.081 0.641279 -0.447533 0
M  V30 5211 H 501.665 1.16664 -1.55877 0
M  V30 5212 H 499.836 3.67026 -1.2707 0
M  V30 5213 H 501.568 3.75786 -1.50224 0
M  V30 5214 H 498.323 3.24034 -3.45397 0
M  V30 5215 H 498.747 3.00855 -6.06478 0
M  V30 5216 H 503.389 2.79898 -3.16886 0
M  V30 5217 H 501.107 2.69108 -7.61975 0
M  V30 5218 H 504.693 2.50702 -5.25014 0
M  V30 5219 H 503.573 2.45564 -7.4476 0
M  V30 5220 N 501.076 1.04316 1.18135 0
M  V30 5221 C 502.026 0.606731 2.19779 0
M  V30 5222 C 503.01 -0.352144 1.56999 0
M  V30 5223 O 504.202 -0.170795 1.76174 0
M  V30 5224 C 501.331 -0.0262443 3.4329 0
M  V30 5225 C 500.417 0.955928 4.13186 0
M  V30 5226 N 500.808 2.12395 4.59045 0
M  V30 5227 C 499.106 0.782473 4.39082 0
M  V30 5228 C 499.807 2.74458 5.12882 0
M  V30 5229 N 498.783 2.02316 5.04548 0
M  V30 5230 H 502.585 1.49679 2.5293 0
M  V30 5231 H 500.099 0.912088 1.34368 0
M  V30 5232 H 502.096 -0.356617 4.15372 0
M  V30 5233 H 500.756 -0.911811 3.11635 0
M  V30 5234 H 501.767 2.50272 4.53414 0
M  V30 5235 H 498.444 -0.0527906 4.17467 0
M  V30 5236 H 499.834 3.73459 5.5855 0
M  V30 5237 N 502.554 -1.34406 0.822964 0
M  V30 5238 C 503.802 -1.97892 0.410245 0
M  V30 5239 C 504.123 -1.65567 -1.03017 0
M  V30 5240 O 503.393 -0.94642 -1.71522 0
M  V30 5241 H 501.973 -0.732049 0.148707 0
M  V30 5242 H 504.635 -1.64043 1.05242 0
M  V30 5243 H 503.731 -3.07579 0.529284 0
M  V30 5244 N 504.032 -0.577932 -1.46621 0
M  V30 5245 C 505.278 -0.0617793 -2.02706 0
M  V30 5246 C 505.611 1.29294 -1.44903 0
M  V30 5247 O 504.886 1.8461 -0.61232 0
M  V30 5248 C 505.169 0.00911824 -3.60099 0
M  V30 5249 C 505.022 -1.37416 -4.28295 0
M  V30 5250 C 506.341 0.712159 -4.343 0
M  V30 5251 H 503.46 -0.0239246 -0.736612 0
M  V30 5252 H 506.102 -0.744211 -1.74818 0
M  V30 5253 H 504.252 0.590292 -3.83989 0
M  V30 5254 H 505.924 -2.00013 -4.15683 0
M  V30 5255 H 504.167 -1.94319 -3.87843 0
M  V30 5256 H 504.838 -1.27707 -5.37024 0
M  V30 5257 H 507.314 0.218486 -4.15526 0
M  V30 5258 H 506.19 0.730782 -5.44014 0
M  V30 5259 H 506.451 1.77251 -4.05012 0
M  V30 5260 N 505.51 1.54411 -0.315457 0
M  V30 5261 C 506.921 1.85885 0.174265 0
M  V30 5262 C 507.272 1.23723 1.52273 0
M  V30 5263 O 506.397 0.540246 2.09548 0
M  V30 5264 C 506.992 3.37257 0.322981 0
M  V30 5265 C 505.551 3.68711 0.756922 0
M  V30 5266 C 504.698 2.77013 -0.126195 0
M  V30 5267 H 507.649 1.49374 -0.536007 0
M  V30 5268 H 507.67 3.62539 1.15522 0
M  V30 5269 H 507.182 3.82471 -0.658602 0
M  V30 5270 H 505.283 3.29024 1.74854 0
M  V30 5271 H 505.396 4.75741 0.566291 0
M  V30 5272 H 503.76 2.51588 0.39692 0
M  V30 5273 H 504.543 3.25051 -1.1044 0
M  V30 5274 N 506.988 0.0434614 1.5754 0
M  V30 5275 C 508.236 -0.630786 1.92004 0
M  V30 5276 C 508.557 -1.71836 0.921807 0
M  V30 5277 O 507.827 -1.9587 -0.034522 0
M  V30 5278 H 506.407 -0.235988 0.708745 0
M  V30 5279 H 509.069 0.0946462 1.9467 0
M  V30 5280 H 508.165 -1.07434 2.93026 0
M  V30 5281 N 508.466 -1.55915 -0.229846 0
M  V30 5282 C 509.398 -1.88209 -1.30805 0
M  V30 5283 C 510.411 -0.769672 -1.43457 0
M  V30 5284 O 511.6 -1.04792 -1.44502 0
M  V30 5285 C 508.7 -2.06829 -2.68468 0
M  V30 5286 C 507.873 -3.37798 -2.77869 0
M  V30 5287 C 506.932 -3.45952 -3.96489 0
M  V30 5288 O 505.958 -4.19043 -3.85216 0
M  V30 5289 N 507.16 -2.76488 -5.10426 0
M  V30 5290 H 509.925 -2.81286 -1.03431 0
M  V30 5291 H 507.486 -1.5636 -0.41991 0
M  V30 5292 H 509.478 -2.09608 -3.46189 0
M  V30 5293 H 508.048 -1.20416 -2.88477 0
M  V30 5294 H 507.268 -3.4719 -1.86689 0
M  V30 5295 H 508.556 -4.24091 -2.81113 0
M  V30 5296 H 507.954 -2.16868 -5.2248 0
M  V30 5297 H 506.511 -2.84938 -5.8622 0
M  V30 5298 N 509.944 0.496216 -1.49584 0
M  V30 5299 C 511.19 1.25189 -1.59548 0
M  V30 5300 C 511.523 1.9212 -0.283466 0
M  V30 5301 O 510.798 1.80947 0.713324 0
M  V30 5302 C 511.081 2.31516 -2.75812 0
M  V30 5303 C 510.934 1.69054 -4.16822 0
M  V30 5304 C 512.253 3.3304 -2.87702 0
M  V30 5305 H 509.372 0.45379 -0.580727 0
M  V30 5306 H 512.014 0.549327 -1.81886 0
M  V30 5307 H 510.164 2.91438 -2.56897 0
M  V30 5308 H 511.836 1.12923 -4.47265 0
M  V30 5309 H 510.079 0.994485 -4.22247 0
M  V30 5310 H 510.75 2.462 -4.94054 0
M  V30 5311 H 513.226 2.83114 -3.04936 0
M  V30 5312 H 512.102 4.04794 -3.7072 0
M  V30 5313 H 512.363 3.95655 -1.97255 0
M  V30 5314 N 511.423 1.38739 0.74761 0
M  V30 5315 C 512.7 1.25791 1.49786 0
M  V30 5316 C 513.08 -0.138075 2.10648 0
M  V30 5317 O 512.428 -1.14815 1.9756 0
M  V30 5318 C 512.638 2.37265 2.55942 0
M  V30 5319 C 513.986 2.75978 3.22679 0
M  V30 5320 O 515.01 2.36621 2.6625 0
M  V30 5321 O 513.869 3.43867 4.24756 0
M  V30 5322 H 510.963 0.492251 0.664543 0
M  V30 5323 H 513.509 1.50582 0.782511 0
M  V30 5324 H 512.281 3.30644 2.0926 0
M  V30 5325 H 511.904 2.14071 3.35051 0
M  V30 5326 N 512.901 -0.976442 1.23707 0
M  V30 5327 C 513.864 -2.0511 1.02287 0
M  V30 5328 C 514.864 -1.60791 -0.0167195 0
M  V30 5329 O 516.054 -1.72761 0.223408 0
M  V30 5330 C 513.186 -3.36458 0.548507 0
M  V30 5331 H 514.379 -2.25545 1.9766 0
M  V30 5332 H 511.932 -1.15042 1.05806 0
M  V30 5333 H 512.667 -3.21713 -0.408818 0
M  V30 5334 H 512.452 -3.69967 1.29874 0
M  V30 5335 H 513.942 -4.15489 0.419406 0
M  V30 5336 N 514.379 -1.04941 -1.1758 0
M  V30 5337 C 515.342 -0.652456 -2.19717 0
M  V30 5338 C 516.342 0.294745 -1.58076 0
M  V30 5339 O 517.532 0.0789579 -1.74021 0
M  V30 5340 C 514.664 0.0420712 -3.40874 0
M  V30 5341 H 515.857 -1.55642 -2.5635 0
M  V30 5342 H 513.41 -0.842995 -1.31618 0
M  V30 5343 H 514.145 0.95943 -3.09783 0
M  V30 5344 H 513.93 -0.638844 -3.86861 0
M  V30 5345 H 515.42 0.306 -4.16477 0
M  V30 5346 N 515.857 1.33968 -0.830081 0
M  V30 5347 C 516.79 2.27303 -0.202182 0
M  V30 5348 C 517.768 1.49235 0.645581 0
M  V30 5349 O 518.952 1.78433 0.607762 0
M  V30 5350 C 516.079 3.31025 0.716932 0
M  V30 5351 C 515.125 4.26466 -0.0542271 0
M  V30 5352 S 515.958 5.16707 -1.40622 0
M  V30 5353 C 517.114 6.23962 -0.492167 0
M  V30 5354 H 517.347 2.8021 -0.99346 0
M  V30 5355 H 514.88 1.41124 -0.626359 0
M  V30 5356 H 516.838 3.91271 1.24165 0
M  V30 5357 H 515.499 2.76951 1.4818 0
M  V30 5358 H 514.692 4.99858 0.644785 0
M  V30 5359 H 514.294 3.7051 -0.509722 0
M  V30 5360 H 516.586 6.76774 0.31347 0
M  V30 5361 H 517.529 6.97927 -1.19599 0
M  V30 5362 H 517.937 5.64447 -0.0774176 0
M  V30 5363 N 517.335 0.585699 1.46312 0
M  V30 5364 C 518.298 -0.135673 2.28798 0
M  V30 5365 C 519.298 -0.815988 1.38558 0
M  V30 5366 O 520.488 -0.667487 1.60904 0
M  V30 5367 C 517.62 -1.20163 3.1902 0
M  V30 5368 H 518.813 0.589257 2.94054 0
M  V30 5369 H 516.366 0.343794 1.52472 0
M  V30 5370 H 517.101 -1.95804 2.58517 0
M  V30 5371 H 516.886 -0.718282 3.85465 0
M  V30 5372 H 518.376 -1.70749 3.81096 0
M  V30 5373 N 518.813 -1.54241 0.323641 0
M  V30 5374 C 520.061 -2.00174 -0.278359 0
M  V30 5375 C 520.382 -1.2134 -1.52648 0
M  V30 5376 O 519.652 -0.315244 -1.93347 0
M  V30 5377 H 518.232 -0.739463 -0.105845 0
M  V30 5378 H 520.894 -1.89864 0.440204 0
M  V30 5379 H 519.99 -3.07486 -0.5347 0
M  V30 5380 N 520.291 -0.0518155 -1.57515 0
M  V30 5381 C 521.707 0.304735 -1.56664 0
M  V30 5382 C 521.907 1.71395 -1.05953 0
M  V30 5383 O 520.963 2.42123 -0.716414 0
M  V30 5384 C 522.276 0.132614 -3.00407 0
M  V30 5385 C 523.824 0.20367 -3.12337 0
M  V30 5386 C 524.299 0.0600706 -4.57961 0
M  V30 5387 N 525.79 0.116326 -4.63054 0
M  V30 5388 C 526.525 0.0293363 -5.73392 0
M  V30 5389 N 526.021 -0.110038 -6.92713 0
M  V30 5390 N 527.814 0.0849651 -5.62036 0
M  V30 5391 H 519.965 -0.973056 -1.888 0
M  V30 5392 H 522.228 -0.377781 -0.869474 0
M  V30 5393 H 521.934 -0.839019 -3.41546 0
M  V30 5394 H 521.808 0.893376 -3.66468 0
M  V30 5395 H 524.195 1.16578 -2.71097 0
M  V30 5396 H 524.276 -0.587857 -2.48954 0
M  V30 5397 H 523.92 -0.898715 -4.99886 0
M  V30 5398 H 523.85 0.87075 -5.19351 0
M  V30 5399 H 526.341 0.22327 -3.7724 0
M  V30 5400 H 526.654 -0.169104 -7.72615 0
M  V30 5401 H 524.999 -0.145132 -6.94848 0
M  V30 5402 H 528.19 0.192411 -4.67704 0
M  V30 5403 H 528.363 0.0137131 -6.47999 0
M  V30 5404 N 521.769 1.56035 0.221574 0
M  V30 5405 C 523.018 1.78245 0.944016 0
M  V30 5406 C 523.331 0.620371 1.85501 0
M  V30 5407 O 524.537 0.726103 2.6161 0
M  V30 5408 C 522.993 3.15659 1.7288 0
M  V30 5409 C 522.601 4.39591 0.863942 0
M  V30 5410 C 524.345 3.47195 2.44246 0
M  V30 5411 C 522.252 5.6803 1.64607 0
M  V30 5412 H 521.182 0.664547 0.356222 0
M  V30 5413 H 523.833 1.8243 0.197904 0
M  V30 5414 H 522.215 3.0565 2.51781 0
M  V30 5415 H 523.389 4.60655 0.115464 0
M  V30 5416 H 521.704 4.15572 0.262407 0
M  V30 5417 H 524.301 4.40381 3.03263 0
M  V30 5418 H 524.644 2.69693 3.1713 0
M  V30 5419 H 525.177 3.58533 1.72334 0
M  V30 5420 H 521.916 6.48425 0.960507 0
M  V30 5421 H 521.436 5.51027 2.36917 0
M  V30 5422 H 523.115 6.08203 2.20675 0
M  V30 5423 N 523.247 -0.488276 1.49845 0
M  V30 5424 C 524.477 -1.26344 1.63465 0
M  V30 5425 C 524.885 -1.86637 0.310379 0
M  V30 5426 O 524.228 -1.69184 -0.715712 0
M  V30 5427 C 524.29 -2.42407 2.65479 0
M  V30 5428 C 523.954 -2.02886 4.09495 0
M  V30 5429 C 524.951 -1.56124 4.95904 0
M  V30 5430 C 522.636 -2.12131 4.55308 0
M  V30 5431 C 524.63 -1.19129 6.26169 0
M  V30 5432 C 522.317 -1.74747 5.85582 0
M  V30 5433 C 523.315 -1.28322 6.70837 0
M  V30 5434 O 523.003 -0.914491 7.98682 0
M  V30 5435 H 522.735 -0.388921 0.552916 0
M  V30 5436 H 525.289 -0.591288 1.96705 0
M  V30 5437 H 523.519 -3.12739 2.27445 0
M  V30 5438 H 525.208 -3.04409 2.68495 0
M  V30 5439 H 525.974 -1.48417 4.61733 0
M  V30 5440 H 521.853 -2.47217 3.89107 0
M  V30 5441 H 525.397 -0.828211 6.92666 0
M  V30 5442 H 521.294 -1.82109 6.19279 0
M  V30 5443 H 522.062 -1.04485 8.11804 0
M  V30 5444 N 524.725 -1.39134 -0.740242 0
M  V30 5445 C 525.974 -1.35384 -1.49512 0
M  V30 5446 C 526.287 0.04919 -1.95538 0
M  V30 5447 O 527.493 0.209257 -2.70692 0
M  V30 5448 C 525.949 -2.37812 -2.70136 0
M  V30 5449 C 525.557 -3.83804 -2.31081 0
M  V30 5450 C 527.301 -2.4313 -3.47977 0
M  V30 5451 C 525.208 -4.77886 -3.48395 0
M  V30 5452 H 524.138 -0.503297 -0.561434 0
M  V30 5453 H 526.789 -1.64754 -0.807974 0
M  V30 5454 H 525.171 -2.01505 -3.40899 0
M  V30 5455 H 526.345 -4.29123 -1.67898 0
M  V30 5456 H 524.66 -3.81732 -1.66343 0
M  V30 5457 H 527.257 -3.10614 -4.35228 0
M  V30 5458 H 527.6 -1.45423 -3.90074 0
M  V30 5459 H 528.133 -2.78304 -2.84239 0
M  V30 5460 H 524.872 -5.76836 -3.11353 0
M  V30 5461 H 524.392 -4.3725 -4.10576 0
M  V30 5462 H 526.071 -4.96538 -4.148 0
M  V30 5463 N 526.204 0.969867 -1.24223 0
M  V30 5464 C 527.429 1.75289 -1.10853 0
M  V30 5465 C 527.854 1.85091 0.335079 0
M  V30 5466 O 527.212 1.32024 1.24255 0
M  V30 5467 C 527.26 3.15255 -1.75062 0
M  V30 5468 O 526.364 3.99589 -1.01992 0
M  V30 5469 H 525.705 0.538904 -0.387915 0
M  V30 5470 H 528.235 1.21675 -1.64488 0
M  V30 5471 H 528.245 3.65787 -1.80731 0
M  V30 5472 H 526.92 3.07436 -2.801 0
M  V30 5473 H 525.497 3.58077 -1.04094 0
M  V30 5474 N 527.682 1.05563 1.17022 0
M  V30 5475 C 528.93 0.76642 1.87004 0
M  V30 5476 C 529.251 -0.708854 1.8166 0
M  V30 5477 O 528.521 -1.51242 1.2451 0
M  V30 5478 H 527.101 0.280516 0.692329 0
M  V30 5479 H 529.763 1.33557 1.41945 0
M  V30 5480 H 528.859 1.08472 2.92644 0
M  V30 5481 N 529.16 -1.33526 0.837174 0
M  V30 5482 C 530.093 -2.27192 0.214233 0
M  V30 5483 C 531.071 -1.49575 -0.637657 0
M  V30 5484 O 532.255 -1.78753 -0.598291 0
M  V30 5485 C 529.382 -3.31401 -0.699367 0
M  V30 5486 C 528.428 -4.26431 0.0768429 0
M  V30 5487 S 529.261 -5.15954 1.4336 0
M  V30 5488 C 530.417 -6.23692 0.525251 0
M  V30 5489 H 530.65 -2.79679 1.00831 0
M  V30 5490 H 528.183 -1.4079 0.633834 0
M  V30 5491 H 530.141 -3.91924 -1.22088 0
M  V30 5492 H 528.802 -2.77732 -1.46709 0
M  V30 5493 H 527.995 -5.00193 -0.618268 0
M  V30 5494 H 527.597 -3.70235 0.529364 0
M  V30 5495 H 529.889 -6.76931 -0.277575 0
M  V30 5496 H 530.832 -6.97283 1.23299 0
M  V30 5497 H 531.24 -5.64398 0.107351 0
M  V30 5498 N 530.638 -0.59345 -1.46 0
M  V30 5499 C 531.601 0.123538 -2.28867 0
M  V30 5500 C 532.601 0.808628 -1.38989 0
M  V30 5501 O 533.791 0.658945 -1.61256 0
M  V30 5502 C 530.923 1.1847 -3.19653 0
M  V30 5503 H 532.116 -0.604843 -2.93737 0
M  V30 5504 H 529.669 -0.351875 -1.52288 0
M  V30 5505 H 530.404 1.94431 -2.59552 0
M  V30 5506 H 530.189 0.69783 -3.8584 0
M  V30 5507 H 531.679 1.68726 -3.81997 0
M  V30 5508 N 532.116 1.54067 -0.331816 0
M  V30 5509 C 533.527 1.86059 0.15454 0
M  V30 5510 C 533.878 1.25331 1.50952 0
M  V30 5511 O 533.003 0.562441 2.08963 0
M  V30 5512 C 533.598 3.37581 0.287192 0
M  V30 5513 C 532.157 3.69493 0.717773 0
M  V30 5514 C 531.304 2.76863 -0.155569 0
M  V30 5515 H 534.255 1.48797 -0.55182 0
M  V30 5516 H 534.276 3.63744 1.11671 0
M  V30 5517 H 533.788 3.81751 -0.699131 0
M  V30 5518 H 531.889 3.3086 1.71354 0
M  V30 5519 H 532.002 4.76315 0.5158 0
M  V30 5520 H 530.366 2.51995 0.370213 0
M  V30 5521 H 531.149 3.23861 -1.13881 0
M  V30 5522 N 533.594 0.0601682 1.57485 0
M  V30 5523 C 535.01 -0.296422 1.56823 0
M  V30 5524 C 535.21 -1.70831 1.0686 0
M  V30 5525 O 534.266 -2.4174 0.729245 0
M  V30 5526 C 535.579 -0.116681 3.00474 0
M  V30 5527 C 537.127 -0.187103 3.1244 0
M  V30 5528 C 537.602 -0.035783 4.57986 0
M  V30 5529 N 539.093 -0.0917676 4.63109 0
M  V30 5530 C 539.828 0.00107251 5.734 0
M  V30 5531 N 539.324 0.146773 6.92645 0
M  V30 5532 N 541.117 -0.0551577 5.62073 0
M  V30 5533 H 533.268 0.983055 1.88281 0
M  V30 5534 H 535.531 0.382386 0.867459 0
M  V30 5535 H 535.237 0.85712 3.41096 0
M  V30 5536 H 535.111 -0.873929 3.66936 0
M  V30 5537 H 537.498 -1.15138 2.71712 0
M  V30 5538 H 537.579 0.601052 2.48638 0
M  V30 5539 H 537.223 0.925212 4.99402 0
M  V30 5540 H 537.153 -0.843196 5.19806 0
M  V30 5541 H 539.644 -0.203261 3.77353 0
M  V30 5542 H 539.957 0.210076 7.72514 0
M  V30 5543 H 538.302 0.181979 6.94762 0
M  V30 5544 H 541.493 -0.167605 4.678 0
M  V30 5545 H 541.666 0.020652 6.47997 0
M  V30 5546 N 535.072 -1.5615 -0.213296 0
M  V30 5547 C 536.483 -1.69645 -0.779582 0
M  V30 5548 C 536.834 -0.663615 -1.84636 0
M  V30 5549 O 535.959 0.183633 -2.15619 0
M  V30 5550 C 536.554 -3.07567 -1.42084 0
M  V30 5551 C 535.113 -3.22889 -1.93442 0
M  V30 5552 C 534.26 -2.65581 -0.797612 0
M  V30 5553 H 537.211 -1.58696 0.0114951 0
M  V30 5554 H 537.232 -3.03884 -2.28986 0
M  V30 5555 H 536.744 -3.82716 -0.644187 0
M  V30 5556 H 534.845 -2.52623 -2.73884 0
M  V30 5557 H 534.958 -4.30197 -2.10872 0
M  V30 5558 H 533.322 -2.24278 -1.20712 0
M  V30 5559 H 534.105 -3.43284 -0.033494 0
M  V30 5560 N 536.55 0.480323 -1.50102 0
M  V30 5561 C 537.775 1.26126 -1.64642 0
M  V30 5562 C 538.2 1.85257 -0.325823 0
M  V30 5563 O 537.558 1.66854 0.709194 0
M  V30 5564 C 537.606 2.35243 -2.73301 0
M  V30 5565 O 536.71 3.39646 -2.33911 0
M  V30 5566 H 536.051 0.371463 -0.550374 0
M  V30 5567 H 538.581 0.572696 -1.96421 0
M  V30 5568 H 538.591 2.80695 -2.96098 0
M  V30 5569 H 537.266 1.91574 -3.6915 0
M  V30 5570 H 535.843 2.99969 -2.21525 0
M  V30 5571 N 538.028 1.39524 0.732853 0
M  V30 5572 C 538.958 1.41153 1.86005 0
M  V30 5573 C 539.939 0.274614 1.67869 0
M  V30 5574 O 541.124 0.480745 1.88155 0
M  V30 5575 C 538.254 1.25638 3.23778 0
M  V30 5576 C 537.208 2.36752 3.56556 0
M  V30 5577 C 536.534 2.06326 4.93289 0
M  V30 5578 C 537.834 3.79069 3.5931 0
M  V30 5579 H 539.528 2.35484 1.84899 0
M  V30 5580 H 537.074 1.13348 0.888162 0
M  V30 5581 H 539.027 1.25398 4.0231 0
M  V30 5582 H 537.751 0.277772 3.25417 0
M  V30 5583 H 536.41 2.36213 2.80355 0
M  V30 5584 H 536.058 1.06897 4.9151 0
M  V30 5585 H 535.758 2.80757 5.16187 0
M  V30 5586 H 537.282 2.07739 5.74175 0
M  V30 5587 H 538.696 3.81526 4.27914 0
M  V30 5588 H 537.093 4.52878 3.93728 0
M  V30 5589 H 538.163 4.09893 2.59068 0
M  V30 5590 N 539.506 -0.963266 1.24736 0
M  V30 5591 C 540.469 -2.04013 1.04457 0
M  V30 5592 C 541.469 -1.608 0.000335555 0
M  V30 5593 O 542.659 -1.72515 0.241719 0
M  V30 5594 C 539.791 -3.35858 0.584162 0
M  V30 5595 H 540.984 -2.23436 2.00041 0
M  V30 5596 H 538.537 -1.13914 1.07021 0
M  V30 5597 H 539.272 -3.22128 -0.374673 0
M  V30 5598 H 539.057 -3.68568 1.3379 0
M  V30 5599 H 540.547 -4.1502 0.463451 0
M  V30 5600 N 540.985 -1.06182 -1.16461 0
M  V30 5601 C 541.932 -0.671613 -2.20812 0
M  V30 5602 C 542.902 0.331186 -1.62765 0
M  V30 5603 O 544.087 0.22033 -1.89524 0
M  V30 5604 C 541.227 -0.063029 -3.45042 0
M  V30 5605 C 540.34 -1.11587 -4.1734 0
M  V30 5606 C 539.475 -0.473546 -5.29085 0
M  V30 5607 C 538.514 -1.51 -5.93182 0
M  V30 5608 N 537.651 -0.891118 -6.96422 0
M  V30 5609 H 542.491 -1.56589 -2.53542 0
M  V30 5610 H 540.028 -0.782951 -1.24532 0
M  V30 5611 H 541.986 0.307344 -4.16066 0
M  V30 5612 H 540.616 0.794663 -3.12866 0
M  V30 5613 H 539.668 -1.60396 -3.44931 0
M  V30 5614 H 540.98 -1.90221 -4.61104 0
M  V30 5615 H 540.134 -0.0501432 -6.06679 0
M  V30 5616 H 538.873 0.344687 -4.8648 0
M  V30 5617 H 537.878 -1.94331 -5.14311 0
M  V30 5618 H 539.103 -2.33031 -6.37866 0
M  V30 5619 H 537.049 -0.0935753 -6.55933 0
M  V30 5620 H 536.966 -1.61486 -7.38551 0
M  V30 5621 H 538.234 -0.492822 -7.77941 0
M  V30 5622 N 542.463 1.3308 -0.844243 0
M  V30 5623 C 543.41 2.29104 -0.279323 0
M  V30 5624 C 544.38 1.54577 0.607882 0
M  V30 5625 O 545.565 1.8285 0.545009 0
M  V30 5626 C 542.705 3.40927 0.53508 0
M  V30 5627 C 541.818 4.30354 -0.376749 0
M  V30 5628 C 540.953 5.29297 0.449276 0
M  V30 5629 C 539.992 6.10365 -0.460606 0
M  V30 5630 N 539.129 7.01335 0.327612 0
M  V30 5631 H 543.969 2.76817 -1.10346 0
M  V30 5632 H 541.506 1.36203 -0.555611 0
M  V30 5633 H 543.464 4.04469 1.02278 0
M  V30 5634 H 542.094 2.94391 1.32414 0
M  V30 5635 H 541.146 3.67485 -0.982791 0
M  V30 5636 H 542.458 4.87067 -1.07549 0
M  V30 5637 H 541.612 5.98392 1.00058 0
M  V30 5638 H 540.351 4.73174 1.18143 0
M  V30 5639 H 539.356 5.40182 -1.02388 0
M  V30 5640 H 540.581 6.68571 -1.1912 0
M  V30 5641 H 538.527 6.47655 1.04305 0
M  V30 5642 H 538.444 7.55355 -0.3123 0
M  V30 5643 H 539.712 7.74731 0.86098 0
M  V30 5644 N 543.941 0.601185 1.45683 0
M  V30 5645 C 544.873 -0.159446 2.28645 0
M  V30 5646 C 545.886 -0.837882 1.39583 0
M  V30 5647 O 547.075 -0.704344 1.64016 0
M  V30 5648 C 544.175 -1.24641 3.15147 0
M  V30 5649 C 543.348 -0.656334 4.32448 0
M  V30 5650 C 542.407 -1.63337 5.00208 0
M  V30 5651 O 541.433 -1.16217 5.57209 0
M  V30 5652 N 542.635 -2.96773 4.98905 0
M  V30 5653 H 545.4 0.5524 2.94565 0
M  V30 5654 H 542.961 0.440223 1.558 0
M  V30 5655 H 544.953 -1.8997 3.57342 0
M  V30 5656 H 543.523 -1.86087 2.51178 0
M  V30 5657 H 542.743 0.174879 3.93812 0
M  V30 5658 H 544.031 -0.242211 5.08223 0
M  V30 5659 H 543.429 -3.37662 4.53873 0
M  V30 5660 H 541.986 -3.57541 5.44984 0
M  V30 5661 N 545.419 -1.53889 0.339982 0
M  V30 5662 C 546.835 -1.59595 -0.0120752 0
M  V30 5663 C 547.035 -1.35605 -1.49042 0
M  V30 5664 O 546.091 -1.14856 -2.24865 0
M  V30 5665 C 547.404 -2.9774 0.420898 0
M  V30 5666 C 548.952 -3.1077 0.37294 0
M  V30 5667 C 549.427 -4.51286 0.781327 0
M  V30 5668 N 550.918 -4.57325 0.735374 0
M  V30 5669 C 551.653 -5.64194 1.02336 0
M  V30 5670 N 551.149 -6.7893 1.37933 0
M  V30 5671 N 552.942 -5.54051 0.947838 0
M  V30 5672 H 545.093 -1.67738 1.30299 0
M  V30 5673 H 547.356 -0.785385 0.530918 0
M  V30 5674 H 547.062 -3.20349 1.45152 0
M  V30 5675 H 546.936 -3.76639 -0.205721 0
M  V30 5676 H 549.323 -2.87886 -0.648505 0
M  V30 5677 H 549.404 -2.33939 1.03472 0
M  V30 5678 H 549.048 -4.74905 1.80077 0
M  V30 5679 H 548.978 -5.26511 0.0970679 0
M  V30 5680 H 551.469 -3.74931 0.472773 0
M  V30 5681 H 551.782 -7.56392 1.58402 0
M  V30 5682 H 550.127 -6.80386 1.41774 0
M  V30 5683 H 553.318 -4.63293 0.669115 0
M  V30 5684 H 553.491 -6.37246 1.17563 0
M  V30 5685 N 546.897 -0.0685191 -1.57451 0
M  V30 5686 C 548.144 0.601348 -1.93365 0
M  V30 5687 C 548.472 1.69816 -0.948294 0
M  V30 5688 O 547.727 1.95666 0.0366199 0
M  V30 5689 C 548.026 1.22051 -3.35914 0
M  V30 5690 C 547.692 0.250165 -4.50205 0
M  V30 5691 C 546.354 -0.0167954 -4.81197 0
M  V30 5692 C 548.706 -0.413867 -5.19554 0
M  V30 5693 C 546.034 -0.95493 -5.78876 0
M  V30 5694 C 548.386 -1.3403 -6.18238 0
M  V30 5695 C 547.05 -1.61576 -6.47649 0
M  V30 5696 H 546.32 0.220049 -0.707573 0
M  V30 5697 H 548.967 -0.138697 -1.90997 0
M  V30 5698 H 547.272 2.03622 -3.34732 0
M  V30 5699 H 548.969 1.74605 -3.6099 0
M  V30 5700 H 545.559 0.468421 -4.26033 0
M  V30 5701 H 549.743 -0.220733 -4.95809 0
M  V30 5702 H 544.999 -1.17563 -5.99991 0
M  V30 5703 H 549.173 -1.86081 -6.71079 0
M  V30 5704 H 546.8 -2.34431 -7.2315 0
M  V30 5705 N 548.375 1.56261 0.205012 0
M  V30 5706 C 549.791 1.49623 0.555433 0
M  V30 5707 C 549.991 0.766719 1.86343 0
M  V30 5708 O 549.047 0.313158 2.50551 0
M  V30 5709 C 550.36 2.94253 0.619347 0
M  V30 5710 C 551.908 3.04868 0.708855 0
M  V30 5711 C 552.383 4.50888 0.803969 0
M  V30 5712 N 553.874 4.54999 0.867758 0
M  V30 5713 C 554.609 5.65284 0.96135 0
M  V30 5714 N 554.105 6.85282 1.01786 0
M  V30 5715 N 555.898 5.53174 0.997771 0
M  V30 5716 H 548.049 2.0211 -0.653094 0
M  V30 5717 H 550.312 0.919333 -0.231366 0
M  V30 5718 H 550.018 3.50643 -0.272458 0
M  V30 5719 H 549.892 3.47063 1.47741 0
M  V30 5720 H 552.279 2.48532 1.5911 0
M  V30 5721 H 552.36 2.55199 -0.175205 0
M  V30 5722 H 552.004 5.07846 -0.0738798 0
M  V30 5723 H 551.934 4.98279 1.70369 0
M  V30 5724 H 554.425 3.68588 0.833735 0
M  V30 5725 H 554.738 7.65081 1.08951 0
M  V30 5726 H 553.083 6.8796 0.986706 0
M  V30 5727 H 556.274 4.5835 0.950392 0
M  V30 5728 H 556.447 6.39151 1.06725 0
M  V30 5729 N 549.853 -0.472356 1.50355 0
M  V30 5730 C 550.803 -1.56809 1.65514 0
M  V30 5731 C 551.787 -1.5261 0.509801 0
M  V30 5732 O 552.979 -1.59655 0.764145 0
M  V30 5733 C 550.108 -2.9526 1.75146 0
M  V30 5734 C 549.194 -3.04348 2.95353 0
M  V30 5735 N 549.585 -2.83253 4.19048 0
M  V30 5736 C 547.883 -3.35482 2.93884 0
M  V30 5737 C 548.584 -2.97273 5.00003 0
M  V30 5738 N 547.56 -3.27418 4.33934 0
M  V30 5739 H 551.362 -1.39197 2.58846 0
M  V30 5740 H 548.876 -0.67906 1.47521 0
M  V30 5741 H 550.873 -3.74044 1.8411 0
M  V30 5742 H 549.533 -3.1392 0.829717 0
M  V30 5743 H 550.544 -2.5886 4.48567 0
M  V30 5744 H 547.221 -3.60138 2.11204 0
M  V30 5745 H 548.611 -2.85214 6.08361 0
M  V30 5746 N 551.331 -1.39911 -0.725443 0
M  V30 5747 C 552.747 -1.21725 -1.03224 0
M  V30 5748 C 552.947 -0.0855224 -2.01318 0
M  V30 5749 O 552.003 0.55976 -2.46217 0
M  V30 5750 C 553.316 -2.55511 -1.58539 0
M  V30 5751 C 554.864 -2.62439 -1.70572 0
M  V30 5752 C 555.339 -3.9647 -2.29294 0
M  V30 5753 N 556.83 -3.98159 -2.36692 0
M  V30 5754 C 557.565 -4.98647 -2.83088 0
M  V30 5755 N 557.061 -6.0953 -3.2931 0
M  V30 5756 N 558.854 -4.8602 -2.82384 0
M  V30 5757 H 551.005 -2.12267 -0.075048 0
M  V30 5758 H 553.268 -0.943136 -0.0959066 0
M  V30 5759 H 552.974 -3.38926 -0.939249 0
M  V30 5760 H 552.848 -2.75905 -2.57208 0
M  V30 5761 H 555.235 -1.79401 -2.34306 0
M  V30 5762 H 555.316 -2.45885 -0.705297 0
M  V30 5763 H 554.96 -4.79942 -1.66186 0
M  V30 5764 H 554.89 -4.10349 -3.30032 0
M  V30 5765 H 557.381 -3.18085 -2.04035 0
M  V30 5766 H 557.694 -6.82106 -3.6325 0
M  V30 5767 H 556.039 -6.1311 -3.27294 0
M  V30 5768 H 559.23 -3.98493 -2.45603 0
M  V30 5769 H 559.403 -5.64478 -3.18226 0
M  V30 5770 N 552.809 0.956637 -1.25245 0
M  V30 5771 C 553.757 2.0743 -1.0524 0
M  V30 5772 C 554.751 1.69392 0.0160725 0
M  V30 5773 O 555.957 1.7946 -0.139382 0
M  V30 5774 H 552.332 0.678921 -0.323373 0
M  V30 5775 H 554.303 2.2146 -1.99995 0
M  V30 5776 C 553.052 3.40872 -0.685702 0
M  V30 5777 H 552.375 3.70607 -1.49968 0
M  V30 5778 H 553.815 4.19939 -0.585415 0
M  V30 5779 C 552.274 3.31367 0.608082 0
M  V30 5780 O 552.804 3.66214 1.65076 0
M  V30 5781 N 551.01 2.84486 0.592955 0
M  V30 5782 H 550.557 2.56326 -0.25592 0
M  V30 5783 H 550.515 2.78509 1.45877 0
M  V30 5784 N 554.287 1.06798 1.15896 0
M  V30 5785 C 555.703 0.792423 1.38538 0
M  V30 5786 C 555.903 -0.60592 1.92174 0
M  V30 5787 O 554.959 -1.36561 2.12385 0
M  V30 5788 C 556.272 1.86157 2.36149 0
M  V30 5789 C 557.82 1.88567 2.49823 0
M  V30 5790 C 558.295 2.9455 3.5072 0
M  V30 5791 N 559.786 2.93616 3.58251 0
M  V30 5792 C 560.521 3.72267 4.36125 0
M  V30 5793 N 560.017 4.60751 5.17379 0
M  V30 5794 N 561.81 3.60637 4.31158 0
M  V30 5795 H 553.961 1.96993 0.794198 0
M  V30 5796 H 556.224 0.853942 0.411688 0
M  V30 5797 H 555.93 2.86603 2.03843 0
M  V30 5798 H 555.804 1.71692 3.3586 0
M  V30 5799 H 558.191 0.887765 2.8143 0
M  V30 5800 H 558.272 2.0711 1.5013 0
M  V30 5801 H 557.916 3.94537 3.19849 0
M  V30 5802 H 557.846 2.73255 4.50155 0
M  V30 5803 H 560.337 2.29472 3.00252 0
M  V30 5804 H 560.65 5.17408 5.74028 0
M  V30 5805 H 558.995 4.64803 5.16704 0
M  V30 5806 H 562.186 2.90892 3.66742 0
M  V30 5807 H 562.359 4.22176 4.91601 0
M  V30 5808 N 555.766 -1.3263 0.851289 0
M  V30 5809 C 556.713 -2.28952 0.291469 0
M  V30 5810 C 557.683 -1.54897 -0.599676 0
M  V30 5811 O 558.868 -1.83137 -0.535305 0
M  V30 5812 C 556.008 -3.41206 -0.516992 0
M  V30 5813 C 555.121 -4.30148 0.399566 0
M  V30 5814 C 554.256 -5.29527 -0.4212 0
M  V30 5815 C 553.295 -6.10112 0.492969 0
M  V30 5816 N 552.432 -7.01499 -0.290414 0
M  V30 5817 H 557.272 -2.76228 1.11813 0
M  V30 5818 H 554.809 -1.35907 0.562826 0
M  V30 5819 H 556.767 -4.05005 -1.00132 0
M  V30 5820 H 555.397 -2.9509 -1.30851 0
M  V30 5821 H 554.449 -3.66959 1.00227 0
M  V30 5822 H 555.761 -4.8649 1.1013 0
M  V30 5823 H 554.915 -5.98914 -0.968832 0
M  V30 5824 H 553.654 -4.73794 -1.15632 0
M  V30 5825 H 552.659 -5.39632 1.05251 0
M  V30 5826 H 553.884 -6.6793 1.22664 0
M  V30 5827 H 551.83 -6.48199 -1.00868 0
M  V30 5828 H 551.747 -7.55178 0.352354 0
M  V30 5829 H 553.015 -7.75176 -0.819882 0
M  V30 5830 N 557.244 -0.608902 -1.45362 0
M  V30 5831 C 558.492 -0.104401 -2.0183 0
M  V30 5832 C 558.813 1.27007 -1.47967 0
M  V30 5833 O 558.083 1.83924 -0.674455 0
M  V30 5834 H 556.663 -0.0356042 -0.746151 0
M  V30 5835 H 559.325 -0.790596 -1.78145 0
M  V30 5836 H 558.421 -0.0551793 -3.12051 0
M  V30 5837 N 558.722 1.53707 -0.348139 0
M  V30 5838 C 559.952 2.05108 0.247864 0
M  V30 5839 C 560.36 1.22252 1.44399 0
M  V30 5840 O 559.703 0.251853 1.81965 0
M  V30 5841 C 559.765 3.52171 0.722187 0
M  V30 5842 C 559.429 4.5562 -0.354902 0
M  V30 5843 C 560.426 5.05883 -1.19911 0
M  V30 5844 C 558.111 4.99703 -0.510145 0
M  V30 5845 C 560.105 5.98814 -2.18406 0
M  V30 5846 C 557.792 5.92443 -1.49848 0
M  V30 5847 C 558.79 6.41887 -2.33389 0
M  V30 5848 O 558.478 7.32802 -3.3054 0
M  V30 5849 H 558.21 0.674086 0.0508296 0
M  V30 5850 H 560.764 1.99229 -0.49968 0
M  V30 5851 H 558.994 3.55529 1.52105 0
M  V30 5852 H 560.683 3.8652 1.23925 0
M  V30 5853 H 561.449 4.72586 -1.09028 0
M  V30 5854 H 557.328 4.60816 0.130274 0
M  V30 5855 H 560.872 6.3733 -2.83649 0
M  V30 5856 H 556.769 6.25155 -1.60786 0
M  V30 5857 H 557.537 7.50749 -3.26064 0
M  V30 5858 N 560.2 0.0768682 1.57412 0
M  V30 5859 C 561.616 -0.279772 1.57129 0
M  V30 5860 C 561.816 -1.69688 1.08666 0
M  V30 5861 O 560.872 -2.40953 0.754843 0
M  V30 5862 C 562.185 -0.0848055 3.0058 0
M  V30 5863 C 563.733 -0.153954 3.12621 0
M  V30 5864 C 564.208 0.0127946 4.57998 0
M  V30 5865 N 565.699 -0.0426435 4.6318 0
M  V30 5866 C 566.434 0.0618892 5.73367 0
M  V30 5867 N 565.93 0.220229 6.9245 0
M  V30 5868 N 567.723 0.00446072 5.621 0
M  V30 5869 H 559.874 1.00297 1.87228 0
M  V30 5870 H 562.137 0.391565 0.863354 0
M  V30 5871 H 561.843 0.89325 3.40168 0
M  V30 5872 H 561.717 -0.834961 3.67843 0
M  V30 5873 H 564.104 -1.1225 2.72917 0
M  V30 5874 H 564.185 0.627389 2.47987 0
M  V30 5875 H 563.829 0.978128 4.98392 0
M  V30 5876 H 563.759 -0.788016 5.20671 0
M  V30 5877 H 566.25 -0.163226 3.77547 0
M  V30 5878 H 566.563 0.291999 7.72248 0
M  V30 5879 H 564.908 0.255658 6.9453 0
M  V30 5880 H 568.099 -0.117979 4.67951 0
M  V30 5881 H 568.272 0.0893796 6.47938 0
M  V30 5882 N 561.678 -1.56367 -0.196722 0
M  V30 5883 C 562.903 -1.84991 -0.937714 0
M  V30 5884 C 563.328 -0.660244 -1.76132 0
M  V30 5885 O 562.686 0.390967 -1.77034 0
M  V30 5886 C 562.734 -3.11828 -1.81096 0
M  V30 5887 O 561.838 -2.92266 -2.90955 0
M  V30 5888 H 561.179 -0.609193 -0.264159 0
M  V30 5889 H 563.709 -2.03595 -0.202529 0
M  V30 5890 H 563.719 -3.42579 -2.21594 0
M  V30 5891 H 562.394 -3.98037 -1.2058 0
M  V30 5892 H 560.971 -2.72809 -2.54224 0
M  V30 5893 N 563.156 0.464375 -1.50603 0
M  V30 5894 C 564.088 1.57916 -1.66118 0
M  V30 5895 C 565.101 1.53497 -0.54246 0
M  V30 5896 O 566.29 1.58763 -0.815877 0
M  V30 5897 C 563.39 2.96809 -1.63577 0
M  V30 5898 C 562.563 3.26026 -2.91592 0
M  V30 5899 C 561.622 4.44506 -2.81604 0
M  V30 5900 O 560.648 4.44484 -3.55559 0
M  V30 5901 N 561.85 5.46549 -1.95614 0
M  V30 5902 H 564.615 1.45022 -2.62276 0
M  V30 5903 H 562.176 0.652903 -1.48151 0
M  V30 5904 H 564.168 3.74048 -1.54499 0
M  V30 5905 H 562.738 3.03438 -0.751262 0
M  V30 5906 H 561.958 2.37337 -3.14746 0
M  V30 5907 H 563.246 3.42361 -3.76386 0
M  V30 5908 H 562.644 5.49391 -1.34854 0
M  V30 5909 H 561.201 6.22746 -1.92435 0
M  V30 5910 N 564.634 1.40294 0.718013 0
M  V30 5911 C 566.05 1.2227 1.02577 0
M  V30 5912 C 566.25 0.0961976 2.0127 0
M  V30 5913 O 565.306 -0.546695 2.46511 0
M  V30 5914 C 566.619 2.56348 1.57182 0
M  V30 5915 C 568.167 2.6334 1.69178 0
M  V30 5916 C 568.642 3.9768 2.27188 0
M  V30 5917 N 570.133 3.99409 2.34578 0
M  V30 5918 C 570.868 5.00141 2.8044 0
M  V30 5919 N 570.364 6.11268 3.26073 0
M  V30 5920 N 572.157 4.87511 2.79802 0
M  V30 5921 H 564.308 2.12304 0.0637899 0
M  V30 5922 H 566.571 0.943632 0.0909036 0
M  V30 5923 H 566.277 3.3942 0.921262 0
M  V30 5924 H 566.151 2.77266 2.55741 0
M  V30 5925 H 568.538 1.80641 2.33351 0
M  V30 5926 H 568.619 2.46255 0.692247 0
M  V30 5927 H 568.263 4.80817 1.63638 0
M  V30 5928 H 568.193 4.12093 3.27852 0
M  V30 5929 H 570.684 3.19162 2.02346 0
M  V30 5930 H 570.997 6.84023 3.59628 0
M  V30 5931 H 569.342 6.14837 3.24038 0
M  V30 5932 H 572.533 3.9979 2.43487 0
M  V30 5933 H 572.706 5.66158 3.15228 0
M  V30 5934 N 566.112 -0.949982 1.2575 0
M  V30 5935 C 567.36 -1.6918 1.10555 0
M  V30 5936 C 567.681 -1.91773 -0.353298 0
M  V30 5937 O 566.951 -1.50814 -1.25027 0
M  V30 5938 H 565.531 -0.626952 0.406129 0
M  V30 5939 H 568.193 -1.1419 1.57945 0
M  V30 5940 H 567.289 -2.66915 1.61749 0
M  V30 5941 N 567.59 -1.07411 -1.15328 0
M  V30 5942 C 568.54 -0.664788 -2.18093 0
M  V30 5943 C 569.524 0.310395 -1.57878 0
M  V30 5944 O 570.716 0.124026 -1.76565 0
M  V30 5945 C 567.845 -0.0647822 -3.43239 0
M  V30 5946 C 566.931 -1.06514 -4.10506 0
M  V30 5947 N 567.322 -2.24491 -4.53252 0
M  V30 5948 C 565.62 -0.898613 -4.36853 0
M  V30 5949 C 566.321 -2.8796 -5.05424 0
M  V30 5950 N 565.297 -2.15622 -4.99007 0
M  V30 5951 H 569.099 -1.56333 -2.48872 0
M  V30 5952 H 566.613 -0.947393 -1.31902 0
M  V30 5953 H 568.61 0.246363 -4.16171 0
M  V30 5954 H 567.27 0.828866 -3.13943 0
M  V30 5955 H 568.281 -2.62205 -4.46619 0
M  V30 5956 H 564.958 -0.0579118 -4.1746 0
M  V30 5957 H 566.348 -3.88137 -5.48452 0
M  V30 5958 N 569.068 1.32177 -0.85831 0
M  V30 5959 C 570.293 2.01847 -0.476718 0
M  V30 5960 C 570.718 1.64065 0.920021 0
M  V30 5961 O 570.076 0.843189 1.60499 0
M  V30 5962 C 570.124 3.55097 -0.627578 0
M  V30 5963 O 569.228 4.11012 0.338086 0
M  V30 5964 H 568.569 0.635907 -0.191099 0
M  V30 5965 H 571.099 1.68641 -1.15851 0
M  V30 5966 H 571.109 4.04718 -0.516476 0
M  V30 5967 H 569.784 3.81938 -1.64609 0
M  V30 5968 H 568.361 3.72451 0.182917 0
M  V30 5969 N 570.547 0.616602 1.45037 0
M  V30 5970 C 571.963 0.280994 1.57107 0
M  V30 5971 C 572.163 -1.21627 1.60653 0
M  V30 5972 O 571.219 -1.9997 1.54169 0
M  V30 5973 C 572.532 0.960116 2.8496 0
M  V30 5974 C 574.08 0.936884 2.98649 0
M  V30 5975 C 574.555 1.59619 4.29285 0
M  V30 5976 N 576.046 1.5621 4.36065 0
M  V30 5977 C 576.781 2.04131 5.35834 0
M  V30 5978 N 576.277 2.60177 6.4209 0
M  V30 5979 N 578.07 1.94845 5.27249 0
M  V30 5980 H 570.221 1.58867 1.40979 0
M  V30 5981 H 572.484 0.666024 0.674623 0
M  V30 5982 H 572.19 2.01473 2.88273 0
M  V30 5983 H 572.064 0.488921 3.74018 0
M  V30 5984 H 574.451 -0.109209 2.94898 0
M  V30 5985 H 574.532 1.44643 2.10979 0
M  V30 5986 H 574.176 2.64166 4.33796 0
M  V30 5987 H 574.106 1.06159 5.15789 0
M  V30 5988 H 576.597 1.15276 3.59889 0
M  V30 5989 H 576.91 2.94513 7.1448 0
M  V30 5990 H 575.255 2.64221 6.42816 0
M  V30 5991 H 578.446 1.50792 4.43147 0
M  V30 5992 H 578.619 2.32504 6.04852 0
M  V30 5993 N 572.025 -1.5352 0.356285 0
M  V30 5994 C 573.273 -2.00719 -0.235837 0
M  V30 5995 C 573.594 -1.24551 -1.5004 0
M  V30 5996 O 572.864 -0.356185 -1.92635 0
M  V30 5997 H 571.444 -0.741542 -0.0901366 0
M  V30 5998 H 574.106 -1.88887 0.480378 0
M  V30 5999 H 573.202 -3.08551 -0.469357 0
M  V30 6000 N 573.503 -0.0852151 -1.57369 0
M  V30 6001 C 574.919 0.271436 -1.57275 0
M  V30 6002 C 575.119 1.69109 -1.09565 0
M  V30 6003 O 574.175 2.40549 -0.767611 0
M  V30 6004 C 575.488 0.0688638 -3.00621 0
M  V30 6005 C 577.036 0.137373 -3.12698 0
M  V30 6006 C 577.511 -0.0370832 -4.57985 0
M  V30 6007 N 579.002 0.0180794 -4.63196 0
M  V30 6008 C 579.737 -0.0922953 -5.73326 0
M  V30 6009 N 579.233 -0.256948 -6.92323 0
M  V30 6010 N 581.026 -0.0342702 -5.6209 0
M  V30 6011 H 573.177 -1.01288 -1.86693 0
M  V30 6012 H 575.44 -0.396138 -0.861266 0
M  V30 6013 H 575.146 -0.911277 -3.39689 0
M  V30 6014 H 575.02 0.815442 -3.6828 0
M  V30 6015 H 577.407 1.10801 -2.73509 0
M  V30 6016 H 577.488 -0.640532 -2.47651 0
M  V30 6017 H 577.132 -1.00455 -4.97867 0
M  V30 6018 H 577.062 0.760392 -5.21081 0
M  V30 6019 H 579.553 0.143202 -3.77629 0
M  V30 6020 H 579.866 -0.332949 -7.72082 0
M  V30 6021 H 578.211 -0.292487 -6.94384 0
M  V30 6022 H 581.402 0.0931605 -4.68007 0
M  V30 6023 H 581.575 -0.12374 -6.47882 0
M  V30 6024 N 574.981 1.5647 0.188427 0
M  V30 6025 C 575.929 1.95971 1.25293 0
M  V30 6026 C 576.923 0.846047 1.4676 0
M  V30 6027 O 578.129 1.03109 1.47542 0
M  V30 6028 H 574.504 0.623253 0.420784 0
M  V30 6029 H 576.475 2.84731 0.892792 0
M  V30 6030 C 575.224 2.32116 2.58877 0
M  V30 6031 H 574.547 3.17341 2.43176 0
M  V30 6032 H 575.987 2.63613 3.3209 0
M  V30 6033 C 574.446 1.15823 3.16365 0
M  V30 6034 O 574.976 0.436785 3.99318 0
M  V30 6035 N 573.182 0.933278 2.75206 0
M  V30 6036 H 572.729 1.52169 2.07852 0
M  V30 6037 H 572.687 0.156976 3.14008 0
M  V30 6038 N 576.459 -0.456382 1.50847 0
M  V30 6039 C 577.391 -1.57033 1.66953 0
M  V30 6040 C 578.404 -1.53207 0.550593 0
M  V30 6041 O 579.593 -1.58328 0.824285 0
M  V30 6042 C 576.693 -2.95937 1.65149 0
M  V30 6043 C 575.866 -3.24475 2.93317 0
M  V30 6044 C 574.925 -4.43007 2.83957 0
M  V30 6045 O 573.951 -4.42592 3.57912 0
M  V30 6046 N 575.153 -5.45503 1.9851 0
M  V30 6047 H 577.918 -1.43629 2.63042 0
M  V30 6048 H 575.479 -0.645037 1.48495 0
M  V30 6049 H 577.471 -3.73224 1.56481 0
M  V30 6050 H 576.041 -3.03036 0.767343 0
M  V30 6051 H 575.261 -2.35664 3.16 0
M  V30 6052 H 576.549 -3.4036 3.78196 0
M  V30 6053 H 575.947 -5.48668 1.37766 0
M  V30 6054 H 574.504 -6.21716 1.95735 0
M  V30 6055 N 577.937 -1.40673 -0.710563 0
M  V30 6056 C 578.885 -1.41517 -1.84596 0
M  V30 6057 C 579.879 -0.295043 -1.66811 0
M  V30 6058 O 581.085 -0.466331 -1.73854 0
M  V30 6059 H 577.46 -0.442467 -0.608052 0
M  V30 6060 H 579.431 -2.37238 -1.80999 0
M  V30 6061 C 578.18 -1.29957 -3.225 0
M  V30 6062 H 577.503 -2.15429 -3.36794 0
M  V30 6063 H 578.943 -1.34608 -4.02066 0
M  V30 6064 C 577.402 -0.0103164 -3.36898 0
M  V30 6065 O 577.932 0.950707 -3.90288 0
M  V30 6066 N 576.138 0.0608409 -2.90536 0
M  V30 6067 H 575.685 -0.721943 -2.47277 0
M  V30 6068 H 575.643 0.92292 -3.00549 0
M  V30 6069 N 579.415 0.9433 -1.26252 0
M  V30 6070 C 580.64 1.72898 -1.14547 0
M  V30 6071 C 581.065 1.85761 0.295743 0
M  V30 6072 O 580.423 1.3463 1.21427 0
M  V30 6073 C 580.471 3.11471 -1.8171 0
M  V30 6074 O 579.575 3.97336 -1.10445 0
M  V30 6075 H 578.916 0.530555 -0.399259 0
M  V30 6076 H 581.446 1.18159 -1.67032 0
M  V30 6077 H 581.456 3.61872 -1.88449 0
M  V30 6078 H 580.131 3.01425 -2.86558 0
M  V30 6079 H 578.708 3.55788 -1.11666 0
M  V30 6080 N 580.893 1.08022 1.14757 0
M  V30 6081 C 582.309 0.807072 1.3769 0
M  V30 6082 C 582.509 -0.585504 1.92806 0
M  V30 6083 O 581.565 -1.34301 2.13821 0
M  V30 6084 C 582.878 1.88651 2.34161 0
M  V30 6085 C 584.426 1.91206 2.47809 0
M  V30 6086 C 584.901 2.98253 3.47576 0
M  V30 6087 N 586.392 2.974 3.55117 0
M  V30 6088 C 587.127 3.76872 4.32152 0
M  V30 6089 N 586.623 4.66212 5.12463 0
M  V30 6090 N 588.416 3.6519 4.27309 0
M  V30 6091 H 580.567 1.97824 0.77326 0
M  V30 6092 H 582.83 0.85826 0.402608 0
M  V30 6093 H 582.536 2.88749 2.00791 0
M  V30 6094 H 582.41 1.75244 3.3402 0
M  V30 6095 H 584.797 0.917564 2.80472 0
M  V30 6096 H 584.878 2.08691 1.47925 0
M  V30 6097 H 584.522 3.97907 3.15646 0
M  V30 6098 H 584.452 2.78014 4.47231 0
M  V30 6099 H 586.943 2.32643 2.97801 0
M  V30 6100 H 587.256 5.23468 5.68508 0
M  V30 6101 H 585.601 4.70257 5.11745 0
M  V30 6102 H 588.792 2.94765 3.63636 0
M  V30 6103 H 588.965 4.27366 4.87095 0
M  V30 6104 N 582.371 -1.3172 0.865308 0
M  V30 6105 C 583.787 -1.4958 0.556596 0
M  V30 6106 C 583.987 -1.79763 -0.910353 0
M  V30 6107 O 583.043 -1.87351 -1.6928 0
M  V30 6108 C 584.356 -2.63277 1.45279 0
M  V30 6109 C 585.904 -2.77161 1.45433 0
M  V30 6110 C 586.379 -3.93949 2.33598 0
M  V30 6111 N 587.87 -4.01228 2.31453 0
M  V30 6112 C 588.605 -4.90855 2.96393 0
M  V30 6113 N 588.101 -5.85416 3.70486 0
M  V30 6114 N 589.894 -4.84063 2.85726 0
M  V30 6115 H 582.045 -1.10396 1.81456 0
M  V30 6116 H 584.308 -0.54507 0.775631 0
M  V30 6117 H 584.014 -2.47734 2.49641 0
M  V30 6118 H 583.888 -3.59309 1.14792 0
M  V30 6119 H 586.275 -2.9212 0.41831 0
M  V30 6120 H 586.356 -1.8181 1.79941 0
M  V30 6121 H 586 -3.79748 3.37274 0
M  V30 6122 H 585.93 -4.88598 1.96417 0
M  V30 6123 H 588.421 -3.3357 1.77593 0
M  V30 6124 H 588.734 -6.50525 4.17178 0
M  V30 6125 H 587.079 -5.85409 3.74594 0
M  V30 6126 H 590.27 -4.09163 2.27384 0
M  V30 6127 H 590.443 -5.53708 3.36617 0
M  V30 6128 N 583.85 -0.624285 -1.44708 0
M  V30 6129 C 585.26 -0.2092 -1.85524 0
M  V30 6130 C 585.611 1.23783 -1.52225 0
M  V30 6131 O 584.736 1.94089 -0.956986 0
M  V30 6132 C 585.332 -0.372897 -3.36742 0
M  V30 6133 C 583.891 -0.012374 -3.76398 0
M  V30 6134 C 583.038 -0.68951 -2.68591 0
M  V30 6135 H 585.989 -0.829894 -1.35272 0
M  V30 6136 H 586.01 0.390134 -3.78495 0
M  V30 6137 H 585.522 -1.42615 -3.60947 0
M  V30 6138 H 583.623 1.03941 -3.57809 0
M  V30 6139 H 583.736 -0.417663 -4.77276 0
M  V30 6140 H 582.1 -0.125484 -2.54391 0
M  V30 6141 H 582.883 -1.74522 -2.9563 0
M  V30 6142 N 585.328 1.53329 -0.364422 0
M  V30 6143 C 586.553 2.06132 0.229033 0
M  V30 6144 C 586.978 1.23625 1.41769 0
M  V30 6145 O 586.336 0.255038 1.79497 0
M  V30 6146 C 586.384 3.55544 0.60174 0
M  V30 6147 O 585.488 3.75771 1.69912 0
M  V30 6148 H 584.829 0.663148 0.0336213 0
M  V30 6149 H 587.359 1.97758 -0.524689 0
M  V30 6150 H 587.369 3.98549 0.873073 0
M  V30 6151 H 586.044 4.15039 -0.267421 0
M  V30 6152 H 584.621 3.44663 1.42343 0
M  V30 6153 N 586.806 0.0935595 1.57322 0
M  V30 6154 C 588.222 -0.263091 1.57417 0
M  V30 6155 C 588.422 -1.68526 1.1046 0
M  V30 6156 O 587.478 -2.40139 0.780357 0
M  V30 6157 C 588.791 -0.0529201 3.00653 0
M  V30 6158 C 590.339 -0.120788 3.12767 0
M  V30 6159 C 590.814 0.0613707 4.57959 0
M  V30 6160 N 592.305 0.00648534 4.632 0
M  V30 6161 C 593.04 0.122699 5.73269 0
M  V30 6162 N 592.536 0.29366 6.92177 0
M  V30 6163 N 594.329 0.0640787 5.62063 0
M  V30 6164 H 586.48 1.02277 1.86154 0
M  V30 6165 H 588.743 0.4007 0.859153 0
M  V30 6166 H 588.449 0.929279 3.39201 0
M  V30 6167 H 588.323 -0.795899 3.68708 0
M  V30 6168 H 590.71 -1.09349 2.74093 0
M  V30 6169 H 590.791 0.653656 2.47307 0
M  V30 6170 H 590.435 1.03093 4.97327 0
M  V30 6171 H 590.365 -0.732748 5.21477 0
M  V30 6172 H 592.856 -0.123173 3.77699 0
M  V30 6173 H 593.169 0.37389 7.71895 0
M  V30 6174 H 591.514 0.329307 6.94219 0
M  V30 6175 H 594.705 -0.0683396 4.6805 0
M  V30 6176 H 594.878 0.158097 6.47807 0
M  V30 6177 N 588.284 -1.56567 -0.180126 0
M  V30 6178 C 589.247 -1.94852 -1.20686 0
M  V30 6179 C 590.247 -0.831212 -1.3765 0
M  V30 6180 O 591.437 -1.09841 -1.35206 0
M  V30 6181 C 588.569 -2.23565 -2.57355 0
M  V30 6182 H 589.762 -2.86722 -0.879225 0
M  V30 6183 H 587.315 -1.50489 -0.422237 0
M  V30 6184 H 588.05 -1.34381 -2.95148 0
M  V30 6185 H 587.835 -3.04999 -2.46411 0
M  V30 6186 H 589.325 -2.54137 -3.31367 0
M  V30 6187 N 589.762 0.448376 -1.51087 0
M  V30 6188 C 590.99 1.22143 -1.66999 0
M  V30 6189 C 591.405 1.85283 -0.362699 0
M  V30 6190 O 590.762 1.70236 0.65772 0
M  V30 6191 C 590.813 2.31357 -2.7777 0
M  V30 6192 O 590.534 1.70801 -4.03434 0
M  V30 6193 C 592.035 3.21836 -3.04855 0
M  V30 6194 H 589.255 0.368558 -0.560719 0
M  V30 6195 H 591.799 0.532618 -1.97442 0
M  V30 6196 H 589.954 2.95973 -2.49958 0
M  V30 6197 H 590.368 2.42895 -4.64868 0
M  V30 6198 H 591.842 3.94627 -3.85971 0
M  V30 6199 H 592.319 3.81949 -2.16821 0
M  V30 6200 H 592.925 2.62933 -3.34285 0
M  V30 6201 N 591.24 1.41047 0.703093 0
M  V30 6202 C 592.486 1.41209 1.46396 0
M  V30 6203 C 592.841 0.0180188 1.92392 0
M  V30 6204 O 592.134 -0.954739 1.66118 0
M  V30 6205 C 592.328 2.34686 2.6955 0
M  V30 6206 C 592.157 3.83044 2.35601 0
M  V30 6207 C 590.927 4.51777 2.26331 0
M  V30 6208 C 593.125 4.74215 1.9906 0
M  V30 6209 N 591.107 5.85302 1.85188 0
M  V30 6210 C 592.478 5.96631 1.68616 0
M  V30 6211 C 594.533 4.61932 1.85805 0
M  V30 6212 C 593.236 7.08134 1.26249 0
M  V30 6213 C 595.262 5.73389 1.44842 0
M  V30 6214 C 594.624 6.94899 1.15304 0
M  V30 6215 H 590.723 0.571951 0.533288 0
M  V30 6216 H 593.307 1.76859 0.814179 0
M  V30 6217 H 591.478 2.01143 3.32259 0
M  V30 6218 H 593.21 2.25618 3.35974 0
M  V30 6219 H 589.965 4.05618 2.44482 0
M  V30 6220 H 590.389 6.56049 1.67119 0
M  V30 6221 H 595.031 3.68494 2.07298 0
M  V30 6222 H 592.749 8.01445 1.035 0
M  V30 6223 H 596.335 5.65886 1.35146 0
M  V30 6224 H 595.215 7.79679 0.840854 0
M  V30 6225 N 592.718 -0.936591 1.26751 0
M  V30 6226 C 593.648 -2.05315 1.11212 0
M  V30 6227 C 594.629 -1.70092 0.0160262 0
M  V30 6228 O 595.814 -1.93279 0.188894 0
M  V30 6229 C 592.944 -3.39123 0.749171 0
M  V30 6230 C 591.898 -3.88425 1.79751 0
M  V30 6231 C 591.224 -5.18936 1.28876 0
M  V30 6232 C 592.524 -4.12798 3.19992 0
M  V30 6233 H 594.218 -2.18573 2.04613 0
M  V30 6234 H 591.764 -1.05027 0.985159 0
M  V30 6235 H 593.717 -4.16704 0.627323 0
M  V30 6236 H 592.441 -3.25855 -0.220543 0
M  V30 6237 H 591.1 -3.13028 1.90811 0
M  V30 6238 H 590.748 -5.02051 0.308757 0
M  V30 6239 H 590.448 -5.52892 1.98958 0
M  V30 6240 H 591.972 -5.99096 1.17967 0
M  V30 6241 H 593.386 -4.80977 3.11983 0
M  V30 6242 H 591.783 -4.58044 3.87705 0
M  V30 6243 H 592.853 -3.18412 3.65707 0
M  V30 6244 N 594.196 -1.08629 -1.14182 0
M  V30 6245 C 595.421 -0.83902 -1.89671 0
M  V30 6246 C 595.846 0.603332 -1.78161 0
M  V30 6247 O 595.204 1.42301 -1.12339 0
M  V30 6248 C 595.252 -1.26854 -3.37551 0
M  V30 6249 O 594.356 -0.42188 -4.10236 0
M  V30 6250 H 593.697 -0.304545 -0.590041 0
M  V30 6251 H 596.227 -1.4483 -1.44518 0
M  V30 6252 H 596.237 -1.25038 -3.88368 0
M  V30 6253 H 594.912 -2.31901 -3.45246 0
M  V30 6254 H 593.489 -0.503654 -3.69483 0
M  V30 6255 N 595.674 1.31259 -0.872281 0
M  V30 6256 C 596.604 2.30929 -0.345554 0
M  V30 6257 C 597.585 1.60449 0.5648 0
M  V30 6258 O 598.77 1.8814 0.481335 0
M  V30 6259 C 595.9 3.44348 0.451823 0
M  V30 6260 C 594.854 4.26435 -0.365641 0
M  V30 6261 C 594.18 5.31785 0.557562 0
M  V30 6262 C 595.48 4.97159 -1.60095 0
M  V30 6263 H 597.174 2.75234 -1.17841 0
M  V30 6264 H 594.72 1.3232 -0.568094 0
M  V30 6265 H 596.673 4.13128 0.830854 0
M  V30 6266 H 595.397 2.98816 1.31821 0
M  V30 6267 H 594.056 3.59326 -0.726649 0
M  V30 6268 H 593.704 4.82502 1.4213 0
M  V30 6269 H 593.404 5.87598 0.0144878 0
M  V30 6270 H 594.928 6.03424 0.933387 0
M  V30 6271 H 596.342 5.58523 -1.29323 0
M  V30 6272 H 594.739 5.62779 -2.08327 0
M  V30 6273 H 595.809 4.24012 -2.35249 0
M  V30 6274 N 597.152 0.631951 1.44375 0
M  V30 6275 C 598.399 0.136767 2.02038 0
M  V30 6276 C 598.727 -1.24168 1.49709 0
M  V30 6277 O 597.982 -1.83809 0.671763 0
M  V30 6278 C 598.281 0.0735861 3.57324 0
M  V30 6279 C 597.947 1.39092 4.28911 0
M  V30 6280 C 596.609 1.75171 4.48184 0
M  V30 6281 C 598.961 2.26042 4.69632 0
M  V30 6282 C 596.289 2.97907 5.05439 0
M  V30 6283 C 598.641 3.4805 5.28246 0
M  V30 6284 C 597.305 3.84351 5.45738 0
M  V30 6285 H 596.575 0.0500466 0.739308 0
M  V30 6286 H 599.222 0.818429 1.7313 0
M  V30 6287 H 597.527 -0.691449 3.8565 0
M  V30 6288 H 599.224 -0.326091 3.99672 0
M  V30 6289 H 595.814 1.10015 4.1424 0
M  V30 6290 H 599.998 1.99463 4.54454 0
M  V30 6291 H 595.254 3.26108 5.17169 0
M  V30 6292 H 599.428 4.15658 5.5875 0
M  V30 6293 H 597.055 4.79538 5.8987 0
M  V30 6294 N 598.631 -1.53133 0.372548 0
M  V30 6295 C 599.856 -2.0625 -0.218098 0
M  V30 6296 C 600.281 -1.24375 -1.41111 0
M  V30 6297 O 599.639 -0.264554 -1.79359 0
M  V30 6298 C 599.687 -3.55858 -0.582876 0
M  V30 6299 O 598.791 -3.76667 -1.67917 0
M  V30 6300 H 598.132 -0.663317 -0.030104 0
M  V30 6301 H 600.662 -1.97477 0.535169 0
M  V30 6302 H 600.672 -3.99007 -0.851925 0
M  V30 6303 H 599.347 -4.14892 0.289428 0
M  V30 6304 H 597.924 -3.45413 -1.40513 0
M  V30 6305 N 600.109 -0.101901 -1.5727 0
M  V30 6306 C 601.334 0.571759 -1.99363 0
M  V30 6307 C 601.759 1.60507 -0.980768 0
M  V30 6308 O 601.117 1.81231 0.0498517 0
M  V30 6309 C 601.165 1.18996 -3.404 0
M  V30 6310 O 600.269 2.30572 -3.41922 0
M  V30 6311 H 599.61 0.144449 -0.648098 0
M  V30 6312 H 602.14 -0.185325 -2.03759 0
M  V30 6313 H 602.15 1.52962 -3.78241 0
M  V30 6314 H 600.825 0.432984 -4.1364 0
M  V30 6315 H 599.402 1.98173 -3.15883 0
M  V30 6316 N 601.587 1.56661 0.17182 0
M  V30 6317 C 602.497 1.99604 1.2327 0
M  V30 6318 C 603.513 0.907333 1.4847 0
M  V30 6319 O 604.689 1.21492 1.60629 0
M  V30 6320 C 601.754 2.34685 2.55194 0
M  V30 6321 C 600.815 3.57381 2.3786 0
M  V30 6322 C 600.048 3.90779 3.63494 0
M  V30 6323 O 600.271 3.25152 4.6865 0
M  V30 6324 O 599.205 4.84129 3.57634 0
M  V30 6325 H 603.031 2.90114 0.898192 0
M  V30 6326 H 600.616 1.44522 0.378647 0
M  V30 6327 H 602.498 2.5822 3.33017 0
M  V30 6328 H 601.173 1.47336 2.88225 0
M  V30 6329 H 600.08 3.39064 1.5807 0
M  V30 6330 H 601.413 4.45268 2.09754 0
M  V30 6331 N 603.065 -0.440357 1.51323 0
M  V30 6332 C 603.975 -1.55955 1.75258 0
M  V30 6333 C 604.991 -1.61933 0.636687 0
M  V30 6334 O 606.167 -1.79231 0.918593 0
M  V30 6335 C 603.232 -2.9196 1.86977 0
M  V30 6336 C 602.293 -2.96122 3.10822 0
M  V30 6337 C 601.526 -4.2564 3.21973 0
M  V30 6338 O 601.749 -5.17851 2.39137 0
M  V30 6339 O 600.683 -4.36025 4.14929 0
M  V30 6340 H 604.509 -1.38673 2.70191 0
M  V30 6341 H 602.094 -0.623055 1.35788 0
M  V30 6342 H 603.976 -3.72682 1.96688 0
M  V30 6343 H 602.651 -3.09375 0.952307 0
M  V30 6344 H 601.558 -2.14366 3.06591 0
M  V30 6345 H 602.891 -2.83651 4.02247 0
M  V30 6346 N 604.543 -1.41418 -0.695603 0
M  V30 6347 C 605.768 -1.44329 -1.48942 0
M  V30 6348 C 606.193 -0.0501579 -1.88033 0
M  V30 6349 O 605.551 0.946598 -1.54626 0
M  V30 6350 C 605.599 -2.3578 -2.72837 0
M  V30 6351 O 604.703 -1.81482 -3.70322 0
M  V30 6352 H 604.044 -0.489838 -0.44828 0
M  V30 6353 H 606.574 -1.85878 -0.855014 0
M  V30 6354 H 606.584 -2.51654 -3.21145 0
M  V30 6355 H 605.259 -3.37005 -2.43722 0
M  V30 6356 H 603.836 -1.75058 -3.29255 0
M  V30 6357 N 606.021 0.929856 -1.27246 0
M  V30 6358 C 606.969 2.05151 -1.09616 0
M  V30 6359 C 607.963 1.69388 -0.0198617 0
M  V30 6360 O 609.169 1.79124 -0.177417 0
M  V30 6361 H 605.544 0.671909 -0.337701 0
M  V30 6362 H 607.515 2.17168 -2.04648 0
M  V30 6363 C 606.264 3.3934 -0.757851 0
M  V30 6364 H 605.587 3.67343 -1.57795 0
M  V30 6365 H 607.027 4.18603 -0.674358 0
M  V30 6366 C 605.486 3.32582 0.537658 0
M  V30 6367 O 606.016 3.69633 1.57271 0
M  V30 6368 N 604.222 2.8568 0.532478 0
M  V30 6369 H 603.769 2.55725 -0.310233 0
M  V30 6370 H 603.727 2.81541 1.39936 0
M  V30 6371 N 607.499 1.09233 1.13605 0
M  V30 6372 C 608.429 0.751738 2.21068 0
M  V30 6373 C 609.41 -0.269688 1.67948 0
M  V30 6374 O 610.595 -0.13819 1.93708 0
M  V30 6375 C 607.725 0.16935 3.46887 0
M  V30 6376 C 606.679 1.12007 4.13084 0
M  V30 6377 C 606.005 0.399483 5.33206 0
M  V30 6378 C 607.305 2.46168 4.6065 0
M  V30 6379 H 608.999 1.65024 2.49815 0
M  V30 6380 H 606.545 0.794905 1.20072 0
M  V30 6381 H 608.498 -0.0809824 4.21322 0
M  V30 6382 H 607.222 -0.764335 3.1753 0
M  V30 6383 H 605.881 1.35564 3.40614 0
M  V30 6384 H 605.529 -0.538277 5.00112 0
M  V30 6385 H 605.229 1.03337 5.78442 0
M  V30 6386 H 606.753 0.157403 6.10397 0
M  V30 6387 H 608.167 2.26829 5.26518 0
M  V30 6388 H 606.564 3.05326 5.1662 0
M  V30 6389 H 607.634 3.07076 3.75276 0
M  V30 6390 N 608.977 -1.30795 0.87923 0
M  V30 6391 C 610.225 -1.95974 0.493809 0
M  V30 6392 C 610.546 -1.69787 -0.959021 0
M  V30 6393 O 609.816 -1.01832 -1.67353 0
M  V30 6394 H 608.396 -0.725083 0.179622 0
M  V30 6395 H 611.058 -1.59432 1.12105 0
M  V30 6396 H 610.154 -3.05058 0.659263 0
M  V30 6397 N 610.455 -0.639598 -1.44038 0
M  V30 6398 C 611.418 0.0506628 -2.29144 0
M  V30 6399 C 612.418 0.764001 -1.41491 0
M  V30 6400 O 613.608 0.607309 -1.63271 0
M  V30 6401 C 610.74 1.0824 -3.2326 0
M  V30 6402 H 611.933 -0.697987 -2.91664 0
M  V30 6403 H 609.486 -0.400146 -1.51091 0
M  V30 6404 H 610.221 1.86075 -2.65606 0
M  V30 6405 H 610.006 0.574725 -3.87865 0
M  V30 6406 H 611.496 1.56487 -3.87171 0
M  V30 6407 N 611.933 1.52934 -0.380664 0
M  V30 6408 C 612.881 2.27727 0.47361 0
M  V30 6409 C 613.875 1.31288 1.0705 0
M  V30 6410 O 615.081 1.4886 1.01197 0
M  V30 6411 H 611.456 0.732189 0.171475 0
M  V30 6412 H 613.427 2.97864 -0.178785 0
M  V30 6413 C 612.176 3.0904 1.59341 0
M  V30 6414 H 611.499 3.831 1.14343 0
M  V30 6415 H 612.939 3.64527 2.16555 0
M  V30 6416 C 611.398 2.20813 2.54447 0
M  V30 6417 O 611.928 1.82907 3.57642 0
M  V30 6418 N 610.134 1.85145 2.23986 0
M  V30 6419 H 609.681 2.16169 1.40103 0
M  V30 6420 H 609.639 1.26402 2.87871 0
M  V30 6421 N 613.412 0.11024 1.57214 0
M  V30 6422 C 614.36 -0.860586 2.16094 0
M  V30 6423 C 615.354 -1.28156 1.1078 0
M  V30 6424 O 616.56 -1.25433 1.29099 0
M  V30 6425 H 612.935 -0.295606 0.691463 0
M  V30 6426 H 614.906 -0.33942 2.96463 0
M  V30 6427 C 613.655 -2.10421 2.768 0
M  V30 6428 H 612.978 -1.7892 3.5753 0
M  V30 6429 H 614.418 -2.76375 3.21547 0
M  V30 6430 C 612.877 -2.88823 1.73444 0
M  V30 6431 O 613.407 -3.839 1.18251 0
M  V30 6432 N 611.613 -2.52649 1.43586 0
M  V30 6433 H 611.16 -1.754 1.8866 0
M  V30 6434 H 611.118 -3.05403 0.746735 0
M  V30 6435 N 614.89 -1.56749 -0.16351 0
M  V30 6436 C 616.12 -1.86307 -0.892936 0
M  V30 6437 C 616.528 -0.6945 -1.75992 0
M  V30 6438 O 615.871 0.345384 -1.80424 0
M  V30 6439 C 615.933 -3.10372 -1.81409 0
M  V30 6440 C 615.597 -4.42913 -1.12593 0
M  V30 6441 C 616.594 -5.17608 -0.487661 0
M  V30 6442 C 614.279 -4.89646 -1.12035 0
M  V30 6443 C 616.273 -6.3723 0.14699 0
M  V30 6444 C 613.96 -6.09197 -0.481883 0
M  V30 6445 C 614.958 -6.82834 0.150678 0
M  V30 6446 O 614.646 -8.00116 0.779065 0
M  V30 6447 H 614.378 -0.622126 -0.264452 0
M  V30 6448 H 616.932 -2.04728 -0.166063 0
M  V30 6449 H 615.162 -2.87917 -2.58148 0
M  V30 6450 H 616.851 -3.26312 -2.41403 0
M  V30 6451 H 617.617 -4.8258 -0.483888 0
M  V30 6452 H 613.496 -4.32265 -1.60212 0
M  V30 6453 H 617.04 -6.94646 0.641325 0
M  V30 6454 H 612.937 -6.43688 -0.483266 0
M  V30 6455 H 613.705 -8.15678 0.679089 0
M  V30 6456 N 616.368 0.432326 -1.51554 0
M  V30 6457 C 617.645 1.19288 -1.55015 0
M  V30 6458 C 618.025 2.08701 -0.317375 0
M  V30 6459 O 617.373 2.17602 0.697243 0
M  V30 6460 C 617.583 1.99037 -2.86679 0
M  V30 6461 C 618.931 2.55907 -3.38817 0
M  V30 6462 O 619.955 2.09243 -2.88263 0
M  V30 6463 O 618.814 3.41029 -4.27038 0
M  V30 6464 H 615.908 0.543369 -0.623441 0
M  V30 6465 H 618.454 0.440988 -1.6387 0
M  V30 6466 H 617.226 1.33397 -3.6786 0
M  V30 6467 H 616.849 2.81281 -2.8101 0
M  V30 6468 N 617.846 1.41785 0.688094 0
M  V30 6469 C 619.123 1.32031 1.44316 0
M  V30 6470 C 619.503 -0.0486079 2.11044 0
M  V30 6471 O 618.851 -1.06332 2.02252 0
M  V30 6472 C 619.061 2.47906 2.45649 0
M  V30 6473 C 620.409 2.89415 3.10683 0
M  V30 6474 O 621.433 2.477 2.55975 0
M  V30 6475 O 620.292 3.61573 4.09789 0
M  V30 6476 H 617.386 0.519994 0.643067 0
M  V30 6477 H 619.932 1.53765 0.71794 0
M  V30 6478 H 618.704 3.39222 1.95048 0
M  V30 6479 H 618.327 2.28089 3.25671 0
M  V30 6480 N 619.324 -0.923095 1.27737 0
M  V30 6481 C 620.554 -1.70277 1.17001 0
M  V30 6482 C 620.962 -1.87188 -0.275199 0
M  V30 6483 O 620.305 -1.39195 -1.19877 0
M  V30 6484 C 620.367 -3.11976 1.78637 0
M  V30 6485 C 620.031 -3.18386 3.27841 0
M  V30 6486 C 621.028 -3.00287 4.2441 0
M  V30 6487 C 618.713 -3.41198 3.68632 0
M  V30 6488 C 620.707 -3.04896 5.59747 0
M  V30 6489 C 618.394 -3.4544 5.04097 0
M  V30 6490 C 619.392 -3.27309 5.99465 0
M  V30 6491 O 619.08 -3.31295 7.32461 0
M  V30 6492 H 618.812 -0.539366 0.407505 0
M  V30 6493 H 621.366 -1.16446 1.69202 0
M  V30 6494 H 619.596 -3.67308 1.20919 0
M  V30 6495 H 621.285 -3.7193 1.6255 0
M  V30 6496 H 622.051 -2.825 3.94232 0
M  V30 6497 H 617.93 -3.54359 2.94873 0
M  V30 6498 H 621.474 -2.90662 6.34162 0
M  V30 6499 H 617.371 -3.62753 5.33929 0
M  V30 6500 H 618.139 -3.47719 7.40968 0
M  V30 6501 N 620.802 -1.09834 -1.13024 0
M  V30 6502 C 622.218 -0.828875 -1.36388 0
M  V30 6503 C 622.418 0.554756 -1.93713 0
M  V30 6504 O 621.474 1.30882 -2.15931 0
M  V30 6505 C 622.787 -1.92352 -2.3113 0
M  V30 6506 C 624.335 -1.95124 -2.44735 0
M  V30 6507 C 624.81 -3.03745 -3.42787 0
M  V30 6508 N 626.301 -3.03012 -3.5034 0
M  V30 6509 C 627.036 -3.83699 -4.26101 0
M  V30 6510 N 626.532 -4.74306 -5.04981 0
M  V30 6511 N 628.325 -3.71942 -4.21445 0
M  V30 6512 H 620.476 -1.99029 -0.74169 0
M  V30 6513 H 622.739 -0.864557 -0.388903 0
M  V30 6514 H 622.445 -2.91906 -1.96172 0
M  V30 6515 H 622.319 -1.80536 -3.3119 0
M  V30 6516 H 624.706 -0.962069 -2.78977 0
M  V30 6517 H 624.787 -2.11018 -1.44586 0
M  V30 6518 H 624.431 -4.02878 -3.09276 0
M  V30 6519 H 624.361 -2.85094 -4.42752 0
M  V30 6520 H 626.852 -2.37352 -2.94062 0
M  V30 6521 H 627.165 -5.32446 -5.60108 0
M  V30 6522 H 625.51 -4.78339 -5.04199 0
M  V30 6523 H 628.701 -3.00513 -3.589 0
M  V30 6524 H 628.874 -4.35062 -4.80235 0
M  V30 6525 N 622.28 1.30327 -0.886154 0
M  V30 6526 C 623.213 2.26241 -0.298407 0
M  V30 6527 C 624.191 1.51839 0.581704 0
M  V30 6528 O 625.375 1.80851 0.531536 0
M  V30 6529 C 622.502 3.33768 0.575888 0
M  V30 6530 C 621.548 4.25852 -0.235057 0
M  V30 6531 S 622.381 5.10277 -1.62411 0
M  V30 6532 C 623.537 6.21313 -0.756368 0
M  V30 6533 H 623.77 2.75744 -1.11141 0
M  V30 6534 H 621.303 1.38341 -0.685651 0
M  V30 6535 H 623.261 3.96186 1.07458 0
M  V30 6536 H 621.922 2.82986 1.363 0
M  V30 6537 H 621.115 5.02143 0.432198 0
M  V30 6538 H 620.717 3.68015 -0.666409 0
M  V30 6539 H 623.009 6.77495 0.0261451 0
M  V30 6540 H 623.952 6.92226 -1.49093 0
M  V30 6541 H 624.36 5.63611 -0.316749 0
M  V30 6542 N 623.758 0.647228 1.43697 0
M  V30 6543 C 625.035 0.0883758 1.954 0
M  V30 6544 C 625.415 -1.39006 1.58873 0
M  V30 6545 O 624.763 -2.11255 0.87083 0
M  V30 6546 C 624.973 0.328263 3.47453 0
M  V30 6547 C 626.321 0.230009 4.23977 0
M  V30 6548 O 627.345 0.260496 3.55246 0
M  V30 6549 O 626.204 0.148615 5.46298 0
M  V30 6550 H 623.298 -0.0130683 0.826897 0
M  V30 6551 H 625.844 0.72005 1.53666 0
M  V30 6552 H 624.616 1.3535 3.67146 0
M  V30 6553 H 624.239 -0.336772 3.96171 0
M  V30 6554 N 625.236 -1.5273 0.388769 0
M  V30 6555 C 626.482 -2.02545 -0.186351 0
M  V30 6556 C 626.837 -1.27017 -1.44514 0
M  V30 6557 O 626.13 -0.361948 -1.8815 0
M  V30 6558 C 626.324 -3.53765 -0.508445 0
M  V30 6559 C 626.153 -4.43938 0.71758 0
M  V30 6560 C 624.923 -4.89933 1.23668 0
M  V30 6561 C 627.121 -4.89113 1.58974 0
M  V30 6562 N 625.103 -5.64176 2.42031 0
M  V30 6563 C 626.474 -5.61931 2.61979 0
M  V30 6564 C 628.529 -4.71155 1.60989 0
M  V30 6565 C 627.232 -6.18698 3.66886 0
M  V30 6566 C 629.258 -5.28804 2.64803 0
M  V30 6567 C 628.62 -6.01527 3.6653 0
M  V30 6568 H 624.719 -0.781413 -0.0302921 0
M  V30 6569 H 627.303 -1.87104 0.538539 0
M  V30 6570 H 625.474 -3.6932 -1.20239 0
M  V30 6571 H 627.206 -3.9028 -1.07067 0
M  V30 6572 H 623.961 -4.66833 0.797763 0
M  V30 6573 H 624.385 -6.05949 3.01919 0
M  V30 6574 H 629.027 -4.14435 0.836881 0
M  V30 6575 H 626.745 -6.74501 4.45055 0
M  V30 6576 H 630.331 -5.1679 2.67245 0
M  V30 6577 H 629.211 -6.45339 4.45542 0
M  V30 6578 N 626.714 -0.118576 -1.57153 0
M  V30 6579 C 627.644 0.828436 -2.1831 0
M  V30 6580 C 628.625 1.27758 -1.12303 0
M  V30 6581 O 629.81 1.34026 -1.40537 0
M  V30 6582 C 626.94 2.07876 -2.78217 0
M  V30 6583 C 625.894 1.76742 -3.89803 0
M  V30 6584 C 625.22 3.08801 -4.36516 0
M  V30 6585 C 626.52 1.03606 -5.11921 0
M  V30 6586 H 628.214 0.318824 -2.97698 0
M  V30 6587 H 625.76 0.151911 -1.43196 0
M  V30 6588 H 627.713 2.74584 -3.19659 0
M  V30 6589 H 626.437 2.61161 -1.96118 0
M  V30 6590 H 625.096 1.12424 -3.48936 0
M  V30 6591 H 624.744 3.6002 -3.51276 0
M  V30 6592 H 624.444 2.88743 -5.11763 0
M  V30 6593 H 625.968 3.76627 -4.80608 0
M  V30 6594 H 627.382 1.60467 -5.50385 0
M  V30 6595 H 625.779 0.936454 -5.92748 0
M  V30 6596 H 626.849 0.0227421 -4.84895 0
M  V30 6597 N 628.193 1.56834 0.155195 0
M  V30 6598 C 629.439 1.83169 0.870467 0
M  V30 6599 C 629.772 0.698929 1.81187 0
M  V30 6600 O 629.047 -0.298035 1.92203 0
M  V30 6601 C 629.33 3.19965 1.65211 0
M  V30 6602 C 629.183 4.43792 0.732744 0
M  V30 6603 C 630.502 3.53885 2.61636 0
M  V30 6604 H 627.621 0.666288 0.315006 0
M  V30 6605 H 630.263 1.89513 0.135988 0
M  V30 6606 H 628.413 3.14687 2.27825 0
M  V30 6607 H 630.085 4.61148 0.118236 0
M  V30 6608 H 628.328 4.3378 0.0417906 0
M  V30 6609 H 628.999 5.36095 1.31552 0
M  V30 6610 H 631.475 3.5972 2.09143 0
M  V30 6611 H 630.351 4.50648 3.13381 0
M  V30 6612 H 630.612 2.79418 3.42605 0
M  V30 6613 N 629.671 -0.424282 1.51781 0
M  V30 6614 C 631.082 -1.00368 1.57427 0
M  V30 6615 C 631.433 -1.91962 0.40558 0
M  V30 6616 O 630.558 -2.111 -0.47601 0
M  V30 6617 C 631.153 -1.82707 2.85313 0
M  V30 6618 C 629.712 -2.35675 2.93487 0
M  V30 6619 C 628.859 -1.1524 2.5222 0
M  V30 6620 H 631.81 -0.205064 1.5737 0
M  V30 6621 H 631.831 -2.68294 2.69812 0
M  V30 6622 H 631.343 -1.16017 3.70353 0
M  V30 6623 H 629.444 -3.05781 2.12906 0
M  V30 6624 H 629.557 -2.67578 3.97415 0
M  V30 6625 H 627.921 -1.50174 2.05718 0
M  V30 6626 H 628.704 -0.5014 3.39619 0
M  V30 6627 N 631.149 -1.42148 -0.680565 0
M  V30 6628 C 632.112 -1.4488 -1.77602 0
M  V30 6629 C 633.112 -0.337209 -1.57224 0
M  V30 6630 O 634.302 -0.597778 -1.63622 0
M  V30 6631 C 631.434 -1.27483 -3.16166 0
M  V30 6632 H 632.627 -2.42412 -1.76568 0
M  V30 6633 H 630.18 -1.28511 -0.889645 0
M  V30 6634 H 630.915 -0.30851 -3.22829 0
M  V30 6635 H 630.7 -2.08037 -3.3236 0
M  V30 6636 H 632.19 -1.32265 -3.96101 0
M  V30 6637 N 632.627 0.916307 -1.28225 0
M  V30 6638 C 633.855 1.69901 -1.18073 0
M  V30 6639 C 634.27 1.86988 0.260968 0
M  V30 6640 O 633.627 1.39505 1.17663 0
M  V30 6641 C 633.678 3.09254 -1.87201 0
M  V30 6642 O 633.399 2.92959 -3.2574 0
M  V30 6643 C 634.9 4.0362 -1.83319 0
M  V30 6644 H 632.12 0.531181 -0.409985 0
M  V30 6645 H 634.664 1.14703 -1.69303 0
M  V30 6646 H 632.819 3.61277 -1.39848 0
M  V30 6647 H 633.233 3.81139 -3.60324 0
M  V30 6648 H 634.707 4.98873 -2.36282 0
M  V30 6649 H 635.184 4.3176 -0.805007 0
M  V30 6650 H 635.79 3.57524 -2.3034 0
M  V30 6651 N 634.105 1.10431 1.1244 0
M  V30 6652 C 635.345 0.856518 1.85589 0
M  V30 6653 C 635.709 -0.606905 1.82156 0
M  V30 6654 O 636.91 -0.97105 2.50647 0
M  V30 6655 C 635.181 1.38977 3.29272 0
M  V30 6656 S 636.74 1.27739 4.19795 0
M  V30 6657 H 633.558 0.309509 0.640098 0
M  V30 6658 H 636.16 1.40975 1.35449 0
M  V30 6659 H 634.864 2.44887 3.2933 0
M  V30 6660 H 634.395 0.833112 3.84477 0
M  V30 6661 H 636.41 0.235051 4.95643 0
M  V30 6662 N 635.583 -1.29855 0.893053 0
M  V30 6663 C 636.493 -2.31661 0.370157 0
M  V30 6664 C 637.509 -1.65677 -0.531723 0
M  V30 6665 O 638.685 -1.9691 -0.422902 0
M  V30 6666 C 635.75 -3.44388 -0.399741 0
M  V30 6667 C 634.811 -4.2598 0.532861 0
M  V30 6668 C 634.044 -5.33324 -0.200388 0
M  V30 6669 O 634.267 -5.52305 -1.42531 0
M  V30 6670 O 633.201 -6.00188 0.453668 0
M  V30 6671 H 637.027 -2.78354 1.2146 0
M  V30 6672 H 634.612 -1.34171 0.657153 0
M  V30 6673 H 636.494 -4.13037 -0.835358 0
M  V30 6674 H 635.169 -2.99815 -1.22035 0
M  V30 6675 H 634.076 -3.59998 1.01746 0
M  V30 6676 H 635.409 -4.74178 1.3197 0
M  V30 6677 N 637.061 -0.65484 -1.43351 0
M  V30 6678 C 638.472 -0.248506 -1.85039 0
M  V30 6679 C 638.823 1.20526 -1.54816 0
M  V30 6680 O 637.948 1.92016 -0.99794 0
M  V30 6681 C 638.543 -0.444241 -3.35875 0
M  V30 6682 C 637.102 -0.0922108 -3.76287 0
M  V30 6683 C 636.249 -0.746327 -2.67068 0
M  V30 6684 H 639.2 -0.8584 -1.33481 0
M  V30 6685 H 639.221 0.309762 -3.79237 0
M  V30 6686 H 638.733 -1.50239 -3.5784 0
M  V30 6687 H 636.834 0.96328 -3.59933 0
M  V30 6688 H 636.947 -0.518807 -4.76283 0
M  V30 6689 H 635.311 -0.179416 -2.54067 0
M  V30 6690 H 636.094 -1.80754 -2.91861 0
M  V30 6691 N 638.539 1.52521 -0.396863 0
M  V30 6692 C 639.788 2.00857 0.184184 0
M  V30 6693 C 640.101 1.28733 1.47265 0
M  V30 6694 O 641.307 1.67821 2.13421 0
M  V30 6695 C 639.763 3.57901 0.378787 0
M  V30 6696 C 639.371 4.38931 -0.896873 0
M  V30 6697 C 641.115 4.14504 0.915789 0
M  V30 6698 C 639.022 5.87591 -0.670133 0
M  V30 6699 H 637.952 0.750496 0.0726055 0
M  V30 6700 H 640.603 1.75965 -0.520425 0
M  V30 6701 H 638.985 3.79072 1.14543 0
M  V30 6702 H 640.159 4.29524 -1.66872 0
M  V30 6703 H 638.474 3.93586 -1.35938 0
M  V30 6704 H 641.071 5.23236 1.10126 0
M  V30 6705 H 641.414 3.71076 1.88701 0
M  V30 6706 H 641.947 3.97253 0.208523 0
M  V30 6707 H 638.686 6.35355 -1.61257 0
M  V30 6708 H 638.206 5.99767 0.0626368 0
M  V30 6709 H 639.885 6.46268 -0.307577 0
M  V30 6710 N 640.017 0.126909 1.57088 0
M  V30 6711 C 640.949 -0.850973 2.12817 0
M  V30 6712 C 641.962 -1.22457 1.07276 0
M  V30 6713 O 643.151 -1.17215 1.34622 0
M  V30 6714 C 640.251 -2.15039 2.61938 0
M  V30 6715 C 639.424 -1.94726 3.91664 0
M  V30 6716 C 638.483 -3.0847 4.26301 0
M  V30 6717 O 637.509 -2.81038 4.94981 0
M  V30 6718 N 638.711 -4.35116 3.84259 0
M  V30 6719 H 641.476 -0.3748 2.97347 0
M  V30 6720 H 639.037 -0.0572793 1.61799 0
M  V30 6721 H 641.029 -2.90141 2.82135 0
M  V30 6722 H 639.599 -2.5398 1.82244 0
M  V30 6723 H 638.819 -1.03772 3.80296 0
M  V30 6724 H 640.107 -1.78469 4.76473 0
M  V30 6725 H 639.505 -4.60276 3.2888 0
M  V30 6726 H 638.062 -5.07064 4.09548 0
M  V30 6727 N 641.495 -1.56914 -0.146875 0
M  V30 6728 C 642.72 -1.87881 -0.878386 0
M  V30 6729 C 643.145 -0.715945 -1.73942 0
M  V30 6730 O 642.503 0.334447 -1.78189 0
M  V30 6731 C 642.551 -3.17431 -1.71084 0
M  V30 6732 O 641.655 -3.01374 -2.81509 0
M  V30 6733 H 640.996 -0.617289 -0.244644 0
M  V30 6734 H 643.526 -2.04136 -0.137654 0
M  V30 6735 H 643.536 -3.49455 -2.10582 0
M  V30 6736 H 642.211 -4.01671 -1.07856 0
M  V30 6737 H 640.788 -2.80758 -2.45416 0
M  V30 6738 N 642.974 0.416227 -1.52004 0
M  V30 6739 C 644.22 1.16555 -1.6596 0
M  V30 6740 C 644.553 1.90347 -0.384906 0
M  V30 6741 O 643.828 1.84474 0.616405 0
M  V30 6742 C 644.111 2.1657 -2.87696 0
M  V30 6743 C 643.964 1.46722 -4.25197 0
M  V30 6744 C 645.283 3.17321 -3.04951 0
M  V30 6745 H 642.402 0.422369 -0.603965 0
M  V30 6746 H 645.044 0.452141 -1.84542 0
M  V30 6747 H 643.194 2.77411 -2.71985 0
M  V30 6748 H 644.866 0.89056 -4.52622 0
M  V30 6749 H 643.109 0.769263 -4.26925 0
M  V30 6750 H 643.78 2.19665 -5.0641 0
M  V30 6751 H 646.256 2.66552 -3.19514 0
M  V30 6752 H 645.132 3.84573 -3.91656 0
M  V30 6753 H 645.393 3.84643 -2.17951 0
M  V30 6754 N 644.452 1.42507 0.673017 0
M  V30 6755 C 645.699 1.43072 1.43306 0
M  V30 6756 C 646.027 0.0478004 1.94441 0
M  V30 6757 O 645.282 -0.944106 1.71421 0
M  V30 6758 C 645.581 2.40351 2.64511 0
M  V30 6759 C 645.247 3.8669 2.31908 0
M  V30 6760 C 643.909 4.26551 2.22728 0
M  V30 6761 C 646.261 4.78991 2.05467 0
M  V30 6762 C 643.589 5.56691 1.85234 0
M  V30 6763 C 645.941 6.09476 1.69477 0
M  V30 6764 C 644.605 6.48334 1.58808 0
M  V30 6765 H 643.875 0.523536 0.524395 0
M  V30 6766 H 646.522 1.75459 0.76723 0
M  V30 6767 H 644.827 2.01297 3.36135 0
M  V30 6768 H 646.524 2.38051 3.22696 0
M  V30 6769 H 643.114 3.55132 2.39956 0
M  V30 6770 H 647.298 4.48982 2.11492 0
M  V30 6771 H 642.554 5.85657 1.75545 0
M  V30 6772 H 646.728 6.80482 1.48043 0
M  V30 6773 H 644.355 7.49084 1.29525 0
M  V30 6774 N 645.93 -0.909495 1.28709 0
M  V30 6775 C 647.177 -1.65905 1.16111 0
M  V30 6776 C 647.505 -1.92334 -0.289436 0
M  V30 6777 O 646.76 -1.52495 -1.22653 0
M  V30 6778 C 647.059 -3.02117 1.90945 0
M  V30 6779 C 646.725 -2.95332 3.40719 0
M  V30 6780 C 645.387 -2.93189 3.81567 0
M  V30 6781 C 647.739 -2.85264 4.36204 0
M  V30 6782 C 645.067 -2.78784 5.16233 0
M  V30 6783 C 647.419 -2.724 5.70948 0
M  V30 6784 C 646.083 -2.68617 6.11066 0
M  V30 6785 H 645.353 -0.60709 0.42488 0
M  V30 6786 H 648 -1.05932 1.59533 0
M  V30 6787 H 646.305 -3.65901 1.40085 0
M  V30 6788 H 648.002 -3.59026 1.7861 0
M  V30 6789 H 644.592 -2.97797 3.08245 0
M  V30 6790 H 648.776 -2.86005 4.05605 0
M  V30 6791 H 644.032 -2.74254 5.46438 0
M  V30 6792 H 648.206 -2.63579 6.44592 0
M  V30 6793 H 645.833 -2.57213 7.15364 0
M  V30 6794 N 647.408 -1.11026 -1.11852 0
M  V30 6795 C 648.655 -0.85646 -1.83497 0
M  V30 6796 C 648.983 0.617938 -1.84423 0
M  V30 6797 O 648.238 1.47194 -1.28966 0
M  V30 6798 C 648.537 -1.35777 -3.30604 0
M  V30 6799 C 648.203 -2.84465 -3.49843 0
M  V30 6800 C 646.865 -3.25068 -3.54802 0
M  V30 6801 C 649.217 -3.80251 -3.56453 0
M  V30 6802 C 646.545 -4.60194 -3.63921 0
M  V30 6803 C 648.897 -5.15188 -3.67102 0
M  V30 6804 C 647.561 -5.55356 -3.70319 0
M  V30 6805 H 646.831 -0.313401 -0.671462 0
M  V30 6806 H 649.478 -1.38792 -1.31943 0
M  V30 6807 H 647.783 -0.746455 -3.84624 0
M  V30 6808 H 649.48 -1.13779 -3.8452 0
M  V30 6809 H 646.07 -2.52054 -3.46651 0
M  V30 6810 H 650.254 -3.49986 -3.51886 0
M  V30 6811 H 645.51 -4.90728 -3.64686 0
M  V30 6812 H 649.684 -5.89248 -3.71159 0
M  V30 6813 H 647.311 -6.60054 -3.77138 0
M  V30 6814 N 648.886 1.2938 -0.899927 0
M  V30 6815 C 650.111 2.00228 -0.540692 0
M  V30 6816 C 650.536 1.66909 0.867359 0
M  V30 6817 O 649.894 0.893824 1.57735 0
M  V30 6818 C 649.942 3.52921 -0.740232 0
M  V30 6819 O 649.046 4.11879 0.207154 0
M  V30 6820 H 648.387 0.629505 -0.211233 0
M  V30 6821 H 650.917 1.6487 -1.21158 0
M  V30 6822 H 650.927 4.0287 -0.644973 0
M  V30 6823 H 649.602 3.76508 -1.76677 0
M  V30 6824 H 648.179 3.72845 0.0643315 0
M  V30 6825 N 650.364 0.662433 1.43002 0
M  V30 6826 C 651.612 0.179237 2.01304 0
M  V30 6827 C 651.933 -1.21428 1.52579 0
M  V30 6828 O 651.203 -1.81294 0.742252 0
M  V30 6829 H 649.783 0.0632725 0.744316 0
M  V30 6830 H 652.445 0.856169 1.75088 0
M  V30 6831 H 651.541 0.170957 3.11631 0
M  V30 6832 N 651.842 -1.52309 0.404946 0
M  V30 6833 C 653.119 -1.94237 -0.230544 0
M  V30 6834 C 653.499 -1.34154 -1.6299 0
M  V30 6835 O 652.847 -0.515713 -2.22604 0
M  V30 6836 C 653.057 -3.48166 -0.241106 0
M  V30 6837 C 654.405 -4.22074 -0.462488 0
M  V30 6838 O 655.429 -3.54754 -0.320644 0
M  V30 6839 O 654.288 -5.41443 -0.741708 0
M  V30 6840 H 651.382 -0.813766 -0.147358 0
M  V30 6841 H 653.928 -1.6333 0.460587 0
M  V30 6842 H 652.7 -3.84269 0.738467 0
M  V30 6843 H 652.323 -3.85422 -0.97651 0
M  V30 6844 N 653.32 -0.135238 -1.57019 0
M  V30 6845 C 654.267 0.808908 -2.1616 0
M  V30 6846 C 655.237 1.25234 -1.09113 0
M  V30 6847 O 656.422 1.32697 -1.37099 0
M  V30 6848 C 653.562 2.04729 -2.77813 0
M  V30 6849 C 652.675 1.65074 -3.99218 0
M  V30 6850 C 651.81 2.84002 -4.48906 0
M  V30 6851 C 650.849 2.40663 -5.62803 0
M  V30 6852 N 649.986 3.5256 -6.07162 0
M  V30 6853 H 654.826 0.297751 -2.96509 0
M  V30 6854 H 652.363 0.135264 -1.46477 0
M  V30 6855 H 654.321 2.7731 -3.11697 0
M  V30 6856 H 652.951 2.53275 -2.00128 0
M  V30 6857 H 652.003 0.823029 -3.7139 0
M  V30 6858 H 653.315 1.29236 -4.81767 0
M  V30 6859 H 652.469 3.64788 -4.84783 0
M  V30 6860 H 651.208 3.23076 -3.65339 0
M  V30 6861 H 650.213 1.58314 -5.26514 0
M  V30 6862 H 651.438 2.02687 -6.48147 0
M  V30 6863 H 649.384 3.91278 -5.26534 0
M  V30 6864 H 649.301 3.20699 -6.84608 0
M  V30 6865 H 650.569 4.33738 -6.47682 0
M  V30 6866 N 654.798 1.5699 0.138552 0
M  V30 6867 C 656.028 1.87704 0.863184 0
M  V30 6868 C 656.436 0.722411 1.74865 0
M  V30 6869 O 655.779 -0.316636 1.80951 0
M  V30 6870 C 655.841 3.13219 1.76449 0
M  V30 6871 C 655.505 4.44648 1.05532 0
M  V30 6872 C 656.502 5.18318 0.405252 0
M  V30 6873 C 654.187 4.91367 1.04231 0
M  V30 6874 C 656.181 6.36916 -0.24835 0
M  V30 6875 C 653.868 6.09887 0.384904 0
M  V30 6876 C 654.866 6.82508 -0.259292 0
M  V30 6877 O 654.554 7.98775 -0.906258 0
M  V30 6878 H 654.286 0.626255 0.254521 0
M  V30 6879 H 656.84 2.04966 0.133472 0
M  V30 6880 H 655.07 2.91988 2.53535 0
M  V30 6881 H 656.759 3.30111 2.36181 0
M  V30 6882 H 657.525 4.83289 0.407053 0
M  V30 6883 H 653.404 4.34759 1.53315 0
M  V30 6884 H 656.948 6.93538 -0.751755 0
M  V30 6885 H 652.845 6.44376 0.380799 0
M  V30 6886 H 653.613 8.14494 -0.80877 0
M  V30 6887 N 656.276 -0.40816 1.52223 0
M  V30 6888 C 657.506 -1.17501 1.69932 0
M  V30 6889 C 657.914 -1.84729 0.408874 0
M  V30 6890 O 657.257 -1.7274 -0.625025 0
M  V30 6891 C 657.319 -2.27994 2.77955 0
M  V30 6892 C 656.983 -1.80894 4.19674 0
M  V30 6893 C 657.98 -1.29618 5.03483 0
M  V30 6894 C 655.665 -1.87698 4.65913 0
M  V30 6895 C 657.659 -0.857695 6.31603 0
M  V30 6896 C 655.346 -1.43461 5.94022 0
M  V30 6897 C 656.344 -0.925822 6.76696 0
M  V30 6898 O 656.032 -0.489841 8.02406 0
M  V30 6899 H 655.764 -0.359065 0.572755 0
M  V30 6900 H 658.318 -0.486188 1.99563 0
M  V30 6901 H 656.548 -3.00243 2.43703 0
M  V30 6902 H 658.237 -2.89749 2.84254 0
M  V30 6903 H 659.003 -1.23733 4.68951 0
M  V30 6904 H 654.882 -2.26244 4.01665 0
M  V30 6905 H 658.426 -0.459879 6.96083 0
M  V30 6906 H 654.323 -1.49026 6.28062 0
M  V30 6907 H 655.091 -0.613062 8.16201 0
M  V30 6908 N 657.755 -1.42862 -0.66545 0
M  V30 6909 C 659.171 -1.25993 -0.979687 0
M  V30 6910 C 659.371 -0.170831 -2.00775 0
M  V30 6911 O 658.427 0.454827 -2.4837 0
M  V30 6912 C 659.74 -2.62005 -1.47559 0
M  V30 6913 C 661.288 -2.69437 -1.59288 0
M  V30 6914 C 661.763 -4.05838 -2.12272 0
M  V30 6915 N 663.254 -4.0784 -2.19592 0
M  V30 6916 C 663.989 -5.10205 -2.61684 0
M  V30 6917 N 663.485 -6.22949 -3.03161 0
M  V30 6918 N 665.278 -4.9756 -2.61516 0
M  V30 6919 H 657.429 -2.12395 0.0150493 0
M  V30 6920 H 659.692 -0.946355 -0.0558187 0
M  V30 6921 H 659.398 -3.42605 -0.794654 0
M  V30 6922 H 659.272 -2.86566 -2.45275 0
M  V30 6923 H 661.659 -1.89178 -2.26486 0
M  V30 6924 H 661.74 -2.48655 -0.600374 0
M  V30 6925 H 661.384 -4.86559 -1.4568 0
M  V30 6926 H 661.314 -4.23977 -3.12331 0
M  V30 6927 H 663.805 -3.26452 -1.90361 0
M  V30 6928 H 664.118 -6.96899 -3.33993 0
M  V30 6929 H 662.463 -6.2644 -3.00995 0
M  V30 6930 H 665.654 -4.08551 -2.28481 0
M  V30 6931 H 665.827 -5.77468 -2.93999 0
M  V30 6932 N 659.233 0.902656 -1.29189 0
M  V30 6933 C 660.479 1.65532 -1.17163 0
M  V30 6934 C 660.812 1.92216 0.276879 0
M  V30 6935 O 660.087 1.53048 1.20027 0
M  V30 6936 C 660.37 3.00629 -1.98228 0
M  V30 6937 C 660.223 2.81029 -3.51202 0
M  V30 6938 C 661.542 4.01321 -1.80635 0
M  V30 6939 H 658.661 0.60071 -0.426985 0
M  V30 6940 H 661.303 1.04578 -1.5863 0
M  V30 6941 H 659.453 3.52656 -1.62991 0
M  V30 6942 H 661.125 2.35927 -3.96404 0
M  V30 6943 H 659.368 2.1587 -3.76275 0
M  V30 6944 H 660.039 3.77014 -4.03192 0
M  V30 6945 H 662.515 3.58394 -2.11406 0
M  V30 6946 H 661.391 4.93792 -2.3971 0
M  V30 6947 H 661.652 4.35505 -0.760754 0
M  V30 6948 N 660.711 1.11618 1.11262 0
M  V30 6949 C 661.659 0.771291 2.1944 0
M  V30 6950 C 662.653 -0.238073 1.67719 0
M  V30 6951 O 663.859 -0.0971628 1.79738 0
M  V30 6952 H 660.234 0.231548 0.715465 0
M  V30 6953 H 662.205 1.69226 2.45775 0
M  V30 6954 C 660.954 0.232765 3.4692 0
M  V30 6955 H 660.277 1.00072 3.87073 0
M  V30 6956 H 661.717 0.0296561 4.2399 0
M  V30 6957 C 660.176 -1.03738 3.20531 0
M  V30 6958 O 660.706 -2.11675 3.41404 0
M  V30 6959 N 658.912 -0.960906 2.74253 0
M  V30 6960 H 658.459 -0.0824323 2.57468 0
M  V30 6961 H 658.417 -1.8114 2.56974 0
M  V30 6962 N 662.189 -1.289 0.906776 0
M  V30 6963 C 663.119 -2.29932 0.406659 0
M  V30 6964 C 664.1 -1.6189 -0.522061 0
M  V30 6965 O 665.285 -1.8935 -0.431283 0
M  V30 6966 C 662.415 -3.45425 -0.360366 0
M  V30 6967 C 661.369 -4.25316 0.478574 0
M  V30 6968 C 660.695 -5.33076 -0.416373 0
M  V30 6969 C 661.995 -4.92739 1.7322 0
M  V30 6970 H 663.689 -2.72013 1.25097 0
M  V30 6971 H 661.235 -1.30768 0.602977 0
M  V30 6972 H 663.188 -4.15186 -0.721029 0
M  V30 6973 H 661.912 -3.02206 -1.23852 0
M  V30 6974 H 660.571 -3.57273 0.821662 0
M  V30 6975 H 660.219 -4.86101 -1.29287 0
M  V30 6976 H 659.919 -5.8743 0.141309 0
M  V30 6977 H 661.443 -6.05686 -0.773072 0
M  V30 6978 H 662.857 -5.54898 1.44086 0
M  V30 6979 H 661.254 -5.57057 2.23175 0
M  V30 6980 H 662.324 -4.17625 2.46408 0
M  V30 6981 N 663.667 -0.670007 -1.42649 0
M  V30 6982 C 665.083 -0.33911 -1.55956 0
M  V30 6983 C 665.283 1.1558 -1.65056 0
M  V30 6984 O 664.339 1.94111 -1.61485 0
M  V30 6985 C 665.652 -1.06522 -2.812 0
M  V30 6986 C 667.2 -1.04708 -2.94966 0
M  V30 6987 C 667.675 -1.75442 -4.23065 0
M  V30 6988 N 669.166 -1.72286 -4.29967 0
M  V30 6989 C 669.901 -2.23877 -5.27889 0
M  V30 6990 N 669.397 -2.83829 -6.31991 0
M  V30 6991 N 671.19 -2.14279 -5.19654 0
M  V30 6992 H 663.341 -1.6399 -1.34986 0
M  V30 6993 H 665.604 -0.690603 -0.649439 0
M  V30 6994 H 665.31 -2.12033 -2.80597 0
M  V30 6995 H 665.184 -0.627398 -3.71946 0
M  V30 6996 H 667.571 -0.000315966 -2.951 0
M  V30 6997 H 667.652 -1.52374 -2.05465 0
M  V30 6998 H 667.296 -2.80084 -4.23693 0
M  V30 6999 H 667.226 -1.25229 -5.11493 0
M  V30 7000 H 669.717 -1.28554 -3.55362 0
M  V30 7001 H 670.03 -3.20827 -7.03057 0
M  V30 7002 H 668.375 -2.87896 -6.32567 0
M  V30 7003 H 671.566 -1.67135 -4.37245 0
M  V30 7004 H 671.739 -2.54792 -5.95806 0
M  V30 7005 N 665.145 1.52092 -0.413018 0
M  V30 7006 C 666.373 2.06274 0.160881 0
M  V30 7007 C 666.788 1.28273 1.38533 0
M  V30 7008 O 666.145 0.33563 1.79387 0
M  V30 7009 C 666.196 3.57921 0.507443 0
M  V30 7010 O 665.917 4.32971 -0.668388 0
M  V30 7011 C 667.418 4.28533 1.13465 0
M  V30 7012 H 664.638 0.67074 0.0186759 0
M  V30 7013 H 667.182 1.95951 -0.585092 0
M  V30 7014 H 665.337 3.68238 1.20331 0
M  V30 7015 H 665.751 5.23135 -0.378169 0
M  V30 7016 H 667.225 5.35804 1.32732 0
M  V30 7017 H 667.702 3.85258 2.10886 0
M  V30 7018 H 668.308 4.22595 0.478876 0
M  V30 7019 N 666.623 0.143563 1.56945 0
M  V30 7020 C 668.039 -0.212877 1.58174 0
M  V30 7021 C 668.239 -1.64926 1.15766 0
M  V30 7022 O 667.295 -2.37535 0.856361 0
M  V30 7023 C 668.608 0.0427573 3.0067 0
M  V30 7024 C 670.156 -0.0212221 3.12993 0
M  V30 7025 C 670.631 0.207036 4.57532 0
M  V30 7026 N 672.122 0.153845 4.62944 0
M  V30 7027 C 672.857 0.305018 5.72588 0
M  V30 7028 N 672.353 0.513722 6.90893 0
M  V30 7029 N 674.146 0.242862 5.61575 0
M  V30 7030 H 666.297 1.08148 1.82805 0
M  V30 7031 H 668.56 0.427831 0.84597 0
M  V30 7032 H 668.266 1.03672 3.36073 0
M  V30 7033 H 668.14 -0.678195 3.71053 0
M  V30 7034 H 670.527 -1.00574 2.77433 0
M  V30 7035 H 670.608 0.732004 2.45103 0
M  V30 7036 H 670.252 1.18863 4.93795 0
M  V30 7037 H 670.182 -0.566473 5.23544 0
M  V30 7038 H 672.673 -0.00294866 3.779 0
M  V30 7039 H 672.986 0.619273 7.70315 0
M  V30 7040 H 671.331 0.550001 6.9282 0
M  V30 7041 H 674.522 0.0806015 4.68031 0
M  V30 7042 H 674.695 0.364112 6.46976 0
M  V30 7043 N 668.101 -1.57061 -0.130224 0
M  V30 7044 C 669.517 -1.52103 -0.483413 0
M  V30 7045 C 669.717 -0.854752 -1.82473 0
M  V30 7046 O 668.773 -0.432342 -2.48771 0
M  V30 7047 C 670.086 -2.96872 -0.47825 0
M  V30 7048 C 671.634 -3.07902 -0.562592 0
M  V30 7049 C 672.109 -4.54211 -0.587929 0
M  V30 7050 N 673.6 -4.58621 -0.649684 0
M  V30 7051 C 674.335 -5.69227 -0.690551 0
M  V30 7052 N 673.831 -6.89358 -0.689743 0
M  V30 7053 N 675.624 -5.57304 -0.732708 0
M  V30 7054 H 667.775 -1.98764 0.748779 0
M  V30 7055 H 670.038 -0.907248 0.274965 0
M  V30 7056 H 669.744 -3.48944 0.439444 0
M  V30 7057 H 669.618 -3.53716 -1.31013 0
M  V30 7058 H 672.005 -2.5584 -1.47071 0
M  V30 7059 H 672.086 -2.54073 0.296764 0
M  V30 7060 H 671.73 -5.06915 0.316096 0
M  V30 7061 H 671.66 -5.0584 -1.46401 0
M  V30 7062 H 674.151 -3.72146 -0.656927 0
M  V30 7063 H 674.464 -7.69408 -0.723239 0
M  V30 7064 H 672.809 -6.91884 -0.657347 0
M  V30 7065 H 676 -4.62363 -0.730625 0
M  V30 7066 H 676.173 -6.43515 -0.76109 0
M  V30 7067 N 669.579 0.400081 -1.52437 0
M  V30 7068 C 670.825 1.14788 -1.67187 0
M  V30 7069 C 671.158 1.89928 -0.405074 0
M  V30 7070 O 670.433 1.85118 0.596804 0
M  V30 7071 C 670.716 2.13507 -2.89977 0
M  V30 7072 C 670.569 1.42204 -4.2673 0
M  V30 7073 C 671.888 3.14069 -3.083 0
M  V30 7074 H 669.007 0.415939 -0.608411 0
M  V30 7075 H 671.649 0.432542 -1.85011 0
M  V30 7076 H 669.799 2.7451 -2.74912 0
M  V30 7077 H 671.471 0.842503 -4.53541 0
M  V30 7078 H 669.714 0.723939 -4.27717 0
M  V30 7079 H 670.385 2.14281 -5.08712 0
M  V30 7080 H 672.861 2.63148 -3.22323 0
M  V30 7081 H 671.737 3.80398 -3.95713 0
M  V30 7082 H 671.998 3.82309 -2.22018 0
M  V30 7083 N 671.057 1.43213 0.657864 0
M  V30 7084 C 672.334 1.35063 1.41483 0
M  V30 7085 C 672.714 -0.0038314 2.111 0
M  V30 7086 O 672.062 -1.02018 2.04462 0
M  V30 7087 C 672.272 2.53061 2.40335 0
M  V30 7088 C 673.62 2.9594 3.04474 0
M  V30 7089 O 674.644 2.53074 2.50663 0
M  V30 7090 O 673.503 3.70184 4.02027 0
M  V30 7091 H 670.597 0.533517 0.631893 0
M  V30 7092 H 673.143 1.55253 0.685162 0
M  V30 7093 H 671.915 3.43283 1.87809 0
M  V30 7094 H 671.538 2.34945 3.20759 0
M  V30 7095 N 672.536 -0.895792 1.29666 0
M  V30 7096 C 673.764 -1.68001 1.20761 0
M  V30 7097 C 674.179 -1.87379 -0.231187 0
M  V30 7098 O 673.536 -1.41359 -1.15429 0
M  V30 7099 C 673.587 -3.06236 1.92098 0
M  V30 7100 O 673.308 -2.8774 3.30359 0
M  V30 7101 C 674.809 -4.00652 1.89717 0
M  V30 7102 H 672.029 -0.524591 0.418384 0
M  V30 7103 H 674.573 -1.11995 1.71106 0
M  V30 7104 H 672.728 -3.59007 1.45578 0
M  V30 7105 H 673.142 -3.75359 3.66342 0
M  V30 7106 H 674.616 -4.95051 2.44189 0
M  V30 7107 H 675.093 -4.30424 0.873595 0
M  V30 7108 H 675.699 -3.53815 2.35998 0
M  V30 7109 N 674.014 -1.12206 -1.10668 0
M  V30 7110 C 675.26 -0.877172 -1.82848 0
M  V30 7111 C 675.593 0.595571 -1.84842 0
M  V30 7112 O 674.868 1.44013 -1.30731 0
M  V30 7113 C 675.151 -1.44957 -3.29635 0
M  V30 7114 C 675.004 -2.99051 -3.35989 0
M  V30 7115 C 676.323 -1.10714 -4.25946 0
M  V30 7116 H 673.442 -0.320103 -0.663854 0
M  V30 7117 H 676.084 -1.38827 -1.2972 0
M  V30 7118 H 674.234 -1.01488 -3.7501 0
M  V30 7119 H 675.906 -3.51182 -2.99113 0
M  V30 7120 H 674.149 -3.34705 -2.75962 0
M  V30 7121 H 674.82 -3.34194 -4.39339 0
M  V30 7122 H 677.296 -1.48254 -3.88793 0
M  V30 7123 H 676.172 -1.5343 -5.2702 0
M  V30 7124 H 676.433 -0.019 -4.42096 0
M  V30 7125 N 675.492 1.28418 -0.913599 0
M  V30 7126 C 676.769 1.89977 -0.465619 0
M  V30 7127 C 677.149 1.82813 1.05559 0
M  V30 7128 O 676.497 1.26397 1.90358 0
M  V30 7129 C 676.707 3.34492 -0.995813 0
M  V30 7130 C 678.055 4.11468 -1.04782 0
M  V30 7131 O 679.079 3.43451 -0.944445 0
M  V30 7132 O 677.938 5.33046 -1.20518 0
M  V30 7133 H 675.032 0.813734 -0.147532 0
M  V30 7134 H 677.578 1.36786 -1.00437 0
M  V30 7135 H 676.35 3.33929 -2.03978 0
M  V30 7136 H 675.973 3.95181 -0.437878 0
M  V30 7137 N 676.97 0.677563 1.42291 0
M  V30 7138 C 678.381 0.277912 1.8462 0
M  V30 7139 C 678.732 -1.18048 1.56714 0
M  V30 7140 O 677.857 -1.90404 1.02836 0
M  V30 7141 C 678.452 0.497619 3.35126 0
M  V30 7142 C 677.011 0.152063 3.76093 0
M  V30 7143 C 676.158 0.78872 2.65847 0
M  V30 7144 H 679.109 0.879527 1.32098 0
M  V30 7145 H 679.13 -0.24939 3.79682 0
M  V30 7146 H 678.642 1.55913 3.55405 0
M  V30 7147 H 676.743 -0.905896 3.6142 0
M  V30 7148 H 676.856 0.594514 4.75397 0
M  V30 7149 H 675.22 0.219813 2.5375 0
M  V30 7150 H 676.003 1.85374 2.88949 0
M  V30 7151 N 678.448 -1.51871 0.421078 0
M  V30 7152 C 679.859 -1.86644 -0.0457991 0
M  V30 7153 C 680.21 -1.33919 -1.43388 0
M  V30 7154 O 679.335 -0.683316 -2.05328 0
M  V30 7155 C 679.93 -3.38681 -0.0898844 0
M  V30 7156 C 678.489 -3.73049 -0.501127 0
M  V30 7157 C 677.636 -2.75485 0.316723 0
M  V30 7158 H 680.587 -1.45327 0.637635 0
M  V30 7159 H 680.608 -3.69636 -0.902734 0
M  V30 7160 H 680.12 -3.77025 0.920513 0
M  V30 7161 H 678.221 -3.40288 -1.51773 0
M  V30 7162 H 678.334 -4.78512 -0.237217 0
M  V30 7163 H 676.698 -2.53725 -0.222663 0
M  V30 7164 H 677.481 -3.16671 1.32569 0
M  V30 7165 N 679.926 -0.151884 -1.56866 0
M  V30 7166 C 681.156 0.504081 -2.00356 0
M  V30 7167 C 681.564 1.58639 -1.03103 0
M  V30 7168 O 680.907 1.83688 -0.0207931 0
M  V30 7169 C 680.969 1.15975 -3.40279 0
M  V30 7170 C 680.633 0.221453 -4.56463 0
M  V30 7171 C 681.63 -0.552766 -5.16953 0
M  V30 7172 C 679.315 0.122936 -5.0215 0
M  V30 7173 C 681.309 -1.4129 -6.21543 0
M  V30 7174 C 678.996 -0.740801 -6.06593 0
M  V30 7175 C 679.994 -1.50732 -6.6616 0
M  V30 7176 O 679.682 -2.35666 -7.68581 0
M  V30 7177 H 679.414 0.135279 -0.662326 0
M  V30 7178 H 681.968 -0.244916 -2.03935 0
M  V30 7179 H 680.198 1.95649 -3.33554 0
M  V30 7180 H 681.887 1.71594 -3.67846 0
M  V30 7181 H 682.653 -0.486716 -4.82552 0
M  V30 7182 H 678.532 0.70931 -4.5551 0
M  V30 7183 H 682.076 -2.01166 -6.67966 0
M  V30 7184 H 677.973 -0.808125 -6.40421 0
M  V30 7185 H 678.741 -2.28967 -7.85822 0
M  V30 7186 N 681.404 1.57128 0.121893 0
M  V30 7187 C 682.815 1.73902 0.679348 0
M  V30 7188 C 683.166 0.770135 1.80453 0
M  V30 7189 O 682.291 -0.0576083 2.16323 0
M  V30 7190 C 682.886 3.15328 1.2391 0
M  V30 7191 C 681.445 3.33618 1.74288 0
M  V30 7192 C 680.592 2.6978 0.641414 0
M  V30 7193 H 683.543 1.58359 -0.104 0
M  V30 7194 H 683.564 3.16718 2.10879 0
M  V30 7195 H 683.076 3.85821 0.419957 0
M  V30 7196 H 681.177 2.68162 2.58689 0
M  V30 7197 H 681.29 4.4176 1.85432 0
M  V30 7198 H 679.654 2.30935 1.0743 0
M  V30 7199 H 680.437 3.42895 -0.166707 0
M  V30 7200 N 682.882 -0.391992 1.52647 0
M  V30 7201 C 684.298 -0.731848 1.41831 0
M  V30 7202 C 684.498 -1.9423 0.536361 0
M  V30 7203 O 683.554 -2.52499 0.00866571 0
M  V30 7204 C 684.867 -0.969743 2.84634 0
M  V30 7205 C 686.415 -1.0714 2.94092 0
M  V30 7206 C 686.89 -1.34195 4.37899 0
M  V30 7207 N 688.381 -1.41023 4.41211 0
M  V30 7208 C 689.116 -1.63616 5.49561 0
M  V30 7209 N 688.612 -1.83699 6.68002 0
M  V30 7210 N 690.405 -1.65771 5.371 0
M  V30 7211 H 682.556 0.404547 2.08512 0
M  V30 7212 H 684.819 0.11879 0.940528 0
M  V30 7213 H 684.525 -0.152465 3.51369 0
M  V30 7214 H 684.399 -1.88523 3.26709 0
M  V30 7215 H 686.786 -1.87925 2.27526 0
M  V30 7216 H 686.867 -0.133887 2.55449 0
M  V30 7217 H 686.511 -0.539207 5.0503 0
M  V30 7218 H 686.441 -2.29226 4.74092 0
M  V30 7219 H 688.932 -1.27223 3.55841 0
M  V30 7220 H 689.245 -2.00437 7.46354 0
M  V30 7221 H 687.59 -1.8093 6.71036 0
M  V30 7222 H 690.781 -1.4963 4.43541 0
M  V30 7223 H 690.954 -1.83038 6.21612 0
M  V30 7224 N 684.36 -1.4356 -0.65026 0
M  V30 7225 C 685.585 -1.48995 -1.44275 0
M  V30 7226 C 686.01 -0.109954 -1.87778 0
M  V30 7227 O 685.368 0.896926 -1.57559 0
M  V30 7228 C 685.416 -2.44341 -2.65198 0
M  V30 7229 O 684.52 -1.93172 -3.6436 0
M  V30 7230 H 683.861 -0.503852 -0.432469 0
M  V30 7231 H 686.391 -1.88504 -0.795446 0
M  V30 7232 H 686.401 -2.61743 -3.12977 0
M  V30 7233 H 685.076 -3.44588 -2.32877 0
M  V30 7234 H 683.653 -1.85445 -3.23519 0
M  V30 7235 N 685.838 0.888903 -1.30139 0
M  V30 7236 C 687.087 1.63507 -1.18103 0
M  V30 7237 C 687.4 1.93808 0.264141 0
M  V30 7238 O 688.606 2.66744 0.505966 0
M  V30 7239 C 687.062 2.94673 -2.0663 0
M  V30 7240 C 686.67 2.71926 -3.56034 0
M  V30 7241 C 688.414 3.72626 -2.03346 0
M  V30 7242 C 686.321 3.98884 -4.3663 0
M  V30 7243 H 685.251 0.613426 -0.438435 0
M  V30 7244 H 687.902 0.984427 -1.54859 0
M  V30 7245 H 686.284 3.61009 -1.62754 0
M  V30 7246 H 687.458 2.14116 -4.08033 0
M  V30 7247 H 685.773 2.07353 -3.61101 0
M  V30 7248 H 688.37 4.66775 -2.60816 0
M  V30 7249 H 688.713 4.03712 -1.016 0
M  V30 7250 H 689.246 3.13147 -2.45324 0
M  V30 7251 H 685.985 3.72959 -5.39056 0
M  V30 7252 H 685.505 4.56214 -3.89396 0
M  V30 7253 H 687.184 4.66938 -4.47859 0
M  V30 7254 N 687.317 1.12792 1.10072 0
M  V30 7255 C 688.28 0.802264 2.14701 0
M  V30 7256 C 689.28 -0.18515 1.59731 0
M  V30 7257 O 690.47 0.041109 1.74151 0
M  V30 7258 C 687.602 0.19285 3.40354 0
M  V30 7259 H 688.795 1.72932 2.45019 0
M  V30 7260 H 686.348 0.931662 1.25498 0
M  V30 7261 H 687.083 -0.743748 3.15656 0
M  V30 7262 H 686.868 0.903827 3.81541 0
M  V30 7263 H 688.358 -0.0183704 4.17596 0
M  V30 7264 N 688.795 -1.27931 0.920396 0
M  V30 7265 C 689.727 -2.26175 0.371169 0
M  V30 7266 C 690.74 -1.55122 -0.494065 0
M  V30 7267 O 691.929 -1.75825 -0.30787 0
M  V30 7268 C 689.029 -3.35376 -0.487481 0
M  V30 7269 C 688.202 -4.35943 0.356772 0
M  V30 7270 C 687.261 -5.24374 -0.438042 0
M  V30 7271 O 686.287 -5.68998 0.151715 0
M  V30 7272 N 687.489 -5.53823 -1.73956 0
M  V30 7273 H 690.254 -2.73938 1.21564 0
M  V30 7274 H 687.815 -1.41482 0.787047 0
M  V30 7275 H 689.807 -3.91476 -1.02609 0
M  V30 7276 H 688.377 -2.87269 -1.23269 0
M  V30 7277 H 687.597 -3.7921 1.07672 0
M  V30 7278 H 688.885 -5.0015 0.934206 0
M  V30 7279 H 688.283 -5.19413 -2.24114 0
M  V30 7280 H 686.84 -6.12653 -2.22486 0
M  V30 7281 N 690.273 -0.685099 -1.4193 0
M  V30 7282 C 691.503 -0.220052 -2.05425 0
M  V30 7283 C 691.911 1.13185 -1.51611 0
M  V30 7284 O 691.254 1.71631 -0.654875 0
M  V30 7285 C 691.316 -0.0888364 -3.5939 0
M  V30 7286 C 690.98 -1.37109 -4.35947 0
M  V30 7287 C 691.977 -2.30675 -4.65924 0
M  V30 7288 C 689.662 -1.62155 -4.75406 0
M  V30 7289 C 691.656 -3.47556 -5.34306 0
M  V30 7290 C 689.343 -2.79324 -5.43527 0
M  V30 7291 C 690.341 -3.71848 -5.72903 0
M  V30 7292 O 690.029 -4.86966 -6.39624 0
M  V30 7293 H 689.761 -0.102165 -0.668235 0
M  V30 7294 H 692.315 -0.935194 -1.82875 0
M  V30 7295 H 690.545 0.681981 -3.80639 0
M  V30 7296 H 692.234 0.337669 -4.04493 0
M  V30 7297 H 693 -2.12579 -4.3593 0
M  V30 7298 H 688.879 -0.910053 -4.51928 0
M  V30 7299 H 692.423 -4.19794 -5.57153 0
M  V30 7300 H 688.32 -2.97342 -5.72938 0
M  V30 7301 H 689.088 -4.86644 -6.58118 0
M  V30 7302 N 691.751 1.51645 -0.429126 0
M  V30 7303 C 692.997 2.02967 0.132584 0
M  V30 7304 C 693.352 1.30804 1.41096 0
M  V30 7305 O 692.645 0.411705 1.87124 0
M  V30 7306 C 692.839 3.54989 0.414472 0
M  V30 7307 C 692.668 4.41879 -0.83503 0
M  V30 7308 C 691.438 4.86482 -1.36614 0
M  V30 7309 C 693.636 4.84727 -1.71886 0
M  V30 7310 N 691.618 5.5756 -2.56904 0
M  V30 7311 C 692.989 5.54788 -2.76786 0
M  V30 7312 C 695.044 4.66721 -1.73425 0
M  V30 7313 C 693.747 6.08753 -3.8316 0
M  V30 7314 C 695.773 5.21597 -2.7873 0
M  V30 7315 C 695.135 5.91598 -3.8235 0
M  V30 7316 H 691.234 0.781942 0.00956367 0
M  V30 7317 H 693.818 1.8561 -0.587957 0
M  V30 7318 H 691.989 3.72378 1.10405 0
M  V30 7319 H 693.721 3.92982 0.966817 0
M  V30 7320 H 690.476 4.64553 -0.921255 0
M  V30 7321 H 690.9 5.97731 -3.17879 0
M  V30 7322 H 695.542 4.1207 -0.946467 0
M  V30 7323 H 693.26 6.62464 -4.62782 0
M  V30 7324 H 696.846 5.09522 -2.80853 0
M  V30 7325 H 695.726 6.33299 -4.62495 0
M  V30 7326 N 693.229 0.160201 1.56784 0
M  V30 7327 C 694.159 -0.770264 2.2043 0
M  V30 7328 C 695.14 -1.24736 1.15651 0
M  V30 7329 O 696.325 -1.30253 1.44041 0
M  V30 7330 C 693.455 -2.00427 2.83631 0
M  V30 7331 C 692.409 -1.66345 3.94352 0
M  V30 7332 C 691.735 -2.97119 4.4455 0
M  V30 7333 C 693.035 -0.899972 5.14488 0
M  V30 7334 H 694.729 -0.239783 2.98438 0
M  V30 7335 H 692.275 -0.113891 1.43549 0
M  V30 7336 H 694.228 -2.66012 3.26827 0
M  V30 7337 H 692.952 -2.5587 2.02973 0
M  V30 7338 H 691.611 -1.03133 3.51794 0
M  V30 7339 H 691.259 -3.5058 3.60698 0
M  V30 7340 H 690.959 -2.75073 5.19238 0
M  V30 7341 H 692.483 -3.63753 4.90425 0
M  V30 7342 H 693.897 -1.45818 5.54446 0
M  V30 7343 H 692.294 -0.778968 5.95023 0
M  V30 7344 H 693.364 0.105827 4.84785 0
M  V30 7345 N 694.707 -1.5719 -0.113559 0
M  V30 7346 C 695.955 -1.84772 -0.818761 0
M  V30 7347 C 696.276 -0.746196 -1.80158 0
M  V30 7348 O 695.546 0.229305 -1.94553 0
M  V30 7349 H 694.126 -0.681737 -0.305359 0
M  V30 7350 H 696.788 -1.94645 -0.0995845 0
M  V30 7351 H 695.884 -2.80878 -1.36067 0
M  V30 7352 N 696.185 0.383891 -1.52853 0
M  V30 7353 C 697.425 1.13731 -1.69837 0
M  V30 7354 C 697.789 1.87086 -0.431611 0
M  V30 7355 O 698.99 2.64518 -0.477886 0
M  V30 7356 C 697.261 2.08551 -2.90243 0
M  V30 7357 S 698.82 2.9166 -3.27841 0
M  V30 7358 H 695.638 0.384911 -0.5978 0
M  V30 7359 H 698.24 0.42103 -1.90913 0
M  V30 7360 H 696.944 1.53392 -3.80656 0
M  V30 7361 H 696.475 2.8468 -2.71516 0
M  V30 7362 H 698.49 4.10723 -2.78426 0
M  V30 7363 N 697.663 1.43903 0.642637 0
M  V30 7364 C 699.074 1.40975 1.22404 0
M  V30 7365 C 699.425 0.1192 1.95838 0
M  V30 7366 O 698.55 -0.780939 2.01818 0
M  V30 7367 C 699.145 2.5538 2.22636 0
M  V30 7368 C 697.704 2.55684 2.76229 0
M  V30 7369 C 696.851 2.32556 1.51039 0
M  V30 7370 H 699.802 1.5265 0.434006 0
M  V30 7371 H 699.823 2.27474 3.05017 0
M  V30 7372 H 699.335 3.49294 1.69161 0
M  V30 7373 H 697.436 1.65679 3.33738 0
M  V30 7374 H 697.549 3.53799 3.23053 0
M  V30 7375 H 695.913 1.81427 1.78764 0
M  V30 7376 H 696.696 3.28569 0.99484 0
M  V30 7377 N 699.141 -0.881989 1.30609 0
M  V30 7378 C 700.104 -1.96957 1.1722 0
M  V30 7379 C 701.104 -1.60472 0.102598 0
M  V30 7380 O 702.294 -1.70628 0.350943 0
M  V30 7381 C 699.426 -3.31463 0.796572 0
M  V30 7382 H 700.619 -2.10262 2.13846 0
M  V30 7383 H 698.172 -1.06877 1.14048 0
M  V30 7384 H 698.907 -3.23859 -0.169053 0
M  V30 7385 H 698.692 -3.59314 1.56959 0
M  V30 7386 H 700.182 -4.11233 0.72645 0
M  V30 7387 N 700.619 -1.13374 -1.09472 0
M  V30 7388 C 702.03 -0.90801 -1.63132 0
M  V30 7389 C 702.381 0.555576 -1.8817 0
M  V30 7390 O 701.506 1.42218 -1.63104 0
M  V30 7391 C 702.101 -1.64182 -2.96361 0
M  V30 7392 C 700.66 -1.46197 -3.46848 0
M  V30 7393 C 699.807 -1.67134 -2.21273 0
M  V30 7394 H 702.758 -1.2871 -0.928411 0
M  V30 7395 H 702.779 -1.09863 -3.64294 0
M  V30 7396 H 702.291 -2.707 -2.78106 0
M  V30 7397 H 700.392 -0.419788 -3.70228 0
M  V30 7398 H 700.505 -2.22472 -4.24315 0
M  V30 7399 H 698.869 -1.09616 -2.29905 0
M  V30 7400 H 699.652 -2.74971 -2.05538 0
M  V30 7401 N 702.098 1.27442 -0.927168 0
M  V30 7402 C 703.346 1.94007 -0.566203 0
M  V30 7403 C 703.667 1.7323 0.895345 0
M  V30 7404 O 702.937 1.07973 1.63459 0
M  V30 7405 H 701.517 0.717917 -0.206409 0
M  V30 7406 H 704.179 1.55161 -1.17945 0
M  V30 7407 H 703.275 3.02401 -0.772028 0
M  V30 7408 N 703.576 0.692616 1.41565 0
M  V30 7409 C 704.526 0.00231847 2.28 0
M  V30 7410 C 705.51 -0.755793 1.42044 0
M  V30 7411 O 706.702 -0.631772 1.65341 0
M  V30 7412 C 703.831 -0.935468 3.30309 0
M  V30 7413 C 702.917 -0.173761 4.23744 0
M  V30 7414 N 703.308 0.830872 4.98929 0
M  V30 7415 C 701.606 -0.409666 4.44115 0
M  V30 7416 C 702.307 1.28656 5.67294 0
M  V30 7417 N 701.283 0.613053 5.40132 0
M  V30 7418 H 705.085 0.772635 2.83562 0
M  V30 7419 H 702.599 0.523198 1.53741 0
M  V30 7420 H 704.596 -1.44513 3.91052 0
M  V30 7421 H 703.256 -1.70542 2.76307 0
M  V30 7422 H 704.267 1.21101 5.03542 0
M  V30 7423 H 700.944 -1.15773 4.01127 0
M  V30 7424 H 702.334 2.12006 6.37576 0
M  V30 7425 N 705.054 -1.51416 0.437162 0
M  V30 7426 C 705.984 -2.30631 -0.364922 0
M  V30 7427 C 706.965 -1.36037 -1.02118 0
M  V30 7428 O 708.15 -1.64956 -1.02485 0
M  V30 7429 C 705.28 -3.1482 -1.46648 0
M  V30 7430 C 704.234 -4.17691 -0.933717 0
M  V30 7431 C 703.56 -4.904 -2.13101 0
M  V30 7432 C 704.86 -5.2229 0.0317201 0
M  V30 7433 H 706.554 -2.97932 0.29614 0
M  V30 7434 H 704.1 -1.4328 0.143865 0
M  V30 7435 H 706.053 -3.69017 -2.03481 0
M  V30 7436 H 704.777 -2.4534 -2.15583 0
M  V30 7437 H 703.436 -3.64545 -0.387602 0
M  V30 7438 H 703.084 -4.17423 -2.80654 0
M  V30 7439 H 702.784 -5.59962 -1.78092 0
M  V30 7440 H 704.308 -5.4742 -2.70487 0
M  V30 7441 H 705.722 -5.7156 -0.446302 0
M  V30 7442 H 704.119 -5.99378 0.29437 0
M  V30 7443 H 705.189 -4.75131 0.968447 0
M  V30 7444 O 706.571 -0.309557 -1.58506 0
M  V30 7445 H 707.262 0.253272 -1.92037 0
M  V30 END ATOM
M  V30 BEGIN BOND
M  V30 END BOND
M  V30 END CTAB
M  END
$$$$
