drugbank_drug|DB00005  Etanercept Sequence
 OpenBabel12092119123D

  0  0  0     0  0            999 V3000
M  V30 BEGIN CTAB
M  V30 COUNTS 7051 7150 0 0 0
M  V30 BEGIN ATOM
M  V30 1 H -0.908 1.98254 -0.117106 0
M  V30 2 N 0 1.576 0 0
M  V30 3 C 0.93 2.11458 0.990341 0
M  V30 4 C 1.911 1.02372 1.35845 0
M  V30 5 O 3.096 1.30055 1.4422 0
M  V30 6 C 0.226 2.61788 2.2822 0
M  V30 7 C -0.82 3.754 2.0557 0
M  V30 8 C -1.494 4.12045 3.40769 0
M  V30 9 C -0.194 5.02675 1.41829 0
M  V30 10 H 1.5 2.94455 0.541905 0
M  V30 11 H -0.954 1.41648 0.259219 0
M  V30 12 H 0.999 2.98093 2.97856 0
M  V30 13 H -0.277 1.75913 2.75177 0
M  V30 14 H -1.618 3.39488 1.38359 0
M  V30 15 H -1.97 3.23193 3.85429 0
M  V30 16 H -2.27 4.88587 3.26429 0
M  V30 17 H -0.746 4.50909 4.1172 0
M  V30 18 H 0.668 5.36751 2.01422 0
M  V30 19 H -0.935 5.84022 1.37978 0
M  V30 20 H 0.135 4.83349 0.387506 0
M  V30 21 N 1.4781 -0.272755 1.55222 0
M  V30 22 C 2.8891 -0.84378 1.66545 0
M  V30 23 C 3.2401 -1.87035 0.592641 0
M  V30 24 O 2.3651 -2.14761 -0.265818 0
M  V30 25 C 2.9601 -1.53723 3.01918 0
M  V30 26 C 1.5191 -2.05628 3.15268 0
M  V30 27 C 0.6661 -0.898424 2.62343 0
M  V30 28 H 3.6171 -0.0490998 1.58624 0
M  V30 29 H 3.6381 -2.40421 2.94921 0
M  V30 30 H 3.1501 -0.78983 3.79978 0
M  V30 31 H 1.2511 -2.83329 2.41983 0
M  V30 32 H 1.3641 -2.27142 4.21833 0
M  V30 33 H -0.2719 -1.29186 2.19506 0
M  V30 34 H 0.5111 -0.164528 3.42906 0
M  V30 35 N 2.9562 -1.48159 -0.537278 0
M  V30 36 C 3.9192 -1.61665 -1.62472 0
M  V30 37 C 4.9192 -0.490395 -1.5314 0
M  V30 38 O 6.1092 -0.755998 -1.5694 0
M  V30 39 C 3.2412 -1.57997 -3.02076 0
M  V30 40 H 4.4342 -2.58621 -1.51839 0
M  V30 41 H 1.9872 -1.36647 -0.758771 0
M  V30 42 H 2.7222 -0.624913 -3.18222 0
M  V30 43 H 2.5072 -2.39755 -3.10258 0
M  V30 44 H 3.9972 -1.70627 -3.81151 0
M  V30 45 N 4.4343 0.785586 -1.36625 0
M  V30 46 C 5.3663 1.90711 -1.2713 0
M  V30 47 C 6.3793 1.61688 -0.189986 0
M  V30 48 O 7.5683 1.72864 -0.445014 0
M  V30 49 C 4.6683 3.25611 -0.939713 0
M  V30 50 C 3.8413 3.82385 -2.12369 0
M  V30 51 C 2.9003 4.95732 -1.76456 0
M  V30 52 O 1.9263 5.12047 -2.48589 0
M  V30 53 N 3.1283 5.76258 -0.700492 0
M  V30 54 H 5.8933 1.99376 -2.23762 0
M  V30 55 H 3.4543 0.964041 -1.30069 0
M  V30 56 H 5.4463 3.98937 -0.680554 0
M  V30 57 H 4.0163 3.12538 -0.0624074 0
M  V30 58 H 3.2363 3.01001 -2.54543 0
M  V30 59 H 4.5243 4.17047 -2.9146 0
M  V30 60 H 3.9223 5.65609 -0.101624 0
M  V30 61 H 2.4793 6.4987 -0.501165 0
M  V30 62 N 5.9124 1.20967 1.01018 0
M  V30 63 C 7.1584 1.02526 1.74975 0
M  V30 64 C 7.4914 -0.4408 1.89131 0
M  V30 65 O 6.7664 -1.32718 1.42184 0
M  V30 66 C 7.0494 1.71699 3.1653 0
M  V30 67 C 6.9024 3.25791 3.10129 0
M  V30 68 C 8.2214 1.45531 4.15342 0
M  V30 69 H 5.3404 0.373863 0.635134 0
M  V30 70 H 7.9824 1.49071 1.17805 0
M  V30 71 H 6.1324 1.32128 3.65341 0
M  V30 72 H 7.8044 3.74697 2.69072 0
M  V30 73 H 6.0474 3.56363 2.47362 0
M  V30 74 H 6.7184 3.69353 4.10222 0
M  V30 75 H 9.1944 1.79872 3.75213 0
M  V30 76 H 8.0704 1.96453 5.1254 0
M  V30 77 H 8.3314 0.384237 4.40427 0
M  V30 78 N 7.3905 -1.2043 1.01659 0
M  V30 79 C 8.3535 -2.21433 0.591616 0
M  V30 80 C 9.3535 -1.57203 -0.338226 0
M  V30 81 O 10.5435 -1.73737 -0.126918 0
M  V30 82 C 7.6755 -3.40628 -0.136058 0
M  V30 83 H 8.8685 -2.60545 1.48514 0
M  V30 84 H 6.4215 -1.33893 0.806379 0
M  V30 85 H 7.1565 -3.07019 -1.04449 0
M  V30 86 H 6.9415 -3.88475 0.531917 0
M  V30 87 H 8.4315 -4.15475 -0.420735 0
M  V30 88 N 8.8686 -0.792821 -1.36206 0
M  V30 89 C 10.1156 -0.366786 -1.99151 0
M  V30 90 C 10.4436 1.06243 -1.62919 0
M  V30 91 O 9.6986 1.74927 -0.877442 0
M  V30 92 C 9.9976 -0.481501 -3.54142 0
M  V30 93 C 9.6636 -1.87202 -4.10203 0
M  V30 94 C 8.3256 -2.25248 -4.25226 0
M  V30 95 C 10.6776 -2.78237 -4.40719 0
M  V30 96 C 8.0056 -3.53723 -4.68078 0
M  V30 97 C 10.3576 -4.06144 -4.85005 0
M  V30 98 C 9.0216 -4.44207 -4.98234 0
M  V30 99 H 8.2916 -0.134217 -0.728743 0
M  V30 100 H 10.9386 -1.01094 -1.62641 0
M  V30 101 H 9.2436 0.246146 -3.91026 0
M  V30 102 H 10.9406 -0.132844 -4.0078 0
M  V30 103 H 7.5306 -1.56639 -3.98951 0
M  V30 104 H 11.7146 -2.50097 -4.28679 0
M  V30 105 H 6.9706 -3.8308 -4.76508 0
M  V30 106 H 11.1446 -4.76796 -5.07581 0
M  V30 107 H 8.7716 -5.43814 -5.31197 0
M  V30 108 N 10.3467 1.47872 -0.545128 0
M  V30 109 C 11.5747 2.06889 -0.021084 0
M  V30 110 C 11.9897 1.39955 1.2672 0
M  V30 111 O 11.3467 0.492036 1.75742 0
M  V30 112 C 11.3977 3.60996 0.190817 0
M  V30 113 O 11.1187 4.25419 -1.04644 0
M  V30 114 C 12.6197 4.36849 0.753521 0
M  V30 115 H 9.8397 0.669785 -0.0403635 0
M  V30 116 H 12.3837 1.90049 -0.755095 0
M  V30 117 H 10.5387 3.77391 0.87492 0
M  V30 118 H 10.9527 5.17785 -0.836611 0
M  V30 119 H 12.4267 5.45399 0.851139 0
M  V30 120 H 12.9037 4.02306 1.762 0
M  V30 121 H 13.5097 4.25169 0.105503 0
M  V30 122 N 11.8248 0.280983 1.55075 0
M  V30 123 C 13.2358 -0.215629 1.85451 0
M  V30 124 C 13.5868 -1.54991 1.203 0
M  V30 125 O 12.7118 -2.10699 0.493435 0
M  V30 126 C 13.3068 -0.398026 3.36454 0
M  V30 127 C 11.8658 -0.838866 3.66933 0
M  V30 128 C 11.0128 0.064458 2.77225 0
M  V30 129 H 13.9638 0.502601 1.50531 0
M  V30 130 H 13.9848 -1.23569 3.59876 0
M  V30 131 H 13.4968 0.573241 3.83843 0
M  V30 132 H 11.5978 -1.8214 3.25048 0
M  V30 133 H 11.7108 -0.672123 4.74362 0
M  V30 134 H 10.0748 -0.452863 2.50642 0
M  V30 135 H 10.8578 1.03172 3.2743 0
M  V30 136 N 13.3029 -1.57598 0.00835791 0
M  V30 137 C 14.5329 -1.94931 -0.684496 0
M  V30 138 C 14.9409 -0.882233 -1.67372 0
M  V30 139 O 14.2839 0.146621 -1.83114 0
M  V30 140 C 14.3459 -3.283 -1.4649 0
M  V30 141 C 14.0099 -4.52548 -0.63634 0
M  V30 142 C 15.0069 -5.19839 0.0795586 0
M  V30 143 C 12.6919 -4.98942 -0.579849 0
M  V30 144 C 14.6859 -6.3183 0.840843 0
M  V30 145 C 12.3729 -6.10819 0.185155 0
M  V30 146 C 13.3709 -6.77121 0.894227 0
M  V30 147 O 13.0589 -7.86853 1.64673 0
M  V30 148 H 12.7909 -0.647249 -0.19505 0
M  V30 149 H 15.3449 -2.05318 0.0581272 0
M  V30 150 H 13.5749 -3.14345 -2.2522 0
M  V30 151 H 15.2639 -3.50685 -2.04389 0
M  V30 152 H 16.0299 -4.84979 0.0451202 0
M  V30 153 H 11.9089 -4.47155 -1.1213 0
M  V30 154 H 15.4529 -6.83513 1.39483 0
M  V30 155 H 11.3499 -6.4512 0.221384 0
M  V30 156 H 12.1179 -8.03412 1.56432 0
M  V30 157 N 14.781 0.264519 -1.55364 0
M  V30 158 C 15.744 1.31046 -1.88042 0
M  V30 159 C 16.744 1.41943 -0.755569 0
M  V30 160 O 17.934 1.40947 -1.02369 0
M  V30 161 C 15.066 2.69067 -2.09323 0
M  V30 162 H 16.259 1.03297 -2.81549 0
M  V30 163 H 13.812 0.502989 -1.47986 0
M  V30 164 H 14.547 3.01982 -1.18226 0
M  V30 165 H 14.332 2.62542 -2.91229 0
M  V30 166 H 15.822 3.44623 -2.35848 0
M  V30 167 N 16.2591 1.48442 0.529413 0
M  V30 168 C 17.6701 1.5002 1.11134 0
M  V30 169 C 18.0211 0.27031 1.94329 0
M  V30 170 O 17.1461 -0.622507 2.07253 0
M  V30 171 C 17.7411 2.71834 2.02217 0
M  V30 172 C 16.3001 2.76283 2.55627 0
M  V30 173 C 15.4471 2.43542 1.326 0
M  V30 174 H 18.3981 1.5555 0.314641 0
M  V30 175 H 18.4191 2.50384 2.8651 0
M  V30 176 H 17.9311 3.61331 1.41639 0
M  V30 177 H 16.0321 1.90995 3.19924 0
M  V30 178 H 16.1451 3.77725 2.94721 0
M  V30 179 H 14.5091 1.94709 1.64196 0
M  V30 180 H 15.2921 3.3528 0.737734 0
M  V30 181 N 17.7372 -0.778329 1.37039 0
M  V30 182 C 18.6472 -1.92253 1.34446 0
M  V30 183 C 19.6632 -1.72267 0.244991 0
M  V30 184 O 20.8392 -1.95615 0.479258 0
M  V30 185 C 17.9042 -3.27282 1.144 0
M  V30 186 C 16.9652 -3.59969 2.33925 0
M  V30 187 C 16.1982 -4.88555 2.14825 0
M  V30 188 O 16.4212 -5.59113 1.12912 0
M  V30 189 O 15.3552 -5.20153 3.02861 0
M  V30 190 H 19.1812 -1.97392 2.30803 0
M  V30 191 H 16.7662 -0.920154 1.17701 0
M  V30 192 H 18.6482 -4.08062 1.05182 0
M  V30 193 H 17.3232 -3.23011 0.211124 0
M  V30 194 H 16.2302 -2.7945 2.48714 0
M  V30 195 H 17.5632 -3.68976 3.25757 0
M  V30 196 N 19.2153 -1.21501 -1.00376 0
M  V30 197 C 20.6263 -1.03146 -1.55621 0
M  V30 198 C 20.9773 0.408375 -1.91903 0
M  V30 199 O 20.1023 1.29177 -1.73616 0
M  V30 200 C 20.6973 -1.86612 -2.82775 0
M  V30 201 C 19.2563 -1.72586 -3.34501 0
M  V30 202 C 18.4033 -1.83747 -2.07683 0
M  V30 203 H 21.3543 -1.35505 -0.826081 0
M  V30 204 H 21.3753 -1.3771 -3.54706 0
M  V30 205 H 20.8873 -2.91399 -2.56336 0
M  V30 206 H 18.9883 -0.704877 -3.65872 0
M  V30 207 H 19.1013 -2.54623 -4.05837 0
M  V30 208 H 17.4653 -1.27069 -2.20739 0
M  V30 209 H 18.2483 -2.90044 -1.83655 0
M  V30 210 N 20.6934 1.19889 -1.02296 0
M  V30 211 C 21.9414 1.89046 -0.714558 0
M  V30 212 C 22.2624 1.79636 0.758681 0
M  V30 213 O 21.5324 1.20292 1.54618 0
M  V30 214 H 20.1124 0.699802 -0.261317 0
M  V30 215 H 22.7744 1.45574 -1.29592 0
M  V30 216 H 21.8704 2.95524 -1.0036 0
M  V30 217 N 22.1715 0.800033 1.35784 0
M  V30 218 C 23.3965 0.388511 2.03729 0
M  V30 219 C 23.8215 -0.990481 1.5991 0
M  V30 220 O 23.1795 -1.64013 0.772612 0
M  V30 221 C 23.2275 0.4726 3.5749 0
M  V30 222 O 22.3315 -0.51646 4.09153 0
M  V30 223 H 21.6725 0.163271 0.643614 0
M  V30 224 H 24.2025 1.0841 1.73518 0
M  V30 225 H 24.2125 0.34003 4.06581 0
M  V30 226 H 22.8875 1.47848 3.88734 0
M  V30 227 H 21.4645 -0.344673 3.71304 0
M  V30 228 N 23.6496 -1.47581 0.552962 0
M  V30 229 C 24.8776 -2.06875 0.0320556 0
M  V30 230 C 25.2926 -1.40625 -1.25976 0
M  V30 231 O 24.6496 -0.501349 -1.75479 0
M  V30 232 C 24.7006 -3.61092 -0.17167 0
M  V30 233 O 24.4216 -4.24858 1.06899 0
M  V30 234 C 25.9226 -4.37242 -0.730344 0
M  V30 235 H 23.1426 -0.669561 0.043915 0
M  V30 236 H 25.6866 -1.89646 0.765163 0
M  V30 237 H 23.8416 -3.7785 -0.854894 0
M  V30 238 H 24.2556 -5.17334 0.864059 0
M  V30 239 H 25.7296 -5.45842 -0.822203 0
M  V30 240 H 26.2066 -4.03235 -1.74064 0
M  V30 241 H 26.8126 -4.25219 -0.0829543 0
M  V30 242 N 25.1277 -0.289203 -1.54924 0
M  V30 243 C 26.3677 0.324536 -2.01807 0
M  V30 244 C 26.7317 1.5199 -1.17316 0
M  V30 245 O 27.9327 2.20422 -1.53843 0
M  V30 246 C 26.2037 0.683578 -3.50802 0
M  V30 247 S 27.7627 1.28185 -4.19659 0
M  V30 248 H 24.5807 0.100236 -0.703899 0
M  V30 249 H 27.1827 -0.414325 -1.91059 0
M  V30 250 H 25.8867 -0.195073 -4.09936 0
M  V30 251 H 25.4177 1.45354 -3.65562 0
M  V30 252 H 27.4327 2.57006 -4.24456 0
M  V30 253 N 26.6058 1.57591 -0.0167156 0
M  V30 254 C 28.0218 1.55946 0.339557 0
M  V30 255 C 28.2218 1.02109 1.73713 0
M  V30 256 O 27.2778 0.662303 2.43659 0
M  V30 257 C 28.5908 3.00037 0.199499 0
M  V30 258 C 30.1388 3.11805 0.273193 0
M  V30 259 C 30.6138 4.57713 0.162068 0
M  V30 260 N 32.1048 4.6268 0.219444 0
M  V30 261 C 32.8398 5.73185 0.157054 0
M  V30 262 N 32.3358 6.92786 0.0442936 0
M  V30 263 N 34.1288 5.61707 0.21014 0
M  V30 264 H 26.2798 1.90921 -0.930758 0
M  V30 265 H 28.5428 0.877674 -0.358319 0
M  V30 266 H 28.2488 3.4333 -0.76273 0
M  V30 267 H 28.1228 3.64387 0.974786 0
M  V30 268 H 30.5098 2.68433 1.22587 0
M  V30 269 H 30.5908 2.50201 -0.532256 0
M  V30 270 H 30.2348 5.01763 -0.78714 0
M  V30 271 H 30.1648 5.17283 0.986222 0
M  V30 272 H 32.6558 3.76649 0.307246 0
M  V30 273 H 32.9688 7.728 0.00304069 0
M  V30 274 H 31.3138 6.94999 0.00968457 0
M  V30 275 H 34.5048 4.6716 0.296546 0
M  V30 276 H 34.6778 6.47807 0.158054 0
M  V30 277 N 28.0839 -0.256276 1.55502 0
M  V30 278 C 29.0139 -1.32102 1.92539 0
M  V30 279 C 29.9949 -1.50684 0.789194 0
M  V30 280 O 31.1799 -1.63449 1.04872 0
M  V30 281 C 28.3099 -2.67752 2.21192 0
M  V30 282 C 27.2639 -2.63878 3.36975 0
M  V30 283 C 26.5899 -4.03236 3.51147 0
M  V30 284 C 27.8899 -2.21682 4.72921 0
M  V30 285 H 29.5839 -1.01351 2.81724 0
M  V30 286 H 27.1299 -0.486105 1.35547 0
M  V30 287 H 29.0829 -3.42365 2.45691 0
M  V30 288 H 27.8069 -3.0012 1.28824 0
M  V30 289 H 26.4659 -1.91722 3.12471 0
M  V30 290 H 26.1139 -4.32854 2.56216 0
M  V30 291 H 25.8139 -4.01535 4.29003 0
M  V30 292 H 27.3379 -4.79563 3.77957 0
M  V30 293 H 28.7519 -2.86023 4.96854 0
M  V30 294 H 27.1489 -2.3111 5.53812 0
M  V30 295 H 28.2189 -1.16833 4.70615 0
M  V30 296 N 29.562 -1.4872 -0.521534 0
M  V30 297 C 30.978 -1.35028 -0.850855 0
M  V30 298 C 31.178 -0.367712 -1.98116 0
M  V30 299 O 30.234 0.208037 -2.51642 0
M  V30 300 C 31.547 -2.75263 -1.21041 0
M  V30 301 C 33.095 -2.83813 -1.31981 0
M  V30 302 C 33.57 -4.24769 -1.71276 0
M  V30 303 N 35.061 -4.27482 -1.78363 0
M  V30 304 C 35.796 -5.33494 -2.1017 0
M  V30 305 N 35.292 -6.49775 -2.40343 0
M  V30 306 N 37.085 -5.20894 -2.11248 0
M  V30 307 H 29.236 -2.11214 0.22413 0
M  V30 308 H 31.499 -0.947252 0.0376439 0
M  V30 309 H 31.205 -3.48765 -0.453415 0
M  V30 310 H 31.079 -3.09327 -2.15863 0
M  V30 311 H 33.466 -2.10561 -2.06756 0
M  V30 312 H 33.547 -2.53358 -0.352596 0
M  V30 313 H 33.191 -4.9854 -0.970588 0
M  V30 314 H 33.121 -4.52673 -2.69062 0
M  V30 315 H 35.612 -3.43611 -1.57288 0
M  V30 316 H 35.925 -7.26402 -2.63743 0
M  V30 317 H 34.27 -6.53035 -2.37844 0
M  V30 318 H 37.461 -4.29065 -1.87139 0
M  V30 319 H 37.634 -6.03612 -2.35704 0
M  V30 320 N 31.0401 0.771051 -1.3745 0
M  V30 321 C 31.9501 1.91538 -1.35464 0
M  V30 322 C 32.9661 1.72134 -0.254123 0
M  V30 323 O 34.1421 1.95358 -0.489626 0
M  V30 324 C 31.2071 3.26671 -1.16134 0
M  V30 325 C 30.2681 3.58723 -2.35831 0
M  V30 326 C 29.5011 4.87409 -2.17413 0
M  V30 327 O 29.7241 5.58506 -1.15876 0
M  V30 328 O 28.6581 5.18539 -3.05615 0
M  V30 329 H 32.4841 1.96165 -2.31847 0
M  V30 330 H 30.0691 0.9139 -1.18187 0
M  V30 331 H 31.9511 4.07499 -1.07345 0
M  V30 332 H 30.6261 3.22894 -0.228251 0
M  V30 333 H 29.5331 2.78127 -2.50192 0
M  V30 334 H 30.8661 3.67243 -3.27709 0
M  V30 335 N 32.5182 1.22032 0.997298 0
M  V30 336 C 33.7482 1.06686 1.76923 0
M  V30 337 C 34.1562 -0.385838 1.85224 0
M  V30 338 O 33.4992 -1.27929 1.31833 0
M  V30 339 C 33.5612 1.59802 3.22031 0
M  V30 340 C 33.2252 3.08362 3.37286 0
M  V30 341 C 34.2222 4.05835 3.24952 0
M  V30 342 C 31.9072 3.47727 3.6248 0
M  V30 343 C 33.9012 5.4066 3.37588 0
M  V30 344 C 31.5882 4.82701 3.74757 0
M  V30 345 C 32.5862 5.78977 3.62319 0
M  V30 346 O 32.2742 7.11502 3.74193 0
M  V30 347 H 32.0062 0.374767 0.562606 0
M  V30 348 H 34.5602 1.61991 1.26286 0
M  V30 349 H 32.7902 0.989003 3.73839 0
M  V30 350 H 34.4792 1.40184 3.80924 0
M  V30 351 H 35.2452 3.76766 3.05405 0
M  V30 352 H 31.1242 2.73317 3.7124 0
M  V30 353 H 34.6682 6.15788 3.27796 0
M  V30 354 H 30.5652 5.11453 3.9381 0
M  V30 355 H 31.3332 7.19019 3.91093 0
M  V30 356 N 33.9963 -1.19345 1.0293 0
M  V30 357 C 35.2263 -1.92717 0.744563 0
M  V30 358 C 35.6343 -1.75751 -0.700579 0
M  V30 359 O 34.9773 -1.07703 -1.48815 0
M  V30 360 C 35.0393 -3.44828 1.01657 0
M  V30 361 C 34.7033 -3.85564 2.45335 0
M  V30 362 C 35.7003 -3.90286 3.43472 0
M  V30 363 C 33.3853 -4.1719 2.79746 0
M  V30 364 C 35.3793 -4.26065 4.74075 0
M  V30 365 C 33.0663 -4.52642 4.10559 0
M  V30 366 C 34.0643 -4.57054 5.07534 0
M  V30 367 O 33.7523 -4.91685 6.36004 0
M  V30 368 H 33.4843 -0.618977 0.271742 0
M  V30 369 H 36.0383 -1.52415 1.37691 0
M  V30 370 H 34.2683 -3.85314 0.327084 0
M  V30 371 H 35.9573 -3.99437 0.721427 0
M  V30 372 H 36.7233 -3.66002 3.18225 0
M  V30 373 H 32.6023 -4.1294 2.04943 0
M  V30 374 H 36.1463 -4.29423 5.49765 0
M  V30 375 H 32.0433 -4.76383 4.35579 0
M  V30 376 H 32.8113 -5.09631 6.40483 0
M  V30 377 N 35.4744 -0.807222 -1.35358 0
M  V30 378 C 36.7514 -0.311126 -1.9311 0
M  V30 379 C 37.1314 1.19937 -1.73719 0
M  V30 380 O 36.4794 1.99918 -1.10657 0
M  V30 381 C 36.6894 -0.723226 -3.41424 0
M  V30 382 C 38.0374 -0.713078 -4.18569 0
M  V30 383 O 39.0614 -0.664811 -3.49941 0
M  V30 384 O 37.9204 -0.772022 -5.41019 0
M  V30 385 H 35.0144 -0.081526 -0.822972 0
M  V30 386 H 37.5604 -0.890962 -1.4443 0
M  V30 387 H 36.3324 -1.76426 -3.4927 0
M  V30 388 H 35.9554 -0.118232 -3.97424 0
M  V30 389 N 36.9525 1.47285 -0.560781 0
M  V30 390 C 37.8845 2.28118 0.222438 0
M  V30 391 C 38.8975 1.37219 0.876056 0
M  V30 392 O 40.0865 1.62011 0.749307 0
M  V30 393 C 37.1865 3.1159 1.33285 0
M  V30 394 C 36.3595 4.30473 0.77534 0
M  V30 395 C 35.4185 4.95513 1.77069 0
M  V30 396 O 34.4445 5.53792 1.31539 0
M  V30 397 N 35.6465 4.90531 3.10418 0
M  V30 398 H 38.4115 2.95976 -0.470958 0
M  V30 399 H 35.9725 1.56955 -0.39709 0
M  V30 400 H 37.9645 3.51967 1.99752 0
M  V30 401 H 36.5345 2.45951 1.92943 0
M  V30 402 H 35.7545 3.94144 -0.0662113 0
M  V30 403 H 37.0425 5.07362 0.382272 0
M  V30 404 H 36.4405 4.44389 3.5005 0
M  V30 405 H 34.9975 5.34917 3.72434 0
M  V30 406 N 38.4306 0.297415 1.54768 0
M  V30 407 C 39.6586 -0.315623 2.04478 0
M  V30 408 C 40.0736 -1.47792 1.17486 0
M  V30 409 O 39.4306 -1.81404 0.19971 0
M  V30 410 C 39.4816 -0.7753 3.53088 0
M  V30 411 O 39.2026 0.340732 4.36773 0
M  V30 412 C 40.7036 -1.45386 4.18781 0
M  V30 413 H 37.9236 -0.0690887 0.667434 0
M  V30 414 H 40.4676 0.436003 1.99798 0
M  V30 415 H 38.6226 -1.47696 3.58141 0
M  V30 416 H 39.0366 -0.0165035 5.24497 0
M  V30 417 H 40.5106 -1.72669 5.24299 0
M  V30 418 H 40.9876 -2.39275 3.68299 0
M  V30 419 H 41.5936 -0.795475 4.17795 0
M  V30 420 N 39.9087 -1.5758 0.0250728 0
M  V30 421 C 40.8717 -2.08896 -0.943139 0
M  V30 422 C 41.8717 -1.00321 -1.25668 0
M  V30 423 O 43.0617 -1.26495 -1.19769 0
M  V30 424 C 40.1937 -2.55143 -2.26086 0
M  V30 425 H 41.3867 -2.95723 -0.498775 0
M  V30 426 H 38.9397 -1.54703 -0.222888 0
M  V30 427 H 39.6747 -1.71633 -2.75159 0
M  V30 428 H 39.4597 -3.34461 -2.04641 0
M  V30 429 H 40.9497 -2.95083 -2.95492 0
M  V30 430 N 41.3868 0.248026 -1.55636 0
M  V30 431 C 42.3188 1.32993 -1.8667 0
M  V30 432 C 43.3318 1.44345 -0.752877 0
M  V30 433 O 44.5208 1.45715 -1.03098 0
M  V30 434 C 41.6208 2.70863 -2.03682 0
M  V30 435 C 40.7938 2.81792 -3.34532 0
M  V30 436 C 39.8528 4.005 -3.41301 0
M  V30 437 O 38.8788 3.9008 -4.14519 0
M  V30 438 N 40.0808 5.13618 -2.70512 0
M  V30 439 H 42.8458 1.06707 -2.8006 0
M  V30 440 H 40.4068 0.438129 -1.55859 0
M  V30 441 H 42.3988 3.48612 -2.05553 0
M  V30 442 H 40.9688 2.89862 -1.17041 0
M  V30 443 H 40.1888 1.90729 -3.44987 0
M  V30 444 H 41.4768 2.86043 -4.20781 0
M  V30 445 H 40.8748 5.24975 -2.10755 0
M  V30 446 H 39.4318 5.89505 -2.78077 0
M  V30 447 N 42.8649 1.48995 0.513639 0
M  V30 448 C 43.7979 1.59319 1.63379 0
M  V30 449 C 44.7759 0.442816 1.56454 0
M  V30 450 O 45.9599 0.656655 1.76693 0
M  V30 451 C 43.0869 1.5364 3.01848 0
M  V30 452 C 42.1329 2.7372 3.27078 0
M  V30 453 S 42.9659 4.35528 3.1157 0
M  V30 454 C 44.1219 4.32473 4.52458 0
M  V30 455 H 44.3549 2.54079 1.54374 0
M  V30 456 H 41.8879 1.3773 0.697849 0
M  V30 457 H 43.8459 1.51049 3.81699 0
M  V30 458 H 42.5069 0.601898 3.08279 0
M  V30 459 H 41.6999 2.6593 4.28132 0
M  V30 460 H 41.3019 2.73657 2.54927 0
M  V30 461 H 43.5939 4.03414 5.44301 0
M  V30 462 H 44.5369 5.33762 4.65299 0
M  V30 463 H 44.9449 3.62718 4.32546 0
M  V30 464 N 44.343 -0.763751 1.37857 0
M  V30 465 C 45.583 -1.53551 1.34913 0
M  V30 466 C 45.947 -1.91895 -0.0635882 0
M  V30 467 O 47.148 -2.67916 -0.217825 0
M  V30 468 C 45.419 -2.76126 2.26912 0
M  V30 469 S 46.978 -3.66105 2.41893 0
M  V30 470 H 43.796 -0.52559 0.478828 0
M  V30 471 H 46.398 -0.897435 1.73685 0
M  V30 472 H 45.102 -2.4605 3.28463 0
M  V30 473 H 44.633 -3.44887 1.89253 0
M  V30 474 H 46.648 -4.68473 1.63545 0
M  V30 475 N 45.8211 -1.22559 -0.990812 0
M  V30 476 C 47.0611 -1.06302 -1.74583 0
M  V30 477 C 47.4251 0.394737 -1.87898 0
M  V30 478 O 48.6261 0.678214 -2.60103 0
M  V30 479 C 46.8971 -1.75699 -3.11231 0
M  V30 480 S 48.4561 -1.74882 -4.02445 0
M  V30 481 H 45.2741 -0.380639 -0.600529 0
M  V30 482 H 47.8761 -1.55532 -1.18449 0
M  V30 483 H 46.5801 -2.80923 -2.99183 0
M  V30 484 H 46.1111 -1.26708 -3.72436 0
M  V30 485 H 48.1261 -0.799997 -4.89709 0
M  V30 486 N 47.2992 1.18797 -1.03562 0
M  V30 487 C 48.5242 1.9314 -0.755764 0
M  V30 488 C 48.9492 1.7537 0.68022 0
M  V30 489 O 48.3072 1.06046 1.47051 0
M  V30 490 C 48.3552 3.42747 -1.12058 0
M  V30 491 O 47.4592 4.11683 -0.243124 0
M  V30 492 H 46.8002 0.602724 -0.278604 0
M  V30 493 H 49.3302 1.50678 -1.3841 0
M  V30 494 H 49.3402 3.93437 -1.08035 0
M  V30 495 H 48.0152 3.55002 -2.16672 0
M  V30 496 H 46.5922 3.71323 -0.342539 0
M  V30 497 N 48.7773 0.814389 1.34928 0
M  V30 498 C 49.7243 0.22822 2.29669 0
M  V30 499 C 50.6943 -0.642164 1.53184 0
M  V30 500 O 51.8793 -0.585605 1.81591 0
M  V30 501 C 49.0193 -0.61089 3.3965 0
M  V30 502 C 48.1323 0.280792 4.31086 0
M  V30 503 C 47.2673 -0.567067 5.28165 0
M  V30 504 C 46.3063 0.324531 6.11239 0
M  V30 505 N 45.4433 -0.483756 7.00431 0
M  V30 506 H 50.2833 1.04153 2.79206 0
M  V30 507 H 47.8203 0.525133 1.37407 0
M  V30 508 H 49.7783 -1.11263 4.0209 0
M  V30 509 H 48.4083 -1.38939 2.91369 0
M  V30 510 H 47.4603 0.900688 3.69583 0
M  V30 511 H 48.7723 0.966723 4.89342 0
M  V30 512 H 47.9263 -1.13363 5.96015 0
M  V30 513 H 46.6653 -1.28654 4.70425 0
M  V30 514 H 45.6703 0.903298 5.42329 0
M  V30 515 H 46.8953 1.04198 6.71059 0
M  V30 516 H 44.8413 -1.18706 6.45171 0
M  V30 517 H 44.7583 0.143965 7.55863 0
M  V30 518 H 46.0263 -1.03334 7.7262 0
M  V30 519 N 50.2554 -1.46986 0.568584 0
M  V30 520 C 51.4954 -2.04336 0.0512999 0
M  V30 521 C 51.8594 -1.43214 -1.27881 0
M  V30 522 O 53.0604 -1.91679 -1.88448 0
M  V30 523 C 51.3314 -3.57389 -0.0282328 0
M  V30 524 S 52.8904 -4.36056 -0.489991 0
M  V30 525 H 49.7084 -0.71034 0.0306349 0
M  V30 526 H 52.3104 -1.80212 0.757891 0
M  V30 527 H 51.0144 -3.99395 0.944011 0
M  V30 528 H 50.5454 -3.86028 -0.75803 0
M  V30 529 H 52.5604 -4.6441 -1.74752 0
M  V30 530 N 51.7335 -0.305618 -1.54608 0
M  V30 531 C 52.9585 0.307562 -2.05107 0
M  V30 532 C 53.3835 1.46385 -1.18123 0
M  V30 533 O 52.7415 1.8034 -0.186324 0
M  V30 534 C 52.7895 0.73704 -3.52987 0
M  V30 535 O 51.8935 1.84134 -3.6901 0
M  V30 536 H 51.2345 0.0589143 -0.661381 0
M  V30 537 H 53.7645 -0.448807 -1.99617 0
M  V30 538 H 53.7745 1.02459 -3.94925 0
M  V30 539 H 52.4495 -0.108773 -4.15758 0
M  V30 540 H 51.0265 1.55398 -3.38978 0
M  V30 541 N 53.2116 1.57565 -0.0334293 0
M  V30 542 C 54.6226 1.79746 0.504798 0
M  V30 543 C 54.9736 0.944091 1.71992 0
M  V30 544 O 54.0986 0.155694 2.15839 0
M  V30 545 C 54.6936 3.25997 0.922567 0
M  V30 546 C 53.2526 3.49159 1.40588 0
M  V30 547 C 52.3996 2.74785 0.372633 0
M  V30 548 H 55.3506 1.56565 -0.259436 0
M  V30 549 H 55.3716 3.35945 1.78666 0
M  V30 550 H 54.8836 3.88081 0.0379825 0
M  V30 551 H 52.9846 2.92332 2.31025 0
M  V30 552 H 53.0976 4.57873 1.41028 0
M  V30 553 H 51.4616 2.40391 0.841672 0
M  V30 554 H 52.2446 3.39587 -0.503559 0
M  V30 555 N 54.6897 -0.239769 1.55765 0
M  V30 556 C 55.9377 -0.964892 1.77579 0
M  V30 557 C 56.2587 -1.85582 0.598699 0
M  V30 558 O 55.5287 -1.92075 -0.385226 0
M  V30 559 H 54.1087 -0.359265 0.654933 0
M  V30 560 H 56.7707 -0.256001 1.93211 0
M  V30 561 H 55.8667 -1.58243 2.69009 0
M  V30 562 N 56.1678 -1.49265 -0.50573 0
M  V30 563 C 57.0998 -1.617 -1.62437 0
M  V30 564 C 58.1128 -0.499924 -1.54934 0
M  V30 565 O 59.3018 -0.771785 -1.60953 0
M  V30 566 C 56.4018 -1.5533 -3.01207 0
M  V30 567 C 55.5748 -2.8249 -3.33943 0
M  V30 568 C 54.6338 -2.69238 -4.52103 0
M  V30 569 O 53.6598 -3.43167 -4.5412 0
M  V30 570 N 54.8618 -1.80468 -5.51735 0
M  V30 571 H 57.6268 -2.58177 -1.52199 0
M  V30 572 H 55.1878 -1.46294 -0.693511 0
M  V30 573 H 57.1798 -1.44125 -3.78167 0
M  V30 574 H 55.7498 -0.667297 -3.05395 0
M  V30 575 H 54.9698 -3.08081 -2.45926 0
M  V30 576 H 56.2578 -3.66802 -3.5261 0
M  V30 577 H 55.6558 -1.19653 -5.52901 0
M  V30 578 H 54.2128 -1.75188 -6.27816 0
M  V30 579 N 57.6459 0.756429 -1.3826 0
M  V30 580 C 58.5959 1.86069 -1.31766 0
M  V30 581 C 59.5799 1.59621 -0.202483 0
M  V30 582 O 60.7719 1.7149 -0.438211 0
M  V30 583 C 57.9009 3.23742 -1.1422 0
M  V30 584 C 56.9869 3.56091 -2.30348 0
M  V30 585 N 57.3779 3.59517 -3.55783 0
M  V30 586 C 55.6759 3.86341 -2.22838 0
M  V30 587 C 56.3769 3.89052 -4.32451 0
M  V30 588 N 55.3529 4.05736 -3.61772 0
M  V30 589 H 59.1549 1.86992 -2.26741 0
M  V30 590 H 56.6689 0.953643 -1.31451 0
M  V30 591 H 58.6659 4.02761 -1.07652 0
M  V30 592 H 57.3259 3.24073 -0.201763 0
M  V30 593 H 58.3369 3.41347 -3.89491 0
M  V30 594 H 55.0139 3.94404 -1.36937 0
M  V30 595 H 56.4039 3.98349 -5.4108 0
M  V30 596 N 59.124 1.23083 0.984299 0
M  V30 597 C 60.087 1.00979 2.05757 0
M  V30 598 C 61.087 -0.0269573 1.60777 0
M  V30 599 O 62.277 0.212403 1.729 0
M  V30 600 C 59.409 0.527072 3.36801 0
M  V30 601 H 60.602 1.9622 2.26799 0
M  V30 602 H 58.155 1.05072 1.15714 0
M  V30 603 H 58.89 -0.429294 3.21446 0
M  V30 604 H 58.675 1.27515 3.70786 0
M  V30 605 H 60.165 0.392942 4.15747 0
M  V30 606 N 60.6021 -1.18246 1.0419 0
M  V30 607 C 61.5491 -2.2192 0.634037 0
M  V30 608 C 62.5191 -1.62179 -0.358765 0
M  V30 609 O 63.7041 -1.89122 -0.252466 0
M  V30 610 C 60.8441 -3.451 0.00445535 0
M  V30 611 C 59.9571 -4.19174 1.04487 0
M  V30 612 C 59.0921 -5.29813 0.383676 0
M  V30 613 C 58.1311 -5.9566 1.4091 0
M  V30 614 N 57.2681 -6.97834 0.772784 0
M  V30 615 H 62.1081 -2.56164 1.52263 0
M  V30 616 H 59.6451 -1.25843 0.761701 0
M  V30 617 H 61.6031 -4.15485 -0.377919 0
M  V30 618 H 60.2331 -3.11472 -0.847652 0
M  V30 619 H 59.2851 -3.47604 1.54518 0
M  V30 620 H 60.5971 -4.64267 1.82368 0
M  V30 621 H 59.7511 -6.06677 -0.0528366 0
M  V30 622 H 58.4901 -4.85825 -0.427208 0
M  V30 623 H 57.4951 -5.17535 1.85574 0
M  V30 624 H 58.7201 -6.4173 2.22171 0
M  V30 625 H 56.6661 -6.55998 -0.0177708 0
M  V30 626 H 56.5831 -7.41186 1.48928 0
M  V30 627 H 57.8511 -7.78665 0.36071 0
M  V30 628 N 62.0802 -0.821533 -1.34494 0
M  V30 629 C 63.3262 -0.409552 -1.98622 0
M  V30 630 C 63.6592 1.0244 -1.64984 0
M  V30 631 O 62.9342 1.71325 -0.920758 0
M  V30 632 C 63.2172 -0.610458 -3.54888 0
M  V30 633 C 63.0702 -2.09043 -3.98273 0
M  V30 634 C 64.3892 -0.0455379 -4.40076 0
M  V30 635 H 61.5082 -0.15028 -0.721516 0
M  V30 636 H 64.1502 -1.03384 -1.59411 0
M  V30 637 H 62.3002 -0.079044 -3.8842 0
M  V30 638 H 63.9722 -2.68537 -3.75081 0
M  V30 639 H 62.2152 -2.58139 -3.48635 0
M  V30 640 H 62.8862 -2.18182 -5.07051 0
M  V30 641 H 65.3622 -0.499557 -4.1309 0
M  V30 642 H 64.2382 -0.215922 -5.48475 0
M  V30 643 H 64.4992 1.04939 -4.29465 0
M  V30 644 N 63.5583 1.46682 -0.576371 0
M  V30 645 C 64.8053 2.02412 -0.0595339 0
M  V30 646 C 65.1333 1.44859 1.29793 0
M  V30 647 O 64.3883 0.601099 1.8624 0
M  V30 648 C 64.6873 3.57345 0.062886 0
M  V30 649 C 64.3533 4.33908 -1.22616 0
M  V30 650 C 63.0153 4.54544 -1.57933 0
M  V30 651 C 65.3673 4.77919 -2.07948 0
M  V30 652 C 62.6953 5.16444 -2.78393 0
M  V30 653 C 65.0473 5.41149 -3.27629 0
M  V30 654 C 63.7113 5.60014 -3.63236 0
M  V30 655 H 62.9813 0.74068 -0.021785 0
M  V30 656 H 65.6283 1.76128 -0.751735 0
M  V30 657 H 63.9333 3.82729 0.838178 0
M  V30 658 H 65.6303 3.98136 0.478439 0
M  V30 659 H 62.2203 4.18138 -0.941202 0
M  V30 660 H 66.4043 4.61738 -1.81967 0
M  V30 661 H 61.6603 5.29242 -3.06126 0
M  V30 662 H 65.8343 5.74211 -3.94023 0
M  V30 663 H 63.4613 6.07748 -4.56669 0
M  V30 664 N 65.0364 0.313813 1.54444 0
M  V30 665 C 66.2764 -0.292389 2.02298 0
M  V30 666 C 66.6404 -1.50105 1.19719 0
M  V30 667 O 67.8414 -2.17947 1.5733 0
M  V30 668 C 66.1124 -0.627682 3.51845 0
M  V30 669 S 67.6714 -1.21493 4.21646 0
M  V30 670 H 64.4894 -0.0890247 0.705405 0
M  V30 671 H 67.0914 0.444668 1.90376 0
M  V30 672 H 65.7954 0.260265 4.09574 0
M  V30 673 H 65.3264 -1.39519 3.67829 0
M  V30 674 H 67.3414 -2.5022 4.28491 0
M  V30 675 N 66.5145 -1.57545 0.0417849 0
M  V30 676 C 67.7425 -1.96624 -0.643928 0
M  V30 677 C 68.1575 -0.918897 -1.64929 0
M  V30 678 O 67.5145 0.0979323 -1.82237 0
M  V30 679 C 67.5655 -3.35781 -1.33914 0
M  V30 680 O 67.2865 -4.365 -0.374048 0
M  V30 681 C 68.7875 -3.89566 -2.1155 0
M  V30 682 H 66.0075 -0.647316 -0.176702 0
M  V30 683 H 68.5515 -2.04229 0.105304 0
M  V30 684 H 66.7065 -3.29357 -2.03968 0
M  V30 685 H 67.1205 -5.17248 -0.869179 0
M  V30 686 H 68.5945 -4.89242 -2.55628 0
M  V30 687 H 69.0715 -3.24488 -2.9598 0
M  V30 688 H 69.6775 -3.99298 -1.46427 0
M  V30 689 N 67.9926 0.231505 -1.5589 0
M  V30 690 C 68.9396 1.28682 -1.91598 0
M  V30 691 C 69.9096 1.47071 -0.771974 0
M  V30 692 O 71.0946 1.60802 -1.027 0
M  V30 693 C 68.2346 2.6342 -2.22944 0
M  V30 694 C 67.3476 2.52912 -3.50228 0
M  V30 695 C 66.4826 3.80106 -3.7107 0
M  V30 696 C 65.5216 3.64279 -4.91902 0
M  V30 697 N 64.6586 4.834 -5.09184 0
M  V30 698 H 69.4986 0.975305 -2.81588 0
M  V30 699 H 67.0356 0.470299 -1.39379 0
M  V30 700 H 68.9936 3.41869 -2.39126 0
M  V30 701 H 67.6236 2.92687 -1.36139 0
M  V30 702 H 66.6756 1.6595 -3.42294 0
M  V30 703 H 67.9876 2.37133 -4.38827 0
M  V30 704 H 67.1416 4.66999 -3.87295 0
M  V30 705 H 65.8806 3.98799 -2.80733 0
M  V30 706 H 64.8856 2.7577 -4.75637 0
M  V30 707 H 66.1106 3.47067 -5.83714 0
M  V30 708 H 64.0566 5.02425 -4.21788 0
M  V30 709 H 63.9736 4.70311 -5.91898 0
M  V30 710 H 65.2416 5.71747 -5.29835 0
M  V30 711 N 69.4707 1.49531 0.497807 0
M  V30 712 C 70.6987 1.62893 1.27567 0
M  V30 713 C 71.1137 0.301585 1.86376 0
M  V30 714 O 70.4707 -0.713335 1.67982 0
M  V30 715 C 70.5217 2.70013 2.40364 0
M  V30 716 O 70.2427 3.976 1.83972 0
M  V30 717 C 71.7437 2.94109 3.31685 0
M  V30 718 H 68.9637 0.548298 0.386794 0
M  V30 719 H 71.5077 1.95584 0.597245 0
M  V30 720 H 69.6627 2.40092 3.04031 0
M  V30 721 H 70.0767 4.56631 2.58047 0
M  V30 722 H 71.5507 3.72788 4.07104 0
M  V30 723 H 72.0277 2.04147 3.88871 0
M  V30 724 H 72.6337 3.2546 2.73781 0
M  V30 725 N 70.9488 -0.749086 1.3866 0
M  V30 726 C 72.1738 -1.54344 1.38538 0
M  V30 727 C 72.5988 -1.88088 -0.0216655 0
M  V30 728 O 71.9568 -1.50899 -1.00494 0
M  V30 729 C 72.0048 -2.8164 2.25192 0
M  V30 730 O 71.1088 -3.7698 1.67212 0
M  V30 731 H 70.4498 -0.466654 0.472367 0
M  V30 732 H 72.9798 -0.925355 1.82478 0
M  V30 733 H 72.9898 -3.30519 2.3921 0
M  V30 734 H 71.6648 -2.56411 3.27454 0
M  V30 735 H 70.2418 -3.35699 1.6236 0
M  V30 736 N 72.4269 -1.23603 -0.977757 0
M  V30 737 C 73.7039 -0.977897 -1.69401 0
M  V30 738 C 74.0839 0.502738 -2.05026 0
M  V30 739 O 73.4319 1.47459 -1.74551 0
M  V30 740 C 73.6419 -1.89077 -2.93345 0
M  V30 741 C 74.9899 -2.15579 -3.65802 0
M  V30 742 O 76.0139 -1.86648 -3.03383 0
M  V30 743 O 74.8729 -2.64658 -4.78141 0
M  V30 744 H 71.9669 -0.369025 -0.740101 0
M  V30 745 H 74.5129 -1.34657 -1.03274 0
M  V30 746 H 73.2849 -2.89158 -2.63634 0
M  V30 747 H 72.9079 -1.52463 -3.67207 0
M  V30 748 N 73.905 1.17692 -1.04816 0
M  V30 749 C 75.133 1.91786 -0.776254 0
M  V30 750 C 75.548 1.76604 0.667577 0
M  V30 751 O 74.905 1.10067 1.45573 0
M  V30 752 C 74.956 3.42967 -1.14263 0
M  V30 753 O 74.677 3.57678 -2.52978 0
M  V30 754 C 76.178 4.34144 -0.896311 0
M  V30 755 H 73.398 0.608624 -0.282519 0
M  V30 756 H 75.942 1.49268 -1.39783 0
M  V30 757 H 74.097 3.83245 -0.565874 0
M  V30 758 H 74.511 4.51319 -2.67229 0
M  V30 759 H 75.985 5.38744 -1.20244 0
M  V30 760 H 76.462 4.38876 0.168636 0
M  V30 761 H 77.068 3.99574 -1.45672 0
M  V30 762 N 75.3831 0.828654 1.34056 0
M  V30 763 C 76.6291 0.42008 1.98402 0
M  V30 764 C 76.9621 -1.01564 1.65525 0
M  V30 765 O 76.2371 -1.70834 0.929831 0
M  V30 766 C 76.5201 0.62927 3.54559 0
M  V30 767 C 76.3731 2.11152 3.97159 0
M  V30 768 C 77.6921 0.0688756 4.40046 0
M  V30 769 H 74.8111 0.154104 0.720709 0
M  V30 770 H 77.4531 1.04228 1.5886 0
M  V30 771 H 75.6031 0.0996418 3.88372 0
M  V30 772 H 77.2751 2.70522 3.73651 0
M  V30 773 H 75.5181 2.59985 3.47261 0
M  V30 774 H 76.1891 2.20868 5.05887 0
M  V30 775 H 78.6651 0.521458 4.1282 0
M  V30 776 H 77.5411 0.245006 5.48353 0
M  V30 777 H 77.8021 -1.0266 4.30015 0
M  V30 778 N 76.8612 -1.46375 0.584142 0
M  V30 779 C 78.1012 -2.0427 0.0729695 0
M  V30 780 C 78.4652 -1.44563 -1.26355 0
M  V30 781 O 79.6662 -1.93667 -1.86405 0
M  V30 782 C 77.9372 -3.57399 0.00967464 0
M  V30 783 S 79.4962 -4.36551 -0.443714 0
M  V30 784 H 76.3142 -0.709975 0.0381673 0
M  V30 785 H 78.9162 -1.79398 0.776962 0
M  V30 786 H 77.6202 -3.98372 0.986319 0
M  V30 787 H 77.1512 -3.8681 -0.717044 0
M  V30 788 H 79.1662 -4.66237 -1.69816 0
M  V30 789 N 78.3393 -0.321999 -1.54275 0
M  V30 790 C 79.6163 0.335232 -1.92706 0
M  V30 791 C 79.9963 1.70006 -1.25145 0
M  V30 792 O 79.3443 2.25067 -0.394596 0
M  V30 793 C 79.5543 0.429008 -3.46353 0
M  V30 794 C 80.9023 0.690029 -4.18956 0
M  V30 795 O 81.9263 0.511992 -3.52501 0
M  V30 796 O 80.7853 1.03338 -5.36641 0
M  V30 797 H 77.8793 0.191143 -0.804608 0
M  V30 798 H 80.4253 -0.3716 -1.65581 0
M  V30 799 H 79.1973 -0.529611 -3.87699 0
M  V30 800 H 78.8203 1.18348 -3.79578 0
M  V30 801 N 79.8174 1.5752 -0.0501392 0
M  V30 802 C 81.0424 1.97376 0.636997 0
M  V30 803 C 81.4674 0.927466 1.63645 0
M  V30 804 O 80.8254 -0.10941 1.8097 0
M  V30 805 C 80.8734 3.36304 1.30123 0
M  V30 806 O 79.9774 3.34156 2.41689 0
M  V30 807 H 79.3184 0.642998 0.165679 0
M  V30 808 H 81.8484 2.04258 -0.118233 0
M  V30 809 H 81.8584 3.73008 1.65315 0
M  V30 810 H 80.5334 4.11993 0.568746 0
M  V30 811 H 79.1104 3.09196 2.08451 0
M  V30 812 N 81.2955 -0.223234 1.56011 0
M  V30 813 C 82.5355 -0.954962 1.8072 0
M  V30 814 C 82.8995 -1.81598 0.623384 0
M  V30 815 O 84.1005 -2.58132 0.749745 0
M  V30 816 C 82.3715 -1.77313 3.10314 0
M  V30 817 S 83.9305 -2.56073 3.56332 0
M  V30 818 H 80.7485 -0.320812 0.634508 0
M  V30 819 H 83.3505 -0.220686 1.9425 0
M  V30 820 H 82.0545 -1.13071 3.94516 0
M  V30 821 H 81.5855 -2.54974 2.99586 0
M  V30 822 H 83.6005 -3.79619 3.19536 0
M  V30 823 N 82.7736 -1.49793 -0.48987 0
M  V30 824 C 83.6836 -1.70036 -1.61632 0
M  V30 825 C 84.6996 -0.583102 -1.63939 0
M  V30 826 O 85.8756 -0.859169 -1.82154 0
M  V30 827 C 82.9406 -1.77277 -2.97949 0
M  V30 828 C 82.0016 -3.00918 -3.06181 0
M  V30 829 C 81.2346 -3.07804 -4.35996 0
M  V30 830 O 81.4576 -2.21982 -5.25433 0
M  V30 831 O 80.3916 -4.00369 -4.49431 0
M  V30 832 H 84.2176 -2.65486 -1.47482 0
M  V30 833 H 81.8026 -1.33666 -0.667362 0
M  V30 834 H 83.6846 -1.84329 -3.78947 0
M  V30 835 H 82.3596 -0.850076 -3.12339 0
M  V30 836 H 81.2666 -2.99377 -2.2433 0
M  V30 837 H 82.5996 -3.92704 -2.96723 0
M  V30 838 N 84.2517 0.741722 -1.39055 0
M  V30 839 C 85.5287 1.49252 -1.26425 0
M  V30 840 C 85.9087 2.10705 0.129144 0
M  V30 841 O 85.2567 1.98045 1.13976 0
M  V30 842 C 85.4667 2.54934 -2.38347 0
M  V30 843 C 86.8147 3.21506 -2.77343 0
M  V30 844 O 87.8387 2.65245 -2.37747 0
M  V30 845 O 86.6977 4.23294 -3.45665 0
M  V30 846 H 83.7917 0.662451 -0.495064 0
M  V30 847 H 86.3377 0.776121 -1.50912 0
M  V30 848 H 85.1097 2.07857 -3.31529 0
M  V30 849 H 84.7327 3.34141 -2.15489 0
M  V30 850 N 85.7298 1.2412 0.971189 0
M  V30 851 C 86.9548 1.10667 1.75407 0
M  V30 852 C 87.3798 -0.337048 1.85056 0
M  V30 853 O 86.7378 -1.24396 1.31892 0
M  V30 854 C 86.7858 1.74726 3.15441 0
M  V30 855 O 85.8898 1.01566 3.99697 0
M  V30 856 H 85.2308 0.387341 0.539317 0
M  V30 857 H 87.7608 1.64358 1.2185 0
M  V30 858 H 87.7708 1.80341 3.6598 0
M  V30 859 H 86.4458 2.79773 3.07734 0
M  V30 860 H 85.0228 1.03713 3.58187 0
M  V30 861 N 87.2079 -1.17134 1.05439 0
M  V30 862 C 88.4359 -1.91372 0.786414 0
M  V30 863 C 88.8509 -1.76955 -0.658202 0
M  V30 864 O 88.2079 -1.10838 -1.44987 0
M  V30 865 C 88.2589 -3.42356 1.1608 0
M  V30 866 O 87.9799 -3.56332 2.54871 0
M  V30 867 C 89.4809 -4.33663 0.919322 0
M  V30 868 H 86.7009 -0.607118 0.285743 0
M  V30 869 H 89.2449 -1.48525 1.40572 0
M  V30 870 H 87.3999 -3.82939 0.586191 0
M  V30 871 H 87.8139 -4.49896 2.69618 0
M  V30 872 H 89.2879 -5.38099 1.231 0
M  V30 873 H 89.7649 -4.38959 -0.145359 0
M  V30 874 H 90.3709 -3.98796 1.47789 0
M  V30 875 N 88.686 -0.835752 -1.33615 0
M  V30 876 C 89.916 -0.442701 -2.01801 0
M  V30 877 C 90.324 0.959807 -1.63047 0
M  V30 878 O 89.667 1.63468 -0.838088 0
M  V30 879 C 89.729 -0.480125 -3.56279 0
M  V30 880 C 89.393 -1.8382 -4.18401 0
M  V30 881 C 90.39 -2.80097 -4.37998 0
M  V30 882 C 88.075 -2.13019 -4.54894 0
M  V30 883 C 90.069 -4.03736 -4.9323 0
M  V30 884 C 87.756 -3.36916 -5.09834 0
M  V30 885 C 88.754 -4.32091 -5.28948 0
M  V30 886 O 88.442 -5.53797 -5.82721 0
M  V30 887 H 88.174 -0.17441 -0.653114 0
M  V30 888 H 90.728 -1.129 -1.71589 0
M  V30 889 H 88.958 0.262931 -3.85805 0
M  V30 890 H 90.647 -0.105335 -4.05763 0
M  V30 891 H 91.413 -2.58838 -4.10156 0
M  V30 892 H 87.292 -1.39733 -4.39313 0
M  V30 893 H 90.836 -4.78034 -5.08064 0
M  V30 894 H 86.733 -3.58033 -5.37106 0
M  V30 895 H 87.501 -5.55494 -6.0114 0
M  V30 896 N 90.1641 1.46063 -0.591896 0
M  V30 897 C 91.3921 2.06717 -0.0868936 0
M  V30 898 C 91.8071 1.43916 1.22203 0
M  V30 899 O 91.1641 0.547698 1.74088 0
M  V30 900 C 91.2151 3.6142 0.0758725 0
M  V30 901 O 90.9361 4.21874 -1.18126 0
M  V30 902 C 92.4371 4.39025 0.61416 0
M  V30 903 H 89.6571 0.668162 -0.0616518 0
M  V30 904 H 92.2011 1.8755 -0.815175 0
M  V30 905 H 90.3561 3.79983 0.754413 0
M  V30 906 H 90.7701 5.14861 -1.00092 0
M  V30 907 H 92.2441 5.4783 0.677193 0
M  V30 908 H 92.7211 4.07708 1.63312 0
M  V30 909 H 93.3271 4.2529 -0.0298142 0
M  V30 910 N 91.6422 0.330177 1.54103 0
M  V30 911 C 92.5742 -0.566902 2.22079 0
M  V30 912 C 93.5872 -1.07462 1.22294 0
M  V30 913 O 94.7762 -0.987065 1.48726 0
M  V30 914 C 91.8762 -1.79138 2.87685 0
M  V30 915 C 91.0492 -1.42123 4.13666 0
M  V30 916 C 90.1082 -2.50394 4.62806 0
M  V30 917 O 89.1342 -2.14261 5.27334 0
M  V30 918 N 90.3362 -3.81433 4.37595 0
M  V30 919 H 93.1012 0.0151844 2.99696 0
M  V30 920 H 90.6622 0.153681 1.61169 0
M  V30 921 H 92.6542 -2.50975 3.1748 0
M  V30 922 H 91.2242 -2.28115 2.13734 0
M  V30 923 H 90.4442 -0.534201 3.90564 0
M  V30 924 H 91.7322 -1.14971 4.9564 0
M  V30 925 H 91.1302 -4.13584 3.8596 0
M  V30 926 H 89.6872 -4.4948 4.72029 0
M  V30 927 N 93.1203 -1.57491 0.0584922 0
M  V30 928 C 94.0503 -2.14988 -0.911178 0
M  V30 929 C 95.0313 -1.07343 -1.31952 0
M  V30 930 O 96.2163 -1.35318 -1.39294 0
M  V30 931 C 93.3463 -2.70078 -2.18347 0
M  V30 932 C 92.3003 -3.82771 -1.91495 0
M  V30 933 C 91.6263 -4.24408 -3.25241 0
M  V30 934 C 92.9263 -5.07592 -1.23075 0
M  V30 935 H 94.6203 -2.96263 -0.432246 0
M  V30 936 H 92.1663 -1.42512 -0.206469 0
M  V30 937 H 94.1193 -3.08943 -2.86587 0
M  V30 938 H 92.8433 -1.86005 -2.68458 0
M  V30 939 H 91.5023 -3.44389 -1.25664 0
M  V30 940 H 91.1503 -3.37275 -3.73168 0
M  V30 941 H 90.8503 -5.00366 -3.08071 0
M  V30 942 H 92.3743 -4.65879 -3.94701 0
M  V30 943 H 93.7883 -5.43857 -1.81362 0
M  V30 944 H 92.1853 -5.88741 -1.16207 0
M  V30 945 H 93.2553 -4.84454 -0.207847 0
M  V30 946 N 94.5984 0.214957 -1.56127 0
M  V30 947 C 95.8444 0.935325 -1.80619 0
M  V30 948 C 96.1994 1.81706 -0.632507 0
M  V30 949 O 95.4924 1.87931 0.373182 0
M  V30 950 C 95.6864 1.80314 -3.0858 0
M  V30 951 C 95.5154 1.00691 -4.38282 0
M  V30 952 C 94.2854 0.699211 -5.00439 0
M  V30 953 C 96.4834 0.369057 -5.12974 0
M  V30 954 N 94.4654 -0.117734 -6.13787 0
M  V30 955 C 95.8364 -0.310981 -6.1922 0
M  V30 956 C 97.8914 0.282759 -4.97096 0
M  V30 957 C 96.5944 -1.06907 -7.11311 0
M  V30 958 C 98.6204 -0.461881 -5.89594 0
M  V30 959 C 97.9824 -1.13044 -6.9527 0
M  V30 960 H 94.0814 0.322307 -0.71249 0
M  V30 961 H 96.6654 0.205649 -1.93611 0
M  V30 962 H 94.8364 2.50458 -2.96859 0
M  V30 963 H 96.5684 2.46148 -3.21237 0
M  V30 964 H 93.3234 1.01884 -4.62511 0
M  V30 965 H 93.7474 -0.515235 -6.75037 0
M  V30 966 H 98.3894 0.785292 -4.15443 0
M  V30 967 H 96.1074 -1.5831 -7.92442 0
M  V30 968 H 99.6934 -0.529746 -5.79383 0
M  V30 969 H 98.5734 -1.69742 -7.65609 0
M  V30 970 N 96.0765 1.50051 0.48192 0
M  V30 971 C 97.0245 1.68635 1.60203 0
M  V30 972 C 98.0185 0.552184 1.60148 0
M  V30 973 O 99.2245 0.732377 1.64427 0
M  V30 974 H 95.5995 0.532081 0.531407 0
M  V30 975 H 97.5705 2.62616 1.41688 0
M  V30 976 C 96.3195 1.78775 2.9822 0
M  V30 977 H 95.6425 2.6543 2.98976 0
M  V30 978 H 97.0825 1.95806 3.7608 0
M  V30 979 C 95.5415 0.536849 3.32595 0
M  V30 980 O 96.0715 -0.328897 4.00351 0
M  V30 981 N 94.2775 0.394091 2.87915 0
M  V30 982 H 93.8245 1.09962 2.32951 0
M  V30 983 H 93.7825 -0.441737 3.11281 0
M  V30 984 N 97.5546 -0.734337 1.39446 0
M  V30 985 C 98.8006 -1.49505 1.37913 0
M  V30 986 C 99.1556 -1.92384 -0.0248416 0
M  V30 987 O 98.4486 -1.6395 -0.991506 0
M  V30 988 C 98.6426 -2.74711 2.28623 0
M  V30 989 C 98.4716 -2.44075 3.777 0
M  V30 990 C 97.2416 -2.36338 4.46623 0
M  V30 991 C 99.4396 -2.09574 4.69663 0
M  V30 992 N 97.4216 -1.9818 5.81032 0
M  V30 993 C 98.7926 -1.81865 5.92727 0
M  V30 994 C 100.848 -1.96048 4.57678 0
M  V30 995 C 99.5506 -1.41992 7.05146 0
M  V30 996 C 101.577 -1.57579 5.7002 0
M  V30 997 C 100.939 -1.30754 6.92158 0
M  V30 998 H 97.0376 -0.545896 0.55993 0
M  V30 999 H 99.6216 -0.853373 1.75002 0
M  V30 1000 H 97.7926 -3.36657 1.93692 0
M  V30 1001 H 99.5246 -3.40916 2.18078 0
M  V30 1002 H 96.2796 -2.53456 4.00071 0
M  V30 1003 H 96.7036 -1.81691 6.52163 0
M  V30 1004 H 101.346 -2.15455 3.63784 0
M  V30 1005 H 99.0636 -1.21327 7.9894 0
M  V30 1006 H 102.65 -1.47718 5.62735 0
M  V30 1007 H 101.53 -1.01432 7.77612 0
M  V30 1008 N 99.0327 -1.24633 -0.964593 0
M  V30 1009 C 100.279 -1.08949 -1.71049 0
M  V30 1010 C 100.612 0.370302 -1.90637 0
M  V30 1011 O 99.8867 1.27349 -1.47011 0
M  V30 1012 C 100.17 -1.83329 -3.0994 0
M  V30 1013 C 100.023 -3.37077 -2.97824 0
M  V30 1014 C 101.342 -1.60846 -4.09654 0
M  V30 1015 H 98.4607 -0.397178 -0.620821 0
M  V30 1016 H 101.103 -1.5334 -1.12191 0
M  V30 1017 H 99.2527 -1.45597 -3.60186 0
M  V30 1018 H 100.925 -3.84425 -2.5498 0
M  V30 1019 H 99.1677 -3.65298 -2.33965 0
M  V30 1020 H 99.8387 -3.84324 -3.96231 0
M  V30 1021 H 102.315 -1.93674 -3.68279 0
M  V30 1022 H 101.191 -2.1534 -5.04896 0
M  V30 1023 H 101.452 -0.547434 -4.38698 0
M  V30 1024 N 100.511 1.16574 -1.06058 0
M  V30 1025 C 101.922 1.68662 -0.800632 0
M  V30 1026 C 102.273 1.84184 0.67608 0
M  V30 1027 O 101.398 1.53568 1.52466 0
M  V30 1028 C 101.993 3.06356 -1.44676 0
M  V30 1029 C 100.552 3.55575 -1.23465 0
M  V30 1030 C 99.6988 2.31616 -1.52477 0
M  V30 1031 H 102.65 1.00969 -1.22438 0
M  V30 1032 H 102.671 3.70636 -0.860788 0
M  V30 1033 H 102.183 2.95027 -2.52152 0
M  V30 1034 H 100.284 3.72167 -0.179527 0
M  V30 1035 H 100.397 4.37812 -1.94571 0
M  V30 1036 H 98.7608 2.36512 -0.945209 0
M  V30 1037 H 99.5438 2.22887 -2.61106 0
M  V30 1038 N 101.989 0.842826 1.3317 0
M  V30 1039 C 102.899 0.281444 2.32906 0
M  V30 1040 C 103.915 -0.594587 1.63526 0
M  V30 1041 O 105.091 -0.49777 1.95152 0
M  V30 1042 C 102.156 -0.530929 3.42611 0
M  V30 1043 C 101.217 0.369843 4.27704 0
M  V30 1044 C 100.45 -0.403853 5.3217 0
M  V30 1045 O 100.673 -1.63513 5.46461 0
M  V30 1046 O 99.6069 0.224199 6.01482 0
M  V30 1047 H 103.433 1.10744 2.82789 0
M  V30 1048 H 101.018 0.60545 1.36582 0
M  V30 1049 H 102.9 -0.992437 4.09547 0
M  V30 1050 H 101.575 -1.33392 2.94938 0
M  V30 1051 H 100.482 0.879275 3.6362 0
M  V30 1052 H 101.815 1.13771 4.78871 0
M  V30 1053 N 103.467 -1.45747 0.599634 0
M  V30 1054 C 104.707 -2.04181 0.0946309 0
M  V30 1055 C 105.071 -1.45895 -1.24815 0
M  V30 1056 O 106.272 -1.95633 -1.8434 0
M  V30 1057 C 104.543 -3.57368 0.047581 0
M  V30 1058 S 106.102 -4.36997 -0.397387 0
M  V30 1059 H 102.92 -0.70953 0.0456954 0
M  V30 1060 H 105.522 -1.78564 0.795946 0
M  V30 1061 H 104.226 -3.97303 1.02852 0
M  V30 1062 H 103.757 -3.87549 -0.675977 0
M  V30 1063 H 105.772 -4.68012 -1.64862 0
M  V30 1064 N 104.945 -0.338344 -1.53925 0
M  V30 1065 C 105.875 0.51328 -2.27789 0
M  V30 1066 C 106.856 1.107 -1.29149 0
M  V30 1067 O 108.041 1.12937 -1.57984 0
M  V30 1068 C 105.171 1.66697 -3.04679 0
M  V30 1069 C 104.125 1.20183 -4.1078 0
M  V30 1070 C 103.451 2.44363 -4.75595 0
M  V30 1071 C 104.751 0.30605 -5.21403 0
M  V30 1072 H 106.445 -0.102883 -2.99223 0
M  V30 1073 H 103.991 -0.0509219 -1.4391 0
M  V30 1074 H 105.944 2.26915 -3.55088 0
M  V30 1075 H 104.668 2.30995 -2.30887 0
M  V30 1076 H 103.327 0.622499 -3.61276 0
M  V30 1077 H 102.975 3.07057 -3.98403 0
M  V30 1078 H 102.675 2.13925 -5.47275 0
M  V30 1079 H 104.199 3.05317 -5.28786 0
M  V30 1080 H 105.613 0.814929 -5.67478 0
M  V30 1081 H 104.01 0.0937929 -6.00027 0
M  V30 1082 H 105.08 -0.65921 -4.80398 0
M  V30 1083 N 106.423 1.57458 -0.0668435 0
M  V30 1084 C 107.648 1.9804 0.616027 0
M  V30 1085 C 108.073 0.944771 1.62652 0
M  V30 1086 O 107.431 -0.0902094 1.81075 0
M  V30 1087 C 107.479 3.37665 1.26549 0
M  V30 1088 O 106.583 3.36701 2.38131 0
M  V30 1089 H 105.924 0.644719 0.158849 0
M  V30 1090 H 108.454 2.04121 -0.139891 0
M  V30 1091 H 108.464 3.7474 1.6135 0
M  V30 1092 H 107.139 4.12573 0.525016 0
M  V30 1093 H 105.716 3.1139 2.0516 0
M  V30 1094 N 107.901 -0.206675 1.56239 0
M  V30 1095 C 109.141 -0.93574 1.81723 0
M  V30 1096 C 109.505 -1.80927 0.642609 0
M  V30 1097 O 110.706 -2.57323 0.777081 0
M  V30 1098 C 108.977 -1.74012 3.12177 0
M  V30 1099 S 110.536 -2.52279 3.59028 0
M  V30 1100 H 107.354 -0.314065 0.637875 0
M  V30 1101 H 109.956 -0.200071 1.94474 0
M  V30 1102 H 108.66 -1.0888 3.95693 0
M  V30 1103 H 108.191 -2.51782 3.02274 0
M  V30 1104 H 110.206 -3.76209 3.23545 0
M  V30 1105 N 109.379 -1.50304 -0.473955 0
M  V30 1106 C 110.627 -1.60832 -1.22382 0
M  V30 1107 C 110.948 -0.30939 -1.9253 0
M  V30 1108 O 110.218 0.67296 -1.83978 0
M  V30 1109 H 108.798 -0.592652 -0.454723 0
M  V30 1110 H 111.46 -1.87068 -0.546968 0
M  V30 1111 H 110.556 -2.41803 -1.97327 0
M  V30 1112 N 110.857 0.726932 -1.39834 0
M  V30 1113 C 112.082 1.52121 -1.40976 0
M  V30 1114 C 112.507 1.88098 -0.00826029 0
M  V30 1115 O 111.865 1.52479 0.980807 0
M  V30 1116 C 111.913 2.78021 -2.29644 0
M  V30 1117 O 111.017 3.74272 -1.73188 0
M  V30 1118 H 110.358 0.45908 -0.479731 0
M  V30 1119 H 112.888 0.896207 -1.83927 0
M  V30 1120 H 112.898 3.26671 -2.44438 0
M  V30 1121 H 111.573 2.51169 -3.31492 0
M  V30 1122 H 110.15 3.33073 -1.6768 0
M  V30 1123 N 112.336 1.25143 0.95797 0
M  V30 1124 C 113.752 1.01892 1.22842 0
M  V30 1125 C 113.952 -0.266311 1.99732 0
M  V30 1126 O 113.008 -0.979913 2.3271 0
M  V30 1127 C 114.321 2.24004 2.00606 0
M  V30 1128 C 115.869 2.28731 2.13662 0
M  V30 1129 C 116.344 3.5049 2.94823 0
M  V30 1130 N 117.835 3.50866 3.02403 0
M  V30 1131 C 118.57 4.4174 3.65586 0
M  V30 1132 N 118.066 5.42882 4.30408 0
M  V30 1133 N 119.859 4.29429 3.62694 0
M  V30 1134 H 112.01 2.07718 0.443493 0
M  V30 1135 H 114.273 0.912031 0.258657 0
M  V30 1136 H 113.979 3.17395 1.51503 0
M  V30 1137 H 113.853 2.26907 3.01319 0
M  V30 1138 H 116.24 1.35865 2.61963 0
M  V30 1139 H 116.321 2.29848 1.12265 0
M  V30 1140 H 115.965 4.43676 2.47213 0
M  V30 1141 H 115.895 3.46617 3.96439 0
M  V30 1142 H 118.386 2.777 2.56302 0
M  V30 1143 H 118.699 6.0844 4.76467 0
M  V30 1144 H 117.044 5.46758 4.29047 0
M  V30 1145 H 120.235 3.49643 3.11236 0
M  V30 1146 H 120.408 5.00448 4.1165 0
M  V30 1147 N 113.814 -1.1601 1.06675 0
M  V30 1148 C 115.054 -1.88304 0.795037 0
M  V30 1149 C 115.418 -1.80062 -0.666466 0
M  V30 1150 O 116.619 -2.47319 -1.05293 0
M  V30 1151 C 114.89 -3.33664 1.28076 0
M  V30 1152 S 116.449 -4.23768 1.13868 0
M  V30 1153 H 113.267 -0.649928 0.288296 0
M  V30 1154 H 115.869 -1.4001 1.36445 0
M  V30 1155 H 114.573 -3.37203 2.33927 0
M  V30 1156 H 114.104 -3.87009 0.706253 0
M  V30 1157 H 116.119 -4.96148 0.0719668 0
M  V30 1158 N 115.292 -0.849877 -1.32721 0
M  V30 1159 C 116.517 -0.463856 -2.02146 0
M  V30 1160 C 116.942 0.930449 -1.63476 0
M  V30 1161 O 116.3 1.61033 -0.832952 0
M  V30 1162 C 116.348 -0.604955 -3.55489 0
M  V30 1163 O 115.452 0.36425 -4.10788 0
M  V30 1164 H 114.793 -0.187046 -0.637111 0
M  V30 1165 H 117.323 -1.14775 -1.69375 0
M  V30 1166 H 117.333 -0.490696 -4.05038 0
M  V30 1167 H 116.008 -1.62174 -3.82978 0
M  V30 1168 H 114.585 0.206628 -3.72327 0
M  V30 1169 N 116.77 1.45427 -0.607355 0
M  V30 1170 C 117.995 2.07124 -0.107006 0
M  V30 1171 C 118.42 1.44906 1.19933 0
M  V30 1172 O 117.778 0.541687 1.73019 0
M  V30 1173 C 117.826 3.60595 0.0194119 0
M  V30 1174 O 116.93 3.98285 1.0697 0
M  V30 1175 H 116.271 0.659868 -0.0739597 0
M  V30 1176 H 118.801 1.86683 -0.837297 0
M  V30 1177 H 118.811 4.07419 0.2177 0
M  V30 1178 H 117.486 4.05266 -0.934453 0
M  V30 1179 H 116.063 3.63133 0.847889 0
M  V30 1180 N 118.248 0.346503 1.53744 0
M  V30 1181 C 119.525 -0.304532 1.93215 0
M  V30 1182 C 119.905 -1.67993 1.27834 0
M  V30 1183 O 119.253 -2.24411 0.430352 0
M  V30 1184 C 119.463 -0.373852 3.46992 0
M  V30 1185 C 120.811 -0.62329 4.2 0
M  V30 1186 O 121.835 -0.455847 3.53271 0
M  V30 1187 O 120.694 -0.947879 5.38217 0
M  V30 1188 H 117.788 -0.178318 0.807547 0
M  V30 1189 H 120.334 0.397895 1.64969 0
M  V30 1190 H 119.106 0.591224 3.86808 0
M  V30 1191 H 118.729 -1.12294 3.81413 0
M  V30 1192 N 119.726 -1.57421 0.075193 0
M  V30 1193 C 120.658 -2.09904 -0.920483 0
M  V30 1194 C 121.671 -1.03191 -1.25918 0
M  V30 1195 O 122.86 -1.30695 -1.21577 0
M  V30 1196 C 119.96 -2.54726 -2.23534 0
M  V30 1197 C 119.133 -3.8505 -2.07498 0
M  V30 1198 C 118.192 -4.15929 -3.22319 0
M  V30 1199 O 117.218 -4.85474 -2.9716 0
M  V30 1200 N 118.42 -3.69745 -4.47514 0
M  V30 1201 H 121.185 -2.95954 -0.472359 0
M  V30 1202 H 118.746 -1.61523 -0.110444 0
M  V30 1203 H 120.738 -2.72443 -2.9926 0
M  V30 1204 H 119.308 -1.73795 -2.59835 0
M  V30 1205 H 118.528 -3.76679 -1.16219 0
M  V30 1206 H 119.816 -4.70348 -1.94038 0
M  V30 1207 H 119.214 -3.13569 -4.7084 0
M  V30 1208 H 117.771 -3.92655 -5.20255 0
M  V30 1209 N 121.204 0.198386 -1.56346 0
M  V30 1210 C 122.45 0.920648 -1.80698 0
M  V30 1211 C 122.783 1.83045 -0.648697 0
M  V30 1212 O 122.058 1.91308 0.350925 0
M  V30 1213 C 122.341 1.73971 -3.15287 0
M  V30 1214 C 122.194 0.85485 -4.41602 0
M  V30 1215 C 123.513 2.71296 -3.46535 0
M  V30 1216 H 120.632 0.333261 -0.657348 0
M  V30 1217 H 123.274 0.188198 -1.89066 0
M  V30 1218 H 121.424 2.36416 -3.08285 0
M  V30 1219 H 123.096 0.245362 -4.60647 0
M  V30 1220 H 121.339 0.161398 -4.335 0
M  V30 1221 H 122.01 1.46286 -5.32264 0
M  V30 1222 H 124.486 2.18983 -3.53816 0
M  V30 1223 H 123.362 3.2569 -4.41834 0
M  V30 1224 H 123.623 3.5018 -2.69864 0
M  V30 1225 N 122.682 1.50554 0.465978 0
M  V30 1226 C 123.592 1.72585 1.58907 0
M  V30 1227 C 124.608 0.60911 1.6299 0
M  V30 1228 O 125.784 0.88804 1.80765 0
M  V30 1229 C 122.849 1.81995 2.95091 0
M  V30 1230 C 121.91 3.05751 3.01355 0
M  V30 1231 C 121.143 3.14702 4.31043 0
M  V30 1232 O 121.366 2.30313 5.21835 0
M  V30 1233 O 120.3 4.07468 4.43005 0
M  V30 1234 H 124.126 2.67799 1.43239 0
M  V30 1235 H 121.711 1.34711 0.646013 0
M  V30 1236 H 123.593 1.90335 3.75966 0
M  V30 1237 H 122.268 0.899659 3.10947 0
M  V30 1238 H 121.175 3.02908 2.19539 0
M  V30 1239 H 122.508 3.97375 2.90437 0
M  V30 1240 N 124.16 -0.719506 1.40217 0
M  V30 1241 C 125.388 -1.50864 1.41589 0
M  V30 1242 C 125.803 -1.88794 0.0145275 0
M  V30 1243 O 125.16 -1.55174 -0.960594 0
M  V30 1244 C 125.211 -2.78646 2.30302 0
M  V30 1245 O 124.932 -2.42321 3.64983 0
M  V30 1246 C 126.433 -3.72569 2.40224 0
M  V30 1247 H 123.653 -0.465709 0.48307 0
M  V30 1248 H 126.197 -0.88785 1.84221 0
M  V30 1249 H 124.352 -3.37019 1.91042 0
M  V30 1250 H 124.766 -3.24514 4.12057 0
M  V30 1251 H 126.24 -4.5908 3.06512 0
M  V30 1252 H 126.717 -4.15403 1.42608 0
M  V30 1253 H 127.323 -3.20109 2.80019 0
M  V30 1254 N 125.638 -1.25649 -0.95132 0
M  V30 1255 C 126.57 -1.02112 -2.05197 0
M  V30 1256 C 127.583 0.0150571 -1.62793 0
M  V30 1257 O 128.772 -0.223874 -1.77091 0
M  V30 1258 C 125.872 -0.522361 -3.3485 0
M  V30 1259 C 125.045 -1.62546 -4.06076 0
M  V30 1260 C 124.104 -1.12649 -5.14001 0
M  V30 1261 O 123.13 -1.82156 -5.39266 0
M  V30 1262 N 124.332 0.03047 -5.80492 0
M  V30 1263 H 127.097 -1.96885 -2.25957 0
M  V30 1264 H 124.658 -1.16899 -1.1201 0
M  V30 1265 H 126.65 -0.172961 -4.0433 0
M  V30 1266 H 125.22 0.33151 -3.10837 0
M  V30 1267 H 124.44 -2.14628 -3.30649 0
M  V30 1268 H 125.728 -2.36644 -4.50419 0
M  V30 1269 H 125.126 0.611169 -5.62389 0
M  V30 1270 H 123.683 0.320875 -6.5101 0
M  V30 1271 N 127.117 1.15442 -1.07289 0
M  V30 1272 C 128.08 2.18358 -0.696591 0
M  V30 1273 C 129.08 1.58637 0.262837 0
M  V30 1274 O 130.27 1.74145 0.0438809 0
M  V30 1275 C 127.402 3.4089 -0.0266151 0
M  V30 1276 H 128.595 2.53162 -1.60776 0
M  V30 1277 H 126.148 1.29893 -0.869342 0
M  V30 1278 H 126.883 3.11653 0.896822 0
M  V30 1279 H 126.668 3.85495 -0.716657 0
M  V30 1280 H 128.158 4.17009 0.222028 0
M  V30 1281 N 128.595 0.856903 1.32268 0
M  V30 1282 C 129.835 0.467705 1.98977 0
M  V30 1283 C 130.199 -0.959231 1.66321 0
M  V30 1284 O 131.4 -1.4531 2.26138 0
M  V30 1285 C 129.671 0.70256 3.50427 0
M  V30 1286 S 131.23 0.411269 4.36868 0
M  V30 1287 H 128.048 0.175121 0.689096 0
M  V30 1288 H 130.65 1.1101 1.60925 0
M  V30 1289 H 129.354 1.74012 3.71683 0
M  V30 1290 H 128.885 0.0466707 3.93372 0
M  V30 1291 H 130.9 -0.761799 4.90317 0
M  V30 1292 N 130.073 -1.45103 0.615059 0
M  V30 1293 C 131.301 -2.06553 0.11977 0
M  V30 1294 C 131.716 -1.45842 -1.19898 0
M  V30 1295 O 131.073 -0.575325 -1.73194 0
M  V30 1296 C 131.124 -3.61495 -0.018364 0
M  V30 1297 O 130.845 -4.19942 1.24822 0
M  V30 1298 C 132.346 -4.39947 -0.544237 0
M  V30 1299 H 129.566 -0.667096 0.0722739 0
M  V30 1300 H 132.11 -1.8623 0.84491 0
M  V30 1301 H 130.265 -3.81135 -0.693865 0
M  V30 1302 H 130.679 -5.13204 1.0827 0
M  V30 1303 H 132.153 -5.48838 -0.589953 0
M  V30 1304 H 132.63 -4.10255 -1.56805 0
M  V30 1305 H 133.236 -4.25188 0.0974703 0
M  V30 1306 N 131.551 -0.354651 -1.53558 0
M  V30 1307 C 132.967 -0.00315426 -1.596 0
M  V30 1308 C 133.167 1.47741 -1.37021 0
M  V30 1309 O 132.223 2.23759 -1.16996 0
M  V30 1310 C 133.536 -0.44929 -2.97325 0
M  V30 1311 C 135.084 -0.402578 -3.104 0
M  V30 1312 C 135.559 -0.824355 -4.5052 0
M  V30 1313 N 137.05 -0.778979 -4.56603 0
M  V30 1314 C 137.785 -1.07715 -5.63192 0
M  V30 1315 N 137.281 -1.44405 -6.77583 0
M  V30 1316 N 139.074 -1.00066 -5.53121 0
M  V30 1317 H 131.225 -1.31893 -1.66487 0
M  V30 1318 H 133.488 -0.538388 -0.780284 0
M  V30 1319 H 133.194 -1.48202 -3.1895 0
M  V30 1320 H 133.068 0.169772 -3.76818 0
M  V30 1321 H 135.455 0.621004 -2.88492 0
M  V30 1322 H 135.536 -1.05699 -2.32941 0
M  V30 1323 H 135.18 -1.846 -4.73165 0
M  V30 1324 H 135.11 -0.147304 -5.26394 0
M  V30 1325 H 137.601 -0.508528 -3.74463 0
M  V30 1326 H 137.914 -1.65612 -7.54846 0
M  V30 1327 H 136.259 -1.4826 -6.79002 0
M  V30 1328 H 139.45 -0.713293 -4.62633 0
M  V30 1329 H 139.623 -1.23638 -6.36096 0
M  V30 1330 N 133.029 1.57378 -0.0835403 0
M  V30 1331 C 133.939 2.16897 0.894021 0
M  V30 1332 C 134.955 1.13528 1.31861 0
M  V30 1333 O 136.131 1.45848 1.3889 0
M  V30 1334 C 133.196 2.72831 2.13925 0
M  V30 1335 C 132.257 3.91115 1.76997 0
M  V30 1336 C 131.49 4.44371 2.95584 0
M  V30 1337 O 131.713 3.96596 4.09961 0
M  V30 1338 O 130.647 5.35549 2.74719 0
M  V30 1339 H 134.473 3.00814 0.417679 0
M  V30 1340 H 132.058 1.48741 0.140181 0
M  V30 1341 H 133.94 3.0863 2.86924 0
M  V30 1342 H 132.615 1.91967 2.60635 0
M  V30 1343 H 131.522 3.60148 1.01214 0
M  V30 1344 H 132.855 4.73307 1.3506 0
M  V30 1345 N 134.507 -0.190092 1.56449 0
M  V30 1346 C 135.439 -1.25973 1.91477 0
M  V30 1347 C 136.452 -1.41452 0.805931 0
M  V30 1348 O 137.641 -1.41789 1.08435 0
M  V30 1349 C 134.741 -2.63117 2.13594 0
M  V30 1350 C 133.914 -2.69182 3.4476 0
M  V30 1351 C 132.973 -3.87557 3.5593 0
M  V30 1352 O 131.999 -3.74427 4.28711 0
M  V30 1353 N 133.201 -5.03224 2.89388 0
M  V30 1354 H 135.966 -0.962394 2.83828 0
M  V30 1355 H 133.527 -0.379981 1.57378 0
M  V30 1356 H 135.519 -3.40742 2.1835 0
M  V30 1357 H 134.089 -2.85319 1.27719 0
M  V30 1358 H 133.309 -1.77793 3.51828 0
M  V30 1359 H 134.597 -2.70229 4.31107 0
M  V30 1360 H 133.995 -5.16791 2.30094 0
M  V30 1361 H 132.552 -5.78778 2.99764 0
M  V30 1362 N 135.985 -1.50799 -0.457987 0
M  V30 1363 C 136.933 -1.71162 -1.575 0
M  V30 1364 C 137.927 -0.577592 -1.59249 0
M  V30 1365 O 139.133 -0.758443 -1.63241 0
M  V30 1366 H 135.508 -0.540468 -0.522875 0
M  V30 1367 H 137.479 -2.64837 -1.37492 0
M  V30 1368 C 136.228 -1.83496 -2.95338 0
M  V30 1369 H 135.551 -2.70153 -2.94716 0
M  V30 1370 H 136.991 -2.01765 -3.72917 0
M  V30 1371 C 135.45 -0.589694 -3.31699 0
M  V30 1372 O 135.98 0.265163 -4.00824 0
M  V30 1373 N 134.186 -0.439845 -2.87252 0
M  V30 1374 H 133.733 -1.13655 -2.31172 0
M  V30 1375 H 133.691 0.392159 -3.11945 0
M  V30 1376 N 137.463 0.71206 -1.40597 0
M  V30 1377 C 138.879 1.02058 -1.22704 0
M  V30 1378 C 139.079 2.01228 -0.104729 0
M  V30 1379 O 138.135 2.4674 0.53624 0
M  V30 1380 C 139.448 1.56094 -2.57012 0
M  V30 1381 C 140.996 1.6806 -2.64054 0
M  V30 1382 C 141.471 2.25501 -3.9864 0
M  V30 1383 N 142.962 2.32882 -4.004 0
M  V30 1384 C 143.697 2.78317 -5.01325 0
M  V30 1385 N 143.193 3.23478 -6.12645 0
M  V30 1386 N 144.986 2.77733 -4.88693 0
M  V30 1387 H 137.137 0.0547896 -2.12329 0
M  V30 1388 H 139.4 0.0869027 -0.944008 0
M  V30 1389 H 139.106 0.906865 -3.39807 0
M  V30 1390 H 138.98 2.54564 -2.78347 0
M  V30 1391 H 141.367 2.32583 -1.81629 0
M  V30 1392 H 141.448 0.681802 -2.46546 0
M  V30 1393 H 141.092 1.61598 -4.81506 0
M  V30 1394 H 141.022 3.26102 -4.13479 0
M  V30 1395 H 143.513 2.00991 -3.20017 0
M  V30 1396 H 143.826 3.56725 -6.85542 0
M  V30 1397 H 142.171 3.21429 -6.16205 0
M  V30 1398 H 145.362 2.4179 -4.00818 0
M  V30 1399 H 145.535 3.12826 -5.67489 0
M  V30 1400 N 138.941 1.26152 0.944643 0
M  V30 1401 C 140.19 1.10883 1.68487 0
M  V30 1402 C 140.503 -0.348153 1.92477 0
M  V30 1403 O 141.709 -0.621459 2.64292 0
M  V30 1404 C 140.165 1.93624 3.03377 0
M  V30 1405 C 139.773 3.43875 2.87148 0
M  V30 1406 C 141.517 1.86954 3.81115 0
M  V30 1407 C 139.424 4.18875 4.1749 0
M  V30 1408 H 138.354 0.41135 0.631907 0
M  V30 1409 H 141.005 1.50433 1.05082 0
M  V30 1410 H 139.387 1.46904 3.67743 0
M  V30 1411 H 140.561 3.98338 2.31653 0
M  V30 1412 H 138.876 3.51744 2.22856 0
M  V30 1413 H 141.473 2.40275 4.77673 0
M  V30 1414 H 141.816 0.839518 4.07747 0
M  V30 1415 H 142.349 2.31477 3.23517 0
M  V30 1416 H 139.088 5.22332 3.96043 0
M  V30 1417 H 138.608 3.69193 4.72712 0
M  V30 1418 H 140.287 4.27134 4.85968 0
M  V30 1419 N 140.419 -1.14872 1.07899 0
M  V30 1420 C 141.659 -1.8745 0.814965 0
M  V30 1421 C 142.023 -1.80758 -0.64733 0
M  V30 1422 O 143.224 -2.48422 -1.02664 0
M  V30 1423 C 141.495 -3.32286 1.31607 0
M  V30 1424 S 143.054 -4.22537 1.18357 0
M  V30 1425 H 139.872 -0.646833 0.295174 0
M  V30 1426 H 142.474 -1.38555 1.37923 0
M  V30 1427 H 141.178 -3.34703 2.37491 0
M  V30 1428 H 140.709 -3.86238 0.747261 0
M  V30 1429 H 142.724 -4.96044 0.124586 0
M  V30 1430 N 141.898 -0.863906 -1.31812 0
M  V30 1431 C 143.126 -0.486111 -2.01108 0
M  V30 1432 C 143.541 0.919755 -1.64882 0
M  V30 1433 O 142.898 1.60162 -0.874893 0
M  V30 1434 C 142.949 -0.626435 -3.56031 0
M  V30 1435 O 142.67 -1.97693 -3.90959 0
M  V30 1436 C 144.171 -0.248857 -4.42601 0
M  V30 1437 H 141.391 -0.190052 -0.643523 0
M  V30 1438 H 143.935 -1.1634 -1.68182 0
M  V30 1439 H 142.09 0.00322717 -3.874 0
M  V30 1440 H 142.504 -1.98034 -4.85678 0
M  V30 1441 H 143.978 -0.398016 -5.50563 0
M  V30 1442 H 144.455 0.811489 -4.31638 0
M  V30 1443 H 145.061 -0.853971 -4.16638 0
M  V30 1444 N 143.376 1.44774 -0.622745 0
M  V30 1445 C 144.616 2.04004 -0.127102 0
M  V30 1446 C 144.98 1.47862 1.22478 0
M  V30 1447 O 146.181 1.98541 1.81204 0
M  V30 1448 C 144.452 3.57247 -0.104429 0
M  V30 1449 S 146.011 4.37574 0.327814 0
M  V30 1450 H 142.829 0.708713 -0.0569776 0
M  V30 1451 H 145.431 1.77275 -0.824253 0
M  V30 1452 H 144.135 3.95616 -1.09159 0
M  V30 1453 H 143.666 3.88575 0.614236 0
M  V30 1454 H 145.681 4.70575 1.57395 0
M  V30 1455 N 144.854 0.36279 1.53368 0
M  V30 1456 C 146.27 0.0116182 1.59596 0
M  V30 1457 C 146.47 -1.47012 1.37803 0
M  V30 1458 O 145.526 -2.23136 1.18181 0
M  V30 1459 C 146.839 0.465052 2.97082 0
M  V30 1460 C 148.387 0.419033 3.10182 0
M  V30 1461 C 148.862 0.848235 4.50077 0
M  V30 1462 N 150.353 0.803183 4.56183 0
M  V30 1463 C 151.088 1.107 5.62613 0
M  V30 1464 N 150.584 1.47996 6.76808 0
M  V30 1465 N 152.377 1.02998 5.52583 0
M  V30 1466 H 144.528 1.32775 1.65785 0
M  V30 1467 H 146.791 0.542518 0.777417 0
M  V30 1468 H 146.497 1.49892 3.18159 0
M  V30 1469 H 146.371 -0.149786 3.76902 0
M  V30 1470 H 148.758 -0.605696 2.88817 0
M  V30 1471 H 148.839 1.06933 2.32377 0
M  V30 1472 H 148.483 1.87107 4.7218 0
M  V30 1473 H 148.413 0.175218 5.26308 0
M  V30 1474 H 150.904 0.52838 3.74188 0
M  V30 1475 H 151.217 1.69613 7.53957 0
M  V30 1476 H 149.562 1.51859 6.78206 0
M  V30 1477 H 152.753 0.737817 4.62249 0
M  V30 1478 H 152.926 1.2701 6.35431 0
M  V30 1479 N 146.332 -1.57332 0.0918853 0
M  V30 1480 C 147.743 -1.81496 -0.437739 0
M  V30 1481 C 148.094 -1.00727 -1.6837 0
M  V30 1482 O 147.219 -0.235694 -2.15113 0
M  V30 1483 C 147.814 -3.29197 -0.800939 0
M  V30 1484 C 146.373 -3.54136 -1.27532 0
M  V30 1485 C 145.52 -2.75979 -0.270392 0
M  V30 1486 H 148.471 -1.55494 0.317366 0
M  V30 1487 H 148.492 -3.42344 -1.66074 0
M  V30 1488 H 148.004 -3.87955 0.106078 0
M  V30 1489 H 146.105 -3.00705 -2.20016 0
M  V30 1490 H 146.218 -4.62792 -1.23938 0
M  V30 1491 H 144.582 -2.43349 -0.751872 0
M  V30 1492 H 145.365 -3.37484 0.629248 0
M  V30 1493 N 147.81 0.181792 -1.56548 0
M  V30 1494 C 149.058 0.89832 -1.81038 0
M  V30 1495 C 149.379 1.83232 -0.667164 0
M  V30 1496 O 148.649 1.93372 0.313673 0
M  V30 1497 H 147.229 0.33471 -0.667816 0
M  V30 1498 H 149.891 0.184116 -1.94028 0
M  V30 1499 H 148.987 1.4815 -2.74696 0
M  V30 1500 N 149.288 1.51039 0.449983 0
M  V30 1501 C 150.534 1.64287 1.19923 0
M  V30 1502 C 150.889 0.348701 1.89214 0
M  V30 1503 O 150.182 -0.654751 1.80065 0
M  V30 1504 C 150.376 2.77556 2.25161 0
M  V30 1505 C 150.205 4.17862 1.66198 0
M  V30 1506 C 148.975 4.83976 1.45243 0
M  V30 1507 C 151.173 5.01388 1.14519 0
M  V30 1508 N 149.155 6.08433 0.817437 0
M  V30 1509 C 150.526 6.16743 0.634705 0
M  V30 1510 C 152.581 4.87008 1.03574 0
M  V30 1511 C 151.284 7.19295 0.0255452 0
M  V30 1512 C 153.31 5.89757 0.440489 0
M  V30 1513 C 152.672 7.04375 -0.0595112 0
M  V30 1514 H 148.771 0.655161 0.426952 0
M  V30 1515 H 151.355 1.88228 0.49781 0
M  V30 1516 H 149.526 2.553 2.92706 0
M  V30 1517 H 151.258 2.80049 2.92155 0
M  V30 1518 H 148.013 4.41627 1.71063 0
M  V30 1519 H 148.437 6.75017 0.517747 0
M  V30 1520 H 153.079 3.9866 1.4082 0
M  V30 1521 H 150.797 8.07302 -0.359071 0
M  V30 1522 H 154.383 5.80698 0.35788 0
M  V30 1523 H 153.263 7.82521 -0.512882 0
M  V30 1524 N 150.766 -0.704594 1.40972 0
M  V30 1525 C 151.996 -1.49138 1.42974 0
M  V30 1526 C 152.404 -1.89175 0.0308406 0
M  V30 1527 O 151.747 -1.56734 -0.958138 0
M  V30 1528 C 151.809 -2.79016 2.26694 0
M  V30 1529 C 151.473 -2.61236 3.74973 0
M  V30 1530 C 152.47 -2.27773 4.67349 0
M  V30 1531 C 150.155 -2.77158 4.18914 0
M  V30 1532 C 152.149 -2.10457 6.01653 0
M  V30 1533 C 149.836 -2.59459 5.53285 0
M  V30 1534 C 150.834 -2.26158 6.4447 0
M  V30 1535 O 150.522 -2.08605 7.76363 0
M  V30 1536 H 150.254 -0.466443 0.489292 0
M  V30 1537 H 152.808 -0.8758 1.85793 0
M  V30 1538 H 151.038 -3.42947 1.78673 0
M  V30 1539 H 152.727 -3.40782 2.20504 0
M  V30 1540 H 153.493 -2.15095 4.34694 0
M  V30 1541 H 149.372 -3.02064 3.48251 0
M  V30 1542 H 152.916 -1.84387 6.72791 0
M  V30 1543 H 148.813 -2.71725 5.85522 0
M  V30 1544 H 149.581 -2.23439 7.87412 0
M  V30 1545 N 152.244 -1.26651 -0.937939 0
M  V30 1546 C 153.484 -1.13611 -1.69917 0
M  V30 1547 C 153.848 0.314687 -1.89404 0
M  V30 1548 O 155.049 0.567285 -2.62746 0
M  V30 1549 C 153.32 -1.88742 -3.03498 0
M  V30 1550 S 154.879 -1.91794 -3.94665 0
M  V30 1551 H 151.697 -0.405767 -0.583844 0
M  V30 1552 H 154.299 -1.60416 -1.11745 0
M  V30 1553 H 153.003 -2.9336 -2.86999 0
M  V30 1554 H 152.534 -1.42391 -3.66727 0
M  V30 1555 H 154.549 -1.00698 -4.85875 0
M  V30 1556 N 153.722 1.14298 -1.08507 0
M  V30 1557 C 154.685 2.17607 -0.719711 0
M  V30 1558 C 155.685 1.58907 0.245997 0
M  V30 1559 O 156.875 1.74181 0.0254081 0
M  V30 1560 C 154.007 3.40842 -0.0627695 0
M  V30 1561 H 155.2 2.51443 -1.63452 0
M  V30 1562 H 152.753 1.28963 -0.88307 0
M  V30 1563 H 153.488 3.12587 0.863716 0
M  V30 1564 H 153.273 3.84713 -0.757504 0
M  V30 1565 H 154.763 4.17221 0.177786 0
M  V30 1566 N 155.201 0.870884 1.31352 0
M  V30 1567 C 156.131 0.343096 2.30966 0
M  V30 1568 C 157.112 -0.566507 1.60389 0
M  V30 1569 O 158.297 -0.483336 1.88089 0
M  V30 1570 C 155.427 -0.455487 3.443 0
M  V30 1571 C 154.381 0.361103 4.26474 0
M  V30 1572 C 153.707 -0.563221 5.31725 0
M  V30 1573 C 155.007 1.59566 4.97329 0
M  V30 1574 H 156.701 1.17548 2.75359 0
M  V30 1575 H 154.247 0.566686 1.32381 0
M  V30 1576 H 156.2 -0.83525 4.13039 0
M  V30 1577 H 154.924 -1.32139 2.98675 0
M  V30 1578 H 153.583 0.722825 3.59403 0
M  V30 1579 H 153.231 -1.42643 4.82351 0
M  V30 1580 H 152.931 -0.0207409 5.87596 0
M  V30 1581 H 154.455 -0.939808 6.03324 0
M  V30 1582 H 155.869 1.28728 5.58661 0
M  V30 1583 H 154.266 2.07728 5.63 0
M  V30 1584 H 155.336 2.34798 4.24262 0
M  V30 1585 N 156.679 -1.44442 0.630414 0
M  V30 1586 C 157.904 -2.06927 0.139944 0
M  V30 1587 C 158.329 -1.46795 -1.17613 0
M  V30 1588 O 157.687 -0.569144 -1.72135 0
M  V30 1589 C 157.735 -3.6058 0.0379581 0
M  V30 1590 O 156.839 -3.99937 -1.0062 0
M  V30 1591 H 156.18 -0.658608 0.0844483 0
M  V30 1592 H 158.71 -1.85327 0.866891 0
M  V30 1593 H 158.72 -4.07714 -0.152856 0
M  V30 1594 H 157.395 -4.03728 0.998809 0
M  V30 1595 H 155.972 -3.64436 -0.79001 0
M  V30 1596 N 158.157 -0.370918 -1.53173 0
M  V30 1597 C 159.104 0.473035 -2.259 0
M  V30 1598 C 160.074 1.07311 -1.26781 0
M  V30 1599 O 161.259 1.1046 -1.55574 0
M  V30 1600 C 158.399 1.60405 -3.05556 0
M  V30 1601 C 157.512 1.02863 -4.19575 0
M  V30 1602 C 156.647 2.12918 -4.86661 0
M  V30 1603 C 155.686 1.52869 -5.92704 0
M  V30 1604 N 154.823 2.56779 -6.53459 0
M  V30 1605 H 159.663 -0.153649 -2.97604 0
M  V30 1606 H 157.2 -0.0875946 -1.46839 0
M  V30 1607 H 159.158 2.27034 -3.50016 0
M  V30 1608 H 157.788 2.20131 -2.36097 0
M  V30 1609 H 156.84 0.252465 -3.79561 0
M  V30 1610 H 158.152 0.549642 -4.95762 0
M  V30 1611 H 157.306 2.87356 -5.34333 0
M  V30 1612 H 156.045 2.6417 -4.09958 0
M  V30 1613 H 155.05 0.769479 -5.44389 0
M  V30 1614 H 156.275 1.02435 -6.7133 0
M  V30 1615 H 154.221 3.07235 -5.79606 0
M  V30 1616 H 154.138 2.13583 -7.25202 0
M  V30 1617 H 155.406 3.30903 -7.05779 0
M  V30 1618 N 159.635 1.57281 -0.100228 0
M  V30 1619 C 160.567 2.11342 0.886972 0
M  V30 1620 C 161.58 1.05182 1.24261 0
M  V30 1621 O 162.769 1.32613 1.19483 0
M  V30 1622 C 159.869 2.5825 2.19454 0
M  V30 1623 C 159.042 3.88302 2.01346 0
M  V30 1624 C 158.101 4.21004 3.15661 0
M  V30 1625 O 157.127 4.9014 2.89398 0
M  V30 1626 N 158.329 3.76818 4.41575 0
M  V30 1627 H 161.094 2.96668 0.425216 0
M  V30 1628 H 158.655 1.61678 0.0847334 0
M  V30 1629 H 160.647 2.7717 2.94888 0
M  V30 1630 H 159.217 1.77907 2.57037 0
M  V30 1631 H 158.437 3.7848 1.10212 0
M  V30 1632 H 159.725 4.73375 1.8653 0
M  V30 1633 H 159.123 3.2102 4.65792 0
M  V30 1634 H 157.68 4.00882 5.13942 0
M  V30 1635 N 161.113 -0.173488 1.56642 0
M  V30 1636 C 162.023 -1.23482 1.99473 0
M  V30 1637 C 163.039 -1.48567 0.905752 0
M  V30 1638 O 164.215 -1.60758 1.21321 0
M  V30 1639 C 161.28 -2.55444 2.34413 0
M  V30 1640 C 160.341 -2.38241 3.57127 0
M  V30 1641 C 159.574 -3.63909 3.90392 0
M  V30 1642 O 159.797 -4.68996 3.24653 0
M  V30 1643 O 158.731 -3.58149 4.83749 0
M  V30 1644 H 162.557 -0.901279 2.90018 0
M  V30 1645 H 160.142 -0.380185 1.44482 0
M  V30 1646 H 162.024 -3.33292 2.57865 0
M  V30 1647 H 160.699 -2.88382 1.4703 0
M  V30 1648 H 159.606 -1.58431 3.38896 0
M  V30 1649 H 160.939 -2.10228 4.45045 0
M  V30 1650 N 162.591 -1.51276 -0.441967 0
M  V30 1651 C 163.839 -1.63392 -1.18943 0
M  V30 1652 C 164.16 -0.350159 -1.9183 0
M  V30 1653 O 163.43 0.633784 -1.85364 0
M  V30 1654 H 162.01 -0.602164 -0.442049 0
M  V30 1655 H 164.672 -1.88186 -0.507165 0
M  V30 1656 H 163.768 -2.45934 -1.92154 0
M  V30 1657 N 164.069 0.697108 -1.41344 0
M  V30 1658 C 165.309 1.46939 -1.42085 0
M  V30 1659 C 165.673 1.9198 -0.0280397 0
M  V30 1660 O 166.874 2.6865 0.0897504 0
M  V30 1661 C 165.145 2.64985 -2.39828 0
M  V30 1662 S 166.704 3.54147 -2.59085 0
M  V30 1663 H 163.522 0.502146 -0.503359 0
M  V30 1664 H 166.124 0.813546 -1.77769 0
M  V30 1665 H 164.828 2.30098 -3.39828 0
M  V30 1666 H 164.359 3.35464 -2.05493 0
M  V30 1667 H 166.374 4.60137 -1.85711 0
M  V30 1668 N 165.547 1.27147 0.931209 0
M  V30 1669 C 166.963 1.04475 1.20653 0
M  V30 1670 C 167.163 -0.223885 2.00252 0
M  V30 1671 O 166.219 -0.930332 2.34736 0
M  V30 1672 C 167.532 2.28209 1.95809 0
M  V30 1673 C 169.08 2.33211 2.08762 0
M  V30 1674 C 169.555 3.56665 2.87323 0
M  V30 1675 N 171.046 3.57201 2.94892 0
M  V30 1676 C 171.781 4.49395 3.56134 0
M  V30 1677 N 171.277 5.51889 4.18796 0
M  V30 1678 N 173.07 4.37026 3.53504 0
M  V30 1679 H 165.221 2.08612 0.399333 0
M  V30 1680 H 167.484 0.917312 0.239253 0
M  V30 1681 H 167.19 3.20538 1.44736 0
M  V30 1682 H 167.064 2.33247 2.96438 0
M  V30 1683 H 169.451 1.41391 2.59023 0
M  V30 1684 H 169.532 2.32178 1.07364 0
M  V30 1685 H 169.176 4.4882 2.37746 0
M  V30 1686 H 169.106 3.54948 3.88998 0
M  V30 1687 H 171.597 2.83074 2.50354 0
M  V30 1688 H 171.91 6.18409 4.63454 0
M  V30 1689 H 170.255 5.55735 4.17353 0
M  V30 1690 H 173.446 3.56166 3.03749 0
M  V30 1691 H 173.619 5.09067 4.00942 0
M  V30 1692 N 167.025 -1.13721 1.09112 0
M  V30 1693 C 167.955 -2.21148 0.749385 0
M  V30 1694 C 168.936 -1.6792 -0.271475 0
M  V30 1695 O 170.121 -1.93693 -0.140251 0
M  V30 1696 C 167.251 -3.46905 0.165659 0
M  V30 1697 C 166.205 -4.13203 1.11567 0
M  V30 1698 C 165.531 -5.33248 0.393809 0
M  V30 1699 C 166.831 -4.60912 2.45678 0
M  V30 1700 H 168.525 -2.4999 1.64758 0
M  V30 1701 H 166.071 -1.20156 0.793626 0
M  V30 1702 H 168.024 -4.21313 -0.085466 0
M  V30 1703 H 166.748 -3.17449 -0.767714 0
M  V30 1704 H 165.407 -3.40758 1.35202 0
M  V30 1705 H 165.055 -5.00054 -0.543599 0
M  V30 1706 H 164.755 -5.78552 1.02721 0
M  V30 1707 H 166.279 -6.10413 0.150908 0
M  V30 1708 H 167.693 -5.26759 2.26269 0
M  V30 1709 H 166.09 -5.16944 3.04776 0
M  V30 1710 H 167.16 -3.75603 3.06677 0
M  V30 1711 N 168.503 -0.877838 -1.30888 0
M  V30 1712 C 169.743 -0.499301 -1.98208 0
M  V30 1713 C 170.107 0.932649 -1.67826 0
M  V30 1714 O 171.308 1.41694 -2.28421 0
M  V30 1715 C 169.579 -0.758221 -3.49265 0
M  V30 1716 S 171.138 -0.480719 -4.36159 0
M  V30 1717 H 167.956 -0.186062 -0.686223 0
M  V30 1718 H 170.558 -1.13556 -1.59139 0
M  V30 1719 H 169.262 -1.79903 -3.68867 0
M  V30 1720 H 168.793 -0.109247 -3.93248 0
M  V30 1721 H 170.808 0.683698 -4.91467 0
M  V30 1722 N 169.982 1.44106 -0.638065 0
M  V30 1723 C 170.945 2.29138 0.0531013 0
M  V30 1724 C 171.945 1.41409 0.765506 0
M  V30 1725 O 173.135 1.63206 0.609046 0
M  V30 1726 C 170.267 3.23144 1.08584 0
M  V30 1727 H 171.46 2.91739 -0.694883 0
M  V30 1728 H 169.013 1.51134 -0.398538 0
M  V30 1729 H 169.748 2.65408 1.86357 0
M  V30 1730 H 169.533 3.87804 0.578852 0
M  V30 1731 H 171.023 3.87004 1.56899 0
M  V30 1732 N 171.46 0.379036 1.52974 0
M  V30 1733 C 172.871 -0.0972525 1.86447 0
M  V30 1734 C 173.222 -1.47027 1.29914 0
M  V30 1735 O 172.347 -2.07135 0.626433 0
M  V30 1736 C 172.942 -0.183248 3.38304 0
M  V30 1737 C 171.501 -0.603812 3.71525 0
M  V30 1738 C 170.648 0.240632 2.76254 0
M  V30 1739 H 173.599 0.597316 1.4703 0
M  V30 1740 H 173.62 -1.00432 3.67006 0
M  V30 1741 H 173.132 0.816191 3.79421 0
M  V30 1742 H 171.233 -1.61099 3.35973 0
M  V30 1743 H 171.346 -0.369086 4.77676 0
M  V30 1744 H 169.71 -0.292548 2.53014 0
M  V30 1745 H 170.493 1.23786 3.20206 0
M  V30 1746 N 172.938 -1.57226 0.108567 0
M  V30 1747 C 173.868 -2.17778 -0.84232 0
M  V30 1748 C 174.849 -1.11487 -1.2847 0
M  V30 1749 O 176.034 -1.39681 -1.34918 0
M  V30 1750 C 173.164 -2.76888 -2.09644 0
M  V30 1751 C 172.118 -3.88669 -1.79221 0
M  V30 1752 C 171.444 -4.34541 -3.11574 0
M  V30 1753 C 172.744 -5.11251 -1.06864 0
M  V30 1754 H 174.438 -2.97489 -0.337774 0
M  V30 1755 H 171.984 -1.43097 -0.161025 0
M  V30 1756 H 173.937 -3.17904 -2.76614 0
M  V30 1757 H 172.661 -1.94451 -2.62405 0
M  V30 1758 H 171.32 -3.48213 -1.14644 0
M  V30 1759 H 170.968 -3.48977 -3.62249 0
M  V30 1760 H 170.668 -5.09914 -2.91996 0
M  V30 1761 H 172.192 -4.782 -3.7968 0
M  V30 1762 H 173.606 -5.49352 -1.63968 0
M  V30 1763 H 172.003 -5.9214 -0.974178 0
M  V30 1764 H 173.073 -4.8487 -0.0536168 0
M  V30 1765 N 174.416 0.165178 -1.56732 0
M  V30 1766 C 175.832 0.517174 -1.50988 0
M  V30 1767 C 176.032 1.84331 -0.813894 0
M  V30 1768 O 175.088 2.49672 -0.37682 0
M  V30 1769 C 176.401 0.544261 -2.95733 0
M  V30 1770 C 177.949 0.631039 -3.06573 0
M  V30 1771 C 178.424 0.68896 -4.52788 0
M  V30 1772 N 179.915 0.751683 -4.5706 0
M  V30 1773 C 180.65 0.817177 -5.67547 0
M  V30 1774 N 180.146 0.843129 -6.8765 0
M  V30 1775 N 181.939 0.856668 -5.55534 0
M  V30 1776 H 174.09 -0.704318 -2.00382 0
M  V30 1777 H 176.353 -0.254687 -0.913148 0
M  V30 1778 H 176.059 -0.361607 -3.49836 0
M  V30 1779 H 175.933 1.3886 -3.5071 0
M  V30 1780 H 178.32 1.52733 -2.52501 0
M  V30 1781 H 178.401 -0.240095 -2.54671 0
M  V30 1782 H 178.045 -0.2031 -5.07494 0
M  V30 1783 H 177.975 1.57633 -5.02454 0
M  V30 1784 H 180.466 0.739661 -3.70591 0
M  V30 1785 H 180.779 0.894448 -7.67606 0
M  V30 1786 H 179.124 0.811304 -6.90248 0
M  V30 1787 H 182.315 0.833437 -4.60621 0
M  V30 1788 H 182.488 0.904247 -6.4166 0
M  V30 1789 N 175.894 1.51508 0.433938 0
M  V30 1790 C 176.841 1.73068 1.52696 0
M  V30 1791 C 177.811 0.572441 1.55924 0
M  V30 1792 O 178.996 0.807253 1.72882 0
M  V30 1793 C 176.136 1.86474 2.90381 0
M  V30 1794 C 175.249 3.14037 2.96656 0
M  V30 1795 C 174.384 3.18019 4.25485 0
M  V30 1796 C 173.423 4.39882 4.2564 0
M  V30 1797 N 172.56 4.41394 5.45999 0
M  V30 1798 H 177.4 2.66366 1.33615 0
M  V30 1799 H 174.937 1.32008 0.649018 0
M  V30 1800 H 176.895 1.92229 3.70275 0
M  V30 1801 H 175.525 0.965809 3.08013 0
M  V30 1802 H 174.577 3.17575 2.09404 0
M  V30 1803 H 175.889 4.0394 2.92633 0
M  V30 1804 H 175.043 3.22708 5.13755 0
M  V30 1805 H 173.782 2.2601 4.3217 0
M  V30 1806 H 172.787 4.35366 3.35763 0
M  V30 1807 H 174.012 5.33159 4.20617 0
M  V30 1808 H 171.958 3.52258 5.53399 0
M  V30 1809 H 171.875 5.25111 5.4387 0
M  V30 1810 H 173.143 4.50281 6.36292 0
M  V30 1811 N 177.372 -0.689602 1.41712 0
M  V30 1812 C 178.612 -1.46184 1.42862 0
M  V30 1813 C 178.976 -1.91962 0.0382204 0
M  V30 1814 O 180.177 -2.68694 -0.0755019 0
M  V30 1815 C 178.448 -2.6371 2.4123 0
M  V30 1816 S 180.007 -3.52768 2.6096 0
M  V30 1817 H 176.825 -0.49947 0.506015 0
M  V30 1818 H 179.427 -0.804107 1.78198 0
M  V30 1819 H 178.131 -2.28293 3.41044 0
M  V30 1820 H 177.662 -3.3437 2.07269 0
M  V30 1821 H 179.677 -4.59146 1.88148 0
M  V30 1822 N 178.85 -1.27639 -0.924453 0
M  V30 1823 C 180.266 -1.05113 -1.20097 0
M  V30 1824 C 180.466 0.213262 -2.00368 0
M  V30 1825 O 179.522 0.91787 -2.35226 0
M  V30 1826 C 180.835 -2.29244 -1.94596 0
M  V30 1827 C 182.383 -2.34315 -2.07522 0
M  V30 1828 C 182.858 -3.58183 -2.85427 0
M  V30 1829 N 184.349 -3.5876 -2.92994 0
M  V30 1830 C 185.084 -4.51277 -3.53746 0
M  V30 1831 N 184.58 -5.54102 -4.15863 0
M  V30 1832 N 186.373 -4.38894 -3.51181 0
M  V30 1833 H 178.524 -2.08821 -0.388264 0
M  V30 1834 H 180.787 -0.918568 -0.234385 0
M  V30 1835 H 180.493 -3.21301 -1.43034 0
M  V30 1836 H 180.367 -2.34816 -2.95197 0
M  V30 1837 H 182.754 -1.42762 -2.58269 0
M  V30 1838 H 182.835 -2.32744 -1.06131 0
M  V30 1839 H 182.479 -4.50074 -2.35363 0
M  V30 1840 H 182.409 -3.57006 -3.8711 0
M  V30 1841 H 184.9 -2.84398 -2.4885 0
M  V30 1842 H 185.213 -6.20859 -4.60168 0
M  V30 1843 H 183.558 -5.57941 -4.144 0
M  V30 1844 H 186.749 -3.57772 -3.01856 0
M  V30 1845 H 186.922 -5.11186 -3.98237 0
M  V30 1846 N 180.328 1.1314 -1.09713 0
M  V30 1847 C 181.739 1.66029 -0.853885 0
M  V30 1848 C 182.09 1.86241 0.617142 0
M  V30 1849 O 181.215 1.5834 1.47503 0
M  V30 1850 C 181.81 3.01599 -1.5435 0
M  V30 1851 C 180.369 3.51467 -1.34714 0
M  V30 1852 C 179.516 2.26648 -1.59769 0
M  V30 1853 H 182.467 0.970226 -1.25588 0
M  V30 1854 H 182.488 3.67709 -0.978267 0
M  V30 1855 H 182 2.86856 -2.6141 0
M  V30 1856 H 180.101 3.71408 -0.297838 0
M  V30 1857 H 180.214 4.314 -2.08401 0
M  V30 1858 H 178.578 2.33385 -1.01998 0
M  V30 1859 H 179.361 2.14467 -2.68065 0
M  V30 1860 N 181.806 0.884767 1.30421 0
M  V30 1861 C 183.054 0.502112 1.95763 0
M  V30 1862 C 183.375 -0.951815 1.70192 0
M  V30 1863 O 182.645 -1.6692 1.0254 0
M  V30 1864 H 181.225 0.182694 0.724315 0
M  V30 1865 H 183.887 1.1278 1.58955 0
M  V30 1866 H 182.983 0.672188 3.04775 0
M  V30 1867 N 183.284 -1.43765 0.645699 0
M  V30 1868 C 184.531 -2.01898 0.15604 0
M  V30 1869 C 184.859 -1.50887 -1.22733 0
M  V30 1870 O 184.114 -0.689271 -1.8316 0
M  V30 1871 C 184.413 -3.57238 0.107679 0
M  V30 1872 C 184.079 -4.27564 1.43178 0
M  V30 1873 C 182.741 -4.46492 1.7944 0
M  V30 1874 C 185.093 -4.67454 2.30513 0
M  V30 1875 C 182.421 -5.02573 3.02716 0
M  V30 1876 C 184.773 -5.24901 3.53074 0
M  V30 1877 C 183.437 -5.42046 3.89541 0
M  V30 1878 H 182.707 -0.738797 0.057099 0
M  V30 1879 H 185.354 -1.72341 0.834912 0
M  V30 1880 H 183.659 -3.86293 -0.654618 0
M  V30 1881 H 185.356 -3.99965 -0.287938 0
M  V30 1882 H 181.946 -4.13171 1.13963 0
M  V30 1883 H 186.13 -4.5253 2.0379 0
M  V30 1884 H 181.386 -5.14033 3.31028 0
M  V30 1885 H 185.56 -5.54758 4.20971 0
M  V30 1886 H 183.187 -5.85268 4.85145 0
M  V30 1887 N 184.763 -0.387143 -1.52771 0
M  V30 1888 C 186.011 0.195349 -2.01154 0
M  V30 1889 C 186.332 1.475 -1.27549 0
M  V30 1890 O 185.602 1.91878 -0.394924 0
M  V30 1891 H 184.182 0.075178 -0.743207 0
M  V30 1892 H 186.844 -0.518337 -1.87881 0
M  V30 1893 H 185.94 0.407096 -3.09434 0
M  V30 1894 N 186.241 1.57166 -0.116904 0
M  V30 1895 C 187.487 1.95412 0.542405 0
M  V30 1896 C 187.82 1.00019 1.66463 0
M  V30 1897 O 187.095 0.0370346 1.94465 0
M  V30 1898 C 187.378 3.43615 1.07708 0
M  V30 1899 C 187.231 4.49781 -0.0415868 0
M  V30 1900 C 188.55 3.93616 1.96861 0
M  V30 1901 H 185.669 0.710543 0.195696 0
M  V30 1902 H 188.311 1.89027 -0.192038 0
M  V30 1903 H 186.461 3.49187 1.70296 0
M  V30 1904 H 188.133 4.56308 -0.676793 0
M  V30 1905 H 186.376 4.28033 -0.705019 0
M  V30 1906 H 187.047 5.50733 0.373717 0
M  V30 1907 H 189.523 3.90335 1.44146 0
M  V30 1908 H 188.399 4.97838 2.3119 0
M  V30 1909 H 188.66 3.34188 2.89432 0
M  V30 1910 N 187.719 -0.156864 1.56817 0
M  V30 1911 C 188.682 -1.17781 1.96622 0
M  V30 1912 C 189.682 -1.36401 0.851555 0
M  V30 1913 O 190.872 -1.33561 1.11836 0
M  V30 1914 C 188.004 -2.54008 2.27361 0
M  V30 1915 H 189.197 -0.836564 2.87996 0
M  V30 1916 H 186.75 -0.39985 1.51099 0
M  V30 1917 H 187.485 -2.9312 1.38748 0
M  V30 1918 H 187.27 -2.41856 3.08623 0
M  V30 1919 H 188.76 -3.27558 2.59029 0
M  V30 1920 N 189.197 -1.51736 -0.425897 0
M  V30 1921 C 190.613 -1.40166 -0.76326 0
M  V30 1922 C 190.813 -0.492962 -1.95377 0
M  V30 1923 O 189.869 0.0475815 -2.52455 0
M  V30 1924 C 191.182 -2.82403 -1.03291 0
M  V30 1925 C 192.73 -2.91632 -1.13665 0
M  V30 1926 C 193.205 -4.34801 -1.43916 0
M  V30 1927 N 194.696 -4.3796 -1.50816 0
M  V30 1928 C 195.431 -5.4578 -1.75817 0
M  V30 1929 N 194.927 -6.63744 -1.98534 0
M  V30 1930 N 196.72 -5.33274 -1.77694 0
M  V30 1931 H 188.871 -2.09361 0.358 0
M  V30 1932 H 191.134 -0.942941 0.0978094 0
M  V30 1933 H 190.84 -3.50943 -0.230696 0
M  V30 1934 H 190.714 -3.22428 -1.95754 0
M  V30 1935 H 193.101 -2.23284 -1.92947 0
M  V30 1936 H 193.182 -2.55088 -0.190756 0
M  V30 1937 H 192.826 -5.03703 -0.65157 0
M  V30 1938 H 192.756 -4.68868 -2.39729 0
M  V30 1939 H 195.247 -3.52919 -1.35118 0
M  V30 1940 H 195.56 -7.41704 -2.17013 0
M  V30 1941 H 193.905 -6.66839 -1.95832 0
M  V30 1942 H 197.096 -4.40098 -1.59473 0
M  V30 1943 H 197.269 -6.1738 -1.9684 0
M  V30 1944 N 190.675 0.682077 -1.42076 0
M  V30 1945 C 192.086 1.26246 -1.37546 0
M  V30 1946 C 192.437 1.96092 -0.0651481 0
M  V30 1947 O 191.562 1.99587 0.836297 0
M  V30 1948 C 192.157 2.29594 -2.49143 0
M  V30 1949 C 190.716 2.83175 -2.47969 0
M  V30 1950 C 189.863 1.57395 -2.28303 0
M  V30 1951 H 192.814 0.475937 -1.51395 0
M  V30 1952 H 192.835 3.11175 -2.18976 0
M  V30 1953 H 192.347 1.78729 -3.44496 0
M  V30 1954 H 190.448 3.3818 -1.56413 0
M  V30 1955 H 190.561 3.32687 -3.44755 0
M  V30 1956 H 188.925 1.83699 -1.76428 0
M  V30 1957 H 189.708 1.08507 -3.25701 0
M  V30 1958 N 192.153 1.28127 0.917671 0
M  V30 1959 C 193.401 1.14825 1.66312 0
M  V30 1960 C 193.722 -0.304379 1.9261 0
M  V30 1961 O 192.992 -1.21149 1.53947 0
M  V30 1962 H 191.572 0.421953 0.616413 0
M  V30 1963 H 194.234 1.608 1.10134 0
M  V30 1964 H 193.33 1.68489 2.62712 0
M  V30 1965 N 193.631 -1.12557 1.10312 0
M  V30 1966 C 194.859 -1.87864 0.866873 0
M  V30 1967 C 195.274 -1.79588 -0.582557 0
M  V30 1968 O 194.631 -1.16887 -1.40156 0
M  V30 1969 C 194.682 -3.37125 1.30496 0
M  V30 1970 O 194.403 -3.45201 2.69755 0
M  V30 1971 C 195.904 -4.29373 1.10243 0
M  V30 1972 H 193.124 -0.594452 0.311236 0
M  V30 1973 H 195.668 -1.42429 1.46745 0
M  V30 1974 H 193.823 -3.80109 0.748081 0
M  V30 1975 H 194.237 -4.38056 2.88457 0
M  V30 1976 H 195.711 -5.32394 1.45811 0
M  V30 1977 H 196.188 -4.39181 0.0409492 0
M  V30 1978 H 196.794 -3.92169 1.64571 0
M  V30 1979 N 195.109 -0.891671 -1.2995 0
M  V30 1980 C 196.019 -0.367691 -2.31701 0
M  V30 1981 C 197.035 0.533486 -1.6562 0
M  V30 1982 O 198.211 0.424997 -1.96865 0
M  V30 1983 C 195.276 0.403406 -3.44345 0
M  V30 1984 C 194.337 -0.528328 -4.26037 0
M  V30 1985 C 193.57 0.206063 -5.33302 0
M  V30 1986 O 193.793 1.43119 -5.52153 0
M  V30 1987 O 192.727 -0.447281 -6.00236 0
M  V30 1988 H 196.553 -1.21163 -2.78484 0
M  V30 1989 H 194.138 -0.655725 -1.34241 0
M  V30 1990 H 196.02 0.839753 -4.12948 0
M  V30 1991 H 194.695 1.22354 -2.99685 0
M  V30 1992 H 193.602 -1.01362 -3.60106 0
M  V30 1993 H 194.935 -1.31465 -4.74318 0
M  V30 1994 N 196.587 1.43421 -0.653314 0
M  V30 1995 C 197.815 2.06163 -0.174491 0
M  V30 1996 C 198.23 1.48969 1.1599 0
M  V30 1997 O 197.587 0.621042 1.71608 0
M  V30 1998 C 197.638 3.61417 -0.0774865 0
M  V30 1999 O 197.359 4.16485 -1.35912 0
M  V30 2000 C 198.86 4.41235 0.427402 0
M  V30 2001 H 196.08 0.664946 -0.0899353 0
M  V30 2002 H 198.624 1.83924 -0.893988 0
M  V30 2003 H 196.779 3.82841 0.59257 0
M  V30 2004 H 197.193 5.10153 -1.21839 0
M  V30 2005 H 198.667 5.5021 0.44423 0
M  V30 2006 H 199.144 4.14268 1.45873 0
M  V30 2007 H 199.75 4.2478 -0.210167 0
M  V30 2008 N 198.065 0.39524 1.52563 0
M  V30 2009 C 199.29 -0.187456 2.06551 0
M  V30 2010 C 199.715 -1.39249 1.26457 0
M  V30 2011 O 199.073 -1.78947 0.291151 0
M  V30 2012 C 199.121 -0.529985 3.56684 0
M  V30 2013 O 198.225 -1.62307 3.79118 0
M  V30 2014 H 197.566 -0.0202537 0.663691 0
M  V30 2015 H 200.096 0.564426 1.96661 0
M  V30 2016 H 200.106 -0.792598 4.00227 0
M  V30 2017 H 198.781 0.350987 4.14416 0
M  V30 2018 H 197.358 -1.3537 3.47461 0
M  V30 2019 N 199.544 -1.57102 0.125237 0
M  V30 2020 C 200.821 -1.86953 -0.575142 0
M  V30 2021 C 201.201 -1.02749 -1.84407 0
M  V30 2022 O 200.549 -0.108144 -2.28244 0
M  V30 2023 C 200.759 -3.38198 -0.861583 0
M  V30 2024 C 202.107 -4.06937 -1.21192 0
M  V30 2025 O 203.131 -3.43252 -0.951645 0
M  V30 2026 O 201.99 -5.19364 -1.70068 0
M  V30 2027 H 199.084 -0.774147 -0.290906 0
M  V30 2028 H 201.63 -1.68942 0.160211 0
M  V30 2029 H 200.402 -3.91282 0.0373647 0
M  V30 2030 H 200.025 -3.61661 -1.65188 0
M  V30 2031 N 201.022 0.148545 -1.56898 0
M  V30 2032 C 202.268 0.862694 -1.83536 0
M  V30 2033 C 202.601 1.80889 -0.706604 0
M  V30 2034 O 201.876 1.92328 0.289885 0
M  V30 2035 C 202.159 1.63853 -3.20662 0
M  V30 2036 C 202.012 0.713925 -4.44098 0
M  V30 2037 C 203.331 2.60133 -3.54991 0
M  V30 2038 H 200.45 0.312179 -0.667618 0
M  V30 2039 H 203.092 0.127953 -1.89569 0
M  V30 2040 H 201.242 2.26489 -3.1565 0
M  V30 2041 H 202.914 0.098686 -4.61194 0
M  V30 2042 H 201.157 0.0234019 -4.33794 0
M  V30 2043 H 201.828 1.29278 -5.36648 0
M  V30 2044 H 204.304 2.07616 -3.60603 0
M  V30 2045 H 203.18 3.11468 -4.51972 0
M  V30 2046 H 203.441 3.41417 -2.80868 0
M  V30 2047 N 202.5 1.5196 0.417844 0
M  V30 2048 C 203.746 1.65836 1.16732 0
M  V30 2049 C 204.079 0.382881 1.90388 0
M  V30 2050 O 203.354 -0.618368 1.84408 0
M  V30 2051 C 203.637 2.87466 2.16876 0
M  V30 2052 C 203.49 4.25041 1.47174 0
M  V30 2053 C 204.809 3.04613 3.17646 0
M  V30 2054 H 201.928 0.603515 0.423011 0
M  V30 2055 H 204.57 1.84494 0.454105 0
M  V30 2056 H 202.72 2.71689 2.777 0
M  V30 2057 H 204.392 4.52527 0.895376 0
M  V30 2058 H 202.635 4.26843 0.773806 0
M  V30 2059 H 203.306 5.06176 2.20204 0
M  V30 2060 H 205.782 3.1923 2.66892 0
M  V30 2061 H 204.658 3.91247 3.8499 0
M  V30 2062 H 204.919 2.17541 3.84874 0
M  V30 2063 N 203.978 -0.674533 1.42435 0
M  V30 2064 C 205.218 -1.4466 1.44405 0
M  V30 2065 C 205.582 -1.91911 0.0585784 0
M  V30 2066 O 206.783 -2.68759 -0.0469991 0
M  V30 2067 C 205.054 -2.61136 2.44013 0
M  V30 2068 S 206.613 -3.49981 2.64687 0
M  V30 2069 H 203.431 -0.494074 0.511284 0
M  V30 2070 H 206.033 -0.785162 1.7904 0
M  V30 2071 H 204.737 -2.24662 3.43446 0
M  V30 2072 H 204.268 -3.32153 2.10803 0
M  V30 2073 H 206.283 -4.57124 1.93007 0
M  V30 2074 N 205.456 -1.28612 -0.910864 0
M  V30 2075 C 206.403 -1.12786 -2.01365 0
M  V30 2076 C 207.373 -0.024201 -1.66082 0
M  V30 2077 O 208.558 -0.189667 -1.89855 0
M  V30 2078 C 205.698 -0.798743 -3.35729 0
M  V30 2079 C 204.811 -1.98173 -3.83864 0
M  V30 2080 C 203.946 -1.59298 -5.06752 0
M  V30 2081 C 202.985 -2.74245 -5.47226 0
M  V30 2082 N 202.122 -2.35842 -6.61304 0
M  V30 2083 H 206.962 -2.07142 -2.14234 0
M  V30 2084 H 204.499 -1.03093 -1.0493 0
M  V30 2085 H 206.457 -0.588662 -4.13026 0
M  V30 2086 H 205.087 0.10789 -3.2262 0
M  V30 2087 H 204.139 -2.30386 -3.02699 0
M  V30 2088 H 205.451 -2.84343 -4.09818 0
M  V30 2089 H 204.605 -1.34513 -5.916 0
M  V30 2090 H 203.344 -0.702618 -4.82612 0
M  V30 2091 H 202.349 -2.99725 -4.60918 0
M  V30 2092 H 203.574 -3.63928 -5.73353 0
M  V30 2093 H 201.52 -1.49279 -6.38789 0
M  V30 2094 H 201.437 -3.15546 -6.86998 0
M  V30 2095 H 202.705 -2.14348 -7.4945 0
M  V30 2096 N 206.934 1.1197 -1.10907 0
M  V30 2097 C 208.345 1.65114 -0.871446 0
M  V30 2098 C 208.696 1.86885 0.597353 0
M  V30 2099 O 207.821 1.59896 1.45816 0
M  V30 2100 C 208.416 2.99944 -1.5754 0
M  V30 2101 C 206.975 3.50018 -1.38435 0
M  V30 2102 C 206.122 2.24941 -1.62164 0
M  V30 2103 H 209.073 0.956851 -1.2661 0
M  V30 2104 H 209.094 3.66651 -1.01721 0
M  V30 2105 H 208.606 2.84067 -2.64438 0
M  V30 2106 H 206.707 3.71071 -0.337214 0
M  V30 2107 H 206.82 4.29165 -2.12965 0
M  V30 2108 H 205.184 2.3229 -1.04467 0
M  V30 2109 H 205.967 2.11612 -2.70324 0
M  V30 2110 N 208.412 0.89855 1.29475 0
M  V30 2111 C 209.652 0.530771 1.97388 0
M  V30 2112 C 210.016 -0.905832 1.69289 0
M  V30 2113 O 211.217 -1.38042 2.30646 0
M  V30 2114 C 209.488 0.81369 3.48014 0
M  V30 2115 S 211.047 0.550048 4.35339 0
M  V30 2116 H 207.865 0.196956 0.683176 0
M  V30 2117 H 210.467 1.16074 1.57312 0
M  V30 2118 H 209.171 1.85749 3.65958 0
M  V30 2119 H 208.702 0.171795 3.93025 0
M  V30 2120 H 210.717 -0.605423 4.92493 0
M  V30 2121 N 209.89 -1.43072 0.660911 0
M  V30 2122 C 210.853 -2.29194 -0.0166406 0
M  V30 2123 C 211.853 -1.42609 -0.742912 0
M  V30 2124 O 213.043 -1.64155 -0.583004 0
M  V30 2125 C 210.175 -3.24831 -1.0343 0
M  V30 2126 H 211.368 -2.90596 0.741208 0
M  V30 2127 H 208.921 -1.5048 0.422532 0
M  V30 2128 H 209.656 -2.68339 -1.82111 0
M  V30 2129 H 209.441 -3.88676 -0.517082 0
M  V30 2130 H 210.931 -3.89451 -1.50723 0
M  V30 2131 N 211.368 -0.403325 -1.52352 0
M  V30 2132 C 212.779 0.0675782 -1.86578 0
M  V30 2133 C 213.13 1.44941 -1.32236 0
M  V30 2134 O 212.255 2.06112 -0.659307 0
M  V30 2135 C 212.85 0.129404 -3.38553 0
M  V30 2136 C 211.409 0.544629 -3.72439 0
M  V30 2137 C 210.556 -0.284551 -2.75836 0
M  V30 2138 H 213.507 -0.620631 -1.46061 0
M  V30 2139 H 213.528 0.94581 -3.68558 0
M  V30 2140 H 213.04 -0.87645 -3.78074 0
M  V30 2141 H 211.141 1.55734 -3.38493 0
M  V30 2142 H 211.254 0.293046 -4.78203 0
M  V30 2143 H 209.618 0.252258 -2.53448 0
M  V30 2144 H 210.401 -1.28865 -3.18196 0
M  V30 2145 N 212.846 1.57033 -0.133567 0
M  V30 2146 C 214.094 1.953 0.519848 0
M  V30 2147 C 214.415 1.01866 1.66278 0
M  V30 2148 O 213.685 0.0776513 1.95746 0
M  V30 2149 H 212.265 0.721091 0.195032 0
M  V30 2150 H 214.927 1.93809 -0.205921 0
M  V30 2151 H 214.023 2.98695 0.904854 0
M  V30 2152 N 214.325 -0.140222 1.56975 0
M  V30 2153 C 215.553 -0.866437 1.87884 0
M  V30 2154 C 215.968 -1.74428 0.722517 0
M  V30 2155 O 215.325 -1.79891 -0.30749 0
M  V30 2156 C 215.376 -1.71753 3.18093 0
M  V30 2157 O 215.097 -0.875056 4.29272 0
M  V30 2158 C 216.598 -2.55074 3.62563 0
M  V30 2159 H 213.818 -0.25019 0.622612 0
M  V30 2160 H 216.362 -0.130977 2.0408 0
M  V30 2161 H 214.517 -2.40598 3.03631 0
M  V30 2162 H 214.931 -1.46002 5.03769 0
M  V30 2163 H 216.405 -3.10356 4.5649 0
M  V30 2164 H 216.882 -3.31434 2.88181 0
M  V30 2165 H 217.488 -1.91509 3.79743 0
M  V30 2166 N 215.803 -1.52179 -0.40978 0
M  V30 2167 C 217.05 -1.66206 -1.15679 0
M  V30 2168 C 217.378 -0.391674 -1.90516 0
M  V30 2169 O 216.633 0.62533 -1.8544 0
M  V30 2170 C 216.932 -2.83428 -2.17723 0
M  V30 2171 C 216.598 -4.21672 -1.59699 0
M  V30 2172 C 215.26 -4.59274 -1.43599 0
M  V30 2173 C 217.612 -5.07825 -1.17317 0
M  V30 2174 C 214.94 -5.80709 -0.836328 0
M  V30 2175 C 217.292 -6.29864 -0.587691 0
M  V30 2176 C 215.956 -6.66216 -0.413818 0
M  V30 2177 H 215.226 -0.608192 -0.423301 0
M  V30 2178 H 217.873 -1.86279 -0.444097 0
M  V30 2179 H 216.178 -2.57687 -2.95135 0
M  V30 2180 H 217.875 -2.91477 -2.75394 0
M  V30 2181 H 214.465 -3.9204 -1.73213 0
M  V30 2182 H 218.649 -4.79359 -1.28565 0
M  V30 2183 H 213.905 -6.07498 -0.689626 0
M  V30 2184 H 218.079 -6.95948 -0.250894 0
M  V30 2185 H 215.706 -7.60182 0.0529471 0
M  V30 2186 N 217.281 0.66697 -1.42791 0
M  V30 2187 C 218.506 1.46004 -1.47301 0
M  V30 2188 C 218.931 1.87894 -0.0880317 0
M  V30 2189 O 218.289 1.56502 0.915253 0
M  V30 2190 C 218.337 2.68031 -2.41229 0
M  V30 2191 O 217.441 3.6659 -1.88906 0
M  V30 2192 H 216.782 0.43832 -0.49877 0
M  V30 2193 H 219.312 0.817391 -1.87563 0
M  V30 2194 H 219.322 3.1601 -2.58073 0
M  V30 2195 H 217.997 2.36883 -3.41847 0
M  V30 2196 H 216.574 3.25661 -1.81656 0
M  V30 2197 N 218.759 1.29093 0.90403 0
M  V30 2198 C 219.707 1.13727 2.02901 0
M  V30 2199 C 220.701 0.0539853 1.69314 0
M  V30 2200 O 221.907 0.213469 1.7873 0
M  V30 2201 H 218.282 0.35117 0.664969 0
M  V30 2202 H 220.253 2.08982 2.13001 0
M  V30 2203 C 219.002 0.826066 3.37745 0
M  V30 2204 H 218.325 1.65164 3.64089 0
M  V30 2205 H 219.765 0.758559 4.17159 0
M  V30 2206 C 218.224 -0.470541 3.33598 0
M  V30 2207 O 218.754 -1.49792 3.72727 0
M  V30 2208 N 216.96 -0.474812 2.86695 0
M  V30 2209 H 216.507 0.361692 2.55048 0
M  V30 2210 H 216.465 -1.34236 2.84303 0
M  V30 2211 N 220.237 -1.11381 1.11499 0
M  V30 2212 C 221.465 -1.86934 0.88675 0
M  V30 2213 C 221.88 -1.80195 -0.563476 0
M  V30 2214 O 221.237 -1.18367 -1.38908 0
M  V30 2215 C 221.288 -3.35722 1.34064 0
M  V30 2216 O 221.009 -3.4232 2.73401 0
M  V30 2217 C 222.51 -4.2818 1.14791 0
M  V30 2218 H 219.73 -0.591117 0.317523 0
M  V30 2219 H 222.274 -1.40865 1.48248 0
M  V30 2220 H 220.429 -3.79294 0.788355 0
M  V30 2221 H 220.843 -4.34971 2.93087 0
M  V30 2222 H 222.317 -5.30817 1.5145 0
M  V30 2223 H 222.794 -4.39113 0.0875279 0
M  V30 2224 H 223.4 -3.90402 1.68721 0
M  V30 2225 N 221.715 -0.905404 -1.28997 0
M  V30 2226 C 222.943 -0.549846 -1.9946 0
M  V30 2227 C 223.358 0.866834 -1.67724 0
M  V30 2228 O 222.715 1.57298 -0.925404 0
M  V30 2229 C 222.766 -0.739387 -3.53858 0
M  V30 2230 O 222.487 -2.10031 -3.84472 0
M  V30 2231 C 223.988 -0.389541 -4.41585 0
M  V30 2232 H 221.208 -0.210429 -0.637151 0
M  V30 2233 H 223.752 -1.21632 -1.64396 0
M  V30 2234 H 221.907 -0.120023 -3.87214 0
M  V30 2235 H 222.321 -2.13385 -4.79132 0
M  V30 2236 H 223.795 -0.572972 -5.49018 0
M  V30 2237 H 224.272 0.673756 -4.34001 0
M  V30 2238 H 224.878 -0.986089 -4.1371 0
M  V30 2239 N 223.193 1.4272 -0.668489 0
M  V30 2240 C 224.418 2.06484 -0.194758 0
M  V30 2241 C 224.843 1.49862 1.13679 0
M  V30 2242 O 224.201 0.614582 1.70565 0
M  V30 2243 C 224.249 3.60353 -0.133546 0
M  V30 2244 O 223.353 4.02464 0.899806 0
M  V30 2245 H 222.694 0.656137 -0.10188 0
M  V30 2246 H 225.224 1.82964 -0.915722 0
M  V30 2247 H 225.234 4.07976 0.0447041 0
M  V30 2248 H 223.909 4.00938 -1.1055 0
M  V30 2249 H 222.486 3.66402 0.693109 0
M  V30 2250 N 224.671 0.411399 1.52136 0
M  V30 2251 C 225.896 -0.165538 2.06738 0
M  V30 2252 C 226.321 -1.379 1.27926 0
M  V30 2253 O 225.679 -1.78628 0.310114 0
M  V30 2254 C 225.727 -0.492124 3.57226 0
M  V30 2255 O 224.831 -1.58276 3.80818 0
M  V30 2256 H 224.172 -0.0132132 0.663869 0
M  V30 2257 H 226.702 0.585253 1.96051 0
M  V30 2258 H 226.712 -0.750104 4.01045 0
M  V30 2259 H 225.387 0.394922 4.14021 0
M  V30 2260 H 223.964 -1.31677 3.48877 0
M  V30 2261 N 226.149 -1.5696 0.141893 0
M  V30 2262 C 227.377 -2.00322 -0.517579 0
M  V30 2263 C 227.792 -1.02193 -1.58752 0
M  V30 2264 O 227.149 -0.0181619 -1.82491 0
M  V30 2265 C 227.2 -3.43618 -1.12289 0
M  V30 2266 O 226.921 -4.37995 -0.0956929 0
M  V30 2267 C 228.422 -4.02231 -1.86347 0
M  V30 2268 H 225.642 -0.657243 -0.135177 0
M  V30 2269 H 228.186 -2.03146 0.234973 0
M  V30 2270 H 226.341 -3.41662 -1.82609 0
M  V30 2271 H 226.755 -5.21729 -0.538469 0
M  V30 2272 H 228.229 -5.04509 -2.23997 0
M  V30 2273 H 228.706 -3.42655 -2.74744 0
M  V30 2274 H 229.312 -4.07802 -1.20737 0
M  V30 2275 N 227.627 0.131896 -1.57047 0
M  V30 2276 C 228.904 0.871495 -1.75112 0
M  V30 2277 C 229.284 1.9866 -0.713949 0
M  V30 2278 O 228.632 2.26965 0.264447 0
M  V30 2279 C 228.842 1.40007 -3.19686 0
M  V30 2280 C 230.19 1.85752 -3.81813 0
M  V30 2281 O 231.214 1.49715 -3.23209 0
M  V30 2282 O 230.073 2.5226 -4.84796 0
M  V30 2283 H 227.167 0.412919 -0.716538 0
M  V30 2284 H 229.713 0.116641 -1.69299 0
M  V30 2285 H 228.485 0.599404 -3.86682 0
M  V30 2286 H 228.108 2.218 -3.29986 0
M  V30 2287 N 229.106 1.52395 0.401703 0
M  V30 2288 C 230.355 1.66044 1.14509 0
M  V30 2289 C 230.668 0.400216 1.91462 0
M  V30 2290 O 231.874 0.416632 2.68284 0
M  V30 2291 C 230.33 2.93388 2.0845 0
M  V30 2292 C 229.938 4.26545 1.36978 0
M  V30 2293 C 231.682 3.16402 2.83001 0
M  V30 2294 C 229.589 5.45007 2.29611 0
M  V30 2295 H 228.519 0.618562 0.431158 0
M  V30 2296 H 231.17 1.78886 0.40892 0
M  V30 2297 H 229.552 2.74263 2.8565 0
M  V30 2298 H 230.726 4.56179 0.650916 0
M  V30 2299 H 229.041 4.09692 0.74438 0
M  V30 2300 H 231.638 4.02085 3.52465 0
M  V30 2301 H 231.981 2.30943 3.46368 0
M  V30 2302 H 232.514 3.36034 2.12898 0
M  V30 2303 H 229.253 6.32835 1.70879 0
M  V30 2304 H 228.773 5.19702 2.9945 0
M  V30 2305 H 230.452 5.7838 2.89974 0
M  V30 2306 N 230.584 -0.659388 1.43143 0
M  V30 2307 C 231.824 -1.43121 1.45931 0
M  V30 2308 C 232.188 -1.91838 0.0789298 0
M  V30 2309 O 233.389 -2.68794 -0.018491 0
M  V30 2310 C 231.66 -2.58534 2.46769 0
M  V30 2311 S 233.219 -3.47154 2.68384 0
M  V30 2312 H 230.037 -0.488624 0.516496 0
M  V30 2313 H 232.639 -0.766128 1.79863 0
M  V30 2314 H 231.343 -2.21007 3.45809 0
M  V30 2315 H 230.874 -3.29898 2.14315 0
M  V30 2316 H 232.889 -4.55051 1.97845 0
M  V30 2317 N 232.062 -1.29571 -0.897171 0
M  V30 2318 C 233.478 -1.07637 -1.17841 0
M  V30 2319 C 233.678 0.170713 -2.00776 0
M  V30 2320 O 232.734 0.867768 -2.3712 0
M  V30 2321 C 234.047 -2.3332 -1.8969 0
M  V30 2322 C 235.595 -2.38664 -2.02505 0
M  V30 2323 C 236.07 -3.64157 -2.77765 0
M  V30 2324 N 237.561 -3.64894 -2.85318 0
M  V30 2325 C 238.296 -4.58679 -3.44094 0
M  V30 2326 N 237.792 -5.62799 -4.04017 0
M  V30 2327 N 239.585 -4.46245 -3.41793 0
M  V30 2328 H 231.736 -2.09598 -0.343883 0
M  V30 2329 H 233.999 -0.923333 -0.214848 0
M  V30 2330 H 233.705 -3.24262 -1.36187 0
M  V30 2331 H 233.579 -2.41025 -2.9015 0
M  V30 2332 H 235.966 -1.48208 -2.55183 0
M  V30 2333 H 236.047 -2.34943 -1.01171 0
M  V30 2334 H 235.691 -4.54965 -2.25763 0
M  V30 2335 H 235.621 -3.65137 -3.7945 0
M  V30 2336 H 238.112 -2.89613 -2.42761 0
M  V30 2337 H 238.425 -6.3048 -4.46895 0
M  V30 2338 H 236.77 -5.66605 -4.02472 0
M  V30 2339 H 239.961 -3.64094 -2.94199 0
M  V30 2340 H 240.134 -5.19518 -3.87304 0
M  V30 2341 N 233.54 1.10788 -1.12088 0
M  V30 2342 C 234.951 1.64181 -0.88891 0
M  V30 2343 C 235.302 1.87508 0.577498 0
M  V30 2344 O 234.427 1.61434 1.44112 0
M  V30 2345 C 235.022 2.98257 -1.60712 0
M  V30 2346 C 233.581 3.4853 -1.42139 0
M  V30 2347 C 232.728 2.23208 -1.6454 0
M  V30 2348 H 235.679 0.943368 -1.27618 0
M  V30 2349 H 235.7 3.65552 -1.05604 0
M  V30 2350 H 235.212 2.81246 -2.67436 0
M  V30 2351 H 233.313 3.70692 -0.376552 0
M  V30 2352 H 233.426 4.26882 -2.17505 0
M  V30 2353 H 231.79 2.31169 -1.06925 0
M  V30 2354 H 232.573 2.08733 -2.72554 0
M  V30 2355 N 235.018 0.912232 1.28515 0
M  V30 2356 C 235.968 0.370649 2.24967 0
M  V30 2357 C 236.952 -0.516375 1.52389 0
M  V30 2358 O 238.144 -0.356345 1.73376 0
M  V30 2359 C 235.273 -0.389526 3.41083 0
M  V30 2360 C 234.359 0.51313 4.20984 0
M  V30 2361 N 234.75 1.62604 4.78951 0
M  V30 2362 C 233.048 0.313235 4.44899 0
M  V30 2363 C 233.749 2.18619 5.39055 0
M  V30 2364 N 232.725 1.47765 5.23132 0
M  V30 2365 H 236.527 1.22061 2.67354 0
M  V30 2366 H 234.041 0.764712 1.43269 0
M  V30 2367 H 236.038 -0.794353 4.09262 0
M  V30 2368 H 234.698 -1.2366 3.0023 0
M  V30 2369 H 235.709 2.00864 4.77362 0
M  V30 2370 H 232.386 -0.494452 4.14562 0
M  V30 2371 H 233.776 3.12228 5.94948 0
M  V30 2372 N 236.496 -1.42363 0.676048 0
M  V30 2373 C 237.428 -2.29164 -0.0404605 0
M  V30 2374 C 238.441 -1.43747 -0.764245 0
M  V30 2375 O 239.63 -1.67453 -0.618195 0
M  V30 2376 C 236.73 -3.21196 -1.08103 0
M  V30 2377 C 235.903 -4.35273 -0.430812 0
M  V30 2378 C 234.962 -5.08017 -1.37133 0
M  V30 2379 O 233.988 -5.62494 -0.87116 0
M  V30 2380 N 235.19 -5.13647 -2.70456 0
M  V30 2381 H 237.955 -2.91298 0.704667 0
M  V30 2382 H 235.516 -1.53303 0.520559 0
M  V30 2383 H 237.508 -3.66728 -1.71152 0
M  V30 2384 H 236.078 -2.60505 -1.72788 0
M  V30 2385 H 235.298 -3.92372 0.379209 0
M  V30 2386 H 236.586 -5.08795 0.0221132 0
M  V30 2387 H 235.984 -4.708 -3.1363 0
M  V30 2388 H 234.541 -5.62821 -3.28749 0
M  V30 2389 N 237.974 -0.419461 -1.51915 0
M  V30 2390 C 239.223 0.154346 -2.01109 0
M  V30 2391 C 239.536 1.45338 -1.30905 0
M  V30 2392 O 240.742 2.10906 -1.7097 0
M  V30 2393 C 239.198 0.325615 -3.58424 0
M  V30 2394 C 238.806 -0.961934 -4.37551 0
M  V30 2395 C 240.55 0.854155 -4.15818 0
M  V30 2396 C 238.457 -0.757287 -5.86531 0
M  V30 2397 H 237.387 0.0614563 -0.751491 0
M  V30 2398 H 240.038 -0.54649 -1.75173 0
M  V30 2399 H 238.42 1.08903 -3.80731 0
M  V30 2400 H 239.594 -1.7323 -4.26999 0
M  V30 2401 H 237.909 -1.41766 -3.91524 0
M  V30 2402 H 240.506 1.02346 -5.24814 0
M  V30 2403 H 240.849 1.83172 -3.73837 0
M  V30 2404 H 241.382 0.149528 -3.97519 0
M  V30 2405 H 238.121 -1.70671 -6.32892 0
M  V30 2406 H 237.641 -0.0264061 -5.99794 0
M  V30 2407 H 239.32 -0.403482 -6.45741 0
M  V30 2408 N 239.452 1.56882 -0.150215 0
M  V30 2409 C 240.692 1.98119 0.502804 0
M  V30 2410 C 241.056 1.03327 1.61826 0
M  V30 2411 O 242.257 1.33621 2.33236 0
M  V30 2412 C 240.528 3.43329 0.992988 0
M  V30 2413 S 242.087 4.0659 1.65015 0
M  V30 2414 H 238.905 0.692189 0.162467 0
M  V30 2415 H 241.507 1.93988 -0.242689 0
M  V30 2416 H 240.211 4.10046 0.170436 0
M  V30 2417 H 239.742 3.5118 1.77303 0
M  V30 2418 H 241.757 3.99906 2.93752 0
M  V30 2419 N 240.93 -0.123565 1.57115 0
M  V30 2420 C 241.878 -1.17082 2.00984 0
M  V30 2421 C 242.872 -1.43136 0.906009 0
M  V30 2422 O 244.078 -1.43152 1.09121 0
M  V30 2423 H 240.453 -0.394653 0.64012 0
M  V30 2424 H 242.424 -0.774292 2.88179 0
M  V30 2425 C 241.173 -2.49057 2.42623 0
M  V30 2426 H 240.496 -2.29846 3.27125 0
M  V30 2427 H 241.936 -3.20906 2.7712 0
M  V30 2428 C 240.395 -3.11305 1.28805 0
M  V30 2429 O 240.925 -3.97171 0.60153 0
M  V30 2430 N 239.131 -2.71111 1.04628 0
M  V30 2431 H 238.678 -2.01382 1.60634 0
M  V30 2432 H 238.636 -3.1309 0.286685 0
M  V30 2433 N 242.408 -1.52605 -0.393616 0
M  V30 2434 C 243.654 -1.67672 -1.14079 0
M  V30 2435 C 243.987 -0.413121 -1.89755 0
M  V30 2436 O 243.262 0.588952 -1.85369 0
M  V30 2437 C 243.545 -2.9088 -2.12276 0
M  V30 2438 C 243.398 -4.27329 -1.40394 0
M  V30 2439 C 244.717 -3.09628 -3.12759 0
M  V30 2440 H 241.836 -0.610168 -0.413356 0
M  V30 2441 H 244.478 -1.85193 -0.424696 0
M  V30 2442 H 242.628 -2.76073 -2.73342 0
M  V30 2443 H 244.3 -4.53894 -0.82327 0
M  V30 2444 H 242.543 -4.2802 -0.705801 0
M  V30 2445 H 243.214 -5.09615 -2.12123 0
M  V30 2446 H 245.69 -3.23436 -2.61779 0
M  V30 2447 H 244.566 -3.97322 -3.78717 0
M  V30 2448 H 244.827 -2.23637 -3.81365 0
M  V30 2449 N 243.887 0.651787 -1.4349 0
M  V30 2450 C 245.133 1.41376 -1.45398 0
M  V30 2451 C 245.466 1.94041 -0.0784823 0
M  V30 2452 O 244.741 1.72379 0.900878 0
M  V30 2453 C 245.024 2.59414 -2.49752 0
M  V30 2454 C 244.877 2.12232 -3.96582 0
M  V30 2455 C 246.196 3.61626 -2.50827 0
M  V30 2456 H 243.315 0.512719 -0.529422 0
M  V30 2457 H 245.957 0.738796 -1.75048 0
M  V30 2458 H 244.107 3.16997 -2.246 0
M  V30 2459 H 245.779 1.59639 -4.32797 0
M  V30 2460 H 244.022 1.43592 -4.09346 0
M  V30 2461 H 244.693 2.9712 -4.65214 0
M  V30 2462 H 247.169 3.13805 -2.7325 0
M  V30 2463 H 246.045 4.41766 -3.25783 0
M  V30 2464 H 246.306 4.14314 -1.5426 0
M  V30 2465 N 245.365 1.30045 0.890287 0
M  V30 2466 C 246.328 1.15963 1.977 0
M  V30 2467 C 247.328 0.0923777 1.60534 0
M  V30 2468 O 248.518 0.340071 1.70848 0
M  V30 2469 C 245.65 0.775451 3.31963 0
M  V30 2470 H 246.843 2.12502 2.11619 0
M  V30 2471 H 244.396 1.13366 1.07601 0
M  V30 2472 H 245.131 -0.189671 3.23745 0
M  V30 2473 H 244.916 1.54668 3.60306 0
M  V30 2474 H 246.406 0.700251 4.11687 0
M  V30 2475 N 246.843 -1.10192 1.12674 0
M  V30 2476 C 248.092 -1.81573 0.8783 0
M  V30 2477 C 248.405 -1.86249 -0.597557 0
M  V30 2478 O 249.611 -2.5386 -0.962681 0
M  V30 2479 C 248.067 -3.26149 1.52167 0
M  V30 2480 C 247.675 -3.29763 3.03249 0
M  V30 2481 C 249.419 -4.0234 1.3536 0
M  V30 2482 C 247.326 -4.68815 3.60508 0
M  V30 2483 H 246.256 -0.680394 0.324931 0
M  V30 2484 H 248.907 -1.23902 1.35353 0
M  V30 2485 H 247.289 -3.83832 0.974104 0
M  V30 2486 H 248.463 -2.8189 3.6452 0
M  V30 2487 H 246.778 -2.67059 3.19481 0
M  V30 2488 H 249.375 -5.05058 1.75559 0
M  V30 2489 H 249.718 -4.15235 0.297554 0
M  V30 2490 H 250.251 -3.51079 1.87052 0
M  V30 2491 H 246.99 -4.61121 4.65884 0
M  V30 2492 H 246.51 -5.17045 3.04014 0
M  V30 2493 H 248.189 -5.37785 3.59717 0
M  V30 2494 N 248.321 -0.919034 -1.28029 0
M  V30 2495 C 249.732 -0.600735 -1.76771 0
M  V30 2496 C 250.083 0.884024 -1.75156 0
M  V30 2497 O 249.208 1.69163 -1.34956 0
M  V30 2498 C 249.803 -1.08372 -3.21 0
M  V30 2499 C 248.362 -0.816248 -3.67443 0
M  V30 2500 C 247.509 -1.24742 -2.47658 0
M  V30 2501 H 250.46 -1.09974 -1.14418 0
M  V30 2502 H 250.481 -0.427512 -3.78091 0
M  V30 2503 H 249.993 -2.16437 -3.22144 0
M  V30 2504 H 248.094 0.250968 -3.71754 0
M  V30 2505 H 248.207 -1.4277 -4.57333 0
M  V30 2506 H 246.571 -0.666083 -2.45836 0
M  V30 2507 H 247.354 -2.33653 -2.51518 0
M  V30 2508 N 249.799 1.42003 -0.683588 0
M  V30 2509 C 251.047 2.01015 -0.209101 0
M  V30 2510 C 251.368 1.54365 1.19149 0
M  V30 2511 O 250.638 0.769083 1.80172 0
M  V30 2512 H 249.218 0.743294 -0.074315 0
M  V30 2513 H 251.88 1.73798 -0.882066 0
M  V30 2514 H 250.976 3.11343 -0.2172 0
M  V30 2515 N 251.277 0.427512 1.51691 0
M  V30 2516 C 252.225 -0.403359 2.29076 0
M  V30 2517 C 253.219 -1.02962 1.34518 0
M  V30 2518 O 254.425 -0.965715 1.51901 0
M  V30 2519 H 250.8 -0.148879 0.737115 0
M  V30 2520 H 252.771 0.270295 2.97173 0
M  V30 2521 C 251.52 -1.49763 3.13794 0
M  V30 2522 H 250.843 -1.02508 3.86435 0
M  V30 2523 H 252.283 -2.05244 3.71014 0
M  V30 2524 C 250.742 -2.47536 2.28533 0
M  V30 2525 O 251.272 -3.51848 1.93819 0
M  V30 2526 N 249.478 -2.18187 1.91945 0
M  V30 2527 H 249.025 -1.33389 2.20375 0
M  V30 2528 H 248.983 -2.83848 1.35195 0
M  V30 2529 N 252.755 -1.56801 0.158532 0
M  V30 2530 C 253.718 -2.16138 -0.762705 0
M  V30 2531 C 254.718 -1.1061 -1.16713 0
M  V30 2532 O 255.908 -1.36191 -1.08617 0
M  V30 2533 C 253.04 -2.73386 -2.03649 0
M  V30 2534 H 254.233 -2.98886 -0.246354 0
M  V30 2535 H 251.786 -1.56035 -0.0909744 0
M  V30 2536 H 252.521 -1.94335 -2.59623 0
M  V30 2537 H 252.306 -3.50601 -1.75559 0
M  V30 2538 H 253.796 -3.19065 -2.6942 0
M  V30 2539 N 254.233 0.115231 -1.57178 0
M  V30 2540 C 255.458 0.840354 -1.89612 0
M  V30 2541 C 255.883 1.72464 -0.750845 0
M  V30 2542 O 255.241 1.78826 0.298478 0
M  V30 2543 C 255.289 1.64654 -3.20814 0
M  V30 2544 O 254.393 2.7538 -3.06985 0
M  V30 2545 H 253.734 0.232158 -0.622092 0
M  V30 2546 H 256.264 0.0964977 -2.04372 0
M  V30 2547 H 256.274 2.03499 -3.53627 0
M  V30 2548 H 254.949 0.997416 -4.03763 0
M  V30 2549 H 253.526 2.3971 -2.85646 0
M  V30 2550 N 255.711 1.52812 0.385517 0
M  V30 2551 C 256.644 1.72592 1.49289 0
M  V30 2552 C 257.622 0.573819 1.52138 0
M  V30 2553 O 258.806 0.80404 1.70492 0
M  V30 2554 C 255.933 1.78669 2.87741 0
M  V30 2555 C 254.979 3.00455 3.02703 0
M  V30 2556 S 255.812 4.60366 2.73538 0
M  V30 2557 C 256.968 4.69263 4.14177 0
M  V30 2558 H 257.201 2.66248 1.32285 0
M  V30 2559 H 254.734 1.43148 0.578611 0
M  V30 2560 H 256.692 1.82855 3.67524 0
M  V30 2561 H 255.353 0.861 3.02069 0
M  V30 2562 H 254.546 3.01258 4.04054 0
M  V30 2563 H 254.148 2.94278 2.30817 0
M  V30 2564 H 256.44 4.48092 5.08153 0
M  V30 2565 H 257.383 5.71276 4.18388 0
M  V30 2566 H 257.791 3.98072 4.00249 0
M  V30 2567 N 257.189 -0.644168 1.43834 0
M  V30 2568 C 258.466 -1.40188 1.36406 0
M  V30 2569 C 258.846 -2.11094 0.0163124 0
M  V30 2570 O 258.194 -2.05426 -1.00062 0
M  V30 2571 C 258.404 -2.3791 2.55343 0
M  V30 2572 C 259.752 -3.01637 2.98832 0
M  V30 2573 O 260.776 -2.48237 2.55455 0
M  V30 2574 O 259.635 -3.98477 3.74003 0
M  V30 2575 H 256.729 -0.626773 0.539523 0
M  V30 2576 H 259.275 -0.670317 1.559 0
M  V30 2577 H 258.047 -1.84525 3.4506 0
M  V30 2578 H 257.67 -3.18503 2.37995 0
M  V30 2579 N 258.668 -1.30515 -0.883378 0
M  V30 2580 C 259.631 -1.1701 -1.97082 0
M  V30 2581 C 260.631 -0.10089 -1.60483 0
M  V30 2582 O 261.821 -0.349127 -1.70666 0
M  V30 2583 C 258.953 -0.793045 -3.31547 0
M  V30 2584 H 260.146 -2.13622 -2.10489 0
M  V30 2585 H 257.699 -1.13935 -1.06998 0
M  V30 2586 H 258.434 0.172499 -3.23841 0
M  V30 2587 H 258.219 -1.56576 -3.5948 0
M  V30 2588 H 259.709 -0.722073 -4.1131 0
M  V30 2589 N 260.146 1.09593 -1.13257 0
M  V30 2590 C 261.392 1.82003 -0.89458 0
M  V30 2591 C 261.725 1.85402 0.577906 0
M  V30 2592 O 261 1.32099 1.42759 0
M  V30 2593 C 261.283 3.28237 -1.48096 0
M  V30 2594 C 261.136 3.3312 -3.02244 0
M  V30 2595 C 262.455 4.24871 -1.14774 0
M  V30 2596 H 259.574 0.66077 -0.326424 0
M  V30 2597 H 262.216 1.28389 -1.40058 0
M  V30 2598 H 260.366 3.74024 -1.05062 0
M  V30 2599 H 262.038 2.95748 -3.54021 0
M  V30 2600 H 260.281 2.72756 -3.37323 0
M  V30 2601 H 260.952 4.3613 -3.38371 0
M  V30 2602 H 263.428 3.87361 -1.51957 0
M  V30 2603 H 262.304 5.25532 -1.58452 0
M  V30 2604 H 262.565 4.42058 -0.0611849 0
M  V30 2605 N 261.624 0.925811 1.2754 0
M  V30 2606 C 262.864 0.572521 1.96218 0
M  V30 2607 C 263.228 -0.869719 1.71172 0
M  V30 2608 O 264.429 -1.33119 2.33523 0
M  V30 2609 C 262.7 0.887325 3.4621 0
M  V30 2610 S 264.259 0.642266 4.34074 0
M  V30 2611 H 261.077 0.211403 0.678845 0
M  V30 2612 H 263.679 1.19384 1.54815 0
M  V30 2613 H 262.383 1.93469 3.61936 0
M  V30 2614 H 261.914 0.255123 3.92572 0
M  V30 2615 H 263.929 -0.500822 4.93666 0
M  V30 2616 N 263.102 -1.41638 0.69111 0
M  V30 2617 C 264.33 -2.05628 0.22909 0
M  V30 2618 C 264.745 -1.51992 -1.11999 0
M  V30 2619 O 264.102 -0.666322 -1.69901 0
M  V30 2620 C 264.153 -3.61084 0.173283 0
M  V30 2621 O 263.874 -4.12735 1.46907 0
M  V30 2622 C 265.375 -4.42213 -0.310266 0
M  V30 2623 H 262.595 -0.662327 0.107534 0
M  V30 2624 H 265.139 -1.81489 0.942438 0
M  V30 2625 H 263.294 -3.84278 -0.490858 0
M  V30 2626 H 263.708 -5.06743 1.35322 0
M  V30 2627 H 265.182 -5.51194 -0.298196 0
M  V30 2628 H 265.659 -4.1799 -1.34838 0
M  V30 2629 H 266.265 -4.24074 0.322716 0
M  V30 2630 N 264.58 -0.43555 -1.51462 0
M  V30 2631 C 265.805 0.132627 -2.06976 0
M  V30 2632 C 266.23 1.35848 -1.30104 0
M  V30 2633 O 265.588 1.78112 -0.338493 0
M  V30 2634 C 265.636 0.43523 -3.57964 0
M  V30 2635 O 264.74 1.52198 -3.83288 0
M  V30 2636 H 264.081 0.00265 -0.663995 0
M  V30 2637 H 266.611 -0.616369 -1.95095 0
M  V30 2638 H 266.621 0.686206 -4.02188 0
M  V30 2639 H 265.296 -0.460739 -4.1334 0
M  V30 2640 H 263.873 1.2611 -3.50928 0
M  V30 2641 N 266.058 1.56714 -0.166846 0
M  V30 2642 C 267.286 2.0112 0.485644 0
M  V30 2643 C 267.701 1.04705 1.57106 0
M  V30 2644 O 267.058 0.0471923 1.82439 0
M  V30 2645 C 267.109 3.45361 1.06808 0
M  V30 2646 O 266.83 4.38092 0.0259995 0
M  V30 2647 C 268.331 4.05145 1.79924 0
M  V30 2648 H 265.551 0.65931 0.124704 0
M  V30 2649 H 268.095 2.02746 -0.267262 0
M  V30 2650 H 266.25 3.44524 1.7715 0
M  V30 2651 H 266.664 5.22519 0.455398 0
M  V30 2652 H 268.138 5.08009 2.15942 0
M  V30 2653 H 268.615 3.46982 2.69258 0
M  V30 2654 H 269.221 4.09672 1.14234 0
M  V30 2655 N 267.536 -0.106894 1.57237 0
M  V30 2656 C 268.761 -0.830287 1.90055 0
M  V30 2657 C 269.186 -1.72064 0.75998 0
M  V30 2658 O 268.544 -1.78982 -0.288991 0
M  V30 2659 C 268.592 -1.6295 3.21683 0
M  V30 2660 O 267.696 -2.73748 3.08441 0
M  V30 2661 H 267.037 -0.228855 0.623315 0
M  V30 2662 H 269.567 -0.085658 2.04421 0
M  V30 2663 H 269.577 -2.01621 3.54701 0
M  V30 2664 H 268.252 -0.975989 4.04286 0
M  V30 2665 H 266.829 -2.38192 2.86913 0
M  V30 2666 N 269.014 -1.53014 -0.377408 0
M  V30 2667 C 270.425 -1.60438 -0.954798 0
M  V30 2668 C 270.776 -0.464418 -1.90624 0
M  V30 2669 O 269.901 0.41087 -2.12464 0
M  V30 2670 C 270.496 -2.90797 -1.73847 0
M  V30 2671 C 269.055 -3.00595 -2.26538 0
M  V30 2672 C 268.202 -2.55645 -1.07429 0
M  V30 2673 H 271.153 -1.57926 -0.156575 0
M  V30 2674 H 271.174 -2.77935 -2.5987 0
M  V30 2675 H 270.686 -3.73746 -1.04574 0
M  V30 2676 H 268.787 -2.22208 -2.99089 0
M  V30 2677 H 268.9 -4.05456 -2.5523 0
M  V30 2678 H 267.264 -2.10239 -1.43777 0
M  V30 2679 H 268.047 -3.41 -0.396728 0
M  V30 2680 N 270.492 0.636531 -1.44174 0
M  V30 2681 C 271.72 1.42353 -1.50144 0
M  V30 2682 C 272.135 1.88389 -0.124575 0
M  V30 2683 O 271.492 1.6051 0.868489 0
M  V30 2684 C 271.543 2.64744 -2.46156 0
M  V30 2685 O 271.264 2.20629 -3.7849 0
M  V30 2686 C 272.765 3.57929 -2.61537 0
M  V30 2687 H 269.985 0.436752 -0.5094 0
M  V30 2688 H 272.529 0.778933 -1.89084 0
M  V30 2689 H 270.684 3.25307 -2.10366 0
M  V30 2690 H 271.098 2.99938 -4.30276 0
M  V30 2691 H 272.572 4.40428 -3.32757 0
M  V30 2692 H 273.049 4.06382 -1.66585 0
M  V30 2693 H 273.655 3.03238 -2.98206 0
M  V30 2694 N 271.97 1.30982 0.876444 0
M  V30 2695 C 273.386 1.09498 1.16113 0
M  V30 2696 C 273.586 -0.13875 2.01022 0
M  V30 2697 O 272.642 -0.829935 2.38471 0
M  V30 2698 C 273.955 2.36308 1.85954 0
M  V30 2699 C 275.503 2.41856 1.98683 0
M  V30 2700 C 275.978 3.6853 2.71937 0
M  V30 2701 N 277.469 3.69387 2.79477 0
M  V30 2702 C 278.204 4.64096 3.36753 0
M  V30 2703 N 277.7 5.69155 3.95012 0
M  V30 2704 N 279.493 4.51626 3.3465 0
M  V30 2705 H 271.644 2.10118 0.310494 0
M  V30 2706 H 273.907 0.926634 0.200131 0
M  V30 2707 H 273.613 3.26388 1.31011 0
M  V30 2708 H 273.487 2.4561 2.86278 0
M  V30 2709 H 275.874 1.52249 2.52793 0
M  V30 2710 H 275.955 2.36523 0.9742 0
M  V30 2711 H 275.599 4.58499 2.18496 0
M  V30 2712 H 275.529 3.71127 3.73593 0
M  V30 2713 H 278.02 2.93438 2.38123 0
M  V30 2714 H 278.333 6.3751 4.36808 0
M  V30 2715 H 276.678 5.72937 3.93406 0
M  V30 2716 H 279.869 3.68728 2.8837 0
M  V30 2717 H 280.042 5.25614 3.7899 0
M  V30 2718 N 273.449 -1.08991 1.13837 0
M  V30 2719 C 274.674 -1.85551 0.926585 0
M  V30 2720 C 275.099 -1.80782 -0.519566 0
M  V30 2721 O 274.457 -1.18855 -1.36906 0
M  V30 2722 C 274.505 -3.31266 1.42462 0
M  V30 2723 O 273.609 -4.07822 0.612789 0
M  V30 2724 H 272.95 -0.575192 0.331738 0
M  V30 2725 H 275.48 -1.37604 1.51414 0
M  V30 2726 H 275.49 -3.82112 1.43019 0
M  V30 2727 H 274.165 -3.34052 2.47754 0
M  V30 2728 H 272.742 -3.66731 0.675463 0
M  V30 2729 N 274.927 -0.932562 -1.27047 0
M  V30 2730 C 275.86 -0.379774 -2.25018 0
M  V30 2731 C 276.838 0.526587 -1.53837 0
M  V30 2732 O 278.022 0.465992 -1.82649 0
M  V30 2733 C 275.149 0.455187 -3.35627 0
M  V30 2734 C 274.195 -0.388428 -4.24728 0
M  V30 2735 S 275.028 -1.80701 -5.04091 0
M  V30 2736 C 276.184 -0.979865 -6.18182 0
M  V30 2737 H 276.417 -1.2101 -2.71558 0
M  V30 2738 H 273.95 -0.735078 -1.35779 0
M  V30 2739 H 275.908 0.931052 -3.99802 0
M  V30 2740 H 274.569 1.26009 -2.87716 0
M  V30 2741 H 273.762 0.25089 -5.03375 0
M  V30 2742 H 273.364 -0.798649 -3.65373 0
M  V30 2743 H 275.656 -0.218115 -6.77149 0
M  V30 2744 H 276.599 -1.73951 -6.86401 0
M  V30 2745 H 277.007 -0.51973 -5.62102 0
M  V30 2746 N 276.405 1.4127 -0.698611 0
M  V30 2747 C 277.368 2.29158 -0.044132 0
M  V30 2748 C 278.368 1.44529 0.704841 0
M  V30 2749 O 279.558 1.65643 0.539276 0
M  V30 2750 C 276.69 3.27459 0.947809 0
M  V30 2751 H 277.883 2.88529 -0.817994 0
M  V30 2752 H 275.436 1.49307 -0.46228 0
M  V30 2753 H 276.171 2.73073 1.74933 0
M  V30 2754 H 275.956 3.8991 0.41385 0
M  V30 2755 H 277.446 3.93311 1.40344 0
M  V30 2756 N 277.883 0.443576 1.51229 0
M  V30 2757 C 279.294 -0.0180867 1.86691 0
M  V30 2758 C 279.645 -1.41384 1.36033 0
M  V30 2759 O 278.77 -2.04291 0.713722 0
M  V30 2760 C 279.365 -0.039597 3.38777 0
M  V30 2761 C 277.924 -0.445692 3.73752 0
M  V30 2762 C 277.071 0.357584 2.74985 0
M  V30 2763 H 280.022 0.659138 1.44364 0
M  V30 2764 H 280.043 -0.847761 3.70936 0
M  V30 2765 H 279.555 0.976382 3.75617 0
M  V30 2766 H 277.656 -1.46704 3.42503 0
M  V30 2767 H 277.769 -0.166155 4.78812 0
M  V30 2768 H 276.133 -0.184973 2.54027 0
M  V30 2769 H 276.916 1.37256 3.14668 0
M  V30 2770 N 279.361 -1.56624 0.175154 0
M  V30 2771 C 280.609 -1.96609 -0.467885 0
M  V30 2772 C 280.93 -1.06238 -1.63519 0
M  V30 2773 O 280.2 -0.129523 -1.95471 0
M  V30 2774 H 278.78 -0.726008 -0.175845 0
M  V30 2775 H 281.442 -1.93195 0.257234 0
M  V30 2776 H 280.538 -3.00989 -0.825342 0
M  V30 2777 N 280.839 0.0985539 -1.57292 0
M  V30 2778 C 281.802 1.10402 -2.00858 0
M  V30 2779 C 282.802 1.33146 -0.901593 0
M  V30 2780 O 283.992 1.29318 -1.16716 0
M  V30 2781 C 281.124 2.45394 -2.36632 0
M  V30 2782 H 282.317 0.729099 -2.90902 0
M  V30 2783 H 279.87 0.343495 -1.52479 0
M  V30 2784 H 280.605 2.87769 -1.49531 0
M  V30 2785 H 280.39 2.30235 -3.17387 0
M  V30 2786 H 281.88 3.17718 -2.71007 0
M  V30 2787 N 282.317 1.53212 0.369288 0
M  V30 2788 C 283.563 1.69466 1.11397 0
M  V30 2789 C 283.896 0.443257 1.89074 0
M  V30 2790 O 283.171 -0.559386 1.86282 0
M  V30 2791 C 283.454 2.9422 2.07621 0
M  V30 2792 C 283.307 4.29508 1.33577 0
M  V30 2793 C 284.626 3.14565 3.07794 0
M  V30 2794 H 281.745 0.616667 0.403597 0
M  V30 2795 H 284.387 1.85845 0.395179 0
M  V30 2796 H 282.537 2.80387 2.68916 0
M  V30 2797 H 284.209 4.55147 0.750955 0
M  V30 2798 H 282.452 4.29088 0.637618 0
M  V30 2799 H 283.123 5.12926 2.03989 0
M  V30 2800 H 285.599 3.2756 2.56601 0
M  V30 2801 H 284.475 4.03297 3.72348 0
M  V30 2802 H 284.736 2.29675 3.77759 0
M  V30 2803 N 283.795 -0.628877 1.44509 0
M  V30 2804 C 284.745 -1.7345 1.47983 0
M  V30 2805 C 285.729 -1.5715 0.345373 0
M  V30 2806 O 286.921 -1.66848 0.590829 0
M  V30 2807 C 284.05 -3.12143 1.42904 0
M  V30 2808 C 283.136 -3.33906 2.61472 0
M  V30 2809 N 283.527 -3.26024 3.86706 0
M  V30 2810 C 281.825 -3.64709 2.56716 0
M  V30 2811 C 282.526 -3.48536 4.65722 0
M  V30 2812 N 281.502 -3.71517 3.96832 0
M  V30 2813 H 285.304 -1.65818 2.42655 0
M  V30 2814 H 282.818 -0.831419 1.39503 0
M  V30 2815 H 284.815 -3.91433 1.43476 0
M  V30 2816 H 283.475 -3.2094 0.492717 0
M  V30 2817 H 284.486 -3.04893 4.18641 0
M  V30 2818 H 281.163 -3.80473 1.71891 0
M  V30 2819 H 282.553 -3.48016 5.74747 0
M  V30 2820 N 285.273 -1.31445 -0.869486 0
M  V30 2821 C 286.203 -1.21727 -1.99261 0
M  V30 2822 C 287.184 -0.104359 -1.6978 0
M  V30 2823 O 288.369 -0.289038 -1.92037 0
M  V30 2824 C 285.499 -0.924317 -3.34774 0
M  V30 2825 C 284.453 -1.99685 -3.78563 0
M  V30 2826 C 283.779 -1.55658 -5.11541 0
M  V30 2827 C 285.079 -3.41003 -3.95619 0
M  V30 2828 H 286.773 -2.1569 -2.07649 0
M  V30 2829 H 284.319 -1.03839 -0.997675 0
M  V30 2830 H 286.272 -0.842934 -4.12883 0
M  V30 2831 H 284.996 0.0509793 -3.2656 0
M  V30 2832 H 283.655 -2.06813 -3.02694 0
M  V30 2833 H 283.303 -0.569132 -4.9977 0
M  V30 2834 H 283.003 -2.27409 -5.41811 0
M  V30 2835 H 284.527 -1.48928 -5.92159 0
M  V30 2836 H 285.941 -3.36547 -4.64122 0
M  V30 2837 H 284.338 -4.10975 -4.37286 0
M  V30 2838 H 285.408 -3.81754 -2.98985 0
M  V30 2839 N 286.751 1.08385 -1.14413 0
M  V30 2840 C 288.162 1.62258 -0.923535 0
M  V30 2841 C 288.513 1.88691 0.537595 0
M  V30 2842 O 287.638 1.64454 1.40655 0
M  V30 2843 C 288.233 2.94781 -1.67002 0
M  V30 2844 C 286.792 3.45437 -1.495 0
M  V30 2845 C 285.939 2.19668 -1.69238 0
M  V30 2846 H 288.89 0.916086 -1.2959 0
M  V30 2847 H 288.911 3.63229 -1.13334 0
M  V30 2848 H 288.423 2.7551 -2.73342 0
M  V30 2849 H 286.524 3.6981 -0.455097 0
M  V30 2850 H 286.637 4.22173 -2.2651 0
M  V30 2851 H 285.001 2.28849 -1.11804 0
M  V30 2852 H 285.784 2.02905 -2.7692 0
M  V30 2853 N 288.23 0.939286 1.26551 0
M  V30 2854 C 289.162 0.404704 2.25599 0
M  V30 2855 C 290.175 -0.470983 1.55838 0
M  V30 2856 O 291.364 -0.281734 1.76263 0
M  V30 2857 C 288.464 -0.43764 3.36062 0
M  V30 2858 C 287.637 0.421449 4.35365 0
M  V30 2859 C 286.696 -0.36015 5.24966 0
M  V30 2860 O 285.722 0.236167 5.6871 0
M  V30 2861 N 286.924 -1.65715 5.56344 0
M  V30 2862 H 289.689 1.25618 2.72103 0
M  V30 2863 H 287.25 0.807963 1.40298 0
M  V30 2864 H 289.242 -0.967866 3.92956 0
M  V30 2865 H 287.812 -1.18991 2.89067 0
M  V30 2866 H 287.032 1.1329 3.7757 0
M  V30 2867 H 288.32 1.00835 4.98708 0
M  V30 2868 H 287.718 -2.16378 5.22682 0
M  V30 2869 H 286.275 -2.13366 6.15888 0
M  V30 2870 N 289.708 -1.40897 0.706093 0
M  V30 2871 C 291.119 -1.84023 0.315052 0
M  V30 2872 C 291.47 -1.5906 -1.14866 0
M  V30 2873 O 290.595 -1.06651 -1.88293 0
M  V30 2874 C 291.19 -3.34055 0.565038 0
M  V30 2875 C 289.749 -3.7571 0.227806 0
M  V30 2876 C 288.896 -2.64204 0.842122 0
M  V30 2877 H 291.847 -1.303 0.905963 0
M  V30 2878 H 291.868 -3.80107 -0.172843 0
M  V30 2879 H 291.38 -3.52192 1.63042 0
M  V30 2880 H 289.481 -3.63172 -0.832895 0
M  V30 2881 H 289.594 -4.74103 0.690174 0
M  V30 2882 H 287.958 -2.53255 0.270893 0
M  V30 2883 H 288.741 -2.85155 1.91158 0
M  V30 2884 N 291.186 -0.45159 -1.50991 0
M  V30 2885 C 292.432 0.110237 -2.025 0
M  V30 2886 C 292.765 1.41109 -1.33424 0
M  V30 2887 O 292.04 1.89135 -0.453659 0
M  V30 2888 C 292.323 0.314271 -3.58726 0
M  V30 2889 C 292.176 -1.00623 -4.38401 0
M  V30 2890 C 293.495 1.07767 -4.26702 0
M  V30 2891 H 290.614 0.0385897 -0.735989 0
M  V30 2892 H 293.256 -0.593374 -1.80497 0
M  V30 2893 H 291.406 0.913601 -3.77605 0
M  V30 2894 H 293.078 -1.64064 -4.31139 0
M  V30 2895 H 291.321 -1.6075 -4.02917 0
M  V30 2896 H 291.992 -0.817341 -5.45915 0
M  V30 2897 H 294.468 0.56986 -4.12179 0
M  V30 2898 H 293.344 1.18921 -5.35863 0
M  V30 2899 H 293.605 2.10939 -3.88532 0
M  V30 2900 N 292.664 1.56529 -0.183458 0
M  V30 2901 C 293.889 2.02064 0.467428 0
M  V30 2902 C 294.314 1.06282 1.55196 0
M  V30 2903 O 293.672 0.0443565 1.81246 0
M  V30 2904 C 293.72 3.46122 1.01153 0
M  V30 2905 O 292.824 3.53437 2.12499 0
M  V30 2906 H 292.165 0.654726 0.110588 0
M  V30 2907 H 294.695 2.02521 -0.290917 0
M  V30 2908 H 294.705 3.85676 1.33108 0
M  V30 2909 H 293.38 4.15331 0.217533 0
M  V30 2910 H 291.957 3.2575 1.81497 0
M  V30 2911 N 294.142 -0.090211 1.57342 0
M  V30 2912 C 295.37 -0.806224 1.90546 0
M  V30 2913 C 295.785 -1.72041 0.777644 0
M  V30 2914 O 295.142 -1.80778 -0.250103 0
M  V30 2915 C 295.193 -1.61546 3.23396 0
M  V30 2916 O 294.914 -0.738043 4.31839 0
M  V30 2917 C 296.415 -2.4341 3.70495 0
M  V30 2918 H 293.635 -0.230256 0.630257 0
M  V30 2919 H 296.179 -0.0659843 2.04394 0
M  V30 2920 H 294.334 -2.30816 3.11131 0
M  V30 2921 H 294.748 -1.29901 5.08159 0
M  V30 2922 H 296.222 -2.95676 4.66133 0
M  V30 2923 H 296.699 -3.22098 2.98579 0
M  V30 2924 H 297.305 -1.79331 3.85643 0
M  V30 2925 N 295.62 -1.53406 -0.361157 0
M  V30 2926 C 297.036 -1.43277 -0.703124 0
M  V30 2927 C 297.236 -0.575384 -1.9311 0
M  V30 2928 O 296.292 -0.0595362 -2.5243 0
M  V30 2929 C 297.605 -2.8653 -0.9122 0
M  V30 2930 C 299.153 -2.96191 -1.01193 0
M  V30 2931 C 299.628 -4.40514 -1.25345 0
M  V30 2932 N 301.119 -4.43962 -1.32105 0
M  V30 2933 C 301.854 -5.52746 -1.5251 0
M  V30 2934 N 301.35 -6.71567 -1.70203 0
M  V30 2935 N 303.143 -5.40331 -1.54916 0
M  V30 2936 H 295.294 -2.07654 0.446475 0
M  V30 2937 H 297.557 -0.937944 0.137715 0
M  V30 2938 H 297.263 -3.51605 -0.0816414 0
M  V30 2939 H 297.137 -3.30441 -1.81903 0
M  V30 2940 H 299.524 -2.31266 -1.83303 0
M  V30 2941 H 299.605 -2.55667 -0.0823929 0
M  V30 2942 H 299.249 -5.06014 -0.437346 0
M  V30 2943 H 299.179 -4.78614 -2.19627 0
M  V30 2944 H 301.67 -3.58332 -1.20028 0
M  V30 2945 H 301.983 -7.50241 -1.85359 0
M  V30 2946 H 300.328 -6.74545 -1.67373 0
M  V30 2947 H 303.519 -4.46465 -1.40663 0
M  V30 2948 H 303.692 -6.25173 -1.70477 0
M  V30 2949 N 297.098 0.621204 -1.44841 0
M  V30 2950 C 298.323 1.41244 -1.51871 0
M  V30 2951 C 298.748 1.87519 -0.147764 0
M  V30 2952 O 298.106 1.59334 0.865 0
M  V30 2953 C 298.154 2.60221 -2.49634 0
M  V30 2954 O 297.258 3.60395 -2.00473 0
M  V30 2955 H 296.599 0.42223 -0.512463 0
M  V30 2956 H 299.129 0.757305 -1.90069 0
M  V30 2957 H 299.139 3.0764 -2.67996 0
M  V30 2958 H 297.814 2.25887 -3.4921 0
M  V30 2959 H 296.391 3.19717 -1.91925 0
M  V30 2960 N 298.576 1.31904 0.862503 0
M  V30 2961 C 299.508 1.16005 1.97675 0
M  V30 2962 C 300.521 0.0971234 1.6251 0
M  V30 2963 O 301.71 0.345337 1.75128 0
M  V30 2964 C 298.81 0.751791 3.30456 0
M  V30 2965 C 297.983 1.90133 3.93914 0
M  V30 2966 C 297.042 1.4779 5.05019 0
M  V30 2967 O 296.068 2.18872 5.25437 0
M  V30 2968 N 297.27 0.369491 5.79323 0
M  V30 2969 H 300.035 2.11982 2.11857 0
M  V30 2970 H 297.596 1.24337 1.03691 0
M  V30 2971 H 299.588 0.451084 4.02178 0
M  V30 2972 H 298.158 -0.116593 3.12382 0
M  V30 2973 H 297.378 2.36896 3.15078 0
M  V30 2974 H 298.666 2.67111 4.33047 0
M  V30 2975 H 298.064 -0.222299 5.65263 0
M  V30 2976 H 296.621 0.128354 6.51674 0
M  V30 2977 N 300.054 -1.07777 1.14986 0
M  V30 2978 C 301.004 -2.13082 0.811181 0
M  V30 2979 C 301.988 -1.59619 -0.202597 0
M  V30 2980 O 303.18 -1.77 -0.00398275 0
M  V30 2981 C 300.309 -3.42009 0.297439 0
M  V30 2982 C 299.395 -4.02337 1.34112 0
M  V30 2983 N 299.786 -4.36982 2.54716 0
M  V30 2984 C 298.084 -4.29752 1.19285 0
M  V30 2985 C 298.785 -4.84729 3.21578 0
M  V30 2986 N 297.761 -4.83233 2.48972 0
M  V30 2987 H 301.563 -2.37696 1.72853 0
M  V30 2988 H 299.077 -1.25173 1.03468 0
M  V30 2989 H 301.074 -4.16884 0.0364777 0
M  V30 2990 H 299.734 -3.18841 -0.614022 0
M  V30 2991 H 300.745 -4.27807 2.91894 0
M  V30 2992 H 297.422 -4.16106 0.340926 0
M  V30 2993 H 298.812 -5.20863 4.24442 0
M  V30 2994 N 301.532 -0.945985 -1.26051 0
M  V30 2995 C 302.76 -0.613025 -1.9761 0
M  V30 2996 C 303.175 0.813035 -1.70397 0
M  V30 2997 O 302.532 1.54274 -0.974979 0
M  V30 2998 C 302.583 -0.85159 -3.51326 0
M  V30 2999 O 302.304 -2.22157 -3.77595 0
M  V30 3000 C 303.805 -0.529831 -4.40122 0
M  V30 3001 H 301.025 -0.230593 -0.630133 0
M  V30 3002 H 303.569 -1.268 -1.60443 0
M  V30 3003 H 301.724 -0.243151 -3.86636 0
M  V30 3004 H 302.138 -2.2852 -4.721 0
M  V30 3005 H 303.612 -0.747348 -5.46917 0
M  V30 3006 H 304.089 0.535341 -4.35925 0
M  V30 3007 H 304.695 -1.11721 -4.10364 0
M  V30 3008 N 303.011 1.40521 -0.713556 0
M  V30 3009 C 303.943 2.29191 -0.0203126 0
M  V30 3010 C 304.956 1.45723 0.725864 0
M  V30 3011 O 306.145 1.69033 0.573581 0
M  V30 3012 C 303.245 3.2395 0.995486 0
M  V30 3013 C 302.418 4.36262 0.315256 0
M  V30 3014 C 301.477 5.11474 1.23616 0
M  V30 3015 O 300.503 5.64606 0.721719 0
M  V30 3016 N 301.705 5.20638 2.56743 0
M  V30 3017 H 304.47 2.89327 -0.781652 0
M  V30 3018 H 302.031 1.51869 -0.561022 0
M  V30 3019 H 304.023 3.71137 1.61368 0
M  V30 3020 H 302.593 2.64995 1.6582 0
M  V30 3021 H 301.813 3.91228 -0.483106 0
M  V30 3022 H 303.101 5.08558 -0.157004 0
M  V30 3023 H 302.499 4.7895 3.01037 0
M  V30 3024 H 301.056 5.71339 3.13712 0
M  V30 3025 N 304.489 0.459591 1.5075 0
M  V30 3026 C 305.9 0.00171547 1.867 0
M  V30 3027 C 306.251 -1.39934 1.37525 0
M  V30 3028 O 305.376 -2.03523 0.735349 0
M  V30 3029 C 305.971 -0.00366298 3.388 0
M  V30 3030 C 304.53 -0.406026 3.74204 0
M  V30 3031 C 303.677 0.38673 2.7459 0
M  V30 3032 H 306.628 0.674413 1.43657 0
M  V30 3033 H 306.649 -0.808371 3.71814 0
M  V30 3034 H 306.161 1.01617 3.74561 0
M  V30 3035 H 304.262 -1.43063 3.4404 0
M  V30 3036 H 304.375 -0.115362 4.78961 0
M  V30 3037 H 302.739 -0.158019 2.54209 0
M  V30 3038 H 303.522 1.40585 3.13194 0
M  V30 3039 N 305.967 -1.56429 0.191757 0
M  V30 3040 C 307.195 -2.01867 -0.453586 0
M  V30 3041 C 307.61 -1.07191 -1.5542 0
M  V30 3042 O 306.967 -0.0762108 -1.82341 0
M  V30 3043 C 307.018 -3.47017 -1.013 0
M  V30 3044 O 306.739 -4.38078 0.0437005 0
M  V30 3045 C 308.24 -4.07956 -1.73456 0
M  V30 3046 H 305.46 -0.661211 -0.114199 0
M  V30 3047 H 308.004 -2.02295 0.299483 0
M  V30 3048 H 306.159 -3.47298 -1.71647 0
M  V30 3049 H 306.573 -5.23178 -0.372212 0
M  V30 3050 H 308.047 -5.1138 -2.07833 0
M  V30 3051 H 308.524 -3.51222 -2.63704 0
M  V30 3052 H 309.13 -4.11437 -1.07702 0
M  V30 3053 N 307.445 0.0818655 -1.57387 0
M  V30 3054 C 308.856 0.634871 -1.75574 0
M  V30 3055 C 309.207 1.78435 -0.815809 0
M  V30 3056 O 308.332 2.164 0.0025366 0
M  V30 3057 C 308.927 1.15845 -3.18379 0
M  V30 3058 C 307.486 1.65741 -3.37945 0
M  V30 3059 C 306.633 0.572549 -2.71325 0
M  V30 3060 H 309.584 -0.144268 -1.58043 0
M  V30 3061 H 309.605 2.02751 -3.21982 0
M  V30 3062 H 309.117 0.321631 -3.86765 0
M  V30 3063 H 307.218 2.51781 -2.74658 0
M  V30 3064 H 307.331 1.74129 -4.46336 0
M  V30 3065 H 305.695 1.01518 -2.33594 0
M  V30 3066 H 306.478 -0.253918 -3.4236 0
M  V30 3067 N 308.923 1.53595 0.353017 0
M  V30 3068 C 309.833 1.83897 1.45667 0
M  V30 3069 C 310.849 0.728334 1.58023 0
M  V30 3070 O 312.025 1.01968 1.73679 0
M  V30 3071 C 309.09 2.03383 2.80778 0
M  V30 3072 C 308.151 3.27262 2.77845 0
M  V30 3073 C 307.384 3.45809 4.06512 0
M  V30 3074 O 307.607 2.68387 5.03314 0
M  V30 3075 O 306.541 4.39207 4.11559 0
M  V30 3076 H 310.367 2.77686 1.2298 0
M  V30 3077 H 307.952 1.39132 0.544308 0
M  V30 3078 H 309.834 2.17698 3.60812 0
M  V30 3079 H 308.509 1.12783 3.03417 0
M  V30 3080 H 307.416 3.18359 1.96465 0
M  V30 3081 H 308.749 4.17824 2.60161 0
M  V30 3082 N 310.401 -0.613514 1.45168 0
M  V30 3083 C 311.812 -1.19539 1.43413 0
M  V30 3084 C 312.163 -1.95558 0.158632 0
M  V30 3085 O 311.288 -2.0335 -0.740119 0
M  V30 3086 C 311.883 -2.17445 2.59813 0
M  V30 3087 C 310.442 -2.71022 2.61197 0
M  V30 3088 C 309.589 -1.46323 2.35552 0
M  V30 3089 H 312.54 -0.403163 1.53494 0
M  V30 3090 H 312.561 -3.00373 2.33574 0
M  V30 3091 H 312.073 -1.62089 3.52631 0
M  V30 3092 H 310.174 -3.30332 1.7237 0
M  V30 3093 H 310.287 -3.15859 3.60236 0
M  V30 3094 H 308.651 -1.75072 1.84992 0
M  V30 3095 H 309.434 -0.92844 3.30507 0
M  V30 3096 N 311.879 -1.3236 -0.855495 0
M  V30 3097 C 313.104 -1.2601 -1.64731 0
M  V30 3098 C 313.529 0.169068 -1.87339 0
M  V30 3099 O 312.887 1.12016 -1.42556 0
M  V30 3100 C 312.935 -2.02417 -2.98429 0
M  V30 3101 O 312.039 -1.3714 -3.8893 0
M  V30 3102 H 311.38 -0.434325 -0.502253 0
M  V30 3103 H 313.91 -1.74661 -1.06558 0
M  V30 3104 H 313.92 -2.12559 -3.48257 0
M  V30 3105 H 312.595 -3.06343 -2.81295 0
M  V30 3106 H 311.172 -1.3554 -3.47395 0
M  V30 3107 N 313.357 1.07166 -1.15556 0
M  V30 3108 C 314.585 1.83514 -0.955519 0
M  V30 3109 C 315 1.82163 0.49621 0
M  V30 3110 O 314.357 1.23441 1.34419 0
M  V30 3111 C 314.408 3.30515 -1.46432 0
M  V30 3112 O 314.129 3.31937 -2.85918 0
M  V30 3113 C 315.63 4.23625 -1.30603 0
M  V30 3114 H 312.85 0.578926 -0.339244 0
M  V30 3115 H 315.394 1.35265 -1.53374 0
M  V30 3116 H 313.549 3.76106 -0.928584 0
M  V30 3117 H 313.963 4.23794 -3.09029 0
M  V30 3118 H 315.437 5.24831 -1.71047 0
M  V30 3119 H 315.914 4.38485 -0.250441 0
M  V30 3120 H 316.52 3.83871 -1.83094 0
M  V30 3121 N 314.835 0.952656 1.25548 0
M  V30 3122 C 315.798 0.475794 2.24207 0
M  V30 3123 C 316.798 -0.419428 1.55234 0
M  V30 3124 O 317.988 -0.216994 1.72843 0
M  V30 3125 C 315.12 -0.312814 3.39462 0
M  V30 3126 H 316.313 1.34779 2.67908 0
M  V30 3127 H 313.866 0.735739 1.37901 0
M  V30 3128 H 314.601 -1.20257 3.01179 0
M  V30 3129 H 314.386 0.329404 3.90714 0
M  V30 3130 H 315.876 -0.635986 4.12729 0
M  V30 3131 N 316.313 -1.40141 0.720998 0
M  V30 3132 C 317.724 -1.83678 0.334553 0
M  V30 3133 C 318.075 -1.6027 -1.13173 0
M  V30 3134 O 317.2 -1.08643 -1.87152 0
M  V30 3135 C 317.795 -3.33437 0.600437 0
M  V30 3136 C 316.354 -3.75447 0.267642 0
M  V30 3137 C 315.501 -2.63296 0.870097 0
M  V30 3138 H 318.452 -1.29331 0.919732 0
M  V30 3139 H 318.473 -3.80269 -0.132517 0
M  V30 3140 H 317.985 -3.50442 1.66768 0
M  V30 3141 H 316.086 -3.64035 -0.794329 0
M  V30 3142 H 316.199 -4.73344 0.74042 0
M  V30 3143 H 314.563 -2.52954 0.297739 0
M  V30 3144 H 315.346 -2.83112 1.94172 0
M  V30 3145 N 317.792 -0.46758 -1.50504 0
M  V30 3146 C 319.017 0.0886943 -2.0721 0
M  V30 3147 C 319.442 1.33057 -1.32956 0
M  V30 3148 O 318.8 1.77354 -0.376197 0
M  V30 3149 C 318.848 0.359202 -3.58806 0
M  V30 3150 O 317.952 1.44034 -3.8643 0
M  V30 3151 H 317.293 -0.0114349 -0.663902 0
M  V30 3152 H 319.823 -0.657613 -1.93744 0
M  V30 3153 H 319.833 0.600742 -4.03553 0
M  V30 3154 H 318.508 -0.548311 -4.1227 0
M  V30 3155 H 317.085 1.18638 -3.53524 0
M  V30 3156 N 319.27 1.56325 -0.20005 0
M  V30 3157 C 320.498 2.02105 0.442874 0
M  V30 3158 C 320.913 1.08014 1.5485 0
M  V30 3159 O 320.27 0.0858797 1.82298 0
M  V30 3160 C 320.321 3.47549 0.994583 0
M  V30 3161 O 320.042 4.38049 -0.0669322 0
M  V30 3162 C 321.543 4.0887 1.7129 0
M  V30 3163 H 318.763 0.661807 0.110691 0
M  V30 3164 H 321.307 2.02134 -0.310207 0
M  V30 3165 H 319.462 3.48204 1.69803 0
M  V30 3166 H 319.876 5.23368 0.344462 0
M  V30 3167 H 321.35 5.12475 2.05118 0
M  V30 3168 H 321.827 3.52615 2.61838 0
M  V30 3169 H 322.433 4.12002 1.05518 0
M  V30 3170 N 320.748 -0.0735177 1.57428 0
M  V30 3171 C 321.973 -0.789787 1.91774 0
M  V30 3172 C 322.398 -1.70413 0.796306 0
M  V30 3173 O 321.756 -1.79555 -0.250961 0
M  V30 3174 C 321.804 -1.5609 3.25067 0
M  V30 3175 O 320.908 -2.67144 3.14178 0
M  V30 3176 H 320.249 -0.215582 0.628029 0
M  V30 3177 H 322.779 -0.0422781 2.04556 0
M  V30 3178 H 322.789 -1.94052 3.58898 0
M  V30 3179 H 321.464 -0.890015 4.06265 0
M  V30 3180 H 320.041 -2.32052 2.91901 0
M  V30 3181 N 322.226 -1.5378 -0.344866 0
M  V30 3182 C 323.473 -1.70963 -1.08526 0
M  V30 3183 C 323.801 -0.472126 -1.88683 0
M  V30 3184 O 323.056 0.546116 -1.87926 0
M  V30 3185 C 323.355 -2.92407 -2.05506 0
M  V30 3186 C 323.021 -4.28066 -1.41671 0
M  V30 3187 C 321.683 -4.64951 -1.2399 0
M  V30 3188 C 324.035 -5.12344 -0.956726 0
M  V30 3189 C 321.363 -5.83733 -0.589277 0
M  V30 3190 C 323.715 -6.3179 -0.320015 0
M  V30 3191 C 322.379 -6.67372 -0.130881 0
M  V30 3192 H 321.649 -0.625598 -0.397124 0
M  V30 3193 H 324.296 -1.87995 -0.36469 0
M  V30 3194 H 322.601 -2.69973 -2.8394 0
M  V30 3195 H 324.298 -3.02895 -2.62784 0
M  V30 3196 H 320.888 -3.99034 -1.56429 0
M  V30 3197 H 325.072 -4.8438 -1.08118 0
M  V30 3198 H 320.328 -6.09877 -0.431344 0
M  V30 3199 H 324.502 -6.96386 0.0445072 0
M  V30 3200 H 322.129 -7.59273 0.375318 0
M  V30 3201 N 323.704 0.605807 -1.45491 0
M  V30 3202 C 324.634 1.72709 -1.57143 0
M  V30 3203 C 325.615 1.6476 -0.422884 0
M  V30 3204 O 326.8 1.83132 -0.646247 0
M  V30 3205 C 323.93 3.11316 -1.53948 0
M  V30 3206 C 322.884 3.34077 -2.67537 0
M  V30 3207 C 322.21 4.72975 -2.49397 0
M  V30 3208 C 323.51 3.24158 -4.09535 0
M  V30 3209 H 325.204 1.63214 -2.51001 0
M  V30 3210 H 322.75 0.78379 -1.208 0
M  V30 3211 H 324.703 3.89557 -1.60696 0
M  V30 3212 H 323.427 3.21655 -0.566205 0
M  V30 3213 H 322.086 2.58227 -2.6022 0
M  V30 3214 H 321.734 4.8005 -1.50205 0
M  V30 3215 H 321.434 4.8916 -3.25571 0
M  V30 3216 H 322.958 5.53414 -2.58002 0
M  V30 3217 H 324.372 3.92271 -4.18086 0
M  V30 3218 H 322.769 3.51872 -4.86113 0
M  V30 3219 H 323.839 2.2157 -4.31317 0
M  V30 3220 N 325.182 1.32811 0.848464 0
M  V30 3221 C 326.112 1.24882 1.97299 0
M  V30 3222 C 327.093 0.131357 1.69592 0
M  V30 3223 O 328.278 0.319553 1.91553 0
M  V30 3224 C 325.408 0.97746 3.33261 0
M  V30 3225 C 324.362 2.05682 3.75338 0
M  V30 3226 C 323.688 1.63777 5.09 0
M  V30 3227 C 324.988 3.47254 3.90144 0
M  V30 3228 H 326.682 2.18966 2.04191 0
M  V30 3229 H 324.228 1.05413 0.981029 0
M  V30 3230 H 326.181 0.908513 4.1149 0
M  V30 3231 H 324.905 0.000980011 3.266 0
M  V30 3232 H 323.564 2.11603 2.99366 0
M  V30 3233 H 323.212 0.648569 4.98801 0
M  V30 3234 H 322.912 2.36 5.38124 0
M  V30 3235 H 324.436 1.5833 5.89715 0
M  V30 3236 H 325.85 3.43888 4.58709 0
M  V30 3237 H 324.247 4.1788 4.30693 0
M  V30 3238 H 325.317 3.86462 2.92874 0
M  V30 3239 N 326.66 -1.06551 1.16123 0
M  V30 3240 C 328.071 -1.60768 0.949232 0
M  V30 3241 C 328.422 -1.89523 -0.507508 0
M  V30 3242 O 327.547 -1.66671 -1.38021 0
M  V30 3243 C 328.142 -2.92086 1.71671 0
M  V30 3244 C 326.701 -3.43015 1.54977 0
M  V30 3245 C 325.848 -2.16947 1.72711 0
M  V30 3246 H 328.799 -0.895354 1.31031 0
M  V30 3247 H 328.82 -3.6138 1.19099 0
M  V30 3248 H 328.332 -2.71127 2.7769 0
M  V30 3249 H 326.433 -3.69039 0.513873 0
M  V30 3250 H 326.546 -4.18516 2.33198 0
M  V30 3251 H 324.91 -2.27041 1.15431 0
M  V30 3252 H 325.693 -1.98473 2.80113 0
M  V30 3253 N 328.138 -0.959301 -1.25041 0
M  V30 3254 C 329.071 -0.427418 -2.24161 0
M  V30 3255 C 330.049 0.493837 -1.54919 0
M  V30 3256 O 331.233 0.427144 -1.83597 0
M  V30 3257 C 328.36 0.383893 -3.36517 0
M  V30 3258 C 327.406 -0.478431 -4.23808 0
M  V30 3259 S 328.239 -1.91353 -5.00144 0
M  V30 3260 C 329.395 -1.11077 -6.15965 0
M  V30 3261 H 329.628 -1.26743 -2.6893 0
M  V30 3262 H 327.161 -0.763714 -1.34189 0
M  V30 3263 H 329.119 0.846039 -4.01687 0
M  V30 3264 H 327.78 1.19878 -2.90324 0
M  V30 3265 H 326.973 0.14406 -5.03794 0
M  V30 3266 H 326.575 -0.87597 -3.63597 0
M  V30 3267 H 328.867 -0.361699 -6.76534 0
M  V30 3268 H 329.81 -1.88472 -6.82557 0
M  V30 3269 H 330.218 -0.638843 -5.60873 0
M  V30 3270 N 329.616 1.39756 -0.72842 0
M  V30 3271 C 330.864 2.00248 -0.272946 0
M  V30 3272 C 331.185 1.58077 1.14178 0
M  V30 3273 O 330.455 0.826014 1.77634 0
M  V30 3274 H 329.035 0.740554 -0.0979247 0
M  V30 3275 H 331.697 1.70903 -0.936912 0
M  V30 3276 H 330.793 3.10495 -0.316142 0
M  V30 3277 N 331.094 0.475555 1.50254 0
M  V30 3278 C 332.505 0.0215174 1.86688 0
M  V30 3279 C 332.856 -1.38467 1.39001 0
M  V30 3280 O 331.981 -2.02732 0.756894 0
M  V30 3281 C 332.576 0.0322715 3.38785 0
M  V30 3282 C 331.135 -0.366314 3.74613 0
M  V30 3283 C 330.282 0.415832 2.74164 0
M  V30 3284 H 333.233 0.689612 1.42934 0
M  V30 3285 H 333.254 -0.76889 3.7265 0
M  V30 3286 H 332.766 1.05584 3.73462 0
M  V30 3287 H 330.867 -1.39406 3.45538 0
M  V30 3288 H 330.98 -0.064555 4.79057 0
M  V30 3289 H 329.344 -0.131048 2.54363 0
M  V30 3290 H 330.127 1.43899 3.11686 0
M  V30 3291 N 332.573 -1.56217 0.208337 0
M  V30 3292 C 333.798 -2.02782 -0.435222 0
M  V30 3293 C 334.223 -1.08738 -1.53485 0
M  V30 3294 O 333.581 -0.0731855 -1.81152 0
M  V30 3295 C 333.629 -3.47687 -0.956335 0
M  V30 3296 O 332.733 -3.56773 -2.06849 0
M  V30 3297 H 332.074 -0.656403 -0.100158 0
M  V30 3298 H 334.604 -2.02033 0.3231 0
M  V30 3299 H 334.614 -3.87745 -1.26955 0
M  V30 3300 H 333.289 -4.15624 -0.15143 0
M  V30 3301 H 331.866 -3.28597 -1.76292 0
M  V30 3302 N 334.051 0.0651679 -1.57465 0
M  V30 3303 C 335.462 0.616213 -1.76238 0
M  V30 3304 C 335.813 1.7756 -0.834689 0
M  V30 3305 O 334.938 2.1639 -0.0204156 0
M  V30 3306 C 335.533 1.12462 -3.1959 0
M  V30 3307 C 334.092 1.62147 -3.39684 0
M  V30 3308 C 333.239 0.543739 -2.71917 0
M  V30 3309 H 336.19 -0.161022 -1.57881 0
M  V30 3310 H 336.211 1.99324 -3.24114 0
M  V30 3311 H 335.723 0.280592 -3.87084 0
M  V30 3312 H 333.824 2.48854 -2.77313 0
M  V30 3313 H 333.937 1.69385 -4.48158 0
M  V30 3314 H 332.301 0.990352 -2.34657 0
M  V30 3315 H 333.084 -0.290216 -3.42071 0
M  V30 3316 N 335.529 1.53961 0.336706 0
M  V30 3317 C 336.94 1.62914 0.911925 0
M  V30 3318 C 337.291 0.514795 1.89326 0
M  V30 3319 O 336.416 -0.354395 2.13478 0
M  V30 3320 C 337.011 2.95304 1.66076 0
M  V30 3321 C 335.57 3.06496 2.18489 0
M  V30 3322 C 334.717 2.58403 1.00613 0
M  V30 3323 H 337.668 1.58285 0.114649 0
M  V30 3324 H 337.689 2.84727 2.5241 0
M  V30 3325 H 337.201 3.76387 0.946276 0
M  V30 3326 H 335.302 2.3006 2.93092 0
M  V30 3327 H 335.415 4.1208 2.44391 0
M  V30 3328 H 333.779 2.13977 1.38152 0
M  V30 3329 H 334.562 3.41932 0.306179 0
M  V30 3330 N 337.007 -0.598083 1.45811 0
M  V30 3331 C 337.97 -1.69018 1.54808 0
M  V30 3332 C 338.97 -1.55037 0.426652 0
M  V30 3333 O 340.16 -1.59932 0.690456 0
M  V30 3334 C 337.292 -3.0835 1.45371 0
M  V30 3335 H 338.485 -1.62403 2.52121 0
M  V30 3336 H 336.038 -0.814626 1.33392 0
M  V30 3337 H 336.773 -3.20534 0.492793 0
M  V30 3338 H 336.558 -3.19907 2.26721 0
M  V30 3339 H 338.048 -3.8788 1.54721 0
M  V30 3340 N 338.485 -1.33259 -0.841409 0
M  V30 3341 C 339.395 -1.25332 -1.98316 0
M  V30 3342 C 340.411 -0.164364 -1.73222 0
M  V30 3343 O 341.587 -0.387486 -1.97637 0
M  V30 3344 C 338.652 -0.990078 -3.32262 0
M  V30 3345 C 337.713 -2.16879 -3.70489 0
M  V30 3346 C 336.946 -1.91801 -4.98044 0
M  V30 3347 O 337.169 -0.867075 -5.63771 0
M  V30 3348 O 336.103 -2.78267 -5.33714 0
M  V30 3349 H 339.929 -2.21344 -2.07944 0
M  V30 3350 H 337.514 -1.1328 -0.974058 0
M  V30 3351 H 339.396 -0.860321 -4.12524 0
M  V30 3352 H 338.071 -0.0602155 -3.23644 0
M  V30 3353 H 336.978 -2.35407 -2.90748 0
M  V30 3354 H 338.311 -3.0819 -3.8377 0
M  V30 3355 N 339.963 1.05934 -1.16686 0
M  V30 3356 C 341.211 1.78447 -0.948744 0
M  V30 3357 C 341.532 1.87813 0.524523 0
M  V30 3358 O 340.802 1.38945 1.38098 0
M  V30 3359 H 339.382 0.660971 -0.348033 0
M  V30 3360 H 342.044 1.27947 -1.47022 0
M  V30 3361 H 341.14 2.80394 -1.37061 0
M  V30 3362 N 341.441 0.965919 1.2453 0
M  V30 3363 C 342.666 0.643971 1.97149 0
M  V30 3364 C 343.091 -0.779487 1.71189 0
M  V30 3365 O 342.449 -1.5288 0.974553 0
M  V30 3366 C 342.497 0.922557 3.48599 0
M  V30 3367 O 341.601 0.00707672 4.12399 0
M  V30 3368 H 340.942 0.243647 0.617683 0
M  V30 3369 H 343.472 1.29558 1.58353 0
M  V30 3370 H 343.482 0.853373 3.98976 0
M  V30 3371 H 342.157 1.95996 3.66822 0
M  V30 3372 H 340.734 0.12943 3.72675 0
M  V30 3373 N 342.919 -1.39368 0.735821 0
M  V30 3374 C 344.147 -2.04795 0.294393 0
M  V30 3375 C 344.562 -1.55478 -1.07107 0
M  V30 3376 O 343.919 -0.720038 -1.67695 0
M  V30 3377 C 343.97 -3.6035 0.288071 0
M  V30 3378 O 343.691 -4.07852 1.59963 0
M  V30 3379 C 345.192 -4.42976 -0.169422 0
M  V30 3380 H 342.412 -0.658571 0.128551 0
M  V30 3381 H 344.956 -1.78399 0.999701 0
M  V30 3382 H 343.111 -3.85645 -0.368355 0
M  V30 3383 H 343.525 -5.02181 1.51375 0
M  V30 3384 H 344.999 -5.51864 -0.122687 0
M  V30 3385 H 345.476 -4.22068 -1.21472 0
M  V30 3386 H 346.082 -4.22832 0.457469 0
M  V30 3387 N 344.397 -0.483516 -1.5 0
M  V30 3388 C 345.645 0.067027 -2.01989 0
M  V30 3389 C 345.966 1.3909 -1.36671 0
M  V30 3390 O 345.236 1.88978 -0.516152 0
M  V30 3391 H 343.816 0.0277606 -0.746484 0
M  V30 3392 H 346.478 -0.636773 -1.84204 0
M  V30 3393 H 345.574 0.209484 -3.11396 0
M  V30 3394 N 345.875 1.56104 -0.216619 0
M  V30 3395 C 347.152 1.89988 0.465165 0
M  V30 3396 C 347.532 1.13326 1.78102 0
M  V30 3397 O 346.88 0.241033 2.27225 0
M  V30 3398 C 347.09 3.42646 0.662939 0
M  V30 3399 C 348.438 4.13311 0.972602 0
M  V30 3400 O 349.462 3.48217 0.749901 0
M  V30 3401 O 348.321 5.28396 1.39499 0
M  V30 3402 H 345.415 0.78979 0.245276 0
M  V30 3403 H 347.961 1.67721 -0.258436 0
M  V30 3404 H 346.733 3.90399 -0.26543 0
M  V30 3405 H 346.356 3.70677 1.43821 0
M  V30 3406 N 347.353 -0.0568162 1.57498 0
M  V30 3407 C 348.263 -1.08346 2.08083 0
M  V30 3408 C 349.279 -1.41439 1.01346 0
M  V30 3409 O 350.455 -1.51316 1.32912 0
M  V30 3410 C 347.52 -2.37352 2.52715 0
M  V30 3411 C 346.581 -2.11093 3.73816 0
M  V30 3412 C 345.814 -3.33949 4.1631 0
M  V30 3413 O 346.037 -4.43622 3.58547 0
M  V30 3414 O 344.971 -3.21279 5.08983 0
M  V30 3415 H 348.797 -0.683667 2.95905 0
M  V30 3416 H 346.382 -0.271965 1.46904 0
M  V30 3417 H 348.264 -3.13246 2.81877 0
M  V30 3418 H 346.939 -2.76681 1.68016 0
M  V30 3419 H 345.846 -1.32856 3.49714 0
M  V30 3420 H 347.179 -1.76637 4.59413 0
M  V30 3421 N 348.832 -1.54138 -0.328536 0
M  V30 3422 C 350.243 -1.63395 -0.903272 0
M  V30 3423 C 350.594 -0.524828 -1.8905 0
M  V30 3424 O 349.719 0.343068 -2.13663 0
M  V30 3425 C 350.314 -2.9618 -1.64507 0
M  V30 3426 C 348.873 -3.0765 -2.1686 0
M  V30 3427 C 348.02 -2.58933 -0.992416 0
M  V30 3428 H 350.971 -1.58344 -0.106253 0
M  V30 3429 H 350.992 -2.86061 -2.50897 0
M  V30 3430 H 350.504 -3.76884 -0.926302 0
M  V30 3431 H 348.605 -2.31611 -2.91868 0
M  V30 3432 H 348.718 -4.1337 -2.42202 0
M  V30 3433 H 347.082 -2.14706 -1.37016 0
M  V30 3434 H 347.865 -3.42089 -0.288041 0
M  V30 3435 N 350.31 0.590341 -1.46126 0
M  V30 3436 C 351.257 1.69994 -1.56111 0
M  V30 3437 C 352.227 1.61065 -0.405867 0
M  V30 3438 O 353.412 1.8039 -0.621613 0
M  V30 3439 C 350.552 3.08326 -1.55013 0
M  V30 3440 C 349.665 3.27936 -2.81215 0
M  V30 3441 C 348.8 4.56473 -2.71673 0
M  V30 3442 C 347.839 4.694 -3.92849 0
M  V30 3443 N 346.976 5.89254 -3.81738 0
M  V30 3444 H 351.816 1.60797 -2.50895 0
M  V30 3445 H 349.353 0.783799 -1.24479 0
M  V30 3446 H 351.311 3.88383 -1.52362 0
M  V30 3447 H 349.941 3.16439 -0.637667 0
M  V30 3448 H 348.993 2.41536 -2.93879 0
M  V30 3449 H 350.305 3.33357 -3.71045 0
M  V30 3450 H 349.459 5.44748 -2.67085 0
M  V30 3451 H 348.198 4.53477 -1.7947 0
M  V30 3452 H 347.203 3.79544 -3.97777 0
M  V30 3453 H 348.428 4.7418 -4.86138 0
M  V30 3454 H 346.374 5.87271 -2.92317 0
M  V30 3455 H 346.291 5.95911 -4.65217 0
M  V30 3456 H 347.559 6.79981 -3.81112 0
M  V30 3457 N 351.788 1.33704 0.83433 0
M  V30 3458 C 353.013 1.28615 1.62705 0
M  V30 3459 C 353.438 -0.139242 1.87584 0
M  V30 3460 O 352.796 -1.09734 1.4432 0
M  V30 3461 C 352.844 2.07139 2.95171 0
M  V30 3462 O 351.948 1.4331 3.86699 0
M  V30 3463 H 351.289 0.44226 0.49528 0
M  V30 3464 H 353.819 1.76335 1.03766 0
M  V30 3465 H 353.829 2.18073 3.44831 0
M  V30 3466 H 352.504 3.10779 2.76386 0
M  V30 3467 H 351.081 1.4105 3.45195 0
M  V30 3468 N 353.266 -1.05314 1.17247 0
M  V30 3469 C 354.506 -1.79869 0.970898 0
M  V30 3470 C 354.87 -1.85594 -0.491808 0
M  V30 3471 O 356.071 -2.56229 -0.812409 0
M  V30 3472 C 354.342 -3.19937 1.59295 0
M  V30 3473 S 355.901 -4.10986 1.53741 0
M  V30 3474 H 352.719 -0.61949 0.348931 0
M  V30 3475 H 355.321 -1.26368 1.49169 0
M  V30 3476 H 354.025 -3.13372 2.65003 0
M  V30 3477 H 353.556 -3.78515 1.07191 0
M  V30 3478 H 355.571 -4.93203 0.544537 0
M  V30 3479 N 354.744 -0.972509 -1.24016 0
M  V30 3480 C 356.021 -0.553733 -1.87598 0
M  V30 3481 C 356.401 0.969158 -1.87538 0
M  V30 3482 O 355.749 1.84255 -1.35139 0
M  V30 3483 C 355.959 -1.15076 -3.29482 0
M  V30 3484 C 357.307 -1.23862 -4.06132 0
M  V30 3485 O 358.331 -1.10363 -3.38672 0
M  V30 3486 O 357.19 -1.45252 -5.26844 0
M  V30 3487 H 354.284 -0.185331 -0.805966 0
M  V30 3488 H 356.83 -1.06709 -1.31952 0
M  V30 3489 H 355.602 -2.19333 -3.2405 0
M  V30 3490 H 355.225 -0.621746 -3.92709 0
M  V30 3491 N 356.222 1.38976 -0.743202 0
M  V30 3492 C 357.169 2.30544 -0.10861 0
M  V30 3493 C 358.139 1.49642 0.720869 0
M  V30 3494 O 359.324 1.78304 0.679142 0
M  V30 3495 C 356.464 3.36018 0.786496 0
M  V30 3496 C 355.577 4.31963 -0.0564849 0
M  V30 3497 C 354.712 5.24506 0.840657 0
M  V30 3498 C 353.751 6.121 -0.00658363 0
M  V30 3499 N 352.888 6.96973 0.846943 0
M  V30 3500 H 357.728 2.8424 -0.895088 0
M  V30 3501 H 355.265 1.3995 -0.453048 0
M  V30 3502 H 357.223 3.95768 1.31999 0
M  V30 3503 H 355.853 2.83758 1.53887 0
M  V30 3504 H 354.905 3.73763 -0.707492 0
M  V30 3505 H 356.217 4.93703 -0.711229 0
M  V30 3506 H 355.371 5.89322 1.4417 0
M  V30 3507 H 354.11 4.63107 1.52916 0
M  V30 3508 H 353.115 5.46289 -0.620366 0
M  V30 3509 H 354.34 6.75565 -0.691992 0
M  V30 3510 H 352.286 6.38133 1.52059 0
M  V30 3511 H 352.203 7.5559 0.248864 0
M  V30 3512 H 353.471 7.6621 1.43328 0
M  V30 3513 N 357.7 0.491464 1.49741 0
M  V30 3514 C 358.928 -0.0535151 2.06831 0
M  V30 3515 C 359.343 -1.31683 1.35296 0
M  V30 3516 O 358.7 -1.77402 0.42836 0
M  V30 3517 C 358.751 -0.320835 3.60073 0
M  V30 3518 O 358.472 0.892394 4.28915 0
M  V30 3519 C 359.973 -0.910519 4.33848 0
M  V30 3520 H 357.193 0.0161909 0.670805 0
M  V30 3521 H 359.737 0.68609 1.92647 0
M  V30 3522 H 357.892 -1.0104 3.73991 0
M  V30 3523 H 358.306 0.649401 5.20464 0
M  V30 3524 H 359.78 -1.04721 5.41976 0
M  V30 3525 H 360.257 -1.90589 3.95692 0
M  V30 3526 H 360.863 -0.258712 4.24512 0
M  V30 3527 N 359.178 -1.55987 0.224894 0
M  V30 3528 C 360.128 -2.17076 -0.697296 0
M  V30 3529 C 361.112 -1.12006 -1.15514 0
M  V30 3530 O 362.304 -1.37985 -1.10857 0
M  V30 3531 C 359.433 -2.85679 -1.90374 0
M  V30 3532 C 358.519 -3.97977 -1.46543 0
M  V30 3533 N 358.91 -5.00359 -0.739909 0
M  V30 3534 C 357.208 -4.10128 -1.75245 0
M  V30 3535 C 357.909 -5.79407 -0.515939 0
M  V30 3536 N 356.885 -5.32892 -1.07364 0
M  V30 3537 H 360.687 -2.93592 -0.134594 0
M  V30 3538 H 358.201 -1.62379 0.0262885 0
M  V30 3539 H 360.198 -3.27857 -2.57518 0
M  V30 3540 H 358.858 -2.1066 -2.47088 0
M  V30 3541 H 359.869 -5.16412 -0.392253 0
M  V30 3542 H 356.546 -3.46263 -2.33255 0
M  V30 3543 H 357.936 -6.71872 0.0617349 0
M  V30 3544 N 360.656 0.0484629 -1.57525 0
M  V30 3545 C 361.884 0.755421 -1.92616 0
M  V30 3546 C 362.299 1.69919 -0.822984 0
M  V30 3547 O 361.656 1.81378 0.202085 0
M  V30 3548 C 361.707 1.52915 -3.27566 0
M  V30 3549 O 361.428 0.62329 -4.33644 0
M  V30 3550 C 362.929 2.33502 -3.76818 0
M  V30 3551 H 360.149 0.213465 -0.63614 0
M  V30 3552 H 362.693 0.0117698 -2.04497 0
M  V30 3553 H 360.848 2.22486 -3.17142 0
M  V30 3554 H 361.262 1.16383 -5.11425 0
M  V30 3555 H 362.736 2.83214 -4.73808 0
M  V30 3556 H 363.213 3.14068 -3.07014 0
M  V30 3557 H 363.819 1.69043 -3.90262 0
M  V30 3558 N 362.134 1.5431 0.320358 0
M  V30 3559 C 363.374 1.74395 1.0661 0
M  V30 3560 C 363.738 0.508602 1.85141 0
M  V30 3561 O 364.939 0.586856 2.62316 0
M  V30 3562 C 363.21 2.98619 1.96371 0
M  V30 3563 S 364.769 3.39621 2.77854 0
M  V30 3564 H 361.587 0.613204 0.359863 0
M  V30 3565 H 364.189 1.9249 0.341727 0
M  V30 3566 H 362.893 3.86673 1.3752 0
M  V30 3567 H 362.424 2.83055 2.73209 0
M  V30 3568 H 364.439 2.95172 3.98858 0
M  V30 3569 N 363.613 -0.582584 1.46437 0
M  V30 3570 C 365.024 -1.1647 1.45916 0
M  V30 3571 C 365.375 -1.95177 0.200077 0
M  V30 3572 O 364.5 -2.04874 -0.696819 0
M  V30 3573 C 365.095 -2.11885 2.64367 0
M  V30 3574 C 363.654 -2.65421 2.66887 0
M  V30 3575 C 362.801 -1.41294 2.38603 0
M  V30 3576 H 365.752 -0.370514 1.54314 0
M  V30 3577 H 365.773 -2.9535 2.39892 0
M  V30 3578 H 365.285 -1.54573 3.5599 0
M  V30 3579 H 363.386 -3.26602 1.79338 0
M  V30 3580 H 363.499 -3.08147 3.66854 0
M  V30 3581 H 361.863 -1.71109 1.88663 0
M  V30 3582 H 362.646 -0.858125 3.32402 0
M  V30 3583 N 365.091 -1.34144 -0.827227 0
M  V30 3584 C 366.502 -1.23557 -1.39966 0
M  V30 3585 C 366.853 0.140731 -1.95695 0
M  V30 3586 O 365.978 1.04087 -1.89723 0
M  V30 3587 C 366.573 -2.23708 -2.54441 0
M  V30 3588 C 365.132 -2.16924 -3.07605 0
M  V30 3589 C 364.279 -2.10549 -1.80456 0
M  V30 3590 H 367.23 -1.45573 -0.631991 0
M  V30 3591 H 367.251 -1.85157 -3.32411 0
M  V30 3592 H 366.763 -3.23866 -2.13851 0
M  V30 3593 H 364.864 -1.20107 -3.52711 0
M  V30 3594 H 364.977 -3.07988 -3.66988 0
M  V30 3595 H 363.341 -1.56203 -2.01178 0
M  V30 3596 H 364.124 -3.12535 -1.42046 0
M  V30 3597 N 366.569 1.04691 -1.17803 0
M  V30 3598 C 367.809 1.79352 -0.980423 0
M  V30 3599 C 368.173 1.85853 0.481958 0
M  V30 3600 O 369.374 2.56656 0.798809 0
M  V30 3601 C 367.645 3.19088 -1.6099 0
M  V30 3602 S 369.204 4.10164 -1.55918 0
M  V30 3603 H 366.022 0.617631 -0.352211 0
M  V30 3604 H 368.624 1.25575 -1.49837 0
M  V30 3605 H 367.328 3.11962 -2.66661 0
M  V30 3606 H 366.859 3.77941 -1.09197 0
M  V30 3607 H 368.874 4.92907 -0.570685 0
M  V30 3608 N 368.047 0.979072 1.23499 0
M  V30 3609 C 369.458 0.684391 1.73704 0
M  V30 3610 C 369.809 -0.799448 1.79174 0
M  V30 3611 O 368.934 -1.62531 1.42873 0
M  V30 3612 C 369.529 1.23564 3.15464 0
M  V30 3613 C 368.088 0.99063 3.6313 0
M  V30 3614 C 367.235 1.36416 2.41425 0
M  V30 3615 H 370.186 1.15307 1.09041 0
M  V30 3616 H 370.207 0.607417 3.7562 0
M  V30 3617 H 369.719 2.31561 3.1145 0
M  V30 3618 H 367.82 -0.0733136 3.72528 0
M  V30 3619 H 367.933 1.64427 4.5 0
M  V30 3620 H 366.297 0.782616 2.42378 0
M  V30 3621 H 367.08 2.45387 2.40083 0
M  V30 3622 N 369.525 -1.3858 0.750561 0
M  V30 3623 C 370.488 -2.28836 0.129152 0
M  V30 3624 C 371.488 -1.47045 -0.650714 0
M  V30 3625 O 372.678 -1.6753 -0.477428 0
M  V30 3626 C 369.81 -3.30751 -0.825622 0
M  V30 3627 H 371.003 -2.85294 0.924516 0
M  V30 3628 H 368.556 -1.47489 0.517376 0
M  V30 3629 H 369.291 -2.79378 -1.64677 0
M  V30 3630 H 369.076 -3.91177 -0.268852 0
M  V30 3631 H 370.566 -3.98249 -1.2565 0
M  V30 3632 N 371.003 -0.499398 -1.49478 0
M  V30 3633 C 372.414 -0.051215 -1.8663 0
M  V30 3634 C 372.765 1.36238 -1.41186 0
M  V30 3635 O 371.89 2.01502 -0.789051 0
M  V30 3636 C 372.485 -0.0861651 -3.3869 0
M  V30 3637 C 371.044 0.30667 -3.75149 0
M  V30 3638 C 370.191 -0.459397 -2.73468 0
M  V30 3639 H 373.142 -0.712264 -1.41818 0
M  V30 3640 H 373.163 0.709507 -3.73826 0
M  V30 3641 H 372.675 -1.11512 -3.71735 0
M  V30 3642 H 370.776 1.33892 -3.47712 0
M  V30 3643 H 370.889 -0.0116669 -4.79099 0
M  V30 3644 H 369.253 0.0905645 -2.54539 0
M  V30 3645 H 370.036 -1.4884 -3.09357 0
M  V30 3646 N 372.481 1.55866 -0.233164 0
M  V30 3647 C 373.391 2.24431 0.683217 0
M  V30 3648 C 374.407 1.2558 1.2044 0
M  V30 3649 O 375.583 1.58422 1.24356 0
M  V30 3650 C 372.648 2.91979 1.86947 0
M  V30 3651 C 371.709 4.06204 1.38912 0
M  V30 3652 C 370.942 4.70522 2.51883 0
M  V30 3653 O 371.165 4.33865 3.70293 0
M  V30 3654 O 370.099 5.59296 2.22423 0
M  V30 3655 H 373.925 3.03426 0.129059 0
M  V30 3656 H 371.51 1.494 -0.0022283 0
M  V30 3657 H 373.392 3.34573 2.56201 0
M  V30 3658 H 372.067 2.15935 2.41151 0
M  V30 3659 H 370.974 3.68155 0.664259 0
M  V30 3660 H 372.307 4.84025 0.893328 0
M  V30 3661 N 373.959 -0.0401083 1.57549 0
M  V30 3662 C 374.889 -1.04384 2.08869 0
M  V30 3663 C 375.87 -1.38407 0.988817 0
M  V30 3664 O 377.055 -1.47483 1.26342 0
M  V30 3665 C 374.185 -2.34808 2.55895 0
M  V30 3666 C 373.139 -2.15057 3.70047 0
M  V30 3667 C 372.465 -3.51145 4.03239 0
M  V30 3668 C 373.765 -1.54576 4.98902 0
M  V30 3669 H 375.459 -0.616666 2.92981 0
M  V30 3670 H 373.005 -0.295184 1.40942 0
M  V30 3671 H 374.958 -3.05346 2.90417 0
M  V30 3672 H 373.682 -2.79565 1.68853 0
M  V30 3673 H 372.341 -1.46954 3.35857 0
M  V30 3674 H 371.989 -3.93529 3.13279 0
M  V30 3675 H 371.689 -3.38758 4.80122 0
M  V30 3676 H 373.213 -4.23062 4.40285 0
M  V30 3677 H 374.627 -2.15017 5.31451 0
M  V30 3678 H 373.024 -1.52796 5.80322 0
M  V30 3679 H 374.094 -0.51039 4.82206 0
M  V30 3680 N 375.437 -1.54477 -0.31217 0
M  V30 3681 C 376.367 -1.87652 -1.38957 0
M  V30 3682 C 377.348 -0.734358 -1.53431 0
M  V30 3683 O 378.533 -0.98911 -1.67123 0
M  V30 3684 C 375.663 -2.11396 -2.75552 0
M  V30 3685 C 374.617 -3.27243 -2.75855 0
M  V30 3686 C 373.943 -3.36382 -4.15633 0
M  V30 3687 C 375.243 -4.64622 -2.38587 0
M  V30 3688 H 376.937 -2.77887 -1.11442 0
M  V30 3689 H 374.483 -1.33707 -0.534655 0
M  V30 3690 H 376.436 -2.33189 -3.51 0
M  V30 3691 H 375.16 -1.17921 -3.04569 0
M  V30 3692 H 373.819 -3.05356 -2.02863 0
M  V30 3693 H 373.467 -2.40445 -4.41809 0
M  V30 3694 H 373.167 -4.14249 -4.1674 0
M  V30 3695 H 374.691 -3.60422 -4.92877 0
M  V30 3696 H 376.105 -4.86219 -3.03749 0
M  V30 3697 H 374.502 -5.45121 -2.50925 0
M  V30 3698 H 375.572 -4.66097 -1.33723 0
M  V30 3699 N 376.915 0.57481 -1.46744 0
M  V30 3700 C 378.163 1.33009 -1.52161 0
M  V30 3701 C 378.484 1.94185 -0.178092 0
M  V30 3702 O 377.754 1.7899 0.796196 0
M  V30 3703 H 376.334 0.493873 -0.560445 0
M  V30 3704 H 378.996 0.672589 -1.82927 0
M  V30 3705 H 378.092 2.13273 -2.27862 0
M  V30 3706 N 378.394 1.34581 0.820102 0
M  V30 3707 C 379.642 1.26845 1.57336 0
M  V30 3708 C 379.963 -0.160667 1.94337 0
M  V30 3709 O 379.233 -1.09396 1.6251 0
M  V30 3710 H 377.813 0.466514 0.583415 0
M  V30 3711 H 380.475 1.68526 0.979027 0
M  V30 3712 H 379.571 1.87513 2.4949 0
M  V30 3713 N 379.872 -1.04064 1.18357 0
M  V30 3714 C 381.283 -1.58719 0.98312 0
M  V30 3715 C 381.634 -1.90556 -0.467193 0
M  V30 3716 O 380.759 -1.69561 -1.34454 0
M  V30 3717 C 381.354 -2.88379 1.77828 0
M  V30 3718 C 379.913 -3.3965 1.62218 0
M  V30 3719 C 379.06 -2.13235 1.77274 0
M  V30 3720 H 382.011 -0.867359 1.32901 0
M  V30 3721 H 382.032 -3.58773 1.26737 0
M  V30 3722 H 381.544 -2.65176 2.83379 0
M  V30 3723 H 379.645 -3.67866 0.592036 0
M  V30 3724 H 379.758 -4.13475 2.42023 0
M  V30 3725 H 378.122 -2.24542 1.20221 0
M  V30 3726 H 378.905 -1.92487 2.8426 0
M  V30 3727 N 381.35 -0.985608 -1.22978 0
M  V30 3728 C 382.575 -0.675254 -1.961 0
M  V30 3729 C 383 0.752154 -1.72407 0
M  V30 3730 O 382.358 1.5131 -0.998751 0
M  V30 3731 C 382.406 -0.977899 -3.47087 0
M  V30 3732 O 381.51 -0.072685 -4.12336 0
M  V30 3733 H 380.851 -0.253443 -0.613728 0
M  V30 3734 H 383.381 -1.32061 -1.56272 0
M  V30 3735 H 383.391 -0.916739 -3.97567 0
M  V30 3736 H 382.066 -2.01807 -3.63657 0
M  V30 3737 H 380.643 -0.188703 -3.72422 0
M  V30 3738 N 382.828 1.3818 -0.7579 0
M  V30 3739 C 384.074 2.00316 -0.316453 0
M  V30 3740 C 384.407 1.60026 1.10025 0
M  V30 3741 O 383.682 0.839835 1.75434 0
M  V30 3742 C 383.965 3.57349 -0.444245 0
M  V30 3743 C 383.818 4.07591 -1.90236 0
M  V30 3744 C 385.137 4.3981 0.1598 0
M  V30 3745 H 382.256 0.727741 -0.116459 0
M  V30 3746 H 384.898 1.6406 -0.958352 0
M  V30 3747 H 383.048 3.88365 0.102233 0
M  V30 3748 H 384.72 3.87199 -2.50748 0
M  V30 3749 H 382.963 3.60297 -2.41595 0
M  V30 3750 H 383.634 5.16677 -1.94291 0
M  V30 3751 H 386.11 4.14971 -0.306314 0
M  V30 3752 H 384.986 5.48885 0.0401675 0
M  V30 3753 H 385.247 4.24102 1.24859 0
M  V30 3754 N 384.306 0.507319 1.49211 0
M  V30 3755 C 385.553 -0.0349529 2.0247 0
M  V30 3756 C 385.881 -1.36409 1.38647 0
M  V30 3757 O 385.136 -1.88841 0.513566 0
M  V30 3758 C 385.435 -0.229513 3.56662 0
M  V30 3759 C 385.101 1.02241 4.39156 0
M  V30 3760 C 383.763 1.36557 4.61417 0
M  V30 3761 C 386.115 1.85428 4.871 0
M  V30 3762 C 383.443 2.53999 5.28868 0
M  V30 3763 C 385.795 3.02028 5.55843 0
M  V30 3764 C 384.459 3.36717 5.76349 0
M  V30 3765 H 383.729 -0.0127902 0.74089 0
M  V30 3766 H 386.376 0.668756 1.79443 0
M  V30 3767 H 384.681 -1.0158 3.78403 0
M  V30 3768 H 386.378 -0.663641 3.9547 0
M  V30 3769 H 382.968 0.745124 4.22073 0
M  V30 3770 H 387.152 1.6023 4.69723 0
M  V30 3771 H 382.408 2.81105 5.42946 0
M  V30 3772 H 386.582 3.66808 5.91967 0
M  V30 3773 H 384.209 4.27821 6.28389 0
M  V30 3774 N 385.784 -1.5574 0.241426 0
M  V30 3775 C 386.714 -2.24133 -0.654722 0
M  V30 3776 C 387.695 -1.21974 -1.1856 0
M  V30 3777 O 388.88 -1.50612 -1.22595 0
M  V30 3778 C 386.01 -2.93659 -1.85423 0
M  V30 3779 C 384.964 -4.0246 -1.45636 0
M  V30 3780 C 384.29 -4.59383 -2.73626 0
M  V30 3781 C 385.59 -5.18468 -0.631506 0
M  V30 3782 H 387.284 -2.99281 -0.0844353 0
M  V30 3783 H 384.83 -1.43947 -0.0391707 0
M  V30 3784 H 386.783 -3.40203 -2.48676 0
M  V30 3785 H 385.507 -2.15991 -2.44981 0
M  V30 3786 H 384.166 -3.56676 -0.847202 0
M  V30 3787 H 383.814 -3.78422 -3.3137 0
M  V30 3788 H 383.514 -5.32826 -2.4773 0
M  V30 3789 H 385.038 -5.08658 -3.37786 0
M  V30 3790 H 386.452 -5.61272 -1.1682 0
M  V30 3791 H 384.849 -5.98266 -0.468831 0
M  V30 3792 H 385.919 -4.8358 0.357506 0
M  V30 3793 N 387.262 0.0317525 -1.57568 0
M  V30 3794 C 388.509 0.723104 -1.89149 0
M  V30 3795 C 388.837 1.75504 -0.838377 0
M  V30 3796 O 388.092 1.95037 0.160982 0
M  V30 3797 C 388.391 1.43167 -3.27472 0
M  V30 3798 C 388.057 0.535972 -4.47703 0
M  V30 3799 C 386.719 0.289262 -4.8033 0
M  V30 3800 C 389.071 -0.0826125 -5.21135 0
M  V30 3801 C 386.399 -0.584853 -5.83778 0
M  V30 3802 C 388.751 -0.944414 -6.25511 0
M  V30 3803 C 387.415 -1.20061 -6.56614 0
M  V30 3804 H 386.685 0.264602 -0.692146 0
M  V30 3805 H 389.332 -0.0169496 -1.91492 0
M  V30 3806 H 387.637 2.24497 -3.21105 0
M  V30 3807 H 389.334 1.97209 -3.49155 0
M  V30 3808 H 385.924 0.738414 -4.22191 0
M  V30 3809 H 390.108 0.0950302 -4.96209 0
M  V30 3810 H 385.364 -0.79168 -6.06253 0
M  V30 3811 H 389.538 -1.43026 -6.81554 0
M  V30 3812 H 387.165 -1.87967 -7.36595 0
M  V30 3813 N 388.74 1.54641 0.303973 0
M  V30 3814 C 390.151 1.64811 0.877163 0
M  V30 3815 C 390.502 0.554838 1.88191 0
M  V30 3816 O 389.627 -0.309033 2.14182 0
M  V30 3817 C 390.222 2.9876 1.59775 0
M  V30 3818 C 388.781 3.11061 2.11938 0
M  V30 3819 C 387.928 2.60479 0.951097 0
M  V30 3820 H 390.879 1.58493 0.0810486 0
M  V30 3821 H 390.9 2.90017 2.46314 0
M  V30 3822 H 390.412 3.7831 0.866226 0
M  V30 3823 H 388.513 2.36225 2.88146 0
M  V30 3824 H 388.626 4.17171 2.35595 0
M  V30 3825 H 386.99 2.16859 1.33583 0
M  V30 3826 H 387.773 3.42504 0.233581 0
M  V30 3827 N 390.218 -0.567019 1.47046 0
M  V30 3828 C 391.629 -1.14916 1.47143 0
M  V30 3829 C 391.98 -1.94954 0.220767 0
M  V30 3830 O 391.105 -2.05602 -0.67505 0
M  V30 3831 C 391.7 -2.09069 2.666 0
M  V30 3832 C 390.259 -2.62575 2.69687 0
M  V30 3833 C 389.406 -1.38755 2.40088 0
M  V30 3834 H 392.357 -0.354126 1.54699 0
M  V30 3835 H 392.378 -2.92789 2.43011 0
M  V30 3836 H 391.89 -1.50789 3.57609 0
M  V30 3837 H 389.991 -3.24681 1.82792 0
M  V30 3838 H 390.104 -3.04239 3.70102 0
M  V30 3839 H 388.468 -1.69098 1.90468 0
M  V30 3840 H 389.251 -0.822822 3.33293 0
M  V30 3841 N 391.696 -1.35014 -0.812953 0
M  V30 3842 C 392.643 -1.27412 -1.92444 0
M  V30 3843 C 393.613 -0.14733 -1.65445 0
M  V30 3844 O 394.798 -0.329974 -1.87925 0
M  V30 3845 C 391.938 -1.04558 -3.28879 0
M  V30 3846 C 391.051 -2.26101 -3.68106 0
M  V30 3847 C 390.186 -1.96449 -4.9354 0
M  V30 3848 C 389.225 -3.14081 -5.25376 0
M  V30 3849 N 388.362 -2.84246 -6.41988 0
M  V30 3850 H 393.202 -2.22463 -1.98278 0
M  V30 3851 H 390.739 -1.10593 -0.969933 0
M  V30 3852 H 392.697 -0.893413 -4.07522 0
M  V30 3853 H 391.327 -0.131719 -3.22531 0
M  V30 3854 H 390.379 -2.52204 -2.84775 0
M  V30 3855 H 391.691 -3.13959 -3.87597 0
M  V30 3856 H 390.845 -1.78026 -5.79993 0
M  V30 3857 H 389.584 -1.05867 -4.76071 0
M  V30 3858 H 388.589 -3.33089 -4.37415 0
M  V30 3859 H 389.814 -4.05455 -5.44778 0
M  V30 3860 H 387.76 -1.96252 -6.25956 0
M  V30 3861 H 387.677 -3.65637 -6.61699 0
M  V30 3862 H 388.945 -2.6935 -7.31485 0
M  V30 3863 N 393.175 1.03435 -1.18907 0
M  V30 3864 C 394.586 1.58195 -0.991523 0
M  V30 3865 C 394.937 1.90801 0.457081 0
M  V30 3866 O 394.062 1.70272 1.33553 0
M  V30 3867 C 394.657 2.87432 -1.79355 0
M  V30 3868 C 393.216 3.38785 -1.64017 0
M  V30 3869 C 392.363 2.12292 -1.78402 0
M  V30 3870 H 395.314 0.860299 -1.33359 0
M  V30 3871 H 395.335 3.58096 -1.28638 0
M  V30 3872 H 394.847 2.63669 -2.84781 0
M  V30 3873 H 392.948 3.67547 -0.611536 0
M  V30 3874 H 393.061 4.12186 -2.44212 0
M  V30 3875 H 391.425 2.23901 -1.2141 0
M  V30 3876 H 392.208 1.90977 -2.85277 0
M  V30 3877 N 394.653 0.992116 1.22453 0
M  V30 3878 C 395.6 0.541731 2.24352 0
M  V30 3879 C 396.57 -0.425519 1.60557 0
M  V30 3880 O 397.755 -0.330453 1.87917 0
M  V30 3881 C 394.895 -0.138248 3.44823 0
M  V30 3882 C 394.008 0.870649 4.23136 0
M  V30 3883 C 393.143 0.164269 5.30946 0
M  V30 3884 C 392.182 1.16159 6.00977 0
M  V30 3885 N 391.319 0.483568 7.00433 0
M  V30 3886 H 396.159 1.41541 2.62241 0
M  V30 3887 H 393.696 0.709013 1.28885 0
M  V30 3888 H 395.654 -0.5494 4.13567 0
M  V30 3889 H 394.284 -0.975721 3.077 0
M  V30 3890 H 393.336 1.40013 3.53696 0
M  V30 3891 H 394.648 1.63014 4.7141 0
M  V30 3892 H 393.802 -0.303653 6.0594 0
M  V30 3893 H 392.541 -0.627733 4.83643 0
M  V30 3894 H 391.546 1.64015 5.24766 0
M  V30 3895 H 392.771 1.95445 6.50368 0
M  V30 3896 H 390.717 -0.289012 6.55363 0
M  V30 3897 H 390.634 1.18152 7.4671 0
M  V30 3898 H 391.902 0.0384219 7.79491 0
M  V30 3899 N 396.131 -1.37776 0.765217 0
M  V30 3900 C 397.408 -1.93975 0.251596 0
M  V30 3901 C 397.788 -1.69949 -1.25222 0
M  V30 3902 O 397.136 -1.04457 -2.03226 0
M  V30 3903 C 397.346 -3.43487 0.617895 0
M  V30 3904 C 398.694 -4.20564 0.584029 0
M  V30 3905 O 399.718 -3.5182 0.556888 0
M  V30 3906 O 398.577 -5.43138 0.605291 0
M  V30 3907 H 395.671 -0.82509 0.0561806 0
M  V30 3908 H 398.217 -1.47101 0.846128 0
M  V30 3909 H 396.989 -3.5453 1.65602 0
M  V30 3910 H 396.612 -3.976 -0.00403411 0
M  V30 3911 N 397.609 -0.515225 -1.4894 0
M  V30 3912 C 398.837 0.0206034 -2.0689 0
M  V30 3913 C 399.252 1.29514 -1.37374 0
M  V30 3914 O 398.609 1.76698 -0.456529 0
M  V30 3915 C 398.66 0.26351 -3.60538 0
M  V30 3916 O 398.381 -0.960517 -4.27441 0
M  V30 3917 C 399.882 0.841383 -4.35242 0
M  V30 3918 H 397.102 -0.0268608 -0.670462 0
M  V30 3919 H 399.646 -0.716651 -1.91532 0
M  V30 3920 H 397.801 0.950777 -3.75552 0
M  V30 3921 H 398.215 -0.73212 -5.19365 0
M  V30 3922 H 399.689 0.96085 -5.43573 0
M  V30 3923 H 400.166 1.8427 -3.98674 0
M  V30 3924 H 400.772 0.191143 -4.2487 0
M  V30 3925 N 399.087 1.5561 -0.249682 0
M  V30 3926 C 400.017 2.24477 0.642826 0
M  V30 3927 C 400.998 1.22601 1.17911 0
M  V30 3928 O 402.183 1.5126 1.21795 0
M  V30 3929 C 399.313 2.94638 1.83863 0
M  V30 3930 C 398.267 4.03227 1.435 0
M  V30 3931 C 397.593 4.60828 2.71186 0
M  V30 3932 C 398.893 5.18796 0.604002 0
M  V30 3933 H 400.587 2.99321 0.0685625 0
M  V30 3934 H 398.133 1.43965 0.0315363 0
M  V30 3935 H 400.086 3.41517 2.46868 0
M  V30 3936 H 398.81 2.17287 2.43832 0
M  V30 3937 H 397.469 3.57121 0.828275 0
M  V30 3938 H 397.117 3.80174 3.29358 0
M  V30 3939 H 396.817 5.34132 2.44901 0
M  V30 3940 H 398.341 5.10442 3.35084 0
M  V30 3941 H 399.755 5.61883 1.13842 0
M  V30 3942 H 398.152 5.98506 0.437097 0
M  V30 3943 H 399.222 4.83384 -0.383147 0
M  V30 3944 N 400.565 -0.0233959 1.57583 0
M  V30 3945 C 401.498 -1.05549 2.02323 0
M  V30 3946 C 402.476 -1.34843 0.908626 0
M  V30 3947 O 403.66 -1.47404 1.17491 0
M  V30 3948 C 400.787 -2.38885 2.40108 0
M  V30 3949 C 399.833 -2.2541 3.62067 0
M  V30 3950 S 400.666 -1.60217 5.1097 0
M  V30 3951 C 401.822 -2.95032 5.52003 0
M  V30 3952 H 402.055 -0.674435 2.89549 0
M  V30 3953 H 399.588 -0.23355 1.52623 0
M  V30 3954 H 401.546 -3.15562 2.62547 0
M  V30 3955 H 400.207 -2.74137 1.53323 0
M  V30 3956 H 399.4 -3.23854 3.86179 0
M  V30 3957 H 399.002 -1.56876 3.39508 0
M  V30 3958 H 401.294 -3.91357 5.53033 0
M  V30 3959 H 402.237 -2.75646 6.52246 0
M  V30 3960 H 402.645 -2.97865 4.79517 0
M  V30 3961 N 402.043 -1.548 -0.295768 0
M  V30 3962 C 403.292 -1.73538 -1.02798 0
M  V30 3963 C 403.605 -0.531159 -1.8825 0
M  V30 3964 O 404.811 -0.600458 -2.64777 0
M  V30 3965 C 403.267 -3.07051 -1.87744 0
M  V30 3966 C 402.875 -4.34968 -1.07269 0
M  V30 3967 C 404.619 -3.35146 -2.60533 0
M  V30 3968 C 402.526 -5.5953 -1.91521 0
M  V30 3969 H 401.456 -0.646794 -0.387522 0
M  V30 3970 H 404.107 -1.81278 -0.284718 0
M  V30 3971 H 402.489 -2.93289 -2.66078 0
M  V30 3972 H 403.663 -4.5958 -0.335117 0
M  V30 3973 H 401.978 -4.13847 -0.460384 0
M  V30 3974 H 404.575 -4.2541 -3.23929 0
M  V30 3975 H 404.918 -2.54255 -3.29636 0
M  V30 3976 H 405.451 -3.49902 -1.89244 0
M  V30 3977 H 402.19 -6.43103 -1.26878 0
M  V30 3978 H 401.71 -5.39096 -2.62937 0
M  V30 3979 H 403.389 -5.96982 -2.49442 0
M  V30 3980 N 403.521 0.559213 -1.47345 0
M  V30 3981 C 404.746 1.34676 -1.57725 0
M  V30 3982 C 405.171 1.86723 -0.227164 0
M  V30 3983 O 404.529 1.6286 0.796642 0
M  V30 3984 C 404.577 2.49399 -2.60447 0
M  V30 3985 O 403.681 3.51567 -2.15578 0
M  V30 3986 H 403.022 0.400115 -0.52991 0
M  V30 3987 H 405.552 0.676009 -1.93109 0
M  V30 3988 H 405.562 2.95996 -2.80803 0
M  V30 3989 H 404.237 2.10873 -3.58477 0
M  V30 3990 H 402.814 3.11289 -2.05313 0
M  V30 3991 N 404.999 1.35443 0.805782 0
M  V30 3992 C 406.415 1.15499 1.10146 0
M  V30 3993 C 406.615 -0.0319975 2.01475 0
M  V30 3994 O 405.671 -0.70236 2.42535 0
M  V30 3995 C 406.984 2.45833 1.73166 0
M  V30 3996 C 408.532 2.52047 1.85583 0
M  V30 3997 C 409.007 3.82427 2.52019 0
M  V30 3998 N 410.498 3.83682 2.59504 0
M  V30 3999 C 411.233 4.81294 3.11679 0
M  V30 4000 N 410.729 5.89294 3.64287 0
M  V30 4001 N 412.522 4.6873 3.1024 0
M  V30 4002 H 404.673 2.11469 0.198678 0
M  V30 4003 H 406.936 0.93594 0.150731 0
M  V30 4004 H 406.642 3.32874 1.13526 0
M  V30 4005 H 406.516 2.6044 2.72857 0
M  V30 4006 H 408.903 1.65435 2.44367 0
M  V30 4007 H 408.984 2.41354 0.847455 0
M  V30 4008 H 408.628 4.69437 1.93885 0
M  V30 4009 H 408.558 3.90409 3.53395 0
M  V30 4010 H 411.049 3.05648 2.22234 0
M  V30 4011 H 411.362 6.59768 4.02401 0
M  V30 4012 H 409.707 5.92985 3.62483 0
M  V30 4013 H 412.898 3.83496 2.68419 0
M  V30 4014 H 413.071 5.44965 3.50596 0
M  V30 4015 N 406.477 -1.02803 1.19454 0
M  V30 4016 C 407.705 -1.79841 1.02297 0
M  V30 4017 C 408.12 -1.83879 -0.428259 0
M  V30 4018 O 407.477 -1.28345 -1.29745 0
M  V30 4019 C 407.528 -3.24852 1.58598 0
M  V30 4020 O 407.249 -3.21097 2.98041 0
M  V30 4021 C 408.75 -4.18485 1.46236 0
M  V30 4022 H 405.97 -0.565936 0.360496 0
M  V30 4023 H 408.514 -1.2948 1.58288 0
M  V30 4024 H 406.669 -3.72401 1.06753 0
M  V30 4025 H 407.083 -4.12033 3.24545 0
M  V30 4026 H 408.557 -5.18121 1.90407 0
M  V30 4027 H 409.034 -4.37254 0.41301 0
M  V30 4028 H 409.64 -3.76811 1.97215 0
M  V30 4029 N 407.956 -0.998596 -1.21925 0
M  V30 4030 C 409.367 -0.711939 -1.72593 0
M  V30 4031 C 409.718 0.770842 -1.80423 0
M  V30 4032 O 408.843 1.60237 -1.4544 0
M  V30 4033 C 409.438 -1.28567 -3.13458 0
M  V30 4034 C 407.997 -1.04828 -3.61508 0
M  V30 4035 C 407.144 -1.4024 -2.39224 0
M  V30 4036 H 410.095 -1.17027 -1.07193 0
M  V30 4037 H 410.116 -0.667098 -3.74607 0
M  V30 4038 H 409.628 -2.36486 -3.07727 0
M  V30 4039 H 407.729 0.0140383 -3.72597 0
M  V30 4040 H 407.842 -1.71566 -4.47328 0
M  V30 4041 H 406.206 -0.821077 -2.41103 0
M  V30 4042 H 406.989 -2.49176 -2.36149 0
M  V30 4043 N 409.434 1.37368 -0.772513 0
M  V30 4044 C 410.344 2.34053 -0.160081 0
M  V30 4045 C 411.36 1.60216 0.678728 0
M  V30 4046 O 412.536 1.92303 0.59847 0
M  V30 4047 C 409.601 3.3939 0.708182 0
M  V30 4048 C 408.662 4.29048 -0.147172 0
M  V30 4049 C 407.895 5.29354 0.679744 0
M  V30 4050 O 408.118 5.3723 1.91678 0
M  V30 4051 O 407.052 6.01835 0.0885444 0
M  V30 4052 H 410.878 2.88159 -0.959053 0
M  V30 4053 H 408.463 1.39543 -0.533685 0
M  V30 4054 H 410.345 4.03839 1.20384 0
M  V30 4055 H 409.02 2.8761 1.48533 0
M  V30 4056 H 407.927 3.67697 -0.689205 0
M  V30 4057 H 409.26 4.84134 -0.887423 0
M  V30 4058 N 410.912 0.523116 1.48665 0
M  V30 4059 C 412.158 -0.0134963 2.02796 0
M  V30 4060 C 412.491 -1.34582 1.40004 0
M  V30 4061 O 411.766 -1.86756 0.543381 0
M  V30 4062 C 412.049 -0.14276 3.59817 0
M  V30 4063 C 411.902 1.21425 4.331 0
M  V30 4064 C 413.221 -0.872856 4.31357 0
M  V30 4065 H 410.34 -0.00343074 0.736992 0
M  V30 4066 H 412.982 0.678816 1.7746 0
M  V30 4067 H 411.132 -0.732401 3.81534 0
M  V30 4068 H 412.804 1.84447 4.2282 0
M  V30 4069 H 411.047 1.79791 3.94788 0
M  V30 4070 H 411.718 1.07687 5.41394 0
M  V30 4071 H 414.194 -0.372555 4.14429 0
M  V30 4072 H 413.07 -0.932185 5.40927 0
M  V30 4073 H 413.331 -1.92161 3.98154 0
M  V30 4074 N 412.39 -1.55475 0.257931 0
M  V30 4075 C 413.618 -2.03609 -0.367559 0
M  V30 4076 C 414.033 -1.13687 -1.50734 0
M  V30 4077 O 413.39 -0.153479 -1.81853 0
M  V30 4078 C 413.441 -3.51001 -0.864908 0
M  V30 4079 O 413.162 -4.37499 0.229465 0
M  V30 4080 C 414.663 -4.14946 -1.55997 0
M  V30 4081 H 411.883 -0.665459 -0.0860521 0
M  V30 4082 H 414.427 -2.00843 0.385014 0
M  V30 4083 H 412.582 -3.54266 -1.56762 0
M  V30 4084 H 412.996 -5.24286 -0.14998 0
M  V30 4085 H 414.47 -5.19735 -1.85956 0
M  V30 4086 H 414.947 -3.6209 -2.4857 0
M  V30 4087 H 415.553 -4.15635 -0.901543 0
M  V30 4088 N 413.868 0.0150385 -1.57593 0
M  V30 4089 C 415.108 0.70768 -1.91758 0
M  V30 4090 C 415.472 1.71764 -0.857974 0
M  V30 4091 O 416.673 2.45956 -1.0844 0
M  V30 4092 C 414.944 1.34736 -3.3103 0
M  V30 4093 S 416.503 2.06721 -3.87056 0
M  V30 4094 H 413.321 0.234119 -0.671349 0
M  V30 4095 H 415.923 -0.0380373 -1.95463 0
M  V30 4096 H 414.627 0.59926 -4.06001 0
M  V30 4097 H 414.158 2.13133 -3.30663 0
M  V30 4098 H 416.173 3.34047 -3.66915 0
M  V30 4099 N 415.346 1.54954 0.287554 0
M  V30 4100 C 416.592 1.75132 1.02257 0
M  V30 4101 C 416.925 0.542858 1.86458 0
M  V30 4102 O 416.2 -0.459856 1.88986 0
M  V30 4103 C 416.483 3.04812 1.91733 0
M  V30 4104 C 416.336 4.35985 1.10622 0
M  V30 4105 C 417.655 3.30438 2.90687 0
M  V30 4106 H 414.774 0.637194 0.370341 0
M  V30 4107 H 417.416 1.87678 0.296111 0
M  V30 4108 H 415.566 2.94247 2.53675 0
M  V30 4109 H 417.238 4.58487 0.508636 0
M  V30 4110 H 415.481 4.31865 0.409271 0
M  V30 4111 H 416.152 5.23017 1.76513 0
M  V30 4112 H 418.628 3.40701 2.38877 0
M  V30 4113 H 417.504 4.22467 3.50447 0
M  V30 4114 H 417.765 2.49377 3.65053 0
M  V30 4115 N 416.824 -0.551391 1.4764 0
M  V30 4116 C 418.07 -1.31024 1.54792 0
M  V30 4117 C 418.403 -1.9304 0.211967 0
M  V30 4118 O 417.678 -1.78175 -0.77999 0
M  V30 4119 C 417.961 -2.41593 2.67029 0
M  V30 4120 C 417.814 -1.84408 4.10261 0
M  V30 4121 C 419.133 -3.43488 2.75143 0
M  V30 4122 H 416.252 -0.475031 0.563485 0
M  V30 4123 H 418.894 -0.616454 1.79722 0
M  V30 4124 H 417.044 -3.00772 2.45904 0
M  V30 4125 H 418.716 -1.29445 4.42766 0
M  V30 4126 H 416.959 -1.15051 4.18265 0
M  V30 4127 H 417.63 -2.64367 4.84576 0
M  V30 4128 H 420.106 -2.94236 2.94218 0
M  V30 4129 H 418.982 -4.18274 3.55441 0
M  V30 4130 H 419.243 -4.02703 1.82435 0
M  V30 4131 N 418.302 -1.35869 -0.798587 0
M  V30 4132 C 419.548 -1.2978 -1.55836 0
M  V30 4133 C 419.881 0.125322 -1.93795 0
M  V30 4134 O 419.156 1.07658 -1.61987 0
M  V30 4135 C 419.439 -2.21188 -2.84162 0
M  V30 4136 C 419.292 -3.72155 -2.52628 0
M  V30 4137 C 420.611 -2.11545 -3.85923 0
M  V30 4138 H 417.73 -0.472769 -0.565383 0
M  V30 4139 H 420.372 -1.66341 -0.918192 0
M  V30 4140 H 418.522 -1.90139 -3.38791 0
M  V30 4141 H 420.194 -4.13682 -2.04121 0
M  V30 4142 H 418.437 -3.92042 -1.85704 0
M  V30 4143 H 419.108 -4.31511 -3.44242 0
M  V30 4144 H 421.584 -2.38855 -3.40716 0
M  V30 4145 H 420.46 -2.77688 -4.73477 0
M  V30 4146 H 420.721 -1.09987 -4.282 0
M  V30 4147 N 419.78 1.02168 -1.19998 0
M  V30 4148 C 421.057 1.72816 -0.916191 0
M  V30 4149 C 421.437 2.03081 0.576325 0
M  V30 4150 O 420.785 1.69122 1.53656 0
M  V30 4151 C 420.995 2.9997 -1.78378 0
M  V30 4152 C 422.343 3.73336 -2.02251 0
M  V30 4153 O 423.367 3.09914 -1.75589 0
M  V30 4154 O 422.226 4.87371 -2.47249 0
M  V30 4155 H 419.32 0.752924 -0.342103 0
M  V30 4156 H 421.866 1.08062 -1.30846 0
M  V30 4157 H 420.638 2.73888 -2.79466 0
M  V30 4158 H 420.261 3.72464 -1.39126 0
M  V30 4159 N 421.258 1.00505 1.21394 0
M  V30 4160 C 422.504 0.688793 1.90745 0
M  V30 4161 C 422.837 -0.778486 1.77914 0
M  V30 4162 O 422.112 -1.56433 1.15581 0
M  V30 4163 C 422.395 1.11063 3.42545 0
M  V30 4164 C 422.248 2.63737 3.64367 0
M  V30 4165 C 423.567 0.673059 4.34923 0
M  V30 4166 H 420.686 0.251702 0.692687 0
M  V30 4167 H 423.328 1.25074 1.43026 0
M  V30 4168 H 421.478 0.632508 3.83317 0
M  V30 4169 H 423.15 3.19313 3.32922 0
M  V30 4170 H 421.393 3.05248 3.08231 0
M  V30 4171 H 422.064 2.88305 4.70727 0
M  V30 4172 H 424.54 1.08392 4.01734 0
M  V30 4173 H 423.416 0.996383 5.39781 0
M  V30 4174 H 423.677 -0.425808 4.40045 0
M  V30 4175 N 422.737 -1.36956 0.779787 0
M  V30 4176 C 423.962 -2.04283 0.358224 0
M  V30 4177 C 424.387 -1.58422 -1.01411 0
M  V30 4178 O 423.745 -0.748179 -1.65142 0
M  V30 4179 C 423.793 -3.58152 0.419479 0
M  V30 4180 O 422.897 -4.08342 -0.577142 0
M  V30 4181 H 422.238 -0.645967 0.153698 0
M  V30 4182 H 424.768 -1.75108 1.05822 0
M  V30 4183 H 424.778 -4.07041 0.279636 0
M  V30 4184 H 423.453 -3.90886 1.42061 0
M  V30 4185 H 422.03 -3.70751 -0.399755 0
M  V30 4186 N 424.215 -0.530993 -1.48385 0
M  V30 4187 C 425.165 0.251092 -2.26613 0
M  V30 4188 C 426.149 0.908977 -1.32765 0
M  V30 4189 O 427.341 0.811616 -1.57295 0
M  V30 4190 C 424.47 1.29677 -3.17866 0
M  V30 4191 C 423.556 0.643627 -4.19188 0
M  V30 4192 N 423.947 -0.271223 -5.05072 0
M  V30 4193 C 422.245 0.900711 -4.3681 0
M  V30 4194 C 422.946 -0.648109 -5.78078 0
M  V30 4195 N 421.922 -0.00895987 -5.43599 0
M  V30 4196 H 425.724 -0.452702 -2.90393 0
M  V30 4197 H 423.238 -0.349091 -1.58604 0
M  V30 4198 H 425.235 1.87079 -3.72568 0
M  V30 4199 H 423.895 2.00193 -2.55642 0
M  V30 4200 H 424.906 -0.643883 -5.13882 0
M  V30 4201 H 421.583 1.59636 -3.85775 0
M  V30 4202 H 422.973 -1.39833 -6.57188 0
M  V30 4203 N 425.693 1.55336 -0.266172 0
M  V30 4204 C 426.603 2.2583 0.635458 0
M  V30 4205 C 427.619 1.28106 1.17749 0
M  V30 4206 O 428.795 1.61024 1.20968 0
M  V30 4207 C 425.86 2.95879 1.80712 0
M  V30 4208 C 424.921 4.09059 1.30265 0
M  V30 4209 C 424.154 4.75759 2.41846 0
M  V30 4210 O 424.377 4.41622 3.61007 0
M  V30 4211 O 423.311 5.63888 2.1051 0
M  V30 4212 H 427.137 3.03631 0.0646693 0
M  V30 4213 H 424.722 1.49361 -0.0339177 0
M  V30 4214 H 426.604 3.39932 2.49047 0
M  V30 4215 H 425.279 2.21002 2.36516 0
M  V30 4216 H 424.186 3.69482 0.586019 0
M  V30 4217 H 425.519 4.85811 0.790458 0
M  V30 4218 N 427.171 -0.0066808 1.57599 0
M  V30 4219 C 428.448 -0.729586 1.81484 0
M  V30 4220 C 428.828 -1.92359 0.869558 0
M  V30 4221 O 428.176 -2.28348 -0.0832533 0
M  V30 4222 C 428.386 -1.1416 3.29801 0
M  V30 4223 C 429.734 -1.54823 3.95367 0
M  V30 4224 O 430.758 -1.23558 3.34084 0
M  V30 4225 O 429.617 -2.12937 5.03309 0
M  V30 4226 H 426.711 -0.354674 0.747085 0
M  V30 4227 H 429.257 0.0182609 1.6969 0
M  V30 4228 H 428.029 -0.290231 3.90222 0
M  V30 4229 H 427.652 -1.94876 3.46568 0
M  V30 4230 N 428.649 -1.55105 -0.279332 0
M  V30 4231 C 430.06 -1.66186 -0.850832 0
M  V30 4232 C 430.411 -0.584707 -1.87285 0
M  V30 4233 O 429.536 0.274919 -2.14647 0
M  V30 4234 C 430.131 -3.01264 -1.55001 0
M  V30 4235 C 428.69 -3.14394 -2.06963 0
M  V30 4236 C 427.837 -2.61959 -0.909536 0
M  V30 4237 H 430.788 -1.58602 -0.0558235 0
M  V30 4238 H 430.809 -2.93899 -2.41669 0
M  V30 4239 H 430.321 -3.7964 -0.805931 0
M  V30 4240 H 428.422 -2.4078 -2.84352 0
M  V30 4241 H 428.535 -4.20867 -2.28928 0
M  V30 4242 H 426.899 -2.18957 -1.30116 0
M  V30 4243 H 427.682 -3.42833 -0.179062 0
M  V30 4244 N 430.127 0.543554 -1.4793 0
M  V30 4245 C 431.037 1.67657 -1.64098 0
M  V30 4246 C 432.053 1.65934 -0.523622 0
M  V30 4247 O 433.229 1.85133 -0.792943 0
M  V30 4248 C 430.294 3.04146 -1.66421 0
M  V30 4249 C 429.355 3.16831 -2.89684 0
M  V30 4250 C 428.588 4.46809 -2.91886 0
M  V30 4251 O 428.811 5.33095 -2.02895 0
M  V30 4252 O 427.745 4.63573 -3.83906 0
M  V30 4253 H 431.571 1.56957 -2.59997 0
M  V30 4254 H 429.156 0.715116 -1.31173 0
M  V30 4255 H 431.038 3.85346 -1.70548 0
M  V30 4256 H 429.713 3.152 -0.736923 0
M  V30 4257 H 428.62 2.34977 -2.91095 0
M  V30 4258 H 429.953 3.10687 -3.81752 0
M  V30 4259 N 431.605 1.3629 0.791371 0
M  V30 4260 C 432.851 1.30605 1.55146 0
M  V30 4261 C 433.184 -0.115042 1.93859 0
M  V30 4262 O 432.459 -1.06798 1.62556 0
M  V30 4263 C 432.742 2.22692 2.82985 0
M  V30 4264 C 432.595 3.73489 2.50651 0
M  V30 4265 C 433.914 2.13588 3.84796 0
M  V30 4266 H 431.033 0.475761 0.562868 0
M  V30 4267 H 433.675 1.66825 0.909358 0
M  V30 4268 H 431.825 1.91933 3.37778 0
M  V30 4269 H 433.497 4.14758 2.01924 0
M  V30 4270 H 431.74 3.93021 1.83622 0
M  V30 4271 H 432.411 4.3333 3.41949 0
M  V30 4272 H 434.887 2.40659 3.39445 0
M  V30 4273 H 433.763 2.80195 4.71998 0
M  V30 4274 H 434.024 1.12256 4.27611 0
M  V30 4275 N 433.083 -1.0153 1.20538 0
M  V30 4276 C 434.03 -2.10098 0.955383 0
M  V30 4277 C 435 -1.65702 -0.114878 0
M  V30 4278 O 436.185 -1.90776 0.0301118 0
M  V30 4279 C 433.325 -3.41236 0.514969 0
M  V30 4280 C 432.438 -3.99102 1.65353 0
M  V30 4281 C 431.573 -5.18306 1.16329 0
M  V30 4282 C 430.612 -5.68258 2.27485 0
M  V30 4283 N 429.749 -6.78722 1.7967 0
M  V30 4284 H 434.589 -2.30818 1.88486 0
M  V30 4285 H 432.126 -1.13189 0.939499 0
M  V30 4286 H 434.084 -4.16504 0.240935 0
M  V30 4287 H 432.714 -3.20585 -0.377512 0
M  V30 4288 H 431.766 -3.20918 2.04245 0
M  V30 4289 H 433.078 -4.32177 2.49047 0
M  V30 4290 H 432.232 -6.00782 0.845302 0
M  V30 4291 H 430.971 -4.86799 0.296254 0
M  V30 4292 H 429.976 -4.84385 2.60099 0
M  V30 4293 H 431.201 -6.01798 3.14667 0
M  V30 4294 H 429.147 -6.49042 0.95295 0
M  V30 4295 H 429.064 -7.10996 2.56944 0
M  V30 4296 H 430.332 -7.64759 1.50875 0
M  V30 4297 N 434.561 -1.01147 -1.20859 0
M  V30 4298 C 435.808 -0.697865 -1.90095 0
M  V30 4299 C 436.136 0.772014 -1.78522 0
M  V30 4300 O 435.391 1.57595 -1.16027 0
M  V30 4301 C 435.69 -1.0727 -3.40922 0
M  V30 4302 C 435.356 -2.53792 -3.72693 0
M  V30 4303 C 434.018 -2.93829 -3.81075 0
M  V30 4304 C 436.37 -3.48674 -3.87397 0
M  V30 4305 C 433.698 -4.27696 -4.01613 0
M  V30 4306 C 436.05 -4.82223 -4.09444 0
M  V30 4307 C 434.714 -5.21973 -4.16054 0
M  V30 4308 H 433.984 -0.255367 -0.695607 0
M  V30 4309 H 436.631 -1.27111 -1.43231 0
M  V30 4310 H 434.936 -0.417799 -3.89566 0
M  V30 4311 H 436.633 -0.807818 -3.92779 0
M  V30 4312 H 433.223 -2.21768 -3.66765 0
M  V30 4313 H 437.407 -3.18904 -3.80281 0
M  V30 4314 H 432.663 -4.58055 -4.04964 0
M  V30 4315 H 436.837 -5.55672 -4.19763 0
M  V30 4316 H 434.464 -6.25717 -4.31721 0
M  V30 4317 N 436.039 1.36541 -0.78704 0
M  V30 4318 C 436.987 2.31965 -0.171724 0
M  V30 4319 C 437.981 1.55689 0.667631 0
M  V30 4320 O 439.187 1.70969 0.562981 0
M  V30 4321 H 435.562 0.751101 -0.0367545 0
M  V30 4322 H 437.533 2.81428 -0.992017 0
M  V30 4323 C 436.282 3.40968 0.680904 0
M  V30 4324 H 435.605 3.99775 0.0443961 0
M  V30 4325 H 437.045 4.10063 1.07815 0
M  V30 4326 C 435.504 2.82338 1.83813 0
M  V30 4327 O 436.034 2.74311 2.93456 0
M  V30 4328 N 434.24 2.39661 1.6435 0
M  V30 4329 H 433.787 2.46389 0.751668 0
M  V30 4330 H 433.745 2.00779 2.4194 0
M  V30 4331 N 437.518 0.538854 1.48102 0
M  V30 4332 C 438.764 0.0161732 2.03394 0
M  V30 4333 C 439.119 -1.31154 1.40771 0
M  V30 4334 O 438.412 -1.83613 0.547421 0
M  V30 4335 C 438.606 -0.153808 3.57069 0
M  V30 4336 C 438.435 1.15588 4.34591 0
M  V30 4337 C 437.205 1.71818 4.75191 0
M  V30 4338 C 439.403 2.06867 4.70861 0
M  V30 4339 N 437.385 2.96983 5.37284 0
M  V30 4340 C 438.756 3.16609 5.33066 0
M  V30 4341 C 440.811 2.07085 4.52791 0
M  V30 4342 C 439.514 4.26645 5.79109 0
M  V30 4343 C 441.54 3.16121 4.99821 0
M  V30 4344 C 440.902 4.24582 5.62058 0
M  V30 4345 H 437.001 0.0476346 0.780548 0
M  V30 4346 H 439.585 0.722094 1.80815 0
M  V30 4347 H 437.756 -0.828825 3.79454 0
M  V30 4348 H 439.488 -0.676896 3.98999 0
M  V30 4349 H 436.243 1.25845 4.56574 0
M  V30 4350 H 436.667 3.60732 5.72889 0
M  V30 4351 H 441.309 1.24522 4.04047 0
M  V30 4352 H 439.027 5.0998 6.26854 0
M  V30 4353 H 442.613 3.17355 4.87624 0
M  V30 4354 H 441.493 5.07562 5.97788 0
M  V30 4355 N 438.996 -1.55193 0.274407 0
M  V30 4356 C 440.226 -2.03692 -0.345442 0
M  V30 4357 C 440.634 -1.15224 -1.50067 0
M  V30 4358 O 439.977 -0.164749 -1.8296 0
M  V30 4359 C 440.039 -3.48325 -0.88939 0
M  V30 4360 C 439.703 -4.56794 0.137115 0
M  V30 4361 C 440.7 -5.11028 0.956378 0
M  V30 4362 C 438.385 -5.01568 0.27115 0
M  V30 4363 C 440.379 -6.08552 1.89587 0
M  V30 4364 C 438.066 -5.98918 1.21412 0
M  V30 4365 C 439.064 -6.52291 2.02498 0
M  V30 4366 O 438.752 -7.47738 2.952 0
M  V30 4367 H 438.484 -0.670893 -0.0829332 0
M  V30 4368 H 441.038 -2.01387 0.404056 0
M  V30 4369 H 439.268 -3.47867 -1.68895 0
M  V30 4370 H 440.957 -3.80167 -1.42225 0
M  V30 4371 H 441.723 -4.7725 0.863559 0
M  V30 4372 H 437.602 -4.5967 -0.349987 0
M  V30 4373 H 441.146 -6.50137 2.52918 0
M  V30 4374 H 437.043 -6.32114 1.30776 0
M  V30 4375 H 437.811 -7.65451 2.89874 0
M  V30 4376 N 440.474 -0.00167713 -1.576 0
M  V30 4377 C 441.72 0.683832 -1.90923 0
M  V30 4378 C 442.053 1.7333 -0.875799 0
M  V30 4379 O 441.328 1.94215 0.10525 0
M  V30 4380 C 441.611 1.32543 -3.3482 0
M  V30 4381 C 441.464 0.287387 -4.48881 0
M  V30 4382 C 442.783 2.25114 -3.78169 0
M  V30 4383 H 439.902 0.247125 -0.694333 0
M  V30 4384 H 442.544 -0.0533149 -1.89925 0
M  V30 4385 H 440.694 1.95372 -3.35801 0
M  V30 4386 H 442.366 -0.341346 -4.60035 0
M  V30 4387 H 440.609 -0.39017 -4.32042 0
M  V30 4388 H 441.28 0.775393 -5.46527 0
M  V30 4389 H 443.756 1.723 -3.7875 0
M  V30 4390 H 442.632 2.66971 -4.79602 0
M  V30 4391 H 442.893 3.13092 -3.12131 0
M  V30 4392 N 441.952 1.55251 0.271103 0
M  V30 4393 C 443.229 1.66664 1.02384 0
M  V30 4394 C 443.609 0.534363 2.04225 0
M  V30 4395 O 442.957 -0.465337 2.23712 0
M  V30 4396 C 443.167 3.05961 1.67895 0
M  V30 4397 C 444.515 3.63772 2.18986 0
M  V30 4398 O 445.539 3.08606 1.77878 0
M  V30 4399 O 444.398 4.60429 2.94393 0
M  V30 4400 H 441.492 0.676957 0.475035 0
M  V30 4401 H 444.038 1.67589 0.26681 0
M  V30 4402 H 442.81 3.79815 0.941071 0
M  V30 4403 H 442.433 3.08943 2.5028 0
M  V30 4404 N 443.43 -0.535701 1.48216 0
M  V30 4405 C 444.678 -1.28928 1.55634 0
M  V30 4406 C 444.999 -1.93645 0.229514 0
M  V30 4407 O 444.269 -1.81038 -0.74846 0
M  V30 4408 H 442.849 -0.47884 0.573342 0
M  V30 4409 H 445.511 -0.623853 1.84646 0
M  V30 4410 H 444.607 -2.07157 2.33436 0
M  V30 4411 N 444.908 -1.36708 -0.784132 0
M  V30 4412 C 446.154 -1.31426 -1.54451 0
M  V30 4413 C 446.487 0.10476 -1.93917 0
M  V30 4414 O 445.762 1.05934 -1.6312 0
M  V30 4415 C 446.045 -2.24189 -2.818 0
M  V30 4416 C 445.898 -3.74813 -2.48667 0
M  V30 4417 C 447.217 -2.15626 -3.83658 0
M  V30 4418 H 444.336 -0.478739 -0.560337 0
M  V30 4419 H 446.978 -1.67305 -0.900498 0
M  V30 4420 H 445.128 -1.93722 -3.36755 0
M  V30 4421 H 446.8 -4.15823 -1.99722 0
M  V30 4422 H 445.043 -3.93989 -1.81535 0
M  V30 4423 H 445.714 -4.35138 -3.39646 0
M  V30 4424 H 448.19 -2.42456 -3.38163 0
M  V30 4425 H 447.066 -2.82694 -4.70506 0
M  V30 4426 H 447.327 -1.14522 -4.27009 0
M  V30 4427 N 446.386 1.0089 -1.21074 0
M  V30 4428 C 447.296 2.13039 -0.982425 0
M  V30 4429 C 448.312 1.73881 0.0642161 0
M  V30 4430 O 449.488 2.01012 -0.12496 0
M  V30 4431 C 446.553 3.42377 -0.545803 0
M  V30 4432 C 445.614 3.95731 -1.6642 0
M  V30 4433 C 444.847 5.18896 -1.24832 0
M  V30 4434 O 445.07 5.70273 -0.120265 0
M  V30 4435 O 444.004 5.65597 -2.05873 0
M  V30 4436 H 447.83 2.35175 -1.92163 0
M  V30 4437 H 445.415 1.1142 -0.995285 0
M  V30 4438 H 447.297 4.20244 -0.311912 0
M  V30 4439 H 445.972 3.21639 0.364727 0
M  V30 4440 H 444.879 3.19108 -1.95246 0
M  V30 4441 H 446.212 4.20872 -2.55201 0
M  V30 4442 N 447.864 1.01787 1.20321 0
M  V30 4443 C 449.11 0.708985 1.90003 0
M  V30 4444 C 449.443 -0.759572 1.78729 0
M  V30 4445 O 448.718 -1.55198 1.17234 0
M  V30 4446 C 449.001 1.1469 3.41348 0
M  V30 4447 C 448.854 2.67586 3.61549 0
M  V30 4448 C 450.173 0.71915 4.34185 0
M  V30 4449 H 447.292 0.259034 0.689978 0
M  V30 4450 H 449.934 1.26584 1.41692 0
M  V30 4451 H 448.084 0.673128 3.82624 0
M  V30 4452 H 449.756 3.22826 3.29517 0
M  V30 4453 H 447.999 3.085 3.04976 0
M  V30 4454 H 448.67 2.93281 4.67643 0
M  V30 4455 H 451.146 1.12647 4.00562 0
M  V30 4456 H 450.022 1.05358 5.38694 0
M  V30 4457 H 450.283 -0.379111 4.40472 0
M  V30 4458 N 449.342 -1.36122 0.79427 0
M  V30 4459 C 450.292 -2.27373 0.169017 0
M  V30 4460 C 451.276 -1.4719 -0.649913 0
M  V30 4461 O 452.468 -1.69518 -0.50919 0
M  V30 4462 C 449.597 -3.36264 -0.691455 0
M  V30 4463 C 448.683 -4.2388 0.13653 0
M  V30 4464 N 449.074 -4.91519 1.19345 0
M  V30 4465 C 447.372 -4.45921 -0.0838499 0
M  V30 4466 C 448.073 -5.56369 1.6979 0
M  V30 4467 N 447.049 -5.34204 1.00634 0
M  V30 4468 H 450.851 -2.77154 0.977897 0
M  V30 4469 H 448.365 -1.49504 0.634208 0
M  V30 4470 H 450.362 -4.00572 -1.15534 0
M  V30 4471 H 449.022 -2.88037 -1.49883 0
M  V30 4472 H 450.033 -4.9334 1.57594 0
M  V30 4473 H 446.71 -4.08518 -0.861341 0
M  V30 4474 H 448.1 -6.20368 2.58055 0
M  V30 4475 N 450.82 -0.546701 -1.47814 0
M  V30 4476 C 451.768 0.220048 -2.31557 0
M  V30 4477 C 452.762 0.919472 -1.42275 0
M  V30 4478 O 453.968 0.841953 -1.59095 0
M  V30 4479 H 450.343 0.0898334 -0.746615 0
M  V30 4480 H 452.314 -0.505589 -2.94086 0
M  V30 4481 C 451.063 1.24353 -3.24702 0
M  V30 4482 H 450.386 0.714758 -3.93359 0
M  V30 4483 H 451.826 1.75112 -3.8615 0
M  V30 4484 C 450.285 2.28593 -2.47481 0
M  V30 4485 O 450.815 3.35334 -2.21165 0
M  V30 4486 N 449.021 2.02244 -2.08676 0
M  V30 4487 H 448.568 1.15455 -2.30278 0
M  V30 4488 H 448.526 2.72207 -1.57323 0
M  V30 4489 N 452.299 1.55045 -0.282633 0
M  V30 4490 C 453.262 2.21515 0.588539 0
M  V30 4491 C 454.262 1.19535 1.07554 0
M  V30 4492 O 455.452 1.44391 0.974514 0
M  V30 4493 C 452.584 2.88704 1.8128 0
M  V30 4494 H 453.777 2.99899 0.00806397 0
M  V30 4495 H 451.33 1.56265 -0.0333067 0
M  V30 4496 H 452.065 2.14352 2.43359 0
M  V30 4497 H 451.85 3.63443 1.47144 0
M  V30 4498 H 453.34 3.39465 2.43214 0
M  V30 4499 N 453.777 0.010035 1.57597 0
M  V30 4500 C 454.724 -0.978122 2.09049 0
M  V30 4501 C 455.694 -1.33509 0.988159 0
M  V30 4502 O 456.879 -1.43172 1.26121 0
M  V30 4503 C 454.019 -2.26158 2.60666 0
M  V30 4504 C 453.132 -1.96275 3.84838 0
M  V30 4505 C 452.267 -3.18776 4.24918 0
M  V30 4506 C 451.306 -2.84625 5.41899 0
M  V30 4507 N 450.443 -3.99693 5.77226 0
M  V30 4508 H 455.283 -0.532431 2.93205 0
M  V30 4509 H 452.82 -0.251234 1.44939 0
M  V30 4510 H 454.778 -3.01202 2.88675 0
M  V30 4511 H 453.408 -2.68378 1.79369 0
M  V30 4512 H 452.46 -1.11555 3.63675 0
M  V30 4513 H 453.772 -1.67111 4.69974 0
M  V30 4514 H 452.926 -4.02157 4.54262 0
M  V30 4515 H 451.665 -3.51087 3.38511 0
M  V30 4516 H 450.67 -1.99653 5.12268 0
M  V30 4517 H 451.895 -2.53551 6.29991 0
M  V30 4518 H 449.841 -4.31882 4.93776 0
M  V30 4519 H 449.758 -3.74087 6.56959 0
M  V30 4520 H 451.026 -4.83834 6.11167 0
M  V30 4521 N 455.255 -1.55392 -0.262866 0
M  V30 4522 C 456.483 -1.80513 -1.01108 0
M  V30 4523 C 456.898 -0.583533 -1.79556 0
M  V30 4524 O 456.255 0.447585 -1.76926 0
M  V30 4525 C 456.306 -3.03648 -1.96164 0
M  V30 4526 O 456.027 -4.2109 -1.20893 0
M  V30 4527 C 457.528 -3.41448 -2.82715 0
M  V30 4528 H 454.748 -0.601079 -0.298236 0
M  V30 4529 H 457.292 -2.02425 -0.290582 0
M  V30 4530 H 455.447 -2.83832 -2.63663 0
M  V30 4531 H 455.861 -4.90771 -1.85051 0
M  V30 4532 H 457.335 -4.30751 -3.45192 0
M  V30 4533 H 457.812 -2.61308 -3.53008 0
M  V30 4534 H 458.418 -3.63559 -2.20693 0
M  V30 4535 N 456.733 0.527833 -1.48498 0
M  V30 4536 C 457.68 1.6322 -1.6318 0
M  V30 4537 C 458.65 1.59199 -0.473815 0
M  V30 4538 O 459.835 1.77591 -0.697563 0
M  V30 4539 C 456.975 3.01474 -1.67951 0
M  V30 4540 C 456.088 3.15713 -2.94871 0
M  V30 4541 C 455.223 4.44539 -2.90789 0
M  V30 4542 C 454.262 4.52315 -4.12404 0
M  V30 4543 N 453.399 5.72533 -4.06387 0
M  V30 4544 H 458.239 1.50011 -2.57489 0
M  V30 4545 H 455.776 0.730298 -1.27691 0
M  V30 4546 H 457.734 3.81572 -1.68698 0
M  V30 4547 H 456.364 3.1345 -0.771306 0
M  V30 4548 H 455.416 2.28854 -3.03859 0
M  V30 4549 H 456.728 3.1732 -3.8485 0
M  V30 4550 H 455.882 5.3293 -2.89949 0
M  V30 4551 H 454.621 4.45457 -1.98542 0
M  V30 4552 H 453.626 3.62331 -4.13517 0
M  V30 4553 H 454.851 4.53134 -5.05812 0
M  V30 4554 H 452.797 5.74344 -3.16962 0
M  V30 4555 H 452.714 5.75643 -4.90073 0
M  V30 4556 H 453.982 6.63204 -4.0961 0
M  V30 4557 N 458.211 1.37122 0.776871 0
M  V30 4558 C 459.622 1.28667 1.35284 0
M  V30 4559 C 459.973 -0.0680035 1.96082 0
M  V30 4560 O 459.098 -0.969743 1.93455 0
M  V30 4561 C 459.693 2.32997 2.45963 0
M  V30 4562 C 458.252 2.28191 2.99342 0
M  V30 4563 C 457.399 2.17101 1.72517 0
M  V30 4564 H 460.35 1.47819 0.577527 0
M  V30 4565 H 460.371 1.97366 3.2531 0
M  V30 4566 H 459.883 3.3158 2.01684 0
M  V30 4567 H 457.984 1.33115 3.4801 0
M  V30 4568 H 458.097 3.21397 3.55304 0
M  V30 4569 H 456.461 1.63562 1.95242 0
M  V30 4570 H 457.244 3.17591 1.30348 0
M  V30 4571 N 459.689 -1.00246 1.21608 0
M  V30 4572 C 461.105 -1.26435 0.973975 0
M  V30 4573 C 461.305 -1.98642 -0.338143 0
M  V30 4574 O 460.361 -2.29026 -1.06317 0
M  V30 4575 C 461.674 -2.08551 2.16626 0
M  V30 4576 C 463.222 -2.21769 2.20879 0
M  V30 4577 C 463.697 -3.07267 3.39633 0
M  V30 4578 N 465.188 -3.14855 3.39736 0
M  V30 4579 C 465.923 -3.81274 4.28273 0
M  V30 4580 N 465.419 -4.497 5.27012 0
M  V30 4581 N 467.212 -3.7794 4.16074 0
M  V30 4582 H 459.363 -0.518089 2.05984 0
M  V30 4583 H 461.626 -0.291368 0.902113 0
M  V30 4584 H 461.332 -1.62847 3.11727 0
M  V30 4585 H 461.206 -3.09303 2.15897 0
M  V30 4586 H 463.593 -2.66691 1.26332 0
M  V30 4587 H 463.674 -1.20478 2.25652 0
M  V30 4588 H 463.318 -2.63047 4.34475 0
M  V30 4589 H 463.248 -4.08678 3.321 0
M  V30 4590 H 465.739 -2.66147 2.6828 0
M  V30 4591 H 466.052 -4.98092 5.90867 0
M  V30 4592 H 464.397 -4.48479 5.30935 0
M  V30 4593 H 467.588 -3.23638 3.38195 0
M  V30 4594 H 467.761 -4.29424 4.85282 0
M  V30 4595 N 461.167 -1.02423 -1.1978 0
M  V30 4596 C 462.077 -0.610919 -2.26506 0
M  V30 4597 C 463.093 0.355152 -1.70337 0
M  V30 4598 O 464.269 0.214195 -2.00258 0
M  V30 4599 C 461.334 0.0365921 -3.46681 0
M  V30 4600 C 460.395 -0.976389 -4.18049 0
M  V30 4601 C 459.628 -0.359683 -5.32487 0
M  V30 4602 O 459.851 0.838601 -5.64202 0
M  V30 4603 O 458.785 -1.08022 -5.92127 0
M  V30 4604 H 462.611 -1.49965 -2.64091 0
M  V30 4605 H 460.196 -0.794156 -1.26545 0
M  V30 4606 H 462.078 0.39786 -4.19518 0
M  V30 4607 H 460.753 0.899398 -3.10954 0
M  V30 4608 H 459.66 -1.38916 -3.47352 0
M  V30 4609 H 460.993 -1.80941 -4.57735 0
M  V30 4610 N 462.645 1.35699 -0.801477 0
M  V30 4611 C 463.555 2.33661 -0.209691 0
M  V30 4612 C 464.571 1.6162 0.644591 0
M  V30 4613 O 465.747 1.93529 0.557545 0
M  V30 4614 C 462.812 3.40816 0.636033 0
M  V30 4615 C 461.873 4.28639 -0.238147 0
M  V30 4616 C 461.106 5.30676 0.567307 0
M  V30 4617 O 461.329 5.41174 1.8024 0
M  V30 4618 O 460.263 6.01887 -0.0391336 0
M  V30 4619 H 464.089 2.8606 -1.01996 0
M  V30 4620 H 461.674 1.38379 -0.563164 0
M  V30 4621 H 463.556 4.06301 1.11791 0
M  V30 4622 H 462.231 2.90696 1.42399 0
M  V30 4623 H 461.138 3.66152 -0.767044 0
M  V30 4624 H 462.471 4.82143 -0.989915 0
M  V30 4625 N 464.123 0.554532 1.47522 0
M  V30 4626 C 465.055 -0.232106 2.28022 0
M  V30 4627 C 466.068 -0.881865 1.36847 0
M  V30 4628 O 467.257 -0.756168 1.61692 0
M  V30 4629 C 464.357 -1.34604 3.11022 0
M  V30 4630 C 463.53 -0.793582 4.30141 0
M  V30 4631 C 462.589 -1.79168 4.94758 0
M  V30 4632 O 461.615 -1.33886 5.5323 0
M  V30 4633 N 462.817 -3.12495 4.89211 0
M  V30 4634 H 465.582 0.458407 2.96173 0
M  V30 4635 H 463.143 0.390433 1.57122 0
M  V30 4636 H 465.135 -2.01243 3.51118 0
M  V30 4637 H 463.705 -1.93983 2.45131 0
M  V30 4638 H 462.925 0.0495025 3.94169 0
M  V30 4639 H 464.213 -0.403776 5.07195 0
M  V30 4640 H 463.611 -3.51931 4.42901 0
M  V30 4641 H 462.168 -3.74698 5.33333 0
M  V30 4642 N 465.601 -1.54893 0.290851 0
M  V30 4643 C 466.831 -2.04047 -0.323818 0
M  V30 4644 C 467.239 -1.16809 -1.48837 0
M  V30 4645 O 466.582 -0.184145 -1.82775 0
M  V30 4646 C 466.644 -3.49248 -0.852395 0
M  V30 4647 C 466.308 -4.56623 0.185557 0
M  V30 4648 C 467.305 -5.09985 1.01053 0
M  V30 4649 C 464.99 -5.01252 0.324332 0
M  V30 4650 C 466.984 -6.06507 1.96031 0
M  V30 4651 C 464.671 -5.97596 1.27757 0
M  V30 4652 C 465.669 -6.50107 2.09405 0
M  V30 4653 O 465.357 -7.44565 3.03114 0
M  V30 4654 H 465.089 -0.671735 -0.0758129 0
M  V30 4655 H 467.643 -2.00947 0.425393 0
M  V30 4656 H 465.873 -3.49639 -1.65195 0
M  V30 4657 H 467.562 -3.81654 -1.38185 0
M  V30 4658 H 468.328 -4.76307 0.914129 0
M  V30 4659 H 464.207 -4.60015 -0.301213 0
M  V30 4660 H 467.751 -6.47418 2.598 0
M  V30 4661 H 463.648 -6.30691 1.37473 0
M  V30 4662 H 464.416 -7.62334 2.97976 0
M  V30 4663 N 467.08 -0.0183926 -1.57589 0
M  V30 4664 C 468.028 0.985111 -2.10709 0
M  V30 4665 C 469.022 1.34397 -1.0312 0
M  V30 4666 O 470.228 1.32746 -1.21567 0
M  V30 4667 H 466.603 0.335418 -0.673052 0
M  V30 4668 H 468.574 0.511689 -2.9398 0
M  V30 4669 C 467.323 2.26202 -2.64061 0
M  V30 4670 H 466.646 1.9946 -3.4649 0
M  V30 4671 H 468.086 2.94652 -3.04887 0
M  V30 4672 C 466.545 2.98444 -1.5631 0
M  V30 4673 O 467.075 3.90142 -0.956674 0
M  V30 4674 N 465.281 2.6059 -1.28612 0
M  V30 4675 H 464.828 1.86101 -1.78112 0
M  V30 4676 H 464.786 3.09238 -0.567406 0
M  V30 4677 N 468.558 1.5553 0.254621 0
M  V30 4678 C 469.783 1.81383 1.00573 0
M  V30 4679 C 470.208 0.594419 1.78461 0
M  V30 4680 O 469.566 -0.456403 1.75461 0
M  V30 4681 C 469.614 3.04892 1.92545 0
M  V30 4682 O 468.718 2.81266 3.01601 0
M  V30 4683 H 468.059 0.598969 0.286587 0
M  V30 4684 H 470.589 2.02703 0.277952 0
M  V30 4685 H 470.599 3.34119 2.34155 0
M  V30 4686 H 469.274 3.93287 1.3527 0
M  V30 4687 H 467.851 2.63185 2.64174 0
M  V30 4688 N 470.036 -0.519951 1.48776 0
M  V30 4689 C 471.264 -1.29971 1.60982 0
M  V30 4690 C 471.679 -1.86803 0.273885 0
M  V30 4691 O 471.036 -1.66904 -0.738193 0
M  V30 4692 C 471.087 -2.44346 2.66415 0
M  V30 4693 O 470.808 -1.89855 3.94825 0
M  V30 4694 C 472.309 -3.36014 2.89153 0
M  V30 4695 H 469.529 -0.394891 0.542496 0
M  V30 4696 H 472.073 -0.626214 1.94676 0
M  V30 4697 H 470.228 -3.07562 2.35552 0
M  V30 4698 H 470.642 -2.64798 4.5275 0
M  V30 4699 H 472.116 -4.12593 3.66703 0
M  V30 4700 H 472.593 -3.91859 1.98351 0
M  V30 4701 H 473.199 -2.78582 3.21359 0
M  V30 4702 N 471.514 -1.37532 -0.769588 0
M  V30 4703 C 472.744 -1.35861 -1.55645 0
M  V30 4704 C 473.152 0.0574398 -1.89113 0
M  V30 4705 O 472.495 1.03021 -1.52093 0
M  V30 4706 C 472.557 -2.13431 -2.89288 0
M  V30 4707 C 472.221 -3.62378 -2.78444 0
M  V30 4708 C 473.218 -4.56215 -2.49326 0
M  V30 4709 C 470.903 -4.05529 -2.96398 0
M  V30 4710 C 472.897 -5.91181 -2.38294 0
M  V30 4711 C 470.584 -5.40579 -2.84987 0
M  V30 4712 C 471.582 -6.33218 -2.55975 0
M  V30 4713 O 471.27 -7.65787 -2.44594 0
M  V30 4714 H 471.002 -0.467001 -0.48876 0
M  V30 4715 H 473.556 -1.81505 -0.961515 0
M  V30 4716 H 471.786 -1.62481 -3.50909 0
M  V30 4717 H 473.475 -2.04368 -3.50697 0
M  V30 4718 H 474.241 -4.24187 -2.35139 0
M  V30 4719 H 470.12 -3.33781 -3.1798 0
M  V30 4720 H 473.664 -6.63457 -2.15571 0
M  V30 4721 H 469.561 -5.72209 -2.98743 0
M  V30 4722 H 470.329 -7.76132 -2.59927 0
M  V30 4723 N 472.992 0.995999 -1.22138 0
M  V30 4724 C 474.408 1.25917 -0.980667 0
M  V30 4725 C 474.608 1.98819 0.327604 0
M  V30 4726 O 473.664 2.29587 1.05101 0
M  V30 4727 C 474.977 2.07399 -2.17729 0
M  V30 4728 C 476.525 2.20594 -2.22052 0
M  V30 4729 C 477 3.05462 -3.41258 0
M  V30 4730 N 478.491 3.13049 -3.41401 0
M  V30 4731 C 479.226 3.78997 -4.30289 0
M  V30 4732 N 478.722 4.46899 -5.2939 0
M  V30 4733 N 480.515 3.75728 -4.18073 0
M  V30 4734 H 472.666 0.507158 -2.06256 0
M  V30 4735 H 474.929 0.28658 -0.903646 0
M  V30 4736 H 474.635 1.61191 -3.12586 0
M  V30 4737 H 474.509 3.08154 -2.17534 0
M  V30 4738 H 476.896 2.66017 -1.27745 0
M  V30 4739 H 476.977 1.1928 -2.26287 0
M  V30 4740 H 476.621 2.60739 -4.35864 0
M  V30 4741 H 476.551 4.06911 -3.34262 0
M  V30 4742 H 479.042 2.64721 -2.69688 0
M  V30 4743 H 479.355 4.94952 -5.935 0
M  V30 4744 H 477.7 4.45657 -5.33306 0
M  V30 4745 H 480.891 3.2184 -3.39907 0
M  V30 4746 H 481.064 4.26845 -4.87553 0
M  V30 4747 N 474.47 1.03057 1.19235 0
M  V30 4748 C 475.716 0.729098 1.89241 0
M  V30 4749 C 476.049 -0.740573 1.79525 0
M  V30 4750 O 475.324 -1.53946 1.18874 0
M  V30 4751 C 475.607 1.18304 3.40112 0
M  V30 4752 C 475.46 2.71406 3.5869 0
M  V30 4753 C 476.779 0.765161 4.33397 0
M  V30 4754 H 473.898 0.266338 0.687192 0
M  V30 4755 H 476.54 1.28079 1.40341 0
M  V30 4756 H 474.69 0.713672 3.81889 0
M  V30 4757 H 476.362 3.26303 3.26074 0
M  V30 4758 H 474.605 3.11717 3.01687 0
M  V30 4759 H 475.276 2.98225 4.64506 0
M  V30 4760 H 477.752 1.16889 3.99345 0
M  V30 4761 H 476.628 1.11065 5.37546 0
M  V30 4762 H 476.889 -0.332372 4.40849 0
M  V30 4763 N 475.948 -1.35272 0.808662 0
M  V30 4764 C 477.194 -1.99003 0.390581 0
M  V30 4765 C 477.527 -1.63999 -1.0401 0
M  V30 4766 O 476.802 -0.904368 -1.72196 0
M  V30 4767 C 477.085 -3.55454 0.576566 0
M  V30 4768 C 476.938 -4.00249 2.05233 0
M  V30 4769 C 478.257 -4.401 0.00354277 0
M  V30 4770 H 475.376 -0.722917 0.143388 0
M  V30 4771 H 478.018 -1.6039 1.01858 0
M  V30 4772 H 476.168 -3.88477 0.0419766 0
M  V30 4773 H 477.84 -3.77626 2.64946 0
M  V30 4774 H 476.083 -3.51082 2.54801 0
M  V30 4775 H 476.754 -5.0911 2.13333 0
M  V30 4776 H 479.23 -4.13548 0.460117 0
M  V30 4777 H 478.106 -5.48656 0.163575 0
M  V30 4778 H 478.367 -4.28444 -1.09032 0
M  V30 4779 N 477.426 -0.562348 -1.47226 0
M  V30 4780 C 478.651 -0.0432632 -2.07355 0
M  V30 4781 C 479.076 1.24332 -1.41149 0
M  V30 4782 O 478.434 1.74603 -0.488226 0
M  V30 4783 C 478.482 0.130288 -3.60365 0
M  V30 4784 O 477.586 1.19166 -3.94808 0
M  V30 4785 H 476.927 -0.0536334 -0.66183 0
M  V30 4786 H 479.457 -0.779495 -1.89169 0
M  V30 4787 H 479.467 0.342881 -4.06557 0
M  V30 4788 H 478.142 -0.809389 -4.07948 0
M  V30 4789 H 476.719 0.959153 -3.60354 0
M  V30 4790 N 478.904 1.54736 -0.299062 0
M  V30 4791 C 480.15 2.00397 0.311244 0
M  V30 4792 C 480.483 1.18716 1.53688 0
M  V30 4793 O 479.758 0.263154 1.92712 0
M  V30 4794 C 480.041 3.53817 0.669761 0
M  V30 4795 C 479.894 4.46239 -0.564882 0
M  V30 4796 C 481.213 4.13856 1.49702 0
M  V30 4797 H 478.332 0.728493 0.111653 0
M  V30 4798 H 480.974 1.85506 -0.410774 0
M  V30 4799 H 479.124 3.66637 1.28491 0
M  V30 4800 H 480.796 4.45328 -1.20337 0
M  V30 4801 H 479.039 4.16916 -1.19849 0
M  V30 4802 H 479.71 5.5134 -0.269918 0
M  V30 4803 H 482.186 4.04461 0.977284 0
M  V30 4804 H 481.062 5.21365 1.71666 0
M  V30 4805 H 481.323 3.65608 2.48563 0
M  V30 4806 N 480.382 0.0267497 1.57577 0
M  V30 4807 C 481.312 -0.954308 2.13108 0
M  V30 4808 C 482.293 -1.34088 1.04663 0
M  V30 4809 O 483.478 -1.41992 1.32484 0
M  V30 4810 C 480.608 -2.23744 2.65624 0
M  V30 4811 C 479.562 -1.99168 3.78835 0
M  V30 4812 C 478.888 -3.33726 4.17769 0
M  V30 4813 C 480.188 -1.33277 5.0501 0
M  V30 4814 H 481.882 -0.491848 2.95332 0
M  V30 4815 H 479.428 -0.23514 1.42067 0
M  V30 4816 H 481.381 -2.92754 3.03106 0
M  V30 4817 H 480.105 -2.72151 1.80558 0
M  V30 4818 H 478.764 -1.32577 3.41788 0
M  V30 4819 H 478.412 -3.79888 3.29688 0
M  V30 4820 H 478.112 -3.18089 4.94058 0
M  V30 4821 H 479.636 -4.04008 4.57832 0
M  V30 4822 H 481.05 -1.92283 5.40093 0
M  V30 4823 H 479.447 -1.28045 5.8628 0
M  V30 4824 H 480.517 -0.305411 4.83937 0
M  V30 4825 N 481.861 -1.55662 -0.24637 0
M  V30 4826 C 483.089 -1.81575 -0.991876 0
M  V30 4827 C 483.504 -0.602545 -1.78927 0
M  V30 4828 O 482.861 0.428795 -1.77391 0
M  V30 4829 C 482.912 -3.05711 -1.92933 0
M  V30 4830 O 482.633 -4.22348 -1.1642 0
M  V30 4831 C 484.134 -3.44428 -2.79078 0
M  V30 4832 H 481.354 -0.604209 -0.291844 0
M  V30 4833 H 483.898 -2.02722 -0.269095 0
M  V30 4834 H 482.053 -2.86612 -2.60638 0
M  V30 4835 H 482.467 -4.92706 -1.79835 0
M  V30 4836 H 483.941 -4.34388 -3.40603 0
M  V30 4837 H 484.418 -2.65037 -3.50217 0
M  V30 4838 H 485.024 -3.65879 -2.16824 0
M  V30 4839 N 483.339 0.512053 -1.4905 0
M  V30 4840 C 484.585 1.26874 -1.58212 0
M  V30 4841 C 484.918 1.9241 -0.263073 0
M  V30 4842 O 484.193 1.80181 0.732476 0
M  V30 4843 C 484.476 2.34428 -2.73341 0
M  V30 4844 C 484.329 1.73466 -4.15006 0
M  V30 4845 C 485.648 3.36073 -2.84154 0
M  V30 4846 H 482.767 0.459924 -0.575881 0
M  V30 4847 H 485.409 0.568587 -1.81293 0
M  V30 4848 H 483.559 2.94146 -2.53792 0
M  V30 4849 H 485.231 1.17661 -4.46042 0
M  V30 4850 H 483.474 1.03921 -4.21168 0
M  V30 4851 H 484.145 2.51426 -4.91415 0
M  V30 4852 H 486.621 2.86332 -3.01916 0
M  V30 4853 H 485.497 4.08703 -3.66406 0
M  V30 4854 H 485.758 3.97725 -1.93048 0
M  V30 4855 N 484.817 1.37938 0.762283 0
M  V30 4856 C 485.747 1.37176 1.88958 0
M  V30 4857 C 486.728 0.238945 1.68413 0
M  V30 4858 O 487.913 0.440726 1.89133 0
M  V30 4859 C 485.043 1.18742 3.2637 0
M  V30 4860 C 483.997 2.29136 3.61498 0
M  V30 4861 C 483.323 1.95816 4.97554 0
M  V30 4862 C 484.623 3.71363 3.6727 0
M  V30 4863 H 486.317 2.31509 1.89853 0
M  V30 4864 H 483.863 1.11438 0.912005 0
M  V30 4865 H 485.816 1.16837 4.04879 0
M  V30 4866 H 484.54 0.208683 3.25933 0
M  V30 4867 H 483.199 2.30213 2.85303 0
M  V30 4868 H 482.847 0.964475 4.93667 0
M  V30 4869 H 482.547 2.69745 5.22026 0
M  V30 4870 H 484.071 1.95513 5.78452 0
M  V30 4871 H 485.485 3.72364 4.35911 0
M  V30 4872 H 483.882 4.44425 4.03245 0
M  V30 4873 H 484.952 4.04305 2.67704 0
M  V30 4874 N 486.295 -0.989507 1.22664 0
M  V30 4875 C 487.245 -2.06478 0.967005 0
M  V30 4876 C 488.229 -1.60682 -0.0836374 0
M  V30 4877 O 489.421 -1.76541 0.127322 0
M  V30 4878 C 486.55 -3.38861 0.550313 0
M  V30 4879 C 485.636 -3.9128 1.63587 0
M  V30 4880 N 486.027 -4.16884 2.86429 0
M  V30 4881 C 484.325 -4.1972 1.50834 0
M  V30 4882 C 485.026 -4.5954 3.56648 0
M  V30 4883 N 484.002 -4.63434 2.84131 0
M  V30 4884 H 487.804 -2.24219 1.90008 0
M  V30 4885 H 485.318 -1.17153 1.12467 0
M  V30 4886 H 487.315 -4.15465 0.345612 0
M  V30 4887 H 485.975 -3.22518 -0.375822 0
M  V30 4888 H 486.986 -4.04976 3.22823 0
M  V30 4889 H 483.663 -4.1243 0.648643 0
M  V30 4890 H 485.053 -4.87944 4.61909 0
M  V30 4891 N 487.773 -1.03688 -1.18687 0
M  V30 4892 C 488.705 -0.582696 -2.21669 0
M  V30 4893 C 489.718 0.345656 -1.59088 0
M  V30 4894 O 490.907 0.140776 -1.77944 0
M  V30 4895 C 488.007 0.169204 -3.38477 0
M  V30 4896 C 487.18 -0.766079 -4.30639 0
M  V30 4897 C 486.239 -0.0581541 -5.26168 0
M  V30 4898 O 485.265 -0.687346 -5.65035 0
M  V30 4899 N 486.467 1.20981 -5.67753 0
M  V30 4900 H 489.232 -1.46843 -2.61261 0
M  V30 4901 H 486.793 -0.916896 -1.33434 0
M  V30 4902 H 488.785 0.652543 -3.99405 0
M  V30 4903 H 487.355 0.956435 -2.97609 0
M  V30 4904 H 486.575 -1.42935 -3.67373 0
M  V30 4905 H 487.863 -1.40146 -4.89118 0
M  V30 4906 H 487.261 1.74159 -5.38224 0
M  V30 4907 H 485.818 1.6375 -6.30896 0
M  V30 4908 N 489.251 1.34841 -0.815825 0
M  V30 4909 C 490.528 1.92908 -0.323416 0
M  V30 4910 C 490.908 1.74479 1.18828 0
M  V30 4911 O 490.256 1.11928 1.99209 0
M  V30 4912 C 490.466 3.40957 -0.744952 0
M  V30 4913 C 491.814 4.18107 -0.739716 0
M  V30 4914 O 492.838 3.49511 -0.68708 0
M  V30 4915 O 491.697 5.40517 -0.806456 0
M  V30 4916 H 488.791 0.822436 -0.0867646 0
M  V30 4917 H 491.337 1.4386 -0.90014 0
M  V30 4918 H 490.109 3.4814 -1.78646 0
M  V30 4919 H 489.732 3.97341 -0.143535 0
M  V30 4920 N 490.729 0.570148 1.46925 0
M  V30 4921 C 491.975 0.0593124 2.03314 0
M  V30 4922 C 492.33 -1.28139 1.43521 0
M  V30 4923 O 491.623 -1.82411 0.586245 0
M  V30 4924 C 491.817 -0.0780336 3.57315 0
M  V30 4925 C 491.646 1.2478 4.32042 0
M  V30 4926 C 490.416 1.81859 4.7144 0
M  V30 4927 C 492.614 2.16808 4.66368 0
M  V30 4928 N 490.596 3.08313 5.30864 0
M  V30 4929 C 491.967 3.27845 5.2623 0
M  V30 4930 C 494.022 2.16643 4.48297 0
M  V30 4931 C 492.725 4.38832 5.69929 0
M  V30 4932 C 494.751 3.26652 4.93004 0
M  V30 4933 C 494.113 4.36408 5.52926 0
M  V30 4934 H 490.212 0.0641804 0.779362 0
M  V30 4935 H 492.796 0.760285 1.79242 0
M  V30 4936 H 490.967 -0.748151 3.81126 0
M  V30 4937 H 492.699 -0.59211 4.00345 0
M  V30 4938 H 489.454 1.35502 4.53802 0
M  V30 4939 H 489.878 3.72802 5.65108 0
M  V30 4940 H 494.52 1.33065 4.01315 0
M  V30 4941 H 492.238 5.23162 6.15896 0
M  V30 4942 H 495.824 3.27627 4.80782 0
M  V30 4943 H 494.704 5.20127 5.86888 0
M  V30 4944 N 492.207 -1.54576 0.307264 0
M  V30 4945 C 493.137 -2.26708 -0.55907 0
M  V30 4946 C 494.118 -1.26893 -1.1328 0
M  V30 4947 O 495.303 -1.55677 -1.16097 0
M  V30 4948 C 492.433 -3.01259 -1.72801 0
M  V30 4949 C 491.387 -4.08275 -1.28435 0
M  V30 4950 C 490.713 -4.70575 -2.53895 0
M  V30 4951 C 492.013 -5.2068 -0.411038 0
M  V30 4952 H 493.707 -2.9937 0.042576 0
M  V30 4953 H 491.253 -1.43983 0.0219173 0
M  V30 4954 H 493.206 -3.50444 -2.34023 0
M  V30 4955 H 491.93 -2.26187 -2.356 0
M  V30 4956 H 490.589 -3.59949 -0.695161 0
M  V30 4957 H 490.237 -3.92136 -3.15021 0
M  V30 4958 H 489.937 -5.42854 -2.24908 0
M  V30 4959 H 491.461 -5.22527 -3.15908 0
M  V30 4960 H 492.875 -5.65721 -0.929097 0
M  V30 4961 H 491.272 -5.99716 -0.214664 0
M  V30 4962 H 492.342 -4.81629 0.562287 0
M  V30 4963 N 493.685 -0.035106 -1.57561 0
M  V30 4964 C 494.633 0.962707 -2.11742 0
M  V30 4965 C 495.627 1.33296 -1.0454 0
M  V30 4966 O 496.833 1.31449 -1.22968 0
M  V30 4967 H 493.208 0.32826 -0.676572 0
M  V30 4968 H 495.179 0.48048 -2.94506 0
M  V30 4969 C 493.928 2.23388 -2.66445 0
M  V30 4970 H 493.251 1.95774 -3.48587 0
M  V30 4971 H 494.691 2.91402 -3.07995 0
M  V30 4972 C 493.15 2.96769 -1.59467 0
M  V30 4973 O 493.68 3.89105 -0.998 0
M  V30 4974 N 491.886 2.59212 -1.31369 0
M  V30 4975 H 491.433 1.84202 -1.80076 0
M  V30 4976 H 491.391 3.08618 -0.600173 0
M  V30 4977 N 495.163 1.55791 0.238111 0
M  V30 4978 C 496.411 1.77681 0.963001 0
M  V30 4979 C 496.732 0.600674 1.85518 0
M  V30 4980 O 496.002 -0.383182 1.92116 0
M  V30 4981 H 494.582 0.655315 0.358568 0
M  V30 4982 H 497.244 1.93239 0.253945 0
M  V30 4983 H 496.34 2.69177 1.57956 0
M  V30 4984 N 496.642 -0.504142 1.49319 0
M  V30 4985 C 497.589 -1.60603 1.65756 0
M  V30 4986 C 498.559 -1.58425 0.499082 0
M  V30 4987 O 499.744 -1.76459 0.725728 0
M  V30 4988 C 496.884 -2.98764 1.72726 0
M  V30 4989 C 495.997 -3.10982 2.99857 0
M  V30 4990 C 495.132 -4.39857 2.97824 0
M  V30 4991 C 494.171 -4.45697 4.19548 0
M  V30 4992 N 493.308 -5.65995 4.15444 0
M  V30 4993 H 498.148 -1.45895 2.59843 0
M  V30 4994 H 495.685 -0.709891 1.28837 0
M  V30 4995 H 497.643 -3.78839 1.74747 0
M  V30 4996 H 496.273 -3.12183 0.821075 0
M  V30 4997 H 495.325 -2.23991 3.07461 0
M  V30 4998 H 496.637 -3.11157 3.89849 0
M  V30 4999 H 495.791 -5.2825 2.98391 0
M  V30 5000 H 494.53 -4.42242 2.05604 0
M  V30 5001 H 493.535 -3.55707 4.19229 0
M  V30 5002 H 494.76 -4.4503 5.12957 0
M  V30 5003 H 492.706 -5.69229 3.26059 0
M  V30 5004 H 492.623 -5.67773 4.99169 0
M  V30 5005 H 493.891 -6.56604 4.20109 0
M  V30 5006 N 498.12 -1.38341 -0.754957 0
M  V30 5007 C 499.03 -1.3769 -1.89944 0
M  V30 5008 C 500.046 -0.274194 -1.71826 0
M  V30 5009 O 501.222 -0.512391 -1.94773 0
M  V30 5010 C 498.287 -1.19938 -3.25293 0
M  V30 5011 C 497.348 -2.40001 -3.55946 0
M  V30 5012 C 496.581 -2.23087 -4.84838 0
M  V30 5013 O 496.804 -1.22386 -5.57116 0
M  V30 5014 O 495.738 -3.11646 -5.14937 0
M  V30 5015 H 499.564 -2.3412 -1.93446 0
M  V30 5016 H 497.149 -1.19246 -0.900044 0
M  V30 5017 H 499.031 -1.12093 -4.06218 0
M  V30 5018 H 497.706 -0.265919 -3.22606 0
M  V30 5019 H 496.613 -2.53421 -2.75188 0
M  V30 5020 H 497.946 -3.31973 -3.63394 0
M  V30 5021 N 499.598 0.982988 -1.23187 0
M  V30 5022 C 500.828 1.75666 -1.08743 0
M  V30 5023 C 501.236 1.85662 0.364195 0
M  V30 5024 O 500.579 1.33317 1.26382 0
M  V30 5025 C 500.641 3.20144 -1.63549 0
M  V30 5026 C 500.305 3.33665 -3.12277 0
M  V30 5027 C 501.302 3.20194 -4.096 0
M  V30 5028 C 498.987 3.58397 -3.51933 0
M  V30 5029 C 500.981 3.31256 -5.44563 0
M  V30 5030 C 498.668 3.69098 -4.87042 0
M  V30 5031 C 499.666 3.55537 -5.83166 0
M  V30 5032 O 499.354 3.65864 -7.1582 0
M  V30 5033 H 499.086 0.558194 -0.381307 0
M  V30 5034 H 501.64 1.24387 -1.63454 0
M  V30 5035 H 499.87 3.72659 -1.03256 0
M  V30 5036 H 501.559 3.79262 -1.4462 0
M  V30 5037 H 502.325 3.00987 -3.80305 0
M  V30 5038 H 498.204 3.68025 -2.77631 0
M  V30 5039 H 501.748 3.20588 -6.19572 0
M  V30 5040 H 497.645 3.87814 -5.16014 0
M  V30 5041 H 498.413 3.82675 -7.23534 0
M  V30 5042 N 501.076 1.04316 1.18135 0
M  V30 5043 C 502.023 0.636398 2.21853 0
M  V30 5044 C 502.993 -0.357039 1.62217 0
M  V30 5045 O 504.178 -0.250453 1.89149 0
M  V30 5046 C 501.318 0.00812779 3.45099 0
M  V30 5047 C 500.431 1.04933 4.19062 0
M  V30 5048 C 499.566 0.389313 5.29771 0
M  V30 5049 C 498.605 1.41544 5.9551 0
M  V30 5050 N 497.742 0.78021 6.97751 0
M  V30 5051 H 502.582 1.52536 2.56002 0
M  V30 5052 H 500.119 0.76304 1.25762 0
M  V30 5053 H 502.077 -0.373497 4.15525 0
M  V30 5054 H 500.707 -0.844336 3.11562 0
M  V30 5055 H 499.759 1.54888 3.47439 0
M  V30 5056 H 501.071 1.82862 4.64072 0
M  V30 5057 H 500.225 -0.0463805 6.06682 0
M  V30 5058 H 498.964 -0.422038 4.8587 0
M  V30 5059 H 497.969 1.86124 5.17337 0
M  V30 5060 H 499.194 2.22854 6.41493 0
M  V30 5061 H 497.14 -0.0107899 6.55999 0
M  V30 5062 H 497.057 1.49716 7.41027 0
M  V30 5063 H 498.325 0.368996 7.78626 0
M  V30 5064 N 502.554 -1.34406 0.822964 0
M  V30 5065 C 503.794 -2.00103 0.416915 0
M  V30 5066 C 504.158 -1.63826 -1.00125 0
M  V30 5067 O 505.359 -2.22367 -1.51018 0
M  V30 5068 C 503.63 -3.52101 0.613151 0
M  V30 5069 S 505.189 -4.37774 0.299956 0
M  V30 5070 H 502.007 -0.69333 0.157527 0
M  V30 5071 H 504.609 -1.63698 1.06879 0
M  V30 5072 H 503.313 -3.75991 1.64496 0
M  V30 5073 H 502.844 -3.93364 -0.0534554 0
M  V30 5074 H 504.859 -4.8822 -0.886336 0
M  V30 5075 N 504.032 -0.577932 -1.46621 0
M  V30 5076 C 504.979 0.158048 -2.30258 0
M  V30 5077 C 505.949 0.888669 -1.40328 0
M  V30 5078 O 507.134 0.880283 -1.6928 0
M  V30 5079 C 504.274 1.16884 -3.24703 0
M  V30 5080 C 503.387 0.442163 -4.29731 0
M  V30 5081 C 502.522 1.44007 -5.11308 0
M  V30 5082 C 501.561 0.69952 -6.0809 0
M  V30 5083 N 500.698 1.64525 -6.82551 0
M  V30 5084 H 505.538 -0.561242 -2.92667 0
M  V30 5085 H 503.075 -0.288591 -1.44241 0
M  V30 5086 H 505.033 1.7677 -3.779 0
M  V30 5087 H 503.663 1.85591 -2.64113 0
M  V30 5088 H 502.715 -0.271632 -3.79429 0
M  V30 5089 H 504.027 -0.136992 -4.98612 0
M  V30 5090 H 503.181 2.11186 -5.68758 0
M  V30 5091 H 501.92 2.05315 -4.42377 0
M  V30 5092 H 500.925 0.0139217 -5.49798 0
M  V30 5093 H 502.15 0.091894 -6.79038 0
M  V30 5094 H 500.096 2.24653 -6.16334 0
M  V30 5095 H 500.013 1.11878 -7.47676 0
M  V30 5096 H 501.281 2.30754 -7.44562 0
M  V30 5097 N 505.51 1.54411 -0.315457 0
M  V30 5098 C 506.756 2.00716 0.289972 0
M  V30 5099 C 507.089 1.2034 1.5242 0
M  V30 5100 O 506.364 0.283579 1.92422 0
M  V30 5101 C 506.647 3.54507 0.632196 0
M  V30 5102 C 506.5 4.45615 -0.61218 0
M  V30 5103 C 507.819 4.15421 1.45305 0
M  V30 5104 H 504.938 0.729637 0.10392 0
M  V30 5105 H 507.58 1.8506 -0.430427 0
M  V30 5106 H 505.73 3.67979 1.24595 0
M  V30 5107 H 507.402 4.44026 -1.25053 0
M  V30 5108 H 505.645 4.15621 -1.24264 0
M  V30 5109 H 506.316 5.51022 -0.328379 0
M  V30 5110 H 508.792 4.05474 0.934331 0
M  V30 5111 H 507.668 5.23157 1.66127 0
M  V30 5112 H 507.929 3.68223 2.44671 0
M  V30 5113 N 506.988 0.0434614 1.5754 0
M  V30 5114 C 508.213 -0.645358 1.97104 0
M  V30 5115 C 508.638 -1.64037 0.920521 0
M  V30 5116 O 507.996 -1.80922 -0.11708 0
M  V30 5117 C 508.044 -1.31547 3.35749 0
M  V30 5118 O 507.148 -2.43103 3.33129 0
M  V30 5119 H 506.489 -0.168403 0.64229 0
M  V30 5120 H 509.019 0.109573 2.04306 0
M  V30 5121 H 509.029 -1.66895 3.72304 0
M  V30 5122 H 507.704 -0.586205 4.11748 0
M  V30 5123 H 506.281 -2.0976 3.0831 0
M  V30 5124 N 508.466 -1.55915 -0.229846 0
M  V30 5125 C 509.414 -1.9258 -1.30444 0
M  V30 5126 C 510.408 -0.806839 -1.48951 0
M  V30 5127 O 511.614 -0.991606 -1.50224 0
M  V30 5128 H 507.989 -0.611878 -0.437161 0
M  V30 5129 H 509.96 -2.82264 -0.96797 0
M  V30 5130 C 508.709 -2.25171 -2.6494 0
M  V30 5131 H 508.032 -3.10782 -2.51504 0
M  V30 5132 H 509.472 -2.54716 -3.38963 0
M  V30 5133 C 507.931 -1.07394 -3.19324 0
M  V30 5134 O 508.461 -0.330759 -4.00336 0
M  V30 5135 N 506.667 -0.859984 -2.77584 0
M  V30 5136 H 506.214 -1.46605 -2.11813 0
M  V30 5137 H 506.172 -0.0736671 -3.14314 0
M  V30 5138 N 509.944 0.496216 -1.49584 0
M  V30 5139 C 510.891 1.59722 -1.66606 0
M  V30 5140 C 511.861 1.58158 -0.507477 0
M  V30 5141 O 513.046 1.76072 -0.735076 0
M  V30 5142 C 510.186 2.97844 -1.74308 0
M  V30 5143 C 509.299 3.09388 -3.01502 0
M  V30 5144 C 508.434 4.38271 -3.00153 0
M  V30 5145 C 507.473 4.43466 -4.21906 0
M  V30 5146 N 506.61 5.63784 -4.1844 0
M  V30 5147 H 511.45 1.44515 -2.60613 0
M  V30 5148 H 508.987 0.703048 -1.29212 0
M  V30 5149 H 510.945 3.77907 -1.76754 0
M  V30 5150 H 509.575 3.11743 -0.837619 0
M  V30 5151 H 508.627 2.22357 -3.08645 0
M  V30 5152 H 509.939 3.09085 -3.91494 0
M  V30 5153 H 509.093 5.2666 -3.01188 0
M  V30 5154 H 507.832 4.41146 -2.07947 0
M  V30 5155 H 506.837 3.53478 -4.21109 0
M  V30 5156 H 508.062 4.42303 -5.1531 0
M  V30 5157 H 506.008 5.67491 -3.29074 0
M  V30 5158 H 505.925 5.65118 -5.02173 0
M  V30 5159 H 507.193 6.54367 -4.23585 0
M  V30 5160 N 511.423 1.38739 0.74761 0
M  V30 5161 C 512.386 1.36241 1.84312 0
M  V30 5162 C 513.386 0.261811 1.58654 0
M  V30 5163 O 514.576 0.519031 1.66288 0
M  V30 5164 C 511.708 1.12253 3.21888 0
M  V30 5165 H 512.901 2.33712 1.87933 0
M  V30 5166 H 510.454 1.2412 0.949946 0
M  V30 5167 H 511.189 0.154133 3.23934 0
M  V30 5168 H 510.974 1.91943 3.41907 0
M  V30 5169 H 512.464 1.13215 4.0196 0
M  V30 5170 N 512.901 -0.976442 1.23707 0
M  V30 5171 C 513.831 -2.08749 1.04624 0
M  V30 5172 C 514.812 -1.70057 -0.0380956 0
M  V30 5173 O 515.997 -1.93782 0.127308 0
M  V30 5174 C 513.127 -3.41335 0.640902 0
M  V30 5175 C 512.081 -3.93947 1.67302 0
M  V30 5176 C 511.407 -5.22774 1.12301 0
M  V30 5177 C 512.707 -4.22769 3.06697 0
M  V30 5178 H 514.401 -2.24972 1.97555 0
M  V30 5179 H 511.947 -1.08108 0.951247 0
M  V30 5180 H 513.9 -4.18489 0.494434 0
M  V30 5181 H 512.624 -3.24988 -0.324099 0
M  V30 5182 H 511.283 -3.18941 1.80755 0
M  V30 5183 H 510.931 -5.0278 0.148877 0
M  V30 5184 H 510.631 -5.58942 1.81267 0
M  V30 5185 H 512.155 -6.02546 0.988479 0
M  V30 5186 H 513.569 -4.90659 2.96524 0
M  V30 5187 H 511.966 -4.70147 3.72937 0
M  V30 5188 H 513.036 -3.29885 3.55392 0
M  V30 5189 N 514.379 -1.04941 -1.1758 0
M  V30 5190 C 515.79 -0.784501 -1.69418 0
M  V30 5191 C 516.141 0.693625 -1.8353 0
M  V30 5192 O 515.266 1.53925 -1.52106 0
M  V30 5193 C 515.861 -1.41746 -3.07723 0
M  V30 5194 C 514.42 -1.20066 -3.56737 0
M  V30 5195 C 513.567 -1.5026 -2.33061 0
M  V30 5196 H 516.518 -1.21469 -1.02133 0
M  V30 5197 H 516.539 -0.825381 -3.7144 0
M  V30 5198 H 516.051 -2.49325 -2.9742 0
M  V30 5199 H 514.152 -0.144006 -3.72322 0
M  V30 5200 H 514.265 -1.90384 -4.39648 0
M  V30 5201 H 512.629 -0.922598 -2.37403 0
M  V30 5202 H 513.412 -2.58967 -2.25368 0
M  V30 5203 N 515.857 1.33968 -0.830081 0
M  V30 5204 C 516.82 2.27694 -0.26235 0
M  V30 5205 C 517.82 1.50589 0.563876 0
M  V30 5206 O 519.01 1.70028 0.378941 0
M  V30 5207 C 516.142 3.35002 0.63138 0
M  V30 5208 H 517.335 2.79419 -1.08928 0
M  V30 5209 H 514.888 1.44221 -0.602486 0
M  V30 5210 H 515.623 2.88504 1.48109 0
M  V30 5211 H 515.408 3.92079 0.0403276 0
M  V30 5212 H 516.898 4.04897 1.02217 0
M  V30 5213 N 517.335 0.585699 1.46312 0
M  V30 5214 C 518.746 0.159938 1.86014 0
M  V30 5215 C 519.097 -1.27775 1.48889 0
M  V30 5216 O 518.222 -1.96559 0.90519 0
M  V30 5217 C 518.817 0.283485 3.37612 0
M  V30 5218 C 517.376 -0.0874256 3.76298 0
M  V30 5219 C 516.523 0.618055 2.70325 0
M  V30 5220 H 519.474 0.793737 1.37425 0
M  V30 5221 H 519.495 -0.490348 3.77327 0
M  V30 5222 H 519.007 1.32995 3.64601 0
M  V30 5223 H 517.108 -1.13391 3.54927 0
M  V30 5224 H 517.221 0.290975 4.78216 0
M  V30 5225 H 515.585 0.057993 2.54634 0
M  V30 5226 H 516.368 1.66623 3.00153 0
M  V30 5227 N 518.813 -1.54241 0.323641 0
M  V30 5228 C 520.062 -1.9975 -0.279806 0
M  V30 5229 C 520.375 -1.2156 -1.5324 0
M  V30 5230 O 521.581 -1.57447 -2.21185 0
M  V30 5231 C 520.037 -3.55686 -0.549115 0
M  V30 5232 C 519.645 -4.4271 0.686432 0
M  V30 5233 C 521.389 -4.09663 -1.11251 0
M  V30 5234 C 519.296 -5.90119 0.389022 0
M  V30 5235 H 518.226 -0.746177 -0.10833 0
M  V30 5236 H 520.877 -1.78248 0.435877 0
M  V30 5237 H 519.259 -3.73176 -1.32499 0
M  V30 5238 H 520.433 -4.36996 1.46188 0
M  V30 5239 H 518.748 -3.99623 1.17005 0
M  V30 5240 H 521.345 -5.17386 -1.34965 0
M  V30 5241 H 521.688 -3.61651 -2.06191 0
M  V30 5242 H 522.221 -3.95806 -0.39782 0
M  V30 5243 H 518.96 -6.42326 1.30759 0
M  V30 5244 H 518.48 -5.98785 -0.348722 0
M  V30 5245 H 520.159 -6.47 -0.0011164 0
M  V30 5246 N 520.291 -0.0518155 -1.57515 0
M  V30 5247 C 521.201 0.937539 -2.15052 0
M  V30 5248 C 522.217 1.34121 -1.10849 0
M  V30 5249 O 523.393 1.418 -1.4302 0
M  V30 5250 C 520.458 2.19379 -2.68466 0
M  V30 5251 C 519.519 1.84841 -3.87469 0
M  V30 5252 C 518.752 3.04477 -4.38326 0
M  V30 5253 O 518.975 4.17868 -3.88256 0
M  V30 5254 O 517.909 2.85453 -5.29906 0
M  V30 5255 H 521.735 0.478201 -2.99912 0
M  V30 5256 H 519.32 0.17012 -1.48428 0
M  V30 5257 H 521.202 2.93084 -3.02787 0
M  V30 5258 H 519.877 2.64449 -1.86677 0
M  V30 5259 H 518.784 1.08449 -3.58036 0
M  V30 5260 H 520.117 1.44569 -4.7049 0
M  V30 5261 N 521.769 1.56035 0.221574 0
M  V30 5262 C 522.716 1.92413 1.27459 0
M  V30 5263 C 523.686 0.781323 1.46576 0
M  V30 5264 O 524.871 1.03721 1.60145 0
M  V30 5265 C 522.011 2.24617 2.61995 0
M  V30 5266 C 521.124 3.51831 2.50677 0
M  V30 5267 C 520.259 3.73482 3.77736 0
M  V30 5268 C 519.298 4.94211 3.6114 0
M  V30 5269 N 518.435 5.12252 4.80148 0
M  V30 5270 H 523.275 2.82203 0.957355 0
M  V30 5271 H 520.812 1.39676 0.461415 0
M  V30 5272 H 522.77 2.41298 3.40339 0
M  V30 5273 H 521.4 1.38 2.91815 0
M  V30 5274 H 520.452 3.43343 1.63767 0
M  V30 5275 H 521.764 4.40328 2.34334 0
M  V30 5276 H 520.918 3.9026 4.64523 0
M  V30 5277 H 519.657 2.83266 3.97003 0
M  V30 5278 H 518.662 4.77384 2.72736 0
M  V30 5279 H 519.887 5.85912 3.43343 0
M  V30 5280 H 517.833 4.24978 4.99729 0
M  V30 5281 H 517.75 5.94881 4.66532 0
M  V30 5282 H 519.018 5.33465 5.68362 0
M  V30 5283 N 523.247 -0.488276 1.49845 0
M  V30 5284 C 524.475 -1.26527 1.63702 0
M  V30 5285 C 524.89 -1.8618 0.313447 0
M  V30 5286 O 524.247 -1.68432 -0.702624 0
M  V30 5287 C 524.298 -2.3864 2.71538 0
M  V30 5288 O 524.019 -1.81437 3.98763 0
M  V30 5289 C 525.52 -3.29805 2.96215 0
M  V30 5290 H 522.74 -0.383295 0.55075 0
M  V30 5291 H 525.284 -0.584779 1.95961 0
M  V30 5292 H 523.439 -3.02496 2.42023 0
M  V30 5293 H 523.853 -2.55135 4.58265 0
M  V30 5294 H 525.327 -4.04722 3.75372 0
M  V30 5295 H 525.804 -3.87563 2.06619 0
M  V30 5296 H 526.41 -2.71703 3.27196 0
M  V30 5297 N 524.725 -1.39134 -0.740242 0
M  V30 5298 C 525.974 -1.35384 -1.49512 0
M  V30 5299 C 526.287 0.04919 -1.95538 0
M  V30 5300 O 527.493 0.209257 -2.70692 0
M  V30 5301 C 525.949 -2.37812 -2.70136 0
M  V30 5302 C 525.557 -3.83804 -2.31081 0
M  V30 5303 C 527.301 -2.4313 -3.47977 0
M  V30 5304 C 525.208 -4.77886 -3.48395 0
M  V30 5305 H 524.138 -0.503297 -0.561434 0
M  V30 5306 H 526.789 -1.64754 -0.807974 0
M  V30 5307 H 525.171 -2.01505 -3.40899 0
M  V30 5308 H 526.345 -4.29123 -1.67898 0
M  V30 5309 H 524.66 -3.81732 -1.66343 0
M  V30 5310 H 527.257 -3.10614 -4.35228 0
M  V30 5311 H 527.6 -1.45423 -3.90074 0
M  V30 5312 H 528.133 -2.78304 -2.84239 0
M  V30 5313 H 524.872 -5.76836 -3.11353 0
M  V30 5314 H 524.392 -4.3725 -4.10576 0
M  V30 5315 H 526.071 -4.96538 -4.148 0
M  V30 5316 N 526.204 0.969867 -1.24223 0
M  V30 5317 C 527.429 1.75289 -1.10853 0
M  V30 5318 C 527.854 1.85091 0.335079 0
M  V30 5319 O 527.212 1.32024 1.24255 0
M  V30 5320 C 527.26 3.15255 -1.75062 0
M  V30 5321 O 526.364 3.99589 -1.01992 0
M  V30 5322 H 525.705 0.538904 -0.387915 0
M  V30 5323 H 528.235 1.21675 -1.64488 0
M  V30 5324 H 528.245 3.65787 -1.80731 0
M  V30 5325 H 526.92 3.07436 -2.801 0
M  V30 5326 H 525.497 3.58077 -1.04094 0
M  V30 5327 N 527.682 1.05563 1.17022 0
M  V30 5328 C 528.629 0.659893 2.21165 0
M  V30 5329 C 529.599 -0.339813 1.62587 0
M  V30 5330 O 530.784 -0.230378 1.89404 0
M  V30 5331 C 527.924 0.0447297 3.45071 0
M  V30 5332 C 527.037 1.09372 4.17926 0
M  V30 5333 C 526.172 0.445481 5.29329 0
M  V30 5334 C 525.211 1.47852 5.93975 0
M  V30 5335 N 524.348 0.854172 6.96885 0
M  V30 5336 H 529.188 1.55243 2.54369 0
M  V30 5337 H 526.725 0.776336 1.24946 0
M  V30 5338 H 528.683 -0.329404 4.15898 0
M  V30 5339 H 527.313 -0.811244 3.1244 0
M  V30 5340 H 526.365 1.58564 3.45777 0
M  V30 5341 H 527.677 1.87773 4.62107 0
M  V30 5342 H 526.831 0.0179688 6.06697 0
M  V30 5343 H 525.57 -0.370481 4.86291 0
M  V30 5344 H 524.575 1.91601 5.15334 0
M  V30 5345 H 525.8 2.29645 6.39093 0
M  V30 5346 H 523.746 0.0587882 6.55974 0
M  V30 5347 H 523.663 1.57567 7.39397 0
M  V30 5348 H 524.931 0.451559 7.78191 0
M  V30 5349 N 529.16 -1.33526 0.837174 0
M  V30 5350 C 530.123 -2.27551 0.274421 0
M  V30 5351 C 531.123 -1.50886 -0.555881 0
M  V30 5352 O 532.313 -1.70227 -0.369918 0
M  V30 5353 C 529.445 -3.35332 -0.613605 0
M  V30 5354 H 530.638 -2.78837 1.10408 0
M  V30 5355 H 528.191 -1.439 0.610126 0
M  V30 5356 H 528.926 -2.89285 -1.46577 0
M  V30 5357 H 528.711 -3.92095 -0.0195341 0
M  V30 5358 H 530.201 -4.05433 -1.00068 0
M  V30 5359 N 530.638 -0.59345 -1.46 0
M  V30 5360 C 531.585 0.133618 -2.30413 0
M  V30 5361 C 532.555 0.873736 -1.41262 0
M  V30 5362 O 533.74 0.862279 -1.70204 0
M  V30 5363 C 530.88 1.13434 -3.25924 0
M  V30 5364 C 529.993 0.39656 -4.30176 0
M  V30 5365 C 529.128 1.38575 -5.12806 0
M  V30 5366 C 528.167 0.634984 -6.08797 0
M  V30 5367 N 527.304 1.57276 -6.84258 0
M  V30 5368 H 532.144 -0.592252 -2.92055 0
M  V30 5369 H 529.681 -0.303874 -1.43927 0
M  V30 5370 H 531.639 1.72752 -3.79753 0
M  V30 5371 H 530.269 1.82779 -2.66067 0
M  V30 5372 H 529.321 -0.311861 -3.79119 0
M  V30 5373 H 530.633 -0.189869 -4.98438 0
M  V30 5374 H 529.787 2.05141 -5.70966 0
M  V30 5375 H 528.526 2.00611 -4.44529 0
M  V30 5376 H 527.531 -0.0443925 -5.49782 0
M  V30 5377 H 528.756 0.0198678 -6.79097 0
M  V30 5378 H 526.702 2.18103 -6.18682 0
M  V30 5379 H 526.619 1.03941 -7.48821 0
M  V30 5380 H 527.887 2.22844 -7.46968 0
M  V30 5381 N 532.116 1.54067 -0.331816 0
M  V30 5382 C 533.364 2.00319 0.267739 0
M  V30 5383 C 533.685 1.22148 1.52003 0
M  V30 5384 O 532.955 0.325494 1.93177 0
M  V30 5385 H 531.535 0.740014 0.101922 0
M  V30 5386 H 534.197 1.89628 -0.450267 0
M  V30 5387 H 533.293 3.07765 0.518385 0
M  V30 5388 N 533.594 0.0601682 1.57485 0
M  V30 5389 C 534.526 -0.94047 2.09016 0
M  V30 5390 C 535.539 -1.26897 1.01985 0
M  V30 5391 O 536.728 -1.22819 1.29529 0
M  V30 5392 C 533.828 -2.25955 2.52582 0
M  V30 5393 C 533.001 -2.11163 3.83052 0
M  V30 5394 C 532.06 -3.26273 4.12835 0
M  V30 5395 O 531.086 -3.01779 4.82616 0
M  V30 5396 N 532.288 -4.51022 3.65458 0
M  V30 5397 H 535.053 -0.500578 2.9549 0
M  V30 5398 H 532.614 -0.125852 1.6141 0
M  V30 5399 H 534.606 -3.01846 2.69575 0
M  V30 5400 H 533.176 -2.61481 1.71308 0
M  V30 5401 H 532.396 -1.19808 3.75552 0
M  V30 5402 H 533.684 -1.98517 4.68475 0
M  V30 5403 H 533.082 -4.73811 3.09062 0
M  V30 5404 H 531.639 -5.23978 3.87673 0
M  V30 5405 N 535.072 -1.5615 -0.213296 0
M  V30 5406 C 536.483 -1.69645 -0.779582 0
M  V30 5407 C 536.834 -0.663615 -1.84636 0
M  V30 5408 O 535.959 0.183633 -2.15619 0
M  V30 5409 C 536.554 -3.07567 -1.42084 0
M  V30 5410 C 535.113 -3.22889 -1.93442 0
M  V30 5411 C 534.26 -2.65581 -0.797612 0
M  V30 5412 H 537.211 -1.58696 0.0114951 0
M  V30 5413 H 537.232 -3.03884 -2.28986 0
M  V30 5414 H 536.744 -3.82716 -0.644187 0
M  V30 5415 H 534.845 -2.52623 -2.73884 0
M  V30 5416 H 534.958 -4.30197 -2.10872 0
M  V30 5417 H 533.322 -2.24278 -1.20712 0
M  V30 5418 H 534.105 -3.43284 -0.033494 0
M  V30 5419 N 536.55 0.480323 -1.50102 0
M  V30 5420 C 537.966 0.813295 -1.37323 0
M  V30 5421 C 538.166 1.97027 -0.422206 0
M  V30 5422 O 537.222 2.5212 0.138563 0
M  V30 5423 C 538.535 1.13404 -2.78496 0
M  V30 5424 C 540.083 1.24104 -2.87345 0
M  V30 5425 C 540.558 1.59497 -4.29331 0
M  V30 5426 N 542.049 1.66507 -4.32238 0
M  V30 5427 C 542.784 1.95378 -5.39087 0
M  V30 5428 N 542.28 2.22333 -6.56155 0
M  V30 5429 N 544.073 1.96803 -5.26522 0
M  V30 5430 H 536.224 -0.282291 -2.10516 0
M  V30 5431 H 538.487 -0.063752 -0.945854 0
M  V30 5432 H 538.193 0.357064 -3.49883 0
M  V30 5433 H 538.067 2.07251 -3.15162 0
M  V30 5434 H 540.454 2.00871 -2.16183 0
M  V30 5435 H 540.535 0.282593 -2.54234 0
M  V30 5436 H 540.179 0.832736 -5.01027 0
M  V30 5437 H 540.109 2.56477 -4.59921 0
M  V30 5438 H 542.6 1.47753 -3.47818 0
M  V30 5439 H 542.913 2.43611 -7.33399 0
M  V30 5440 H 541.258 2.19745 -6.59346 0
M  V30 5441 H 544.449 1.75235 -4.34062 0
M  V30 5442 H 544.622 2.18969 -6.09883 0
M  V30 5443 N 538.028 1.39524 0.732853 0
M  V30 5444 C 538.938 1.40695 1.87729 0
M  V30 5445 C 539.954 0.301496 1.71368 0
M  V30 5446 O 541.13 0.543313 1.93933 0
M  V30 5447 C 538.195 1.25098 3.23344 0
M  V30 5448 C 537.256 2.45634 3.52083 0
M  V30 5449 C 536.489 2.30772 4.81228 0
M  V30 5450 O 536.712 1.31233 5.55098 0
M  V30 5451 O 535.646 3.19799 5.09914 0
M  V30 5452 H 539.472 2.37168 1.89697 0
M  V30 5453 H 537.057 1.20663 0.880959 0
M  V30 5454 H 538.939 1.18541 4.04383 0
M  V30 5455 H 537.614 0.317209 3.22142 0
M  V30 5456 H 536.521 2.57767 2.71122 0
M  V30 5457 H 537.854 3.37712 3.58066 0
M  V30 5458 N 539.506 -0.963266 1.24736 0
M  V30 5459 C 540.917 -1.52145 1.08207 0
M  V30 5460 C 541.268 -1.93142 -0.345061 0
M  V30 5461 O 540.393 -1.77769 -1.23399 0
M  V30 5462 C 540.988 -2.76486 1.95808 0
M  V30 5463 C 539.547 -3.28646 1.8349 0
M  V30 5464 C 538.694 -2.01529 1.90476 0
M  V30 5465 H 541.645 -0.781083 1.38148 0
M  V30 5466 H 541.666 -3.49986 1.49297 0
M  V30 5467 H 541.178 -2.46617 2.99669 0
M  V30 5468 H 539.279 -3.63357 0.824787 0
M  V30 5469 H 539.392 -3.97246 2.67829 0
M  V30 5470 H 537.756 -2.16442 1.34258 0
M  V30 5471 H 538.539 -1.7402 2.95926 0
M  V30 5472 N 540.985 -1.06182 -1.16461 0
M  V30 5473 C 541.917 -0.629584 -2.20383 0
M  V30 5474 C 542.93 0.311834 -1.59786 0
M  V30 5475 O 544.119 0.103 -1.78203 0
M  V30 5476 C 541.219 0.0973695 -3.3876 0
M  V30 5477 C 540.392 -0.857252 -4.28917 0
M  V30 5478 C 539.451 -0.169749 -5.25926 0
M  V30 5479 O 538.477 -0.807044 -5.6345 0
M  V30 5480 N 539.679 1.08911 -5.70192 0
M  V30 5481 H 542.444 -1.52352 -2.58087 0
M  V30 5482 H 540.005 -0.944993 -1.31459 0
M  V30 5483 H 541.997 0.567676 -4.00699 0
M  V30 5484 H 540.567 0.893093 -2.99571 0
M  V30 5485 H 539.787 -1.50696 -3.64259 0
M  V30 5486 H 541.075 -1.50489 -4.86035 0
M  V30 5487 H 540.473 1.62703 -5.41797 0
M  V30 5488 H 539.03 1.50331 -6.34227 0
M  V30 5489 N 542.463 1.3308 -0.844243 0
M  V30 5490 C 543.709 1.97898 -0.443206 0
M  V30 5491 C 544.042 1.66699 0.99625 0
M  V30 5492 O 543.317 0.949704 1.69738 0
M  V30 5493 C 543.6 3.53801 -0.670606 0
M  V30 5494 C 543.453 3.94667 -2.15772 0
M  V30 5495 C 544.772 4.39936 -0.120226 0
M  V30 5496 H 541.891 0.718861 -0.162504 0
M  V30 5497 H 544.533 1.57633 -1.06075 0
M  V30 5498 H 542.683 3.88229 -0.14496 0
M  V30 5499 H 544.355 3.70469 -2.74865 0
M  V30 5500 H 542.598 3.44203 -2.6402 0
M  V30 5501 H 543.269 5.03275 -2.26757 0
M  V30 5502 H 545.745 4.12183 -0.5696 0
M  V30 5503 H 544.621 5.4803 -0.308984 0
M  V30 5504 H 544.882 4.31184 0.976347 0
M  V30 5505 N 543.941 0.601185 1.45683 0
M  V30 5506 C 545.171 0.0999093 2.06358 0
M  V30 5507 C 545.579 -1.21831 1.44754 0
M  V30 5508 O 544.922 -1.75157 0.553695 0
M  V30 5509 C 544.984 -0.12085 3.59297 0
M  V30 5510 C 544.648 1.11459 4.432 0
M  V30 5511 C 545.645 2.03118 4.7858 0
M  V30 5512 C 543.33 1.34162 4.84051 0
M  V30 5513 C 545.324 3.15814 5.53661 0
M  V30 5514 C 543.011 2.4716 5.58888 0
M  V30 5515 C 544.009 3.37814 5.93608 0
M  V30 5516 O 543.697 4.48846 6.66928 0
M  V30 5517 H 543.429 0.0630316 0.673055 0
M  V30 5518 H 545.983 0.826982 1.88016 0
M  V30 5519 H 544.213 -0.902744 3.76015 0
M  V30 5520 H 545.902 -0.572925 4.01836 0
M  V30 5521 H 546.668 1.86801 4.47583 0
M  V30 5522 H 542.547 0.645018 4.56465 0
M  V30 5523 H 546.091 3.86596 5.8068 0
M  V30 5524 H 541.988 2.63432 5.89299 0
M  V30 5525 H 542.756 4.47446 6.85371 0
M  V30 5526 N 545.419 -1.53889 0.339982 0
M  V30 5527 C 546.647 -2.05271 -0.259114 0
M  V30 5528 C 547.062 -1.21517 -1.44496 0
M  V30 5529 O 546.419 -0.24966 -1.80784 0
M  V30 5530 C 546.47 -3.55092 -0.677634 0
M  V30 5531 O 546.191 -4.35667 0.461051 0
M  V30 5532 C 547.692 -4.22631 -1.33782 0
M  V30 5533 H 544.912 -0.669085 -0.0506566 0
M  V30 5534 H 547.456 -1.9852 0.490935 0
M  V30 5535 H 545.611 -3.62077 -1.37763 0
M  V30 5536 H 546.025 -5.24343 0.128144 0
M  V30 5537 H 547.499 -5.28861 -1.58145 0
M  V30 5538 H 547.976 -3.74758 -2.29027 0
M  V30 5539 H 548.582 -4.19829 -0.679957 0
M  V30 5540 N 546.897 -0.0685191 -1.57451 0
M  V30 5541 C 547.827 0.89747 -2.15564 0
M  V30 5542 C 548.808 1.31266 -1.08181 0
M  V30 5543 O 549.993 1.38429 -1.36202 0
M  V30 5544 C 547.123 2.16623 -2.71463 0
M  V30 5545 C 546.077 1.89054 -3.83982 0
M  V30 5546 C 545.403 3.22532 -4.26471 0
M  V30 5547 C 546.703 1.1984 -5.08366 0
M  V30 5548 H 548.397 0.413373 -2.96533 0
M  V30 5549 H 545.943 0.197391 -1.42641 0
M  V30 5550 H 547.896 2.84614 -3.10761 0
M  V30 5551 H 546.62 2.67269 -1.8771 0
M  V30 5552 H 545.279 1.23469 -3.45183 0
M  V30 5553 H 544.927 3.71013 -3.39644 0
M  V30 5554 H 544.627 3.04879 -5.02317 0
M  V30 5555 H 546.151 3.91727 -4.68383 0
M  V30 5556 H 547.565 1.77896 -5.45001 0
M  V30 5557 H 545.962 1.12456 -5.89469 0
M  V30 5558 H 547.032 0.176996 -4.84577 0
M  V30 5559 N 548.375 1.56261 0.205012 0
M  V30 5560 C 549.786 1.70056 0.770574 0
M  V30 5561 C 550.137 0.673398 1.84282 0
M  V30 5562 O 549.262 -0.172196 2.15714 0
M  V30 5563 C 549.857 3.08316 1.40451 0
M  V30 5564 C 548.416 3.2391 1.91727 0
M  V30 5565 C 547.563 2.66001 0.783516 0
M  V30 5566 H 550.514 1.58688 -0.019911 0
M  V30 5567 H 550.535 3.05094 2.27371 0
M  V30 5568 H 550.047 3.83053 0.623882 0
M  V30 5569 H 548.148 2.54072 2.7254 0
M  V30 5570 H 548.261 4.3131 2.08588 0
M  V30 5571 H 546.625 2.24915 1.19521 0
M  V30 5572 H 547.408 3.43297 0.0152883 0
M  V30 5573 N 549.853 -0.472356 1.50355 0
M  V30 5574 C 551.264 -1.05326 1.54154 0
M  V30 5575 C 551.615 -1.93155 0.344303 0
M  V30 5576 O 550.74 -2.09479 -0.542928 0
M  V30 5577 C 551.335 -1.91691 2.79356 0
M  V30 5578 C 549.894 -2.44892 2.8584 0
M  V30 5579 C 549.041 -1.23205 2.48426 0
M  V30 5580 H 551.992 -0.255027 1.56637 0
M  V30 5581 H 552.013 -2.76742 2.6114 0
M  V30 5582 H 551.525 -1.27741 3.66475 0
M  V30 5583 H 549.626 -3.12399 2.0307 0
M  V30 5584 H 549.739 -2.80086 3.88701 0
M  V30 5585 H 548.103 -1.56643 2.00836 0
M  V30 5586 H 548.886 -0.609194 3.37852 0
M  V30 5587 N 551.331 -1.39911 -0.725443 0
M  V30 5588 C 552.556 -1.41137 -1.5197 0
M  V30 5589 C 552.981 -0.010262 -1.88097 0
M  V30 5590 O 552.339 0.979184 -1.52583 0
M  V30 5591 C 552.387 -2.2994 -2.77777 0
M  V30 5592 O 551.491 -1.73586 -3.74088 0
M  V30 5593 H 550.832 -0.480219 -0.458569 0
M  V30 5594 H 553.362 -1.84023 -0.894249 0
M  V30 5595 H 553.372 -2.44785 -3.26411 0
M  V30 5596 H 552.047 -3.31759 -2.50816 0
M  V30 5597 H 550.624 -1.68035 -3.32894 0
M  V30 5598 N 552.809 0.956637 -1.25245 0
M  V30 5599 C 554.225 1.22733 -1.02023 0
M  V30 5600 C 554.425 1.99761 0.264186 0
M  V30 5601 O 553.481 2.32814 0.977436 0
M  V30 5602 C 554.794 2.00367 -2.24217 0
M  V30 5603 C 556.342 2.13418 -2.28958 0
M  V30 5604 C 556.817 2.9445 -3.50803 0
M  V30 5605 N 558.308 3.02029 -3.51187 0
M  V30 5606 C 559.043 3.65116 -4.42129 0
M  V30 5607 N 558.539 4.2983 -5.43339 0
M  V30 5608 N 560.332 3.62237 -4.29815 0
M  V30 5609 H 552.483 0.441282 -2.07765 0
M  V30 5610 H 554.746 0.257686 -0.912306 0
M  V30 5611 H 554.452 1.51165 -3.17556 0
M  V30 5612 H 554.326 3.01077 -2.27228 0
M  V30 5613 H 556.713 2.61819 -1.36143 0
M  V30 5614 H 556.794 1.1202 -2.29968 0
M  V30 5615 H 556.438 2.46741 -4.43939 0
M  V30 5616 H 556.368 3.9607 -3.47039 0
M  V30 5617 H 558.859 2.56007 -2.77973 0
M  V30 5618 H 559.172 4.75819 -6.08947 0
M  V30 5619 H 557.517 4.28465 -5.47214 0
M  V30 5620 H 560.708 3.10863 -3.49974 0
M  V30 5621 H 560.881 4.11117 -5.00886 0
M  V30 5622 N 554.287 1.06798 1.15896 0
M  V30 5623 C 555.197 0.694564 2.24083 0
M  V30 5624 C 556.213 -0.291687 1.71538 0
M  V30 5625 O 557.389 -0.139723 2.00915 0
M  V30 5626 C 554.454 0.0921014 3.46578 0
M  V30 5627 C 553.515 1.13087 4.14137 0
M  V30 5628 C 552.748 0.557064 5.30785 0
M  V30 5629 O 552.971 -0.628623 5.66925 0
M  V30 5630 O 551.905 1.29924 5.8771 0
M  V30 5631 H 555.731 1.59663 2.58344 0
M  V30 5632 H 553.316 0.840575 1.2351 0
M  V30 5633 H 555.198 -0.241884 4.20705 0
M  V30 5634 H 553.873 -0.78337 3.14078 0
M  V30 5635 H 552.78 1.51712 3.41957 0
M  V30 5636 H 554.113 1.97805 4.50704 0
M  V30 5637 N 555.766 -1.3263 0.851289 0
M  V30 5638 C 556.676 -2.32722 0.296268 0
M  V30 5639 C 557.692 -1.63901 -0.584162 0
M  V30 5640 O 558.868 -1.95465 -0.485334 0
M  V30 5641 C 555.933 -3.42942 -0.509103 0
M  V30 5642 C 554.994 -4.2746 0.397069 0
M  V30 5643 C 554.227 -5.32416 -0.36996 0
M  V30 5644 O 554.45 -5.47491 -1.6003 0
M  V30 5645 O 553.384 -6.01327 0.262493 0
M  V30 5646 H 557.21 -2.82078 1.12543 0
M  V30 5647 H 554.795 -1.36194 0.614135 0
M  V30 5648 H 556.677 -4.1017 -0.96634 0
M  V30 5649 H 555.352 -2.95781 -1.31512 0
M  V30 5650 H 554.259 -3.63053 0.902411 0
M  V30 5651 H 555.592 -4.78136 1.16818 0
M  V30 5652 N 557.244 -0.608902 -1.45362 0
M  V30 5653 C 558.177 0.158059 -2.27652 0
M  V30 5654 C 559.155 0.872397 -1.37215 0
M  V30 5655 O 560.339 0.881002 -1.66645 0
M  V30 5656 C 557.466 1.22896 -3.15617 0
M  V30 5657 C 556.512 0.617607 -4.22005 0
M  V30 5658 S 557.345 -0.575518 -5.32398 0
M  V30 5659 C 558.501 0.495938 -6.23932 0
M  V30 5660 H 558.734 -0.540095 -2.92353 0
M  V30 5661 H 556.267 -0.396456 -1.49223 0
M  V30 5662 H 558.225 1.84195 -3.66855 0
M  V30 5663 H 556.886 1.89919 -2.50179 0
M  V30 5664 H 556.079 1.42341 -4.83482 0
M  V30 5665 H 555.681 0.0797273 -3.73915 0
M  V30 5666 H 557.973 1.37465 -6.63408 0
M  V30 5667 H 558.916 -0.0827108 -7.08052 0
M  V30 5668 H 559.324 0.811856 -5.58631 0
M  V30 5669 N 558.722 1.53707 -0.348139 0
M  V30 5670 C 559.95 2.05406 0.248224 0
M  V30 5671 C 560.365 1.22282 1.43849 0
M  V30 5672 O 559.722 0.259244 1.80649 0
M  V30 5673 C 559.773 3.55446 0.658793 0
M  V30 5674 O 559.494 4.35417 -0.484149 0
M  V30 5675 C 560.995 4.23335 1.31539 0
M  V30 5676 H 558.215 0.669344 0.0471075 0
M  V30 5677 H 560.759 1.98257 -0.501456 0
M  V30 5678 H 558.914 3.62803 1.35841 0
M  V30 5679 H 559.328 5.24268 -0.155949 0
M  V30 5680 H 560.802 5.29692 1.55338 0
M  V30 5681 H 561.279 3.75967 2.27036 0
M  V30 5682 H 561.885 4.20184 0.657683 0
M  V30 5683 N 560.2 0.0768682 1.57412 0
M  V30 5684 C 561.147 -0.888577 2.13009 0
M  V30 5685 C 562.117 -1.29198 1.0439 0
M  V30 5686 O 563.302 -1.37694 1.3208 0
M  V30 5687 C 560.442 -2.14899 2.70023 0
M  V30 5688 C 559.555 -1.79777 3.92816 0
M  V30 5689 C 558.69 -3.00467 4.38056 0
M  V30 5690 C 557.729 -2.61385 5.53484 0
M  V30 5691 N 556.866 -3.74851 5.93659 0
M  V30 5692 H 561.706 -0.407593 2.95199 0
M  V30 5693 H 559.243 -0.189534 1.45874 0
M  V30 5694 H 561.201 -2.88688 3.0119 0
M  V30 5695 H 559.831 -2.60529 1.9059 0
M  V30 5696 H 558.883 -0.960301 3.68079 0
M  V30 5697 H 560.195 -1.47027 4.76639 0
M  V30 5698 H 559.349 -3.82529 4.7091 0
M  V30 5699 H 558.088 -3.36413 3.53097 0
M  V30 5700 H 557.093 -1.77746 5.20275 0
M  V30 5701 H 558.318 -2.26603 6.40178 0
M  V30 5702 H 556.264 -4.1055 5.11649 0
M  V30 5703 H 556.181 -3.45887 6.72234 0
M  V30 5704 H 557.449 -4.57477 6.31138 0
M  V30 5705 N 561.678 -1.56367 -0.196722 0
M  V30 5706 C 562.626 -1.95304 -1.2633 0
M  V30 5707 C 563.62 -0.838252 -1.47206 0
M  V30 5708 O 564.826 -1.02325 -1.48087 0
M  V30 5709 H 561.201 -0.621013 -0.424083 0
M  V30 5710 H 563.172 -2.84254 -0.907879 0
M  V30 5711 C 561.921 -2.3074 -2.60104 0
M  V30 5712 H 561.244 -3.16047 -2.44856 0
M  V30 5713 H 562.684 -2.61849 -3.33484 0
M  V30 5714 C 561.143 -1.14143 -3.16975 0
M  V30 5715 O 561.673 -0.415602 -3.99544 0
M  V30 5716 N 559.879 -0.91867 -2.75697 0
M  V30 5717 H 559.426 -1.51065 -2.08656 0
M  V30 5718 H 559.384 -0.140321 -3.14087 0
M  V30 5719 N 563.156 0.464375 -1.50603 0
M  V30 5720 C 564.088 1.57916 -1.66118 0
M  V30 5721 C 565.101 1.53497 -0.54246 0
M  V30 5722 O 566.29 1.58763 -0.815877 0
M  V30 5723 C 563.39 2.96809 -1.63577 0
M  V30 5724 C 562.563 3.26026 -2.91592 0
M  V30 5725 C 561.622 4.44506 -2.81604 0
M  V30 5726 O 560.648 4.44484 -3.55559 0
M  V30 5727 N 561.85 5.46549 -1.95614 0
M  V30 5728 H 564.615 1.45022 -2.62276 0
M  V30 5729 H 562.176 0.652903 -1.48151 0
M  V30 5730 H 564.168 3.74048 -1.54499 0
M  V30 5731 H 562.738 3.03438 -0.751262 0
M  V30 5732 H 561.958 2.37337 -3.14746 0
M  V30 5733 H 563.246 3.42361 -3.76386 0
M  V30 5734 H 562.644 5.49391 -1.34854 0
M  V30 5735 H 561.201 6.22746 -1.92435 0
M  V30 5736 N 564.634 1.40294 0.718013 0
M  V30 5737 C 565.88 1.38645 1.48005 0
M  V30 5738 C 566.213 -0.0121202 1.94196 0
M  V30 5739 O 565.488 -0.980309 1.67989 0
M  V30 5740 C 565.771 2.37379 2.70782 0
M  V30 5741 C 565.624 3.8625 2.30501 0
M  V30 5742 C 566.943 2.33685 3.72933 0
M  V30 5743 H 564.062 0.504928 0.536858 0
M  V30 5744 H 566.704 1.71411 0.819649 0
M  V30 5745 H 564.854 2.09568 3.27129 0
M  V30 5746 H 566.526 4.24879 1.79655 0
M  V30 5747 H 564.769 4.02202 1.6253 0
M  V30 5748 H 565.44 4.50847 3.18498 0
M  V30 5749 H 567.916 2.58314 3.2621 0
M  V30 5750 H 566.792 3.0482 4.56482 0
M  V30 5751 H 567.053 1.34765 4.21059 0
M  V30 5752 N 566.112 -0.949982 1.2575 0
M  V30 5753 C 567.337 -1.73503 1.13628 0
M  V30 5754 C 567.762 -1.85601 -0.30559 0
M  V30 5755 O 567.12 -1.33984 -1.22139 0
M  V30 5756 C 567.168 -3.1243 1.80055 0
M  V30 5757 O 566.272 -3.97916 1.08336 0
M  V30 5758 H 565.613 -0.532665 0.396439 0
M  V30 5759 H 568.143 -1.19043 1.66403 0
M  V30 5760 H 568.153 -3.62866 1.86527 0
M  V30 5761 H 566.828 -3.02941 2.84956 0
M  V30 5762 H 565.405 -3.56375 1.09777 0
M  V30 5763 N 567.59 -1.07411 -1.15328 0
M  V30 5764 C 568.52 -0.716472 -2.22236 0
M  V30 5765 C 569.501 0.296373 -1.67498 0
M  V30 5766 O 570.686 0.168989 -1.93463 0
M  V30 5767 C 567.816 -0.114142 -3.47112 0
M  V30 5768 C 566.77 -1.05421 -4.14814 0
M  V30 5769 C 566.096 -0.314604 -5.33774 0
M  V30 5770 C 567.396 -2.38808 -4.64508 0
M  V30 5771 H 569.09 -1.61029 -2.52408 0
M  V30 5772 H 566.636 -0.775702 -1.21321 0
M  V30 5773 H 568.589 0.148001 -4.2114 0
M  V30 5774 H 567.313 0.814755 -3.16274 0
M  V30 5775 H 565.972 -1.30128 -3.42728 0
M  V30 5776 H 565.62 0.617772 -4.99192 0
M  V30 5777 H 565.32 -0.941209 -5.80013 0
M  V30 5778 H 566.844 -0.0602747 -6.1057 0
M  V30 5779 H 568.258 -2.18424 -5.3006 0
M  V30 5780 H 566.655 -2.97069 -5.21412 0
M  V30 5781 H 567.725 -3.01067 -3.80114 0
M  V30 5782 N 569.068 1.32177 -0.85831 0
M  V30 5783 C 570.296 2.01313 -0.477582 0
M  V30 5784 C 570.711 1.6449 0.926736 0
M  V30 5785 O 570.068 0.868096 1.60531 0
M  V30 5786 C 570.119 3.56293 -0.611337 0
M  V30 5787 O 569.84 3.91794 -1.96034 0
M  V30 5788 C 571.341 4.42702 -0.230093 0
M  V30 5789 H 568.561 0.644323 -0.187322 0
M  V30 5790 H 571.105 1.68674 -1.15626 0
M  V30 5791 H 569.26 3.87395 0.0196494 0
M  V30 5792 H 569.674 4.86513 -1.95973 0
M  V30 5793 H 571.148 5.50727 -0.374674 0
M  V30 5794 H 571.625 4.3129 0.829779 0
M  V30 5795 H 572.231 4.16997 -0.836302 0
M  V30 5796 N 570.547 0.616602 1.45037 0
M  V30 5797 C 571.787 0.118453 2.04056 0
M  V30 5798 C 572.151 -1.23104 1.47341 0
M  V30 5799 O 573.352 -1.82044 1.97771 0
M  V30 5800 C 571.623 0.0892842 3.57288 0
M  V30 5801 S 573.182 -0.346361 4.37431 0
M  V30 5802 H 570 0.0539728 0.708948 0
M  V30 5803 H 572.602 0.816731 1.77623 0
M  V30 5804 H 571.306 1.07481 3.96076 0
M  V30 5805 H 570.837 -0.630703 3.88311 0
M  V30 5806 H 572.852 -1.59389 4.69904 0
M  V30 5807 N 572.025 -1.5352 0.356285 0
M  V30 5808 C 572.955 -2.28372 -0.486661 0
M  V30 5809 C 573.936 -1.30432 -1.09185 0
M  V30 5810 O 575.121 -1.59291 -1.11085 0
M  V30 5811 C 572.251 -3.06604 -1.63129 0
M  V30 5812 C 571.205 -4.12154 -1.15381 0
M  V30 5813 C 570.531 -4.78415 -2.38796 0
M  V30 5814 C 571.831 -5.21724 -0.245179 0
M  V30 5815 H 573.525 -2.99083 0.137797 0
M  V30 5816 H 571.071 -1.43841 0.0677134 0
M  V30 5817 H 573.024 -3.57712 -2.22755 0
M  V30 5818 H 571.748 -2.33568 -2.28284 0
M  V30 5819 H 570.407 -3.61978 -0.580294 0
M  V30 5820 H 570.055 -4.01959 -3.02387 0
M  V30 5821 H 569.755 -5.49734 -2.07524 0
M  V30 5822 H 571.279 -5.32313 -2.99125 0
M  V30 5823 H 572.693 -5.68391 -0.748646 0
M  V30 5824 H 571.09 -6.00095 -0.0237608 0
M  V30 5825 H 572.16 -4.79596 0.715229 0
M  V30 5826 N 573.503 -0.0852151 -1.57369 0
M  V30 5827 C 574.749 0.581666 -1.94279 0
M  V30 5828 C 575.082 1.68444 -0.966446 0
M  V30 5829 O 574.357 1.945 0.00215277 0
M  V30 5830 C 574.64 1.14609 -3.41375 0
M  V30 5831 C 574.493 0.0490414 -4.49773 0
M  V30 5832 C 575.812 2.04751 -3.8957 0
M  V30 5833 H 572.931 0.209972 -0.706456 0
M  V30 5834 H 575.573 -0.153915 -1.89376 0
M  V30 5835 H 573.723 1.77297 -3.45685 0
M  V30 5836 H 575.395 -0.584721 -4.57579 0
M  V30 5837 H 573.638 -0.618638 -4.29366 0
M  V30 5838 H 574.309 0.484601 -5.49869 0
M  V30 5839 H 576.785 1.51981 -3.87351 0
M  V30 5840 H 575.661 2.41173 -4.93079 0
M  V30 5841 H 575.922 2.96107 -3.28288 0
M  V30 5842 N 574.981 1.5647 0.188427 0
M  V30 5843 C 575.928 1.95073 1.23349 0
M  V30 5844 C 576.898 0.812238 1.44886 0
M  V30 5845 O 578.083 1.07095 1.57909 0
M  V30 5846 C 575.223 2.30124 2.57171 0
M  V30 5847 C 574.336 3.57069 2.43157 0
M  V30 5848 C 573.471 3.81411 3.69729 0
M  V30 5849 C 572.51 5.0176 3.50575 0
M  V30 5850 N 571.647 5.22321 4.69175 0
M  V30 5851 H 576.487 2.84171 0.89728 0
M  V30 5852 H 574.024 1.40623 0.431683 0
M  V30 5853 H 575.982 2.48463 3.35145 0
M  V30 5854 H 574.612 1.44159 2.88822 0
M  V30 5855 H 573.664 3.4674 1.56447 0
M  V30 5856 H 574.976 4.452 2.24942 0
M  V30 5857 H 574.13 4.00026 4.56141 0
M  V30 5858 H 572.869 2.91624 3.90905 0
M  V30 5859 H 571.874 4.83061 2.62549 0
M  V30 5860 H 573.099 5.93063 3.30837 0
M  V30 5861 H 571.045 4.35483 4.90602 0
M  V30 5862 H 570.962 6.04643 4.53809 0
M  V30 5863 H 572.23 5.45401 5.56919 0
M  V30 5864 N 576.459 -0.456382 1.50847 0
M  V30 5865 C 577.707 -1.20497 1.62249 0
M  V30 5866 C 578.028 -1.92156 0.331839 0
M  V30 5867 O 577.298 -1.84751 -0.651443 0
M  V30 5868 H 575.878 -0.447775 0.597918 0
M  V30 5869 H 578.54 -0.525099 1.87693 0
M  V30 5870 H 577.636 -1.94492 2.44089 0
M  V30 5871 N 577.937 -1.40673 -0.710563 0
M  V30 5872 C 579.184 -1.39222 -1.47049 0
M  V30 5873 C 579.512 0.0037691 -1.945 0
M  V30 5874 O 578.767 0.989224 -1.68857 0
M  V30 5875 C 579.066 -2.33253 -2.70791 0
M  V30 5876 C 578.732 -3.80406 -2.42079 0
M  V30 5877 C 577.394 -4.20496 -2.33959 0
M  V30 5878 C 579.746 -4.73375 -2.18094 0
M  V30 5879 C 577.074 -5.51584 -1.99929 0
M  V30 5880 C 579.426 -6.04768 -1.85576 0
M  V30 5881 C 578.09 -6.43895 -1.75941 0
M  V30 5882 H 577.36 -0.509449 -0.538092 0
M  V30 5883 H 580.007 -1.73363 -0.81348 0
M  V30 5884 H 578.312 -1.92314 -3.41354 0
M  V30 5885 H 580.009 -2.29412 -3.28894 0
M  V30 5886 H 576.599 -3.48645 -2.49288 0
M  V30 5887 H 580.783 -4.43217 -2.23321 0
M  V30 5888 H 576.039 -5.80797 -1.91011 0
M  V30 5889 H 580.213 -6.76318 -1.66033 0
M  V30 5890 H 577.84 -7.45387 -1.4934 0
M  V30 5891 N 579.415 0.9433 -1.26252 0
M  V30 5892 C 580.645 1.72117 -1.14277 0
M  V30 5893 C 581.053 1.86726 0.304944 0
M  V30 5894 O 580.396 1.3727 1.22076 0
M  V30 5895 C 580.458 3.14778 -1.73651 0
M  V30 5896 C 580.122 3.23561 -3.22734 0
M  V30 5897 C 581.119 3.07001 -4.19579 0
M  V30 5898 C 578.804 3.47019 -3.63157 0
M  V30 5899 C 580.798 3.13763 -5.54826 0
M  V30 5900 C 578.485 3.53416 -4.98538 0
M  V30 5901 C 579.483 3.36804 -5.94182 0
M  V30 5902 O 579.171 3.42906 -7.27098 0
M  V30 5903 H 578.903 0.545781 -0.398873 0
M  V30 5904 H 581.457 1.19123 -1.67328 0
M  V30 5905 H 579.687 3.69186 -1.1506 0
M  V30 5906 H 581.376 3.74469 -1.56613 0
M  V30 5907 H 582.142 2.88736 -3.89688 0
M  V30 5908 H 578.021 3.59006 -2.89199 0
M  V30 5909 H 581.565 3.00714 -6.29458 0
M  V30 5910 H 577.462 3.71201 -5.28091 0
M  V30 5911 H 578.23 3.59463 -7.35342 0
M  V30 5912 N 580.893 1.08022 1.14757 0
M  V30 5913 C 582.304 0.829144 1.67279 0
M  V30 5914 C 582.655 -0.644721 1.85305 0
M  V30 5915 O 581.78 -1.49838 1.56133 0
M  V30 5916 C 582.375 1.49855 3.03857 0
M  V30 5917 C 580.934 1.29482 3.53428 0
M  V30 5918 C 580.081 1.56386 2.28995 0
M  V30 5919 H 583.032 1.24134 0.988762 0
M  V30 5920 H 583.053 0.923572 3.69121 0
M  V30 5921 H 582.565 2.57123 2.90705 0
M  V30 5922 H 580.666 0.242669 3.71809 0
M  V30 5923 H 580.779 2.01974 4.34446 0
M  V30 5924 H 579.143 0.985217 2.34874 0
M  V30 5925 H 579.926 2.64851 2.18423 0
M  V30 5926 N 582.371 -1.3172 0.865308 0
M  V30 5927 C 583.596 -2.01591 0.487415 0
M  V30 5928 C 584.021 -1.6455 -0.911307 0
M  V30 5929 O 583.379 -0.851689 -1.6005 0
M  V30 5930 C 583.427 -3.54759 0.646401 0
M  V30 5931 O 582.531 -4.11185 -0.316284 0
M  V30 5932 H 581.872 -0.634884 0.194468 0
M  V30 5933 H 584.402 -1.68024 1.16744 0
M  V30 5934 H 584.412 -4.04438 0.537932 0
M  V30 5935 H 583.087 -3.8106 1.66632 0
M  V30 5936 H 581.664 -3.72543 -0.163162 0
M  V30 5937 N 583.85 -0.624285 -1.44708 0
M  V30 5938 C 585.127 -0.0572781 -1.95516 0
M  V30 5939 C 585.507 1.41516 -1.56641 0
M  V30 5940 O 584.855 2.12614 -0.837111 0
M  V30 5941 C 585.065 -0.272944 -3.47931 0
M  V30 5942 C 586.413 -0.162529 -4.24289 0
M  V30 5943 O 587.437 -0.203946 -3.55616 0
M  V30 5944 O 586.296 -0.0616847 -5.46465 0
M  V30 5945 H 583.389 0.0262219 -0.826584 0
M  V30 5946 H 585.936 -0.695512 -1.54793 0
M  V30 5947 H 584.707 -1.29492 -3.69253 0
M  V30 5948 H 584.331 0.399756 -3.95585 0
M  V30 5949 N 585.328 1.53329 -0.364422 0
M  V30 5950 C 586.577 2.00421 0.226747 0
M  V30 5951 C 586.89 1.25581 1.49963 0
M  V30 5952 O 588.096 1.63256 2.16933 0
M  V30 5953 C 586.552 3.57017 0.454618 0
M  V30 5954 C 586.16 4.40734 -0.803568 0
M  V30 5955 C 587.904 4.12468 1.00351 0
M  V30 5956 C 585.811 5.8888 -0.545345 0
M  V30 5957 H 584.741 0.748787 0.0885082 0
M  V30 5958 H 587.392 1.7703 -0.482983 0
M  V30 5959 H 585.774 3.76558 1.22558 0
M  V30 5960 H 586.948 4.32967 -1.57723 0
M  V30 5961 H 585.263 3.96381 -1.27559 0
M  V30 5962 H 587.86 5.20783 1.212 0
M  V30 5963 H 588.203 3.6699 1.9653 0
M  V30 5964 H 588.736 3.96721 0.29274 0
M  V30 5965 H 585.475 6.38633 -1.47743 0
M  V30 5966 H 584.995 5.99499 0.189842 0
M  V30 5967 H 586.674 6.46776 -0.170425 0
M  V30 5968 N 586.806 0.0935595 1.57322 0
M  V30 5969 C 587.769 -0.851426 2.12799 0
M  V30 5970 C 588.769 -1.21187 1.0569 0
M  V30 5971 O 589.959 -1.14156 1.31583 0
M  V30 5972 C 587.091 -2.14779 2.64731 0
M  V30 5973 H 588.284 -0.369733 2.97612 0
M  V30 5974 H 585.837 -0.155417 1.55525 0
M  V30 5975 H 586.572 -2.67437 1.83434 0
M  V30 5976 H 586.357 -1.89907 3.43042 0
M  V30 5977 H 587.847 -2.82383 3.07651 0
M  V30 5978 N 588.284 -1.56567 -0.180126 0
M  V30 5979 C 589.53 -1.81761 -0.899497 0
M  V30 5980 C 589.863 -0.670015 -1.82276 0
M  V30 5981 O 589.138 0.328575 -1.91705 0
M  V30 5982 C 589.421 -3.17296 -1.7028 0
M  V30 5983 C 589.274 -4.4257 -0.803255 0
M  V30 5984 C 590.593 -3.49678 -2.67233 0
M  V30 5985 H 587.712 -0.661192 -0.325567 0
M  V30 5986 H 590.354 -1.89272 -0.16612 0
M  V30 5987 H 588.504 -3.11023 -2.32802 0
M  V30 5988 H 590.176 -4.60902 -0.191585 0
M  V30 5989 H 588.419 -4.33658 -0.110796 0
M  V30 5990 H 589.09 -5.33935 -1.40064 0
M  V30 5991 H 591.566 -3.56347 -2.14839 0
M  V30 5992 H 590.442 -4.45605 -3.20511 0
M  V30 5993 H 590.703 -2.73932 -3.47007 0
M  V30 5994 N 589.762 0.448376 -1.51087 0
M  V30 5995 C 590.672 1.56882 -1.74428 0
M  V30 5996 C 591.688 1.62268 -0.62809 0
M  V30 5997 O 592.864 1.79716 -0.909075 0
M  V30 5998 C 589.929 2.92947 -1.85426 0
M  V30 5999 C 588.99 2.97766 -3.09247 0
M  V30 6000 C 588.223 4.27341 -3.19711 0
M  V30 6001 O 588.446 5.19112 -2.36387 0
M  V30 6002 O 587.38 4.38219 -4.12611 0
M  V30 6003 H 591.206 1.40104 -2.69452 0
M  V30 6004 H 588.791 0.630247 -1.35456 0
M  V30 6005 H 590.673 3.73719 -1.94709 0
M  V30 6006 H 589.348 3.09876 -0.935887 0
M  V30 6007 H 588.255 2.15989 -3.0545 0
M  V30 6008 H 589.588 2.8578 -4.00738 0
M  V30 6009 N 591.24 1.41047 0.703093 0
M  V30 6010 C 592.486 1.41209 1.46396 0
M  V30 6011 C 592.841 0.0180188 1.92392 0
M  V30 6012 O 592.134 -0.954739 1.66118 0
M  V30 6013 C 592.328 2.34686 2.6955 0
M  V30 6014 C 592.157 3.83044 2.35601 0
M  V30 6015 C 590.927 4.51777 2.26331 0
M  V30 6016 C 593.125 4.74215 1.9906 0
M  V30 6017 N 591.107 5.85302 1.85188 0
M  V30 6018 C 592.478 5.96631 1.68616 0
M  V30 6019 C 594.533 4.61932 1.85805 0
M  V30 6020 C 593.236 7.08134 1.26249 0
M  V30 6021 C 595.262 5.73389 1.44842 0
M  V30 6022 C 594.624 6.94899 1.15304 0
M  V30 6023 H 590.723 0.571951 0.533288 0
M  V30 6024 H 593.307 1.76859 0.814179 0
M  V30 6025 H 591.478 2.01143 3.32259 0
M  V30 6026 H 593.21 2.25618 3.35974 0
M  V30 6027 H 589.965 4.05618 2.44482 0
M  V30 6028 H 590.389 6.56049 1.67119 0
M  V30 6029 H 595.031 3.68494 2.07298 0
M  V30 6030 H 592.749 8.01445 1.035 0
M  V30 6031 H 596.335 5.65886 1.35146 0
M  V30 6032 H 595.215 7.79679 0.840854 0
M  V30 6033 N 592.718 -0.936591 1.26751 0
M  V30 6034 C 593.628 -2.06949 1.10496 0
M  V30 6035 C 594.644 -1.7396 0.037271 0
M  V30 6036 O 595.82 -1.99941 0.241944 0
M  V30 6037 C 592.885 -3.38612 0.744491 0
M  V30 6038 C 591.946 -3.85355 1.89209 0
M  V30 6039 C 591.179 -5.10735 1.54873 0
M  V30 6040 O 591.402 -5.68602 0.452546 0
M  V30 6041 O 590.336 -5.52632 2.38499 0
M  V30 6042 H 594.162 -2.23571 2.05547 0
M  V30 6043 H 591.747 -1.05428 1.05855 0
M  V30 6044 H 593.629 -4.17711 0.556396 0
M  V30 6045 H 592.304 -3.23218 -0.176582 0
M  V30 6046 H 591.211 -3.07182 2.13518 0
M  V30 6047 H 592.544 -4.05277 2.79305 0
M  V30 6048 N 594.196 -1.08629 -1.14182 0
M  V30 6049 C 595.421 -0.83902 -1.89671 0
M  V30 6050 C 595.846 0.603332 -1.78161 0
M  V30 6051 O 595.204 1.42301 -1.12339 0
M  V30 6052 C 595.252 -1.26854 -3.37551 0
M  V30 6053 O 594.356 -0.42188 -4.10236 0
M  V30 6054 H 593.697 -0.304545 -0.590041 0
M  V30 6055 H 596.227 -1.4483 -1.44518 0
M  V30 6056 H 596.237 -1.25038 -3.88368 0
M  V30 6057 H 594.912 -2.31901 -3.45246 0
M  V30 6058 H 593.489 -0.503654 -3.69483 0
M  V30 6059 N 595.674 1.31259 -0.872281 0
M  V30 6060 C 596.622 2.30404 -0.318897 0
M  V30 6061 C 597.616 1.5962 0.567267 0
M  V30 6062 O 598.822 1.74204 0.453111 0
M  V30 6063 H 595.197 0.747243 -0.0844474 0
M  V30 6064 H 597.168 2.74549 -1.16899 0
M  V30 6065 C 595.917 3.44608 0.462683 0
M  V30 6066 H 595.24 3.99248 -0.209936 0
M  V30 6067 H 596.68 4.1609 0.815187 0
M  V30 6068 C 595.139 2.93456 1.65485 0
M  V30 6069 O 595.669 2.92418 2.75417 0
M  V30 6070 N 593.875 2.49628 1.48776 0
M  V30 6071 H 593.422 2.50671 0.593452 0
M  V30 6072 H 593.38 2.15759 2.28682 0
M  V30 6073 N 597.152 0.631951 1.44375 0
M  V30 6074 C 598.4 0.136497 2.01639 0
M  V30 6075 C 598.721 -1.24637 1.49969 0
M  V30 6076 O 597.991 -1.82827 0.70363 0
M  V30 6077 H 596.571 0.0474703 0.74549 0
M  V30 6078 H 599.233 0.818837 1.76865 0
M  V30 6079 H 598.329 0.104817 3.11924 0
M  V30 6080 N 598.631 -1.53133 0.372548 0
M  V30 6081 C 599.563 -2.23557 -0.505444 0
M  V30 6082 C 600.576 -1.25211 -1.04049 0
M  V30 6083 O 601.765 -1.51391 -0.945675 0
M  V30 6084 C 598.865 -2.92516 -1.71136 0
M  V30 6085 C 598.038 -4.17428 -1.30661 0
M  V30 6086 C 597.097 -4.69535 -2.37536 0
M  V30 6087 O 596.123 -5.33042 -1.99637 0
M  V30 6088 N 597.325 -4.47947 -3.6922 0
M  V30 6089 H 600.09 -2.9954 0.0978259 0
M  V30 6090 H 597.651 -1.60684 0.198068 0
M  V30 6091 H 599.643 -3.24281 -2.42124 0
M  V30 6092 H 598.213 -2.19944 -2.22134 0
M  V30 6093 H 597.433 -3.91888 -0.426292 0
M  V30 6094 H 598.721 -4.98622 -1.01259 0
M  V30 6095 H 598.119 -3.97219 -4.02783 0
M  V30 6096 H 596.676 -4.84245 -4.36292 0
M  V30 6097 N 600.109 -0.101901 -1.5727 0
M  V30 6098 C 601.52 0.426173 -1.81771 0
M  V30 6099 C 601.871 1.67725 -1.01797 0
M  V30 6100 O 600.996 2.14958 -0.249386 0
M  V30 6101 C 601.591 0.779962 -3.297 0
M  V30 6102 C 600.15 1.25275 -3.54941 0
M  V30 6103 C 599.297 0.252814 -2.76145 0
M  V30 6104 H 602.248 -0.32726 -1.55289 0
M  V30 6105 H 602.269 1.63891 -3.43395 0
M  V30 6106 H 601.781 -0.130778 -3.8788 0
M  V30 6107 H 599.882 2.18097 -3.021 0
M  V30 6108 H 599.995 1.20988 -4.63572 0
M  V30 6109 H 598.359 0.736362 -2.43823 0
M  V30 6110 H 599.142 -0.650724 -3.37076 0
M  V30 6111 N 601.587 1.56661 0.17182 0
M  V30 6112 C 602.497 1.99604 1.2327 0
M  V30 6113 C 603.513 0.907333 1.4847 0
M  V30 6114 O 604.689 1.21492 1.60629 0
M  V30 6115 C 601.754 2.34685 2.55194 0
M  V30 6116 C 600.815 3.57381 2.3786 0
M  V30 6117 C 600.048 3.90779 3.63494 0
M  V30 6118 O 600.271 3.25152 4.6865 0
M  V30 6119 O 599.205 4.84129 3.57634 0
M  V30 6120 H 603.031 2.90114 0.898192 0
M  V30 6121 H 600.616 1.44522 0.378647 0
M  V30 6122 H 602.498 2.5822 3.33017 0
M  V30 6123 H 601.173 1.47336 2.88225 0
M  V30 6124 H 600.08 3.39064 1.5807 0
M  V30 6125 H 601.413 4.45268 2.09754 0
M  V30 6126 N 603.065 -0.440357 1.51323 0
M  V30 6127 C 604.013 -1.55492 1.72988 0
M  V30 6128 C 605.007 -1.58564 0.596138 0
M  V30 6129 O 606.213 -1.62345 0.777443 0
M  V30 6130 H 602.588 -0.516532 0.546533 0
M  V30 6131 H 604.559 -1.34392 2.66423 0
M  V30 6132 C 603.308 -2.93176 1.86931 0
M  V30 6133 H 602.631 -2.91543 2.73574 0
M  V30 6134 H 604.071 -3.70537 2.06103 0
M  V30 6135 C 602.53 -3.30988 0.628365 0
M  V30 6136 O 603.06 -4.01106 -0.218367 0
M  V30 6137 N 601.266 -2.86719 0.473339 0
M  V30 6138 H 600.813 -2.2983 1.16345 0
M  V30 6139 H 600.771 -3.12381 -0.355727 0
M  V30 6140 N 604.543 -1.41418 -0.695603 0
M  V30 6141 C 605.491 -1.43467 -1.83084 0
M  V30 6142 C 606.485 -0.312719 -1.66489 0
M  V30 6143 O 607.691 -0.484744 -1.7335 0
M  V30 6144 H 604.066 -0.448891 -0.603325 0
M  V30 6145 H 606.037 -2.39144 -1.78473 0
M  V30 6146 C 604.786 -1.3337 -3.21104 0
M  V30 6147 H 604.109 -2.18989 -3.3449 0
M  V30 6148 H 605.549 -1.38865 -4.00615 0
M  V30 6149 C 604.008 -0.0460484 -3.36869 0
M  V30 6150 O 604.538 0.909258 -3.91274 0
M  V30 6151 N 602.744 0.0300222 -2.90584 0
M  V30 6152 H 602.291 -0.748129 -2.46497 0
M  V30 6153 H 602.249 0.890991 -3.01511 0
M  V30 6154 N 606.021 0.929856 -1.27246 0
M  V30 6155 C 607.251 1.70895 -1.16096 0
M  V30 6156 C 607.659 1.87039 0.285122 0
M  V30 6157 O 607.002 1.38557 1.20614 0
M  V30 6158 C 607.064 3.12919 -1.7698 0
M  V30 6159 C 606.728 3.2012 -3.26148 0
M  V30 6160 C 607.725 3.02533 -4.22812 0
M  V30 6161 C 605.41 3.43148 -3.66817 0
M  V30 6162 C 607.404 3.07861 -5.58122 0
M  V30 6163 C 605.091 3.48109 -5.02258 0
M  V30 6164 C 606.089 3.30483 -5.97721 0
M  V30 6165 O 605.777 3.35175 -7.30694 0
M  V30 6166 H 605.509 0.54152 -0.404639 0
M  V30 6167 H 608.063 1.17342 -1.68582 0
M  V30 6168 H 606.293 3.67945 -1.18969 0
M  V30 6169 H 607.982 3.72787 -1.60576 0
M  V30 6170 H 608.748 2.84586 -3.92728 0
M  V30 6171 H 604.627 3.55918 -2.9299 0
M  V30 6172 H 608.171 2.94021 -6.32612 0
M  V30 6173 H 604.068 3.65579 -5.31998 0
M  V30 6174 H 604.836 3.51644 -7.39114 0
M  V30 6175 N 607.499 1.09233 1.13605 0
M  V30 6176 C 608.446 0.729921 2.18954 0
M  V30 6177 C 609.416 -0.287916 1.63586 0
M  V30 6178 O 610.601 -0.170003 1.90041 0
M  V30 6179 C 607.741 0.154489 3.44754 0
M  V30 6180 C 606.854 1.22613 4.14234 0
M  V30 6181 C 605.989 0.613657 5.27644 0
M  V30 6182 C 605.028 1.66674 5.8897 0
M  V30 6183 N 604.165 1.07545 6.93814 0
M  V30 6184 H 609.005 1.63257 2.49302 0
M  V30 6185 H 606.542 0.815693 1.22413 0
M  V30 6186 H 608.5 -0.196923 4.16735 0
M  V30 6187 H 607.13 -0.711433 3.14863 0
M  V30 6188 H 606.182 1.69485 3.40557 0
M  V30 6189 H 607.494 2.0238 4.55899 0
M  V30 6190 H 606.648 0.210976 6.06333 0
M  V30 6191 H 605.387 -0.215584 4.87223 0
M  V30 6192 H 604.392 2.07899 5.08978 0
M  V30 6193 H 605.617 2.49861 6.31464 0
M  V30 6194 H 603.563 0.267451 6.55455 0
M  V30 6195 H 603.48 1.81011 7.3401 0
M  V30 6196 H 604.748 0.698906 7.7636 0
M  V30 6197 N 608.977 -1.30795 0.87923 0
M  V30 6198 C 610.205 -2.00527 0.509548 0
M  V30 6199 C 610.62 -1.65944 -0.90045 0
M  V30 6200 O 609.977 -0.893525 -1.5913 0
M  V30 6201 C 610.028 -3.55276 0.667943 0
M  V30 6202 O 609.749 -3.88625 2.02242 0
M  V30 6203 C 611.25 -4.4228 0.300494 0
M  V30 6204 H 608.47 -0.641261 0.197549 0
M  V30 6205 H 611.014 -1.66813 1.18295 0
M  V30 6206 H 609.169 -3.87377 0.0419843 0
M  V30 6207 H 609.583 -4.83334 2.03688 0
M  V30 6208 H 611.057 -5.50061 0.462242 0
M  V30 6209 H 611.534 -4.32556 -0.76106 0
M  V30 6210 H 612.14 -4.15613 0.902536 0
M  V30 6211 N 610.455 -0.639598 -1.44038 0
M  V30 6212 C 611.683 -0.154811 -2.0632 0
M  V30 6213 C 612.098 1.17406 -1.47856 0
M  V30 6214 O 611.455 1.72193 -0.604638 0
M  V30 6215 C 611.506 -0.0429958 -3.61474 0
M  V30 6216 O 611.227 -1.31932 -4.17763 0
M  V30 6217 C 612.728 0.469486 -4.40807 0
M  V30 6218 H 609.948 -0.0835862 -0.665773 0
M  V30 6219 H 612.492 -0.876397 -1.84769 0
M  V30 6220 H 610.647 0.629075 -3.82258 0
M  V30 6221 H 611.061 -1.16965 -5.11292 0
M  V30 6222 H 612.535 0.496712 -5.49761 0
M  V30 6223 H 613.012 1.49819 -4.12857 0
M  V30 6224 H 613.618 -0.169624 -4.24962 0
M  V30 6225 N 611.933 1.52934 -0.380664 0
M  V30 6226 C 613.344 1.86457 0.0952684 0
M  V30 6227 C 613.695 1.3007 1.46889 0
M  V30 6228 O 612.82 0.628636 2.07068 0
M  V30 6229 C 613.415 3.38323 0.179648 0
M  V30 6230 C 611.974 3.71589 0.599858 0
M  V30 6231 C 611.121 2.76228 -0.243572 0
M  V30 6232 H 614.072 1.46966 -0.59888 0
M  V30 6233 H 614.093 3.67113 1.00042 0
M  V30 6234 H 613.605 3.79333 -0.820228 0
M  V30 6235 H 611.706 3.36144 1.60742 0
M  V30 6236 H 611.819 4.77715 0.364003 0
M  V30 6237 H 610.183 2.53045 0.289855 0
M  V30 6238 H 610.966 3.20074 -1.24127 0
M  V30 6239 N 613.412 0.11024 1.57214 0
M  V30 6240 C 614.823 -0.416527 1.81994 0
M  V30 6241 C 615.174 -1.67183 1.02686 0
M  V30 6242 O 614.299 -2.14823 0.260782 0
M  V30 6243 C 614.894 -0.762466 3.30109 0
M  V30 6244 C 613.453 -1.23391 3.556 0
M  V30 6245 C 612.6 -0.238166 2.76275 0
M  V30 6246 H 615.551 0.335491 1.55113 0
M  V30 6247 H 615.572 -1.62068 3.44259 0
M  V30 6248 H 615.084 0.151346 3.87805 0
M  V30 6249 H 613.185 -2.16492 3.03253 0
M  V30 6250 H 613.298 -1.18528 4.64207 0
M  V30 6251 H 611.662 -0.723421 2.4421 0
M  V30 6252 H 612.445 0.668591 3.36727 0
M  V30 6253 N 614.89 -1.56749 -0.16351 0
M  V30 6254 C 616.136 -1.82704 -0.880168 0
M  V30 6255 C 616.469 -0.689311 -1.81555 0
M  V30 6256 O 615.744 0.308224 -1.92042 0
M  V30 6257 C 616.027 -3.19084 -1.66905 0
M  V30 6258 C 615.88 -4.43397 -0.756269 0
M  V30 6259 C 617.199 -3.52493 -2.63509 0
M  V30 6260 H 614.318 -0.664608 -0.318535 0
M  V30 6261 H 616.96 -1.89438 -0.146036 0
M  V30 6262 H 615.11 -3.13475 -2.2949 0
M  V30 6263 H 616.782 -4.61079 -0.14269 0
M  V30 6264 H 615.025 -4.33752 -0.0647944 0
M  V30 6265 H 615.696 -5.3539 -1.34393 0
M  V30 6266 H 618.172 -3.58606 -2.11047 0
M  V30 6267 H 617.048 -4.48979 -3.15767 0
M  V30 6268 H 617.309 -2.77597 -3.44082 0
M  V30 6269 N 616.368 0.432326 -1.51554 0
M  V30 6270 C 617.298 1.53242 -1.76179 0
M  V30 6271 C 618.279 1.58717 -0.611801 0
M  V30 6272 O 619.464 1.74364 -0.855033 0
M  V30 6273 C 616.594 2.91278 -1.89141 0
M  V30 6274 C 615.548 3.00663 -3.04608 0
M  V30 6275 C 614.874 4.40728 -3.02759 0
M  V30 6276 C 616.174 2.74281 -4.44485 0
M  V30 6277 H 617.868 1.32886 -2.68294 0
M  V30 6278 H 615.414 0.637841 -1.29103 0
M  V30 6279 H 617.367 3.68203 -2.04951 0
M  V30 6280 H 616.091 3.12877 -0.936785 0
M  V30 6281 H 614.75 2.26179 -2.88511 0
M  V30 6282 H 614.398 4.59301 -2.05065 0
M  V30 6283 H 614.098 4.47936 -3.80299 0
M  V30 6284 H 615.622 5.19619 -3.20669 0
M  V30 6285 H 617.036 3.40936 -4.60907 0
M  V30 6286 H 615.433 2.92893 -5.23769 0
M  V30 6287 H 616.503 1.69856 -4.54177 0
M  V30 6288 N 617.846 1.41785 0.688094 0
M  V30 6289 C 619.123 1.32031 1.44316 0
M  V30 6290 C 619.503 -0.0486079 2.11044 0
M  V30 6291 O 618.851 -1.06332 2.02252 0
M  V30 6292 C 619.061 2.47906 2.45649 0
M  V30 6293 C 620.409 2.89415 3.10683 0
M  V30 6294 O 621.433 2.477 2.55975 0
M  V30 6295 O 620.292 3.61573 4.09789 0
M  V30 6296 H 617.386 0.519994 0.643067 0
M  V30 6297 H 619.932 1.53765 0.71794 0
M  V30 6298 H 618.704 3.39222 1.95048 0
M  V30 6299 H 618.327 2.28089 3.25671 0
M  V30 6300 N 619.324 -0.923095 1.27737 0
M  V30 6301 C 620.549 -1.71054 1.17283 0
M  V30 6302 C 620.974 -1.86208 -0.266153 0
M  V30 6303 O 620.332 -1.36545 -1.1927 0
M  V30 6304 C 620.38 -3.0854 1.86642 0
M  V30 6305 O 619.484 -3.95528 1.16752 0
M  V30 6306 H 618.825 -0.524136 0.407649 0
M  V30 6307 H 621.355 -1.15487 1.6889 0
M  V30 6308 H 621.365 -3.58828 1.94182 0
M  V30 6309 H 620.04 -2.96828 2.91317 0
M  V30 6310 H 618.617 -3.53967 1.17312 0
M  V30 6311 N 620.802 -1.09834 -1.13024 0
M  V30 6312 C 622.079 -0.749225 -1.80682 0
M  V30 6313 C 622.459 0.765171 -1.96744 0
M  V30 6314 O 621.807 1.68912 -1.53886 0
M  V30 6315 C 622.017 -1.49311 -3.15448 0
M  V30 6316 C 623.365 -1.66162 -3.90737 0
M  V30 6317 O 624.389 -1.45597 -3.25085 0
M  V30 6318 O 623.248 -2.00211 -5.08505 0
M  V30 6319 H 620.342 -0.269614 -0.781817 0
M  V30 6320 H 622.888 -1.20078 -1.19914 0
M  V30 6321 H 621.66 -2.52407 -2.99009 0
M  V30 6322 H 621.283 -1.034 -3.8392 0
M  V30 6323 N 622.28 1.30327 -0.886154 0
M  V30 6324 C 623.528 1.9571 -0.504195 0
M  V30 6325 C 623.849 1.70294 0.950003 0
M  V30 6326 O 623.119 1.02718 1.66811 0
M  V30 6327 H 621.699 0.72412 -0.183465 0
M  V30 6328 H 624.361 1.58835 -1.12949 0
M  V30 6329 H 623.457 3.04704 -0.675431 0
M  V30 6330 N 623.758 0.647228 1.43697 0
M  V30 6331 C 624.983 0.164083 2.0675 0
M  V30 6332 C 625.408 -1.15892 1.48158 0
M  V30 6333 O 624.766 -1.71459 0.589194 0
M  V30 6334 C 624.814 0.0800368 3.60511 0
M  V30 6335 O 623.918 -0.959453 4.01084 0
M  V30 6336 H 623.259 0.0921288 0.657578 0
M  V30 6337 H 625.789 0.88846 1.84303 0
M  V30 6338 H 625.799 -0.105263 4.07864 0
M  V30 6339 H 624.474 1.04586 4.02535 0
M  V30 6340 H 623.051 -0.747425 3.65333 0
M  V30 6341 N 625.236 -1.5273 0.388769 0
M  V30 6342 C 626.483 -2.01573 -0.19359 0
M  V30 6343 C 626.811 -1.27525 -1.46859 0
M  V30 6344 O 626.066 -0.363926 -1.92286 0
M  V30 6345 C 626.365 -3.53765 -0.508445 0
M  V30 6346 C 626.031 -4.4582 0.674947 0
M  V30 6347 C 624.693 -4.70703 0.999596 0
M  V30 6348 C 627.045 -5.00138 1.46666 0
M  V30 6349 C 624.373 -5.47155 2.11751 0
M  V30 6350 C 626.725 -5.77812 2.57518 0
M  V30 6351 C 625.389 -6.00975 2.90492 0
M  V30 6352 H 624.659 -0.737606 -0.0708397 0
M  V30 6353 H 627.306 -1.84134 0.526006 0
M  V30 6354 H 625.611 -3.69274 -1.30936 0
M  V30 6355 H 627.308 -3.8905 -0.971664 0
M  V30 6356 H 623.898 -4.26616 0.411906 0
M  V30 6357 H 628.082 -4.8084 1.22909 0
M  V30 6358 H 623.338 -5.63314 2.3767 0
M  V30 6359 H 627.512 -6.18904 3.19267 0
M  V30 6360 H 625.139 -6.59998 3.77236 0
M  V30 6361 N 626.714 -0.118576 -1.57153 0
M  V30 6362 C 627.961 0.539526 -1.9518 0
M  V30 6363 C 628.289 1.66714 -1.00184 0
M  V30 6364 O 627.544 1.95683 -0.0256482 0
M  V30 6365 C 627.843 1.11303 -3.39627 0
M  V30 6366 C 627.509 0.106809 -4.50773 0
M  V30 6367 C 626.171 -0.169876 -4.809 0
M  V30 6368 C 628.523 -0.57895 -5.17975 0
M  V30 6369 C 625.851 -1.13861 -5.75545 0
M  V30 6370 C 628.203 -1.53631 -6.13661 0
M  V30 6371 C 626.867 -1.82099 -6.42181 0
M  V30 6372 H 626.137 0.197427 -0.714215 0
M  V30 6373 H 628.784 -0.199391 -1.90459 0
M  V30 6374 H 627.089 1.92869 -3.4104 0
M  V30 6375 H 628.786 1.63032 -3.66363 0
M  V30 6376 H 625.376 0.332645 -4.27307 0
M  V30 6377 H 629.56 -0.378359 -4.94856 0
M  V30 6378 H 624.816 -1.36592 -5.95947 0
M  V30 6379 H 628.99 -2.07337 -6.64819 0
M  V30 6380 H 626.617 -2.57319 -7.15326 0
M  V30 6381 N 628.193 1.56834 0.155195 0
M  V30 6382 C 629.123 2.00678 1.19376 0
M  V30 6383 C 630.104 0.884973 1.45266 0
M  V30 6384 O 631.289 1.1522 1.56326 0
M  V30 6385 C 628.419 2.38042 2.5289 0
M  V30 6386 C 627.373 3.53332 2.41538 0
M  V30 6387 C 626.699 3.76485 3.79688 0
M  V30 6388 C 627.999 4.86265 1.9064 0
M  V30 6389 H 629.693 2.87688 0.829232 0
M  V30 6390 H 627.239 1.38407 0.397445 0
M  V30 6391 H 629.192 2.67314 3.25763 0
M  V30 6392 H 627.916 1.4796 2.91162 0
M  V30 6393 H 626.575 3.24213 1.71117 0
M  V30 6394 H 626.223 2.83667 4.15382 0
M  V30 6395 H 625.923 4.54068 3.72956 0
M  V30 6396 H 627.447 4.08174 4.54122 0
M  V30 6397 H 628.861 5.14308 2.53299 0
M  V30 6398 H 627.258 5.67597 1.94818 0
M  V30 6399 H 628.328 4.77184 0.861596 0
M  V30 6400 N 629.671 -0.424282 1.51781 0
M  V30 6401 C 630.901 -1.19297 1.68677 0
M  V30 6402 C 631.309 -1.85152 0.389258 0
M  V30 6403 O 630.652 -1.72067 -0.643311 0
M  V30 6404 C 630.714 -2.30929 2.75521 0
M  V30 6405 C 630.378 -1.85335 4.17732 0
M  V30 6406 C 631.375 -1.34951 5.0208 0
M  V30 6407 C 629.06 -1.92629 4.63896 0
M  V30 6408 C 631.054 -0.924636 6.30658 0
M  V30 6409 C 628.741 -1.49754 5.92467 0
M  V30 6410 C 629.739 -0.997543 6.75676 0
M  V30 6411 O 629.427 -0.57492 8.01842 0
M  V30 6412 H 629.159 -0.36512 0.568914 0
M  V30 6413 H 631.713 -0.507327 1.99036 0
M  V30 6414 H 629.943 -3.02811 2.40505 0
M  V30 6415 H 631.632 -2.92748 2.81165 0
M  V30 6416 H 632.398 -1.287 4.67612 0
M  V30 6417 H 628.277 -2.30491 3.99243 0
M  V30 6418 H 631.821 -0.533682 6.95556 0
M  V30 6419 H 627.718 -1.55679 6.26446 0
M  V30 6420 H 628.486 -0.699597 8.15505 0
M  V30 6421 N 631.149 -1.42148 -0.680565 0
M  V30 6422 C 632.374 -1.45901 -1.47403 0
M  V30 6423 C 632.799 -0.0700985 -1.87969 0
M  V30 6424 O 632.157 0.930145 -1.55621 0
M  V30 6425 C 632.205 -2.38661 -2.70321 0
M  V30 6426 O 631.309 -1.85399 -3.68376 0
M  V30 6427 H 630.65 -0.494565 -0.443059 0
M  V30 6428 H 633.18 -1.86774 -0.835251 0
M  V30 6429 H 633.19 -2.55046 -3.18458 0
M  V30 6430 H 631.865 -3.39571 -2.40134 0
M  V30 6431 H 630.442 -1.78541 -3.2738 0
M  V30 6432 N 632.627 0.916307 -1.28225 0
M  V30 6433 C 633.574 2.01841 -1.11932 0
M  V30 6434 C 634.544 1.66091 -0.0171604 0
M  V30 6435 O 635.729 1.89934 -0.181617 0
M  V30 6436 C 632.869 3.36065 -0.784504 0
M  V30 6437 C 631.982 3.847 -1.96544 0
M  V30 6438 C 631.117 5.07423 -1.57149 0
M  V30 6439 C 630.156 5.48384 -2.71922 0
M  V30 6440 N 629.293 6.62298 -2.33037 0
M  V30 6441 H 634.133 2.1511 -2.06232 0
M  V30 6442 H 631.67 1.05366 -1.02647 0
M  V30 6443 H 633.628 4.13272 -0.571148 0
M  V30 6444 H 632.258 3.22571 0.121565 0
M  V30 6445 H 631.31 3.03673 -2.291 0
M  V30 6446 H 632.622 4.1102 -2.82603 0
M  V30 6447 H 631.776 5.92165 -1.32004 0
M  V30 6448 H 630.515 4.82906 -0.682153 0
M  V30 6449 H 629.52 4.62184 -2.97768 0
M  V30 6450 H 630.745 5.7489 -3.61494 0
M  V30 6451 H 628.691 6.39416 -1.4657 0
M  V30 6452 H 628.608 6.8833 -3.12631 0
M  V30 6453 H 629.876 7.50352 -2.11169 0
M  V30 6454 N 634.105 1.10431 1.1244 0
M  V30 6455 C 635.035 0.775143 2.20258 0
M  V30 6456 C 636.016 -0.25186 1.68225 0
M  V30 6457 O 637.201 -0.117637 1.93843 0
M  V30 6458 C 634.331 0.206133 3.46688 0
M  V30 6459 C 633.285 1.16382 4.11873 0
M  V30 6460 C 632.611 0.456014 5.32752 0
M  V30 6461 C 633.911 2.5104 4.58013 0
M  V30 6462 H 635.605 1.67665 2.4805 0
M  V30 6463 H 633.151 0.807595 1.19222 0
M  V30 6464 H 635.104 -0.036291 4.21384 0
M  V30 6465 H 633.828 -0.730614 3.18323 0
M  V30 6466 H 632.487 1.39169 3.39157 0
M  V30 6467 H 632.135 -0.485203 5.00654 0
M  V30 6468 H 631.835 1.09466 5.77314 0
M  V30 6469 H 633.359 0.222135 6.10196 0
M  V30 6470 H 634.773 2.32401 5.24083 0
M  V30 6471 H 633.17 3.10789 5.13352 0
M  V30 6472 H 634.24 3.11039 3.71998 0
M  V30 6473 N 635.583 -1.29855 0.893053 0
M  V30 6474 C 636.811 -1.99976 0.530788 0
M  V30 6475 C 637.226 -1.66889 -0.882799 0
M  V30 6476 O 636.583 -0.910352 -1.58173 0
M  V30 6477 C 636.634 -3.54547 0.705587 0
M  V30 6478 O 636.355 -3.86458 2.06353 0
M  V30 6479 C 637.856 -4.41937 0.347387 0
M  V30 6480 H 635.076 -0.639129 0.204339 0
M  V30 6481 H 637.62 -1.65549 1.20057 0
M  V30 6482 H 635.775 -3.87311 0.0830685 0
M  V30 6483 H 636.189 -4.81146 2.08803 0
M  V30 6484 H 637.663 -5.4954 0.520557 0
M  V30 6485 H 638.14 -4.33339 -0.715139 0
M  V30 6486 H 638.746 -4.14633 0.946567 0
M  V30 6487 N 637.061 -0.65484 -1.43351 0
M  V30 6488 C 638.307 -0.169142 -2.02093 0
M  V30 6489 C 638.64 1.21431 -1.51553 0
M  V30 6490 O 637.915 1.81105 -0.709317 0
M  V30 6491 C 638.198 -0.181775 -3.59641 0
M  V30 6492 C 638.051 -1.59926 -4.20409 0
M  V30 6493 C 639.37 0.480945 -4.37464 0
M  V30 6494 H 636.489 -0.0629371 -0.734308 0
M  V30 6495 H 639.131 -0.835833 -1.70628 0
M  V30 6496 H 637.281 0.385918 -3.86578 0
M  V30 6497 H 638.953 -2.21766 -4.04497 0
M  V30 6498 H 637.196 -2.14605 -3.76998 0
M  V30 6499 H 637.867 -1.55994 -5.295 0
M  V30 6500 H 640.343 -0.00208273 -4.161 0
M  V30 6501 H 639.219 0.441384 -5.47122 0
M  V30 6502 H 639.48 1.55533 -4.13838 0
M  V30 6503 N 638.539 1.52521 -0.396863 0
M  V30 6504 C 639.816 1.94112 0.240842 0
M  V30 6505 C 640.196 1.33288 1.637 0
M  V30 6506 O 639.544 0.503901 2.22875 0
M  V30 6507 C 639.754 3.48033 0.259567 0
M  V30 6508 C 641.102 4.21822 0.484866 0
M  V30 6509 O 642.126 3.54579 0.339453 0
M  V30 6510 O 640.985 5.41042 0.770412 0
M  V30 6511 H 638.079 0.812973 0.151671 0
M  V30 6512 H 640.625 1.63572 -0.451918 0
M  V30 6513 H 639.397 3.84655 -0.718078 0
M  V30 6514 H 639.02 3.84899 0.996937 0
M  V30 6515 N 640.017 0.126909 1.57088 0
M  V30 6516 C 640.964 -0.82036 2.15728 0
M  V30 6517 C 641.934 -1.25811 1.08447 0
M  V30 6518 O 643.119 -1.33422 1.36393 0
M  V30 6519 C 640.259 -2.06199 2.76724 0
M  V30 6520 C 639.372 -1.67188 3.98337 0
M  V30 6521 C 638.507 -2.86378 4.47393 0
M  V30 6522 C 637.546 -2.43644 5.61519 0
M  V30 6523 N 636.683 -3.55775 6.05284 0
M  V30 6524 H 641.523 -0.313472 2.96347 0
M  V30 6525 H 639.06 -0.14303 1.46403 0
M  V30 6526 H 641.018 -2.78959 3.10222 0
M  V30 6527 H 639.648 -2.54333 1.98782 0
M  V30 6528 H 638.7 -0.842714 3.70948 0
M  V30 6529 H 640.012 -1.31789 4.81075 0
M  V30 6530 H 639.166 -3.67353 4.82842 0
M  V30 6531 H 637.905 -3.25009 3.63621 0
M  V30 6532 H 636.91 -1.61104 5.25667 0
M  V30 6533 H 638.135 -2.06122 6.47063 0
M  V30 6534 H 636.081 -3.94065 5.24451 0
M  V30 6535 H 635.998 -3.24325 6.82898 0
M  V30 6536 H 637.266 -4.37166 6.45373 0
M  V30 6537 N 641.495 -1.56914 -0.146875 0
M  V30 6538 C 642.72 -1.87881 -0.878386 0
M  V30 6539 C 643.145 -0.715945 -1.73942 0
M  V30 6540 O 642.503 0.334447 -1.78189 0
M  V30 6541 C 642.551 -3.17431 -1.71084 0
M  V30 6542 O 641.655 -3.01374 -2.81509 0
M  V30 6543 H 640.996 -0.617289 -0.244644 0
M  V30 6544 H 643.526 -2.04136 -0.137654 0
M  V30 6545 H 643.536 -3.49455 -2.10582 0
M  V30 6546 H 642.211 -4.01671 -1.07856 0
M  V30 6547 H 640.788 -2.80758 -2.45416 0
M  V30 6548 N 642.974 0.416227 -1.52004 0
M  V30 6549 C 644.39 0.754319 -1.40649 0
M  V30 6550 C 644.59 1.95059 -0.505392 0
M  V30 6551 O 643.646 2.5248 0.0315057 0
M  V30 6552 C 644.959 1.0149 -2.83055 0
M  V30 6553 C 646.507 1.11805 -2.9235 0
M  V30 6554 C 646.982 1.41144 -4.35709 0
M  V30 6555 N 648.473 1.48024 -4.38911 0
M  V30 6556 C 649.208 1.72338 -5.46889 0
M  V30 6557 N 648.704 1.94303 -6.64995 0
M  V30 6558 N 650.497 1.74294 -5.34395 0
M  V30 6559 H 642.648 -0.371324 -2.09129 0
M  V30 6560 H 644.911 -0.103811 -0.942299 0
M  V30 6561 H 644.617 0.208345 -3.51082 0
M  V30 6562 H 644.491 1.93697 -3.23668 0
M  V30 6563 H 646.878 1.91521 -2.24508 0
M  V30 6564 H 646.959 0.17451 -2.55204 0
M  V30 6565 H 646.603 0.619484 -5.04108 0
M  V30 6566 H 646.533 2.36739 -4.70385 0
M  V30 6567 H 649.024 1.32868 -3.53772 0
M  V30 6568 H 649.337 2.12286 -7.43071 0
M  V30 6569 H 647.682 1.91582 -6.68073 0
M  V30 6570 H 650.873 1.56667 -4.41104 0
M  V30 6571 H 651.046 1.92904 -6.18621 0
M  V30 6572 N 644.452 1.42507 0.673017 0
M  V30 6573 C 645.698 1.44282 1.43367 0
M  V30 6574 C 646.053 0.0588239 1.9231 0
M  V30 6575 O 645.346 -0.919288 1.68106 0
M  V30 6576 C 645.54 2.40351 2.64511 0
M  V30 6577 C 645.369 3.87955 2.27423 0
M  V30 6578 C 644.139 4.56476 2.16697 0
M  V30 6579 C 646.337 4.7833 1.88957 0
M  V30 6580 N 644.319 5.89099 1.72731 0
M  V30 6581 C 645.69 6.00073 1.55923 0
M  V30 6582 C 647.745 4.65769 1.75965 0
M  V30 6583 C 646.448 7.10652 1.112 0
M  V30 6584 C 648.474 5.76332 1.32647 0
M  V30 6585 C 647.836 6.97188 1.00538 0
M  V30 6586 H 643.935 0.583134 0.521036 0
M  V30 6587 H 646.519 1.78547 0.776481 0
M  V30 6588 H 644.69 2.08145 3.27918 0
M  V30 6589 H 646.422 2.32694 3.31113 0
M  V30 6590 H 643.177 4.10712 2.35823 0
M  V30 6591 H 643.601 6.59446 1.53166 0
M  V30 6592 H 648.243 3.72808 1.99435 0
M  V30 6593 H 645.961 8.0346 0.864768 0
M  V30 6594 H 649.547 5.68625 1.23112 0
M  V30 6595 H 648.427 7.81287 0.675283 0
M  V30 6596 N 645.93 -0.909495 1.28709 0
M  V30 6597 C 646.862 -2.01729 1.08804 0
M  V30 6598 C 647.875 -1.62755 0.0384739 0
M  V30 6599 O 649.064 -1.76259 0.281977 0
M  V30 6600 C 646.164 -3.32952 0.63217 0
M  V30 6601 C 645.337 -4.00512 1.75809 0
M  V30 6602 C 644.396 -5.10019 1.29488 0
M  V30 6603 O 643.422 -5.32986 1.99787 0
M  V30 6604 N 644.624 -5.80278 0.1604 0
M  V30 6605 H 647.389 -2.19362 2.04207 0
M  V30 6606 H 644.95 -1.08106 1.20518 0
M  V30 6607 H 646.942 -4.03543 0.305802 0
M  V30 6608 H 645.512 -3.11759 -0.229134 0
M  V30 6609 H 644.732 -3.23413 2.25383 0
M  V30 6610 H 646.02 -4.42395 2.51325 0
M  V30 6611 H 645.418 -5.64094 -0.425937 0
M  V30 6612 H 643.975 -6.51713 -0.106663 0
M  V30 6613 N 647.408 -1.11026 -1.11852 0
M  V30 6614 C 648.34 -0.72249 -2.17515 0
M  V30 6615 C 649.353 0.243782 -1.60964 0
M  V30 6616 O 650.542 0.0273252 -1.78479 0
M  V30 6617 C 647.642 -0.0463979 -3.38868 0
M  V30 6618 C 646.815 -1.0384 -4.24895 0
M  V30 6619 C 645.874 -0.392659 -5.24733 0
M  V30 6620 O 644.9 -1.0453 -5.5952 0
M  V30 6621 N 646.102 0.846296 -5.74298 0
M  V30 6622 H 648.867 -1.63161 -2.51393 0
M  V30 6623 H 646.428 -0.999899 -1.27333 0
M  V30 6624 H 648.42 0.397215 -4.02746 0
M  V30 6625 H 646.99 0.765231 -3.03089 0
M  V30 6626 H 646.21 -1.6601 -3.57539 0
M  V30 6627 H 647.498 -1.70968 -4.79215 0
M  V30 6628 H 646.896 1.39578 -5.4821 0
M  V30 6629 H 645.453 1.23296 -6.40032 0
M  V30 6630 N 648.886 1.2938 -0.899927 0
M  V30 6631 C 650.134 1.95164 -0.524924 0
M  V30 6632 C 650.455 1.71292 0.931888 0
M  V30 6633 O 649.725 1.04481 1.65712 0
M  V30 6634 H 648.305 0.722133 -0.191135 0
M  V30 6635 H 650.967 1.57628 -1.14627 0
M  V30 6636 H 650.063 3.0397 -0.707711 0
M  V30 6637 N 650.364 0.662433 1.43002 0
M  V30 6638 C 651.312 -0.035345 2.32573 0
M  V30 6639 C 652.306 -0.803505 1.49131 0
M  V30 6640 O 653.512 -0.712865 1.65282 0
M  V30 6641 H 649.887 -0.0302194 0.751393 0
M  V30 6642 H 651.858 0.737686 2.89138 0
M  V30 6643 C 650.607 -0.981575 3.33557 0
M  V30 6644 H 649.93 -0.399914 3.97795 0
M  V30 6645 H 651.37 -1.43873 3.98844 0
M  V30 6646 C 649.829 -2.08204 2.64863 0
M  V30 6647 O 650.359 -3.16698 2.47113 0
M  V30 6648 N 648.565 -1.85022 2.24088 0
M  V30 6649 H 648.112 -0.967909 2.38724 0
M  V30 6650 H 648.07 -2.58845 1.78457 0
M  V30 6651 N 651.842 -1.52309 0.404946 0
M  V30 6652 C 653.088 -2.02065 -0.172455 0
M  V30 6653 C 653.421 -1.29022 -1.45145 0
M  V30 6654 O 652.696 -0.395284 -1.90441 0
M  V30 6655 C 652.979 -3.5759 -0.424433 0
M  V30 6656 C 652.832 -4.41287 0.870945 0
M  V30 6657 C 654.151 -4.23186 -1.20837 0
M  V30 6658 H 651.27 -0.734454 -0.0612035 0
M  V30 6659 H 653.912 -1.82236 0.53759 0
M  V30 6660 H 652.062 -3.74617 -1.02929 0
M  V30 6661 H 653.734 -4.3598 1.50729 0
M  V30 6662 H 651.977 -4.07669 1.48284 0
M  V30 6663 H 652.648 -5.48171 0.649083 0
M  V30 6664 H 655.124 -4.10232 -0.696338 0
M  V30 6665 H 654 -5.31953 -1.35343 0
M  V30 6666 H 654.261 -3.81862 -2.22786 0
M  V30 6667 N 653.32 -0.135238 -1.57019 0
M  V30 6668 C 654.567 0.518794 -1.95742 0
M  V30 6669 C 654.895 1.65642 -1.01947 0
M  V30 6670 O 654.15 1.95645 -0.0464016 0
M  V30 6671 C 654.449 1.07694 -3.40788 0
M  V30 6672 C 654.115 0.058992 -4.50861 0
M  V30 6673 C 652.777 -0.220872 -4.80693 0
M  V30 6674 C 655.129 -0.633856 -5.17331 0
M  V30 6675 C 652.457 -1.19959 -5.74305 0
M  V30 6676 C 654.809 -1.60131 -6.11997 0
M  V30 6677 C 653.473 -1.889 -6.40213 0
M  V30 6678 H 652.743 0.18984 -0.716269 0
M  V30 6679 H 655.39 -0.219581 -1.90237 0
M  V30 6680 H 653.695 1.89241 -3.43067 0
M  V30 6681 H 655.392 1.59137 -3.68071 0
M  V30 6682 H 651.982 0.287304 -4.27636 0
M  V30 6683 H 656.166 -0.430823 -4.94427 0
M  V30 6684 H 651.422 -1.42905 -5.94465 0
M  V30 6685 H 655.596 -2.14376 -6.62583 0
M  V30 6686 H 653.223 -2.64891 -7.12556 0
M  V30 6687 N 654.798 1.5699 0.138552 0
M  V30 6688 C 656.023 1.88344 0.86841 0
M  V30 6689 C 656.448 0.725159 1.7356 0
M  V30 6690 O 655.806 -0.324992 1.78363 0
M  V30 6691 C 655.854 3.18334 1.69398 0
M  V30 6692 O 654.958 3.02863 2.79907 0
M  V30 6693 H 654.299 0.618577 0.241367 0
M  V30 6694 H 656.829 2.04207 0.126826 0
M  V30 6695 H 656.839 3.50567 2.08726 0
M  V30 6696 H 655.514 4.02238 1.05725 0
M  V30 6697 H 654.091 2.82056 2.43924 0
M  V30 6698 N 656.276 -0.40816 1.52223 0
M  V30 6699 C 657.516 -1.16418 1.68006 0
M  V30 6700 C 657.88 -1.87749 0.401793 0
M  V30 6701 O 659.081 -2.65245 0.435743 0
M  V30 6702 C 657.352 -2.13143 2.86889 0
M  V30 6703 S 658.911 -2.96839 3.2316 0
M  V30 6704 H 655.729 -0.394373 0.5916 0
M  V30 6705 H 658.331 -0.451349 1.90219 0
M  V30 6706 H 657.035 -1.59428 3.78168 0
M  V30 6707 H 656.566 -2.88963 2.66953 0
M  V30 6708 H 658.581 -4.151 2.71857 0
M  V30 6709 N 657.755 -1.42862 -0.66545 0
M  V30 6710 C 658.98 -1.47456 -1.45848 0
M  V30 6711 C 659.405 -0.0900312 -1.87884 0
M  V30 6712 O 658.763 0.913587 -1.56599 0
M  V30 6713 C 658.811 -2.41514 -2.67774 0
M  V30 6714 O 657.915 -1.89296 -3.66389 0
M  V30 6715 H 657.256 -0.499236 -0.437789 0
M  V30 6716 H 659.786 -1.8765 -0.815394 0
M  V30 6717 H 659.796 -2.58409 -3.15735 0
M  V30 6718 H 658.471 -3.42099 -2.36519 0
M  V30 6719 H 657.048 -1.82003 -3.25468 0
M  V30 6720 N 659.233 0.902656 -1.29189 0
M  V30 6721 C 660.479 1.65532 -1.17163 0
M  V30 6722 C 660.812 1.92216 0.276879 0
M  V30 6723 O 660.087 1.53048 1.20027 0
M  V30 6724 C 660.37 3.00629 -1.98228 0
M  V30 6725 C 660.223 2.81029 -3.51202 0
M  V30 6726 C 661.542 4.01321 -1.80635 0
M  V30 6727 H 658.661 0.60071 -0.426985 0
M  V30 6728 H 661.303 1.04578 -1.5863 0
M  V30 6729 H 659.453 3.52656 -1.62991 0
M  V30 6730 H 661.125 2.35927 -3.96404 0
M  V30 6731 H 659.368 2.1587 -3.76275 0
M  V30 6732 H 660.039 3.77014 -4.03192 0
M  V30 6733 H 662.515 3.58394 -2.11406 0
M  V30 6734 H 661.391 4.93792 -2.3971 0
M  V30 6735 H 661.652 4.35505 -0.760754 0
M  V30 6736 N 660.711 1.11618 1.11262 0
M  V30 6737 C 661.644 0.719995 2.16544 0
M  V30 6738 C 662.622 -0.28471 1.60088 0
M  V30 6739 O 663.806 -0.180693 1.87632 0
M  V30 6740 C 660.933 0.0643302 3.38639 0
M  V30 6741 C 659.979 1.03448 4.13764 0
M  V30 6742 S 660.812 2.55789 4.70459 0
M  V30 6743 C 661.968 1.91529 5.95875 0
M  V30 6744 H 662.201 1.61181 2.49816 0
M  V30 6745 H 659.734 0.934401 1.22916 0
M  V30 6746 H 661.692 -0.307609 4.09346 0
M  V30 6747 H 660.353 -0.804471 3.03623 0
M  V30 6748 H 659.546 0.523188 5.01277 0
M  V30 6749 H 659.148 1.34893 3.48826 0
M  V30 6750 H 661.44 1.25286 6.65815 0
M  V30 6751 H 662.383 2.77047 6.51652 0
M  V30 6752 H 662.791 1.37468 5.47506 0
M  V30 6753 N 662.189 -1.289 0.906776 0
M  V30 6754 C 663.139 -2.25122 0.361109 0
M  V30 6755 C 664.123 -1.52169 -0.52283 0
M  V30 6756 O 665.315 -1.73223 -0.363691 0
M  V30 6757 C 662.444 -3.40915 -0.403982 0
M  V30 6758 C 661.53 -4.21198 0.495279 0
M  V30 6759 N 661.921 -4.79636 1.60572 0
M  V30 6760 C 660.219 -4.45027 0.294372 0
M  V30 6761 C 660.92 -5.39977 2.16332 0
M  V30 6762 N 659.896 -5.23753 1.45546 0
M  V30 6763 H 663.698 -2.67869 1.20927 0
M  V30 6764 H 661.212 -1.43592 0.758632 0
M  V30 6765 H 663.209 -4.08922 -0.811695 0
M  V30 6766 H 661.869 -2.99703 -1.24932 0
M  V30 6767 H 662.88 -4.78209 1.98838 0
M  V30 6768 H 659.557 -4.14348 -0.512021 0
M  V30 6769 H 660.947 -5.96266 3.09704 0
M  V30 6770 N 663.667 -0.670007 -1.42649 0
M  V30 6771 C 664.577 0.0114788 -2.34597 0
M  V30 6772 C 665.593 0.794055 -1.54825 0
M  V30 6773 O 666.769 0.737472 -1.87412 0
M  V30 6774 C 663.834 0.954436 -3.33304 0
M  V30 6775 C 662.895 0.166925 -4.28975 0
M  V30 6776 C 662.128 1.06497 -5.22967 0
M  V30 6777 O 662.351 2.30446 -5.21777 0
M  V30 6778 O 661.285 0.528347 -5.99577 0
M  V30 6779 H 665.111 -0.745794 -2.944 0
M  V30 6780 H 662.696 -0.430228 -1.43071 0
M  V30 6781 H 664.578 1.49589 -3.93956 0
M  V30 6782 H 663.253 1.69164 -2.7598 0
M  V30 6783 H 662.16 -0.418515 -3.71752 0
M  V30 6784 H 663.493 -0.531067 -4.89327 0
M  V30 6785 N 665.145 1.52092 -0.413018 0
M  V30 6786 C 666.108 2.25706 0.398687 0
M  V30 6787 C 667.108 1.28221 0.970368 0
M  V30 6788 O 668.298 1.52131 0.848635 0
M  V30 6789 C 665.43 3.03029 1.5616 0
M  V30 6790 H 666.623 2.98888 -0.246131 0
M  V30 6791 H 664.176 1.5542 -0.165622 0
M  V30 6792 H 664.911 2.34205 2.24317 0
M  V30 6793 H 664.696 3.74606 1.15812 0
M  V30 6794 H 666.186 3.58857 2.13569 0
M  V30 6795 N 666.623 0.143563 1.56945 0
M  V30 6796 C 667.553 -0.7936 2.196 0
M  V30 6797 C 668.534 -1.25955 1.14321 0
M  V30 6798 O 669.719 -1.31773 1.42651 0
M  V30 6799 C 666.849 -2.03424 2.81489 0
M  V30 6800 C 665.803 -1.70519 3.92565 0
M  V30 6801 C 665.129 -3.01817 4.41373 0
M  V30 6802 C 666.429 -0.95449 5.13504 0
M  V30 6803 H 668.123 -0.271423 2.98167 0
M  V30 6804 H 665.669 -0.12911 1.4342 0
M  V30 6805 H 667.622 -2.69463 3.23987 0
M  V30 6806 H 666.346 -2.58008 2.00248 0
M  V30 6807 H 665.005 -1.06859 3.5068 0
M  V30 6808 H 664.653 -3.54386 3.56959 0
M  V30 6809 H 664.353 -2.80565 5.16292 0
M  V30 6810 H 665.877 -3.68934 4.86539 0
M  V30 6811 H 667.291 -1.5169 5.52868 0
M  V30 6812 H 665.688 -0.842035 5.94163 0
M  V30 6813 H 666.758 0.0544033 4.84869 0
M  V30 6814 N 668.101 -1.57061 -0.130224 0
M  V30 6815 C 669.051 -1.95941 -1.16582 0
M  V30 6816 C 670.035 -0.832858 -1.37667 0
M  V30 6817 O 671.227 -1.09647 -1.38948 0
M  V30 6818 C 668.356 -2.35777 -2.49528 0
M  V30 6819 C 667.442 -3.5504 -2.31964 0
M  V30 6820 N 667.833 -4.71071 -1.84189 0
M  V30 6821 C 666.131 -3.60453 -2.62659 0
M  V30 6822 C 666.832 -5.53128 -1.80068 0
M  V30 6823 N 665.808 -4.95303 -2.24001 0
M  V30 6824 H 669.61 -2.83117 -0.788806 0
M  V30 6825 H 667.124 -1.58842 -0.3381 0
M  V30 6826 H 669.121 -2.61843 -3.24413 0
M  V30 6827 H 667.781 -1.49961 -2.87996 0
M  V30 6828 H 668.792 -4.94504 -1.53903 0
M  V30 6829 H 665.469 -2.85217 -3.0489 0
M  V30 6830 H 666.859 -6.56182 -1.4448 0
M  V30 6831 N 669.579 0.400081 -1.52437 0
M  V30 6832 C 670.527 1.50851 -1.7705 0
M  V30 6833 C 671.521 1.56928 -0.637969 0
M  V30 6834 O 672.727 1.60226 -0.820212 0
M  V30 6835 H 669.102 0.50186 -0.560036 0
M  V30 6836 H 671.073 1.27281 -2.69893 0
M  V30 6837 C 669.822 2.88117 -1.94638 0
M  V30 6838 H 669.145 2.84187 -2.81208 0
M  V30 6839 H 670.585 3.64942 -2.15855 0
M  V30 6840 C 669.044 3.29206 -0.715899 0
M  V30 6841 O 669.574 4.01544 0.111944 0
M  V30 6842 N 667.78 2.85363 -0.549191 0
M  V30 6843 H 667.327 2.26664 -1.22397 0
M  V30 6844 H 667.285 3.13214 0.27278 0
M  V30 6845 N 671.057 1.43213 0.657864 0
M  V30 6846 C 672.007 1.44459 1.76396 0
M  V30 6847 C 672.991 0.313641 1.57814 0
M  V30 6848 O 674.183 0.557094 1.68004 0
M  V30 6849 C 671.312 1.36586 3.14959 0
M  V30 6850 C 670.398 2.54692 3.39106 0
M  V30 6851 N 670.789 3.80059 3.33749 0
M  V30 6852 C 669.087 2.49316 3.69807 0
M  V30 6853 C 669.788 4.58606 3.57849 0
M  V30 6854 N 668.764 3.89267 3.79437 0
M  V30 6855 H 672.566 2.39265 1.70673 0
M  V30 6856 H 670.08 1.378 0.859357 0
M  V30 6857 H 672.077 1.35561 3.94245 0
M  V30 6858 H 670.737 0.427956 3.21867 0
M  V30 6859 H 671.748 4.12414 3.13266 0
M  V30 6860 H 668.425 1.6419 3.83859 0
M  V30 6861 H 669.815 5.67619 3.59525 0
M  V30 6862 N 672.536 -0.895792 1.29666 0
M  V30 6863 C 673.766 -1.67757 1.20586 0
M  V30 6864 C 674.174 -1.87729 -0.235432 0
M  V30 6865 O 673.517 -1.41706 -1.16898 0
M  V30 6866 C 673.579 -3.08117 1.85215 0
M  V30 6867 C 673.243 -3.1136 3.3452 0
M  V30 6868 C 674.24 -2.91217 4.30684 0
M  V30 6869 C 671.925 -3.33302 3.75786 0
M  V30 6870 C 673.919 -2.92955 5.66089 0
M  V30 6871 C 671.606 -3.3467 5.11311 0
M  V30 6872 C 672.604 -3.14519 6.06273 0
M  V30 6873 O 672.292 -3.15684 7.39323 0
M  V30 6874 H 672.024 -0.530601 0.418854 0
M  V30 6875 H 674.578 -1.12831 1.71634 0
M  V30 6876 H 672.808 -3.64661 1.28683 0
M  V30 6877 H 674.497 -3.68399 1.70403 0
M  V30 6878 H 675.263 -2.74074 4.00136 0
M  V30 6879 H 671.142 -3.48025 3.02324 0
M  V30 6880 H 674.686 -2.77145 6.40185 0
M  V30 6881 H 670.583 -3.51346 5.41504 0
M  V30 6882 H 671.351 -3.31924 7.48177 0
M  V30 6883 N 674.014 -1.12206 -1.10668 0
M  V30 6884 C 675.242 -0.898635 -1.86366 0
M  V30 6885 C 675.657 0.551991 -1.80551 0
M  V30 6886 O 675.014 1.38152 -1.19249 0
M  V30 6887 C 675.065 -1.36199 -3.34861 0
M  V30 6888 O 674.786 -2.75576 -3.40573 0
M  V30 6889 C 676.287 -1.17515 -4.2744 0
M  V30 6890 H 673.507 -0.321281 -0.589084 0
M  V30 6891 H 676.051 -1.49142 -1.39918 0
M  V30 6892 H 674.206 -0.81249 -3.78784 0
M  V30 6893 H 674.62 -2.95851 -4.33096 0
M  V30 6894 H 676.094 -1.54827 -5.29842 0
M  V30 6895 H 676.571 -0.115486 -4.39048 0
M  V30 6896 H 677.177 -1.71203 -3.89319 0
M  V30 6897 N 675.492 1.28418 -0.913599 0
M  V30 6898 C 676.424 2.26368 -0.359169 0
M  V30 6899 C 677.437 1.54858 0.502285 0
M  V30 6900 O 678.626 1.75659 0.31719 0
M  V30 6901 C 675.726 3.35112 0.50526 0
M  V30 6902 C 674.899 4.36126 -0.333648 0
M  V30 6903 C 673.958 5.24134 0.465845 0
M  V30 6904 O 672.984 5.6907 -0.121538 0
M  V30 6905 N 674.186 5.52892 1.76891 0
M  V30 6906 H 676.951 2.74579 -1.2011 0
M  V30 6907 H 674.512 1.41898 -0.779532 0
M  V30 6908 H 676.504 3.90926 1.04684 0
M  V30 6909 H 675.074 2.86611 1.2479 0
M  V30 6910 H 674.294 3.79776 -1.0566 0
M  V30 6911 H 675.582 5.00638 -0.907669 0
M  V30 6912 H 674.98 5.18217 2.26865 0
M  V30 6913 H 673.537 6.11464 2.25732 0
M  V30 6914 N 676.97 0.677563 1.42291 0
M  V30 6915 C 677.917 0.000947061 2.308 0
M  V30 6916 C 678.887 -0.789889 1.46116 0
M  V30 6917 O 680.072 -0.761578 1.74942 0
M  V30 6918 C 677.212 -0.942387 3.31984 0
M  V30 6919 C 676.325 -0.14508 4.31756 0
M  V30 6920 C 675.46 -1.08442 5.20013 0
M  V30 6921 C 674.499 -0.278958 6.11464 0
M  V30 6922 N 673.636 -1.17115 6.92263 0
M  V30 6923 H 678.476 0.761521 2.88106 0
M  V30 6924 H 676.013 0.38727 1.41911 0
M  V30 6925 H 677.971 -1.50317 3.89179 0
M  V30 6926 H 676.601 -1.66956 2.76271 0
M  V30 6927 H 675.653 0.532368 3.76656 0
M  V30 6928 H 676.965 0.48015 4.96484 0
M  V30 6929 H 676.119 -1.71504 5.81955 0
M  V30 6930 H 674.858 -1.74353 4.55469 0
M  V30 6931 H 673.863 0.364856 5.48588 0
M  V30 6932 H 675.088 0.376099 6.78058 0
M  V30 6933 H 673.034 -1.81661 6.30345 0
M  V30 6934 H 672.951 -0.601063 7.53607 0
M  V30 6935 H 674.219 -1.78915 7.58689 0
M  V30 6936 N 678.448 -1.51871 0.421078 0
M  V30 6937 C 679.673 -2.0684 -0.152371 0
M  V30 6938 C 680.098 -1.28802 -1.37083 0
M  V30 6939 O 679.456 -0.321482 -1.78427 0
M  V30 6940 C 679.504 -3.57532 -0.469368 0
M  V30 6941 O 678.608 -3.81818 -1.55848 0
M  V30 6942 H 677.949 -0.663939 -0.00898586 0
M  V30 6943 H 680.479 -1.95674 0.597724 0
M  V30 6944 H 680.489 -4.01515 -0.724553 0
M  V30 6945 H 679.164 -4.13761 0.421276 0
M  V30 6946 H 677.741 -3.49709 -1.29453 0
M  V30 6947 N 679.926 -0.151884 -1.56866 0
M  V30 6948 C 680.856 0.781943 -2.20018 0
M  V30 6949 C 681.837 1.25347 -1.14987 0
M  V30 6950 O 683.022 1.31015 -1.43348 0
M  V30 6951 C 680.152 2.01928 -2.82564 0
M  V30 6952 C 679.106 1.68434 -3.93464 0
M  V30 6953 C 678.432 2.99472 -4.42968 0
M  V30 6954 C 679.732 0.927244 -5.14003 0
M  V30 6955 H 681.426 0.255607 -2.98307 0
M  V30 6956 H 678.972 0.121502 -1.43486 0
M  V30 6957 H 680.925 2.67741 -3.25411 0
M  V30 6958 H 679.649 2.56943 -2.01614 0
M  V30 6959 H 678.308 1.04998 -3.51242 0
M  V30 6960 H 677.956 3.52488 -3.58834 0
M  V30 6961 H 677.656 2.77823 -5.17772 0
M  V30 6962 H 679.18 3.66348 -4.88489 0
M  V30 6963 H 680.594 1.48756 -5.53665 0
M  V30 6964 H 678.991 0.810513 -5.94601 0
M  V30 6965 H 680.061 -0.0801163 -4.84834 0
M  V30 6966 N 681.404 1.57128 0.121893 0
M  V30 6967 C 682.629 1.89254 0.848385 0
M  V30 6968 C 683.054 0.743527 1.72781 0
M  V30 6969 O 682.412 -0.306056 1.78698 0
M  V30 6970 C 682.46 3.20113 1.66012 0
M  V30 6971 O 681.564 3.05815 2.76679 0
M  V30 6972 H 680.905 0.621103 0.234793 0
M  V30 6973 H 683.435 2.0433 0.10516 0
M  V30 6974 H 683.445 3.52761 2.04996 0
M  V30 6975 H 682.12 4.03336 1.01452 0
M  V30 6976 H 680.697 2.84627 2.40918 0
M  V30 6977 N 682.882 -0.391992 1.52647 0
M  V30 6978 C 683.812 -1.48517 1.8018 0
M  V30 6979 C 684.793 -1.57039 0.653667 0
M  V30 6980 O 685.978 -1.72036 0.900962 0
M  V30 6981 C 683.108 -2.86161 1.96797 0
M  V30 6982 C 682.062 -2.92481 3.12472 0
M  V30 6983 C 681.388 -4.32546 3.14338 0
M  V30 6984 C 682.688 -2.624 4.51601 0
M  V30 6985 H 684.382 -1.25726 2.71723 0
M  V30 6986 H 681.928 -0.603387 1.30749 0
M  V30 6987 H 683.881 -3.62639 2.14641 0
M  V30 6988 H 682.605 -3.10283 1.01941 0
M  V30 6989 H 681.264 -2.18451 2.94406 0
M  V30 6990 H 680.912 -4.53703 2.1717 0
M  V30 6991 H 680.612 -4.37695 3.92042 0
M  V30 6992 H 682.136 -5.10934 3.34333 0
M  V30 6993 H 683.55 -3.28596 4.69785 0
M  V30 6994 H 681.947 -2.78903 5.3135 0
M  V30 6995 H 683.017 -1.57754 4.58521 0
M  V30 6996 N 684.36 -1.4356 -0.65026 0
M  V30 6997 C 685.585 -1.48995 -1.44275 0
M  V30 6998 C 686.01 -0.109954 -1.87778 0
M  V30 6999 O 685.368 0.896926 -1.57559 0
M  V30 7000 C 685.416 -2.44341 -2.65198 0
M  V30 7001 O 684.52 -1.93172 -3.6436 0
M  V30 7002 H 683.861 -0.503852 -0.432469 0
M  V30 7003 H 686.391 -1.88504 -0.795446 0
M  V30 7004 H 686.401 -2.61743 -3.12977 0
M  V30 7005 H 685.076 -3.44588 -2.32877 0
M  V30 7006 H 683.653 -1.85445 -3.23519 0
M  V30 7007 N 685.838 0.888903 -1.30139 0
M  V30 7008 C 687.249 1.45578 -1.16893 0
M  V30 7009 C 687.6 1.94825 0.231866 0
M  V30 7010 O 686.725 1.84661 1.12824 0
M  V30 7011 C 687.32 2.646 -2.11595 0
M  V30 7012 C 685.879 3.17389 -2.02339 0
M  V30 7013 C 685.026 1.90081 -2.01902 0
M  V30 7014 H 687.977 0.69921 -1.42467 0
M  V30 7015 H 687.998 3.40687 -1.69449 0
M  V30 7016 H 687.51 2.28726 -3.13538 0
M  V30 7017 H 685.611 3.5793 -1.03523 0
M  V30 7018 H 685.724 3.80955 -2.90534 0
M  V30 7019 H 684.088 2.08246 -1.46648 0
M  V30 7020 H 684.871 1.5647 -3.05568 0
M  V30 7021 N 687.317 1.12792 1.10072 0
M  V30 7022 C 688.565 0.883796 1.81751 0
M  V30 7023 C 688.886 -0.591891 1.858 0
M  V30 7024 O 688.156 -1.43017 1.33876 0
M  V30 7025 H 686.736 0.323978 0.673088 0
M  V30 7026 H 689.398 1.42314 1.33164 0
M  V30 7027 H 688.494 1.26863 2.85153 0
M  V30 7028 N 688.795 -1.27931 0.920396 0
M  V30 7029 C 689.742 -2.27085 0.412422 0
M  V30 7030 C 690.712 -1.57858 -0.516725 0
M  V30 7031 O 691.897 -1.85717 -0.437475 0
M  V30 7032 C 689.037 -3.43466 -0.335399 0
M  V30 7033 C 688.15 -4.27425 0.627017 0
M  V30 7034 C 687.285 -5.31016 -0.139916 0
M  V30 7035 C 686.324 -6.06641 0.815683 0
M  V30 7036 N 685.461 -7.02052 0.0818439 0
M  V30 7037 H 690.301 -2.69913 1.26298 0
M  V30 7038 H 687.838 -1.32732 0.634076 0
M  V30 7039 H 689.796 -4.09744 -0.785226 0
M  V30 7040 H 688.426 -3.01611 -1.15025 0
M  V30 7041 H 687.478 -3.6113 1.19537 0
M  V30 7042 H 688.79 -4.79969 1.35763 0
M  V30 7043 H 687.944 -6.03208 -0.649998 0
M  V30 7044 H 686.683 -4.79257 -0.903543 0
M  V30 7045 H 685.688 -5.33294 1.33708 0
M  V30 7046 H 686.913 -6.60489 1.57897 0
M  V30 7047 H 684.859 -6.52634 -0.663671 0
M  V30 7048 H 684.776 -7.52249 0.752163 0
M  V30 7049 H 686.044 -7.78432 -0.407825 0
M  V30 7050 O 690.312 -0.824023 -1.38896 0
M  V30 7051 H 691.003 -0.40654 -1.89386 0
M  V30 END ATOM
M  V30 BEGIN BOND
M  V30 END BOND
M  V30 END CTAB
M  END
$$$$
