drugbank_target|Q05513 Protein kinase C zeta type (DB00675)
 OpenBabel12092120593D

  0  0  0     0  0            999 V3000
M  V30 BEGIN CTAB
M  V30 COUNTS 9408 9517 0 0 0
M  V30 BEGIN ATOM
M  V30 1 H -0.908 1.98254 -0.117106 0
M  V30 2 N 0 1.576 0 0
M  V30 3 C 0.933 2.03868 1.02534 0
M  V30 4 C 1.911 0.928543 1.3348 0
M  V30 5 O 3.095 1.19667 1.45644 0
M  V30 6 C 0.222 2.43627 2.35294 0
M  V30 7 C -0.732 3.65373 2.2001 0
M  V30 8 S 0.101 5.13292 1.52614 0
M  V30 9 C 1.257 5.56322 2.86805 0
M  V30 10 H 1.49 2.90518 0.631377 0
M  V30 11 H -0.977 1.52953 0.210867 0
M  V30 12 H 0.981 2.67203 3.11629 0
M  V30 13 H -0.358 1.57376 2.7183 0
M  V30 14 H -1.165 3.90944 3.18086 0
M  V30 15 H -1.563 3.418 1.51819 0
M  V30 16 H 0.729 5.58782 3.83104 0
M  V30 17 H 1.672 6.56266 2.65933 0
M  V30 18 H 2.08 4.83886 2.90714 0
M  V30 19 N 1.4781 -0.272755 1.55222 0
M  V30 20 C 2.8891 -0.84378 1.66545 0
M  V30 21 C 3.2401 -1.87035 0.592641 0
M  V30 22 O 2.3651 -2.14761 -0.265818 0
M  V30 23 C 2.9601 -1.53723 3.01918 0
M  V30 24 C 1.5191 -2.05628 3.15268 0
M  V30 25 C 0.6661 -0.898424 2.62343 0
M  V30 26 H 3.6171 -0.0490998 1.58624 0
M  V30 27 H 3.6381 -2.40421 2.94921 0
M  V30 28 H 3.1501 -0.78983 3.79978 0
M  V30 29 H 1.2511 -2.83329 2.41983 0
M  V30 30 H 1.3641 -2.27142 4.21833 0
M  V30 31 H -0.2719 -1.29186 2.19506 0
M  V30 32 H 0.5111 -0.164528 3.42906 0
M  V30 33 N 2.9562 -1.48159 -0.537278 0
M  V30 34 C 4.1812 -1.59707 -1.32319 0
M  V30 35 C 4.6062 -0.254859 -1.86365 0
M  V30 36 O 3.9642 0.772378 -1.64024 0
M  V30 37 C 4.0122 -2.6412 -2.45505 0
M  V30 38 O 3.1162 -2.20774 -3.48328 0
M  V30 39 H 2.4572 -0.535791 -0.392204 0
M  V30 40 H 4.9872 -1.94092 -0.647268 0
M  V30 41 H 4.9972 -2.85166 -2.91795 0
M  V30 42 H 3.6722 -3.61567 -2.05528 0
M  V30 43 H 2.2492 -2.09911 -3.08207 0
M  V30 44 N 4.4343 0.785586 -1.36625 0
M  V30 45 C 5.8503 1.08419 -1.17122 0
M  V30 46 C 6.0503 2.015 0.00208491 0
M  V30 47 O 5.1063 2.43551 0.666278 0
M  V30 48 C 6.4193 1.69498 -2.48377 0
M  V30 49 C 7.9673 1.81821 -2.54775 0
M  V30 50 C 8.4423 2.46315 -3.86126 0
M  V30 51 N 9.9333 2.53779 -3.87492 0
M  V30 52 C 10.6683 3.045 -4.85868 0
M  V30 53 N 10.1643 3.55499 -5.94637 0
M  V30 54 N 11.9573 3.03247 -4.73284 0
M  V30 55 H 4.1083 0.167264 -2.1174 0
M  V30 56 H 6.3713 0.13682 -0.938075 0
M  V30 57 H 6.0773 1.08571 -3.34522 0
M  V30 58 H 5.9513 2.6896 -2.64462 0
M  V30 59 H 8.3383 2.41884 -1.69045 0
M  V30 60 H 8.4193 0.811532 -2.42586 0
M  V30 61 H 8.0633 1.86895 -4.72263 0
M  V30 62 H 7.9933 3.47561 -3.95612 0
M  V30 63 H 10.4843 2.17672 -3.08913 0
M  V30 64 H 10.7973 3.92562 -6.65669 0
M  V30 65 H 9.1423 3.5364 -5.98301 0
M  V30 66 H 12.3333 2.62696 -3.87438 0
M  V30 67 H 12.5063 3.42467 -5.50109 0
M  V30 68 N 5.9124 1.20967 1.01018 0
M  V30 69 C 7.1404 1.04956 1.78303 0
M  V30 70 C 7.5554 -0.400915 1.84494 0
M  V30 71 O 6.9124 -1.27826 1.30257 0
M  V30 72 C 6.9634 1.63403 3.22462 0
M  V30 73 O 6.6844 3.02775 3.16637 0
M  V30 74 C 8.1854 1.52432 4.16268 0
M  V30 75 H 5.4054 0.368858 0.560522 0
M  V30 76 H 7.9494 1.60193 1.27116 0
M  V30 77 H 6.1044 1.1227 3.70775 0
M  V30 78 H 6.5184 3.30626 4.07169 0
M  V30 79 H 7.9924 1.98078 5.15237 0
M  V30 80 H 8.4694 0.477875 4.36592 0
M  V30 81 H 9.0754 2.02787 3.73841 0
M  V30 82 N 7.3905 -1.2043 1.01659 0
M  V30 83 C 8.6385 -1.89423 0.704522 0
M  V30 84 C 8.9595 -1.79231 -0.768197 0
M  V30 85 O 8.2295 -1.1947 -1.55254 0
M  V30 86 H 6.8095 -0.701178 0.257602 0
M  V30 87 H 9.4715 -1.4626 1.28818 0
M  V30 88 H 8.5675 -2.96052 0.987916 0
M  V30 89 N 8.8686 -0.792821 -1.36206 0
M  V30 90 C 10.2796 -0.429513 -1.81692 0
M  V30 91 C 10.6306 1.04695 -1.65932 0
M  V30 92 O 9.7556 1.81256 -1.18218 0
M  V30 93 C 10.3506 -0.772831 -3.29868 0
M  V30 94 C 8.9096 -0.462307 -3.7355 0
M  V30 95 C 8.0566 -1.00569 -2.5842 0
M  V30 96 H 11.0076 -0.985672 -1.24379 0
M  V30 97 H 11.0286 -0.0651928 -3.80444 0
M  V30 98 H 10.5406 -1.84747 -3.41307 0
M  V30 99 H 8.6416 0.604158 -3.67669 0
M  V30 100 H 8.7546 -0.985299 -4.68859 0
M  V30 101 H 7.1186 -0.428734 -2.51066 0
M  V30 102 H 7.9016 -2.08616 -2.72643 0
M  V30 103 N 10.3467 1.47872 -0.545128 0
M  V30 104 C 11.2937 2.29849 0.2093 0
M  V30 105 C 12.2637 1.38313 0.919707 0
M  V30 106 O 13.4487 1.67277 0.917772 0
M  V30 107 C 10.5887 3.22019 1.24088 0
M  V30 108 C 9.7017 4.2864 0.537778 0
M  V30 109 C 8.8367 5.07973 1.5536 0
M  V30 110 C 7.8757 6.06381 0.8348 0
M  V30 111 N 7.0127 6.78717 1.79688 0
M  V30 112 H 11.8527 2.93845 -0.49591 0
M  V30 113 H 9.3897 1.44848 -0.256389 0
M  V30 114 H 11.3477 3.73868 1.85144 0
M  V30 115 H 9.9777 2.59914 1.91428 0
M  V30 116 H 9.0297 3.7994 -0.187046 0
M  V30 117 H 10.3417 4.98793 -0.0258907 0
M  V30 118 H 9.4957 5.63912 2.23803 0
M  V30 119 H 8.2347 4.37693 2.15118 0
M  V30 120 H 7.2397 5.49631 0.136388 0
M  V30 121 H 8.4647 6.78665 0.24313 0
M  V30 122 H 6.4107 6.11177 2.38326 0
M  V30 123 H 6.3277 7.44998 1.28505 0
M  V30 124 H 7.5957 7.39237 2.47282 0
M  V30 125 N 11.8248 0.280983 1.55075 0
M  V30 126 C 12.7578 -0.645439 2.18882 0
M  V30 127 C 13.7358 -1.14786 1.15165 0
M  V30 128 O 14.9198 -1.21975 1.43716 0
M  V30 129 C 12.0468 -1.88088 2.81674 0
M  V30 130 C 11.0928 -1.51343 3.98745 0
M  V30 131 S 11.9258 -0.586548 5.32278 0
M  V30 132 C 13.0818 -1.83024 5.98543 0
M  V30 133 H 13.3148 -0.1033 2.9712 0
M  V30 134 H 10.8478 0.0652099 1.54262 0
M  V30 135 H 12.8058 -2.58997 3.18482 0
M  V30 136 H 11.4668 -2.39417 2.03318 0
M  V30 137 H 10.6598 -2.43289 4.41392 0
M  V30 138 H 10.2618 -0.884477 3.63391 0
M  V30 139 H 12.5538 -2.77342 6.18133 0
M  V30 140 H 13.4968 -1.44668 6.93164 0
M  V30 141 H 13.9048 -1.99785 5.27964 0
M  V30 142 N 13.3029 -1.57598 0.00835791 0
M  V30 143 C 14.2129 -2.12385 -0.996487 0
M  V30 144 C 15.2289 -1.07108 -1.37127 0
M  V30 145 O 16.4049 -1.39055 -1.4569 0
M  V30 146 C 13.4699 -2.62314 -2.26699 0
M  V30 147 C 12.5309 -3.82225 -1.95456 0
M  V30 148 C 11.7639 -4.29763 -3.16449 0
M  V30 149 O 11.9869 -3.76584 -4.28416 0
M  V30 150 O 10.9209 -5.21832 -2.99958 0
M  V30 151 H 14.7469 -2.98479 -0.560725 0
M  V30 152 H 12.3319 -1.47903 -0.210987 0
M  V30 153 H 14.2139 -2.94589 -3.01322 0
M  V30 154 H 12.8889 -1.79313 -2.69497 0
M  V30 155 H 11.7959 -3.54909 -1.18282 0
M  V30 156 H 13.1289 -4.66324 -1.57489 0
M  V30 157 N 14.781 0.264519 -1.55364 0
M  V30 158 C 16.029 0.993021 -1.76021 0
M  V30 159 C 16.35 1.86511 -0.569099 0
M  V30 160 O 15.62 1.91438 0.415735 0
M  V30 161 H 14.2 0.369639 -0.649135 0
M  V30 162 H 16.862 0.286707 -1.9278 0
M  V30 163 H 15.958 1.62502 -2.66457 0
M  V30 164 N 16.2591 1.48442 0.529413 0
M  V30 165 C 17.4841 1.60406 1.31471 0
M  V30 166 C 17.9091 0.264738 1.86228 0
M  V30 167 O 17.2671 -0.763668 1.64432 0
M  V30 168 C 17.3151 2.65419 2.44101 0
M  V30 169 O 16.4191 2.22618 3.47153 0
M  V30 170 H 15.7601 0.537863 0.389357 0
M  V30 171 H 18.2901 1.94432 0.636965 0
M  V30 172 H 18.3001 2.86709 2.90279 0
M  V30 173 H 16.9751 3.62652 2.03608 0
M  V30 174 H 15.5521 2.11543 3.0709 0
M  V30 175 N 17.7372 -0.778329 1.37039 0
M  V30 176 C 18.9852 -1.53361 1.31623 0
M  V30 177 C 19.3062 -1.94739 -0.100831 0
M  V30 178 O 18.5762 -1.65797 -1.04347 0
M  V30 179 H 17.1562 -0.568794 0.484234 0
M  V30 180 H 19.8182 -0.926742 1.71457 0
M  V30 181 H 18.9142 -2.43606 1.95096 0
M  V30 182 N 19.2153 -1.21501 -1.00376 0
M  V30 183 C 20.4633 -1.03095 -1.73827 0
M  V30 184 C 20.7843 0.436341 -1.90055 0
M  V30 185 O 20.0543 1.31466 -1.45236 0
M  V30 186 H 18.6343 -0.378487 -0.644016 0
M  V30 187 H 21.2963 -1.52831 -1.20949 0
M  V30 188 H 20.3923 -1.49991 -2.73695 0
M  V30 189 N 20.6934 1.19889 -1.02296 0
M  V30 190 C 22.1094 1.41462 -0.738954 0
M  V30 191 C 22.3094 1.89721 0.678846 0
M  V30 192 O 21.3654 2.07016 1.4457 0
M  V30 193 C 22.6784 2.43083 -1.77005 0
M  V30 194 C 24.2264 2.5684 -1.78892 0
M  V30 195 C 24.7014 3.61709 -2.80945 0
M  V30 196 N 26.1924 3.69199 -2.79725 0
M  V30 197 C 26.9274 4.50019 -3.55345 0
M  V30 198 N 26.4234 5.34592 -4.40662 0
M  V30 199 N 28.2164 4.44612 -3.43914 0
M  V30 200 H 20.3674 0.868827 -1.93817 0
M  V30 201 H 22.6304 0.44399 -0.837602 0
M  V30 202 H 22.3364 2.14636 -2.78612 0
M  V30 203 H 22.2104 3.4217 -1.58744 0
M  V30 204 H 24.5974 2.84614 -0.779674 0
M  V30 205 H 24.6784 1.57927 -2.01228 0
M  V30 206 H 24.3224 3.34678 -3.82038 0
M  V30 207 H 24.2524 4.60259 -2.5587 0
M  V30 208 H 26.7434 3.08794 -2.17842 0
M  V30 209 H 27.0564 5.93363 -4.95116 0
M  V30 210 H 25.4014 5.34073 -4.44737 0
M  V30 211 H 28.5924 3.7758 -2.76679 0
M  V30 212 H 28.7654 5.0736 -4.031 0
M  V30 213 N 22.1715 0.800033 1.35784 0
M  V30 214 C 23.4175 0.377901 1.99248 0
M  V30 215 C 23.7505 -1.05052 1.63333 0
M  V30 216 O 23.0255 -1.72768 0.893385 0
M  V30 217 C 23.3085 0.553922 3.55814 0
M  V30 218 C 23.1615 2.0268 4.01548 0
M  V30 219 C 24.4805 -0.0244802 4.40093 0
M  V30 220 H 21.5995 0.138782 0.723815 0
M  V30 221 H 24.2415 1.00835 1.61035 0
M  V30 222 H 22.3915 0.0172398 3.88496 0
M  V30 223 H 24.0635 2.62536 3.79305 0
M  V30 224 H 22.3065 2.5256 3.52698 0
M  V30 225 H 22.9775 2.10087 5.10458 0
M  V30 226 H 25.4535 0.433775 4.13833 0
M  V30 227 H 24.3295 0.128637 5.48749 0
M  V30 228 H 24.5905 -1.11758 4.27741 0
M  V30 229 N 23.6496 -1.47581 0.552962 0
M  V30 230 C 25.0656 -1.5818 0.212424 0
M  V30 231 C 25.2656 -1.55213 -1.28496 0
M  V30 232 O 24.3216 -1.45329 -2.06484 0
M  V30 233 C 25.6346 -2.88865 0.835318 0
M  V30 234 C 27.1826 -3.0244 0.806156 0
M  V30 235 C 27.6576 -4.35819 1.40804 0
M  V30 236 N 29.1486 -4.42444 1.37103 0
M  V30 237 C 29.8836 -5.44202 1.80641 0
M  V30 238 N 29.3796 -6.52795 2.32015 0
M  V30 239 N 31.1726 -5.35222 1.71738 0
M  V30 240 H 23.3236 -1.47753 1.52587 0
M  V30 241 H 25.5866 -0.702941 0.636064 0
M  V30 242 H 25.2926 -2.9676 1.88749 0
M  V30 243 H 25.1666 -3.7579 0.325848 0
M  V30 244 H 27.5536 -2.94144 -0.237317 0
M  V30 245 H 27.6346 -2.17068 1.35334 0
M  V30 246 H 27.2786 -4.44871 2.45056 0
M  V30 247 H 27.2086 -5.19916 0.836338 0
M  V30 248 H 29.6996 -3.6456 0.995202 0
M  V30 249 H 30.0126 -7.26609 2.63171 0
M  V30 250 H 28.3576 -6.53696 2.36023 0
M  V30 251 H 31.5486 -4.49284 1.31382 0
M  V30 252 H 31.7216 -6.14389 2.05987 0
M  V30 253 N 25.1277 -0.289203 -1.54924 0
M  V30 254 C 26.0577 0.58549 -2.2604 0
M  V30 255 C 27.0387 1.14753 -1.25562 0
M  V30 256 O 28.2237 1.17906 -1.54311 0
M  V30 257 C 25.3537 1.76305 -2.99222 0
M  V30 258 C 24.3077 1.33191 -4.06748 0
M  V30 259 C 23.6337 2.5937 -4.6758 0
M  V30 260 C 24.9337 0.471775 -5.20165 0
M  V30 261 H 26.6277 -0.00763532 -2.99399 0
M  V30 262 H 24.1737 -0.00511229 -1.43999 0
M  V30 263 H 26.1267 2.38097 -3.47689 0
M  V30 264 H 24.8507 2.38223 -2.23422 0
M  V30 265 H 23.5097 0.737121 -3.59113 0
M  V30 266 H 23.1577 3.19576 -3.88433 0
M  V30 267 H 22.8577 2.31228 -5.40192 0
M  V30 268 H 24.3817 3.21985 -5.18804 0
M  V30 269 H 25.7957 0.995056 -5.64599 0
M  V30 270 H 24.1927 0.284639 -5.99425 0
M  V30 271 H 25.2627 -0.506041 -4.82252 0
M  V30 272 N 26.6058 1.57591 -0.0167156 0
M  V30 273 C 27.5528 2.09462 0.969251 0
M  V30 274 C 28.5228 0.99381 1.33089 0
M  V30 275 O 29.7078 1.26726 1.42636 0
M  V30 276 C 26.8478 2.61622 2.25051 0
M  V30 277 C 25.9608 3.85666 1.94642 0
M  V30 278 C 25.0958 4.26266 3.16972 0
M  V30 279 C 24.1348 5.43101 2.82326 0
M  V30 280 N 23.2718 5.78915 3.97243 0
M  V30 281 H 28.1118 2.93428 0.519997 0
M  V30 282 H 25.6488 1.45044 0.245087 0
M  V30 283 H 27.6068 2.89949 2.99976 0
M  V30 284 H 26.2368 1.80505 2.67615 0
M  V30 285 H 25.2888 3.64145 1.10013 0
M  V30 286 H 26.6008 4.70678 1.65117 0
M  V30 287 H 25.7548 4.55963 4.00228 0
M  V30 288 H 24.4938 3.39996 3.49648 0
M  V30 289 H 23.4988 5.1311 1.97479 0
M  V30 290 H 24.7238 6.3106 2.50879 0
M  V30 291 H 22.6698 4.95602 4.29785 0
M  V30 292 H 22.5868 6.58539 3.71299 0
M  V30 293 H 23.8548 6.13212 4.81239 0
M  V30 294 N 28.0839 -0.256276 1.55502 0
M  V30 295 C 29.0469 -1.30047 1.88734 0
M  V30 296 C 30.0469 -1.4154 0.763086 0
M  V30 297 O 31.2369 -1.40403 1.03115 0
M  V30 298 C 28.3689 -2.67953 2.10747 0
M  V30 299 H 29.5619 -1.01802 2.82093 0
M  V30 300 H 27.1149 -0.495134 1.4825 0
M  V30 301 H 27.8499 -3.01351 1.19825 0
M  V30 302 H 27.6349 -2.60993 2.92617 0
M  V30 303 H 29.1249 -3.43368 2.37673 0
M  V30 304 N 29.562 -1.4872 -0.521534 0
M  V30 305 C 30.512 -1.60269 -1.62166 0
M  V30 306 C 31.496 -0.45935 -1.54204 0
M  V30 307 O 32.688 -0.711241 -1.62081 0
M  V30 308 C 29.817 -1.65344 -3.00859 0
M  V30 309 C 28.903 -2.85187 -3.13894 0
M  V30 310 N 29.294 -4.09509 -2.96877 0
M  V30 311 C 27.592 -2.82695 -3.44963 0
M  V30 312 C 28.293 -4.89959 -3.13552 0
M  V30 313 N 27.269 -4.22934 -3.41508 0
M  V30 314 H 31.071 -2.5413 -1.47632 0
M  V30 315 H 28.585 -1.45209 -0.727194 0
M  V30 316 H 30.582 -1.71713 -3.79895 0
M  V30 317 H 29.242 -0.726058 -3.16478 0
M  V30 318 H 30.253 -4.39814 -2.73467 0
M  V30 319 H 26.93 -1.99249 -3.66887 0
M  V30 320 H 28.32 -5.98654 -3.05061 0
M  V30 321 N 31.0401 0.771051 -1.3745 0
M  V30 322 C 32.2701 1.55789 -1.35696 0
M  V30 323 C 32.6781 1.89107 0.0594523 0
M  V30 324 O 32.0211 1.51984 1.03183 0
M  V30 325 C 32.0831 2.89515 -2.13123 0
M  V30 326 C 31.7471 2.78829 -3.62082 0
M  V30 327 C 32.7441 2.49812 -4.5595 0
M  V30 328 C 30.4291 2.9683 -4.05213 0
M  V30 329 C 32.4231 2.38923 -5.90927 0
M  V30 330 C 30.1101 2.85562 -5.40276 0
M  V30 331 C 31.1081 2.56649 -6.32946 0
M  V30 332 O 30.7961 2.45408 -7.65526 0
M  V30 333 H 30.5281 0.489257 -0.466481 0
M  V30 334 H 33.0821 0.963446 -1.81403 0
M  V30 335 H 31.3121 3.51081 -1.62107 0
M  V30 336 H 33.0011 3.50915 -2.03994 0
M  V30 337 H 33.7671 2.3559 -4.23937 0
M  V30 338 H 29.6461 3.18335 -3.33442 0
M  V30 339 H 33.1901 2.16277 -6.63227 0
M  V30 340 H 29.0871 2.99351 -5.71891 0
M  V30 341 H 29.8551 2.60753 -7.75855 0
M  V30 342 N 32.5182 1.22032 0.997298 0
M  V30 343 C 33.7662 1.04016 1.73278 0
M  V30 344 C 34.0872 -0.426255 1.90284 0
M  V30 345 O 33.3572 -1.30694 1.45931 0
M  V30 346 H 31.9372 0.381897 0.642 0
M  V30 347 H 34.5992 1.5347 1.20137 0
M  V30 348 H 33.6952 1.51441 2.72896 0
M  V30 349 N 33.9963 -1.19345 1.0293 0
M  V30 350 C 35.2443 -1.88665 0.724574 0
M  V30 351 C 35.5653 -1.80036 -0.749144 0
M  V30 352 O 34.8353 -1.2111 -1.53978 0
M  V30 353 H 33.4153 -0.698406 0.265025 0
M  V30 354 H 36.0773 -1.44885 1.30362 0
M  V30 355 H 35.1733 -2.94987 1.01926 0
M  V30 356 N 35.4744 -0.807222 -1.35358 0
M  V30 357 C 36.7514 -0.311126 -1.9311 0
M  V30 358 C 37.1314 1.19937 -1.73719 0
M  V30 359 O 36.4794 1.99918 -1.10657 0
M  V30 360 C 36.6894 -0.723226 -3.41424 0
M  V30 361 C 38.0374 -0.713078 -4.18569 0
M  V30 362 O 39.0614 -0.664811 -3.49941 0
M  V30 363 O 37.9204 -0.772022 -5.41019 0
M  V30 364 H 35.0144 -0.081526 -0.822972 0
M  V30 365 H 37.5604 -0.890962 -1.4443 0
M  V30 366 H 36.3324 -1.76426 -3.4927 0
M  V30 367 H 35.9554 -0.118232 -3.97424 0
M  V30 368 N 36.9525 1.47285 -0.560781 0
M  V30 369 C 38.2015 2.01668 -0.035895 0
M  V30 370 C 38.5145 1.44021 1.32353 0
M  V30 371 O 39.7205 1.90088 1.93853 0
M  V30 372 C 38.1765 3.59897 -0.0136659 0
M  V30 373 C 37.7845 4.26536 -1.37006 0
M  V30 374 C 39.5285 4.22017 0.458425 0
M  V30 375 C 37.4355 5.76782 -1.30675 0
M  V30 376 H 36.3655 0.753938 -0.00964879 0
M  V30 377 H 39.0165 1.69243 -0.709166 0
M  V30 378 H 37.3985 3.89301 0.725325 0
M  V30 379 H 38.5725 4.0877 -2.12705 0
M  V30 380 H 36.8875 3.76419 -1.78038 0
M  V30 381 H 39.4845 5.32124 0.524247 0
M  V30 382 H 39.8275 3.89437 1.4712 0
M  V30 383 H 40.3605 3.97159 -0.225818 0
M  V30 384 H 37.0995 6.13988 -2.29564 0
M  V30 385 H 36.6195 5.96875 -0.591622 0
M  V30 386 H 38.2985 6.39063 -1.01033 0
M  V30 387 N 38.4306 0.297415 1.54768 0
M  V30 388 C 39.6776 -0.312913 2.00068 0
M  V30 389 C 40.0056 -1.54171 1.18582 0
M  V30 390 O 39.2606 -1.94108 0.249133 0
M  V30 391 C 39.5596 -0.717561 3.50123 0
M  V30 392 C 39.2256 0.409095 4.4904 0
M  V30 393 C 37.8876 0.718399 4.75807 0
M  V30 394 C 40.2396 1.16717 5.07963 0
M  V30 395 C 37.5676 1.78896 5.5876 0
M  V30 396 C 39.9196 2.22762 5.92081 0
M  V30 397 C 38.5836 2.54303 6.1716 0
M  V30 398 H 37.8536 -0.114503 0.7321 0
M  V30 399 H 40.5006 0.415767 1.86932 0
M  V30 400 H 38.8056 -1.52627 3.60849 0
M  V30 401 H 40.5026 -1.20091 3.82595 0
M  V30 402 H 37.0926 0.157918 4.28309 0
M  V30 403 H 41.2766 0.941466 4.87289 0
M  V30 404 H 36.5326 2.0381 5.7643 0
M  V30 405 H 40.7066 2.81962 6.36765 0
M  V30 406 H 38.3336 3.3739 6.81229 0
M  V30 407 N 39.9087 -1.5758 0.0250728 0
M  V30 408 C 41.1577 -1.90811 -0.653767 0
M  V30 409 C 41.4707 -0.90273 -1.73523 0
M  V30 410 O 42.6767 -1.12614 -2.47043 0
M  V30 411 C 41.1327 -3.38804 -1.21409 0
M  V30 412 C 40.7407 -4.47692 -0.166126 0
M  V30 413 C 42.4847 -3.81108 -1.86967 0
M  V30 414 C 40.3917 -5.86779 -0.737856 0
M  V30 415 H 39.3217 -0.712063 -0.247956 0
M  V30 416 H 41.9727 -1.83281 0.0897137 0
M  V30 417 H 40.3547 -3.41252 -2.00905 0
M  V30 418 H 41.5287 -4.56797 0.606079 0
M  V30 419 H 39.8437 -4.14565 0.390466 0
M  V30 420 H 42.4407 -4.82375 -2.30692 0
M  V30 421 H 42.7837 -3.15953 -2.71071 0
M  V30 422 H 43.3167 -3.81065 -1.14167 0
M  V30 423 H 40.0557 -6.55468 0.0649577 0
M  V30 424 H 39.5757 -5.81288 -1.47864 0
M  V30 425 H 41.2547 -6.35223 -1.22884 0
M  V30 426 N 41.3868 0.248026 -1.55636 0
M  V30 427 C 42.6148 0.993808 -1.81469 0
M  V30 428 C 43.0298 1.78991 -0.60064 0
M  V30 429 O 42.3868 1.77345 0.430682 0
M  V30 430 C 42.4378 1.93258 -3.05506 0
M  V30 431 O 42.1588 1.16869 -4.22224 0
M  V30 432 C 43.6598 2.79444 -3.4413 0
M  V30 433 H 40.8798 0.292486 -0.603898 0
M  V30 434 H 43.4238 0.271253 -2.02693 0
M  V30 435 H 41.5788 2.60943 -2.86335 0
M  V30 436 H 41.9928 1.80359 -4.92515 0
M  V30 437 H 43.4668 3.41066 -4.34026 0
M  V30 438 H 43.9438 3.50499 -2.64665 0
M  V30 439 H 44.5498 2.17214 -3.65648 0
M  V30 440 N 42.8649 1.48995 0.513639 0
M  V30 441 C 44.0899 1.61792 1.29762 0
M  V30 442 C 44.5149 0.284475 1.85936 0
M  V30 443 O 43.8729 -0.746185 1.65232 0
M  V30 444 C 43.9209 2.67993 2.41272 0
M  V30 445 O 43.0249 2.26287 3.44772 0
M  V30 446 H 42.3659 0.541963 0.38363 0
M  V30 447 H 44.8959 1.95097 0.616307 0
M  V30 448 H 44.9059 2.89772 2.87221 0
M  V30 449 H 43.5809 3.64791 1.9975 0
M  V30 450 H 42.1579 2.14788 3.04829 0
M  V30 451 N 44.343 -0.763751 1.37857 0
M  V30 452 C 45.589 -1.52483 1.33704 0
M  V30 453 C 45.922 -1.94051 -0.0759612 0
M  V30 454 O 45.197 -1.64675 -1.03501 0
M  V30 455 C 45.48 -2.78441 2.28348 0
M  V30 456 C 45.333 -2.43075 3.78463 0
M  V30 457 C 46.652 -3.80415 2.21298 0
M  V30 458 H 43.771 -0.553169 0.487005 0
M  V30 459 H 46.413 -0.875562 1.68624 0
M  V30 460 H 44.563 -3.33842 1.987 0
M  V30 461 H 46.235 -1.93527 4.18742 0
M  V30 462 H 44.478 -1.75666 3.96641 0
M  V30 463 H 45.149 -3.33149 4.40132 0
M  V30 464 H 47.625 -3.34527 2.47449 0
M  V30 465 H 46.501 -4.66257 2.89647 0
M  V30 466 H 46.762 -4.25262 1.20849 0
M  V30 467 N 45.8211 -1.22559 -0.990812 0
M  V30 468 C 47.0981 -0.959875 -1.70428 0
M  V30 469 C 47.4781 0.524455 -2.04481 0
M  V30 470 O 46.8261 1.49302 -1.72977 0
M  V30 471 C 47.0361 -1.85955 -2.95333 0
M  V30 472 C 48.3841 -2.11687 -3.68068 0
M  V30 473 O 49.4081 -1.8342 -3.05345 0
M  V30 474 O 48.2671 -2.59572 -4.80921 0
M  V30 475 H 45.3611 -0.361154 -0.743974 0
M  V30 476 H 47.9071 -1.33554 -1.04697 0
M  V30 477 H 46.6791 -2.86346 -2.66687 0
M  V30 478 H 46.3021 -1.4856 -3.68803 0
M  V30 479 N 47.2992 1.18797 -1.03562 0
M  V30 480 C 48.2622 2.20464 -0.626769 0
M  V30 481 C 49.2622 1.57721 0.313173 0
M  V30 482 O 50.4522 1.73917 0.0992615 0
M  V30 483 C 47.5842 3.40802 0.0818498 0
M  V30 484 H 48.7772 2.58149 -1.5264 0
M  V30 485 H 46.3302 1.32593 -0.827578 0
M  V30 486 H 47.0652 3.08642 0.995518 0
M  V30 487 H 46.8502 3.8758 -0.593652 0
M  V30 488 H 48.3402 4.16092 0.354584 0
M  V30 489 N 48.7773 0.814389 1.34928 0
M  V30 490 C 49.7403 0.235759 2.27984 0
M  V30 491 C 50.7403 -0.581412 1.49921 0
M  V30 492 O 51.9303 -0.398758 1.69575 0
M  V30 493 C 49.0623 -0.670433 3.34242 0
M  V30 494 H 50.2553 1.05659 2.80671 0
M  V30 495 H 47.8083 0.585614 1.44915 0
M  V30 496 H 48.5433 -1.51466 2.86755 0
M  V30 497 H 48.3283 -0.0860822 3.92005 0
M  V30 498 H 49.8183 -1.06935 4.03676 0
M  V30 499 N 50.2554 -1.46986 0.568584 0
M  V30 500 C 51.4834 -2.0683 0.0539956 0
M  V30 501 C 51.8984 -1.41953 -1.24478 0
M  V30 502 O 51.2554 -0.519933 -1.74937 0
M  V30 503 C 51.3064 -3.61254 -0.133362 0
M  V30 504 O 51.0274 -4.237 1.11399 0
M  V30 505 C 52.5284 -4.37992 -0.683927 0
M  V30 506 H 49.7484 -0.669058 0.0510141 0
M  V30 507 H 52.2924 -1.88824 0.785234 0
M  V30 508 H 50.4474 -3.78735 -0.81477 0
M  V30 509 H 50.8614 -5.16388 0.91888 0
M  V30 510 H 52.3354 -5.46684 -0.764263 0
M  V30 511 H 52.8124 -4.05058 -1.69778 0
M  V30 512 H 53.4184 -4.25283 -0.0378494 0
M  V30 513 N 51.7335 -0.305618 -1.54608 0
M  V30 514 C 52.9615 0.304775 -2.04643 0
M  V30 515 C 53.3765 1.47167 -1.18268 0
M  V30 516 O 52.7335 1.81296 -0.209328 0
M  V30 517 C 52.7845 0.756564 -3.53495 0
M  V30 518 O 52.5055 -0.36389 -4.36586 0
M  V30 519 C 54.0065 1.43163 -4.19546 0
M  V30 520 H 51.2265 0.0655481 -0.667791 0
M  V30 521 H 53.7705 -0.446592 -1.99564 0
M  V30 522 H 51.9255 1.45794 -3.58919 0
M  V30 523 H 52.3395 -0.0113121 -5.24499 0
M  V30 524 H 53.8135 1.69886 -5.25207 0
M  V30 525 H 54.2905 2.37318 -3.69563 0
M  V30 526 H 54.8965 0.773307 -4.18211 0
M  V30 527 N 53.2116 1.57565 -0.0334293 0
M  V30 528 C 54.4586 1.91978 0.644272 0
M  V30 529 C 54.7866 0.910231 1.71887 0
M  V30 530 O 54.0416 -0.0801961 1.95536 0
M  V30 531 C 54.3406 3.33112 1.29504 0
M  V30 532 C 54.0066 4.49537 0.350388 0
M  V30 533 C 52.6686 4.81115 0.0903974 0
M  V30 534 C 55.0206 5.20347 -0.298032 0
M  V30 535 C 52.3486 5.8086 -0.825746 0
M  V30 536 C 54.7006 6.2107 -1.20226 0
M  V30 537 C 53.3646 6.51088 -1.4711 0
M  V30 538 H 52.6346 0.702496 0.235756 0
M  V30 539 H 55.2816 1.91259 -0.0961176 0
M  V30 540 H 53.5866 3.30113 2.11028 0
M  V30 541 H 55.2836 3.57011 1.82603 0
M  V30 542 H 51.8736 4.24883 0.563205 0
M  V30 543 H 56.0576 4.96178 -0.110234 0
M  V30 544 H 51.3136 6.02461 -1.04169 0
M  V30 545 H 55.4876 6.75057 -1.71086 0
M  V30 546 H 53.1146 7.28193 -2.18264 0
M  V30 547 N 54.6897 -0.239769 1.55765 0
M  V30 548 C 55.5997 -1.31831 1.94056 0
M  V30 549 C 56.6157 -1.52275 0.841925 0
M  V30 550 O 57.7917 -1.65759 1.14394 0
M  V30 551 C 54.8567 -2.65156 2.23368 0
M  V30 552 C 53.9177 -2.53173 3.46701 0
M  V30 553 C 53.1507 -3.8014 3.74606 0
M  V30 554 O 53.3737 -4.82343 3.04469 0
M  V30 555 O 52.3077 -3.78344 4.68123 0
M  V30 556 H 56.1337 -1.02347 2.85935 0
M  V30 557 H 53.7187 -0.441123 1.42739 0
M  V30 558 H 55.6007 -3.43929 2.43497 0
M  V30 559 H 54.2757 -2.94358 1.34666 0
M  V30 560 H 53.1827 -1.72662 3.31871 0
M  V30 561 H 54.5157 -2.28915 4.35728 0
M  V30 562 N 56.1678 -1.49265 -0.50573 0
M  V30 563 C 57.0778 -1.68312 -1.63427 0
M  V30 564 C 58.0938 -0.565682 -1.64548 0
M  V30 565 O 59.2698 -0.839801 -1.83055 0
M  V30 566 C 56.3348 -1.74107 -2.99813 0
M  V30 567 C 55.3958 -2.97653 -3.09356 0
M  V30 568 C 54.6288 -3.03163 -4.39236 0
M  V30 569 O 54.8518 -2.16396 -5.27758 0
M  V30 570 O 53.7858 -3.9558 -4.53652 0
M  V30 571 H 57.6118 -2.63907 -1.50289 0
M  V30 572 H 55.1968 -1.32951 -0.681502 0
M  V30 573 H 57.0788 -1.803 -3.80881 0
M  V30 574 H 55.7538 -0.816901 -3.13223 0
M  V30 575 H 54.6608 -2.96981 -2.27493 0
M  V30 576 H 55.9938 -3.89535 -3.00871 0
M  V30 577 N 57.6459 0.756429 -1.3826 0
M  V30 578 C 58.5759 1.88374 -1.37976 0
M  V30 579 C 59.5569 1.68311 -0.246082 0
M  V30 580 O 60.7419 1.88944 -0.44874 0
M  V30 581 C 57.8719 3.25864 -1.20125 0
M  V30 582 C 56.8259 3.60523 -2.30666 0
M  V30 583 C 56.1519 4.9672 -1.97923 0
M  V30 584 C 57.4519 3.65692 -3.72916 0
M  V30 585 H 59.1459 1.88869 -2.32312 0
M  V30 586 H 56.6919 0.907272 -1.11824 0
M  V30 587 H 58.6449 4.0438 -1.18552 0
M  V30 588 H 57.3689 3.25841 -0.222498 0
M  V30 589 H 56.0279 2.84324 -2.3142 0
M  V30 590 H 55.6759 4.93253 -0.985393 0
M  V30 591 H 55.3759 5.20878 -2.71955 0
M  V30 592 H 56.8999 5.77618 -1.97964 0
M  V30 593 H 58.3139 4.34328 -3.74208 0
M  V30 594 H 56.7109 4.01358 -4.4613 0
M  V30 595 H 57.7809 2.65987 -4.05436 0
M  V30 596 N 59.124 1.23083 0.984299 0
M  V30 597 C 60.364 1.07226 1.74017 0
M  V30 598 C 60.728 -0.384766 1.88105 0
M  V30 599 O 61.929 -0.664411 2.60459 0
M  V30 600 C 60.2 1.77348 3.10294 0
M  V30 601 S 61.759 1.77014 4.01512 0
M  V30 602 H 58.577 0.383819 0.598502 0
M  V30 603 H 61.179 1.56158 1.17622 0
M  V30 604 H 59.883 2.82506 2.97689 0
M  V30 605 H 59.414 1.28682 3.71759 0
M  V30 606 H 61.429 0.825956 4.89277 0
M  V30 607 N 60.6021 -1.18246 1.0419 0
M  V30 608 C 61.5121 -2.25574 0.644476 0
M  V30 609 C 62.5281 -1.70845 -0.329826 0
M  V30 610 O 63.7041 -2.00554 -0.184443 0
M  V30 611 C 60.7691 -3.46697 0.014877 0
M  V30 612 C 59.8301 -4.16554 1.03834 0
M  V30 613 C 59.0631 -5.31894 0.438692 0
M  V30 614 O 59.2861 -5.65385 -0.754752 0
M  V30 615 O 58.2201 -5.90459 1.168 0
M  V30 616 H 62.0461 -2.61836 1.53869 0
M  V30 617 H 59.6311 -1.25352 0.812854 0
M  V30 618 H 61.5131 -4.20062 -0.335538 0
M  V30 619 H 60.1881 -3.12255 -0.853138 0
M  V30 620 H 59.0951 -3.45251 1.44057 0
M  V30 621 H 60.4281 -4.54998 1.87716 0
M  V30 622 N 62.0802 -0.821533 -1.34494 0
M  V30 623 C 62.9902 -0.244355 -2.33324 0
M  V30 624 C 64.0062 0.620527 -1.62559 0
M  V30 625 O 65.1822 0.528754 -1.94335 0
M  V30 626 C 62.2472 0.585368 -3.41723 0
M  V30 627 C 61.3082 -0.301752 -4.28238 0
M  V30 628 C 60.5412 0.488466 -5.3146 0
M  V30 629 O 60.7642 1.72186 -5.4379 0
M  V30 630 O 59.6982 -0.12848 -6.01763 0
M  V30 631 H 63.5242 -1.06231 -2.84515 0
M  V30 632 H 61.1092 -0.583645 -1.37528 0
M  V30 633 H 62.9912 1.05747 -4.07916 0
M  V30 634 H 61.6662 1.38068 -2.92778 0
M  V30 635 H 60.5732 -0.821315 -3.64973 0
M  V30 636 H 61.9062 -1.06138 -4.8062 0
M  V30 637 N 63.5583 1.46682 -0.576371 0
M  V30 638 C 64.8043 2.02712 -0.0596221 0
M  V30 639 C 65.1373 1.44765 1.29448 0
M  V30 640 O 64.4123 0.610355 1.84675 0
M  V30 641 C 64.6953 3.60098 0.0129503 0
M  V30 642 C 64.5483 4.28441 -1.3696 0
M  V30 643 C 65.8673 4.34224 0.71678 0
M  V30 644 H 62.9863 0.736637 -0.0231407 0
M  V30 645 H 65.6283 1.74898 -0.742351 0
M  V30 646 H 63.7783 3.83926 0.594378 0
M  V30 647 H 65.4503 4.15896 -1.9957 0
M  V30 648 H 63.6933 3.8805 -1.93907 0
M  V30 649 H 64.3643 5.3716 -1.27135 0
M  V30 650 H 66.8403 4.15503 0.222908 0
M  V30 651 H 65.7163 5.43936 0.73657 0
M  V30 652 H 65.9773 4.04823 1.77682 0
M  V30 653 N 65.0364 0.313813 1.54444 0
M  V30 654 C 66.4524 -0.0391619 1.59552 0
M  V30 655 C 66.6524 -1.51322 1.33056 0
M  V30 656 O 65.7084 -2.26782 1.11022 0
M  V30 657 C 67.0214 0.370302 2.98411 0
M  V30 658 C 68.5694 0.320139 3.11358 0
M  V30 659 C 69.0444 0.704617 4.52547 0
M  V30 660 N 70.5354 0.657645 4.58508 0
M  V30 661 C 71.2704 0.927453 5.6585 0
M  V30 662 N 70.7664 1.26389 6.81174 0
M  V30 663 N 72.5594 0.853662 5.5558 0
M  V30 664 H 64.7104 1.27433 1.69925 0
M  V30 665 H 66.9734 0.517511 0.794284 0
M  V30 666 H 66.6794 1.39694 3.22767 0
M  V30 667 H 66.5534 -0.269619 3.76235 0
M  V30 668 H 68.9404 -0.697275 2.86744 0
M  V30 669 H 69.0214 0.99486 2.35661 0
M  V30 670 H 68.6654 1.7199 4.77893 0
M  V30 671 H 68.5954 0.00768843 5.26599 0
M  V30 672 H 71.0864 0.409067 3.75679 0
M  V30 673 H 71.3994 1.4554 7.58972 0
M  V30 674 H 69.7444 1.30206 6.82694 0
M  V30 675 H 72.9354 0.590383 4.64362 0
M  V30 676 H 73.1084 1.0673 6.3915 0
M  V30 677 N 66.5145 -1.57545 0.0417849 0
M  V30 678 C 67.7915 -1.83642 -0.673433 0
M  V30 679 C 68.1715 -0.928298 -1.89594 0
M  V30 680 O 67.5195 0.0129955 -2.28496 0
M  V30 681 C 67.7295 -3.33155 -1.03964 0
M  V30 682 C 69.0775 -3.99941 -1.42592 0
M  V30 683 O 70.1015 -3.37725 -1.13226 0
M  V30 684 O 68.9605 -5.09619 -1.9736 0
M  V30 685 H 66.0545 -0.757638 -0.331533 0
M  V30 686 H 68.6005 -1.69554 0.070433 0
M  V30 687 H 67.3725 -3.9093 -0.170098 0
M  V30 688 H 66.9955 -3.52396 -1.84126 0
M  V30 689 N 67.9926 0.231505 -1.5589 0
M  V30 690 C 68.9256 1.31369 -1.86595 0
M  V30 691 C 69.9036 1.45671 -0.722397 0
M  V30 692 O 71.0876 1.61642 -0.969743 0
M  V30 693 C 68.2146 2.68529 -2.06421 0
M  V30 694 C 67.2606 2.71295 -3.29092 0
M  V30 695 S 68.0936 2.26358 -4.85306 0
M  V30 696 C 69.2496 3.65414 -5.08157 0
M  V30 697 H 69.4826 1.05128 -2.78092 0
M  V30 698 H 67.0156 0.433259 -1.48197 0
M  V30 699 H 68.9736 3.47499 -2.18528 0
M  V30 700 H 67.6346 2.91999 -1.15738 0
M  V30 701 H 66.8276 3.72063 -3.39978 0
M  V30 702 H 66.4296 2.0038 -3.15791 0
M  V30 703 H 68.7216 4.6103 -4.96445 0
M  V30 704 H 69.6646 3.5945 -6.10083 0
M  V30 705 H 70.0726 3.5864 -4.35933 0
M  V30 706 N 69.4707 1.49531 0.497807 0
M  V30 707 C 70.7107 1.60799 1.26187 0
M  V30 708 C 71.0747 0.289627 1.89803 0
M  V30 709 O 72.2757 0.277512 2.67364 0
M  V30 710 C 70.5467 2.73729 2.29798 0
M  V30 711 S 72.1057 3.04968 3.155 0
M  V30 712 H 68.9237 0.567145 0.428798 0
M  V30 713 H 71.5257 1.87204 0.563477 0
M  V30 714 H 70.2297 3.68036 1.81597 0
M  V30 715 H 69.7607 2.49328 3.04301 0
M  V30 716 H 71.7757 2.46735 4.30507 0
M  V30 717 N 70.9488 -0.749086 1.3866 0
M  V30 718 C 72.3648 -1.05276 1.19955 0
M  V30 719 C 72.5648 -2.01435 0.05134 0
M  V30 720 O 71.6208 -2.45232 -0.60147 0
M  V30 721 C 72.9338 -1.62853 2.52783 0
M  V30 722 C 74.4818 -1.75002 2.59506 0
M  V30 723 C 74.9568 -2.35991 3.92521 0
M  V30 724 N 76.4478 -2.43416 3.94085 0
M  V30 725 C 77.1828 -2.91511 4.9377 0
M  V30 726 N 76.6788 -3.39608 6.03853 0
M  V30 727 N 78.4718 -2.90592 4.81157 0
M  V30 728 H 70.6228 -0.111066 2.12109 0
M  V30 729 H 72.8858 -0.111901 0.941373 0
M  V30 730 H 72.5918 -0.99664 3.37283 0
M  V30 731 H 72.4658 -2.61854 2.715 0
M  V30 732 H 74.8528 -2.37317 1.75398 0
M  V30 733 H 74.9338 -0.74693 2.44652 0
M  V30 734 H 74.5778 -1.74308 4.77053 0
M  V30 735 H 74.5078 -3.3695 4.04688 0
M  V30 736 H 76.9988 -2.09405 3.14576 0
M  V30 737 H 77.3118 -3.74775 6.75843 0
M  V30 738 H 75.6568 -3.37653 6.07466 0
M  V30 739 H 78.8478 -2.52332 3.94267 0
M  V30 740 H 79.0208 -3.27762 5.58996 0
M  V30 741 N 72.4269 -1.23603 -0.977757 0
M  V30 742 C 73.3569 -1.04401 -2.0886 0
M  V30 743 C 74.3379 0.0399052 -1.70053 0
M  V30 744 O 75.5229 -0.125246 -1.93796 0
M  V30 745 C 72.6529 -0.637269 -3.41403 0
M  V30 746 C 71.6069 -1.66883 -3.94124 0
M  V30 747 C 70.9329 -1.11745 -5.22893 0
M  V30 748 C 72.2329 -3.06247 -4.23096 0
M  V30 749 H 73.9269 -1.97316 -2.25182 0
M  V30 750 H 71.4729 -0.950096 -1.08209 0
M  V30 751 H 73.4259 -0.48998 -4.18542 0
M  V30 752 H 72.1499 0.327557 -3.24953 0
M  V30 753 H 70.8089 -1.80416 -3.19133 0
M  V30 754 H 70.4569 -0.143527 -5.02795 0
M  V30 755 H 70.1569 -1.80672 -5.59134 0
M  V30 756 H 71.6809 -0.982067 -6.02651 0
M  V30 757 H 73.0949 -2.96001 -4.90975 0
M  V30 758 H 71.4919 -3.72436 -4.70544 0
M  V30 759 H 72.5619 -3.55041 -3.30263 0
M  V30 760 N 73.905 1.17692 -1.04816 0
M  V30 761 C 74.855 2.1952 -0.616042 0
M  V30 762 C 75.839 1.57147 0.345485 0
M  V30 763 O 77.031 1.76245 0.163325 0
M  V30 764 C 74.16 3.43298 0.0116917 0
M  V30 765 C 73.246 4.12777 -0.973435 0
M  V30 766 N 73.637 4.5814 -2.14339 0
M  V30 767 C 71.935 4.38747 -0.80108 0
M  V30 768 C 72.636 5.11713 -2.7663 0
M  V30 769 N 71.612 5.03686 -2.04453 0
M  V30 770 H 75.414 2.52293 -1.5075 0
M  V30 771 H 72.928 1.3398 -0.917776 0
M  V30 772 H 74.925 4.15519 0.339006 0
M  V30 773 H 73.585 3.12018 0.898593 0
M  V30 774 H 74.596 4.52349 -2.52191 0
M  V30 775 H 71.273 4.17485 0.0350934 0
M  V30 776 H 72.663 5.56962 -3.75823 0
M  V30 777 N 75.3831 0.828654 1.34056 0
M  V30 778 C 76.3151 0.212052 2.28217 0
M  V30 779 C 77.3281 -0.601362 1.51286 0
M  V30 780 O 78.5171 -0.430104 1.73241 0
M  V30 781 C 75.6171 -0.72088 3.31144 0
M  V30 782 C 74.7901 0.0509587 4.3737 0
M  V30 783 C 73.8491 -0.803766 5.20025 0
M  V30 784 O 72.8751 -0.246667 5.68665 0
M  V30 785 N 74.0771 -2.1227 5.40298 0
M  V30 786 H 76.8421 1.02105 2.81771 0
M  V30 787 H 74.4031 0.686153 1.46641 0
M  V30 788 H 76.3951 -1.29742 3.8334 0
M  V30 789 H 74.9651 -1.43061 2.77943 0
M  V30 790 H 74.1851 0.808831 3.85813 0
M  V30 791 H 75.4731 0.582065 5.0546 0
M  V30 792 H 74.8711 -2.59898 5.02464 0
M  V30 793 H 73.4281 -2.64796 5.95589 0
M  V30 794 N 76.8612 -1.46375 0.584142 0
M  V30 795 C 77.7932 -2.28443 -0.186119 0
M  V30 796 C 78.8062 -1.38596 -0.854115 0
M  V30 797 O 79.9952 -1.63183 -0.723438 0
M  V30 798 C 77.0952 -3.13671 -1.28311 0
M  V30 799 C 76.2682 -4.31652 -0.706758 0
M  V30 800 C 75.3272 -4.98267 -1.69163 0
M  V30 801 O 74.3532 -5.55815 -1.22712 0
M  V30 802 N 75.5552 -4.95408 -3.02575 0
M  V30 803 H 78.3202 -2.9519 0.517986 0
M  V30 804 H 75.8812 -1.56303 0.42201 0
M  V30 805 H 77.8732 -3.55101 -1.94128 0
M  V30 806 H 76.4432 -2.48989 -1.89005 0
M  V30 807 H 75.6632 -3.93989 0.128908 0
M  V30 808 H 76.9512 -5.07906 -0.301506 0
M  V30 809 H 76.3492 -4.49902 -3.42936 0
M  V30 810 H 74.9062 -5.40774 -3.63877 0
M  V30 811 N 78.3393 -0.321999 -1.54275 0
M  V30 812 C 79.2893 0.560185 -2.21011 0
M  V30 813 C 80.2733 1.08283 -1.19011 0
M  V30 814 O 81.4653 1.02011 -1.44647 0
M  V30 815 C 78.5943 1.72137 -2.97025 0
M  V30 816 C 77.6803 1.21369 -4.06363 0
M  V30 817 N 78.0713 0.425566 -5.04007 0
M  V30 818 C 76.3693 1.49255 -4.20284 0
M  V30 819 C 77.0703 0.152601 -5.815 0
M  V30 820 N 76.0463 0.738294 -5.38563 0
M  V30 821 H 79.8483 -0.049265 -2.93859 0
M  V30 822 H 77.3623 -0.127779 -1.61897 0
M  V30 823 H 79.3593 2.36512 -3.43319 0
M  V30 824 H 78.0193 2.33431 -2.25699 0
M  V30 825 H 79.0303 0.068551 -5.17855 0
M  V30 826 H 75.7073 2.11145 -3.60172 0
M  V30 827 H 77.0973 -0.481764 -6.70171 0
M  V30 828 N 79.8174 1.5752 -0.0501392 0
M  V30 829 C 81.2284 1.80271 0.485705 0
M  V30 830 C 81.5794 0.96228 1.70981 0
M  V30 831 O 80.7044 0.178578 2.15662 0
M  V30 832 C 81.2994 3.26957 0.887938 0
M  V30 833 C 79.8584 3.5063 1.36877 0
M  V30 834 C 79.0054 2.75165 0.343468 0
M  V30 835 H 81.9564 1.56281 -0.276028 0
M  V30 836 H 81.9774 3.37821 1.75093 0
M  V30 837 H 81.4894 3.881 -0.0031809 0
M  V30 838 H 79.5904 2.94766 2.27911 0
M  V30 839 H 79.7034 4.59343 1.36164 0
M  V30 840 H 78.0674 2.4127 0.816128 0
M  V30 841 H 78.8504 3.39034 -0.539548 0
M  V30 842 N 81.2955 -0.223234 1.56011 0
M  V30 843 C 82.2255 -1.27988 1.95298 0
M  V30 844 C 83.2065 -1.48976 0.820979 0
M  V30 845 O 84.3915 -1.61188 1.08315 0
M  V30 846 C 81.5215 -2.63 2.26822 0
M  V30 847 C 80.4755 -2.56671 3.42497 0
M  V30 848 C 79.8015 -3.95697 3.59622 0
M  V30 849 C 81.1015 -2.11601 4.77517 0
M  V30 850 H 82.7955 -0.953525 2.8381 0
M  V30 851 H 80.3415 -0.457244 1.36548 0
M  V30 852 H 82.2945 -3.37077 2.52898 0
M  V30 853 H 81.0185 -2.9732 1.35161 0
M  V30 854 H 79.6775 -1.85051 3.16467 0
M  V30 855 H 79.3255 -4.27322 2.6534 0
M  V30 856 H 79.0255 -3.92345 4.37424 0
M  V30 857 H 80.5495 -4.71438 3.88044 0
M  V30 858 H 81.9635 -2.7542 5.02809 0
M  V30 859 H 80.3605 -2.19311 5.5859 0
M  V30 860 H 81.4305 -1.06824 4.72987 0
M  V30 861 N 82.7736 -1.49793 -0.48987 0
M  V30 862 C 84.0016 -1.63568 -1.26701 0
M  V30 863 C 84.4166 -0.311465 -1.86213 0
M  V30 864 O 83.7736 0.704416 -1.68357 0
M  V30 865 C 83.8246 -2.71284 -2.38929 0
M  V30 866 O 83.5456 -3.9857 -1.81861 0
M  V30 867 C 85.0466 -2.95864 -3.3012 0
M  V30 868 H 82.2666 -0.550342 -0.383881 0
M  V30 869 H 84.8106 -1.95898 -0.586864 0
M  V30 870 H 82.9656 -2.417 -3.02753 0
M  V30 871 H 83.3796 -4.57993 -2.55622 0
M  V30 872 H 84.8536 -3.74941 -4.05121 0
M  V30 873 H 85.3306 -2.06206 -3.87783 0
M  V30 874 H 85.9366 -3.26907 -2.72051 0
M  V30 875 N 84.2517 0.741722 -1.39055 0
M  V30 876 C 85.1817 1.869 -1.39966 0
M  V30 877 C 86.1627 1.6804 -0.26392 0
M  V30 878 O 87.3477 1.88458 -0.468755 0
M  V30 879 C 84.4777 3.24572 -1.23574 0
M  V30 880 C 83.4317 3.58056 -2.34477 0
M  V30 881 C 82.7577 4.94593 -2.0318 0
M  V30 882 C 84.0577 3.61716 -3.76774 0
M  V30 883 H 85.7517 1.86395 -2.34302 0
M  V30 884 H 83.2977 0.895361 -1.1278 0
M  V30 885 H 85.2507 4.031 -1.22834 0
M  V30 886 H 83.9747 3.25587 -0.257045 0
M  V30 887 H 82.6337 2.81854 -2.34423 0
M  V30 888 H 82.2817 4.92181 -1.03765 0
M  V30 889 H 81.9817 5.17964 -2.77465 0
M  V30 890 H 83.5057 5.75486 -2.04079 0
M  V30 891 H 84.9197 4.30335 -3.78794 0
M  V30 892 H 83.3167 3.96603 -4.50362 0
M  V30 893 H 84.3867 2.61672 -4.08235 0
M  V30 894 N 85.7298 1.2412 0.971189 0
M  V30 895 C 86.6768 1.0305 2.06517 0
M  V30 896 C 87.6468 -0.0550666 1.66009 0
M  V30 897 O 88.8318 0.0988688 1.90544 0
M  V30 898 C 85.9718 0.637653 3.39158 0
M  V30 899 C 85.0848 1.79633 3.92882 0
M  V30 900 C 84.2198 1.34939 5.13775 0
M  V30 901 C 83.2588 2.47823 5.59687 0
M  V30 902 N 82.3958 2.04022 6.71803 0
M  V30 903 H 87.2358 1.96685 2.23873 0
M  V30 904 H 84.7728 0.979694 1.09729 0
M  V30 905 H 86.7308 0.390931 4.15364 0
M  V30 906 H 85.3608 -0.261693 3.21737 0
M  V30 907 H 84.4128 2.15681 3.13346 0
M  V30 908 H 85.7248 2.64466 4.22918 0
M  V30 909 H 84.8788 1.06134 5.97345 0
M  V30 910 H 83.6178 0.471557 4.85415 0
M  V30 911 H 82.6228 2.77392 4.74693 0
M  V30 912 H 83.8478 3.36158 5.90063 0
M  V30 913 H 81.7938 1.18632 6.45184 0
M  V30 914 H 81.7108 2.82409 7.01271 0
M  V30 915 H 82.9788 1.78347 7.58823 0
M  V30 916 N 87.2079 -1.17134 1.05439 0
M  V30 917 C 88.4539 -1.87979 0.776872 0
M  V30 918 C 88.8089 -1.7965 -0.688751 0
M  V30 919 O 88.1019 -1.19535 -1.4974 0
M  V30 920 C 88.2959 -3.36833 1.19491 0
M  V30 921 C 88.1249 -3.59653 2.69963 0
M  V30 922 C 86.8949 -3.76234 3.37307 0
M  V30 923 C 89.0929 -3.59091 3.68182 0
M  V30 924 N 87.0749 -3.86922 4.76618 0
M  V30 925 C 88.4459 -3.75659 4.93235 0
M  V30 926 C 90.5009 -3.42255 3.61616 0
M  V30 927 C 89.2039 -3.77133 6.12506 0
M  V30 928 C 91.2299 -3.45018 4.8033 0
M  V30 929 C 90.5919 -3.62096 6.04207 0
M  V30 930 H 86.6909 -0.705876 0.336546 0
M  V30 931 H 89.2749 -1.40602 1.34682 0
M  V30 932 H 87.4459 -3.82873 0.652884 0
M  V30 933 H 89.1779 -3.95305 0.866966 0
M  V30 934 H 85.9329 -3.76193 2.87708 0
M  V30 935 H 86.3569 -3.96055 5.49062 0
M  V30 936 H 90.9989 -3.27986 2.66805 0
M  V30 937 H 88.7169 -3.90186 7.07659 0
M  V30 938 H 92.3029 -3.33246 4.76905 0
M  V30 939 H 91.1829 -3.64142 6.94529 0
M  V30 940 N 88.686 -0.835752 -1.33615 0
M  V30 941 C 89.932 -0.430596 -1.98176 0
M  V30 942 C 90.265 1.00684 -1.66061 0
M  V30 943 O 89.54 1.70339 -0.938877 0
M  V30 944 C 89.823 -0.648065 -3.5422 0
M  V30 945 C 89.676 -2.13255 -3.96033 0
M  V30 946 C 90.995 -0.0922113 -4.40003 0
M  V30 947 H 88.114 -0.157924 -0.719881 0
M  V30 948 H 90.756 -1.05069 -1.58305 0
M  V30 949 H 88.906 -0.120237 -3.88314 0
M  V30 950 H 90.578 -2.725 -3.72211 0
M  V30 951 H 88.821 -2.61823 -3.45878 0
M  V30 952 H 89.492 -2.23547 -5.04708 0
M  V30 953 H 91.968 -0.543343 -4.12537 0
M  V30 954 H 90.844 -0.274083 -5.48215 0
M  V30 955 H 91.105 1.00378 -4.30554 0
M  V30 956 N 90.1641 1.46063 -0.591896 0
M  V30 957 C 91.4411 1.95595 -0.0137119 0
M  V30 958 C 91.8211 1.5345 1.4497 0
M  V30 959 O 91.1691 0.789543 2.14426 0
M  V30 960 C 91.3791 3.48453 -0.195373 0
M  V30 961 C 92.7271 4.24546 -0.0679765 0
M  V30 962 O 93.7511 3.55982 -0.124681 0
M  V30 963 O 92.6101 5.46467 0.0600579 0
M  V30 964 H 89.7041 0.825795 0.0446279 0
M  V30 965 H 92.2501 1.56303 -0.660859 0
M  V30 966 H 91.0221 3.72045 -1.21235 0
M  V30 967 H 90.6451 3.94597 0.487775 0
M  V30 968 N 91.6422 0.330177 1.54103 0
M  V30 969 C 92.8672 -0.274893 2.0557 0
M  V30 970 C 93.2922 -1.44487 1.20437 0
M  V30 971 O 92.6502 -1.80021 0.214991 0
M  V30 972 C 92.6982 -0.68079 3.54115 0
M  V30 973 O 91.8022 -1.7824 3.71893 0
M  V30 974 H 91.1432 -0.0483849 0.662235 0
M  V30 975 H 93.6732 0.480508 1.98878 0
M  V30 976 H 93.6832 -0.961635 3.96505 0
M  V30 977 H 92.3582 0.174903 4.15532 0
M  V30 978 H 90.9352 -1.49985 3.41407 0
M  V30 979 N 93.1203 -1.57491 0.0584922 0
M  V30 980 C 94.0303 -2.15448 -0.928414 0
M  V30 981 C 95.0463 -1.11416 -1.3365 0
M  V30 982 O 96.2223 -1.4362 -1.41193 0
M  V30 983 C 93.2873 -2.69393 -2.18239 0
M  V30 984 C 92.3483 -3.88249 -1.83196 0
M  V30 985 C 91.5813 -4.39613 -3.02616 0
M  V30 986 O 91.8043 -3.90023 -4.16219 0
M  V30 987 O 90.7383 -5.31111 -2.83204 0
M  V30 988 H 94.5643 -3.00112 -0.465483 0
M  V30 989 H 92.1493 -1.48499 -0.163826 0
M  V30 990 H 94.0313 -3.04026 -2.91798 0
M  V30 991 H 92.7063 -1.87796 -2.63656 0
M  V30 992 H 91.6133 -3.58492 -1.06931 0
M  V30 993 H 92.9463 -4.71098 -1.42573 0
M  V30 994 N 94.5984 0.214957 -1.56127 0
M  V30 995 C 95.8464 0.936518 -1.79091 0
M  V30 996 C 96.1674 1.84606 -0.628148 0
M  V30 997 O 95.4374 1.92664 0.35462 0
M  V30 998 H 94.0174 0.3488 -0.660566 0
M  V30 999 H 96.6794 0.22523 -1.93594 0
M  V30 1000 H 95.7754 1.53943 -2.71492 0
M  V30 1001 N 96.0765 1.50051 0.48192 0
M  V30 1002 C 97.3535 1.51009 1.2432 0
M  V30 1003 C 97.7335 0.248587 2.09631 0
M  V30 1004 O 97.0815 -0.768409 2.15192 0
M  V30 1005 C 97.2915 2.79981 2.08355 0
M  V30 1006 C 98.6395 3.3022 2.66908 0
M  V30 1007 O 99.6635 2.81228 2.18607 0
M  V30 1008 O 98.5225 4.15595 3.54884 0
M  V30 1009 H 95.6165 0.605239 0.563573 0
M  V30 1010 H 98.1625 1.62332 0.494627 0
M  V30 1011 H 96.9345 3.63275 1.45419 0
M  V30 1012 H 96.5575 2.7161 2.90368 0
M  V30 1013 N 97.5546 -0.734337 1.39446 0
M  V30 1014 C 98.9656 -1.31264 1.32766 0
M  V30 1015 C 99.3166 -1.96198 -0.00767497 0
M  V30 1016 O 98.4416 -1.96346 -0.909796 0
M  V30 1017 C 99.0366 -2.38682 2.4045 0
M  V30 1018 C 97.5956 -2.92184 2.37288 0
M  V30 1019 C 96.7426 -1.6576 2.22304 0
M  V30 1020 H 99.6936 -0.531799 1.49525 0
M  V30 1021 H 99.7146 -3.19087 2.07276 0
M  V30 1022 H 99.2266 -1.91392 3.37625 0
M  V30 1023 H 97.3276 -3.43752 1.43754 0
M  V30 1024 H 97.4406 -3.45253 3.3217 0
M  V30 1025 H 95.8046 -1.9012 1.69489 0
M  V30 1026 H 96.5876 -1.20521 3.21449 0
M  V30 1027 N 99.0327 -1.24633 -0.964593 0
M  V30 1028 C 100.273 -1.09981 -1.72289 0
M  V30 1029 C 100.637 0.354792 -1.88693 0
M  V30 1030 O 101.838 0.62289 -2.61483 0
M  V30 1031 C 100.109 -1.82262 -3.07434 0
M  V30 1032 S 101.668 -1.83379 -3.98645 0
M  V30 1033 H 98.4857 -0.393292 -0.59232 0
M  V30 1034 H 101.088 -1.58009 -1.15123 0
M  V30 1035 H 99.7917 -2.87206 -2.93157 0
M  V30 1036 H 99.3227 -1.3458 -3.69664 0
M  V30 1037 H 101.338 -0.903691 -4.87901 0
M  V30 1038 N 100.511 1.16574 -1.06058 0
M  V30 1039 C 101.739 1.90952 -0.796552 0
M  V30 1040 C 102.154 1.77302 0.648808 0
M  V30 1041 O 101.511 1.11605 1.44397 0
M  V30 1042 C 101.562 3.41736 -1.17894 0
M  V30 1043 O 101.283 3.54975 -2.56758 0
M  V30 1044 C 102.784 4.33169 -0.942308 0
M  V30 1045 H 100.004 0.605594 -0.288959 0
M  V30 1046 H 102.548 1.47777 -1.41358 0
M  V30 1047 H 100.703 3.82623 -0.606491 0
M  V30 1048 H 101.117 4.4846 -2.72 0
M  V30 1049 H 102.591 5.37439 -1.25952 0
M  V30 1050 H 103.068 4.3903 0.122078 0
M  V30 1051 H 103.674 3.98007 -1.49902 0
M  V30 1052 N 101.989 0.842826 1.3317 0
M  V30 1053 C 103.235 0.441099 1.97945 0
M  V30 1054 C 103.568 -0.998024 1.66593 0
M  V30 1055 O 102.843 -1.69839 0.947898 0
M  V30 1056 C 103.126 0.666841 3.53872 0
M  V30 1057 C 102.979 2.15352 3.94897 0
M  V30 1058 C 104.298 0.115544 4.39948 0
M  V30 1059 H 101.417 0.161739 0.719034 0
M  V30 1060 H 104.059 1.05907 1.57746 0
M  V30 1061 H 102.209 0.140828 3.88245 0
M  V30 1062 H 103.881 2.7447 3.70761 0
M  V30 1063 H 102.124 2.63653 3.44484 0
M  V30 1064 H 102.795 2.26221 5.03516 0
M  V30 1065 H 105.271 0.565213 4.12243 0
M  V30 1066 H 104.147 0.303152 5.48062 0
M  V30 1067 H 104.408 -0.980935 4.3108 0
M  V30 1068 N 103.467 -1.45747 0.599634 0
M  V30 1069 C 104.692 -2.07178 0.0960198 0
M  V30 1070 C 105.117 -1.44268 -1.207 0
M  V30 1071 O 104.475 -0.532503 -1.73303 0
M  V30 1072 C 104.523 -3.60579 -0.0385348 0
M  V30 1073 O 103.627 -3.97713 -1.0908 0
M  V30 1074 H 102.968 -0.660251 0.0704593 0
M  V30 1075 H 105.498 -1.87124 0.827385 0
M  V30 1076 H 105.508 -4.07298 -0.239304 0
M  V30 1077 H 104.183 -4.05756 0.912947 0
M  V30 1078 H 102.76 -3.62678 -0.867135 0
M  V30 1079 N 104.945 -0.338344 -1.53925 0
M  V30 1080 C 106.17 0.263987 -2.05713 0
M  V30 1081 C 106.595 1.43847 -1.21201 0
M  V30 1082 O 105.953 1.79904 -0.224535 0
M  V30 1083 C 106.001 0.662 -3.54471 0
M  V30 1084 O 105.105 1.76265 -3.72833 0
M  V30 1085 H 104.446 0.0448722 -0.662482 0
M  V30 1086 H 106.976 -0.491048 -1.9862 0
M  V30 1087 H 106.986 0.940594 -3.9701 0
M  V30 1088 H 105.661 -0.196937 -4.15433 0
M  V30 1089 H 104.238 1.48173 -3.42198 0
M  V30 1090 N 106.423 1.57458 -0.0668435 0
M  V30 1091 C 107.355 2.09413 0.931601 0
M  V30 1092 C 108.368 1.02522 1.26464 0
M  V30 1093 O 109.557 1.30049 1.22269 0
M  V30 1094 C 106.657 2.53537 2.24882 0
M  V30 1095 C 105.83 3.83944 2.09537 0
M  V30 1096 C 104.889 4.14214 3.2452 0
M  V30 1097 O 103.915 4.83891 2.9973 0
M  V30 1098 N 105.117 3.67367 4.49469 0
M  V30 1099 H 107.882 2.95699 0.488048 0
M  V30 1100 H 105.443 1.61462 0.119009 0
M  V30 1101 H 107.435 2.70853 3.00701 0
M  V30 1102 H 106.005 1.72415 2.60753 0
M  V30 1103 H 105.225 3.76057 1.18215 0
M  V30 1104 H 106.513 4.69312 1.96529 0
M  V30 1105 H 105.911 3.11068 4.72497 0
M  V30 1106 H 104.468 3.89891 5.2233 0
M  V30 1107 N 107.901 -0.206675 1.56239 0
M  V30 1108 C 108.834 -1.28383 1.88661 0
M  V30 1109 C 109.812 -1.44504 0.745481 0
M  V30 1110 O 110.996 -1.60079 0.995336 0
M  V30 1111 C 108.123 -2.65211 2.10667 0
M  V30 1112 C 107.169 -2.66025 3.33366 0
M  V30 1113 S 108.002 -2.18609 4.88846 0
M  V30 1114 C 109.158 -3.57283 5.13906 0
M  V30 1115 H 109.391 -1.00691 2.7973 0
M  V30 1116 H 106.924 -0.409627 1.48867 0
M  V30 1117 H 108.882 -3.43979 2.24029 0
M  V30 1118 H 107.543 -2.90121 1.20369 0
M  V30 1119 H 106.736 -3.66607 3.45855 0
M  V30 1120 H 106.338 -1.95331 3.18938 0
M  V30 1121 H 108.63 -4.53074 5.03717 0
M  V30 1122 H 109.573 -3.49699 6.15724 0
M  V30 1123 H 109.981 -3.51659 4.41583 0
M  V30 1124 N 109.379 -1.50304 -0.473955 0
M  V30 1125 C 110.289 -1.7174 -1.5982 0
M  V30 1126 C 111.305 -0.600457 -1.63311 0
M  V30 1127 O 112.481 -0.878441 -1.81233 0
M  V30 1128 C 109.546 -1.80427 -2.96052 0
M  V30 1129 C 108.607 -3.04148 -3.02972 0
M  V30 1130 C 107.84 -3.12411 -4.32706 0
M  V30 1131 O 108.063 -2.27542 -5.23049 0
M  V30 1132 O 106.997 -4.05113 -4.45159 0
M  V30 1133 H 110.823 -2.67035 -1.44657 0
M  V30 1134 H 108.408 -1.34366 -0.653148 0
M  V30 1135 H 110.29 -1.88338 -3.7697 0
M  V30 1136 H 108.965 -0.883156 -3.11419 0
M  V30 1137 H 107.872 -3.0174 -2.21142 0
M  V30 1138 H 109.205 -3.95829 -2.92541 0
M  V30 1139 N 110.857 0.726932 -1.39834 0
M  V30 1140 C 111.787 1.85405 -1.41941 0
M  V30 1141 C 112.768 1.67751 -0.281728 0
M  V30 1142 O 113.953 1.8795 -0.488717 0
M  V30 1143 C 111.083 3.23243 -1.2701 0
M  V30 1144 C 110.037 3.55549 -2.38262 0
M  V30 1145 C 109.363 4.9241 -2.08415 0
M  V30 1146 C 110.663 3.577 -3.80589 0
M  V30 1147 H 112.357 1.83899 -2.36266 0
M  V30 1148 H 109.903 0.883349 -1.13723 0
M  V30 1149 H 111.856 4.01775 -1.27103 0
M  V30 1150 H 110.58 3.25296 -0.291564 0
M  V30 1151 H 109.239 2.79351 -2.37399 0
M  V30 1152 H 108.887 4.91052 -1.0898 0
M  V30 1153 H 108.587 5.14992 -2.82943 0
M  V30 1154 H 110.111 5.73289 -2.10171 0
M  V30 1155 H 111.525 4.26293 -3.83337 0
M  V30 1156 H 109.922 3.91804 -4.54543 0
M  V30 1157 H 110.992 2.57328 -4.10987 0
M  V30 1158 N 112.336 1.25143 0.95797 0
M  V30 1159 C 113.246 1.06968 2.08794 0
M  V30 1160 C 114.262 0.00773911 1.73998 0
M  V30 1161 O 115.438 0.207972 2.00323 0
M  V30 1162 C 112.503 0.68691 3.39827 0
M  V30 1163 C 111.564 1.82641 3.88511 0
M  V30 1164 C 110.797 1.46181 5.1329 0
M  V30 1165 O 111.02 0.355971 5.69288 0
M  V30 1166 O 109.954 2.29085 5.566 0
M  V30 1167 H 113.78 2.01723 2.27027 0
M  V30 1168 H 111.365 1.04051 1.07209 0
M  V30 1169 H 113.247 0.485417 4.18595 0
M  V30 1170 H 111.922 -0.231417 3.22872 0
M  V30 1171 H 110.829 2.08274 3.10762 0
M  V30 1172 H 112.162 2.72386 4.09959 0
M  V30 1173 N 113.814 -1.1601 1.06675 0
M  V30 1174 C 114.724 -2.24156 0.692179 0
M  V30 1175 C 115.74 -1.71507 -0.293513 0
M  V30 1176 O 116.916 -2.009 -0.141861 0
M  V30 1177 C 113.981 -3.46587 0.0884131 0
M  V30 1178 C 113.042 -4.14257 1.12646 0
M  V30 1179 C 112.275 -5.30844 0.551416 0
M  V30 1180 O 112.498 -5.66858 -0.634656 0
M  V30 1181 O 111.432 -5.87848 1.29298 0
M  V30 1182 H 115.258 -2.58513 1.59388 0
M  V30 1183 H 112.843 -1.23599 0.83926 0
M  V30 1184 H 114.725 -4.20679 -0.246361 0
M  V30 1185 H 113.4 -3.13994 -0.786712 0
M  V30 1186 H 112.307 -3.42118 1.51348 0
M  V30 1187 H 113.64 -4.50914 1.97325 0
M  V30 1188 N 115.292 -0.849877 -1.32721 0
M  V30 1189 C 116.255 -0.296122 -2.27279 0
M  V30 1190 C 117.255 0.541458 -1.5141 0
M  V30 1191 O 118.445 0.353658 -1.70572 0
M  V30 1192 C 115.577 0.581579 -3.35902 0
M  V30 1193 H 116.77 -1.13064 -2.77771 0
M  V30 1194 H 114.323 -0.62383 -1.43311 0
M  V30 1195 H 115.058 1.43809 -2.9067 0
M  V30 1196 H 114.843 -0.0178814 -3.92096 0
M  V30 1197 H 116.333 0.961951 -4.0637 0
M  V30 1198 N 116.77 1.45427 -0.607355 0
M  V30 1199 C 118.017 2.02241 -0.102455 0
M  V30 1200 C 118.345 1.4758 1.26691 0
M  V30 1201 O 117.6 0.640468 1.84923 0
M  V30 1202 C 117.899 3.57398 -0.0129263 0
M  V30 1203 C 117.565 4.3121 -1.31792 0
M  V30 1204 C 116.227 4.51092 -1.67539 0
M  V30 1205 C 118.579 4.73401 -2.18039 0
M  V30 1206 C 115.907 5.10422 -2.89285 0
M  V30 1207 C 118.259 5.34078 -3.39034 0
M  V30 1208 C 116.923 5.52184 -3.75033 0
M  V30 1209 H 116.193 0.740051 -0.037491 0
M  V30 1210 H 118.84 1.74494 -0.788926 0
M  V30 1211 H 117.145 3.84421 0.756806 0
M  V30 1212 H 118.842 3.99061 0.393881 0
M  V30 1213 H 115.432 4.16047 -1.02968 0
M  V30 1214 H 119.616 4.57774 -1.91721 0
M  V30 1215 H 114.872 5.22629 -3.17283 0
M  V30 1216 H 119.046 5.65724 -4.06115 0
M  V30 1217 H 116.673 5.97925 -4.69457 0
M  V30 1218 N 118.248 0.346503 1.53744 0
M  V30 1219 C 119.664 -0.00530975 1.59599 0
M  V30 1220 C 119.864 -1.48465 1.36236 0
M  V30 1221 O 118.92 -2.24376 1.15808 0
M  V30 1222 C 120.233 0.433516 2.97559 0
M  V30 1223 C 121.781 0.386111 3.10609 0
M  V30 1224 C 122.256 0.800451 4.50951 0
M  V30 1225 N 123.747 0.754753 4.5701 0
M  V30 1226 C 124.482 1.04727 5.63755 0
M  V30 1227 N 123.978 1.4081 6.7834 0
M  V30 1228 N 125.771 0.971316 5.53644 0
M  V30 1229 H 117.922 1.31009 1.67184 0
M  V30 1230 H 120.185 0.534242 0.783128 0
M  V30 1231 H 119.891 1.46509 3.19731 0
M  V30 1232 H 119.765 -0.189753 3.76722 0
M  V30 1233 H 122.152 -0.636295 2.88158 0
M  V30 1234 H 122.233 1.04462 2.33498 0
M  V30 1235 H 121.877 1.82088 4.74137 0
M  V30 1236 H 121.807 0.119386 5.26465 0
M  V30 1237 H 124.298 0.488662 3.74727 0
M  V30 1238 H 124.611 1.61607 7.55714 0
M  V30 1239 H 122.956 1.44657 6.79779 0
M  V30 1240 H 126.147 0.688748 4.63005 0
M  V30 1241 H 126.32 1.20263 6.36742 0
M  V30 1242 N 119.726 -1.57421 0.075193 0
M  V30 1243 C 120.656 -2.15942 -0.888324 0
M  V30 1244 C 121.637 -1.08737 -1.30806 0
M  V30 1245 O 122.822 -1.36787 -1.37851 0
M  V30 1246 C 119.952 -2.72379 -2.1547 0
M  V30 1247 C 118.906 -3.8478 -1.87425 0
M  V30 1248 C 118.232 -4.27834 -3.20721 0
M  V30 1249 C 119.532 -5.08869 -1.17684 0
M  V30 1250 H 121.226 -2.96705 -0.400799 0
M  V30 1251 H 118.772 -1.42723 -0.191342 0
M  V30 1252 H 120.725 -3.11965 -2.83295 0
M  V30 1253 H 119.449 -1.88841 -2.6647 0
M  V30 1254 H 118.108 -3.45703 -1.22004 0
M  V30 1255 H 117.756 -3.41214 -3.6957 0
M  V30 1256 H 117.456 -5.03605 -3.02746 0
M  V30 1257 H 118.98 -4.70039 -3.89738 0
M  V30 1258 H 120.394 -5.4575 -1.75584 0
M  V30 1259 H 118.791 -5.8994 -1.09956 0
M  V30 1260 H 119.861 -4.84648 -0.156453 0
M  V30 1261 N 121.204 0.198386 -1.56346 0
M  V30 1262 C 122.167 1.22952 -1.93431 0
M  V30 1263 C 123.167 1.38611 -0.815092 0
M  V30 1264 O 124.357 1.36479 -1.08255 0
M  V30 1265 C 121.489 2.59946 -2.20546 0
M  V30 1266 H 122.682 0.912626 -2.85677 0
M  V30 1267 H 120.235 0.43977 -1.49986 0
M  V30 1268 H 120.97 2.96696 -1.30927 0
M  V30 1269 H 120.755 2.49953 -3.02102 0
M  V30 1270 H 122.245 3.3431 -2.50253 0
M  V30 1271 N 122.682 1.50554 0.465978 0
M  V30 1272 C 124.098 1.38093 0.800154 0
M  V30 1273 C 124.298 0.440988 1.96615 0
M  V30 1274 O 123.354 -0.114499 2.5224 0
M  V30 1275 C 124.667 2.79565 1.10742 0
M  V30 1276 C 126.215 2.88516 1.21357 0
M  V30 1277 C 126.69 4.30833 1.55393 0
M  V30 1278 N 128.181 4.33807 1.62375 0
M  V30 1279 C 128.916 5.40927 1.90225 0
M  V30 1280 N 128.412 6.58247 2.16062 0
M  V30 1281 N 130.205 5.28376 1.9177 0
M  V30 1282 H 122.356 2.10237 -0.302366 0
M  V30 1283 H 124.619 0.945203 -0.0727746 0
M  V30 1284 H 124.325 3.50208 0.323661 0
M  V30 1285 H 124.199 3.17125 2.04234 0
M  V30 1286 H 126.586 2.1809 1.98799 0
M  V30 1287 H 126.667 2.54492 0.258321 0
M  V30 1288 H 126.311 5.01799 0.784889 0
M  V30 1289 H 126.241 4.62347 2.52076 0
M  V30 1290 H 128.732 3.49212 1.44427 0
M  V30 1291 H 129.045 7.3569 2.36601 0
M  V30 1292 H 127.39 6.61413 2.13444 0
M  V30 1293 H 130.581 4.35715 1.71085 0
M  V30 1294 H 130.754 6.11944 2.13139 0
M  V30 1295 N 124.16 -0.719506 1.40217 0
M  V30 1296 C 125.092 -1.84428 1.36084 0
M  V30 1297 C 126.105 -1.60597 0.266913 0
M  V30 1298 O 127.294 -1.70544 0.526983 0
M  V30 1299 C 124.394 -3.20757 1.094 0
M  V30 1300 C 123.567 -3.71817 2.30372 0
M  V30 1301 C 122.626 -4.86748 1.99907 0
M  V30 1302 O 121.652 -4.99603 2.72737 0
M  V30 1303 N 122.854 -5.7226 0.974635 0
M  V30 1304 H 125.619 -1.88473 2.33019 0
M  V30 1305 H 123.18 -0.900885 1.3452 0
M  V30 1306 H 125.172 -3.95235 0.870116 0
M  V30 1307 H 123.742 -3.11884 0.211452 0
M  V30 1308 H 122.962 -2.88514 2.68614 0
M  V30 1309 H 124.25 -4.02666 3.11026 0
M  V30 1310 H 123.648 -5.6448 0.371368 0
M  V30 1311 H 122.205 -6.46739 0.810656 0
M  V30 1312 N 125.638 -1.25649 -0.95132 0
M  V30 1313 C 126.878 -1.11802 -1.71113 0
M  V30 1314 C 127.242 0.334758 -1.89059 0
M  V30 1315 O 128.443 0.595121 -2.62129 0
M  V30 1316 C 126.714 -1.85512 -3.05483 0
M  V30 1317 S 128.273 -1.87597 -3.96677 0
M  V30 1318 H 125.091 -0.399552 -0.588115 0
M  V30 1319 H 127.693 -1.59222 -1.1344 0
M  V30 1320 H 126.397 -2.90299 -2.90094 0
M  V30 1321 H 125.928 -1.38493 -3.68216 0
M  V30 1322 H 127.943 -0.955389 -4.86916 0
M  V30 1323 N 127.117 1.15442 -1.07289 0
M  V30 1324 C 128.533 1.38201 -0.798288 0
M  V30 1325 C 128.733 1.92429 0.597769 0
M  V30 1326 O 127.789 2.12962 1.3566 0
M  V30 1327 C 129.102 2.35357 -1.87156 0
M  V30 1328 C 130.65 2.49021 -1.89624 0
M  V30 1329 C 131.125 3.49468 -2.96034 0
M  V30 1330 N 132.616 3.57003 -2.95132 0
M  V30 1331 C 133.351 4.34543 -3.74112 0
M  V30 1332 N 132.847 5.15421 -4.6294 0
M  V30 1333 N 134.64 4.29625 -3.62462 0
M  V30 1334 H 126.791 0.78584 -1.97328 0
M  V30 1335 H 129.054 0.408065 -0.855679 0
M  V30 1336 H 128.76 2.02626 -2.87464 0
M  V30 1337 H 128.634 3.35129 -1.73114 0
M  V30 1338 H 131.021 2.81051 -0.899687 0
M  V30 1339 H 131.102 1.4925 -2.07745 0
M  V30 1340 H 130.746 3.18173 -3.95889 0
M  V30 1341 H 130.676 4.48992 -2.75161 0
M  V30 1342 H 133.167 2.99276 -2.30743 0
M  V30 1343 H 133.48 5.7183 -5.19837 0
M  V30 1344 H 131.825 5.14729 -4.66989 0
M  V30 1345 H 135.016 3.65505 -2.92444 0
M  V30 1346 H 135.189 4.89807 -4.24256 0
M  V30 1347 N 128.595 0.856903 1.32268 0
M  V30 1348 C 129.872 0.382583 1.91822 0
M  V30 1349 C 130.252 -1.13407 1.78051 0
M  V30 1350 O 129.6 -1.95673 1.18001 0
M  V30 1351 C 129.81 0.849446 3.38505 0
M  V30 1352 C 131.158 0.867936 4.15634 0
M  V30 1353 O 132.182 0.794232 3.47232 0
M  V30 1354 O 131.041 0.972286 5.37781 0
M  V30 1355 H 128.135 0.112014 0.819379 0
M  V30 1356 H 130.681 0.943952 1.41024 0
M  V30 1357 H 129.453 1.89267 3.42482 0
M  V30 1358 H 129.076 0.265652 3.96712 0
M  V30 1359 N 130.073 -1.45103 0.615059 0
M  V30 1360 C 130.983 -2.34382 -0.101034 0
M  V30 1361 C 131.999 -1.51681 -0.852585 0
M  V30 1362 O 133.175 -1.8446 -0.808484 0
M  V30 1363 C 130.24 -3.29417 -1.08099 0
M  V30 1364 C 129.301 -4.28025 -0.330577 0
M  V30 1365 C 128.534 -5.1852 -1.26385 0
M  V30 1366 O 128.757 -5.12598 -2.50198 0
M  V30 1367 O 127.691 -5.97122 -0.756866 0
M  V30 1368 H 131.517 -2.97033 0.632855 0
M  V30 1369 H 129.102 -1.4461 0.375293 0
M  V30 1370 H 130.984 -3.87958 -1.6452 0
M  V30 1371 H 129.659 -2.69321 -1.79577 0
M  V30 1372 H 128.566 -3.73078 0.276283 0
M  V30 1373 H 129.899 -4.90997 0.343866 0
M  V30 1374 N 131.551 -0.354651 -1.53558 0
M  V30 1375 C 132.799 0.237972 -2.00694 0
M  V30 1376 C 133.12 1.50173 -1.24391 0
M  V30 1377 O 132.39 1.92673 -0.354135 0
M  V30 1378 H 130.97 0.0909256 -0.741446 0
M  V30 1379 H 133.632 -0.478368 -1.88938 0
M  V30 1380 H 132.728 0.47264 -3.085 0
M  V30 1381 N 133.029 1.57378 -0.0835403 0
M  V30 1382 C 133.959 2.1641 0.87686 0
M  V30 1383 C 134.94 1.09429 1.30228 0
M  V30 1384 O 136.125 1.37516 1.37124 0
M  V30 1385 C 133.255 2.73517 2.14022 0
M  V30 1386 C 132.209 3.85769 1.85381 0
M  V30 1387 C 131.535 4.29529 3.18448 0
M  V30 1388 C 132.835 5.09486 1.14984 0
M  V30 1389 H 134.529 2.96914 0.385059 0
M  V30 1390 H 132.075 1.42823 0.18377 0
M  V30 1391 H 134.028 3.13463 2.81636 0
M  V30 1392 H 132.752 1.90252 2.65465 0
M  V30 1393 H 131.411 3.46345 1.20169 0
M  V30 1394 H 131.059 3.43169 3.67755 0
M  V30 1395 H 130.759 5.05204 3.00071 0
M  V30 1396 H 132.283 4.72099 3.8724 0
M  V30 1397 H 133.697 5.46674 1.72687 0
M  V30 1398 H 132.094 5.90515 1.06826 0
M  V30 1399 H 133.164 4.84724 0.130749 0
M  V30 1400 N 134.507 -0.190092 1.56449 0
M  V30 1401 C 135.756 -0.907912 1.80111 0
M  V30 1402 C 136.069 -1.84214 0.657619 0
M  V30 1403 O 137.275 -2.60094 0.778663 0
M  V30 1404 C 135.731 -1.66485 3.19078 0
M  V30 1405 C 135.339 -0.7752 4.41242 0
M  V30 1406 C 137.083 -2.37201 3.52045 0
M  V30 1407 C 134.99 -1.53129 5.71231 0
M  V30 1408 H 133.92 -0.34276 0.671589 0
M  V30 1409 H 136.571 -0.161109 1.82791 0
M  V30 1410 H 134.953 -2.45572 3.10661 0
M  V30 1411 H 136.127 -0.0226298 4.60794 0
M  V30 1412 H 134.442 -0.178627 4.16017 0
M  V30 1413 H 137.039 -2.94329 4.46402 0
M  V30 1414 H 137.382 -3.11632 2.76028 0
M  V30 1415 H 137.915 -1.65075 3.61932 0
M  V30 1416 H 134.654 -0.82967 6.50228 0
M  V30 1417 H 134.174 -2.25767 5.55688 0
M  V30 1418 H 135.853 -2.08377 6.12526 0
M  V30 1419 N 135.985 -1.50799 -0.457987 0
M  V30 1420 C 137.234 -1.6168 -1.20593 0
M  V30 1421 C 137.547 -0.32888 -1.92815 0
M  V30 1422 O 138.753 -0.316773 -2.69646 0
M  V30 1423 C 137.209 -2.8545 -2.19195 0
M  V30 1424 C 136.817 -4.21168 -1.52715 0
M  V30 1425 C 138.561 -3.05681 -2.94549 0
M  V30 1426 C 136.468 -5.3611 -2.4968 0
M  V30 1427 H 135.398 -0.602134 -0.453818 0
M  V30 1428 H 138.049 -1.77245 -0.475031 0
M  V30 1429 H 136.431 -2.63472 -2.95632 0
M  V30 1430 H 137.605 -4.53449 -0.819775 0
M  V30 1431 H 135.92 -4.06648 -0.895922 0
M  V30 1432 H 138.517 -3.88727 -3.67145 0
M  V30 1433 H 138.86 -2.17929 -3.54701 0
M  V30 1434 H 139.393 -3.27901 -2.25223 0
M  V30 1435 H 136.132 -6.26057 -1.94249 0
M  V30 1436 H 135.652 -5.0823 -3.18532 0
M  V30 1437 H 137.331 -5.6722 -3.11241 0
M  V30 1438 N 137.463 0.71206 -1.40597 0
M  V30 1439 C 138.413 1.81783 -1.37619 0
M  V30 1440 C 139.397 1.58896 -0.253162 0
M  V30 1441 O 140.589 1.70009 -0.492547 0
M  V30 1442 C 137.718 3.19944 -1.24462 0
M  V30 1443 C 136.804 3.48582 -2.4156 0
M  V30 1444 N 137.195 3.48016 -3.67041 0
M  V30 1445 C 135.493 3.79056 -2.35016 0
M  V30 1446 C 136.194 3.75096 -4.44609 0
M  V30 1447 N 135.17 3.94022 -3.74497 0
M  V30 1448 H 138.972 1.79683 -2.32575 0
M  V30 1449 H 136.486 0.91134 -1.34419 0
M  V30 1450 H 138.483 3.99133 -1.20411 0
M  V30 1451 H 137.143 3.23267 -0.304762 0
M  V30 1452 H 138.154 3.28782 -4.00153 0
M  V30 1453 H 134.831 3.89848 -1.49415 0
M  V30 1454 H 136.221 3.80934 -5.53479 0
M  V30 1455 N 138.941 1.26152 0.944643 0
M  V30 1456 C 140.187 1.11657 1.69294 0
M  V30 1457 C 140.52 -0.339926 1.91202 0
M  V30 1458 O 139.795 -1.24994 1.49019 0
M  V30 1459 C 140.078 1.88236 3.06984 0
M  V30 1460 C 139.931 3.41772 2.92424 0
M  V30 1461 C 141.25 1.67343 4.07043 0
M  V30 1462 H 138.369 0.407004 0.614424 0
M  V30 1463 H 141.011 1.55106 1.09737 0
M  V30 1464 H 139.161 1.51308 3.57824 0
M  V30 1465 H 140.833 3.88433 2.48832 0
M  V30 1466 H 139.076 3.68974 2.28124 0
M  V30 1467 H 139.747 3.90579 3.90067 0
M  V30 1468 H 142.223 1.99509 3.65151 0
M  V30 1469 H 141.099 2.23346 5.01406 0
M  V30 1470 H 141.36 0.617158 4.37771 0
M  V30 1471 N 140.419 -1.14872 1.07899 0
M  V30 1472 C 141.666 -1.85789 0.805532 0
M  V30 1473 C 141.994 -1.82649 -0.668561 0
M  V30 1474 O 141.249 -1.24858 -1.50695 0
M  V30 1475 C 141.548 -3.34223 1.26609 0
M  V30 1476 C 141.214 -3.57555 2.74709 0
M  V30 1477 C 139.876 -3.63631 3.1516 0
M  V30 1478 C 142.228 -3.66803 3.70277 0
M  V30 1479 C 139.556 -3.76473 4.49983 0
M  V30 1480 C 141.908 -3.8117 5.04869 0
M  V30 1481 C 140.572 -3.85494 5.44932 0
M  V30 1482 H 139.842 -0.679849 0.294765 0
M  V30 1483 H 142.489 -1.3572 1.35101 0
M  V30 1484 H 140.794 -3.86536 0.640103 0
M  V30 1485 H 142.491 -3.87511 1.03132 0
M  V30 1486 H 139.081 -3.5347 2.42398 0
M  V30 1487 H 143.265 -3.61404 3.40149 0
M  V30 1488 H 138.521 -3.7808 4.80484 0
M  V30 1489 H 142.695 -3.87268 5.78789 0
M  V30 1490 H 140.322 -3.95197 6.49403 0
M  V30 1491 N 141.898 -0.863906 -1.31812 0
M  V30 1492 C 143.309 -0.52522 -1.7916 0
M  V30 1493 C 143.66 0.957518 -1.71248 0
M  V30 1494 O 142.785 1.74734 -1.27659 0
M  V30 1495 C 143.38 -0.9466 -3.25307 0
M  V30 1496 C 141.939 -0.659668 -3.70574 0
M  V30 1497 C 141.086 -1.14126 -2.52726 0
M  V30 1498 H 144.037 -1.05022 -1.1898 0
M  V30 1499 H 144.058 -0.266766 -3.79564 0
M  V30 1500 H 143.57 -2.02579 -3.31034 0
M  V30 1501 H 141.671 0.408416 -3.70355 0
M  V30 1502 H 141.784 -1.23245 -4.62977 0
M  V30 1503 H 140.148 -0.561216 -2.4844 0
M  V30 1504 H 140.931 -2.22775 -2.61201 0
M  V30 1505 N 143.376 1.44774 -0.622745 0
M  V30 1506 C 144.601 2.06999 -0.128968 0
M  V30 1507 C 145.026 1.4617 1.1839 0
M  V30 1508 O 144.384 0.560007 1.72434 0
M  V30 1509 C 144.432 3.60595 -0.0188351 0
M  V30 1510 O 143.536 3.99398 1.02739 0
M  V30 1511 H 142.877 0.659047 -0.0809544 0
M  V30 1512 H 145.407 1.85784 -0.85705 0
M  V30 1513 H 145.417 4.07627 0.174476 0
M  V30 1514 H 144.092 4.04252 -0.977384 0
M  V30 1515 H 142.669 3.64011 0.809326 0
M  V30 1516 N 144.854 0.36279 1.53368 0
M  V30 1517 C 146.082 -0.228613 2.05633 0
M  V30 1518 C 146.497 -1.42676 1.23649 0
M  V30 1519 O 145.854 -1.80394 0.27647 0
M  V30 1520 C 145.905 -0.624845 3.56059 0
M  V30 1521 O 145.626 0.525675 4.34935 0
M  V30 1522 C 147.127 -1.27493 4.24571 0
M  V30 1523 H 144.347 -0.0407183 0.669763 0
M  V30 1524 H 146.891 0.520352 1.97769 0
M  V30 1525 H 145.046 -1.32373 3.64083 0
M  V30 1526 H 145.46 0.205969 5.24095 0
M  V30 1527 H 146.934 -1.50277 5.31151 0
M  V30 1528 H 147.411 -2.23439 3.78116 0
M  V30 1529 H 148.017 -0.617558 4.20792 0
M  V30 1530 N 146.332 -1.57332 0.0918853 0
M  V30 1531 C 147.743 -1.81496 -0.437739 0
M  V30 1532 C 148.094 -1.00727 -1.6837 0
M  V30 1533 O 147.219 -0.235694 -2.15113 0
M  V30 1534 C 147.814 -3.29197 -0.800939 0
M  V30 1535 C 146.373 -3.54136 -1.27532 0
M  V30 1536 C 145.52 -2.75979 -0.270392 0
M  V30 1537 H 148.471 -1.55494 0.317366 0
M  V30 1538 H 148.492 -3.42344 -1.66074 0
M  V30 1539 H 148.004 -3.87955 0.106078 0
M  V30 1540 H 146.105 -3.00705 -2.20016 0
M  V30 1541 H 146.218 -4.62792 -1.23938 0
M  V30 1542 H 144.582 -2.43349 -0.751872 0
M  V30 1543 H 145.365 -3.37484 0.629248 0
M  V30 1544 N 147.81 0.181792 -1.56548 0
M  V30 1545 C 148.72 1.24538 -1.98815 0
M  V30 1546 C 149.736 1.49045 -0.897861 0
M  V30 1547 O 150.912 1.61399 -1.20467 0
M  V30 1548 C 147.977 2.56683 -2.33055 0
M  V30 1549 C 147.038 2.40131 -3.55859 0
M  V30 1550 C 146.271 3.65975 -3.88456 0
M  V30 1551 O 146.494 4.70711 -3.22161 0
M  V30 1552 O 145.428 3.6071 -4.81842 0
M  V30 1553 H 149.254 0.916647 -2.89536 0
M  V30 1554 H 146.839 0.387842 -1.44278 0
M  V30 1555 H 148.721 3.34655 -2.56094 0
M  V30 1556 H 147.396 2.89157 -1.45498 0
M  V30 1557 H 146.303 1.60226 -3.38051 0
M  V30 1558 H 147.636 2.12585 -4.43924 0
M  V30 1559 N 149.288 1.51039 0.449983 0
M  V30 1560 C 150.22 1.67617 1.56324 0
M  V30 1561 C 151.233 0.557083 1.52972 0
M  V30 1562 O 152.422 0.830989 1.57977 0
M  V30 1563 C 149.522 1.66402 2.95235 0
M  V30 1564 C 148.695 2.9469 3.23229 0
M  V30 1565 C 147.754 2.85832 4.41799 0
M  V30 1566 O 146.78 3.59785 4.41071 0
M  V30 1567 N 147.982 2.00821 5.44657 0
M  V30 1568 H 150.747 2.63648 1.42512 0
M  V30 1569 H 148.308 1.48767 0.638737 0
M  V30 1570 H 150.3 1.58062 3.72557 0
M  V30 1571 H 148.87 0.780182 3.02708 0
M  V30 1572 H 148.09 3.16996 2.34323 0
M  V30 1573 H 149.378 3.79636 3.38754 0
M  V30 1574 H 148.776 1.40091 5.48079 0
M  V30 1575 H 147.333 1.98368 6.20881 0
M  V30 1576 N 150.766 -0.704594 1.40972 0
M  V30 1577 C 152.177 -1.28418 1.3552 0
M  V30 1578 C 152.528 -1.96171 0.0339434 0
M  V30 1579 O 151.653 -1.98231 -0.867944 0
M  V30 1580 C 152.248 -2.33528 2.45459 0
M  V30 1581 C 150.807 -2.87085 2.43433 0
M  V30 1582 C 149.954 -1.61007 2.2577 0
M  V30 1583 H 152.905 -0.499963 1.50619 0
M  V30 1584 H 152.926 -3.14619 2.13998 0
M  V30 1585 H 152.438 -1.84187 3.41609 0
M  V30 1586 H 150.539 -3.40626 1.51013 0
M  V30 1587 H 150.652 -3.3813 3.39419 0
M  V30 1588 H 149.016 -1.86482 1.73483 0
M  V30 1589 H 149.799 -1.13675 3.23933 0
M  V30 1590 N 152.244 -1.26651 -0.937939 0
M  V30 1591 C 153.492 -1.12165 -1.68118 0
M  V30 1592 C 153.813 0.334983 -1.92101 0
M  V30 1593 O 153.083 1.23583 -1.52 0
M  V30 1594 H 151.663 -0.412093 -0.623048 0
M  V30 1595 H 154.325 -1.59027 -1.12678 0
M  V30 1596 H 153.421 -1.64289 -2.6536 0
M  V30 1597 N 153.722 1.14298 -1.08507 0
M  V30 1598 C 154.652 2.21542 -0.737646 0
M  V30 1599 C 155.633 1.67773 0.280377 0
M  V30 1600 O 156.818 1.93616 0.150521 0
M  V30 1601 C 153.948 3.46988 -0.147259 0
M  V30 1602 C 152.902 4.13789 -1.09374 0
M  V30 1603 C 152.228 5.33449 -0.365524 0
M  V30 1604 C 153.528 4.62208 -2.4323 0
M  V30 1605 H 155.222 2.5086 -1.6343 0
M  V30 1606 H 152.768 1.20576 -0.787243 0
M  V30 1607 H 154.721 4.21262 0.107808 0
M  V30 1608 H 153.445 3.17037 0.784538 0
M  V30 1609 H 152.104 3.4147 -1.33393 0
M  V30 1610 H 151.752 4.99759 0.57011 0
M  V30 1611 H 151.452 5.79088 -0.996512 0
M  V30 1612 H 152.976 6.10485 -0.118534 0
M  V30 1613 H 154.39 5.27952 -2.23472 0
M  V30 1614 H 152.787 5.18553 -3.02031 0
M  V30 1615 H 153.857 3.77224 -3.04681 0
M  V30 1616 N 155.201 0.870884 1.31352 0
M  V30 1617 C 156.612 0.534714 1.78879 0
M  V30 1618 C 156.963 -0.948423 1.71754 0
M  V30 1619 O 156.088 -1.74055 1.28584 0
M  V30 1620 C 156.683 0.963839 3.24801 0
M  V30 1621 C 155.242 0.679311 3.70219 0
M  V30 1622 C 154.389 1.15465 2.52117 0
M  V30 1623 H 157.34 1.05651 1.18421 0
M  V30 1624 H 157.361 0.286892 3.79417 0
M  V30 1625 H 156.873 2.04332 3.29955 0
M  V30 1626 H 154.974 -0.388769 3.70566 0
M  V30 1627 H 155.087 1.25698 4.62317 0
M  V30 1628 H 153.451 0.574383 2.48139 0
M  V30 1629 H 154.234 2.24157 2.60016 0
M  V30 1630 N 156.679 -1.44442 0.630414 0
M  V30 1631 C 157.919 -2.03934 0.137919 0
M  V30 1632 C 158.283 -1.48509 -1.21692 0
M  V30 1633 O 159.484 -1.99499 -1.80149 0
M  V30 1634 C 157.755 -3.57187 0.123373 0
M  V30 1635 S 159.314 -4.37741 -0.304604 0
M  V30 1636 H 156.132 -0.708401 0.0607353 0
M  V30 1637 H 158.734 -1.76835 0.833643 0
M  V30 1638 H 157.438 -3.95032 1.11256 0
M  V30 1639 H 156.969 -3.88895 -0.59362 0
M  V30 1640 H 158.984 -4.71403 -1.54897 0
M  V30 1641 N 158.157 -0.370918 -1.53173 0
M  V30 1642 C 159.568 0.107139 -1.86392 0
M  V30 1643 C 159.919 1.47714 -1.29132 0
M  V30 1644 O 159.044 2.07464 -0.615439 0
M  V30 1645 C 159.639 0.201187 -3.38202 0
M  V30 1646 C 158.198 0.623507 -3.712 0
M  V30 1647 C 157.345 -0.225978 -2.76378 0
M  V30 1648 H 160.296 -0.58951 -1.47345 0
M  V30 1649 H 160.317 1.02377 -3.66468 0
M  V30 1650 H 159.829 -0.796058 -3.79848 0
M  V30 1651 H 157.93 1.62879 -3.35114 0
M  V30 1652 H 158.043 0.394414 -4.77474 0
M  V30 1653 H 156.407 0.305962 -2.52856 0
M  V30 1654 H 157.19 -1.22086 -3.20858 0
M  V30 1655 N 159.635 1.57281 -0.100228 0
M  V30 1656 C 160.883 1.94153 0.561157 0
M  V30 1657 C 161.204 0.983157 1.68401 0
M  V30 1658 O 160.474 0.0361132 1.95867 0
M  V30 1659 H 159.054 0.716791 0.210283 0
M  V30 1660 H 161.716 1.94202 -0.164765 0
M  V30 1661 H 160.812 2.96709 0.968008 0
M  V30 1662 N 161.113 -0.173488 1.56642 0
M  V30 1663 C 162.023 -1.23482 1.99473 0
M  V30 1664 C 163.039 -1.48567 0.905752 0
M  V30 1665 O 164.215 -1.60758 1.21321 0
M  V30 1666 C 161.28 -2.55444 2.34413 0
M  V30 1667 C 160.341 -2.38241 3.57127 0
M  V30 1668 C 159.574 -3.63909 3.90392 0
M  V30 1669 O 159.797 -4.68996 3.24653 0
M  V30 1670 O 158.731 -3.58149 4.83749 0
M  V30 1671 H 162.557 -0.901279 2.90018 0
M  V30 1672 H 160.142 -0.380185 1.44482 0
M  V30 1673 H 162.024 -3.33292 2.57865 0
M  V30 1674 H 160.699 -2.88382 1.4703 0
M  V30 1675 H 159.606 -1.58431 3.38896 0
M  V30 1676 H 160.939 -2.10228 4.45045 0
M  V30 1677 N 162.591 -1.51276 -0.441967 0
M  V30 1678 C 163.868 -1.54252 -1.20273 0
M  V30 1679 C 164.248 -0.30408 -2.08898 0
M  V30 1680 O 163.596 0.711084 -2.17154 0
M  V30 1681 C 163.806 -2.85406 -2.00859 0
M  V30 1682 C 165.154 -3.37181 -2.58059 0
M  V30 1683 O 166.178 -2.86925 -2.11074 0
M  V30 1684 O 165.037 -4.24858 -3.43741 0
M  V30 1685 H 162.131 -0.619969 -0.547328 0
M  V30 1686 H 164.677 -1.63586 -0.451413 0
M  V30 1687 H 163.449 -3.67003 -1.35736 0
M  V30 1688 H 163.072 -2.79213 -2.83065 0
M  V30 1689 N 164.069 0.697108 -1.41344 0
M  V30 1690 C 165.016 1.81106 -1.43071 0
M  V30 1691 C 165.986 1.63632 -0.285275 0
M  V30 1692 O 167.171 1.84504 -0.486091 0
M  V30 1693 C 164.311 3.18975 -1.31715 0
M  V30 1694 C 163.424 3.47892 -2.56115 0
M  V30 1695 C 162.559 4.75367 -2.37064 0
M  V30 1696 C 161.598 4.97247 -3.56948 0
M  V30 1697 N 160.735 6.15947 -3.36977 0
M  V30 1698 H 165.575 1.78965 -2.38276 0
M  V30 1699 H 163.112 0.873975 -1.18322 0
M  V30 1700 H 165.07 3.98615 -1.23133 0
M  V30 1701 H 163.7 3.20297 -0.401183 0
M  V30 1702 H 162.752 2.62669 -2.75153 0
M  V30 1703 H 164.064 3.59962 -3.45295 0
M  V30 1704 H 163.218 5.63059 -2.25941 0
M  V30 1705 H 161.957 4.65541 -1.45338 0
M  V30 1706 H 160.962 4.08004 -3.68527 0
M  V30 1707 H 162.187 5.08934 -4.49626 0
M  V30 1708 H 160.133 6.07336 -2.47949 0
M  V30 1709 H 160.05 6.28777 -4.19732 0
M  V30 1710 H 161.318 7.06377 -3.29623 0
M  V30 1711 N 165.547 1.27147 0.931209 0
M  V30 1712 C 166.772 1.16191 1.71797 0
M  V30 1713 C 167.197 -0.278004 1.86034 0
M  V30 1714 O 166.555 -1.20137 1.35782 0
M  V30 1715 C 166.603 1.84673 3.09723 0
M  V30 1716 O 165.707 1.14231 3.96264 0
M  V30 1717 H 165.048 0.404303 0.526721 0
M  V30 1718 H 167.578 1.68152 1.1656 0
M  V30 1719 H 167.588 1.91893 3.60057 0
M  V30 1720 H 166.263 2.89421 2.98677 0
M  V30 1721 H 164.84 1.15056 3.54706 0
M  V30 1722 N 167.025 -1.13721 1.09112 0
M  V30 1723 C 168.274 -1.84275 0.82009 0
M  V30 1724 C 168.587 -1.84253 -0.656509 0
M  V30 1725 O 169.793 -2.50668 -1.04296 0
M  V30 1726 C 168.249 -3.30825 1.41714 0
M  V30 1727 C 167.857 -3.39244 2.92605 0
M  V30 1728 C 169.601 -4.06443 1.22492 0
M  V30 1729 C 167.508 -4.80047 3.45411 0
M  V30 1730 H 166.438 -0.690387 0.30312 0
M  V30 1731 H 169.089 -1.28146 1.31343 0
M  V30 1732 H 167.471 -3.86737 0.851498 0
M  V30 1733 H 168.645 -2.93344 3.55367 0
M  V30 1734 H 166.96 -2.77088 3.10823 0
M  V30 1735 H 169.557 -5.10387 1.59402 0
M  V30 1736 H 169.9 -4.15972 0.165299 0
M  V30 1737 H 170.433 -3.56852 1.75788 0
M  V30 1738 H 167.172 -4.75709 4.50978 0
M  V30 1739 H 166.692 -5.26455 2.87411 0
M  V30 1740 H 168.371 -5.48957 3.42425 0
M  V30 1741 N 168.503 -0.877838 -1.30888 0
M  V30 1742 C 169.733 -0.506678 -2.00291 0
M  V30 1743 C 170.141 0.907449 -1.66018 0
M  V30 1744 O 169.484 1.60719 -0.88967 0
M  V30 1745 C 169.546 -0.59323 -3.54572 0
M  V30 1746 C 169.21 -1.97038 -4.12341 0
M  V30 1747 C 170.207 -2.93889 -4.28865 0
M  V30 1748 C 167.892 -2.27383 -4.47886 0
M  V30 1749 C 169.886 -4.19224 -4.80136 0
M  V30 1750 C 167.573 -3.52965 -4.98857 0
M  V30 1751 C 168.571 -4.48701 -5.14934 0
M  V30 1752 O 168.259 -5.72056 -5.64808 0
M  V30 1753 H 167.991 -0.1951 -0.647234 0
M  V30 1754 H 170.545 -1.18301 -1.6791 0
M  V30 1755 H 168.775 0.140057 -3.86446 0
M  V30 1756 H 170.464 -0.234372 -4.05223 0
M  V30 1757 H 171.23 -2.71756 -4.01714 0
M  V30 1758 H 167.109 -1.53639 -4.34645 0
M  V30 1759 H 170.653 -4.93956 -4.92599 0
M  V30 1760 H 166.55 -3.74939 -5.25443 0
M  V30 1761 H 167.318 -5.74337 -5.83163 0
M  V30 1762 N 169.982 1.44106 -0.638065 0
M  V30 1763 C 171.398 1.56672 -0.304286 0
M  V30 1764 C 171.598 1.6244 1.19228 0
M  V30 1765 O 170.654 1.57121 1.9766 0
M  V30 1766 C 171.967 2.83503 -1.00231 0
M  V30 1767 C 173.515 2.97226 -0.981116 0
M  V30 1768 C 173.99 4.26868 -1.65974 0
M  V30 1769 N 175.481 4.33698 -1.62666 0
M  V30 1770 C 176.216 5.32745 -2.12063 0
M  V30 1771 N 175.712 6.38157 -2.6968 0
M  V30 1772 N 177.505 5.24299 -2.02651 0
M  V30 1773 H 169.656 1.38605 -1.60942 0
M  V30 1774 H 171.919 0.664661 -0.675965 0
M  V30 1775 H 171.625 2.85251 -2.0573 0
M  V30 1776 H 171.499 3.73251 -0.54439 0
M  V30 1777 H 173.886 2.95027 0.0654188 0
M  V30 1778 H 173.967 2.08808 -1.47759 0
M  V30 1779 H 173.611 4.29826 -2.70576 0
M  V30 1780 H 173.541 5.14156 -1.13804 0
M  V30 1781 H 176.032 3.58138 -1.20606 0
M  V30 1782 H 176.345 7.10029 -3.05087 0
M  V30 1783 H 174.69 6.38823 -2.73734 0
M  V30 1784 H 177.881 4.4086 -1.57353 0
M  V30 1785 H 178.054 6.01334 -2.41457 0
M  V30 1786 N 171.46 0.379036 1.52974 0
M  V30 1787 C 172.876 0.0285448 1.59574 0
M  V30 1788 C 173.076 -1.45542 1.39355 0
M  V30 1789 O 172.132 -2.2187 1.20541 0
M  V30 1790 C 173.445 0.496535 2.96572 0
M  V30 1791 C 174.993 0.451909 3.0972 0
M  V30 1792 C 175.468 0.895924 4.49152 0
M  V30 1793 N 176.959 0.851522 4.55306 0
M  V30 1794 C 177.694 1.16661 5.61407 0
M  V30 1795 N 177.19 1.55166 6.752 0
M  V30 1796 N 178.983 1.08853 5.51459 0
M  V30 1797 H 171.134 1.34525 1.64367 0
M  V30 1798 H 173.397 0.550733 0.771619 0
M  V30 1799 H 173.103 1.53258 3.16552 0
M  V30 1800 H 172.977 -0.109802 3.7704 0
M  V30 1801 H 175.364 -0.575029 2.89443 0
M  V30 1802 H 175.445 1.09392 2.3123 0
M  V30 1803 H 175.089 1.92104 4.70168 0
M  V30 1804 H 175.019 0.23103 5.26093 0
M  V30 1805 H 177.51 0.568038 3.73606 0
M  V30 1806 H 177.823 1.776 7.52116 0
M  V30 1807 H 176.168 1.59044 6.76557 0
M  V30 1808 H 179.359 0.786803 4.6144 0
M  V30 1809 H 179.532 1.33742 6.34048 0
M  V30 1810 N 172.938 -1.57226 0.108567 0
M  V30 1811 C 174.186 -1.94448 -0.550853 0
M  V30 1812 C 174.507 -0.992074 -1.67878 0
M  V30 1813 O 173.777 -0.0465 -1.95845 0
M  V30 1814 H 172.357 -0.717897 -0.206479 0
M  V30 1815 H 175.019 -1.94112 0.175062 0
M  V30 1816 H 174.115 -2.97218 -0.952259 0
M  V30 1817 N 174.416 0.165178 -1.56732 0
M  V30 1818 C 175.379 1.18822 -1.95995 0
M  V30 1819 C 176.379 1.3685 -0.84431 0
M  V30 1820 O 177.569 1.34152 -1.11126 0
M  V30 1821 C 174.701 2.5521 -2.26011 0
M  V30 1822 H 175.894 0.851825 -2.87548 0
M  V30 1823 H 173.447 0.407857 -1.50885 0
M  V30 1824 H 174.182 2.93852 -1.37191 0
M  V30 1825 H 173.967 2.43489 -3.07336 0
M  V30 1826 H 175.457 3.28927 -2.57288 0
M  V30 1827 N 175.894 1.51508 0.433938 0
M  V30 1828 C 177.31 1.39759 0.770682 0
M  V30 1829 C 177.51 0.482594 1.95636 0
M  V30 1830 O 176.566 -0.0609691 2.52426 0
M  V30 1831 C 177.879 2.81851 1.04787 0
M  V30 1832 C 179.427 2.91025 1.1521 0
M  V30 1833 C 179.902 4.34032 1.46219 0
M  V30 1834 N 181.393 4.37154 1.53136 0
M  V30 1835 C 182.128 5.4484 1.78709 0
M  V30 1836 N 181.624 6.62682 2.02051 0
M  V30 1837 N 183.417 5.32324 1.80519 0
M  V30 1838 H 175.568 2.09548 -0.346892 0
M  V30 1839 H 177.831 0.943446 -0.0928074 0
M  V30 1840 H 177.537 3.50815 0.249304 0
M  V30 1841 H 177.411 3.21386 1.97461 0
M  V30 1842 H 179.798 2.22257 1.94128 0
M  V30 1843 H 179.879 2.54983 0.204281 0
M  V30 1844 H 179.523 5.03351 0.678274 0
M  V30 1845 H 179.453 4.6759 2.42212 0
M  V30 1846 H 181.944 3.52197 1.36987 0
M  V30 1847 H 182.257 7.40543 2.20943 0
M  V30 1848 H 180.602 6.65791 1.99366 0
M  V30 1849 H 183.793 4.39246 1.61805 0
M  V30 1850 H 183.966 6.16328 2.00111 0
M  V30 1851 N 177.372 -0.689602 1.41712 0
M  V30 1852 C 178.788 -1.00093 1.24312 0
M  V30 1853 C 178.988 -2.01036 0.136729 0
M  V30 1854 O 178.044 -2.47562 -0.496918 0
M  V30 1855 C 179.357 -1.51985 2.59463 0
M  V30 1856 C 180.905 -1.63838 2.66695 0
M  V30 1857 C 181.38 -2.1913 4.02177 0
M  V30 1858 N 182.871 -2.26483 4.04054 0
M  V30 1859 C 183.606 -2.70306 5.0569 0
M  V30 1860 N 183.102 -3.13691 6.17713 0
M  V30 1861 N 184.895 -2.69923 4.9305 0
M  V30 1862 H 177.046 -0.0210029 2.1239 0
M  V30 1863 H 179.309 -0.0718733 0.945272 0
M  V30 1864 H 179.015 -0.85269 3.41207 0
M  V30 1865 H 178.889 -2.50103 2.82362 0
M  V30 1866 H 181.276 -2.29664 1.85306 0
M  V30 1867 H 181.357 -0.642492 2.476 0
M  V30 1868 H 181.001 -1.53918 4.84016 0
M  V30 1869 H 180.931 -3.19482 4.18615 0
M  V30 1870 H 183.422 -1.95874 3.23174 0
M  V30 1871 H 183.735 -3.45773 6.9113 0
M  V30 1872 H 182.08 -3.11585 6.21241 0
M  V30 1873 H 185.271 -2.35382 4.04614 0
M  V30 1874 H 185.444 -3.03758 5.72394 0
M  V30 1875 N 178.85 -1.27639 -0.924453 0
M  V30 1876 C 180.096 -1.15345 -1.67532 0
M  V30 1877 C 180.451 0.297096 -1.90092 0
M  V30 1878 O 179.744 1.21374 -1.48253 0
M  V30 1879 C 179.938 -1.87407 -3.04325 0
M  V30 1880 C 179.767 -3.3932 -2.95114 0
M  V30 1881 C 178.537 -4.08644 -2.97218 0
M  V30 1882 C 180.735 -4.35242 -2.73987 0
M  V30 1883 N 178.717 -5.47102 -2.78482 0
M  V30 1884 C 180.088 -5.6099 -2.63988 0
M  V30 1885 C 182.143 -4.25294 -2.589 0
M  V30 1886 C 180.846 -6.77924 -2.40442 0
M  V30 1887 C 182.872 -5.41952 -2.36731 0
M  V30 1888 C 182.234 -6.66658 -2.27478 0
M  V30 1889 H 178.333 -0.47696 -0.619704 0
M  V30 1890 H 180.917 -1.6115 -1.09265 0
M  V30 1891 H 179.088 -1.44053 -3.60699 0
M  V30 1892 H 180.82 -1.6759 -3.68369 0
M  V30 1893 H 177.575 -3.60136 -3.07569 0
M  V30 1894 H 177.999 -6.19852 -2.72236 0
M  V30 1895 H 182.641 -3.29598 -2.64811 0
M  V30 1896 H 180.359 -7.73699 -2.3327 0
M  V30 1897 H 183.945 -5.36137 -2.25938 0
M  V30 1898 H 182.825 -7.55405 -2.10555 0
M  V30 1899 N 180.328 1.1314 -1.09713 0
M  V30 1900 C 181.744 1.36477 -0.827423 0
M  V30 1901 C 181.944 1.93654 0.556817 0
M  V30 1902 O 181 2.15791 1.31112 0
M  V30 1903 C 182.313 2.31334 -1.92106 0
M  V30 1904 C 183.861 2.44943 -1.94864 0
M  V30 1905 C 184.336 3.4311 -3.0338 0
M  V30 1906 N 185.827 3.50662 -3.02639 0
M  V30 1907 C 186.562 4.2651 -3.83246 0
M  V30 1908 N 186.058 5.05485 -4.73768 0
M  V30 1909 N 187.851 4.2184 -3.71493 0
M  V30 1910 H 180.002 0.743807 -1.9895 0
M  V30 1911 H 182.265 0.389823 -0.864143 0
M  V30 1912 H 181.971 1.96483 -2.91698 0
M  V30 1913 H 181.845 3.31381 -1.80184 0
M  V30 1914 H 184.232 2.79079 -0.959099 0
M  V30 1915 H 184.313 1.4481 -2.10864 0
M  V30 1916 H 183.957 3.09704 -4.02549 0
M  V30 1917 H 183.887 4.43055 -2.84622 0
M  V30 1918 H 186.378 2.94315 -2.37039 0
M  V30 1919 H 186.691 5.60675 -5.3185 0
M  V30 1920 H 185.036 5.04708 -4.77802 0
M  V30 1921 H 188.227 3.5922 -3.00131 0
M  V30 1922 H 188.4 4.80697 -4.3455 0
M  V30 1923 N 181.806 0.884767 1.30421 0
M  V30 1924 C 182.753 0.349642 2.28136 0
M  V30 1925 C 183.723 -0.560061 1.56373 0
M  V30 1926 O 184.908 -0.488524 1.8444 0
M  V30 1927 C 182.048 -0.42999 3.42411 0
M  V30 1928 C 181.161 0.508907 4.28992 0
M  V30 1929 C 180.296 -0.286301 5.30428 0
M  V30 1930 C 179.335 0.648079 6.08659 0
M  V30 1931 N 178.472 -0.111792 7.02011 0
M  V30 1932 H 183.312 1.18807 2.73293 0
M  V30 1933 H 180.849 0.597231 1.3443 0
M  V30 1934 H 182.807 -0.897923 4.07423 0
M  V30 1935 H 181.437 -1.23299 2.98324 0
M  V30 1936 H 180.489 1.09533 3.64289 0
M  V30 1937 H 181.801 1.22475 4.8353 0
M  V30 1938 H 180.955 -0.816098 6.01186 0
M  V30 1939 H 179.694 -1.03536 4.76583 0
M  V30 1940 H 178.699 1.18951 5.36778 0
M  V30 1941 H 179.924 1.39623 6.64592 0
M  V30 1942 H 177.87 -0.843395 6.50556 0
M  V30 1943 H 177.787 0.544429 7.54037 0
M  V30 1944 H 179.055 -0.622339 7.77012 0
M  V30 1945 N 183.284 -1.43765 0.645699 0
M  V30 1946 C 184.214 -2.33471 -0.0370477 0
M  V30 1947 C 185.195 -1.49042 -0.819779 0
M  V30 1948 O 186.38 -1.77726 -0.782758 0
M  V30 1949 C 183.51 -3.32311 -1.0093 0
M  V30 1950 C 182.464 -4.2667 -0.337201 0
M  V30 1951 C 181.79 -5.1549 -1.42037 0
M  V30 1952 C 183.09 -5.16657 0.765706 0
M  V30 1953 H 184.784 -2.90809 0.712069 0
M  V30 1954 H 182.33 -1.39834 0.343876 0
M  V30 1955 H 184.283 -3.9396 -1.49578 0
M  V30 1956 H 183.007 -2.73213 -1.78948 0
M  V30 1957 H 181.666 -3.66374 0.128771 0
M  V30 1958 H 181.314 -4.52735 -2.1918 0
M  V30 1959 H 181.014 -5.79438 -0.975966 0
M  V30 1960 H 182.538 -5.80012 -1.90838 0
M  V30 1961 H 183.952 -5.72158 0.361702 0
M  V30 1962 H 182.349 -5.89286 1.13413 0
M  V30 1963 H 183.419 -4.56796 1.62683 0
M  V30 1964 N 184.763 -0.387143 -1.52771 0
M  V30 1965 C 185.993 0.195585 -2.05672 0
M  V30 1966 C 186.401 1.41241 -1.25887 0
M  V30 1967 O 185.744 1.81265 -0.298081 0
M  V30 1968 C 185.806 0.632327 -3.53895 0
M  V30 1969 C 185.47 -0.470739 -4.54569 0
M  V30 1970 C 186.467 -1.32746 -5.02667 0
M  V30 1971 C 184.152 -0.637151 -4.98243 0
M  V30 1972 C 186.146 -2.33574 -5.93061 0
M  V30 1973 C 183.833 -1.64877 -5.88438 0
M  V30 1974 C 184.831 -2.49649 -6.35739 0
M  V30 1975 O 184.519 -3.49082 -7.24153 0
M  V30 1976 H 184.251 0.033658 -0.675162 0
M  V30 1977 H 186.805 -0.550221 -1.97893 0
M  V30 1978 H 185.035 1.43008 -3.59285 0
M  V30 1979 H 186.724 1.14048 -3.89548 0
M  V30 1980 H 187.49 -1.21019 -4.69659 0
M  V30 1981 H 183.369 0.0129567 -4.60998 0
M  V30 1982 H 186.913 -2.99777 -6.29904 0
M  V30 1983 H 182.81 -1.76643 -6.2086 0
M  V30 1984 H 183.578 -3.45065 -7.42208 0
M  V30 1985 N 186.241 1.57166 -0.116904 0
M  V30 1986 C 187.657 1.5779 0.239693 0
M  V30 1987 C 187.857 1.1295 1.66867 0
M  V30 1988 O 186.913 0.81592 2.38954 0
M  V30 1989 C 188.226 3.00699 0.00828202 0
M  V30 1990 C 189.774 3.12912 0.0743438 0
M  V30 1991 C 190.249 4.57817 -0.129348 0
M  V30 1992 N 191.74 4.63139 -0.075247 0
M  V30 1993 C 192.475 5.73023 -0.207788 0
M  V30 1994 N 191.971 6.91665 -0.396382 0
M  V30 1995 N 193.764 5.61906 -0.14751 0
M  V30 1996 H 185.915 1.84615 -1.05029 0
M  V30 1997 H 188.178 0.85311 -0.41341 0
M  V30 1998 H 187.884 3.37784 -0.979531 0
M  V30 1999 H 187.758 3.69848 0.741077 0
M  V30 2000 H 190.145 2.75686 1.05268 0
M  V30 2001 H 190.226 2.4631 -0.690297 0
M  V30 2002 H 189.87 4.95742 -1.10465 0
M  V30 2003 H 189.8 5.22507 0.655253 0
M  V30 2004 H 192.291 3.7784 0.0670898 0
M  V30 2005 H 192.604 7.71255 -0.488437 0
M  V30 2006 H 190.949 6.93654 -0.432329 0
M  V30 2007 H 194.14 4.681 -0.00115036 0
M  V30 2008 H 194.313 6.47501 -0.254247 0
M  V30 2009 N 187.719 -0.156864 1.56817 0
M  V30 2010 C 188.682 -1.17781 1.96622 0
M  V30 2011 C 189.682 -1.36401 0.851555 0
M  V30 2012 O 190.872 -1.33561 1.11836 0
M  V30 2013 C 188.004 -2.54008 2.27361 0
M  V30 2014 H 189.197 -0.836564 2.87996 0
M  V30 2015 H 186.75 -0.39985 1.51099 0
M  V30 2016 H 187.485 -2.9312 1.38748 0
M  V30 2017 H 187.27 -2.41856 3.08623 0
M  V30 2018 H 188.76 -3.27558 2.59029 0
M  V30 2019 N 189.197 -1.51736 -0.425897 0
M  V30 2020 C 190.145 -1.74464 -1.53834 0
M  V30 2021 C 191.139 -0.611241 -1.57988 0
M  V30 2022 O 192.345 -0.792899 -1.61596 0
M  V30 2023 H 188.72 -0.551437 -0.511293 0
M  V30 2024 H 190.691 -2.67694 -1.31843 0
M  V30 2025 C 189.44 -1.8972 -2.91379 0
M  V30 2026 H 188.763 -2.76344 -2.88919 0
M  V30 2027 H 190.203 -2.09629 -3.68553 0
M  V30 2028 C 188.662 -0.65992 -3.30374 0
M  V30 2029 O 189.192 0.180083 -4.01296 0
M  V30 2030 N 187.398 -0.500677 -2.86254 0
M  V30 2031 H 186.945 -1.18532 -2.28709 0
M  V30 2032 H 186.903 0.325903 -3.12706 0
M  V30 2033 N 190.675 0.682077 -1.42076 0
M  V30 2034 C 191.923 1.4393 -1.41876 0
M  V30 2035 C 192.244 1.94971 -0.0335599 0
M  V30 2036 O 191.514 1.72591 0.926773 0
M  V30 2037 H 190.094 0.534085 -0.522267 0
M  V30 2038 H 192.756 0.806427 -1.77434 0
M  V30 2039 H 191.852 2.29588 -2.11414 0
M  V30 2040 N 192.153 1.28127 0.917671 0
M  V30 2041 C 193.103 1.08361 2.00604 0
M  V30 2042 C 194.087 0.00847518 1.60898 0
M  V30 2043 O 195.279 0.228167 1.75523 0
M  V30 2044 C 192.408 0.743376 3.35155 0
M  V30 2045 C 191.494 1.85716 3.81275 0
M  V30 2046 N 191.885 3.09822 3.99805 0
M  V30 2047 C 190.183 1.74612 4.10398 0
M  V30 2048 C 190.884 3.82368 4.38372 0
M  V30 2049 N 189.86 3.10192 4.4641 0
M  V30 2050 H 193.662 2.02531 2.12975 0
M  V30 2051 H 191.176 1.18989 1.10523 0
M  V30 2052 H 193.173 0.582859 4.12805 0
M  V30 2053 H 191.833 -0.190595 3.2414 0
M  V30 2054 H 192.844 3.45475 3.85833 0
M  V30 2055 H 189.521 0.883657 4.08041 0
M  V30 2056 H 190.911 4.89082 4.60704 0
M  V30 2057 N 193.631 -1.12557 1.10312 0
M  V30 2058 C 194.561 -2.20341 0.772798 0
M  V30 2059 C 195.542 -1.68198 -0.25365 0
M  V30 2060 O 196.727 -1.93831 -0.119699 0
M  V30 2061 C 193.857 -3.46709 0.202443 0
M  V30 2062 C 192.811 -4.11996 1.15943 0
M  V30 2063 C 192.137 -5.328 0.450345 0
M  V30 2064 C 193.437 -4.5828 2.50552 0
M  V30 2065 H 195.131 -2.48229 1.674 0
M  V30 2066 H 192.677 -1.19308 0.806326 0
M  V30 2067 H 194.63 -4.2138 -0.0407752 0
M  V30 2068 H 193.354 -3.18245 -0.734001 0
M  V30 2069 H 192.013 -3.39305 1.38808 0
M  V30 2070 H 191.661 -5.00602 -0.490531 0
M  V30 2071 H 191.361 -5.7743 1.08851 0
M  V30 2072 H 192.885 -6.10219 0.215642 0
M  V30 2073 H 194.299 -5.2433 2.31843 0
M  V30 2074 H 192.696 -5.13683 3.10242 0
M  V30 2075 H 193.766 -3.72329 3.10643 0
M  V30 2076 N 195.109 -0.891671 -1.2995 0
M  V30 2077 C 196.356 -0.513501 -1.95881 0
M  V30 2078 C 196.684 0.938655 -1.70351 0
M  V30 2079 O 195.939 1.67936 -1.00478 0
M  V30 2080 C 196.238 -0.742868 -3.49594 0
M  V30 2081 C 195.904 -2.17114 -3.95186 0
M  V30 2082 C 194.566 -2.56169 -4.07346 0
M  V30 2083 C 196.918 -3.10162 -4.18866 0
M  V30 2084 C 194.246 -3.87469 -4.4055 0
M  V30 2085 C 196.598 -4.41001 -4.53542 0
M  V30 2086 C 195.262 -4.79941 -4.63911 0
M  V30 2087 H 194.532 -0.187903 -0.71678 0
M  V30 2088 H 197.179 -1.1288 -1.54694 0
M  V30 2089 H 195.484 -0.044586 -3.91775 0
M  V30 2090 H 197.181 -0.429767 -3.9869 0
M  V30 2091 H 193.771 -1.85801 -3.86233 0
M  V30 2092 H 197.955 -2.81206 -4.08946 0
M  V30 2093 H 193.211 -4.17371 -4.46779 0
M  V30 2094 H 197.385 -5.13133 -4.70815 0
M  V30 2095 H 195.012 -5.81719 -4.89395 0
M  V30 2096 N 196.587 1.43421 -0.653314 0
M  V30 2097 C 197.519 2.29071 0.0769134 0
M  V30 2098 C 198.532 1.42513 0.787017 0
M  V30 2099 O 199.721 1.66449 0.644757 0
M  V30 2100 C 196.821 3.19436 1.13199 0
M  V30 2101 C 195.994 4.34533 0.500006 0
M  V30 2102 C 195.053 5.05771 1.45198 0
M  V30 2103 O 194.079 5.61037 0.960538 0
M  V30 2104 N 195.281 5.0928 2.78594 0
M  V30 2105 H 198.046 2.92382 -0.658235 0
M  V30 2106 H 195.607 1.54112 -0.496104 0
M  V30 2107 H 197.599 3.63958 1.76964 0
M  V30 2108 H 196.169 2.57724 1.7691 0
M  V30 2109 H 195.389 3.92925 -0.316738 0
M  V30 2110 H 196.677 5.08766 0.0588345 0
M  V30 2111 H 196.075 4.65751 3.2108 0
M  V30 2112 H 194.632 5.57519 3.37662 0
M  V30 2113 N 198.065 0.39524 1.52563 0
M  V30 2114 C 199.028 -0.425001 2.25225 0
M  V30 2115 C 200.028 -0.985266 1.27079 0
M  V30 2116 O 201.218 -0.866332 1.5113 0
M  V30 2117 C 198.35 -1.59686 3.01186 0
M  V30 2118 H 199.543 0.211233 2.99155 0
M  V30 2119 H 197.096 0.147472 1.55603 0
M  V30 2120 H 197.831 -2.27035 2.31572 0
M  V30 2121 H 197.616 -1.20176 3.73229 0
M  V30 2122 H 199.106 -2.17743 3.5634 0
M  V30 2123 N 199.544 -1.57102 0.125237 0
M  V30 2124 C 200.491 -2.15641 -0.822655 0
M  V30 2125 C 201.461 -1.08313 -1.25927 0
M  V30 2126 O 202.646 -1.36251 -1.33567 0
M  V30 2127 C 199.786 -2.76504 -2.06494 0
M  V30 2128 C 198.899 -3.98158 -1.67612 0
M  V30 2129 C 198.034 -4.47088 -2.86854 0
M  V30 2130 C 197.073 -5.6126 -2.44242 0
M  V30 2131 N 196.21 -6.04905 -3.56419 0
M  V30 2132 H 201.05 -2.96313 -0.316625 0
M  V30 2133 H 198.587 -1.46388 -0.144588 0
M  V30 2134 H 200.545 -3.09925 -2.79289 0
M  V30 2135 H 199.175 -1.98512 -2.54545 0
M  V30 2136 H 198.227 -3.70858 -0.846661 0
M  V30 2137 H 199.539 -4.80934 -1.32301 0
M  V30 2138 H 198.693 -4.82451 -3.67867 0
M  V30 2139 H 197.432 -3.63275 -3.25396 0
M  V30 2140 H 196.437 -5.25495 -1.61663 0
M  V30 2141 H 197.662 -6.46843 -2.0681 0
M  V30 2142 H 195.608 -5.24032 -3.94623 0
M  V30 2143 H 195.525 -6.82552 -3.25051 0
M  V30 2144 H 196.793 -6.44907 -4.37853 0
M  V30 2145 N 201.022 0.148545 -1.56898 0
M  V30 2146 C 202.438 0.501131 -1.51528 0
M  V30 2147 C 202.638 1.83458 -0.833399 0
M  V30 2148 O 201.694 2.49259 -0.40328 0
M  V30 2149 C 203.007 0.512864 -2.96294 0
M  V30 2150 C 204.555 0.598487 -3.07225 0
M  V30 2151 C 205.03 0.640897 -4.53494 0
M  V30 2152 N 206.521 0.703163 -4.57832 0
M  V30 2153 C 207.256 0.756935 -5.68382 0
M  V30 2154 N 206.752 0.770147 -6.88506 0
M  V30 2155 N 208.545 0.797698 -5.56411 0
M  V30 2156 H 200.696 -0.725532 -1.99624 0
M  V30 2157 H 202.959 -0.264358 -0.910395 0
M  V30 2158 H 202.665 -0.398691 -3.49433 0
M  V30 2159 H 202.539 1.35133 -3.52163 0
M  V30 2160 H 204.926 1.50046 -2.54106 0
M  V30 2161 H 205.007 -0.267093 -2.54402 0
M  V30 2162 H 204.651 -0.256915 -5.0725 0
M  V30 2163 H 204.581 1.52295 -5.04097 0
M  V30 2164 H 207.072 0.700314 -3.71354 0
M  V30 2165 H 207.385 0.812983 -7.68512 0
M  V30 2166 H 205.73 0.738049 -6.9107 0
M  V30 2167 H 208.921 0.784535 -4.61479 0
M  V30 2168 H 209.094 0.83614 -6.42583 0
M  V30 2169 N 202.5 1.5196 0.417844 0
M  V30 2170 C 203.747 1.65591 1.16559 0
M  V30 2171 C 204.075 0.381565 1.90721 0
M  V30 2172 O 203.33 -0.635156 1.85106 0
M  V30 2173 C 203.629 2.82269 2.19223 0
M  V30 2174 C 203.295 4.20819 1.61933 0
M  V30 2175 C 201.957 4.58506 1.46033 0
M  V30 2176 C 204.309 5.07196 1.20008 0
M  V30 2177 C 201.637 5.80257 0.867113 0
M  V30 2178 C 203.989 6.29544 0.621086 0
M  V30 2179 C 202.653 6.65987 0.449144 0
M  V30 2180 H 201.923 0.605939 0.42652 0
M  V30 2181 H 204.57 1.86041 0.45397 0
M  V30 2182 H 202.875 2.56118 2.96498 0
M  V30 2183 H 204.572 2.90012 2.76936 0
M  V30 2184 H 201.162 3.91116 1.7529 0
M  V30 2185 H 205.346 4.7867 1.31105 0
M  V30 2186 H 200.602 6.07124 0.721833 0
M  V30 2187 H 204.776 6.95805 0.287798 0
M  V30 2188 H 202.403 7.60199 -0.012632 0
M  V30 2189 N 203.978 -0.674533 1.42435 0
M  V30 2190 C 204.926 -1.80934 1.46169 0
M  V30 2191 C 205.92 -1.66006 0.3374 0
M  V30 2192 O 207.126 -1.72611 0.510425 0
M  V30 2193 H 203.501 -0.596594 0.457798 0
M  V30 2194 H 205.472 -1.74903 2.41767 0
M  V30 2195 C 204.221 -3.19088 1.38123 0
M  V30 2196 H 203.544 -3.31203 2.23931 0
M  V30 2197 H 204.984 -3.9851 1.44797 0
M  V30 2198 C 203.443 -3.36763 0.0960517 0
M  V30 2199 O 203.973 -3.92581 -0.851073 0
M  V30 2200 N 202.179 -2.90597 0.0131186 0
M  V30 2201 H 201.726 -2.45359 0.784639 0
M  V30 2202 H 201.684 -3.028 -0.846133 0
M  V30 2203 N 205.456 -1.28612 -0.910864 0
M  V30 2204 C 206.872 -1.06381 -1.18976 0
M  V30 2205 C 207.072 0.191998 -2.00583 0
M  V30 2206 O 206.128 0.892869 -2.36187 0
M  V30 2207 C 207.441 -2.31295 -1.92154 0
M  V30 2208 C 208.989 -2.36503 -2.05025 0
M  V30 2209 C 209.464 -3.61191 -2.81612 0
M  V30 2210 N 210.955 -3.61847 -2.89172 0
M  V30 2211 C 211.69 -4.55004 -3.4894 0
M  V30 2212 N 211.186 -5.58482 -4.09963 0
M  V30 2213 N 212.979 -4.42594 -3.46506 0
M  V30 2214 H 205.13 -2.09221 -0.366094 0
M  V30 2215 H 207.393 -0.921003 -0.224629 0
M  V30 2216 H 207.099 -3.228 -1.39618 0
M  V30 2217 H 206.973 -2.37934 -2.9269 0
M  V30 2218 H 209.36 -1.45494 -2.5674 0
M  V30 2219 H 209.441 -2.33857 -1.03657 0
M  V30 2220 H 209.085 -4.52545 -2.30576 0
M  V30 2221 H 209.015 -3.61092 -3.83302 0
M  V30 2222 H 211.506 -2.87022 -2.45819 0
M  V30 2223 H 211.819 -6.25704 -4.53557 0
M  V30 2224 H 210.164 -5.62305 -4.08459 0
M  V30 2225 H 213.355 -3.60953 -2.98045 0
M  V30 2226 H 213.528 -5.15381 -3.92793 0
M  V30 2227 N 206.934 1.1197 -1.10907 0
M  V30 2228 C 208.35 1.35591 -0.841852 0
M  V30 2229 C 208.55 1.94233 0.536246 0
M  V30 2230 O 207.606 2.1717 1.28816 0
M  V30 2231 C 208.919 2.29284 -1.94549 0
M  V30 2232 C 210.467 2.42862 -1.97451 0
M  V30 2233 C 210.942 3.39873 -3.07002 0
M  V30 2234 N 212.433 3.47433 -3.06341 0
M  V30 2235 C 213.168 4.22421 -3.87748 0
M  V30 2236 N 212.664 5.00432 -4.79103 0
M  V30 2237 N 214.457 4.17876 -3.75946 0
M  V30 2238 H 206.608 0.722664 -1.99728 0
M  V30 2239 H 208.871 0.380635 -0.868229 0
M  V30 2240 H 208.577 1.93378 -2.93765 0
M  V30 2241 H 208.451 3.29452 -1.83688 0
M  V30 2242 H 210.838 2.78046 -0.988645 0
M  V30 2243 H 210.919 1.42566 -2.12388 0
M  V30 2244 H 210.563 3.05417 -4.05811 0
M  V30 2245 H 210.493 4.40011 -2.89306 0
M  V30 2246 H 212.984 2.91784 -2.40147 0
M  V30 2247 H 213.297 5.55002 -5.37766 0
M  V30 2248 H 211.642 4.99612 -4.83128 0
M  V30 2249 H 214.833 3.56016 -3.03924 0
M  V30 2250 H 215.006 4.76061 -4.39624 0
M  V30 2251 N 208.412 0.89855 1.29475 0
M  V30 2252 C 209.375 0.380272 2.26023 0
M  V30 2253 C 210.375 -0.484891 1.53315 0
M  V30 2254 O 211.565 -0.290108 1.71767 0
M  V30 2255 C 208.697 -0.45651 3.3783 0
M  V30 2256 H 209.89 1.23295 2.73383 0
M  V30 2257 H 207.443 0.676589 1.40897 0
M  V30 2258 H 208.178 -1.32922 2.95808 0
M  V30 2259 H 207.963 0.163393 3.91759 0
M  V30 2260 H 209.453 -0.810466 4.0966 0
M  V30 2261 N 209.89 -1.43072 0.660911 0
M  V30 2262 C 211.12 -2.05769 0.185153 0
M  V30 2263 C 211.528 -1.49668 -1.15742 0
M  V30 2264 O 210.871 -0.625649 -1.72717 0
M  V30 2265 C 210.933 -3.59489 0.0278237 0
M  V30 2266 C 210.597 -4.38212 1.2969 0
M  V30 2267 C 211.594 -4.69772 2.22734 0
M  V30 2268 C 209.279 -4.7809 1.54063 0
M  V30 2269 C 211.273 -5.40129 3.38437 0
M  V30 2270 C 208.96 -5.4819 2.70058 0
M  V30 2271 C 209.958 -5.79132 3.62071 0
M  V30 2272 O 209.646 -6.47798 4.76039 0
M  V30 2273 H 209.378 -0.669873 0.0908086 0
M  V30 2274 H 211.932 -1.84436 0.90402 0
M  V30 2275 H 210.162 -3.79426 -0.746489 0
M  V30 2276 H 211.851 -4.03862 -0.406275 0
M  V30 2277 H 212.617 -4.39476 2.05149 0
M  V30 2278 H 208.496 -4.53408 0.833215 0
M  V30 2279 H 212.04 -5.64198 4.10277 0
M  V30 2280 H 207.937 -5.77902 2.87574 0
M  V30 2281 H 208.705 -6.66283 4.75404 0
M  V30 2282 N 211.368 -0.403325 -1.52352 0
M  V30 2283 C 212.608 0.173946 -2.03659 0
M  V30 2284 C 212.972 1.42869 -1.28267 0
M  V30 2285 O 214.173 2.08403 -1.69769 0
M  V30 2286 C 212.444 0.421478 -3.54906 0
M  V30 2287 S 214.003 0.967027 -4.28012 0
M  V30 2288 H 210.821 0.0477461 -0.709395 0
M  V30 2289 H 213.423 -0.554906 -1.87459 0
M  V30 2290 H 212.127 -0.498616 -4.0736 0
M  V30 2291 H 211.658 1.17837 -3.75337 0
M  V30 2292 H 213.673 2.24812 -4.4235 0
M  V30 2293 N 212.846 1.57033 -0.133567 0
M  V30 2294 C 214.094 1.953 0.519848 0
M  V30 2295 C 214.415 1.01866 1.66278 0
M  V30 2296 O 213.685 0.0776513 1.95746 0
M  V30 2297 H 212.265 0.721091 0.195032 0
M  V30 2298 H 214.927 1.93809 -0.205921 0
M  V30 2299 H 214.023 2.98695 0.904854 0
M  V30 2300 N 214.325 -0.140222 1.56975 0
M  V30 2301 C 215.257 -1.19818 1.95388 0
M  V30 2302 C 216.27 -1.38816 0.850525 0
M  V30 2303 O 217.459 -1.38267 1.12891 0
M  V30 2304 C 214.559 -2.56189 2.21857 0
M  V30 2305 C 213.732 -2.58077 3.5315 0
M  V30 2306 C 212.791 -3.76037 3.6808 0
M  V30 2307 O 211.817 -3.60598 4.40406 0
M  V30 2308 N 213.019 -4.93763 3.05251 0
M  V30 2309 H 215.784 -0.871609 2.86746 0
M  V30 2310 H 213.345 -0.32972 1.58507 0
M  V30 2311 H 215.337 -3.33623 2.2908 0
M  V30 2312 H 213.907 -2.81111 1.36731 0
M  V30 2313 H 213.127 -1.6651 3.57307 0
M  V30 2314 H 214.415 -2.56377 4.39486 0
M  V30 2315 H 213.813 -5.09209 2.46419 0
M  V30 2316 H 212.37 -5.68949 3.18026 0
M  V30 2317 N 215.803 -1.52179 -0.40978 0
M  V30 2318 C 217.043 -1.67882 -1.16597 0
M  V30 2319 C 217.407 -0.399795 -1.87791 0
M  V30 2320 O 218.608 -0.43292 -2.65291 0
M  V30 2321 C 216.879 -2.86662 -2.13448 0
M  V30 2322 S 218.438 -3.22843 -2.97183 0
M  V30 2323 H 215.256 -0.59118 -0.395002 0
M  V30 2324 H 217.858 -1.9017 -0.453373 0
M  V30 2325 H 216.562 -3.77998 -1.59831 0
M  V30 2326 H 216.093 -2.66645 -2.89247 0
M  V30 2327 H 218.108 -2.71415 -4.15389 0
M  V30 2328 N 217.281 0.66697 -1.42791 0
M  V30 2329 C 218.506 1.46004 -1.47301 0
M  V30 2330 C 218.931 1.87894 -0.0880317 0
M  V30 2331 O 218.289 1.56502 0.915253 0
M  V30 2332 C 218.337 2.68031 -2.41229 0
M  V30 2333 O 217.441 3.6659 -1.88906 0
M  V30 2334 H 216.782 0.43832 -0.49877 0
M  V30 2335 H 219.312 0.817391 -1.87563 0
M  V30 2336 H 219.322 3.1601 -2.58073 0
M  V30 2337 H 217.997 2.36883 -3.41847 0
M  V30 2338 H 216.574 3.25661 -1.81656 0
M  V30 2339 N 218.759 1.29093 0.90403 0
M  V30 2340 C 219.669 1.15727 2.0407 0
M  V30 2341 C 220.685 0.0815308 1.73809 0
M  V30 2342 O 221.861 0.292749 1.99261 0
M  V30 2343 C 218.926 0.830424 3.36608 0
M  V30 2344 C 217.987 1.98955 3.80415 0
M  V30 2345 C 217.22 1.6782 5.06628 0
M  V30 2346 O 217.443 0.597105 5.67266 0
M  V30 2347 O 216.377 2.52486 5.46383 0
M  V30 2348 H 220.203 2.11171 2.18267 0
M  V30 2349 H 217.788 1.08504 1.027 0
M  V30 2350 H 219.67 0.662521 4.16159 0
M  V30 2351 H 218.345 -0.0942678 3.23563 0
M  V30 2352 H 217.252 2.21267 3.01648 0
M  V30 2353 H 218.585 2.89529 3.98037 0
M  V30 2354 N 220.237 -1.11381 1.11499 0
M  V30 2355 C 221.653 -1.35143 0.849031 0
M  V30 2356 C 221.853 -1.94515 -0.525938 0
M  V30 2357 O 220.909 -2.1785 -1.27662 0
M  V30 2358 C 222.222 -2.28249 1.95762 0
M  V30 2359 C 223.77 -2.41812 1.98736 0
M  V30 2360 C 224.245 -3.3824 3.088 0
M  V30 2361 N 225.736 -3.45803 3.08179 0
M  V30 2362 C 226.471 -4.20358 3.89982 0
M  V30 2363 N 225.967 -4.97884 4.8175 0
M  V30 2364 N 227.76 -4.15877 3.78157 0
M  V30 2365 H 219.911 -0.712062 2.00109 0
M  V30 2366 H 222.174 -0.376025 0.870235 0
M  V30 2367 H 221.88 -1.91817 2.94787 0
M  V30 2368 H 221.754 -3.28473 1.85433 0
M  V30 2369 H 224.141 -2.77518 1.00338 0
M  V30 2370 H 224.222 -1.41437 2.13141 0
M  V30 2371 H 223.866 -3.03261 4.07425 0
M  V30 2372 H 223.796 -4.38471 2.91635 0
M  V30 2373 H 226.287 -2.90506 2.41691 0
M  V30 2374 H 226.6 -5.52142 5.40702 0
M  V30 2375 H 224.945 -4.97043 4.85771 0
M  V30 2376 H 228.136 -3.544 3.05808 0
M  V30 2377 H 228.309 -4.73723 4.42143 0
M  V30 2378 N 221.715 -0.905404 -1.28997 0
M  V30 2379 C 222.964 -0.530191 -1.94607 0
M  V30 2380 C 223.277 0.929185 -1.72121 0
M  V30 2381 O 224.483 1.41218 -2.31883 0
M  V30 2382 C 222.939 -0.897333 -3.48534 0
M  V30 2383 C 222.547 -2.37587 -3.79811 0
M  V30 2384 C 224.291 -0.592304 -4.20347 0
M  V30 2385 C 222.198 -2.68357 -5.27009 0
M  V30 2386 H 221.128 -0.194558 -0.728466 0
M  V30 2387 H 223.779 -1.10318 -1.46636 0
M  V30 2388 H 222.161 -0.253214 -3.9519 0
M  V30 2389 H 223.335 -3.06602 -3.43994 0
M  V30 2390 H 221.65 -2.6505 -3.2115 0
M  V30 2391 H 224.247 -0.798975 -5.28697 0
M  V30 2392 H 224.59 0.469474 -4.13644 0
M  V30 2393 H 225.123 -1.19452 -3.79442 0
M  V30 2394 H 221.862 -3.73355 -5.38782 0
M  V30 2395 H 221.382 -2.03971 -5.64053 0
M  V30 2396 H 223.061 -2.54922 -5.94663 0
M  V30 2397 N 223.193 1.4272 -0.668489 0
M  V30 2398 C 224.439 2.02443 -0.197076 0
M  V30 2399 C 224.794 1.51882 1.18109 0
M  V30 2400 O 224.087 0.708618 1.78015 0
M  V30 2401 C 224.281 3.57021 -0.164499 0
M  V30 2402 C 224.11 4.22583 -1.53797 0
M  V30 2403 C 222.88 4.58019 -2.13416 0
M  V30 2404 C 225.078 4.50588 -2.47941 0
M  V30 2405 N 223.06 5.08729 -3.4361 0
M  V30 2406 C 224.431 5.02782 -3.62782 0
M  V30 2407 C 226.486 4.32571 -2.46551 0
M  V30 2408 C 225.189 5.38852 -4.76478 0
M  V30 2409 C 227.215 4.69713 -3.59338 0
M  V30 2410 C 226.577 5.22053 -4.72906 0
M  V30 2411 H 222.676 0.773214 -0.116894 0
M  V30 2412 H 225.26 1.73673 -0.880108 0
M  V30 2413 H 223.431 3.85323 0.487925 0
M  V30 2414 H 225.163 4.03439 0.319207 0
M  V30 2415 H 221.918 4.43566 -1.65969 0
M  V30 2416 H 222.342 5.38521 -4.10273 0
M  V30 2417 H 226.984 3.91365 -1.59978 0
M  V30 2418 H 224.702 5.78993 -5.63731 0
M  V30 2419 H 228.288 4.57454 -3.59482 0
M  V30 2420 H 227.168 5.50258 -5.58736 0
M  V30 2421 N 224.671 0.411399 1.52136 0
M  V30 2422 C 225.919 -0.163322 2.01439 0
M  V30 2423 C 226.24 -1.45453 1.29879 0
M  V30 2424 O 225.51 -1.91225 0.4254 0
M  V30 2425 H 224.09 -0.0633447 0.744309 0
M  V30 2426 H 226.752 0.548161 1.87033 0
M  V30 2427 H 225.848 -0.357817 3.10042 0
M  V30 2428 N 226.149 -1.5696 0.141893 0
M  V30 2429 C 227.079 -2.19516 -0.795936 0
M  V30 2430 C 228.06 -1.14187 -1.26077 0
M  V30 2431 O 229.245 -1.42511 -1.31925 0
M  V30 2432 C 226.375 -2.81272 -2.03723 0
M  V30 2433 C 225.329 -3.92384 -1.70936 0
M  V30 2434 C 224.655 -4.41052 -3.02287 0
M  V30 2435 C 225.955 -5.13403 -0.959954 0
M  V30 2436 H 227.649 -2.98138 -0.274596 0
M  V30 2437 H 225.195 -1.43406 -0.130636 0
M  V30 2438 H 227.148 -3.237 -2.69808 0
M  V30 2439 H 225.872 -1.99973 -2.58221 0
M  V30 2440 H 224.531 -3.50566 -1.07232 0
M  V30 2441 H 224.179 -3.56582 -3.54765 0
M  V30 2442 H 223.879 -5.15993 -2.81114 0
M  V30 2443 H 225.403 -4.86146 -3.69451 0
M  V30 2444 H 226.817 -5.52706 -1.52279 0
M  V30 2445 H 225.214 -5.94073 -0.848357 0
M  V30 2446 H 226.284 -4.84875 0.0492434 0
M  V30 2447 N 227.627 0.131896 -1.57047 0
M  V30 2448 C 228.59 1.14638 -1.98471 0
M  V30 2449 C 229.59 1.35029 -0.873148 0
M  V30 2450 O 230.78 1.31764 -1.13946 0
M  V30 2451 C 227.912 2.50358 -2.31373 0
M  V30 2452 H 229.105 0.79064 -2.8929 0
M  V30 2453 H 226.658 0.375761 -1.51716 0
M  V30 2454 H 227.393 2.90876 -1.43393 0
M  V30 2455 H 227.178 2.36915 -3.12432 0
M  V30 2456 H 228.668 3.23395 -2.64207 0
M  V30 2457 N 229.106 1.52395 0.401703 0
M  V30 2458 C 230.522 1.41363 0.740864 0
M  V30 2459 C 230.722 0.523982 1.94568 0
M  V30 2460 O 229.778 -0.00741204 2.52499 0
M  V30 2461 C 231.091 2.84011 0.987847 0
M  V30 2462 C 232.639 2.93404 1.09011 0
M  V30 2463 C 233.114 4.37036 1.3698 0
M  V30 2464 N 234.605 4.40304 1.43829 0
M  V30 2465 C 235.34 5.48508 1.67112 0
M  V30 2466 N 234.836 6.66819 1.87949 0
M  V30 2467 N 236.629 5.36034 1.69187 0
M  V30 2468 H 228.78 2.08765 -0.391262 0
M  V30 2469 H 231.043 0.941265 -0.112798 0
M  V30 2470 H 230.749 3.51265 0.174835 0
M  V30 2471 H 230.623 3.25502 1.906 0
M  V30 2472 H 233.01 2.26325 1.8937 0
M  V30 2473 H 233.091 2.55359 0.15015 0
M  V30 2474 H 232.735 5.04676 0.571353 0
M  V30 2475 H 232.665 4.72623 2.3224 0
M  V30 2476 H 235.156 3.55024 1.29486 0
M  V30 2477 H 235.469 7.45063 2.05185 0
M  V30 2478 H 233.814 6.6987 1.85199 0
M  V30 2479 H 237.005 4.42579 1.52451 0
M  V30 2480 H 237.178 6.20434 1.86993 0
M  V30 2481 N 230.584 -0.659388 1.43143 0
M  V30 2482 C 231.516 -1.7849 1.43784 0
M  V30 2483 C 232.529 -1.5932 0.334787 0
M  V30 2484 O 233.718 -1.68155 0.598842 0
M  V30 2485 C 230.818 -3.15828 1.22906 0
M  V30 2486 C 229.991 -3.61711 2.45934 0
M  V30 2487 C 229.05 -4.77831 2.20371 0
M  V30 2488 O 228.076 -4.87586 2.93681 0
M  V30 2489 N 229.278 -5.67611 1.21647 0
M  V30 2490 H 232.043 -1.7842 2.40803 0
M  V30 2491 H 229.604 -0.84302 1.3822 0
M  V30 2492 H 231.596 -3.91189 1.03697 0
M  V30 2493 H 230.166 -3.10707 0.343542 0
M  V30 2494 H 229.386 -2.76861 2.80609 0
M  V30 2495 H 230.674 -3.89112 3.27825 0
M  V30 2496 H 230.072 -5.62397 0.610449 0
M  V30 2497 H 228.629 -6.42719 1.08423 0
M  V30 2498 N 232.062 -1.29571 -0.897171 0
M  V30 2499 C 233.31 -1.17456 -1.64464 0
M  V30 2500 C 233.631 0.273698 -1.9307 0
M  V30 2501 O 232.901 1.18684 -1.55855 0
M  V30 2502 H 231.481 -0.431706 -0.609622 0
M  V30 2503 H 234.143 -1.62531 -1.07562 0
M  V30 2504 H 233.239 -1.72648 -2.59998 0
M  V30 2505 N 233.54 1.10788 -1.12088 0
M  V30 2506 C 234.77 1.86191 -0.895351 0
M  V30 2507 C 235.178 1.80763 0.558702 0
M  V30 2508 O 234.521 1.19188 1.39785 0
M  V30 2509 C 234.583 3.35659 -1.28737 0
M  V30 2510 C 234.247 3.64849 -2.75198 0
M  V30 2511 C 235.244 3.61757 -3.734 0
M  V30 2512 C 232.929 3.93641 -3.12013 0
M  V30 2513 C 234.923 3.87045 -5.06434 0
M  V30 2514 C 232.61 4.18585 -4.4523 0
M  V30 2515 C 233.608 4.15277 -5.42249 0
M  V30 2516 O 233.296 4.3959 -6.73065 0
M  V30 2517 H 233.028 0.595425 -0.32007 0
M  V30 2518 H 235.582 1.40992 -1.49367 0
M  V30 2519 H 233.812 3.81497 -0.63224 0
M  V30 2520 H 235.501 3.92441 -1.03656 0
M  V30 2521 H 236.267 3.39557 -3.46303 0
M  V30 2522 H 232.146 3.95348 -2.37109 0
M  V30 2523 H 235.69 3.84378 -5.82151 0
M  V30 2524 H 231.587 4.40264 -4.72057 0
M  V30 2525 H 232.355 4.57123 -6.78956 0
M  V30 2526 N 235.018 0.912232 1.28515 0
M  V30 2527 C 236.434 0.610159 1.47476 0
M  V30 2528 C 236.634 -0.844955 1.82928 0
M  V30 2529 O 235.69 -1.62416 1.93332 0
M  V30 2530 C 237.003 1.54675 2.57868 0
M  V30 2531 C 238.551 1.55331 2.71738 0
M  V30 2532 C 239.026 2.47649 3.85272 0
M  V30 2533 N 240.517 2.45767 3.92623 0
M  V30 2534 C 241.252 3.13896 4.79851 0
M  V30 2535 N 240.748 3.9135 5.71679 0
M  V30 2536 N 242.541 3.02991 4.73448 0
M  V30 2537 H 234.692 1.85318 1.03783 0
M  V30 2538 H 236.955 0.794777 0.516753 0
M  V30 2539 H 236.661 2.5841 2.38574 0
M  V30 2540 H 236.535 1.27671 3.54937 0
M  V30 2541 H 238.922 0.52335 2.90422 0
M  V30 2542 H 239.003 1.86378 1.75205 0
M  V30 2543 H 238.647 3.50745 3.67342 0
M  V30 2544 H 238.577 2.13904 4.81199 0
M  V30 2545 H 241.068 1.89503 3.26951 0
M  V30 2546 H 241.381 4.40359 6.35062 0
M  V30 2547 H 239.726 3.95455 5.71524 0
M  V30 2548 H 242.917 2.41987 4.007 0
M  V30 2549 H 243.09 3.5636 5.41213 0
M  V30 2550 N 236.496 -1.42363 0.676048 0
M  V30 2551 C 237.736 -2.03392 0.20273 0
M  V30 2552 C 238.1 -1.52306 -1.16906 0
M  V30 2553 O 239.301 -2.05129 -1.73711 0
M  V30 2554 C 237.572 -3.56614 0.236947 0
M  V30 2555 S 239.131 -4.38489 -0.165186 0
M  V30 2556 H 235.949 -0.70611 0.0832418 0
M  V30 2557 H 238.551 -1.74093 0.88948 0
M  V30 2558 H 237.255 -3.91293 1.23767 0
M  V30 2559 H 236.786 -3.90587 -0.469596 0
M  V30 2560 H 238.801 -4.76093 -1.39822 0
M  V30 2561 N 237.974 -0.419461 -1.51915 0
M  V30 2562 C 239.223 0.154346 -2.01109 0
M  V30 2563 C 239.536 1.45338 -1.30905 0
M  V30 2564 O 240.742 2.10906 -1.7097 0
M  V30 2565 C 239.198 0.325615 -3.58424 0
M  V30 2566 C 238.806 -0.961934 -4.37551 0
M  V30 2567 C 240.55 0.854155 -4.15818 0
M  V30 2568 C 238.457 -0.757287 -5.86531 0
M  V30 2569 H 237.387 0.0614563 -0.751491 0
M  V30 2570 H 240.038 -0.54649 -1.75173 0
M  V30 2571 H 238.42 1.08903 -3.80731 0
M  V30 2572 H 239.594 -1.7323 -4.26999 0
M  V30 2573 H 237.909 -1.41766 -3.91524 0
M  V30 2574 H 240.506 1.02346 -5.24814 0
M  V30 2575 H 240.849 1.83172 -3.73837 0
M  V30 2576 H 241.382 0.149528 -3.97519 0
M  V30 2577 H 238.121 -1.70671 -6.32892 0
M  V30 2578 H 237.641 -0.0264061 -5.99794 0
M  V30 2579 H 239.32 -0.403482 -6.45741 0
M  V30 2580 N 239.452 1.56882 -0.150215 0
M  V30 2581 C 240.4 2.18214 0.805313 0
M  V30 2582 C 241.394 1.14006 1.25296 0
M  V30 2583 O 242.6 1.3225 1.22107 0
M  V30 2584 H 238.975 0.698762 0.277913 0
M  V30 2585 H 240.946 2.97231 0.263862 0
M  V30 2586 C 239.695 2.82065 2.03309 0
M  V30 2587 H 239.018 3.61968 1.69763 0
M  V30 2588 H 240.458 3.28477 2.68103 0
M  V30 2589 C 238.917 1.80739 2.84315 0
M  V30 2590 O 239.447 1.27983 3.80767 0
M  V30 2591 N 237.653 1.4997 2.48913 0
M  V30 2592 H 237.2 1.93062 1.70542 0
M  V30 2593 H 237.158 0.824217 3.03404 0
M  V30 2594 N 240.93 -0.123565 1.57115 0
M  V30 2595 C 242.17 -0.838097 1.86428 0
M  V30 2596 C 242.534 -1.77266 0.737611 0
M  V30 2597 O 243.735 -2.52842 0.912389 0
M  V30 2598 C 242.006 -1.57219 3.20962 0
M  V30 2599 S 243.565 -2.32893 3.71896 0
M  V30 2600 H 240.383 -0.279811 0.653626 0
M  V30 2601 H 242.985 -0.0967034 1.95261 0
M  V30 2602 H 241.689 -0.877522 4.00909 0
M  V30 2603 H 241.22 -2.35405 3.15195 0
M  V30 2604 H 243.235 -3.5853 3.43032 0
M  V30 2605 N 242.408 -1.52605 -0.393616 0
M  V30 2606 C 243.355 -1.77055 -1.48054 0
M  V30 2607 C 244.325 -0.61358 -1.54352 0
M  V30 2608 O 245.51 -0.852806 -1.70681 0
M  V30 2609 C 242.65 -1.94108 -2.85335 0
M  V30 2610 C 241.763 -3.21792 -2.88226 0
M  V30 2611 C 240.898 -3.29188 -4.16904 0
M  V30 2612 C 239.937 -4.51013 -4.13828 0
M  V30 2613 N 239.074 -4.55716 -5.34105 0
M  V30 2614 H 243.914 -2.69815 -1.26506 0
M  V30 2615 H 241.451 -1.33683 -0.61379 0
M  V30 2616 H 243.409 -2.01979 -3.65049 0
M  V30 2617 H 242.039 -1.04713 -3.05344 0
M  V30 2618 H 241.091 -3.23015 -2.00911 0
M  V30 2619 H 242.403 -4.11557 -2.8182 0
M  V30 2620 H 241.557 -3.36216 -5.05018 0
M  V30 2621 H 240.296 -2.37389 -4.26026 0
M  V30 2622 H 239.301 -4.44115 -3.24102 0
M  V30 2623 H 240.526 -5.44123 -4.06333 0
M  V30 2624 H 238.472 -3.66807 -5.43865 0
M  V30 2625 H 238.389 -5.39346 -5.29756 0
M  V30 2626 H 239.657 -4.66993 -6.2413 0
M  V30 2627 N 243.887 0.651787 -1.4349 0
M  V30 2628 C 244.817 1.77621 -1.51569 0
M  V30 2629 C 245.798 1.66022 -0.370253 0
M  V30 2630 O 246.983 1.85095 -0.587658 0
M  V30 2631 C 244.113 3.16056 -1.43966 0
M  V30 2632 C 243.067 3.4242 -2.56774 0
M  V30 2633 C 242.393 4.8067 -2.34223 0
M  V30 2634 C 243.693 3.37023 -3.99015 0
M  V30 2635 H 245.387 1.71117 -2.45681 0
M  V30 2636 H 242.933 0.821825 -1.18246 0
M  V30 2637 H 244.886 3.94472 -1.48221 0
M  V30 2638 H 243.61 3.23293 -0.463586 0
M  V30 2639 H 242.269 2.66375 -2.51873 0
M  V30 2640 H 241.917 4.84585 -1.34856 0
M  V30 2641 H 241.617 4.9927 -3.09844 0
M  V30 2642 H 243.141 5.61342 -2.40265 0
M  V30 2643 H 244.555 4.05374 -4.05395 0
M  V30 2644 H 242.952 3.67159 -4.74673 0
M  V30 2645 H 244.022 2.3518 -4.2405 0
M  V30 2646 N 245.365 1.30045 0.890287 0
M  V30 2647 C 246.295 1.18541 2.01172 0
M  V30 2648 C 247.276 0.0773356 1.69924 0
M  V30 2649 O 248.461 0.25845 1.92473 0
M  V30 2650 C 245.591 0.870941 3.36202 0
M  V30 2651 C 244.545 1.93637 3.81692 0
M  V30 2652 C 243.871 1.475 5.13953 0
M  V30 2653 C 245.171 3.34666 4.00994 0
M  V30 2654 H 246.865 2.12359 2.11054 0
M  V30 2655 H 244.411 1.02238 1.01407 0
M  V30 2656 H 246.364 0.777141 4.14172 0
M  V30 2657 H 245.088 -0.102926 3.26438 0
M  V30 2658 H 243.747 2.01972 3.05946 0
M  V30 2659 H 243.395 0.489551 5.00612 0
M  V30 2660 H 243.095 2.1876 5.4536 0
M  V30 2661 H 244.619 1.39489 5.94454 0
M  V30 2662 H 246.033 3.2912 4.69417 0
M  V30 2663 H 244.43 4.03966 4.43769 0
M  V30 2664 H 245.5 3.76949 3.05021 0
M  V30 2665 N 246.843 -1.10192 1.12674 0
M  V30 2666 C 248.089 -1.82475 0.884915 0
M  V30 2667 C 248.422 -1.85093 -0.58773 0
M  V30 2668 O 247.697 -1.3134 -1.43457 0
M  V30 2669 C 247.98 -3.29018 1.46353 0
M  V30 2670 C 247.833 -3.34718 3.00473 0
M  V30 2671 C 249.152 -4.25473 1.12519 0
M  V30 2672 H 246.271 -0.662492 0.322915 0
M  V30 2673 H 248.913 -1.2913 1.39375 0
M  V30 2674 H 247.063 -3.74576 1.03077 0
M  V30 2675 H 248.735 -2.97622 3.52447 0
M  V30 2676 H 246.978 -2.74541 3.35872 0
M  V30 2677 H 247.649 -4.37918 3.36053 0
M  V30 2678 H 250.125 -3.88161 1.499 0
M  V30 2679 H 249.001 -5.26365 1.55663 0
M  V30 2680 H 249.262 -4.42084 0.0377407 0
M  V30 2681 N 248.321 -0.919034 -1.28029 0
M  V30 2682 C 249.271 -0.382574 -2.24767 0
M  V30 2683 C 250.255 0.508286 -1.52661 0
M  V30 2684 O 251.447 0.347145 -1.73562 0
M  V30 2685 C 248.576 0.371432 -3.41285 0
M  V30 2686 C 247.662 -0.535449 -4.20706 0
M  V30 2687 N 248.053 -1.65141 -4.78082 0
M  V30 2688 C 246.351 -0.336824 -4.44726 0
M  V30 2689 C 247.052 -2.21475 -5.37888 0
M  V30 2690 N 246.028 -1.50537 -5.22341 0
M  V30 2691 H 249.83 -1.23477 -2.66703 0
M  V30 2692 H 247.344 -0.772299 -1.42861 0
M  V30 2693 H 249.341 0.772638 -4.09678 0
M  V30 2694 H 248.001 1.22066 -3.00882 0
M  V30 2695 H 249.012 -2.03392 -4.7629 0
M  V30 2696 H 245.689 0.47246 -4.14818 0
M  V30 2697 H 247.079 -3.15379 -5.93284 0
M  V30 2698 N 249.799 1.42003 -0.683588 0
M  V30 2699 C 250.746 2.30798 -0.0107309 0
M  V30 2700 C 251.716 1.4645 0.783688 0
M  V30 2701 O 252.901 1.75263 0.754156 0
M  V30 2702 C 250.041 3.3238 0.928306 0
M  V30 2703 C 249.154 4.31814 0.126776 0
M  V30 2704 C 248.289 5.20468 1.06236 0
M  V30 2705 C 247.328 6.11577 0.253035 0
M  V30 2706 N 246.465 6.92754 1.14179 0
M  V30 2707 H 251.305 2.8778 -0.773727 0
M  V30 2708 H 248.842 1.41745 -0.393283 0
M  V30 2709 H 250.8 3.89813 1.48666 0
M  V30 2710 H 249.43 2.76976 1.65783 0
M  V30 2711 H 248.482 3.76427 -0.54833 0
M  V30 2712 H 249.794 4.96276 -0.501192 0
M  V30 2713 H 248.948 5.82677 1.69035 0
M  V30 2714 H 247.687 4.56204 1.7242 0
M  V30 2715 H 246.692 5.48428 -0.388108 0
M  V30 2716 H 247.917 6.77892 -0.404839 0
M  V30 2717 H 245.863 6.3111 1.78987 0
M  V30 2718 H 245.78 7.53855 0.569111 0
M  V30 2719 H 247.048 7.59441 1.75697 0
M  V30 2720 N 251.277 0.427512 1.51691 0
M  V30 2721 C 252.693 0.0792977 1.59403 0
M  V30 2722 C 252.893 -1.41035 1.43914 0
M  V30 2723 O 251.949 -2.17922 1.27539 0
M  V30 2724 C 253.262 0.590636 2.94842 0
M  V30 2725 C 254.81 0.550215 3.08126 0
M  V30 2726 C 255.285 1.03836 4.46074 0
M  V30 2727 N 256.776 0.995943 4.52366 0
M  V30 2728 C 257.511 1.34463 5.57411 0
M  V30 2729 N 257.007 1.76569 6.69922 0
M  V30 2730 N 258.8 1.26343 5.47717 0
M  V30 2731 H 250.951 1.39687 1.60004 0
M  V30 2732 H 253.214 0.575003 0.753708 0
M  V30 2733 H 252.92 1.63251 3.11516 0
M  V30 2734 H 252.794 0.0102061 3.77199 0
M  V30 2735 H 255.181 -0.482654 2.91126 0
M  V30 2736 H 255.262 1.16693 2.27632 0
M  V30 2737 H 254.906 2.06965 4.63819 0
M  V30 2738 H 254.836 0.398286 5.25092 0
M  V30 2739 H 257.327 0.68661 3.7161 0
M  V30 2740 H 257.64 2.01438 7.46085 0
M  V30 2741 H 255.985 1.80488 6.71155 0
M  V30 2742 H 259.176 0.933209 4.58703 0
M  V30 2743 H 259.349 1.53846 6.29472 0
M  V30 2744 N 252.755 -1.56801 0.158532 0
M  V30 2745 C 253.995 -1.98383 -0.49229 0
M  V30 2746 C 254.359 -1.04184 -1.61275 0
M  V30 2747 O 255.56 -1.34856 -2.32524 0
M  V30 2748 C 253.831 -3.4385 -0.974766 0
M  V30 2749 S 255.39 -4.07459 -1.62857 0
M  V30 2750 H 252.208 -0.693041 -0.158794 0
M  V30 2751 H 254.81 -1.93856 0.252974 0
M  V30 2752 H 253.514 -4.10131 -0.148688 0
M  V30 2753 H 253.045 -3.52115 -1.75438 0
M  V30 2754 H 255.06 -4.01458 -2.91627 0
M  V30 2755 N 254.233 0.115231 -1.57178 0
M  V30 2756 C 255.183 1.14707 -1.97044 0
M  V30 2757 C 256.167 1.36866 -0.845957 0
M  V30 2758 O 257.359 1.37895 -1.10968 0
M  V30 2759 C 254.488 2.47266 -2.38148 0
M  V30 2760 C 253.574 2.28566 -3.57237 0
M  V30 2761 N 253.965 1.79685 -4.72807 0
M  V30 2762 C 252.263 2.59208 -3.62943 0
M  V30 2763 C 252.964 1.74781 -5.54821 0
M  V30 2764 N 251.94 2.19264 -4.97417 0
M  V30 2765 H 255.742 0.761754 -2.83857 0
M  V30 2766 H 253.256 0.322928 -1.59157 0
M  V30 2767 H 255.253 3.219 -2.64927 0
M  V30 2768 H 253.913 2.86552 -1.52702 0
M  V30 2769 H 254.924 1.49177 -4.9595 0
M  V30 2770 H 251.601 3.02154 -2.88113 0
M  V30 2771 H 252.991 1.38212 -6.57531 0
M  V30 2772 N 255.711 1.52812 0.385517 0
M  V30 2773 C 256.959 1.67694 1.12797 0
M  V30 2774 C 257.28 0.421115 1.90399 0
M  V30 2775 O 256.55 -0.564551 1.87589 0
M  V30 2776 H 255.13 0.618155 0.419396 0
M  V30 2777 H 257.792 1.89938 0.436972 0
M  V30 2778 H 256.888 2.52896 1.82894 0
M  V30 2779 N 257.189 -0.644168 1.43834 0
M  V30 2780 C 258.119 -1.76814 1.52509 0
M  V30 2781 C 259.1 -1.65823 0.379052 0
M  V30 2782 O 260.285 -1.84781 0.597466 0
M  V30 2783 C 257.415 -3.15288 1.4564 0
M  V30 2784 C 256.369 -3.41053 2.58586 0
M  V30 2785 C 255.695 -4.79421 2.36769 0
M  V30 2786 C 256.995 -3.34902 4.00797 0
M  V30 2787 H 258.689 -1.69812 2.46586 0
M  V30 2788 H 256.235 -0.815542 1.1868 0
M  V30 2789 H 258.188 -3.93681 1.50311 0
M  V30 2790 H 256.912 -3.23043 0.480725 0
M  V30 2791 H 255.571 -2.65035 2.53282 0
M  V30 2792 H 255.219 -4.83863 1.37424 0
M  V30 2793 H 254.919 -4.9762 3.12487 0
M  V30 2794 H 256.443 -5.6006 2.43238 0
M  V30 2795 H 257.857 -4.03218 4.07539 0
M  V30 2796 H 256.254 -3.64637 4.76613 0
M  V30 2797 H 257.324 -2.32928 4.25291 0
M  V30 2798 N 258.668 -1.30515 -0.883378 0
M  V30 2799 C 259.914 -1.19607 -1.63774 0
M  V30 2800 C 260.247 0.248314 -1.92606 0
M  V30 2801 O 259.522 1.17742 -1.54813 0
M  V30 2802 C 259.805 -2.02669 -2.97653 0
M  V30 2803 C 259.658 -3.55335 -2.75784 0
M  V30 2804 C 260.977 -1.86573 -3.98596 0
M  V30 2805 H 258.096 -0.435856 -0.594305 0
M  V30 2806 H 260.738 -1.60165 -1.02212 0
M  V30 2807 H 258.888 -1.68208 -3.50197 0
M  V30 2808 H 260.56 -3.99863 -2.30016 0
M  V30 2809 H 258.803 -3.79438 -2.1026 0
M  V30 2810 H 259.474 -4.08745 -3.70988 0
M  V30 2811 H 261.95 -2.16703 -3.55217 0
M  V30 2812 H 260.826 -2.47014 -4.90179 0
M  V30 2813 H 261.087 -0.825321 -4.34328 0
M  V30 2814 N 260.146 1.09593 -1.13257 0
M  V30 2815 C 261.557 1.63229 -0.906274 0
M  V30 2816 C 261.908 1.8811 0.557578 0
M  V30 2817 O 261.033 1.62953 1.42391 0
M  V30 2818 C 261.628 2.96535 -1.63867 0
M  V30 2819 C 260.187 3.47003 -1.45828 0
M  V30 2820 C 259.334 2.2145 -1.66898 0
M  V30 2821 H 262.285 0.92978 -1.28611 0
M  V30 2822 H 262.306 3.64411 -1.09476 0
M  V30 2823 H 261.818 2.78394 -2.70404 0
M  V30 2824 H 259.919 3.70272 -0.415848 0
M  V30 2825 H 260.032 4.24551 -2.2202 0
M  V30 2826 H 258.396 2.30022 -1.09371 0
M  V30 2827 H 259.179 2.0583 -2.74752 0
M  V30 2828 N 261.624 0.925811 1.2754 0
M  V30 2829 C 262.554 0.440748 2.29303 0
M  V30 2830 C 263.535 -0.497971 1.62648 0
M  V30 2831 O 264.72 -0.403126 1.8997 0
M  V30 2832 C 261.85 -0.309048 3.45922 0
M  V30 2833 C 260.804 0.54166 4.24559 0
M  V30 2834 C 260.13 -0.337191 5.33636 0
M  V30 2835 C 261.43 1.80516 4.90114 0
M  V30 2836 H 263.124 1.29121 2.70126 0
M  V30 2837 H 260.67 0.622323 1.29858 0
M  V30 2838 H 262.623 -0.659315 4.1621 0
M  V30 2839 H 261.347 -1.19352 3.04011 0
M  V30 2840 H 260.006 0.874609 3.56014 0
M  V30 2841 H 259.654 -1.22056 4.87966 0
M  V30 2842 H 259.354 0.228497 5.87156 0
M  V30 2843 H 260.878 -0.683072 6.06767 0
M  V30 2844 H 262.292 1.52307 5.52698 0
M  V30 2845 H 260.689 2.3142 5.53683 0
M  V30 2846 H 261.759 2.52581 4.13921 0
M  V30 2847 N 263.102 -1.41638 0.69111 0
M  V30 2848 C 264.33 -2.05628 0.22909 0
M  V30 2849 C 264.745 -1.51992 -1.11999 0
M  V30 2850 O 264.102 -0.666322 -1.69901 0
M  V30 2851 C 264.153 -3.61084 0.173283 0
M  V30 2852 O 263.874 -4.12735 1.46907 0
M  V30 2853 C 265.375 -4.42213 -0.310266 0
M  V30 2854 H 262.595 -0.662327 0.107534 0
M  V30 2855 H 265.139 -1.81489 0.942438 0
M  V30 2856 H 263.294 -3.84278 -0.490858 0
M  V30 2857 H 263.708 -5.06743 1.35322 0
M  V30 2858 H 265.182 -5.51194 -0.298196 0
M  V30 2859 H 265.659 -4.1799 -1.34838 0
M  V30 2860 H 266.265 -4.24074 0.322716 0
M  V30 2861 N 264.58 -0.43555 -1.51462 0
M  V30 2862 C 265.82 0.130708 -2.03982 0
M  V30 2863 C 266.184 1.40117 -1.31268 0
M  V30 2864 O 267.385 2.04755 -1.74152 0
M  V30 2865 C 265.656 0.346102 -3.5572 0
M  V30 2866 S 267.215 0.876022 -4.29967 0
M  V30 2867 H 264.033 0.0326881 -0.710248 0
M  V30 2868 H 266.635 -0.594544 -1.8624 0
M  V30 2869 H 265.339 -0.584911 -4.0621 0
M  V30 2870 H 264.87 1.09849 -3.77752 0
M  V30 2871 H 266.885 2.15379 -4.47019 0
M  V30 2872 N 266.058 1.56714 -0.166846 0
M  V30 2873 C 267.474 1.58473 0.189372 0
M  V30 2874 C 267.674 1.18201 1.63189 0
M  V30 2875 O 266.73 0.891528 2.36237 0
M  V30 2876 C 268.043 3.00573 -0.0873872 0
M  V30 2877 C 269.591 3.1299 -0.0252443 0
M  V30 2878 C 270.066 4.57174 -0.274934 0
M  V30 2879 N 271.557 4.62665 -0.222553 0
M  V30 2880 C 272.292 5.72072 -0.389985 0
M  V30 2881 N 271.788 6.90054 -0.616229 0
M  V30 2882 N 273.581 5.61153 -0.326202 0
M  V30 2883 H 265.732 1.8118 -1.10849 0
M  V30 2884 H 267.995 0.839525 -0.440342 0
M  V30 2885 H 267.701 3.34497 -1.0865 0
M  V30 2886 H 267.575 3.72019 0.623037 0
M  V30 2887 H 269.962 2.78895 0.96444 0
M  V30 2888 H 270.043 2.43989 -0.768309 0
M  V30 2889 H 269.687 4.91976 -1.26181 0
M  V30 2890 H 269.617 5.24328 0.48869 0
M  V30 2891 H 272.108 3.77863 -0.0531512 0
M  V30 2892 H 272.421 7.69311 -0.733559 0
M  V30 2893 H 270.766 6.91927 -0.652791 0
M  V30 2894 H 273.957 4.67859 -0.150072 0
M  V30 2895 H 274.13 6.46364 -0.460116 0
M  V30 2896 N 267.536 -0.106894 1.57237 0
M  V30 2897 C 268.483 -1.13049 2.01217 0
M  V30 2898 C 269.453 -1.40471 0.886403 0
M  V30 2899 O 270.638 -1.52133 1.15153 0
M  V30 2900 C 267.778 -2.4487 2.43172 0
M  V30 2901 C 266.891 -2.24281 3.69218 0
M  V30 2902 C 266.026 -3.49417 4.00101 0
M  V30 2903 C 265.065 -3.24038 5.19294 0
M  V30 2904 N 264.202 -4.41409 5.45988 0
M  V30 2905 H 269.042 -0.748456 2.88448 0
M  V30 2906 H 266.579 -0.358054 1.42676 0
M  V30 2907 H 268.537 -3.21786 2.65537 0
M  V30 2908 H 267.167 -2.80944 1.58967 0
M  V30 2909 H 266.219 -1.38224 3.54398 0
M  V30 2910 H 267.531 -2.01512 4.56283 0
M  V30 2911 H 266.685 -4.34746 4.2318 0
M  V30 2912 H 265.424 -3.75229 3.11535 0
M  V30 2913 H 264.429 -2.37102 4.96047 0
M  V30 2914 H 265.654 -2.99584 6.09447 0
M  V30 2915 H 263.6 -4.67319 4.60379 0
M  V30 2916 H 263.517 -4.21788 6.274 0
M  V30 2917 H 264.785 -5.27836 5.73593 0
M  V30 2918 N 269.014 -1.53014 -0.377408 0
M  V30 2919 C 269.964 -1.74996 -1.46152 0
M  V30 2920 C 270.948 -0.604236 -1.49123 0
M  V30 2921 O 272.14 -0.862489 -1.54564 0
M  V30 2922 C 269.269 -1.93267 -2.8373 0
M  V30 2923 C 268.355 -3.13807 -2.85283 0
M  V30 2924 N 268.746 -4.35941 -2.56493 0
M  V30 2925 C 267.044 -3.14288 -3.16448 0
M  V30 2926 C 267.745 -5.17615 -2.65424 0
M  V30 2927 N 266.721 -4.53559 -2.99641 0
M  V30 2928 H 270.523 -2.67044 -1.22738 0
M  V30 2929 H 268.037 -1.51479 -0.585479 0
M  V30 2930 H 270.034 -2.0714 -3.61799 0
M  V30 2931 H 268.694 -1.0244 -3.08117 0
M  V30 2932 H 269.705 -4.63876 -2.30302 0
M  V30 2933 H 266.382 -2.33312 -3.46225 0
M  V30 2934 H 267.772 -6.25006 -2.46612 0
M  V30 2935 N 270.492 0.636531 -1.44174 0
M  V30 2936 C 271.425 1.76139 -1.45087 0
M  V30 2937 C 272.403 1.59611 -0.310326 0
M  V30 2938 O 273.587 1.81568 -0.506477 0
M  V30 2939 C 270.714 3.13648 -1.27839 0
M  V30 2940 C 269.76 3.48838 -2.45386 0
M  V30 2941 S 270.593 3.46927 -4.07924 0
M  V30 2942 C 271.749 4.87064 -3.9309 0
M  V30 2943 H 271.982 1.75096 -2.40268 0
M  V30 2944 H 269.515 0.810666 -1.31406 0
M  V30 2945 H 271.473 3.93002 -1.18575 0
M  V30 2946 H 270.134 3.12235 -0.341787 0
M  V30 2947 H 269.327 4.48886 -2.29167 0
M  V30 2948 H 268.929 2.76935 -2.51362 0
M  V30 2949 H 271.221 5.76153 -3.56446 0
M  V30 2950 H 272.164 5.08337 -4.92949 0
M  V30 2951 H 272.572 4.61384 -3.25246 0
M  V30 2952 N 271.97 1.30982 0.876444 0
M  V30 2953 C 273.247 1.10942 1.61094 0
M  V30 2954 C 273.627 -0.338223 2.08373 0
M  V30 2955 O 272.975 -1.33122 1.85717 0
M  V30 2956 C 273.185 2.11789 2.77392 0
M  V30 2957 C 274.533 2.43965 3.47514 0
M  V30 2958 O 275.557 2.10166 2.87591 0
M  V30 2959 O 274.416 3.01817 4.55597 0
M  V30 2960 H 271.51 0.42667 0.708436 0
M  V30 2961 H 274.056 1.42438 0.922474 0
M  V30 2962 H 272.828 3.09194 2.39823 0
M  V30 2963 H 272.451 1.81161 3.5393 0
M  V30 2964 N 273.449 -1.08991 1.13837 0
M  V30 2965 C 274.674 -1.85551 0.926585 0
M  V30 2966 C 275.099 -1.80782 -0.519566 0
M  V30 2967 O 274.457 -1.18855 -1.36906 0
M  V30 2968 C 274.505 -3.31266 1.42462 0
M  V30 2969 O 273.609 -4.07822 0.612789 0
M  V30 2970 H 272.95 -0.575192 0.331738 0
M  V30 2971 H 275.48 -1.37604 1.51414 0
M  V30 2972 H 275.49 -3.82112 1.43019 0
M  V30 2973 H 274.165 -3.34052 2.47754 0
M  V30 2974 H 272.742 -3.66731 0.675463 0
M  V30 2975 N 274.927 -0.932562 -1.27047 0
M  V30 2976 C 276.173 -0.576412 -1.94436 0
M  V30 2977 C 276.506 0.880891 -1.73072 0
M  V30 2978 O 275.781 1.62905 -1.06264 0
M  V30 2979 C 276.064 -0.909031 -3.48437 0
M  V30 2980 C 275.917 -2.42044 -3.79123 0
M  V30 2981 C 277.236 -0.418341 -4.38107 0
M  V30 2982 H 274.355 -0.210888 -0.706184 0
M  V30 2983 H 276.997 -1.16522 -1.50075 0
M  V30 2984 H 275.147 -0.407947 -3.86352 0
M  V30 2985 H 276.819 -2.99359 -3.50973 0
M  V30 2986 H 275.062 -2.86758 -3.25503 0
M  V30 2987 H 275.733 -2.6037 -4.86736 0
M  V30 2988 H 278.209 -0.847856 -4.0737 0
M  V30 2989 H 277.085 -0.679981 -5.44672 0
M  V30 2990 H 277.346 0.681642 -4.36814 0
M  V30 2991 N 276.405 1.4127 -0.698611 0
M  V30 2992 C 277.338 2.28195 0.0153898 0
M  V30 2993 C 278.316 1.42402 0.784883 0
M  V30 2994 O 279.5 1.71828 0.775067 0
M  V30 2995 C 276.627 3.22685 1.02918 0
M  V30 2996 C 275.673 4.25041 0.352501 0
M  V30 2997 S 276.506 5.27757 -0.907322 0
M  V30 2998 C 277.662 6.25812 0.104796 0
M  V30 2999 H 277.895 2.88403 -0.721858 0
M  V30 3000 H 275.428 1.46452 -0.488996 0
M  V30 3001 H 277.386 3.77655 1.60893 0
M  V30 3002 H 276.047 2.61566 1.73902 0
M  V30 3003 H 275.24 4.91437 1.11828 0
M  V30 3004 H 274.842 3.73682 -0.154254 0
M  V30 3005 H 277.134 6.70705 0.957103 0
M  V30 3006 H 278.077 7.06149 -0.525323 0
M  V30 3007 H 278.485 5.62615 0.460931 0
M  V30 3008 N 277.883 0.443576 1.51229 0
M  V30 3009 C 279.294 -0.0180867 1.86691 0
M  V30 3010 C 279.645 -1.41384 1.36033 0
M  V30 3011 O 278.77 -2.04291 0.713722 0
M  V30 3012 C 279.365 -0.039597 3.38777 0
M  V30 3013 C 277.924 -0.445692 3.73752 0
M  V30 3014 C 277.071 0.357584 2.74985 0
M  V30 3015 H 280.022 0.659138 1.44364 0
M  V30 3016 H 280.043 -0.847761 3.70936 0
M  V30 3017 H 279.555 0.976382 3.75617 0
M  V30 3018 H 277.656 -1.46704 3.42503 0
M  V30 3019 H 277.769 -0.166155 4.78812 0
M  V30 3020 H 276.133 -0.184973 2.54027 0
M  V30 3021 H 276.916 1.37256 3.14668 0
M  V30 3022 N 279.361 -1.56624 0.175154 0
M  V30 3023 C 280.586 -2.01813 -0.478137 0
M  V30 3024 C 281.011 -1.05457 -1.55757 0
M  V30 3025 O 280.369 -0.0347439 -1.81267 0
M  V30 3026 C 280.417 -3.45581 -1.02987 0
M  V30 3027 O 279.521 -3.52305 -2.14371 0
M  V30 3028 H 278.862 -0.65413 -0.114059 0
M  V30 3029 H 281.392 -2.02673 0.280173 0
M  V30 3030 H 281.402 -3.84965 -1.35151 0
M  V30 3031 H 280.077 -4.1521 -0.239556 0
M  V30 3032 H 278.654 -3.24783 -1.83222 0
M  V30 3033 N 280.839 0.0985539 -1.57292 0
M  V30 3034 C 281.771 1.14595 -1.98496 0
M  V30 3035 C 282.784 1.36512 -0.887031 0
M  V30 3036 O 283.973 1.35225 -1.16518 0
M  V30 3037 C 281.073 2.50216 -2.28572 0
M  V30 3038 C 280.246 2.48624 -3.59868 0
M  V30 3039 C 279.305 3.66146 -3.7792 0
M  V30 3040 O 278.331 3.48795 -4.49812 0
M  V30 3041 N 279.533 4.85496 -3.18235 0
M  V30 3042 H 282.298 0.795277 -2.88956 0
M  V30 3043 H 279.859 0.287579 -1.59325 0
M  V30 3044 H 281.851 3.27432 -2.37845 0
M  V30 3045 H 280.421 2.77387 -1.44136 0
M  V30 3046 H 279.641 1.56978 -3.61596 0
M  V30 3047 H 280.929 2.44635 -4.46129 0
M  V30 3048 H 280.327 5.02497 -2.59833 0
M  V30 3049 H 278.884 5.60317 -3.32999 0
M  V30 3050 N 282.317 1.53212 0.369288 0
M  V30 3051 C 283.227 1.82342 1.47609 0
M  V30 3052 C 284.243 0.711532 1.58787 0
M  V30 3053 O 285.419 1.0012 1.74751 0
M  V30 3054 C 282.484 2.00393 2.8292 0
M  V30 3055 C 281.545 3.24297 2.81301 0
M  V30 3056 C 280.778 3.41478 4.10157 0
M  V30 3057 O 281.001 2.63033 5.06132 0
M  V30 3058 O 279.935 4.34817 4.16194 0
M  V30 3059 H 283.761 2.76366 1.25918 0
M  V30 3060 H 281.346 1.38547 0.559034 0
M  V30 3061 H 283.228 2.13859 3.63101 0
M  V30 3062 H 281.903 1.09559 3.04596 0
M  V30 3063 H 280.81 3.16257 1.99831 0
M  V30 3064 H 282.143 4.15041 2.64578 0
M  V30 3065 N 283.795 -0.628877 1.44509 0
M  V30 3066 C 285.206 -1.21054 1.42137 0
M  V30 3067 C 285.557 -1.95715 0.137881 0
M  V30 3068 O 284.682 -2.02554 -0.761645 0
M  V30 3069 C 285.277 -2.20189 2.57493 0
M  V30 3070 C 283.836 -2.73777 2.58308 0
M  V30 3071 C 282.983 -1.48813 2.33987 0
M  V30 3072 H 285.934 -0.41942 1.53057 0
M  V30 3073 H 285.955 -3.02833 2.30375 0
M  V30 3074 H 285.467 -1.6582 3.50892 0
M  V30 3075 H 283.568 -3.32142 1.68856 0
M  V30 3076 H 283.681 -3.19662 3.56865 0
M  V30 3077 H 282.045 -1.77024 1.83124 0
M  V30 3078 H 282.828 -0.963442 3.29504 0
M  V30 3079 N 285.273 -1.31445 -0.869486 0
M  V30 3080 C 286.684 -1.19042 -1.43826 0
M  V30 3081 C 287.035 0.202919 -1.95148 0
M  V30 3082 O 286.16 1.10071 -1.86315 0
M  V30 3083 C 286.755 -2.15499 -2.6143 0
M  V30 3084 C 285.314 -2.07028 -3.14351 0
M  V30 3085 C 284.461 -2.04701 -1.87063 0
M  V30 3086 H 287.412 -1.43489 -0.677984 0
M  V30 3087 H 287.433 -1.74488 -3.38134 0
M  V30 3088 H 286.945 -3.16899 -2.24046 0
M  V30 3089 H 285.046 -1.08825 -3.56354 0
M  V30 3090 H 285.159 -2.96157 -3.766 0
M  V30 3091 H 283.523 -1.49724 -2.06046 0
M  V30 3092 H 284.306 -3.07857 -1.51917 0
M  V30 3093 N 286.751 1.08385 -1.14413 0
M  V30 3094 C 287.997 1.81044 -0.913834 0
M  V30 3095 C 288.33 1.86004 0.558209 0
M  V30 3096 O 287.605 1.33606 1.4135 0
M  V30 3097 C 287.888 3.26648 -1.51569 0
M  V30 3098 C 287.741 3.29895 -3.0576 0
M  V30 3099 C 289.06 4.23629 -1.19273 0
M  V30 3100 H 286.179 0.65727 -0.333414 0
M  V30 3101 H 288.821 1.26896 -1.41412 0
M  V30 3102 H 286.971 3.72889 -1.09023 0
M  V30 3103 H 288.643 2.91977 -3.57137 0
M  V30 3104 H 286.886 2.69163 -3.40197 0
M  V30 3105 H 287.557 4.32516 -3.42977 0
M  V30 3106 H 290.033 3.85727 -1.56057 0
M  V30 3107 H 288.909 5.23822 -1.64017 0
M  V30 3108 H 289.17 4.41968 -0.108068 0
M  V30 3109 N 288.23 0.939286 1.26551 0
M  V30 3110 C 289.507 0.5038 1.89001 0
M  V30 3111 C 289.887 -1.01854 1.84903 0
M  V30 3112 O 289.235 -1.87773 1.30206 0
M  V30 3113 C 289.445 1.063 3.32417 0
M  V30 3114 C 290.793 1.13051 4.09273 0
M  V30 3115 O 291.817 1.01345 3.41479 0
M  V30 3116 O 290.676 1.31233 5.30509 0
M  V30 3117 H 287.77 0.163897 0.810597 0
M  V30 3118 H 290.316 1.03173 1.34735 0
M  V30 3119 H 289.088 2.10665 3.29752 0
M  V30 3120 H 288.711 0.517408 3.94219 0
M  V30 3121 N 289.708 -1.40897 0.706093 0
M  V30 3122 C 290.985 -1.94868 0.169099 0
M  V30 3123 C 291.365 -1.64485 -1.32318 0
M  V30 3124 O 290.713 -0.95744 -2.07474 0
M  V30 3125 C 290.923 -3.45798 0.471654 0
M  V30 3126 C 292.271 -4.22663 0.405127 0
M  V30 3127 O 293.295 -3.53865 0.407168 0
M  V30 3128 O 292.154 -5.45216 0.374383 0
M  V30 3129 H 289.248 -0.82673 0.0211352 0
M  V30 3130 H 291.794 -1.50558 0.782976 0
M  V30 3131 H 290.566 -3.61235 1.50416 0
M  V30 3132 H 290.189 -3.97225 -0.172666 0
M  V30 3133 N 291.186 -0.45159 -1.50991 0
M  V30 3134 C 292.133 0.352625 -2.2809 0
M  V30 3135 C 293.103 1.0044 -1.32291 0
M  V30 3136 O 294.288 1.02058 -1.6121 0
M  V30 3137 C 291.428 1.43983 -3.13629 0
M  V30 3138 C 290.541 0.804772 -4.24438 0
M  V30 3139 C 289.676 1.86822 -4.97263 0
M  V30 3140 C 288.715 1.21236 -5.99973 0
M  V30 3141 N 287.852 2.2178 -6.66152 0
M  V30 3142 H 292.692 -0.311186 -2.96371 0
M  V30 3143 H 290.229 -0.165308 -1.46168 0
M  V30 3144 H 292.187 2.08161 -3.61559 0
M  V30 3145 H 290.817 2.07307 -2.47434 0
M  V30 3146 H 289.869 0.0509129 -3.80366 0
M  V30 3147 H 291.181 0.286076 -4.97979 0
M  V30 3148 H 290.335 2.58628 -5.48813 0
M  V30 3149 H 289.074 2.42068 -4.23385 0
M  V30 3150 H 288.079 0.479828 -5.47702 0
M  V30 3151 H 289.304 0.667051 -6.75816 0
M  V30 3152 H 287.25 2.76079 -5.95077 0
M  V30 3153 H 287.167 1.74841 -7.35504 0
M  V30 3154 H 288.435 2.93026 -7.22327 0
M  V30 3155 N 292.664 1.56529 -0.183458 0
M  V30 3156 C 293.612 2.19873 0.758845 0
M  V30 3157 C 294.606 1.16638 1.22849 0
M  V30 3158 O 295.812 1.3481 1.19274 0
M  V30 3159 H 292.187 0.7045 0.263029 0
M  V30 3160 H 294.158 2.97724 0.200755 0
M  V30 3161 C 292.907 2.86314 1.9728 0
M  V30 3162 H 292.23 3.65487 1.62047 0
M  V30 3163 H 293.67 3.3409 2.61075 0
M  V30 3164 C 292.129 1.86729 2.80418 0
M  V30 3165 O 292.659 1.36031 3.77966 0
M  V30 3166 N 290.865 1.55216 2.45675 0
M  V30 3167 H 290.412 1.96636 1.66409 0
M  V30 3168 H 290.37 0.888388 3.01588 0
M  V30 3169 N 294.142 -0.090211 1.57342 0
M  V30 3170 C 295.052 -1.12735 2.05738 0
M  V30 3171 C 296.068 -1.43557 0.983231 0
M  V30 3172 O 297.244 -1.54101 1.29672 0
M  V30 3173 C 294.309 -2.42659 2.47624 0
M  V30 3174 C 293.37 -2.18975 3.69254 0
M  V30 3175 C 292.603 -3.42704 4.09133 0
M  V30 3176 O 292.826 -4.51127 3.49057 0
M  V30 3177 O 291.76 -3.32003 5.02053 0
M  V30 3178 H 295.586 -0.746279 2.94388 0
M  V30 3179 H 293.171 -0.303064 1.46294 0
M  V30 3180 H 295.053 -3.19155 2.7517 0
M  V30 3181 H 293.728 -2.80182 1.62109 0
M  V30 3182 H 292.635 -1.40244 3.46818 0
M  V30 3183 H 293.968 -1.86342 4.55563 0
M  V30 3184 N 295.62 -1.53406 -0.361157 0
M  V30 3185 C 296.897 -1.60411 -1.11927 0
M  V30 3186 C 297.277 -0.414385 -2.06993 0
M  V30 3187 O 296.625 0.594976 -2.20618 0
M  V30 3188 C 296.835 -2.95652 -1.85448 0
M  V30 3189 C 298.183 -3.50386 -2.39823 0
M  V30 3190 O 299.207 -2.97711 -1.95568 0
M  V30 3191 O 298.066 -4.42482 -3.20737 0
M  V30 3192 H 295.16 -0.64811 -0.513695 0
M  V30 3193 H 297.706 -1.65749 -0.364065 0
M  V30 3194 H 296.478 -3.73682 -1.16091 0
M  V30 3195 H 296.101 -2.93825 -2.67866 0
M  V30 3196 N 297.098 0.621204 -1.44841 0
M  V30 3197 C 298.061 1.71459 -1.521 0
M  V30 3198 C 299.061 1.55696 -0.401933 0
M  V30 3199 O 300.251 1.61011 -0.664925 0
M  V30 3200 C 297.383 3.10624 -1.40447 0
M  V30 3201 H 298.576 1.66394 -2.49506 0
M  V30 3202 H 296.129 0.835745 -1.3208 0
M  V30 3203 H 296.864 3.21277 -0.441737 0
M  V30 3204 H 296.649 3.23473 -2.21602 0
M  V30 3205 H 298.139 3.90293 -1.4853 0
M  V30 3206 N 298.576 1.31904 0.862503 0
M  V30 3207 C 299.853 1.12644 1.59908 0
M  V30 3208 C 300.233 -0.316104 2.0872 0
M  V30 3209 O 299.581 -1.31145 1.87118 0
M  V30 3210 C 299.791 2.1472 2.7513 0
M  V30 3211 C 301.139 2.47637 3.44907 0
M  V30 3212 O 302.163 2.13205 2.85346 0
M  V30 3213 O 301.022 3.06632 4.52371 0
M  V30 3214 H 298.116 0.43416 0.703871 0
M  V30 3215 H 300.662 1.43408 0.907314 0
M  V30 3216 H 299.434 3.1172 2.3653 0
M  V30 3217 H 299.057 1.84905 3.51989 0
M  V30 3218 N 300.054 -1.07777 1.14986 0
M  V30 3219 C 300.984 -2.16865 0.865557 0
M  V30 3220 C 301.965 -1.69123 -0.182083 0
M  V30 3221 O 303.15 -1.94164 -0.0373815 0
M  V30 3222 C 300.28 -3.45539 0.349313 0
M  V30 3223 C 299.234 -4.06708 1.33313 0
M  V30 3224 C 298.56 -5.30411 0.675918 0
M  V30 3225 C 299.86 -4.47241 2.69764 0
M  V30 3226 H 301.554 -2.40905 1.77778 0
M  V30 3227 H 299.1 -1.15781 0.856203 0
M  V30 3228 H 301.053 -4.21174 0.137983 0
M  V30 3229 H 299.777 -3.21072 -0.598362 0
M  V30 3230 H 298.436 -3.33112 1.53075 0
M  V30 3231 H 298.084 -5.02232 -0.277767 0
M  V30 3232 H 297.784 -5.72293 1.33244 0
M  V30 3233 H 299.308 -6.08755 0.474262 0
M  V30 3234 H 300.722 -5.14025 2.53873 0
M  V30 3235 H 299.119 -5.00062 3.3175 0
M  V30 3236 H 300.189 -3.58818 3.26156 0
M  V30 3237 N 301.532 -0.945985 -1.26051 0
M  V30 3238 C 302.943 -0.638096 -1.75457 0
M  V30 3239 C 303.294 0.846672 -1.76991 0
M  V30 3240 O 302.419 1.66262 -1.38513 0
M  V30 3241 C 303.014 -1.15157 -3.18629 0
M  V30 3242 C 301.573 -0.894004 -3.65629 0
M  V30 3243 C 300.72 -1.29967 -2.44957 0
M  V30 3244 H 303.671 -1.12376 -1.1206 0
M  V30 3245 H 303.692 -0.507615 -3.77099 0
M  V30 3246 H 303.204 -2.23222 -3.1748 0
M  V30 3247 H 301.305 0.172057 -3.72203 0
M  V30 3248 H 301.418 -1.52439 -4.54202 0
M  V30 3249 H 299.782 -0.718078 -2.44368 0
M  V30 3250 H 300.565 -2.38935 -2.46505 0
M  V30 3251 N 303.011 1.40521 -0.713556 0
M  V30 3252 C 304.236 2.05759 -0.26035 0
M  V30 3253 C 304.661 1.53403 1.08854 0
M  V30 3254 O 304.019 0.668535 1.68524 0
M  V30 3255 C 304.067 3.59745 -0.248122 0
M  V30 3256 O 303.171 4.05123 0.77131 0
M  V30 3257 H 302.512 0.652564 -0.122703 0
M  V30 3258 H 305.042 1.79958 -0.973467 0
M  V30 3259 H 305.052 4.07911 -0.0851129 0
M  V30 3260 H 303.727 3.97218 -1.2325 0
M  V30 3261 H 302.304 3.68422 0.57619 0
M  V30 3262 N 304.489 0.459591 1.5075 0
M  V30 3263 C 305.399 -0.34613 2.32033 0
M  V30 3264 C 306.415 -1.00686 1.41909 0
M  V30 3265 O 307.591 -0.997361 1.7497 0
M  V30 3266 C 304.656 -1.42029 3.16273 0
M  V30 3267 C 303.717 -0.777362 4.22203 0
M  V30 3268 C 302.95 -1.80034 5.02418 0
M  V30 3269 O 303.173 -3.02544 4.83553 0
M  V30 3270 O 302.107 -1.37853 5.85901 0
M  V30 3271 H 305.933 0.318054 3.0203 0
M  V30 3272 H 303.518 0.221663 1.47746 0
M  V30 3273 H 305.4 -2.04275 3.68578 0
M  V30 3274 H 304.075 -2.06815 2.49016 0
M  V30 3275 H 302.982 -0.116256 3.73919 0
M  V30 3276 H 304.315 -0.172634 4.91897 0
M  V30 3277 N 305.967 -1.56429 0.191757 0
M  V30 3278 C 306.877 -2.22541 -0.742481 0
M  V30 3279 C 307.893 -1.22342 -1.23727 0
M  V30 3280 O 309.069 -1.55069 -1.28513 0
M  V30 3281 C 306.134 -2.8692 -1.94623 0
M  V30 3282 C 305.195 -4.02378 -1.49633 0
M  V30 3283 C 304.428 -4.63678 -2.6427 0
M  V30 3284 O 304.651 -4.23895 -3.81666 0
M  V30 3285 O 303.585 -5.53202 -2.37174 0
M  V30 3286 H 307.411 -3.02977 -0.209462 0
M  V30 3287 H 304.996 -1.49353 -0.0373832 0
M  V30 3288 H 306.878 -3.27663 -2.64982 0
M  V30 3289 H 305.553 -2.09466 -2.46791 0
M  V30 3290 H 304.46 -3.66265 -0.761636 0
M  V30 3291 H 305.793 -4.81487 -1.02134 0
M  V30 3292 N 307.445 0.0818655 -1.57387 0
M  V30 3293 C 308.673 0.796108 -1.9097 0
M  V30 3294 C 309.088 1.71626 -0.786757 0
M  V30 3295 O 308.445 1.80908 0.240513 0
M  V30 3296 C 308.496 1.59829 -3.24248 0
M  V30 3297 O 308.217 0.715131 -4.32224 0
M  V30 3298 C 309.718 2.41442 -3.7178 0
M  V30 3299 H 306.938 0.22691 -0.631469 0
M  V30 3300 H 309.482 0.0551439 -2.04426 0
M  V30 3301 H 307.637 2.29163 -3.12351 0
M  V30 3302 H 308.051 1.27205 -5.08841 0
M  V30 3303 H 309.525 2.932 -4.67694 0
M  V30 3304 H 310.002 3.2051 -3.00283 0
M  V30 3305 H 310.608 1.77283 -3.86589 0
M  V30 3306 N 308.923 1.53595 0.353017 0
M  V30 3307 C 310.2 1.61002 1.11075 0
M  V30 3308 C 310.58 0.425356 2.0677 0
M  V30 3309 O 309.928 -0.583267 2.2093 0
M  V30 3310 C 310.138 2.96631 1.83877 0
M  V30 3311 C 311.486 3.51653 2.37961 0
M  V30 3312 O 312.51 2.98743 1.93987 0
M  V30 3313 O 311.369 4.44177 3.18386 0
M  V30 3314 H 308.463 0.650825 0.510251 0
M  V30 3315 H 311.009 1.6594 0.35527 0
M  V30 3316 H 309.781 3.74293 1.14108 0
M  V30 3317 H 309.404 2.95242 2.66304 0
M  V30 3318 N 310.401 -0.613514 1.45168 0
M  V30 3319 C 311.649 -1.36997 1.48581 0
M  V30 3320 C 311.97 -1.94589 0.126545 0
M  V30 3321 O 311.24 -1.76816 -0.843372 0
M  V30 3322 H 309.82 -0.508558 0.547154 0
M  V30 3323 H 312.482 -0.720853 1.81079 0
M  V30 3324 H 311.578 -2.1924 2.22127 0
M  V30 3325 N 311.879 -1.3236 -0.855495 0
M  V30 3326 C 313.128 -1.22226 -1.60448 0
M  V30 3327 C 313.441 0.214733 -1.94418 0
M  V30 3328 O 314.647 0.437917 -2.67945 0
M  V30 3329 C 313.103 -2.14063 -2.89318 0
M  V30 3330 C 312.711 -3.62839 -2.62777 0
M  V30 3331 C 314.455 -2.12764 -3.67331 0
M  V30 3332 C 312.362 -4.4664 -3.87643 0
M  V30 3333 H 311.292 -0.453904 -0.602069 0
M  V30 3334 H 313.943 -1.57314 -0.944698 0
M  V30 3335 H 312.325 -1.71889 -3.5675 0
M  V30 3336 H 313.499 -4.1335 -2.03662 0
M  V30 3337 H 311.814 -3.66261 -1.98096 0
M  V30 3338 H 314.411 -2.72611 -4.59987 0
M  V30 3339 H 314.754 -1.11841 -4.00995 0
M  V30 3340 H 315.287 -2.53214 -3.06802 0
M  V30 3341 H 312.026 -5.48373 -3.5912 0
M  V30 3342 H 311.546 -4.0088 -4.46156 0
M  V30 3343 H 313.225 -4.59597 -4.55389 0
M  V30 3344 N 313.357 1.07166 -1.15556 0
M  V30 3345 C 314.32 2.12589 -0.856644 0
M  V30 3346 C 315.32 1.6015 0.14444 0
M  V30 3347 O 316.51 1.7399 -0.0854163 0
M  V30 3348 C 313.642 3.39753 -0.279405 0
M  V30 3349 H 314.835 2.40539 -1.79112 0
M  V30 3350 H 312.388 1.23086 -0.963298 0
M  V30 3351 H 313.123 3.17447 0.663174 0
M  V30 3352 H 312.908 3.79117 -1.00063 0
M  V30 3353 H 314.398 4.17507 -0.0879113 0
M  V30 3354 N 314.835 0.952656 1.25548 0
M  V30 3355 C 316.065 0.622592 1.96996 0
M  V30 3356 C 316.473 -0.809112 1.71026 0
M  V30 3357 O 315.816 -1.55258 0.981861 0
M  V30 3358 C 315.878 0.798946 3.5051 0
M  V30 3359 C 315.542 2.20744 4.00151 0
M  V30 3360 C 316.539 3.18394 4.11001 0
M  V30 3361 C 314.224 2.5311 4.33867 0
M  V30 3362 C 316.218 4.46504 4.54877 0
M  V30 3363 C 313.905 3.8145 4.7743 0
M  V30 3364 C 314.903 4.77959 4.87897 0
M  V30 3365 O 314.591 6.04012 5.30494 0
M  V30 3366 H 314.323 0.232503 0.634758 0
M  V30 3367 H 316.877 1.2789 1.60728 0
M  V30 3368 H 315.107 0.0854903 3.86605 0
M  V30 3369 H 316.796 0.47023 4.03167 0
M  V30 3370 H 317.562 2.94715 3.85186 0
M  V30 3371 H 313.441 1.78719 4.24948 0
M  V30 3372 H 316.985 5.21835 4.62962 0
M  V30 3373 H 312.882 4.04936 5.0269 0
M  V30 3374 H 313.65 6.0736 5.48685 0
M  V30 3375 N 316.313 -1.40141 0.720998 0
M  V30 3376 C 317.562 -2.0002 0.259804 0
M  V30 3377 C 317.875 -1.57839 -1.15526 0
M  V30 3378 O 319.081 -2.10455 -1.71525 0
M  V30 3379 C 317.537 -3.57516 0.413566 0
M  V30 3380 C 317.145 -4.08667 1.83562 0
M  V30 3381 C 318.889 -4.24498 0.0134387 0
M  V30 3382 C 316.796 -5.58686 1.93968 0
M  V30 3383 H 315.726 -0.748195 0.0933806 0
M  V30 3384 H 318.377 -1.60313 0.892866 0
M  V30 3385 H 316.759 -3.9495 -0.288169 0
M  V30 3386 H 317.933 -3.82598 2.56817 0
M  V30 3387 H 316.248 -3.543 2.1877 0
M  V30 3388 H 318.845 -5.34654 0.0703954 0
M  V30 3389 H 319.188 -4.03375 -1.02927 0
M  V30 3390 H 319.721 -3.92188 0.665815 0
M  V30 3391 H 316.46 -5.8467 2.96379 0
M  V30 3392 H 315.98 -5.86602 1.25131 0
M  V30 3393 H 317.659 -6.23875 1.71431 0
M  V30 3394 N 317.792 -0.46758 -1.50504 0
M  V30 3395 C 319.017 0.0886943 -2.0721 0
M  V30 3396 C 319.442 1.33057 -1.32956 0
M  V30 3397 O 318.8 1.77354 -0.376197 0
M  V30 3398 C 318.848 0.359202 -3.58806 0
M  V30 3399 O 317.952 1.44034 -3.8643 0
M  V30 3400 H 317.293 -0.0114349 -0.663902 0
M  V30 3401 H 319.823 -0.657613 -1.93744 0
M  V30 3402 H 319.833 0.600742 -4.03553 0
M  V30 3403 H 318.508 -0.548311 -4.1227 0
M  V30 3404 H 317.085 1.18638 -3.53524 0
M  V30 3405 N 319.27 1.56325 -0.20005 0
M  V30 3406 C 320.495 2.02548 0.44597 0
M  V30 3407 C 320.92 1.07922 1.5406 0
M  V30 3408 O 320.278 0.0635775 1.81188 0
M  V30 3409 C 320.326 3.47175 0.974761 0
M  V30 3410 O 319.43 3.55671 2.08739 0
M  V30 3411 H 318.771 0.655862 0.103638 0
M  V30 3412 H 321.301 2.02201 -0.312381 0
M  V30 3413 H 321.311 3.87067 1.2901 0
M  V30 3414 H 319.986 4.15538 0.17347 0
M  V30 3415 H 318.563 3.27657 1.78032 0
M  V30 3416 N 320.748 -0.0735177 1.57428 0
M  V30 3417 C 321.973 -0.789787 1.91774 0
M  V30 3418 C 322.398 -1.70413 0.796306 0
M  V30 3419 O 321.756 -1.79555 -0.250961 0
M  V30 3420 C 321.804 -1.5609 3.25067 0
M  V30 3421 O 320.908 -2.67144 3.14178 0
M  V30 3422 H 320.249 -0.215582 0.628029 0
M  V30 3423 H 322.779 -0.0422781 2.04556 0
M  V30 3424 H 322.789 -1.94052 3.58898 0
M  V30 3425 H 321.464 -0.890015 4.06265 0
M  V30 3426 H 320.041 -2.32052 2.91901 0
M  V30 3427 N 322.226 -1.5378 -0.344866 0
M  V30 3428 C 323.642 -1.44015 -0.687888 0
M  V30 3429 C 323.842 -0.595834 -1.92489 0
M  V30 3430 O 322.898 -0.0863064 -2.52352 0
M  V30 3431 C 324.211 -2.87481 -0.881758 0
M  V30 3432 C 325.759 -2.97247 -0.980459 0
M  V30 3433 C 326.234 -4.41819 -1.20665 0
M  V30 3434 N 327.725 -4.45339 -1.27389 0
M  V30 3435 C 328.46 -5.54333 -1.46639 0
M  V30 3436 N 327.956 -6.73335 -1.63071 0
M  V30 3437 N 329.749 -5.41944 -1.49176 0
M  V30 3438 H 321.9 -2.07169 0.468475 0
M  V30 3439 H 324.163 -0.93643 0.147655 0
M  V30 3440 H 323.869 -3.51672 -0.0443444 0
M  V30 3441 H 323.743 -3.32352 -1.78388 0
M  V30 3442 H 326.13 -2.33197 -1.8084 0
M  V30 3443 H 326.211 -2.5574 -0.0552713 0
M  V30 3444 H 325.855 -5.06449 -0.383652 0
M  V30 3445 H 325.785 -4.80917 -2.14539 0
M  V30 3446 H 328.276 -3.59585 -1.1622 0
M  V30 3447 H 328.589 -7.52165 -1.77391 0
M  V30 3448 H 326.934 -6.76282 -1.60209 0
M  V30 3449 H 330.125 -4.47932 -1.3592 0
M  V30 3450 H 330.298 -6.26946 -1.63837 0
M  V30 3451 N 323.704 0.605807 -1.45491 0
M  V30 3452 C 324.651 1.7164 -1.54299 0
M  V30 3453 C 325.621 1.61486 -0.388761 0
M  V30 3454 O 326.806 1.81039 -0.602445 0
M  V30 3455 C 323.946 3.09953 -1.51734 0
M  V30 3456 C 323.059 3.309 -2.77721 0
M  V30 3457 C 322.194 4.59329 -2.66816 0
M  V30 3458 C 321.233 4.7354 -3.87848 0
M  V30 3459 N 320.37 5.9327 -3.75467 0
M  V30 3460 H 325.21 1.63449 -2.49176 0
M  V30 3461 H 322.747 0.796957 -1.23641 0
M  V30 3462 H 324.705 3.89977 -1.48235 0
M  V30 3463 H 323.335 3.17098 -0.604068 0
M  V30 3464 H 322.387 2.44639 -2.913 0
M  V30 3465 H 323.699 3.37274 -3.67488 0
M  V30 3466 H 322.853 5.4755 -2.61292 0
M  V30 3467 H 321.592 4.55355 -1.74651 0
M  V30 3468 H 320.597 3.83741 -3.93729 0
M  V30 3469 H 321.822 4.79309 -4.81082 0
M  V30 3470 H 319.768 5.90338 -2.86072 0
M  V30 3471 H 319.685 6.00811 -4.5887 0
M  V30 3472 H 320.953 6.83984 -3.73879 0
M  V30 3473 N 325.182 1.32811 0.848464 0
M  V30 3474 C 326.132 1.18842 1.94578 0
M  V30 3475 C 327.116 0.0937517 1.60627 0
M  V30 3476 O 328.308 0.320887 1.74067 0
M  V30 3477 C 325.437 0.91999 3.30743 0
M  V30 3478 C 324.523 2.05665 3.70894 0
M  V30 3479 N 324.914 3.30579 3.8282 0
M  V30 3480 C 323.212 1.9612 4.00566 0
M  V30 3481 C 323.913 4.05067 4.17487 0
M  V30 3482 N 322.889 3.33419 4.2934 0
M  V30 3483 H 326.691 2.13536 2.0194 0
M  V30 3484 H 324.205 1.2468 1.0406 0
M  V30 3485 H 326.202 0.800859 4.09136 0
M  V30 3486 H 324.862 -0.0185076 3.24695 0
M  V30 3487 H 325.873 3.65441 3.66978 0
M  V30 3488 H 322.55 1.09871 4.02784 0
M  V30 3489 H 323.94 5.12815 4.34131 0
M  V30 3490 N 326.66 -1.06551 1.16123 0
M  V30 3491 C 327.937 -1.76097 0.85142 0
M  V30 3492 C 328.317 -2.00802 -0.6513 0
M  V30 3493 O 327.665 -1.63302 -1.59827 0
M  V30 3494 C 327.875 -3.06384 1.67122 0
M  V30 3495 C 329.223 -3.80585 1.88255 0
M  V30 3496 O 330.247 -3.16218 1.63966 0
M  V30 3497 O 329.106 -4.96212 2.2899 0
M  V30 3498 H 326.2 -0.765102 0.313923 0
M  V30 3499 H 328.746 -1.12844 1.26745 0
M  V30 3500 H 327.518 -2.84071 2.69108 0
M  V30 3501 H 327.141 -3.77371 1.25206 0
M  V30 3502 N 328.138 -0.959301 -1.25041 0
M  V30 3503 C 329.363 -0.633507 -1.97488 0
M  V30 3504 C 329.788 0.788555 -1.70773 0
M  V30 3505 O 329.146 1.53394 -0.966431 0
M  V30 3506 C 329.194 -0.904057 -3.49083 0
M  V30 3507 O 328.298 0.0147939 -4.12397 0
M  V30 3508 H 327.639 -0.240368 -0.618966 0
M  V30 3509 H 330.169 -1.28717 -1.59038 0
M  V30 3510 H 330.179 -0.832203 -3.99423 0
M  V30 3511 H 328.854 -1.94048 -3.67856 0
M  V30 3512 H 327.431 -0.109664 -3.72739 0
M  V30 3513 N 329.616 1.39756 -0.72842 0
M  V30 3514 C 330.865 1.99879 -0.270407 0
M  V30 3515 C 331.178 1.58449 1.14688 0
M  V30 3516 O 332.384 2.11362 1.70407 0
M  V30 3517 C 330.84 3.57292 -0.43252 0
M  V30 3518 C 330.448 4.07688 -1.85727 0
M  V30 3519 C 332.192 4.24485 -0.0359507 0
M  V30 3520 C 330.099 5.5765 -1.96928 0
M  V30 3521 H 329.029 0.747689 -0.0973472 0
M  V30 3522 H 331.68 1.59837 -0.901355 0
M  V30 3523 H 330.062 3.95097 0.267219 0
M  V30 3524 H 331.236 3.81231 -2.58843 0
M  V30 3525 H 329.551 3.53135 -2.20646 0
M  V30 3526 H 332.148 5.34609 -0.0987484 0
M  V30 3527 H 332.491 4.03915 1.00787 0
M  V30 3528 H 333.024 3.9183 -0.686604 0
M  V30 3529 H 329.763 5.8309 -2.99476 0
M  V30 3530 H 329.283 5.8593 -1.28241 0
M  V30 3531 H 330.962 6.22957 -1.74737 0
M  V30 3532 N 331.094 0.475555 1.50254 0
M  V30 3533 C 332.041 -0.316293 2.28622 0
M  V30 3534 C 333.011 -0.983227 1.33873 0
M  V30 3535 O 334.196 -0.994805 1.62814 0
M  V30 3536 C 331.336 -1.38975 3.1588 0
M  V30 3537 C 330.449 -0.737146 4.25664 0
M  V30 3538 C 329.584 -1.78887 5.00173 0
M  V30 3539 C 328.623 -1.11676 6.01826 0
M  V30 3540 N 327.76 -2.11154 6.69596 0
M  V30 3541 H 332.6 0.358297 2.95838 0
M  V30 3542 H 330.137 0.188541 1.45887 0
M  V30 3543 H 332.095 -2.02383 3.64825 0
M  V30 3544 H 330.725 -2.03344 2.50701 0
M  V30 3545 H 329.777 0.0096065 3.80399 0
M  V30 3546 H 331.089 -0.206816 4.98371 0
M  V30 3547 H 330.243 -2.49865 5.52859 0
M  V30 3548 H 328.982 -2.35302 4.27182 0
M  V30 3549 H 327.987 -0.392633 5.48396 0
M  V30 3550 H 329.212 -0.55945 6.76792 0
M  V30 3551 H 327.158 -2.66577 5.99394 0
M  V30 3552 H 327.075 -1.63118 7.38193 0
M  V30 3553 H 328.343 -2.81497 7.26897 0
M  V30 3554 N 332.573 -1.56217 0.208337 0
M  V30 3555 C 333.85 -1.89739 -0.475234 0
M  V30 3556 C 334.23 -1.1238 -1.78701 0
M  V30 3557 O 333.578 -0.228979 -2.2735 0
M  V30 3558 C 333.788 -3.42289 -0.681101 0
M  V30 3559 C 335.136 -4.12789 -0.994507 0
M  V30 3560 O 336.16 -3.47814 -0.768357 0
M  V30 3561 O 335.019 -5.27649 -1.42299 0
M  V30 3562 H 332.113 -0.788478 -0.249461 0
M  V30 3563 H 334.659 -1.67855 0.249538 0
M  V30 3564 H 333.431 -3.90534 0.244722 0
M  V30 3565 H 333.054 -3.69909 -1.45785 0
M  V30 3566 N 334.051 0.0651679 -1.57465 0
M  V30 3567 C 335.328 0.79644 -1.78651 0
M  V30 3568 C 335.708 1.95454 -0.797566 0
M  V30 3569 O 335.056 2.27882 0.167946 0
M  V30 3570 C 335.266 1.26322 -3.25337 0
M  V30 3571 C 336.614 1.6939 -3.89348 0
M  V30 3572 O 337.638 1.35872 -3.29268 0
M  V30 3573 O 336.497 2.31471 -4.95059 0
M  V30 3574 H 333.591 0.382157 -0.733407 0
M  V30 3575 H 336.137 0.0447311 -1.69641 0
M  V30 3576 H 334.909 0.434859 -3.88876 0
M  V30 3577 H 334.532 2.07604 -3.39096 0
M  V30 3578 N 335.529 1.53961 0.336706 0
M  V30 3579 C 336.754 1.75797 1.10046 0
M  V30 3580 C 337.179 0.498985 1.81361 0
M  V30 3581 O 336.537 -0.548769 1.72795 0
M  V30 3582 C 336.585 2.94257 2.08436 0
M  V30 3583 O 335.689 2.64883 3.16087 0
M  V30 3584 H 335.03 0.582936 0.317934 0
M  V30 3585 H 337.56 2.00945 0.38501 0
M  V30 3586 H 337.57 3.21237 2.51537 0
M  V30 3587 H 336.245 3.85564 1.55927 0
M  V30 3588 H 334.822 2.48812 2.77753 0
M  V30 3589 N 337.007 -0.598083 1.45811 0
M  V30 3590 C 337.917 -1.73632 1.57763 0
M  V30 3591 C 338.933 -1.67763 0.461676 0
M  V30 3592 O 340.109 -1.87949 0.723685 0
M  V30 3593 C 337.174 -3.10114 1.55018 0
M  V30 3594 C 336.235 -3.27364 2.77726 0
M  V30 3595 C 335.468 -4.57334 2.75102 0
M  V30 3596 O 335.691 -5.40258 1.8297 0
M  V30 3597 O 334.625 -4.77502 3.66437 0
M  V30 3598 H 338.451 -1.66498 2.53992 0
M  V30 3599 H 336.036 -0.763308 1.28429 0
M  V30 3600 H 337.918 -3.9141 1.56129 0
M  V30 3601 H 336.593 -3.17718 0.619431 0
M  V30 3602 H 335.5 -2.45619 2.82174 0
M  V30 3603 H 336.833 -3.24641 3.69958 0
M  V30 3604 N 338.485 -1.33259 -0.841409 0
M  V30 3605 C 339.762 -1.15174 -1.58096 0
M  V30 3606 C 340.142 0.282858 -2.09196 0
M  V30 3607 O 339.49 1.28151 -1.89181 0
M  V30 3608 C 339.7 -2.1907 -2.71679 0
M  V30 3609 C 341.048 -2.53093 -3.40924 0
M  V30 3610 O 342.072 -2.17717 -2.81918 0
M  V30 3611 O 340.931 -3.1379 -4.47435 0
M  V30 3612 H 338.025 -0.445303 -0.696875 0
M  V30 3613 H 340.571 -1.44833 -0.884385 0
M  V30 3614 H 339.343 -3.15443 -2.31541 0
M  V30 3615 H 338.966 -1.90481 -3.49002 0
M  V30 3616 N 339.963 1.05934 -1.16686 0
M  V30 3617 C 340.893 2.1546 -0.899949 0
M  V30 3618 C 341.874 1.69391 0.155154 0
M  V30 3619 O 343.059 1.94199 0.00648693 0
M  V30 3620 C 340.189 3.44939 -0.404241 0
M  V30 3621 C 339.143 4.04536 -1.39767 0
M  V30 3622 C 338.469 5.29268 -0.760216 0
M  V30 3623 C 339.769 4.42893 -2.76845 0
M  V30 3624 H 341.463 2.38046 -1.81588 0
M  V30 3625 H 339.009 1.14404 -0.874514 0
M  V30 3626 H 340.962 4.20901 -0.204971 0
M  V30 3627 H 339.686 3.21983 0.547206 0
M  V30 3628 H 338.345 3.30635 -1.58355 0
M  V30 3629 H 337.993 5.02611 0.197831 0
M  V30 3630 H 337.693 5.70101 -1.42332 0
M  V30 3631 H 339.217 6.07924 -0.57105 0
M  V30 3632 H 340.631 5.09921 -2.62019 0
M  V30 3633 H 339.028 4.94721 -3.39663 0
M  V30 3634 H 340.098 3.53584 -3.31823 0
M  V30 3635 N 341.441 0.965919 1.2453 0
M  V30 3636 C 342.388 0.49402 2.25451 0
M  V30 3637 C 343.358 -0.45948 1.59618 0
M  V30 3638 O 344.543 -0.370238 1.87173 0
M  V30 3639 C 341.683 -0.211359 3.44452 0
M  V30 3640 C 340.796 0.7807 4.24887 0
M  V30 3641 C 339.931 0.0516105 5.31175 0
M  V30 3642 C 338.97 1.03385 6.03306 0
M  V30 3643 N 338.107 0.334887 7.01301 0
M  V30 3644 H 342.947 1.35946 2.65184 0
M  V30 3645 H 340.484 0.681515 1.3036 0
M  V30 3646 H 342.442 -0.637 4.12308 0
M  V30 3647 H 341.072 -1.04077 3.05562 0
M  V30 3648 H 340.124 1.32479 3.56586 0
M  V30 3649 H 341.436 1.52978 4.74762 0
M  V30 3650 H 340.59 -0.432114 6.05159 0
M  V30 3651 H 339.329 -0.730179 4.82203 0
M  V30 3652 H 338.334 1.52847 5.28127 0
M  V30 3653 H 339.559 1.81606 6.54367 0
M  V30 3654 H 337.505 -0.427959 6.54603 0
M  V30 3655 H 337.422 1.02287 7.49048 0
M  V30 3656 H 338.69 -0.126928 7.79397 0
M  V30 3657 N 342.919 -1.39368 0.735821 0
M  V30 3658 C 344.33 -1.83313 0.354015 0
M  V30 3659 C 344.681 -1.61461 -1.11466 0
M  V30 3660 O 343.806 -1.10621 -1.85989 0
M  V30 3661 C 344.401 -3.32781 0.635769 0
M  V30 3662 C 342.96 -3.75142 0.307448 0
M  V30 3663 C 342.107 -2.62358 0.897974 0
M  V30 3664 H 345.058 -1.28349 0.933398 0
M  V30 3665 H 345.079 -3.80388 -0.0921773 0
M  V30 3666 H 344.591 -3.48654 1.70476 0
M  V30 3667 H 342.692 -3.64857 -0.755674 0
M  V30 3668 H 342.805 -4.72532 0.790583 0
M  V30 3669 H 341.169 -2.52624 0.324551 0
M  V30 3670 H 341.952 -2.81036 1.97164 0
M  V30 3671 N 344.397 -0.483516 -1.5 0
M  V30 3672 C 345.643 0.0672592 -2.02688 0
M  V30 3673 C 345.976 1.38247 -1.36387 0
M  V30 3674 O 345.251 1.88131 -0.493675 0
M  V30 3675 C 345.534 0.238109 -3.59312 0
M  V30 3676 C 345.387 -1.099 -4.36168 0
M  V30 3677 C 346.706 0.986916 -4.28892 0
M  V30 3678 H 343.825 0.0229696 -0.736642 0
M  V30 3679 H 346.467 -0.631527 -1.79197 0
M  V30 3680 H 344.617 0.8333 -3.79458 0
M  V30 3681 H 346.289 -1.73172 -4.27562 0
M  V30 3682 H 344.532 -1.69261 -3.99416 0
M  V30 3683 H 345.203 -0.932954 -5.44059 0
M  V30 3684 H 347.679 0.482302 -4.13295 0
M  V30 3685 H 346.555 1.07527 -5.38265 0
M  V30 3686 H 346.816 2.0265 -3.92919 0
M  V30 3687 N 345.875 1.56104 -0.216619 0
M  V30 3688 C 347.124 1.97348 0.416744 0
M  V30 3689 C 347.437 1.10715 1.6125 0
M  V30 3690 O 348.643 1.41836 2.31506 0
M  V30 3691 C 347.099 3.51059 0.792835 0
M  V30 3692 C 346.707 4.46387 -0.379828 0
M  V30 3693 C 348.451 4.01026 1.39208 0
M  V30 3694 C 346.358 5.91397 0.0184223 0
M  V30 3695 H 345.288 0.736942 0.159475 0
M  V30 3696 H 347.939 1.80827 -0.31205 0
M  V30 3697 H 346.321 3.63162 1.57891 0
M  V30 3698 H 347.495 4.46029 -1.15737 0
M  V30 3699 H 345.81 4.06734 -0.891979 0
M  V30 3700 H 348.407 5.0686 1.70286 0
M  V30 3701 H 348.75 3.46587 2.30614 0
M  V30 3702 H 349.283 3.92125 0.669537 0
M  V30 3703 H 346.022 6.49807 -0.862002 0
M  V30 3704 H 345.542 5.94961 0.760384 0
M  V30 3705 H 347.221 6.45455 0.446818 0
M  V30 3706 N 347.353 -0.0568162 1.57498 0
M  V30 3707 C 348.63 -0.786954 1.79071 0
M  V30 3708 C 349.01 -1.95028 0.80792 0
M  V30 3709 O 348.358 -2.27968 -0.155858 0
M  V30 3710 C 348.568 -1.24594 3.26002 0
M  V30 3711 C 349.916 -1.67323 3.90241 0
M  V30 3712 O 350.94 -1.34124 3.29984 0
M  V30 3713 O 349.799 -2.28842 4.9628 0
M  V30 3714 H 346.893 -0.378262 0.735423 0
M  V30 3715 H 349.439 -0.035734 1.69662 0
M  V30 3716 H 348.211 -0.41423 3.89101 0
M  V30 3717 H 347.834 -2.05803 3.40192 0
M  V30 3718 N 348.832 -1.54138 -0.328536 0
M  V30 3719 C 350.08 -1.71765 -1.06496 0
M  V30 3720 C 350.401 -0.49149 -1.88704 0
M  V30 3721 O 349.671 0.494539 -1.89555 0
M  V30 3722 H 348.251 -0.633295 -0.396164 0
M  V30 3723 H 350.913 -1.91429 -0.366176 0
M  V30 3724 H 350.009 -2.5951 -1.73381 0
M  V30 3725 N 350.31 0.590341 -1.46126 0
M  V30 3726 C 351.243 1.71434 -1.50617 0
M  V30 3727 C 352.221 1.58543 -0.360948 0
M  V30 3728 O 353.405 1.79865 -0.563985 0
M  V30 3729 C 350.532 3.09422 -1.37753 0
M  V30 3730 C 349.578 3.40854 -2.5636 0
M  V30 3731 S 350.411 3.33773 -4.18755 0
M  V30 3732 C 351.567 4.74312 -4.08386 0
M  V30 3733 H 351.8 1.67364 -2.45717 0
M  V30 3734 H 349.333 0.76845 -1.33919 0
M  V30 3735 H 351.291 3.8903 -1.31018 0
M  V30 3736 H 349.952 3.10989 -0.440949 0
M  V30 3737 H 349.145 4.41368 -2.43332 0
M  V30 3738 H 348.747 2.68798 -2.60046 0
M  V30 3739 H 351.039 5.64522 -3.74595 0
M  V30 3740 H 351.982 4.92397 -5.08872 0
M  V30 3741 H 352.39 4.50803 -3.3976 0
M  V30 3742 N 351.788 1.33704 0.83433 0
M  V30 3743 C 353.065 1.16011 1.57483 0
M  V30 3744 C 353.445 -0.27176 2.09343 0
M  V30 3745 O 352.793 -1.27146 1.89858 0
M  V30 3746 C 353.003 2.20507 2.70514 0
M  V30 3747 C 354.351 2.54898 3.39577 0
M  V30 3748 O 355.375 2.19209 2.80759 0
M  V30 3749 O 354.234 3.16158 4.45765 0
M  V30 3750 H 351.328 0.448992 0.694503 0
M  V30 3751 H 353.874 1.453 0.876691 0
M  V30 3752 H 352.646 3.16667 2.29865 0
M  V30 3753 H 352.269 1.92329 3.47987 0
M  V30 3754 N 353.266 -1.05314 1.17247 0
M  V30 3755 C 354.514 -1.77941 0.958194 0
M  V30 3756 C 354.835 -1.88089 -0.514556 0
M  V30 3757 O 354.105 -1.39676 -1.37359 0
M  V30 3758 H 352.685 -0.659116 0.351533 0
M  V30 3759 H 355.347 -1.27166 1.47699 0
M  V30 3760 H 354.443 -2.79663 1.38546 0
M  V30 3761 N 354.744 -0.972509 -1.24016 0
M  V30 3762 C 355.993 -0.632603 -1.91523 0
M  V30 3763 C 356.306 0.836641 -1.76804 0
M  V30 3764 O 357.512 1.28728 -2.39043 0
M  V30 3765 C 355.968 -1.08082 -3.43287 0
M  V30 3766 C 355.576 -2.57386 -3.66683 0
M  V30 3767 C 357.32 -0.814288 -4.16617 0
M  V30 3768 C 355.227 -2.95915 -5.12043 0
M  V30 3769 H 354.157 -0.232898 -0.717129 0
M  V30 3770 H 356.808 -1.17936 -1.40582 0
M  V30 3771 H 355.19 -0.462339 -3.93292 0
M  V30 3772 H 356.364 -3.24405 -3.27258 0
M  V30 3773 H 354.679 -2.81701 -3.06649 0
M  V30 3774 H 357.276 -1.0781 -5.23718 0
M  V30 3775 H 357.619 0.24955 -4.15551 0
M  V30 3776 H 358.152 -1.39397 -3.72577 0
M  V30 3777 H 354.891 -4.0139 -5.18234 0
M  V30 3778 H 354.411 -2.33584 -5.52448 0
M  V30 3779 H 356.09 -2.86086 -5.80314 0
M  V30 3780 N 356.222 1.38976 -0.743202 0
M  V30 3781 C 357.169 2.30544 -0.10861 0
M  V30 3782 C 358.139 1.49642 0.720869 0
M  V30 3783 O 359.324 1.78304 0.679142 0
M  V30 3784 C 356.464 3.36018 0.786496 0
M  V30 3785 C 355.577 4.31963 -0.0564849 0
M  V30 3786 C 354.712 5.24506 0.840657 0
M  V30 3787 C 353.751 6.121 -0.00658363 0
M  V30 3788 N 352.888 6.96973 0.846943 0
M  V30 3789 H 357.728 2.8424 -0.895088 0
M  V30 3790 H 355.265 1.3995 -0.453048 0
M  V30 3791 H 357.223 3.95768 1.31999 0
M  V30 3792 H 355.853 2.83758 1.53887 0
M  V30 3793 H 354.905 3.73763 -0.707492 0
M  V30 3794 H 356.217 4.93703 -0.711229 0
M  V30 3795 H 355.371 5.89322 1.4417 0
M  V30 3796 H 354.11 4.63107 1.52916 0
M  V30 3797 H 353.115 5.46289 -0.620366 0
M  V30 3798 H 354.34 6.75565 -0.691992 0
M  V30 3799 H 352.286 6.38133 1.52059 0
M  V30 3800 H 352.203 7.5559 0.248864 0
M  V30 3801 H 353.471 7.6621 1.43328 0
M  V30 3802 N 357.7 0.491464 1.49741 0
M  V30 3803 C 358.949 -0.0582189 2.01616 0
M  V30 3804 C 359.262 -1.38927 1.3769 0
M  V30 3805 O 360.468 -2.02509 1.80838 0
M  V30 3806 C 358.924 -0.154235 3.59569 0
M  V30 3807 C 358.532 1.1696 4.32463 0
M  V30 3808 C 360.276 -0.65479 4.1942 0
M  V30 3809 C 358.183 1.03627 5.8225 0
M  V30 3810 H 357.113 -0.0255317 0.753568 0
M  V30 3811 H 359.764 0.629445 1.72367 0
M  V30 3812 H 358.146 -0.906138 3.85493 0
M  V30 3813 H 359.32 1.93405 4.18248 0
M  V30 3814 H 357.635 1.60285 3.84315 0
M  V30 3815 H 360.232 -0.771903 5.29099 0
M  V30 3816 H 360.575 -1.65127 3.8215 0
M  V30 3817 H 361.108 0.040304 3.9778 0
M  V30 3818 H 357.847 2.00672 6.24028 0
M  V30 3819 H 357.367 0.312546 5.98985 0
M  V30 3820 H 359.046 0.711114 6.4308 0
M  V30 3821 N 359.178 -1.55987 0.224894 0
M  V30 3822 C 360.403 -2.03232 -0.41369 0
M  V30 3823 C 360.828 -1.10359 -1.52323 0
M  V30 3824 O 360.186 -0.092395 -1.81064 0
M  V30 3825 C 360.234 -3.48682 -0.919405 0
M  V30 3826 O 359.338 -3.58947 -2.03054 0
M  V30 3827 H 358.679 -0.657428 -0.0931903 0
M  V30 3828 H 361.209 -2.01679 0.34451 0
M  V30 3829 H 361.219 -3.8907 -1.22835 0
M  V30 3830 H 359.894 -4.15761 -0.107339 0
M  V30 3831 H 358.471 -3.30448 -1.72796 0
M  V30 3832 N 360.656 0.0484629 -1.57525 0
M  V30 3833 C 361.588 1.08222 -2.02041 0
M  V30 3834 C 362.601 1.33621 -0.930012 0
M  V30 3835 O 363.79 1.3145 -1.20761 0
M  V30 3836 C 360.89 2.42818 -2.36416 0
M  V30 3837 C 360.063 2.37049 -3.67596 0
M  V30 3838 C 359.122 3.53937 -3.89378 0
M  V30 3839 O 358.148 3.34308 -4.60681 0
M  V30 3840 N 359.35 4.75126 -3.3352 0
M  V30 3841 H 362.115 0.702946 -2.9134 0
M  V30 3842 H 359.676 0.236745 -1.6016 0
M  V30 3843 H 361.668 3.197 -2.48141 0
M  V30 3844 H 360.238 2.72661 -1.52888 0
M  V30 3845 H 359.458 1.45395 -3.66407 0
M  V30 3846 H 360.746 2.30318 -4.53686 0
M  V30 3847 H 360.144 4.93976 -2.75688 0
M  V30 3848 H 358.701 5.49439 -3.50656 0
M  V30 3849 N 362.134 1.5431 0.320358 0
M  V30 3850 C 363.382 1.72327 1.05583 0
M  V30 3851 C 363.703 0.50149 1.88441 0
M  V30 3852 O 362.973 -0.48448 1.89815 0
M  V30 3853 H 361.553 0.635387 0.3928 0
M  V30 3854 H 364.215 1.91621 0.356019 0
M  V30 3855 H 363.311 2.60426 1.72003 0
M  V30 3856 N 363.613 -0.582584 1.46437 0
M  V30 3857 C 364.543 -1.70187 1.59871 0
M  V30 3858 C 365.524 -1.64066 0.449042 0
M  V30 3859 O 366.709 -1.82081 0.6753 0
M  V30 3860 C 363.839 -3.08827 1.58881 0
M  V30 3861 C 362.793 -3.29779 2.72819 0
M  V30 3862 C 362.119 -4.68947 2.5689 0
M  V30 3863 C 363.419 -3.17601 4.1464 0
M  V30 3864 H 365.113 -1.592 2.53566 0
M  V30 3865 H 362.659 -0.764472 1.22032 0
M  V30 3866 H 364.612 -3.86951 1.66873 0
M  V30 3867 H 363.336 -3.20713 0.617306 0
M  V30 3868 H 361.995 -2.54054 2.64296 0
M  V30 3869 H 361.643 -4.77599 1.57823 0
M  V30 3870 H 361.343 -4.83919 3.33312 0
M  V30 3871 H 362.867 -5.4924 2.66773 0
M  V30 3872 H 364.281 -3.8557 4.24274 0
M  V30 3873 H 362.678 -3.44094 4.9165 0
M  V30 3874 H 363.748 -2.14681 4.34788 0
M  V30 3875 N 365.091 -1.34144 -0.827227 0
M  V30 3876 C 366.339 -1.26009 -1.58007 0
M  V30 3877 C 366.66 0.170971 -1.94249 0
M  V30 3878 O 365.93 1.10256 -1.61927 0
M  V30 3879 H 364.51 -0.463414 -0.585881 0
M  V30 3880 H 367.172 -1.68005 -0.987951 0
M  V30 3881 H 366.268 -1.86187 -2.50481 0
M  V30 3882 N 366.569 1.04691 -1.17803 0
M  V30 3883 C 367.499 2.14494 -0.92275 0
M  V30 3884 C 368.48 1.69546 0.137179 0
M  V30 3885 O 369.665 1.94195 -0.0141108 0
M  V30 3886 C 366.795 3.44491 -0.440803 0
M  V30 3887 C 365.749 4.03031 -1.4405 0
M  V30 3888 C 365.075 5.28432 -0.81631 0
M  V30 3889 C 366.375 4.39932 -2.81527 0
M  V30 3890 H 368.069 2.36107 -1.84103 0
M  V30 3891 H 365.615 1.1347 -0.886599 0
M  V30 3892 H 367.568 4.2066 -0.249602 0
M  V30 3893 H 366.292 3.22546 0.513025 0
M  V30 3894 H 364.951 3.28937 -1.61853 0
M  V30 3895 H 364.599 5.02792 0.144511 0
M  V30 3896 H 364.299 5.68559 -1.48371 0
M  V30 3897 H 365.823 6.07284 -0.635496 0
M  V30 3898 H 367.237 5.07113 -2.67412 0
M  V30 3899 H 365.634 4.9109 -3.44892 0
M  V30 3900 H 366.704 3.50045 -3.35554 0
M  V30 3901 N 368.047 0.979072 1.23499 0
M  V30 3902 C 368.979 0.476271 2.24197 0
M  V30 3903 C 369.992 -0.421166 1.57258 0
M  V30 3904 O 371.181 -0.225515 1.7707 0
M  V30 3905 C 368.281 -0.330503 3.37285 0
M  V30 3906 C 367.454 0.559744 4.33804 0
M  V30 3907 C 366.513 -0.192954 5.25846 0
M  V30 3908 O 365.539 0.416978 5.67671 0
M  V30 3909 N 366.741 -1.47932 5.61334 0
M  V30 3910 H 369.506 1.34211 2.67969 0
M  V30 3911 H 367.067 0.852189 1.37657 0
M  V30 3912 H 369.059 -0.842361 3.95836 0
M  V30 3913 H 367.629 -1.09734 2.92707 0
M  V30 3914 H 366.849 1.25245 3.73775 0
M  V30 3915 H 368.137 1.1665 4.95248 0
M  V30 3916 H 367.535 -1.9964 5.29302 0
M  V30 3917 H 366.092 -1.93664 6.22364 0
M  V30 3918 N 369.525 -1.3858 0.750561 0
M  V30 3919 C 370.802 -1.94231 0.231009 0
M  V30 3920 C 371.182 -1.68611 -1.27018 0
M  V30 3921 O 370.53 -1.02296 -2.04323 0
M  V30 3922 C 370.74 -3.44123 0.581428 0
M  V30 3923 C 372.088 -4.2116 0.539389 0
M  V30 3924 O 373.112 -3.52391 0.519541 0
M  V30 3925 O 371.971 -5.43749 0.54765 0
M  V30 3926 H 369.065 -0.825639 0.0474263 0
M  V30 3927 H 371.611 -1.4799 0.830478 0
M  V30 3928 H 370.383 -3.56267 1.61833 0
M  V30 3929 H 370.006 -3.97573 -0.0462047 0
M  V30 3930 N 371.003 -0.499398 -1.49478 0
M  V30 3931 C 372.25 0.0456899 -2.02448 0
M  V30 3932 C 372.578 1.37142 -1.37921 0
M  V30 3933 O 371.833 1.89111 -0.503544 0
M  V30 3934 C 372.132 0.248424 -3.56536 0
M  V30 3935 C 371.798 -0.999107 -4.39692 0
M  V30 3936 C 370.46 -1.34108 -4.62135 0
M  V30 3937 C 372.812 -1.82842 -4.88076 0
M  V30 3938 C 370.14 -2.51191 -5.30208 0
M  V30 3939 C 372.492 -2.99076 -5.57437 0
M  V30 3940 C 371.156 -3.33655 -5.78127 0
M  V30 3941 H 370.426 0.0167191 -0.740811 0
M  V30 3942 H 373.073 -0.65923 -1.79795 0
M  V30 3943 H 371.378 1.03586 -3.77859 0
M  V30 3944 H 373.075 0.684605 -3.95113 0
M  V30 3945 H 369.665 -0.722729 -4.22463 0
M  V30 3946 H 373.849 -1.57737 -4.70566 0
M  V30 3947 H 369.105 -2.78221 -5.44429 0
M  V30 3948 H 373.279 -3.63664 -5.93904 0
M  V30 3949 H 370.906 -4.24483 -6.30649 0
M  V30 3950 N 372.481 1.55866 -0.233164 0
M  V30 3951 C 373.758 1.90471 0.444988 0
M  V30 3952 C 374.138 1.15209 1.7689 0
M  V30 3953 O 373.486 0.265119 2.26957 0
M  V30 3954 C 373.696 3.4333 0.626559 0
M  V30 3955 C 375.044 4.14319 0.92871 0
M  V30 3956 O 376.068 3.48993 0.712926 0
M  V30 3957 O 374.927 5.29846 1.33887 0
M  V30 3958 H 372.021 0.792347 0.236885 0
M  V30 3959 H 374.567 1.67437 -0.276211 0
M  V30 3960 H 373.339 3.90095 -0.306822 0
M  V30 3961 H 372.962 3.72181 1.39881 0
M  V30 3962 N 373.959 -0.0401083 1.57549 0
M  V30 3963 C 374.889 -1.04384 2.08869 0
M  V30 3964 C 375.87 -1.38407 0.988817 0
M  V30 3965 O 377.055 -1.47483 1.26342 0
M  V30 3966 C 374.185 -2.34808 2.55895 0
M  V30 3967 C 373.139 -2.15057 3.70047 0
M  V30 3968 C 372.465 -3.51145 4.03239 0
M  V30 3969 C 373.765 -1.54576 4.98902 0
M  V30 3970 H 375.459 -0.616666 2.92981 0
M  V30 3971 H 373.005 -0.295184 1.40942 0
M  V30 3972 H 374.958 -3.05346 2.90417 0
M  V30 3973 H 373.682 -2.79565 1.68853 0
M  V30 3974 H 372.341 -1.46954 3.35857 0
M  V30 3975 H 371.989 -3.93529 3.13279 0
M  V30 3976 H 371.689 -3.38758 4.80122 0
M  V30 3977 H 373.213 -4.23062 4.40285 0
M  V30 3978 H 374.627 -2.15017 5.31451 0
M  V30 3979 H 373.024 -1.52796 5.80322 0
M  V30 3980 H 374.094 -0.51039 4.82206 0
M  V30 3981 N 375.437 -1.54477 -0.31217 0
M  V30 3982 C 376.686 -1.72438 -1.04633 0
M  V30 3983 C 376.999 -0.511163 -1.88803 0
M  V30 3984 O 378.205 -0.572341 -2.65399 0
M  V30 3985 C 376.661 -3.05043 -1.9099 0
M  V30 3986 C 376.269 -4.33806 -1.11877 0
M  V30 3987 C 378.013 -3.32364 -2.64073 0
M  V30 3988 C 375.92 -5.57467 -1.97445 0
M  V30 3989 H 374.85 -0.642647 -0.394361 0
M  V30 3990 H 377.501 -1.80966 -0.303929 0
M  V30 3991 H 375.883 -2.90451 -2.69173 0
M  V30 3992 H 377.057 -4.59199 -0.383843 0
M  V30 3993 H 375.372 -4.13336 -0.504252 0
M  V30 3994 H 377.969 -4.21951 -3.28423 0
M  V30 3995 H 378.312 -2.50745 -3.32314 0
M  V30 3996 H 378.845 -3.47875 -1.92944 0
M  V30 3997 H 375.584 -6.41722 -1.33692 0
M  V30 3998 H 375.104 -5.36277 -2.6864 0
M  V30 3999 H 376.783 -5.94303 -2.5576 0
M  V30 4000 N 376.915 0.57481 -1.46744 0
M  V30 4001 C 378.331 0.898981 -1.31873 0
M  V30 4002 C 378.531 1.99313 -0.29605 0
M  V30 4003 O 377.587 2.50728 0.298621 0
M  V30 4004 C 378.9 1.30886 -2.7072 0
M  V30 4005 C 380.448 1.42127 -2.78871 0
M  V30 4006 C 380.923 1.86478 -4.18318 0
M  V30 4007 N 382.414 1.93658 -4.20774 0
M  V30 4008 C 383.149 2.29267 -5.2557 0
M  V30 4009 N 382.645 2.63612 -6.40688 0
M  V30 4010 N 384.438 2.29889 -5.1294 0
M  V30 4011 H 376.589 -0.147839 -2.11885 0
M  V30 4012 H 378.852 -0.00347013 -0.947994 0
M  V30 4013 H 378.558 0.578853 -3.46904 0
M  V30 4014 H 378.432 2.26874 -3.01343 0
M  V30 4015 H 380.819 2.14213 -2.0297 0
M  V30 4016 H 380.9 0.443705 -2.51922 0
M  V30 4017 H 380.544 1.14968 -4.94717 0
M  V30 4018 H 380.474 2.85207 -4.42679 0
M  V30 4019 H 382.965 1.69574 -3.37718 0
M  V30 4020 H 383.278 2.89759 -7.16421 0
M  V30 4021 H 381.623 2.61232 -6.44036 0
M  V30 4022 H 384.814 2.02485 -4.22039 0
M  V30 4023 H 384.987 2.57312 -5.94722 0
M  V30 4024 N 378.394 1.34581 0.820102 0
M  V30 4025 C 379.64 1.27285 1.57881 0
M  V30 4026 C 379.973 -0.156137 1.93571 0
M  V30 4027 O 379.248 -1.10222 1.60254 0
M  V30 4028 C 379.531 2.16639 2.87645 0
M  V30 4029 C 379.384 3.68088 2.58517 0
M  V30 4030 C 380.703 2.05378 3.8924 0
M  V30 4031 H 377.822 0.463714 0.572833 0
M  V30 4032 H 380.464 1.64859 0.944539 0
M  V30 4033 H 378.614 1.84725 3.41773 0
M  V30 4034 H 380.286 4.10382 2.10676 0
M  V30 4035 H 378.529 3.89038 1.91917 0
M  V30 4036 H 379.2 4.2598 3.51063 0
M  V30 4037 H 381.676 2.33404 3.44473 0
M  V30 4038 H 380.552 2.7012 4.77835 0
M  V30 4039 H 380.813 1.0316 4.29896 0
M  V30 4040 N 379.872 -1.04064 1.18357 0
M  V30 4041 C 381.121 -1.76662 0.973313 0
M  V30 4042 C 381.434 -1.89154 -0.497991 0
M  V30 4043 O 382.64 -2.58606 -0.826762 0
M  V30 4044 C 381.096 -3.17624 1.69242 0
M  V30 4045 C 380.704 -3.13225 3.20303 0
M  V30 4046 C 382.448 -3.946 1.56497 0
M  V30 4047 C 380.355 -4.49046 3.84853 0
M  V30 4048 H 379.285 -0.662214 0.36054 0
M  V30 4049 H 381.936 -1.16553 1.41731 0
M  V30 4050 H 380.318 -3.78129 1.1762 0
M  V30 4051 H 381.492 -2.62172 3.78949 0
M  V30 4052 H 379.807 -2.49749 3.33189 0
M  V30 4053 H 382.404 -4.95042 2.02084 0
M  V30 4054 H 382.747 -4.13074 0.517243 0
M  V30 4055 H 383.28 -3.4067 2.05399 0
M  V30 4056 H 380.019 -4.35777 4.89672 0
M  V30 4057 H 379.539 -5.00203 3.30994 0
M  V30 4058 H 381.218 -5.17961 3.87718 0
M  V30 4059 N 381.35 -0.985608 -1.22978 0
M  V30 4060 C 382.598 -0.656087 -1.91154 0
M  V30 4061 C 382.919 0.813561 -1.77218 0
M  V30 4062 O 382.189 1.58244 -1.1548 0
M  V30 4063 H 380.769 -0.239674 -0.707506 0
M  V30 4064 H 383.431 -1.25054 -1.49491 0
M  V30 4065 H 382.527 -0.912253 -2.9847 0
M  V30 4066 N 382.828 1.3818 -0.7579 0
M  V30 4067 C 384.244 1.5353 -0.435972 0
M  V30 4068 C 384.444 1.71961 1.05032 0
M  V30 4069 O 383.5 1.73307 1.83633 0
M  V30 4070 C 384.813 2.73989 -1.23898 0
M  V30 4071 C 386.361 2.87841 -1.22949 0
M  V30 4072 C 386.836 4.11266 -2.01554 0
M  V30 4073 N 388.327 4.18352 -1.98837 0
M  V30 4074 C 389.062 5.12856 -2.5645 0
M  V30 4075 N 388.558 6.13005 -3.22794 0
M  V30 4076 N 390.351 5.05238 -2.46356 0
M  V30 4077 H 382.502 1.24467 -1.7211 0
M  V30 4078 H 384.765 0.604982 -0.729864 0
M  V30 4079 H 384.471 2.66789 -2.29165 0
M  V30 4080 H 384.345 3.67294 -0.858764 0
M  V30 4081 H 386.732 2.9452 -0.184854 0
M  V30 4082 H 386.813 1.95534 -1.64924 0
M  V30 4083 H 386.457 4.05349 -3.06031 0
M  V30 4084 H 386.387 5.02661 -1.5697 0
M  V30 4085 H 388.878 3.46628 -1.50524 0
M  V30 4086 H 389.191 6.81619 -3.64165 0
M  V30 4087 H 387.536 6.13325 -3.2689 0
M  V30 4088 H 390.727 4.25938 -1.9415 0
M  V30 4089 H 390.9 5.78707 -2.91552 0
M  V30 4090 N 384.306 0.507319 1.49211 0
M  V30 4091 C 385.554 -0.0348839 2.0207 0
M  V30 4092 C 385.875 -1.36898 1.38866 0
M  V30 4093 O 385.145 -1.88133 0.546151 0
M  V30 4094 H 383.725 -0.0158812 0.746831 0
M  V30 4095 H 386.387 0.665998 1.83168 0
M  V30 4096 H 385.483 -0.159917 3.1169 0
M  V30 4097 N 385.784 -1.5574 0.241426 0
M  V30 4098 C 387.009 -2.0366 -0.392111 0
M  V30 4099 C 387.434 -1.11969 -1.51144 0
M  V30 4100 O 386.792 -0.111594 -1.80956 0
M  V30 4101 C 386.84 -3.49638 -0.882371 0
M  V30 4102 O 385.944 -3.6108 -1.99235 0
M  V30 4103 H 385.285 -0.658379 -0.0862122 0
M  V30 4104 H 387.815 -2.01302 0.365881 0
M  V30 4105 H 387.825 -3.90351 -1.18702 0
M  V30 4106 H 386.5 -4.15852 -0.0632361 0
M  V30 4107 H 385.077 -3.32262 -1.69282 0
M  V30 4108 N 387.262 0.0317525 -1.57568 0
M  V30 4109 C 388.492 0.733884 -1.93126 0
M  V30 4110 C 388.9 1.69563 -0.839352 0
M  V30 4111 O 388.243 1.82681 0.193175 0
M  V30 4112 C 388.305 1.54798 -3.24465 0
M  V30 4113 C 387.969 0.751304 -4.50782 0
M  V30 4114 C 388.966 0.0527632 -5.19873 0
M  V30 4115 C 386.651 0.706639 -4.97305 0
M  V30 4116 C 388.645 -0.679774 -6.33765 0
M  V30 4117 C 386.332 -0.0296449 -6.11093 0
M  V30 4118 C 387.33 -0.721614 -6.79177 0
M  V30 4119 O 387.018 -1.44595 -7.90789 0
M  V30 4120 H 386.75 0.211459 -0.642076 0
M  V30 4121 H 389.304 -0.00585615 -2.05399 0
M  V30 4122 H 387.534 2.33147 -3.08512 0
M  V30 4123 H 389.223 2.13247 -3.4537 0
M  V30 4124 H 389.989 0.0783188 -4.84937 0
M  V30 4125 H 385.868 1.23474 -4.44157 0
M  V30 4126 H 389.412 -1.22042 -6.86842 0
M  V30 4127 H 385.309 -0.0571331 -6.45475 0
M  V30 4128 H 386.077 -1.35935 -8.07133 0
M  V30 4129 N 388.74 1.54641 0.303973 0
M  V30 4130 C 389.703 1.84646 1.35789 0
M  V30 4131 C 390.703 0.7192 1.4382 0
M  V30 4132 O 391.893 0.987491 1.43507 0
M  V30 4133 C 389.025 2.02407 2.74307 0
M  V30 4134 H 390.218 2.78829 1.10429 0
M  V30 4135 H 387.771 1.46658 0.540487 0
M  V30 4136 H 388.506 1.10502 3.04893 0
M  V30 4137 H 388.291 2.84453 2.69868 0
M  V30 4138 H 389.781 2.27002 3.50514 0
M  V30 4139 N 390.218 -0.567019 1.47046 0
M  V30 4140 C 391.165 -1.67489 1.58796 0
M  V30 4141 C 392.135 -1.60399 0.43144 0
M  V30 4142 O 393.32 -1.79378 0.650233 0
M  V30 4143 C 390.46 -3.05821 1.59899 0
M  V30 4144 C 389.573 -3.2342 2.86397 0
M  V30 4145 C 388.708 -4.52093 2.789 0
M  V30 4146 C 387.747 -4.6309 4.00267 0
M  V30 4147 N 386.884 -5.83106 3.91064 0
M  V30 4148 H 391.724 -1.56785 2.53422 0
M  V30 4149 H 389.261 -0.763896 1.2571 0
M  V30 4150 H 391.219 -3.8591 1.58522 0
M  V30 4151 H 389.849 -3.15384 0.687929 0
M  V30 4152 H 388.901 -2.3683 2.97684 0
M  V30 4153 H 390.213 -3.27412 3.76301 0
M  V30 4154 H 389.367 -5.4043 2.75718 0
M  V30 4155 H 388.106 -4.50565 1.86662 0
M  V30 4156 H 387.111 -3.73168 4.03765 0
M  V30 4157 H 388.336 -4.66386 4.93621 0
M  V30 4158 H 386.282 -5.82546 3.01623 0
M  V30 4159 H 386.199 -5.88434 4.74638 0
M  V30 4160 H 387.467 -6.73831 3.91882 0
M  V30 4161 N 391.696 -1.35014 -0.812953 0
M  V30 4162 C 392.942 -1.2812 -1.57204 0
M  V30 4163 C 393.275 0.145869 -1.93651 0
M  V30 4164 O 392.55 1.0937 -1.60836 0
M  V30 4165 C 392.833 -2.18162 -2.86492 0
M  V30 4166 C 392.686 -3.69454 -2.56561 0
M  V30 4167 C 394.005 -2.07439 -3.88145 0
M  V30 4168 H 391.124 -0.466746 -0.570366 0
M  V30 4169 H 393.766 -1.65357 -0.935783 0
M  V30 4170 H 391.916 -1.86535 -3.40789 0
M  V30 4171 H 393.588 -4.11493 -2.08497 0
M  V30 4172 H 391.831 -3.9005 -1.89851 0
M  V30 4173 H 392.502 -4.27835 -3.48799 0
M  V30 4174 H 394.978 -2.35228 -3.4323 0
M  V30 4175 H 393.854 -2.7265 -4.76396 0
M  V30 4176 H 394.115 -1.05439 -4.29343 0
M  V30 4177 N 393.175 1.03435 -1.18907 0
M  V30 4178 C 394.105 2.13503 -0.945448 0
M  V30 4179 C 395.086 1.69682 0.119189 0
M  V30 4180 O 396.271 1.94169 -0.034707 0
M  V30 4181 C 393.401 3.44004 -0.477316 0
M  V30 4182 C 392.355 4.0148 -1.48316 0
M  V30 4183 C 391.681 5.27537 -0.872311 0
M  V30 4184 C 392.981 4.36921 -2.86177 0
M  V30 4185 H 394.675 2.34141 -1.86597 0
M  V30 4186 H 392.221 1.12523 -0.898584 0
M  V30 4187 H 394.174 4.20372 -0.294204 0
M  V30 4188 H 392.898 3.23072 0.478786 0
M  V30 4189 H 391.557 3.27201 -1.65332 0
M  V30 4190 H 391.205 5.02917 0.0911752 0
M  V30 4191 H 390.905 5.66954 -1.54393 0
M  V30 4192 H 392.429 6.06576 -0.699871 0
M  V30 4193 H 393.843 5.04248 -2.72776 0
M  V30 4194 H 392.24 4.87405 -3.50081 0
M  V30 4195 H 393.31 3.46466 -3.39248 0
M  V30 4196 N 394.653 0.992116 1.22453 0
M  V30 4197 C 395.583 0.561677 2.26644 0
M  V30 4198 C 396.564 -0.411055 1.65059 0
M  V30 4199 O 397.749 -0.301861 1.9184 0
M  V30 4200 C 394.879 -0.125247 3.47074 0
M  V30 4201 C 393.833 0.765948 4.21091 0
M  V30 4202 C 393.159 -0.0538484 5.34673 0
M  V30 4203 C 394.459 2.06242 4.79856 0
M  V30 4204 H 396.153 1.43259 2.62902 0
M  V30 4205 H 393.699 0.690283 1.26377 0
M  V30 4206 H 395.652 -0.437764 4.1912 0
M  V30 4207 H 394.376 -1.03069 3.0991 0
M  V30 4208 H 393.035 1.0621 3.50878 0
M  V30 4209 H 392.683 -0.960188 4.9375 0
M  V30 4210 H 392.383 0.539415 5.85119 0
M  V30 4211 H 393.907 -0.360477 6.09535 0
M  V30 4212 H 395.321 1.8139 5.43848 0
M  V30 4213 H 393.718 2.60444 5.40638 0
M  V30 4214 H 394.788 2.74167 3.99951 0
M  V30 4215 N 396.131 -1.37776 0.765217 0
M  V30 4216 C 397.377 -2.00145 0.327072 0
M  V30 4217 C 397.71 -1.60607 -1.09175 0
M  V30 4218 O 396.985 -0.849127 -1.74986 0
M  V30 4219 C 397.268 -3.57109 0.46319 0
M  V30 4220 C 397.121 -4.06576 1.92395 0
M  V30 4221 C 398.44 -4.39888 -0.136473 0
M  V30 4222 H 395.559 -0.727113 0.120316 0
M  V30 4223 H 398.201 -1.63549 0.967039 0
M  V30 4224 H 396.351 -3.88414 -0.0816358 0
M  V30 4225 H 398.023 -3.85864 2.52798 0
M  V30 4226 H 396.266 -3.59011 2.43503 0
M  V30 4227 H 396.937 -5.15639 1.97028 0
M  V30 4228 H 399.413 -4.14803 0.328317 0
M  V30 4229 H 398.289 -5.48899 -0.0110582 0
M  V30 4230 H 398.55 -4.24758 -1.22608 0
M  V30 4231 N 397.609 -0.515225 -1.4894 0
M  V30 4232 C 399.025 -0.172099 -1.58669 0
M  V30 4233 C 399.225 1.32405 -1.51892 0
M  V30 4234 O 398.281 2.10116 -1.40027 0
M  V30 4235 C 399.594 -0.761533 -2.90897 0
M  V30 4236 C 401.142 -0.728926 -3.04394 0
M  V30 4237 C 401.617 -1.29667 -4.39261 0
M  V30 4238 N 403.108 -1.25799 -4.4579 0
M  V30 4239 C 403.843 -1.66733 -5.48623 0
M  V30 4240 N 403.339 -2.15327 -6.58488 0
M  V30 4241 N 405.132 -1.58061 -5.39419 0
M  V30 4242 H 397.283 -1.48778 -1.51588 0
M  V30 4243 H 399.546 -0.617968 -0.718901 0
M  V30 4244 H 399.252 -1.81136 -3.01468 0
M  V30 4245 H 399.126 -0.230106 -3.76497 0
M  V30 4246 H 401.513 0.312098 -2.93445 0
M  V30 4247 H 401.594 -1.29766 -2.20442 0
M  V30 4248 H 401.238 -2.33655 -4.50963 0
M  V30 4249 H 401.168 -0.703752 -5.21876 0
M  V30 4250 H 403.659 -0.902102 -3.66975 0
M  V30 4251 H 403.972 -2.44594 -7.33071 0
M  V30 4252 H 402.317 -2.19311 -6.59491 0
M  V30 4253 H 405.508 -1.19906 -4.52482 0
M  V30 4254 H 405.681 -1.90284 -6.19432 0
M  V30 4255 N 399.087 1.5561 -0.249682 0
M  V30 4256 C 400.017 2.24477 0.642826 0
M  V30 4257 C 400.998 1.22601 1.17911 0
M  V30 4258 O 402.183 1.5126 1.21795 0
M  V30 4259 C 399.313 2.94638 1.83863 0
M  V30 4260 C 398.267 4.03227 1.435 0
M  V30 4261 C 397.593 4.60828 2.71186 0
M  V30 4262 C 398.893 5.18796 0.604002 0
M  V30 4263 H 400.587 2.99321 0.0685625 0
M  V30 4264 H 398.133 1.43965 0.0315363 0
M  V30 4265 H 400.086 3.41517 2.46868 0
M  V30 4266 H 398.81 2.17287 2.43832 0
M  V30 4267 H 397.469 3.57121 0.828275 0
M  V30 4268 H 397.117 3.80174 3.29358 0
M  V30 4269 H 396.817 5.34132 2.44901 0
M  V30 4270 H 398.341 5.10442 3.35084 0
M  V30 4271 H 399.755 5.61883 1.13842 0
M  V30 4272 H 398.152 5.98506 0.437097 0
M  V30 4273 H 399.222 4.83384 -0.383147 0
M  V30 4274 N 400.565 -0.0233959 1.57583 0
M  V30 4275 C 401.512 -1.02224 2.06927 0
M  V30 4276 C 402.482 -1.35575 0.959617 0
M  V30 4277 O 403.667 -1.45815 1.23055 0
M  V30 4278 C 400.807 -2.31636 2.5581 0
M  V30 4279 C 399.92 -2.04394 3.80588 0
M  V30 4280 C 399.055 -3.27717 4.18061 0
M  V30 4281 C 398.094 -2.96056 5.3574 0
M  V30 4282 N 397.231 -4.11847 5.68618 0
M  V30 4283 H 402.071 -0.594504 2.9201 0
M  V30 4284 H 399.608 -0.281921 1.44373 0
M  V30 4285 H 401.566 -3.07258 2.82221 0
M  V30 4286 H 400.196 -2.72122 1.73636 0
M  V30 4287 H 399.248 -1.19244 3.61227 0
M  V30 4288 H 400.56 -1.77042 4.66323 0
M  V30 4289 H 399.714 -4.11702 4.4563 0
M  V30 4290 H 398.453 -3.58188 3.30988 0
M  V30 4291 H 397.458 -2.10474 5.07918 0
M  V30 4292 H 398.683 -2.66857 6.24471 0
M  V30 4293 H 396.629 -4.42258 4.84504 0
M  V30 4294 H 396.546 -3.87938 6.48876 0
M  V30 4295 H 397.814 -4.96689 6.00766 0
M  V30 4296 N 402.043 -1.548 -0.295768 0
M  V30 4297 C 402.99 -1.86113 -1.36494 0
M  V30 4298 C 403.96 -0.7105 -1.50137 0
M  V30 4299 O 405.145 -0.959626 -1.64912 0
M  V30 4300 C 402.285 -2.11861 -2.72413 0
M  V30 4301 C 401.398 -3.39471 -2.67177 0
M  V30 4302 C 400.533 -3.55035 -3.95125 0
M  V30 4303 C 399.572 -4.76418 -3.84308 0
M  V30 4304 N 398.709 -4.8876 -5.04042 0
M  V30 4305 H 403.549 -2.77314 -1.09091 0
M  V30 4306 H 401.086 -1.37315 -0.52753 0
M  V30 4307 H 403.044 -2.24786 -3.51464 0
M  V30 4308 H 401.674 -1.2392 -2.98066 0
M  V30 4309 H 400.726 -3.35139 -1.79962 0
M  V30 4310 H 402.038 -4.28646 -2.55076 0
M  V30 4311 H 401.192 -3.67653 -4.82614 0
M  V30 4312 H 399.931 -2.64002 -4.10066 0
M  V30 4313 H 398.936 -4.63827 -2.95202 0
M  V30 4314 H 400.161 -5.68863 -3.70906 0
M  V30 4315 H 398.107 -4.00652 -5.19436 0
M  V30 4316 H 398.024 -5.71945 -4.94384 0
M  V30 4317 H 399.292 -5.0574 -5.93167 0
M  V30 4318 N 403.521 0.559213 -1.47345 0
M  V30 4319 C 404.469 1.68747 -1.60085 0
M  V30 4320 C 405.463 1.628 -0.46825 0
M  V30 4321 O 406.669 1.68009 -0.645977 0
M  V30 4322 H 403.044 0.558329 -0.503759 0
M  V30 4323 H 405.015 1.55138 -2.54902 0
M  V30 4324 C 403.764 3.07103 -1.63042 0
M  V30 4325 H 403.087 3.12361 -2.49541 0
M  V30 4326 H 404.527 3.85743 -1.76006 0
M  V30 4327 C 402.986 3.34935 -0.363357 0
M  V30 4328 O 403.516 3.98102 0.536416 0
M  V30 4329 N 401.722 2.89574 -0.244 0
M  V30 4330 H 401.269 2.38348 -0.977133 0
M  V30 4331 H 401.227 3.08566 0.602836 0
M  V30 4332 N 404.999 1.35443 0.805782 0
M  V30 4333 C 406.276 1.19325 1.54987 0
M  V30 4334 C 406.656 -0.227294 2.09873 0
M  V30 4335 O 406.004 -1.2309 1.92512 0
M  V30 4336 C 406.214 2.26196 2.65775 0
M  V30 4337 C 407.562 2.62043 3.34094 0
M  V30 4338 O 408.586 2.25115 2.76046 0
M  V30 4339 O 407.445 3.25542 4.38958 0
M  V30 4340 H 404.539 0.463623 0.684823 0
M  V30 4341 H 407.085 1.47127 0.845674 0
M  V30 4342 H 405.857 3.21471 2.23096 0
M  V30 4343 H 405.48 1.99667 3.43829 0
M  V30 4344 N 406.477 -1.02803 1.19454 0
M  V30 4345 C 407.409 -2.11181 0.890807 0
M  V30 4346 C 408.422 -1.6238 -0.116829 0
M  V30 4347 O 409.611 -1.78144 0.112694 0
M  V30 4348 C 406.711 -3.37461 0.311942 0
M  V30 4349 C 405.884 -4.15446 1.36834 0
M  V30 4350 C 404.943 -5.20039 0.802864 0
M  V30 4351 O 403.969 -5.49602 1.48077 0
M  V30 4352 N 405.171 -5.79165 -0.393417 0
M  V30 4353 H 407.936 -2.37827 1.82369 0
M  V30 4354 H 405.497 -1.19101 1.09666 0
M  V30 4355 H 407.489 -4.0462 -0.0802225 0
M  V30 4356 H 406.059 -3.08156 -0.52524 0
M  V30 4357 H 405.279 -3.43423 1.93531 0
M  V30 4358 H 406.567 -4.64335 2.08015 0
M  V30 4359 H 405.965 -5.57466 -0.961658 0
M  V30 4360 H 404.522 -6.47729 -0.727351 0
M  V30 4361 N 407.956 -0.998596 -1.21925 0
M  V30 4362 C 409.205 -0.673085 -1.90138 0
M  V30 4363 C 409.518 0.79895 -1.78539 0
M  V30 4364 O 410.724 1.23628 -2.4172 0
M  V30 4365 C 409.18 -1.15339 -3.40918 0
M  V30 4366 C 408.788 -2.65106 -3.61141 0
M  V30 4367 C 410.532 -0.902476 -4.14796 0
M  V30 4368 C 408.439 -3.0671 -5.05651 0
M  V30 4369 H 407.369 -0.248057 -0.712028 0
M  V30 4370 H 410.02 -1.20891 -1.38049 0
M  V30 4371 H 408.402 -0.545658 -3.92223 0
M  V30 4372 H 409.576 -3.31274 -3.20304 0
M  V30 4373 H 407.891 -2.88142 -3.00605 0
M  V30 4374 H 410.488 -1.18895 -5.21314 0
M  V30 4375 H 410.831 0.161349 -4.15987 0
M  V30 4376 H 411.364 -1.47269 -3.69536 0
M  V30 4377 H 408.103 -4.12292 -5.09603 0
M  V30 4378 H 407.623 -2.45249 -5.47369 0
M  V30 4379 H 409.302 -2.9833 -5.74115 0
M  V30 4380 N 409.434 1.37368 -0.772513 0
M  V30 4381 C 410.664 2.03647 -0.348082 0
M  V30 4382 C 411.072 1.58392 1.03482 0
M  V30 4383 O 410.415 0.760921 1.672 0
M  V30 4384 C 410.477 3.58131 -0.313404 0
M  V30 4385 C 410.141 4.2652 -1.64102 0
M  V30 4386 C 411.138 4.50587 -2.5936 0
M  V30 4387 C 408.823 4.64335 -1.91567 0
M  V30 4388 C 410.817 5.11526 -3.80289 0
M  V30 4389 C 408.504 5.24996 -3.12766 0
M  V30 4390 C 409.502 5.48529 -4.06946 0
M  V30 4391 O 409.19 6.07921 -5.26011 0
M  V30 4392 H 408.922 0.660538 -0.143753 0
M  V30 4393 H 411.476 1.76669 -1.04772 0
M  V30 4394 H 409.706 3.84159 0.442617 0
M  V30 4395 H 411.395 4.05813 0.0840613 0
M  V30 4396 H 412.161 4.21784 -2.39423 0
M  V30 4397 H 408.04 4.45353 -1.19088 0
M  V30 4398 H 411.584 5.29811 -4.53813 0
M  V30 4399 H 407.481 5.53223 -3.32588 0
M  V30 4400 H 408.249 6.26398 -5.26847 0
M  V30 4401 N 410.912 0.523116 1.48665 0
M  V30 4402 C 411.875 -0.232592 2.28017 0
M  V30 4403 C 412.875 -0.874021 1.34972 0
M  V30 4404 O 414.065 -0.735132 1.57929 0
M  V30 4405 C 411.197 -1.33586 3.13636 0
M  V30 4406 H 412.39 0.464008 2.96289 0
M  V30 4407 H 409.943 0.278816 1.53793 0
M  V30 4408 H 410.678 -2.06593 2.4998 0
M  V30 4409 H 410.463 -0.881125 3.82071 0
M  V30 4410 H 411.953 -1.86759 3.73511 0
M  V30 4411 N 412.39 -1.55475 0.257931 0
M  V30 4412 C 413.323 -2.179 -0.677862 0
M  V30 4413 C 414.301 -1.13448 -1.16483 0
M  V30 4414 O 415.485 -1.41889 -1.24095 0
M  V30 4415 C 412.612 -2.78851 -1.92249 0
M  V30 4416 C 411.658 -3.96454 -1.57246 0
M  V30 4417 S 412.491 -5.31349 -0.665501 0
M  V30 4418 C 413.647 -5.9576 -1.91889 0
M  V30 4419 H 413.88 -2.96934 -0.147396 0
M  V30 4420 H 411.413 -1.54342 0.0423023 0
M  V30 4421 H 413.371 -3.14602 -2.63697 0
M  V30 4422 H 412.032 -1.99742 -2.42409 0
M  V30 4423 H 411.225 -4.37731 -2.49814 0
M  V30 4424 H 410.827 -3.62038 -0.938325 0
M  V30 4425 H 413.119 -6.13947 -2.86487 0
M  V30 4426 H 414.062 -6.9094 -1.54942 0
M  V30 4427 H 414.47 -5.2494 -2.076 0
M  V30 4428 N 413.868 0.0150385 -1.57593 0
M  V30 4429 C 414.815 1.01126 -2.07466 0
M  V30 4430 C 415.785 1.35064 -0.966794 0
M  V30 4431 O 416.97 1.4516 -1.23827 0
M  V30 4432 C 414.11 2.30276 -2.57035 0
M  V30 4433 C 413.223 2.02373 -3.81666 0
M  V30 4434 C 412.358 3.25496 -4.19793 0
M  V30 4435 C 411.397 2.93211 -5.37303 0
M  V30 4436 N 410.534 4.08826 -5.70794 0
M  V30 4437 H 415.374 0.57901 -2.92321 0
M  V30 4438 H 412.911 0.27426 -1.44521 0
M  V30 4439 H 414.869 3.05757 -2.83846 0
M  V30 4440 H 413.499 2.71197 -1.75077 0
M  V30 4441 H 412.551 1.17327 -3.61854 0
M  V30 4442 H 413.863 1.74567 -4.67256 0
M  V30 4443 H 413.017 4.09333 -4.47807 0
M  V30 4444 H 411.756 3.56428 -3.32882 0
M  V30 4445 H 410.761 2.07777 -5.09027 0
M  V30 4446 H 411.986 2.63542 -6.25877 0
M  V30 4447 H 409.932 4.39682 -4.86842 0
M  V30 4448 H 409.849 3.84491 -6.50924 0
M  V30 4449 H 411.117 4.93496 -6.03392 0
M  V30 4450 N 415.346 1.54954 0.287554 0
M  V30 4451 C 416.592 1.75132 1.02257 0
M  V30 4452 C 416.925 0.542858 1.86458 0
M  V30 4453 O 416.2 -0.459856 1.88986 0
M  V30 4454 C 416.483 3.04812 1.91733 0
M  V30 4455 C 416.336 4.35985 1.10622 0
M  V30 4456 C 417.655 3.30438 2.90687 0
M  V30 4457 H 414.774 0.637194 0.370341 0
M  V30 4458 H 417.416 1.87678 0.296111 0
M  V30 4459 H 415.566 2.94247 2.53675 0
M  V30 4460 H 417.238 4.58487 0.508636 0
M  V30 4461 H 415.481 4.31865 0.409271 0
M  V30 4462 H 416.152 5.23017 1.76513 0
M  V30 4463 H 418.628 3.40701 2.38877 0
M  V30 4464 H 417.504 4.22467 3.50447 0
M  V30 4465 H 417.765 2.49377 3.65053 0
M  V30 4466 N 416.824 -0.551391 1.4764 0
M  V30 4467 C 418.07 -1.31024 1.54792 0
M  V30 4468 C 418.403 -1.9304 0.211967 0
M  V30 4469 O 417.678 -1.78175 -0.77999 0
M  V30 4470 C 417.961 -2.41593 2.67029 0
M  V30 4471 C 417.814 -1.84408 4.10261 0
M  V30 4472 C 419.133 -3.43488 2.75143 0
M  V30 4473 H 416.252 -0.475031 0.563485 0
M  V30 4474 H 418.894 -0.616454 1.79722 0
M  V30 4475 H 417.044 -3.00772 2.45904 0
M  V30 4476 H 418.716 -1.29445 4.42766 0
M  V30 4477 H 416.959 -1.15051 4.18265 0
M  V30 4478 H 417.63 -2.64367 4.84576 0
M  V30 4479 H 420.106 -2.94236 2.94218 0
M  V30 4480 H 418.982 -4.18274 3.55441 0
M  V30 4481 H 419.243 -4.02703 1.82435 0
M  V30 4482 N 418.302 -1.35869 -0.798587 0
M  V30 4483 C 419.249 -1.29446 -1.91082 0
M  V30 4484 C 420.219 -0.16487 -1.6528 0
M  V30 4485 O 421.404 -0.349888 -1.87564 0
M  V30 4486 C 418.544 -1.0804 -3.27752 0
M  V30 4487 C 417.657 -2.29993 -3.65687 0
M  V30 4488 C 416.792 -2.01673 -4.91428 0
M  V30 4489 C 415.831 -3.19636 -5.22015 0
M  V30 4490 N 414.968 -2.91039 -6.38937 0
M  V30 4491 H 419.808 -2.24553 -1.95907 0
M  V30 4492 H 417.345 -1.11615 -0.958148 0
M  V30 4493 H 419.303 -0.936586 -4.06551 0
M  V30 4494 H 417.933 -0.16592 -3.22373 0
M  V30 4495 H 416.985 -2.55211 -2.82085 0
M  V30 4496 H 418.297 -3.18052 -3.84245 0
M  V30 4497 H 417.451 -1.84168 -5.78072 0
M  V30 4498 H 416.19 -1.10911 -4.74921 0
M  V30 4499 H 415.195 -3.37709 -4.33858 0
M  V30 4500 H 416.42 -4.11211 -5.40447 0
M  V30 4501 H 414.366 -2.0288 -6.2384 0
M  V30 4502 H 414.283 -3.72635 -6.57784 0
M  V30 4503 H 415.551 -2.77093 -7.28587 0
M  V30 4504 N 419.78 1.02168 -1.19998 0
M  V30 4505 C 420.727 2.10601 -0.944228 0
M  V30 4506 C 421.697 1.65639 0.123664 0
M  V30 4507 O 422.882 1.9079 -0.0199941 0
M  V30 4508 C 420.022 3.41504 -0.496865 0
M  V30 4509 C 419.135 3.99973 -1.63234 0
M  V30 4510 C 418.27 5.18915 -1.13579 0
M  V30 4511 C 417.309 5.69456 -2.24468 0
M  V30 4512 N 416.446 6.79665 -1.76068 0
M  V30 4513 H 421.286 2.31814 -1.8726 0
M  V30 4514 H 418.823 1.13686 -0.933483 0
M  V30 4515 H 420.781 4.16626 -0.218843 0
M  V30 4516 H 419.411 3.2038 0.394508 0
M  V30 4517 H 418.463 3.21997 -2.0254 0
M  V30 4518 H 419.775 4.33492 -2.46752 0
M  V30 4519 H 418.929 6.01222 -0.813429 0
M  V30 4520 H 417.668 4.8695 -0.270434 0
M  V30 4521 H 416.673 4.85757 -2.57526 0
M  V30 4522 H 417.898 6.03459 -3.11472 0
M  V30 4523 H 415.844 6.49538 -0.918516 0
M  V30 4524 H 415.761 7.12349 -2.5317 0
M  V30 4525 H 417.029 7.65549 -1.46817 0
M  V30 4526 N 421.258 1.00505 1.21394 0
M  V30 4527 C 422.168 0.574806 2.27449 0
M  V30 4528 C 423.184 -0.382206 1.6975 0
M  V30 4529 O 424.36 -0.246027 1.99892 0
M  V30 4530 C 421.425 -0.0917414 3.46579 0
M  V30 4531 C 420.486 0.909758 4.1955 0
M  V30 4532 C 419.719 0.274924 5.32991 0
M  V30 4533 O 419.942 -0.928254 5.62796 0
M  V30 4534 O 418.876 0.985877 5.93771 0
M  V30 4535 H 422.702 1.45744 2.66444 0
M  V30 4536 H 420.287 0.773923 1.27792 0
M  V30 4537 H 422.169 -0.464551 4.18832 0
M  V30 4538 H 420.844 -0.948755 3.09484 0
M  V30 4539 H 419.751 1.33372 3.49518 0
M  V30 4540 H 421.084 1.73636 4.60555 0
M  V30 4541 N 422.737 -1.36956 0.779787 0
M  V30 4542 C 423.667 -2.32761 0.185651 0
M  V30 4543 C 424.648 -1.56177 -0.673989 0
M  V30 4544 O 425.833 -1.84378 -0.609797 0
M  V30 4545 C 422.963 -3.40418 -0.687964 0
M  V30 4546 C 421.917 -4.27941 0.0710102 0
M  V30 4547 C 421.243 -5.26681 -0.922573 0
M  V30 4548 C 422.543 -5.07006 1.25467 0
M  V30 4549 H 424.237 -2.82698 0.986008 0
M  V30 4550 H 421.783 -1.3592 0.475592 0
M  V30 4551 H 423.736 -4.06423 -1.11348 0
M  V30 4552 H 422.46 -2.89025 -1.52093 0
M  V30 4553 H 421.119 -3.63478 0.47739 0
M  V30 4554 H 420.767 -4.71565 -1.7503 0
M  V30 4555 H 420.467 -5.86103 -0.419237 0
M  V30 4556 H 421.991 -5.9556 -1.34686 0
M  V30 4557 H 423.405 -5.66105 0.905401 0
M  V30 4558 H 421.802 -5.75793 1.69063 0
M  V30 4559 H 422.872 -4.3921 2.05481 0
M  V30 4560 N 424.215 -0.530993 -1.48385 0
M  V30 4561 C 425.461 0.00274135 -2.028 0
M  V30 4562 C 425.794 1.33838 -1.40716 0
M  V30 4563 O 425.069 1.86465 -0.553277 0
M  V30 4564 C 425.352 0.123676 -3.59888 0
M  V30 4565 C 425.205 -1.2372 -4.3245 0
M  V30 4566 C 426.524 0.849967 -4.31814 0
M  V30 4567 H 423.643 -0.000477758 -0.737 0
M  V30 4568 H 426.285 -0.688217 -1.77098 0
M  V30 4569 H 424.435 0.712157 -3.81917 0
M  V30 4570 H 426.107 -1.86687 -4.21836 0
M  V30 4571 H 424.35 -1.81882 -3.93829 0
M  V30 4572 H 425.021 -1.10557 -5.40815 0
M  V30 4573 H 427.497 0.350572 -4.14621 0
M  V30 4574 H 426.373 0.903486 -5.41413 0
M  V30 4575 H 426.634 1.90047 -3.99167 0
M  V30 4576 N 425.693 1.55336 -0.266172 0
M  V30 4577 C 426.643 2.18848 0.639497 0
M  V30 4578 C 427.627 1.1503 1.12503 0
M  V30 4579 O 428.819 1.40875 1.0716 0
M  V30 4580 C 425.948 2.90626 1.82733 0
M  V30 4581 C 425.034 4.01723 1.35939 0
M  V30 4582 N 425.425 5.02145 0.606988 0
M  V30 4583 C 423.723 4.1463 1.6431 0
M  V30 4584 C 424.424 5.80572 0.362138 0
M  V30 4585 N 423.4 5.35551 0.931971 0
M  V30 4586 H 427.202 2.93845 0.0567057 0
M  V30 4587 H 424.716 1.62252 -0.0693312 0
M  V30 4588 H 426.713 3.34569 2.48735 0
M  V30 4589 H 425.373 2.17137 2.41416 0
M  V30 4590 H 426.384 5.17271 0.255198 0
M  V30 4591 H 423.061 3.52326 2.23993 0
M  V30 4592 H 424.451 6.71472 -0.239848 0
M  V30 4593 N 427.171 -0.0066808 1.57599 0
M  V30 4594 C 428.448 -0.729586 1.81484 0
M  V30 4595 C 428.828 -1.92359 0.869558 0
M  V30 4596 O 428.176 -2.28348 -0.0832533 0
M  V30 4597 C 428.386 -1.1416 3.29801 0
M  V30 4598 C 429.734 -1.54823 3.95367 0
M  V30 4599 O 430.758 -1.23558 3.34084 0
M  V30 4600 O 429.617 -2.12937 5.03309 0
M  V30 4601 H 426.711 -0.354674 0.747085 0
M  V30 4602 H 429.257 0.0182609 1.6969 0
M  V30 4603 H 428.029 -0.290231 3.90222 0
M  V30 4604 H 427.652 -1.94876 3.46568 0
M  V30 4605 N 428.649 -1.55105 -0.279332 0
M  V30 4606 C 429.926 -1.66119 -1.03267 0
M  V30 4607 C 430.306 -0.523525 -2.04505 0
M  V30 4608 O 429.654 0.477194 -2.23462 0
M  V30 4609 C 429.864 -3.05067 -1.69515 0
M  V30 4610 C 431.212 -3.62606 -2.20912 0
M  V30 4611 O 432.236 -3.07659 -1.79512 0
M  V30 4612 O 431.095 -4.58861 -2.96831 0
M  V30 4613 H 428.189 -0.674429 -0.478618 0
M  V30 4614 H 430.735 -1.67446 -0.275694 0
M  V30 4615 H 429.507 -3.79311 -0.9612 0
M  V30 4616 H 429.13 -3.07611 -2.51915 0
M  V30 4617 N 430.127 0.543554 -1.4793 0
M  V30 4618 C 431.037 1.67657 -1.64098 0
M  V30 4619 C 432.053 1.65934 -0.523622 0
M  V30 4620 O 433.229 1.85133 -0.792943 0
M  V30 4621 C 430.294 3.04146 -1.66421 0
M  V30 4622 C 429.355 3.16831 -2.89684 0
M  V30 4623 C 428.588 4.46809 -2.91886 0
M  V30 4624 O 428.811 5.33095 -2.02895 0
M  V30 4625 O 427.745 4.63573 -3.83906 0
M  V30 4626 H 431.571 1.56957 -2.59997 0
M  V30 4627 H 429.156 0.715116 -1.31173 0
M  V30 4628 H 431.038 3.85346 -1.70548 0
M  V30 4629 H 429.713 3.152 -0.736923 0
M  V30 4630 H 428.62 2.34977 -2.91095 0
M  V30 4631 H 429.953 3.10687 -3.81752 0
M  V30 4632 N 431.605 1.3629 0.791371 0
M  V30 4633 C 432.882 1.20962 1.53712 0
M  V30 4634 C 433.262 -0.205021 2.10102 0
M  V30 4635 O 432.61 -1.21042 1.93807 0
M  V30 4636 C 432.82 2.29002 2.63361 0
M  V30 4637 C 434.168 2.65572 3.31295 0
M  V30 4638 O 435.192 2.2803 2.73643 0
M  V30 4639 O 434.051 3.3018 4.35481 0
M  V30 4640 H 431.145 0.47086 0.679867 0
M  V30 4641 H 433.691 1.48016 0.830021 0
M  V30 4642 H 432.463 3.2382 2.19674 0
M  V30 4643 H 432.086 2.03303 3.41692 0
M  V30 4644 N 433.083 -1.0153 1.20538 0
M  V30 4645 C 434.332 -1.74558 1.01057 0
M  V30 4646 C 434.645 -1.90168 -0.457756 0
M  V30 4647 O 435.851 -2.60301 -0.771722 0
M  V30 4648 C 434.307 -3.13963 1.75941 0
M  V30 4649 C 433.915 -3.06361 3.26875 0
M  V30 4650 C 435.659 -3.91191 1.64832 0
M  V30 4651 C 433.566 -4.40782 3.94291 0
M  V30 4652 H 432.496 -0.654417 0.374505 0
M  V30 4653 H 435.147 -1.13521 1.44171 0
M  V30 4654 H 433.529 -3.75549 1.25614 0
M  V30 4655 H 434.703 -2.54074 3.84425 0
M  V30 4656 H 433.018 -2.42625 3.38411 0
M  V30 4657 H 435.615 -4.90644 2.12539 0
M  V30 4658 H 435.958 -4.11884 0.604745 0
M  V30 4659 H 436.491 -3.36236 2.12579 0
M  V30 4660 H 433.23 -4.25292 4.98805 0
M  V30 4661 H 432.75 -4.9307 3.41529 0
M  V30 4662 H 434.429 -5.09621 3.98617 0
M  V30 4663 N 434.561 -1.01147 -1.20859 0
M  V30 4664 C 435.838 -0.613136 -1.85742 0
M  V30 4665 C 436.218 0.909004 -1.90526 0
M  V30 4666 O 435.566 1.79862 -1.40932 0
M  V30 4667 C 435.776 -1.255 -3.25654 0
M  V30 4668 C 437.124 -1.3672 -4.01986 0
M  V30 4669 O 438.148 -1.21082 -3.34989 0
M  V30 4670 O 437.007 -1.6194 -5.21956 0
M  V30 4671 H 434.101 -0.210878 -0.799662 0
M  V30 4672 H 436.647 -1.10853 -1.2849 0
M  V30 4673 H 435.419 -2.29532 -3.16908 0
M  V30 4674 H 435.042 -0.746369 -3.90532 0
M  V30 4675 N 436.039 1.36541 -0.78704 0
M  V30 4676 C 437.285 2.00044 -0.367938 0
M  V30 4677 C 437.64 1.61345 1.04812 0
M  V30 4678 O 436.933 0.856936 1.71368 0
M  V30 4679 C 437.127 3.54343 -0.466485 0
M  V30 4680 C 436.956 4.08029 -1.89058 0
M  V30 4681 C 435.726 4.38284 -2.51466 0
M  V30 4682 C 437.924 4.27954 -2.85236 0
M  V30 4683 N 435.906 4.77778 -3.85488 0
M  V30 4684 C 437.277 4.70227 -4.04088 0
M  V30 4685 C 439.332 4.10119 -2.82324 0
M  V30 4686 C 438.035 4.96532 -5.20432 0
M  V30 4687 C 440.061 4.37569 -3.97854 0
M  V30 4688 C 439.423 4.80095 -5.15449 0
M  V30 4689 H 435.522 0.760525 -0.182004 0
M  V30 4690 H 438.106 1.65589 -1.02413 0
M  V30 4691 H 436.277 3.88072 0.159606 0
M  V30 4692 H 438.009 4.04693 -0.0238577 0
M  V30 4693 H 434.764 4.27905 -2.02965 0
M  V30 4694 H 435.188 5.01813 -4.54437 0
M  V30 4695 H 439.83 3.76399 -1.92571 0
M  V30 4696 H 437.548 5.29134 -6.10773 0
M  V30 4697 H 441.134 4.25341 -3.96958 0
M  V30 4698 H 440.014 5.00925 -6.0336 0
M  V30 4699 N 437.518 0.538854 1.48102 0
M  V30 4700 C 438.764 0.00801365 2.02798 0
M  V30 4701 C 439.097 -1.3309 1.41424 0
M  V30 4702 O 438.372 -1.86169 0.563158 0
M  V30 4703 C 438.655 -0.104589 3.59948 0
M  V30 4704 C 438.508 1.26012 4.31788 0
M  V30 4705 C 439.827 -0.827055 4.32259 0
M  V30 4706 H 436.946 0.00438624 0.736987 0
M  V30 4707 H 439.588 0.6976 1.7673 0
M  V30 4708 H 437.738 -0.691893 3.82289 0
M  V30 4709 H 439.41 1.88922 4.2084 0
M  V30 4710 H 437.653 1.83968 3.92859 0
M  V30 4711 H 438.324 1.13424 5.40221 0
M  V30 4712 H 440.8 -0.328578 4.14801 0
M  V30 4713 H 439.676 -0.87476 5.41885 0
M  V30 4714 H 439.937 -1.87927 4.0017 0
M  V30 4715 N 438.996 -1.55193 0.274407 0
M  V30 4716 C 439.928 -2.1989 -0.646595 0
M  V30 4717 C 440.941 -1.1834 -1.11801 0
M  V30 4718 O 442.13 -1.4507 -1.04004 0
M  V30 4719 C 439.23 -2.8104 -1.89393 0
M  V30 4720 C 438.403 -4.08274 -1.56943 0
M  V30 4721 C 437.462 -4.53478 -2.66916 0
M  V30 4722 O 436.488 -5.19267 -2.33132 0
M  V30 4723 N 437.69 -4.2356 -3.9696 0
M  V30 4724 H 440.455 -2.99556 -0.0928686 0
M  V30 4725 H 438.016 -1.61618 0.0954783 0
M  V30 4726 H 440.008 -3.08226 -2.62257 0
M  V30 4727 H 438.578 -2.05372 -2.35672 0
M  V30 4728 H 437.798 -3.88384 -0.674655 0
M  V30 4729 H 439.086 -4.91173 -1.32764 0
M  V30 4730 H 438.484 -3.70799 -4.27229 0
M  V30 4731 H 437.041 -4.55518 -4.66205 0
M  V30 4732 N 440.474 -0.00167713 -1.576 0
M  V30 4733 C 441.702 0.693759 -1.94922 0
M  V30 4734 C 442.117 1.67215 -0.876626 0
M  V30 4735 O 441.474 1.81929 0.144279 0
M  V30 4736 C 441.525 1.42416 -3.32265 0
M  V30 4737 O 441.246 0.485014 -4.35407 0
M  V30 4738 C 442.747 2.21395 -3.84056 0
M  V30 4739 H 439.967 0.193118 -0.642609 0
M  V30 4740 H 442.511 -0.0532952 -2.04431 0
M  V30 4741 H 440.666 2.12284 -3.24059 0
M  V30 4742 H 441.08 1.00053 -5.14868 0
M  V30 4743 H 442.554 2.67996 -4.82578 0
M  V30 4744 H 443.031 3.04142 -3.16851 0
M  V30 4745 H 443.637 1.56542 -3.95443 0
M  V30 4746 N 441.952 1.55251 0.271103 0
M  V30 4747 C 442.862 1.9136 1.35714 0
M  V30 4748 C 443.878 0.811075 1.5394 0
M  V30 4749 O 445.054 1.11031 1.6803 0
M  V30 4750 C 442.119 2.1798 2.69603 0
M  V30 4751 C 441.18 3.4153 2.60107 0
M  V30 4752 C 440.413 3.66871 3.8761 0
M  V30 4753 O 440.636 2.94689 4.8838 0
M  V30 4754 O 439.57 4.60405 3.87699 0
M  V30 4755 H 443.396 2.83815 1.08088 0
M  V30 4756 H 440.981 1.41821 0.469792 0
M  V30 4757 H 442.863 2.36518 3.48765 0
M  V30 4758 H 441.538 1.28708 2.97012 0
M  V30 4759 H 440.445 3.28325 1.79314 0
M  V30 4760 H 441.778 4.31027 2.37647 0
M  V30 4761 N 443.43 -0.535701 1.48216 0
M  V30 4762 C 444.377 -1.64083 1.62312 0
M  V30 4763 C 445.347 -1.59448 0.465365 0
M  V30 4764 O 446.532 -1.77959 0.688135 0
M  V30 4765 C 443.672 -3.0236 1.66349 0
M  V30 4766 C 442.785 -3.17273 2.93193 0
M  V30 4767 C 441.92 -4.46075 2.88427 0
M  V30 4768 C 440.959 -4.54496 4.1 0
M  V30 4769 N 440.096 -5.7468 4.03345 0
M  V30 4770 H 444.936 -1.51374 2.5669 0
M  V30 4771 H 442.473 -0.737059 1.27302 0
M  V30 4772 H 444.431 -3.82461 1.66672 0
M  V30 4773 H 443.061 -3.13854 0.754672 0
M  V30 4774 H 442.113 -2.30462 3.02641 0
M  V30 4775 H 443.425 -3.19357 3.83162 0
M  V30 4776 H 442.579 -5.3446 2.87119 0
M  V30 4777 H 441.318 -4.46504 1.96177 0
M  V30 4778 H 440.323 -3.64519 4.11589 0
M  V30 4779 H 441.548 -4.5581 5.03402 0
M  V30 4780 H 439.494 -5.76017 3.13912 0
M  V30 4781 H 439.411 -5.78234 4.87013 0
M  V30 4782 H 440.679 -6.65367 4.06087 0
M  V30 4783 N 444.908 -1.36708 -0.784132 0
M  V30 4784 C 445.858 -1.2799 -1.88686 0
M  V30 4785 C 446.842 -0.170282 -1.59996 0
M  V30 4786 O 448.034 -0.403571 -1.72338 0
M  V30 4787 C 445.163 -1.07674 -3.25977 0
M  V30 4788 C 444.249 -2.23127 -3.60659 0
M  V30 4789 N 444.64 -3.48467 -3.66612 0
M  V30 4790 C 442.938 -2.15009 -3.90752 0
M  V30 4791 C 443.639 -4.24525 -3.97685 0
M  V30 4792 N 442.615 -3.53524 -4.12943 0
M  V30 4793 H 446.417 -2.22927 -1.91522 0
M  V30 4794 H 443.931 -1.29503 -0.979933 0
M  V30 4795 H 445.928 -0.995151 -4.04849 0
M  V30 4796 H 444.588 -0.13643 -3.24413 0
M  V30 4797 H 445.599 -3.82534 -3.49125 0
M  V30 4798 H 442.276 -1.28963 -3.97083 0
M  V30 4799 H 443.666 -5.32944 -4.0917 0
M  V30 4800 N 446.386 1.0089 -1.21074 0
M  V30 4801 C 447.632 1.74866 -1.02712 0
M  V30 4802 C 447.965 1.89178 0.438787 0
M  V30 4803 O 447.24 1.42325 1.32567 0
M  V30 4804 C 447.523 3.16347 -1.72036 0
M  V30 4805 C 447.376 3.09782 -3.26121 0
M  V30 4806 C 448.695 4.15187 -1.45973 0
M  V30 4807 H 445.814 0.634736 -0.374539 0
M  V30 4808 H 448.456 1.17646 -1.49196 0
M  V30 4809 H 446.606 3.65201 -1.32517 0
M  V30 4810 H 448.278 2.68673 -3.74983 0
M  V30 4811 H 446.521 2.46982 -3.56626 0
M  V30 4812 H 447.192 4.09829 -3.6979 0
M  V30 4813 H 449.668 3.75022 -1.80272 0
M  V30 4814 H 448.544 5.12331 -1.96999 0
M  V30 4815 H 448.805 4.40386 -0.388924 0
M  V30 4816 N 447.864 1.01787 1.20321 0
M  V30 4817 C 449.111 0.707936 1.89722 0
M  V30 4818 C 449.439 -0.762535 1.78929 0
M  V30 4819 O 448.694 -1.56977 1.16861 0
M  V30 4820 C 448.993 1.09076 3.40349 0
M  V30 4821 C 448.659 2.55765 3.71342 0
M  V30 4822 C 447.321 2.95845 3.79511 0
M  V30 4823 C 449.673 3.50723 3.85542 0
M  V30 4824 C 447.001 4.2982 3.99339 0
M  V30 4825 C 449.353 4.84387 4.06881 0
M  V30 4826 C 448.017 5.24172 4.1328 0
M  V30 4827 H 447.287 0.259052 0.694243 0
M  V30 4828 H 449.934 1.27868 1.42555 0
M  V30 4829 H 448.239 0.438453 3.89339 0
M  V30 4830 H 449.936 0.828636 3.92345 0
M  V30 4831 H 446.526 2.2371 3.65584 0
M  V30 4832 H 450.71 3.20916 3.78585 0
M  V30 4833 H 445.966 4.60196 4.02529 0
M  V30 4834 H 450.14 5.57891 4.1681 0
M  V30 4835 H 447.767 6.27997 4.28396 0
M  V30 4836 N 449.342 -1.36122 0.79427 0
M  V30 4837 C 450.252 -2.33769 0.197296 0
M  V30 4838 C 451.268 -1.61276 -0.653153 0
M  V30 4839 O 452.444 -1.9323 -0.5678 0
M  V30 4840 C 449.509 -3.40474 -0.654098 0
M  V30 4841 C 448.57 -4.28759 0.215411 0
M  V30 4842 C 447.803 -5.30368 -0.595443 0
M  V30 4843 O 448.026 -5.40211 -1.83107 0
M  V30 4844 O 446.96 -6.019 0.00721351 0
M  V30 4845 H 450.786 -2.86597 1.00478 0
M  V30 4846 H 448.371 -1.38676 0.555818 0
M  V30 4847 H 450.253 -4.05703 -1.13944 0
M  V30 4848 H 448.928 -2.89937 -1.43938 0
M  V30 4849 H 447.835 -3.66554 0.747615 0
M  V30 4850 H 449.168 -4.82661 0.964332 0
M  V30 4851 N 450.82 -0.546701 -1.47814 0
M  V30 4852 C 451.752 0.244196 -2.27895 0
M  V30 4853 C 452.765 0.88911 -1.36377 0
M  V30 4854 O 453.954 0.764733 -1.61289 0
M  V30 4855 C 451.054 1.36252 -3.10304 0
M  V30 4856 C 450.227 0.816382 -4.29714 0
M  V30 4857 C 449.286 1.81789 -4.93801 0
M  V30 4858 O 448.312 1.36818 -5.52512 0
M  V30 4859 N 449.514 3.15085 -4.87547 0
M  V30 4860 H 452.279 -0.442694 -2.96412 0
M  V30 4861 H 449.84 -0.382095 -1.57327 0
M  V30 4862 H 451.832 2.03102 -3.50045 0
M  V30 4863 H 450.402 1.95281 -2.44099 0
M  V30 4864 H 449.622 -0.0285981 -3.9419 0
M  V30 4865 H 450.91 0.430668 -5.06974 0
M  V30 4866 H 450.308 3.54275 -4.41028 0
M  V30 4867 H 448.865 3.77522 -5.31339 0
M  V30 4868 N 452.299 1.55045 -0.282633 0
M  V30 4869 C 453.262 2.21515 0.588539 0
M  V30 4870 C 454.262 1.19535 1.07554 0
M  V30 4871 O 455.452 1.44391 0.974514 0
M  V30 4872 C 452.584 2.88704 1.8128 0
M  V30 4873 H 453.777 2.99899 0.00806397 0
M  V30 4874 H 451.33 1.56265 -0.0333067 0
M  V30 4875 H 452.065 2.14352 2.43359 0
M  V30 4876 H 451.85 3.63443 1.47144 0
M  V30 4877 H 453.34 3.39465 2.43214 0
M  V30 4878 N 453.777 0.010035 1.57597 0
M  V30 4879 C 455.002 -0.687021 1.95691 0
M  V30 4880 C 455.427 -1.65952 0.885519 0
M  V30 4881 O 454.785 -1.80633 -0.15543 0
M  V30 4882 C 454.833 -1.3864 3.32884 0
M  V30 4883 O 453.937 -2.50115 3.27897 0
M  V30 4884 H 453.278 -0.181989 0.638573 0
M  V30 4885 H 455.808 0.0662122 2.04493 0
M  V30 4886 H 455.818 -1.74754 3.6868 0
M  V30 4887 H 454.493 -0.673411 4.10412 0
M  V30 4888 H 453.07 -2.16253 3.03791 0
M  V30 4889 N 455.255 -1.55392 -0.262866 0
M  V30 4890 C 456.48 -1.80847 -1.01533 0
M  V30 4891 C 456.905 -0.584946 -1.78774 0
M  V30 4892 O 456.263 0.465701 -1.75217 0
M  V30 4893 C 456.311 -3.03866 -1.94159 0
M  V30 4894 O 455.415 -2.79662 -3.03089 0
M  V30 4895 H 454.756 -0.597441 -0.289759 0
M  V30 4896 H 457.286 -2.02553 -0.288698 0
M  V30 4897 H 457.296 -3.32872 -2.35924 0
M  V30 4898 H 455.971 -3.92564 -1.37354 0
M  V30 4899 H 454.548 -2.61781 -2.65566 0
M  V30 4900 N 456.733 0.527833 -1.48498 0
M  V30 4901 C 457.681 1.65313 -1.63628 0
M  V30 4902 C 458.675 1.6177 -0.502676 0
M  V30 4903 O 459.881 1.66601 -0.681469 0
M  V30 4904 H 456.256 0.547518 -0.515488 0
M  V30 4905 H 458.227 1.49696 -2.58135 0
M  V30 4906 C 456.976 3.03576 -1.6952 0
M  V30 4907 H 456.299 3.06997 -2.56111 0
M  V30 4908 H 457.739 3.81923 -1.84149 0
M  V30 4909 C 456.198 3.34089 -0.43432 0
M  V30 4910 O 456.728 3.99151 0.451852 0
M  V30 4911 N 454.934 2.88991 -0.305368 0
M  V30 4912 H 454.481 2.36222 -1.02747 0
M  V30 4913 H 454.439 3.09776 0.537249 0
M  V30 4914 N 458.211 1.37122 0.776871 0
M  V30 4915 C 459.622 1.28667 1.35284 0
M  V30 4916 C 459.973 -0.0680035 1.96082 0
M  V30 4917 O 459.098 -0.969743 1.93455 0
M  V30 4918 C 459.693 2.32997 2.45963 0
M  V30 4919 C 458.252 2.28191 2.99342 0
M  V30 4920 C 457.399 2.17101 1.72517 0
M  V30 4921 H 460.35 1.47819 0.577527 0
M  V30 4922 H 460.371 1.97366 3.2531 0
M  V30 4923 H 459.883 3.3158 2.01684 0
M  V30 4924 H 457.984 1.33115 3.4801 0
M  V30 4925 H 458.097 3.21397 3.55304 0
M  V30 4926 H 456.461 1.63562 1.95242 0
M  V30 4927 H 457.244 3.17591 1.30348 0
M  V30 4928 N 459.689 -1.00246 1.21608 0
M  V30 4929 C 460.936 -1.74061 1.03485 0
M  V30 4930 C 461.264 -1.89658 -0.431308 0
M  V30 4931 O 460.519 -1.42976 -1.33627 0
M  V30 4932 C 460.818 -3.15448 1.68009 0
M  V30 4933 C 460.484 -3.19792 3.17874 0
M  V30 4934 C 459.146 -3.20685 3.58768 0
M  V30 4935 C 461.498 -3.16835 4.13842 0
M  V30 4936 C 458.826 -3.16309 4.94131 0
M  V30 4937 C 461.178 -3.14001 5.49169 0
M  V30 4938 C 459.842 -3.13204 5.89457 0
M  V30 4939 H 459.112 -0.636934 0.378677 0
M  V30 4940 H 461.759 -1.17473 1.51236 0
M  V30 4941 H 460.064 -3.75284 1.12557 0
M  V30 4942 H 461.761 -3.71285 1.51487 0
M  V30 4943 H 458.351 -3.19842 2.85305 0
M  V30 4944 H 462.535 -3.15303 3.83272 0
M  V30 4945 H 457.791 -3.14032 5.24589 0
M  V30 4946 H 461.965 -3.10667 6.23265 0
M  V30 4947 H 459.592 -3.09568 6.94314 0
M  V30 4948 N 461.167 -1.02423 -1.1978 0
M  V30 4949 C 462.097 -0.62157 -2.25075 0
M  V30 4950 C 463.078 0.367148 -1.6609 0
M  V30 4951 O 464.263 0.250892 -1.92573 0
M  V30 4952 C 461.393 0.0331826 -3.47284 0
M  V30 4953 C 460.347 -0.877323 -4.18912 0
M  V30 4954 C 459.673 -0.0879296 -5.34628 0
M  V30 4955 C 460.973 -2.18892 -4.74219 0
M  V30 4956 H 462.667 -1.50179 -2.59011 0
M  V30 4957 H 460.213 -0.723547 -1.24502 0
M  V30 4958 H 462.166 0.326488 -4.20133 0
M  V30 4959 H 460.89 0.948164 -3.12534 0
M  V30 4960 H 459.549 -1.15475 -3.47938 0
M  V30 4961 H 459.197 0.828941 -4.96123 0
M  V30 4962 H 458.897 -0.694359 -5.83483 0
M  V30 4963 H 460.421 0.198743 -6.10276 0
M  V30 4964 H 461.835 -1.95746 -5.38847 0
M  V30 4965 H 460.232 -2.74686 -5.33542 0
M  V30 4966 H 461.302 -2.84674 -3.92541 0
M  V30 4967 N 462.645 1.35699 -0.801477 0
M  V30 4968 C 463.891 1.99208 -0.380022 0
M  V30 4969 C 464.224 1.63445 1.04878 0
M  V30 4970 O 463.499 0.895223 1.72673 0
M  V30 4971 C 463.782 3.55755 -0.557708 0
M  V30 4972 C 463.635 4.01332 -2.03107 0
M  V30 4973 C 464.954 4.40096 0.0197968 0
M  V30 4974 H 462.073 0.723667 -0.139552 0
M  V30 4975 H 464.715 1.60928 -1.01006 0
M  V30 4976 H 462.865 3.88494 -0.0213741 0
M  V30 4977 H 464.537 3.79026 -2.62939 0
M  V30 4978 H 462.78 3.52429 -2.52936 0
M  V30 4979 H 463.451 5.10234 -2.1063 0
M  V30 4980 H 465.927 4.13786 -0.438179 0
M  V30 4981 H 464.803 5.48735 -0.134477 0
M  V30 4982 H 465.064 4.2786 1.11303 0
M  V30 4983 N 464.123 0.554532 1.47522 0
M  V30 4984 C 465.371 0.0294208 2.02079 0
M  V30 4985 C 465.692 -1.32411 1.43151 0
M  V30 4986 O 464.962 -1.863 0.605728 0
M  V30 4987 H 463.542 0.00788672 0.746958 0
M  V30 4988 H 466.204 0.723934 1.80956 0
M  V30 4989 H 465.3 -0.0606745 3.12041 0
M  V30 4990 N 465.601 -1.54893 0.290851 0
M  V30 4991 C 466.531 -2.26103 -0.583084 0
M  V30 4992 C 467.512 -1.25684 -1.14619 0
M  V30 4993 O 468.697 -1.54436 -1.17741 0
M  V30 4994 C 465.827 -2.99409 -1.75987 0
M  V30 4995 C 464.781 -4.0689 -1.32758 0
M  V30 4996 C 464.107 -4.67856 -2.58872 0
M  V30 4997 C 465.407 -5.20215 -0.46624 0
M  V30 4998 H 467.101 -2.99398 0.0108214 0
M  V30 4999 H 464.647 -1.43998 0.00664468 0
M  V30 5000 H 466.6 -3.47943 -2.37727 0
M  V30 5001 H 465.324 -2.23675 -2.37985 0
M  V30 5002 H 463.983 -3.59191 -0.733299 0
M  V30 5003 H 463.631 -3.88772 -3.19163 0
M  V30 5004 H 463.331 -5.40438 -2.30653 0
M  V30 5005 H 464.855 -5.19147 -3.21433 0
M  V30 5006 H 466.269 -5.64704 -0.989047 0
M  V30 5007 H 464.666 -5.99455 -0.27826 0
M  V30 5008 H 465.736 -4.82198 0.511173 0
M  V30 5009 N 467.08 -0.0183926 -1.57589 0
M  V30 5010 C 468.03 0.975944 -2.06057 0
M  V30 5011 C 469.014 1.29204 -0.958908 0
M  V30 5012 O 470.206 1.27995 -1.22255 0
M  V30 5013 C 467.335 2.26194 -2.58247 0
M  V30 5014 C 466.421 1.97467 -3.75323 0
M  V30 5015 N 466.812 1.38968 -4.86335 0
M  V30 5016 C 465.11 2.27515 -3.83605 0
M  V30 5017 C 465.811 1.27131 -5.67638 0
M  V30 5018 N 464.787 1.76319 -5.14211 0
M  V30 5019 H 468.589 0.518444 -2.89291 0
M  V30 5020 H 466.103 0.18688 -1.61321 0
M  V30 5021 H 468.1 2.98289 -2.91255 0
M  V30 5022 H 466.76 2.7258 -1.76438 0
M  V30 5023 H 467.771 1.06608 -5.06809 0
M  V30 5024 H 464.448 2.76649 -3.12684 0
M  V30 5025 H 465.838 0.819882 -6.66879 0
M  V30 5026 N 468.558 1.5553 0.254621 0
M  V30 5027 C 469.783 1.81383 1.00573 0
M  V30 5028 C 470.208 0.594419 1.78461 0
M  V30 5029 O 469.566 -0.456403 1.75461 0
M  V30 5030 C 469.614 3.04892 1.92545 0
M  V30 5031 O 468.718 2.81266 3.01601 0
M  V30 5032 H 468.059 0.598969 0.286587 0
M  V30 5033 H 470.589 2.02703 0.277952 0
M  V30 5034 H 470.599 3.34119 2.34155 0
M  V30 5035 H 469.274 3.93287 1.3527 0
M  V30 5036 H 467.851 2.63185 2.64174 0
M  V30 5037 N 470.036 -0.519951 1.48776 0
M  V30 5038 C 471.276 -1.2856 1.58908 0
M  V30 5039 C 471.64 -1.90212 0.261418 0
M  V30 5040 O 472.841 -2.67746 0.237791 0
M  V30 5041 C 471.112 -2.33836 2.70288 0
M  V30 5042 S 472.671 -3.19992 3.0025 0
M  V30 5043 H 469.489 -0.43717 0.560717 0
M  V30 5044 H 472.091 -0.591205 1.86346 0
M  V30 5045 H 470.795 -1.87041 3.653 0
M  V30 5046 H 470.326 -3.07969 2.44783 0
M  V30 5047 H 472.341 -4.34122 2.40317 0
M  V30 5048 N 471.514 -1.37532 -0.769588 0
M  V30 5049 C 472.761 -1.3286 -1.52822 0
M  V30 5050 C 473.089 0.0862597 -1.94309 0
M  V30 5051 O 472.344 1.05995 -1.6451 0
M  V30 5052 C 472.643 -2.21558 -2.8044 0
M  V30 5053 C 472.309 -3.69796 -2.57996 0
M  V30 5054 C 470.971 -4.10194 -2.51583 0
M  V30 5055 C 473.323 -4.63699 -2.37976 0
M  V30 5056 C 470.651 -5.42608 -2.23144 0
M  V30 5057 C 473.003 -5.96353 -2.1106 0
M  V30 5058 C 471.667 -6.35853 -2.03093 0
M  V30 5059 H 470.937 -0.486168 -0.559215 0
M  V30 5060 H 473.584 -1.69757 -0.886277 0
M  V30 5061 H 471.889 -1.77663 -3.49204 0
M  V30 5062 H 473.586 -2.15256 -3.38328 0
M  V30 5063 H 470.176 -3.37759 -2.63851 0
M  V30 5064 H 474.36 -4.33346 -2.41919 0
M  V30 5065 H 469.616 -5.72173 -2.15472 0
M  V30 5066 H 473.79 -6.68667 -1.94568 0
M  V30 5067 H 471.417 -7.38382 -1.8082 0
M  V30 5068 N 472.992 0.995999 -1.22138 0
M  V30 5069 C 473.924 2.08745 -0.946485 0
M  V30 5070 C 474.937 1.62633 0.0737356 0
M  V30 5071 O 476.126 1.77782 -0.159886 0
M  V30 5072 C 473.226 3.36516 -0.401305 0
M  V30 5073 C 472.399 4.11672 -1.47801 0
M  V30 5074 C 471.458 5.17728 -0.940461 0
M  V30 5075 O 470.484 5.45482 -1.62596 0
M  V30 5076 N 471.686 5.80005 0.239723 0
M  V30 5077 H 474.451 2.32908 -1.88611 0
M  V30 5078 H 472.012 1.16152 -1.12785 0
M  V30 5079 H 474.004 4.04691 -0.0270837 0
M  V30 5080 H 472.574 3.0944 0.443354 0
M  V30 5081 H 471.794 3.38171 -2.02568 0
M  V30 5082 H 473.082 4.58657 -2.20253 0
M  V30 5083 H 472.48 5.5982 0.813518 0
M  V30 5084 H 471.037 6.4943 0.555361 0
M  V30 5085 N 474.47 1.03057 1.19235 0
M  V30 5086 C 475.698 0.747697 1.92917 0
M  V30 5087 C 476.113 -0.69372 1.75593 0
M  V30 5088 O 475.47 -1.47191 1.07894 0
M  V30 5089 C 475.521 1.09159 3.44625 0
M  V30 5090 O 475.242 2.47641 3.61394 0
M  V30 5091 C 476.743 0.831763 4.35427 0
M  V30 5092 H 473.963 0.273453 0.612751 0
M  V30 5093 H 476.507 1.37552 1.51327 0
M  V30 5094 H 474.662 0.508919 3.84043 0
M  V30 5095 H 475.076 2.60499 4.55237 0
M  V30 5096 H 476.55 1.12233 5.4047 0
M  V30 5097 H 477.027 -0.233769 4.38577 0
M  V30 5098 H 477.633 1.39725 4.01693 0
M  V30 5099 N 475.948 -1.35272 0.808662 0
M  V30 5100 C 477.176 -2.02946 0.402537 0
M  V30 5101 C 477.591 -1.60937 -0.987147 0
M  V30 5102 O 476.948 -0.807917 -1.63643 0
M  V30 5103 C 476.999 -3.58317 0.47868 0
M  V30 5104 O 476.72 -3.98799 1.81358 0
M  V30 5105 C 478.221 -4.43251 0.0656281 0
M  V30 5106 H 475.441 -0.650831 0.163279 0
M  V30 5107 H 477.985 -1.72849 1.09286 0
M  V30 5108 H 476.14 -3.87055 -0.163415 0
M  V30 5109 H 476.554 -4.93451 1.77781 0
M  V30 5110 H 478.028 -5.51738 0.170017 0
M  V30 5111 H 478.505 -4.27913 -0.989278 0
M  V30 5112 H 479.111 -4.19813 0.68096 0
M  V30 5113 N 477.426 -0.562348 -1.47226 0
M  V30 5114 C 478.651 -0.0432632 -2.07355 0
M  V30 5115 C 479.076 1.24332 -1.41149 0
M  V30 5116 O 478.434 1.74603 -0.488226 0
M  V30 5117 C 478.482 0.130288 -3.60365 0
M  V30 5118 O 477.586 1.19166 -3.94808 0
M  V30 5119 H 476.927 -0.0536334 -0.66183 0
M  V30 5120 H 479.457 -0.779495 -1.89169 0
M  V30 5121 H 479.467 0.342881 -4.06557 0
M  V30 5122 H 478.142 -0.809389 -4.07948 0
M  V30 5123 H 476.719 0.959153 -3.60354 0
M  V30 5124 N 478.904 1.54736 -0.299062 0
M  V30 5125 C 480.32 1.59507 0.0543849 0
M  V30 5126 C 480.52 1.31606 1.52585 0
M  V30 5127 O 479.576 1.08853 2.27832 0
M  V30 5128 C 480.889 2.98751 -0.34181 0
M  V30 5129 C 482.437 3.1165 -0.290414 0
M  V30 5130 C 482.912 4.53199 -0.661402 0
M  V30 5131 N 484.403 4.59114 -0.613863 0
M  V30 5132 C 485.138 5.66709 -0.873417 0
M  V30 5133 N 484.634 6.82349 -1.19884 0
M  V30 5134 N 486.427 5.56369 -0.800608 0
M  V30 5135 H 478.578 1.71133 -1.25806 0
M  V30 5136 H 480.841 0.799186 -0.509908 0
M  V30 5137 H 480.547 3.24085 -1.36608 0
M  V30 5138 H 480.421 3.75961 0.305508 0
M  V30 5139 H 482.808 2.86066 0.724605 0
M  V30 5140 H 482.889 2.366 -0.972327 0
M  V30 5141 H 482.533 4.79513 -1.67422 0
M  V30 5142 H 482.463 5.26583 0.0425612 0
M  V30 5143 H 484.954 3.76053 -0.3732 0
M  V30 5144 H 485.267 7.60326 -1.38291 0
M  V30 5145 H 483.612 6.83906 -1.23685 0
M  V30 5146 H 486.803 4.64904 -0.546045 0
M  V30 5147 H 486.976 6.40139 -1.00626 0
M  V30 5148 N 480.382 0.0267497 1.57577 0
M  V30 5149 C 481.312 -0.954308 2.13108 0
M  V30 5150 C 482.293 -1.34088 1.04663 0
M  V30 5151 O 483.478 -1.41992 1.32484 0
M  V30 5152 C 480.608 -2.23744 2.65624 0
M  V30 5153 C 479.562 -1.99168 3.78835 0
M  V30 5154 C 478.888 -3.33726 4.17769 0
M  V30 5155 C 480.188 -1.33277 5.0501 0
M  V30 5156 H 481.882 -0.491848 2.95332 0
M  V30 5157 H 479.428 -0.23514 1.42067 0
M  V30 5158 H 481.381 -2.92754 3.03106 0
M  V30 5159 H 480.105 -2.72151 1.80558 0
M  V30 5160 H 478.764 -1.32577 3.41788 0
M  V30 5161 H 478.412 -3.79888 3.29688 0
M  V30 5162 H 478.112 -3.18089 4.94058 0
M  V30 5163 H 479.636 -4.04008 4.57832 0
M  V30 5164 H 481.05 -1.92283 5.40093 0
M  V30 5165 H 479.447 -1.28045 5.8628 0
M  V30 5166 H 480.517 -0.305411 4.83937 0
M  V30 5167 N 481.861 -1.55662 -0.24637 0
M  V30 5168 C 483.108 -1.77519 -0.974335 0
M  V30 5169 C 483.436 -0.591165 -1.85298 0
M  V30 5170 O 482.691 0.425497 -1.91018 0
M  V30 5171 C 482.99 -3.04885 -1.86494 0
M  V30 5172 C 482.656 -4.36209 -1.14161 0
M  V30 5173 C 481.318 -4.71896 -0.941701 0
M  V30 5174 C 483.67 -5.17391 -0.628957 0
M  V30 5175 C 480.998 -5.86299 -0.216852 0
M  V30 5176 C 483.35 -6.32546 0.0824273 0
M  V30 5177 C 482.014 -6.66853 0.293807 0
M  V30 5178 H 481.284 -0.649588 -0.356535 0
M  V30 5179 H 483.931 -1.89934 -0.244394 0
M  V30 5180 H 482.236 -2.87484 -2.66196 0
M  V30 5181 H 483.933 -3.18994 -2.42989 0
M  V30 5182 H 480.523 -4.08174 -1.30736 0
M  V30 5183 H 484.707 -4.90276 -0.770943 0
M  V30 5184 H 479.963 -6.11385 -0.0426124 0
M  V30 5185 H 484.137 -6.94693 0.487292 0
M  V30 5186 H 481.764 -7.55349 0.857428 0
M  V30 5187 N 483.339 0.512053 -1.4905 0
M  V30 5188 C 484.269 1.62365 -1.67809 0
M  V30 5189 C 485.25 1.61737 -0.526809 0
M  V30 5190 O 486.435 1.78651 -0.761404 0
M  V30 5191 C 483.565 3.00895 -1.73435 0
M  V30 5192 C 482.519 3.16387 -2.88242 0
M  V30 5193 C 481.845 4.56157 -2.78971 0
M  V30 5194 C 483.145 2.97457 -4.29321 0
M  V30 5195 H 484.839 1.46921 -2.60873 0
M  V30 5196 H 482.385 0.705379 -1.2554 0
M  V30 5197 H 484.338 3.78549 -1.85145 0
M  V30 5198 H 483.062 3.17403 -0.769619 0
M  V30 5199 H 481.721 2.41155 -2.76116 0
M  V30 5200 H 481.369 4.69525 -1.8043 0
M  V30 5201 H 481.069 4.67465 -3.5602 0
M  V30 5202 H 482.593 5.35886 -2.92675 0
M  V30 5203 H 484.007 3.64888 -4.42187 0
M  V30 5204 H 482.404 3.20245 -5.07507 0
M  V30 5205 H 483.474 1.93692 -4.44535 0
M  V30 5206 N 484.817 1.37938 0.762283 0
M  V30 5207 C 486.063 1.33866 1.52341 0
M  V30 5208 C 486.396 -0.0738961 1.94059 0
M  V30 5209 O 485.671 -1.03326 1.64785 0
M  V30 5210 C 485.954 2.28644 2.78197 0
M  V30 5211 C 485.807 3.78722 2.42672 0
M  V30 5212 C 487.126 2.21702 3.80179 0
M  V30 5213 H 484.245 0.487593 0.55265 0
M  V30 5214 H 486.887 1.68717 0.873767 0
M  V30 5215 H 485.037 1.99055 3.33631 0
M  V30 5216 H 486.709 4.18948 1.93081 0
M  V30 5217 H 484.952 3.96827 1.75244 0
M  V30 5218 H 485.623 4.40486 3.3268 0
M  V30 5219 H 488.099 2.47805 3.34263 0
M  V30 5220 H 486.975 2.90143 4.65949 0
M  V30 5221 H 487.236 1.21301 4.25133 0
M  V30 5222 N 486.295 -0.989507 1.22664 0
M  V30 5223 C 487.544 -1.72375 1.04737 0
M  V30 5224 C 487.857 -1.91096 -0.417316 0
M  V30 5225 O 489.063 -2.6188 -0.716334 0
M  V30 5226 C 487.519 -3.10161 1.82561 0
M  V30 5227 C 487.127 -2.99358 3.333 0
M  V30 5228 C 488.871 -3.87607 1.73093 0
M  V30 5229 C 486.778 -4.32319 4.03552 0
M  V30 5230 H 485.708 -0.646326 0.388302 0
M  V30 5231 H 488.359 -1.10437 1.46546 0
M  V30 5232 H 486.741 -3.728 1.33552 0
M  V30 5233 H 487.915 -2.45863 3.89728 0
M  V30 5234 H 486.23 -2.35392 3.43481 0
M  V30 5235 H 488.827 -4.86025 2.22899 0
M  V30 5236 H 489.17 -4.10509 0.691976 0
M  V30 5237 H 489.703 -3.31652 2.19663 0
M  V30 5238 H 486.442 -4.14616 5.07714 0
M  V30 5239 H 485.962 -4.85714 3.51911 0
M  V30 5240 H 487.641 -5.01051 4.09337 0
M  V30 5241 N 487.773 -1.03688 -1.18687 0
M  V30 5242 C 488.683 -0.634908 -2.25845 0
M  V30 5243 C 489.699 0.337065 -1.70704 0
M  V30 5244 O 490.875 0.192943 -2.00474 0
M  V30 5245 C 487.94 -0.000180054 -3.467 0
M  V30 5246 C 487.001 -1.02067 -4.1699 0
M  V30 5247 C 486.234 -0.41614 -5.32075 0
M  V30 5248 O 486.457 0.778712 -5.65059 0
M  V30 5249 O 485.391 -1.14296 -5.90948 0
M  V30 5250 H 489.217 -1.52757 -2.62486 0
M  V30 5251 H 486.802 -0.807533 -1.25695 0
M  V30 5252 H 488.684 0.353342 -4.19916 0
M  V30 5253 H 487.359 0.866367 -3.11891 0
M  V30 5254 H 486.266 -1.42592 -3.45859 0
M  V30 5255 H 487.599 -1.85786 -4.5579 0
M  V30 5256 N 489.251 1.34841 -0.815825 0
M  V30 5257 C 490.481 2.02436 -0.412695 0
M  V30 5258 C 490.889 1.61604 0.983906 0
M  V30 5259 O 490.232 0.813729 1.64694 0
M  V30 5260 C 490.294 3.56953 -0.427182 0
M  V30 5261 C 489.958 4.21083 -1.77589 0
M  V30 5262 C 490.955 4.42107 -2.73564 0
M  V30 5263 C 488.64 4.58006 -2.06243 0
M  V30 5264 C 490.634 4.99169 -3.9637 0
M  V30 5265 C 488.321 5.1478 -3.2931 0
M  V30 5266 C 489.319 5.35304 -4.24191 0
M  V30 5267 O 489.007 5.90878 -5.45086 0
M  V30 5268 H 488.739 0.655631 -0.164695 0
M  V30 5269 H 491.293 1.73246 -1.1034 0
M  V30 5270 H 489.523 3.85372 0.320175 0
M  V30 5271 H 491.212 4.05875 -0.0450875 0
M  V30 5272 H 491.978 4.13953 -2.52721 0
M  V30 5273 H 487.857 4.41339 -1.33196 0
M  V30 5274 H 491.401 5.15105 -4.70439 0
M  V30 5275 H 487.298 5.42362 -3.5002 0
M  V30 5276 H 488.066 6.0932 -5.46508 0
M  V30 5277 N 490.729 0.570148 1.46925 0
M  V30 5278 C 491.975 0.0510284 2.02736 0
M  V30 5279 C 492.308 -1.3006 1.44215 0
M  V30 5280 O 491.583 -1.84932 0.602521 0
M  V30 5281 C 491.866 -0.028215 3.60089 0
M  V30 5282 C 491.719 1.35142 4.29018 0
M  V30 5283 C 493.038 -0.735181 4.33916 0
M  V30 5284 H 490.157 0.0200178 0.736728 0
M  V30 5285 H 492.799 0.73493 1.75211 0
M  V30 5286 H 490.949 -0.610648 3.83671 0
M  V30 5287 H 492.621 1.97806 4.16738 0
M  V30 5288 H 490.864 1.9226 3.88868 0
M  V30 5289 H 491.535 1.24857 5.37694 0
M  V30 5290 H 494.011 -0.240519 4.15404 0
M  V30 5291 H 492.887 -0.759622 5.43618 0
M  V30 5292 H 493.148 -1.79397 4.04066 0
M  V30 5293 N 492.207 -1.54576 0.307264 0
M  V30 5294 C 493.155 -2.25208 -0.581723 0
M  V30 5295 C 494.149 -1.26031 -1.13192 0
M  V30 5296 O 495.355 -1.43862 -1.08184 0
M  V30 5297 H 491.73 -0.723173 -0.206214 0
M  V30 5298 H 493.701 -2.98378 0.0364663 0
M  V30 5299 C 492.45 -3.01086 -1.73904 0
M  V30 5300 H 491.773 -3.77208 -1.32491 0
M  V30 5301 H 493.213 -3.5378 -2.33701 0
M  V30 5302 C 491.672 -2.08422 -2.64692 0
M  V30 5303 O 492.202 -1.65636 -3.65961 0
M  V30 5304 N 490.408 -1.74247 -2.32564 0
M  V30 5305 H 489.955 -2.09238 -1.50257 0
M  V30 5306 H 489.913 -1.12524 -2.93574 0
M  V30 5307 N 493.685 -0.035106 -1.57561 0
M  V30 5308 C 494.933 0.64096 -1.91667 0
M  V30 5309 C 495.254 1.72323 -0.912681 0
M  V30 5310 O 494.524 1.95849 0.0449089 0
M  V30 5311 H 493.104 0.239743 -0.707483 0
M  V30 5312 H 495.766 -0.084321 -1.94718 0
M  V30 5313 H 494.862 1.08987 -2.92452 0
M  V30 5314 N 495.163 1.55791 0.238111 0
M  V30 5315 C 496.411 1.77681 0.963001 0
M  V30 5316 C 496.732 0.600674 1.85518 0
M  V30 5317 O 496.002 -0.383182 1.92116 0
M  V30 5318 H 494.582 0.655315 0.358568 0
M  V30 5319 H 497.244 1.93239 0.253945 0
M  V30 5320 H 496.34 2.69177 1.57956 0
M  V30 5321 N 496.642 -0.504142 1.49319 0
M  V30 5322 C 497.919 -1.26548 1.49147 0
M  V30 5323 C 498.299 -2.09977 0.21744 0
M  V30 5324 O 497.647 -2.14028 -0.800269 0
M  V30 5325 C 497.857 -2.12489 2.76857 0
M  V30 5326 C 499.205 -2.7178 3.26222 0
M  V30 5327 O 500.229 -2.22758 2.77952 0
M  V30 5328 O 499.088 -3.61015 4.10281 0
M  V30 5329 H 496.182 -0.572495 0.596806 0
M  V30 5330 H 498.728 -0.51867 1.61579 0
M  V30 5331 H 497.5 -1.50796 3.61077 0
M  V30 5332 H 497.123 -2.94368 2.6727 0
M  V30 5333 N 498.12 -1.38341 -0.754957 0
M  V30 5334 C 499.05 -1.38176 -1.88227 0
M  V30 5335 C 500.031 -0.247873 -1.68284 0
M  V30 5336 O 501.216 -0.45075 -1.88896 0
M  V30 5337 C 498.346 -1.20471 -3.25736 0
M  V30 5338 C 497.3 -2.3105 -3.60278 0
M  V30 5339 C 496.626 -1.98452 -4.96509 0
M  V30 5340 C 497.926 -3.73305 -3.65295 0
M  V30 5341 H 499.62 -2.32512 -1.88622 0
M  V30 5342 H 497.166 -1.1192 -0.906082 0
M  V30 5343 H 499.119 -1.18982 -4.04254 0
M  V30 5344 H 497.843 -0.225965 -3.25817 0
M  V30 5345 H 496.502 -2.31723 -2.84078 0
M  V30 5346 H 496.15 -0.990641 -4.93148 0
M  V30 5347 H 495.85 -2.7251 -5.20588 0
M  V30 5348 H 497.374 -1.98578 -5.77407 0
M  V30 5349 H 498.788 -3.7467 -4.3393 0
M  V30 5350 H 497.185 -4.46557 -4.00883 0
M  V30 5351 H 498.255 -4.05719 -2.65556 0
M  V30 5352 N 499.598 0.982988 -1.23187 0
M  V30 5353 C 500.531 2.07302 -0.953993 0
M  V30 5354 C 501.509 1.62249 0.106753 0
M  V30 5355 O 502.693 1.88481 -0.0269525 0
M  V30 5356 C 499.82 3.35873 -0.436716 0
M  V30 5357 C 498.866 3.99862 -1.48367 0
M  V30 5358 S 499.699 4.39443 -3.06023 0
M  V30 5359 C 500.855 5.7117 -2.55959 0
M  V30 5360 H 501.088 2.30554 -1.87702 0
M  V30 5361 H 498.621 1.11883 -1.06403 0
M  V30 5362 H 500.579 4.10244 -0.144872 0
M  V30 5363 H 499.24 3.10634 0.465351 0
M  V30 5364 H 498.433 4.92471 -1.07182 0
M  V30 5365 H 498.035 3.31857 -1.72473 0
M  V30 5366 H 500.327 6.47977 -1.97818 0
M  V30 5367 H 501.27 6.17194 -3.47098 0
M  V30 5368 H 501.678 5.29046 -1.96902 0
M  V30 5369 N 501.076 1.04316 1.18135 0
M  V30 5370 C 502.323 0.74802 1.88178 0
M  V30 5371 C 502.651 -0.72441 1.80506 0
M  V30 5372 O 501.906 -1.54463 1.20165 0
M  V30 5373 C 502.205 1.16271 3.37958 0
M  V30 5374 C 501.871 2.63585 3.65833 0
M  V30 5375 C 500.533 3.03829 3.73151 0
M  V30 5376 C 502.885 3.58822 3.78016 0
M  V30 5377 C 500.213 4.38194 3.90132 0
M  V30 5378 C 502.565 4.92909 3.96514 0
M  V30 5379 C 501.229 5.3282 4.02068 0
M  V30 5380 H 500.499 0.27372 0.688592 0
M  V30 5381 H 503.146 1.30863 1.39811 0
M  V30 5382 H 501.451 0.520938 3.88321 0
M  V30 5383 H 503.148 0.911672 3.90499 0
M  V30 5384 H 499.738 2.31414 3.60757 0
M  V30 5385 H 503.922 3.28875 3.71692 0
M  V30 5386 H 499.178 4.68631 3.92677 0
M  V30 5387 H 503.352 5.66606 4.04883 0
M  V30 5388 H 500.979 6.36943 4.14979 0
M  V30 5389 N 502.554 -1.34406 0.822964 0
M  V30 5390 C 503.504 -2.26963 0.217208 0
M  V30 5391 C 504.488 -1.48536 -0.618545 0
M  V30 5392 O 505.68 -1.7056 -0.473118 0
M  V30 5393 C 502.809 -3.37655 -0.619973 0
M  V30 5394 C 501.895 -4.23495 0.226411 0
M  V30 5395 N 502.286 -4.88876 1.29744 0
M  V30 5396 C 500.584 -4.45999 0.0107554 0
M  V30 5397 C 501.285 -5.52642 1.81553 0
M  V30 5398 N 500.261 -5.31949 1.11942 0
M  V30 5399 H 504.063 -2.75017 1.03647 0
M  V30 5400 H 501.577 -1.48126 0.665777 0
M  V30 5401 H 503.574 -4.02932 -1.07011 0
M  V30 5402 H 502.234 -2.91151 -1.43739 0
M  V30 5403 H 503.245 -4.89886 1.68024 0
M  V30 5404 H 499.922 -4.10253 -0.774495 0
M  V30 5405 H 501.312 -6.14755 2.71156 0
M  V30 5406 N 504.032 -0.577932 -1.46621 0
M  V30 5407 C 504.965 0.206312 -2.27265 0
M  V30 5408 C 505.943 0.901306 -1.35334 0
M  V30 5409 O 507.127 0.916151 -1.64739 0
M  V30 5410 C 504.254 1.29563 -3.1294 0
M  V30 5411 C 503.3 0.706981 -4.206 0
M  V30 5412 S 504.133 -0.462459 -5.33499 0
M  V30 5413 C 505.289 0.628171 -6.2274 0
M  V30 5414 H 505.522 -0.477961 -2.93433 0
M  V30 5415 H 503.055 -0.364715 -1.50031 0
M  V30 5416 H 505.013 1.91935 -3.62865 0
M  V30 5417 H 503.674 1.95183 -2.46095 0
M  V30 5418 H 502.867 1.52565 -4.80354 0
M  V30 5419 H 502.469 0.159022 -3.73662 0
M  V30 5420 H 504.761 1.51506 -6.60342 0
M  V30 5421 H 505.704 0.0674961 -7.08068 0
M  V30 5422 H 506.112 0.930167 -5.56784 0
M  V30 5423 N 505.51 1.54411 -0.315457 0
M  V30 5424 C 506.442 2.21527 0.588067 0
M  V30 5425 C 507.455 1.21263 1.08624 0
M  V30 5426 O 508.644 1.47777 1.00121 0
M  V30 5427 C 505.744 2.85963 1.81875 0
M  V30 5428 C 504.917 4.12291 1.46063 0
M  V30 5429 C 503.976 4.60396 2.54799 0
M  V30 5430 O 503.002 5.25265 2.19283 0
M  V30 5431 N 504.204 4.33935 3.85591 0
M  V30 5432 H 506.969 2.99697 0.013414 0
M  V30 5433 H 504.53 1.61308 -0.138295 0
M  V30 5434 H 506.522 3.15071 2.53993 0
M  V30 5435 H 505.092 2.11548 2.30144 0
M  V30 5436 H 504.312 3.90036 0.571445 0
M  V30 5437 H 505.6 4.9452 1.19695 0
M  V30 5438 H 504.998 3.81996 4.17248 0
M  V30 5439 H 503.555 4.67718 4.53964 0
M  V30 5440 N 506.988 0.0434614 1.5754 0
M  V30 5441 C 508.404 -0.313039 1.565 0
M  V30 5442 C 508.604 -1.71954 1.05043 0
M  V30 5443 O 507.66 -2.425 0.703564 0
M  V30 5444 C 508.973 -0.148544 3.00333 0
M  V30 5445 C 510.521 -0.220231 3.12224 0
M  V30 5446 C 510.996 -0.0843565 4.57922 0
M  V30 5447 N 512.487 -0.140881 4.62986 0
M  V30 5448 C 513.222 -0.0597443 5.73369 0
M  V30 5449 N 512.718 0.0733004 6.92761 0
M  V30 5450 N 514.511 -0.11477 5.61983 0
M  V30 5451 H 506.662 0.96303 1.89313 0
M  V30 5452 H 508.925 0.373164 0.871466 0
M  V30 5453 H 508.631 0.820894 3.41986 0
M  V30 5454 H 508.505 -0.912798 3.65989 0
M  V30 5455 H 510.892 -1.18014 2.70475 0
M  V30 5456 H 510.973 0.574646 2.49262 0
M  V30 5457 H 510.617 0.872192 5.00355 0
M  V30 5458 H 510.547 -0.898281 5.18882 0
M  V30 5459 H 513.038 -0.243273 3.77116 0
M  V30 5460 H 513.351 0.128128 7.72694 0
M  V30 5461 H 511.696 0.10828 6.94916 0
M  V30 5462 H 514.887 -0.217212 4.67596 0
M  V30 5463 H 515.06 -0.0480779 6.47982 0
M  V30 5464 N 508.466 -1.55915 -0.229846 0
M  V30 5465 C 509.398 -1.88209 -1.30805 0
M  V30 5466 C 510.411 -0.769672 -1.43457 0
M  V30 5467 O 511.6 -1.04792 -1.44502 0
M  V30 5468 C 508.7 -2.06829 -2.68468 0
M  V30 5469 C 507.873 -3.37798 -2.77869 0
M  V30 5470 C 506.932 -3.45952 -3.96489 0
M  V30 5471 O 505.958 -4.19043 -3.85216 0
M  V30 5472 N 507.16 -2.76488 -5.10426 0
M  V30 5473 H 509.925 -2.81286 -1.03431 0
M  V30 5474 H 507.486 -1.5636 -0.41991 0
M  V30 5475 H 509.478 -2.09608 -3.46189 0
M  V30 5476 H 508.048 -1.20416 -2.88477 0
M  V30 5477 H 507.268 -3.4719 -1.86689 0
M  V30 5478 H 508.556 -4.24091 -2.81113 0
M  V30 5479 H 507.954 -2.16868 -5.2248 0
M  V30 5480 H 506.511 -2.84938 -5.8622 0
M  V30 5481 N 509.944 0.496216 -1.49584 0
M  V30 5482 C 511.36 0.827814 -1.36453 0
M  V30 5483 C 511.56 1.97464 -0.401285 0
M  V30 5484 O 510.616 2.51958 0.165296 0
M  V30 5485 C 511.929 1.16352 -2.77277 0
M  V30 5486 C 513.477 1.27145 -2.86013 0
M  V30 5487 C 513.952 1.64042 -4.27615 0
M  V30 5488 N 515.443 1.71082 -4.30448 0
M  V30 5489 C 516.178 2.01085 -5.36984 0
M  V30 5490 N 515.674 2.2928 -6.5376 0
M  V30 5491 N 517.467 2.02376 -5.24405 0
M  V30 5492 H 509.618 -0.259947 -2.10803 0
M  V30 5493 H 511.881 -0.0537163 -0.946477 0
M  V30 5494 H 511.587 0.394153 -3.49484 0
M  V30 5495 H 511.461 2.10582 -3.12946 0
M  V30 5496 H 513.848 2.03152 -2.1404 0
M  V30 5497 H 513.929 0.309542 -2.5392 0
M  V30 5498 H 513.573 0.88583 -5.00115 0
M  V30 5499 H 513.503 2.6134 -4.57175 0
M  V30 5500 H 515.994 1.51434 -3.46232 0
M  V30 5501 H 516.307 2.51376 -7.30774 0
M  V30 5502 H 514.652 2.26726 -6.56978 0
M  V30 5503 H 517.843 1.79829 -4.32179 0
M  V30 5504 H 518.016 2.25425 -6.07526 0
M  V30 5505 N 511.423 1.38739 0.74761 0
M  V30 5506 C 512.37 1.36449 1.86146 0
M  V30 5507 C 513.34 0.226098 1.64554 0
M  V30 5508 O 514.525 0.41926 1.86137 0
M  V30 5509 C 511.665 1.2013 3.23516 0
M  V30 5510 C 510.778 2.43407 3.56899 0
M  V30 5511 C 509.913 2.19773 4.83605 0
M  V30 5512 C 508.952 3.3879 5.09792 0
M  V30 5513 N 508.089 3.14553 6.27695 0
M  V30 5514 H 512.929 2.3167 1.87438 0
M  V30 5515 H 510.466 1.15094 0.916063 0
M  V30 5516 H 512.424 1.08683 4.02795 0
M  V30 5517 H 511.054 0.285453 3.21535 0
M  V30 5518 H 510.106 2.65504 2.72418 0
M  V30 5519 H 511.418 3.32094 3.72176 0
M  V30 5520 H 510.572 2.05496 5.70838 0
M  V30 5521 H 509.311 1.28461 4.70478 0
M  V30 5522 H 508.316 3.53579 4.21025 0
M  V30 5523 H 509.541 4.30986 5.24812 0
M  V30 5524 H 507.487 2.25893 6.1588 0
M  V30 5525 H 507.404 3.96791 6.435 0
M  V30 5526 H 508.672 3.03943 7.17801 0
M  V30 5527 N 512.901 -0.976442 1.23707 0
M  V30 5528 C 513.831 -2.08749 1.04624 0
M  V30 5529 C 514.812 -1.70057 -0.0380956 0
M  V30 5530 O 515.997 -1.93782 0.127308 0
M  V30 5531 C 513.127 -3.41335 0.640902 0
M  V30 5532 C 512.081 -3.93947 1.67302 0
M  V30 5533 C 511.407 -5.22774 1.12301 0
M  V30 5534 C 512.707 -4.22769 3.06697 0
M  V30 5535 H 514.401 -2.24972 1.97555 0
M  V30 5536 H 511.947 -1.08108 0.951247 0
M  V30 5537 H 513.9 -4.18489 0.494434 0
M  V30 5538 H 512.624 -3.24988 -0.324099 0
M  V30 5539 H 511.283 -3.18941 1.80755 0
M  V30 5540 H 510.931 -5.0278 0.148877 0
M  V30 5541 H 510.631 -5.58942 1.81267 0
M  V30 5542 H 512.155 -6.02546 0.988479 0
M  V30 5543 H 513.569 -4.90659 2.96524 0
M  V30 5544 H 511.966 -4.70147 3.72937 0
M  V30 5545 H 513.036 -3.29885 3.55392 0
M  V30 5546 N 514.379 -1.04941 -1.1758 0
M  V30 5547 C 515.79 -0.784501 -1.69418 0
M  V30 5548 C 516.141 0.693625 -1.8353 0
M  V30 5549 O 515.266 1.53925 -1.52106 0
M  V30 5550 C 515.861 -1.41746 -3.07723 0
M  V30 5551 C 514.42 -1.20066 -3.56737 0
M  V30 5552 C 513.567 -1.5026 -2.33061 0
M  V30 5553 H 516.518 -1.21469 -1.02133 0
M  V30 5554 H 516.539 -0.825381 -3.7144 0
M  V30 5555 H 516.051 -2.49325 -2.9742 0
M  V30 5556 H 514.152 -0.144006 -3.72322 0
M  V30 5557 H 514.265 -1.90384 -4.39648 0
M  V30 5558 H 512.629 -0.922598 -2.37403 0
M  V30 5559 H 513.412 -2.58967 -2.25368 0
M  V30 5560 N 515.857 1.33968 -0.830081 0
M  V30 5561 C 516.767 2.33164 -0.259207 0
M  V30 5562 C 517.783 1.62951 0.610164 0
M  V30 5563 O 518.959 1.94668 0.516369 0
M  V30 5564 C 516.024 3.42088 0.563598 0
M  V30 5565 C 515.085 4.28037 -0.329014 0
M  V30 5566 C 514.318 5.3176 0.454616 0
M  V30 5567 O 514.541 5.44876 1.6872 0
M  V30 5568 O 513.475 6.01669 -0.166794 0
M  V30 5569 H 517.301 2.83832 -1.08041 0
M  V30 5570 H 514.886 1.37154 -0.59239 0
M  V30 5571 H 516.768 4.08581 1.03147 0
M  V30 5572 H 515.443 2.93651 1.36201 0
M  V30 5573 H 514.35 3.64443 -0.844538 0
M  V30 5574 H 515.683 4.79934 -1.09196 0
M  V30 5575 N 517.335 0.585699 1.46312 0
M  V30 5576 C 518.245 -0.148236 2.34131 0
M  V30 5577 C 519.261 -0.882972 1.49932 0
M  V30 5578 O 520.437 -0.845484 1.82794 0
M  V30 5579 C 517.502 -1.14714 3.27172 0
M  V30 5580 C 516.563 -0.416746 4.27272 0
M  V30 5581 C 515.796 -1.36806 5.15868 0
M  V30 5582 O 516.019 -2.60475 5.07454 0
M  V30 5583 O 514.953 -0.877018 5.95476 0
M  V30 5584 H 518.779 0.572882 2.98248 0
M  V30 5585 H 516.364 0.346082 1.45336 0
M  V30 5586 H 518.246 -1.72303 3.84564 0
M  V30 5587 H 516.921 -1.84967 2.65648 0
M  V30 5588 H 515.828 0.201061 3.73559 0
M  V30 5589 H 517.161 0.244872 4.9159 0
M  V30 5590 N 518.813 -1.54241 0.323641 0
M  V30 5591 C 519.763 -2.21071 -0.557833 0
M  V30 5592 C 520.747 -1.19126 -1.08157 0
M  V30 5593 O 521.939 -1.44755 -1.01857 0
M  V30 5594 C 519.068 -2.97208 -1.71821 0
M  V30 5595 C 518.154 -4.06491 -1.20936 0
M  V30 5596 N 518.545 -5.04052 -0.420202 0
M  V30 5597 C 516.843 -4.20443 -1.48808 0
M  V30 5598 C 517.544 -5.81516 -0.146413 0
M  V30 5599 N 516.52 -5.38641 -0.732562 0
M  V30 5600 H 520.322 -2.93853 0.0523921 0
M  V30 5601 H 517.836 -1.61883 0.129502 0
M  V30 5602 H 519.833 -3.4357 -2.36146 0
M  V30 5603 H 518.493 -2.25947 -2.33191 0
M  V30 5604 H 519.504 -5.17862 -0.0630401 0
M  V30 5605 H 516.181 -3.60396 -2.10762 0
M  V30 5606 H 517.571 -6.70119 0.488895 0
M  V30 5607 N 520.291 -0.0518155 -1.57515 0
M  V30 5608 C 521.254 0.907547 -2.10467 0
M  V30 5609 C 522.254 1.23947 -1.02439 0
M  V30 5610 O 523.444 1.17604 -1.2851 0
M  V30 5611 C 520.576 2.21723 -2.58944 0
M  V30 5612 H 521.769 0.44851 -2.96527 0
M  V30 5613 H 519.322 0.196598 -1.55059 0
M  V30 5614 H 520.057 2.72206 -1.76279 0
M  V30 5615 H 519.842 1.98935 -3.37886 0
M  V30 5616 H 521.332 2.90441 -3.00056 0
M  V30 5617 N 521.769 1.56035 0.221574 0
M  V30 5618 C 523.185 1.49026 0.571271 0
M  V30 5619 C 523.385 0.746912 1.87146 0
M  V30 5620 O 522.441 0.286566 2.50869 0
M  V30 5621 C 523.754 2.93579 0.650522 0
M  V30 5622 C 525.302 3.04099 0.741151 0
M  V30 5623 C 525.777 4.5001 0.851747 0
M  V30 5624 N 527.268 4.54053 0.915968 0
M  V30 5625 C 528.003 5.64232 1.02125 0
M  V30 5626 N 527.499 6.84164 1.09049 0
M  V30 5627 N 529.292 5.52084 1.05639 0
M  V30 5628 H 521.443 2.02791 -0.63162 0
M  V30 5629 H 523.706 0.921736 -0.221602 0
M  V30 5630 H 523.412 3.50912 -0.235253 0
M  V30 5631 H 523.286 3.45476 1.51413 0
M  V30 5632 H 525.673 2.4683 1.61737 0
M  V30 5633 H 525.754 2.55371 -0.148128 0
M  V30 5634 H 525.398 5.07896 -0.0200117 0
M  V30 5635 H 525.328 4.96444 1.75644 0
M  V30 5636 H 527.819 3.67683 0.872782 0
M  V30 5637 H 528.132 7.63883 1.1706 0
M  V30 5638 H 526.477 6.86875 1.05962 0
M  V30 5639 H 529.668 4.57317 0.998953 0
M  V30 5640 H 529.841 6.37983 1.13498 0
M  V30 5641 N 523.247 -0.488276 1.49845 0
M  V30 5642 C 524.494 -1.24157 1.59973 0
M  V30 5643 C 524.822 -1.92293 0.292182 0
M  V30 5644 O 524.077 -1.81942 -0.720813 0
M  V30 5645 C 524.376 -2.32152 2.71735 0
M  V30 5646 C 524.042 -1.81387 4.12807 0
M  V30 5647 C 522.704 -1.67262 4.51195 0
M  V30 5648 C 525.056 -1.43537 5.01045 0
M  V30 5649 C 522.384 -1.13685 5.7558 0
M  V30 5650 C 524.736 -0.914081 6.25961 0
M  V30 5651 C 523.4 -0.759327 6.63167 0
M  V30 5652 H 522.67 -0.454322 0.585383 0
M  V30 5653 H 525.317 -0.540261 1.83721 0
M  V30 5654 H 523.622 -3.08122 2.42008 0
M  V30 5655 H 525.319 -2.90164 2.76778 0
M  V30 5656 H 521.909 -1.93344 3.82513 0
M  V30 5657 H 526.093 -1.53292 4.72033 0
M  V30 5658 H 521.349 -1.00426 6.03096 0
M  V30 5659 H 525.523 -0.612066 6.93705 0
M  V30 5660 H 523.15 -0.342002 7.5943 0
M  V30 5661 N 524.725 -1.39134 -0.740242 0
M  V30 5662 C 525.955 -1.39132 -1.52728 0
M  V30 5663 C 526.363 0.0173133 -1.89192 0
M  V30 5664 O 525.706 0.997715 -1.54244 0
M  V30 5665 C 525.768 -2.1952 -2.84695 0
M  V30 5666 C 525.432 -3.68203 -2.70695 0
M  V30 5667 C 526.429 -4.61401 -2.39593 0
M  V30 5668 C 524.114 -4.11724 -2.8773 0
M  V30 5669 C 526.108 -5.96102 -2.25701 0
M  V30 5670 C 523.795 -5.46503 -2.73456 0
M  V30 5671 C 524.793 -6.38506 -2.42486 0
M  V30 5672 O 524.481 -7.70803 -2.28295 0
M  V30 5673 H 524.213 -0.477263 -0.478744 0
M  V30 5674 H 526.767 -1.83504 -0.922799 0
M  V30 5675 H 524.997 -1.69888 -3.47383 0
M  V30 5676 H 526.686 -2.1176 -3.46284 0
M  V30 5677 H 527.452 -4.29079 -2.26088 0
M  V30 5678 H 523.331 -3.4045 -3.10829 0
M  V30 5679 H 526.875 -6.6788 -2.0145 0
M  V30 5680 H 522.772 -5.78417 -2.86538 0
M  V30 5681 H 523.54 -7.8147 -2.43405 0
M  V30 5682 N 526.204 0.969867 -1.24223 0
M  V30 5683 C 527.167 2.04564 -1.03373 0
M  V30 5684 C 528.167 1.60798 0.00819206 0
M  V30 5685 O 529.357 1.72641 -0.232567 0
M  V30 5686 C 526.489 3.36163 -0.566343 0
M  V30 5687 H 527.682 2.24494 -1.98853 0
M  V30 5688 H 525.235 1.1448 -1.06415 0
M  V30 5689 H 525.97 3.21925 0.391751 0
M  V30 5690 H 525.755 3.69273 -1.31834 0
M  V30 5691 H 527.245 4.1526 -0.441435 0
M  V30 5692 N 527.682 1.05563 1.17022 0
M  V30 5693 C 528.645 0.664098 2.19368 0
M  V30 5694 C 529.645 -0.286358 1.5823 0
M  V30 5695 O 530.835 -0.069728 1.7406 0
M  V30 5696 C 527.967 -0.0239932 3.40892 0
M  V30 5697 H 529.16 1.57 2.55521 0
M  V30 5698 H 526.713 0.849964 1.31169 0
M  V30 5699 H 527.448 -0.942988 3.10287 0
M  V30 5700 H 527.233 0.659351 3.86516 0
M  V30 5701 H 528.723 -0.283909 4.16634 0
M  V30 5702 N 529.16 -1.33526 0.837174 0
M  V30 5703 C 530.07 -2.33023 0.271568 0
M  V30 5704 C 531.086 -1.63272 -0.601514 0
M  V30 5705 O 532.262 -1.94939 -0.506038 0
M  V30 5706 C 529.327 -3.42382 -0.545448 0
M  V30 5707 C 528.388 -4.27857 0.351709 0
M  V30 5708 C 527.621 -5.31994 -0.426409 0
M  V30 5709 O 527.844 -5.45763 -1.65828 0
M  V30 5710 O 526.778 -6.01572 0.1987 0
M  V30 5711 H 530.604 -2.83256 1.09545 0
M  V30 5712 H 528.189 -1.36837 0.599655 0
M  V30 5713 H 530.071 -4.09122 -1.00979 0
M  V30 5714 H 528.746 -2.94369 -1.34641 0
M  V30 5715 H 527.653 -3.6399 0.863853 0
M  V30 5716 H 528.986 -4.79349 1.1174 0
M  V30 5717 N 530.638 -0.59345 -1.46 0
M  V30 5718 C 531.887 -0.0808084 -2.01538 0
M  V30 5719 C 532.2 1.29112 -1.46934 0
M  V30 5720 O 533.406 1.8957 -1.94359 0
M  V30 5721 C 531.862 -0.0938311 -3.59778 0
M  V30 5722 C 531.47 -1.46474 -4.23379 0
M  V30 5723 C 533.214 0.364306 -4.22934 0
M  V30 5724 C 531.121 -1.4349 -5.73729 0
M  V30 5725 H 530.051 -0.0264407 -0.753536 0
M  V30 5726 H 532.702 -0.746689 -1.67621 0
M  V30 5727 H 531.084 0.638427 -3.9082 0
M  V30 5728 H 532.258 -2.21758 -4.03931 0
M  V30 5729 H 530.573 -1.86379 -3.7236 0
M  V30 5730 H 533.17 0.405584 -5.3316 0
M  V30 5731 H 533.513 1.38409 -3.92618 0
M  V30 5732 H 534.046 -0.31423 -3.96557 0
M  V30 5733 H 530.785 -2.43184 -6.08722 0
M  V30 5734 H 530.305 -0.724431 -5.95409 0
M  V30 5735 H 531.984 -1.15243 -6.36654 0
M  V30 5736 N 532.116 1.54067 -0.331816 0
M  V30 5737 C 533.356 2.02625 0.26876 0
M  V30 5738 C 533.72 1.21462 1.48697 0
M  V30 5739 O 534.921 1.59863 2.16096 0
M  V30 5740 C 533.192 3.52554 0.586577 0
M  V30 5741 S 534.751 4.23035 1.16563 0
M  V30 5742 H 531.569 0.706395 0.0807862 0
M  V30 5743 H 534.171 1.89844 -0.466856 0
M  V30 5744 H 532.875 4.09242 -0.308046 0
M  V30 5745 H 532.406 3.69432 1.35217 0
M  V30 5746 H 534.421 4.31382 2.45203 0
M  V30 5747 N 533.594 0.0601682 1.57485 0
M  V30 5748 C 534.843 -0.611101 1.9222 0
M  V30 5749 C 535.156 -1.71469 0.941159 0
M  V30 5750 O 536.362 -2.44473 1.18089 0
M  V30 5751 C 534.818 -1.13832 3.41424 0
M  V30 5752 C 534.426 -0.0663596 4.47951 0
M  V30 5753 C 536.17 -1.78432 3.85178 0
M  V30 5754 C 534.077 -0.606965 5.88277 0
M  V30 5755 H 533.007 -0.232033 0.71741 0
M  V30 5756 H 535.658 0.130518 1.83035 0
M  V30 5757 H 534.04 -1.93254 3.45643 0
M  V30 5758 H 535.214 0.707682 4.55333 0
M  V30 5759 H 533.529 0.482715 4.13593 0
M  V30 5760 H 536.126 -2.1989 4.87394 0
M  V30 5761 H 536.469 -2.63966 3.21913 0
M  V30 5762 H 537.002 -1.05651 3.83514 0
M  V30 5763 H 533.741 0.21095 6.5516 0
M  V30 5764 H 533.261 -1.34879 5.84438 0
M  V30 5765 H 534.94 -1.08704 6.37803 0
M  V30 5766 N 535.072 -1.5615 -0.213296 0
M  V30 5767 C 536.035 -1.92249 -1.24792 0
M  V30 5768 C 537.035 -0.801828 -1.39382 0
M  V30 5769 O 538.225 -1.06948 -1.37506 0
M  V30 5770 C 535.357 -2.18056 -2.62039 0
M  V30 5771 H 536.55 -2.84793 -0.939845 0
M  V30 5772 H 534.103 -1.49559 -0.454062 0
M  V30 5773 H 534.838 -1.2809 -2.97932 0
M  V30 5774 H 534.623 -2.99703 -2.52825 0
M  V30 5775 H 536.113 -2.47051 -3.36683 0
M  V30 5776 N 536.55 0.480323 -1.50102 0
M  V30 5777 C 537.48 1.58769 -1.71215 0
M  V30 5778 C 538.461 1.60583 -0.560997 0
M  V30 5779 O 539.646 1.76996 -0.799127 0
M  V30 5780 C 536.776 2.97148 -1.79778 0
M  V30 5781 C 535.73 3.10201 -2.94888 0
M  V30 5782 C 535.056 4.50137 -2.88584 0
M  V30 5783 C 536.356 2.88283 -4.35534 0
M  V30 5784 H 538.05 1.41354 -2.6393 0
M  V30 5785 H 535.596 0.678591 -1.27008 0
M  V30 5786 H 537.549 3.74536 -1.93133 0
M  V30 5787 H 536.273 3.15699 -0.836772 0
M  V30 5788 H 534.932 2.35244 -2.81169 0
M  V30 5789 H 534.58 4.65593 -1.90349 0
M  V30 5790 H 534.28 4.59808 -3.65856 0
M  V30 5791 H 535.804 5.29558 -3.03976 0
M  V30 5792 H 537.218 3.55427 -4.49827 0
M  V30 5793 H 535.615 3.09408 -5.14186 0
M  V30 5794 H 536.685 1.84219 -4.48544 0
M  V30 5795 N 538.028 1.39524 0.732853 0
M  V30 5796 C 538.976 1.38563 1.86824 0
M  V30 5797 C 539.97 0.268467 1.67259 0
M  V30 5798 O 541.176 0.438613 1.74574 0
M  V30 5799 H 537.551 0.432737 0.615014 0
M  V30 5800 H 539.522 2.34328 1.84751 0
M  V30 5801 C 538.271 1.2481 3.24527 0
M  V30 5802 H 537.594 2.10044 3.40179 0
M  V30 5803 H 539.034 1.28194 4.04156 0
M  V30 5804 C 537.493 -0.0432825 3.36872 0
M  V30 5805 O 538.023 -1.01268 3.88726 0
M  V30 5806 N 536.229 -0.107055 2.90403 0
M  V30 5807 H 535.776 0.682512 2.48394 0
M  V30 5808 H 535.734 -0.970618 2.99042 0
M  V30 5809 N 539.506 -0.963266 1.24736 0
M  V30 5810 C 540.753 -1.7068 1.0897 0
M  V30 5811 C 541.081 -1.90934 -0.370751 0
M  V30 5812 O 540.336 -1.47155 -1.29011 0
M  V30 5813 C 540.635 -3.09944 1.7796 0
M  V30 5814 C 540.301 -3.09518 3.27887 0
M  V30 5815 C 538.963 -3.09109 3.68789 0
M  V30 5816 C 541.315 -3.03509 4.23712 0
M  V30 5817 C 538.643 -3.00429 5.03944 0
M  V30 5818 C 540.995 -2.96371 5.5888 0
M  V30 5819 C 539.659 -2.94293 5.99123 0
M  V30 5820 H 538.929 -0.624564 0.398749 0
M  V30 5821 H 541.576 -1.12603 1.54896 0
M  V30 5822 H 539.881 -3.71513 1.2444 0
M  V30 5823 H 541.578 -3.66278 1.63222 0
M  V30 5824 H 538.168 -3.10603 2.95337 0
M  V30 5825 H 542.352 -3.0295 3.93109 0
M  V30 5826 H 537.608 -2.97183 5.34314 0
M  V30 5827 H 541.782 -2.90681 6.32833 0
M  V30 5828 H 539.409 -2.87322 7.03811 0
M  V30 5829 N 540.985 -1.06182 -1.16461 0
M  V30 5830 C 541.915 -0.692861 -2.22984 0
M  V30 5831 C 542.896 0.314122 -1.67174 0
M  V30 5832 O 544.081 0.189499 -1.93273 0
M  V30 5833 C 541.211 -0.07732 -3.47214 0
M  V30 5834 C 540.165 -1.01015 -4.15909 0
M  V30 5835 C 539.491 -0.257973 -5.34077 0
M  V30 5836 C 540.791 -2.33868 -4.67015 0
M  V30 5837 H 542.485 -1.58343 -2.54102 0
M  V30 5838 H 540.031 -0.76279 -1.22137 0
M  V30 5839 H 541.984 0.19266 -4.20959 0
M  V30 5840 H 540.708 0.848254 -3.15392 0
M  V30 5841 H 539.367 -1.26486 -3.44088 0
M  V30 5842 H 539.015 0.670684 -4.98509 0
M  V30 5843 H 538.715 -0.879638 -5.80979 0
M  V30 5844 H 540.239 0.00448788 -6.106 0
M  V30 5845 H 541.653 -2.1279 -5.32347 0
M  V30 5846 H 540.05 -2.91522 -5.24533 0
M  V30 5847 H 541.12 -2.97019 -3.83286 0
M  V30 5848 N 542.463 1.3308 -0.844243 0
M  V30 5849 C 543.413 2.26589 -0.253289 0
M  V30 5850 C 544.397 1.49501 0.594836 0
M  V30 5851 O 545.589 1.71291 0.445924 0
M  V30 5852 C 542.718 3.38599 0.566176 0
M  V30 5853 C 541.804 4.23081 -0.293756 0
M  V30 5854 N 542.195 4.86751 -1.37505 0
M  V30 5855 C 540.493 4.45925 -0.0817086 0
M  V30 5856 C 541.194 5.49684 -1.90323 0
M  V30 5857 N 540.17 5.30101 -1.20391 0
M  V30 5858 H 543.972 2.73334 -1.08009 0
M  V30 5859 H 541.486 1.47048 -0.689258 0
M  V30 5860 H 543.483 4.04584 1.00587 0
M  V30 5861 H 542.143 2.93401 1.39089 0
M  V30 5862 H 543.154 4.87151 -1.75796 0
M  V30 5863 H 539.831 4.11434 0.709129 0
M  V30 5864 H 541.221 6.10363 -2.80902 0
M  V30 5865 N 543.941 0.601185 1.45683 0
M  V30 5866 C 544.851 -0.123395 2.34275 0
M  V30 5867 C 545.867 -0.86702 1.5086 0
M  V30 5868 O 547.043 -0.826049 1.8368 0
M  V30 5869 C 544.108 -1.11237 3.2837 0
M  V30 5870 C 543.169 -0.371405 4.2769 0
M  V30 5871 C 542.402 -1.31327 5.1729 0
M  V30 5872 O 542.625 -2.55078 5.10188 0
M  V30 5873 O 541.559 -0.813811 5.96373 0
M  V30 5874 H 545.385 0.604483 2.97623 0
M  V30 5875 H 542.97 0.361477 1.44961 0
M  V30 5876 H 544.852 -1.68214 3.8637 0
M  V30 5877 H 543.527 -1.82139 2.67595 0
M  V30 5878 H 542.434 0.24067 3.73325 0
M  V30 5879 H 543.767 0.296998 4.91303 0
M  V30 5880 N 545.419 -1.53889 0.339982 0
M  V30 5881 C 546.835 -1.59595 -0.0120752 0
M  V30 5882 C 547.035 -1.35605 -1.49042 0
M  V30 5883 O 546.091 -1.14856 -2.24865 0
M  V30 5884 C 547.404 -2.9774 0.420898 0
M  V30 5885 C 548.952 -3.1077 0.37294 0
M  V30 5886 C 549.427 -4.51286 0.781327 0
M  V30 5887 N 550.918 -4.57325 0.735374 0
M  V30 5888 C 551.653 -5.64194 1.02336 0
M  V30 5889 N 551.149 -6.7893 1.37933 0
M  V30 5890 N 552.942 -5.54051 0.947838 0
M  V30 5891 H 545.093 -1.67738 1.30299 0
M  V30 5892 H 547.356 -0.785385 0.530918 0
M  V30 5893 H 547.062 -3.20349 1.45152 0
M  V30 5894 H 546.936 -3.76639 -0.205721 0
M  V30 5895 H 549.323 -2.87886 -0.648505 0
M  V30 5896 H 549.404 -2.33939 1.03472 0
M  V30 5897 H 549.048 -4.74905 1.80077 0
M  V30 5898 H 548.978 -5.26511 0.0970679 0
M  V30 5899 H 551.469 -3.74931 0.472773 0
M  V30 5900 H 551.782 -7.56392 1.58402 0
M  V30 5901 H 550.127 -6.80386 1.41774 0
M  V30 5902 H 553.318 -4.63293 0.669115 0
M  V30 5903 H 553.491 -6.37246 1.17563 0
M  V30 5904 N 546.897 -0.0685191 -1.57451 0
M  V30 5905 C 548.145 0.60016 -1.92983 0
M  V30 5906 C 548.466 1.70348 -0.949028 0
M  V30 5907 O 547.736 1.959 0.00335647 0
M  V30 5908 H 546.316 0.224682 -0.712409 0
M  V30 5909 H 548.978 -0.125605 -1.94495 0
M  V30 5910 H 548.074 1.02759 -2.94698 0
M  V30 5911 N 548.375 1.56261 0.205012 0
M  V30 5912 C 549.624 1.79236 0.925058 0
M  V30 5913 C 549.937 0.640011 1.84833 0
M  V30 5914 O 551.143 0.753809 2.60826 0
M  V30 5915 C 549.599 3.17475 1.69522 0
M  V30 5916 C 549.207 4.40482 0.817269 0
M  V30 5917 C 550.951 3.49766 2.4055 0
M  V30 5918 C 548.858 5.69744 1.58573 0
M  V30 5919 H 547.788 0.668287 0.349153 0
M  V30 5920 H 550.439 1.82629 0.178544 0
M  V30 5921 H 548.821 3.08304 2.48526 0
M  V30 5922 H 549.995 4.60752 0.0665988 0
M  V30 5923 H 548.31 4.15827 0.218316 0
M  V30 5924 H 550.907 4.43573 2.98575 0
M  V30 5925 H 551.25 2.73041 3.14252 0
M  V30 5926 H 551.783 3.60341 1.68522 0
M  V30 5927 H 548.522 6.49407 0.891679 0
M  V30 5928 H 548.042 5.53509 2.31059 0
M  V30 5929 H 549.721 6.1051 2.14212 0
M  V30 5930 N 549.853 -0.472356 1.50355 0
M  V30 5931 C 551.102 -1.2213 1.60522 0
M  V30 5932 C 551.415 -1.9312 0.310466 0
M  V30 5933 O 552.621 -2.69936 0.291029 0
M  V30 5934 C 551.077 -2.21909 2.83345 0
M  V30 5935 C 550.685 -1.56727 4.19691 0
M  V30 5936 C 552.429 -2.97453 3.02856 0
M  V30 5937 C 550.336 -2.54785 5.33703 0
M  V30 5938 H 549.266 -0.459543 0.597776 0
M  V30 5939 H 551.917 -0.491922 1.76783 0
M  V30 5940 H 550.299 -2.98133 2.60639 0
M  V30 5941 H 551.473 -0.863007 4.52646 0
M  V30 5942 H 549.788 -0.934685 4.05774 0
M  V30 5943 H 552.385 -3.70838 3.85205 0
M  V30 5944 H 552.728 -3.56764 2.14534 0
M  V30 5945 H 553.261 -2.28342 3.25737 0
M  V30 5946 H 550 -2.00214 6.24175 0
M  V30 5947 H 549.52 -3.23367 5.05167 0
M  V30 5948 H 551.199 -3.16639 5.64224 0
M  V30 5949 N 551.331 -1.39911 -0.725443 0
M  V30 5950 C 552.561 -1.40744 -1.51244 0
M  V30 5951 C 552.969 -0.00275403 -1.892 0
M  V30 5952 O 552.312 0.981299 -1.55294 0
M  V30 5953 C 552.374 -2.22527 -2.82351 0
M  V30 5954 C 552.038 -3.71053 -2.66774 0
M  V30 5955 C 553.035 -4.63916 -2.34686 0
M  V30 5956 C 550.72 -4.14753 -2.83347 0
M  V30 5957 C 552.714 -5.98463 -2.19366 0
M  V30 5958 C 550.401 -5.49372 -2.67644 0
M  V30 5959 C 551.399 -6.41042 -2.357 0
M  V30 5960 O 551.087 -7.73181 -2.20107 0
M  V30 5961 H 550.819 -0.482314 -0.473655 0
M  V30 5962 H 553.373 -1.84472 -0.903284 0
M  V30 5963 H 551.603 -1.73563 -3.45562 0
M  V30 5964 H 553.292 -2.15421 -3.44018 0
M  V30 5965 H 554.058 -4.31453 -2.21525 0
M  V30 5966 H 549.937 -3.43728 -3.072 0
M  V30 5967 H 553.481 -6.69979 -1.94354 0
M  V30 5968 H 549.378 -5.81424 -2.80387 0
M  V30 5969 H 550.146 -7.84008 -2.35103 0
M  V30 5970 N 552.809 0.956637 -1.25245 0
M  V30 5971 C 554.225 1.22733 -1.02023 0
M  V30 5972 C 554.425 1.99761 0.264186 0
M  V30 5973 O 553.481 2.32814 0.977436 0
M  V30 5974 C 554.794 2.00367 -2.24217 0
M  V30 5975 C 556.342 2.13418 -2.28958 0
M  V30 5976 C 556.817 2.9445 -3.50803 0
M  V30 5977 N 558.308 3.02029 -3.51187 0
M  V30 5978 C 559.043 3.65116 -4.42129 0
M  V30 5979 N 558.539 4.2983 -5.43339 0
M  V30 5980 N 560.332 3.62237 -4.29815 0
M  V30 5981 H 552.483 0.441282 -2.07765 0
M  V30 5982 H 554.746 0.257686 -0.912306 0
M  V30 5983 H 554.452 1.51165 -3.17556 0
M  V30 5984 H 554.326 3.01077 -2.27228 0
M  V30 5985 H 556.713 2.61819 -1.36143 0
M  V30 5986 H 556.794 1.1202 -2.29968 0
M  V30 5987 H 556.438 2.46741 -4.43939 0
M  V30 5988 H 556.368 3.9607 -3.47039 0
M  V30 5989 H 558.859 2.56007 -2.77973 0
M  V30 5990 H 559.172 4.75819 -6.08947 0
M  V30 5991 H 557.517 4.28465 -5.47214 0
M  V30 5992 H 560.708 3.10863 -3.49974 0
M  V30 5993 H 560.881 4.11117 -5.00886 0
M  V30 5994 N 554.287 1.06798 1.15896 0
M  V30 5995 C 555.564 0.701057 1.82605 0
M  V30 5996 C 555.944 -0.817066 1.94646 0
M  V30 5997 O 555.292 -1.72933 1.49353 0
M  V30 5998 C 555.502 1.40895 3.19296 0
M  V30 5999 C 556.85 1.55744 3.95005 0
M  V30 6000 O 557.874 1.36927 3.28831 0
M  V30 6001 O 556.733 1.86658 5.13635 0
M  V30 6002 H 553.827 0.248791 0.78869 0
M  V30 6003 H 556.373 1.16857 1.23055 0
M  V30 6004 H 555.145 2.4439 3.05596 0
M  V30 6005 H 554.768 0.931847 3.86526 0
M  V30 6006 N 555.766 -1.3263 0.851289 0
M  V30 6007 C 556.696 -2.31449 0.308771 0
M  V30 6008 C 557.677 -1.59531 -0.590255 0
M  V30 6009 O 558.862 -1.87351 -0.511205 0
M  V30 6010 C 555.992 -3.43586 -0.506548 0
M  V30 6011 C 554.946 -4.26963 0.297753 0
M  V30 6012 C 554.272 -5.30831 -0.642094 0
M  V30 6013 C 555.572 -4.99643 1.52166 0
M  V30 6014 H 557.266 -2.77074 1.13447 0
M  V30 6015 H 554.812 -1.33207 0.546971 0
M  V30 6016 H 556.765 -4.11754 -0.896474 0
M  V30 6017 H 555.489 -2.96681 -1.36558 0
M  V30 6018 H 554.148 -3.60437 0.669391 0
M  V30 6019 H 553.796 -4.8018 -1.49788 0
M  V30 6020 H 553.496 -5.87501 -0.107968 0
M  V30 6021 H 555.02 -6.01862 -1.02927 0
M  V30 6022 H 556.434 -5.6051 1.20421 0
M  V30 6023 H 554.831 -5.66022 1.99347 0
M  V30 6024 H 555.901 -4.27701 2.28474 0
M  V30 6025 N 557.244 -0.608902 -1.45362 0
M  V30 6026 C 558.191 0.109172 -2.30542 0
M  V30 6027 C 559.161 0.858704 -1.42181 0
M  V30 6028 O 560.346 0.844178 -1.71109 0
M  V30 6029 C 557.486 1.09971 -3.27109 0
M  V30 6030 C 556.599 0.350911 -4.30572 0
M  V30 6031 C 555.734 1.33129 -5.14247 0
M  V30 6032 C 554.773 0.570377 -6.09437 0
M  V30 6033 N 553.91 1.5001 -6.85887 0
M  V30 6034 H 558.75 -0.623195 -2.91411 0
M  V30 6035 H 556.287 -0.319122 -1.43597 0
M  V30 6036 H 558.245 1.68714 -3.81564 0
M  V30 6037 H 556.875 1.79947 -2.67991 0
M  V30 6038 H 555.927 -0.352054 -3.78767 0
M  V30 6039 H 557.239 -0.242725 -4.98209 0
M  V30 6040 H 556.393 1.99074 -5.73109 0
M  V30 6041 H 555.132 1.95885 -4.46632 0
M  V30 6042 H 554.137 -0.102702 -5.49704 0
M  V30 6043 H 555.362 -0.0521607 -6.7908 0
M  V30 6044 H 553.308 2.11529 -6.2096 0
M  V30 6045 H 553.225 0.959934 -7.49881 0
M  V30 6046 H 554.493 2.14909 -7.49289 0
M  V30 6047 N 558.722 1.53707 -0.348139 0
M  V30 6048 C 559.652 2.28111 0.498766 0
M  V30 6049 C 560.633 1.29851 1.09876 0
M  V30 6050 O 561.818 1.587 1.11928 0
M  V30 6051 C 558.948 3.05735 1.64753 0
M  V30 6052 C 557.902 4.11537 1.17565 0
M  V30 6053 C 557.228 4.77142 2.4133 0
M  V30 6054 C 558.528 5.21587 0.272844 0
M  V30 6055 H 560.222 2.99152 -0.121934 0
M  V30 6056 H 557.768 1.43875 -0.0600842 0
M  V30 6057 H 559.721 3.56526 2.24649 0
M  V30 6058 H 558.445 2.32354 2.2952 0
M  V30 6059 H 557.104 3.61665 0.599483 0
M  V30 6060 H 556.752 4.0035 3.04514 0
M  V30 6061 H 556.452 5.48626 2.10436 0
M  V30 6062 H 557.976 5.30719 3.01943 0
M  V30 6063 H 559.39 5.67986 0.778779 0
M  V30 6064 H 557.787 6.00074 0.0555849 0
M  V30 6065 H 558.857 4.79969 -0.689785 0
M  V30 6066 N 560.2 0.0768682 1.57412 0
M  V30 6067 C 561.477 -0.632359 1.85096 0
M  V30 6068 C 561.857 -1.87479 0.9703 0
M  V30 6069 O 561.205 -2.28469 0.0379062 0
M  V30 6070 C 561.415 -0.965174 3.35388 0
M  V30 6071 C 562.763 -1.33648 4.03018 0
M  V30 6072 O 563.787 -1.05675 3.40164 0
M  V30 6073 O 562.646 -1.85959 5.13889 0
M  V30 6074 H 559.74 -0.314574 0.764835 0
M  V30 6075 H 562.286 0.108184 1.69355 0
M  V30 6076 H 561.058 -0.0829745 3.91212 0
M  V30 6077 H 560.681 -1.76231 3.5641 0
M  V30 6078 N 561.678 -1.56367 -0.196722 0
M  V30 6079 C 562.626 -1.95304 -1.2633 0
M  V30 6080 C 563.62 -0.838252 -1.47206 0
M  V30 6081 O 564.826 -1.02325 -1.48087 0
M  V30 6082 H 561.201 -0.621013 -0.424083 0
M  V30 6083 H 563.172 -2.84254 -0.907879 0
M  V30 6084 C 561.921 -2.3074 -2.60104 0
M  V30 6085 H 561.244 -3.16047 -2.44856 0
M  V30 6086 H 562.684 -2.61849 -3.33484 0
M  V30 6087 C 561.143 -1.14143 -3.16975 0
M  V30 6088 O 561.673 -0.415602 -3.99544 0
M  V30 6089 N 559.879 -0.91867 -2.75697 0
M  V30 6090 H 559.426 -1.51065 -2.08656 0
M  V30 6091 H 559.384 -0.140321 -3.14087 0
M  V30 6092 N 563.156 0.464375 -1.50603 0
M  V30 6093 C 564.402 1.21776 -1.62168 0
M  V30 6094 C 564.735 1.91476 -0.324154 0
M  V30 6095 O 564.01 1.8242 0.674782 0
M  V30 6096 C 564.293 2.25614 -2.80661 0
M  V30 6097 C 564.146 1.60175 -4.20314 0
M  V30 6098 C 565.465 3.26862 -2.94702 0
M  V30 6099 H 562.584 0.44137 -0.590222 0
M  V30 6100 H 565.226 0.510623 -1.8301 0
M  V30 6101 H 563.376 2.85923 -2.63021 0
M  V30 6102 H 565.048 1.03411 -4.4956 0
M  V30 6103 H 563.291 0.904697 -4.24261 0
M  V30 6104 H 563.962 2.35665 -4.99165 0
M  V30 6105 H 566.438 2.76582 -3.10872 0
M  V30 6106 H 565.314 3.96839 -3.79223 0
M  V30 6107 H 565.575 3.91382 -2.05603 0
M  V30 6108 N 564.634 1.40294 0.718013 0
M  V30 6109 C 565.564 1.43118 1.84498 0
M  V30 6110 C 566.545 0.292403 1.67568 0
M  V30 6111 O 567.73 0.500675 1.87635 0
M  V30 6112 C 564.86 1.29065 3.22427 0
M  V30 6113 C 563.814 2.40521 3.54025 0
M  V30 6114 C 563.14 2.11546 4.91073 0
M  V30 6115 C 564.44 3.82859 3.55269 0
M  V30 6116 H 566.134 2.37432 1.82391 0
M  V30 6117 H 563.68 1.14283 0.87609 0
M  V30 6118 H 565.633 1.29658 4.00957 0
M  V30 6119 H 564.357 0.312271 3.25104 0
M  V30 6120 H 563.016 2.39173 2.77834 0
M  V30 6121 H 562.664 1.12104 4.90348 0
M  V30 6122 H 562.364 2.86216 5.1318 0
M  V30 6123 H 563.888 2.13817 5.71939 0
M  V30 6124 H 565.302 3.86044 4.23843 0
M  V30 6125 H 563.699 4.57029 3.88902 0
M  V30 6126 H 564.769 4.12617 2.54706 0
M  V30 6127 N 566.112 -0.949982 1.2575 0
M  V30 6128 C 567.042 -2.06483 1.09028 0
M  V30 6129 C 568.023 -1.701 -0.00201532 0
M  V30 6130 O 569.208 -1.93469 0.168383 0
M  V30 6131 C 566.338 -3.39899 0.71316 0
M  V30 6132 C 565.292 -3.90309 1.75621 0
M  V30 6133 C 564.618 -5.20274 1.23365 0
M  V30 6134 C 565.918 -4.16169 3.15596 0
M  V30 6135 H 567.612 -2.20731 2.02283 0
M  V30 6136 H 565.158 -1.06066 0.973964 0
M  V30 6137 H 567.111 -4.17346 0.58309 0
M  V30 6138 H 565.835 -3.25602 -0.255091 0
M  V30 6139 H 564.494 -3.15035 1.8748 0
M  V30 6140 H 564.142 -5.02351 0.255491 0
M  V30 6141 H 563.842 -5.54971 1.93082 0
M  V30 6142 H 565.366 -6.00314 1.11607 0
M  V30 6143 H 566.78 -4.84259 3.06864 0
M  V30 6144 H 565.177 -4.62131 3.82825 0
M  V30 6145 H 566.247 -3.22273 3.6231 0
M  V30 6146 N 567.59 -1.07411 -1.15328 0
M  V30 6147 C 568.867 -0.710732 -1.82231 0
M  V30 6148 C 569.247 0.806732 -1.95077 0
M  V30 6149 O 568.595 1.72139 -1.50268 0
M  V30 6150 C 568.805 -1.42586 -3.18544 0
M  V30 6151 C 570.153 -1.57836 -3.94174 0
M  V30 6152 O 571.177 -1.38669 -3.281 0
M  V30 6153 O 570.036 -1.8938 -5.12638 0
M  V30 6154 H 567.13 -0.25297 -0.78736 0
M  V30 6155 H 569.676 -1.17508 -1.22434 0
M  V30 6156 H 568.448 -2.46008 -3.04296 0
M  V30 6157 H 568.071 -0.952332 -3.86026 0
M  V30 6158 N 569.068 1.32177 -0.85831 0
M  V30 6159 C 570.031 2.27086 -0.310588 0
M  V30 6160 C 571.031 1.51751 0.531806 0
M  V30 6161 O 572.221 1.70794 0.34279 0
M  V30 6162 C 569.353 3.36266 0.560179 0
M  V30 6163 H 570.546 2.77045 -1.1483 0
M  V30 6164 H 568.099 1.42911 -0.632942 0
M  V30 6165 H 568.834 2.9158 1.41956 0
M  V30 6166 H 568.619 3.92077 -0.0428473 0
M  V30 6167 H 570.109 4.06974 0.936056 0
M  V30 6168 N 570.547 0.616602 1.45037 0
M  V30 6169 C 571.824 0.0469086 1.95544 0
M  V30 6170 C 572.204 -1.42345 1.55888 0
M  V30 6171 O 571.552 -2.13055 0.825824 0
M  V30 6172 C 571.762 0.254489 3.48071 0
M  V30 6173 C 573.11 0.140025 4.24369 0
M  V30 6174 O 574.134 0.185084 3.55719 0
M  V30 6175 O 572.993 0.0327034 5.4649 0
M  V30 6176 H 570.087 -0.0306051 0.826433 0
M  V30 6177 H 572.633 0.687293 1.55159 0
M  V30 6178 H 571.405 1.27532 3.69934 0
M  V30 6179 H 571.028 -0.42073 3.95368 0
M  V30 6180 N 572.025 -1.5352 0.356285 0
M  V30 6181 C 573.273 -2.00719 -0.235837 0
M  V30 6182 C 573.594 -1.24551 -1.5004 0
M  V30 6183 O 572.864 -0.356185 -1.92635 0
M  V30 6184 H 571.444 -0.741542 -0.0901366 0
M  V30 6185 H 574.106 -1.88887 0.480378 0
M  V30 6186 H 573.202 -3.08551 -0.469357 0
M  V30 6187 N 573.503 -0.0852151 -1.57369 0
M  V30 6188 C 574.453 0.88767 -2.10011 0
M  V30 6189 C 575.437 1.25021 -1.01285 0
M  V30 6190 O 576.629 1.22694 -1.27574 0
M  V30 6191 C 573.758 2.15037 -2.67608 0
M  V30 6192 C 572.844 1.81371 -3.83361 0
M  V30 6193 N 573.235 1.18216 -4.91791 0
M  V30 6194 C 571.533 2.11041 -3.92909 0
M  V30 6195 C 572.234 1.02941 -5.72519 0
M  V30 6196 N 571.21 1.54351 -5.21226 0
M  V30 6197 H 575.012 0.395279 -2.9123 0
M  V30 6198 H 572.526 0.11829 -1.61969 0
M  V30 6199 H 574.523 2.85667 -3.03644 0
M  V30 6200 H 573.183 2.64851 -1.8784 0
M  V30 6201 H 574.194 0.850168 -5.10874 0
M  V30 6202 H 570.871 2.63138 -3.24136 0
M  V30 6203 H 572.261 0.536298 -6.69756 0
M  V30 6204 N 574.981 1.5647 0.188427 0
M  V30 6205 C 576.23 1.80207 0.905995 0
M  V30 6206 C 576.543 0.659579 1.84144 0
M  V30 6207 O 577.749 0.781431 2.60011 0
M  V30 6208 C 576.205 3.19255 1.66145 0
M  V30 6209 C 575.813 4.41324 0.770504 0
M  V30 6210 C 577.557 3.52298 2.36826 0
M  V30 6211 C 575.464 5.71394 1.52521 0
M  V30 6212 H 574.394 0.671953 0.342045 0
M  V30 6213 H 577.045 1.82808 0.159164 0
M  V30 6214 H 575.427 3.10922 2.45242 0
M  V30 6215 H 576.601 4.60797 0.0177261 0
M  V30 6216 H 574.916 4.16035 0.174199 0
M  V30 6217 H 577.513 4.46715 2.93854 0
M  V30 6218 H 577.856 2.76359 3.11338 0
M  V30 6219 H 578.389 3.62108 1.6469 0
M  V30 6220 H 575.128 6.50316 0.82275 0
M  V30 6221 H 574.648 5.55928 2.25175 0
M  V30 6222 H 576.327 6.12747 2.07725 0
M  V30 6223 N 576.459 -0.456382 1.50847 0
M  V30 6224 C 577.406 -1.55249 1.70782 0
M  V30 6225 C 578.376 -1.56757 0.549231 0
M  V30 6226 O 579.561 -1.74061 0.7815 0
M  V30 6227 C 576.701 -2.93118 1.82143 0
M  V30 6228 C 575.814 -3.01285 3.09598 0
M  V30 6229 C 574.949 -4.30159 3.11667 0
M  V30 6230 C 573.988 -4.32124 4.33515 0
M  V30 6231 N 573.125 -5.52492 4.3324 0
M  V30 6232 H 577.965 -1.37555 2.64353 0
M  V30 6233 H 575.502 -0.668543 1.3103 0
M  V30 6234 H 577.46 -3.73088 1.86711 0
M  V30 6235 H 576.09 -3.09413 0.919978 0
M  V30 6236 H 575.142 -2.14096 3.14431 0
M  V30 6237 H 576.454 -2.98597 3.99551 0
M  V30 6238 H 575.608 -5.18489 3.15046 0
M  V30 6239 H 574.347 -4.35477 2.1957 0
M  V30 6240 H 573.352 -3.42189 4.30333 0
M  V30 6241 H 574.577 -4.28485 5.26856 0
M  V30 6242 H 572.523 -5.58567 3.44004 0
M  V30 6243 H 572.44 -5.51605 5.16979 0
M  V30 6244 H 573.708 -6.42906 4.40786 0
M  V30 6245 N 577.937 -1.40673 -0.710563 0
M  V30 6246 C 578.867 -1.44095 -1.83736 0
M  V30 6247 C 579.848 -0.301286 -1.67411 0
M  V30 6248 O 581.033 -0.510618 -1.87367 0
M  V30 6249 C 578.163 -1.30773 -3.21738 0
M  V30 6250 C 577.117 -2.42395 -3.52745 0
M  V30 6251 C 576.443 -2.14147 -4.89944 0
M  V30 6252 C 577.743 -3.84738 -3.53234 0
M  V30 6253 H 579.437 -2.38396 -1.81129 0
M  V30 6254 H 576.983 -1.14746 -0.870017 0
M  V30 6255 H 578.936 -1.31783 -4.00264 0
M  V30 6256 H 577.66 -0.329507 -3.24934 0
M  V30 6257 H 576.319 -2.40643 -2.76562 0
M  V30 6258 H 575.967 -1.14703 -4.89747 0
M  V30 6259 H 575.667 -2.88934 -5.11655 0
M  V30 6260 H 577.191 -2.16848 -5.70797 0
M  V30 6261 H 578.605 -3.88286 -4.2179 0
M  V30 6262 H 577.002 -4.59085 -3.86473 0
M  V30 6263 H 578.072 -4.13962 -2.52514 0
M  V30 6264 N 579.415 0.9433 -1.26252 0
M  V30 6265 C 580.643 1.72367 -1.14443 0
M  V30 6266 C 581.058 1.86392 0.300572 0
M  V30 6267 O 580.415 1.36978 1.20596 0
M  V30 6268 C 580.466 3.13155 -1.806 0
M  V30 6269 O 580.187 2.99803 -3.19452 0
M  V30 6270 C 581.688 4.07417 -1.74717 0
M  V30 6271 H 578.908 0.539758 -0.398626 0
M  V30 6272 H 581.452 1.18268 -1.66832 0
M  V30 6273 H 579.607 3.64162 -1.32154 0
M  V30 6274 H 580.021 3.88697 -3.52158 0
M  V30 6275 H 581.495 5.03773 -2.25647 0
M  V30 6276 H 581.972 4.3337 -0.713244 0
M  V30 6277 H 582.578 3.6233 -2.22704 0
M  V30 6278 N 580.893 1.08022 1.14757 0
M  V30 6279 C 582.17 0.720386 1.81851 0
M  V30 6280 C 582.55 -0.796375 1.95502 0
M  V30 6281 O 581.898 -1.71339 1.51179 0
M  V30 6282 C 582.108 1.44273 3.17783 0
M  V30 6283 C 583.456 1.59925 3.93331 0
M  V30 6284 O 584.48 1.40407 3.2736 0
M  V30 6285 O 583.339 1.92096 5.11626 0
M  V30 6286 H 580.433 0.257142 0.786007 0
M  V30 6287 H 582.979 1.18155 1.21809 0
M  V30 6288 H 581.751 2.47618 3.02987 0
M  V30 6289 H 581.374 0.97279 3.85516 0
M  V30 6290 N 582.371 -1.3172 0.865308 0
M  V30 6291 C 583.601 -2.00765 0.487543 0
M  V30 6292 C 584.009 -1.65145 -0.92325 0
M  V30 6293 O 583.352 -0.874294 -1.61561 0
M  V30 6294 C 583.414 -3.55122 0.559369 0
M  V30 6295 C 583.078 -4.14202 1.93095 0
M  V30 6296 C 584.075 -4.3165 2.89784 0
M  V30 6297 C 581.76 -4.50036 2.23099 0
M  V30 6298 C 583.754 -4.84114 4.14623 0
M  V30 6299 C 581.441 -5.02203 3.48189 0
M  V30 6300 C 582.439 -5.19192 4.43767 0
M  V30 6301 O 582.127 -5.70241 5.6664 0
M  V30 6302 H 581.859 -0.649066 0.188915 0
M  V30 6303 H 584.413 -1.69032 1.16694 0
M  V30 6304 H 582.643 -3.86295 -0.176926 0
M  V30 6305 H 584.332 -4.05428 0.195694 0
M  V30 6306 H 585.098 -4.04288 2.6791 0
M  V30 6307 H 580.977 -4.36091 1.49485 0
M  V30 6308 H 584.521 -4.9729 4.89233 0
M  V30 6309 H 580.418 -5.28997 3.69908 0
M  V30 6310 H 581.186 -5.88617 5.68746 0
M  V30 6311 N 583.85 -0.624285 -1.44708 0
M  V30 6312 C 585.098 -0.125802 -2.01708 0
M  V30 6313 C 585.418 1.2543 -1.49306 0
M  V30 6314 O 584.689 1.83198 -0.693924 0
M  V30 6315 H 583.269 -0.0435161 -0.745731 0
M  V30 6316 H 585.931 -0.809446 -1.77296 0
M  V30 6317 H 585.027 -0.0882734 -3.11975 0
M  V30 6318 N 585.328 1.53329 -0.364422 0
M  V30 6319 C 586.261 2.22052 0.526145 0
M  V30 6320 C 587.239 1.21203 1.08391 0
M  V30 6321 O 588.423 1.50101 1.14026 0
M  V30 6322 C 585.55 2.91432 1.72583 0
M  V30 6323 C 584.596 4.06345 1.29562 0
M  V30 6324 S 585.429 5.34671 0.297885 0
M  V30 6325 C 586.585 6.07563 1.50392 0
M  V30 6326 H 586.818 2.97244 -0.0575055 0
M  V30 6327 H 584.351 1.53684 -0.148525 0
M  V30 6328 H 586.309 3.3202 2.41398 0
M  V30 6329 H 584.97 2.15966 2.28073 0
M  V30 6330 H 584.163 4.53901 2.19067 0
M  V30 6331 H 583.765 3.67642 0.686696 0
M  V30 6332 H 586.057 6.32224 2.43513 0
M  V30 6333 H 587 6.99973 1.06977 0
M  V30 6334 H 587.408 5.37994 1.70945 0
M  V30 6335 N 586.806 0.0935595 1.57322 0
M  V30 6336 C 588.046 -0.573901 1.96178 0
M  V30 6337 C 588.41 -1.65445 0.97426 0
M  V30 6338 O 589.611 -2.37901 1.25126 0
M  V30 6339 C 587.882 -1.11612 3.39526 0
M  V30 6340 S 589.441 -1.79566 4.00377 0
M  V30 6341 H 586.259 -0.187315 0.685882 0
M  V30 6342 H 588.861 0.172597 1.94737 0
M  V30 6343 H 587.565 -0.31815 4.09165 0
M  V30 6344 H 587.096 -1.89848 3.4456 0
M  V30 6345 H 589.111 -3.07978 3.89056 0
M  V30 6346 N 588.284 -1.56567 -0.180126 0
M  V30 6347 C 589.231 -1.95725 -1.22313 0
M  V30 6348 C 590.201 -0.819911 -1.44453 0
M  V30 6349 O 591.386 -1.07931 -1.57339 0
M  V30 6350 C 588.526 -2.31484 -2.55947 0
M  V30 6351 C 587.639 -3.58354 -2.4126 0
M  V30 6352 C 586.774 -3.83366 -3.67701 0
M  V30 6353 C 585.813 -5.03612 -3.47909 0
M  V30 6354 N 584.95 -5.24802 -4.66398 0
M  V30 6355 H 589.79 -2.84642 -0.882198 0
M  V30 6356 H 587.327 -1.4085 -0.42422 0
M  V30 6357 H 589.285 -2.50237 -3.33822 0
M  V30 6358 H 587.915 -1.45689 -2.88053 0
M  V30 6359 H 586.967 -3.47565 -1.54606 0
M  V30 6360 H 588.279 -4.46386 -2.22577 0
M  V30 6361 H 587.433 -4.02439 -4.54013 0
M  V30 6362 H 586.172 -2.93692 -3.89353 0
M  V30 6363 H 585.177 -4.84447 -2.59983 0
M  V30 6364 H 586.402 -5.94809 -3.27688 0
M  V30 6365 H 584.348 -4.38079 -4.88286 0
M  V30 6366 H 584.265 -6.07041 -4.50596 0
M  V30 6367 H 585.533 -5.48346 -5.54019 0
M  V30 6368 N 589.762 0.448376 -1.51087 0
M  V30 6369 C 590.672 1.56882 -1.74428 0
M  V30 6370 C 591.688 1.62268 -0.62809 0
M  V30 6371 O 592.864 1.79716 -0.909075 0
M  V30 6372 C 589.929 2.92947 -1.85426 0
M  V30 6373 C 588.99 2.97766 -3.09247 0
M  V30 6374 C 588.223 4.27341 -3.19711 0
M  V30 6375 O 588.446 5.19112 -2.36387 0
M  V30 6376 O 587.38 4.38219 -4.12611 0
M  V30 6377 H 591.206 1.40104 -2.69452 0
M  V30 6378 H 588.791 0.630247 -1.35456 0
M  V30 6379 H 590.673 3.73719 -1.94709 0
M  V30 6380 H 589.348 3.09876 -0.935887 0
M  V30 6381 H 588.255 2.15989 -3.0545 0
M  V30 6382 H 589.588 2.8578 -4.00738 0
M  V30 6383 N 591.24 1.41047 0.703093 0
M  V30 6384 C 592.488 1.39723 1.4602 0
M  V30 6385 C 592.809 0.00461257 1.94999 0
M  V30 6386 O 592.079 -0.952292 1.71196 0
M  V30 6387 H 590.659 0.514281 0.541779 0
M  V30 6388 H 593.321 1.76217 0.832678 0
M  V30 6389 H 592.417 2.07982 2.32701 0
M  V30 6390 N 592.718 -0.936591 1.26751 0
M  V30 6391 C 593.648 -2.05315 1.11212 0
M  V30 6392 C 594.629 -1.70092 0.0160262 0
M  V30 6393 O 595.814 -1.93279 0.188894 0
M  V30 6394 C 592.944 -3.39123 0.749171 0
M  V30 6395 C 591.898 -3.88425 1.79751 0
M  V30 6396 C 591.224 -5.18936 1.28876 0
M  V30 6397 C 592.524 -4.12798 3.19992 0
M  V30 6398 H 594.218 -2.18573 2.04613 0
M  V30 6399 H 591.764 -1.05027 0.985159 0
M  V30 6400 H 593.717 -4.16704 0.627323 0
M  V30 6401 H 592.441 -3.25855 -0.220543 0
M  V30 6402 H 591.1 -3.13028 1.90811 0
M  V30 6403 H 590.748 -5.02051 0.308757 0
M  V30 6404 H 590.448 -5.52892 1.98958 0
M  V30 6405 H 591.972 -5.99096 1.17967 0
M  V30 6406 H 593.386 -4.80977 3.11983 0
M  V30 6407 H 591.783 -4.58044 3.87705 0
M  V30 6408 H 592.853 -3.18412 3.65707 0
M  V30 6409 N 594.196 -1.08629 -1.14182 0
M  V30 6410 C 595.444 -0.815731 -1.84906 0
M  V30 6411 C 595.765 0.660441 -1.83475 0
M  V30 6412 O 595.035 1.47888 -1.28476 0
M  V30 6413 H 593.615 -0.298773 -0.684648 0
M  V30 6414 H 596.277 -1.37274 -1.38354 0
M  V30 6415 H 595.373 -1.16193 -2.89665 0
M  V30 6416 N 595.674 1.31259 -0.872281 0
M  V30 6417 C 597.085 1.78822 -0.536617 0
M  V30 6418 C 597.436 1.71855 0.946594 0
M  V30 6419 O 596.561 1.28769 1.73918 0
M  V30 6420 C 597.156 3.24698 -0.967294 0
M  V30 6421 C 595.715 3.70147 -0.683251 0
M  V30 6422 C 594.862 2.51994 -1.15733 0
M  V30 6423 H 597.813 1.18308 -1.05777 0
M  V30 6424 H 597.834 3.79386 -0.290929 0
M  V30 6425 H 597.346 3.29737 -2.04683 0
M  V30 6426 H 595.447 3.70607 0.384825 0
M  V30 6427 H 595.56 4.62183 -1.2619 0
M  V30 6428 H 593.924 2.48078 -0.577024 0
M  V30 6429 H 594.707 2.59778 -2.24434 0
M  V30 6430 N 597.152 0.631951 1.44375 0
M  V30 6431 C 598.4 0.136497 2.01639 0
M  V30 6432 C 598.721 -1.24637 1.49969 0
M  V30 6433 O 597.991 -1.82827 0.70363 0
M  V30 6434 H 596.571 0.0474703 0.74549 0
M  V30 6435 H 599.233 0.818837 1.76865 0
M  V30 6436 H 598.329 0.104817 3.11924 0
M  V30 6437 N 598.631 -1.53133 0.372548 0
M  V30 6438 C 599.908 -1.93704 -0.271693 0
M  V30 6439 C 600.288 -1.30667 -1.65799 0
M  V30 6440 O 599.636 -0.46838 -2.23648 0
M  V30 6441 C 599.846 -3.47576 -0.314903 0
M  V30 6442 C 601.194 -4.20998 -0.551912 0
M  V30 6443 O 602.218 -3.53994 -0.39582 0
M  V30 6444 O 601.077 -5.39748 -0.85639 0
M  V30 6445 H 598.171 -0.810457 -0.164586 0
M  V30 6446 H 600.717 -1.6427 0.425838 0
M  V30 6447 H 599.489 -3.85749 0.656792 0
M  V30 6448 H 599.112 -3.83264 -1.05804 0
M  V30 6449 N 600.109 -0.101901 -1.5727 0
M  V30 6450 C 601.337 0.568392 -1.98939 0
M  V30 6451 C 601.752 1.61301 -0.981194 0
M  V30 6452 O 601.109 1.82478 0.0282869 0
M  V30 6453 C 601.16 1.20997 -3.40649 0
M  V30 6454 O 600.881 0.207129 -4.3761 0
M  V30 6455 C 602.382 1.96523 -3.97358 0
M  V30 6456 H 599.602 0.15186 -0.65359 0
M  V30 6457 H 602.146 -0.183198 -2.03678 0
M  V30 6458 H 600.301 1.91245 -3.36904 0
M  V30 6459 H 600.715 0.671071 -5.20189 0
M  V30 6460 H 602.189 2.36764 -4.98645 0
M  V30 6461 H 602.666 2.83376 -3.35552 0
M  V30 6462 H 603.272 1.31076 -4.04598 0
M  V30 6463 N 601.587 1.56661 0.17182 0
M  V30 6464 C 602.815 1.861 0.904115 0
M  V30 6465 C 603.23 0.687227 1.75848 0
M  V30 6466 O 602.587 -0.343671 1.79235 0
M  V30 6467 C 602.638 3.14568 1.78127 0
M  V30 6468 O 602.359 4.27422 0.961366 0
M  V30 6469 C 603.86 3.5735 2.62327 0
M  V30 6470 H 601.08 0.617445 0.262684 0
M  V30 6471 H 603.624 2.03775 0.172068 0
M  V30 6472 H 601.779 2.98721 2.46666 0
M  V30 6473 H 602.193 5.00725 1.56123 0
M  V30 6474 H 603.667 4.50144 3.1949 0
M  V30 6475 H 604.144 2.81445 3.37173 0
M  V30 6476 H 604.75 3.75807 1.99121 0
M  V30 6477 N 603.065 -0.440357 1.51323 0
M  V30 6478 C 604.29 -1.21716 1.67928 0
M  V30 6479 C 604.715 -1.84328 0.374826 0
M  V30 6480 O 604.073 -1.68675 -0.664706 0
M  V30 6481 C 604.121 -2.27914 2.79442 0
M  V30 6482 O 603.225 -3.33325 2.42834 0
M  V30 6483 H 602.566 -0.35674 0.560029 0
M  V30 6484 H 605.096 -0.520417 1.97871 0
M  V30 6485 H 605.106 -2.72746 3.03436 0
M  V30 6486 H 603.781 -1.8172 3.741 0
M  V30 6487 H 602.358 -2.9399 2.294 0
M  V30 6488 N 604.543 -1.41418 -0.695603 0
M  V30 6489 C 605.771 -1.4413 -1.48439 0
M  V30 6490 C 606.186 -0.0465698 -1.88743 0
M  V30 6491 O 605.543 0.934117 -1.56782 0
M  V30 6492 C 605.594 -2.34998 -2.74696 0
M  V30 6493 O 605.315 -3.69043 -2.36091 0
M  V30 6494 C 606.816 -2.46513 -3.68438 0
M  V30 6495 H 604.036 -0.490905 -0.457442 0
M  V30 6496 H 606.58 -1.85702 -0.856454 0
M  V30 6497 H 604.735 -1.96735 -3.33728 0
M  V30 6498 H 605.149 -4.17505 -3.17474 0
M  V30 6499 H 606.623 -3.1426 -4.53811 0
M  V30 6500 H 607.1 -1.49638 -4.12922 0
M  V30 6501 H 607.706 -2.85412 -3.1531 0
M  V30 6502 N 606.021 0.929856 -1.27246 0
M  V30 6503 C 607.268 1.67731 -1.13457 0
M  V30 6504 C 607.596 1.9185 0.319998 0
M  V30 6505 O 606.851 1.50524 1.25064 0
M  V30 6506 C 607.15 3.05116 -1.86115 0
M  V30 6507 C 606.816 3.00715 -3.35978 0
M  V30 6508 C 605.478 2.99222 -3.76855 0
M  V30 6509 C 607.83 2.92168 -4.3161 0
M  V30 6510 C 605.158 2.86962 -5.11732 0
M  V30 6511 C 607.51 2.81449 -5.66542 0
M  V30 6512 C 606.174 2.78305 -6.06715 0
M  V30 6513 H 605.444 0.613772 -0.415168 0
M  V30 6514 H 608.091 1.08456 -1.57827 0
M  V30 6515 H 606.396 3.68083 -1.34246 0
M  V30 6516 H 608.093 3.61822 -1.72876 0
M  V30 6517 H 604.683 3.02664 -3.03468 0
M  V30 6518 H 608.867 2.92421 -4.01003 0
M  V30 6519 H 604.123 2.82913 -5.42006 0
M  V30 6520 H 608.297 2.738 -6.40317 0
M  V30 6521 H 605.924 2.68561 -7.11181 0
M  V30 6522 N 607.499 1.09233 1.13605 0
M  V30 6523 C 608.739 0.836786 1.86487 0
M  V30 6524 C 609.103 -0.626191 1.81502 0
M  V30 6525 O 610.304 -0.99758 2.49603 0
M  V30 6526 C 608.575 1.35476 3.30728 0
M  V30 6527 S 610.134 1.2328 4.21126 0
M  V30 6528 H 606.952 0.302702 0.643345 0
M  V30 6529 H 609.554 1.3953 1.36936 0
M  V30 6530 H 608.258 2.41381 3.31909 0
M  V30 6531 H 607.789 0.792286 3.85339 0
M  V30 6532 H 609.804 0.182468 4.95864 0
M  V30 6533 N 608.977 -1.30795 0.87923 0
M  V30 6534 C 610.225 -1.95974 0.493809 0
M  V30 6535 C 610.546 -1.69787 -0.959021 0
M  V30 6536 O 609.816 -1.01832 -1.67353 0
M  V30 6537 H 608.396 -0.725083 0.179622 0
M  V30 6538 H 611.058 -1.59432 1.12105 0
M  V30 6539 H 610.154 -3.05058 0.659263 0
M  V30 6540 N 610.455 -0.639598 -1.44038 0
M  V30 6541 C 611.683 -0.154811 -2.0632 0
M  V30 6542 C 612.098 1.17406 -1.47856 0
M  V30 6543 O 611.455 1.72193 -0.604638 0
M  V30 6544 C 611.506 -0.0429958 -3.61474 0
M  V30 6545 O 611.227 -1.31932 -4.17763 0
M  V30 6546 C 612.728 0.469486 -4.40807 0
M  V30 6547 H 609.948 -0.0835862 -0.665773 0
M  V30 6548 H 612.492 -0.876397 -1.84769 0
M  V30 6549 H 610.647 0.629075 -3.82258 0
M  V30 6550 H 611.061 -1.16965 -5.11292 0
M  V30 6551 H 612.535 0.496712 -5.49761 0
M  V30 6552 H 613.012 1.49819 -4.12857 0
M  V30 6553 H 613.618 -0.169624 -4.24962 0
M  V30 6554 N 611.933 1.52934 -0.380664 0
M  V30 6555 C 613.344 1.86457 0.0952684 0
M  V30 6556 C 613.695 1.3007 1.46889 0
M  V30 6557 O 612.82 0.628636 2.07068 0
M  V30 6558 C 613.415 3.38323 0.179648 0
M  V30 6559 C 611.974 3.71589 0.599858 0
M  V30 6560 C 611.121 2.76228 -0.243572 0
M  V30 6561 H 614.072 1.46966 -0.59888 0
M  V30 6562 H 614.093 3.67113 1.00042 0
M  V30 6563 H 613.605 3.79333 -0.820228 0
M  V30 6564 H 611.706 3.36144 1.60742 0
M  V30 6565 H 611.819 4.77715 0.364003 0
M  V30 6566 H 610.183 2.53045 0.289855 0
M  V30 6567 H 610.966 3.20074 -1.24127 0
M  V30 6568 N 613.412 0.11024 1.57214 0
M  V30 6569 C 614.36 -0.860586 2.16094 0
M  V30 6570 C 615.354 -1.28156 1.1078 0
M  V30 6571 O 616.56 -1.25433 1.29099 0
M  V30 6572 H 612.935 -0.295606 0.691463 0
M  V30 6573 H 614.906 -0.33942 2.96463 0
M  V30 6574 C 613.655 -2.10421 2.768 0
M  V30 6575 H 612.978 -1.7892 3.5753 0
M  V30 6576 H 614.418 -2.76375 3.21547 0
M  V30 6577 C 612.877 -2.88823 1.73444 0
M  V30 6578 O 613.407 -3.839 1.18251 0
M  V30 6579 N 611.613 -2.52649 1.43586 0
M  V30 6580 H 611.16 -1.754 1.8866 0
M  V30 6581 H 611.118 -3.05403 0.746735 0
M  V30 6582 N 614.89 -1.56749 -0.16351 0
M  V30 6583 C 616.12 -1.86307 -0.892936 0
M  V30 6584 C 616.528 -0.6945 -1.75992 0
M  V30 6585 O 615.871 0.345384 -1.80424 0
M  V30 6586 C 615.933 -3.10372 -1.81409 0
M  V30 6587 C 615.597 -4.42913 -1.12593 0
M  V30 6588 C 616.594 -5.17608 -0.487661 0
M  V30 6589 C 614.279 -4.89646 -1.12035 0
M  V30 6590 C 616.273 -6.3723 0.14699 0
M  V30 6591 C 613.96 -6.09197 -0.481883 0
M  V30 6592 C 614.958 -6.82834 0.150678 0
M  V30 6593 O 614.646 -8.00116 0.779065 0
M  V30 6594 H 614.378 -0.622126 -0.264452 0
M  V30 6595 H 616.932 -2.04728 -0.166063 0
M  V30 6596 H 615.162 -2.87917 -2.58148 0
M  V30 6597 H 616.851 -3.26312 -2.41403 0
M  V30 6598 H 617.617 -4.8258 -0.483888 0
M  V30 6599 H 613.496 -4.32265 -1.60212 0
M  V30 6600 H 617.04 -6.94646 0.641325 0
M  V30 6601 H 612.937 -6.43688 -0.483266 0
M  V30 6602 H 613.705 -8.15678 0.679089 0
M  V30 6603 N 616.368 0.432326 -1.51554 0
M  V30 6604 C 617.617 1.17831 -1.63703 0
M  V30 6605 C 617.93 1.92229 -0.36156 0
M  V30 6606 O 619.136 2.69069 -0.362495 0
M  V30 6607 C 617.592 2.14318 -2.89129 0
M  V30 6608 C 617.2 1.45544 -4.23699 0
M  V30 6609 C 618.944 2.89319 -3.10636 0
M  V30 6610 C 616.851 2.40545 -5.4027 0
M  V30 6611 H 615.781 0.443533 -0.60975 0
M  V30 6612 H 618.432 0.444878 -1.78026 0
M  V30 6613 H 616.814 2.91117 -2.68452 0
M  V30 6614 H 617.988 0.742693 -4.54775 0
M  V30 6615 H 616.303 0.826772 -4.0811 0
M  V30 6616 H 618.9 3.60495 -3.94902 0
M  V30 6617 H 619.243 3.50951 -2.23918 0
M  V30 6618 H 619.776 2.19625 -3.31677 0
M  V30 6619 H 616.515 1.83594 -6.29264 0
M  V30 6620 H 616.035 3.09859 -5.13563 0
M  V30 6621 H 617.714 3.01569 -5.72421 0
M  V30 6622 N 617.846 1.41785 0.688094 0
M  V30 6623 C 618.809 1.43936 1.78368 0
M  V30 6624 C 619.809 0.328866 1.57401 0
M  V30 6625 O 620.999 0.589093 1.63937 0
M  V30 6626 C 618.131 1.25804 3.16838 0
M  V30 6627 H 619.324 2.41472 1.77852 0
M  V30 6628 H 616.877 1.28037 0.896448 0
M  V30 6629 H 617.612 0.291386 3.22988 0
M  V30 6630 H 617.397 2.06272 3.33458 0
M  V30 6631 H 618.887 1.30162 3.96797 0
M  V30 6632 N 619.324 -0.923095 1.27737 0
M  V30 6633 C 620.735 -1.48626 1.12993 0
M  V30 6634 C 621.086 -1.94142 -0.283439 0
M  V30 6635 O 620.211 -1.81605 -1.17681 0
M  V30 6636 C 620.806 -2.70117 2.04505 0
M  V30 6637 C 619.365 -3.22642 1.93853 0
M  V30 6638 C 618.512 -1.95368 1.96791 0
M  V30 6639 H 621.463 -0.736737 1.40563 0
M  V30 6640 H 621.484 -3.4506 1.60356 0
M  V30 6641 H 620.996 -2.36959 3.07363 0
M  V30 6642 H 619.097 -3.60549 0.939968 0
M  V30 6643 H 619.21 -3.88525 2.80331 0
M  V30 6644 H 617.574 -2.12061 1.41076 0
M  V30 6645 H 618.357 -1.64517 3.01312 0
M  V30 6646 N 620.802 -1.09834 -1.13024 0
M  V30 6647 C 621.712 -0.753731 -2.22162 0
M  V30 6648 C 622.728 0.246105 -1.72251 0
M  V30 6649 O 623.904 0.0864051 -2.01215 0
M  V30 6650 C 620.969 -0.183958 -3.46212 0
M  V30 6651 C 620.03 -1.24028 -4.10993 0
M  V30 6652 C 619.263 -0.697597 -5.29121 0
M  V30 6653 O 619.486 0.478092 -5.68393 0
M  V30 6654 O 618.42 -1.4546 -5.84059 0
M  V30 6655 H 622.246 -1.66456 -2.5402 0
M  V30 6656 H 619.831 -0.873026 -1.21238 0
M  V30 6657 H 621.713 0.130257 -4.21199 0
M  V30 6658 H 620.388 0.699823 -3.16045 0
M  V30 6659 H 619.295 -1.60725 -3.37814 0
M  V30 6660 H 620.628 -2.09685 -4.45301 0
M  V30 6661 N 622.28 1.30327 -0.886154 0
M  V30 6662 C 623.529 1.95373 -0.501243 0
M  V30 6663 C 623.842 1.70722 0.954634 0
M  V30 6664 O 625.048 2.29761 1.44644 0
M  V30 6665 C 623.504 3.49828 -0.845493 0
M  V30 6666 C 623.112 3.83296 -2.31922 0
M  V30 6667 C 624.856 4.2118 -0.529838 0
M  V30 6668 C 622.763 5.30935 -2.60504 0
M  V30 6669 H 621.693 0.731274 -0.183722 0
M  V30 6670 H 624.344 1.48258 -1.08129 0
M  V30 6671 H 622.726 3.95522 -0.19452 0
M  V30 6672 H 623.9 3.48508 -3.01461 0
M  V30 6673 H 622.215 3.2505 -2.60253 0
M  V30 6674 H 624.812 5.29825 -0.720401 0
M  V30 6675 H 625.155 4.12902 0.530828 0
M  V30 6676 H 625.688 3.81173 -1.13806 0
M  V30 6677 H 622.427 5.44265 -3.65316 0
M  V30 6678 H 621.947 5.67019 -1.95575 0
M  V30 6679 H 623.626 5.98381 -2.46066 0
M  V30 6680 N 623.758 0.647228 1.43697 0
M  V30 6681 C 624.688 -0.0345631 2.33474 0
M  V30 6682 C 625.669 -0.818193 1.4913 0
M  V30 6683 O 626.854 -0.780867 1.77809 0
M  V30 6684 C 623.984 -1.00576 3.32418 0
M  V30 6685 C 622.938 -0.33266 4.26705 0
M  V30 6686 C 622.264 -1.41489 5.1564 0
M  V30 6687 C 623.564 0.771204 5.16575 0
M  V30 6688 H 625.258 0.715163 2.90733 0
M  V30 6689 H 622.804 0.345364 1.39797 0
M  V30 6690 H 624.757 -1.49159 3.94119 0
M  V30 6691 H 623.481 -1.78657 2.73403 0
M  V30 6692 H 622.14 0.13267 3.6636 0
M  V30 6693 H 621.788 -2.18698 4.52968 0
M  V30 6694 H 621.488 -0.969799 5.79542 0
M  V30 6695 H 623.012 -1.9022 5.80214 0
M  V30 6696 H 624.426 0.36779 5.72119 0
M  V30 6697 H 622.823 1.1404 5.89165 0
M  V30 6698 H 623.893 1.63169 4.56622 0
M  V30 6699 N 625.236 -1.5273 0.388769 0
M  V30 6700 C 626.652 -1.59553 0.0387049 0
M  V30 6701 C 626.852 -1.40278 -1.44652 0
M  V30 6702 O 625.908 -1.21951 -2.21098 0
M  V30 6703 C 627.221 -2.9625 0.515409 0
M  V30 6704 C 628.769 -3.09426 0.471621 0
M  V30 6705 C 629.244 -4.48572 0.924505 0
M  V30 6706 N 630.735 -4.54754 0.880496 0
M  V30 6707 C 631.47 -5.60653 1.20234 0
M  V30 6708 N 630.966 -6.74198 1.59463 0
M  V30 6709 N 632.759 -5.50755 1.12363 0
M  V30 6710 H 624.91 -1.63508 1.35569 0
M  V30 6711 H 627.173 -0.768097 0.555636 0
M  V30 6712 H 626.879 -3.15569 1.5527 0
M  V30 6713 H 626.753 -3.77102 -0.085792 0
M  V30 6714 H 629.14 -2.89804 -0.556588 0
M  V30 6715 H 629.221 -2.30528 1.10862 0
M  V30 6716 H 628.865 -4.68936 1.95094 0
M  V30 6717 H 628.795 -5.25935 0.264524 0
M  V30 6718 H 631.286 -3.73237 0.591815 0
M  V30 6719 H 631.599 -7.5097 1.82385 0
M  V30 6720 H 629.944 -6.75531 1.63349 0
M  V30 6721 H 633.135 -4.6093 0.816169 0
M  V30 6722 H 633.308 -6.33184 1.37777 0
M  V30 6723 N 626.714 -0.118576 -1.57153 0
M  V30 6724 C 627.962 0.538461 -1.94795 0
M  V30 6725 C 628.283 1.67243 -1.00274 0
M  V30 6726 O 627.553 1.95811 -0.0589692 0
M  V30 6727 H 626.133 0.201904 -0.719197 0
M  V30 6728 H 628.795 -0.187418 -1.93997 0
M  V30 6729 H 627.891 0.933315 -2.97818 0
M  V30 6730 N 628.193 1.56834 0.155195 0
M  V30 6731 C 629.103 2.009 1.21146 0
M  V30 6732 C 630.119 0.923029 1.475 0
M  V30 6733 O 631.295 1.23189 1.59331 0
M  V30 6734 C 628.36 2.37378 2.52691 0
M  V30 6735 C 627.421 3.59883 2.34057 0
M  V30 6736 C 626.654 3.94612 3.59329 0
M  V30 6737 O 626.877 3.30104 4.65175 0
M  V30 6738 O 625.811 4.87895 3.52479 0
M  V30 6739 H 629.637 2.9105 0.867371 0
M  V30 6740 H 627.222 1.44916 0.363298 0
M  V30 6741 H 629.104 2.61737 3.3026 0
M  V30 6742 H 627.779 1.50385 2.86646 0
M  V30 6743 H 626.686 3.40722 1.54465 0
M  V30 6744 H 628.019 4.47468 2.0502 0
M  V30 6745 N 629.671 -0.424282 1.51781 0
M  V30 6746 C 630.581 -1.54087 1.76902 0
M  V30 6747 C 631.597 -1.61249 0.653826 0
M  V30 6748 O 632.773 -1.78247 0.937552 0
M  V30 6749 C 629.838 -2.8996 1.90063 0
M  V30 6750 C 628.899 -2.92809 3.13945 0
M  V30 6751 C 628.132 -4.22201 3.26469 0
M  V30 6752 O 628.355 -5.15286 2.44616 0
M  V30 6753 O 627.289 -4.31599 4.1953 0
M  V30 6754 H 631.115 -1.358 2.71647 0
M  V30 6755 H 628.7 -0.608618 1.36441 0
M  V30 6756 H 630.582 -3.70575 2.0063 0
M  V30 6757 H 629.257 -3.08347 0.985067 0
M  V30 6758 H 628.164 -2.11102 3.08847 0
M  V30 6759 H 629.497 -2.79369 4.05233 0
M  V30 6760 N 631.149 -1.42148 -0.680565 0
M  V30 6761 C 632.379 -1.45485 -1.46689 0
M  V30 6762 C 632.787 -0.0629451 -1.89095 0
M  V30 6763 O 632.13 0.931397 -1.58337 0
M  V30 6764 C 632.192 -2.31397 -2.75129 0
M  V30 6765 C 631.856 -3.79353 -2.54834 0
M  V30 6766 C 632.853 -4.71148 -2.19808 0
M  V30 6767 C 630.538 -4.23557 -2.70008 0
M  V30 6768 C 632.532 -6.05139 -2.00215 0
M  V30 6769 C 630.219 -5.57609 -2.50031 0
M  V30 6770 C 631.217 -6.48216 -2.15187 0
M  V30 6771 O 630.905 -7.79792 -1.95397 0
M  V30 6772 H 630.637 -0.497139 -0.458071 0
M  V30 6773 H 633.191 -1.87252 -0.844139 0
M  V30 6774 H 631.421 -1.84468 -3.39865 0
M  V30 6775 H 633.11 -2.26257 -3.36991 0
M  V30 6776 H 633.876 -4.38282 -2.07686 0
M  V30 6777 H 629.755 -3.53327 -2.96109 0
M  V30 6778 H 633.299 -6.75823 -1.72941 0
M  V30 6779 H 629.196 -5.9005 -2.61748 0
M  V30 6780 H 629.964 -7.91091 -2.10042 0
M  V30 6781 N 632.627 0.916307 -1.28225 0
M  V30 6782 C 633.875 1.6619 -1.15002 0
M  V30 6783 C 634.196 1.92642 0.302329 0
M  V30 6784 O 633.466 1.54076 1.20985 0
M  V30 6785 H 632.046 0.615964 -0.422608 0
M  V30 6786 H 634.708 1.09963 -1.60917 0
M  V30 6787 H 633.804 2.62533 -1.68769 0
M  V30 6788 N 634.105 1.10431 1.1244 0
M  V30 6789 C 635.352 0.846717 1.83948 0
M  V30 6790 C 635.68 -0.627709 1.84093 0
M  V30 6791 O 634.935 -1.47876 1.28184 0
M  V30 6792 C 635.234 1.34022 3.3132 0
M  V30 6793 C 634.9 2.82606 3.51347 0
M  V30 6794 C 633.562 3.23182 3.56521 0
M  V30 6795 C 635.914 3.78356 3.58464 0
M  V30 6796 C 633.242 4.58258 3.66356 0
M  V30 6797 C 635.594 5.13234 3.69829 0
M  V30 6798 C 634.258 5.53384 3.73259 0
M  V30 6799 H 633.528 0.309836 0.673114 0
M  V30 6800 H 636.175 1.38091 1.32677 0
M  V30 6801 H 634.48 0.726047 3.85014 0
M  V30 6802 H 636.177 1.11739 3.85118 0
M  V30 6803 H 632.767 2.50212 3.47983 0
M  V30 6804 H 636.951 3.48115 3.53737 0
M  V30 6805 H 632.207 4.88787 3.67284 0
M  V30 6806 H 636.381 5.87272 3.74279 0
M  V30 6807 H 634.008 6.58045 3.80633 0
M  V30 6808 N 635.583 -1.29855 0.893053 0
M  V30 6809 C 636.808 -2.00512 0.530066 0
M  V30 6810 C 637.233 -1.66446 -0.876199 0
M  V30 6811 O 636.591 -0.885446 -1.58207 0
M  V30 6812 C 636.639 -3.53308 0.721505 0
M  V30 6813 O 635.743 -4.11764 -0.228994 0
M  V30 6814 H 635.084 -0.630617 0.207891 0
M  V30 6815 H 637.614 -1.6551 1.20282 0
M  V30 6816 H 637.624 -4.03206 0.623599 0
M  V30 6817 H 636.299 -3.77439 1.74678 0
M  V30 6818 H 634.876 -3.72805 -0.0841034 0
M  V30 6819 N 637.061 -0.65484 -1.43351 0
M  V30 6820 C 638.307 -0.169142 -2.02093 0
M  V30 6821 C 638.64 1.21431 -1.51553 0
M  V30 6822 O 637.915 1.81105 -0.709317 0
M  V30 6823 C 638.198 -0.181775 -3.59641 0
M  V30 6824 C 638.051 -1.59926 -4.20409 0
M  V30 6825 C 639.37 0.480945 -4.37464 0
M  V30 6826 H 636.489 -0.0629371 -0.734308 0
M  V30 6827 H 639.131 -0.835833 -1.70628 0
M  V30 6828 H 637.281 0.385918 -3.86578 0
M  V30 6829 H 638.953 -2.21766 -4.04497 0
M  V30 6830 H 637.196 -2.14605 -3.76998 0
M  V30 6831 H 637.867 -1.55994 -5.295 0
M  V30 6832 H 640.343 -0.00208273 -4.161 0
M  V30 6833 H 639.219 0.441384 -5.47122 0
M  V30 6834 H 639.48 1.55533 -4.13838 0
M  V30 6835 N 638.539 1.52521 -0.396863 0
M  V30 6836 C 639.816 1.94112 0.240842 0
M  V30 6837 C 640.196 1.33288 1.637 0
M  V30 6838 O 639.544 0.503901 2.22875 0
M  V30 6839 C 639.754 3.48033 0.259567 0
M  V30 6840 C 641.102 4.21822 0.484866 0
M  V30 6841 O 642.126 3.54579 0.339453 0
M  V30 6842 O 640.985 5.41042 0.770412 0
M  V30 6843 H 638.079 0.812973 0.151671 0
M  V30 6844 H 640.625 1.63572 -0.451918 0
M  V30 6845 H 639.397 3.84655 -0.718078 0
M  V30 6846 H 639.02 3.84899 0.996937 0
M  V30 6847 N 640.017 0.126909 1.57088 0
M  V30 6848 C 641.263 -0.523662 1.96543 0
M  V30 6849 C 641.618 -1.63783 1.0096 0
M  V30 6850 O 640.911 -1.91556 0.0410175 0
M  V30 6851 C 641.105 -1.095 3.40212 0
M  V30 6852 C 640.934 -0.037715 4.49684 0
M  V30 6853 C 639.704 0.396823 5.03739 0
M  V30 6854 C 641.902 0.746245 5.08857 0
M  V30 6855 N 639.884 1.43905 5.96795 0
M  V30 6856 C 641.255 1.63947 5.97931 0
M  V30 6857 C 643.31 0.796259 4.91492 0
M  V30 6858 C 642.013 2.57837 6.715 0
M  V30 6859 C 644.039 1.7229 5.65747 0
M  V30 6860 C 643.401 2.60369 6.54513 0
M  V30 6861 H 639.5 -0.161016 0.765244 0
M  V30 6862 H 642.084 0.21686 1.93489 0
M  V30 6863 H 640.255 -1.80521 3.43899 0
M  V30 6864 H 641.987 -1.71054 3.66773 0
M  V30 6865 H 638.742 0.00290406 4.736 0
M  V30 6866 H 639.166 1.95932 6.48027 0
M  V30 6867 H 643.808 0.129412 4.22602 0
M  V30 6868 H 641.526 3.25532 7.39631 0
M  V30 6869 H 645.112 1.76715 5.54313 0
M  V30 6870 H 643.992 3.30906 7.10965 0
M  V30 6871 N 641.495 -1.56914 -0.146875 0
M  V30 6872 C 642.741 -1.84515 -0.855914 0
M  V30 6873 C 643.096 -0.710909 -1.78784 0
M  V30 6874 O 642.389 0.291123 -1.89375 0
M  V30 6875 C 642.583 -3.16128 -1.66727 0
M  V30 6876 C 642.412 -4.42246 -0.815405 0
M  V30 6877 C 641.182 -5.03006 -0.480976 0
M  V30 6878 C 643.38 -5.14094 -0.145684 0
M  V30 6879 N 641.362 -6.12695 0.384476 0
M  V30 6880 C 642.733 -6.17282 0.579902 0
M  V30 6881 C 644.788 -4.97856 -0.0663705 0
M  V30 6882 C 643.491 -7.0599 1.37731 0
M  V30 6883 C 645.517 -5.87028 0.71778 0
M  V30 6884 C 644.879 -6.89698 1.43165 0
M  V30 6885 H 640.978 -0.725829 -0.291026 0
M  V30 6886 H 643.562 -1.94322 -0.121279 0
M  V30 6887 H 641.733 -3.07468 -2.37315 0
M  V30 6888 H 643.465 -3.31635 -2.31949 0
M  V30 6889 H 640.22 -4.66504 -0.816789 0
M  V30 6890 H 640.644 -6.72158 0.80823 0
M  V30 6891 H 645.286 -4.18465 -0.603929 0
M  V30 6892 H 643.004 -7.84809 1.92613 0
M  V30 6893 H 646.59 -5.76532 0.781141 0
M  V30 6894 H 645.47 -7.57505 2.02868 0
M  V30 6895 N 642.974 0.416227 -1.52004 0
M  V30 6896 C 643.937 1.48926 -1.74223 0
M  V30 6897 C 644.937 1.48693 -0.612119 0
M  V30 6898 O 646.127 1.50343 -0.879921 0
M  V30 6899 C 643.259 2.88372 -1.81809 0
M  V30 6900 H 644.452 1.3052 -2.70008 0
M  V30 6901 H 642.005 0.646271 -1.42313 0
M  V30 6902 H 642.74 3.12157 -0.879135 0
M  V30 6903 H 642.525 2.89944 -2.6396 0
M  V30 6904 H 644.015 3.66173 -2.00766 0
M  V30 6905 N 644.452 1.42507 0.673017 0
M  V30 6906 C 645.382 1.48916 1.79851 0
M  V30 6907 C 646.363 0.345566 1.66553 0
M  V30 6908 O 647.548 0.560116 1.85947 0
M  V30 6909 C 644.678 1.39258 3.18158 0
M  V30 6910 C 643.632 2.51662 3.46194 0
M  V30 6911 C 642.958 2.27062 4.84094 0
M  V30 6912 C 644.258 3.93968 3.42909 0
M  V30 6913 H 645.952 2.43114 1.74745 0
M  V30 6914 H 643.498 1.17013 0.839288 0
M  V30 6915 H 645.451 1.42349 3.96629 0
M  V30 6916 H 644.175 0.415542 3.23946 0
M  V30 6917 H 642.834 2.47891 2.70084 0
M  V30 6918 H 642.482 1.27648 4.86534 0
M  V30 6919 H 642.182 3.02398 5.03815 0
M  V30 6920 H 643.706 2.31905 5.64847 0
M  V30 6921 H 645.12 3.99332 4.11347 0
M  V30 6922 H 643.517 4.6917 3.74165 0
M  V30 6923 H 644.587 4.20512 2.41449 0
M  V30 6924 N 645.93 -0.909495 1.28709 0
M  V30 6925 C 647.178 -1.65577 1.15882 0
M  V30 6926 C 647.499 -1.928 -0.292108 0
M  V30 6927 O 646.769 -1.54716 -1.20166 0
M  V30 6928 H 645.349 -0.613714 0.425869 0
M  V30 6929 H 648.011 -1.09108 1.61498 0
M  V30 6930 H 647.107 -2.61634 1.70159 0
M  V30 6931 N 647.408 -1.11026 -1.11852 0
M  V30 6932 C 648.654 -0.857729 -1.83768 0
M  V30 6933 C 648.987 0.615143 -1.842 0
M  V30 6934 O 648.262 1.45391 -1.29196 0
M  V30 6935 C 648.545 -1.41453 -3.31154 0
M  V30 6936 C 648.398 -2.95471 -3.39142 0
M  V30 6937 C 649.717 -1.0619 -4.27097 0
M  V30 6938 H 646.836 -0.313044 -0.667212 0
M  V30 6939 H 649.478 -1.37443 -1.31185 0
M  V30 6940 H 647.628 -0.975052 -3.76065 0
M  V30 6941 H 649.3 -3.4799 -3.02821 0
M  V30 6942 H 647.543 -3.31759 -2.79497 0
M  V30 6943 H 648.214 -3.29515 -4.42859 0
M  V30 6944 H 650.69 -1.44122 -3.90344 0
M  V30 6945 H 649.566 -1.47832 -5.28618 0
M  V30 6946 H 649.827 0.0278912 -4.42091 0
M  V30 6947 N 648.886 1.2938 -0.899927 0
M  V30 6948 C 649.816 2.30144 -0.39446 0
M  V30 6949 C 650.797 1.61611 0.530639 0
M  V30 6950 O 651.982 1.89119 0.441319 0
M  V30 6951 C 649.112 3.45229 0.37868 0
M  V30 6952 C 648.066 4.25564 -0.456012 0
M  V30 6953 C 647.392 5.32848 0.444637 0
M  V30 6954 C 648.692 4.93651 -1.70605 0
M  V30 6955 H 650.386 2.72673 -1.23653 0
M  V30 6956 H 647.932 1.31086 -0.596034 0
M  V30 6957 H 649.885 4.14797 0.743037 0
M  V30 6958 H 648.609 3.01545 1.25453 0
M  V30 6959 H 647.268 3.57704 -0.802704 0
M  V30 6960 H 646.916 4.85408 1.31863 0
M  V30 6961 H 646.616 5.87497 -0.110154 0
M  V30 6962 H 648.14 6.05268 0.805182 0
M  V30 6963 H 649.554 5.55655 -1.41141 0
M  V30 6964 H 647.951 5.58233 -2.20217 0
M  V30 6965 H 649.021 4.18926 -2.4419 0
M  V30 6966 N 650.364 0.662433 1.43002 0
M  V30 6967 C 651.297 -0.073459 2.28082 0
M  V30 6968 C 652.275 -0.820869 1.40358 0
M  V30 6969 O 653.459 -0.818545 1.698 0
M  V30 6970 C 650.586 -1.11097 3.19961 0
M  V30 6971 C 649.632 -0.460557 4.24006 0
M  V30 6972 S 650.465 0.772717 5.29896 0
M  V30 6973 C 651.621 -0.264028 6.25343 0
M  V30 6974 H 651.854 0.648227 2.90147 0
M  V30 6975 H 649.387 0.451566 1.47649 0
M  V30 6976 H 651.345 -1.70452 3.73439 0
M  V30 6977 H 650.006 -1.80503 2.57056 0
M  V30 6978 H 649.199 -1.24299 4.88432 0
M  V30 6979 H 648.801 0.0591038 3.73953 0
M  V30 6980 H 651.093 -1.12748 6.68052 0
M  V30 6981 H 652.036 0.345443 7.07257 0
M  V30 6982 H 652.444 -0.603964 5.6126 0
M  V30 6983 N 651.842 -1.52309 0.404946 0
M  V30 6984 C 653.089 -2.01767 -0.1722 0
M  V30 6985 C 653.417 -1.29075 -1.45498 0
M  V30 6986 O 652.672 -0.3843 -1.9189 0
M  V30 6987 C 652.971 -3.54284 -0.470895 0
M  V30 6988 C 652.637 -4.45079 0.722194 0
M  V30 6989 C 651.299 -4.69617 1.04946 0
M  V30 6990 C 653.651 -4.98555 1.51962 0
M  V30 6991 C 650.979 -5.44878 2.17543 0
M  V30 6992 C 653.331 -5.75049 2.63632 0
M  V30 6993 C 651.995 -5.9786 2.9685 0
M  V30 6994 H 651.265 -0.738316 -0.0630125 0
M  V30 6995 H 653.912 -1.83566 0.545506 0
M  V30 6996 H 652.217 -3.70642 -1.27012 0
M  V30 6997 H 653.914 -3.90058 -0.930346 0
M  V30 6998 H 650.504 -4.26155 0.457131 0
M  V30 6999 H 654.688 -4.79509 1.28002 0
M  V30 7000 H 649.944 -5.60762 2.43631 0
M  V30 7001 H 654.118 -6.15483 3.25813 0
M  V30 7002 H 651.745 -6.5596 3.84215 0
M  V30 7003 N 653.32 -0.135238 -1.57019 0
M  V30 7004 C 654.23 0.822226 -2.19719 0
M  V30 7005 C 655.246 1.28057 -1.17802 0
M  V30 7006 O 656.422 1.3402 -1.50335 0
M  V30 7007 C 653.487 2.0484 -2.79717 0
M  V30 7008 C 652.548 1.64042 -3.96723 0
M  V30 7009 C 651.781 2.80814 -4.53849 0
M  V30 7010 O 652.004 3.967 -4.0986 0
M  V30 7011 O 650.938 2.56963 -5.44292 0
M  V30 7012 H 654.764 0.318552 -3.02025 0
M  V30 7013 H 652.349 0.0912021 -1.49121 0
M  V30 7014 H 654.231 2.76622 -3.17897 0
M  V30 7015 H 652.906 2.54182 -2.00432 0
M  V30 7016 H 651.813 0.893182 -3.63281 0
M  V30 7017 H 653.146 1.19426 -4.77492 0
M  V30 7018 N 654.798 1.5699 0.138552 0
M  V30 7019 C 655.731 1.94064 1.2006 0
M  V30 7020 C 656.709 0.807601 1.41126 0
M  V30 7021 O 657.893 1.06399 1.556 0
M  V30 7022 C 655.02 2.21999 2.55801 0
M  V30 7023 C 654.066 3.44617 2.5128 0
M  V30 7024 S 654.899 4.97888 1.97149 0
M  V30 7025 C 656.055 5.28954 3.34602 0
M  V30 7026 H 656.288 2.83843 0.884337 0
M  V30 7027 H 653.821 1.50507 0.344517 0
M  V30 7028 H 655.779 2.38772 3.33914 0
M  V30 7029 H 654.44 1.32869 2.84613 0
M  V30 7030 H 653.633 3.61466 3.51224 0
M  V30 7031 H 653.235 3.27129 1.8128 0
M  V30 7032 H 655.527 5.22938 4.30745 0
M  V30 7033 H 656.47 6.30346 3.22598 0
M  V30 7034 H 656.878 4.56455 3.32128 0
M  V30 7035 N 656.276 -0.40816 1.52223 0
M  V30 7036 C 657.209 -1.51834 1.70357 0
M  V30 7037 C 658.187 -1.52973 0.551171 0
M  V30 7038 O 659.371 -1.71667 0.778642 0
M  V30 7039 C 656.498 -2.90362 1.74378 0
M  V30 7040 C 655.544 -3.0713 2.95928 0
M  V30 7041 S 656.377 -2.80342 4.56255 0
M  V30 7042 C 657.533 -4.21098 4.63063 0
M  V30 7043 H 657.766 -1.36223 2.64255 0
M  V30 7044 H 655.299 -0.599798 1.42274 0
M  V30 7045 H 657.257 -3.70199 1.77379 0
M  V30 7046 H 655.918 -3.03314 0.816063 0
M  V30 7047 H 655.111 -4.08482 2.95226 0
M  V30 7048 H 654.713 -2.3516 2.90819 0
M  V30 7049 H 657.005 -5.14749 4.40499 0
M  V30 7050 H 657.948 -4.26823 5.65002 0
M  V30 7051 H 658.356 -4.06114 3.92086 0
M  V30 7052 N 657.755 -1.42862 -0.66545 0
M  V30 7053 C 658.718 -1.46756 -1.76055 0
M  V30 7054 C 659.718 -0.353866 -1.56858 0
M  V30 7055 O 660.908 -0.615099 -1.62979 0
M  V30 7056 C 658.04 -1.30829 -3.14796 0
M  V30 7057 H 659.233 -2.44271 -1.73987 0
M  V30 7058 H 656.786 -1.29447 -0.875965 0
M  V30 7059 H 657.521 -0.342733 -3.22484 0
M  V30 7060 H 657.306 -2.11551 -3.30134 0
M  V30 7061 H 658.796 -1.36458 -3.94676 0
M  V30 7062 N 659.233 0.902656 -1.29189 0
M  V30 7063 C 660.481 1.6496 -1.16758 0
M  V30 7064 C 660.802 1.92952 0.28188 0
M  V30 7065 O 660.072 1.55351 1.19344 0
M  V30 7066 H 658.652 0.611447 -0.429118 0
M  V30 7067 H 661.314 1.0825 -1.62074 0
M  V30 7068 H 660.41 2.60728 -1.71544 0
M  V30 7069 N 660.711 1.11618 1.11262 0
M  V30 7070 C 662.127 0.850468 1.35053 0
M  V30 7071 C 662.327 -0.523868 1.94571 0
M  V30 7072 O 661.383 -1.2743 2.17986 0
M  V30 7073 C 662.696 1.96005 2.28041 0
M  V30 7074 C 664.244 1.98993 2.416 0
M  V30 7075 C 664.719 3.0916 3.37911 0
M  V30 7076 N 666.21 3.08547 3.45475 0
M  V30 7077 C 666.945 3.9043 4.19943 0
M  V30 7078 N 666.441 4.8228 4.97371 0
M  V30 7079 N 668.234 3.786 4.15474 0
M  V30 7080 H 660.385 2.00184 0.709932 0
M  V30 7081 H 662.648 0.870635 0.375099 0
M  V30 7082 H 662.354 2.9499 1.91503 0
M  V30 7083 H 662.228 1.85782 3.28275 0
M  V30 7084 H 664.615 1.00633 2.77411 0
M  V30 7085 H 664.696 2.13292 1.4121 0
M  V30 7086 H 664.34 4.07748 3.02827 0
M  V30 7087 H 664.27 2.92102 4.3816 0
M  V30 7088 H 666.761 2.42 2.90249 0
M  V30 7089 H 667.074 5.41289 5.51567 0
M  V30 7090 H 665.419 4.863 4.96525 0
M  V30 7091 H 668.61 3.06185 3.54074 0
M  V30 7092 H 668.783 4.42647 4.73253 0
M  V30 7093 N 662.189 -1.289 0.906776 0
M  V30 7094 C 663.414 -1.99939 0.551303 0
M  V30 7095 C 663.839 -1.67366 -0.858496 0
M  V30 7096 O 663.197 -0.902176 -1.57259 0
M  V30 7097 C 663.245 -3.52523 0.758937 0
M  V30 7098 O 662.349 -4.11983 -0.185308 0
M  V30 7099 H 661.69 -0.628376 0.214568 0
M  V30 7100 H 664.22 -1.64225 1.2203 0
M  V30 7101 H 664.23 -4.02522 0.666329 0
M  V30 7102 H 662.905 -3.75566 1.78671 0
M  V30 7103 H 661.482 -3.72873 -0.0445577 0
M  V30 7104 N 663.667 -0.670007 -1.42649 0
M  V30 7105 C 665.078 -0.268118 -1.84765 0
M  V30 7106 C 665.429 1.18877 -1.56086 0
M  V30 7107 O 664.554 1.90947 -1.01825 0
M  V30 7108 C 665.149 -0.47984 -3.35385 0
M  V30 7109 C 663.708 -0.132116 -3.76168 0
M  V30 7110 C 662.855 -0.774611 -2.66261 0
M  V30 7111 H 665.806 -0.872509 -1.32563 0
M  V30 7112 H 665.827 0.269522 -3.79544 0
M  V30 7113 H 665.339 -1.54026 -3.56227 0
M  V30 7114 H 663.44 0.92505 -3.60934 0
M  V30 7115 H 663.553 -0.569294 -4.75706 0
M  V30 7116 H 661.917 -0.206353 -2.53863 0
M  V30 7117 H 662.7 -1.83839 -2.89928 0
M  V30 7118 N 665.145 1.52092 -0.413018 0
M  V30 7119 C 666.392 2.01855 0.161497 0
M  V30 7120 C 666.72 1.29845 1.44812 0
M  V30 7121 O 665.975 0.394471 1.91683 0
M  V30 7122 C 666.274 3.54529 0.4521 0
M  V30 7123 C 665.94 4.4469 -0.745788 0
M  V30 7124 C 664.602 4.69053 -1.07435 0
M  V30 7125 C 666.954 4.97742 -1.54604 0
M  V30 7126 C 664.282 5.43717 -2.20429 0
M  V30 7127 C 666.634 5.73642 -2.66678 0
M  V30 7128 C 665.298 5.96277 -3.00016 0
M  V30 7129 H 664.568 0.73864 0.0590961 0
M  V30 7130 H 667.215 1.83274 -0.555234 0
M  V30 7131 H 665.52 3.7131 1.25045 0
M  V30 7132 H 667.217 3.90546 0.909647 0
M  V30 7133 H 663.807 4.25907 -0.479725 0
M  V30 7134 H 667.991 4.78824 -1.30543 0
M  V30 7135 H 663.247 5.59462 -2.46602 0
M  V30 7136 H 667.421 6.13746 -3.29072 0
M  V30 7137 H 665.048 6.53913 -3.87688 0
M  V30 7138 N 666.623 0.143563 1.56945 0
M  V30 7139 C 667.9 -0.553285 1.87612 0
M  V30 7140 C 668.28 -1.83195 1.04894 0
M  V30 7141 O 667.628 -2.28102 0.134773 0
M  V30 7142 C 667.838 -0.822055 3.3918 0
M  V30 7143 C 669.186 -1.16435 4.08324 0
M  V30 7144 O 670.21 -0.911522 3.4434 0
M  V30 7145 O 669.069 -1.63996 5.21313 0
M  V30 7146 H 666.163 -0.281851 0.777489 0
M  V30 7147 H 668.709 0.179916 1.68744 0
M  V30 7148 H 667.481 0.0830265 3.91212 0
M  V30 7149 H 667.104 -1.60956 3.63564 0
M  V30 7150 N 668.101 -1.57061 -0.130224 0
M  V30 7151 C 669.35 -1.83446 -0.838488 0
M  V30 7152 C 669.663 -0.727468 -1.81569 0
M  V30 7153 O 670.869 -0.877394 -2.56932 0
M  V30 7154 C 669.325 -3.25201 -1.54182 0
M  V30 7155 C 668.933 -4.4388 -0.606178 0
M  V30 7156 C 670.677 -3.60844 -2.23588 0
M  V30 7157 C 668.584 -5.76661 -1.31209 0
M  V30 7158 H 667.514 -0.684185 -0.316871 0
M  V30 7159 H 670.165 -1.83273 -0.0912059 0
M  V30 7160 H 668.547 -3.1981 -2.33533 0
M  V30 7161 H 669.721 -4.60545 0.153308 0
M  V30 7162 H 668.036 -4.16395 -0.0196705 0
M  V30 7163 H 670.633 -4.57313 -2.77072 0
M  V30 7164 H 670.976 -2.87724 -3.00867 0
M  V30 7165 H 671.509 -3.67971 -1.51137 0
M  V30 7166 H 668.248 -6.52922 -0.580823 0
M  V30 7167 H 667.768 -5.63902 -2.04387 0
M  V30 7168 H 669.447 -6.20035 -1.8484 0
M  V30 7169 N 669.579 0.400081 -1.52437 0
M  V30 7170 C 670.828 1.14332 -1.66166 0
M  V30 7171 C 671.141 1.91419 -0.402253 0
M  V30 7172 O 672.347 2.6824 -0.419487 0
M  V30 7173 C 670.803 2.08137 -2.9361 0
M  V30 7174 C 670.411 1.36524 -4.26691 0
M  V30 7175 C 672.155 2.82664 -3.16703 0
M  V30 7176 C 670.062 2.29031 -5.45251 0
M  V30 7177 H 668.992 0.430499 -0.61902 0
M  V30 7178 H 671.643 0.407017 -1.78929 0
M  V30 7179 H 670.025 2.85358 -2.74567 0
M  V30 7180 H 671.199 0.646061 -4.56249 0
M  V30 7181 H 669.514 0.74002 -4.09771 0
M  V30 7182 H 672.111 3.52037 -4.0246 0
M  V30 7183 H 672.454 3.46122 -2.31312 0
M  V30 7184 H 672.987 2.12541 -3.36261 0
M  V30 7185 H 669.726 1.70206 -6.33017 0
M  V30 7186 H 669.246 2.98896 -5.2002 0
M  V30 7187 H 670.925 2.89359 -5.78689 0
M  V30 7188 N 671.057 1.43213 0.657864 0
M  V30 7189 C 672.285 1.48015 1.44566 0
M  V30 7190 C 672.7 0.0965951 1.88553 0
M  V30 7191 O 672.057 -0.892221 1.59203 0
M  V30 7192 C 672.108 2.42199 2.68369 0
M  V30 7193 O 671.829 3.75173 2.26223 0
M  V30 7194 C 673.33 2.56195 3.61772 0
M  V30 7195 H 670.55 0.502861 0.444266 0
M  V30 7196 H 673.094 1.87907 0.806917 0
M  V30 7197 H 671.249 2.05514 3.28394 0
M  V30 7198 H 671.663 4.25776 3.06293 0
M  V30 7199 H 673.137 3.26182 4.4532 0
M  V30 7200 H 673.614 1.60534 4.0881 0
M  V30 7201 H 674.22 2.93671 3.07632 0
M  V30 7202 N 672.536 -0.895792 1.29666 0
M  V30 7203 C 673.813 -1.62723 1.08538 0
M  V30 7204 C 674.193 -2.07848 -0.369119 0
M  V30 7205 O 673.541 -1.8372 -1.35864 0
M  V30 7206 C 673.751 -2.80505 2.07648 0
M  V30 7207 C 675.099 -3.51098 2.3878 0
M  V30 7208 O 676.123 -2.90679 2.05874 0
M  V30 7209 O 674.982 -4.60028 2.9502 0
M  V30 7210 H 672.076 -0.714692 0.416106 0
M  V30 7211 H 674.622 -0.943517 1.41053 0
M  V30 7212 H 673.394 -2.44386 3.05599 0
M  V30 7213 H 673.017 -3.5658 1.75887 0
M  V30 7214 N 674.014 -1.12206 -1.10668 0
M  V30 7215 C 674.962 -0.782918 -2.19028 0
M  V30 7216 C 675.956 0.229175 -1.67843 0
M  V30 7217 O 677.162 0.0876295 -1.79787 0
M  V30 7218 H 673.537 -0.235339 -0.714227 0
M  V30 7219 H 675.508 -1.70527 -2.44874 0
M  V30 7220 C 674.257 -0.25116 -3.46792 0
M  V30 7221 H 673.58 -1.02123 -3.86537 0
M  V30 7222 H 675.02 -0.0521409 -4.23968 0
M  V30 7223 C 673.479 1.02037 -3.21076 0
M  V30 7224 O 674.009 2.09862 -3.42522 0
M  V30 7225 N 672.215 0.946348 -2.74759 0
M  V30 7226 H 671.762 0.068777 -2.57508 0
M  V30 7227 H 671.72 1.79775 -2.57931 0
M  V30 7228 N 675.492 1.28418 -0.913599 0
M  V30 7229 C 676.903 1.77024 -0.593237 0
M  V30 7230 C 677.254 1.74779 0.891441 0
M  V30 7231 O 676.379 1.34237 1.69733 0
M  V30 7232 C 676.974 3.21456 -1.07011 0
M  V30 7233 C 675.533 3.67786 -0.800664 0
M  V30 7234 C 674.68 2.48185 -1.23691 0
M  V30 7235 H 677.631 1.14883 -1.09487 0
M  V30 7236 H 677.652 3.78269 -0.411481 0
M  V30 7237 H 677.164 3.23058 -2.1507 0
M  V30 7238 H 675.265 3.71644 0.266725 0
M  V30 7239 H 675.378 4.57934 -1.4083 0
M  V30 7240 H 673.742 2.46116 -0.655655 0
M  V30 7241 H 674.525 2.52506 -2.32585 0
M  V30 7242 N 676.97 0.677563 1.42291 0
M  V30 7243 C 678.247 0.129803 1.95169 0
M  V30 7244 C 678.627 -1.35605 1.61786 0
M  V30 7245 O 677.975 -2.09361 0.915444 0
M  V30 7246 C 678.185 0.401889 3.46678 0
M  V30 7247 C 679.533 0.319889 4.23393 0
M  V30 7248 O 680.557 0.33579 3.54614 0
M  V30 7249 O 679.416 0.264459 5.4586 0
M  V30 7250 H 676.51 0.00447433 0.826988 0
M  V30 7251 H 679.056 0.752483 1.52105 0
M  V30 7252 H 677.828 1.43108 3.64192 0
M  V30 7253 H 677.451 -0.252662 3.96796 0
M  V30 7254 N 678.448 -1.51871 0.421078 0
M  V30 7255 C 679.381 -2.23851 -0.443369 0
M  V30 7256 C 680.359 -1.25142 -1.03818 0
M  V30 7257 O 681.543 -1.5423 -1.08377 0
M  V30 7258 C 678.67 -2.97637 -1.61648 0
M  V30 7259 C 677.716 -4.10873 -1.14391 0
M  V30 7260 S 678.549 -5.35408 -0.0992403 0
M  V30 7261 C 679.705 -6.12726 -1.27739 0
M  V30 7262 H 679.938 -2.96826 0.167786 0
M  V30 7263 H 677.471 -1.53027 0.205461 0
M  V30 7264 H 679.429 -3.40751 -2.28909 0
M  V30 7265 H 678.09 -2.24282 -2.199 0
M  V30 7266 H 677.283 -4.61718 -2.02069 0
M  V30 7267 H 676.885 -3.69937 -0.549775 0
M  V30 7268 H 679.177 -6.40827 -2.19881 0
M  V30 7269 H 680.12 -7.03461 -0.809239 0
M  V30 7270 H 680.528 -5.43968 -1.5086 0
M  V30 7271 N 679.926 -0.151884 -1.56866 0
M  V30 7272 C 680.874 0.80299 -2.183 0
M  V30 7273 C 681.868 1.25174 -1.14139 0
M  V30 7274 O 683.074 1.21966 -1.3238 0
M  V30 7275 H 679.449 0.277169 -0.699057 0
M  V30 7276 H 681.42 0.260699 -2.97259 0
M  V30 7277 C 680.169 2.03009 -2.82281 0
M  V30 7278 H 679.492 1.69377 -3.62148 0
M  V30 7279 H 680.932 2.67753 -3.28762 0
M  V30 7280 C 679.391 2.84123 -1.81041 0
M  V30 7281 O 679.921 3.8063 -1.28388 0
M  V30 7282 N 678.127 2.48753 -1.50234 0
M  V30 7283 H 677.674 1.70337 -1.93244 0
M  V30 7284 H 677.632 3.03316 -0.827445 0
M  V30 7285 N 681.404 1.57128 0.121893 0
M  V30 7286 C 682.632 1.88883 0.844451 0
M  V30 7287 C 683.047 0.742824 1.73573 0
M  V30 7288 O 682.404 -0.286475 1.80238 0
M  V30 7289 C 682.455 3.20076 1.68029 0
M  V30 7290 O 682.176 4.30264 0.824898 0
M  V30 7291 C 683.677 3.65515 2.50826 0
M  V30 7292 H 680.897 0.62549 0.242907 0
M  V30 7293 H 683.441 2.04219 0.107151 0
M  V30 7294 H 681.596 3.06418 2.37038 0
M  V30 7295 H 682.01 5.05439 1.40113 0
M  V30 7296 H 683.484 4.60081 3.05008 0
M  V30 7297 H 683.961 2.92029 3.28048 0
M  V30 7298 H 684.567 3.81952 1.87064 0
M  V30 7299 N 682.882 -0.391992 1.52647 0
M  V30 7300 C 683.792 -1.503 1.80131 0
M  V30 7301 C 684.808 -1.59825 0.687882 0
M  V30 7302 O 685.984 -1.76218 0.975149 0
M  V30 7303 C 683.049 -2.85863 1.96171 0
M  V30 7304 C 682.11 -2.86084 3.20085 0
M  V30 7305 C 681.343 -4.15181 3.35351 0
M  V30 7306 O 681.566 -5.09981 2.55491 0
M  V30 7307 O 680.5 -4.22603 4.28591 0
M  V30 7308 H 684.326 -1.30007 2.74466 0
M  V30 7309 H 681.911 -0.579539 1.37701 0
M  V30 7310 H 683.793 -3.66236 2.08445 0
M  V30 7311 H 682.468 -3.06189 1.05025 0
M  V30 7312 H 681.375 -2.04504 3.13256 0
M  V30 7313 H 682.708 -2.7071 4.11068 0
M  V30 7314 N 684.36 -1.4356 -0.65026 0
M  V30 7315 C 685.637 -1.35811 -1.40765 0
M  V30 7316 C 686.017 -0.00736379 -2.11099 0
M  V30 7317 O 685.365 1.00932 -2.05 0
M  V30 7318 C 685.575 -2.54332 -2.3899 0
M  V30 7319 C 686.923 -2.97551 -3.02901 0
M  V30 7320 O 687.947 -2.544 -2.49317 0
M  V30 7321 O 686.806 -3.72311 -4.00059 0
M  V30 7322 H 683.9 -0.536861 -0.629054 0
M  V30 7323 H 686.446 -1.55615 -0.676919 0
M  V30 7324 H 685.218 -3.44274 -1.85986 0
M  V30 7325 H 684.841 -2.36643 -3.19509 0
M  V30 7326 N 685.838 0.888903 -1.30139 0
M  V30 7327 C 687.068 1.67115 -1.21474 0
M  V30 7328 C 687.476 1.87852 0.225472 0
M  V30 7329 O 686.819 1.42324 1.16145 0
M  V30 7330 C 686.881 3.0713 -1.86846 0
M  V30 7331 C 686.545 3.09582 -3.36167 0
M  V30 7332 C 687.542 2.88929 -4.32222 0
M  V30 7333 C 685.227 3.31304 -3.77549 0
M  V30 7334 C 687.221 2.89949 -5.67634 0
M  V30 7335 C 684.908 3.31954 -5.13079 0
M  V30 7336 C 685.906 3.113 -6.07932 0
M  V30 7337 O 685.594 3.11758 -7.40987 0
M  V30 7338 H 685.326 0.528372 -0.421662 0
M  V30 7339 H 687.88 1.11919 -1.7223 0
M  V30 7340 H 686.11 3.63973 -1.30615 0
M  V30 7341 H 687.799 3.6749 -1.72354 0
M  V30 7342 H 688.565 2.71948 -4.01584 0
M  V30 7343 H 684.444 3.46417 -3.04165 0
M  V30 7344 H 687.988 2.73746 -6.41645 0
M  V30 7345 H 683.885 3.48469 -5.43359 0
M  V30 7346 H 684.653 3.27951 -7.49927 0
M  V30 7347 N 687.317 1.12792 1.10072 0
M  V30 7348 C 688.247 0.821688 2.18565 0
M  V30 7349 C 689.228 -0.21612 1.68721 0
M  V30 7350 O 690.413 -0.0764932 1.94049 0
M  V30 7351 C 687.543 0.279624 3.46172 0
M  V30 7352 C 686.497 1.25092 4.09312 0
M  V30 7353 C 685.823 0.568916 5.31665 0
M  V30 7354 C 687.123 2.60699 4.52585 0
M  V30 7355 H 688.817 1.72888 2.44438 0
M  V30 7356 H 686.363 0.832702 1.17482 0
M  V30 7357 H 688.316 0.053099 4.21367 0
M  V30 7358 H 687.04 -0.662929 3.19801 0
M  V30 7359 H 685.699 1.46332 3.36129 0
M  V30 7360 H 685.347 -0.378898 5.01571 0
M  V30 7361 H 685.047 1.21687 5.74862 0
M  V30 7362 H 686.571 0.351517 6.09587 0
M  V30 7363 H 687.985 2.43465 5.19035 0
M  V30 7364 H 686.382 3.21608 5.06644 0
M  V30 7365 H 687.452 3.1886 3.65317 0
M  V30 7366 N 688.795 -1.27931 0.920396 0
M  V30 7367 C 690.042 -1.94689 0.557007 0
M  V30 7368 C 690.37 -1.724 -0.900476 0
M  V30 7369 O 689.625 -1.04194 -1.65657 0
M  V30 7370 C 689.924 -3.47853 0.820558 0
M  V30 7371 C 689.59 -3.90252 2.25863 0
M  V30 7372 C 688.252 -4.01539 2.65179 0
M  V30 7373 C 690.604 -4.11853 3.19415 0
M  V30 7374 C 687.932 -4.3181 3.97187 0
M  V30 7375 C 690.284 -4.43606 4.50995 0
M  V30 7376 C 688.948 -4.53105 4.90155 0
M  V30 7377 H 688.218 -0.712416 0.203823 0
M  V30 7378 H 690.865 -1.52142 1.16298 0
M  V30 7379 H 689.17 -3.91578 0.131844 0
M  V30 7380 H 690.867 -3.97634 0.51847 0
M  V30 7381 H 687.457 -3.81999 1.94358 0
M  V30 7382 H 691.641 -4.0258 2.90246 0
M  V30 7383 H 686.897 -4.37371 4.2722 0
M  V30 7384 H 691.071 -4.59268 5.23494 0
M  V30 7385 H 688.698 -4.76315 5.92476 0
M  V30 7386 N 690.273 -0.685099 -1.4193 0
M  V30 7387 C 691.205 0.0258679 -2.29185 0
M  V30 7388 C 692.218 0.755076 -1.44231 0
M  V30 7389 O 693.407 0.60752 -1.67844 0
M  V30 7390 C 690.507 1.06055 -3.21878 0
M  V30 7391 C 689.68 0.403088 -4.35539 0
M  V30 7392 C 688.739 1.33895 -5.0888 0
M  V30 7393 O 687.765 0.835326 -5.63037 0
M  V30 7394 N 688.967 2.6718 -5.15359 0
M  V30 7395 H 691.732 -0.723201 -2.90843 0
M  V30 7396 H 689.293 -0.53031 -1.52968 0
M  V30 7397 H 691.285 1.68813 -3.6781 0
M  V30 7398 H 689.855 1.71126 -2.616 0
M  V30 7399 H 689.075 -0.404185 -3.92122 0
M  V30 7400 H 690.363 -0.0545098 -5.08771 0
M  V30 7401 H 689.761 3.10626 -4.72788 0
M  V30 7402 H 688.318 3.25159 -5.64903 0
M  V30 7403 N 691.751 1.51645 -0.429126 0
M  V30 7404 C 692.997 2.02314 0.140286 0
M  V30 7405 C 693.33 1.31314 1.43074 0
M  V30 7406 O 692.605 0.425531 1.89788 0
M  V30 7407 C 692.888 3.5822 0.36749 0
M  V30 7408 C 692.741 4.39846 -0.941039 0
M  V30 7409 C 694.06 4.25055 1.14089 0
M  V30 7410 H 691.179 0.735335 0.0495112 0
M  V30 7411 H 693.821 1.81358 -0.566514 0
M  V30 7412 H 691.971 3.76207 0.969556 0
M  V30 7413 H 693.643 4.33527 -1.57646 0
M  V30 7414 H 691.886 4.05259 -1.54751 0
M  V30 7415 H 692.557 5.47069 -0.73621 0
M  V30 7416 H 695.033 4.11288 0.630986 0
M  V30 7417 H 693.909 5.34038 1.26863 0
M  V30 7418 H 694.17 3.85358 2.16683 0
M  V30 7419 N 693.229 0.160201 1.56784 0
M  V30 7420 C 694.478 -0.487619 1.95717 0
M  V30 7421 C 694.791 -1.65136 1.0483 0
M  V30 7422 O 695.997 -2.36468 1.33398 0
M  V30 7423 C 694.453 -0.91888 3.47972 0
M  V30 7424 C 694.061 0.218655 4.47466 0
M  V30 7425 C 695.805 -1.53575 3.95746 0
M  V30 7426 C 693.712 -0.231614 5.90946 0
M  V30 7427 H 692.642 -0.185939 0.730714 0
M  V30 7428 H 695.293 0.246657 1.81835 0
M  V30 7429 H 693.675 -1.70881 3.57234 0
M  V30 7430 H 694.849 0.995825 4.49911 0
M  V30 7431 H 693.164 0.744767 4.09685 0
M  V30 7432 H 695.761 -1.88448 5.00391 0
M  V30 7433 H 696.104 -2.42959 3.38048 0
M  V30 7434 H 696.637 -0.810467 3.89456 0
M  V30 7435 H 693.376 0.62718 6.52493 0
M  V30 7436 H 692.896 -0.974379 5.91833 0
M  V30 7437 H 694.575 -0.67922 6.43425 0
M  V30 7438 N 694.707 -1.5719 -0.113559 0
M  V30 7439 C 695.637 -2.03772 -1.14013 0
M  V30 7440 C 696.618 -0.923176 -1.42869 0
M  V30 7441 O 697.803 -1.19325 -1.53216 0
M  V30 7442 C 694.933 -2.44663 -2.4649 0
M  V30 7443 C 693.887 -3.59612 -2.32085 0
M  V30 7444 C 693.213 -3.8642 -3.69573 0
M  V30 7445 C 694.513 -4.91149 -1.7768 0
M  V30 7446 H 696.207 -2.89785 -0.752665 0
M  V30 7447 H 693.753 -1.39412 -0.360609 0
M  V30 7448 H 695.706 -2.75857 -3.18561 0
M  V30 7449 H 694.43 -1.55628 -2.87137 0
M  V30 7450 H 693.089 -3.28636 -1.62461 0
M  V30 7451 H 692.737 -2.94581 -4.07715 0
M  V30 7452 H 692.437 -4.63797 -3.60786 0
M  V30 7453 H 693.961 -4.2007 -4.4314 0
M  V30 7454 H 695.375 -5.20843 -2.39574 0
M  V30 7455 H 693.772 -5.72562 -1.79701 0
M  V30 7456 H 694.842 -4.79301 -0.734776 0
M  V30 7457 N 696.185 0.383891 -1.52853 0
M  V30 7458 C 697.095 1.49343 -1.80925 0
M  V30 7459 C 698.111 1.59458 -0.696348 0
M  V30 7460 O 699.287 1.75698 -0.984481 0
M  V30 7461 C 696.352 2.84819 -1.97684 0
M  V30 7462 C 695.413 2.84382 -3.21598 0
M  V30 7463 C 694.646 4.13397 -3.37548 0
M  V30 7464 O 694.869 5.08619 -2.58192 0
M  V30 7465 O 693.803 4.20325 -4.30826 0
M  V30 7466 H 697.629 1.2855 -2.75152 0
M  V30 7467 H 695.214 0.572229 -1.38007 0
M  V30 7468 H 697.096 3.65125 -2.10385 0
M  V30 7469 H 695.771 3.05627 -1.06647 0
M  V30 7470 H 694.678 2.0284 -3.14336 0
M  V30 7471 H 696.011 2.68526 -4.12498 0
M  V30 7472 N 697.663 1.43903 0.642637 0
M  V30 7473 C 698.61 1.49881 1.75512 0
M  V30 7474 C 699.58 0.347538 1.62423 0
M  V30 7475 O 700.765 0.556177 1.82514 0
M  V30 7476 C 697.905 1.43797 3.13714 0
M  V30 7477 C 697.018 2.6921 3.37861 0
M  V30 7478 C 696.153 2.5504 4.6597 0
M  V30 7479 C 695.192 3.75671 4.83257 0
M  V30 7480 N 694.329 3.60247 6.02633 0
M  V30 7481 H 699.169 2.44935 1.69737 0
M  V30 7482 H 696.706 1.21572 0.828165 0
M  V30 7483 H 698.664 1.38262 3.93624 0
M  V30 7484 H 697.294 0.523173 3.18532 0
M  V30 7485 H 696.346 2.8498 2.51973 0
M  V30 7486 H 697.658 3.58786 3.46517 0
M  V30 7487 H 696.812 2.47273 5.54023 0
M  V30 7488 H 695.551 1.63006 4.59653 0
M  V30 7489 H 694.556 3.83836 3.93637 0
M  V30 7490 H 695.781 4.68728 4.91397 0
M  V30 7491 H 693.727 2.70955 5.97427 0
M  V30 7492 H 693.644 4.43431 6.12295 0
M  V30 7493 H 694.912 3.56351 6.93278 0
M  V30 7494 N 699.141 -0.881989 1.30609 0
M  V30 7495 C 700.552 -1.44956 1.17664 0
M  V30 7496 C 700.903 -1.94945 -0.221531 0
M  V30 7497 O 700.028 -1.85257 -1.11844 0
M  V30 7498 C 700.623 -2.63474 2.12995 0
M  V30 7499 C 699.182 -3.16312 2.04019 0
M  V30 7500 C 698.329 -1.89008 2.02907 0
M  V30 7501 H 701.28 -0.691645 1.42835 0
M  V30 7502 H 701.301 -3.39783 1.71253 0
M  V30 7503 H 700.813 -2.2706 3.14746 0
M  V30 7504 H 698.914 -3.57376 1.0542 0
M  V30 7505 H 699.027 -3.79409 2.9255 0
M  V30 7506 H 697.391 -2.07465 1.47751 0
M  V30 7507 H 698.174 -1.54848 3.06394 0
M  V30 7508 N 700.619 -1.13374 -1.09472 0
M  V30 7509 C 701.868 -0.889844 -1.8101 0
M  V30 7510 C 702.181 0.585686 -1.86625 0
M  V30 7511 O 703.387 0.946497 -2.54467 0
M  V30 7512 C 701.843 -1.54241 -3.25174 0
M  V30 7513 C 701.451 -3.05343 -3.27826 0
M  V30 7514 C 703.195 -1.37919 -4.0147 0
M  V30 7515 C 701.102 -3.63486 -4.6651 0
M  V30 7516 H 700.032 -0.329256 -0.678311 0
M  V30 7517 H 702.683 -1.36139 -1.23038 0
M  V30 7518 H 701.065 -0.998525 -3.83204 0
M  V30 7519 H 702.239 -3.66307 -2.79563 0
M  V30 7520 H 700.554 -3.21175 -2.65019 0
M  V30 7521 H 703.151 -1.78771 -5.03929 0
M  V30 7522 H 703.494 -0.323987 -4.15037 0
M  V30 7523 H 704.027 -1.89284 -3.49881 0
M  V30 7524 H 700.766 -4.68811 -4.58145 0
M  V30 7525 H 700.286 -3.073 -5.15099 0
M  V30 7526 H 701.965 -3.63134 -5.35484 0
M  V30 7527 N 702.098 1.27442 -0.927168 0
M  V30 7528 C 703.514 1.46754 -0.627329 0
M  V30 7529 C 703.714 1.83902 0.823549 0
M  V30 7530 O 702.77 1.95215 1.60148 0
M  V30 7531 C 704.083 2.56045 -1.57674 0
M  V30 7532 C 705.631 2.69906 -1.58491 0
M  V30 7533 C 706.106 3.82355 -2.52128 0
M  V30 7534 N 707.597 3.89728 -2.50332 0
M  V30 7535 C 708.332 4.76155 -3.19475 0
M  V30 7536 N 707.828 5.67073 -3.97995 0
M  V30 7537 N 709.621 4.6988 -3.08496 0
M  V30 7538 H 701.772 1.01613 -1.86517 0
M  V30 7539 H 704.035 0.507443 -0.800753 0
M  V30 7540 H 703.741 2.35542 -2.61176 0
M  V30 7541 H 703.615 3.53423 -1.31804 0
M  V30 7542 H 706.002 2.89792 -0.557208 0
M  V30 7543 H 706.083 1.73018 -1.8841 0
M  V30 7544 H 705.727 3.63224 -3.55008 0
M  V30 7545 H 705.657 4.7867 -2.19505 0
M  V30 7546 H 708.148 3.24717 -1.93306 0
M  V30 7547 H 708.461 6.2988 -4.4774 0
M  V30 7548 H 706.806 5.6687 -4.02098 0
M  V30 7549 H 709.997 3.97848 -2.46646 0
M  V30 7550 H 710.17 5.37017 -3.62652 0
M  V30 7551 N 703.576 0.692616 1.41565 0
M  V30 7552 C 704.825 0.219452 2.00503 0
M  V30 7553 C 705.138 -1.18683 1.55479 0
M  V30 7554 O 706.344 -1.75731 2.06956 0
M  V30 7555 C 704.8 0.341451 3.58277 0
M  V30 7556 C 704.408 1.75291 4.12283 0
M  V30 7557 C 706.152 -0.0720899 4.24439 0
M  V30 7558 C 704.059 1.82673 5.62481 0
M  V30 7559 H 702.989 0.0782874 0.749925 0
M  V30 7560 H 705.64 0.860386 1.62079 0
M  V30 7561 H 704.022 -0.367683 3.94289 0
M  V30 7562 H 705.196 2.49057 3.87695 0
M  V30 7563 H 703.511 2.11587 3.58636 0
M  V30 7564 H 706.108 -0.0373385 5.34687 0
M  V30 7565 H 706.451 -1.11034 4.0122 0
M  V30 7566 H 706.984 0.586663 3.9345 0
M  V30 7567 H 703.723 2.84539 5.90523 0
M  V30 7568 H 703.243 1.13288 5.89004 0
M  V30 7569 H 704.922 1.58827 6.27203 0
M  V30 7570 N 705.054 -1.51416 0.437162 0
M  V30 7571 C 706.465 -1.86682 -0.0260005 0
M  V30 7572 C 706.816 -1.35432 -1.4196 0
M  V30 7573 O 705.941 -0.705055 -2.04592 0
M  V30 7574 C 706.536 -3.38757 -0.0539577 0
M  V30 7575 C 705.095 -3.7356 -0.461532 0
M  V30 7576 C 704.242 -2.75134 0.345924 0
M  V30 7577 H 707.193 -1.44642 0.653013 0
M  V30 7578 H 707.214 -3.70573 -0.863478 0
M  V30 7579 H 706.726 -3.76028 0.96045 0
M  V30 7580 H 704.827 -3.41878 -1.48155 0
M  V30 7581 H 704.94 -4.78737 -0.186451 0
M  V30 7582 H 703.304 -2.53947 -0.195739 0
M  V30 7583 H 704.087 -3.15247 1.35921 0
M  V30 7584 N 706.532 -0.168513 -1.56696 0
M  V30 7585 C 707.948 0.187686 -1.58493 0
M  V30 7586 C 708.148 1.63063 -1.18375 0
M  V30 7587 O 707.204 2.36142 -0.894042 0
M  V30 7588 C 708.517 -0.0905858 -3.00564 0
M  V30 7589 C 710.065 -0.028575 -3.12987 0
M  V30 7590 C 710.54 -0.279799 -4.57145 0
M  V30 7591 N 712.031 -0.227476 -4.62641 0
M  V30 7592 C 712.766 -0.396073 -5.7203 0
M  V30 7593 N 712.262 -0.623572 -6.89988 0
M  V30 7594 N 714.055 -0.332173 -5.61118 0
M  V30 7595 H 706.206 -1.11042 -1.81062 0
M  V30 7596 H 708.469 -0.441235 -0.839056 0
M  V30 7597 H 708.175 -1.09006 -3.34381 0
M  V30 7598 H 708.049 0.619078 -3.72085 0
M  V30 7599 H 710.436 0.961471 -2.78998 0
M  V30 7600 H 710.517 -0.770905 -2.43907 0
M  V30 7601 H 710.161 -1.26704 -4.91842 0
M  V30 7602 H 710.091 0.48311 -5.24379 0
M  V30 7603 H 712.582 -0.0571723 -3.77857 0
M  V30 7604 H 712.895 -0.741745 -7.69232 0
M  V30 7605 H 711.24 -0.660153 -6.91858 0
M  V30 7606 H 714.431 -0.155051 -4.67843 0
M  V30 7607 H 714.604 -0.466994 -6.46315 0
M  V30 7608 N 708.01 1.57248 0.105221 0
M  V30 7609 C 709.257 1.8557 0.810552 0
M  V30 7610 C 709.585 0.755595 1.79223 0
M  V30 7611 O 708.84 -0.251788 1.94073 0
M  V30 7612 C 709.139 3.20437 1.58287 0
M  V30 7613 C 708.805 4.44716 0.744235 0
M  V30 7614 C 707.467 4.78458 0.513013 0
M  V30 7615 C 709.819 5.20953 0.160578 0
M  V30 7616 C 707.147 5.8587 -0.311894 0
M  V30 7617 C 709.499 6.29235 -0.651596 0
M  V30 7618 C 708.163 6.615 -0.893005 0
M  V30 7619 H 707.433 0.67905 0.296602 0
M  V30 7620 H 710.08 1.91363 0.0723968 0
M  V30 7621 H 708.385 3.10283 2.39232 0
M  V30 7622 H 710.082 3.39576 2.13282 0
M  V30 7623 H 706.672 4.18287 0.934555 0
M  V30 7624 H 710.856 4.95226 0.3264 0
M  V30 7625 H 706.112 6.09286 -0.508012 0
M  V30 7626 H 710.286 6.87484 -1.11077 0
M  V30 7627 H 707.913 7.44562 -1.53401 0
M  V30 7628 N 709.488 -0.375779 1.53054 0
M  V30 7629 C 710.418 -1.46598 1.81745 0
M  V30 7630 C 711.399 -1.56337 0.670286 0
M  V30 7631 O 712.584 -1.71071 0.919158 0
M  V30 7632 C 709.714 -2.84058 1.99821 0
M  V30 7633 C 708.668 -2.8915 3.15557 0
M  V30 7634 C 707.994 -4.29187 3.18908 0
M  V30 7635 C 709.294 -2.57595 4.54359 0
M  V30 7636 H 710.988 -1.22837 2.73041 0
M  V30 7637 H 708.534 -0.589485 1.31381 0
M  V30 7638 H 710.487 -3.60342 2.18475 0
M  V30 7639 H 709.211 -3.09184 1.05226 0
M  V30 7640 H 707.87 -2.15316 2.96706 0
M  V30 7641 H 707.518 -4.51374 2.2197 0
M  V30 7642 H 707.218 -4.33512 3.96662 0
M  V30 7643 H 708.742 -5.07359 3.39734 0
M  V30 7644 H 710.156 -3.23595 4.73243 0
M  V30 7645 H 708.553 -2.73252 5.34279 0
M  V30 7646 H 709.623 -1.52882 4.60169 0
M  V30 7647 N 710.966 -1.44241 -0.634997 0
M  V30 7648 C 712.191 -1.50516 -1.42687 0
M  V30 7649 C 712.616 -0.129864 -1.87651 0
M  V30 7650 O 711.974 0.880164 -1.58502 0
M  V30 7651 C 712.022 -2.4714 -2.62591 0
M  V30 7652 O 711.126 -1.97025 -3.62291 0
M  V30 7653 H 710.467 -0.50841 -0.427101 0
M  V30 7654 H 712.997 -1.89337 -0.775408 0
M  V30 7655 H 713.007 -2.65048 -3.10183 0
M  V30 7656 H 711.682 -3.47039 -2.29209 0
M  V30 7657 H 710.259 -1.88866 -3.21534 0
M  V30 7658 N 712.444 0.87505 -1.31075 0
M  V30 7659 C 713.69 1.63009 -1.20647 0
M  V30 7660 C 714.023 1.9276 0.236045 0
M  V30 7661 O 713.298 1.55559 1.16754 0
M  V30 7662 C 713.581 2.96357 -2.0456 0
M  V30 7663 C 713.434 2.73516 -3.57084 0
M  V30 7664 C 714.753 3.974 -1.89107 0
M  V30 7665 H 711.872 0.591518 -0.439631 0
M  V30 7666 H 714.514 1.0119 -1.60812 0
M  V30 7667 H 712.664 3.49119 -1.70435 0
M  V30 7668 H 714.336 2.27465 -4.01319 0
M  V30 7669 H 712.579 2.0784 -3.80769 0
M  V30 7670 H 713.25 3.68377 -4.11099 0
M  V30 7671 H 715.726 3.5383 -2.18961 0
M  V30 7672 H 714.602 4.88596 -2.5013 0
M  V30 7673 H 714.863 4.33794 -0.85296 0
M  V30 7674 N 713.922 1.13953 1.08869 0
M  V30 7675 C 714.869 0.82213 2.15661 0
M  V30 7676 C 715.839 -0.218274 1.6466 0
M  V30 7677 O 717.024 -0.0892475 1.90591 0
M  V30 7678 C 714.164 0.300572 3.43789 0
M  V30 7679 C 713.277 1.40071 4.08661 0
M  V30 7680 C 712.412 0.836897 5.24566 0
M  V30 7681 C 711.451 1.91504 5.81371 0
M  V30 7682 N 710.588 1.36875 6.88629 0
M  V30 7683 H 715.428 1.73683 2.42153 0
M  V30 7684 H 712.965 0.866879 1.18843 0
M  V30 7685 H 714.923 -0.0199943 4.17195 0
M  V30 7686 H 713.553 -0.577248 3.17597 0
M  V30 7687 H 712.605 1.83776 3.33062 0
M  V30 7688 H 713.917 2.21534 4.46905 0
M  V30 7689 H 713.071 0.467953 6.04893 0
M  V30 7690 H 711.81 -0.00874207 4.87699 0
M  V30 7691 H 710.815 2.29299 4.99702 0
M  V30 7692 H 712.04 2.76419 6.20298 0
M  V30 7693 H 709.986 0.545211 6.5373 0
M  V30 7694 H 709.903 2.1198 7.25672 0
M  V30 7695 H 711.171 1.02756 7.72698 0
M  V30 7696 N 715.4 -1.26948 0.933913 0
M  V30 7697 C 716.363 -2.24889 0.442457 0
M  V30 7698 C 717.363 -1.54594 -0.442426 0
M  V30 7699 O 718.553 -1.72502 -0.242629 0
M  V30 7700 C 715.685 -3.3896 -0.363173 0
M  V30 7701 H 716.878 -2.69879 1.30787 0
M  V30 7702 H 714.431 -1.38978 0.715187 0
M  V30 7703 H 715.166 -2.99361 -1.24714 0
M  V30 7704 H 714.951 -3.9116 0.271366 0
M  V30 7705 H 716.441 -4.11739 -0.697186 0
M  V30 7706 N 716.879 -0.700114 -1.41195 0
M  V30 7707 C 718.104 -0.240704 -2.05998 0
M  V30 7708 C 718.529 1.10313 -1.52357 0
M  V30 7709 O 717.887 1.69154 -0.652424 0
M  V30 7710 C 717.935 -0.213783 -3.59966 0
M  V30 7711 O 717.039 0.809933 -4.04368 0
M  V30 7712 H 716.38 -0.116471 -0.653705 0
M  V30 7713 H 718.91 -0.956251 -1.80878 0
M  V30 7714 H 718.92 -0.0461852 -4.07974 0
M  V30 7715 H 717.595 -1.19454 -3.98376 0
M  V30 7716 H 716.172 0.611319 -3.67855 0
M  V30 7717 N 718.357 1.51182 -0.445186 0
M  V30 7718 C 719.307 2.24804 0.380394 0
M  V30 7719 C 720.291 1.27344 0.983482 0
M  V30 7720 O 721.483 1.52392 0.900322 0
M  V30 7721 C 718.612 3.09922 1.4766 0
M  V30 7722 C 717.698 4.14816 0.882517 0
M  V30 7723 N 718.089 5.05797 0.0183278 0
M  V30 7724 C 716.387 4.30938 1.14927 0
M  V30 7725 C 717.088 5.8084 -0.316152 0
M  V30 7726 N 716.064 5.42759 0.302214 0
M  V30 7727 H 719.866 2.92508 -0.285737 0
M  V30 7728 H 717.38 1.60342 -0.257733 0
M  V30 7729 H 719.377 3.61249 2.08098 0
M  V30 7730 H 718.037 2.43763 2.14498 0
M  V30 7731 H 719.048 5.16725 -0.348679 0
M  V30 7732 H 715.725 3.76005 1.81457 0
M  V30 7733 H 717.115 6.64115 -1.01986 0
M  V30 7734 N 719.835 0.176821 1.56605 0
M  V30 7735 C 721.081 -0.467406 1.9734 0
M  V30 7736 C 721.414 -1.62523 1.06301 0
M  V30 7737 O 720.689 -1.94182 0.11125 0
M  V30 7738 C 720.972 -0.945106 3.47476 0
M  V30 7739 C 720.825 0.213273 4.49294 0
M  V30 7740 C 722.144 -1.8169 4.00845 0
M  V30 7741 H 719.263 -0.168426 0.717497 0
M  V30 7742 H 721.905 0.264065 1.88156 0
M  V30 7743 H 720.055 -1.56841 3.55434 0
M  V30 7744 H 721.727 0.850508 4.53392 0
M  V30 7745 H 719.97 0.867918 4.25029 0
M  V30 7746 H 720.641 -0.163187 5.51759 0
M  V30 7747 H 723.117 -1.29139 3.95553 0
M  V30 7748 H 721.993 -2.12015 5.06301 0
M  V30 7749 H 722.254 -2.76463 3.44994 0
M  V30 7750 N 721.313 -1.57302 -0.09688 0
M  V30 7751 C 722.243 -2.0497 -1.11846 0
M  V30 7752 C 723.224 -0.938278 -1.41882 0
M  V30 7753 O 724.409 -1.20943 -1.51942 0
M  V30 7754 C 721.539 -2.47264 -2.43881 0
M  V30 7755 C 720.493 -3.62053 -2.28257 0
M  V30 7756 C 719.819 -3.90318 -3.65453 0
M  V30 7757 C 721.119 -4.93005 -1.72461 0
M  V30 7758 H 722.813 -2.90567 -0.721888 0
M  V30 7759 H 720.359 -1.39786 -0.345803 0
M  V30 7760 H 722.312 -2.7922 -3.15617 0
M  V30 7761 H 721.036 -1.58664 -2.8547 0
M  V30 7762 H 719.695 -3.30341 -1.58967 0
M  V30 7763 H 719.343 -2.98889 -4.04567 0
M  V30 7764 H 719.043 -4.67597 -3.55846 0
M  V30 7765 H 720.567 -4.24747 -4.3866 0
M  V30 7766 H 721.981 -5.23354 -2.34036 0
M  V30 7767 H 720.378 -5.74436 -1.73618 0
M  V30 7768 H 721.448 -4.80053 -0.683898 0
M  V30 7769 N 722.791 0.367657 -1.53252 0
M  V30 7770 C 723.738 1.45028 -1.79543 0
M  V30 7771 C 724.708 1.53288 -0.63969 0
M  V30 7772 O 725.893 1.69209 -0.881653 0
M  V30 7773 C 723.033 2.82 -1.98923 0
M  V30 7774 C 722.146 2.82722 -3.26638 0
M  V30 7775 C 721.281 4.11257 -3.36216 0
M  V30 7776 C 720.32 4.06113 -4.57972 0
M  V30 7777 N 719.457 5.26293 -4.64715 0
M  V30 7778 H 724.297 1.21908 -2.71923 0
M  V30 7779 H 721.834 0.591011 -1.34705 0
M  V30 7780 H 723.792 3.61568 -2.08146 0
M  V30 7781 H 722.422 3.03523 -1.09881 0
M  V30 7782 H 721.474 1.95399 -3.26379 0
M  V30 7783 H 722.786 2.74794 -4.16281 0
M  V30 7784 H 721.94 4.99239 -3.44739 0
M  V30 7785 H 720.679 4.21935 -2.44586 0
M  V30 7786 H 719.684 3.16517 -4.49552 0
M  V30 7787 H 720.909 3.97039 -5.50942 0
M  V30 7788 H 718.855 5.37561 -3.75985 0
M  V30 7789 H 718.772 5.20526 -5.4826 0
M  V30 7790 H 720.04 6.16113 -4.77519 0
M  V30 7791 N 724.269 1.44576 0.627338 0
M  V30 7792 C 725.517 1.47267 1.38408 0
M  V30 7793 C 725.838 0.107971 1.94701 0
M  V30 7794 O 725.108 -0.860206 1.76004 0
M  V30 7795 H 723.688 0.542276 0.513756 0
M  V30 7796 H 726.35 1.80383 0.738099 0
M  V30 7797 H 725.446 2.20025 2.21349 0
M  V30 7798 N 725.747 -0.868086 1.31537 0
M  V30 7799 C 726.994 -1.62127 1.2133 0
M  V30 7800 C 727.322 -1.93158 -0.2281 0
M  V30 7801 O 726.577 -1.5632 -1.1774 0
M  V30 7802 C 726.876 -2.95889 2.0046 0
M  V30 7803 C 726.542 -2.84343 3.49943 0
M  V30 7804 C 725.204 -2.80901 3.90702 0
M  V30 7805 C 727.556 -2.71243 4.45058 0
M  V30 7806 C 724.884 -2.6222 5.24841 0
M  V30 7807 C 727.236 -2.54098 5.79325 0
M  V30 7808 C 725.9 -2.4904 6.19302 0
M  V30 7809 H 725.17 -0.593265 0.443979 0
M  V30 7810 H 727.817 -1.00803 1.62822 0
M  V30 7811 H 726.122 -3.61259 1.51655 0
M  V30 7812 H 727.819 -3.53161 1.89942 0
M  V30 7813 H 724.409 -2.8784 3.17563 0
M  V30 7814 H 728.593 -2.72956 4.14498 0
M  V30 7815 H 723.849 -2.56731 5.54887 0
M  V30 7816 H 728.023 -2.42938 6.52652 0
M  V30 7817 H 725.65 -2.34324 7.23185 0
M  V30 7818 N 727.225 -1.14528 -1.08264 0
M  V30 7819 C 728.155 -0.856356 -2.1723 0
M  V30 7820 C 729.136 0.189251 -1.69044 0
M  V30 7821 O 730.321 0.0456119 -1.94146 0
M  V30 7822 C 727.451 -0.334662 -3.45684 0
M  V30 7823 C 726.405 -1.31588 -4.0727 0
M  V30 7824 C 725.731 -0.653428 -5.30692 0
M  V30 7825 C 727.031 -2.67866 -4.48381 0
M  V30 7826 H 728.725 -1.76755 -2.41657 0
M  V30 7827 H 726.271 -0.851287 -1.16143 0
M  V30 7828 H 728.224 -0.120128 -4.21229 0
M  V30 7829 H 726.948 0.611967 -3.20815 0
M  V30 7830 H 725.607 -1.51661 -3.33758 0
M  V30 7831 H 725.255 0.299054 -5.0211 0
M  V30 7832 H 724.955 -1.30817 -5.72853 0
M  V30 7833 H 726.479 -0.448453 -6.08951 0
M  V30 7834 H 727.893 -2.51692 -5.15096 0
M  V30 7835 H 726.29 -3.29627 -5.01464 0
M  V30 7836 H 727.36 -3.24632 -3.60198 0
M  V30 7837 N 728.703 1.26451 -0.940633 0
M  V30 7838 C 729.651 2.28389 -0.440581 0
M  V30 7839 C 730.645 1.62402 0.481859 0
M  V30 7840 O 731.851 1.76361 0.360132 0
M  V30 7841 H 728.226 0.741716 -0.123938 0
M  V30 7842 H 730.197 2.67967 -1.31288 0
M  V30 7843 C 728.946 3.46576 0.279364 0
M  V30 7844 H 728.269 3.97574 -0.421274 0
M  V30 7845 H 729.709 4.19826 0.59348 0
M  V30 7846 C 728.168 3.01815 1.49697 0
M  V30 7847 O 728.698 3.06607 2.59529 0
M  V30 7848 N 726.904 2.57163 1.35334 0
M  V30 7849 H 726.451 2.53464 0.459743 0
M  V30 7850 H 726.409 2.27578 2.16923 0
M  V30 7851 N 730.181 0.707592 1.40822 0
M  V30 7852 C 731.128 0.0499029 2.30746 0
M  V30 7853 C 732.098 -0.758718 1.47759 0
M  V30 7854 O 733.283 -0.724299 1.76518 0
M  V30 7855 C 730.423 -0.871756 3.33908 0
M  V30 7856 C 729.536 -0.0534655 4.31967 0
M  V30 7857 C 728.671 -0.973869 5.22197 0
M  V30 7858 C 727.71 -0.149194 6.11918 0
M  V30 7859 N 726.847 -1.02404 6.94592 0
M  V30 7860 H 731.687 0.822461 2.86426 0
M  V30 7861 H 729.224 0.417285 1.41057 0
M  V30 7862 H 731.182 -1.42028 3.9228 0
M  V30 7863 H 729.812 -1.61058 2.7975 0
M  V30 7864 H 728.864 0.612142 3.75442 0
M  V30 7865 H 730.176 0.585354 4.95353 0
M  V30 7866 H 729.33 -1.59121 5.85462 0
M  V30 7867 H 728.069 -1.64652 4.59065 0
M  V30 7868 H 727.074 0.481137 5.47691 0
M  V30 7869 H 728.299 0.519841 6.77107 0
M  V30 7870 H 726.245 -1.6825 6.34057 0
M  V30 7871 H 726.162 -0.441076 7.54712 0
M  V30 7872 H 727.43 -1.62782 7.62314 0
M  V30 7873 N 731.66 -1.50943 0.453197 0
M  V30 7874 C 732.937 -1.94872 -0.168633 0
M  V30 7875 C 733.317 -1.39272 -1.5864 0
M  V30 7876 O 732.665 -0.586272 -2.20851 0
M  V30 7877 C 732.875 -3.48757 -0.130217 0
M  V30 7878 C 734.223 -4.23331 -0.327975 0
M  V30 7879 O 735.247 -3.55594 -0.207619 0
M  V30 7880 O 734.106 -5.43529 -0.569077 0
M  V30 7881 H 731.2 -0.818042 -0.121394 0
M  V30 7882 H 733.746 -1.61782 0.512316 0
M  V30 7883 H 732.518 -3.81725 0.860346 0
M  V30 7884 H 732.141 -3.88333 -0.853397 0
M  V30 7885 N 733.138 -0.185124 -1.56509 0
M  V30 7886 C 734.549 0.329221 -1.83774 0
M  V30 7887 C 734.9 1.62093 -1.10545 0
M  V30 7888 O 734.025 2.13334 -0.36298 0
M  V30 7889 C 734.62 0.604099 -3.33371 0
M  V30 7890 C 733.179 1.06284 -3.61083 0
M  V30 7891 C 732.326 0.10608 -2.77097 0
M  V30 7892 H 735.277 -0.409116 -1.53336 0
M  V30 7893 H 735.298 1.45458 -3.51599 0
M  V30 7894 H 734.81 -0.336201 -3.86641 0
M  V30 7895 H 732.911 2.01777 -3.13236 0
M  V30 7896 H 733.024 0.962453 -4.69333 0
M  V30 7897 H 731.388 0.606082 -2.47384 0
M  V30 7898 H 732.171 -0.828486 -3.33153 0
M  V30 7899 N 734.616 1.57351 0.0885366 0
M  V30 7900 C 735.563 2.02523 1.10693 0
M  V30 7901 C 736.533 0.902736 1.39427 0
M  V30 7902 O 737.718 1.16921 1.50779 0
M  V30 7903 C 734.858 2.46013 2.42016 0
M  V30 7904 C 733.971 3.7181 2.19957 0
M  V30 7905 C 733.106 4.04152 3.44724 0
M  V30 7906 C 732.145 5.2304 3.17956 0
M  V30 7907 N 731.282 5.51102 4.35007 0
M  V30 7908 H 736.122 2.89302 0.714742 0
M  V30 7909 H 733.659 1.43084 0.341378 0
M  V30 7910 H 735.617 2.69274 3.18665 0
M  V30 7911 H 734.247 1.62235 2.79069 0
M  V30 7912 H 733.299 3.55987 1.34079 0
M  V30 7913 H 734.611 4.58604 1.96173 0
M  V30 7914 H 733.765 4.28225 4.29777 0
M  V30 7915 H 732.504 3.15893 3.71568 0
M  V30 7916 H 731.509 4.98781 2.31296 0
M  V30 7917 H 732.734 6.12902 2.92451 0
M  V30 7918 H 730.68 4.65802 4.61914 0
M  V30 7919 H 730.597 6.3228 4.14437 0
M  V30 7920 H 731.865 5.79714 5.21106 0
M  V30 7921 N 736.094 -0.359525 1.53444 0
M  V30 7922 C 737.004 -1.46445 1.83278 0
M  V30 7923 C 738.02 -1.5833 0.721629 0
M  V30 7924 O 739.196 -1.7411 1.01231 0
M  V30 7925 C 736.261 -2.81638 2.02191 0
M  V30 7926 C 735.322 -2.7923 3.26082 0
M  V30 7927 C 734.555 -4.07974 3.44082 0
M  V30 7928 O 734.778 -5.04447 2.66251 0
M  V30 7929 O 733.712 -4.13417 4.37458 0
M  V30 7930 H 737.538 -1.24156 2.77162 0
M  V30 7931 H 735.123 -0.550201 1.389 0
M  V30 7932 H 737.005 -3.61732 2.16167 0
M  V30 7933 H 735.68 -3.03892 1.11496 0
M  V30 7934 H 734.587 -1.97813 3.17523 0
M  V30 7935 H 735.92 -2.6193 4.16718 0
M  V30 7936 N 737.572 -1.44907 -0.619662 0
M  V30 7937 C 738.988 -1.29046 -0.939107 0
M  V30 7938 C 739.188 -0.23462 -2.00129 0
M  V30 7939 O 738.244 0.37558 -2.49691 0
M  V30 7940 C 739.557 -2.66567 -1.39149 0
M  V30 7941 C 741.105 -2.74368 -1.50635 0
M  V30 7942 C 741.58 -4.12386 -1.99253 0
M  V30 7943 N 743.071 -4.1462 -2.06506 0
M  V30 7944 C 743.806 -5.18272 -2.4532 0
M  V30 7945 N 743.302 -6.32278 -2.83189 0
M  V30 7946 N 745.095 -5.05628 -2.45554 0
M  V30 7947 H 737.246 -2.12239 0.0826135 0
M  V30 7948 H 739.509 -0.947652 -0.0256829 0
M  V30 7949 H 739.215 -3.4496 -0.685254 0
M  V30 7950 H 739.089 -2.94224 -2.36034 0
M  V30 7951 H 741.476 -1.96287 -2.20353 0
M  V30 7952 H 741.557 -2.50439 -0.520963 0
M  V30 7953 H 741.201 -4.90947 -1.30127 0
M  V30 7954 H 741.131 -4.33699 -2.98684 0
M  V30 7955 H 743.622 -3.32343 -1.79878 0
M  V30 7956 H 743.935 -7.07172 -3.11652 0
M  V30 7957 H 742.28 -6.35699 -2.80913 0
M  V30 7958 H 745.471 -4.15613 -2.15367 0
M  V30 7959 H 745.644 -5.86529 -2.75478 0
M  V30 7960 N 739.05 0.861098 -1.31996 0
M  V30 7961 C 739.98 1.98482 -1.22993 0
M  V30 7962 C 740.961 1.6971 -0.115168 0
M  V30 7963 O 742.146 1.91849 -0.30126 0
M  V30 7964 C 739.276 3.34179 -0.945615 0
M  V30 7965 C 738.23 3.77284 -2.02091 0
M  V30 7966 C 737.556 5.1054 -1.58912 0
M  V30 7967 C 738.856 3.93439 -3.43515 0
M  V30 7968 H 740.55 2.06271 -2.17008 0
M  V30 7969 H 738.096 0.991043 -1.04472 0
M  V30 7970 H 740.049 4.12338 -0.869206 0
M  V30 7971 H 738.773 3.26586 0.0301849 0
M  V30 7972 H 737.432 3.01371 -2.08737 0
M  V30 7973 H 737.08 4.99397 -0.600942 0
M  V30 7974 H 736.78 5.40352 -2.30854 0
M  V30 7975 H 738.304 5.91199 -1.52696 0
M  V30 7976 H 739.718 4.6197 -3.39495 0
M  V30 7977 H 738.115 4.34661 -4.13751 0
M  V30 7978 H 739.185 2.96548 -3.8365 0
M  V30 7979 N 740.528 1.15101 1.07655 0
M  V30 7980 C 741.776 0.922149 1.79836 0
M  V30 7981 C 742.097 -0.552346 1.87014 0
M  V30 7982 O 741.367 -1.40145 1.3688 0
M  V30 7983 H 739.947 0.338182 0.666064 0
M  V30 7984 H 742.609 1.45107 1.30115 0
M  V30 7985 H 741.705 1.32883 2.82398 0
M  V30 7986 N 742.006 -1.2595 0.947325 0
M  V30 7987 C 743.246 -1.95218 0.605743 0
M  V30 7988 C 743.61 -1.72624 -0.84054 0
M  V30 7989 O 744.811 -2.35748 -1.29136 0
M  V30 7990 C 743.082 -3.44654 0.94596 0
M  V30 7991 S 744.641 -4.32922 0.715849 0
M  V30 7992 H 741.459 -0.675159 0.222894 0
M  V30 7993 H 744.061 -1.52766 1.21995 0
M  V30 7994 H 742.765 -3.586 1.99585 0
M  V30 7995 H 742.296 -3.92082 0.321718 0
M  V30 7996 H 744.311 -4.94445 -0.416959 0
M  V30 7997 N 743.484 -0.715051 -1.40445 0
M  V30 7998 C 744.9 -0.388555 -1.54798 0
M  V30 7999 C 745.1 1.10271 -1.68649 0
M  V30 8000 O 744.156 1.88875 -1.67578 0
M  V30 8001 C 745.469 -1.15414 -2.77669 0
M  V30 8002 C 747.017 -1.14039 -2.91486 0
M  V30 8003 C 747.492 -1.88812 -4.1727 0
M  V30 8004 N 748.983 -1.85878 -4.24268 0
M  V30 8005 C 749.718 -2.40558 -5.20499 0
M  V30 8006 N 749.214 -3.03791 -6.22642 0
M  V30 8007 N 751.007 -2.30703 -5.12574 0
M  V30 8008 H 743.158 -1.68201 -1.297 0
M  V30 8009 H 745.421 -0.710915 -0.627139 0
M  V30 8010 H 745.127 -2.20853 -2.7371 0
M  V30 8011 H 745.001 -0.745412 -3.69761 0
M  V30 8012 H 747.388 -0.0941996 -2.9495 0
M  V30 8013 H 747.469 -1.58834 -2.00513 0
M  V30 8014 H 747.113 -2.93422 -4.14568 0
M  V30 8015 H 747.043 -1.41438 -5.0725 0
M  V30 8016 H 749.534 -1.39794 -3.51093 0
M  V30 8017 H 749.847 -3.43032 -6.92495 0
M  V30 8018 H 748.192 -3.07875 -6.23087 0
M  V30 8019 H 751.383 -1.80961 -4.31707 0
M  V30 8020 H 751.556 -2.73618 -5.87398 0
M  V30 8021 N 744.962 1.50701 -0.461195 0
M  V30 8022 C 746.373 1.867 -0.00370227 0
M  V30 8023 C 746.724 1.37673 1.39787 0
M  V30 8024 O 745.849 0.737515 2.03445 0
M  V30 8025 C 746.444 3.388 5.75786e-05 0
M  V30 8026 C 745.003 3.74247 0.402044 0
M  V30 8027 C 744.15 2.74549 -0.389652 0
M  V30 8028 H 747.101 1.43585 -0.675942 0
M  V30 8029 H 747.122 3.719 0.804414 0
M  V30 8030 H 746.634 3.74452 -1.02015 0
M  V30 8031 H 744.735 3.44192 1.42697 0
M  V30 8032 H 744.848 4.78973 0.110265 0
M  V30 8033 H 743.212 2.54226 0.155314 0
M  V30 8034 H 743.995 3.13044 -1.40919 0
M  V30 8035 N 746.441 0.193421 1.56409 0
M  V30 8036 C 747.373 -0.759944 2.16235 0
M  V30 8037 C 748.386 -1.17797 1.12373 0
M  V30 8038 O 749.575 -1.11399 1.39472 0
M  V30 8039 C 746.675 -2.03735 2.70823 0
M  V30 8040 C 745.848 -1.77939 3.9957 0
M  V30 8041 C 744.907 -2.90111 4.39001 0
M  V30 8042 O 743.933 -2.59791 5.06456 0
M  V30 8043 N 745.135 -4.18426 4.02368 0
M  V30 8044 H 747.9 -0.248348 2.98669 0
M  V30 8045 H 745.461 0.0113966 1.61896 0
M  V30 8046 H 747.453 -2.77914 2.94187 0
M  V30 8047 H 746.023 -2.46022 1.92852 0
M  V30 8048 H 745.243 -0.875491 3.84355 0
M  V30 8049 H 746.531 -1.58099 4.83614 0
M  V30 8050 H 745.929 -4.45913 3.48106 0
M  V30 8051 H 744.486 -4.89237 4.30686 0
M  V30 8052 N 747.919 -1.57396 -0.0801906 0
M  V30 8053 C 749.147 -1.91055 -0.794075 0
M  V30 8054 C 749.562 -0.788583 -1.71542 0
M  V30 8055 O 748.919 0.238587 -1.80934 0
M  V30 8056 C 748.97 -3.24418 -1.59484 0
M  V30 8057 O 748.691 -4.323 -0.710532 0
M  V30 8058 C 750.192 -3.72037 -2.41046 0
M  V30 8059 H 747.412 -0.63171 -0.226238 0
M  V30 8060 H 749.956 -2.04431 -0.0529685 0
M  V30 8061 H 748.111 -3.12595 -2.2883 0
M  V30 8062 H 748.525 -5.08976 -1.26663 0
M  V30 8063 H 749.999 -4.68006 -2.92702 0
M  V30 8064 H 750.476 -3.00624 -3.2019 0
M  V30 8065 H 751.082 -3.86777 -1.76871 0
M  V30 8066 N 749.397 0.351382 -1.53633 0
M  V30 8067 C 750.645 1.09034 -1.70165 0
M  V30 8068 C 750.966 1.89413 -0.463422 0
M  V30 8069 O 750.236 1.888 0.522624 0
M  V30 8070 H 748.816 0.405522 -0.627344 0
M  V30 8071 H 751.478 0.394554 -1.90865 0
M  V30 8072 H 750.574 1.77215 -2.56907 0
M  V30 8073 N 750.875 1.45233 0.611969 0
M  V30 8074 C 752.122 1.49021 1.37109 0
M  V30 8075 C 752.45 0.130227 1.94064 0
M  V30 8076 O 751.705 -0.870551 1.75271 0
M  V30 8077 C 752.004 2.51353 2.54079 0
M  V30 8078 C 751.67 3.96178 2.15299 0
M  V30 8079 C 750.332 4.35614 2.04436 0
M  V30 8080 C 752.684 4.87275 1.84966 0
M  V30 8081 C 750.012 5.64047 1.61456 0
M  V30 8082 C 752.364 6.16115 1.43474 0
M  V30 8083 C 751.028 6.54486 1.31167 0
M  V30 8084 H 750.298 0.545307 0.501719 0
M  V30 8085 H 752.945 1.78555 0.692122 0
M  V30 8086 H 751.25 2.15372 3.27295 0
M  V30 8087 H 752.947 2.51523 3.12309 0
M  V30 8088 H 749.537 3.6499 2.24678 0
M  V30 8089 H 753.721 4.57548 1.92258 0
M  V30 8090 H 748.977 5.92575 1.50547 0
M  V30 8091 H 753.151 6.86149 1.19048 0
M  V30 8092 H 750.778 7.53904 0.97637 0
M  V30 8093 N 752.353 -0.854086 1.3245 0
M  V30 8094 C 753.578 -1.64597 1.26185 0
M  V30 8095 C 754.003 -1.87357 -0.167074 0
M  V30 8096 O 753.361 -1.42675 -1.11864 0
M  V30 8097 C 753.409 -2.98213 2.02734 0
M  V30 8098 O 752.513 -3.88784 1.37554 0
M  V30 8099 H 751.854 -0.50179 0.434859 0
M  V30 8100 H 754.384 -1.06372 1.74775 0
M  V30 8101 H 754.394 -3.4803 2.1293 0
M  V30 8102 H 753.069 -2.80969 3.06642 0
M  V30 8103 H 751.646 -3.4725 1.3591 0
M  V30 8104 N 753.831 -1.1567 -1.07043 0
M  V30 8105 C 755.108 -0.843948 -1.76456 0
M  V30 8106 C 755.488 0.659806 -2.00524 0
M  V30 8107 O 754.836 1.60518 -1.62623 0
M  V30 8108 C 755.046 -1.65822 -3.0709 0
M  V30 8109 C 756.394 -1.8664 -3.8138 0
M  V30 8110 O 757.418 -1.62624 -3.1691 0
M  V30 8111 O 756.277 -2.26884 -4.97178 0
M  V30 8112 H 753.371 -0.310677 -0.766426 0
M  V30 8113 H 755.917 -1.26266 -1.1338 0
M  V30 8114 H 754.689 -2.67902 -2.85209 0
M  V30 8115 H 754.312 -1.23605 -3.77899 0
M  V30 8116 N 755.309 1.25446 -0.953992 0
M  V30 8117 C 756.558 1.92441 -0.604101 0
M  V30 8118 C 756.871 1.75543 0.862796 0
M  V30 8119 O 758.077 2.37106 1.32262 0
M  V30 8120 C 756.533 3.44854 -1.02974 0
M  V30 8121 C 756.141 3.70464 -2.51914 0
M  V30 8122 C 757.885 4.1778 -0.752352 0
M  V30 8123 C 755.792 5.1638 -2.88281 0
M  V30 8124 H 754.722 0.720508 -0.222227 0
M  V30 8125 H 757.373 1.42318 -1.15836 0
M  V30 8126 H 755.755 3.93935 -0.403904 0
M  V30 8127 H 756.929 3.32038 -3.19511 0
M  V30 8128 H 755.244 3.10797 -2.77117 0
M  V30 8129 H 757.841 5.25261 -1.00024 0
M  V30 8130 H 758.184 4.15135 0.311212 0
M  V30 8131 H 758.717 3.74605 -1.33851 0
M  V30 8132 H 755.456 5.24135 -3.93653 0
M  V30 8133 H 754.976 5.55855 -2.25357 0
M  V30 8134 H 756.655 5.84497 -2.77439 0
M  V30 8135 N 756.787 0.722489 1.40064 0
M  V30 8136 C 757.734 0.0743738 2.3068 0
M  V30 8137 C 758.704 -0.743004 1.48555 0
M  V30 8138 O 759.889 -0.705536 1.77276 0
M  V30 8139 C 757.029 -0.836292 3.34814 0
M  V30 8140 C 756.142 -0.00764663 4.31999 0
M  V30 8141 C 755.277 -0.918428 5.232 0
M  V30 8142 C 754.316 -0.0842838 6.12042 0
M  V30 8143 N 753.453 -0.950316 6.95639 0
M  V30 8144 H 758.293 0.852794 2.85537 0
M  V30 8145 H 755.83 0.432222 1.40607 0
M  V30 8146 H 757.788 -1.3786 3.93765 0
M  V30 8147 H 756.418 -1.58082 2.81443 0
M  V30 8148 H 755.47 0.651928 3.74772 0
M  V30 8149 H 756.782 0.63786 4.94705 0
M  V30 8150 H 755.936 -1.52902 5.87116 0
M  V30 8151 H 754.675 -1.59774 4.60786 0
M  V30 8152 H 753.68 0.5392 5.4715 0
M  V30 8153 H 754.905 0.591628 6.76518 0
M  V30 8154 H 752.851 -1.61515 6.35806 0
M  V30 8155 H 752.768 -0.361004 7.55138 0
M  V30 8156 H 754.036 -1.54687 7.63997 0
M  V30 8157 N 758.265 -1.50454 0.469181 0
M  V30 8158 C 759.49 -2.0722 -0.0864892 0
M  V30 8159 C 759.915 -1.33098 -1.32916 0
M  V30 8160 O 759.273 -0.378084 -1.77314 0
M  V30 8161 C 759.321 -3.58845 -0.355384 0
M  V30 8162 O 758.425 -3.86583 -1.43622 0
M  V30 8163 H 757.766 -0.663889 0.0121414 0
M  V30 8164 H 760.296 -1.93674 0.659674 0
M  V30 8165 H 760.306 -4.03617 -0.596447 0
M  V30 8166 H 758.981 -4.12211 0.552698 0
M  V30 8167 H 757.558 -3.5365 -1.18262 0
M  V30 8168 N 759.743 -0.201713 -1.56304 0
M  V30 8169 C 760.693 0.729444 -2.16016 0
M  V30 8170 C 761.677 1.17164 -1.10279 0
M  V30 8171 O 762.869 1.12893 -1.36324 0
M  V30 8172 C 759.998 1.94594 -2.82822 0
M  V30 8173 C 759.084 1.52434 -3.95758 0
M  V30 8174 N 759.475 0.814106 -4.99205 0
M  V30 8175 C 757.773 1.81314 -4.07481 0
M  V30 8176 C 758.474 0.601896 -5.78578 0
M  V30 8177 N 757.45 1.15263 -5.3124 0
M  V30 8178 H 761.252 0.178163 -2.93359 0
M  V30 8179 H 758.766 -0.00218038 -1.624 0
M  V30 8180 H 760.763 2.62357 -3.23998 0
M  V30 8181 H 759.423 2.50188 -2.06969 0
M  V30 8182 H 760.434 0.468872 -5.15773 0
M  V30 8183 H 757.111 2.3837 -3.42762 0
M  V30 8184 H 758.501 0.0380119 -6.71889 0
M  V30 8185 N 761.222 1.57436 0.0718424 0
M  V30 8186 C 762.185 2.02703 1.06977 0
M  V30 8187 C 763.185 0.924062 1.31597 0
M  V30 8188 O 764.375 1.18894 1.27318 0
M  V30 8189 C 761.507 2.40763 2.41342 0
M  V30 8190 H 762.7 2.92098 0.679619 0
M  V30 8191 H 760.253 1.5304 0.317565 0
M  V30 8192 H 760.988 1.54394 2.8519 0
M  V30 8193 H 760.773 3.21249 2.24814 0
M  V30 8194 H 762.263 2.76361 3.13073 0
M  V30 8195 N 762.7 -0.34323 1.53817 0
M  V30 8196 C 763.947 -1.08344 1.71079 0
M  V30 8197 C 764.275 -1.88633 0.474133 0
M  V30 8198 O 763.53 -1.87984 -0.544116 0
M  V30 8199 C 763.829 -2.05195 2.92626 0
M  V30 8200 C 763.495 -1.41215 4.28216 0
M  V30 8201 C 762.157 -1.23495 4.65083 0
M  V30 8202 C 764.509 -0.951273 5.12445 0
M  V30 8203 C 761.837 -0.583065 5.83796 0
M  V30 8204 C 764.189 -0.313292 6.31824 0
M  V30 8205 C 762.853 -0.123779 6.67385 0
M  V30 8206 H 762.123 -0.396458 0.626021 0
M  V30 8207 H 764.77 -0.362689 1.88034 0
M  V30 8208 H 763.075 -2.83653 2.70275 0
M  V30 8209 H 764.772 -2.62462 3.03175 0
M  V30 8210 H 761.362 -1.56005 3.992 0
M  V30 8211 H 765.546 -1.07602 4.84495 0
M  V30 8212 H 760.802 -0.424854 6.09922 0
M  V30 8213 H 764.976 0.0519179 6.96381 0
M  V30 8214 H 762.603 0.383398 7.59233 0
M  V30 8215 N 764.178 -1.45556 -0.604258 0
M  V30 8216 C 765.425 -1.49746 -1.36317 0
M  V30 8217 C 765.753 -0.140516 -1.93992 0
M  V30 8218 O 765.008 0.861244 -1.7573 0
M  V30 8219 C 765.307 -2.52697 -2.52743 0
M  V30 8220 C 764.973 -3.97315 -2.13195 0
M  V30 8221 C 763.635 -4.36692 -2.02123 0
M  V30 8222 C 765.987 -4.88249 -1.8238 0
M  V30 8223 C 763.315 -5.64895 -1.58463 0
M  V30 8224 C 765.667 -6.16867 -1.40205 0
M  V30 8225 C 764.331 -6.55172 -1.27694 0
M  V30 8226 H 763.601 -0.54796 -0.49882 0
M  V30 8227 H 766.248 -1.7892 -0.682643 0
M  V30 8228 H 764.553 -2.17105 -3.26148 0
M  V30 8229 H 766.25 -2.53176 -3.10971 0
M  V30 8230 H 762.84 -3.66176 -2.22739 0
M  V30 8231 H 767.024 -4.58561 -1.89829 0
M  V30 8232 H 762.28 -5.93365 -1.47402 0
M  V30 8233 H 766.454 -6.86771 -1.15408 0
M  V30 8234 H 764.081 -7.54411 -0.936375 0
M  V30 8235 N 765.656 0.84705 -1.32902 0
M  V30 8236 C 767.072 1.13645 -1.12058 0
M  V30 8237 C 767.272 2.01281 0.093937 0
M  V30 8238 O 766.328 2.4026 0.776608 0
M  V30 8239 C 767.641 1.80644 -2.40392 0
M  V30 8240 C 769.189 1.93246 -2.46221 0
M  V30 8241 C 769.664 2.6366 -3.74496 0
M  V30 8242 N 771.155 2.71179 -3.75521 0
M  V30 8243 C 771.89 3.26332 -4.71482 0
M  V30 8244 N 771.386 3.82236 -5.77813 0
M  V30 8245 N 773.179 3.24507 -4.58968 0
M  V30 8246 H 765.33 0.263612 -2.10758 0
M  V30 8247 H 767.593 0.17944 -0.930863 0
M  V30 8248 H 767.299 1.23708 -3.29225 0
M  V30 8249 H 767.173 2.80736 -2.51926 0
M  V30 8250 H 769.56 2.49338 -1.57843 0
M  V30 8251 H 769.641 0.921272 -2.38634 0
M  V30 8252 H 769.285 2.08229 -4.63253 0
M  V30 8253 H 769.215 3.65234 -3.79357 0
M  V30 8254 H 771.706 2.31527 -2.9867 0
M  V30 8255 H 772.019 4.22499 -6.47082 0
M  V30 8256 H 770.364 3.80546 -5.81558 0
M  V30 8257 H 773.555 2.80085 -3.7506 0
M  V30 8258 H 773.728 3.67188 -5.33926 0
M  V30 8259 N 767.134 1.16236 1.06428 0
M  V30 8260 C 768.359 0.967688 1.83441 0
M  V30 8261 C 768.784 -0.479167 1.81894 0
M  V30 8262 O 768.142 -1.34224 1.21875 0
M  V30 8263 C 768.19 1.49806 3.2801 0
M  V30 8264 O 767.294 0.703481 4.06356 0
M  V30 8265 H 766.635 0.344468 0.56766 0
M  V30 8266 H 769.165 1.54442 1.34197 0
M  V30 8267 H 769.175 1.51495 3.78831 0
M  V30 8268 H 767.85 2.55133 3.2845 0
M  V30 8269 H 766.427 0.756986 3.65136 0
M  V30 8270 N 768.612 -1.24939 0.960631 0
M  V30 8271 C 769.861 -1.92118 0.614298 0
M  V30 8272 C 770.174 -1.75998 -0.853474 0
M  V30 8273 O 771.38 -2.37804 -1.31003 0
M  V30 8274 C 769.836 -3.44303 1.04801 0
M  V30 8275 C 769.444 -3.69123 2.53875 0
M  V30 8276 C 771.188 -4.17375 0.774497 0
M  V30 8277 C 769.095 -5.14843 2.91016 0
M  V30 8278 H 768.025 -0.719319 0.226045 0
M  V30 8279 H 770.676 -1.41701 1.16589 0
M  V30 8280 H 769.058 -3.93715 0.42479 0
M  V30 8281 H 770.232 -3.30339 3.21267 0
M  V30 8282 H 768.547 -3.09323 2.78762 0
M  V30 8283 H 771.144 -5.24723 1.02808 0
M  V30 8284 H 771.487 -4.15294 -0.289192 0
M  V30 8285 H 772.02 -3.7389 1.35835 0
M  V30 8286 H 768.759 -5.2204 3.96427 0
M  V30 8287 H 768.279 -5.54652 2.28302 0
M  V30 8288 H 769.958 -5.83017 2.80535 0
M  V30 8289 N 770.09 -0.729906 -1.39679 0
M  V30 8290 C 771.367 -0.202149 -1.94553 0
M  V30 8291 C 771.747 1.29507 -1.66707 0
M  V30 8292 O 771.095 2.05819 -0.992517 0
M  V30 8293 C 771.305 -0.530279 -3.44948 0
M  V30 8294 C 772.653 -0.476808 -4.21914 0
M  V30 8295 O 773.677 -0.467171 -3.53123 0
M  V30 8296 O 772.536 -0.466869 -5.44502 0
M  V30 8297 H 769.63 -0.0351644 -0.826252 0
M  V30 8298 H 772.176 -0.808417 -1.49207 0
M  V30 8299 H 770.948 -1.56526 -3.5863 0
M  V30 8300 H 770.571 0.10522 -3.97461 0
M  V30 8301 N 771.568 1.50203 -0.477153 0
M  V30 8302 C 772.814 2.03286 0.0679442 0
M  V30 8303 C 773.169 1.35227 1.36863 0
M  V30 8304 O 772.462 0.471029 1.8572 0
M  V30 8305 C 772.656 3.56127 0.301325 0
M  V30 8306 C 772.485 4.38999 -0.975188 0
M  V30 8307 C 771.255 4.81889 -1.52022 0
M  V30 8308 C 773.453 4.79013 -1.8722 0
M  V30 8309 N 771.435 5.49105 -2.74513 0
M  V30 8310 C 772.806 5.45701 -2.94296 0
M  V30 8311 C 774.861 4.60967 -1.88185 0
M  V30 8312 C 773.564 5.96255 -4.02333 0
M  V30 8313 C 775.59 5.12466 -2.95183 0
M  V30 8314 C 774.952 5.79134 -4.00977 0
M  V30 8315 H 771.051 0.78185 -0.015318 0
M  V30 8316 H 773.635 1.83646 -0.64671 0
M  V30 8317 H 771.806 3.75702 0.985021 0
M  V30 8318 H 773.538 3.95859 0.841304 0
M  V30 8319 H 770.293 4.61387 -1.06858 0
M  V30 8320 H 770.717 5.87315 -3.36734 0
M  V30 8321 H 775.359 4.0885 -1.07708 0
M  V30 8322 H 773.077 6.47406 -4.83623 0
M  V30 8323 H 776.663 5.00329 -2.96921 0
M  V30 8324 H 775.543 6.18265 -4.82409 0
M  V30 8325 N 773.046 0.209999 1.56195 0
M  V30 8326 C 774.323 -0.473214 1.89789 0
M  V30 8327 C 774.703 -1.78581 1.1257 0
M  V30 8328 O 774.051 -2.27325 0.231398 0
M  V30 8329 C 774.261 -0.677458 3.42362 0
M  V30 8330 C 775.609 -0.990114 4.12895 0
M  V30 8331 O 776.633 -0.764655 3.47896 0
M  V30 8332 O 775.492 -1.41737 5.278 0
M  V30 8333 H 772.586 -0.248622 0.788743 0
M  V30 8334 H 775.132 0.251324 1.67829 0
M  V30 8335 H 773.904 0.248878 3.90508 0
M  V30 8336 H 773.527 -1.45391 3.70064 0
M  V30 8337 N 774.524 -1.57472 -0.0634922 0
M  V30 8338 C 775.454 -2.07297 -1.07473 0
M  V30 8339 C 776.435 -0.968162 -1.39859 0
M  V30 8340 O 777.62 -1.24139 -1.49343 0
M  V30 8341 C 774.75 -2.52381 -2.38581 0
M  V30 8342 C 773.704 -3.66813 -2.20526 0
M  V30 8343 C 773.03 -3.97982 -3.57092 0
M  V30 8344 C 774.33 -4.96553 -1.61965 0
M  V30 8345 H 776.024 -2.92033 -0.660092 0
M  V30 8346 H 773.57 -1.40488 -0.316074 0
M  V30 8347 H 775.523 -2.85852 -3.09624 0
M  V30 8348 H 774.247 -1.64684 -2.8204 0
M  V30 8349 H 772.906 -3.33639 -1.51924 0
M  V30 8350 H 772.554 -3.07403 -3.98136 0
M  V30 8351 H 772.254 -4.7504 -3.45848 0
M  V30 8352 H 773.778 -4.33956 -4.29552 0
M  V30 8353 H 775.192 -5.28201 -2.22883 0
M  V30 8354 H 773.589 -5.7799 -1.61394 0
M  V30 8355 H 774.659 -4.81396 -0.581918 0
M  V30 8356 N 776.003 0.335068 -1.53997 0
M  V30 8357 C 776.933 1.41727 -1.85568 0
M  V30 8358 C 777.914 1.54505 -0.7115 0
M  V30 8359 O 779.099 1.68573 -0.964191 0
M  V30 8360 C 776.229 2.7866 -2.07282 0
M  V30 8361 C 775.183 2.80682 -3.23112 0
M  V30 8362 C 774.509 4.20581 -3.30175 0
M  V30 8363 C 775.809 2.45458 -4.61029 0
M  V30 8364 H 777.503 1.15555 -2.76202 0
M  V30 8365 H 775.049 0.554445 -1.32898 0
M  V30 8366 H 777.002 3.54423 -2.27952 0
M  V30 8367 H 775.726 3.06286 -1.13387 0
M  V30 8368 H 774.385 2.07373 -3.02311 0
M  V30 8369 H 774.033 4.4533 -2.33859 0
M  V30 8370 H 773.733 4.22843 -4.08016 0
M  V30 8371 H 775.257 4.98174 -3.53066 0
M  V30 8372 H 776.671 3.10934 -4.81656 0
M  V30 8373 H 775.068 2.5899 -5.41336 0
M  V30 8374 H 776.138 1.40628 -4.6406 0
M  V30 8375 N 777.481 1.45874 0.596531 0
M  V30 8376 C 778.391 1.57947 1.73464 0
M  V30 8377 C 779.407 0.463461 1.67714 0
M  V30 8378 O 780.583 0.725685 1.87872 0
M  V30 8379 C 777.648 1.55348 3.09948 0
M  V30 8380 C 776.709 2.78074 3.27068 0
M  V30 8381 C 775.942 2.75589 4.57041 0
M  V30 8382 O 776.165 1.83545 5.40063 0
M  V30 8383 O 775.099 3.66945 4.77111 0
M  V30 8384 H 778.925 2.54169 1.66228 0
M  V30 8385 H 776.51 1.2851 0.76194 0
M  V30 8386 H 778.392 1.56545 3.91244 0
M  V30 8387 H 777.067 0.622811 3.17652 0
M  V30 8388 H 775.974 2.82435 2.45319 0
M  V30 8389 H 777.307 3.70303 3.24248 0
M  V30 8390 N 778.959 -0.83999 1.33349 0
M  V30 8391 C 779.906 -1.94972 1.23509 0
M  V30 8392 C 780.876 -1.65709 0.113967 0
M  V30 8393 O 782.061 -1.88552 0.292045 0
M  V30 8394 C 779.201 -3.30919 0.979105 0
M  V30 8395 C 778.314 -3.72587 2.18639 0
M  V30 8396 C 777.449 -4.97397 1.86465 0
M  V30 8397 C 776.488 -5.31597 3.03432 0
M  V30 8398 N 775.625 -6.47584 2.71254 0
M  V30 8399 H 780.465 -2.0272 2.18423 0
M  V30 8400 H 778.002 -0.992017 1.08616 0
M  V30 8401 H 779.96 -4.09239 0.811126 0
M  V30 8402 H 778.59 -3.22731 0.0667099 0
M  V30 8403 H 777.642 -2.89799 2.46416 0
M  V30 8404 H 778.954 -3.93844 3.06086 0
M  V30 8405 H 778.108 -5.83462 1.66305 0
M  V30 8406 H 776.847 -4.78107 0.96254 0
M  V30 8407 H 775.852 -4.44037 3.24208 0
M  V30 8408 H 777.077 -5.52836 3.94397 0
M  V30 8409 H 775.023 -6.29783 1.836 0
M  V30 8410 H 774.94 -6.68931 3.52231 0
M  V30 8411 H 776.208 -7.36764 2.54558 0
M  V30 8412 N 780.437 -1.16799 -1.0581 0
M  V30 8413 C 781.384 -0.87902 -2.13405 0
M  V30 8414 C 782.354 0.174541 -1.6518 0
M  V30 8415 O 783.539 0.0386843 -1.90761 0
M  V30 8416 C 780.679 -0.391616 -3.42871 0
M  V30 8417 C 779.792 -1.50857 -4.04804 0
M  V30 8418 C 778.927 -0.975682 -5.22163 0
M  V30 8419 C 777.966 -2.06851 -5.76089 0
M  V30 8420 N 777.103 -1.55085 -6.84758 0
M  V30 8421 H 781.943 -1.80043 -2.37463 0
M  V30 8422 H 779.48 -0.898083 -1.16503 0
M  V30 8423 H 781.438 -0.0906247 -4.17102 0
M  V30 8424 H 780.068 0.49284 -3.19016 0
M  V30 8425 H 779.12 -1.92542 -3.28073 0
M  V30 8426 H 780.432 -2.33305 -4.40874 0
M  V30 8427 H 779.586 -0.628165 -6.03439 0
M  V30 8428 H 778.325 -0.120566 -4.87551 0
M  V30 8429 H 777.33 -2.42467 -4.93447 0
M  V30 8430 H 778.555 -2.92768 -6.12751 0
M  V30 8431 H 776.501 -0.718345 -6.52055 0
M  V30 8432 H 776.418 -2.31145 -7.19797 0
M  V30 8433 H 777.686 -1.23206 -7.69702 0
M  V30 8434 N 781.915 1.24427 -0.967243 0
M  V30 8435 C 782.847 2.24641 -0.454856 0
M  V30 8436 C 783.86 1.56849 0.436152 0
M  V30 8437 O 785.049 1.76846 0.242401 0
M  V30 8438 C 782.149 3.36954 0.362672 0
M  V30 8439 C 781.322 4.34318 -0.518324 0
M  V30 8440 C 780.381 5.25638 0.243122 0
M  V30 8441 O 779.407 5.68043 -0.362791 0
M  V30 8442 N 780.609 5.59897 1.53282 0
M  V30 8443 H 783.374 2.69238 -1.31648 0
M  V30 8444 H 780.935 1.38464 -0.839015 0
M  V30 8445 H 782.927 3.95014 0.880094 0
M  V30 8446 H 781.497 2.91646 1.12522 0
M  V30 8447 H 780.717 3.74953 -1.21672 0
M  V30 8448 H 782.005 4.96338 -1.11919 0
M  V30 8449 H 781.403 5.27373 2.04682 0
M  V30 8450 H 779.96 6.20488 1.99594 0
M  V30 8451 N 783.393 0.737304 1.3929 0
M  V30 8452 C 784.356 0.10731 2.28949 0
M  V30 8453 C 785.356 -0.664716 1.46418 0
M  V30 8454 O 786.546 -0.493392 1.67067 0
M  V30 8455 C 783.678 -0.857145 3.29948 0
M  V30 8456 H 784.871 0.89725 2.86163 0
M  V30 8457 H 782.424 0.503279 1.47976 0
M  V30 8458 H 783.159 -1.67336 2.77794 0
M  V30 8459 H 782.944 -0.306167 3.90903 0
M  V30 8460 H 784.434 -1.29444 3.97031 0
M  V30 8461 N 784.871 -1.49948 0.485112 0
M  V30 8462 C 785.801 -2.31675 -0.291364 0
M  V30 8463 C 786.782 -1.39216 -0.977383 0
M  V30 8464 O 787.967 -1.68133 -0.971855 0
M  V30 8465 C 785.097 -3.19326 -1.36558 0
M  V30 8466 C 784.051 -4.2045 -0.800359 0
M  V30 8467 C 783.377 -4.96931 -1.97391 0
M  V30 8468 C 784.677 -5.21925 0.197867 0
M  V30 8469 H 786.371 -2.96839 0.390775 0
M  V30 8470 H 783.917 -1.42749 0.189375 0
M  V30 8471 H 785.87 -3.75304 -1.91638 0
M  V30 8472 H 784.594 -2.52074 -2.07668 0
M  V30 8473 H 783.253 -3.65594 -0.271428 0
M  V30 8474 H 782.901 -4.26141 -2.67232 0
M  V30 8475 H 782.601 -5.65344 -1.60187 0
M  V30 8476 H 784.125 -5.55749 -2.52935 0
M  V30 8477 H 785.539 -5.72691 -0.264239 0
M  V30 8478 H 783.936 -5.98138 0.484908 0
M  V30 8479 H 785.006 -4.71809 1.11912 0
M  V30 8480 N 786.349 -0.21828 -1.56081 0
M  V30 8481 C 787.76 0.290166 -1.84431 0
M  V30 8482 C 788.111 1.59712 -1.13958 0
M  V30 8483 O 787.236 2.12516 -0.40815 0
M  V30 8484 C 787.831 0.53325 -3.34577 0
M  V30 8485 C 786.39 0.986011 -3.63256 0
M  V30 8486 C 785.537 0.0472798 -2.7726 0
M  V30 8487 H 788.488 -0.441548 -1.52434 0
M  V30 8488 H 788.509 1.37967 -3.54606 0
M  V30 8489 H 788.021 -0.418137 -3.85841 0
M  V30 8490 H 786.122 1.95087 -3.17446 0
M  V30 8491 H 786.235 0.862684 -4.71269 0
M  V30 8492 H 784.599 0.553471 -2.48614 0
M  V30 8493 H 785.382 -0.898966 -3.31321 0
M  V30 8494 N 787.827 1.57504 0.0551401 0
M  V30 8495 C 789.238 1.76626 0.604979 0
M  V30 8496 C 789.589 0.845978 1.77024 0
M  V30 8497 O 788.714 0.0341936 2.16373 0
M  V30 8498 C 789.309 3.203 1.10425 0
M  V30 8499 C 787.868 3.4071 1.59981 0
M  V30 8500 C 787.015 2.72258 0.526414 0
M  V30 8501 H 789.966 1.57775 -0.171072 0
M  V30 8502 H 789.987 3.25377 1.97256 0
M  V30 8503 H 789.499 3.87255 0.255939 0
M  V30 8504 H 787.6 2.78892 2.47083 0
M  V30 8505 H 787.713 4.49227 1.66528 0
M  V30 8506 H 786.077 2.35283 0.97539 0
M  V30 8507 H 786.86 3.41879 -0.311991 0
M  V30 8508 N 789.305 -0.326896 1.54172 0
M  V30 8509 C 790.552 -1.06523 1.72218 0
M  V30 8510 C 790.88 -1.88119 0.494114 0
M  V30 8511 O 790.135 -1.8855 -0.524147 0
M  V30 8512 C 790.434 -2.0208 2.94785 0
M  V30 8513 C 790.1 -1.36665 4.2969 0
M  V30 8514 C 788.762 -1.18556 4.66367 0
M  V30 8515 C 791.114 -0.896868 5.13425 0
M  V30 8516 C 788.442 -0.521113 5.84381 0
M  V30 8517 C 790.794 -0.246261 6.3212 0
M  V30 8518 C 789.458 -0.052987 6.67479 0
M  V30 8519 H 788.728 -0.389796 0.63019 0
M  V30 8520 H 791.375 -0.342725 1.88408 0
M  V30 8521 H 789.68 -2.8077 2.73268 0
M  V30 8522 H 791.377 -2.59231 3.05941 0
M  V30 8523 H 787.967 -1.51762 4.00832 0
M  V30 8524 H 792.151 -1.02458 4.85609 0
M  V30 8525 H 787.407 -0.36014 6.10338 0
M  V30 8526 H 791.581 0.125775 6.96286 0
M  V30 8527 H 789.208 0.463903 7.58783 0
M  V30 8528 N 790.784 -1.46188 -0.588786 0
M  V30 8529 C 791.716 -1.52319 -1.71265 0
M  V30 8530 C 792.729 -0.412096 -1.57498 0
M  V30 8531 O 793.918 -0.680146 -1.65034 0
M  V30 8532 C 791.018 -1.38164 -3.09458 0
M  V30 8533 C 790.191 -2.63284 -3.49286 0
M  V30 8534 C 789.25 -2.43415 -4.66514 0
M  V30 8535 O 788.276 -3.17113 -4.72682 0
M  V30 8536 N 789.478 -1.49187 -5.61002 0
M  V30 8537 H 792.243 -2.49219 -1.66463 0
M  V30 8538 H 789.804 -1.42167 -0.774601 0
M  V30 8539 H 791.796 -1.22653 -3.85666 0
M  V30 8540 H 790.366 -0.494678 -3.08661 0
M  V30 8541 H 789.586 -2.93779 -2.62845 0
M  V30 8542 H 790.874 -3.46413 -3.7266 0
M  V30 8543 H 790.272 -0.884027 -5.5875 0
M  V30 8544 H 788.829 -1.39642 -6.36666 0
M  V30 8545 N 792.262 0.832906 -1.33792 0
M  V30 8546 C 793.673 1.40489 -1.22963 0
M  V30 8547 C 794.024 1.95633 0.149026 0
M  V30 8548 O 793.149 1.8928 1.04891 0
M  V30 8549 C 793.744 2.55387 -2.22627 0
M  V30 8550 C 792.303 3.08522 -2.15618 0
M  V30 8551 C 791.45 1.81347 -2.09782 0
M  V30 8552 H 794.401 0.638156 -1.45304 0
M  V30 8553 H 794.422 3.33193 -1.83746 0
M  V30 8554 H 793.934 2.15222 -3.22957 0
M  V30 8555 H 792.035 3.53217 -1.18611 0
M  V30 8556 H 792.148 3.6829 -3.0643 0
M  V30 8557 H 790.512 2.01839 -1.55349 0
M  V30 8558 H 791.295 1.43369 -3.1193 0
M  V30 8559 N 793.74 1.17359 1.05189 0
M  V30 8560 C 794.672 0.848078 2.12933 0
M  V30 8561 C 795.685 -0.149521 1.62112 0
M  V30 8562 O 796.874 0.0767797 1.78335 0
M  V30 8563 C 793.974 0.243889 3.38021 0
M  V30 8564 C 793.147 1.28436 4.18118 0
M  V30 8565 C 792.206 0.697926 5.21551 0
M  V30 8566 O 791.232 1.36973 5.52473 0
M  V30 8567 N 792.434 -0.510024 5.78255 0
M  V30 8568 H 795.199 1.7754 2.41453 0
M  V30 8569 H 792.76 1.07244 1.21286 0
M  V30 8570 H 794.752 -0.161727 4.04377 0
M  V30 8571 H 793.322 -0.58722 3.07035 0
M  V30 8572 H 792.542 1.86573 3.47252 0
M  V30 8573 H 793.83 1.98617 4.68432 0
M  V30 8574 H 793.228 -1.07378 5.55416 0
M  V30 8575 H 791.785 -0.857705 6.46132 0
M  V30 8576 N 795.218 -1.23913 0.973828 0
M  V30 8577 C 796.467 -1.91455 0.63464 0
M  V30 8578 C 796.78 -1.76893 -0.834759 0
M  V30 8579 O 797.986 -2.3918 -1.28473 0
M  V30 8580 C 796.442 -3.43172 1.08447 0
M  V30 8581 C 796.05 -3.66409 2.57776 0
M  V30 8582 C 797.794 -4.1653 0.818721 0
M  V30 8583 C 795.701 -5.11728 2.9646 0
M  V30 8584 H 794.631 -0.716881 0.233661 0
M  V30 8585 H 797.282 -1.40457 1.18085 0
M  V30 8586 H 795.664 -3.93242 0.466524 0
M  V30 8587 H 796.838 -3.26913 3.24753 0
M  V30 8588 H 795.153 -3.06349 2.82027 0
M  V30 8589 H 797.75 -5.23603 1.08367 0
M  V30 8590 H 798.093 -4.15578 -0.245128 0
M  V30 8591 H 798.626 -3.72428 1.39793 0
M  V30 8592 H 795.365 -5.17806 4.01941 0
M  V30 8593 H 794.885 -5.52199 2.34172 0
M  V30 8594 H 796.564 -5.80009 2.86703 0
M  V30 8595 N 796.696 -0.74468 -1.38897 0
M  V30 8596 C 797.924 -0.307428 -2.04603 0
M  V30 8597 C 798.339 1.06115 -1.56157 0
M  V30 8598 O 797.696 1.67233 -0.730701 0
M  V30 8599 C 797.747 -0.31101 -3.6016 0
M  V30 8600 O 797.468 -1.62557 -4.06825 0
M  V30 8601 C 798.969 0.141213 -4.43075 0
M  V30 8602 H 796.189 -0.132741 -0.657739 0
M  V30 8603 H 798.733 -1.01104 -1.77759 0
M  V30 8604 H 796.888 0.343792 -3.85872 0
M  V30 8605 H 797.302 -1.54569 -5.01207 0
M  V30 8606 H 798.776 0.0875449 -5.51931 0
M  V30 8607 H 799.253 1.18782 -4.22833 0
M  V30 8608 H 799.859 -0.484383 -4.22533 0
M  V30 8609 N 798.174 1.49689 -0.493057 0
M  V30 8610 C 799.451 1.9525 0.116907 0
M  V30 8611 C 799.831 1.43429 1.54892 0
M  V30 8612 O 799.179 0.644621 2.19219 0
M  V30 8613 C 799.389 3.4898 0.037705 0
M  V30 8614 C 800.737 4.24052 0.215621 0
M  V30 8615 O 801.761 3.5602 0.113266 0
M  V30 8616 O 800.62 5.44847 0.42477 0
M  V30 8617 H 797.714 0.820973 0.099662 0
M  V30 8618 H 800.26 1.60367 -0.555029 0
M  V30 8619 H 799.032 3.79309 -0.961251 0
M  V30 8620 H 798.655 3.9046 0.750137 0
M  V30 8621 N 799.652 0.226554 1.55963 0
M  V30 8622 C 800.929 -0.453058 1.90281 0
M  V30 8623 C 801.309 -1.77377 1.14458 0
M  V30 8624 O 800.657 -2.27067 0.255496 0
M  V30 8625 C 800.867 -0.641108 3.43061 0
M  V30 8626 C 802.215 -0.946265 4.13921 0
M  V30 8627 O 803.239 -0.727713 3.48687 0
M  V30 8628 O 802.098 -1.36131 5.29274 0
M  V30 8629 H 799.192 -0.240242 0.791336 0
M  V30 8630 H 801.738 0.26911 1.67553 0
M  V30 8631 H 800.51 0.290283 3.90222 0
M  V30 8632 H 800.133 -1.41458 3.71585 0
M  V30 8633 N 801.13 -1.57531 -0.0467866 0
M  V30 8634 C 802.36 -1.92417 -0.752279 0
M  V30 8635 C 802.768 -0.823134 -1.70356 0
M  V30 8636 O 802.111 0.210598 -1.82489 0
M  V30 8637 C 802.173 -3.22974 -1.57887 0
M  V30 8638 C 801.837 -4.50045 -0.794285 0
M  V30 8639 C 802.834 -5.19799 -0.102368 0
M  V30 8640 C 800.519 -4.96608 -0.754061 0
M  V30 8641 C 802.513 -6.34385 0.619267 0
M  V30 8642 C 800.2 -6.11093 -0.0286682 0
M  V30 8643 C 801.198 -6.79835 0.656772 0
M  V30 8644 O 800.886 -7.92133 1.37042 0
M  V30 8645 H 800.618 -0.640029 -0.217576 0
M  V30 8646 H 803.172 -2.05395 -0.0137438 0
M  V30 8647 H 801.402 -3.06273 -2.3608 0
M  V30 8648 H 803.091 -3.43319 -2.16533 0
M  V30 8649 H 803.857 -4.8484 -0.124589 0
M  V30 8650 H 799.736 -4.42958 -1.27706 0
M  V30 8651 H 803.28 -6.87975 1.15483 0
M  V30 8652 H 799.177 -6.455 -0.00446214 0
M  V30 8653 H 799.945 -8.08394 1.28227 0
M  V30 8654 N 802.608 0.318715 -1.54344 0
M  V30 8655 C 803.856 1.054 -1.72439 0
M  V30 8656 C 804.177 1.88388 -0.503495 0
M  V30 8657 O 803.447 1.89866 0.48246 0
M  V30 8658 H 802.027 0.392124 -0.635805 0
M  V30 8659 H 804.689 0.35398 -1.91659 0
M  V30 8660 H 803.785 1.71726 -2.60608 0
M  V30 8661 N 804.086 1.46499 0.581025 0
M  V30 8662 C 805.016 1.60052 1.70017 0
M  V30 8663 C 805.997 0.450788 1.64018 0
M  V30 8664 O 807.182 0.677237 1.82009 0
M  V30 8665 C 804.312 1.5921 3.08658 0
M  V30 8666 C 803.266 2.73169 3.29488 0
M  V30 8667 C 802.592 2.57389 4.68674 0
M  V30 8668 C 803.892 4.14978 3.1716 0
M  V30 8669 H 805.586 2.53735 1.5893 0
M  V30 8670 H 803.132 1.22113 0.763173 0
M  V30 8671 H 805.085 1.67285 3.86773 0
M  V30 8672 H 803.809 0.620718 3.20647 0
M  V30 8673 H 802.468 2.64566 2.53773 0
M  V30 8674 H 802.116 1.58331 4.77431 0
M  V30 8675 H 801.816 3.33826 4.83564 0
M  V30 8676 H 803.34 2.67358 5.48956 0
M  V30 8677 H 804.754 4.24684 3.85119 0
M  V30 8678 H 803.151 4.92016 3.4357 0
M  V30 8679 H 804.221 4.35016 2.14218 0
M  V30 8680 N 805.565 -0.825799 1.34232 0
M  V30 8681 C 806.842 -1.56741 1.17011 0
M  V30 8682 C 807.222 -2.09512 -0.258425 0
M  V30 8683 O 806.57 -1.90664 -1.25935 0
M  V30 8684 C 806.78 -2.69104 2.22225 0
M  V30 8685 C 808.128 -3.37947 2.57055 0
M  V30 8686 O 809.152 -2.79358 2.20992 0
M  V30 8687 O 808.011 -4.43743 3.1899 0
M  V30 8688 H 805.105 -0.69163 0.453405 0
M  V30 8689 H 807.651 -0.867422 1.45856 0
M  V30 8690 H 806.423 -2.27844 3.18124 0
M  V30 8691 H 806.046 -3.46756 1.94541 0
M  V30 8692 N 807.043 -1.17915 -1.04565 0
M  V30 8693 C 807.991 -0.897919 -2.1457 0
M  V30 8694 C 808.985 0.139883 -1.68821 0
M  V30 8695 O 810.191 -0.00779463 -1.79998 0
M  V30 8696 H 806.566 -0.272867 -0.700748 0
M  V30 8697 H 808.537 -1.83268 -2.3549 0
M  V30 8698 C 807.286 -0.434634 -3.44973 0
M  V30 8699 H 806.609 -1.22469 -3.8058 0
M  V30 8700 H 808.049 -0.276804 -4.23095 0
M  V30 8701 C 806.508 0.848738 -3.26034 0
M  V30 8702 O 807.038 1.9141 -3.53164 0
M  V30 8703 N 805.244 0.799373 -2.79389 0
M  V30 8704 H 804.791 -0.0678192 -2.57511 0
M  V30 8705 H 804.749 1.6585 -2.67098 0
M  V30 8706 N 808.521 1.23394 -0.980386 0
M  V30 8707 C 809.768 1.91809 -0.649261 0
M  V30 8708 C 810.096 1.765 0.817197 0
M  V30 8709 O 809.351 1.11979 1.60497 0
M  V30 8710 C 809.65 3.43542 -0.985588 0
M  V30 8711 C 809.316 3.79031 -2.44225 0
M  V30 8712 C 807.978 3.88429 -2.84035 0
M  V30 8713 C 810.33 3.96145 -3.38702 0
M  V30 8714 C 807.658 4.12368 -4.17336 0
M  V30 8715 C 810.01 4.21583 -4.71646 0
M  V30 8716 C 808.674 4.29203 -5.11215 0
M  V30 8717 H 807.944 0.70188 -0.237581 0
M  V30 8718 H 810.591 1.4642 -1.23424 0
M  V30 8719 H 808.896 3.90503 -0.318521 0
M  V30 8720 H 810.593 3.94708 -0.707596 0
M  V30 8721 H 807.183 3.7229 -2.12362 0
M  V30 8722 H 811.367 3.88274 -3.09123 0
M  V30 8723 H 806.623 4.1649 -4.47601 0
M  V30 8724 H 810.797 4.33769 -5.4481 0
M  V30 8725 H 808.424 4.47505 -6.14527 0
M  V30 8726 N 809.999 0.752036 1.385 0
M  V30 8727 C 811.276 0.233075 1.94206 0
M  V30 8728 C 811.656 -1.26838 1.68746 0
M  V30 8729 O 811.004 -2.04214 1.02513 0
M  V30 8730 C 811.214 0.58509 3.44061 0
M  V30 8731 C 812.562 0.543871 4.21102 0
M  V30 8732 O 813.586 0.523291 3.52335 0
M  V30 8733 O 812.445 0.553436 5.4369 0
M  V30 8734 H 809.539 0.0483049 0.825588 0
M  V30 8735 H 812.085 0.832053 1.47902 0
M  V30 8736 H 810.857 1.62212 3.56094 0
M  V30 8737 H 810.48 -0.0419738 3.97578 0
M  V30 8738 N 811.477 -1.49425 0.500989 0
M  V30 8739 C 812.705 -2.06861 -0.0403443 0
M  V30 8740 C 813.12 -1.36132 -1.30819 0
M  V30 8741 O 812.477 -0.439647 -1.77125 0
M  V30 8742 C 812.528 -3.6027 -0.297902 0
M  V30 8743 O 812.249 -4.28338 0.919686 0
M  V30 8744 C 813.75 -4.34419 -0.882876 0
M  V30 8745 H 810.97 -0.670688 0.0204619 0
M  V30 8746 H 813.514 -1.92207 0.698342 0
M  V30 8747 H 811.669 -3.74627 -0.98657 0
M  V30 8748 H 812.083 -5.2004 0.682528 0
M  V30 8749 H 813.557 -5.42631 -1.01268 0
M  V30 8750 H 814.034 -3.96898 -1.88066 0
M  V30 8751 H 814.64 -4.24669 -0.231677 0
M  V30 8752 N 812.955 -0.234822 -1.55841 0
M  V30 8753 C 813.887 0.702346 -2.18174 0
M  V30 8754 C 814.9 1.14776 -1.15457 0
M  V30 8755 O 816.089 1.07662 -1.42377 0
M  V30 8756 C 813.189 1.96483 -2.76129 0
M  V30 8757 C 812.362 1.67283 -4.04148 0
M  V30 8758 C 811.421 2.7837 -4.46539 0
M  V30 8759 O 810.447 2.46272 -5.13166 0
M  V30 8760 N 811.649 4.07611 -4.1332 0
M  V30 8761 H 814.414 0.169074 -2.99223 0
M  V30 8762 H 811.975 -0.0543164 -1.61809 0
M  V30 8763 H 813.967 2.70016 -3.01452 0
M  V30 8764 H 812.537 2.40822 -1.99307 0
M  V30 8765 H 811.757 0.773278 -3.86541 0
M  V30 8766 H 813.045 1.45222 -4.87635 0
M  V30 8767 H 812.443 4.36527 -3.59806 0
M  V30 8768 H 811 4.77646 -4.43506 0
M  V30 8769 N 814.433 1.57553 0.0384317 0
M  V30 8770 C 815.68 1.88841 0.731116 0
M  V30 8771 C 816.008 0.83093 1.75857 0
M  V30 8772 O 815.263 -0.169248 1.94967 0
M  V30 8773 C 815.562 3.26862 1.44554 0
M  V30 8774 C 815.228 4.47472 0.554946 0
M  V30 8775 C 813.89 4.80203 0.309621 0
M  V30 8776 C 816.242 5.21165 -0.0605204 0
M  V30 8777 C 813.57 5.8402 -0.560101 0
M  V30 8778 C 815.922 6.25905 -0.91789 0
M  V30 8779 C 814.586 6.57117 -1.17277 0
M  V30 8780 H 813.856 0.691018 0.267534 0
M  V30 8781 H 816.503 1.91498 -0.00883195 0
M  V30 8782 H 814.808 3.2015 2.25856 0
M  V30 8783 H 816.505 3.48316 1.98688 0
M  V30 8784 H 813.095 4.21874 0.756304 0
M  V30 8785 H 817.279 4.96164 0.116064 0
M  V30 8786 H 812.535 6.06583 -0.765974 0
M  V30 8787 H 816.709 6.82155 -1.40136 0
M  V30 8788 H 814.336 7.37385 -1.84843 0
M  V30 8789 N 815.911 -0.310526 1.54511 0
M  V30 8790 C 817.139 -1.06611 1.77318 0
M  V30 8791 C 817.554 -1.81265 0.528043 0
M  V30 8792 O 816.911 -1.75466 -0.50178 0
M  V30 8793 C 816.962 -2.05409 2.97472 0
M  V30 8794 O 816.683 -1.33785 4.17173 0
M  V30 8795 C 818.184 -2.93082 3.32593 0
M  V30 8796 H 815.404 -0.316578 0.591624 0
M  V30 8797 H 817.948 -0.352691 2.01436 0
M  V30 8798 H 816.103 -2.72266 2.7559 0
M  V30 8799 H 816.517 -2.00055 4.84849 0
M  V30 8800 H 817.991 -3.58274 4.19933 0
M  V30 8801 H 818.468 -3.60877 2.50329 0
M  V30 8802 H 819.074 -2.31768 3.566 0
M  V30 8803 N 817.389 -1.46805 -0.573248 0
M  V30 8804 C 818.614 -1.56433 -1.36175 0
M  V30 8805 C 819.039 -0.209336 -1.86932 0
M  V30 8806 O 818.397 0.812146 -1.62092 0
M  V30 8807 C 818.445 -2.58055 -2.51873 0
M  V30 8808 O 817.549 -2.12214 -3.53609 0
M  V30 8809 H 816.89 -0.526068 -0.405153 0
M  V30 8810 H 819.42 -1.92456 -0.694405 0
M  V30 8811 H 819.43 -2.77966 -2.98662 0
M  V30 8812 H 818.105 -3.56448 -2.14284 0
M  V30 8813 H 816.682 -2.02333 -3.13234 0
M  V30 8814 N 818.867 0.818669 -1.34668 0
M  V30 8815 C 819.777 1.9616 -1.2868 0
M  V30 8816 C 820.793 1.72918 -0.193742 0
M  V30 8817 O 821.969 1.96951 -0.420975 0
M  V30 8818 C 819.034 3.30534 -1.04633 0
M  V30 8819 C 818.095 3.66755 -2.23136 0
M  V30 8820 C 817.328 4.94717 -2.00227 0
M  V30 8821 O 817.551 5.62218 -0.96264 0
M  V30 8822 O 816.485 5.28915 -2.87286 0
M  V30 8823 H 820.311 2.04157 -2.24842 0
M  V30 8824 H 817.896 0.954691 -1.14917 0
M  V30 8825 H 819.778 4.11005 -0.930216 0
M  V30 8826 H 818.453 3.23495 -0.115139 0
M  V30 8827 H 817.36 2.8671 -2.40308 0
M  V30 8828 H 818.693 3.78484 -3.1466 0
M  V30 8829 N 820.346 1.18468 1.03938 0
M  V30 8830 C 821.757 0.984808 1.58614 0
M  V30 8831 C 822.108 -0.465165 1.90606 0
M  V30 8832 O 821.233 -1.34274 1.69704 0
M  V30 8833 C 821.828 1.78135 2.8819 0
M  V30 8834 C 820.387 1.62579 3.39478 0
M  V30 8835 C 819.534 1.77501 2.13046 0
M  V30 8836 H 822.485 1.32993 0.865944 0
M  V30 8837 H 822.506 1.27119 3.58638 0
M  V30 8838 H 822.018 2.83661 2.64874 0
M  V30 8839 H 820.119 0.59595 3.67803 0
M  V30 8840 H 820.232 2.42463 4.13217 0
M  V30 8841 H 818.596 1.2046 2.24414 0
M  V30 8842 H 819.379 2.84464 1.92185 0
M  V30 8843 N 821.824 -1.22873 0.986916 0
M  V30 8844 C 823.07 -1.91746 0.660401 0
M  V30 8845 C 823.403 -1.76738 -0.804812 0
M  V30 8846 O 822.678 -1.13246 -1.58131 0
M  V30 8847 C 822.961 -3.44156 1.05966 0
M  V30 8848 C 822.814 -3.68242 2.58298 0
M  V30 8849 C 824.133 -4.35874 0.60842 0
M  V30 8850 H 821.252 -0.696347 0.241391 0
M  V30 8851 H 823.894 -1.44867 1.22937 0
M  V30 8852 H 822.044 -3.84213 0.575534 0
M  V30 8853 H 823.716 -3.37626 3.14335 0
M  V30 8854 H 821.959 -3.12728 3.00638 0
M  V30 8855 H 822.63 -4.74956 2.81285 0
M  V30 8856 H 825.106 -4.03299 1.02417 0
M  V30 8857 H 823.982 -5.41201 0.916142 0
M  V30 8858 H 824.243 -4.39364 -0.491086 0
M  V30 8859 N 823.302 -0.75937 -1.38099 0
M  V30 8860 C 824.234 -0.0956547 -2.29 0
M  V30 8861 C 825.247 0.677561 -1.4803 0
M  V30 8862 O 826.436 0.517696 -1.70828 0
M  V30 8863 C 823.536 0.88844 -3.27047 0
M  V30 8864 C 822.709 0.171652 -4.37063 0
M  V30 8865 C 821.768 1.06733 -5.15262 0
M  V30 8866 O 820.794 0.535698 -5.66674 0
M  V30 8867 N 821.996 2.39486 -5.28797 0
M  V30 8868 H 824.761 -0.876354 -2.86601 0
M  V30 8869 H 822.322 -0.61065 -1.49942 0
M  V30 8870 H 824.314 1.49079 -3.76241 0
M  V30 8871 H 822.884 1.57018 -2.70304 0
M  V30 8872 H 822.104 -0.611473 -3.89429 0
M  V30 8873 H 823.392 -0.324121 -5.07767 0
M  V30 8874 H 822.79 2.85127 -4.88589 0
M  V30 8875 H 821.347 2.94758 -5.81344 0
M  V30 8876 N 824.78 1.49157 -0.508906 0
M  V30 8877 C 825.71 2.32109 0.254469 0
M  V30 8878 C 826.691 1.40754 0.955111 0
M  V30 8879 O 827.876 1.69658 0.944983 0
M  V30 8880 C 825.006 3.21458 1.3146 0
M  V30 8881 C 823.96 4.2167 0.733368 0
M  V30 8882 C 823.286 5.00009 1.8946 0
M  V30 8883 C 824.586 5.21544 -0.280875 0
M  V30 8884 H 826.28 2.9618 -0.43795 0
M  V30 8885 H 823.826 1.4243 -0.212062 0
M  V30 8886 H 825.779 3.78305 1.85643 0
M  V30 8887 H 824.503 2.55346 2.03632 0
M  V30 8888 H 823.162 3.65979 0.213231 0
M  V30 8889 H 822.81 4.30338 2.60419 0
M  V30 8890 H 822.51 5.67821 1.51173 0
M  V30 8891 H 824.034 5.59702 2.44061 0
M  V30 8892 H 825.448 5.73039 0.173095 0
M  V30 8893 H 823.845 5.97291 -0.580006 0
M  V30 8894 H 824.915 4.69969 -1.19404 0
M  V30 8895 N 826.258 0.243083 1.55714 0
M  V30 8896 C 827.486 -0.386971 2.03249 0
M  V30 8897 C 827.901 -1.51812 1.12243 0
M  V30 8898 O 827.258 -1.81992 0.136119 0
M  V30 8899 C 827.309 -0.898361 3.5016 0
M  V30 8900 O 827.03 0.187708 4.37698 0
M  V30 8901 C 828.531 -1.59949 4.13438 0
M  V30 8902 H 825.751 -0.0923981 0.664608 0
M  V30 8903 H 828.295 0.365832 2.01201 0
M  V30 8904 H 826.45 -1.60136 3.52754 0
M  V30 8905 H 826.864 -0.200001 5.24119 0
M  V30 8906 H 828.338 -1.90907 5.17937 0
M  V30 8907 H 828.815 -2.52014 3.59702 0
M  V30 8908 H 829.421 -0.941163 4.14756 0
M  V30 8909 N 827.736 -1.57571 -0.0300757 0
M  V30 8910 C 829.147 -1.77567 -0.576802 0
M  V30 8911 C 829.498 -0.874034 -1.75656 0
M  V30 8912 O 828.623 -0.0686124 -2.16291 0
M  V30 8913 C 829.218 -3.22016 -1.05315 0
M  V30 8914 C 827.777 -3.43212 -1.5454 0
M  V30 8915 C 826.924 -2.73061 -0.483033 0
M  V30 8916 H 829.875 -1.57483 0.196151 0
M  V30 8917 H 829.896 -3.28474 -1.92055 0
M  V30 8918 H 829.408 -3.87613 -0.194298 0
M  V30 8919 H 827.509 -2.82788 -2.42615 0
M  V30 8920 H 827.622 -4.5182 -1.5936 0
M  V30 8921 H 825.986 -2.36805 -0.937835 0
M  V30 8922 H 826.769 -3.4134 0.366341 0
M  V30 8923 N 829.214 0.302327 -1.54673 0
M  V30 8924 C 830.491 1.05721 -1.64567 0
M  V30 8925 C 830.871 2.0526 -0.493108 0
M  V30 8926 O 830.219 2.22729 0.510315 0
M  V30 8927 C 830.429 1.74025 -3.02517 0
M  V30 8928 C 831.777 2.26271 -3.59286 0
M  V30 8929 O 832.801 1.8406 -3.0496 0
M  V30 8930 O 831.66 3.0361 -4.54404 0
M  V30 8931 H 828.754 0.488577 -0.667249 0
M  V30 8932 H 831.3 0.300521 -1.67018 0
M  V30 8933 H 830.072 1.0174 -3.77842 0
M  V30 8934 H 829.695 2.56454 -3.03838 0
M  V30 8935 N 830.692 1.47107 0.565454 0
M  V30 8936 C 831.969 1.43787 1.32607 0
M  V30 8937 C 832.349 0.130428 2.10697 0
M  V30 8938 O 831.697 -0.888086 2.10536 0
M  V30 8939 C 831.907 2.67833 2.23755 0
M  V30 8940 C 833.255 3.14704 2.85037 0
M  V30 8941 O 834.279 2.68503 2.34061 0
M  V30 8942 O 833.138 3.95002 3.77671 0
M  V30 8943 H 830.232 0.572623 0.596684 0
M  V30 8944 H 832.778 1.59296 0.58504 0
M  V30 8945 H 831.55 3.54532 1.65597 0
M  V30 8946 H 831.173 2.54869 3.05168 0
M  V30 8947 N 832.17 -0.811516 1.35101 0
M  V30 8948 C 833.08 -1.95475 1.29718 0
M  V30 8949 C 834.096 -1.72813 0.202909 0
M  V30 8950 O 835.272 -1.96725 0.431414 0
M  V30 8951 C 832.337 -3.29975 1.06385 0
M  V30 8952 C 831.398 -3.65566 2.25077 0
M  V30 8953 C 830.631 -4.93648 2.02848 0
M  V30 8954 O 830.854 -5.617 0.992442 0
M  V30 8955 O 829.788 -5.27384 2.90087 0
M  V30 8956 H 833.614 -2.02961 2.25921 0
M  V30 8957 H 831.199 -0.948583 1.15422 0
M  V30 8958 H 833.081 -4.10506 0.951999 0
M  V30 8959 H 831.756 -3.2343 0.132294 0
M  V30 8960 H 830.663 -2.85432 2.41825 0
M  V30 8961 H 831.996 -3.7681 3.16662 0
M  V30 8962 N 833.648 -1.19017 -1.03309 0
M  V30 8963 C 834.925 -0.899659 -1.73682 0
M  V30 8964 C 835.305 0.595677 -2.02521 0
M  V30 8965 O 834.653 1.55263 -1.67648 0
M  V30 8966 C 834.863 -1.75508 -3.01659 0
M  V30 8967 C 836.211 -1.98679 -3.75249 0
M  V30 8968 O 837.235 -1.72624 -3.11576 0
M  V30 8969 O 836.094 -2.42587 -4.89708 0
M  V30 8970 H 833.188 -0.334903 -0.756154 0
M  V30 8971 H 835.734 -1.29809 -1.09305 0
M  V30 8972 H 834.506 -2.7684 -2.76542 0
M  V30 8973 H 834.129 -1.35565 -3.73775 0
M  V30 8974 N 835.127 1.22348 -0.993418 0
M  V30 8975 C 836.09 2.22522 -0.549251 0
M  V30 8976 C 837.09 1.56529 0.368164 0
M  V30 8977 O 838.28 1.73463 0.16005 0
M  V30 8978 C 835.412 3.40307 0.201037 0
M  V30 8979 H 836.605 2.63332 -1.43515 0
M  V30 8980 H 834.158 1.35407 -0.78068 0
M  V30 8981 H 834.893 3.0497 1.10289 0
M  V30 8982 H 834.678 3.8942 -0.457685 0
M  V30 8983 H 836.168 4.14597 0.499946 0
M  V30 8984 N 836.605 0.766683 1.37694 0
M  V30 8985 C 837.854 0.325425 1.99057 0
M  V30 8986 C 838.167 -1.10275 1.61551 0
M  V30 8987 O 839.373 -1.64513 2.1598 0
M  V30 8988 C 837.829 0.530886 3.55963 0
M  V30 8989 C 837.437 1.96899 4.02411 0
M  V30 8990 C 839.181 0.152997 4.24224 0
M  V30 8991 C 837.088 2.12232 5.52007 0
M  V30 8992 H 836.018 0.117929 0.744721 0
M  V30 8993 H 838.669 0.945091 1.5729 0
M  V30 8994 H 837.051 -0.158162 3.95684 0
M  V30 8995 H 838.225 2.69258 3.73948 0
M  V30 8996 H 836.54 2.303 3.46916 0
M  V30 8997 H 839.137 0.24614 5.34133 0
M  V30 8998 H 839.48 -0.896096 4.06541 0
M  V30 8999 H 840.013 0.794398 3.89787 0
M  V30 9000 H 836.752 3.15442 5.7461 0
M  V30 9001 H 836.272 1.4435 5.82171 0
M  V30 9002 H 837.951 1.9185 6.17902 0
M  V30 9003 N 838.083 -1.48885 0.516809 0
M  V30 9004 C 839.03 -2.29408 -0.253125 0
M  V30 9005 C 840 -1.36533 -0.945935 0
M  V30 9006 O 841.185 -1.65495 -0.949527 0
M  V30 9007 C 838.325 -3.19592 -1.30211 0
M  V30 9008 C 837.438 -4.27535 -0.61948 0
M  V30 9009 C 836.573 -5.04916 -1.65026 0
M  V30 9010 C 835.612 -6.04677 -0.950368 0
M  V30 9011 N 834.749 -6.75164 -1.92608 0
M  V30 9012 H 839.589 -2.94738 0.439744 0
M  V30 9013 H 837.126 -1.45311 0.2287 0
M  V30 9014 H 839.084 -3.70267 -1.92245 0
M  V30 9015 H 837.714 -2.56213 -1.96353 0
M  V30 9016 H 836.766 -3.80228 0.114505 0
M  V30 9017 H 838.078 -4.98752 -0.0693016 0
M  V30 9018 H 837.232 -5.59539 -2.34523 0
M  V30 9019 H 835.971 -4.33508 -2.23432 0
M  V30 9020 H 834.976 -5.4927 -0.241252 0
M  V30 9021 H 836.201 -6.78077 -0.372599 0
M  V30 9022 H 834.147 -6.06517 -2.49946 0
M  V30 9023 H 834.064 -7.4241 -1.42699 0
M  V30 9024 H 835.332 -7.34384 -2.61345 0
M  V30 9025 N 839.561 -0.251338 -1.55583 0
M  V30 9026 C 840.977 0.103409 -1.59265 0
M  V30 9027 C 841.177 1.56559 -1.26852 0
M  V30 9028 O 840.233 2.31071 -1.01796 0
M  V30 9029 C 841.546 -0.249781 -2.99661 0
M  V30 9030 C 843.094 -0.194442 -3.12395 0
M  V30 9031 C 843.569 -0.521728 -4.55019 0
M  V30 9032 N 845.06 -0.472393 -4.60785 0
M  V30 9033 C 845.795 -0.698737 -5.69127 0
M  V30 9034 N 845.291 -0.988443 -6.85713 0
M  V30 9035 N 847.084 -0.629143 -5.58568 0
M  V30 9036 H 839.235 -1.20484 -1.74921 0
M  V30 9037 H 841.498 -0.485092 -0.814488 0
M  V30 9038 H 841.204 -1.26577 -3.28133 0
M  V30 9039 H 841.078 0.420973 -3.74844 0
M  V30 9040 H 843.465 0.812229 -2.83702 0
M  V30 9041 H 843.546 -0.899111 -2.39478 0
M  V30 9042 H 843.19 -1.52597 -4.84434 0
M  V30 9043 H 843.12 0.204468 -5.26203 0
M  V30 9044 H 845.611 -0.257386 -3.77022 0
M  V30 9045 H 845.924 -1.14846 -7.64219 0
M  V30 9046 H 844.269 -1.02596 -6.87386 0
M  V30 9047 H 847.46 -0.402826 -4.66364 0
M  V30 9048 H 847.633 -0.808935 -6.42931 0
M  V30 9049 N 841.039 1.57585 0.0217189 0
M  V30 9050 C 842.288 1.88786 0.710125 0
M  V30 9051 C 842.601 0.850819 1.76126 0
M  V30 9052 O 843.807 1.0523 2.50277 0
M  V30 9053 C 842.263 3.3505 1.31413 0
M  V30 9054 C 841.871 4.47001 0.298959 0
M  V30 9055 C 843.615 3.7539 1.98199 0
M  V30 9056 C 841.522 5.8433 0.911727 0
M  V30 9057 H 840.452 0.704388 0.268986 0
M  V30 9058 H 843.103 1.83466 -0.0352638 0
M  V30 9059 H 841.485 3.35138 2.10947 0
M  V30 9060 H 842.659 4.58395 -0.470203 0
M  V30 9061 H 840.974 4.15542 -0.267222 0
M  V30 9062 H 843.571 4.75314 2.4491 0
M  V30 9063 H 843.914 3.07766 2.80331 0
M  V30 9064 H 844.447 3.77508 1.2543 0
M  V30 9065 H 841.186 6.55372 0.129659 0
M  V30 9066 H 840.706 5.76643 1.65056 0
M  V30 9067 H 842.385 6.31295 1.41688 0
M  V30 9068 N 842.517 -0.29412 1.54831 0
M  V30 9069 C 843.794 -1.04847 1.65126 0
M  V30 9070 C 844.174 -2.04996 0.503986 0
M  V30 9071 O 843.522 -2.22996 -0.498496 0
M  V30 9072 C 843.732 -1.72418 3.03435 0
M  V30 9073 C 845.08 -2.24362 3.60481 0
M  V30 9074 O 846.104 -1.8244 3.05932 0
M  V30 9075 O 844.963 -3.01196 4.56008 0
M  V30 9076 H 842.057 -0.485032 0.669831 0
M  V30 9077 H 844.603 -0.291659 1.67175 0
M  V30 9078 H 843.375 -0.997351 3.78376 0
M  V30 9079 H 842.998 -2.54839 3.05193 0
M  V30 9080 N 843.995 -1.47404 -0.557645 0
M  V30 9081 C 844.927 -1.55917 -1.67995 0
M  V30 9082 C 845.94 -0.445411 -1.56588 0
M  V30 9083 O 847.129 -0.714999 -1.63554 0
M  V30 9084 C 844.229 -1.44697 -3.06457 0
M  V30 9085 C 843.402 -2.70633 -3.43622 0
M  V30 9086 C 842.461 -2.53256 -4.61246 0
M  V30 9087 O 841.487 -3.27068 -4.65849 0
M  V30 9088 N 842.689 -1.61053 -5.57711 0
M  V30 9089 H 845.454 -2.52694 -1.61139 0
M  V30 9090 H 843.015 -1.43778 -0.744271 0
M  V30 9091 H 845.007 -1.30806 -3.82978 0
M  V30 9092 H 843.577 -0.560039 -3.07542 0
M  V30 9093 H 842.797 -2.99288 -2.56555 0
M  V30 9094 H 844.085 -3.5424 -3.65228 0
M  V30 9095 H 843.483 -1.00235 -5.56749 0
M  V30 9096 H 842.04 -1.53115 -6.33561 0
M  V30 9097 N 845.473 0.80434 -1.35529 0
M  V30 9098 C 846.698 1.598 -1.32207 0
M  V30 9099 C 847.123 1.87848 0.0974226 0
M  V30 9100 O 846.481 1.46728 1.06492 0
M  V30 9101 C 846.529 2.90483 -2.13663 0
M  V30 9102 O 845.633 3.83411 -1.51888 0
M  V30 9103 H 844.974 0.485305 -0.453183 0
M  V30 9104 H 847.504 0.998119 -1.78602 0
M  V30 9105 H 847.514 3.39888 -2.257 0
M  V30 9106 H 846.189 2.69395 -3.16859 0
M  V30 9107 H 844.766 3.41967 -1.48704 0
M  V30 9108 N 846.951 1.19563 1.02676 0
M  V30 9109 C 847.861 0.950691 2.14474 0
M  V30 9110 C 848.877 -0.0900219 1.73767 0
M  V30 9111 O 850.053 0.0951063 2.01175 0
M  V30 9112 C 847.118 0.494917 3.43149 0
M  V30 9113 C 846.179 1.60527 3.98158 0
M  V30 9114 C 845.412 1.17115 5.20692 0
M  V30 9115 O 845.635 0.0355937 5.70389 0
M  V30 9116 O 844.569 1.97454 5.68591 0
M  V30 9117 H 848.395 1.88651 2.38001 0
M  V30 9118 H 845.98 0.978635 1.12885 0
M  V30 9119 H 847.862 0.249492 4.20661 0
M  V30 9120 H 846.537 -0.412434 3.21062 0
M  V30 9121 H 845.444 1.90487 3.21971 0
M  V30 9122 H 846.777 2.48925 4.24614 0
M  V30 9123 N 848.429 -1.21819 0.999893 0
M  V30 9124 C 849.676 -1.90752 0.679694 0
M  V30 9125 C 850.004 -1.77777 -0.789014 0
M  V30 9126 O 849.259 -1.14518 -1.58695 0
M  V30 9127 C 849.558 -3.4193 1.04012 0
M  V30 9128 C 849.224 -3.75098 2.50225 0
M  V30 9129 C 847.886 -3.83861 2.90179 0
M  V30 9130 C 850.238 -3.90706 3.44961 0
M  V30 9131 C 847.566 -4.05676 4.23844 0
M  V30 9132 C 849.918 -4.14027 4.78294 0
M  V30 9133 C 848.582 -4.21016 5.17979 0
M  V30 9134 H 847.852 -0.698012 0.248718 0
M  V30 9135 H 850.499 -1.44437 1.25738 0
M  V30 9136 H 848.804 -3.89947 0.380606 0
M  V30 9137 H 850.501 -3.93532 0.770301 0
M  V30 9138 H 847.091 -3.68865 2.18258 0
M  V30 9139 H 851.275 -3.83307 3.15261 0
M  V30 9140 H 846.531 -4.09316 4.5417 0
M  V30 9141 H 850.705 -4.25046 5.51642 0
M  V30 9142 H 848.332 -4.37672 6.21568 0
M  V30 9143 N 849.908 -0.773975 -1.37286 0
M  V30 9144 C 850.818 -0.162571 -2.34036 0
M  V30 9145 C 851.834 0.677022 -1.60289 0
M  V30 9146 O 853.01 0.596423 -1.92366 0
M  V30 9147 C 850.075 0.70457 -3.39465 0
M  V30 9148 C 849.136 -0.151738 -4.29032 0
M  V30 9149 C 848.369 0.674111 -5.29426 0
M  V30 9150 O 848.592 1.91107 -5.37433 0
M  V30 9151 O 847.526 0.0821398 -6.01844 0
M  V30 9152 H 851.352 -0.962119 -2.88057 0
M  V30 9153 H 848.937 -0.53517 -1.39486 0
M  V30 9154 H 850.819 1.19954 -4.03967 0
M  V30 9155 H 849.494 1.48227 -2.87768 0
M  V30 9156 H 848.401 -0.693118 -3.67623 0
M  V30 9157 H 849.734 -0.892575 -4.84039 0
M  V30 9158 N 851.386 1.48609 -0.524698 0
M  V30 9159 C 852.634 2.02097 0.0112991 0
M  V30 9160 C 852.955 1.40455 1.35268 0
M  V30 9161 O 852.225 0.56807 1.87483 0
M  V30 9162 H 850.805 0.746966 0.00716426 0
M  V30 9163 H 853.467 1.82378 -0.687329 0
M  V30 9164 H 852.563 3.11855 0.123531 0
M  V30 9165 N 852.864 0.259585 1.55447 0
M  V30 9166 C 854.111 -0.361607 1.99245 0
M  V30 9167 C 854.439 -1.57017 1.14787 0
M  V30 9168 O 853.694 -1.94658 0.201724 0
M  V30 9169 C 853.993 -0.802727 3.48269 0
M  V30 9170 C 853.659 0.299472 4.49904 0
M  V30 9171 C 852.321 0.602157 4.77418 0
M  V30 9172 C 854.673 1.04295 5.10658 0
M  V30 9173 C 852.001 1.65217 5.62957 0
M  V30 9174 C 854.353 2.08257 5.97337 0
M  V30 9175 C 853.017 2.39177 6.23178 0
M  V30 9176 H 852.287 -0.132322 0.72909 0
M  V30 9177 H 854.934 0.370059 1.8789 0
M  V30 9178 H 853.239 -1.61381 3.5702 0
M  V30 9179 H 854.936 -1.29385 3.79553 0
M  V30 9180 H 851.526 0.0534256 4.28567 0
M  V30 9181 H 855.71 0.822358 4.89439 0
M  V30 9182 H 850.966 1.89692 5.81229 0
M  V30 9183 H 855.14 2.6635 6.43452 0
M  V30 9184 H 852.767 3.20677 6.89253 0
M  V30 9185 N 854.342 -1.57594 -0.0133615 0
M  V30 9186 C 855.252 -2.10991 -1.02566 0
M  V30 9187 C 856.268 -1.05208 -1.3859 0
M  V30 9188 O 857.444 -1.37034 -1.47593 0
M  V30 9189 C 854.509 -2.59165 -2.30292 0
M  V30 9190 C 853.57 -3.79495 -2.00704 0
M  V30 9191 C 852.803 -4.25361 -3.22341 0
M  V30 9192 O 853.026 -3.70645 -4.33565 0
M  V30 9193 O 851.96 -5.17649 -3.07121 0
M  V30 9194 H 855.786 -2.97678 -0.601806 0
M  V30 9195 H 853.371 -1.47598 -0.23135 0
M  V30 9196 H 855.253 -2.90409 -3.05354 0
M  V30 9197 H 853.928 -1.75582 -2.71942 0
M  V30 9198 H 852.835 -3.53245 -1.23161 0
M  V30 9199 H 854.168 -4.64109 -1.639 0
M  V30 9200 N 855.82 0.285905 -1.54985 0
M  V30 9201 C 857.05 1.03626 -1.78732 0
M  V30 9202 C 857.458 1.80896 -0.554377 0
M  V30 9203 O 856.801 1.77161 0.48578 0
M  V30 9204 C 856.863 2.05185 -2.95193 0
M  V30 9205 C 856.527 1.46973 -4.32722 0
M  V30 9206 C 857.524 0.891986 -5.12191 0
M  V30 9207 C 855.209 1.50081 -4.79355 0
M  V30 9208 C 857.203 0.353078 -6.36421 0
M  V30 9209 C 854.89 0.958037 -6.03544 0
M  V30 9210 C 855.888 0.385157 -6.81913 0
M  V30 9211 O 855.576 -0.149341 -8.03761 0
M  V30 9212 H 855.308 0.312416 -0.599477 0
M  V30 9213 H 857.862 0.326067 -2.02795 0
M  V30 9214 H 856.092 2.79928 -2.66791 0
M  V30 9215 H 857.781 2.66244 -3.0638 0
M  V30 9216 H 858.547 0.860762 -4.77301 0
M  V30 9217 H 854.426 1.9361 -4.18373 0
M  V30 9218 H 857.97 -0.0947181 -6.97536 0
M  V30 9219 H 853.867 0.986458 -6.37918 0
M  V30 9220 H 854.635 -0.0374719 -8.18491 0
M  V30 9221 N 857.298 1.47698 0.54982 0
M  V30 9222 C 858.547 1.53961 1.30303 0
M  V30 9223 C 858.86 0.209731 1.94472 0
M  V30 9224 O 860.066 0.150418 2.71083 0
M  V30 9225 C 858.522 2.71436 2.36328 0
M  V30 9226 C 858.13 4.10983 1.78316 0
M  V30 9227 C 859.874 2.86996 3.12783 0
M  V30 9228 C 857.781 5.19747 2.82164 0
M  V30 9229 H 856.711 0.573098 0.489975 0
M  V30 9230 H 859.362 1.73989 0.583089 0
M  V30 9231 H 857.744 2.44801 3.11269 0
M  V30 9232 H 858.918 4.47552 1.09697 0
M  V30 9233 H 857.233 4.00371 1.1442 0
M  V30 9234 H 859.83 3.65422 3.90347 0
M  V30 9235 H 860.173 1.95712 3.67427 0
M  V30 9236 H 860.706 3.13436 2.44954 0
M  V30 9237 H 857.445 6.12932 2.32366 0
M  V30 9238 H 856.965 4.87688 3.49171 0
M  V30 9239 H 858.644 5.47014 3.4552 0
M  V30 9240 N 858.776 -0.797141 1.35954 0
M  V30 9241 C 859.724 -1.93084 1.29697 0
M  V30 9242 C 860.718 -1.68329 0.190152 0
M  V30 9243 O 861.924 -1.7643 0.3567 0
M  V30 9244 H 858.299 -0.634531 0.403577 0
M  V30 9245 H 860.27 -1.95481 2.25455 0
M  V30 9246 C 859.019 -3.29996 1.09536 0
M  V30 9247 H 858.342 -3.49607 1.93946 0
M  V30 9248 H 859.782 -4.09696 1.09202 0
M  V30 9249 C 858.241 -3.36304 -0.200381 0
M  V30 9250 O 858.771 -3.83579 -1.19291 0
M  V30 9251 N 856.977 -2.89587 -0.242406 0
M  V30 9252 H 856.524 -2.51307 0.565897 0
M  V30 9253 H 856.482 -2.94189 -1.10906 0
M  V30 9254 N 860.254 -1.20106 -1.0204 0
M  V30 9255 C 861.665 -1.00992 -1.57027 0
M  V30 9256 C 862.016 0.434782 -1.91322 0
M  V30 9257 O 861.141 1.31557 -1.71819 0
M  V30 9258 C 861.736 -1.82697 -2.85319 0
M  V30 9259 C 860.295 -1.67959 -3.36848 0
M  V30 9260 C 859.442 -1.80868 -2.10195 0
M  V30 9261 H 862.393 -1.34354 -0.844676 0
M  V30 9262 H 862.414 -1.32809 -3.5657 0
M  V30 9263 H 861.926 -2.87839 -2.60328 0
M  V30 9264 H 860.027 -0.654389 -3.66809 0
M  V30 9265 H 860.14 -2.49006 -4.09308 0
M  V30 9266 H 858.504 -1.24015 -2.22469 0
M  V30 9267 H 859.287 -2.87486 -1.87635 0
M  V30 9268 N 861.732 1.21287 -1.00634 0
M  V30 9269 C 862.662 2.25973 -0.588089 0
M  V30 9270 C 863.643 1.65527 0.391764 0
M  V30 9271 O 864.828 1.92179 0.279452 0
M  V30 9272 C 861.958 3.47197 0.0847336 0
M  V30 9273 C 860.912 4.20168 -0.815039 0
M  V30 9274 C 860.238 5.34699 -0.00855393 0
M  V30 9275 C 861.538 4.77416 -2.11828 0
M  V30 9276 H 863.232 2.61212 -1.46317 0
M  V30 9277 H 860.778 1.25563 -0.704985 0
M  V30 9278 H 862.731 4.19602 0.388821 0
M  V30 9279 H 861.455 3.11092 0.994456 0
M  V30 9280 H 860.114 3.49614 -1.10297 0
M  V30 9281 H 859.762 4.94837 0.902499 0
M  V30 9282 H 859.462 5.84449 -0.607664 0
M  V30 9283 H 860.986 6.09914 0.289317 0
M  V30 9284 H 862.4 5.41694 -1.87725 0
M  V30 9285 H 860.797 5.37561 -2.66736 0
M  V30 9286 H 861.867 3.96724 -2.78816 0
M  V30 9287 N 863.21 0.781244 1.36873 0
M  V30 9288 C 864.14 0.188128 2.32741 0
M  V30 9289 C 865.121 -0.672326 1.56249 0
M  V30 9290 O 866.306 -0.607835 1.84442 0
M  V30 9291 C 863.436 -0.684341 3.40491 0
M  V30 9292 C 862.39 0.0755641 4.27933 0
M  V30 9293 C 861.716 -0.916968 5.26779 0
M  V30 9294 C 863.016 1.26006 5.06873 0
M  V30 9295 H 864.71 0.989016 2.82593 0
M  V30 9296 H 862.256 0.477038 1.35869 0
M  V30 9297 H 864.209 -1.10915 4.06541 0
M  V30 9298 H 862.933 -1.51785 2.89187 0
M  V30 9299 H 861.592 0.481258 3.63427 0
M  V30 9300 H 861.24 -1.74528 4.71751 0
M  V30 9301 H 860.94 -0.413 5.86147 0
M  V30 9302 H 862.464 -1.34052 5.95703 0
M  V30 9303 H 863.878 0.911425 5.66009 0
M  V30 9304 H 862.275 1.69676 5.75613 0
M  V30 9305 H 863.345 2.05948 4.38991 0
M  V30 9306 N 864.689 -1.48329 0.532571 0
M  V30 9307 C 865.619 -2.32485 -0.217511 0
M  V30 9308 C 866.6 -1.42255 -0.932598 0
M  V30 9309 O 867.785 -1.7114 -0.917873 0
M  V30 9310 C 864.915 -3.23509 -1.26329 0
M  V30 9311 C 863.869 -4.22784 -0.666191 0
M  V30 9312 C 863.195 -5.0296 -1.81482 0
M  V30 9313 C 864.495 -5.21031 0.363813 0
M  V30 9314 H 866.189 -2.95445 0.485014 0
M  V30 9315 H 863.735 -1.42075 0.234694 0
M  V30 9316 H 865.688 -3.81211 -1.79601 0
M  V30 9317 H 864.412 -2.58554 -1.99543 0
M  V30 9318 H 863.071 -3.66272 -0.15498 0
M  V30 9319 H 862.719 -4.34427 -2.5354 0
M  V30 9320 H 862.419 -5.70154 -1.4212 0
M  V30 9321 H 863.943 -5.63514 -2.35126 0
M  V30 9322 H 865.357 -5.73241 -0.0819079 0
M  V30 9323 H 863.754 -5.96292 0.674956 0
M  V30 9324 H 864.824 -4.6801 1.26865 0
M  V30 9325 N 866.167 -0.267825 -1.55308 0
M  V30 9326 C 867.392 0.357487 -2.04296 0
M  V30 9327 C 867.817 1.49222 -1.14518 0
M  V30 9328 O 867.175 1.80741 -0.142292 0
M  V30 9329 C 867.223 0.822899 -3.51085 0
M  V30 9330 O 866.327 1.93078 -3.6441 0
M  V30 9331 H 865.668 0.075025 -0.659748 0
M  V30 9332 H 868.198 -0.399996 -2.00652 0
M  V30 9333 H 868.208 1.12059 -3.92309 0
M  V30 9334 H 866.883 -0.0073562 -4.15899 0
M  V30 9335 H 865.46 1.63618 -3.35087 0
M  V30 9336 N 867.645 1.57599 0.00500368 0
M  V30 9337 C 868.873 1.94626 0.702016 0
M  V30 9338 C 869.288 0.86953 1.67585 0
M  V30 9339 O 868.645 -0.15199 1.81866 0
M  V30 9340 C 868.696 3.31658 1.43824 0
M  V30 9341 O 868.417 4.35197 0.503467 0
M  V30 9342 C 869.918 3.83114 2.23021 0
M  V30 9343 H 867.138 0.641785 0.195841 0
M  V30 9344 H 869.682 2.04451 -0.0446287 0
M  V30 9345 H 867.837 3.23156 2.13655 0
M  V30 9346 H 868.251 5.1444 1.02235 0
M  V30 9347 H 869.725 4.81438 2.7004 0
M  V30 9348 H 870.202 3.15559 3.05482 0
M  V30 9349 H 870.808 3.94775 1.58216 0
M  V30 9350 N 869.123 -0.277682 1.55134 0
M  V30 9351 C 870.033 -1.36524 1.90783 0
M  V30 9352 C 871.049 -1.54283 0.804542 0
M  V30 9353 O 872.225 -1.68499 1.10318 0
M  V30 9354 C 869.29 -2.70524 2.16835 0
M  V30 9355 C 868.351 -2.61552 3.40424 0
M  V30 9356 C 867.584 -3.89162 3.65224 0
M  V30 9357 O 867.807 -4.89624 2.92616 0
M  V30 9358 O 866.741 -3.89647 4.58758 0
M  V30 9359 H 870.567 -1.0929 2.83354 0
M  V30 9360 H 868.152 -0.475799 1.41621 0
M  V30 9361 H 870.034 -3.49765 2.35038 0
M  V30 9362 H 868.709 -2.97555 1.27448 0
M  V30 9363 H 867.616 -1.80704 3.27562 0
M  V30 9364 H 868.949 -2.39472 4.30016 0
M  V30 9365 N 870.601 -1.47988 -0.541979 0
M  V30 9366 C 871.511 -1.64276 -1.67483 0
M  V30 9367 C 872.527 -0.525387 -1.65879 0
M  V30 9368 O 873.703 -0.794912 -1.85049 0
M  V30 9369 C 870.768 -1.66744 -3.03969 0
M  V30 9370 C 869.829 -2.90021 -3.16522 0
M  V30 9371 C 869.062 -2.92362 -4.46498 0
M  V30 9372 O 869.285 -2.03462 -5.32878 0
M  V30 9373 O 868.219 -3.84399 -4.63164 0
M  V30 9374 H 872.045 -2.60164 -1.5668 0
M  V30 9375 H 869.63 -1.31249 -0.71372 0
M  V30 9376 H 871.512 -1.70958 -3.85164 0
M  V30 9377 H 870.187 -0.740277 -3.15122 0
M  V30 9378 H 869.094 -2.91345 -2.34667 0
M  V30 9379 H 870.427 -3.82082 -3.10281 0
M  V30 9380 N 872.079 0.78992 -1.36375 0
M  V30 9381 C 873.304 1.58389 -1.33895 0
M  V30 9382 C 873.729 1.8794 0.0774934 0
M  V30 9383 O 873.087 1.4785 1.0493 0
M  V30 9384 C 873.135 2.88201 -2.16732 0
M  V30 9385 O 872.239 3.81778 -1.55946 0
M  V30 9386 H 871.58 0.480471 -0.458305 0
M  V30 9387 H 874.11 0.979119 -1.79651 0
M  V30 9388 H 874.12 3.37475 -2.29292 0
M  V30 9389 H 872.795 2.66019 -3.19698 0
M  V30 9390 H 871.372 3.40371 -1.52323 0
M  V30 9391 N 873.557 1.20646 1.01402 0
M  V30 9392 C 874.803 1.0197 1.753 0
M  V30 9393 C 875.136 -0.446803 1.8899 0
M  V30 9394 O 874.411 -1.33169 1.41762 0
M  V30 9395 C 874.694 1.70693 3.17074 0
M  V30 9396 C 874.547 3.24805 3.11162 0
M  V30 9397 C 875.866 1.44212 4.15802 0
M  V30 9398 H 872.985 0.371844 0.636318 0
M  V30 9399 H 875.627 1.48696 1.18277 0
M  V30 9400 H 873.777 1.30968 3.65759 0
M  V30 9401 H 875.449 3.73841 2.70261 0
M  V30 9402 H 873.692 3.55576 2.48492 0
M  V30 9403 H 874.363 3.68049 4.11393 0
M  V30 9404 H 876.839 1.7868 3.75783 0
M  V30 9405 H 875.715 1.94825 5.13161 0
M  V30 9406 H 875.976 0.370252 4.40547 0
M  V30 9407 O 875.074 -1.14398 1.13997 0
M  V30 9408 H 875.765 -1.73596 0.859308 0
M  V30 END ATOM
M  V30 BEGIN BOND
M  V30 END BOND
M  V30 END CTAB
M  END
$$$$
