drugbank_target|Q8N159 N-acetylglutamate synthase, mitochondrial (DB00142)
 OpenBabel12092120083D

  0  0  0     0  0            999 V3000
M  V30 BEGIN CTAB
M  V30 COUNTS 8192 8292 0 0 0
M  V30 BEGIN ATOM
M  V30 1 H -0.908 1.98254 -0.117106 0
M  V30 2 N 0 1.576 0 0
M  V30 3 C 0.933 2.03868 1.02534 0
M  V30 4 C 1.911 0.928543 1.3348 0
M  V30 5 O 3.095 1.19667 1.45644 0
M  V30 6 C 0.222 2.43627 2.35294 0
M  V30 7 C -0.732 3.65373 2.2001 0
M  V30 8 S 0.101 5.13292 1.52614 0
M  V30 9 C 1.257 5.56322 2.86805 0
M  V30 10 H 1.49 2.90518 0.631377 0
M  V30 11 H -0.977 1.52953 0.210867 0
M  V30 12 H 0.981 2.67203 3.11629 0
M  V30 13 H -0.358 1.57376 2.7183 0
M  V30 14 H -1.165 3.90944 3.18086 0
M  V30 15 H -1.563 3.418 1.51819 0
M  V30 16 H 0.729 5.58782 3.83104 0
M  V30 17 H 1.672 6.56266 2.65933 0
M  V30 18 H 2.08 4.83886 2.90714 0
M  V30 19 N 1.4781 -0.272755 1.55222 0
M  V30 20 C 2.4411 -1.32041 1.87344 0
M  V30 21 C 3.4411 -1.42342 0.74803 0
M  V30 22 O 4.6311 -1.41488 1.0162 0
M  V30 23 C 1.7631 -2.70173 2.07893 0
M  V30 24 H 2.9561 -1.04789 2.80997 0
M  V30 25 H 0.5091 -0.51083 1.47717 0
M  V30 26 H 1.2441 -3.02605 1.16622 0
M  V30 27 H 1.0291 -2.64082 2.89833 0
M  V30 28 H 2.5191 -3.45869 2.34017 0
M  V30 29 N 2.9562 -1.48159 -0.537278 0
M  V30 30 C 4.1842 -1.59454 -1.31841 0
M  V30 31 C 4.5992 -0.252065 -1.8711 0
M  V30 32 O 3.9562 0.757621 -1.66031 0
M  V30 33 C 4.0072 -2.63546 -2.47439 0
M  V30 34 O 3.7282 -3.92583 -1.94449 0
M  V30 35 C 5.2292 -2.85212 -3.39366 0
M  V30 36 H 2.4492 -0.53785 -0.401196 0
M  V30 37 H 4.9932 -1.93932 -0.648891 0
M  V30 38 H 3.1482 -2.31946 -3.1029 0
M  V30 39 H 3.5622 -4.49629 -2.70063 0
M  V30 40 H 5.0362 -3.61863 -4.16844 0
M  V30 41 H 5.5132 -1.93765 -3.94147 0
M  V30 42 H 6.1192 -3.18086 -2.82314 0
M  V30 43 N 4.4343 0.785586 -1.36625 0
M  V30 44 C 5.3973 1.87999 -1.31107 0
M  V30 45 C 6.3973 1.59316 -0.217959 0
M  V30 46 O 7.5873 1.67656 -0.472977 0
M  V30 47 C 4.7193 3.24861 -1.03334 0
M  V30 48 H 5.9123 1.94307 -2.2844 0
M  V30 49 H 3.4653 0.983813 -1.21453 0
M  V30 50 H 4.2003 3.24235 -0.0647432 0
M  V30 51 H 3.9853 3.4707 -1.82441 0
M  V30 52 H 5.4753 4.04929 -1.02088 0
M  V30 53 N 5.9124 1.20967 1.01018 0
M  V30 54 C 6.8424 0.988272 2.11555 0
M  V30 55 C 7.8234 -0.0849778 1.69888 0
M  V30 56 O 9.0084 0.0738202 1.9406 0
M  V30 57 C 6.1384 0.546528 3.42973 0
M  V30 58 C 5.0924 1.56375 3.9841 0
M  V30 59 C 4.4184 0.97842 5.25672 0
M  V30 60 C 5.7184 2.94922 4.31066 0
M  V30 61 H 7.4124 1.91276 2.30334 0
M  V30 62 H 4.9584 0.921073 1.1069 0
M  V30 63 H 6.9114 0.378839 4.19694 0
M  V30 64 H 5.6354 -0.413598 3.23971 0
M  V30 65 H 4.2944 1.71891 3.23804 0
M  V30 66 H 3.9424 0.0101688 5.02999 0
M  V30 67 H 3.6424 1.65784 5.63728 0
M  V30 68 H 5.1664 0.821939 6.05043 0
M  V30 69 H 6.5804 2.8288 4.9865 0
M  V30 70 H 4.9774 3.5983 4.80253 0
M  V30 71 H 6.0474 3.4616 3.39561 0
M  V30 72 N 7.3905 -1.2043 1.01659 0
M  V30 73 C 8.3235 -2.21924 0.531521 0
M  V30 74 C 9.3015 -1.57054 -0.421032 0
M  V30 75 O 10.4855 -1.85389 -0.341035 0
M  V30 76 C 7.6125 -3.37942 -0.226496 0
M  V30 77 C 6.6585 -4.21115 0.67561 0
M  V30 78 S 7.4915 -4.90674 2.14475 0
M  V30 79 C 8.6475 -6.10113 1.3969 0
M  V30 80 H 8.8805 -2.62725 1.3915 0
M  V30 81 H 6.4135 -1.30481 0.825479 0
M  V30 82 H 8.3715 -4.05196 -0.657738 0
M  V30 83 H 7.0325 -2.956 -1.06205 0
M  V30 84 H 6.2255 -5.03918 0.091108 0
M  V30 85 H 5.8275 -3.59115 1.04463 0
M  V30 86 H 8.1195 -6.7411 0.676897 0
M  V30 87 H 9.0625 -6.73022 2.20107 0
M  V30 88 H 9.4705 -5.57283 0.899786 0
M  V30 89 N 8.8686 -0.792821 -1.36206 0
M  V30 90 C 9.8316 -0.199459 -2.2833 0
M  V30 91 C 10.8316 0.605189 -1.48977 0
M  V30 92 O 12.0216 0.425685 -1.68919 0
M  V30 93 C 9.1536 0.723523 -3.33134 0
M  V30 94 H 10.3466 -1.01181 -2.82316 0
M  V30 95 H 7.8996 -0.562485 -1.45828 0
M  V30 96 H 8.6346 1.56008 -2.84309 0
M  V30 97 H 8.4196 0.148436 -3.91819 0
M  V30 98 H 9.9096 1.13344 -4.01924 0
M  V30 99 N 10.3467 1.47872 -0.545128 0
M  V30 100 C 11.5927 2.02793 -0.0166104 0
M  V30 101 C 11.9257 1.41987 1.32489 0
M  V30 102 O 11.2007 0.571045 1.85928 0
M  V30 103 C 11.4837 3.59989 0.0893294 0
M  V30 104 C 11.3367 4.3125 -1.27841 0
M  V30 105 C 12.6557 4.32606 0.808724 0
M  V30 106 H 9.7747 0.736962 -0.00751035 0
M  V30 107 H 12.4167 1.76433 -0.705085 0
M  V30 108 H 10.5667 3.82579 0.675681 0
M  V30 109 H 12.2387 4.20035 -1.90704 0
M  V30 110 H 10.4817 3.92076 -1.85632 0
M  V30 111 H 11.1527 5.39736 -1.15713 0
M  V30 112 H 13.6287 4.14936 0.310992 0
M  V30 113 H 12.5047 5.42251 0.851782 0
M  V30 114 H 12.7657 4.00963 1.86229 0
M  V30 115 N 11.8248 0.280983 1.55075 0
M  V30 116 C 13.0708 -0.33461 2.00021 0
M  V30 117 C 13.4038 -1.55063 1.16915 0
M  V30 118 O 12.6788 -1.93006 0.240646 0
M  V30 119 C 12.9618 -0.711007 3.53011 0
M  V30 120 C 12.8148 0.512766 4.46868 0
M  V30 121 C 14.1338 -1.54522 4.12081 0
M  V30 122 H 11.2528 -0.120147 0.727141 0
M  V30 123 H 13.8948 0.389097 1.85973 0
M  V30 124 H 12.0448 -1.32761 3.65112 0
M  V30 125 H 13.7168 1.15131 4.46702 0
M  V30 126 H 11.9598 1.14975 4.18286 0
M  V30 127 H 12.6308 0.205556 5.51617 0
M  V30 128 H 15.1068 -1.02442 4.03293 0
M  V30 129 H 13.9828 -1.77739 5.19327 0
M  V30 130 H 14.2438 -2.52813 3.62682 0
M  V30 131 N 13.3029 -1.57598 0.00835791 0
M  V30 132 C 14.2329 -2.1198 -0.979113 0
M  V30 133 C 15.2139 -1.03091 -1.35301 0
M  V30 134 O 16.3989 -1.30818 -1.43528 0
M  V30 135 C 13.5289 -2.62995 -2.26828 0
M  V30 136 C 12.4829 -3.76485 -2.03576 0
M  V30 137 C 11.8089 -4.13846 -3.38579 0
M  V30 138 C 13.1089 -5.0342 -1.39161 0
M  V30 139 H 14.8029 -2.94738 -0.526281 0
M  V30 140 H 12.3489 -1.41783 -0.251704 0
M  V30 141 H 14.3019 -2.99669 -2.96271 0
M  V30 142 H 13.0259 -1.7737 -2.7424 0
M  V30 143 H 11.6849 -3.40217 -1.36557 0
M  V30 144 H 11.3329 -3.25232 -3.83709 0
M  V30 145 H 11.0329 -4.90312 -3.23834 0
M  V30 146 H 12.5569 -4.53086 -4.09323 0
M  V30 147 H 13.9709 -5.37812 -1.98573 0
M  V30 148 H 12.3679 -5.84746 -1.34878 0
M  V30 149 H 13.4379 -4.83548 -0.361868 0
M  V30 150 N 14.781 0.264519 -1.55364 0
M  V30 151 C 16.197 0.61215 -1.47394 0
M  V30 152 C 16.397 1.89134 -0.695018 0
M  V30 153 O 15.453 2.51563 -0.217275 0
M  V30 154 C 16.766 0.731235 -2.91674 0
M  V30 155 C 18.314 0.82473 -3.01939 0
M  V30 156 C 18.789 0.975522 -4.4749 0
M  V30 157 N 20.28 1.04083 -4.51354 0
M  V30 158 C 21.015 1.17646 -5.61201 0
M  V30 159 N 20.511 1.27874 -6.80896 0
M  V30 160 N 22.304 1.20823 -5.48961 0
M  V30 161 H 14.455 -0.575456 -2.04456 0
M  V30 162 H 16.718 -0.196099 -0.927496 0
M  V30 163 H 16.424 -0.138392 -3.51428 0
M  V30 164 H 16.298 1.60883 -3.41169 0
M  V30 165 H 18.685 1.68482 -2.42276 0
M  V30 166 H 18.766 -0.0776479 -2.55682 0
M  V30 167 H 18.41 0.120058 -5.07758 0
M  V30 168 H 18.34 1.89268 -4.91412 0
M  V30 169 H 20.831 0.973846 -3.65136 0
M  V30 170 H 21.144 1.38081 -7.60364 0
M  V30 171 H 19.489 1.24863 -6.83692 0
M  V30 172 H 22.68 1.12469 -4.54388 0
M  V30 173 H 22.853 1.31049 -6.3461 0
M  V30 174 N 16.2591 1.48442 0.529413 0
M  V30 175 C 17.2221 1.62524 1.61612 0
M  V30 176 C 18.2221 0.498509 1.52877 0
M  V30 177 O 19.4121 0.76431 1.56537 0
M  V30 178 C 16.5441 1.59597 3.01233 0
M  V30 179 H 17.7371 2.59423 1.50465 0
M  V30 180 H 15.2901 1.37047 0.751514 0
M  V30 181 H 16.0251 0.641781 3.17886 0
M  V30 182 H 15.8101 2.41397 3.08982 0
M  V30 183 H 17.3001 1.72646 3.80241 0
M  V30 184 N 17.7372 -0.778329 1.37039 0
M  V30 185 C 18.7002 -1.87301 1.32102 0
M  V30 186 C 19.7002 -1.59198 0.226405 0
M  V30 187 O 20.8902 -1.67403 0.481861 0
M  V30 188 C 18.0222 -3.24309 1.05055 0
M  V30 189 H 19.2152 -1.93093 2.29467 0
M  V30 190 H 16.7682 -0.977358 1.21973 0
M  V30 191 H 17.5032 -3.24196 0.0819373 0
M  V30 192 H 17.2882 -3.46098 1.84279 0
M  V30 193 H 18.7782 -4.04382 1.04234 0
M  V30 194 N 19.2153 -1.21501 -1.00376 0
M  V30 195 C 20.1783 -0.976927 -2.07337 0
M  V30 196 C 21.1783 0.0525322 -1.60714 0
M  V30 197 O 22.3683 -0.184869 -1.73216 0
M  V30 198 C 19.5003 -0.473423 -3.37597 0
M  V30 199 H 20.6933 -1.92587 -2.29892 0
M  V30 200 H 18.2463 -1.03217 -1.17371 0
M  V30 201 H 18.9813 0.480379 -3.20722 0
M  V30 202 H 18.7663 -1.216 -3.72768 0
M  V30 203 H 20.2563 -0.32675 -4.1632 0
M  V30 204 N 20.6934 1.19889 -1.02296 0
M  V30 205 C 21.9394 1.89701 -0.717033 0
M  V30 206 C 22.2724 1.7905 0.751989 0
M  V30 207 O 21.5474 1.17891 1.547 0
M  V30 208 C 21.8304 3.40858 -1.16136 0
M  V30 209 C 21.6834 3.60411 -2.69117 0
M  V30 210 C 23.0024 4.33876 -0.737549 0
M  V30 211 H 20.1214 0.688874 -0.261957 0
M  V30 212 H 22.7634 1.41154 -1.27183 0
M  V30 213 H 20.9134 3.82335 -0.689342 0
M  V30 214 H 22.5854 3.28145 -3.2422 0
M  V30 215 H 20.8284 3.03665 -3.0979 0
M  V30 216 H 21.4994 4.66396 -2.95261 0
M  V30 217 H 23.9754 4.00081 -1.14344 0
M  V30 218 H 22.8514 5.38242 -1.0764 0
M  V30 219 H 23.1124 4.40628 0.360436 0
M  V30 220 N 22.1715 0.800033 1.35784 0
M  V30 221 C 23.1345 0.211565 2.28221 0
M  V30 222 C 24.1345 -0.59728 1.49296 0
M  V30 223 O 25.3245 -0.416721 1.69142 0
M  V30 224 C 22.4565 -0.705846 3.33513 0
M  V30 225 H 23.6495 1.02677 2.81776 0
M  V30 226 H 21.2025 0.570211 1.45528 0
M  V30 227 H 21.9375 -1.54498 2.85133 0
M  V30 228 H 21.7225 -0.127655 3.91892 0
M  V30 229 H 23.2125 -1.11211 4.02519 0
M  V30 230 N 23.6496 -1.47581 0.552962 0
M  V30 231 C 25.0606 -1.86324 0.118463 0
M  V30 232 C 25.4116 -1.46006 -1.3106 0
M  V30 233 O 24.5366 -0.861182 -1.98526 0
M  V30 234 C 25.1316 -3.3816 0.20821 0
M  V30 235 C 23.6906 -3.7601 -0.171226 0
M  V30 236 C 22.8376 -2.71634 0.557686 0
M  V30 237 H 25.7886 -1.39159 0.762928 0
M  V30 238 H 25.8096 -3.76141 -0.574278 0
M  V30 239 H 25.3216 -3.67473 1.24841 0
M  V30 240 H 23.4226 -3.52313 -1.21269 0
M  V30 241 H 23.5356 -4.78745 0.184379 0
M  V30 242 H 21.8996 -2.547 0.00125792 0
M  V30 243 H 22.6826 -3.0379 1.59896 0
M  V30 244 N 25.1277 -0.289203 -1.54924 0
M  V30 245 C 26.5437 0.0645403 -1.59469 0
M  V30 246 C 26.7437 1.53419 -1.30632 0
M  V30 247 O 25.7997 2.2852 -1.074 0
M  V30 248 C 27.1127 -0.32278 -2.98963 0
M  V30 249 C 28.6607 -0.270564 -3.11828 0
M  V30 250 C 29.1357 -0.632532 -4.53611 0
M  V30 251 N 30.6267 -0.584617 -4.59496 0
M  V30 252 C 31.3617 -0.837314 -5.67254 0
M  V30 253 N 30.8577 -1.15536 -6.83098 0
M  V30 254 N 32.6507 -0.765166 -5.56868 0
M  V30 255 H 24.8017 -1.24714 -1.71931 0
M  V30 256 H 27.0647 -0.504809 -0.802416 0
M  V30 257 H 26.7707 -1.34541 -3.24948 0
M  V30 258 H 26.6447 0.32944 -3.75759 0
M  V30 259 H 29.0317 0.742805 -2.85598 0
M  V30 260 H 29.1127 -0.957242 -2.37214 0
M  V30 261 H 28.7567 -1.64365 -4.80569 0
M  V30 262 H 28.6867 0.07609 -5.26545 0
M  V30 263 H 31.1777 -0.349248 -3.76283 0
M  V30 264 H 31.4907 -1.33447 -7.61191 0
M  V30 265 H 29.8357 -1.19328 -6.84679 0
M  V30 266 H 33.0267 -0.516432 -4.65243 0
M  V30 267 H 33.1997 -0.965477 -6.40767 0
M  V30 268 N 26.6058 1.57591 -0.0167156 0
M  V30 269 C 27.5358 2.12496 0.967858 0
M  V30 270 C 28.5168 1.03807 1.34752 0
M  V30 271 O 29.7018 1.31577 1.42833 0
M  V30 272 C 26.8318 2.64194 2.25431 0
M  V30 273 C 25.7858 3.77559 2.01576 0
M  V30 274 C 25.1118 4.15636 3.36379 0
M  V30 275 C 26.4118 5.04151 1.36489 0
M  V30 276 H 28.1058 2.95013 0.510643 0
M  V30 277 H 25.6518 1.41915 0.244181 0
M  V30 278 H 27.6048 3.01236 2.94678 0
M  V30 279 H 26.3288 1.78821 2.73296 0
M  V30 280 H 24.9878 3.40937 1.34751 0
M  V30 281 H 24.6358 3.27263 3.81979 0
M  V30 282 H 24.3358 4.92022 3.21229 0
M  V30 283 H 25.8598 4.5525 4.06915 0
M  V30 284 H 27.2738 5.38857 1.95718 0
M  V30 285 H 25.6708 5.85453 1.31776 0
M  V30 286 H 26.7408 4.83733 0.336219 0
M  V30 287 N 28.0839 -0.256276 1.55502 0
M  V30 288 C 29.4999 -0.604325 1.47716 0
M  V30 289 C 29.6999 -1.88763 0.705039 0
M  V30 290 O 28.7559 -2.51445 0.230613 0
M  V30 291 C 30.0689 -0.715756 2.92057 0
M  V30 292 C 31.6169 -0.808706 3.02372 0
M  V30 293 C 32.0919 -0.951777 4.48001 0
M  V30 294 N 33.5829 -1.01688 4.519 0
M  V30 295 C 34.3179 -1.14668 5.61817 0
M  V30 296 N 33.8139 -1.24261 6.81565 0
M  V30 297 N 35.6069 -1.1791 5.49594 0
M  V30 298 H 27.7579 0.586291 2.04148 0
M  V30 299 H 30.0209 0.201015 0.926443 0
M  V30 300 H 29.7269 0.157027 3.51349 0
M  V30 301 H 29.6009 -1.59071 3.42018 0
M  V30 302 H 31.9879 -1.67195 2.43166 0
M  V30 303 H 32.0689 0.0912063 2.55637 0
M  V30 304 H 31.7129 -0.0931291 5.07815 0
M  V30 305 H 31.6429 -1.86659 4.92408 0
M  V30 306 H 34.1339 -0.954468 3.65648 0
M  V30 307 H 34.4469 -1.34046 7.61086 0
M  V30 308 H 32.7919 -1.21236 6.84344 0
M  V30 309 H 35.9829 -1.10057 4.54978 0
M  V30 310 H 36.1559 -1.27681 6.35296 0
M  V30 311 N 29.562 -1.4872 -0.521534 0
M  V30 312 C 30.81 -1.56857 -1.27437 0
M  V30 313 C 31.131 -0.247982 -1.93417 0
M  V30 314 O 30.401 0.731151 -1.81744 0
M  V30 315 H 28.981 -0.577885 -0.473347 0
M  V30 316 H 31.643 -1.85233 -0.606205 0
M  V30 317 H 30.739 -2.35402 -2.0492 0
M  V30 318 N 31.0401 0.771051 -1.3745 0
M  V30 319 C 32.4561 1.07171 -1.18265 0
M  V30 320 C 32.6561 2.01491 -0.019287 0
M  V30 321 O 31.7121 2.44244 0.640408 0
M  V30 322 C 33.0251 1.66854 -2.50161 0
M  V30 323 C 34.5731 1.79109 -2.56689 0
M  V30 324 C 35.0481 2.42205 -3.88717 0
M  V30 325 N 36.5391 2.49655 -3.90162 0
M  V30 326 C 37.2741 2.9933 -4.8907 0
M  V30 327 N 36.7701 3.49172 -5.98374 0
M  V30 328 N 38.5631 2.9821 -4.76474 0
M  V30 329 H 30.7141 0.144796 -2.11906 0
M  V30 330 H 32.9771 0.126863 -0.939473 0
M  V30 331 H 32.6831 1.05017 -3.35655 0
M  V30 332 H 32.5571 2.6614 -2.673 0
M  V30 333 H 34.9441 2.40077 -1.71601 0
M  V30 334 H 35.0251 0.785757 -2.43433 0
M  V30 335 H 34.6691 1.81875 -4.74219 0
M  V30 336 H 34.5991 3.43345 -3.99276 0
M  V30 337 H 37.0901 2.14383 -3.11205 0
M  V30 338 H 37.4031 3.8548 -6.69795 0
M  V30 339 H 35.7481 3.47275 -6.02018 0
M  V30 340 H 38.9391 2.58572 -3.90203 0
M  V30 341 H 39.1121 3.36613 -5.53711 0
M  V30 342 N 32.5182 1.22032 0.997298 0
M  V30 343 C 33.7662 1.04016 1.73278 0
M  V30 344 C 34.0872 -0.426255 1.90284 0
M  V30 345 O 33.3572 -1.30694 1.45931 0
M  V30 346 H 31.9372 0.381897 0.642 0
M  V30 347 H 34.5992 1.5347 1.20137 0
M  V30 348 H 33.6952 1.51441 2.72896 0
M  V30 349 N 33.9963 -1.19345 1.0293 0
M  V30 350 C 35.2443 -1.88665 0.724574 0
M  V30 351 C 35.5653 -1.80036 -0.749144 0
M  V30 352 O 34.8353 -1.2111 -1.53978 0
M  V30 353 H 33.4153 -0.698406 0.265025 0
M  V30 354 H 36.0773 -1.44885 1.30362 0
M  V30 355 H 35.1733 -2.94987 1.01926 0
M  V30 356 N 35.4744 -0.807222 -1.35358 0
M  V30 357 C 36.7024 -0.400377 -2.02989 0
M  V30 358 C 37.1174 0.988859 -1.60832 0
M  V30 359 O 36.4744 1.63729 -0.806175 0
M  V30 360 C 36.5254 -0.474867 -3.58368 0
M  V30 361 O 36.2464 -1.80933 -3.98992 0
M  V30 362 C 37.7474 -0.0609112 -4.43258 0
M  V30 363 H 34.9674 -0.162587 -0.651004 0
M  V30 364 H 37.5114 -1.09102 -1.72965 0
M  V30 365 H 35.6664 0.167534 -3.87038 0
M  V30 366 H 36.0804 -1.77256 -4.9364 0
M  V30 367 H 37.5544 -0.164145 -5.51756 0
M  V30 368 H 38.0314 0.993831 -4.27808 0
M  V30 369 H 38.6374 -0.676492 -4.19885 0
M  V30 370 N 36.9525 1.47285 -0.560781 0
M  V30 371 C 38.2005 2.02064 -0.0379868 0
M  V30 372 C 38.5215 1.43711 1.31803 0
M  V30 373 O 37.7915 0.61362 1.86042 0
M  V30 374 H 36.3715 0.746918 -0.0110531 0
M  V30 375 H 39.0335 1.80648 -0.731598 0
M  V30 376 H 38.1295 3.12064 0.0474463 0
M  V30 377 N 38.4306 0.297415 1.54768 0
M  V30 378 C 39.6786 -0.312295 1.99673 0
M  V30 379 C 39.9996 -1.54686 1.18732 0
M  V30 380 O 39.2696 -1.93854 0.282382 0
M  V30 381 H 37.8496 -0.118381 0.73756 0
M  V30 382 H 40.5116 0.407915 1.90583 0
M  V30 383 H 39.6076 -0.586813 3.06534 0
M  V30 384 N 39.9087 -1.5758 0.0250728 0
M  V30 385 C 40.8717 -2.08896 -0.943139 0
M  V30 386 C 41.8717 -1.00321 -1.25668 0
M  V30 387 O 43.0617 -1.26495 -1.19769 0
M  V30 388 C 40.1937 -2.55143 -2.26086 0
M  V30 389 H 41.3867 -2.95723 -0.498775 0
M  V30 390 H 38.9397 -1.54703 -0.222888 0
M  V30 391 H 39.6747 -1.71633 -2.75159 0
M  V30 392 H 39.4597 -3.34461 -2.04641 0
M  V30 393 H 40.9497 -2.95083 -2.95492 0
M  V30 394 N 41.3868 0.248026 -1.55636 0
M  V30 395 C 42.8028 0.596483 -1.48035 0
M  V30 396 C 43.0028 1.88386 -0.715039 0
M  V30 397 O 42.0588 2.51319 -0.243944 0
M  V30 398 C 43.3718 0.700258 -2.92433 0
M  V30 399 C 44.9198 0.792659 -3.02797 0
M  V30 400 C 45.3948 0.928005 -4.485 0
M  V30 401 N 46.8858 0.992903 -4.52433 0
M  V30 402 C 47.6208 1.11687 -5.62418 0
M  V30 403 N 47.1168 1.20645 -6.82214 0
M  V30 404 N 48.9098 1.14994 -5.50212 0
M  V30 405 H 41.0608 -0.597109 -2.03834 0
M  V30 406 H 43.3238 -0.205925 -0.925364 0
M  V30 407 H 43.0298 -0.175658 -3.51261 0
M  V30 408 H 42.9038 1.57255 -3.42857 0
M  V30 409 H 45.2908 1.65903 -2.4405 0
M  V30 410 H 45.3718 -0.104762 -2.55585 0
M  V30 411 H 45.0158 0.0661971 -5.07857 0
M  V30 412 H 44.9458 1.84045 -4.93391 0
M  V30 413 H 47.4368 0.935064 -3.66149 0
M  V30 414 H 47.7498 1.30008 -7.61786 0
M  V30 415 H 46.0948 1.17605 -6.84977 0
M  V30 416 H 49.2858 1.07643 -4.55555 0
M  V30 417 H 49.4588 1.24311 -6.35965 0
M  V30 418 N 42.8649 1.48995 0.513639 0
M  V30 419 C 44.2809 1.35478 0.843682 0
M  V30 420 C 44.4809 0.378213 1.97919 0
M  V30 421 O 43.5369 -0.194689 2.51748 0
M  V30 422 C 44.8499 2.75901 1.1958 0
M  V30 423 C 46.3979 2.84509 1.30474 0
M  V30 424 C 46.8729 4.25671 1.69021 0
M  V30 425 N 48.3639 4.28422 1.76094 0
M  V30 426 C 49.0989 5.34601 2.07338 0
M  V30 427 N 48.5949 6.5104 2.36894 0
M  V30 428 N 50.3879 5.22007 2.08483 0
M  V30 429 H 42.5389 2.11092 -0.235328 0
M  V30 430 H 44.8019 0.947039 -0.0426669 0
M  V30 431 H 44.5079 3.49001 0.434913 0
M  V30 432 H 44.3819 3.10467 2.1422 0
M  V30 433 H 46.7689 2.11655 2.05637 0
M  V30 434 H 46.8499 2.53542 0.339155 0
M  V30 435 H 46.4939 4.99048 0.944135 0
M  V30 436 H 46.4239 4.54094 2.66658 0
M  V30 437 H 48.9149 3.44441 1.55464 0
M  V30 438 H 49.2279 7.2779 2.59887 0
M  V30 439 H 47.5729 6.54287 2.34378 0
M  V30 440 H 50.7639 4.30051 1.84861 0
M  V30 441 H 50.9369 6.04854 2.325 0
M  V30 442 N 44.343 -0.763751 1.37857 0
M  V30 443 C 45.273 -1.89103 1.36975 0
M  V30 444 C 46.254 -1.68439 0.237152 0
M  V30 445 O 47.439 -1.8918 0.438713 0
M  V30 446 C 44.569 -3.26496 1.18395 0
M  V30 447 C 43.523 -3.61741 2.28751 0
M  V30 448 C 42.849 -4.97762 1.95286 0
M  V30 449 C 44.149 -3.67665 3.70972 0
M  V30 450 H 45.843 -1.90099 2.31307 0
M  V30 451 H 43.389 -0.91319 1.11341 0
M  V30 452 H 45.342 -4.05003 1.16406 0
M  V30 453 H 44.066 -3.25955 0.205215 0
M  V30 454 H 42.725 -2.85547 2.29909 0
M  V30 455 H 42.373 -4.93769 0.959221 0
M  V30 456 H 42.073 -5.22313 2.69189 0
M  V30 457 H 43.597 -5.7866 1.94898 0
M  V30 458 H 45.011 -4.36307 3.719 0
M  V30 459 H 43.408 -4.03718 4.43995 0
M  V30 460 H 44.478 -2.68134 4.0402 0
M  V30 461 N 45.8211 -1.22559 -0.990812 0
M  V30 462 C 47.0461 -1.07862 -1.77145 0
M  V30 463 C 47.4711 0.366447 -1.84496 0
M  V30 464 O 46.8291 1.26478 -1.29896 0
M  V30 465 C 46.8771 -1.69686 -3.18181 0
M  V30 466 O 45.9811 -0.951946 -4.01263 0
M  V30 467 H 45.3221 -0.378712 -0.545411 0
M  V30 468 H 47.8521 -1.62399 -1.2445 0
M  V30 469 H 47.8621 -1.74496 -3.68802 0
M  V30 470 H 46.5371 -2.74841 -3.12146 0
M  V30 471 H 45.1141 -0.980011 -3.59792 0
M  V30 472 N 47.2992 1.18797 -1.03562 0
M  V30 473 C 48.5392 1.90346 -0.744832 0
M  V30 474 C 48.9032 1.78231 0.713972 0
M  V30 475 O 50.1042 2.44441 1.11813 0
M  V30 476 C 48.3752 3.36942 -1.19184 0
M  V30 477 S 49.9342 4.26638 -1.02593 0
M  V30 478 H 46.7522 0.657343 -0.270963 0
M  V30 479 H 49.3542 1.43579 -1.32685 0
M  V30 480 H 48.0582 3.43287 -2.24905 0
M  V30 481 H 47.5892 3.88745 -0.603397 0
M  V30 482 H 49.6042 4.96164 0.0596033 0
M  V30 483 N 48.7773 0.814389 1.34928 0
M  V30 484 C 50.0253 0.397636 1.9815 0
M  V30 485 C 50.3463 -1.04069 1.64908 0
M  V30 486 O 49.6163 -1.72121 0.93548 0
M  V30 487 H 48.1963 0.144043 0.732981 0
M  V30 488 H 50.8583 1.04195 1.6471 0
M  V30 489 H 49.9543 0.509688 3.0791 0
M  V30 490 N 50.2554 -1.46986 0.568584 0
M  V30 491 C 51.2184 -2.28624 -0.162366 0
M  V30 492 C 52.2184 -1.37596 -0.832103 0
M  V30 493 O 53.4084 -1.60115 -0.68622 0
M  V30 494 C 50.5404 -3.17596 -1.23878 0
M  V30 495 H 51.7334 -2.94722 0.554899 0
M  V30 496 H 49.2864 -1.52863 0.325976 0
M  V30 497 H 50.0214 -2.56214 -1.98808 0
M  V30 498 H 49.8064 -3.846 -0.763219 0
M  V30 499 H 51.2964 -3.79078 -1.75185 0
M  V30 500 N 51.7335 -0.305618 -1.54608 0
M  V30 501 C 53.1495 0.0476228 -1.59529 0
M  V30 502 C 53.3495 1.52025 -1.32252 0
M  V30 503 O 52.4055 2.27368 -1.09818 0
M  V30 504 C 53.7185 -0.354471 -2.98603 0
M  V30 505 C 55.2665 -0.303622 -3.11524 0
M  V30 506 C 55.7415 -0.680608 -4.52915 0
M  V30 507 N 57.2325 -0.63332 -4.5885 0
M  V30 508 C 57.9675 -0.897432 -5.66334 0
M  V30 509 N 57.4635 -1.22775 -6.81834 0
M  V30 510 N 59.2565 -0.824186 -5.56025 0
M  V30 511 H 51.4075 -1.2653 -1.70599 0
M  V30 512 H 53.6705 -0.513291 -0.797017 0
M  V30 513 H 53.3765 -1.3798 -3.23503 0
M  V30 514 H 53.2505 0.289568 -3.76087 0
M  V30 515 H 55.6375 0.712472 -2.8637 0
M  V30 516 H 55.7185 -0.982348 -2.36185 0
M  V30 517 H 55.3625 -1.69453 -4.78799 0
M  V30 518 H 55.2925 0.0202385 -5.26596 0
M  V30 519 H 57.7835 -0.389138 -3.75891 0
M  V30 520 H 58.0965 -1.41513 -7.59733 0
M  V30 521 H 56.4415 -1.26583 -6.83375 0
M  V30 522 H 59.6325 -0.565748 -4.64669 0
M  V30 523 H 59.8055 -1.03338 -6.39707 0
M  V30 524 N 53.2116 1.57565 -0.0334293 0
M  V30 525 C 54.6276 1.56297 0.322997 0
M  V30 526 C 54.8276 1.03945 1.7262 0
M  V30 527 O 53.8836 0.688109 2.42943 0
M  V30 528 C 55.1966 3.00232 0.167664 0
M  V30 529 C 56.7446 3.12078 0.240107 0
M  V30 530 C 57.2196 4.57859 0.113513 0
M  V30 531 N 58.7106 4.62887 0.170359 0
M  V30 532 C 59.4456 5.73319 0.0962517 0
M  V30 533 N 58.9416 6.92794 -0.0291881 0
M  V30 534 N 60.7346 5.61898 0.150551 0
M  V30 535 H 52.8856 1.89923 -0.950956 0
M  V30 536 H 55.1486 0.873824 -0.367608 0
M  V30 537 H 54.8546 3.42501 -0.799102 0
M  V30 538 H 54.7286 3.654 0.936083 0
M  V30 539 H 57.1156 2.69718 1.19733 0
M  V30 540 H 57.1966 2.49623 -0.558763 0
M  V30 541 H 56.8406 5.009 -0.840314 0
M  V30 542 H 56.7706 5.18299 0.931302 0
M  V30 543 H 59.2616 3.76954 0.26728 0
M  V30 544 H 59.5746 7.7276 -0.0789252 0
M  V30 545 H 57.9196 6.94971 -0.0640299 0
M  V30 546 H 61.1106 4.67448 0.246981 0
M  V30 547 H 61.2836 6.47938 0.0893365 0
M  V30 548 N 54.6897 -0.239769 1.55765 0
M  V30 549 C 56.1057 -0.588624 1.48349 0
M  V30 550 C 56.3057 -1.88005 0.72502 0
M  V30 551 O 55.3617 -2.51186 0.257269 0
M  V30 552 C 56.6747 -0.68474 2.928 0
M  V30 553 C 58.2227 -0.77659 3.03213 0
M  V30 554 C 58.6977 -0.904207 4.48986 0
M  V30 555 N 60.1887 -0.968896 4.52953 0
M  V30 556 C 60.9237 -1.08703 5.63002 0
M  V30 557 N 60.4197 -1.17026 6.82845 0
M  V30 558 N 62.2127 -1.12074 5.50814 0
M  V30 559 H 54.3637 0.607911 2.03515 0
M  V30 560 H 56.6267 0.21083 0.924259 0
M  V30 561 H 56.3327 0.194284 3.51163 0
M  V30 562 H 56.2067 -1.55435 3.43686 0
M  V30 563 H 58.5937 -1.64606 2.44926 0
M  V30 564 H 58.6747 0.118315 2.55526 0
M  V30 565 H 58.3187 -0.0392633 5.07885 0
M  V30 566 H 58.2487 -1.81426 4.9436 0
M  V30 567 H 60.7397 -0.915633 3.6664 0
M  V30 568 H 61.0527 -1.25966 7.62465 0
M  V30 569 H 59.3977 -1.13971 6.85591 0
M  V30 570 H 62.5887 -1.05226 4.5612 0
M  V30 571 H 62.7617 -1.20936 6.36615 0
M  V30 572 N 56.1678 -1.49265 -0.50573 0
M  V30 573 C 57.1308 -1.65075 -1.59006 0
M  V30 574 C 58.1308 -0.522768 -1.52065 0
M  V30 575 O 59.3208 -0.789117 -1.55302 0
M  V30 576 C 56.4528 -1.64369 -2.98656 0
M  V30 577 H 57.6458 -2.61784 -1.46319 0
M  V30 578 H 55.1988 -1.38226 -0.729616 0
M  V30 579 H 55.9338 -0.692272 -3.16825 0
M  V30 580 H 55.7188 -2.46282 -3.05103 0
M  V30 581 H 57.2088 -1.78674 -3.77446 0
M  V30 582 N 57.6459 0.756429 -1.3826 0
M  V30 583 C 58.6089 1.85176 -1.35065 0
M  V30 584 C 59.6089 1.58818 -0.251703 0
M  V30 585 O 60.7989 1.66615 -0.508433 0
M  V30 586 C 57.9309 3.22596 -1.10201 0
M  V30 587 H 59.1239 1.89417 -2.3251 0
M  V30 588 H 56.6769 0.95783 -1.23512 0
M  V30 589 H 57.4119 3.24025 -0.133504 0
M  V30 590 H 57.1969 3.43122 -1.89762 0
M  V30 591 H 58.6869 4.02673 -1.10654 0
M  V30 592 N 59.124 1.23083 0.984299 0
M  V30 593 C 60.54 0.992637 1.24975 0
M  V30 594 C 60.74 -0.308618 1.99123 0
M  V30 595 O 59.796 -1.02905 2.30579 0
M  V30 596 C 61.109 2.19698 2.05312 0
M  V30 597 C 62.657 2.24147 2.18465 0
M  V30 598 C 63.132 3.44157 3.02192 0
M  V30 599 N 64.623 3.44372 3.09777 0
M  V30 600 C 65.358 4.33886 3.74874 0
M  V30 601 N 64.854 5.3363 4.41827 0
M  V30 602 N 66.647 4.21639 3.71721 0
M  V30 603 H 58.798 2.06731 0.487453 0
M  V30 604 H 61.061 0.906339 0.277944 0
M  V30 605 H 60.767 3.1411 1.58201 0
M  V30 606 H 60.641 2.20465 3.06064 0
M  V30 607 H 63.028 1.30277 2.64786 0
M  V30 608 H 63.109 2.27415 1.17115 0
M  V30 609 H 62.753 4.38332 2.56568 0
M  V30 610 H 62.683 3.3813 4.03702 0
M  V30 611 H 65.174 2.72201 2.62135 0
M  V30 612 H 65.487 5.98196 4.89266 0
M  V30 613 H 63.832 5.37534 4.40548 0
M  V30 614 H 67.023 3.42962 3.18582 0
M  V30 615 H 67.196 4.91604 4.22173 0
M  V30 616 N 60.6021 -1.18246 1.0419 0
M  V30 617 C 61.8501 -1.87886 0.744543 0
M  V30 618 C 62.1711 -1.8082 -0.730006 0
M  V30 619 O 61.4411 -1.22736 -1.52685 0
M  V30 620 H 60.0211 -0.695556 0.272417 0
M  V30 621 H 62.6831 -1.43494 1.31892 0
M  V30 622 H 61.7791 -2.9389 1.05049 0
M  V30 623 N 62.0802 -0.821533 -1.34494 0
M  V30 624 C 63.3082 -0.421884 -2.02553 0
M  V30 625 C 63.7232 0.971745 -1.61872 0
M  V30 626 O 63.0802 1.62864 -0.823496 0
M  V30 627 C 63.1312 -0.51285 -3.57844 0
M  V30 628 O 62.8522 -1.85155 -3.97051 0
M  V30 629 C 64.3532 -0.107921 -4.43169 0
M  V30 630 H 61.5732 -0.169482 -0.649243 0
M  V30 631 H 64.1172 -1.1093 -1.71798 0
M  V30 632 H 62.2722 0.126474 -3.87193 0
M  V30 633 H 62.6862 -1.82482 -4.91732 0
M  V30 634 H 64.1602 -0.222657 -5.51551 0
M  V30 635 H 64.6372 0.948401 -4.28838 0
M  V30 636 H 65.2432 -0.720989 -4.19144 0
M  V30 637 N 63.5583 1.46682 -0.576371 0
M  V30 638 C 64.7833 2.07304 -0.0630475 0
M  V30 639 C 65.2083 1.42329 1.2298 0
M  V30 640 O 64.5663 0.504865 1.74129 0
M  V30 641 C 64.6143 3.60472 0.095895 0
M  V30 642 O 63.7183 3.95927 1.15394 0
M  V30 643 H 63.0593 0.661288 -0.0599463 0
M  V30 644 H 65.5893 1.88417 -0.797511 0
M  V30 645 H 65.5993 4.06865 0.304071 0
M  V30 646 H 64.2743 4.07157 -0.84828 0
M  V30 647 H 62.8513 3.61252 0.924724 0
M  V30 648 N 65.0364 0.313813 1.54444 0
M  V30 649 C 66.4474 -0.176243 1.85866 0
M  V30 650 C 66.7984 -1.52405 1.23561 0
M  V30 651 O 65.9234 -2.09605 0.538016 0
M  V30 652 C 66.5184 -0.32657 3.37222 0
M  V30 653 C 65.0774 -0.760846 3.6863 0
M  V30 654 C 64.2244 0.123247 2.77026 0
M  V30 655 H 67.1754 0.534418 1.49431 0
M  V30 656 H 67.1964 -1.15908 3.62416 0
M  V30 657 H 66.7084 0.654531 3.82541 0
M  V30 658 H 64.8094 -1.75204 3.28838 0
M  V30 659 H 64.9224 -0.571353 4.75681 0
M  V30 660 H 63.2864 -0.399597 2.51546 0
M  V30 661 H 64.0694 1.10094 3.25168 0
M  V30 662 N 66.5145 -1.57545 0.0417849 0
M  V30 663 C 67.7625 -1.91937 -0.632829 0
M  V30 664 C 68.0835 -0.919978 -1.71934 0
M  V30 665 O 67.3535 0.0366064 -1.95866 0
M  V30 666 H 65.9335 -0.708493 -0.236742 0
M  V30 667 H 68.5955 -1.9468 0.0925745 0
M  V30 668 H 67.6915 -2.92912 -1.07746 0
M  V30 669 N 67.9926 0.231505 -1.5589 0
M  V30 670 C 69.4086 0.580748 -1.48659 0
M  V30 671 C 69.6086 1.87617 -0.73498 0
M  V30 672 O 68.6646 2.51046 -0.270586 0
M  V30 673 C 69.9776 0.669202 -2.93159 0
M  V30 674 C 71.5256 0.760499 -3.03621 0
M  V30 675 C 72.0006 0.880383 -4.49459 0
M  V30 676 N 73.4916 0.944861 -4.53461 0
M  V30 677 C 74.2266 1.05716 -5.63571 0
M  V30 678 N 73.7226 1.13403 -6.83456 0
M  V30 679 N 75.5156 1.09152 -5.514 0
M  V30 680 H 67.6666 -0.618695 -2.03189 0
M  V30 681 H 69.9296 -0.215728 -0.923128 0
M  V30 682 H 69.6356 -0.212904 -3.51055 0
M  V30 683 H 69.5096 1.5361 -3.44505 0
M  V30 684 H 71.8966 1.63305 -2.45796 0
M  V30 685 H 71.9776 -0.131864 -2.5546 0
M  V30 686 H 71.6216 0.0123284 -5.07899 0
M  V30 687 H 71.5516 1.78802 -4.95316 0
M  V30 688 H 74.0426 0.896176 -3.6712 0
M  V30 689 H 74.3556 1.21921 -7.63122 0
M  V30 690 H 72.7006 1.10333 -6.86186 0
M  V30 691 H 75.8916 1.02805 -4.56671 0
M  V30 692 H 76.0646 1.17558 -6.37247 0
M  V30 693 N 69.4707 1.49531 0.497807 0
M  V30 694 C 70.8867 1.36365 0.829266 0
M  V30 695 C 71.0867 0.399184 1.97506 0
M  V30 696 O 70.1427 -0.167977 2.51941 0
M  V30 697 C 71.4557 2.77153 1.16647 0
M  V30 698 C 73.0037 2.85877 1.27449 0
M  V30 699 C 73.4787 4.2744 1.64497 0
M  V30 700 N 74.9697 4.30265 1.7154 0
M  V30 701 C 75.7047 5.3677 2.01656 0
M  V30 702 N 75.2007 6.53516 2.29976 0
M  V30 703 N 76.9937 5.24189 2.02934 0
M  V30 704 H 69.1447 2.10831 -0.257703 0
M  V30 705 H 71.4077 0.946534 -0.0527091 0
M  V30 706 H 71.1137 3.49442 0.397872 0
M  V30 707 H 70.9877 3.12722 2.10915 0
M  V30 708 H 73.3747 2.13824 2.0338 0
M  V30 709 H 73.4557 2.53887 0.312244 0
M  V30 710 H 73.0997 5.00021 0.891151 0
M  V30 711 H 73.0297 4.56896 2.61827 0
M  V30 712 H 75.5207 3.4607 1.51802 0
M  V30 713 H 75.8337 7.30506 2.52153 0
M  V30 714 H 74.1787 6.56737 2.27425 0
M  V30 715 H 77.3697 4.31988 1.80289 0
M  V30 716 H 77.5427 6.07286 2.26071 0
M  V30 717 N 70.9488 -0.749086 1.3866 0
M  V30 718 C 71.8788 -1.8764 1.38973 0
M  V30 719 C 72.8598 -1.68178 0.255004 0
M  V30 720 O 74.0448 -1.88704 0.458754 0
M  V30 721 C 71.1748 -3.25222 1.21851 0
M  V30 722 C 70.1288 -3.59295 2.32575 0
M  V30 723 C 69.4548 -4.95663 2.00555 0
M  V30 724 C 70.7548 -3.63709 3.7485 0
M  V30 725 H 72.4488 -1.87635 2.3331 0
M  V30 726 H 69.9948 -0.901329 1.12303 0
M  V30 727 H 71.9478 -4.03746 1.20695 0
M  V30 728 H 70.6718 -3.25719 0.239775 0
M  V30 729 H 69.3308 -2.83093 2.32925 0
M  V30 730 H 68.9788 -4.92724 1.01154 0
M  V30 731 H 68.6788 -5.19429 2.74714 0
M  V30 732 H 70.2028 -5.7656 2.01024 0
M  V30 733 H 71.6168 -4.32338 3.76506 0
M  V30 734 H 70.0138 -3.98986 4.48252 0
M  V30 735 H 71.0838 -2.63834 4.06841 0
M  V30 736 N 72.4269 -1.23603 -0.977757 0
M  V30 737 C 73.6519 -1.09735 -1.75991 0
M  V30 738 C 74.0769 0.346858 -1.84874 0
M  V30 739 O 73.4349 1.25093 -1.3123 0
M  V30 740 C 73.4829 -1.73051 -3.16363 0
M  V30 741 O 72.5869 -0.994452 -4.0023 0
M  V30 742 H 71.9279 -0.384476 -0.541364 0
M  V30 743 H 74.4579 -1.6371 -1.2272 0
M  V30 744 H 74.4679 -1.78398 -3.66931 0
M  V30 745 H 73.1429 -2.78137 -3.09213 0
M  V30 746 H 71.7199 -1.01812 -3.58732 0
M  V30 747 N 73.905 1.17692 -1.04816 0
M  V30 748 C 75.133 1.91786 -0.776254 0
M  V30 749 C 75.548 1.76604 0.667577 0
M  V30 750 O 74.905 1.10067 1.45573 0
M  V30 751 C 74.956 3.42967 -1.14263 0
M  V30 752 O 74.677 3.57678 -2.52978 0
M  V30 753 C 76.178 4.34144 -0.896311 0
M  V30 754 H 73.398 0.608624 -0.282519 0
M  V30 755 H 75.942 1.49268 -1.39783 0
M  V30 756 H 74.097 3.83245 -0.565874 0
M  V30 757 H 74.511 4.51319 -2.67229 0
M  V30 758 H 75.985 5.38744 -1.20244 0
M  V30 759 H 76.462 4.38876 0.168636 0
M  V30 760 H 77.068 3.99574 -1.45672 0
M  V30 761 N 75.3831 0.828654 1.34056 0
M  V30 762 C 76.3461 0.259927 2.27721 0
M  V30 763 C 77.3461 -0.565478 1.50529 0
M  V30 764 O 78.5361 -0.38075 1.69988 0
M  V30 765 C 75.6681 -0.634944 3.34935 0
M  V30 766 H 76.8611 1.0863 2.79534 0
M  V30 767 H 74.4141 0.600951 1.44285 0
M  V30 768 H 75.1491 -1.48416 2.88346 0
M  V30 769 H 74.9341 -0.0444999 3.92075 0
M  V30 770 H 76.4241 -1.02648 4.04788 0
M  V30 771 N 76.8612 -1.46375 0.584142 0
M  V30 772 C 78.1072 -2.03248 0.0787103 0
M  V30 773 C 78.4622 -1.44737 -1.26763 0
M  V30 774 O 77.7552 -0.603625 -1.81843 0
M  V30 775 C 77.9492 -3.57373 -0.0439342 0
M  V30 776 C 77.7782 -4.30831 1.28897 0
M  V30 777 C 76.5482 -4.69683 1.8635 0
M  V30 778 C 78.7462 -4.64278 2.21248 0
M  V30 779 N 76.7282 -5.27898 3.13365 0
M  V30 780 C 78.0992 -5.23078 3.32851 0
M  V30 781 C 80.1542 -4.46209 2.20911 0
M  V30 782 C 78.8572 -5.65715 4.44251 0
M  V30 783 C 80.8832 -4.89864 3.31341 0
M  V30 784 C 80.2452 -5.48736 4.41665 0
M  V30 785 H 76.3442 -0.778714 0.0716144 0
M  V30 786 H 78.9282 -1.78509 0.777355 0
M  V30 787 H 77.0992 -3.81823 -0.711749 0
M  V30 788 H 78.8312 -4.00892 -0.553881 0
M  V30 789 H 75.5862 -4.52488 1.39826 0
M  V30 790 H 76.0102 -5.61525 3.78178 0
M  V30 791 H 80.6522 -4.00027 1.36888 0
M  V30 792 H 78.3702 -6.10875 5.29015 0
M  V30 793 H 81.9562 -4.77634 3.322 0
M  V30 794 H 80.8362 -5.81898 5.25704 0
M  V30 795 N 78.3393 -0.321999 -1.54275 0
M  V30 796 C 79.5643 0.285791 -2.05422 0
M  V30 797 C 79.9893 1.45124 -1.19669 0
M  V30 798 O 79.3473 1.80132 -0.205441 0
M  V30 799 C 79.3953 0.69956 -3.53749 0
M  V30 800 O 78.4993 1.8021 -3.70942 0
M  V30 801 H 77.8403 0.0518962 -0.661969 0
M  V30 802 H 80.3703 -0.469954 -1.9913 0
M  V30 803 H 80.3803 0.982649 -3.9599 0
M  V30 804 H 79.0553 -0.152864 -4.15619 0
M  V30 805 H 77.6323 1.51794 -3.40607 0
M  V30 806 N 79.8174 1.5752 -0.0501392 0
M  V30 807 C 80.7494 2.08413 0.95376 0
M  V30 808 C 81.7624 1.01175 1.27544 0
M  V30 809 O 82.9514 1.28744 1.23641 0
M  V30 810 C 80.0514 2.51138 2.27559 0
M  V30 811 C 79.2244 3.817 2.13598 0
M  V30 812 C 78.2834 4.10749 3.28895 0
M  V30 813 O 77.3094 4.80685 3.04845 0
M  V30 814 N 78.5114 3.62579 4.5334 0
M  V30 815 H 81.2764 2.95165 0.519383 0
M  V30 816 H 78.8374 1.61327 0.136127 0
M  V30 817 H 80.8294 2.67648 3.03557 0
M  V30 818 H 79.3994 1.6964 2.62567 0
M  V30 819 H 78.6194 3.74782 1.22197 0
M  V30 820 H 79.9074 4.67201 2.01496 0
M  V30 821 H 79.3054 3.06039 4.75769 0
M  V30 822 H 77.8624 3.84329 5.26436 0
M  V30 823 N 81.2955 -0.223234 1.56011 0
M  V30 824 C 82.7065 -0.790368 1.69145 0
M  V30 825 C 83.0575 -1.85055 0.651845 0
M  V30 826 O 82.1825 -2.15498 -0.197359 0
M  V30 827 C 82.7775 -1.4404 3.06656 0
M  V30 828 C 81.3365 -1.95494 3.2165 0
M  V30 829 C 80.4835 -0.814506 2.65068 0
M  V30 830 H 83.4345 0.00139011 1.587 0
M  V30 831 H 83.4555 -2.30916 3.0242 0
M  V30 832 H 82.9675 -0.668543 3.82298 0
M  V30 833 H 81.0685 -2.75487 2.50874 0
M  V30 834 H 81.1815 -2.13607 4.28846 0
M  V30 835 H 79.5455 -1.22137 2.23505 0
M  V30 836 H 80.3285 -0.0553515 3.43255 0
M  V30 837 N 82.7736 -1.49793 -0.48987 0
M  V30 838 C 83.7056 -1.63413 -1.60713 0
M  V30 839 C 84.7186 -0.516329 -1.54395 0
M  V30 840 O 85.9076 -0.788812 -1.60125 0
M  V30 841 C 83.0076 -1.58516 -2.99543 0
M  V30 842 C 82.1806 -2.86016 -3.30928 0
M  V30 843 C 81.2396 -2.74018 -4.49222 0
M  V30 844 O 80.2656 -3.47964 -4.50455 0
M  V30 845 N 81.4676 -1.86309 -5.4979 0
M  V30 846 H 84.2326 -2.59777 -1.49452 0
M  V30 847 H 81.7936 -1.47022 -0.677955 0
M  V30 848 H 83.7856 -1.48128 -3.76617 0
M  V30 849 H 82.3556 -0.69965 -3.0467 0
M  V30 850 H 81.5756 -3.10672 -2.42645 0
M  V30 851 H 82.8636 -3.70521 -3.487 0
M  V30 852 H 82.2616 -1.2551 -5.51601 0
M  V30 853 H 80.8186 -1.81837 -6.25922 0
M  V30 854 N 84.2517 0.741722 -1.39055 0
M  V30 855 C 85.6627 1.31966 -1.32068 0
M  V30 856 C 86.0137 1.96192 0.0180797 0
M  V30 857 O 85.1387 1.95861 0.920196 0
M  V30 858 C 85.7337 2.39954 -2.39181 0
M  V30 859 C 84.2927 2.93438 -2.35735 0
M  V30 860 C 83.4397 1.66936 -2.21422 0
M  V30 861 H 86.3907 0.539721 -1.4924 0
M  V30 862 H 86.4117 3.20182 -2.05581 0
M  V30 863 H 85.9237 1.9318 -3.36605 0
M  V30 864 H 84.0247 3.4451 -1.41929 0
M  V30 865 H 84.1377 3.4701 -3.30335 0
M  V30 866 H 82.5017 1.91016 -1.68478 0
M  V30 867 H 83.2847 1.22224 -3.20806 0
M  V30 868 N 85.7298 1.2412 0.971189 0
M  V30 869 C 87.1408 1.07236 1.52831 0
M  V30 870 C 87.4918 -0.357352 1.92918 0
M  V30 871 O 86.6168 -1.24528 1.76979 0
M  V30 872 C 87.2118 1.94043 2.77728 0
M  V30 873 C 85.7708 1.81394 3.29808 0
M  V30 874 C 84.9178 1.89189 2.02738 0
M  V30 875 H 87.8688 1.37648 0.789864 0
M  V30 876 H 87.8898 1.47066 3.5093 0
M  V30 877 H 87.4018 2.98093 2.4852 0
M  V30 878 H 85.5028 0.801634 3.63874 0
M  V30 879 H 85.6158 2.65294 3.98944 0
M  V30 880 H 83.9798 1.32877 2.17292 0
M  V30 881 H 84.7628 2.94812 1.759 0
M  V30 882 N 87.2079 -1.17134 1.05439 0
M  V30 883 C 88.6189 -1.69084 0.791676 0
M  V30 884 C 88.9699 -1.83822 -0.685839 0
M  V30 885 O 88.0949 -1.52757 -1.53278 0
M  V30 886 C 88.6899 -3.07119 1.4305 0
M  V30 887 C 87.2489 -3.56225 1.21577 0
M  V30 888 C 86.3959 -2.32421 1.51247 0
M  V30 889 H 89.3469 -1.01617 1.219 0
M  V30 890 H 89.3679 -3.71087 0.84112 0
M  V30 891 H 88.8799 -2.9636 2.50584 0
M  V30 892 H 86.9809 -3.72257 0.159787 0
M  V30 893 H 87.0939 -4.38837 1.92246 0
M  V30 894 H 85.4579 -2.3701 0.932653 0
M  V30 895 H 86.2409 -2.24268 2.5992 0
M  V30 896 N 88.686 -0.835752 -1.33615 0
M  V30 897 C 89.596 -0.269088 -2.33052 0
M  V30 898 C 90.612 0.603251 -1.63208 0
M  V30 899 O 91.788 0.508112 -1.94885 0
M  V30 900 C 88.853 0.549091 -3.42324 0
M  V30 901 C 87.914 -0.347156 -4.27894 0
M  V30 902 C 87.147 0.43207 -5.31948 0
M  V30 903 O 87.37 1.66409 -5.45586 0
M  V30 904 O 86.304 -0.192298 -6.01593 0
M  V30 905 H 90.13 -1.09243 -2.83372 0
M  V30 906 H 87.715 -0.598198 -1.36901 0
M  V30 907 H 89.597 1.01414 -4.09015 0
M  V30 908 H 88.272 1.34955 -2.94226 0
M  V30 909 H 87.179 -0.859979 -3.64081 0
M  V30 910 H 88.512 -1.1123 -4.79467 0
M  V30 911 N 90.1641 1.46063 -0.591896 0
M  V30 912 C 91.0741 2.34192 0.13831 0
M  V30 913 C 92.0901 1.50305 0.876608 0
M  V30 914 O 93.2661 1.8315 0.837728 0
M  V30 915 C 90.3311 3.27656 1.13326 0
M  V30 916 C 89.3921 4.27445 0.39863 0
M  V30 917 C 88.6251 5.16443 1.34618 0
M  V30 918 O 88.8481 5.08553 2.58321 0
M  V30 919 O 87.7821 5.95843 0.851768 0
M  V30 920 H 91.6081 2.98002 -0.58552 0
M  V30 921 H 89.1931 1.45188 -0.352239 0
M  V30 922 H 91.0751 3.85291 1.70671 0
M  V30 923 H 89.7501 2.6643 1.83839 0
M  V30 924 H 88.6571 3.73471 -0.216895 0
M  V30 925 H 89.9901 4.91482 -0.265709 0
M  V30 926 N 91.6422 0.330177 1.54103 0
M  V30 927 C 92.8722 -0.271784 2.04805 0
M  V30 928 C 93.2802 -1.45816 1.20559 0
M  V30 929 O 92.6232 -1.82247 0.2306 0
M  V30 930 C 92.6852 -0.763238 3.51305 0
M  V30 931 C 92.3492 0.301705 4.56003 0
M  V30 932 C 93.3462 1.13999 5.07248 0
M  V30 933 C 91.0312 0.451793 5.00264 0
M  V30 934 C 93.0252 2.11402 6.01322 0
M  V30 935 C 90.7122 1.42924 5.94151 0
M  V30 936 C 91.7102 2.25882 6.44567 0
M  V30 937 O 91.3982 3.21965 7.3661 0
M  V30 938 H 91.1302 -0.058693 0.673447 0
M  V30 939 H 93.6842 0.476395 1.99799 0
M  V30 940 H 91.9142 -1.56244 3.5373 0
M  V30 941 H 93.6032 -1.28427 3.85047 0
M  V30 942 H 94.3692 1.03505 4.73827 0
M  V30 943 H 90.2482 -0.184044 4.60632 0
M  V30 944 H 93.7922 2.76192 6.40596 0
M  V30 945 H 89.6892 1.53479 6.26988 0
M  V30 946 H 90.4572 3.17281 7.54503 0
M  V30 947 N 93.1203 -1.57491 0.0584922 0
M  V30 948 C 94.0833 -2.1085 -0.898617 0
M  V30 949 C 95.0833 -1.02964 -1.23511 0
M  V30 950 O 96.2733 -1.29007 -1.17059 0
M  V30 951 C 93.4053 -2.59881 -2.20623 0
M  V30 952 H 94.5983 -2.96715 -0.435936 0
M  V30 953 H 92.1513 -1.55141 -0.190023 0
M  V30 954 H 92.8863 -1.77431 -2.71457 0
M  V30 955 H 92.6713 -3.38727 -1.97501 0
M  V30 956 H 94.1613 -3.01285 -2.89166 0
M  V30 957 N 94.5984 0.214957 -1.56127 0
M  V30 958 C 95.8464 0.936518 -1.79091 0
M  V30 959 C 96.1674 1.84606 -0.628148 0
M  V30 960 O 95.4374 1.92664 0.35462 0
M  V30 961 H 94.0174 0.3488 -0.660566 0
M  V30 962 H 96.6794 0.22523 -1.93594 0
M  V30 963 H 95.7754 1.53943 -2.71492 0
M  V30 964 N 96.0765 1.50051 0.48192 0
M  V30 965 C 97.0395 1.67584 1.5636 0
M  V30 966 C 98.0395 0.546894 1.51214 0
M  V30 967 O 99.2295 0.813725 1.54026 0
M  V30 968 C 96.3615 1.691 2.96003 0
M  V30 969 H 97.5545 2.64078 1.42136 0
M  V30 970 H 95.1075 1.39369 0.707533 0
M  V30 971 H 95.8425 0.742589 3.15684 0
M  V30 972 H 95.6275 2.51105 3.01146 0
M  V30 973 H 97.1175 1.84656 3.74556 0
M  V30 974 N 97.5546 -0.734337 1.39446 0
M  V30 975 C 98.8316 -1.48579 1.27215 0
M  V30 976 C 99.2116 -2.1077 -0.117968 0
M  V30 977 O 98.5596 -1.98646 -1.12924 0
M  V30 978 C 98.7696 -2.53667 2.39696 0
M  V30 979 C 100.118 -3.20031 2.79044 0
M  V30 980 O 101.142 -2.6398 2.39151 0
M  V30 981 O 100.001 -4.21455 3.47905 0
M  V30 982 H 97.0946 -0.659816 0.49857 0
M  V30 983 H 99.6406 -0.768106 1.51322 0
M  V30 984 H 98.4126 -2.06096 3.32626 0
M  V30 985 H 98.0356 -3.32994 2.17258 0
M  V30 986 N 99.0327 -1.24633 -0.964593 0
M  V30 987 C 100.31 -0.995809 -1.68354 0
M  V30 988 C 100.69 0.480964 -2.05548 0
M  V30 989 O 100.038 1.45599 -1.76105 0
M  V30 990 C 100.248 -1.92177 -2.91323 0
M  V30 991 C 101.596 -2.19446 -3.63495 0
M  V30 992 O 102.62 -1.89855 -3.01386 0
M  V30 993 O 101.479 -2.69714 -4.75307 0
M  V30 994 H 98.5727 -0.376854 -0.736146 0
M  V30 995 H 101.119 -1.35745 -1.0184 0
M  V30 996 H 99.8907 -2.91938 -2.60553 0
M  V30 997 H 99.5137 -1.56349 -3.65569 0
M  V30 998 N 100.511 1.16574 -1.06058 0
M  V30 999 C 101.757 1.87324 -0.777022 0
M  V30 1000 C 102.09 1.81351 0.694645 0
M  V30 1001 O 101.365 1.22753 1.50871 0
M  V30 1002 C 101.648 3.36991 -1.26922 0
M  V30 1003 C 101.501 3.51667 -2.80447 0
M  V30 1004 C 102.82 4.3131 -0.87521 0
M  V30 1005 H 99.9388 0.680191 -0.28374 0
M  V30 1006 H 102.581 1.37036 -1.3161 0
M  V30 1007 H 100.731 3.79949 -0.81063 0
M  V30 1008 H 102.403 3.17664 -3.34495 0
M  V30 1009 H 100.646 2.93656 -3.19294 0
M  V30 1010 H 101.317 4.56766 -3.0995 0
M  V30 1011 H 103.793 3.9624 -1.27014 0
M  V30 1012 H 102.669 5.34545 -1.2471 0
M  V30 1013 H 102.93 4.41552 0.220071 0
M  V30 1014 N 101.989 0.842826 1.3317 0
M  V30 1015 C 103.214 0.453129 2.02389 0
M  V30 1016 C 103.639 -0.939105 1.6298 0
M  V30 1017 O 102.997 -1.61472 0.8244 0
M  V30 1018 C 103.045 0.586094 3.55805 0
M  V30 1019 O 102.149 -0.386029 4.10589 0
M  V30 1020 H 101.49 0.183664 0.638094 0
M  V30 1021 H 104.02 1.13875 1.69981 0
M  V30 1022 H 104.03 0.469209 4.05293 0
M  V30 1023 H 102.705 1.6014 3.83833 0
M  V30 1024 H 101.282 -0.226371 3.72212 0
M  V30 1025 N 103.467 -1.45747 0.599634 0
M  V30 1026 C 104.399 -2.28628 -0.161879 0
M  V30 1027 C 105.412 -1.39494 -0.839367 0
M  V30 1028 O 106.601 -1.63941 -0.706089 0
M  V30 1029 C 103.701 -3.15014 -1.24976 0
M  V30 1030 C 102.874 -4.32378 -0.660935 0
M  V30 1031 C 101.933 -5.00033 -1.63869 0
M  V30 1032 O 100.959 -5.57085 -1.1681 0
M  V30 1033 N 102.161 -4.98589 -2.97303 0
M  V30 1034 H 104.926 -2.94624 0.549265 0
M  V30 1035 H 102.487 -1.55847 0.438565 0
M  V30 1036 H 104.479 -3.5714 -1.9035 0
M  V30 1037 H 103.049 -2.5098 -1.86354 0
M  V30 1038 H 102.269 -3.9383 0.170688 0
M  V30 1039 H 103.557 -5.08197 -0.247619 0
M  V30 1040 H 102.955 -4.53514 -3.38145 0
M  V30 1041 H 101.512 -5.44603 -3.58121 0
M  V30 1042 N 104.945 -0.338344 -1.53925 0
M  V30 1043 C 106.17 0.263987 -2.05713 0
M  V30 1044 C 106.595 1.43847 -1.21201 0
M  V30 1045 O 105.953 1.79904 -0.224535 0
M  V30 1046 C 106.001 0.662 -3.54471 0
M  V30 1047 O 105.105 1.76265 -3.72833 0
M  V30 1048 H 104.446 0.0448722 -0.662482 0
M  V30 1049 H 106.976 -0.491048 -1.9862 0
M  V30 1050 H 106.986 0.940594 -3.9701 0
M  V30 1051 H 105.661 -0.196937 -4.15433 0
M  V30 1052 H 104.238 1.48173 -3.42198 0
M  V30 1053 N 106.423 1.57458 -0.0668435 0
M  V30 1054 C 107.834 1.80776 0.466558 0
M  V30 1055 C 108.185 0.980361 1.69951 0
M  V30 1056 O 107.31 0.201441 2.1546 0
M  V30 1057 C 107.905 3.27881 0.85321 0
M  V30 1058 C 106.464 3.52062 1.3315 0
M  V30 1059 C 105.611 2.75513 0.314264 0
M  V30 1060 H 108.562 1.5598 -0.292588 0
M  V30 1061 H 108.583 3.39659 1.715 0
M  V30 1062 H 108.095 3.88075 -0.0443439 0
M  V30 1063 H 106.196 2.97167 2.24772 0
M  V30 1064 H 106.309 4.60762 1.31285 0
M  V30 1065 H 104.673 2.42123 0.790492 0
M  V30 1066 H 105.456 3.38442 -0.575477 0
M  V30 1067 N 107.901 -0.206675 1.56239 0
M  V30 1068 C 109.147 -0.930218 1.80208 0
M  V30 1069 C 109.48 -1.83387 0.638981 0
M  V30 1070 O 108.755 -1.91119 -0.361066 0
M  V30 1071 C 109.038 -1.75641 3.1436 0
M  V30 1072 C 108.891 -0.878257 4.41142 0
M  V30 1073 C 110.21 -2.73129 3.45092 0
M  V30 1074 H 107.329 -0.336742 0.655571 0
M  V30 1075 H 109.971 -0.198222 1.88963 0
M  V30 1076 H 108.121 -2.38048 3.07027 0
M  V30 1077 H 109.793 -0.269787 4.6051 0
M  V30 1078 H 108.036 -0.184385 4.33408 0
M  V30 1079 H 108.707 -1.49106 5.3148 0
M  V30 1080 H 111.183 -2.20856 3.52649 0
M  V30 1081 H 110.059 -3.28028 4.40101 0
M  V30 1082 H 110.32 -3.51606 2.68003 0
M  V30 1083 N 109.379 -1.50304 -0.473955 0
M  V30 1084 C 110.342 -1.6841 -1.55469 0
M  V30 1085 C 111.342 -0.554905 -1.50922 0
M  V30 1086 O 112.532 -0.821882 -1.53593 0
M  V30 1087 C 109.664 -1.70667 -2.95102 0
M  V30 1088 H 110.857 -2.64828 -1.40733 0
M  V30 1089 H 108.41 -1.39742 -0.700132 0
M  V30 1090 H 109.145 -0.75932 -3.15285 0
M  V30 1091 H 108.93 -2.52698 -2.9981 0
M  V30 1092 H 110.42 -1.8664 -3.73571 0
M  V30 1093 N 110.857 0.726932 -1.39834 0
M  V30 1094 C 111.767 1.87131 -1.41489 0
M  V30 1095 C 112.783 1.71239 -0.308757 0
M  V30 1096 O 113.959 1.93701 -0.551529 0
M  V30 1097 C 111.024 3.22811 -1.26468 0
M  V30 1098 C 110.085 3.51039 -2.47124 0
M  V30 1099 C 109.318 4.80245 -2.3281 0
M  V30 1100 O 109.541 5.54537 -1.33585 0
M  V30 1101 O 108.475 5.08554 -3.21957 0
M  V30 1102 H 112.301 1.8869 -2.3797 0
M  V30 1103 H 109.886 0.875837 -1.21035 0
M  V30 1104 H 111.768 4.03877 -1.20255 0
M  V30 1105 H 110.443 3.22005 -0.330862 0
M  V30 1106 H 109.35 2.70027 -2.58914 0
M  V30 1107 H 110.683 3.56632 -3.39227 0
M  V30 1108 N 112.336 1.25143 0.95797 0
M  V30 1109 C 113.246 1.06968 2.08794 0
M  V30 1110 C 114.262 0.00773911 1.73998 0
M  V30 1111 O 115.438 0.207972 2.00323 0
M  V30 1112 C 112.503 0.68691 3.39827 0
M  V30 1113 C 111.564 1.82641 3.88511 0
M  V30 1114 C 110.797 1.46181 5.1329 0
M  V30 1115 O 111.02 0.355971 5.69288 0
M  V30 1116 O 109.954 2.29085 5.566 0
M  V30 1117 H 113.78 2.01723 2.27027 0
M  V30 1118 H 111.365 1.04051 1.07209 0
M  V30 1119 H 113.247 0.485417 4.18595 0
M  V30 1120 H 111.922 -0.231417 3.22872 0
M  V30 1121 H 110.829 2.08274 3.10762 0
M  V30 1122 H 112.162 2.72386 4.09959 0
M  V30 1123 N 113.814 -1.1601 1.06675 0
M  V30 1124 C 115.225 -1.68235 0.809565 0
M  V30 1125 C 115.576 -1.8454 -0.666303 0
M  V30 1126 O 114.701 -1.54374 -1.5165 0
M  V30 1127 C 115.296 -3.05585 1.46299 0
M  V30 1128 C 113.855 -3.54915 1.25349 0
M  V30 1129 C 113.002 -2.30804 1.53703 0
M  V30 1130 H 115.953 -1.00318 1.22971 0
M  V30 1131 H 115.974 -3.70174 0.880431 0
M  V30 1132 H 115.486 -2.93686 2.53713 0
M  V30 1133 H 113.587 -3.72067 0.199261 0
M  V30 1134 H 113.7 -4.36774 1.9689 0
M  V30 1135 H 112.064 -2.36007 0.957739 0
M  V30 1136 H 112.847 -2.21499 2.62284 0
M  V30 1137 N 115.292 -0.849877 -1.32721 0
M  V30 1138 C 116.517 -0.463856 -2.02146 0
M  V30 1139 C 116.942 0.930449 -1.63476 0
M  V30 1140 O 116.3 1.61033 -0.832952 0
M  V30 1141 C 116.348 -0.604955 -3.55489 0
M  V30 1142 O 115.452 0.36425 -4.10788 0
M  V30 1143 H 114.793 -0.187046 -0.637111 0
M  V30 1144 H 117.323 -1.14775 -1.69375 0
M  V30 1145 H 117.333 -0.490696 -4.05038 0
M  V30 1146 H 116.008 -1.62174 -3.82978 0
M  V30 1147 H 114.585 0.206628 -3.72327 0
M  V30 1148 N 116.77 1.45427 -0.607355 0
M  V30 1149 C 118.016 2.03097 -0.111035 0
M  V30 1150 C 118.371 1.46735 1.24445 0
M  V30 1151 O 117.664 0.632478 1.8086 0
M  V30 1152 C 117.858 3.57398 -0.0129263 0
M  V30 1153 C 117.687 4.28726 -1.35735 0
M  V30 1154 C 116.457 4.66659 -1.93798 0
M  V30 1155 C 118.655 4.60699 -2.28607 0
M  V30 1156 N 116.637 5.22845 -3.21723 0
M  V30 1157 C 118.008 5.17716 -3.41131 0
M  V30 1158 C 120.063 4.42638 -2.27982 0
M  V30 1159 C 118.766 5.58576 -4.53194 0
M  V30 1160 C 120.792 4.84531 -3.39093 0
M  V30 1161 C 120.154 5.4164 -4.50339 0
M  V30 1162 H 116.253 0.777476 -0.083994 0
M  V30 1163 H 118.837 1.77249 -0.805655 0
M  V30 1164 H 117.008 3.82907 0.650914 0
M  V30 1165 H 118.74 4.01722 0.490033 0
M  V30 1166 H 115.495 4.50207 -1.47007 0
M  V30 1167 H 115.919 5.55438 -3.87063 0
M  V30 1168 H 120.561 3.97798 -1.43235 0
M  V30 1169 H 118.279 6.02382 -5.38667 0
M  V30 1170 H 121.865 4.72289 -3.39757 0
M  V30 1171 H 120.745 5.73461 -5.34895 0
M  V30 1172 N 118.248 0.346503 1.53744 0
M  V30 1173 C 119.494 -0.249473 2.0126 0
M  V30 1174 C 119.827 -1.49965 1.23386 0
M  V30 1175 O 119.102 -1.91811 0.32229 0
M  V30 1176 C 119.385 -0.560643 3.55709 0
M  V30 1177 C 119.238 0.701836 4.44291 0
M  V30 1178 C 120.557 -1.36905 4.18264 0
M  V30 1179 H 117.676 -0.0891987 0.731582 0
M  V30 1180 H 120.318 0.467624 1.84156 0
M  V30 1181 H 118.468 -1.17156 3.70414 0
M  V30 1182 H 120.14 1.33974 4.41417 0
M  V30 1183 H 118.383 1.32612 4.13033 0
M  V30 1184 H 119.054 0.43933 5.50249 0
M  V30 1185 H 121.53 -0.852448 4.07275 0
M  V30 1186 H 120.406 -1.55553 5.26398 0
M  V30 1187 H 120.667 -2.37203 3.73078 0
M  V30 1188 N 119.726 -1.57421 0.075193 0
M  V30 1189 C 121.137 -1.81021 -0.456964 0
M  V30 1190 C 121.488 -0.98936 -1.69429 0
M  V30 1191 O 120.613 -0.212865 -2.15351 0
M  V30 1192 C 121.208 -3.28329 -0.83581 0
M  V30 1193 C 119.767 -3.52764 -1.31281 0
M  V30 1194 C 118.914 -2.75676 -0.299648 0
M  V30 1195 H 121.865 -1.55822 0.300856 0
M  V30 1196 H 121.886 -3.40564 -1.69696 0
M  V30 1197 H 121.398 -3.88046 0.0649238 0
M  V30 1198 H 119.499 -2.98355 -2.23193 0
M  V30 1199 H 119.612 -4.61451 -1.28839 0
M  V30 1200 H 117.976 -2.42538 -0.777641 0
M  V30 1201 H 118.759 -3.38132 0.593417 0
M  V30 1202 N 121.204 0.198386 -1.56346 0
M  V30 1203 C 122.429 0.939682 -1.84891 0
M  V30 1204 C 122.854 1.76202 -0.658369 0
M  V30 1205 O 122.212 1.76993 0.392851 0
M  V30 1206 C 122.26 1.81428 -3.11635 0
M  V30 1207 O 121.364 2.91265 -2.91956 0
M  V30 1208 H 120.705 0.264807 -0.608912 0
M  V30 1209 H 123.235 0.204695 -2.03573 0
M  V30 1210 H 123.245 2.21958 -3.42343 0
M  V30 1211 H 121.92 1.21004 -3.97908 0
M  V30 1212 H 120.497 2.54514 -2.72538 0
M  V30 1213 N 122.682 1.50554 0.465978 0
M  V30 1214 C 124.093 1.54599 1.04671 0
M  V30 1215 C 124.444 0.352488 1.93008 0
M  V30 1216 O 123.569 -0.534044 2.09707 0
M  V30 1217 C 124.164 2.80166 1.90505 0
M  V30 1218 C 122.723 2.86876 2.43678 0
M  V30 1219 C 121.87 2.48947 1.22151 0
M  V30 1220 H 124.821 1.56744 0.248384 0
M  V30 1221 H 124.842 2.62311 2.75633 0
M  V30 1222 H 124.354 3.67013 1.26186 0
M  V30 1223 H 122.455 2.04393 3.11536 0
M  V30 1224 H 122.568 3.89885 2.78436 0
M  V30 1225 H 120.932 2.01498 1.5579 0
M  V30 1226 H 121.715 3.38107 0.594866 0
M  V30 1227 N 124.16 -0.719506 1.40217 0
M  V30 1228 C 125.576 -1.02707 1.22161 0
M  V30 1229 C 125.776 -2.0128 0.0940557 0
M  V30 1230 O 124.832 -2.46452 -0.549318 0
M  V30 1231 C 126.145 -1.57454 2.56181 0
M  V30 1232 C 127.693 -1.69458 2.63159 0
M  V30 1233 C 128.168 -2.27611 3.97438 0
M  V30 1234 N 129.659 -2.35002 3.99159 0
M  V30 1235 C 130.394 -2.80972 4.99842 0
M  V30 1236 N 129.89 -3.26723 6.10921 0
M  V30 1237 N 131.683 -2.80321 4.87213 0
M  V30 1238 H 123.834 -0.0660492 2.12297 0
M  V30 1239 H 126.097 -0.0919077 0.943534 0
M  V30 1240 H 125.803 -0.924873 3.39321 0
M  V30 1241 H 125.677 -2.56036 2.76993 0
M  V30 1242 H 128.064 -2.33543 1.80393 0
M  V30 1243 H 128.145 -0.694867 2.46181 0
M  V30 1244 H 127.789 -1.6415 4.80643 0
M  V30 1245 H 127.719 -3.2829 4.11744 0
M  V30 1246 H 130.21 -2.02685 3.18947 0
M  V30 1247 H 130.523 -3.60355 6.8364 0
M  V30 1248 H 128.868 -3.24692 6.14492 0
M  V30 1249 H 132.059 -2.43912 3.9953 0
M  V30 1250 H 132.232 -3.15831 5.65822 0
M  V30 1251 N 125.638 -1.25649 -0.95132 0
M  V30 1252 C 127.049 -1.09654 -1.51106 0
M  V30 1253 C 127.4 0.326615 -1.93462 0
M  V30 1254 O 126.525 1.21697 -1.78938 0
M  V30 1255 C 127.12 -1.98437 -2.74605 0
M  V30 1256 C 125.679 -1.86618 -3.2688 0
M  V30 1257 C 124.826 -1.9239 -1.99703 0
M  V30 1258 H 127.777 -1.38887 -0.767865 0
M  V30 1259 H 127.798 -1.5263 -3.48546 0
M  V30 1260 H 127.31 -3.02009 -2.43746 0
M  V30 1261 H 125.411 -0.859421 -3.62553 0
M  V30 1262 H 125.524 -2.71607 -3.94673 0
M  V30 1263 H 123.888 -1.36317 -2.15151 0
M  V30 1264 H 124.671 -2.97573 -1.71188 0
M  V30 1265 N 127.117 1.15442 -1.07289 0
M  V30 1266 C 128.528 1.67803 -0.818475 0
M  V30 1267 C 128.879 1.8489 0.656507 0
M  V30 1268 O 128.004 1.55176 1.50829 0
M  V30 1269 C 128.599 3.04805 -1.47917 0
M  V30 1270 C 127.158 3.54245 -1.27229 0
M  V30 1271 C 126.305 2.29986 -1.54925 0
M  V30 1272 H 129.256 0.996646 -1.23502 0
M  V30 1273 H 129.277 3.69702 -0.90005 0
M  V30 1274 H 128.789 2.92336 -2.55267 0
M  V30 1275 H 126.89 3.71956 -0.21899 0
M  V30 1276 H 127.003 4.35723 -1.99203 0
M  V30 1277 H 125.367 2.35496 -0.970242 0
M  V30 1278 H 126.15 2.20105 -2.63455 0
M  V30 1279 N 128.595 0.856903 1.32268 0
M  V30 1280 C 129.841 0.462069 1.97466 0
M  V30 1281 C 130.174 -0.980298 1.67642 0
M  V30 1282 O 129.449 -1.68824 0.965858 0
M  V30 1283 C 129.732 0.704336 3.53145 0
M  V30 1284 C 129.585 2.19529 3.9259 0
M  V30 1285 C 130.904 0.1622 4.39801 0
M  V30 1286 H 128.023 0.169357 0.717278 0
M  V30 1287 H 130.665 1.07574 1.56614 0
M  V30 1288 H 128.815 0.181999 3.88073 0
M  V30 1289 H 130.487 2.78387 3.67829 0
M  V30 1290 H 128.73 2.67292 3.41668 0
M  V30 1291 H 129.401 2.31549 5.01088 0
M  V30 1292 H 131.877 0.608905 4.11621 0
M  V30 1293 H 130.753 0.361265 5.4771 0
M  V30 1294 H 131.014 -0.935158 4.32096 0
M  V30 1295 N 130.073 -1.45103 0.615059 0
M  V30 1296 C 131.484 -1.85654 0.197383 0
M  V30 1297 C 131.835 -1.51433 -1.24749 0
M  V30 1298 O 130.96 -0.944608 -1.94695 0
M  V30 1299 C 131.555 -3.36972 0.351448 0
M  V30 1300 C 130.114 -3.76398 -0.011593 0
M  V30 1301 C 129.261 -2.69024 0.672394 0
M  V30 1302 H 132.212 -1.35797 0.821263 0
M  V30 1303 H 132.233 -3.78239 -0.414227 0
M  V30 1304 H 131.745 -3.61847 1.40314 0
M  V30 1305 H 129.846 -3.5714 -1.06217 0
M  V30 1306 H 129.959 -4.77532 0.387265 0
M  V30 1307 H 128.323 -2.54465 0.109284 0
M  V30 1308 H 129.106 -2.96735 1.72636 0
M  V30 1309 N 131.551 -0.354651 -1.53558 0
M  V30 1310 C 132.501 0.513179 -2.2215 0
M  V30 1311 C 133.485 1.05734 -1.21281 0
M  V30 1312 O 134.677 0.989202 -1.46778 0
M  V30 1313 C 131.806 1.65798 -3.00609 0
M  V30 1314 C 130.892 1.12722 -4.08845 0
M  V30 1315 N 131.283 0.318563 -5.04796 0
M  V30 1316 C 129.581 1.40307 -4.23356 0
M  V30 1317 C 130.282 0.0292224 -5.81693 0
M  V30 1318 N 129.258 0.623891 -5.40008 0
M  V30 1319 H 133.06 -0.111586 -2.93688 0
M  V30 1320 H 130.574 -0.162091 -1.61589 0
M  V30 1321 H 132.571 2.29176 -3.48258 0
M  V30 1322 H 131.231 2.28591 -2.306 0
M  V30 1323 H 132.242 -0.0413091 -5.17884 0
M  V30 1324 H 128.919 2.03458 -3.6457 0
M  V30 1325 H 130.309 -0.623808 -6.68998 0
M  V30 1326 N 133.029 1.57378 -0.0835403 0
M  V30 1327 C 133.939 2.16897 0.894021 0
M  V30 1328 C 134.955 1.13528 1.31861 0
M  V30 1329 O 136.131 1.45848 1.3889 0
M  V30 1330 C 133.196 2.72831 2.13925 0
M  V30 1331 C 132.257 3.91115 1.76997 0
M  V30 1332 C 131.49 4.44371 2.95584 0
M  V30 1333 O 131.713 3.96596 4.09961 0
M  V30 1334 O 130.647 5.35549 2.74719 0
M  V30 1335 H 134.473 3.00814 0.417679 0
M  V30 1336 H 132.058 1.48741 0.140181 0
M  V30 1337 H 133.94 3.0863 2.86924 0
M  V30 1338 H 132.615 1.91967 2.60635 0
M  V30 1339 H 131.522 3.60148 1.01214 0
M  V30 1340 H 132.855 4.73307 1.3506 0
M  V30 1341 N 134.507 -0.190092 1.56449 0
M  V30 1342 C 135.732 -0.929864 1.85387 0
M  V30 1343 C 136.157 -1.7585 0.667704 0
M  V30 1344 O 135.515 -1.77198 -0.383459 0
M  V30 1345 C 135.563 -1.79773 3.12593 0
M  V30 1346 O 134.667 -2.89713 2.93496 0
M  V30 1347 H 134.008 -0.261574 0.610307 0
M  V30 1348 H 136.538 -0.193896 2.03679 0
M  V30 1349 H 136.548 -2.20139 3.43515 0
M  V30 1350 H 135.223 -1.18892 3.98544 0
M  V30 1351 H 133.8 -2.53065 2.73884 0
M  V30 1352 N 135.985 -1.50799 -0.457987 0
M  V30 1353 C 137.396 -1.55152 -1.0385 0
M  V30 1354 C 137.747 -0.362719 -1.92818 0
M  V30 1355 O 136.872 0.522915 -2.09987 0
M  V30 1356 C 137.467 -2.81173 -1.89017 0
M  V30 1357 C 136.026 -2.88164 -2.42154 0
M  V30 1358 C 135.173 -2.49591 -1.20829 0
M  V30 1359 H 138.124 -1.56874 -0.240068 0
M  V30 1360 H 138.145 -2.63769 -2.74238 0
M  V30 1361 H 137.657 -3.67677 -1.24238 0
M  V30 1362 H 135.758 -2.06042 -3.10447 0
M  V30 1363 H 135.871 -3.91356 -2.76364 0
M  V30 1364 H 134.235 -2.02322 -1.54719 0
M  V30 1365 H 135.018 -3.38418 -0.576927 0
M  V30 1366 N 137.463 0.71206 -1.40597 0
M  V30 1367 C 138.373 1.8562 -1.43466 0
M  V30 1368 C 139.389 1.70902 -0.326902 0
M  V30 1369 O 140.565 1.93105 -0.572043 0
M  V30 1370 C 137.63 3.21451 -1.29884 0
M  V30 1371 C 136.691 3.48398 -2.50833 0
M  V30 1372 C 135.924 4.77749 -2.3789 0
M  V30 1373 O 136.147 5.53089 -1.39459 0
M  V30 1374 O 135.081 5.05111 -3.27333 0
M  V30 1375 H 138.907 1.86155 -2.39958 0
M  V30 1376 H 136.492 0.86295 -1.21957 0
M  V30 1377 H 138.374 4.02579 -1.24531 0
M  V30 1378 H 137.049 3.21636 -0.364997 0
M  V30 1379 H 135.956 2.67265 -2.61763 0
M  V30 1380 H 137.289 3.53014 -3.4299 0
M  V30 1381 N 138.941 1.26152 0.944643 0
M  V30 1382 C 140.352 1.10454 1.50522 0
M  V30 1383 C 140.703 -0.31635 1.93633 0
M  V30 1384 O 139.828 -1.20746 1.79581 0
M  V30 1385 C 140.423 1.99891 2.73549 0
M  V30 1386 C 138.982 1.88348 3.25886 0
M  V30 1387 C 138.129 1.93447 1.9868 0
M  V30 1388 H 141.08 1.39292 0.760489 0
M  V30 1389 H 141.101 1.54477 3.47732 0
M  V30 1390 H 140.613 3.03297 2.42141 0
M  V30 1391 H 138.714 0.878636 3.62092 0
M  V30 1392 H 138.827 2.73696 3.93227 0
M  V30 1393 H 137.191 1.37456 2.14425 0
M  V30 1394 H 137.974 2.98476 1.69607 0
M  V30 1395 N 140.419 -1.14872 1.07899 0
M  V30 1396 C 141.83 -1.67367 0.827363 0
M  V30 1397 C 142.181 -1.85236 -0.646693 0
M  V30 1398 O 141.306 -1.55974 -1.50004 0
M  V30 1399 C 141.901 -3.04016 1.49532 0
M  V30 1400 C 140.46 -3.53566 1.29106 0
M  V30 1401 C 139.607 -2.29161 1.56143 0
M  V30 1402 H 142.558 -0.990083 1.24028 0
M  V30 1403 H 142.579 -3.69219 0.919643 0
M  V30 1404 H 142.091 -2.90978 2.56814 0
M  V30 1405 H 140.192 -3.71835 0.238713 0
M  V30 1406 H 140.305 -4.34661 2.01511 0
M  V30 1407 H 138.669 -2.34978 0.982717 0
M  V30 1408 H 139.452 -2.18705 2.64619 0
M  V30 1409 N 141.898 -0.863906 -1.31812 0
M  V30 1410 C 143.123 -0.48527 -2.01643 0
M  V30 1411 C 143.548 0.913058 -1.64453 0
M  V30 1412 O 142.906 1.6014 -0.849985 0
M  V30 1413 C 142.954 -0.642625 -3.54828 0
M  V30 1414 O 142.058 0.320659 -4.11151 0
M  V30 1415 H 141.399 -0.193793 -0.635091 0
M  V30 1416 H 143.929 -1.16565 -1.68148 0
M  V30 1417 H 143.939 -0.533628 -4.04495 0
M  V30 1418 H 142.614 -1.66227 -3.81237 0
M  V30 1419 H 141.191 0.167126 -3.72525 0
M  V30 1420 N 143.376 1.44774 -0.622745 0
M  V30 1421 C 144.624 2.01721 -0.123655 0
M  V30 1422 C 144.945 1.49172 1.25589 0
M  V30 1423 O 144.215 0.691974 1.83272 0
M  V30 1424 H 142.795 0.745777 -0.0427225 0
M  V30 1425 H 145.457 1.77382 -0.807559 0
M  V30 1426 H 144.553 3.11984 -0.0849534 0
M  V30 1427 N 144.854 0.36279 1.53368 0
M  V30 1428 C 146.27 0.0116182 1.59596 0
M  V30 1429 C 146.47 -1.47012 1.37803 0
M  V30 1430 O 145.526 -2.23136 1.18181 0
M  V30 1431 C 146.839 0.465052 2.97082 0
M  V30 1432 C 148.387 0.419033 3.10182 0
M  V30 1433 C 148.862 0.848235 4.50077 0
M  V30 1434 N 150.353 0.803183 4.56183 0
M  V30 1435 C 151.088 1.107 5.62613 0
M  V30 1436 N 150.584 1.47996 6.76808 0
M  V30 1437 N 152.377 1.02998 5.52583 0
M  V30 1438 H 144.528 1.32775 1.65785 0
M  V30 1439 H 146.791 0.542518 0.777417 0
M  V30 1440 H 146.497 1.49892 3.18159 0
M  V30 1441 H 146.371 -0.149786 3.76902 0
M  V30 1442 H 148.758 -0.605696 2.88817 0
M  V30 1443 H 148.839 1.06933 2.32377 0
M  V30 1444 H 148.483 1.87107 4.7218 0
M  V30 1445 H 148.413 0.175218 5.26308 0
M  V30 1446 H 150.904 0.52838 3.74188 0
M  V30 1447 H 151.217 1.69613 7.53957 0
M  V30 1448 H 149.562 1.51859 6.78206 0
M  V30 1449 H 152.753 0.737817 4.62249 0
M  V30 1450 H 152.926 1.2701 6.35431 0
M  V30 1451 N 146.332 -1.57332 0.0918853 0
M  V30 1452 C 147.557 -1.98995 -0.584442 0
M  V30 1453 C 147.982 -0.970528 -1.61128 0
M  V30 1454 O 147.34 0.0613904 -1.81196 0
M  V30 1455 C 147.388 -3.39636 -1.21161 0
M  V30 1456 O 146.492 -3.40447 -2.32744 0
M  V30 1457 H 145.833 -0.647165 -0.148572 0
M  V30 1458 H 148.363 -2.03873 0.172347 0
M  V30 1459 H 148.373 -3.7726 -1.55367 0
M  V30 1460 H 147.048 -4.13356 -0.459313 0
M  V30 1461 H 145.625 -3.14614 -2.0018 0
M  V30 1462 N 147.81 0.181792 -1.56548 0
M  V30 1463 C 148.74 1.22765 -1.98623 0
M  V30 1464 C 149.721 1.46747 -0.860189 0
M  V30 1465 O 150.906 1.58259 -1.12551 0
M  V30 1466 C 148.036 2.56894 -2.33715 0
M  V30 1467 C 146.99 2.475 -3.49182 0
M  V30 1468 C 146.316 3.86023 -3.69986 0
M  V30 1469 C 147.616 1.98866 -4.82959 0
M  V30 1470 H 149.31 0.877942 -2.86239 0
M  V30 1471 H 146.856 0.42088 -1.37712 0
M  V30 1472 H 148.809 3.30253 -2.61746 0
M  V30 1473 H 147.533 2.93632 -1.42997 0
M  V30 1474 H 146.192 1.76596 -3.21262 0
M  V30 1475 H 145.84 4.20136 -2.76576 0
M  V30 1476 H 145.54 3.80609 -4.47672 0
M  V30 1477 H 147.064 4.60984 -4.00407 0
M  V30 1478 H 148.478 2.61992 -5.09934 0
M  V30 1479 H 146.875 2.04424 -5.64208 0
M  V30 1480 H 147.945 0.942465 -4.75653 0
M  V30 1481 N 149.288 1.51039 0.449983 0
M  V30 1482 C 150.534 1.63322 1.20223 0
M  V30 1483 C 150.867 0.34241 1.91158 0
M  V30 1484 O 150.142 -0.657344 1.83055 0
M  V30 1485 C 150.425 2.82801 2.22925 0
M  V30 1486 C 150.278 4.21823 1.56157 0
M  V30 1487 C 151.597 2.97807 3.24035 0
M  V30 1488 H 148.716 0.594407 0.435718 0
M  V30 1489 H 151.358 1.83489 0.493136 0
M  V30 1490 H 149.508 2.65738 2.834 0
M  V30 1491 H 151.18 4.50526 0.991162 0
M  V30 1492 H 149.423 4.25105 0.864172 0
M  V30 1493 H 150.094 5.01391 2.30891 0
M  V30 1494 H 152.57 3.13497 2.73603 0
M  V30 1495 H 151.446 3.82992 3.93202 0
M  V30 1496 H 151.707 2.09328 3.89402 0
M  V30 1497 N 150.766 -0.704594 1.40972 0
M  V30 1498 C 151.698 -1.82974 1.38033 0
M  V30 1499 C 152.711 -1.60305 0.283931 0
M  V30 1500 O 153.9 -1.69975 0.545042 0
M  V30 1501 C 151 -3.19578 1.12795 0
M  V30 1502 C 150.173 -3.69352 2.34302 0
M  V30 1503 C 149.232 -4.84601 2.05058 0
M  V30 1504 O 148.258 -4.96682 2.7802 0
M  V30 1505 N 149.46 -5.71194 1.03528 0
M  V30 1506 H 152.225 -1.85991 2.35005 0
M  V30 1507 H 149.786 -0.886567 1.35468 0
M  V30 1508 H 151.778 -3.9429 0.911987 0
M  V30 1509 H 150.348 -3.11642 0.24452 0
M  V30 1510 H 149.568 -2.85649 2.71659 0
M  V30 1511 H 150.856 -3.99345 3.1528 0
M  V30 1512 H 150.254 -5.64054 0.431217 0
M  V30 1513 H 148.811 -6.45843 0.879205 0
M  V30 1514 N 152.244 -1.26651 -0.937939 0
M  V30 1515 C 153.66 -1.03834 -1.21205 0
M  V30 1516 C 153.86 0.234502 -2.00131 0
M  V30 1517 O 152.916 0.942767 -2.3424 0
M  V30 1518 C 154.229 -2.27167 -1.97017 0
M  V30 1519 C 155.777 -2.32101 -2.09996 0
M  V30 1520 C 156.252 -3.55136 -2.8921 0
M  V30 1521 N 157.743 -3.55632 -2.96783 0
M  V30 1522 C 158.478 -4.475 -3.58512 0
M  V30 1523 N 157.974 -5.4966 -4.21717 0
M  V30 1524 N 159.767 -4.35145 -3.55816 0
M  V30 1525 H 151.918 -2.08398 -0.410391 0
M  V30 1526 H 154.181 -0.916031 -0.244114 0
M  V30 1527 H 153.887 -3.19765 -1.46434 0
M  V30 1528 H 153.761 -2.31672 -2.97671 0
M  V30 1529 H 156.148 -1.40015 -2.59769 0
M  V30 1530 H 156.229 -2.31605 -1.08594 0
M  V30 1531 H 155.873 -4.47553 -2.40123 0
M  V30 1532 H 155.803 -3.5288 -3.90875 0
M  V30 1533 H 158.294 -2.81743 -2.51852 0
M  V30 1534 H 158.607 -6.15943 -4.66727 0
M  V30 1535 H 156.952 -5.53514 -4.20294 0
M  V30 1536 H 160.143 -3.5455 -3.05634 0
M  V30 1537 H 160.316 -5.06934 -4.03636 0
M  V30 1538 N 153.722 1.14298 -1.08507 0
M  V30 1539 C 154.999 1.81544 -0.728088 0
M  V30 1540 C 155.379 1.95838 0.78808 0
M  V30 1541 O 154.727 1.51904 1.70697 0
M  V30 1542 C 154.937 3.17169 -1.45619 0
M  V30 1543 C 156.285 3.9265 -1.61591 0
M  V30 1544 O 157.309 3.26762 -1.41793 0
M  V30 1545 O 156.168 5.10807 -1.94263 0
M  V30 1546 H 153.262 0.78491 -0.260471 0
M  V30 1547 H 155.808 1.21307 -1.18671 0
M  V30 1548 H 154.58 3.01934 -2.489 0
M  V30 1549 H 154.203 3.851 -0.989124 0
M  V30 1550 N 155.201 0.870884 1.31352 0
M  V30 1551 C 156.45 0.478408 1.95944 0
M  V30 1552 C 156.763 -0.974493 1.69597 0
M  V30 1553 O 157.969 -1.47316 2.28058 0
M  V30 1554 C 156.425 0.804609 3.50791 0
M  V30 1555 C 156.033 2.27433 3.85977 0
M  V30 1556 C 157.777 0.480648 4.2177 0
M  V30 1557 C 155.684 2.5429 5.33939 0
M  V30 1558 H 154.614 0.175175 0.733369 0
M  V30 1559 H 157.265 1.06391 1.4951 0
M  V30 1560 H 155.647 0.148347 3.95722 0
M  V30 1561 H 156.821 2.97373 3.52002 0
M  V30 1562 H 155.136 2.56442 3.28065 0
M  V30 1563 H 157.733 0.658519 5.30629 0
M  V30 1564 H 158.076 -0.578979 4.12254 0
M  V30 1565 H 158.609 1.09349 3.82476 0
M  V30 1566 H 155.348 3.58939 5.48491 0
M  V30 1567 H 154.868 1.88945 5.69263 0
M  V30 1568 H 156.547 2.39066 6.01212 0
M  V30 1569 N 156.679 -1.44442 0.630414 0
M  V30 1570 C 157.611 -2.2892 -0.113347 0
M  V30 1571 C 158.624 -1.41243 -0.80959 0
M  V30 1572 O 159.813 -1.65402 -0.671156 0
M  V30 1573 C 156.913 -3.17594 -1.18266 0
M  V30 1574 C 156.086 -4.33682 -0.569073 0
M  V30 1575 C 155.145 -5.03397 -1.53226 0
M  V30 1576 O 154.171 -5.59438 -1.04967 0
M  V30 1577 N 155.373 -5.04783 -2.86661 0
M  V30 1578 H 158.138 -2.93392 0.611636 0
M  V30 1579 H 155.699 -1.54881 0.471523 0
M  V30 1580 H 157.691 -3.61097 -1.82732 0
M  V30 1581 H 156.261 -2.54876 -1.80988 0
M  V30 1582 H 155.481 -3.9338 0.254187 0
M  V30 1583 H 156.769 -5.08608 -0.139767 0
M  V30 1584 H 156.167 -4.60584 -3.28449 0
M  V30 1585 H 154.724 -5.52077 -3.46489 0
M  V30 1586 N 158.157 -0.370918 -1.53173 0
M  V30 1587 C 159.12 0.460778 -2.24521 0
M  V30 1588 C 160.12 1.00536 -1.25496 0
M  V30 1589 O 161.31 0.890266 -1.49733 0
M  V30 1590 C 158.442 1.64457 -2.98608 0
M  V30 1591 H 159.635 -0.163613 -2.99453 0
M  V30 1592 H 157.188 -0.122699 -1.55818 0
M  V30 1593 H 157.923 2.30691 -2.2793 0
M  V30 1594 H 157.708 1.26099 -3.7127 0
M  V30 1595 H 159.198 2.23384 -3.5283 0
M  V30 1596 N 159.635 1.57281 -0.100228 0
M  V30 1597 C 160.882 1.94537 0.562268 0
M  V30 1598 C 161.21 0.982315 1.67871 0
M  V30 1599 O 160.465 0.00280936 1.957 0
M  V30 1600 C 160.764 3.38305 1.15259 0
M  V30 1601 C 160.43 4.50618 0.159409 0
M  V30 1602 C 159.092 4.81066 -0.113741 0
M  V30 1603 C 161.444 5.18615 -0.518461 0
M  V30 1604 C 158.772 5.76835 -1.07137 0
M  V30 1605 C 161.124 6.15412 -1.46459 0
M  V30 1606 C 159.788 6.44262 -1.74592 0
M  V30 1607 H 159.058 0.711863 0.205748 0
M  V30 1608 H 161.705 1.90679 -0.17715 0
M  V30 1609 H 160.01 3.38766 1.96836 0
M  V30 1610 H 161.707 3.64435 1.67297 0
M  V30 1611 H 158.297 4.2689 0.382491 0
M  V30 1612 H 162.481 4.95264 -0.320581 0
M  V30 1613 H 157.737 5.975 -1.29628 0
M  V30 1614 H 161.911 6.67194 -1.99564 0
M  V30 1615 H 159.538 7.1828 -2.48953 0
M  V30 1616 N 161.113 -0.173488 1.56642 0
M  V30 1617 C 162.043 -1.2171 1.99271 0
M  V30 1618 C 163.024 -1.46289 0.867959 0
M  V30 1619 O 164.209 -1.5766 1.13388 0
M  V30 1620 C 161.339 -2.55651 2.35074 0
M  V30 1621 C 160.293 -2.45645 3.50489 0
M  V30 1622 C 159.619 -3.84056 3.72028 0
M  V30 1623 C 160.919 -1.96302 4.84007 0
M  V30 1624 H 162.613 -0.86275 2.867 0
M  V30 1625 H 160.159 -0.413571 1.37933 0
M  V30 1626 H 162.112 -3.2886 2.63494 0
M  V30 1627 H 160.836 -2.92869 1.44552 0
M  V30 1628 H 159.495 -1.7489 3.22194 0
M  V30 1629 H 159.143 -4.18664 2.788 0
M  V30 1630 H 158.843 -3.7823 4.49684 0
M  V30 1631 H 160.367 -4.58854 4.02846 0
M  V30 1632 H 161.781 -2.59284 5.11317 0
M  V30 1633 H 160.178 -2.01429 5.65284 0
M  V30 1634 H 161.248 -0.917226 4.76146 0
M  V30 1635 N 162.591 -1.51276 -0.441967 0
M  V30 1636 C 163.539 -1.72823 -1.55676 0
M  V30 1637 C 164.533 -0.59445 -1.58627 0
M  V30 1638 O 165.739 -0.775715 -1.62427 0
M  V30 1639 H 162.114 -0.545983 -0.517113 0
M  V30 1640 H 164.085 -2.6628 -1.34675 0
M  V30 1641 C 162.834 -1.86619 -2.93375 0
M  V30 1642 H 162.157 -2.73264 -2.91834 0
M  V30 1643 H 163.597 -2.05709 -3.70756 0
M  V30 1644 C 162.056 -0.624842 -3.31055 0
M  V30 1645 O 162.586 0.222636 -4.01083 0
M  V30 1646 N 160.792 -0.470288 -2.86769 0
M  V30 1647 H 160.339 -1.161 -2.29953 0
M  V30 1648 H 160.297 0.359051 -3.12343 0
M  V30 1649 N 164.069 0.697108 -1.41344 0
M  V30 1650 C 165.001 1.8224 -1.39001 0
M  V30 1651 C 166.014 1.60152 -0.292428 0
M  V30 1652 O 167.203 1.69684 -0.554048 0
M  V30 1653 C 164.303 3.18976 -1.14489 0
M  V30 1654 C 163.476 3.68105 -2.36258 0
M  V30 1655 C 162.535 4.83506 -2.07625 0
M  V30 1656 O 161.561 4.95201 -2.8065 0
M  V30 1657 N 162.763 5.70637 -1.06555 0
M  V30 1658 H 165.528 1.84742 -2.35988 0
M  V30 1659 H 163.089 0.87937 -1.35936 0
M  V30 1660 H 165.081 3.93801 -0.932885 0
M  V30 1661 H 163.651 3.11508 -0.261043 0
M  V30 1662 H 162.871 2.84204 -2.7317 0
M  V30 1663 H 164.159 3.97667 -3.17393 0
M  V30 1664 H 163.557 5.63817 -0.461125 0
M  V30 1665 H 162.114 6.45368 -0.913444 0
M  V30 1666 N 165.547 1.27147 0.931209 0
M  V30 1667 C 166.787 1.14511 1.69312 0
M  V30 1668 C 167.151 -0.304638 1.89568 0
M  V30 1669 O 168.352 -0.553343 2.63043 0
M  V30 1670 C 166.623 1.90349 3.02493 0
M  V30 1671 S 168.182 1.93884 3.93642 0
M  V30 1672 H 165 0.408858 0.581684 0
M  V30 1673 H 167.602 1.61006 1.10893 0
M  V30 1674 H 166.306 2.94877 2.85439 0
M  V30 1675 H 165.837 1.44333 3.65966 0
M  V30 1676 H 167.852 1.03273 4.85334 0
M  V30 1677 N 167.025 -1.13721 1.09112 0
M  V30 1678 C 168.273 -1.84559 0.823562 0
M  V30 1679 C 168.594 -1.83754 -0.652658 0
M  V30 1680 O 167.864 -1.29102 -1.47342 0
M  V30 1681 H 166.444 -0.683376 0.301673 0
M  V30 1682 H 169.106 -1.37771 1.37859 0
M  V30 1683 H 168.202 -2.8917 1.17419 0
M  V30 1684 N 168.503 -0.877838 -1.30888 0
M  V30 1685 C 169.466 -0.344265 -2.266 0
M  V30 1686 C 170.466 0.50922 -1.52524 0
M  V30 1687 O 171.656 0.317398 -1.71284 0
M  V30 1688 C 168.788 0.510198 -3.37061 0
M  V30 1689 H 169.981 -1.1893 -2.7531 0
M  V30 1690 H 167.534 -0.654088 -1.41956 0
M  V30 1691 H 168.269 1.37612 -2.93655 0
M  V30 1692 H 168.054 -0.101047 -3.9197 0
M  V30 1693 H 169.544 0.875537 -4.08319 0
M  V30 1694 N 169.982 1.44106 -0.638065 0
M  V30 1695 C 171.207 2.0685 -0.150916 0
M  V30 1696 C 171.632 1.47417 1.16833 0
M  V30 1697 O 170.99 0.578264 1.71831 0
M  V30 1698 C 171.038 3.60555 -0.05708 0
M  V30 1699 O 170.142 4.00465 0.984972 0
M  V30 1700 H 169.483 0.658151 -0.0879399 0
M  V30 1701 H 172.013 1.84865 -0.876707 0
M  V30 1702 H 172.023 4.07789 0.131232 0
M  V30 1703 H 170.698 4.03193 -1.02021 0
M  V30 1704 H 169.275 3.64849 0.770672 0
M  V30 1705 N 171.46 0.379036 1.52974 0
M  V30 1706 C 172.871 -0.0972525 1.86447 0
M  V30 1707 C 173.222 -1.47027 1.29914 0
M  V30 1708 O 172.347 -2.07135 0.626433 0
M  V30 1709 C 172.942 -0.183248 3.38304 0
M  V30 1710 C 171.501 -0.603812 3.71525 0
M  V30 1711 C 170.648 0.240632 2.76254 0
M  V30 1712 H 173.599 0.597316 1.4703 0
M  V30 1713 H 173.62 -1.00432 3.67006 0
M  V30 1714 H 173.132 0.816191 3.79421 0
M  V30 1715 H 171.233 -1.61099 3.35973 0
M  V30 1716 H 171.346 -0.369086 4.77676 0
M  V30 1717 H 169.71 -0.292548 2.53014 0
M  V30 1718 H 170.493 1.23786 3.20206 0
M  V30 1719 N 172.938 -1.57226 0.108567 0
M  V30 1720 C 174.186 -1.94448 -0.550853 0
M  V30 1721 C 174.507 -0.992074 -1.67878 0
M  V30 1722 O 173.777 -0.0465 -1.95845 0
M  V30 1723 H 172.357 -0.717897 -0.206479 0
M  V30 1724 H 175.019 -1.94112 0.175062 0
M  V30 1725 H 174.115 -2.97218 -0.952259 0
M  V30 1726 N 174.416 0.165178 -1.56732 0
M  V30 1727 C 175.326 1.22423 -2.00125 0
M  V30 1728 C 176.342 1.48084 -0.913619 0
M  V30 1729 O 177.518 1.60112 -1.22172 0
M  V30 1730 C 174.583 2.54197 -2.35764 0
M  V30 1731 C 173.644 2.36343 -3.58386 0
M  V30 1732 C 172.877 3.61834 -3.92316 0
M  V30 1733 O 173.1 4.67267 -3.27135 0
M  V30 1734 O 172.034 3.55579 -4.85641 0
M  V30 1735 H 175.86 0.885886 -2.90492 0
M  V30 1736 H 173.445 0.372518 -1.44681 0
M  V30 1737 H 175.327 3.3192 -2.59629 0
M  V30 1738 H 174.002 2.87598 -1.48557 0
M  V30 1739 H 172.909 1.56632 -3.39731 0
M  V30 1740 H 174.242 2.07865 -4.46154 0
M  V30 1741 N 175.894 1.51508 0.433938 0
M  V30 1742 C 176.857 1.72473 1.50949 0
M  V30 1743 C 177.857 0.594725 1.49398 0
M  V30 1744 O 179.047 0.862315 1.5136 0
M  V30 1745 C 176.179 1.78431 2.90474 0
M  V30 1746 H 177.372 2.68467 1.33662 0
M  V30 1747 H 174.925 1.41549 0.662836 0
M  V30 1748 H 175.66 0.842645 3.13161 0
M  V30 1749 H 175.445 2.60558 2.93005 0
M  V30 1750 H 176.935 1.96479 3.68491 0
M  V30 1751 N 177.372 -0.689602 1.41712 0
M  V30 1752 C 178.788 -1.00093 1.24312 0
M  V30 1753 C 178.988 -2.01036 0.136729 0
M  V30 1754 O 178.044 -2.47562 -0.496918 0
M  V30 1755 C 179.357 -1.51985 2.59463 0
M  V30 1756 C 180.905 -1.63838 2.66695 0
M  V30 1757 C 181.38 -2.1913 4.02177 0
M  V30 1758 N 182.871 -2.26483 4.04054 0
M  V30 1759 C 183.606 -2.70306 5.0569 0
M  V30 1760 N 183.102 -3.13691 6.17713 0
M  V30 1761 N 184.895 -2.69923 4.9305 0
M  V30 1762 H 177.046 -0.0210029 2.1239 0
M  V30 1763 H 179.309 -0.0718733 0.945272 0
M  V30 1764 H 179.015 -0.85269 3.41207 0
M  V30 1765 H 178.889 -2.50103 2.82362 0
M  V30 1766 H 181.276 -2.29664 1.85306 0
M  V30 1767 H 181.357 -0.642492 2.476 0
M  V30 1768 H 181.001 -1.53918 4.84016 0
M  V30 1769 H 180.931 -3.19482 4.18615 0
M  V30 1770 H 183.422 -1.95874 3.23174 0
M  V30 1771 H 183.735 -3.45773 6.9113 0
M  V30 1772 H 182.08 -3.11585 6.21241 0
M  V30 1773 H 185.271 -2.35382 4.04614 0
M  V30 1774 H 185.444 -3.03758 5.72394 0
M  V30 1775 N 178.85 -1.27639 -0.924453 0
M  V30 1776 C 179.8 -1.07295 -2.01176 0
M  V30 1777 C 180.784 5.77352e-05 -1.609 0
M  V30 1778 O 181.976 -0.218855 -1.75642 0
M  V30 1779 C 179.105 -0.725592 -3.35544 0
M  V30 1780 C 178.191 -1.83691 -3.82254 0
M  V30 1781 N 178.582 -3.07697 -4.01443 0
M  V30 1782 C 176.88 -1.72433 -4.11319 0
M  V30 1783 C 177.581 -3.80037 -4.40394 0
M  V30 1784 N 176.557 -3.0782 -4.48049 0
M  V30 1785 H 180.359 -2.01399 -2.14046 0
M  V30 1786 H 177.873 -1.18401 -1.11153 0
M  V30 1787 H 179.87 -0.560959 -4.13109 0
M  V30 1788 H 178.53 0.207782 -3.24034 0
M  V30 1789 H 179.541 -3.43424 -3.8766 0
M  V30 1790 H 176.218 -0.862005 -4.08504 0
M  V30 1791 H 177.608 -4.86632 -4.63291 0
M  V30 1792 N 180.328 1.1314 -1.09713 0
M  V30 1793 C 181.574 1.84967 -0.846104 0
M  V30 1794 C 181.929 1.82082 0.621601 0
M  V30 1795 O 181.222 1.2501 1.452 0
M  V30 1796 C 181.416 3.32167 -1.3191 0
M  V30 1797 C 181.245 3.49386 -2.83125 0
M  V30 1798 C 180.015 3.63456 -3.51038 0
M  V30 1799 C 182.213 3.45179 -3.81256 0
M  V30 1800 N 180.195 3.68966 -4.9065 0
M  V30 1801 C 181.566 3.57094 -5.06837 0
M  V30 1802 C 183.621 3.28598 -3.74069 0
M  V30 1803 C 182.324 3.5414 -6.26081 0
M  V30 1804 C 184.35 3.26953 -4.92804 0
M  V30 1805 C 183.712 3.39422 -6.17229 0
M  V30 1806 H 179.811 0.692899 -0.362512 0
M  V30 1807 H 182.395 1.35506 -1.39808 0
M  V30 1808 H 180.566 3.80186 -0.794535 0
M  V30 1809 H 182.298 3.91815 -1.01308 0
M  V30 1810 H 179.053 3.65256 -3.01471 0
M  V30 1811 H 179.477 3.75404 -5.63383 0
M  V30 1812 H 184.119 3.17858 -2.78794 0
M  V30 1813 H 181.837 3.63653 -7.21653 0
M  V30 1814 H 185.423 3.15316 -4.88945 0
M  V30 1815 H 184.303 3.38114 -7.07565 0
M  V30 1816 N 181.806 0.884767 1.30421 0
M  V30 1817 C 182.736 0.367574 2.30589 0
M  V30 1818 C 183.717 -0.549464 1.60981 0
M  V30 1819 O 184.902 -0.46336 1.88591 0
M  V30 1820 C 182.032 -0.418944 3.44764 0
M  V30 1821 C 180.986 0.406316 4.26067 0
M  V30 1822 C 180.312 -0.506793 5.32293 0
M  V30 1823 C 181.612 1.64832 4.95608 0
M  V30 1824 H 183.306 1.20462 2.74097 0
M  V30 1825 H 180.852 0.580695 1.31772 0
M  V30 1826 H 182.805 -0.791395 4.13902 0
M  V30 1827 H 181.529 -1.28964 3.0006 0
M  V30 1828 H 180.188 0.760903 3.58617 0
M  V30 1829 H 179.836 -1.37519 4.83836 0
M  V30 1830 H 179.536 0.0415828 5.87585 0
M  V30 1831 H 181.06 -0.875764 6.04287 0
M  V30 1832 H 182.474 1.34646 5.57264 0
M  V30 1833 H 180.871 2.13688 5.60765 0
M  V30 1834 H 181.941 2.39284 4.21748 0
M  V30 1835 N 183.284 -1.43765 0.645699 0
M  V30 1836 C 184.512 -2.06253 0.163556 0
M  V30 1837 C 184.927 -1.48352 -1.16778 0
M  V30 1838 O 184.284 -0.611932 -1.71935 0
M  V30 1839 C 184.335 -3.61453 0.0583186 0
M  V30 1840 O 184.056 -4.172 1.33702 0
M  V30 1841 C 185.557 -4.41002 -0.450795 0
M  V30 1842 H 182.777 -0.665413 0.0864077 0
M  V30 1843 H 185.321 -1.84396 0.884222 0
M  V30 1844 H 183.476 -3.82522 -0.612865 0
M  V30 1845 H 183.89 -5.10791 1.19131 0
M  V30 1846 H 185.364 -5.49966 -0.473403 0
M  V30 1847 H 185.841 -4.13488 -1.48068 0
M  V30 1848 H 186.447 -4.24886 0.187637 0
M  V30 1849 N 184.763 -0.387143 -1.52771 0
M  V30 1850 C 185.695 0.484089 -2.2403 0
M  V30 1851 C 186.708 1.02849 -1.26198 0
M  V30 1852 O 187.897 0.931186 -1.52286 0
M  V30 1853 C 184.997 1.68337 -2.94136 0
M  V30 1854 C 184.17 1.26672 -4.18656 0
M  V30 1855 C 183.229 2.33045 -4.7178 0
M  V30 1856 O 182.255 1.94541 -5.34923 0
M  V30 1857 N 183.457 3.64929 -4.5145 0
M  V30 1858 H 186.222 -0.126404 -2.99433 0
M  V30 1859 H 183.783 -0.213392 -1.60488 0
M  V30 1860 H 185.775 2.39019 -3.26577 0
M  V30 1861 H 184.345 2.20025 -2.22053 0
M  V30 1862 H 183.565 0.388878 -3.92277 0
M  V30 1863 H 184.853 0.964964 -4.99566 0
M  V30 1864 H 184.251 3.98974 -4.01044 0
M  V30 1865 H 182.808 4.31651 -4.88386 0
M  V30 1866 N 186.241 1.57166 -0.116904 0
M  V30 1867 C 187.488 1.95123 0.541603 0
M  V30 1868 C 187.816 1.00006 1.6682 0
M  V30 1869 O 187.071 0.0235658 1.95686 0
M  V30 1870 C 187.37 3.39508 1.11664 0
M  V30 1871 C 187.036 4.50762 0.111606 0
M  V30 1872 C 185.698 4.80918 -0.164758 0
M  V30 1873 C 188.05 5.18036 -0.573438 0
M  V30 1874 C 185.378 5.75666 -1.13249 0
M  V30 1875 C 187.73 6.13824 -1.52978 0
M  V30 1876 C 186.394 6.42374 -1.81415 0
M  V30 1877 H 185.664 0.714005 0.198187 0
M  V30 1878 H 188.311 1.9048 -0.197365 0
M  V30 1879 H 186.616 3.40835 1.93232 0
M  V30 1880 H 188.313 3.66189 1.63422 0
M  V30 1881 H 184.903 4.27272 0.337192 0
M  V30 1882 H 189.087 4.94896 -0.373092 0
M  V30 1883 H 184.343 5.96092 -1.35958 0
M  V30 1884 H 188.517 6.65039 -2.06629 0
M  V30 1885 H 186.144 7.15599 -2.56557 0
M  V30 1886 N 187.719 -0.156864 1.56817 0
M  V30 1887 C 188.651 -1.21883 1.94106 0
M  V30 1888 C 189.664 -1.3971 0.835754 0
M  V30 1889 O 190.853 -1.39457 1.11418 0
M  V30 1890 C 187.953 -2.58527 2.19127 0
M  V30 1891 C 187.126 -2.61809 3.50393 0
M  V30 1892 C 186.185 -3.7992 3.64071 0
M  V30 1893 O 185.211 -3.65249 4.36557 0
M  V30 1894 N 186.413 -4.96973 2.99997 0
M  V30 1895 H 189.178 -0.901974 2.85805 0
M  V30 1896 H 186.739 -0.346513 1.58148 0
M  V30 1897 H 188.731 -3.36034 2.25529 0
M  V30 1898 H 187.301 -2.82545 1.33742 0
M  V30 1899 H 186.521 -1.7029 3.5552 0
M  V30 1900 H 187.809 -2.61024 4.36742 0
M  V30 1901 H 187.207 -5.11794 2.41004 0
M  V30 1902 H 185.764 -5.7229 3.11974 0
M  V30 1903 N 189.197 -1.51736 -0.425897 0
M  V30 1904 C 190.425 -1.68794 -1.1965 0
M  V30 1905 C 190.84 -0.390164 -1.84725 0
M  V30 1906 O 190.197 0.632376 -1.71194 0
M  V30 1907 C 190.248 -2.81174 -2.27208 0
M  V30 1908 O 189.969 -4.05925 -1.64793 0
M  V30 1909 C 191.47 -3.09599 -3.17275 0
M  V30 1910 H 188.69 -0.566128 -0.360194 0
M  V30 1911 H 191.234 -1.98211 -0.503249 0
M  V30 1912 H 189.389 -2.54324 -2.9223 0
M  V30 1913 H 189.803 -4.68423 -2.35967 0
M  V30 1914 H 191.277 -3.91786 -3.88854 0
M  V30 1915 H 191.754 -2.22468 -3.78688 0
M  V30 1916 H 192.36 -3.38151 -2.57941 0
M  V30 1917 N 190.675 0.682077 -1.42076 0
M  V30 1918 C 191.915 1.45424 -1.43636 0
M  V30 1919 C 192.279 1.91939 -0.0484001 0
M  V30 1920 O 193.48 2.6873 0.0612514 0
M  V30 1921 C 191.751 2.62427 -2.42625 0
M  V30 1922 S 193.31 3.51379 -2.62827 0
M  V30 1923 H 190.128 0.496779 -0.508657 0
M  V30 1924 H 192.73 0.794645 -1.78621 0
M  V30 1925 H 191.434 2.26481 -3.42249 0
M  V30 1926 H 190.965 3.33266 -2.09039 0
M  V30 1927 H 192.98 4.58141 -1.9058 0
M  V30 1928 N 192.153 1.28127 0.917671 0
M  V30 1929 C 193.103 1.08361 2.00604 0
M  V30 1930 C 194.087 0.00847518 1.60898 0
M  V30 1931 O 195.279 0.228167 1.75523 0
M  V30 1932 C 192.408 0.743376 3.35155 0
M  V30 1933 C 191.494 1.85716 3.81275 0
M  V30 1934 N 191.885 3.09822 3.99805 0
M  V30 1935 C 190.183 1.74612 4.10398 0
M  V30 1936 C 190.884 3.82368 4.38372 0
M  V30 1937 N 189.86 3.10192 4.4641 0
M  V30 1938 H 193.662 2.02531 2.12975 0
M  V30 1939 H 191.176 1.18989 1.10523 0
M  V30 1940 H 193.173 0.582859 4.12805 0
M  V30 1941 H 191.833 -0.190595 3.2414 0
M  V30 1942 H 192.844 3.45475 3.85833 0
M  V30 1943 H 189.521 0.883657 4.08041 0
M  V30 1944 H 190.911 4.89082 4.60704 0
M  V30 1945 N 193.631 -1.12557 1.10312 0
M  V30 1946 C 194.581 -2.16331 0.720076 0
M  V30 1947 C 195.565 -1.58616 -0.270115 0
M  V30 1948 O 196.757 -1.76823 -0.0790507 0
M  V30 1949 C 193.886 -3.42963 0.152113 0
M  V30 1950 C 192.972 -4.07663 1.16927 0
M  V30 1951 N 193.363 -4.47392 2.35953 0
M  V30 1952 C 191.661 -4.34425 1.0095 0
M  V30 1953 C 192.362 -4.97932 3.0073 0
M  V30 1954 N 191.338 -4.93358 2.28252 0
M  V30 1955 H 195.14 -2.44813 1.62616 0
M  V30 1956 H 192.654 -1.29449 0.980654 0
M  V30 1957 H 194.651 -4.16664 -0.14037 0
M  V30 1958 H 193.311 -3.1595 -0.748701 0
M  V30 1959 H 194.322 -4.39802 2.73486 0
M  V30 1960 H 190.999 -4.17177 0.164134 0
M  V30 1961 H 192.389 -5.38397 4.01969 0
M  V30 1962 N 195.109 -0.891671 -1.2995 0
M  V30 1963 C 196.334 -0.527932 -2.00568 0
M  V30 1964 C 196.759 0.877969 -1.66353 0
M  V30 1965 O 196.117 1.58301 -0.883762 0
M  V30 1966 C 196.165 -0.717745 -3.53385 0
M  V30 1967 O 195.269 0.233376 -4.11739 0
M  V30 1968 H 194.61 -0.20722 -0.630837 0
M  V30 1969 H 197.14 -1.20105 -1.65638 0
M  V30 1970 H 197.15 -0.619307 -4.03272 0
M  V30 1971 H 195.825 -1.74276 -3.77625 0
M  V30 1972 H 194.402 0.0880706 -3.72796 0
M  V30 1973 N 196.587 1.43421 -0.653314 0
M  V30 1974 C 197.55 2.29182 0.0287951 0
M  V30 1975 C 198.55 1.42213 0.750465 0
M  V30 1976 O 199.74 1.63843 0.591701 0
M  V30 1977 C 196.872 3.24278 1.05151 0
M  V30 1978 H 198.065 2.90985 -0.725786 0
M  V30 1979 H 195.618 1.50702 -0.414545 0
M  V30 1980 H 196.353 2.6737 1.83532 0
M  V30 1981 H 196.138 3.88396 0.537687 0
M  V30 1982 H 197.628 3.88647 1.52786 0
M  V30 1983 N 198.065 0.39524 1.52563 0
M  V30 1984 C 199.342 -0.242908 1.94086 0
M  V30 1985 C 199.722 -1.63841 1.33114 0
M  V30 1986 O 199.07 -2.22928 0.501529 0
M  V30 1987 C 199.28 -0.26327 3.48006 0
M  V30 1988 C 200.628 -0.489354 4.21771 0
M  V30 1989 O 201.652 -0.343226 3.54543 0
M  V30 1990 O 200.511 -0.776169 5.4096 0
M  V30 1991 H 197.605 -0.152536 0.812811 0
M  V30 1992 H 200.151 0.450178 1.6362 0
M  V30 1993 H 198.923 0.713985 3.84731 0
M  V30 1994 H 198.546 -1.00103 3.84792 0
M  V30 1995 N 199.544 -1.57102 0.125237 0
M  V30 1996 C 200.491 -2.15641 -0.822655 0
M  V30 1997 C 201.461 -1.08313 -1.25927 0
M  V30 1998 O 202.646 -1.36251 -1.33567 0
M  V30 1999 C 199.786 -2.76504 -2.06494 0
M  V30 2000 C 198.899 -3.98158 -1.67612 0
M  V30 2001 C 198.034 -4.47088 -2.86854 0
M  V30 2002 C 197.073 -5.6126 -2.44242 0
M  V30 2003 N 196.21 -6.04905 -3.56419 0
M  V30 2004 H 201.05 -2.96313 -0.316625 0
M  V30 2005 H 198.587 -1.46388 -0.144588 0
M  V30 2006 H 200.545 -3.09925 -2.79289 0
M  V30 2007 H 199.175 -1.98512 -2.54545 0
M  V30 2008 H 198.227 -3.70858 -0.846661 0
M  V30 2009 H 199.539 -4.80934 -1.32301 0
M  V30 2010 H 198.693 -4.82451 -3.67867 0
M  V30 2011 H 197.432 -3.63275 -3.25396 0
M  V30 2012 H 196.437 -5.25495 -1.61663 0
M  V30 2013 H 197.662 -6.46843 -2.0681 0
M  V30 2014 H 195.608 -5.24032 -3.94623 0
M  V30 2015 H 195.525 -6.82552 -3.25051 0
M  V30 2016 H 196.793 -6.44907 -4.37853 0
M  V30 2017 N 201.022 0.148545 -1.56898 0
M  V30 2018 C 202.433 0.708766 -1.72723 0
M  V30 2019 C 202.784 1.81734 -0.739395 0
M  V30 2020 O 201.909 2.16194 0.0943169 0
M  V30 2021 C 202.504 1.29245 -3.13179 0
M  V30 2022 C 201.063 1.79925 -3.30611 0
M  V30 2023 C 200.21 0.687111 -2.68652 0
M  V30 2024 H 203.161 -0.0771063 -1.58513 0
M  V30 2025 H 203.182 2.16224 -3.13093 0
M  V30 2026 H 202.694 0.485382 -3.85053 0
M  V30 2027 H 200.795 2.63203 -2.63732 0
M  V30 2028 H 200.908 1.92903 -4.38549 0
M  V30 2029 H 199.272 1.11335 -2.29078 0
M  V30 2030 H 200.055 -0.108483 -3.43129 0
M  V30 2031 N 202.5 1.5196 0.417844 0
M  V30 2032 C 203.747 1.65591 1.16559 0
M  V30 2033 C 204.075 0.381565 1.90721 0
M  V30 2034 O 203.33 -0.635156 1.85106 0
M  V30 2035 C 203.629 2.82269 2.19223 0
M  V30 2036 C 203.295 4.20819 1.61933 0
M  V30 2037 C 201.957 4.58506 1.46033 0
M  V30 2038 C 204.309 5.07196 1.20008 0
M  V30 2039 C 201.637 5.80257 0.867113 0
M  V30 2040 C 203.989 6.29544 0.621086 0
M  V30 2041 C 202.653 6.65987 0.449144 0
M  V30 2042 H 201.923 0.605939 0.42652 0
M  V30 2043 H 204.57 1.86041 0.45397 0
M  V30 2044 H 202.875 2.56118 2.96498 0
M  V30 2045 H 204.572 2.90012 2.76936 0
M  V30 2046 H 201.162 3.91116 1.7529 0
M  V30 2047 H 205.346 4.7867 1.31105 0
M  V30 2048 H 200.602 6.07124 0.721833 0
M  V30 2049 H 204.776 6.95805 0.287798 0
M  V30 2050 H 202.403 7.60199 -0.012632 0
M  V30 2051 N 203.978 -0.674533 1.42435 0
M  V30 2052 C 204.941 -1.76986 1.45632 0
M  V30 2053 C 205.941 -1.5708 0.343871 0
M  V30 2054 O 207.131 -1.63367 0.604709 0
M  V30 2055 C 204.263 -3.15623 1.28822 0
M  V30 2056 H 205.456 -1.75539 2.43158 0
M  V30 2057 H 203.009 -0.884189 1.28887 0
M  V30 2058 H 203.744 -3.22696 0.322193 0
M  V30 2059 H 203.529 -3.31475 2.09444 0
M  V30 2060 H 205.019 -3.95537 1.33942 0
M  V30 2061 N 205.456 -1.28612 -0.910864 0
M  V30 2062 C 206.702 -1.16106 -1.66274 0
M  V30 2063 C 207.035 0.289113 -1.92036 0
M  V30 2064 O 206.31 1.21 -1.52281 0
M  V30 2065 C 206.593 -1.96309 -3.01885 0
M  V30 2066 C 206.446 -3.49405 -2.8326 0
M  V30 2067 C 207.765 -1.78076 -4.02463 0
M  V30 2068 H 204.884 -0.423152 -0.603417 0
M  V30 2069 H 207.526 -1.57961 -1.05586 0
M  V30 2070 H 205.676 -1.60742 -3.53687 0
M  V30 2071 H 207.348 -3.94894 -2.38446 0
M  V30 2072 H 205.591 -3.74893 -2.18261 0
M  V30 2073 H 206.262 -4.00784 -3.79574 0
M  V30 2074 H 208.738 -2.0912 -3.59733 0
M  V30 2075 H 207.614 -2.36561 -4.95308 0
M  V30 2076 H 207.875 -0.733008 -4.35981 0
M  V30 2077 N 206.934 1.1197 -1.10907 0
M  V30 2078 C 208.183 1.82947 -0.849302 0
M  V30 2079 C 208.496 1.85275 0.627112 0
M  V30 2080 O 209.702 2.52296 1.00295 0
M  V30 2081 C 208.158 3.28529 -1.46959 0
M  V30 2082 C 207.766 3.34546 -2.97965 0
M  V30 2083 C 209.51 4.04443 -1.28942 0
M  V30 2084 C 207.417 4.74491 -3.53004 0
M  V30 2085 H 206.347 0.685477 -0.314065 0
M  V30 2086 H 208.998 1.2604 -1.33365 0
M  V30 2087 H 207.38 3.85333 -0.912917 0
M  V30 2088 H 208.554 2.87654 -3.59989 0
M  V30 2089 H 206.869 2.72108 -3.15192 0
M  V30 2090 H 209.466 5.07787 -1.67502 0
M  V30 2091 H 209.809 4.15656 -0.231456 0
M  V30 2092 H 210.342 3.5401 -1.81443 0
M  V30 2093 H 207.081 4.68474 -4.58489 0
M  V30 2094 H 206.601 5.21816 -2.9575 0
M  V30 2095 H 208.28 5.4344 -3.51115 0
M  V30 2096 N 208.412 0.89855 1.29475 0
M  V30 2097 C 209.322 0.379974 2.31502 0
M  V30 2098 C 210.338 -0.524695 1.659 0
M  V30 2099 O 211.514 -0.414551 1.97087 0
M  V30 2100 C 208.579 -0.385138 3.44554 0
M  V30 2101 C 207.64 0.550914 4.2575 0
M  V30 2102 C 206.873 -0.177778 5.33404 0
M  V30 2103 O 207.096 -1.40189 5.52904 0
M  V30 2104 O 206.03 0.479106 5.9999 0
M  V30 2105 H 209.856 1.22639 2.77837 0
M  V30 2106 H 207.441 0.662834 1.33891 0
M  V30 2107 H 209.323 -0.817841 4.13388 0
M  V30 2108 H 207.998 -1.20763 3.0033 0
M  V30 2109 H 206.905 1.03271 3.59564 0
M  V30 2110 H 208.238 1.33979 4.73614 0
M  V30 2111 N 209.89 -1.43072 0.660911 0
M  V30 2112 C 211.136 -2.0202 0.177708 0
M  V30 2113 C 211.469 -1.52066 -1.20787 0
M  V30 2114 O 210.744 -0.716987 -1.80802 0
M  V30 2115 C 211.027 -3.59561 0.197019 0
M  V30 2116 C 210.88 -4.19727 1.61706 0
M  V30 2117 C 212.199 -4.37664 -0.462396 0
M  V30 2118 H 209.318 -0.734034 0.0660494 0
M  V30 2119 H 211.96 -1.70272 0.843058 0
M  V30 2120 H 210.11 -3.86739 -0.369527 0
M  V30 2121 H 211.782 -4.03553 2.23479 0
M  V30 2122 H 210.025 -3.76084 2.16201 0
M  V30 2123 H 210.696 -5.28834 1.58237 0
M  V30 2124 H 213.172 -4.16095 0.0197215 0
M  V30 2125 H 212.048 -5.47305 -0.418188 0
M  V30 2126 H 212.309 -4.14493 -1.53778 0
M  V30 2127 N 211.368 -0.403325 -1.52352 0
M  V30 2128 C 212.645 0.232611 -1.94212 0
M  V30 2129 C 213.025 1.63133 -1.33981 0
M  V30 2130 O 212.373 2.22659 -0.513344 0
M  V30 2131 C 212.583 0.244811 -3.4814 0
M  V30 2132 C 213.931 0.46698 -4.22024 0
M  V30 2133 O 214.955 0.324419 -3.5472 0
M  V30 2134 O 213.814 0.74747 -5.41364 0
M  V30 2135 H 210.908 0.148223 -0.813609 0
M  V30 2136 H 213.454 -0.458848 -1.63379 0
M  V30 2137 H 212.226 -0.734378 -3.84347 0
M  V30 2138 H 211.849 0.980611 -3.85318 0
M  V30 2139 N 212.846 1.57033 -0.133567 0
M  V30 2140 C 213.756 2.19632 0.824564 0
M  V30 2141 C 214.772 1.17666 1.28182 0
M  V30 2142 O 215.948 1.50193 1.3418 0
M  V30 2143 C 213.013 2.79499 2.05137 0
M  V30 2144 C 212.074 3.96548 1.64464 0
M  V30 2145 C 211.307 4.5355 2.81297 0
M  V30 2146 O 211.53 4.09438 3.97136 0
M  V30 2147 O 210.464 5.44018 2.57542 0
M  V30 2148 H 214.29 3.01991 0.321766 0
M  V30 2149 H 211.875 1.49112 0.0927889 0
M  V30 2150 H 213.757 3.17602 2.7696 0
M  V30 2151 H 212.432 2.00162 2.54395 0
M  V30 2152 H 211.339 3.63186 0.897048 0
M  V30 2153 H 212.672 4.77364 1.19934 0
M  V30 2154 N 214.325 -0.140222 1.56975 0
M  V30 2155 C 215.235 -1.19223 2.02047 0
M  V30 2156 C 216.251 -1.46612 0.937062 0
M  V30 2157 O 217.427 -1.58148 1.24704 0
M  V30 2158 C 214.492 -2.50414 2.39778 0
M  V30 2159 C 213.553 -2.30612 3.621 0
M  V30 2160 C 212.786 -3.55547 3.98023 0
M  V30 2161 O 213.009 -4.62004 3.34528 0
M  V30 2162 O 211.943 -3.47808 4.91237 0
M  V30 2163 H 215.769 -0.839559 2.91865 0
M  V30 2164 H 213.354 -0.349453 1.45256 0
M  V30 2165 H 215.236 -3.27747 2.64877 0
M  V30 2166 H 213.911 -2.85198 1.53114 0
M  V30 2167 H 212.818 -1.51207 3.4218 0
M  V30 2168 H 214.151 -2.00741 4.49404 0
M  V30 2169 N 215.803 -1.52179 -0.40978 0
M  V30 2170 C 217.049 -1.66453 -1.15851 0
M  V30 2171 C 217.382 -0.392972 -1.90182 0
M  V30 2172 O 216.657 0.608579 -1.84734 0
M  V30 2173 C 216.94 -2.88612 -2.15349 0
M  V30 2174 C 216.793 -4.25815 -1.44918 0
M  V30 2175 C 218.112 -3.06294 -3.16026 0
M  V30 2176 H 215.231 -0.60575 -0.419805 0
M  V30 2177 H 217.873 -1.84732 -0.444314 0
M  V30 2178 H 216.023 -2.73158 -2.76255 0
M  V30 2179 H 217.695 -4.52995 -0.871365 0
M  V30 2180 H 215.938 -4.27247 -0.751159 0
M  V30 2181 H 216.609 -5.07337 -2.17516 0
M  V30 2182 H 219.085 -3.20641 -2.65195 0
M  V30 2183 H 217.961 -3.93283 -3.8291 0
M  V30 2184 H 218.222 -2.19579 -3.83715 0
M  V30 2185 N 217.281 0.66697 -1.42791 0
M  V30 2186 C 218.211 1.79218 -1.49677 0
M  V30 2187 C 219.192 1.66405 -0.352623 0
M  V30 2188 O 220.377 1.85708 -0.567993 0
M  V30 2189 C 217.507 3.17565 -1.40605 0
M  V30 2190 C 216.461 3.45124 -2.53127 0
M  V30 2191 C 215.787 4.83127 -2.29112 0
M  V30 2192 C 217.087 3.41236 -3.95418 0
M  V30 2193 H 218.781 1.73713 -2.43853 0
M  V30 2194 H 216.327 0.83432 -1.17367 0
M  V30 2195 H 218.28 3.96022 -1.44029 0
M  V30 2196 H 217.004 3.23767 -0.429271 0
M  V30 2197 H 215.663 2.69031 -2.49034 0
M  V30 2198 H 215.311 4.85988 -1.29709 0
M  V30 2199 H 215.011 5.02528 -3.04531 0
M  V30 2200 H 216.535 5.63859 -2.34297 0
M  V30 2201 H 217.949 4.09651 -4.01073 0
M  V30 2202 H 216.346 3.72173 -4.70752 0
M  V30 2203 H 217.416 2.39665 -4.21532 0
M  V30 2204 N 218.759 1.29093 0.90403 0
M  V30 2205 C 219.706 1.13853 2.00764 0
M  V30 2206 C 220.676 0.0330084 1.66067 0
M  V30 2207 O 221.861 0.199733 1.89752 0
M  V30 2208 C 219.001 0.816537 3.35301 0
M  V30 2209 C 218.114 2.00206 3.82807 0
M  V30 2210 C 217.249 1.61983 5.059 0
M  V30 2211 C 216.288 2.77143 5.45764 0
M  V30 2212 N 215.425 2.39346 6.60044 0
M  V30 2213 H 220.265 2.08276 2.13132 0
M  V30 2214 H 217.802 1.03648 1.04381 0
M  V30 2215 H 219.76 0.610557 4.12708 0
M  V30 2216 H 218.39 -0.090779 3.22672 0
M  V30 2217 H 217.442 2.31988 3.01473 0
M  V30 2218 H 218.754 2.86512 4.08304 0
M  V30 2219 H 217.908 1.37649 5.90879 0
M  V30 2220 H 216.647 0.728202 4.82233 0
M  V30 2221 H 215.652 3.02165 4.59322 0
M  V30 2222 H 216.877 3.66964 5.71414 0
M  V30 2223 H 214.823 1.52665 6.37989 0
M  V30 2224 H 214.74 3.19185 6.85315 0
M  V30 2225 H 216.008 2.1832 7.48303 0
M  V30 2226 N 220.237 -1.11381 1.11499 0
M  V30 2227 C 221.477 -1.84763 0.874188 0
M  V30 2228 C 221.841 -1.82726 -0.589496 0
M  V30 2229 O 223.042 -2.51562 -0.947089 0
M  V30 2230 C 221.313 -3.27931 1.42112 0
M  V30 2231 S 222.872 -4.18557 1.31739 0
M  V30 2232 H 219.69 -0.637115 0.315603 0
M  V30 2233 H 222.292 -1.34097 1.42261 0
M  V30 2234 H 220.996 -3.26978 2.48019 0
M  V30 2235 H 220.527 -3.83665 0.869761 0
M  V30 2236 H 222.542 -4.95396 0.282335 0
M  V30 2237 N 221.715 -0.905404 -1.28997 0
M  V30 2238 C 222.647 -0.344748 -2.26592 0
M  V30 2239 C 223.66 0.512135 -1.54535 0
M  V30 2240 O 224.849 0.328368 -1.75454 0
M  V30 2241 C 221.949 0.526587 -3.34784 0
M  V30 2242 C 221.122 -0.305871 -4.36329 0
M  V30 2243 C 220.181 0.499209 -5.23827 0
M  V30 2244 O 219.207 -0.0853004 -5.69136 0
M  V30 2245 N 220.409 1.80408 -5.51755 0
M  V30 2246 H 223.174 -1.18359 -2.75338 0
M  V30 2247 H 220.735 -0.770481 -1.42391 0
M  V30 2248 H 222.727 1.07171 -3.90252 0
M  V30 2249 H 221.297 1.26613 -2.85811 0
M  V30 2250 H 220.517 -1.0324 -3.80441 0
M  V30 2251 H 221.805 -0.875773 -5.01206 0
M  V30 2252 H 221.203 2.3016 -5.16762 0
M  V30 2253 H 219.76 2.29621 -6.10014 0
M  V30 2254 N 223.193 1.4272 -0.668489 0
M  V30 2255 C 224.125 2.2914 0.052613 0
M  V30 2256 C 225.138 1.43339 0.771857 0
M  V30 2257 O 226.327 1.67123 0.627067 0
M  V30 2258 C 223.427 3.20618 1.09804 0
M  V30 2259 C 222.6 4.35039 0.45389 0
M  V30 2260 C 221.659 5.07282 1.39825 0
M  V30 2261 O 220.685 5.62024 0.900978 0
M  V30 2262 N 221.887 5.12206 2.73176 0
M  V30 2263 H 224.652 2.91668 -0.689209 0
M  V30 2264 H 222.213 1.53577 -0.512422 0
M  V30 2265 H 224.205 3.65815 1.73094 0
M  V30 2266 H 222.775 2.59585 1.74167 0
M  V30 2267 H 221.995 3.92567 -0.358396 0
M  V30 2268 H 223.283 5.088 0.00486972 0
M  V30 2269 H 222.681 4.6913 3.16122 0
M  V30 2270 H 221.238 5.61069 3.31729 0
M  V30 2271 N 224.671 0.411399 1.52136 0
M  V30 2272 C 225.919 -0.163322 2.01439 0
M  V30 2273 C 226.24 -1.45453 1.29879 0
M  V30 2274 O 225.51 -1.91225 0.4254 0
M  V30 2275 H 224.09 -0.0633447 0.744309 0
M  V30 2276 H 226.752 0.548161 1.87033 0
M  V30 2277 H 225.848 -0.357817 3.10042 0
M  V30 2278 N 226.149 -1.5696 0.141893 0
M  V30 2279 C 227.395 -1.9625 -0.511248 0
M  V30 2280 C 227.728 -1.02654 -1.64851 0
M  V30 2281 O 227.003 -0.0679676 -1.94381 0
M  V30 2282 C 227.286 -3.45285 -1.02227 0
M  V30 2283 C 227.139 -4.49658 0.113138 0
M  V30 2284 C 228.458 -3.96698 -1.90574 0
M  V30 2285 H 225.577 -0.713567 -0.184367 0
M  V30 2286 H 228.219 -1.88698 0.222087 0
M  V30 2287 H 226.369 -3.51852 -1.64719 0
M  V30 2288 H 228.041 -4.55174 0.749302 0
M  V30 2289 H 226.284 -4.26857 0.773026 0
M  V30 2290 H 226.955 -5.51258 -0.286053 0
M  V30 2291 H 229.431 -3.92578 -1.37918 0
M  V30 2292 H 228.307 -5.01453 -2.2324 0
M  V30 2293 H 228.568 -3.3875 -2.84079 0
M  V30 2294 N 227.627 0.131896 -1.57047 0
M  V30 2295 C 228.852 0.860418 -1.8871 0
M  V30 2296 C 229.277 1.73251 -0.73251 0
M  V30 2297 O 228.635 1.785 0.317429 0
M  V30 2298 C 228.683 1.68047 -3.19049 0
M  V30 2299 O 227.787 2.7862 -3.04047 0
M  V30 2300 H 227.128 0.238743 -0.619595 0
M  V30 2301 H 229.658 0.118169 -2.04258 0
M  V30 2302 H 229.668 2.07238 -3.51449 0
M  V30 2303 H 228.343 1.04018 -4.02682 0
M  V30 2304 H 226.92 2.42726 -2.83088 0
M  V30 2305 N 229.106 1.52395 0.401703 0
M  V30 2306 C 230.331 1.70972 1.17403 0
M  V30 2307 C 230.756 0.421615 1.83314 0
M  V30 2308 O 230.114 -0.621564 1.70312 0
M  V30 2309 C 230.162 2.85151 2.20728 0
M  V30 2310 O 229.266 2.51238 3.27037 0
M  V30 2311 H 228.607 0.568927 0.342372 0
M  V30 2312 H 231.137 1.99131 0.469891 0
M  V30 2313 H 231.147 3.10279 2.64936 0
M  V30 2314 H 229.822 3.78603 1.7214 0
M  V30 2315 H 228.399 2.36808 2.88057 0
M  V30 2316 N 230.584 -0.659388 1.43143 0
M  V30 2317 C 231.514 -1.78422 1.50625 0
M  V30 2318 C 232.495 -1.66216 0.361443 0
M  V30 2319 O 233.68 -1.85404 0.577834 0
M  V30 2320 C 230.81 -3.16815 1.42287 0
M  V30 2321 C 229.764 -3.43777 2.54954 0
M  V30 2322 C 229.09 -4.81905 2.31671 0
M  V30 2323 C 230.39 -3.39134 3.97222 0
M  V30 2324 H 232.084 -1.72417 2.44771 0
M  V30 2325 H 229.63 -0.828084 1.17808 0
M  V30 2326 H 231.583 -3.95253 1.46127 0
M  V30 2327 H 230.307 -3.23534 0.446435 0
M  V30 2328 H 228.966 -2.67707 2.50457 0
M  V30 2329 H 228.614 -4.85294 1.32284 0
M  V30 2330 H 228.314 -5.00906 3.07192 0
M  V30 2331 H 229.838 -5.62609 2.37284 0
M  V30 2332 H 231.252 -4.07518 4.03239 0
M  V30 2333 H 229.649 -3.69671 4.72719 0
M  V30 2334 H 230.719 -2.37426 4.22797 0
M  V30 2335 N 232.062 -1.29571 -0.897171 0
M  V30 2336 C 233.025 -1.14913 -1.98312 0
M  V30 2337 C 234.025 -0.0838629 -1.60581 0
M  V30 2338 O 235.215 -0.331006 -1.71026 0
M  V30 2339 C 232.347 -0.757835 -3.3237 0
M  V30 2340 H 233.54 -2.11377 -2.12743 0
M  V30 2341 H 231.093 -1.12793 -1.08201 0
M  V30 2342 H 231.828 0.206837 -3.2364 0
M  V30 2343 H 231.613 -1.52755 -3.61121 0
M  V30 2344 H 233.103 -0.678408 -4.12053 0
M  V30 2345 N 233.54 1.10788 -1.12088 0
M  V30 2346 C 234.787 1.82671 -0.873931 0
M  V30 2347 C 235.115 1.85004 0.600311 0
M  V30 2348 O 234.37 1.30365 1.45957 0
M  V30 2349 C 234.669 3.29294 -1.38926 0
M  V30 2350 C 234.335 3.47113 -2.87791 0
M  V30 2351 C 232.997 3.51684 -3.28439 0
M  V30 2352 C 235.349 3.52808 -3.83635 0
M  V30 2353 C 232.677 3.59513 -4.63646 0
M  V30 2354 C 235.029 3.62169 -5.18668 0
M  V30 2355 C 233.693 3.65003 -5.58864 0
M  V30 2356 H 232.963 0.668441 -0.319794 0
M  V30 2357 H 235.61 1.30613 -1.40045 0
M  V30 2358 H 233.915 3.83894 -0.783122 0
M  V30 2359 H 235.612 3.83416 -1.17443 0
M  V30 2360 H 232.202 3.4423 -2.5535 0
M  V30 2361 H 236.386 3.4853 -3.53328 0
M  V30 2362 H 231.642 3.59987 -4.94185 0
M  V30 2363 H 235.816 3.6552 -5.92763 0
M  V30 2364 H 233.443 3.70822 -6.63623 0
M  V30 2365 N 235.018 0.912232 1.28515 0
M  V30 2366 C 235.981 0.404223 2.25607 0
M  V30 2367 C 236.981 -0.468602 1.53821 0
M  V30 2368 O 238.171 -0.271873 1.72065 0
M  V30 2369 C 235.303 -0.420653 3.38295 0
M  V30 2370 H 236.496 1.26188 2.7206 0
M  V30 2371 H 234.049 0.691495 1.40171 0
M  V30 2372 H 234.784 -1.29777 2.97201 0
M  V30 2373 H 234.569 0.204935 3.91564 0
M  V30 2374 H 236.059 -0.766971 4.10496 0
M  V30 2375 N 236.496 -1.42363 0.676048 0
M  V30 2376 C 237.426 -2.33497 0.0124832 0
M  V30 2377 C 238.407 -1.50748 -0.787981 0
M  V30 2378 O 239.592 -1.79346 -0.744884 0
M  V30 2379 C 236.722 -3.34377 -0.938582 0
M  V30 2380 C 235.676 -4.27289 -0.246622 0
M  V30 2381 C 235.002 -5.18386 -1.31071 0
M  V30 2382 C 236.302 -5.14916 0.875125 0
M  V30 2383 H 237.996 -2.89233 0.773593 0
M  V30 2384 H 235.542 -1.39073 0.37346 0
M  V30 2385 H 237.495 -3.97044 -1.41188 0
M  V30 2386 H 236.219 -2.76947 -1.73113 0
M  V30 2387 H 234.878 -3.66018 0.206456 0
M  V30 2388 H 234.526 -4.57282 -2.09528 0
M  V30 2389 H 234.226 -5.81378 -0.852839 0
M  V30 2390 H 235.75 -5.83929 -1.78492 0
M  V30 2391 H 237.164 -5.71262 0.482983 0
M  V30 2392 H 235.561 -5.86747 1.25887 0
M  V30 2393 H 236.631 -4.53242 1.72335 0
M  V30 2394 N 237.974 -0.419461 -1.51915 0
M  V30 2395 C 238.937 0.389116 -2.25873 0
M  V30 2396 C 239.937 0.964924 -1.28631 0
M  V30 2397 O 241.127 0.842179 -1.52489 0
M  V30 2398 C 238.259 1.54874 -3.03689 0
M  V30 2399 H 239.452 -0.258799 -2.98781 0
M  V30 2400 H 237.005 -0.172209 -1.55348 0
M  V30 2401 H 237.74 2.23323 -2.35154 0
M  V30 2402 H 237.525 1.14223 -3.75094 0
M  V30 2403 H 239.015 2.12046 -3.59759 0
M  V30 2404 N 239.452 1.56882 -0.150215 0
M  V30 2405 C 240.699 1.96228 0.500093 0
M  V30 2406 C 241.027 1.03522 1.64661 0
M  V30 2407 O 240.282 0.0650683 1.95592 0
M  V30 2408 C 240.581 3.41801 1.04437 0
M  V30 2409 C 240.247 4.50897 0.0159671 0
M  V30 2410 C 238.909 4.8046 -0.266731 0
M  V30 2411 C 241.261 5.16703 -0.683192 0
M  V30 2412 C 238.589 5.73135 -1.25434 0
M  V30 2413 C 240.941 6.10441 -1.65964 0
M  V30 2414 C 239.605 6.38382 -1.95 0
M  V30 2415 H 238.875 0.718048 0.182997 0
M  V30 2416 H 241.522 1.90019 -0.237724 0
M  V30 2417 H 239.827 3.44857 1.85959 0
M  V30 2418 H 241.524 3.69573 1.55618 0
M  V30 2419 H 238.114 4.27891 0.246485 0
M  V30 2420 H 242.298 4.93993 -0.477983 0
M  V30 2421 H 237.554 5.93074 -1.48571 0
M  V30 2422 H 241.728 6.60507 -2.20689 0
M  V30 2423 H 239.355 7.09996 -2.71679 0
M  V30 2424 N 240.93 -0.123565 1.57115 0
M  V30 2425 C 241.86 -1.15309 2.03042 0
M  V30 2426 C 242.841 -1.43454 0.914061 0
M  V30 2427 O 244.026 -1.53973 1.18347 0
M  V30 2428 C 241.156 -2.48043 2.43089 0
M  V30 2429 C 240.11 -2.3437 3.58127 0
M  V30 2430 C 239.436 -3.72026 3.84059 0
M  V30 2431 C 240.736 -1.80804 4.90007 0
M  V30 2432 H 242.43 -0.771102 2.893 0
M  V30 2433 H 239.976 -0.369479 1.39179 0
M  V30 2434 H 241.929 -3.20311 2.73823 0
M  V30 2435 H 240.653 -2.88122 1.53796 0
M  V30 2436 H 239.312 -1.64551 3.27595 0
M  V30 2437 H 238.96 -4.09582 2.91979 0
M  V30 2438 H 238.66 -3.63732 4.6149 0
M  V30 2439 H 240.184 -4.45806 4.1724 0
M  V30 2440 H 241.598 -2.42886 5.19307 0
M  V30 2441 H 239.995 -1.83343 5.71407 0
M  V30 2442 H 241.065 -0.76528 4.78823 0
M  V30 2443 N 242.408 -1.52605 -0.393616 0
M  V30 2444 C 243.34 -1.73303 -1.49995 0
M  V30 2445 C 244.353 -0.613473 -1.50799 0
M  V30 2446 O 245.542 -0.889049 -1.54784 0
M  V30 2447 C 242.642 -1.77245 -2.88855 0
M  V30 2448 C 241.815 -3.06483 -3.12069 0
M  V30 2449 C 240.874 -3.02033 -4.30886 0
M  V30 2450 O 239.9 -3.75907 -4.27414 0
M  V30 2451 N 241.102 -2.20897 -5.36828 0
M  V30 2452 H 243.867 -2.68756 -1.32629 0
M  V30 2453 H 241.428 -1.51036 -0.583083 0
M  V30 2454 H 243.42 -1.7178 -3.66434 0
M  V30 2455 H 241.99 -0.891993 -2.99603 0
M  V30 2456 H 241.21 -3.25474 -2.22396 0
M  V30 2457 H 242.498 -3.91947 -3.2443 0
M  V30 2458 H 241.896 -1.60336 -5.42502 0
M  V30 2459 H 240.453 -2.21275 -6.13091 0
M  V30 2460 N 243.887 0.651787 -1.4349 0
M  V30 2461 C 245.303 0.96762 -1.26922 0
M  V30 2462 C 245.503 2.00602 -0.189982 0
M  V30 2463 O 244.559 2.48793 0.431107 0
M  V30 2464 C 245.872 1.45052 -2.63401 0
M  V30 2465 C 247.42 1.5671 -2.70945 0
M  V30 2466 C 247.895 2.0839 -4.07845 0
M  V30 2467 N 249.386 2.1569 -4.09917 0
M  V30 2468 C 250.121 2.56804 -5.12679 0
M  V30 2469 N 249.617 2.97203 -6.25813 0
M  V30 2470 N 251.41 2.56756 -5.00033 0
M  V30 2471 H 243.561 -0.0353158 -2.12371 0
M  V30 2472 H 245.824 0.0467858 -0.946845 0
M  V30 2473 H 245.53 0.761926 -3.43348 0
M  V30 2474 H 245.404 2.42529 -2.88894 0
M  V30 2475 H 247.791 2.2467 -1.9133 0
M  V30 2476 H 247.872 0.57662 -2.49216 0
M  V30 2477 H 247.516 1.41031 -4.87927 0
M  V30 2478 H 247.446 3.08271 -4.26938 0
M  V30 2479 H 249.937 1.87237 -3.28254 0
M  V30 2480 H 250.25 3.27328 -7.00055 0
M  V30 2481 H 248.595 2.95004 -6.29283 0
M  V30 2482 H 251.786 2.24572 -4.10713 0
M  V30 2483 H 251.959 2.88475 -5.80247 0
M  V30 2484 N 245.365 1.30045 0.890287 0
M  V30 2485 C 246.298 1.10301 1.99772 0
M  V30 2486 C 247.276 0.0121631 1.62595 0
M  V30 2487 O 248.46 0.16469 1.87779 0
M  V30 2488 C 245.587 0.681125 3.31781 0
M  V30 2489 C 244.633 1.77206 3.87944 0
M  V30 2490 S 245.466 3.37335 4.15891 0
M  V30 2491 C 246.622 2.97036 5.50927 0
M  V30 2492 H 246.855 2.04057 2.16213 0
M  V30 2493 H 244.388 1.14299 1.03804 0
M  V30 2494 H 246.346 0.444439 4.08087 0
M  V30 2495 H 245.007 -0.236981 3.13205 0
M  V30 2496 H 244.2 1.42903 4.83316 0
M  V30 2497 H 243.802 1.96275 3.18358 0
M  V30 2498 H 246.094 2.44666 6.31779 0
M  V30 2499 H 247.037 3.91296 5.90164 0
M  V30 2500 H 247.445 2.35057 5.13233 0
M  V30 2501 N 246.843 -1.10192 1.12674 0
M  V30 2502 C 248.12 -1.78717 0.794965 0
M  V30 2503 C 248.5 -1.98628 -0.714853 0
M  V30 2504 O 247.848 -1.58135 -1.64941 0
M  V30 2505 C 248.058 -3.11546 1.5729 0
M  V30 2506 C 249.406 -3.86382 1.76052 0
M  V30 2507 O 250.43 -3.21274 1.53823 0
M  V30 2508 O 249.289 -5.03246 2.13087 0
M  V30 2509 H 246.383 -0.774702 0.289423 0
M  V30 2510 H 248.929 -1.16819 1.23091 0
M  V30 2511 H 247.701 -2.92489 2.59935 0
M  V30 2512 H 247.324 -3.81164 1.13137 0
M  V30 2513 N 248.321 -0.919034 -1.28029 0
M  V30 2514 C 249.254 -0.355887 -2.25408 0
M  V30 2515 C 250.232 0.542874 -1.5327 0
M  V30 2516 O 251.416 0.485338 -1.82145 0
M  V30 2517 C 248.543 0.490759 -3.35126 0
M  V30 2518 C 247.589 -0.343358 -4.25116 0
M  V30 2519 S 248.422 -1.75344 -5.05979 0
M  V30 2520 C 249.578 -0.914244 -6.19187 0
M  V30 2521 H 249.811 -1.18123 -2.72826 0
M  V30 2522 H 247.344 -0.720636 -1.36551 0
M  V30 2523 H 249.302 0.973404 -3.98792 0
M  V30 2524 H 247.963 1.29054 -2.86363 0
M  V30 2525 H 247.156 0.304266 -5.03081 0
M  V30 2526 H 246.758 -0.759851 -3.662 0
M  V30 2527 H 249.05 -0.146282 -6.77342 0
M  V30 2528 H 249.993 -1.66661 -6.88208 0
M  V30 2529 H 250.401 -0.460082 -5.62622 0
M  V30 2530 N 249.799 1.42003 -0.683588 0
M  V30 2531 C 250.746 2.30798 -0.0107309 0
M  V30 2532 C 251.716 1.4645 0.783688 0
M  V30 2533 O 252.901 1.75263 0.754156 0
M  V30 2534 C 250.041 3.3238 0.928306 0
M  V30 2535 C 249.154 4.31814 0.126776 0
M  V30 2536 C 248.289 5.20468 1.06236 0
M  V30 2537 C 247.328 6.11577 0.253035 0
M  V30 2538 N 246.465 6.92754 1.14179 0
M  V30 2539 H 251.305 2.8778 -0.773727 0
M  V30 2540 H 248.842 1.41745 -0.393283 0
M  V30 2541 H 250.8 3.89813 1.48666 0
M  V30 2542 H 249.43 2.76976 1.65783 0
M  V30 2543 H 248.482 3.76427 -0.54833 0
M  V30 2544 H 249.794 4.96276 -0.501192 0
M  V30 2545 H 248.948 5.82677 1.69035 0
M  V30 2546 H 247.687 4.56204 1.7242 0
M  V30 2547 H 246.692 5.48428 -0.388108 0
M  V30 2548 H 247.917 6.77892 -0.404839 0
M  V30 2549 H 245.863 6.3111 1.78987 0
M  V30 2550 H 245.78 7.53855 0.569111 0
M  V30 2551 H 247.048 7.59441 1.75697 0
M  V30 2552 N 251.277 0.427512 1.51691 0
M  V30 2553 C 252.688 -0.0378867 1.86662 0
M  V30 2554 C 253.039 -1.42819 1.34525 0
M  V30 2555 O 252.164 -2.05037 0.692014 0
M  V30 2556 C 252.759 -0.0755266 3.38716 0
M  V30 2557 C 251.318 -0.485309 3.73258 0
M  V30 2558 C 250.465 0.328399 2.75349 0
M  V30 2559 H 253.416 0.64379 1.45055 0
M  V30 2560 H 253.437 -0.887056 3.70016 0
M  V30 2561 H 252.949 0.936487 3.76632 0
M  V30 2562 H 251.05 -1.50329 3.40928 0
M  V30 2563 H 251.163 -0.21693 4.78609 0
M  V30 2564 H 249.527 -0.211905 2.53817 0
M  V30 2565 H 250.31 1.3391 3.16106 0
M  V30 2566 N 252.755 -1.56801 0.158532 0
M  V30 2567 C 253.685 -2.20347 -0.772609 0
M  V30 2568 C 254.666 -1.15518 -1.24859 0
M  V30 2569 O 255.851 -1.43902 -1.30406 0
M  V30 2570 C 252.981 -2.83417 -2.00729 0
M  V30 2571 C 251.935 -3.94174 -1.66765 0
M  V30 2572 C 251.261 -4.44233 -2.97592 0
M  V30 2573 C 252.561 -5.14392 -0.905447 0
M  V30 2574 H 254.255 -2.98413 -0.242959 0
M  V30 2575 H 251.801 -1.43537 -0.115419 0
M  V30 2576 H 253.754 -3.26543 -2.6636 0
M  V30 2577 H 252.478 -2.02701 -2.56086 0
M  V30 2578 H 251.137 -3.51684 -1.03508 0
M  V30 2579 H 250.785 -3.60325 -3.50963 0
M  V30 2580 H 250.485 -5.18945 -2.75626 0
M  V30 2581 H 252.009 -4.90037 -3.64274 0
M  V30 2582 H 253.423 -5.5429 -1.46408 0
M  V30 2583 H 251.82 -5.9494 -0.7853 0
M  V30 2584 H 252.89 -4.84795 0.100668 0
M  V30 2585 N 254.233 0.115231 -1.57178 0
M  V30 2586 C 255.479 0.82357 -1.85325 0
M  V30 2587 C 255.812 1.79349 -0.744814 0
M  V30 2588 O 255.087 1.92899 0.249024 0
M  V30 2589 C 255.37 1.57014 -3.24066 0
M  V30 2590 C 255.223 0.619565 -4.45513 0
M  V30 2591 C 256.542 2.52545 -3.60429 0
M  V30 2592 H 253.661 0.297948 -0.674089 0
M  V30 2593 H 256.303 0.0877138 -1.89797 0
M  V30 2594 H 254.453 2.19742 -3.20383 0
M  V30 2595 H 256.125 0.000837639 -4.613 0
M  V30 2596 H 254.368 -0.0686174 -4.33746 0
M  V30 2597 H 255.039 1.17866 -5.3927 0
M  V30 2598 H 257.515 1.9992 -3.64926 0
M  V30 2599 H 256.391 3.01811 -4.58477 0
M  V30 2600 H 256.652 3.35383 -2.88047 0
M  V30 2601 N 255.711 1.52812 0.385517 0
M  V30 2602 C 256.957 1.68275 1.13188 0
M  V30 2603 C 257.29 0.423179 1.89533 0
M  V30 2604 O 256.565 -0.579113 1.85679 0
M  V30 2605 C 256.848 2.92001 2.1073 0
M  V30 2606 C 256.701 4.28067 1.38125 0
M  V30 2607 C 258.02 3.11283 3.11113 0
M  V30 2608 H 255.139 0.612352 0.410115 0
M  V30 2609 H 257.781 1.85415 0.414869 0
M  V30 2610 H 255.931 2.77519 2.71874 0
M  V30 2611 H 257.603 4.54324 0.799187 0
M  V30 2612 H 255.846 4.28388 0.683092 0
M  V30 2613 H 256.517 5.10733 2.09417 0
M  V30 2614 H 258.993 3.2482 2.6006 0
M  V30 2615 H 257.869 3.99325 3.76605 0
M  V30 2616 H 258.13 2.25656 3.80173 0
M  V30 2617 N 257.189 -0.644168 1.43834 0
M  V30 2618 C 258.119 -1.76814 1.52509 0
M  V30 2619 C 259.1 -1.65823 0.379052 0
M  V30 2620 O 260.285 -1.84781 0.597466 0
M  V30 2621 C 257.415 -3.15288 1.4564 0
M  V30 2622 C 256.369 -3.41053 2.58586 0
M  V30 2623 C 255.695 -4.79421 2.36769 0
M  V30 2624 C 256.995 -3.34902 4.00797 0
M  V30 2625 H 258.689 -1.69812 2.46586 0
M  V30 2626 H 256.235 -0.815542 1.1868 0
M  V30 2627 H 258.188 -3.93681 1.50311 0
M  V30 2628 H 256.912 -3.23043 0.480725 0
M  V30 2629 H 255.571 -2.65035 2.53282 0
M  V30 2630 H 255.219 -4.83863 1.37424 0
M  V30 2631 H 254.919 -4.9762 3.12487 0
M  V30 2632 H 256.443 -5.6006 2.43238 0
M  V30 2633 H 257.857 -4.03218 4.07539 0
M  V30 2634 H 256.254 -3.64637 4.76613 0
M  V30 2635 H 257.324 -2.32928 4.25291 0
M  V30 2636 N 258.668 -1.30515 -0.883378 0
M  V30 2637 C 259.916 -1.19194 -1.63209 0
M  V30 2638 C 260.237 0.253205 -1.93349 0
M  V30 2639 O 259.507 1.17025 -1.57105 0
M  V30 2640 H 258.087 -0.438148 -0.605009 0
M  V30 2641 H 260.749 -1.63663 -1.05832 0
M  V30 2642 H 259.845 -1.75396 -2.58153 0
M  V30 2643 N 260.146 1.09593 -1.13257 0
M  V30 2644 C 261.076 2.18214 -0.830946 0
M  V30 2645 C 262.057 1.68812 0.208966 0
M  V30 2646 O 263.242 1.9408 0.0682666 0
M  V30 2647 C 260.372 3.46051 -0.294296 0
M  V30 2648 C 259.326 4.08778 -1.26826 0
M  V30 2649 C 258.652 5.31419 -0.591449 0
M  V30 2650 C 259.952 4.51476 -2.62615 0
M  V30 2651 H 261.646 2.43703 -1.73923 0
M  V30 2652 H 259.192 1.17128 -0.837675 0
M  V30 2653 H 261.145 4.2134 -0.0709606 0
M  V30 2654 H 259.869 3.20079 0.649366 0
M  V30 2655 H 258.528 3.35505 -1.47756 0
M  V30 2656 H 258.176 5.01727 0.357633 0
M  V30 2657 H 257.876 5.74341 -1.24123 0
M  V30 2658 H 259.4 6.09433 -0.377355 0
M  V30 2659 H 260.814 5.17999 -2.45663 0
M  V30 2660 H 259.211 5.05277 -3.23752 0
M  V30 2661 H 260.281 3.63962 -3.20406 0
M  V30 2662 N 261.624 0.925811 1.2754 0
M  V30 2663 C 263.035 0.610102 1.7645 0
M  V30 2664 C 263.386 -0.874723 1.75622 0
M  V30 2665 O 262.511 -1.68444 1.35851 0
M  V30 2666 C 263.106 1.10073 3.20421 0
M  V30 2667 C 261.665 0.835723 3.67005 0
M  V30 2668 C 260.812 1.26054 2.46993 0
M  V30 2669 H 263.763 1.10579 1.13833 0
M  V30 2670 H 263.784 0.447557 3.77859 0
M  V30 2671 H 263.296 2.18143 3.20991 0
M  V30 2672 H 261.397 -0.231249 3.71882 0
M  V30 2673 H 261.51 1.45193 4.56569 0
M  V30 2674 H 259.874 0.679111 2.45479 0
M  V30 2675 H 260.657 2.34984 2.50275 0
M  V30 2676 N 263.102 -1.41638 0.69111 0
M  V30 2677 C 264.065 -2.29178 0.0319786 0
M  V30 2678 C 265.065 -1.44153 -0.712496 0
M  V30 2679 O 266.255 -1.65354 -0.548053 0
M  V30 2680 C 263.387 -3.26952 -0.965161 0
M  V30 2681 H 264.58 -2.88959 0.802681 0
M  V30 2682 H 262.133 -1.4955 0.454356 0
M  V30 2683 H 262.868 -2.72142 -1.76378 0
M  V30 2684 H 262.653 -3.89685 -0.434522 0
M  V30 2685 H 264.143 -3.92561 -1.42428 0
M  V30 2686 N 264.58 -0.43555 -1.51462 0
M  V30 2687 C 265.991 0.0279871 -1.86679 0
M  V30 2688 C 266.342 1.42104 -1.35281 0
M  V30 2689 O 265.467 2.04667 -0.702878 0
M  V30 2690 C 266.062 0.0575626 -3.38751 0
M  V30 2691 C 264.621 0.465507 -3.7351 0
M  V30 2692 C 263.768 -0.342996 -2.75171 0
M  V30 2693 H 266.719 -0.651473 -1.44712 0
M  V30 2694 H 266.74 0.867421 -3.70481 0
M  V30 2695 H 266.252 -0.956448 -3.7613 0
M  V30 2696 H 264.353 1.48519 -3.41721 0
M  V30 2697 H 264.466 0.191546 -4.78717 0
M  V30 2698 H 262.83 0.198442 -2.53926 0
M  V30 2699 H 263.613 -1.35585 -3.15391 0
M  V30 2700 N 266.058 1.56714 -0.166846 0
M  V30 2701 C 267.286 2.0112 0.485644 0
M  V30 2702 C 267.701 1.04705 1.57106 0
M  V30 2703 O 267.058 0.0471923 1.82439 0
M  V30 2704 C 267.109 3.45361 1.06808 0
M  V30 2705 O 266.83 4.38092 0.0259995 0
M  V30 2706 C 268.331 4.05145 1.79924 0
M  V30 2707 H 265.551 0.65931 0.124704 0
M  V30 2708 H 268.095 2.02746 -0.267262 0
M  V30 2709 H 266.25 3.44524 1.7715 0
M  V30 2710 H 266.664 5.22519 0.455398 0
M  V30 2711 H 268.138 5.08009 2.15942 0
M  V30 2712 H 268.615 3.46982 2.69258 0
M  V30 2713 H 269.221 4.09672 1.14234 0
M  V30 2714 N 267.536 -0.106894 1.57237 0
M  V30 2715 C 268.499 -1.11466 2.0027 0
M  V30 2716 C 269.499 -1.33623 0.894519 0
M  V30 2717 O 270.689 -1.29935 1.16028 0
M  V30 2718 C 267.821 -2.46646 2.35327 0
M  V30 2719 H 269.014 -0.744516 2.90512 0
M  V30 2720 H 266.567 -0.351576 1.52295 0
M  V30 2721 H 267.302 -2.88558 1.48003 0
M  V30 2722 H 267.087 -2.31915 3.16161 0
M  V30 2723 H 268.577 -3.19151 2.69318 0
M  V30 2724 N 269.014 -1.53014 -0.377408 0
M  V30 2725 C 270.425 -1.60438 -0.954798 0
M  V30 2726 C 270.776 -0.464418 -1.90624 0
M  V30 2727 O 269.901 0.41087 -2.12464 0
M  V30 2728 C 270.496 -2.90797 -1.73847 0
M  V30 2729 C 269.055 -3.00595 -2.26538 0
M  V30 2730 C 268.202 -2.55645 -1.07429 0
M  V30 2731 H 271.153 -1.57926 -0.156575 0
M  V30 2732 H 271.174 -2.77935 -2.5987 0
M  V30 2733 H 270.686 -3.73746 -1.04574 0
M  V30 2734 H 268.787 -2.22208 -2.99089 0
M  V30 2735 H 268.9 -4.05456 -2.5523 0
M  V30 2736 H 267.264 -2.10239 -1.43777 0
M  V30 2737 H 268.047 -3.41 -0.396728 0
M  V30 2738 N 270.492 0.636531 -1.44174 0
M  V30 2739 C 271.717 1.42847 -1.50364 0
M  V30 2740 C 272.142 1.87665 -0.127867 0
M  V30 2741 O 271.5 1.58408 0.88185 0
M  V30 2742 C 271.548 2.62854 -2.4686 0
M  V30 2743 O 270.652 3.62501 -1.9664 0
M  V30 2744 H 269.993 0.427642 -0.507955 0
M  V30 2745 H 272.523 0.777422 -1.89255 0
M  V30 2746 H 272.533 3.10465 -2.64718 0
M  V30 2747 H 271.208 2.29578 -3.46795 0
M  V30 2748 H 269.785 3.21735 -1.88523 0
M  V30 2749 N 271.97 1.30982 0.876444 0
M  V30 2750 C 273.218 1.20058 1.62575 0
M  V30 2751 C 273.539 -0.242947 1.93481 0
M  V30 2752 O 272.809 -1.1619 1.57724 0
M  V30 2753 H 271.389 0.44135 0.602677 0
M  V30 2754 H 274.051 1.64222 1.04962 0
M  V30 2755 H 273.147 1.76762 2.57219 0
M  V30 2756 N 273.449 -1.08991 1.13837 0
M  V30 2757 C 274.689 -1.82867 0.913183 0
M  V30 2758 C 275.053 -1.83936 -0.550604 0
M  V30 2759 O 276.254 -2.53515 -0.893515 0
M  V30 2760 C 274.525 -3.24843 1.49036 0
M  V30 2761 S 276.084 -4.15669 1.40588 0
M  V30 2762 H 272.902 -0.630278 0.329046 0
M  V30 2763 H 275.504 -1.31049 1.45073 0
M  V30 2764 H 274.208 -3.21644 2.54899 0
M  V30 2765 H 273.739 -3.81734 0.950947 0
M  V30 2766 H 275.754 -4.94686 0.387353 0
M  V30 2767 N 274.927 -0.932562 -1.27047 0
M  V30 2768 C 275.857 -0.452902 -2.29066 0
M  V30 2769 C 276.838 0.489338 -1.62909 0
M  V30 2770 O 278.023 0.393046 -1.90181 0
M  V30 2771 C 275.153 0.290698 -3.46081 0
M  V30 2772 C 274.107 -0.564168 -4.24265 0
M  V30 2773 C 273.433 0.308886 -5.33807 0
M  V30 2774 C 274.733 -1.83112 -4.89149 0
M  V30 2775 H 276.427 -1.30552 -2.69437 0
M  V30 2776 H 273.973 -0.629201 -1.29526 0
M  V30 2777 H 275.926 0.637233 -4.16554 0
M  V30 2778 H 274.65 1.17738 -3.0464 0
M  V30 2779 H 273.309 -0.893477 -3.55545 0
M  V30 2780 H 272.957 1.19467 -4.88607 0
M  V30 2781 H 272.657 -0.259633 -5.87026 0
M  V30 2782 H 274.181 0.650884 -6.07121 0
M  V30 2783 H 275.595 -1.55236 -5.51883 0
M  V30 2784 H 273.992 -2.34353 -5.52448 0
M  V30 2785 H 275.062 -2.54772 -4.12576 0
M  V30 2786 N 276.405 1.4127 -0.698611 0
M  V30 2787 C 277.63 2.06024 -0.238512 0
M  V30 2788 C 278.055 1.5224 1.10475 0
M  V30 2789 O 277.413 0.650623 1.69223 0
M  V30 2790 C 277.461 3.59988 -0.209952 0
M  V30 2791 O 276.565 4.04282 0.814235 0
M  V30 2792 H 275.906 0.653829 -0.115775 0
M  V30 2793 H 278.436 1.8098 -0.954326 0
M  V30 2794 H 278.446 4.07979 -0.0418436 0
M  V30 2795 H 277.121 3.98503 -1.1903 0
M  V30 2796 H 275.698 3.6779 0.615234 0
M  V30 2797 N 277.883 0.443576 1.51229 0
M  V30 2798 C 279.13 -0.120796 2.02139 0
M  V30 2799 C 279.458 -1.42166 1.32736 0
M  V30 2800 O 278.713 -1.90849 0.43301 0
M  V30 2801 C 279.012 -0.380579 3.55368 0
M  V30 2802 C 278.678 0.83523 4.43097 0
M  V30 2803 C 277.34 1.16864 4.66794 0
M  V30 2804 C 279.692 1.64601 4.94526 0
M  V30 2805 C 277.02 2.31339 5.39165 0
M  V30 2806 C 279.372 2.78181 5.68153 0
M  V30 2807 C 278.036 3.11969 5.90112 0
M  V30 2808 H 277.306 -0.0442023 0.73968 0
M  V30 2809 H 279.953 0.592046 1.82118 0
M  V30 2810 H 278.258 -1.17538 3.73754 0
M  V30 2811 H 279.955 -0.830777 3.923 0
M  V30 2812 H 276.545 0.565437 4.24854 0
M  V30 2813 H 280.729 1.40163 4.76097 0
M  V30 2814 H 275.985 2.57823 5.5438 0
M  V30 2815 H 280.159 3.41371 6.06992 0
M  V30 2816 H 277.786 4.00784 6.45969 0
M  V30 2817 N 279.361 -1.56624 0.175154 0
M  V30 2818 C 280.607 -1.98061 -0.462976 0
M  V30 2819 C 280.962 -1.05949 -1.60601 0
M  V30 2820 O 280.255 -0.0999027 -1.91339 0
M  V30 2821 C 280.449 -3.43419 -0.989864 0
M  V30 2822 C 280.278 -4.49587 0.100583 0
M  V30 2823 C 279.048 -5.02281 0.551539 0
M  V30 2824 C 281.246 -5.06322 0.902369 0
M  V30 2825 N 279.228 -5.92088 1.62189 0
M  V30 2826 C 280.599 -5.92607 1.82256 0
M  V30 2827 C 282.654 -4.88811 0.947019 0
M  V30 2828 C 281.357 -6.63254 2.78364 0
M  V30 2829 C 283.383 -5.60182 1.89606 0
M  V30 2830 C 282.745 -6.46197 2.80372 0
M  V30 2831 H 278.844 -0.769833 -0.137409 0
M  V30 2832 H 281.428 -1.9273 0.276256 0
M  V30 2833 H 279.599 -3.49288 -1.6986 0
M  V30 2834 H 281.331 -3.7186 -1.59694 0
M  V30 2835 H 278.086 -4.73367 0.148537 0
M  V30 2836 H 278.51 -6.41696 2.15767 0
M  V30 2837 H 283.152 -4.22004 0.259304 0
M  V30 2838 H 280.87 -7.29271 3.48122 0
M  V30 2839 H 284.456 -5.48617 1.93676 0
M  V30 2840 H 283.336 -7.00453 3.52612 0
M  V30 2841 N 280.839 0.0985539 -1.57292 0
M  V30 2842 C 281.749 1.13824 -2.05137 0
M  V30 2843 C 282.765 1.44076 -0.975604 0
M  V30 2844 O 283.941 1.54786 -1.28853 0
M  V30 2845 C 281.006 2.43969 -2.46333 0
M  V30 2846 C 280.067 2.2093 -3.68087 0
M  V30 2847 C 279.3 3.44869 -4.0731 0
M  V30 2848 O 279.523 4.52972 -3.46659 0
M  V30 2849 O 278.457 3.34661 -5.00285 0
M  V30 2850 H 282.283 0.761881 -2.93988 0
M  V30 2851 H 279.868 0.310818 -1.46131 0
M  V30 2852 H 281.75 3.20609 -2.73473 0
M  V30 2853 H 280.425 2.81038 -1.60621 0
M  V30 2854 H 279.332 1.42081 -3.46069 0
M  V30 2855 H 280.665 1.88755 -4.54568 0
M  V30 2856 N 282.317 1.53212 0.369288 0
M  V30 2857 C 283.28 1.7872 1.43498 0
M  V30 2858 C 284.28 0.657554 1.46741 0
M  V30 2859 O 285.47 0.925736 1.47566 0
M  V30 2860 C 282.602 1.90591 2.82645 0
M  V30 2861 H 283.795 2.73894 1.22156 0
M  V30 2862 H 281.348 1.44233 0.602203 0
M  V30 2863 H 282.083 0.974709 3.09306 0
M  V30 2864 H 281.868 2.72751 2.8169 0
M  V30 2865 H 283.358 2.11931 3.59826 0
M  V30 2866 N 283.795 -0.628877 1.44509 0
M  V30 2867 C 284.742 -1.74074 1.51549 0
M  V30 2868 C 285.712 -1.62084 0.363021 0
M  V30 2869 O 286.897 -1.81975 0.573567 0
M  V30 2870 C 284.037 -3.12328 1.46784 0
M  V30 2871 C 283.15 -3.35277 2.72422 0
M  V30 2872 C 282.285 -4.63515 2.59475 0
M  V30 2873 C 281.324 -4.7965 3.80266 0
M  V30 2874 N 280.461 -5.99168 3.65981 0
M  V30 2875 H 285.301 -1.67392 2.46544 0
M  V30 2876 H 282.838 -0.816527 1.22357 0
M  V30 2877 H 284.796 -3.92286 1.42012 0
M  V30 2878 H 283.426 -3.18018 0.553544 0
M  V30 2879 H 282.478 -2.49242 2.87372 0
M  V30 2880 H 283.79 -3.43078 3.62076 0
M  V30 2881 H 282.944 -5.51638 2.52548 0
M  V30 2882 H 281.683 -4.58076 1.67384 0
M  V30 2883 H 280.688 -3.89957 3.87574 0
M  V30 2884 H 281.913 -4.86902 4.73395 0
M  V30 2885 H 279.859 -5.94814 2.76644 0
M  V30 2886 H 279.776 -6.08035 4.49254 0
M  V30 2887 H 281.044 -6.89846 3.6295 0
M  V30 2888 N 285.273 -1.31445 -0.869486 0
M  V30 2889 C 286.236 -1.19094 -1.9583 0
M  V30 2890 C 287.236 -0.117906 -1.60367 0
M  V30 2891 O 288.426 -0.367208 -1.70286 0
M  V30 2892 C 285.558 -0.828165 -3.30688 0
M  V30 2893 H 286.751 -2.15842 -2.08212 0
M  V30 2894 H 284.304 -1.15063 -1.05784 0
M  V30 2895 H 285.039 0.138142 -3.24006 0
M  V30 2896 H 284.824 -1.6038 -3.578 0
M  V30 2897 H 286.314 -0.765658 -4.10521 0
M  V30 2898 N 286.751 1.08385 -1.14413 0
M  V30 2899 C 287.683 2.1519 -0.789036 0
M  V30 2900 C 288.696 1.61638 0.19417 0
M  V30 2901 O 289.885 1.78479 -0.0275711 0
M  V30 2902 C 286.985 3.38565 -0.15058 0
M  V30 2903 C 286.158 4.21501 -1.16857 0
M  V30 2904 C 285.217 5.23277 -0.553832 0
M  V30 2905 O 284.243 5.56041 -1.21686 0
M  V30 2906 N 285.445 5.76629 0.669296 0
M  V30 2907 H 288.21 2.46257 -1.70814 0
M  V30 2908 H 285.771 1.24198 -1.03858 0
M  V30 2909 H 287.763 4.03777 0.273181 0
M  V30 2910 H 286.333 3.05299 0.671667 0
M  V30 2911 H 285.553 3.52265 -1.76926 0
M  V30 2912 H 286.841 4.73731 -1.85624 0
M  V30 2913 H 286.239 5.52243 1.22654 0
M  V30 2914 H 284.796 6.43521 1.03556 0
M  V30 2915 N 288.23 0.939286 1.26551 0
M  V30 2916 C 289.16 0.465044 2.28822 0
M  V30 2917 C 290.141 -0.480692 1.63167 0
M  V30 2918 O 291.326 -0.382955 1.90387 0
M  V30 2919 C 288.456 -0.27234 3.46231 0
M  V30 2920 C 287.41 0.58666 4.2396 0
M  V30 2921 C 286.736 -0.280573 5.33963 0
M  V30 2922 C 288.036 1.85704 4.88171 0
M  V30 2923 H 289.73 1.31979 2.68741 0
M  V30 2924 H 287.276 0.636061 1.29191 0
M  V30 2925 H 289.229 -0.615133 4.16886 0
M  V30 2926 H 287.953 -1.16121 3.0526 0
M  V30 2927 H 286.612 0.91232 3.55067 0
M  V30 2928 H 286.26 -1.16874 4.89234 0
M  V30 2929 H 285.96 0.29076 5.8688 0
M  V30 2930 H 287.484 -0.618678 6.07458 0
M  V30 2931 H 288.898 1.58161 5.51052 0
M  V30 2932 H 287.295 2.37279 5.51197 0
M  V30 2933 H 288.365 2.56957 4.11219 0
M  V30 2934 N 289.708 -1.40897 0.706093 0
M  V30 2935 C 290.671 -2.29131 0.0562841 0
M  V30 2936 C 291.671 -1.44901 -0.697166 0
M  V30 2937 O 292.861 -1.65926 -0.530484 0
M  V30 2938 C 289.993 -3.27957 -0.93043 0
M  V30 2939 H 291.186 -2.88091 0.833284 0
M  V30 2940 H 288.739 -1.4906 0.470192 0
M  V30 2941 H 289.474 -2.73997 -1.73482 0
M  V30 2942 H 289.259 -3.90124 -0.393166 0
M  V30 2943 H 290.749 -3.94049 -1.38256 0
M  V30 2944 N 291.186 -0.45159 -1.50991 0
M  V30 2945 C 292.133 0.352625 -2.2809 0
M  V30 2946 C 293.103 1.0044 -1.32291 0
M  V30 2947 O 294.288 1.02058 -1.6121 0
M  V30 2948 C 291.428 1.43983 -3.13629 0
M  V30 2949 C 290.541 0.804772 -4.24438 0
M  V30 2950 C 289.676 1.86822 -4.97263 0
M  V30 2951 C 288.715 1.21236 -5.99973 0
M  V30 2952 N 287.852 2.2178 -6.66152 0
M  V30 2953 H 292.692 -0.311186 -2.96371 0
M  V30 2954 H 290.229 -0.165308 -1.46168 0
M  V30 2955 H 292.187 2.08161 -3.61559 0
M  V30 2956 H 290.817 2.07307 -2.47434 0
M  V30 2957 H 289.869 0.0509129 -3.80366 0
M  V30 2958 H 291.181 0.286076 -4.97979 0
M  V30 2959 H 290.335 2.58628 -5.48813 0
M  V30 2960 H 289.074 2.42068 -4.23385 0
M  V30 2961 H 288.079 0.479828 -5.47702 0
M  V30 2962 H 289.304 0.667051 -6.75816 0
M  V30 2963 H 287.25 2.76079 -5.95077 0
M  V30 2964 H 287.167 1.74841 -7.35504 0
M  V30 2965 H 288.435 2.93026 -7.22327 0
M  V30 2966 N 292.664 1.56529 -0.183458 0
M  V30 2967 C 293.889 2.02064 0.467428 0
M  V30 2968 C 294.314 1.06282 1.55196 0
M  V30 2969 O 293.672 0.0443565 1.81246 0
M  V30 2970 C 293.72 3.46122 1.01153 0
M  V30 2971 O 292.824 3.53437 2.12499 0
M  V30 2972 H 292.165 0.654726 0.110588 0
M  V30 2973 H 294.695 2.02521 -0.290917 0
M  V30 2974 H 294.705 3.85676 1.33108 0
M  V30 2975 H 293.38 4.15331 0.217533 0
M  V30 2976 H 291.957 3.2575 1.81497 0
M  V30 2977 N 294.142 -0.090211 1.57342 0
M  V30 2978 C 295.382 -0.798365 1.88163 0
M  V30 2979 C 295.746 -1.75662 0.775046 0
M  V30 2980 O 296.947 -2.50849 0.965816 0
M  V30 2981 C 295.218 -1.50376 3.24225 0
M  V30 2982 S 296.777 -2.24952 3.76752 0
M  V30 2983 H 293.595 -0.265883 0.659414 0
M  V30 2984 H 296.197 -0.055264 1.95422 0
M  V30 2985 H 294.901 -0.792286 4.0268 0
M  V30 2986 H 294.432 -2.28666 3.20118 0
M  V30 2987 H 296.447 -3.51173 3.5056 0
M  V30 2988 N 295.62 -1.53406 -0.361157 0
M  V30 2989 C 296.567 -1.80156 -1.44265 0
M  V30 2990 C 297.537 -0.646183 -1.53015 0
M  V30 2991 O 298.722 -0.888818 -1.68833 0
M  V30 2992 C 295.862 -2.00116 -2.81154 0
M  V30 2993 C 294.975 -3.27833 -2.81335 0
M  V30 2994 C 294.11 -3.37957 -4.09828 0
M  V30 2995 C 293.149 -4.59689 -4.04168 0
M  V30 2996 N 292.286 -4.66942 -5.24318 0
M  V30 2997 H 297.126 -2.72438 -1.20754 0
M  V30 2998 H 294.663 -1.34954 -0.585296 0
M  V30 2999 H 296.621 -2.09677 -3.60682 0
M  V30 3000 H 295.251 -1.11167 -3.03054 0
M  V30 3001 H 294.303 -3.27204 -1.94014 0
M  V30 3002 H 295.615 -4.17442 -2.73027 0
M  V30 3003 H 294.769 -3.46853 -4.97773 0
M  V30 3004 H 293.508 -2.46372 -4.20894 0
M  V30 3005 H 292.513 -4.50889 -3.14609 0
M  V30 3006 H 293.738 -5.5262 -3.947 0
M  V30 3007 H 291.684 -3.7826 -5.35962 0
M  V30 3008 H 291.601 -5.50462 -5.18197 0
M  V30 3009 H 292.869 -4.80127 -6.14084 0
M  V30 3010 N 297.098 0.621204 -1.44841 0
M  V30 3011 C 298.344 1.3826 -1.48365 0
M  V30 3012 C 298.677 1.93831 -0.119624 0
M  V30 3013 O 297.952 1.74251 0.864111 0
M  V30 3014 C 298.235 2.54058 -2.55199 0
M  V30 3015 C 298.088 2.03772 -4.00995 0
M  V30 3016 C 299.407 3.56225 -2.58442 0
M  V30 3017 H 296.526 0.501374 -0.540179 0
M  V30 3018 H 299.168 0.7015 -1.76576 0
M  V30 3019 H 297.318 3.12162 -2.31274 0
M  V30 3020 H 298.99 1.50423 -4.36086 0
M  V30 3021 H 297.233 1.34876 -4.12299 0
M  V30 3022 H 297.904 2.87185 -4.71411 0
M  V30 3023 H 300.38 3.07939 -2.79844 0
M  V30 3024 H 299.256 4.34756 -3.3508 0
M  V30 3025 H 299.517 4.10949 -1.63013 0
M  V30 3026 N 298.576 1.31904 0.862503 0
M  V30 3027 C 299.506 1.22782 1.98612 0
M  V30 3028 C 300.487 0.113362 1.69722 0
M  V30 3029 O 301.672 0.299218 1.91881 0
M  V30 3030 C 298.802 0.942058 3.34279 0
M  V30 3031 C 297.756 2.0169 3.77499 0
M  V30 3032 C 297.082 1.58369 5.10709 0
M  V30 3033 C 298.382 3.43096 3.93805 0
M  V30 3034 H 300.076 2.16788 2.06502 0
M  V30 3035 H 297.622 1.04366 0.992154 0
M  V30 3036 H 299.575 0.864818 4.1243 0
M  V30 3037 H 298.299 -0.0336603 3.26583 0
M  V30 3038 H 296.958 2.08416 3.01593 0
M  V30 3039 H 296.606 0.595628 4.99461 0
M  V30 3040 H 296.306 2.30279 5.40597 0
M  V30 3041 H 297.83 1.52067 5.91361 0
M  V30 3042 H 299.244 3.39003 4.62331 0
M  V30 3043 H 297.641 4.13288 4.35101 0
M  V30 3044 H 298.711 3.83334 2.96957 0
M  V30 3045 N 300.054 -1.07777 1.14986 0
M  V30 3046 C 301.3 -1.80557 0.923422 0
M  V30 3047 C 301.633 -1.86298 -0.548337 0
M  V30 3048 O 300.908 -1.34354 -1.40639 0
M  V30 3049 C 301.191 -3.25839 1.53299 0
M  V30 3050 C 301.044 -3.28269 3.07505 0
M  V30 3051 C 302.363 -4.22991 1.21518 0
M  V30 3052 H 299.482 -0.655493 0.336894 0
M  V30 3053 H 302.124 -1.26144 1.42083 0
M  V30 3054 H 300.274 -3.72306 1.10999 0
M  V30 3055 H 301.946 -2.90079 3.58681 0
M  V30 3056 H 300.189 -2.67355 3.4162 0
M  V30 3057 H 300.86 -4.30691 3.45266 0
M  V30 3058 H 303.336 -3.84894 1.581 0
M  V30 3059 H 302.212 -5.22945 1.66793 0
M  V30 3060 H 302.473 -4.41904 0.131505 0
M  V30 3061 N 301.532 -0.945985 -1.26051 0
M  V30 3062 C 302.809 -0.513816 -1.88731 0
M  V30 3063 C 303.189 1.00872 -1.8544 0
M  V30 3064 O 302.537 1.8708 -1.312 0
M  V30 3065 C 302.747 -1.08062 -3.31849 0
M  V30 3066 C 304.095 -1.1522 -4.08668 0
M  V30 3067 O 305.119 -1.03155 -3.40936 0
M  V30 3068 O 303.978 -1.34044 -5.29806 0
M  V30 3069 H 301.072 -0.168193 -0.809716 0
M  V30 3070 H 303.618 -1.03886 -1.34186 0
M  V30 3071 H 302.39 -2.1241 -3.2863 0
M  V30 3072 H 302.013 -0.538307 -3.93939 0
M  V30 3073 N 303.011 1.40521 -0.713556 0
M  V30 3074 C 303.974 2.29098 -0.0684347 0
M  V30 3075 C 304.974 1.45268 0.689472 0
M  V30 3076 O 306.164 1.66205 0.521677 0
M  V30 3077 C 303.296 3.28446 0.913024 0
M  V30 3078 H 304.489 2.87645 -0.84855 0
M  V30 3079 H 302.042 1.48809 -0.47809 0
M  V30 3080 H 302.777 2.74913 1.72027 0
M  V30 3081 H 302.562 3.90327 0.372472 0
M  V30 3082 H 304.052 3.94777 1.36165 0
M  V30 3083 N 304.489 0.459591 1.5075 0
M  V30 3084 C 305.419 -0.330644 2.31147 0
M  V30 3085 C 306.4 -1.00087 1.37538 0
M  V30 3086 O 307.585 -1.00025 1.66459 0
M  V30 3087 C 304.715 -1.41958 3.16962 0
M  V30 3088 C 303.669 -0.871608 4.19031 0
M  V30 3089 C 302.995 -2.05797 4.9351 0
M  V30 3090 C 304.295 0.109251 5.22186 0
M  V30 3091 H 305.989 0.340336 2.97459 0
M  V30 3092 H 303.535 0.165119 1.4305 0
M  V30 3093 H 305.488 -1.9798 3.71997 0
M  V30 3094 H 304.212 -2.11917 2.48513 0
M  V30 3095 H 302.871 -0.333442 3.6508 0
M  V30 3096 H 302.519 -2.74427 4.21544 0
M  V30 3097 H 302.219 -1.6976 5.62544 0
M  V30 3098 H 303.743 -2.62331 5.51375 0
M  V30 3099 H 305.157 -0.361405 5.7216 0
M  V30 3100 H 303.554 0.383316 5.98875 0
M  V30 3101 H 304.624 1.03887 4.73641 0
M  V30 3102 N 305.967 -1.56429 0.191757 0
M  V30 3103 C 307.383 -1.58754 -0.164137 0
M  V30 3104 C 307.583 -1.20782 -1.61288 0
M  V30 3105 O 306.639 -0.928999 -2.34789 0
M  V30 3106 C 307.952 -3.00396 0.135195 0
M  V30 3107 C 309.5 -3.1291 0.0750351 0
M  V30 3108 C 309.975 -4.56679 0.347632 0
M  V30 3109 N 311.466 -4.62252 0.296131 0
M  V30 3110 C 312.201 -5.71379 0.480948 0
M  V30 3111 N 311.697 -6.88986 0.725933 0
M  V30 3112 N 313.49 -5.60563 0.415435 0
M  V30 3113 H 305.641 -1.79393 1.13718 0
M  V30 3114 H 307.904 -0.832414 0.453643 0
M  V30 3115 H 307.61 -3.32726 1.13958 0
M  V30 3116 H 307.484 -3.72963 -0.563773 0
M  V30 3117 H 309.871 -2.80394 -0.919948 0
M  V30 3118 H 309.952 -2.42736 0.807029 0
M  V30 3119 H 309.596 -4.89907 1.33992 0
M  V30 3120 H 309.526 -5.25039 -0.405212 0
M  V30 3121 H 312.017 -3.7773 0.113259 0
M  V30 3122 H 312.33 -7.68046 0.855857 0
M  V30 3123 H 310.675 -6.90801 0.762788 0
M  V30 3124 H 313.866 -4.67561 0.224486 0
M  V30 3125 H 314.039 -6.45551 0.562889 0
M  V30 3126 N 307.445 0.0818655 -1.57387 0
M  V30 3127 C 308.395 1.10501 -1.99433 0
M  V30 3128 C 309.379 1.35041 -0.874798 0
M  V30 3129 O 310.571 1.35511 -1.13868 0
M  V30 3130 C 307.7 2.42159 -2.43339 0
M  V30 3131 C 306.786 2.20937 -3.62005 0
M  V30 3132 N 307.177 1.69616 -4.76512 0
M  V30 3133 C 305.475 2.51451 -3.68359 0
M  V30 3134 C 306.176 1.62973 -5.58404 0
M  V30 3135 N 305.152 2.08664 -5.01956 0
M  V30 3136 H 308.954 0.701373 -2.85408 0
M  V30 3137 H 306.468 0.289096 -1.59806 0
M  V30 3138 H 308.465 3.16208 -2.71695 0
M  V30 3139 H 307.125 2.83249 -1.58746 0
M  V30 3140 H 308.136 1.38624 -4.99003 0
M  V30 3141 H 304.813 2.95975 -2.94457 0
M  V30 3142 H 306.203 1.24233 -6.60315 0
M  V30 3143 N 308.923 1.53595 0.353017 0
M  V30 3144 C 309.871 1.81605 1.45335 0
M  V30 3145 C 310.865 0.685923 1.54892 0
M  V30 3146 O 312.071 0.869095 1.57628 0
M  V30 3147 H 308.446 0.575204 0.484401 0
M  V30 3148 H 310.417 2.73679 1.18921 0
M  V30 3149 C 309.166 2.03406 2.81995 0
M  V30 3150 H 308.489 2.89814 2.75405 0
M  V30 3151 H 309.929 2.26975 3.58132 0
M  V30 3152 C 308.388 0.816794 3.26849 0
M  V30 3153 O 308.918 0.0115856 4.01698 0
M  V30 3154 N 307.124 0.636682 2.8354 0
M  V30 3155 H 306.671 1.2931 2.22793 0
M  V30 3156 H 306.629 -0.176336 3.13905 0
M  V30 3157 N 310.401 -0.613514 1.45168 0
M  V30 3158 C 311.364 -1.7065 1.53007 0
M  V30 3159 C 312.364 -1.5548 0.410184 0
M  V30 3160 O 313.554 -1.60656 0.673455 0
M  V30 3161 C 310.686 -3.09875 1.42093 0
M  V30 3162 H 311.879 -1.65068 2.50385 0
M  V30 3163 H 309.432 -0.828728 1.32521 0
M  V30 3164 H 310.167 -3.21039 0.458769 0
M  V30 3165 H 309.952 -3.22293 2.23315 0
M  V30 3166 H 311.442 -3.895 1.50598 0
M  V30 3167 N 311.879 -1.3236 -0.855495 0
M  V30 3168 C 312.842 -1.21164 -1.94556 0
M  V30 3169 C 313.842 -0.134908 -1.60233 0
M  V30 3170 O 315.032 -0.385249 -1.69887 0
M  V30 3171 C 312.164 -0.863192 -3.29791 0
M  V30 3172 H 313.357 -2.18038 -2.05911 0
M  V30 3173 H 310.91 -1.16179 -1.04557 0
M  V30 3174 H 311.645 0.103769 -3.24134 0
M  V30 3175 H 311.43 -1.64166 -3.56078 0
M  V30 3176 H 312.92 -0.809156 -4.09686 0
M  V30 3177 N 313.357 1.07166 -1.15556 0
M  V30 3178 C 314.32 2.12589 -0.856644 0
M  V30 3179 C 315.32 1.6015 0.14444 0
M  V30 3180 O 316.51 1.7399 -0.0854163 0
M  V30 3181 C 313.642 3.39753 -0.279405 0
M  V30 3182 H 314.835 2.40539 -1.79112 0
M  V30 3183 H 312.388 1.23086 -0.963298 0
M  V30 3184 H 313.123 3.17447 0.663174 0
M  V30 3185 H 312.908 3.79117 -1.00063 0
M  V30 3186 H 314.398 4.17507 -0.0879113 0
M  V30 3187 N 314.835 0.952656 1.25548 0
M  V30 3188 C 315.798 0.475794 2.24207 0
M  V30 3189 C 316.798 -0.419428 1.55234 0
M  V30 3190 O 317.988 -0.216994 1.72843 0
M  V30 3191 C 315.12 -0.312814 3.39462 0
M  V30 3192 H 316.313 1.34779 2.67908 0
M  V30 3193 H 313.866 0.735739 1.37901 0
M  V30 3194 H 314.601 -1.20257 3.01179 0
M  V30 3195 H 314.386 0.329404 3.90714 0
M  V30 3196 H 315.876 -0.635986 4.12729 0
M  V30 3197 N 316.313 -1.40141 0.720998 0
M  V30 3198 C 317.559 -2.01084 0.263231 0
M  V30 3199 C 317.892 -1.57052 -1.14229 0
M  V30 3200 O 317.167 -0.793027 -1.77599 0
M  V30 3201 C 317.45 -3.58401 0.349344 0
M  V30 3202 C 317.303 -4.12491 1.79363 0
M  V30 3203 C 318.622 -4.39231 -0.276351 0
M  V30 3204 H 315.741 -0.730572 0.0971228 0
M  V30 3205 H 318.383 -1.66543 0.914518 0
M  V30 3206 H 316.533 -3.87958 -0.205165 0
M  V30 3207 H 318.205 -3.93711 2.40394 0
M  V30 3208 H 316.448 -3.66576 2.31958 0
M  V30 3209 H 317.119 -5.21646 1.80524 0
M  V30 3210 H 319.595 -4.15637 0.196184 0
M  V30 3211 H 318.471 -5.48586 -0.185681 0
M  V30 3212 H 318.732 -4.20643 -1.36059 0
M  V30 3213 N 317.792 -0.46758 -1.50504 0
M  V30 3214 C 319.203 -0.0116166 -1.86696 0
M  V30 3215 C 319.554 1.39202 -1.38265 0
M  V30 3216 O 318.679 2.0313 -0.746132 0
M  V30 3217 C 319.274 -0.0143044 -3.38797 0
M  V30 3218 C 317.833 0.386175 -3.74414 0
M  V30 3219 C 316.98 -0.401287 -2.74381 0
M  V30 3220 H 319.931 -0.682022 -1.43297 0
M  V30 3221 H 319.952 0.788641 -3.72237 0
M  V30 3222 H 319.464 -1.03602 -3.74016 0
M  V30 3223 H 317.565 1.41237 -3.44794 0
M  V30 3224 H 317.678 0.0899596 -4.79016 0
M  V30 3225 H 316.042 0.144536 -2.5429 0
M  V30 3226 H 316.825 -1.42244 -3.12444 0
M  V30 3227 N 319.27 1.56325 -0.20005 0
M  V30 3228 C 320.517 1.97719 0.437411 0
M  V30 3229 C 320.845 1.08709 1.61284 0
M  V30 3230 O 320.1 0.127261 1.95286 0
M  V30 3231 C 320.399 3.4495 0.935103 0
M  V30 3232 C 320.065 4.5072 -0.12749 0
M  V30 3233 C 318.727 4.79368 -0.419451 0
M  V30 3234 C 321.079 5.14268 -0.847231 0
M  V30 3235 C 318.407 5.68854 -1.43604 0
M  V30 3236 C 320.759 6.04852 -1.85301 0
M  V30 3237 C 319.423 6.31855 -2.15211 0
M  V30 3238 H 318.693 0.723507 0.16006 0
M  V30 3239 H 321.34 1.89166 -0.298056 0
M  V30 3240 H 319.645 3.50599 1.74894 0
M  V30 3241 H 321.342 3.74337 1.43781 0
M  V30 3242 H 317.932 4.28458 0.11023 0
M  V30 3243 H 322.116 4.92222 -0.634901 0
M  V30 3244 H 317.372 5.88047 -1.67364 0
M  V30 3245 H 321.546 6.53152 -2.41591 0
M  V30 3246 H 319.173 7.00994 -2.94129 0
M  V30 3247 N 320.748 -0.0735177 1.57428 0
M  V30 3248 C 321.995 -0.772999 1.87166 0
M  V30 3249 C 322.323 -1.77665 0.791551 0
M  V30 3250 O 321.578 -1.94541 -0.212636 0
M  V30 3251 C 321.877 -1.51799 3.23561 0
M  V30 3252 C 321.543 -0.654484 4.46125 0
M  V30 3253 C 320.205 -0.416511 4.79394 0
M  V30 3254 C 322.557 -0.0555862 5.2117 0
M  V30 3255 C 319.885 0.429869 5.85123 0
M  V30 3256 C 322.237 0.778239 6.27795 0
M  V30 3257 C 320.901 1.0261 6.59566 0
M  V30 3258 H 320.171 -0.282861 0.684888 0
M  V30 3259 H 322.818 -0.0338272 1.9147 0
M  V30 3260 H 321.123 -2.32932 3.1504 0
M  V30 3261 H 322.82 -2.06397 3.43804 0
M  V30 3262 H 319.41 -0.850091 4.20085 0
M  V30 3263 H 323.594 -0.226558 4.95783 0
M  V30 3264 H 318.85 0.630665 6.08139 0
M  V30 3265 H 323.024 1.24906 6.85107 0
M  V30 3266 H 320.651 1.68371 7.4132 0
M  V30 3267 N 322.226 -1.5378 -0.344866 0
M  V30 3268 C 323.474 -1.70625 -1.08311 0
M  V30 3269 C 323.795 -0.471447 -1.89215 0
M  V30 3270 O 323.065 0.514616 -1.8902 0
M  V30 3271 H 321.645 -0.629058 -0.402859 0
M  V30 3272 H 324.307 -1.9103 -0.386459 0
M  V30 3273 H 323.403 -2.57656 -1.76124 0
M  V30 3274 N 323.704 0.605807 -1.45491 0
M  V30 3275 C 324.952 1.36207 -1.49305 0
M  V30 3276 C 325.273 1.94519 -0.136863 0
M  V30 3277 O 324.543 1.77261 0.833983 0
M  V30 3278 H 323.123 0.50565 -0.549843 0
M  V30 3279 H 325.785 0.711239 -1.81459 0
M  V30 3280 H 324.881 2.18058 -2.23287 0
M  V30 3281 N 325.182 1.32811 0.848464 0
M  V30 3282 C 326.43 1.23479 1.59991 0
M  V30 3283 C 326.751 -0.201853 1.93952 0
M  V30 3284 O 326.021 -1.12818 1.60153 0
M  V30 3285 H 324.601 0.454034 0.593179 0
M  V30 3286 H 327.263 1.66412 1.01455 0
M  V30 3287 H 326.359 1.82178 2.53412 0
M  V30 3288 N 326.66 -1.06551 1.16123 0
M  V30 3289 C 327.885 -1.83544 0.965735 0
M  V30 3290 C 328.31 -1.81843 -0.481102 0
M  V30 3291 O 327.668 -1.21732 -1.34354 0
M  V30 3292 C 327.716 -3.28169 1.49457 0
M  V30 3293 O 326.82 -4.0643 0.699157 0
M  V30 3294 H 326.161 -0.568026 0.343864 0
M  V30 3295 H 328.691 -1.34362 1.54299 0
M  V30 3296 H 328.701 -3.78992 1.51092 0
M  V30 3297 H 327.376 -3.28722 2.54784 0
M  V30 3298 H 325.953 -3.65216 0.7531 0
M  V30 3299 N 328.138 -0.959301 -1.25041 0
M  V30 3300 C 329.384 -0.617525 -1.9317 0
M  V30 3301 C 329.717 0.843981 -1.74902 0
M  V30 3302 O 328.992 1.60615 -1.09696 0
M  V30 3303 C 329.275 -0.982736 -3.46431 0
M  V30 3304 C 329.128 -2.50032 -3.73904 0
M  V30 3305 C 330.447 -0.511176 -4.37121 0
M  V30 3306 H 327.566 -0.22582 -0.701552 0
M  V30 3307 H 330.208 -1.19679 -1.4757 0
M  V30 3308 H 328.358 -0.489806 -3.854 0
M  V30 3309 H 330.03 -3.06737 -3.44544 0
M  V30 3310 H 328.273 -2.93598 -3.19348 0
M  V30 3311 H 328.944 -2.70635 -4.81103 0
M  V30 3312 H 331.42 -0.934075 -4.0548 0
M  V30 3313 H 330.296 -0.795361 -5.43107 0
M  V30 3314 H 330.557 0.588834 -4.38161 0
M  V30 3315 N 329.616 1.39756 -0.72842 0
M  V30 3316 C 330.546 2.33289 -0.0991354 0
M  V30 3317 C 331.527 1.53568 0.731489 0
M  V30 3318 O 332.712 1.81987 0.677807 0
M  V30 3319 C 329.842 3.3763 0.813834 0
M  V30 3320 C 328.796 4.2791 0.0878663 0
M  V30 3321 C 328.122 5.22894 1.11741 0
M  V30 3322 C 329.422 5.11314 -1.06563 0
M  V30 3323 H 331.116 2.86163 -0.880408 0
M  V30 3324 H 328.662 1.37591 -0.424819 0
M  V30 3325 H 330.615 4.0201 1.26355 0
M  V30 3326 H 329.339 2.83181 1.62715 0
M  V30 3327 H 327.998 3.65 -0.342159 0
M  V30 3328 H 327.646 4.64744 1.92412 0
M  V30 3329 H 327.346 5.84143 0.636477 0
M  V30 3330 H 328.87 5.90151 1.56697 0
M  V30 3331 H 330.284 5.69076 -0.694671 0
M  V30 3332 H 328.681 5.81671 -1.47577 0
M  V30 3333 H 329.751 4.46534 -1.89038 0
M  V30 3334 N 331.094 0.475555 1.50254 0
M  V30 3335 C 332.51 0.12997 1.5907 0
M  V30 3336 C 332.71 -1.36385 1.48328 0
M  V30 3337 O 331.766 -2.13754 1.34407 0
M  V30 3338 C 333.079 0.684139 2.92814 0
M  V30 3339 C 334.627 0.647965 3.0622 0
M  V30 3340 C 335.102 1.17975 4.42545 0
M  V30 3341 N 336.593 1.13936 4.48969 0
M  V30 3342 C 337.328 1.52129 5.52851 0
M  V30 3343 N 336.824 1.97793 6.63965 0
M  V30 3344 N 338.617 1.43704 5.4342 0
M  V30 3345 H 330.768 1.44706 1.55479 0
M  V30 3346 H 333.031 0.598691 0.735033 0
M  V30 3347 H 332.737 1.73079 3.06164 0
M  V30 3348 H 332.611 0.130204 3.76975 0
M  V30 3349 H 334.998 -0.38979 2.92514 0
M  V30 3350 H 335.079 1.23876 2.23805 0
M  V30 3351 H 334.723 2.21616 4.57 0
M  V30 3352 H 334.653 0.565138 5.23559 0
M  V30 3353 H 337.144 0.804488 3.69238 0
M  V30 3354 H 337.457 2.25072 7.39299 0
M  V30 3355 H 335.802 2.01749 6.65073 0
M  V30 3356 H 338.993 1.07867 4.55502 0
M  V30 3357 H 339.166 1.73794 6.24259 0
M  V30 3358 N 332.573 -1.56217 0.208337 0
M  V30 3359 C 333.536 -2.18455 -0.693557 0
M  V30 3360 C 334.536 -1.14268 -1.13135 0
M  V30 3361 O 335.726 -1.39577 -1.0423 0
M  V30 3362 C 332.858 -2.79727 -1.94848 0
M  V30 3363 H 334.051 -2.99519 -0.15114 0
M  V30 3364 H 331.604 -1.56245 -0.041287 0
M  V30 3365 H 332.339 -2.02497 -2.53309 0
M  V30 3366 H 332.124 -3.56009 -1.64316 0
M  V30 3367 H 333.614 -3.27475 -2.59133 0
M  V30 3368 N 334.051 0.0651679 -1.57465 0
M  V30 3369 C 335.014 1.06117 -2.03155 0
M  V30 3370 C 336.014 1.31204 -0.929632 0
M  V30 3371 O 337.204 1.26813 -1.19432 0
M  V30 3372 C 334.336 2.4032 -2.41783 0
M  V30 3373 H 335.529 0.667231 -2.92383 0
M  V30 3374 H 333.082 0.311075 -1.53173 0
M  V30 3375 H 333.817 2.84532 -1.55601 0
M  V30 3376 H 333.602 2.23451 -3.22199 0
M  V30 3377 H 335.092 3.11898 -2.77685 0
M  V30 3378 N 335.529 1.53961 0.336706 0
M  V30 3379 C 336.439 1.85432 1.43708 0
M  V30 3380 C 337.455 0.745053 1.57242 0
M  V30 3381 O 338.631 1.03804 1.72588 0
M  V30 3382 C 335.696 2.06349 2.78605 0
M  V30 3383 C 334.757 3.30191 2.74358 0
M  V30 3384 C 333.99 3.50101 4.02822 0
M  V30 3385 O 334.213 2.7371 5.00439 0
M  V30 3386 O 333.147 4.43547 4.06878 0
M  V30 3387 H 336.973 2.78975 1.20028 0
M  V30 3388 H 334.558 1.39701 0.52952 0
M  V30 3389 H 336.44 2.21513 3.58483 0
M  V30 3390 H 335.115 1.15995 3.02203 0
M  V30 3391 H 334.022 3.20425 1.93078 0
M  V30 3392 H 335.355 4.2056 2.55715 0
M  V30 3393 N 337.007 -0.598083 1.45811 0
M  V30 3394 C 338.418 -1.18011 1.44673 0
M  V30 3395 C 338.769 -1.95378 0.179364 0
M  V30 3396 O 337.894 -2.04124 -0.718509 0
M  V30 3397 C 338.489 -2.14677 2.62105 0
M  V30 3398 C 337.048 -2.68236 2.64057 0
M  V30 3399 C 336.195 -1.43816 2.37091 0
M  V30 3400 H 339.146 -0.38686 1.53913 0
M  V30 3401 H 339.167 -2.97878 2.36746 0
M  V30 3402 H 338.679 -1.5834 3.5433 0
M  V30 3403 H 336.78 -3.28486 1.75864 0
M  V30 3404 H 336.893 -3.12021 3.63566 0
M  V30 3405 H 335.257 -1.731 1.86838 0
M  V30 3406 H 336.04 -0.893333 3.31473 0
M  V30 3407 N 338.485 -1.33259 -0.841409 0
M  V30 3408 C 339.448 -1.23221 -1.9326 0
M  V30 3409 C 340.448 -0.151895 -1.60081 0
M  V30 3410 O 341.638 -0.403246 -1.69468 0
M  V30 3411 C 338.77 -0.898123 -3.28856 0
M  V30 3412 H 339.963 -2.2021 -2.03587 0
M  V30 3413 H 337.516 -1.17281 -1.03319 0
M  V30 3414 H 338.251 0.0693841 -3.24226 0
M  V30 3415 H 338.036 -1.67934 -3.54317 0
M  V30 3416 H 339.526 -0.852563 -4.08805 0
M  V30 3417 N 339.963 1.05934 -1.16686 0
M  V30 3418 C 341.374 1.60263 -0.957745 0
M  V30 3419 C 341.725 1.89789 0.49745 0
M  V30 3420 O 340.85 1.67401 1.37135 0
M  V30 3421 C 341.445 2.91172 -1.73218 0
M  V30 3422 C 340.004 3.42188 -1.56794 0
M  V30 3423 C 339.151 2.16028 -1.73859 0
M  V30 3424 H 342.102 0.888392 -1.31504 0
M  V30 3425 H 342.123 3.60744 -1.21014 0
M  V30 3426 H 341.635 2.6965 -2.79124 0
M  V30 3427 H 339.736 3.68762 -0.533437 0
M  V30 3428 H 339.849 4.17273 -2.35414 0
M  V30 3429 H 338.213 2.26426 -1.16633 0
M  V30 3430 H 338.996 1.96985 -2.81161 0
M  V30 3431 N 341.441 0.965919 1.2453 0
M  V30 3432 C 342.391 0.465731 2.23193 0
M  V30 3433 C 343.375 -0.451277 1.54442 0
M  V30 3434 O 344.567 -0.282489 1.74731 0
M  V30 3435 C 341.696 -0.244511 3.42428 0
M  V30 3436 C 340.782 0.691222 4.18429 0
M  V30 3437 N 341.173 1.82771 4.71623 0
M  V30 3438 C 339.471 0.501649 4.4317 0
M  V30 3439 C 340.172 2.41285 5.29298 0
M  V30 3440 N 339.148 1.69819 5.16394 0
M  V30 3441 H 342.95 1.33291 2.61937 0
M  V30 3442 H 340.464 0.824789 1.39896 0
M  V30 3443 H 342.461 -0.620056 4.12263 0
M  V30 3444 H 341.121 -1.10815 3.05205 0
M  V30 3445 H 342.132 2.20929 4.68413 0
M  V30 3446 H 338.809 -0.318177 4.16286 0
M  V30 3447 H 340.199 3.37181 5.8117 0
M  V30 3448 N 342.919 -1.39368 0.735821 0
M  V30 3449 C 343.882 -2.2896 0.104874 0
M  V30 3450 C 344.882 -1.46347 -0.666274 0
M  V30 3451 O 346.072 -1.67014 -0.49517 0
M  V30 3452 C 343.204 -3.29857 -0.860656 0
M  V30 3453 H 344.397 -2.86259 0.894205 0
M  V30 3454 H 341.95 -1.48029 0.501704 0
M  V30 3455 H 342.685 -2.77615 -1.67631 0
M  V30 3456 H 342.47 -3.9087 -0.310327 0
M  V30 3457 H 343.96 -3.96893 -1.29867 0
M  V30 3458 N 344.397 -0.483516 -1.5 0
M  V30 3459 C 345.622 0.0667119 -2.07293 0
M  V30 3460 C 346.047 1.3164 -1.3436 0
M  V30 3461 O 345.405 1.76945 -0.394987 0
M  V30 3462 C 345.453 0.321126 -3.59167 0
M  V30 3463 O 344.557 1.39927 -3.87936 0
M  V30 3464 H 343.898 -0.0184758 -0.663743 0
M  V30 3465 H 346.428 -0.678125 -1.93035 0
M  V30 3466 H 346.438 0.557906 -4.04168 0
M  V30 3467 H 345.113 -0.592007 -4.11665 0
M  V30 3468 H 343.69 1.14882 -3.54763 0
M  V30 3469 N 345.875 1.56104 -0.216619 0
M  V30 3470 C 347.105 2.02269 0.420802 0
M  V30 3471 C 347.513 1.09575 1.5424 0
M  V30 3472 O 346.856 0.0967308 1.83445 0
M  V30 3473 C 346.918 3.44784 1.01806 0
M  V30 3474 C 346.582 4.56988 0.0325154 0
M  V30 3475 C 347.579 5.14225 -0.766055 0
M  V30 3476 C 345.264 5.02228 -0.0848092 0
M  V30 3477 C 347.258 6.15169 -1.6687 0
M  V30 3478 C 344.945 6.03011 -0.990994 0
M  V30 3479 C 345.943 6.59357 -1.78149 0
M  V30 3480 O 345.631 7.58179 -2.67245 0
M  V30 3481 H 345.363 0.667353 0.107776 0
M  V30 3482 H 347.917 2.02747 -0.329034 0
M  V30 3483 H 346.147 3.41359 1.81689 0
M  V30 3484 H 347.836 3.74626 1.56237 0
M  V30 3485 H 348.602 4.80126 -0.685836 0
M  V30 3486 H 344.481 4.58054 0.520349 0
M  V30 3487 H 348.025 6.59076 -2.28615 0
M  V30 3488 H 343.922 6.36532 -1.07225 0
M  V30 3489 H 344.69 7.75682 -2.61265 0
M  V30 3490 N 347.353 -0.0568162 1.57498 0
M  V30 3491 C 348.601 -0.751617 1.87604 0
M  V30 3492 C 348.922 -1.77351 0.81066 0
M  V30 3493 O 348.192 -1.95254 -0.159018 0
M  V30 3494 H 346.772 -0.280583 0.692302 0
M  V30 3495 H 349.434 -0.0293483 1.94878 0
M  V30 3496 H 348.53 -1.25852 2.856 0
M  V30 3497 N 348.832 -1.54138 -0.328536 0
M  V30 3498 C 350.08 -1.71765 -1.06496 0
M  V30 3499 C 350.401 -0.49149 -1.88704 0
M  V30 3500 O 349.671 0.494539 -1.89555 0
M  V30 3501 H 348.251 -0.633295 -0.396164 0
M  V30 3502 H 350.913 -1.91429 -0.366176 0
M  V30 3503 H 350.009 -2.5951 -1.73381 0
M  V30 3504 N 350.31 0.590341 -1.46126 0
M  V30 3505 C 351.559 1.34499 -1.50309 0
M  V30 3506 C 351.872 1.94977 -0.156021 0
M  V30 3507 O 353.078 2.71395 -0.0756037 0
M  V30 3508 C 351.534 2.43723 -2.64815 0
M  V30 3509 C 351.142 1.89582 -4.0591 0
M  V30 3510 C 352.886 3.20579 -2.78262 0
M  V30 3511 C 350.793 2.9639 -5.11769 0
M  V30 3512 H 349.723 0.505593 -0.559368 0
M  V30 3513 H 352.374 0.630848 -1.72315 0
M  V30 3514 H 350.756 3.17902 -2.36124 0
M  V30 3515 H 351.93 1.21997 -4.44357 0
M  V30 3516 H 350.245 1.25418 -3.97063 0
M  V30 3517 H 352.842 4.00276 -3.54519 0
M  V30 3518 H 353.185 3.72684 -1.85505 0
M  V30 3519 H 353.718 2.53505 -3.06562 0
M  V30 3520 H 350.457 2.49181 -6.06291 0
M  V30 3521 H 349.977 3.62487 -4.77873 0
M  V30 3522 H 351.656 3.60474 -5.37278 0
M  V30 3523 N 351.788 1.33704 0.83433 0
M  V30 3524 C 353.034 1.25603 1.59222 0
M  V30 3525 C 353.367 -0.176659 1.93395 0
M  V30 3526 O 352.642 -1.11915 1.59076 0
M  V30 3527 C 352.925 2.13576 2.89926 0
M  V30 3528 C 352.778 3.65326 2.62406 0
M  V30 3529 C 354.097 2.01238 3.91397 0
M  V30 3530 H 351.216 0.457613 0.577719 0
M  V30 3531 H 353.858 1.63848 0.961972 0
M  V30 3532 H 352.008 1.8109 3.43713 0
M  V30 3533 H 353.68 4.08124 2.15017 0
M  V30 3534 H 351.923 3.8698 1.96033 0
M  V30 3535 H 352.594 4.22232 3.55562 0
M  V30 3536 H 355.07 2.29738 3.46929 0
M  V30 3537 H 353.946 2.65036 4.80673 0
M  V30 3538 H 354.207 0.985951 4.30966 0
M  V30 3539 N 353.266 -1.05314 1.17247 0
M  V30 3540 C 354.491 -1.82509 0.985148 0
M  V30 3541 C 354.916 -1.82343 -0.461788 0
M  V30 3542 O 354.274 -1.23151 -1.33055 0
M  V30 3543 C 354.322 -3.26566 1.52929 0
M  V30 3544 O 353.426 -4.05666 0.742225 0
M  V30 3545 H 352.767 -0.564347 0.349869 0
M  V30 3546 H 355.297 -1.32718 1.55715 0
M  V30 3547 H 355.307 -3.77369 1.55103 0
M  V30 3548 H 353.982 -3.26001 2.58256 0
M  V30 3549 H 352.559 -3.64397 0.791794 0
M  V30 3550 N 354.744 -0.972509 -1.24016 0
M  V30 3551 C 355.99 -0.637978 -1.92504 0
M  V30 3552 C 356.323 0.825383 -1.75787 0
M  V30 3553 O 355.598 1.59442 -1.11393 0
M  V30 3554 C 355.881 -1.01942 -3.45369 0
M  V30 3555 C 355.734 -2.53983 -3.71231 0
M  V30 3556 C 357.053 -0.55751 -4.36555 0
M  V30 3557 H 354.172 -0.233248 -0.699117 0
M  V30 3558 H 356.814 -1.21238 -1.46292 0
M  V30 3559 H 354.964 -0.530656 -3.84859 0
M  V30 3560 H 356.636 -3.10374 -3.41271 0
M  V30 3561 H 354.879 -2.96968 -3.16216 0
M  V30 3562 H 355.55 -2.75723 -4.78206 0
M  V30 3563 H 358.026 -0.977029 -4.04467 0
M  V30 3564 H 356.902 -0.85292 -5.42233 0
M  V30 3565 H 357.163 0.542328 -4.38761 0
M  V30 3566 N 356.222 1.38976 -0.743202 0
M  V30 3567 C 357.132 2.3434 -0.110399 0
M  V30 3568 C 358.148 1.58741 0.712559 0
M  V30 3569 O 359.324 1.9099 0.639125 0
M  V30 3570 C 356.389 3.37812 0.780012 0
M  V30 3571 C 355.45 4.29263 -0.0561319 0
M  V30 3572 C 354.683 5.27793 0.791875 0
M  V30 3573 O 354.906 5.33043 2.03031 0
M  V30 3574 O 353.84 6.01512 0.216183 0
M  V30 3575 H 357.666 2.90129 -0.897714 0
M  V30 3576 H 355.251 1.40643 -0.503966 0
M  V30 3577 H 357.133 4.01194 1.28923 0
M  V30 3578 H 355.808 2.84395 1.546 0
M  V30 3579 H 354.715 3.69076 -0.611056 0
M  V30 3580 H 356.048 4.85907 -0.784531 0
M  V30 3581 N 357.7 0.491464 1.49741 0
M  V30 3582 C 358.928 -0.0535151 2.06831 0
M  V30 3583 C 359.343 -1.31683 1.35296 0
M  V30 3584 O 358.7 -1.77402 0.42836 0
M  V30 3585 C 358.751 -0.320835 3.60073 0
M  V30 3586 O 358.472 0.892394 4.28915 0
M  V30 3587 C 359.973 -0.910519 4.33848 0
M  V30 3588 H 357.193 0.0161909 0.670805 0
M  V30 3589 H 359.737 0.68609 1.92647 0
M  V30 3590 H 357.892 -1.0104 3.73991 0
M  V30 3591 H 358.306 0.649401 5.20464 0
M  V30 3592 H 359.78 -1.04721 5.41976 0
M  V30 3593 H 360.257 -1.90589 3.95692 0
M  V30 3594 H 360.863 -0.258712 4.24512 0
M  V30 3595 N 359.178 -1.55987 0.224894 0
M  V30 3596 C 360.455 -1.90232 -0.455083 0
M  V30 3597 C 360.835 -1.14269 -1.77499 0
M  V30 3598 O 360.183 -0.253079 -2.27094 0
M  V30 3599 C 360.393 -3.42993 -0.644758 0
M  V30 3600 C 361.741 -4.13821 -0.950669 0
M  V30 3601 O 362.765 -3.4861 -0.731423 0
M  V30 3602 O 361.624 -5.29128 -1.36695 0
M  V30 3603 H 358.718 -0.79108 -0.241084 0
M  V30 3604 H 361.264 -1.67581 0.267327 0
M  V30 3605 H 360.036 -3.90252 0.28613 0
M  V30 3606 H 359.659 -3.71434 -1.41853 0
M  V30 3607 N 360.656 0.0484629 -1.57525 0
M  V30 3608 C 361.586 1.0549 -2.08313 0
M  V30 3609 C 362.567 1.38929 -0.981463 0
M  V30 3610 O 363.752 1.48151 -1.25558 0
M  V30 3611 C 360.882 2.36162 -2.54646 0
M  V30 3612 C 359.836 2.17016 -3.68901 0
M  V30 3613 C 359.162 3.53278 -4.01371 0
M  V30 3614 C 360.462 1.57219 -4.98076 0
M  V30 3615 H 362.156 0.632195 -2.92649 0
M  V30 3616 H 359.702 0.302654 -1.40784 0
M  V30 3617 H 361.655 3.06882 -2.88793 0
M  V30 3618 H 360.379 2.80456 -1.67368 0
M  V30 3619 H 359.038 1.48733 -3.35073 0
M  V30 3620 H 358.686 3.95185 -3.11188 0
M  V30 3621 H 358.386 3.41299 -4.78318 0
M  V30 3622 H 359.91 4.25391 -4.38035 0
M  V30 3623 H 361.324 2.17832 -5.30304 0
M  V30 3624 H 359.721 1.55871 -5.79503 0
M  V30 3625 H 360.791 0.535956 -4.81929 0
M  V30 3626 N 362.134 1.5431 0.320358 0
M  V30 3627 C 363.064 1.86912 1.3995 0
M  V30 3628 C 364.045 0.726211 1.53819 0
M  V30 3629 O 365.23 0.980233 1.67646 0
M  V30 3630 C 362.36 2.09932 2.7667 0
M  V30 3631 C 361.314 3.25776 2.77586 0
M  V30 3632 C 360.64 3.34173 4.17412 0
M  V30 3633 C 361.94 4.6335 2.41048 0
M  V30 3634 H 363.634 2.77292 1.12914 0
M  V30 3635 H 361.18 1.33421 0.541738 0
M  V30 3636 H 363.133 2.31324 3.52232 0
M  V30 3637 H 361.857 1.16304 3.0519 0
M  V30 3638 H 360.516 3.04276 2.04479 0
M  V30 3639 H 360.164 2.38098 4.43078 0
M  V30 3640 H 359.864 4.12033 4.18931 0
M  V30 3641 H 361.388 3.57803 4.94782 0
M  V30 3642 H 362.802 4.84602 3.06324 0
M  V30 3643 H 361.199 5.43782 2.53813 0
M  V30 3644 H 362.269 4.65381 1.36193 0
M  V30 3645 N 363.613 -0.582584 1.46437 0
M  V30 3646 C 364.545 -1.70618 1.53043 0
M  V30 3647 C 365.558 -1.57322 0.418769 0
M  V30 3648 O 366.747 -1.64744 0.687136 0
M  V30 3649 C 363.847 -3.08869 1.39474 0
M  V30 3650 C 363.02 -3.48166 2.64762 0
M  V30 3651 C 362.079 -4.65478 2.4539 0
M  V30 3652 O 361.105 -4.71333 3.19114 0
M  V30 3653 N 362.307 -5.60365 1.51564 0
M  V30 3654 H 365.072 -1.65405 2.49923 0
M  V30 3655 H 362.633 -0.768567 1.42494 0
M  V30 3656 H 364.625 -3.85143 1.24287 0
M  V30 3657 H 363.195 -3.08449 0.507758 0
M  V30 3658 H 362.415 -2.61598 2.9489 0
M  V30 3659 H 363.703 -3.71188 3.4799 0
M  V30 3660 H 363.101 -5.5837 0.907705 0
M  V30 3661 H 361.658 -6.36068 1.4234 0
M  V30 3662 N 365.091 -1.34144 -0.827227 0
M  V30 3663 C 366.337 -1.27455 -1.58515 0
M  V30 3664 C 366.692 0.155271 -1.91772 0
M  V30 3665 O 365.985 1.10042 -1.56848 0
M  V30 3666 C 366.179 -2.09464 -2.89585 0
M  V30 3667 C 366.008 -3.60276 -2.69131 0
M  V30 3668 C 364.778 -4.29565 -2.66087 0
M  V30 3669 C 366.976 -4.54367 -2.40947 0
M  V30 3670 N 364.958 -5.66252 -2.37132 0
M  V30 3671 C 366.329 -5.79027 -2.21648 0
M  V30 3672 C 368.384 -4.43327 -2.26639 0
M  V30 3673 C 367.087 -6.93891 -1.89492 0
M  V30 3674 C 369.113 -5.58019 -1.95878 0
M  V30 3675 C 368.475 -6.81695 -1.774 0
M  V30 3676 H 364.574 -0.521614 -0.582617 0
M  V30 3677 H 367.158 -1.68811 -0.970105 0
M  V30 3678 H 365.329 -1.70411 -3.49019 0
M  V30 3679 H 367.061 -1.94453 -3.54923 0
M  V30 3680 H 363.816 -3.81959 -2.80008 0
M  V30 3681 H 364.24 -6.38338 -2.25507 0
M  V30 3682 H 368.882 -3.48333 -2.39633 0
M  V30 3683 H 366.6 -7.88871 -1.75236 0
M  V30 3684 H 370.186 -5.5142 -1.85546 0
M  V30 3685 H 369.066 -7.68942 -1.53941 0
M  V30 3686 N 366.569 1.04691 -1.17803 0
M  V30 3687 C 367.809 1.79352 -0.980423 0
M  V30 3688 C 368.173 1.85853 0.481958 0
M  V30 3689 O 369.374 2.56656 0.798809 0
M  V30 3690 C 367.645 3.19088 -1.6099 0
M  V30 3691 S 369.204 4.10164 -1.55918 0
M  V30 3692 H 366.022 0.617631 -0.352211 0
M  V30 3693 H 368.624 1.25575 -1.49837 0
M  V30 3694 H 367.328 3.11962 -2.66661 0
M  V30 3695 H 366.859 3.77941 -1.09197 0
M  V30 3696 H 368.874 4.92907 -0.570685 0
M  V30 3697 N 368.047 0.979072 1.23499 0
M  V30 3698 C 368.977 0.537606 2.27227 0
M  V30 3699 C 369.958 -0.428539 1.64613 0
M  V30 3700 O 371.143 -0.322191 1.91509 0
M  V30 3701 C 368.273 -0.162052 3.46922 0
M  V30 3702 C 367.227 0.721242 4.21879 0
M  V30 3703 C 366.553 -0.110555 5.34586 0
M  V30 3704 C 367.853 2.01141 4.82016 0
M  V30 3705 H 369.547 1.40462 2.64406 0
M  V30 3706 H 367.093 0.67684 1.27102 0
M  V30 3707 H 369.046 -0.482192 4.18632 0
M  V30 3708 H 367.77 -1.06351 3.08799 0
M  V30 3709 H 366.429 1.02482 3.51984 0
M  V30 3710 H 366.077 -1.0125 4.92704 0
M  V30 3711 H 365.777 0.477325 5.85658 0
M  V30 3712 H 367.301 -0.425107 6.09118 0
M  V30 3713 H 368.715 1.75612 5.45741 0
M  V30 3714 H 367.112 2.54695 5.43369 0
M  V30 3715 H 368.182 2.69909 4.02836 0
M  V30 3716 N 369.525 -1.3858 0.750561 0
M  V30 3717 C 370.435 -2.34278 0.122825 0
M  V30 3718 C 371.451 -1.59116 -0.704131 0
M  V30 3719 O 372.627 -1.91326 -0.628987 0
M  V30 3720 C 369.692 -3.38221 -0.762086 0
M  V30 3721 C 368.753 -4.29227 0.078896 0
M  V30 3722 C 367.986 -5.28205 -0.763874 0
M  V30 3723 O 368.209 -5.34112 -2.00201 0
M  V30 3724 O 367.143 -6.01618 -0.18428 0
M  V30 3725 H 370.969 -2.89649 0.913088 0
M  V30 3726 H 368.554 -1.40374 0.511417 0
M  V30 3727 H 370.436 -4.01872 -1.26793 0
M  V30 3728 H 369.111 -2.85211 -1.5309 0
M  V30 3729 H 368.018 -3.68747 0.630621 0
M  V30 3730 H 369.351 -4.85484 0.810289 0
M  V30 3731 N 371.003 -0.499398 -1.49478 0
M  V30 3732 C 372.228 0.044722 -2.07352 0
M  V30 3733 C 372.653 1.30207 -1.35749 0
M  V30 3734 O 372.011 1.76516 -0.413732 0
M  V30 3735 C 372.059 0.283013 -3.59488 0
M  V30 3736 O 371.163 1.35804 -3.89398 0
M  V30 3737 H 370.504 -0.0255147 -0.66351 0
M  V30 3738 H 373.034 -0.698561 -1.92305 0
M  V30 3739 H 373.044 0.515007 -4.04737 0
M  V30 3740 H 371.719 -0.635636 -4.11014 0
M  V30 3741 H 370.296 1.11113 -3.55961 0
M  V30 3742 N 372.481 1.55866 -0.233164 0
M  V30 3743 C 373.729 1.9821 0.394593 0
M  V30 3744 C 374.05 1.12234 1.59463 0
M  V30 3745 O 373.32 0.201981 1.94856 0
M  V30 3746 H 371.9 0.732034 0.148778 0
M  V30 3747 H 374.562 1.92107 -0.32876 0
M  V30 3748 H 373.658 3.03845 0.713063 0
M  V30 3749 N 373.959 -0.0401083 1.57549 0
M  V30 3750 C 375.184 -0.748931 1.93406 0
M  V30 3751 C 375.609 -1.68686 0.832274 0
M  V30 3752 O 374.967 -1.80047 -0.212818 0
M  V30 3753 C 375.015 -1.4916 3.28304 0
M  V30 3754 O 374.119 -2.6042 3.19774 0
M  V30 3755 H 373.46 -0.202212 0.63246 0
M  V30 3756 H 375.99 0.00112086 2.046 0
M  V30 3757 H 376 -1.86395 3.62934 0
M  V30 3758 H 374.675 -0.80364 4.08062 0
M  V30 3759 H 373.252 -2.25808 2.96758 0
M  V30 3760 N 375.437 -1.54477 -0.31217 0
M  V30 3761 C 376.686 -1.72438 -1.04633 0
M  V30 3762 C 376.999 -0.511163 -1.88803 0
M  V30 3763 O 378.205 -0.572341 -2.65399 0
M  V30 3764 C 376.661 -3.05043 -1.9099 0
M  V30 3765 C 376.269 -4.33806 -1.11877 0
M  V30 3766 C 378.013 -3.32364 -2.64073 0
M  V30 3767 C 375.92 -5.57467 -1.97445 0
M  V30 3768 H 374.85 -0.642647 -0.394361 0
M  V30 3769 H 377.501 -1.80966 -0.303929 0
M  V30 3770 H 375.883 -2.90451 -2.69173 0
M  V30 3771 H 377.057 -4.59199 -0.383843 0
M  V30 3772 H 375.372 -4.13336 -0.504252 0
M  V30 3773 H 377.969 -4.21951 -3.28423 0
M  V30 3774 H 378.312 -2.50745 -3.32314 0
M  V30 3775 H 378.845 -3.47875 -1.92944 0
M  V30 3776 H 375.584 -6.41722 -1.33692 0
M  V30 3777 H 375.104 -5.36277 -2.6864 0
M  V30 3778 H 376.783 -5.94303 -2.5576 0
M  V30 3779 N 376.915 0.57481 -1.46744 0
M  V30 3780 C 378.326 1.15695 -1.46532 0
M  V30 3781 C 378.677 1.95068 -0.210425 0
M  V30 3782 O 377.802 2.05241 0.685944 0
M  V30 3783 C 378.397 2.1048 -2.65487 0
M  V30 3784 C 376.956 2.64002 -2.68291 0
M  V30 3785 C 376.103 1.40026 -2.39349 0
M  V30 3786 H 379.054 0.362325 -1.54509 0
M  V30 3787 H 379.075 2.94074 -2.41455 0
M  V30 3788 H 378.587 1.52683 -3.56805 0
M  V30 3789 H 376.688 3.25646 -1.81067 0
M  V30 3790 H 376.801 3.06197 -3.68483 0
M  V30 3791 H 375.165 1.70106 -1.89568 0
M  V30 3792 H 375.948 0.840485 -3.32852 0
M  V30 3793 N 378.394 1.34581 0.820102 0
M  V30 3794 C 379.643 1.26437 1.57151 0
M  V30 3795 C 379.956 -0.163111 1.94919 0
M  V30 3796 O 381.162 -0.366722 2.69012 0
M  V30 3797 C 379.618 2.21658 2.83541 0
M  V30 3798 C 379.226 3.69679 2.53065 0
M  V30 3799 C 380.97 2.22428 3.61561 0
M  V30 3800 C 378.877 4.56761 3.75664 0
M  V30 3801 H 377.807 0.469707 0.589823 0
M  V30 3802 H 380.458 1.59763 0.902656 0
M  V30 3803 H 378.84 1.81287 3.52067 0
M  V30 3804 H 380.014 4.18605 1.92631 0
M  V30 3805 H 378.329 3.71384 1.88316 0
M  V30 3806 H 380.926 2.8471 4.52597 0
M  V30 3807 H 381.269 1.22434 3.97889 0
M  V30 3808 H 381.802 2.61259 2.99981 0
M  V30 3809 H 378.541 5.57702 3.44454 0
M  V30 3810 H 378.061 4.12568 4.35371 0
M  V30 3811 H 379.74 4.71509 4.43044 0
M  V30 3812 N 379.872 -1.04064 1.18357 0
M  V30 3813 C 380.802 -2.14001 0.934113 0
M  V30 3814 C 381.783 -1.69616 -0.128186 0
M  V30 3815 O 382.968 -1.94185 0.0244093 0
M  V30 3816 C 380.098 -3.44253 0.459066 0
M  V30 3817 C 379.052 -4.02261 1.46185 0
M  V30 3818 C 378.378 -5.27992 0.844322 0
M  V30 3819 C 379.678 -4.38432 2.83856 0
M  V30 3820 H 381.372 -2.35127 1.85352 0
M  V30 3821 H 378.918 -1.12998 0.892604 0
M  V30 3822 H 380.871 -4.20522 0.271907 0
M  V30 3823 H 379.595 -3.22813 -0.495912 0
M  V30 3824 H 378.254 -3.28074 1.63595 0
M  V30 3825 H 377.902 -5.02862 -0.117845 0
M  V30 3826 H 377.602 -5.67765 1.51384 0
M  V30 3827 H 379.126 -6.06938 0.667693 0
M  V30 3828 H 380.54 -5.05688 2.70098 0
M  V30 3829 H 378.937 -4.89254 3.47491 0
M  V30 3830 H 380.007 -3.4826 3.37406 0
M  V30 3831 N 381.35 -0.985608 -1.22978 0
M  V30 3832 C 382.59 -0.665487 -1.93263 0
M  V30 3833 C 382.954 0.78706 -1.75127 0
M  V30 3834 O 384.155 1.21826 -2.39608 0
M  V30 3835 C 382.426 -1.0515 -3.41582 0
M  V30 3836 S 383.985 -0.848637 -4.30516 0
M  V30 3837 H 380.803 -0.24355 -0.667985 0
M  V30 3838 H 383.405 -1.26635 -1.48942 0
M  V30 3839 H 382.109 -2.10517 -3.52293 0
M  V30 3840 H 381.64 -0.442134 -3.90908 0
M  V30 3841 H 383.655 0.264717 -4.95493 0
M  V30 3842 N 382.828 1.3818 -0.7579 0
M  V30 3843 C 384.239 1.82726 -0.383134 0
M  V30 3844 C 384.59 1.63214 1.08884 0
M  V30 3845 O 383.715 1.13566 1.84205 0
M  V30 3846 C 384.31 3.31728 -0.688631 0
M  V30 3847 C 382.869 3.74606 -0.367091 0
M  V30 3848 C 382.016 2.60896 -0.939599 0
M  V30 3849 H 384.967 1.26847 -0.953699 0
M  V30 3850 H 384.988 3.80487 0.0316492 0
M  V30 3851 H 384.5 3.45898 -1.76001 0
M  V30 3852 H 382.601 3.66013 0.697532 0
M  V30 3853 H 382.714 4.71215 -0.865658 0
M  V30 3854 H 381.078 2.52075 -0.3647 0
M  V30 3855 H 381.861 2.77864 -2.0161 0
M  V30 3856 N 384.306 0.507319 1.49211 0
M  V30 3857 C 385.555 -0.0368315 2.01666 0
M  V30 3858 C 385.868 -1.37459 1.39156 0
M  V30 3859 O 387.074 -2.00579 1.82976 0
M  V30 3860 C 385.53 -0.116089 3.59713 0
M  V30 3861 C 385.138 1.2154 4.31198 0
M  V30 3862 C 386.882 -0.610268 4.2009 0
M  V30 3863 C 384.789 1.09796 5.81119 0
M  V30 3864 H 383.719 -0.0175376 0.753796 0
M  V30 3865 H 386.37 0.647691 1.71689 0
M  V30 3866 H 384.752 -0.8652 3.86433 0
M  V30 3867 H 385.926 1.9783 4.16173 0
M  V30 3868 H 384.241 1.64352 3.82593 0
M  V30 3869 H 386.838 -0.715742 5.29888 0
M  V30 3870 H 387.181 -1.61064 3.8388 0
M  V30 3871 H 387.714 0.0824916 3.97714 0
M  V30 3872 H 384.453 2.0728 6.21864 0
M  V30 3873 H 383.973 0.376058 5.9862 0
M  V30 3874 H 385.652 0.779281 6.4229 0
M  V30 3875 N 385.784 -1.5574 0.241426 0
M  V30 3876 C 387.032 -1.98417 -0.384075 0
M  V30 3877 C 387.353 -1.13078 -1.58866 0
M  V30 3878 O 386.623 -0.212312 -1.94746 0
M  V30 3879 H 385.203 -0.732813 -0.144894 0
M  V30 3880 H 387.865 -1.9193 0.338943 0
M  V30 3881 H 386.961 -3.04219 -0.696939 0
M  V30 3882 N 387.262 0.0317525 -1.57568 0
M  V30 3883 C 388.172 1.05021 -2.0978 0
M  V30 3884 C 389.188 1.39809 -1.03583 0
M  V30 3885 O 390.364 1.49182 -1.35302 0
M  V30 3886 C 387.429 2.33301 -2.56459 0
M  V30 3887 C 386.49 2.0512 -3.77127 0
M  V30 3888 C 385.723 3.27283 -4.2157 0
M  V30 3889 O 385.946 4.37861 -3.65559 0
M  V30 3890 O 384.88 3.13141 -5.14029 0
M  V30 3891 H 388.706 0.636505 -2.96955 0
M  V30 3892 H 386.291 0.248559 -1.47318 0
M  V30 3893 H 388.173 3.08722 -2.86825 0
M  V30 3894 H 386.848 2.73973 -1.72397 0
M  V30 3895 H 385.755 1.27276 -3.51784 0
M  V30 3896 H 387.088 1.69305 -4.62165 0
M  V30 3897 N 388.74 1.54641 0.303973 0
M  V30 3898 C 389.968 1.77768 1.05858 0
M  V30 3899 C 390.383 0.535722 1.8104 0
M  V30 3900 O 389.74 -0.494337 1.75677 0
M  V30 3901 C 389.791 2.9834 2.04146 0
M  V30 3902 O 389.512 4.17736 1.32015 0
M  V30 3903 C 391.013 3.33832 2.91669 0
M  V30 3904 H 388.233 0.592961 0.314067 0
M  V30 3905 H 390.777 2.01583 0.344149 0
M  V30 3906 H 388.932 2.76742 2.71096 0
M  V30 3907 H 389.346 4.85693 1.97998 0
M  V30 3908 H 390.82 4.21448 3.56491 0
M  V30 3909 H 391.297 2.51857 3.59812 0
M  V30 3910 H 391.903 3.57579 2.30254 0
M  V30 3911 N 390.218 -0.567019 1.47046 0
M  V30 3912 C 391.181 -1.65696 1.58359 0
M  V30 3913 C 392.181 -1.54097 0.459441 0
M  V30 3914 O 393.371 -1.58432 0.724225 0
M  V30 3915 C 390.503 -3.05197 1.51879 0
M  V30 3916 H 391.696 -1.57019 2.5551 0
M  V30 3917 H 389.249 -0.786148 1.3509 0
M  V30 3918 H 389.984 -3.19417 0.560673 0
M  V30 3919 H 389.769 -3.15025 2.33455 0
M  V30 3920 H 391.259 -3.84511 1.62913 0
M  V30 3921 N 391.696 -1.35014 -0.812953 0
M  V30 3922 C 392.659 -1.27292 -1.90602 0
M  V30 3923 C 393.659 -0.185817 -1.59723 0
M  V30 3924 O 394.849 -0.439102 -1.68575 0
M  V30 3925 C 391.981 -0.967676 -3.26877 0
M  V30 3926 H 393.174 -2.24479 -1.9887 0
M  V30 3927 H 390.727 -1.19446 -1.00808 0
M  V30 3928 H 391.462 0.0005954 -3.243 0
M  V30 3929 H 391.247 -1.75412 -3.50675 0
M  V30 3930 H 392.737 -0.939085 -4.06904 0
M  V30 3931 N 393.175 1.03435 -1.18907 0
M  V30 3932 C 394.591 1.28973 -0.940111 0
M  V30 3933 C 394.791 1.97676 0.390691 0
M  V30 3934 O 393.847 2.26127 1.12352 0
M  V30 3935 C 395.16 2.14221 -2.11021 0
M  V30 3936 C 396.708 2.27547 -2.14922 0
M  V30 3937 C 397.183 3.16164 -3.31367 0
M  V30 3938 N 398.674 3.23752 -3.31269 0
M  V30 3939 C 399.409 3.92495 -4.18014 0
M  V30 3940 N 398.905 4.63515 -5.14904 0
M  V30 3941 N 400.698 3.88838 -4.05908 0
M  V30 3942 H 392.849 0.57252 -2.04538 0
M  V30 3943 H 395.112 0.315184 -0.894071 0
M  V30 3944 H 394.818 1.71054 -3.073 0
M  V30 3945 H 394.692 3.14919 -2.0762 0
M  V30 3946 H 397.079 2.69947 -1.19217 0
M  V30 3947 H 397.16 1.26418 -2.22378 0
M  V30 3948 H 396.804 2.74474 -4.27348 0
M  V30 3949 H 396.734 4.17339 -3.21148 0
M  V30 3950 H 399.225 2.73167 -2.61129 0
M  V30 3951 H 399.538 5.13583 -5.77453 0
M  V30 3952 H 397.883 4.62398 -5.18857 0
M  V30 3953 H 401.074 3.32491 -3.29495 0
M  V30 3954 H 401.247 4.4214 -4.73726 0
M  V30 3955 N 394.653 0.992116 1.22453 0
M  V30 3956 C 396.069 0.702713 1.43297 0
M  V30 3957 C 396.269 -0.726909 1.87932 0
M  V30 3958 O 395.325 -1.49792 2.0327 0
M  V30 3959 C 396.638 1.70762 2.47509 0
M  V30 3960 C 398.186 1.72298 2.61309 0
M  V30 3961 C 398.661 2.71649 3.68742 0
M  V30 3962 N 400.152 2.70239 3.76199 0
M  V30 3963 C 400.887 3.43778 4.58917 0
M  V30 3964 N 400.383 4.26914 5.45633 0
M  V30 3965 N 402.176 3.32487 4.5322 0
M  V30 3966 H 394.327 1.91543 0.917871 0
M  V30 3967 H 396.59 0.826031 0.465162 0
M  V30 3968 H 396.296 2.73059 2.21657 0
M  V30 3969 H 396.17 1.49985 3.46099 0
M  V30 3970 H 398.557 0.706989 2.86506 0
M  V30 3971 H 398.638 1.97143 1.62997 0
M  V30 3972 H 398.282 3.73397 3.44292 0
M  V30 3973 H 398.212 2.44074 4.66622 0
M  V30 3974 H 400.703 2.09912 3.14237 0
M  V30 3975 H 401.016 4.79855 6.05771 0
M  V30 3976 H 399.361 4.31002 5.45218 0
M  V30 3977 H 402.552 2.6698 3.84499 0
M  V30 3978 H 402.725 3.90058 5.17454 0
M  V30 3979 N 396.131 -1.37776 0.765217 0
M  V30 3980 C 397.356 -2.04651 0.336537 0
M  V30 3981 C 397.781 -1.57337 -1.03086 0
M  V30 3982 O 397.139 -0.730621 -1.65927 0
M  V30 3983 C 397.187 -3.58577 0.381468 0
M  V30 3984 O 396.291 -4.07706 -0.62042 0
M  V30 3985 H 395.632 -0.64756 0.146838 0
M  V30 3986 H 398.162 -1.76221 1.03959 0
M  V30 3987 H 398.172 -4.07314 0.236448 0
M  V30 3988 H 396.847 -3.9237 1.37907 0
M  V30 3989 H 395.424 -3.70306 -0.439056 0
M  V30 3990 N 397.609 -0.515225 -1.4894 0
M  V30 3991 C 398.855 0.0242508 -2.02785 0
M  V30 3992 C 399.188 1.35323 -1.39289 0
M  V30 3993 O 398.463 1.87041 -0.533469 0
M  V30 3994 C 398.746 0.16184 -3.59736 0
M  V30 3995 C 398.599 -1.19127 -4.33738 0
M  V30 3996 C 399.918 0.895719 -4.30888 0
M  V30 3997 H 397.037 0.00733914 -0.736963 0
M  V30 3998 H 399.679 -0.669395 -1.77818 0
M  V30 3999 H 397.829 0.752624 -3.8114 0
M  V30 4000 H 399.501 -1.82202 -4.23792 0
M  V30 4001 H 397.744 -1.77695 -3.95736 0
M  V30 4002 H 398.415 -1.04815 -5.41957 0
M  V30 4003 H 400.891 0.394528 -4.14225 0
M  V30 4004 H 399.767 0.960859 -5.40425 0
M  V30 4005 H 400.028 1.9427 -3.97129 0
M  V30 4006 N 399.087 1.5561 -0.249682 0
M  V30 4007 C 400.017 2.24477 0.642826 0
M  V30 4008 C 400.998 1.22601 1.17911 0
M  V30 4009 O 402.183 1.5126 1.21795 0
M  V30 4010 C 399.313 2.94638 1.83863 0
M  V30 4011 C 398.267 4.03227 1.435 0
M  V30 4012 C 397.593 4.60828 2.71186 0
M  V30 4013 C 398.893 5.18796 0.604002 0
M  V30 4014 H 400.587 2.99321 0.0685625 0
M  V30 4015 H 398.133 1.43965 0.0315363 0
M  V30 4016 H 400.086 3.41517 2.46868 0
M  V30 4017 H 398.81 2.17287 2.43832 0
M  V30 4018 H 397.469 3.57121 0.828275 0
M  V30 4019 H 397.117 3.80174 3.29358 0
M  V30 4020 H 396.817 5.34132 2.44901 0
M  V30 4021 H 398.341 5.10442 3.35084 0
M  V30 4022 H 399.755 5.61883 1.13842 0
M  V30 4023 H 398.152 5.98506 0.437097 0
M  V30 4024 H 399.222 4.83384 -0.383147 0
M  V30 4025 N 400.565 -0.0233959 1.57583 0
M  V30 4026 C 401.495 -1.02162 2.09965 0
M  V30 4027 C 402.476 -1.3735 1.00344 0
M  V30 4028 O 403.661 -1.46135 1.27899 0
M  V30 4029 C 400.791 -2.32081 2.58371 0
M  V30 4030 C 399.745 -2.1112 3.72307 0
M  V30 4031 C 399.071 -3.46848 4.06941 0
M  V30 4032 C 400.371 -1.49276 5.00514 0
M  V30 4033 H 402.065 -0.585557 2.93618 0
M  V30 4034 H 399.611 -0.280218 1.41247 0
M  V30 4035 H 401.564 -3.02249 2.93639 0
M  V30 4036 H 400.288 -2.77758 1.71808 0
M  V30 4037 H 398.947 -1.43384 3.37397 0
M  V30 4038 H 398.595 -3.90184 3.17436 0
M  V30 4039 H 398.295 -3.33646 4.83688 0
M  V30 4040 H 399.819 -4.18369 4.44747 0
M  V30 4041 H 401.233 -2.09368 5.33702 0
M  V30 4042 H 399.63 -1.46632 5.8191 0
M  V30 4043 H 400.7 -0.459217 4.82721 0
M  V30 4044 N 402.043 -1.548 -0.295768 0
M  V30 4045 C 403.32 -1.65014 -1.05023 0
M  V30 4046 C 403.7 -0.501805 -2.05049 0
M  V30 4047 O 403.048 0.500869 -2.22943 0
M  V30 4048 C 403.258 -3.03252 -1.72741 0
M  V30 4049 C 404.606 -3.60242 -2.24746 0
M  V30 4050 O 405.63 -3.05737 -1.82765 0
M  V30 4051 O 404.489 -4.55687 -3.01681 0
M  V30 4052 H 401.583 -0.669314 -0.485744 0
M  V30 4053 H 404.129 -1.67144 -0.293438 0
M  V30 4054 H 402.901 -3.7827 -1.00138 0
M  V30 4055 H 402.524 -3.04922 -2.55163 0
M  V30 4056 N 403.521 0.559213 -1.47345 0
M  V30 4057 C 404.746 1.34676 -1.57725 0
M  V30 4058 C 405.171 1.86723 -0.227164 0
M  V30 4059 O 404.529 1.6286 0.796642 0
M  V30 4060 C 404.577 2.49399 -2.60447 0
M  V30 4061 O 403.681 3.51567 -2.15578 0
M  V30 4062 H 403.022 0.400115 -0.52991 0
M  V30 4063 H 405.552 0.676009 -1.93109 0
M  V30 4064 H 405.562 2.95996 -2.80803 0
M  V30 4065 H 404.237 2.10873 -3.58477 0
M  V30 4066 H 402.814 3.11289 -2.05313 0
M  V30 4067 N 404.999 1.35443 0.805782 0
M  V30 4068 C 405.929 1.31095 1.93226 0
M  V30 4069 C 406.91 0.185244 1.69088 0
M  V30 4070 O 408.095 0.380332 1.90439 0
M  V30 4071 C 405.225 1.08299 3.29983 0
M  V30 4072 C 404.179 2.17519 3.68605 0
M  V30 4073 C 403.505 1.79887 5.03532 0
M  V30 4074 C 404.805 3.5949 3.78898 0
M  V30 4075 H 406.499 2.25352 1.97122 0
M  V30 4076 H 404.045 1.0848 0.946996 0
M  V30 4077 H 405.998 1.03897 4.08391 0
M  V30 4078 H 404.722 0.104885 3.26432 0
M  V30 4079 H 403.381 2.2102 2.92482 0
M  V30 4080 H 403.029 0.80693 4.96485 0
M  V30 4081 H 402.729 2.53001 5.30344 0
M  V30 4082 H 404.253 1.77011 5.84379 0
M  V30 4083 H 405.667 3.58307 4.47536 0
M  V30 4084 H 404.064 4.31371 4.1718 0
M  V30 4085 H 405.134 3.95584 2.80431 0
M  V30 4086 N 406.477 -1.02803 1.19454 0
M  V30 4087 C 407.387 -2.14575 0.948408 0
M  V30 4088 C 408.403 -1.73757 -0.091871 0
M  V30 4089 O 409.579 -2.01185 0.0929654 0
M  V30 4090 C 406.644 -3.43202 0.491265 0
M  V30 4091 C 405.705 -3.98328 1.60103 0
M  V30 4092 C 404.938 -5.20816 1.16561 0
M  V30 4093 O 405.161 -5.70392 0.0295238 0
M  V30 4094 O 404.095 -5.68801 1.96849 0
M  V30 4095 H 407.921 -2.38202 1.88397 0
M  V30 4096 H 405.506 -1.12989 0.977433 0
M  V30 4097 H 407.388 -4.20687 0.245015 0
M  V30 4098 H 406.063 -3.21018 -0.415851 0
M  V30 4099 H 404.97 -3.22174 1.90144 0
M  V30 4100 H 406.303 -4.24879 2.48473 0
M  V30 4101 N 407.956 -0.998596 -1.21925 0
M  V30 4102 C 409.202 -0.678667 -1.91107 0
M  V30 4103 C 409.535 0.78791 -1.77498 0
M  V30 4104 O 408.81 1.57043 -1.1475 0
M  V30 4105 C 409.093 -1.09245 -3.43129 0
M  V30 4106 C 408.946 -2.61801 -3.6576 0
M  V30 4107 C 410.265 -0.649984 -4.35274 0
M  V30 4108 H 407.384 -0.248025 -0.694012 0
M  V30 4109 H 410.026 -1.24314 -1.43688 0
M  V30 4110 H 408.176 -0.612171 -3.83647 0
M  V30 4111 H 409.848 -3.17543 -3.34611 0
M  V30 4112 H 408.091 -3.03609 -3.09845 0
M  V30 4113 H 408.762 -2.85804 -4.7225 0
M  V30 4114 H 411.238 -1.0626 -4.02303 0
M  V30 4115 H 410.114 -0.967743 -5.40302 0
M  V30 4116 H 410.375 0.449139 -4.39813 0
M  V30 4117 N 409.434 1.37368 -0.772513 0
M  V30 4118 C 410.662 2.03942 -0.348588 0
M  V30 4119 C 411.077 1.58264 1.02947 0
M  V30 4120 O 410.434 0.764246 1.65727 0
M  V30 4121 C 410.485 3.5946 -0.38351 0
M  V30 4122 O 410.206 4.03468 -1.70721 0
M  V30 4123 C 411.707 4.4327 0.0519152 0
M  V30 4124 H 408.927 0.654931 -0.145966 0
M  V30 4125 H 411.471 1.75686 -1.04665 0
M  V30 4126 H 409.626 3.86486 0.265978 0
M  V30 4127 H 410.04 4.97991 -1.64636 0
M  V30 4128 H 411.514 5.51995 -0.0236733 0
M  V30 4129 H 411.991 4.2514 1.10238 0
M  V30 4130 H 412.597 4.21471 -0.569415 0
M  V30 4131 N 410.912 0.523116 1.48665 0
M  V30 4132 C 411.875 -0.232592 2.28017 0
M  V30 4133 C 412.875 -0.874021 1.34972 0
M  V30 4134 O 414.065 -0.735132 1.57929 0
M  V30 4135 C 411.197 -1.33586 3.13636 0
M  V30 4136 H 412.39 0.464008 2.96289 0
M  V30 4137 H 409.943 0.278816 1.53793 0
M  V30 4138 H 410.678 -2.06593 2.4998 0
M  V30 4139 H 410.463 -0.881125 3.82071 0
M  V30 4140 H 411.953 -1.86759 3.73511 0
M  V30 4141 N 412.39 -1.55475 0.257931 0
M  V30 4142 C 413.615 -2.04064 -0.370488 0
M  V30 4143 C 414.04 -1.13565 -1.49948 0
M  V30 4144 O 413.398 -0.130781 -1.80828 0
M  V30 4145 C 413.446 -3.50554 -0.845237 0
M  V30 4146 O 412.55 -3.63173 -1.95394 0
M  V30 4147 H 411.891 -0.659257 -0.0792243 0
M  V30 4148 H 414.421 -2.00903 0.387212 0
M  V30 4149 H 414.431 -3.91588 -1.14555 0
M  V30 4150 H 413.106 -4.15896 -0.0191259 0
M  V30 4151 H 411.683 -3.34039 -1.65748 0
M  V30 4152 N 413.868 0.0150385 -1.57593 0
M  V30 4153 C 414.798 1.01047 -2.10503 0
M  V30 4154 C 415.779 1.36816 -1.01071 0
M  V30 4155 O 416.964 1.45455 -1.28672 0
M  V30 4156 C 414.094 2.30708 -2.59598 0
M  V30 4157 C 413.048 2.09142 -3.73421 0
M  V30 4158 C 412.374 3.44685 -4.08774 0
M  V30 4159 C 413.674 1.46619 -5.01298 0
M  V30 4160 H 415.368 0.569978 -2.93925 0
M  V30 4161 H 412.914 0.272724 -1.41394 0
M  V30 4162 H 414.867 3.00687 -2.95238 0
M  V30 4163 H 413.591 2.76843 -1.73279 0
M  V30 4164 H 412.25 1.41592 -3.38153 0
M  V30 4165 H 411.898 3.88495 -3.195 0
M  V30 4166 H 411.598 3.31077 -4.8545 0
M  V30 4167 H 413.122 4.16004 -4.4696 0
M  V30 4168 H 414.536 2.06535 -5.34805 0
M  V30 4169 H 412.933 1.43544 -5.82679 0
M  V30 4170 H 414.003 0.433611 -4.82957 0
M  V30 4171 N 415.346 1.54954 0.287554 0
M  V30 4172 C 416.309 1.86076 1.33823 0
M  V30 4173 C 417.309 0.734414 1.43049 0
M  V30 4174 O 418.499 1.00266 1.42452 0
M  V30 4175 C 415.631 2.05305 2.72144 0
M  V30 4176 H 416.824 2.79984 1.07465 0
M  V30 4177 H 414.377 1.47223 0.524902 0
M  V30 4178 H 415.112 1.1373 3.03704 0
M  V30 4179 H 414.897 2.873 2.66836 0
M  V30 4180 H 416.387 2.30706 3.48087 0
M  V30 4181 N 416.824 -0.551391 1.4764 0
M  V30 4182 C 417.771 -1.65796 1.60563 0
M  V30 4183 C 418.741 -1.59932 0.448428 0
M  V30 4184 O 419.926 -1.78679 0.669222 0
M  V30 4185 C 417.066 -3.04108 1.63133 0
M  V30 4186 C 416.179 -3.20365 2.89811 0
M  V30 4187 C 415.314 -4.49109 2.8368 0
M  V30 4188 C 414.353 -4.58819 4.05156 0
M  V30 4189 N 413.49 -5.78926 3.97227 0
M  V30 4190 H 418.33 -1.54088 2.5507 0
M  V30 4191 H 415.867 -0.75052 1.26513 0
M  V30 4192 H 417.825 -3.84207 1.62606 0
M  V30 4193 H 416.455 -3.14637 0.721341 0
M  V30 4194 H 415.507 -2.33659 3.00179 0
M  V30 4195 H 416.819 -3.23402 3.79753 0
M  V30 4196 H 415.973 -5.37475 2.81434 0
M  V30 4197 H 414.712 -4.4856 1.91431 0
M  V30 4198 H 413.717 -3.68864 4.077 0
M  V30 4199 H 414.942 -4.61124 4.98539 0
M  V30 4200 H 412.888 -5.79314 3.07785 0
M  V30 4201 H 412.805 -5.83367 4.80853 0
M  V30 4202 H 414.073 -6.69637 3.99007 0
M  V30 4203 N 418.302 -1.35869 -0.798587 0
M  V30 4204 C 419.265 -1.29307 -1.89242 0
M  V30 4205 C 420.265 -0.202747 -1.59517 0
M  V30 4206 O 421.455 -0.456957 -1.681 0
M  V30 4207 C 418.587 -1.00229 -3.25833 0
M  V30 4208 H 419.78 -2.26576 -1.96478 0
M  V30 4209 H 417.333 -1.20509 -0.995358 0
M  V30 4210 H 418.068 -0.033801 -3.24282 0
M  V30 4211 H 417.853 -1.79121 -3.48795 0
M  V30 4212 H 419.343 -0.98219 -4.05885 0
M  V30 4213 N 419.78 1.02168 -1.19998 0
M  V30 4214 C 420.71 2.12488 -0.96804 0
M  V30 4215 C 421.691 1.69799 0.101185 0
M  V30 4216 O 422.876 1.94121 -0.0552993 0
M  V30 4217 C 420.006 3.43479 -0.513776 0
M  V30 4218 C 418.96 3.99884 -1.52566 0
M  V30 4219 C 418.286 5.26582 -0.928214 0
M  V30 4220 C 419.586 4.33861 -2.90795 0
M  V30 4221 H 421.28 2.32149 -1.89069 0
M  V30 4222 H 418.826 1.11564 -0.910468 0
M  V30 4223 H 420.779 4.20036 -0.338774 0
M  V30 4224 H 419.503 3.23561 0.444493 0
M  V30 4225 H 418.162 3.25429 -1.68794 0
M  V30 4226 H 417.81 5.02986 0.0378289 0
M  V30 4227 H 417.51 5.65284 -1.60397 0
M  V30 4228 H 419.034 6.05799 -0.764167 0
M  V30 4229 H 420.448 5.01327 -2.78109 0
M  V30 4230 H 418.845 4.83664 -3.55231 0
M  V30 4231 H 419.915 3.42848 -3.42904 0
M  V30 4232 N 421.258 1.00505 1.21394 0
M  V30 4233 C 422.674 0.717873 1.42544 0
M  V30 4234 C 422.874 -0.706936 1.88692 0
M  V30 4235 O 421.93 -1.47627 2.04847 0
M  V30 4236 C 423.243 1.73377 2.45684 0
M  V30 4237 C 424.791 1.75059 2.59467 0
M  V30 4238 C 425.266 2.75545 3.6584 0
M  V30 4239 N 426.757 2.74213 3.73311 0
M  V30 4240 C 427.492 3.48626 4.55245 0
M  V30 4241 N 426.988 4.32678 5.41075 0
M  V30 4242 N 428.781 3.37276 4.49668 0
M  V30 4243 H 420.932 1.92506 0.897503 0
M  V30 4244 H 423.195 0.830919 0.456375 0
M  V30 4245 H 422.901 2.75395 2.18748 0
M  V30 4246 H 422.775 1.53647 3.44489 0
M  V30 4247 H 425.162 0.737337 2.8574 0
M  V30 4248 H 425.243 1.98861 1.60897 0
M  V30 4249 H 424.887 3.77028 3.40313 0
M  V30 4250 H 424.817 2.49009 4.64007 0
M  V30 4251 H 427.308 2.13234 3.11993 0
M  V30 4252 H 427.621 4.86253 6.00648 0
M  V30 4253 H 425.966 4.3676 5.40616 0
M  V30 4254 H 429.157 2.71043 3.81646 0
M  V30 4255 H 429.33 3.95524 5.13288 0
M  V30 4256 N 422.737 -1.36956 0.779787 0
M  V30 4257 C 424.148 -1.82094 0.412156 0
M  V30 4258 C 424.499 -1.64926 -1.06273 0
M  V30 4259 O 423.624 -1.16483 -1.82375 0
M  V30 4260 C 424.219 -3.3059 0.741319 0
M  V30 4261 C 422.778 -3.73974 0.426641 0
M  V30 4262 C 421.925 -2.59368 0.980987 0
M  V30 4263 H 424.876 -1.25314 0.973758 0
M  V30 4264 H 424.897 -3.80489 0.028887 0
M  V30 4265 H 424.409 -3.43054 1.81482 0
M  V30 4266 H 422.51 -3.67076 -0.639215 0
M  V30 4267 H 422.623 -4.69778 0.940515 0
M  V30 4268 H 420.987 -2.51463 0.404757 0
M  V30 4269 H 421.77 -2.74621 2.06005 0
M  V30 4270 N 424.215 -0.530993 -1.48385 0
M  V30 4271 C 425.443 -0.00134122 -2.069 0
M  V30 4272 C 425.858 1.2805 -1.3874 0
M  V30 4273 O 425.215 1.76204 -0.475244 0
M  V30 4274 C 425.266 0.225256 -3.60798 0
M  V30 4275 O 424.987 -1.0058 -4.26398 0
M  V30 4276 C 426.488 0.795172 -4.3611 0
M  V30 4277 H 423.708 -0.0339704 -0.67014 0
M  V30 4278 H 426.252 -0.736926 -1.90761 0
M  V30 4279 H 424.407 0.910891 -3.76539 0
M  V30 4280 H 424.821 -0.787165 -5.1856 0
M  V30 4281 H 426.295 0.903143 -5.44562 0
M  V30 4282 H 426.772 1.80031 -4.00606 0
M  V30 4283 H 427.378 0.146069 -4.25049 0
M  V30 4284 N 425.693 1.55336 -0.266172 0
M  V30 4285 C 426.64 2.22172 0.625165 0
M  V30 4286 C 427.61 1.19211 1.15663 0
M  V30 4287 O 428.795 1.47723 1.20758 0
M  V30 4288 C 425.935 2.93972 1.8076 0
M  V30 4289 C 425.048 4.11632 1.31084 0
M  V30 4290 C 424.183 4.71099 2.45436 0
M  V30 4291 C 423.222 5.8097 1.92718 0
M  V30 4292 N 422.359 6.34538 3.00509 0
M  V30 4293 H 427.199 2.9796 0.0485582 0
M  V30 4294 H 424.736 1.47095 0.0122024 0
M  V30 4295 H 426.694 3.33811 2.50251 0
M  V30 4296 H 425.324 2.20623 2.35638 0
M  V30 4297 H 424.376 3.76975 0.509326 0
M  V30 4298 H 425.688 4.90893 0.884633 0
M  V30 4299 H 424.842 5.13612 3.22936 0
M  V30 4300 H 423.581 3.91096 2.91368 0
M  V30 4301 H 422.586 5.37916 1.13695 0
M  V30 4302 H 423.811 6.62836 1.47733 0
M  V30 4303 H 421.757 5.57433 3.45839 0
M  V30 4304 H 421.674 7.09046 2.62279 0
M  V30 4305 H 422.942 6.81709 3.78011 0
M  V30 4306 N 427.171 -0.0066808 1.57599 0
M  V30 4307 C 428.42 -0.692078 1.89455 0
M  V30 4308 C 428.733 -1.75306 0.867586 0
M  V30 4309 O 429.939 -2.49262 1.07614 0
M  V30 4310 C 428.395 -1.2821 3.36289 0
M  V30 4311 C 428.003 -0.256291 4.47266 0
M  V30 4312 C 429.747 -1.94608 3.77264 0
M  V30 4313 C 427.654 -0.855927 5.85173 0
M  V30 4314 H 426.584 -0.262252 0.706923 0
M  V30 4315 H 429.235 0.052769 1.83424 0
M  V30 4316 H 427.617 -2.0774 3.37135 0
M  V30 4317 H 428.791 0.513923 4.57925 0
M  V30 4318 H 427.106 0.306862 4.15268 0
M  V30 4319 H 429.703 -2.40364 4.77629 0
M  V30 4320 H 430.046 -2.77382 3.10427 0
M  V30 4321 H 430.579 -1.21822 3.78688 0
M  V30 4322 H 427.318 -0.0671161 6.55466 0
M  V30 4323 H 426.838 -1.59546 5.78191 0
M  V30 4324 H 428.517 -1.35658 6.32618 0
M  V30 4325 N 428.649 -1.55105 -0.279332 0
M  V30 4326 C 429.898 -1.74618 -1.00952 0
M  V30 4327 C 430.211 -0.551096 -1.87676 0
M  V30 4328 O 431.417 -0.628507 -2.64125 0
M  V30 4329 C 429.873 -3.09025 -1.84476 0
M  V30 4330 C 429.481 -4.36081 -1.0265 0
M  V30 4331 C 431.225 -3.37891 -2.56963 0
M  V30 4332 C 429.132 -5.6153 -1.85576 0
M  V30 4333 H 428.062 -0.650868 -0.38064 0
M  V30 4334 H 430.713 -1.81569 -0.265475 0
M  V30 4335 H 429.095 -2.96095 -2.62952 0
M  V30 4336 H 430.269 -4.59909 -0.286354 0
M  V30 4337 H 428.584 -4.14312 -0.416464 0
M  V30 4338 H 431.181 -4.28822 -3.19399 0
M  V30 4339 H 431.524 -2.57737 -3.26921 0
M  V30 4340 H 432.057 -3.5189 -1.85522 0
M  V30 4341 H 428.796 -6.44413 -1.2005 0
M  V30 4342 H 428.316 -5.41854 -2.57204 0
M  V30 4343 H 429.995 -5.99594 -2.43096 0
M  V30 4344 N 430.127 0.543554 -1.4793 0
M  V30 4345 C 431.374 1.30008 -1.55255 0
M  V30 4346 C 431.702 1.93245 -0.220612 0
M  V30 4347 O 430.957 1.79141 0.787843 0
M  V30 4348 C 431.256 2.42078 -2.62932 0
M  V30 4349 C 430.922 1.96583 -4.0579 0
M  V30 4350 C 429.584 1.83893 -4.44676 0
M  V30 4351 C 431.936 1.62034 -4.95373 0
M  V30 4352 C 429.264 1.34969 -5.70964 0
M  V30 4353 C 431.616 1.14577 -6.22137 0
M  V30 4354 C 430.28 1.00493 -6.59892 0
M  V30 4355 H 429.55 0.475735 -0.568117 0
M  V30 4356 H 432.197 0.608075 -1.81589 0
M  V30 4357 H 430.502 3.16892 -2.30406 0
M  V30 4358 H 432.199 3.00236 -2.65818 0
M  V30 4359 H 428.789 2.07407 -3.75074 0
M  V30 4360 H 432.973 1.70705 -4.66019 0
M  V30 4361 H 428.229 1.2274 -5.98953 0
M  V30 4362 H 432.403 0.869109 -6.90955 0
M  V30 4363 H 430.03 0.623624 -7.57638 0
M  V30 4364 N 431.605 1.3629 0.791371 0
M  V30 4365 C 432.535 1.33137 1.91825 0
M  V30 4366 C 433.516 0.203168 1.68882 0
M  V30 4367 O 434.701 0.400509 1.90025 0
M  V30 4368 C 431.831 1.11793 3.28816 0
M  V30 4369 C 430.785 2.21417 3.66277 0
M  V30 4370 C 430.111 1.85218 5.01596 0
M  V30 4371 C 431.411 3.63489 3.75064 0
M  V30 4372 H 433.105 2.2743 1.9472 0
M  V30 4373 H 430.651 1.09479 0.935437 0
M  V30 4374 H 432.604 1.08222 4.07266 0
M  V30 4375 H 431.328 0.139501 3.26302 0
M  V30 4376 H 429.987 2.2411 2.90121 0
M  V30 4377 H 429.635 0.859544 4.95602 0
M  V30 4378 H 429.335 2.58611 5.27631 0
M  V30 4379 H 430.859 1.832 5.82469 0
M  V30 4380 H 432.273 3.63034 4.43711 0
M  V30 4381 H 430.67 4.35771 4.12582 0
M  V30 4382 H 431.74 3.98536 2.76219 0
M  V30 4383 N 433.083 -1.0153 1.20538 0
M  V30 4384 C 434.031 -2.12215 0.952235 0
M  V30 4385 C 435.025 -1.69123 -0.0968735 0
M  V30 4386 O 436.231 -1.7992 0.0536006 0
M  V30 4387 H 432.606 -0.693576 0.290613 0
M  V30 4388 H 434.577 -2.3075 1.89201 0
M  V30 4389 C 433.326 -3.43755 0.522287 0
M  V30 4390 H 432.649 -3.7734 1.32115 0
M  V30 4391 H 434.089 -4.22254 0.384389 0
M  V30 4392 C 432.548 -3.28088 -0.765489 0
M  V30 4393 O 433.078 -3.57921 -1.8236 0
M  V30 4394 N 431.284 -2.81333 -0.728011 0
M  V30 4395 H 430.831 -2.57255 0.133332 0
M  V30 4396 H 430.789 -2.71232 -1.58999 0
M  V30 4397 N 434.561 -1.01147 -1.20859 0
M  V30 4398 C 435.509 -0.57059 -2.25493 0
M  V30 4399 C 436.503 0.388109 -1.64894 0
M  V30 4400 O 437.709 0.258592 -1.78133 0
M  V30 4401 H 434.084 -0.166191 -0.733406 0
M  V30 4402 H 436.055 -1.46411 -2.60012 0
M  V30 4403 C 434.804 0.0805241 -3.47607 0
M  V30 4404 H 434.127 -0.648156 -3.94511 0
M  V30 4405 H 435.567 0.352197 -4.22535 0
M  V30 4406 C 434.026 1.32175 -3.09889 0
M  V30 4407 O 434.556 2.41553 -3.20959 0
M  V30 4408 N 432.762 1.20392 -2.64488 0
M  V30 4409 H 432.309 0.313905 -2.5568 0
M  V30 4410 H 432.267 2.03541 -2.39621 0
M  V30 4411 N 436.039 1.36541 -0.78704 0
M  V30 4412 C 437.267 2.03561 -0.370199 0
M  V30 4413 C 437.682 1.59347 1.01263 0
M  V30 4414 O 437.039 0.781781 1.64907 0
M  V30 4415 C 437.09 3.59033 -0.421614 0
M  V30 4416 O 436.811 4.01634 -1.7499 0
M  V30 4417 C 438.312 4.433 0.00489763 0
M  V30 4418 H 435.532 0.653346 -0.152904 0
M  V30 4419 H 438.076 1.74566 -1.06522 0
M  V30 4420 H 436.231 3.86746 0.224971 0
M  V30 4421 H 436.645 4.96217 -1.69909 0
M  V30 4422 H 438.119 5.51939 -0.0822184 0
M  V30 4423 H 438.596 4.26285 1.05723 0
M  V30 4424 H 439.202 4.20843 -0.614085 0
M  V30 4425 N 437.518 0.538854 1.48102 0
M  V30 4426 C 438.766 0.00798599 2.02098 0
M  V30 4427 C 439.087 -1.33922 1.41739 0
M  V30 4428 O 438.357 -1.86932 0.585934 0
M  V30 4429 H 436.937 -3.62179e-05 0.747 0
M  V30 4430 H 439.599 0.7047 1.81714 0
M  V30 4431 H 438.695 -0.0937672 3.11959 0
M  V30 4432 N 438.996 -1.55193 0.274407 0
M  V30 4433 C 440.244 -1.99187 -0.341902 0
M  V30 4434 C 440.565 -1.16422 -1.56431 0
M  V30 4435 O 439.835 -0.253573 -1.94252 0
M  V30 4436 H 438.415 -0.735721 -0.129317 0
M  V30 4437 H 441.077 -1.91168 0.379578 0
M  V30 4438 H 440.173 -3.05629 -0.632253 0
M  V30 4439 N 440.474 -0.00167713 -1.576 0
M  V30 4440 C 441.404 0.988091 -2.11563 0
M  V30 4441 C 442.385 1.35736 -1.02517 0
M  V30 4442 O 443.57 1.44082 -1.30208 0
M  V30 4443 C 440.7 2.27941 -2.62031 0
M  V30 4444 C 439.654 2.0517 -3.75619 0
M  V30 4445 C 438.98 3.4033 -4.12407 0
M  V30 4446 C 440.28 1.41294 -5.02825 0
M  V30 4447 H 441.974 0.538771 -2.94513 0
M  V30 4448 H 439.52 0.257712 -1.41675 0
M  V30 4449 H 441.473 2.97539 -2.9841 0
M  V30 4450 H 440.197 2.74989 -1.76205 0
M  V30 4451 H 438.856 1.37998 -3.39635 0
M  V30 4452 H 438.504 3.85085 -3.23603 0
M  V30 4453 H 438.204 3.25909 -4.88935 0
M  V30 4454 H 439.728 4.1124 -4.51347 0
M  V30 4455 H 441.142 2.00851 -5.36965 0
M  V30 4456 H 439.539 1.37356 -5.84169 0
M  V30 4457 H 440.609 0.382362 -4.8339 0
M  V30 4458 N 441.952 1.55251 0.271103 0
M  V30 4459 C 443.368 1.47133 0.618393 0
M  V30 4460 C 443.568 0.686994 1.89427 0
M  V30 4461 O 442.624 0.206609 2.51653 0
M  V30 4462 C 443.937 2.91361 0.743593 0
M  V30 4463 C 445.485 3.01587 0.837522 0
M  V30 4464 C 445.96 4.47073 0.994483 0
M  V30 4465 N 447.451 4.50909 1.05996 0
M  V30 4466 C 448.186 5.60698 1.20024 0
M  V30 4467 N 447.682 6.80348 1.30759 0
M  V30 4468 N 449.475 5.48444 1.23149 0
M  V30 4469 H 441.626 2.04698 -0.566784 0
M  V30 4470 H 443.889 0.928319 -0.192165 0
M  V30 4471 H 443.595 3.51483 -0.123493 0
M  V30 4472 H 443.469 3.40484 1.62328 0
M  V30 4473 H 445.856 2.4156 1.69507 0
M  V30 4474 H 445.937 2.55713 -0.0668086 0
M  V30 4475 H 445.581 5.07703 0.141582 0
M  V30 4476 H 445.511 4.90605 1.91349 0
M  V30 4477 H 448.002 3.6472 0.989316 0
M  V30 4478 H 448.315 7.59772 1.41303 0
M  V30 4479 H 446.66 6.83156 1.27761 0
M  V30 4480 H 449.851 4.53907 1.14394 0
M  V30 4481 H 450.024 6.34049 1.33738 0
M  V30 4482 N 443.43 -0.535701 1.48216 0
M  V30 4483 C 444.707 -1.29683 1.46429 0
M  V30 4484 C 445.087 -2.10391 0.172852 0
M  V30 4485 O 444.435 -2.12282 -0.845488 0
M  V30 4486 C 444.645 -2.18313 2.72287 0
M  V30 4487 C 445.993 -2.78639 3.20383 0
M  V30 4488 O 447.017 -2.28604 2.73164 0
M  V30 4489 O 445.876 -3.69636 4.02531 0
M  V30 4490 H 442.97 -0.585026 0.584529 0
M  V30 4491 H 445.516 -0.552827 1.60443 0
M  V30 4492 H 444.288 -1.58421 3.57797 0
M  V30 4493 H 443.911 -2.99971 2.60966 0
M  V30 4494 N 444.908 -1.36708 -0.784132 0
M  V30 4495 C 446.133 -1.34565 -1.5782 0
M  V30 4496 C 446.558 0.0695257 -1.87971 0
M  V30 4497 O 445.916 1.04302 -1.48293 0
M  V30 4498 C 445.964 -2.17952 -2.87279 0
M  V30 4499 O 445.068 -1.57563 -3.81114 0
M  V30 4500 H 444.409 -0.460337 -0.478524 0
M  V30 4501 H 446.939 -1.80064 -0.971495 0
M  V30 4502 H 446.949 -2.30721 -3.365 0
M  V30 4503 H 445.624 -3.20823 -2.64661 0
M  V30 4504 H 444.201 -1.53764 -3.39722 0
M  V30 4505 N 446.386 1.0089 -1.21074 0
M  V30 4506 C 447.611 1.78727 -1.05221 0
M  V30 4507 C 448.036 1.83932 0.393795 0
M  V30 4508 O 447.394 1.28004 1.28393 0
M  V30 4509 C 447.442 3.20665 -1.64944 0
M  V30 4510 O 446.546 4.02632 -0.892273 0
M  V30 4511 H 445.887 0.550973 -0.370574 0
M  V30 4512 H 448.417 1.26847 -1.60534 0
M  V30 4513 H 448.427 3.71352 -1.69002 0
M  V30 4514 H 447.102 3.16191 -2.70177 0
M  V30 4515 H 445.679 3.61207 -0.926492 0
M  V30 4516 N 447.864 1.01787 1.20321 0
M  V30 4517 C 448.814 0.559976 2.21016 0
M  V30 4518 C 449.798 -0.385366 1.56217 0
M  V30 4519 O 450.99 -0.208126 1.75772 0
M  V30 4520 C 448.119 -0.0990553 3.43157 0
M  V30 4521 C 447.205 0.86807 4.15121 0
M  V30 4522 N 447.596 2.0261 4.63447 0
M  V30 4523 C 445.894 0.689162 4.40643 0
M  V30 4524 C 446.595 2.63518 5.18588 0
M  V30 4525 N 445.571 1.91569 5.08726 0
M  V30 4526 H 449.373 1.44281 2.56048 0
M  V30 4527 H 446.887 0.883381 1.36272 0
M  V30 4528 H 448.884 -0.444643 4.14522 0
M  V30 4529 H 447.544 -0.977709 3.0963 0
M  V30 4530 H 448.555 2.40598 4.58621 0
M  V30 4531 H 445.232 -0.14133 4.17261 0
M  V30 4532 H 446.622 3.61527 5.66346 0
M  V30 4533 N 449.342 -1.36122 0.79427 0
M  V30 4534 C 450.289 -2.29982 0.194101 0
M  V30 4535 C 451.259 -1.52214 -0.664833 0
M  V30 4536 O 452.444 -1.80702 -0.612498 0
M  V30 4537 C 449.584 -3.38706 -0.661244 0
M  V30 4538 C 448.697 -4.31456 0.216766 0
M  V30 4539 C 447.832 -5.27265 -0.645411 0
M  V30 4540 C 446.871 -6.11653 0.233756 0
M  V30 4541 N 446.008 -6.99636 -0.587682 0
M  V30 4542 H 450.848 -2.80722 0.999965 0
M  V30 4543 H 448.385 -1.38172 0.504677 0
M  V30 4544 H 450.343 -4.00394 -1.17219 0
M  V30 4545 H 448.973 -2.89274 -1.43249 0
M  V30 4546 H 448.025 -3.7088 0.845724 0
M  V30 4547 H 449.337 -4.90724 0.893973 0
M  V30 4548 H 448.491 -5.94266 -1.22198 0
M  V30 4549 H 447.23 -4.68463 -1.35623 0
M  V30 4550 H 446.235 -5.4361 0.82269 0
M  V30 4551 H 447.46 -6.72531 0.942247 0
M  V30 4552 H 445.406 -6.43337 -1.2827 0
M  V30 4553 H 445.323 -7.55993 0.0317402 0
M  V30 4554 H 446.591 -7.71001 -1.14792 0
M  V30 4555 N 450.82 -0.546701 -1.47814 0
M  V30 4556 C 452.066 -0.0187684 -2.02791 0
M  V30 4557 C 452.399 1.32338 -1.42128 0
M  V30 4558 O 451.674 1.85867 -0.573023 0
M  V30 4559 C 451.957 0.0854985 -3.59998 0
M  V30 4560 C 451.81 -1.283 -4.31114 0
M  V30 4561 C 453.129 0.80412 -4.32691 0
M  V30 4562 H 450.248 -0.0082946 -0.736953 0
M  V30 4563 H 452.89 -0.706962 -1.76358 0
M  V30 4564 H 451.04 0.671609 -3.82651 0
M  V30 4565 H 452.712 -1.91151 -4.19832 0
M  V30 4566 H 450.955 -1.86049 -3.91878 0
M  V30 4567 H 451.626 -1.16287 -5.39612 0
M  V30 4568 H 454.102 0.306576 -4.14969 0
M  V30 4569 H 452.978 0.846011 -5.42341 0
M  V30 4570 H 453.239 1.85802 -4.01161 0
M  V30 4571 N 452.299 1.55045 -0.282633 0
M  V30 4572 C 453.229 2.2579 0.595066 0
M  V30 4573 C 454.21 1.25074 1.15284 0
M  V30 4574 O 455.395 1.5381 1.18559 0
M  V30 4575 C 452.525 2.98472 1.77572 0
M  V30 4576 C 451.479 4.0618 1.34914 0
M  V30 4577 C 450.805 4.66477 2.6135 0
M  V30 4578 C 452.105 5.1996 0.493821 0
M  V30 4579 H 453.799 2.994 0.00505653 0
M  V30 4580 H 451.345 1.44 0.000992001 0
M  V30 4581 H 453.298 3.46677 2.39568 0
M  V30 4582 H 452.022 2.2241 2.39168 0
M  V30 4583 H 450.681 3.58797 0.752338 0
M  V30 4584 H 450.329 3.87074 3.2122 0
M  V30 4585 H 450.029 5.39207 2.33516 0
M  V30 4586 H 451.553 5.17435 3.24181 0
M  V30 4587 H 452.967 5.64172 1.01898 0
M  V30 4588 H 451.364 5.99299 0.310047 0
M  V30 4589 H 452.434 4.82462 -0.485593 0
M  V30 4590 N 453.777 0.010035 1.57597 0
M  V30 4591 C 455.002 -0.687021 1.95691 0
M  V30 4592 C 455.427 -1.65952 0.885519 0
M  V30 4593 O 454.785 -1.80633 -0.15543 0
M  V30 4594 C 454.833 -1.3864 3.32884 0
M  V30 4595 O 453.937 -2.50115 3.27897 0
M  V30 4596 H 453.278 -0.181989 0.638573 0
M  V30 4597 H 455.808 0.0662122 2.04493 0
M  V30 4598 H 455.818 -1.74754 3.6868 0
M  V30 4599 H 454.493 -0.673411 4.10412 0
M  V30 4600 H 453.07 -2.16253 3.03791 0
M  V30 4601 N 455.255 -1.55392 -0.262866 0
M  V30 4602 C 456.203 -1.8977 -1.345 0
M  V30 4603 C 457.197 -0.775063 -1.50629 0
M  V30 4604 O 458.403 -0.959519 -1.52293 0
M  V30 4605 H 454.778 -0.602467 -0.450041 0
M  V30 4606 H 456.749 -2.80147 -1.02762 0
M  V30 4607 C 455.498 -2.19501 -2.69657 0
M  V30 4608 H 454.821 -3.05378 -2.5804 0
M  V30 4609 H 456.261 -2.47469 -3.44289 0
M  V30 4610 C 454.72 -1.00597 -3.21531 0
M  V30 4611 O 455.25 -0.245768 -4.00947 0
M  V30 4612 N 453.456 -0.800911 -2.79345 0
M  V30 4613 H 453.003 -1.42079 -2.14875 0
M  V30 4614 H 452.961 -0.00697996 -3.14399 0
M  V30 4615 N 456.733 0.527833 -1.48498 0
M  V30 4616 C 457.979 1.28545 -1.56857 0
M  V30 4617 C 458.312 1.92678 -0.242651 0
M  V30 4618 O 457.587 1.79394 0.751545 0
M  V30 4619 C 457.87 2.37314 -2.70839 0
M  V30 4620 C 457.723 1.77858 -4.13142 0
M  V30 4621 C 459.042 3.39068 -2.80573 0
M  V30 4622 H 456.161 0.466006 -0.570971 0
M  V30 4623 H 458.803 0.587784 -1.8068 0
M  V30 4624 H 456.953 2.96821 -2.50658 0
M  V30 4625 H 458.625 1.22385 -4.44769 0
M  V30 4626 H 456.868 1.08383 -4.20042 0
M  V30 4627 H 457.539 2.56624 -4.88721 0
M  V30 4628 H 460.015 2.89518 -2.98862 0
M  V30 4629 H 458.891 4.12566 -3.6205 0
M  V30 4630 H 459.152 3.9975 -1.88818 0
M  V30 4631 N 458.211 1.37122 0.776871 0
M  V30 4632 C 459.159 1.32549 1.91138 0
M  V30 4633 C 460.153 0.215119 1.68029 0
M  V30 4634 O 461.359 0.382852 1.75881 0
M  V30 4635 H 457.734 0.412952 0.62847 0
M  V30 4636 H 459.705 2.28332 1.92112 0
M  V30 4637 C 458.454 1.14422 3.28333 0
M  V30 4638 H 457.777 1.99115 3.46689 0
M  V30 4639 H 459.217 1.15272 4.0803 0
M  V30 4640 C 457.676 -0.150434 3.36564 0
M  V30 4641 O 458.206 -1.13584 3.85307 0
M  V30 4642 N 456.412 -0.19939 2.89915 0
M  V30 4643 H 455.959 0.603142 2.5044 0
M  V30 4644 H 455.917 -1.06526 2.95803 0
M  V30 4645 N 459.689 -1.00246 1.21608 0
M  V30 4646 C 460.619 -2.10921 1.00172 0
M  V30 4647 C 461.6 -1.69938 -0.0741587 0
M  V30 4648 O 462.785 -1.94009 0.0861753 0
M  V30 4649 C 459.915 -3.42618 0.568355 0
M  V30 4650 C 458.869 -3.97407 1.58909 0
M  V30 4651 C 458.195 -5.25038 1.01187 0
M  V30 4652 C 459.495 -4.2918 2.97661 0
M  V30 4653 H 461.189 -2.29112 1.92739 0
M  V30 4654 H 458.735 -1.10101 0.928102 0
M  V30 4655 H 460.688 -4.19444 0.405555 0
M  V30 4656 H 459.412 -3.24227 -0.392961 0
M  V30 4657 H 458.071 -3.22703 1.73949 0
M  V30 4658 H 457.719 -5.02982 0.0421965 0
M  V30 4659 H 457.419 -5.62661 1.6937 0
M  V30 4660 H 458.943 -6.04507 0.860448 0
M  V30 4661 H 460.357 -4.96839 2.86049 0
M  V30 4662 H 458.754 -4.77952 3.6288 0
M  V30 4663 H 459.824 -3.3735 3.48315 0
M  V30 4664 N 461.167 -1.02423 -1.1978 0
M  V30 4665 C 462.578 -0.748389 -1.71044 0
M  V30 4666 C 462.929 0.732398 -1.82017 0
M  V30 4667 O 462.054 1.57116 -1.48807 0
M  V30 4668 C 462.649 -1.35187 -3.1066 0
M  V30 4669 C 461.208 -1.12472 -3.59203 0
M  V30 4670 C 460.355 -1.45283 -2.36195 0
M  V30 4671 H 463.306 -1.19275 -1.04686 0
M  V30 4672 H 463.327 -0.746408 -3.73107 0
M  V30 4673 H 462.839 -2.4296 -3.02642 0
M  V30 4674 H 460.94 -0.0649983 -3.72543 0
M  V30 4675 H 461.053 -1.81016 -4.43588 0
M  V30 4676 H 459.417 -0.872034 -2.39307 0
M  V30 4677 H 460.2 -2.54129 -2.30811 0
M  V30 4678 N 462.645 1.35699 -0.801477 0
M  V30 4679 C 463.608 2.28199 -0.213994 0
M  V30 4680 C 464.608 1.49359 0.595691 0
M  V30 4681 O 465.798 1.69186 0.414921 0
M  V30 4682 C 462.93 3.33587 0.702297 0
M  V30 4683 H 464.123 2.81666 -1.02976 0
M  V30 4684 H 461.676 1.45467 -0.571759 0
M  V30 4685 H 462.411 2.85297 1.54195 0
M  V30 4686 H 462.196 3.91906 0.123484 0
M  V30 4687 H 463.686 4.02638 1.10783 0
M  V30 4688 N 464.123 0.554532 1.47522 0
M  V30 4689 C 465.4 -0.0360704 1.95567 0
M  V30 4690 C 465.78 -1.48828 1.49711 0
M  V30 4691 O 465.128 -2.16366 0.734717 0
M  V30 4692 C 465.338 0.106631 3.48837 0
M  V30 4693 C 466.686 -0.0400899 4.24581 0
M  V30 4694 O 467.71 0.0340453 3.56184 0
M  V30 4695 O 466.569 -0.199111 5.46137 0
M  V30 4696 H 463.663 -0.0656294 0.824392 0
M  V30 4697 H 466.209 0.620867 1.57935 0
M  V30 4698 H 464.981 1.11727 3.7501 0
M  V30 4699 H 464.604 -0.58804 3.93227 0
M  V30 4700 N 465.601 -1.54893 0.290851 0
M  V30 4701 C 466.531 -2.26103 -0.583084 0
M  V30 4702 C 467.512 -1.25684 -1.14619 0
M  V30 4703 O 468.697 -1.54436 -1.17741 0
M  V30 4704 C 465.827 -2.99409 -1.75987 0
M  V30 4705 C 464.781 -4.0689 -1.32758 0
M  V30 4706 C 464.107 -4.67856 -2.58872 0
M  V30 4707 C 465.407 -5.20215 -0.46624 0
M  V30 4708 H 467.101 -2.99398 0.0108214 0
M  V30 4709 H 464.647 -1.43998 0.00664468 0
M  V30 4710 H 466.6 -3.47943 -2.37727 0
M  V30 4711 H 465.324 -2.23675 -2.37985 0
M  V30 4712 H 463.983 -3.59191 -0.733299 0
M  V30 4713 H 463.631 -3.88772 -3.19163 0
M  V30 4714 H 463.331 -5.40438 -2.30653 0
M  V30 4715 H 464.855 -5.19147 -3.21433 0
M  V30 4716 H 466.269 -5.64704 -0.989047 0
M  V30 4717 H 464.666 -5.99455 -0.27826 0
M  V30 4718 H 465.736 -4.82198 0.511173 0
M  V30 4719 N 467.08 -0.0183926 -1.57589 0
M  V30 4720 C 468.357 0.700621 -1.82622 0
M  V30 4721 C 468.737 1.90951 -0.90005 0
M  V30 4722 O 468.085 2.28452 0.0469145 0
M  V30 4723 C 468.295 1.08899 -3.31575 0
M  V30 4724 C 469.643 1.48514 -3.9778 0
M  V30 4725 O 470.667 1.18227 -3.36007 0
M  V30 4726 O 469.526 2.04903 -5.06633 0
M  V30 4727 H 466.62 0.342743 -0.752633 0
M  V30 4728 H 469.166 -0.0452548 -1.6964 0
M  V30 4729 H 467.938 0.228113 -3.90635 0
M  V30 4730 H 467.561 1.89338 -3.49624 0
M  V30 4731 N 468.558 1.5553 0.254621 0
M  V30 4732 C 469.488 1.9268 1.31897 0
M  V30 4733 C 470.469 0.790797 1.506 0
M  V30 4734 O 471.654 1.05045 1.63337 0
M  V30 4735 C 468.784 2.21477 2.67517 0
M  V30 4736 C 467.738 3.37256 2.63519 0
M  V30 4737 C 467.064 3.51576 4.02862 0
M  V30 4738 C 468.364 4.73157 2.21179 0
M  V30 4739 H 470.058 2.81832 1.01051 0
M  V30 4740 H 467.604 1.35599 0.484662 0
M  V30 4741 H 469.557 2.46055 3.42104 0
M  V30 4742 H 468.281 1.29144 2.99982 0
M  V30 4743 H 466.94 3.12675 1.9139 0
M  V30 4744 H 466.588 2.56676 4.32581 0
M  V30 4745 H 466.288 4.2943 4.01078 0
M  V30 4746 H 467.812 3.78467 4.79161 0
M  V30 4747 H 469.226 4.97158 2.85494 0
M  V30 4748 H 467.623 5.54058 2.30521 0
M  V30 4749 H 468.693 4.70739 1.16332 0
M  V30 4750 N 470.036 -0.519951 1.48776 0
M  V30 4751 C 471.282 -1.27711 1.57536 0
M  V30 4752 C 471.615 -1.92547 0.252866 0
M  V30 4753 O 470.89 -1.7979 -0.742021 0
M  V30 4754 C 471.173 -2.35875 2.72094 0
M  V30 4755 C 471.026 -1.75664 4.1408 0
M  V30 4756 C 472.345 -3.37575 2.82367 0
M  V30 4757 H 469.464 -0.462971 0.573434 0
M  V30 4758 H 472.106 -0.578194 1.80989 0
M  V30 4759 H 470.256 -2.95488 2.52228 0
M  V30 4760 H 471.928 -1.20025 4.45412 0
M  V30 4761 H 470.171 -1.06154 4.20611 0
M  V30 4762 H 470.842 -2.54029 4.90075 0
M  V30 4763 H 473.318 -2.87929 3.00393 0
M  V30 4764 H 472.194 -4.1064 3.64233 0
M  V30 4765 H 472.455 -3.98743 1.90936 0
M  V30 4766 N 471.514 -1.37532 -0.769588 0
M  V30 4767 C 472.754 -1.34261 -1.54122 0
M  V30 4768 C 473.118 0.0717222 -1.91866 0
M  V30 4769 O 474.319 0.22918 -2.67821 0
M  V30 4770 C 472.59 -2.2574 -2.77086 0
M  V30 4771 S 474.149 -2.40339 -3.67127 0
M  V30 4772 H 470.967 -0.476595 -0.527615 0
M  V30 4773 H 473.569 -1.73303 -0.90479 0
M  V30 4774 H 472.273 -3.27417 -2.4744 0
M  V30 4775 H 471.804 -1.87789 -3.45686 0
M  V30 4776 H 473.819 -1.61558 -4.69163 0
M  V30 4777 N 472.992 0.995999 -1.22138 0
M  V30 4778 C 473.94 2.10673 -0.985876 0
M  V30 4779 C 474.934 1.69255 0.0699553 0
M  V30 4780 O 476.14 1.79812 -0.0822176 0
M  V30 4781 H 472.515 0.688865 -0.30161 0
M  V30 4782 H 474.486 2.27711 -1.92848 0
M  V30 4783 C 473.235 3.42881 -0.576909 0
M  V30 4784 H 472.558 3.75191 -1.38101 0
M  V30 4785 H 473.998 4.21589 -0.451518 0
M  V30 4786 C 472.457 3.29265 0.713196 0
M  V30 4787 O 472.987 3.60777 1.76643 0
M  V30 4788 N 471.193 2.82456 0.683162 0
M  V30 4789 H 470.74 2.5701 -0.174242 0
M  V30 4790 H 470.698 2.73727 1.54663 0
M  V30 4791 N 474.47 1.03057 1.19235 0
M  V30 4792 C 475.433 0.617418 2.20727 0
M  V30 4793 C 476.433 -0.319856 1.57587 0
M  V30 4794 O 477.623 -0.106633 1.73873 0
M  V30 4795 C 474.755 -0.096296 3.40764 0
M  V30 4796 H 475.948 1.51544 2.58794 0
M  V30 4797 H 473.501 0.821949 1.32942 0
M  V30 4798 H 474.236 -1.00859 3.08217 0
M  V30 4799 H 474.021 0.577217 3.87828 0
M  V30 4800 H 475.511 -0.372219 4.15938 0
M  V30 4801 N 475.948 -1.35272 0.808662 0
M  V30 4802 C 476.858 -2.33546 0.222079 0
M  V30 4803 C 477.874 -1.6196 -0.636011 0
M  V30 4804 O 479.05 -1.93822 -0.547274 0
M  V30 4805 C 476.115 -3.41148 -0.61795 0
M  V30 4806 C 475.176 -4.28507 0.260875 0
M  V30 4807 C 474.409 -5.3097 -0.539156 0
M  V30 4808 O 474.632 -5.42123 -1.77367 0
M  V30 4809 O 473.566 -6.01858 0.0710526 0
M  V30 4810 H 477.392 -2.85515 1.03512 0
M  V30 4811 H 474.977 -1.38079 0.570495 0
M  V30 4812 H 476.859 -4.06889 -1.09634 0
M  V30 4813 H 475.534 -2.91447 -1.40855 0
M  V30 4814 H 474.441 -3.6574 0.786451 0
M  V30 4815 H 475.774 -4.81611 1.01547 0
M  V30 4816 N 477.426 -0.562348 -1.47226 0
M  V30 4817 C 478.672 -0.0485293 -2.03342 0
M  V30 4818 C 479.027 1.28898 -1.42839 0
M  V30 4819 O 478.32 1.82719 -0.576563 0
M  V30 4820 C 478.514 0.0969817 -3.57268 0
M  V30 4821 C 478.343 -1.22487 -4.32697 0
M  V30 4822 C 477.113 -1.79357 -4.72397 0
M  V30 4823 C 479.311 -2.14332 -4.67511 0
M  V30 4824 N 477.293 -3.05493 -5.32491 0
M  V30 4825 C 478.664 -3.25049 -5.27961 0
M  V30 4826 C 480.719 -2.14263 -4.4944 0
M  V30 4827 C 479.422 -4.35804 -5.72248 0
M  V30 4828 C 481.448 -3.24033 -4.94729 0
M  V30 4829 C 480.81 -4.3347 -5.55233 0
M  V30 4830 H 476.909 -0.0600464 -0.779691 0
M  V30 4831 H 479.493 -0.750769 -1.79643 0
M  V30 4832 H 477.664 0.768353 -3.80724 0
M  V30 4833 H 479.396 0.613333 -4.00025 0
M  V30 4834 H 476.151 -1.33093 -4.54514 0
M  V30 4835 H 476.575 -3.698 -5.67077 0
M  V30 4836 H 481.217 -1.30935 -4.02015 0
M  V30 4837 H 478.935 -5.19888 -6.18661 0
M  V30 4838 H 482.521 -3.25073 -4.82513 0
M  V30 4839 H 481.401 -5.17008 -5.89638 0
M  V30 4840 N 478.904 1.54736 -0.299062 0
M  V30 4841 C 480.15 2.00397 0.311244 0
M  V30 4842 C 480.483 1.18716 1.53688 0
M  V30 4843 O 479.758 0.263154 1.92712 0
M  V30 4844 C 480.041 3.53817 0.669761 0
M  V30 4845 C 479.894 4.46239 -0.564882 0
M  V30 4846 C 481.213 4.13856 1.49702 0
M  V30 4847 H 478.332 0.728493 0.111653 0
M  V30 4848 H 480.974 1.85506 -0.410774 0
M  V30 4849 H 479.124 3.66637 1.28491 0
M  V30 4850 H 480.796 4.45328 -1.20337 0
M  V30 4851 H 479.039 4.16916 -1.19849 0
M  V30 4852 H 479.71 5.5134 -0.269918 0
M  V30 4853 H 482.186 4.04461 0.977284 0
M  V30 4854 H 481.062 5.21365 1.71666 0
M  V30 4855 H 481.323 3.65608 2.48563 0
M  V30 4856 N 480.382 0.0267497 1.57577 0
M  V30 4857 C 481.607 -0.666227 1.96408 0
M  V30 4858 C 482.032 -1.65004 0.903071 0
M  V30 4859 O 481.39 -1.80787 -0.136263 0
M  V30 4860 C 481.438 -1.35101 3.34335 0
M  V30 4861 O 480.542 -2.46623 3.30531 0
M  V30 4862 H 479.883 -0.175206 0.640468 0
M  V30 4863 H 482.413 0.0878977 2.04411 0
M  V30 4864 H 482.423 -1.70834 3.70513 0
M  V30 4865 H 481.098 -0.629844 4.11103 0
M  V30 4866 H 479.675 -2.13019 3.06068 0
M  V30 4867 N 481.861 -1.55662 -0.24637 0
M  V30 4868 C 483.089 -1.81575 -0.991876 0
M  V30 4869 C 483.504 -0.602545 -1.78927 0
M  V30 4870 O 482.861 0.428795 -1.77391 0
M  V30 4871 C 482.912 -3.05711 -1.92933 0
M  V30 4872 O 482.633 -4.22348 -1.1642 0
M  V30 4873 C 484.134 -3.44428 -2.79078 0
M  V30 4874 H 481.354 -0.604209 -0.291844 0
M  V30 4875 H 483.898 -2.02722 -0.269095 0
M  V30 4876 H 482.053 -2.86612 -2.60638 0
M  V30 4877 H 482.467 -4.92706 -1.79835 0
M  V30 4878 H 483.941 -4.34388 -3.40603 0
M  V30 4879 H 484.418 -2.65037 -3.50217 0
M  V30 4880 H 485.024 -3.65879 -2.16824 0
M  V30 4881 N 483.339 0.512053 -1.4905 0
M  V30 4882 C 484.286 1.6148 -1.64902 0
M  V30 4883 C 485.256 1.58687 -0.490673 0
M  V30 4884 O 486.441 1.76842 -0.71636 0
M  V30 4885 C 483.581 2.99676 -1.71139 0
M  V30 4886 C 482.694 3.12568 -2.98203 0
M  V30 4887 C 481.829 4.4143 -2.95487 0
M  V30 4888 C 480.868 4.47916 -4.17179 0
M  V30 4889 N 480.005 5.68191 -4.12437 0
M  V30 4890 H 484.845 1.47271 -2.59066 0
M  V30 4891 H 482.382 0.716713 -1.28459 0
M  V30 4892 H 484.34 3.79761 -1.72736 0
M  V30 4893 H 482.97 3.12614 -0.804508 0
M  V30 4894 H 482.022 2.25618 -3.06269 0
M  V30 4895 H 483.334 3.1322 -3.88194 0
M  V30 4896 H 482.488 5.29825 -2.95585 0
M  V30 4897 H 481.227 4.43326 -2.03256 0
M  V30 4898 H 480.232 3.57925 -4.17337 0
M  V30 4899 H 481.457 4.47744 -5.1059 0
M  V30 4900 H 479.403 5.7095 -3.23036 0
M  V30 4901 H 479.32 5.70413 -4.96151 0
M  V30 4902 H 480.588 6.58823 -4.16621 0
M  V30 4903 N 484.817 1.37938 0.762283 0
M  V30 4904 C 485.727 1.36681 1.90671 0
M  V30 4905 C 486.743 0.265078 1.71969 0
M  V30 4906 O 487.919 0.502055 1.95042 0
M  V30 4907 C 484.984 1.18211 3.25925 0
M  V30 4908 C 484.045 2.3811 3.57214 0
M  V30 4909 C 483.278 2.20512 4.86014 0
M  V30 4910 O 483.501 1.19429 5.57757 0
M  V30 4911 O 482.435 3.08911 5.16583 0
M  V30 4912 H 486.261 2.33091 1.94685 0
M  V30 4913 H 483.846 1.18767 0.906356 0
M  V30 4914 H 485.728 1.09937 4.06807 0
M  V30 4915 H 484.403 0.248807 3.22742 0
M  V30 4916 H 483.31 2.51958 2.76529 0
M  V30 4917 H 484.643 3.30041 3.65149 0
M  V30 4918 N 486.295 -0.989507 1.22664 0
M  V30 4919 C 487.711 -1.25395 0.987331 0
M  V30 4920 C 487.911 -1.9899 -0.317056 0
M  V30 4921 O 486.967 -2.30141 -1.03882 0
M  V30 4922 C 488.28 -2.06242 2.18826 0
M  V30 4923 C 489.828 -2.19413 2.23219 0
M  V30 4924 C 490.303 -3.03648 3.42873 0
M  V30 4925 N 491.794 -3.11234 3.43056 0
M  V30 4926 C 492.529 -3.7671 4.32293 0
M  V30 4927 N 492.025 -4.44085 5.31752 0
M  V30 4928 N 493.818 -3.73505 4.2006 0
M  V30 4929 H 485.969 -0.496212 2.06522 0
M  V30 4930 H 488.232 -0.281784 0.905153 0
M  V30 4931 H 487.938 -1.59531 3.13437 0
M  V30 4932 H 487.812 -3.06996 2.19165 0
M  V30 4933 H 490.199 -2.65336 1.29154 0
M  V30 4934 H 490.28 -1.18078 2.26917 0
M  V30 4935 H 489.924 -2.58424 4.37241 0
M  V30 4936 H 489.854 -4.05132 3.36416 0
M  V30 4937 H 492.345 -2.63287 2.71088 0
M  V30 4938 H 492.658 -4.91797 5.96117 0
M  V30 4939 H 491.003 -4.42822 5.35662 0
M  V30 4940 H 494.194 -3.20033 3.41609 0
M  V30 4941 H 494.367 -4.24253 4.8981 0
M  V30 4942 N 487.773 -1.03688 -1.18687 0
M  V30 4943 C 488.705 -0.582696 -2.21669 0
M  V30 4944 C 489.718 0.345656 -1.59088 0
M  V30 4945 O 490.907 0.140776 -1.77944 0
M  V30 4946 C 488.007 0.169204 -3.38477 0
M  V30 4947 C 487.18 -0.766079 -4.30639 0
M  V30 4948 C 486.239 -0.0581541 -5.26168 0
M  V30 4949 O 485.265 -0.687346 -5.65035 0
M  V30 4950 N 486.467 1.20981 -5.67753 0
M  V30 4951 H 489.232 -1.46843 -2.61261 0
M  V30 4952 H 486.793 -0.916896 -1.33434 0
M  V30 4953 H 488.785 0.652543 -3.99405 0
M  V30 4954 H 487.355 0.956435 -2.97609 0
M  V30 4955 H 486.575 -1.42935 -3.67373 0
M  V30 4956 H 487.863 -1.40146 -4.89118 0
M  V30 4957 H 487.261 1.74159 -5.38224 0
M  V30 4958 H 485.818 1.6375 -6.30896 0
M  V30 4959 N 489.251 1.34841 -0.815825 0
M  V30 4960 C 490.183 2.28409 -0.190265 0
M  V30 4961 C 491.196 1.50705 0.615771 0
M  V30 4962 O 492.385 1.72822 0.446616 0
M  V30 4963 C 489.485 3.30441 0.752446 0
M  V30 4964 C 488.658 4.37399 -0.00922152 0
M  V30 4965 C 487.717 5.19234 0.853351 0
M  V30 4966 O 486.743 5.68404 0.300919 0
M  V30 4967 N 487.945 5.38248 2.17416 0
M  V30 4968 H 490.71 2.82732 -0.994114 0
M  V30 4969 H 488.271 1.47289 -0.672129 0
M  V30 4970 H 490.263 3.82084 1.33394 0
M  V30 4971 H 488.833 2.76565 1.45707 0
M  V30 4972 H 488.053 3.86567 -0.771979 0
M  V30 4973 H 489.341 5.05992 -0.533807 0
M  V30 4974 H 488.739 4.99961 2.6468 0
M  V30 4975 H 487.296 5.93035 2.70467 0
M  V30 4976 N 490.729 0.570148 1.46925 0
M  V30 4977 C 491.662 -0.218362 2.27153 0
M  V30 4978 C 492.64 -0.90847 1.34854 0
M  V30 4979 O 493.824 -0.924875 1.64251 0
M  V30 4980 C 490.951 -1.3122 3.12248 0
M  V30 4981 C 489.997 -0.729277 4.20219 0
M  V30 4982 S 490.83 0.434159 5.33737 0
M  V30 4983 C 491.986 -0.661188 6.22398 0
M  V30 4984 H 492.219 0.462393 2.93682 0
M  V30 4985 H 489.752 0.356753 1.50222 0
M  V30 4986 H 491.71 -1.93856 3.61842 0
M  V30 4987 H 490.371 -1.96485 2.45056 0
M  V30 4988 H 489.564 -1.5511 4.79538 0
M  V30 4989 H 489.166 -0.178836 3.73572 0
M  V30 4990 H 491.458 -1.55006 6.5953 0
M  V30 4991 H 492.401 -0.105046 7.08022 0
M  V30 4992 H 492.809 -0.959682 5.56283 0
M  V30 4993 N 492.207 -1.54576 0.307264 0
M  V30 4994 C 493.623 -1.59534 -0.0459251 0
M  V30 4995 C 493.823 -1.32414 -1.51884 0
M  V30 4996 O 492.879 -1.1006 -2.27251 0
M  V30 4997 C 494.192 -2.98566 0.357649 0
M  V30 4998 C 495.74 -3.11491 0.306937 0
M  V30 4999 C 496.215 -4.52842 0.685427 0
M  V30 5000 N 497.706 -4.58782 0.638203 0
M  V30 5001 C 498.441 -5.66238 0.903458 0
M  V30 5002 N 497.937 -6.81703 1.23501 0
M  V30 5003 N 499.73 -5.55937 0.830102 0
M  V30 5004 H 491.881 -1.70464 1.26712 0
M  V30 5005 H 494.144 -0.79647 0.514139 0
M  V30 5006 H 493.85 -3.23356 1.38325 0
M  V30 5007 H 493.724 -3.76117 -0.285565 0
M  V30 5008 H 496.111 -2.86446 -0.709424 0
M  V30 5009 H 496.192 -2.36081 0.984861 0
M  V30 5010 H 495.836 -4.78618 1.69963 0
M  V30 5011 H 495.766 -5.26598 -0.0146346 0
M  V30 5012 H 498.257 -3.75849 0.393138 0
M  V30 5013 H 498.57 -7.59582 1.42322 0
M  V30 5014 H 496.915 -6.8324 1.27311 0
M  V30 5015 H 500.106 -4.64608 0.570693 0
M  V30 5016 H 500.279 -6.39597 1.04019 0
M  V30 5017 N 493.685 -0.035106 -1.57561 0
M  V30 5018 C 494.615 0.942993 -2.13612 0
M  V30 5019 C 495.596 1.33531 -1.05373 0
M  V30 5020 O 496.781 1.41287 -1.33235 0
M  V30 5021 C 493.911 2.22332 -2.66807 0
M  V30 5022 C 492.865 1.97156 -3.79886 0
M  V30 5023 C 492.191 3.31506 -4.19533 0
M  V30 5024 C 493.491 1.30596 -5.05709 0
M  V30 5025 H 495.185 0.476179 -2.95589 0
M  V30 5026 H 492.731 0.227602 -1.4219 0
M  V30 5027 H 494.684 2.91142 -3.04654 0
M  V30 5028 H 493.408 2.7119 -1.81999 0
M  V30 5029 H 492.067 1.30763 -3.42486 0
M  V30 5030 H 491.715 3.78134 -3.31698 0
M  V30 5031 H 491.415 3.15465 -4.95738 0
M  V30 5032 H 492.939 4.01574 -4.59968 0
M  V30 5033 H 494.353 1.89416 -5.41105 0
M  V30 5034 H 492.75 1.24934 -5.86951 0
M  V30 5035 H 493.82 0.279742 -4.84092 0
M  V30 5036 N 495.163 1.55791 0.238111 0
M  V30 5037 C 496.412 1.77234 0.962868 0
M  V30 5038 C 496.725 0.600661 1.86149 0
M  V30 5039 O 497.931 0.698315 2.62366 0
M  V30 5040 C 496.387 3.13808 1.76218 0
M  V30 5041 C 495.995 4.3865 0.910518 0
M  V30 5042 C 497.739 3.44585 2.47914 0
M  V30 5043 C 495.646 5.66252 1.70623 0
M  V30 5044 H 494.576 0.660731 0.36325 0
M  V30 5045 H 497.227 1.8221 0.217242 0
M  V30 5046 H 495.609 3.02963 2.55009 0
M  V30 5047 H 496.783 4.60507 0.164316 0
M  V30 5048 H 495.098 4.15271 0.30647 0
M  V30 5049 H 497.695 4.3714 3.07917 0
M  V30 5050 H 498.038 2.66314 3.19973 0
M  V30 5051 H 498.571 3.56685 1.76127 0
M  V30 5052 H 495.31 6.47369 1.02923 0
M  V30 5053 H 494.83 5.48483 2.42748 0
M  V30 5054 H 496.509 6.05829 2.27114 0
M  V30 5055 N 496.642 -0.504142 1.49319 0
M  V30 5056 C 497.888 -1.26033 1.58882 0
M  V30 5057 C 498.221 -1.92268 0.273274 0
M  V30 5058 O 497.496 -1.80567 -0.72291 0
M  V30 5059 C 497.779 -2.32976 2.7458 0
M  V30 5060 C 497.632 -1.71263 4.1592 0
M  V30 5061 C 498.951 -3.34561 2.85932 0
M  V30 5062 H 496.07 -0.456863 0.578312 0
M  V30 5063 H 498.712 -0.558965 1.81592 0
M  V30 5064 H 496.862 -2.92796 2.55348 0
M  V30 5065 H 498.534 -1.15294 4.4666 0
M  V30 5066 H 496.777 -1.01686 4.21714 0
M  V30 5067 H 497.448 -2.48816 4.92742 0
M  V30 5068 H 499.924 -2.84727 3.0343 0
M  V30 5069 H 498.8 -4.06754 3.68568 0
M  V30 5070 H 499.061 -3.96695 1.95154 0
M  V30 5071 N 498.12 -1.38341 -0.754957 0
M  V30 5072 C 499.397 -1.24995 -1.50451 0
M  V30 5073 C 499.777 0.149244 -2.10572 0
M  V30 5074 O 499.125 1.15861 -1.96948 0
M  V30 5075 C 499.335 -2.35904 -2.57197 0
M  V30 5076 C 500.683 -2.74262 -3.24138 0
M  V30 5077 O 501.707 -2.35205 -2.67501 0
M  V30 5078 O 500.566 -3.4161 -4.26574 0
M  V30 5079 H 497.66 -0.48872 -0.667144 0
M  V30 5080 H 500.206 -1.50165 -0.790486 0
M  V30 5081 H 498.978 -3.2953 -2.11011 0
M  V30 5082 H 498.601 -2.12291 -3.36182 0
M  V30 5083 N 499.598 0.982988 -1.23187 0
M  V30 5084 C 500.844 1.72648 -1.06398 0
M  V30 5085 C 501.177 1.90066 0.398561 0
M  V30 5086 O 500.452 1.45105 1.29518 0
M  V30 5087 C 500.735 3.12627 -1.78707 0
M  V30 5088 C 500.588 3.02795 -3.32618 0
M  V30 5089 C 501.907 4.11997 -1.54747 0
M  V30 5090 H 499.026 0.626649 -0.387918 0
M  V30 5091 H 501.668 1.14455 -1.51658 0
M  V30 5092 H 499.818 3.62308 -1.40234 0
M  V30 5093 H 501.49 2.60659 -3.80598 0
M  V30 5094 H 499.733 2.39362 -3.61785 0
M  V30 5095 H 500.404 4.01893 -3.78399 0
M  V30 5096 H 502.88 3.71114 -1.88186 0
M  V30 5097 H 501.756 5.08037 -2.07821 0
M  V30 5098 H 502.017 4.39462 -0.482249 0
M  V30 5099 N 501.076 1.04316 1.18135 0
M  V30 5100 C 502.006 0.657299 2.24058 0
M  V30 5101 C 502.987 -0.340678 1.66654 0
M  V30 5102 O 504.172 -0.220223 1.92947 0
M  V30 5103 C 501.302 0.0220715 3.47293 0
M  V30 5104 C 500.256 0.943857 4.17463 0
M  V30 5105 C 499.582 0.172973 5.3442 0
M  V30 5106 C 500.882 2.26409 4.70677 0
M  V30 5107 H 502.576 1.5428 2.56589 0
M  V30 5108 H 500.122 0.743263 1.23335 0
M  V30 5109 H 502.075 -0.259607 4.206 0
M  V30 5110 H 500.799 -0.898323 3.14003 0
M  V30 5111 H 499.458 1.20996 3.46057 0
M  V30 5112 H 499.106 -0.749907 4.97379 0
M  V30 5113 H 498.806 0.787098 5.82304 0
M  V30 5114 H 500.33 -0.101628 6.10515 0
M  V30 5115 H 501.744 2.04294 5.35665 0
M  V30 5116 H 500.141 2.8314 5.29105 0
M  V30 5117 H 501.211 2.90883 3.87962 0
M  V30 5118 N 502.554 -1.34406 0.822964 0
M  V30 5119 C 503.779 -2.0304 0.423034 0
M  V30 5120 C 504.204 -1.61568 -0.963196 0
M  V30 5121 O 503.562 -0.800339 -1.62678 0
M  V30 5122 C 503.61 -3.56636 0.53321 0
M  V30 5123 O 502.714 -4.09971 -0.446939 0
M  V30 5124 H 502.055 -0.64075 0.174171 0
M  V30 5125 H 504.585 -1.71653 1.11339 0
M  V30 5126 H 504.595 -4.05945 0.408991 0
M  V30 5127 H 503.27 -3.86168 1.54425 0
M  V30 5128 H 501.847 -3.71835 -0.281601 0
M  V30 5129 N 504.032 -0.577932 -1.46621 0
M  V30 5130 C 505.448 -0.239242 -1.57797 0
M  V30 5131 C 505.648 1.25843 -1.57371 0
M  V30 5132 O 504.704 2.03988 -1.48813 0
M  V30 5133 C 506.017 -0.884227 -2.87405 0
M  V30 5134 C 507.565 -0.857373 -3.01028 0
M  V30 5135 C 508.04 -1.48181 -4.33366 0
M  V30 5136 N 509.531 -1.44593 -4.40053 0
M  V30 5137 C 510.266 -1.89852 -5.41058 0
M  V30 5138 N 509.762 -2.43062 -6.48762 0
M  V30 5139 N 511.555 -1.80797 -5.3223 0
M  V30 5140 H 503.706 -1.55073 -1.45142 0
M  V30 5141 H 505.969 -0.647903 -0.692044 0
M  V30 5142 H 505.675 -1.93759 -2.93514 0
M  V30 5143 H 505.549 -0.389585 -3.75183 0
M  V30 5144 H 507.936 0.187357 -2.94505 0
M  V30 5145 H 508.017 -1.38999 -2.14739 0
M  V30 5146 H 507.661 -2.52572 -4.40647 0
M  V30 5147 H 507.591 -0.924464 -5.18422 0
M  V30 5148 H 510.082 -1.05694 -3.62819 0
M  V30 5149 H 510.395 -2.75466 -7.22038 0
M  V30 5150 H 508.74 -2.47085 -6.49595 0
M  V30 5151 H 511.931 -1.38989 -4.46989 0
M  V30 5152 H 512.104 -2.16385 -6.10804 0
M  V30 5153 N 505.51 1.54411 -0.315457 0
M  V30 5154 C 506.44 2.27002 0.547039 0
M  V30 5155 C 507.421 1.27492 1.12605 0
M  V30 5156 O 508.606 1.5629 1.15269 0
M  V30 5157 C 505.736 3.02171 1.71201 0
M  V30 5158 C 504.69 4.0895 1.26268 0
M  V30 5159 C 504.016 4.71915 2.51396 0
M  V30 5160 C 505.316 5.20891 0.383419 0
M  V30 5161 H 507.01 2.99343 -0.0584517 0
M  V30 5162 H 504.556 1.4397 -0.0295527 0
M  V30 5163 H 506.509 3.51681 2.32161 0
M  V30 5164 H 505.233 2.27433 2.34397 0
M  V30 5165 H 503.892 3.60312 0.676062 0
M  V30 5166 H 503.54 3.93801 3.12937 0
M  V30 5167 H 503.24 5.44039 2.22026 0
M  V30 5168 H 504.764 5.24195 3.13133 0
M  V30 5169 H 506.178 5.66206 0.899082 0
M  V30 5170 H 504.575 5.99821 0.182857 0
M  V30 5171 H 505.645 4.81324 -0.587821 0
M  V30 5172 N 506.988 0.0434614 1.5754 0
M  V30 5173 C 508.399 -0.493343 1.80064 0
M  V30 5174 C 508.75 -1.71388 0.955023 0
M  V30 5175 O 507.875 -2.15736 0.169434 0
M  V30 5176 C 508.47 -0.90179 3.26578 0
M  V30 5177 C 507.029 -1.38362 3.50047 0
M  V30 5178 C 506.176 -0.355129 2.75017 0
M  V30 5179 H 509.127 0.2694 1.56397 0
M  V30 5180 H 509.148 -1.76523 3.37075 0
M  V30 5181 H 508.66 -0.013271 3.88098 0
M  V30 5182 H 506.761 -2.29159 2.93798 0
M  V30 5183 H 506.874 -1.3811 4.58762 0
M  V30 5184 H 505.238 -0.826348 2.40922 0
M  V30 5185 H 506.021 0.525172 3.39259 0
M  V30 5186 N 508.466 -1.55915 -0.229846 0
M  V30 5187 C 509.416 -1.8813 -1.28807 0
M  V30 5188 C 510.4 -0.743621 -1.42685 0
M  V30 5189 O 511.592 -1.00588 -1.4564 0
M  V30 5190 C 508.721 -2.19431 -2.64017 0
M  V30 5191 C 507.807 -3.39569 -2.54074 0
M  V30 5192 N 508.198 -4.58404 -2.13774 0
M  V30 5193 C 506.496 -3.43019 -2.85051 0
M  V30 5194 C 507.197 -5.40557 -2.1488 0
M  V30 5195 N 506.173 -4.80054 -2.55047 0
M  V30 5196 H 509.975 -2.77527 -0.967261 0
M  V30 5197 H 507.489 -1.5637 -0.438433 0
M  V30 5198 H 509.486 -2.40681 -3.40409 0
M  V30 5199 H 508.146 -1.31341 -2.9695 0
M  V30 5200 H 509.157 -4.83716 -1.8504 0
M  V30 5201 H 505.834 -2.65249 -3.22411 0
M  V30 5202 H 507.224 -6.45666 -1.85918 0
M  V30 5203 N 509.944 0.496216 -1.49584 0
M  V30 5204 C 510.894 1.59422 -1.62999 0
M  V30 5205 C 511.878 1.53402 -0.485457 0
M  V30 5206 O 513.07 1.60851 -0.738649 0
M  V30 5207 C 510.199 2.98009 -1.70427 0
M  V30 5208 C 509.285 3.09008 -2.90473 0
M  V30 5209 N 509.676 2.89884 -4.14489 0
M  V30 5210 C 507.974 3.40115 -2.8851 0
M  V30 5211 C 508.675 3.0519 -4.95211 0
M  V30 5212 N 507.651 3.3428 -4.2867 0
M  V30 5213 H 511.453 1.43297 -2.56599 0
M  V30 5214 H 508.967 0.702443 -1.46422 0
M  V30 5215 H 510.964 3.76926 -1.78136 0
M  V30 5216 H 509.624 3.152 -0.77967 0
M  V30 5217 H 510.635 2.65963 -4.44392 0
M  V30 5218 H 507.312 3.63452 -2.05448 0
M  V30 5219 H 508.702 2.94856 -6.03746 0
M  V30 5220 N 511.423 1.38739 0.74761 0
M  V30 5221 C 512.648 1.38702 1.54197 0
M  V30 5222 C 513.073 -0.019664 1.8809 0
M  V30 5223 O 512.431 -1.00333 1.51006 0
M  V30 5224 C 512.479 2.25492 2.814 0
M  V30 5225 O 511.583 1.67613 3.76802 0
M  V30 5226 H 510.924 0.472863 0.466151 0
M  V30 5227 H 513.454 1.82577 0.923413 0
M  V30 5228 H 513.464 2.39561 3.30264 0
M  V30 5229 H 512.139 3.27727 2.56062 0
M  V30 5230 H 510.716 1.62718 3.35526 0
M  V30 5231 N 512.901 -0.976442 1.23707 0
M  V30 5232 C 514.126 -1.75875 1.09922 0
M  V30 5233 C 514.551 -1.84911 -0.34489 0
M  V30 5234 O 513.909 -1.31363 -1.24954 0
M  V30 5235 C 513.957 -3.16179 1.73388 0
M  V30 5236 O 513.061 -4.00124 0.99871 0
M  V30 5237 H 512.402 -0.540954 0.385052 0
M  V30 5238 H 514.932 -1.22546 1.6384 0
M  V30 5239 H 514.942 -3.66741 1.78788 0
M  V30 5240 H 513.617 -3.08917 2.78466 0
M  V30 5241 H 512.194 -3.58624 1.02193 0
M  V30 5242 N 514.379 -1.04941 -1.1758 0
M  V30 5243 C 515.342 -0.652456 -2.19717 0
M  V30 5244 C 516.342 0.294745 -1.58076 0
M  V30 5245 O 517.532 0.0789579 -1.74021 0
M  V30 5246 C 514.664 0.0420712 -3.40874 0
M  V30 5247 H 515.857 -1.55642 -2.5635 0
M  V30 5248 H 513.41 -0.842995 -1.31618 0
M  V30 5249 H 514.145 0.95943 -3.09783 0
M  V30 5250 H 513.93 -0.638844 -3.86861 0
M  V30 5251 H 515.42 0.306 -4.16477 0
M  V30 5252 N 515.857 1.33968 -0.830081 0
M  V30 5253 C 517.103 1.98357 -0.422191 0
M  V30 5254 C 517.436 1.65633 1.01387 0
M  V30 5255 O 516.711 0.931648 1.70735 0
M  V30 5256 C 516.994 3.54492 -0.633043 0
M  V30 5257 C 516.847 3.96934 -2.11574 0
M  V30 5258 C 518.166 4.40039 -0.0735584 0
M  V30 5259 H 515.285 0.720544 -0.154871 0
M  V30 5260 H 517.927 1.58749 -1.04397 0
M  V30 5261 H 516.077 3.88361 -0.103775 0
M  V30 5262 H 517.749 3.73363 -2.7092 0
M  V30 5263 H 515.992 3.46984 -2.60354 0
M  V30 5264 H 516.663 5.05651 -2.21406 0
M  V30 5265 H 519.139 4.12764 -0.52585 0
M  V30 5266 H 518.015 5.48327 -0.250841 0
M  V30 5267 H 518.276 4.30124 1.02202 0
M  V30 5268 N 517.335 0.585699 1.46312 0
M  V30 5269 C 518.584 0.0701192 2.01578 0
M  V30 5270 C 518.897 -1.29889 1.46247 0
M  V30 5271 O 520.103 -1.90598 1.93351 0
M  V30 5272 C 518.559 0.0747499 3.59822 0
M  V30 5273 C 518.167 1.44226 4.24149 0
M  V30 5274 C 519.911 -0.38673 4.22735 0
M  V30 5275 C 517.818 1.40446 5.74481 0
M  V30 5276 H 516.748 0.0224441 0.753666 0
M  V30 5277 H 519.399 0.737789 1.68015 0
M  V30 5278 H 517.781 -0.659144 3.90476 0
M  V30 5279 H 518.955 2.19612 4.05101 0
M  V30 5280 H 517.27 1.84401 3.73343 0
M  V30 5281 H 519.867 -0.433853 5.32937 0
M  V30 5282 H 520.21 -1.40489 3.91878 0
M  V30 5283 H 520.743 0.293195 3.96718 0
M  V30 5284 H 517.482 2.39952 6.10003 0
M  V30 5285 H 517.002 0.692845 5.95785 0
M  V30 5286 H 518.681 1.11865 6.37256 0
M  V30 5287 N 518.813 -1.54241 0.323641 0
M  V30 5288 C 520.041 -2.04985 -0.280871 0
M  V30 5289 C 520.456 -1.19978 -1.45777 0
M  V30 5290 O 519.813 -0.230471 -1.81039 0
M  V30 5291 C 519.864 -3.54353 -0.715258 0
M  V30 5292 O 519.585 -4.36132 0.414817 0
M  V30 5293 C 521.086 -4.21189 -1.38257 0
M  V30 5294 H 518.306 -0.66851 -0.0577502 0
M  V30 5295 H 520.85 -1.99029 0.469852 0
M  V30 5296 H 519.005 -3.60596 -1.41596 0
M  V30 5297 H 519.419 -5.2445 0.0725227 0
M  V30 5298 H 520.893 -5.27154 -1.63745 0
M  V30 5299 H 521.37 -3.72307 -2.32989 0
M  V30 5300 H 521.976 -4.19085 -0.724447 0
M  V30 5301 N 520.291 -0.0518155 -1.57515 0
M  V30 5302 C 521.254 0.907547 -2.10467 0
M  V30 5303 C 522.254 1.23947 -1.02439 0
M  V30 5304 O 523.444 1.17604 -1.2851 0
M  V30 5305 C 520.576 2.21723 -2.58944 0
M  V30 5306 H 521.769 0.44851 -2.96527 0
M  V30 5307 H 519.322 0.196598 -1.55059 0
M  V30 5308 H 520.057 2.72206 -1.76279 0
M  V30 5309 H 519.842 1.98935 -3.37886 0
M  V30 5310 H 521.332 2.90441 -3.00056 0
M  V30 5311 N 521.769 1.56035 0.221574 0
M  V30 5312 C 522.732 1.91584 1.2581 0
M  V30 5313 C 523.732 0.794425 1.39805 0
M  V30 5314 O 524.922 1.06217 1.38071 0
M  V30 5315 C 522.054 2.16663 2.63192 0
M  V30 5316 H 523.247 2.8429 0.954935 0
M  V30 5317 H 520.8 1.49316 0.461988 0
M  V30 5318 H 521.535 1.26508 2.98607 0
M  V30 5319 H 521.32 2.98358 2.5441 0
M  V30 5320 H 522.81 2.45262 3.37988 0
M  V30 5321 N 523.247 -0.488276 1.49845 0
M  V30 5322 C 524.472 -1.26997 1.63971 0
M  V30 5323 C 524.897 -1.85427 0.315994 0
M  V30 5324 O 524.255 -1.66475 -0.718032 0
M  V30 5325 C 524.303 -2.36689 2.72049 0
M  V30 5326 O 523.407 -3.40882 2.32107 0
M  V30 5327 H 522.748 -0.374376 0.548396 0
M  V30 5328 H 525.278 -0.583104 1.96115 0
M  V30 5329 H 525.288 -2.82262 2.94605 0
M  V30 5330 H 523.963 -1.93529 3.68129 0
M  V30 5331 H 522.54 -3.01139 2.19931 0
M  V30 5332 N 524.725 -1.39134 -0.740242 0
M  V30 5333 C 525.953 -1.39334 -1.5295 0
M  V30 5334 C 526.368 0.0135008 -1.88795 0
M  V30 5335 O 525.725 0.983524 -1.5373 0
M  V30 5336 C 525.776 -2.2614 -2.82034 0
M  V30 5337 O 525.497 -3.61345 -2.47712 0
M  V30 5338 C 526.998 -2.34666 -3.76094 0
M  V30 5339 H 524.218 -0.476103 -0.472828 0
M  V30 5340 H 526.762 -1.82883 -0.9151 0
M  V30 5341 H 524.917 -1.86018 -3.39818 0
M  V30 5342 H 525.331 -4.07194 -3.30595 0
M  V30 5343 H 526.805 -2.99663 -4.63579 0
M  V30 5344 H 527.282 -1.36426 -4.17474 0
M  V30 5345 H 527.888 -2.75236 -3.2423 0
M  V30 5346 N 526.204 0.969867 -1.24223 0
M  V30 5347 C 527.134 2.08191 -1.05729 0
M  V30 5348 C 528.115 1.70075 0.0290765 0
M  V30 5349 O 529.3 1.93712 -0.137583 0
M  V30 5350 C 526.43 3.40991 -0.658995 0
M  V30 5351 C 525.384 3.93054 -1.69389 0
M  V30 5352 C 524.71 5.22171 -1.15072 0
M  V30 5353 C 526.01 4.21137 -3.08935 0
M  V30 5354 H 527.704 2.23921 -1.98746 0
M  V30 5355 H 525.25 1.07602 -0.956967 0
M  V30 5356 H 527.203 4.18221 -0.51662 0
M  V30 5357 H 525.927 3.25155 0.30686 0
M  V30 5358 H 524.586 3.17977 -1.82444 0
M  V30 5359 H 524.234 5.02694 -0.175539 0
M  V30 5360 H 523.934 5.57973 -1.84229 0
M  V30 5361 H 525.458 6.02013 -1.02042 0
M  V30 5362 H 526.872 4.8908 -2.99121 0
M  V30 5363 H 525.269 4.68163 -3.75425 0
M  V30 5364 H 526.339 3.27996 -3.57137 0
M  V30 5365 N 527.682 1.05563 1.17022 0
M  V30 5366 C 528.612 0.681026 2.23348 0
M  V30 5367 C 529.593 -0.322983 1.67005 0
M  V30 5368 O 530.778 -0.199746 1.9317 0
M  V30 5369 C 527.908 0.0589053 3.4725 0
M  V30 5370 C 526.862 0.988082 4.16438 0
M  V30 5371 C 526.188 0.229646 5.34207 0
M  V30 5372 C 527.488 2.31388 4.68249 0
M  V30 5373 H 529.182 1.56993 2.54938 0
M  V30 5374 H 526.728 0.756302 1.2254 0
M  V30 5375 H 528.681 -0.214982 4.20851 0
M  V30 5376 H 527.405 -0.864968 3.14938 0
M  V30 5377 H 526.064 1.24659 3.44754 0
M  V30 5378 H 525.712 -0.697111 4.98146 0
M  V30 5379 H 525.412 0.848815 5.81437 0
M  V30 5380 H 526.936 -0.0368694 6.10589 0
M  V30 5381 H 528.35 2.09964 5.33468 0
M  V30 5382 H 526.747 2.88736 5.26072 0
M  V30 5383 H 527.817 2.94982 3.84855 0
M  V30 5384 N 529.16 -1.33526 0.837174 0
M  V30 5385 C 530.388 -2.02047 0.445494 0
M  V30 5386 C 530.803 -1.62995 -0.952788 0
M  V30 5387 O 530.16 -0.842447 -1.61892 0
M  V30 5388 C 530.211 -3.57221 0.554577 0
M  V30 5389 O 529.932 -3.94863 1.89776 0
M  V30 5390 C 531.433 -4.43012 0.159634 0
M  V30 5391 H 528.653 -0.647221 0.177048 0
M  V30 5392 H 531.197 -1.70492 1.12928 0
M  V30 5393 H 529.352 -3.87315 -0.0812781 0
M  V30 5394 H 529.766 -4.89569 1.88208 0
M  V30 5395 H 531.24 -5.51253 0.28701 0
M  V30 5396 H 531.717 -4.29916 -0.898289 0
M  V30 5397 H 532.323 -4.18274 0.769855 0
M  V30 5398 N 530.638 -0.59345 -1.46 0
M  V30 5399 C 531.548 0.135817 -2.34207 0
M  V30 5400 C 532.564 0.875008 -1.50398 0
M  V30 5401 O 533.74 0.835778 -1.83239 0
M  V30 5402 C 530.805 1.12977 -3.27776 0
M  V30 5403 C 529.866 0.394081 -4.27487 0
M  V30 5404 C 529.099 1.34068 -5.16586 0
M  V30 5405 O 529.322 2.5778 -5.08828 0
M  V30 5406 O 528.256 0.845426 -5.95933 0
M  V30 5407 H 532.082 -0.588691 -2.9794 0
M  V30 5408 H 529.667 -0.353784 -1.45151 0
M  V30 5409 H 531.549 1.70261 -3.85473 0
M  V30 5410 H 530.224 1.83556 -2.66625 0
M  V30 5411 H 529.131 -0.220869 -3.73447 0
M  V30 5412 H 530.464 -0.270939 -4.91454 0
M  V30 5413 N 532.116 1.54067 -0.331816 0
M  V30 5414 C 533.046 2.27569 0.522932 0
M  V30 5415 C 534.027 1.28679 1.11247 0
M  V30 5416 O 535.212 1.57504 1.13605 0
M  V30 5417 C 532.342 3.0397 1.67987 0
M  V30 5418 C 531.296 4.10267 1.21924 0
M  V30 5419 C 530.622 4.74555 2.46377 0
M  V30 5420 C 531.922 5.21268 0.32815 0
M  V30 5421 H 533.616 2.99264 -0.0901977 0
M  V30 5422 H 531.162 1.4393 -0.044821 0
M  V30 5423 H 533.115 3.54123 2.28418 0
M  V30 5424 H 531.839 2.29906 2.31971 0
M  V30 5425 H 530.498 3.61009 0.637809 0
M  V30 5426 H 530.146 3.97098 3.08743 0
M  V30 5427 H 529.846 5.46363 2.16243 0
M  V30 5428 H 531.37 5.27487 3.07555 0
M  V30 5429 H 532.784 5.67128 0.838978 0
M  V30 5430 H 531.181 5.99982 0.119228 0
M  V30 5431 H 532.251 4.80673 -0.638839 0
M  V30 5432 N 533.594 0.0601682 1.57485 0
M  V30 5433 C 534.841 -0.611594 1.93043 0
M  V30 5434 C 535.169 -1.70317 0.939274 0
M  V30 5435 O 534.424 -1.95644 -0.046996 0
M  V30 5436 C 534.723 -1.23831 3.35262 0
M  V30 5437 C 534.389 -0.274037 4.50066 0
M  V30 5438 C 533.051 -0.00872394 4.81199 0
M  V30 5439 C 535.403 0.386308 5.19766 0
M  V30 5440 C 532.731 0.924218 5.79375 0
M  V30 5441 C 535.083 1.3075 6.1894 0
M  V30 5442 C 533.747 1.58139 6.48497 0
M  V30 5443 H 533.017 -0.223798 0.706396 0
M  V30 5444 H 535.664 0.128566 1.91068 0
M  V30 5445 H 533.969 -2.05394 3.33647 0
M  V30 5446 H 535.666 -1.76517 3.60059 0
M  V30 5447 H 532.256 -0.491008 4.25778 0
M  V30 5448 H 536.44 0.194436 4.95919 0
M  V30 5449 H 531.696 1.1438 6.00606 0
M  V30 5450 H 535.87 1.82519 6.72056 0
M  V30 5451 H 533.497 2.30593 7.24383 0
M  V30 5452 N 535.072 -1.5615 -0.213296 0
M  V30 5453 C 536.297 -1.83986 -0.957282 0
M  V30 5454 C 536.722 -0.641526 -1.76822 0
M  V30 5455 O 536.08 0.409722 -1.7661 0
M  V30 5456 C 536.128 -3.09889 -1.84393 0
M  V30 5457 O 535.232 -2.89163 -2.94038 0
M  V30 5458 H 534.573 -0.606357 -0.270605 0
M  V30 5459 H 537.103 -2.03369 -0.224111 0
M  V30 5460 H 537.113 -3.40209 -2.25215 0
M  V30 5461 H 535.788 -3.96735 -1.24795 0
M  V30 5462 H 534.365 -2.70097 -2.57103 0
M  V30 5463 N 536.55 0.480323 -1.50102 0
M  V30 5464 C 537.498 1.60024 -1.68805 0
M  V30 5465 C 538.492 1.60089 -0.553888 0
M  V30 5466 O 539.698 1.64349 -0.734127 0
M  V30 5467 H 536.073 0.530841 -0.532646 0
M  V30 5468 H 538.044 1.41408 -2.62767 0
M  V30 5469 C 536.793 2.98029 -1.79092 0
M  V30 5470 H 536.116 2.98694 -2.65748 0
M  V30 5471 H 537.556 3.75871 -1.96206 0
M  V30 5472 C 536.015 3.32538 -0.540388 0
M  V30 5473 O 536.545 4.00386 0.324637 0
M  V30 5474 N 534.751 2.87873 -0.397154 0
M  V30 5475 H 534.298 2.32834 -1.1021 0
M  V30 5476 H 534.256 3.11328 0.438425 0
M  V30 5477 N 538.028 1.39524 0.732853 0
M  V30 5478 C 538.975 1.38416 1.84688 0
M  V30 5479 C 539.945 0.243539 1.64305 0
M  V30 5480 O 541.13 0.438979 1.85681 0
M  V30 5481 C 538.27 1.23555 3.22224 0
M  V30 5482 C 537.383 2.47179 3.54298 0
M  V30 5483 C 536.518 2.2489 4.81246 0
M  V30 5484 C 535.557 3.44178 5.0617 0
M  V30 5485 N 534.694 3.21192 6.24323 0
M  V30 5486 H 539.534 2.33645 1.84971 0
M  V30 5487 H 537.071 1.16059 0.903804 0
M  V30 5488 H 539.029 1.12949 4.0162 0
M  V30 5489 H 537.659 0.31954 3.21215 0
M  V30 5490 H 536.711 2.68379 2.69587 0
M  V30 5491 H 538.023 3.36022 3.68633 0
M  V30 5492 H 537.177 2.11538 5.68627 0
M  V30 5493 H 535.916 1.33443 4.69089 0
M  V30 5494 H 534.921 3.58025 4.17251 0
M  V30 5495 H 536.146 4.36528 5.20212 0
M  V30 5496 H 534.092 2.32413 6.1345 0
M  V30 5497 H 534.009 4.03594 6.39256 0
M  V30 5498 H 535.277 3.1154 7.14537 0
M  V30 5499 N 539.506 -0.963266 1.24736 0
M  V30 5500 C 540.754 -1.70343 1.08755 0
M  V30 5501 C 541.075 -1.91387 -0.373619 0
M  V30 5502 O 540.345 -1.4948 -1.2662 0
M  V30 5503 H 538.925 -0.631224 0.399456 0
M  V30 5504 H 541.587 -1.15859 1.56725 0
M  V30 5505 H 540.683 -2.68616 1.58909 0
M  V30 5506 N 540.985 -1.06182 -1.16461 0
M  V30 5507 C 542.21 -0.798599 -1.91408 0
M  V30 5508 C 542.635 0.640987 -1.76842 0
M  V30 5509 O 541.993 1.44652 -1.09296 0
M  V30 5510 C 542.041 -1.19665 -3.40165 0
M  V30 5511 O 541.145 -0.334768 -4.11039 0
M  V30 5512 H 540.486 -0.291961 -0.596368 0
M  V30 5513 H 543.016 -1.41732 -1.47557 0
M  V30 5514 H 543.026 -1.16772 -3.90933 0
M  V30 5515 H 541.701 -2.24526 -3.50087 0
M  V30 5516 H 540.278 -0.425168 -3.70468 0
M  V30 5517 N 542.463 1.3308 -0.844243 0
M  V30 5518 C 543.711 1.97215 -0.441676 0
M  V30 5519 C 544.032 1.67185 1.0037 0
M  V30 5520 O 543.302 0.973588 1.69994 0
M  V30 5521 H 541.882 0.72959 -0.160335 0
M  V30 5522 H 544.544 1.62348 -1.07838 0
M  V30 5523 H 543.64 3.06698 -0.57815 0
M  V30 5524 N 543.941 0.601185 1.45683 0
M  V30 5525 C 545.169 0.100054 2.06658 0
M  V30 5526 C 545.584 -1.21285 1.44691 0
M  V30 5527 O 544.941 -1.73735 0.558772 0
M  V30 5528 C 544.992 -0.0528579 3.61461 0
M  V30 5529 O 544.713 1.20809 4.21114 0
M  V30 5530 C 546.214 -0.586193 4.39407 0
M  V30 5531 H 543.434 0.065905 0.667756 0
M  V30 5532 H 545.978 0.827101 1.87028 0
M  V30 5533 H 544.133 -0.730203 3.80456 0
M  V30 5534 H 544.547 1.03368 5.14213 0
M  V30 5535 H 546.021 -0.642297 5.4825 0
M  V30 5536 H 546.498 -1.60713 4.0874 0
M  V30 5537 H 547.104 0.0568935 4.25262 0
M  V30 5538 N 545.419 -1.53889 0.339982 0
M  V30 5539 C 546.349 -2.27843 -0.510856 0
M  V30 5540 C 547.33 -1.29267 -1.10563 0
M  V30 5541 O 548.515 -1.58104 -1.12768 0
M  V30 5542 C 545.645 -3.04857 -1.66372 0
M  V30 5543 C 544.599 -4.10907 -1.19746 0
M  V30 5544 C 543.925 -4.75855 -2.43857 0
M  V30 5545 C 545.225 -5.21435 -0.300501 0
M  V30 5546 H 546.919 -2.99212 0.106067 0
M  V30 5547 H 544.465 -1.43904 0.0524533 0
M  V30 5548 H 546.418 -3.5533 -2.26537 0
M  V30 5549 H 545.142 -2.31133 -2.30749 0
M  V30 5550 H 543.801 -3.61342 -0.618654 0
M  V30 5551 H 543.449 -3.9873 -3.06633 0
M  V30 5552 H 543.149 -5.47502 -2.13343 0
M  V30 5553 H 544.673 -5.2911 -3.04754 0
M  V30 5554 H 546.087 -5.67565 -0.80889 0
M  V30 5555 H 544.484 -6.00036 -0.0874076 0
M  V30 5556 H 545.554 -4.80328 0.664321 0
M  V30 5557 N 546.897 -0.0685191 -1.57451 0
M  V30 5558 C 548.144 0.601348 -1.93365 0
M  V30 5559 C 548.472 1.69816 -0.948294 0
M  V30 5560 O 547.727 1.95666 0.0366199 0
M  V30 5561 C 548.026 1.22051 -3.35914 0
M  V30 5562 C 547.692 0.250165 -4.50205 0
M  V30 5563 C 546.354 -0.0167954 -4.81197 0
M  V30 5564 C 548.706 -0.413867 -5.19554 0
M  V30 5565 C 546.034 -0.95493 -5.78876 0
M  V30 5566 C 548.386 -1.3403 -6.18238 0
M  V30 5567 C 547.05 -1.61576 -6.47649 0
M  V30 5568 H 546.32 0.220049 -0.707573 0
M  V30 5569 H 548.967 -0.138697 -1.90997 0
M  V30 5570 H 547.272 2.03622 -3.34732 0
M  V30 5571 H 548.969 1.74605 -3.6099 0
M  V30 5572 H 545.559 0.468421 -4.26033 0
M  V30 5573 H 549.743 -0.220733 -4.95809 0
M  V30 5574 H 544.999 -1.17563 -5.99991 0
M  V30 5575 H 549.173 -1.86081 -6.71079 0
M  V30 5576 H 546.8 -2.34431 -7.2315 0
M  V30 5577 N 548.375 1.56261 0.205012 0
M  V30 5578 C 549.322 1.93754 1.25411 0
M  V30 5579 C 550.292 0.796826 1.45739 0
M  V30 5580 O 551.477 1.05414 1.59036 0
M  V30 5581 C 548.617 2.27383 2.59598 0
M  V30 5582 C 547.73 3.5447 2.46931 0
M  V30 5583 C 546.865 3.77468 3.73753 0
M  V30 5584 C 545.904 4.98014 3.55877 0
M  V30 5585 N 545.041 5.17316 4.74688 0
M  V30 5586 H 549.881 2.83203 0.92737 0
M  V30 5587 H 547.418 1.40158 0.446574 0
M  V30 5588 H 549.376 2.44895 3.37761 0
M  V30 5589 H 548.006 1.41088 2.90335 0
M  V30 5590 H 547.058 3.45061 1.60116 0
M  V30 5591 H 548.37 4.42789 2.29651 0
M  V30 5592 H 547.524 3.95165 4.60358 0
M  V30 5593 H 546.263 2.87461 3.93976 0
M  V30 5594 H 545.268 4.80249 2.67657 0
M  V30 5595 H 546.493 5.8952 3.37109 0
M  V30 5596 H 544.439 4.30255 4.95194 0
M  V30 5597 H 544.356 5.99796 4.60197 0
M  V30 5598 H 545.624 5.39463 5.62672 0
M  V30 5599 N 549.853 -0.472356 1.50355 0
M  V30 5600 C 550.801 -1.59126 1.69651 0
M  V30 5601 C 551.795 -1.59793 0.56237 0
M  V30 5602 O 553.001 -1.63957 0.742832 0
M  V30 5603 H 549.376 -0.528008 0.535454 0
M  V30 5604 H 551.347 -1.40013 2.63513 0
M  V30 5605 C 550.096 -2.97075 1.8067 0
M  V30 5606 H 549.419 -2.9728 2.67329 0
M  V30 5607 H 550.859 -3.74825 1.98197 0
M  V30 5608 C 549.318 -3.32247 0.558016 0
M  V30 5609 O 549.848 -4.00553 -0.303399 0
M  V30 5610 N 548.054 -2.87659 0.412415 0
M  V30 5611 H 547.601 -2.32246 1.11443 0
M  V30 5612 H 547.559 -3.11556 -0.421908 0
M  V30 5613 N 551.331 -1.39911 -0.725443 0
M  V30 5614 C 552.294 -1.39156 -1.82121 0
M  V30 5615 C 553.294 -0.287018 -1.58218 0
M  V30 5616 O 554.484 -0.545421 -1.65441 0
M  V30 5617 C 551.616 -1.1736 -3.20062 0
M  V30 5618 H 552.809 -2.36672 -1.84191 0
M  V30 5619 H 550.362 -1.25615 -0.930079 0
M  V30 5620 H 551.097 -0.205648 -3.23647 0
M  V30 5621 H 550.882 -1.97358 -3.3881 0
M  V30 5622 H 552.372 -1.19596 -4.00108 0
M  V30 5623 N 552.809 0.956637 -1.25245 0
M  V30 5624 C 553.719 2.0868 -1.0719 0
M  V30 5625 C 554.735 1.73997 -0.00959074 0
M  V30 5626 O 555.911 2.00301 -0.210104 0
M  V30 5627 C 552.976 3.39754 -0.690526 0
M  V30 5628 C 552.037 3.88316 -1.83055 0
M  V30 5629 C 551.27 5.13134 -1.46728 0
M  V30 5630 O 551.493 5.6925 -0.362029 0
M  V30 5631 O 550.427 5.56356 -2.29677 0
M  V30 5632 H 554.253 2.26813 -2.01965 0
M  V30 5633 H 551.838 1.07098 -1.04165 0
M  V30 5634 H 553.72 4.18543 -0.489871 0
M  V30 5635 H 552.395 3.22896 0.227981 0
M  V30 5636 H 551.302 3.1054 -2.08604 0
M  V30 5637 H 552.635 4.09669 -2.72822 0
M  V30 5638 N 554.287 1.06798 1.15896 0
M  V30 5639 C 555.703 0.792423 1.38538 0
M  V30 5640 C 555.903 -0.60592 1.92174 0
M  V30 5641 O 554.959 -1.36561 2.12385 0
M  V30 5642 C 556.272 1.86157 2.36149 0
M  V30 5643 C 557.82 1.88567 2.49823 0
M  V30 5644 C 558.295 2.9455 3.5072 0
M  V30 5645 N 559.786 2.93616 3.58251 0
M  V30 5646 C 560.521 3.72267 4.36125 0
M  V30 5647 N 560.017 4.60751 5.17379 0
M  V30 5648 N 561.81 3.60637 4.31158 0
M  V30 5649 H 553.961 1.96993 0.794198 0
M  V30 5650 H 556.224 0.853942 0.411688 0
M  V30 5651 H 555.93 2.86603 2.03843 0
M  V30 5652 H 555.804 1.71692 3.3586 0
M  V30 5653 H 558.191 0.887765 2.8143 0
M  V30 5654 H 558.272 2.0711 1.5013 0
M  V30 5655 H 557.916 3.94537 3.19849 0
M  V30 5656 H 557.846 2.73255 4.50155 0
M  V30 5657 H 560.337 2.29472 3.00252 0
M  V30 5658 H 560.65 5.17408 5.74028 0
M  V30 5659 H 558.995 4.64803 5.16704 0
M  V30 5660 H 562.186 2.90892 3.66742 0
M  V30 5661 H 562.359 4.22176 4.91601 0
M  V30 5662 N 555.766 -1.3263 0.851289 0
M  V30 5663 C 556.699 -2.26952 0.238318 0
M  V30 5664 C 557.677 -1.50243 -0.621757 0
M  V30 5665 O 558.861 -1.79378 -0.579298 0
M  V30 5666 C 555.988 -3.32124 -0.664178 0
M  V30 5667 C 555.034 -4.26325 0.122067 0
M  V30 5668 S 555.867 -5.14404 1.48824 0
M  V30 5669 C 557.023 -6.231 0.591372 0
M  V30 5670 H 557.256 -2.78594 1.03791 0
M  V30 5671 H 554.789 -1.4011 0.648731 0
M  V30 5672 H 556.747 -3.93197 -1.17924 0
M  V30 5673 H 555.408 -2.79273 -1.43755 0
M  V30 5674 H 554.601 -5.00821 -0.565181 0
M  V30 5675 H 554.203 -3.69652 0.568602 0
M  V30 5676 H 556.495 -6.77187 -0.205762 0
M  V30 5677 H 557.438 -6.95936 1.30687 0
M  V30 5678 H 557.846 -5.64252 0.167206 0
M  V30 5679 N 557.244 -0.608902 -1.45362 0
M  V30 5680 C 558.174 0.0964526 -2.33301 0
M  V30 5681 C 559.155 0.857444 -1.46908 0
M  V30 5682 O 560.34 0.827735 -1.75676 0
M  V30 5683 C 557.47 1.09354 -3.29635 0
M  V30 5684 C 556.424 0.445676 -4.25673 0
M  V30 5685 C 555.75 1.5511 -5.11708 0
M  V30 5686 C 557.05 -0.633972 -5.18438 0
M  V30 5687 H 558.744 -0.637829 -2.92527 0
M  V30 5688 H 556.29 -0.308178 -1.40664 0
M  V30 5689 H 558.243 1.59556 -3.90025 0
M  V30 5690 H 556.967 1.85843 -2.6857 0
M  V30 5691 H 555.626 -0.0354897 -3.66583 0
M  V30 5692 H 555.274 2.30631 -4.4701 0
M  V30 5693 H 554.974 1.12311 -5.76767 0
M  V30 5694 H 556.498 2.05537 -5.74967 0
M  V30 5695 H 557.912 -0.215974 -5.72893 0
M  V30 5696 H 556.309 -0.983789 -5.91981 0
M  V30 5697 H 557.379 -1.51005 -4.60788 0
M  V30 5698 N 558.722 1.53707 -0.348139 0
M  V30 5699 C 560.138 1.596 0.00361134 0
M  V30 5700 C 560.338 1.36394 1.4832 0
M  V30 5701 O 559.394 1.16046 2.24253 0
M  V30 5702 C 560.707 2.97512 -0.436682 0
M  V30 5703 C 562.255 3.10568 -0.389416 0
M  V30 5704 C 562.73 4.50866 -0.805249 0
M  V30 5705 N 564.221 4.56929 -0.759616 0
M  V30 5706 C 564.956 5.63643 -1.05327 0
M  V30 5707 N 564.452 6.78189 -1.41531 0
M  V30 5708 N 566.245 5.5354 -0.977207 0
M  V30 5709 H 558.396 1.67044 -1.31187 0
M  V30 5710 H 560.659 0.782559 -0.535075 0
M  V30 5711 H 560.365 3.19575 -1.46849 0
M  V30 5712 H 560.239 3.76742 0.185744 0
M  V30 5713 H 562.626 2.88226 0.633228 0
M  V30 5714 H 562.707 2.33387 -1.04711 0
M  V30 5715 H 562.351 4.73943 -1.82593 0
M  V30 5716 H 562.281 5.26452 -0.124989 0
M  V30 5717 H 564.772 3.74675 -0.49265 0
M  V30 5718 H 565.085 7.55541 -1.62411 0
M  V30 5719 H 563.43 6.79624 -1.45381 0
M  V30 5720 H 566.621 4.62932 -0.693675 0
M  V30 5721 H 566.794 6.36614 -1.2094 0
M  V30 5722 N 560.2 0.0768682 1.57412 0
M  V30 5723 C 561.446 -0.591961 1.93968 0
M  V30 5724 C 561.779 -1.68954 0.9575 0
M  V30 5725 O 561.054 -1.94496 -0.0124675 0
M  V30 5726 C 561.337 -1.16418 3.40762 0
M  V30 5727 C 561.19 -0.0728933 4.49741 0
M  V30 5728 C 562.509 -2.06814 3.88479 0
M  V30 5729 H 559.628 -0.213716 0.705333 0
M  V30 5730 H 562.27 0.14387 1.89455 0
M  V30 5731 H 560.42 -1.79128 3.4474 0
M  V30 5732 H 562.092 0.560446 4.57883 0
M  V30 5733 H 560.335 0.595859 4.29688 0
M  V30 5734 H 561.006 -0.513755 5.49604 0
M  V30 5735 H 563.482 -1.54033 3.8654 0
M  V30 5736 H 562.358 -2.43785 4.91793 0
M  V30 5737 H 562.619 -2.97844 3.26713 0
M  V30 5738 N 561.678 -1.56367 -0.196722 0
M  V30 5739 C 563.094 -1.49916 -0.54749 0
M  V30 5740 C 563.294 -0.77659 -1.85934 0
M  V30 5741 O 562.35 -0.32644 -2.50381 0
M  V30 5742 C 563.663 -2.94577 -0.603734 0
M  V30 5743 C 565.211 -3.05239 -0.692677 0
M  V30 5744 C 565.686 -4.51308 -0.780046 0
M  V30 5745 N 567.177 -4.55453 -0.843616 0
M  V30 5746 C 567.912 -5.65786 -0.931358 0
M  V30 5747 N 567.408 -6.85812 -0.981503 0
M  V30 5748 N 569.201 -5.53695 -0.968421 0
M  V30 5749 H 561.352 -2.01761 0.663803 0
M  V30 5750 H 563.615 -0.918094 0.236238 0
M  V30 5751 H 563.321 -3.50494 0.29105 0
M  V30 5752 H 563.195 -3.47841 -1.45898 0
M  V30 5753 H 565.582 -2.49372 -1.57789 0
M  V30 5754 H 565.663 -2.55103 0.188736 0
M  V30 5755 H 565.307 -5.078 0.100811 0
M  V30 5756 H 565.237 -4.99176 -1.67724 0
M  V30 5757 H 567.728 -3.69025 -0.814176 0
M  V30 5758 H 568.041 -7.65648 -1.04892 0
M  V30 5759 H 566.386 -6.88474 -0.950208 0
M  V30 5760 H 569.577 -4.58848 -0.926072 0
M  V30 5761 H 569.75 -6.39708 -1.03334 0
M  V30 5762 N 563.156 0.464375 -1.50603 0
M  V30 5763 C 564.381 1.24372 -1.65971 0
M  V30 5764 C 564.806 1.84901 -0.345453 0
M  V30 5765 O 564.164 1.67596 0.691457 0
M  V30 5766 C 564.212 2.32331 -2.7578 0
M  V30 5767 O 563.316 3.37146 -2.375 0
M  V30 5768 H 562.657 0.365604 -0.554283 0
M  V30 5769 H 565.187 0.55183 -1.97018 0
M  V30 5770 H 565.197 2.77539 -2.99059 0
M  V30 5771 H 563.872 1.87648 -3.71162 0
M  V30 5772 H 562.449 2.97602 -2.24694 0
M  V30 5773 N 564.634 1.40294 0.718013 0
M  V30 5774 C 565.564 1.43118 1.84498 0
M  V30 5775 C 566.545 0.292403 1.67568 0
M  V30 5776 O 567.73 0.500675 1.87635 0
M  V30 5777 C 564.86 1.29065 3.22427 0
M  V30 5778 C 563.814 2.40521 3.54025 0
M  V30 5779 C 563.14 2.11546 4.91073 0
M  V30 5780 C 564.44 3.82859 3.55269 0
M  V30 5781 H 566.134 2.37432 1.82391 0
M  V30 5782 H 563.68 1.14283 0.87609 0
M  V30 5783 H 565.633 1.29658 4.00957 0
M  V30 5784 H 564.357 0.312271 3.25104 0
M  V30 5785 H 563.016 2.39173 2.77834 0
M  V30 5786 H 562.664 1.12104 4.90348 0
M  V30 5787 H 562.364 2.86216 5.1318 0
M  V30 5788 H 563.888 2.13817 5.71939 0
M  V30 5789 H 565.302 3.86044 4.23843 0
M  V30 5790 H 563.699 4.57029 3.88902 0
M  V30 5791 H 564.769 4.12617 2.54706 0
M  V30 5792 N 566.112 -0.949982 1.2575 0
M  V30 5793 C 567.389 -1.6718 1.01539 0
M  V30 5794 C 567.769 -2.06095 -0.456942 0
M  V30 5795 O 567.117 -1.77792 -1.43534 0
M  V30 5796 C 567.327 -2.8906 1.95564 0
M  V30 5797 C 568.675 -3.60909 2.23673 0
M  V30 5798 O 569.699 -2.9915 1.9336 0
M  V30 5799 O 568.558 -4.72127 2.75243 0
M  V30 5800 H 565.652 -0.731697 0.385419 0
M  V30 5801 H 568.198 -1.00249 1.36924 0
M  V30 5802 H 566.97 -2.57128 2.94959 0
M  V30 5803 H 566.593 -3.63719 1.60605 0
M  V30 5804 N 567.59 -1.07411 -1.15328 0
M  V30 5805 C 568.537 -0.694995 -2.20087 0
M  V30 5806 C 569.507 0.313904 -1.63107 0
M  V30 5807 O 570.692 0.200216 -1.89747 0
M  V30 5808 C 567.832 -0.0996218 -3.44956 0
M  V30 5809 C 566.945 -1.16007 -4.16133 0
M  V30 5810 C 566.08 -0.529636 -5.28553 0
M  V30 5811 C 565.119 -1.57283 -5.91548 0
M  V30 5812 N 564.256 -0.964932 -6.95438 0
M  V30 5813 H 569.096 -1.5927 -2.51867 0
M  V30 5814 H 566.633 -0.796115 -1.23695 0
M  V30 5815 H 568.591 0.263197 -4.16369 0
M  V30 5816 H 567.221 0.761435 -3.13691 0
M  V30 5817 H 566.273 -1.64045 -3.4321 0
M  V30 5818 H 567.585 -1.95101 -4.59061 0
M  V30 5819 H 566.739 -0.114487 -6.06592 0
M  V30 5820 H 565.478 0.29307 -4.86819 0
M  V30 5821 H 564.483 -1.99775 -5.12221 0
M  V30 5822 H 565.708 -2.39783 -6.35359 0
M  V30 5823 H 563.654 -0.16314 -6.55797 0
M  V30 5824 H 563.571 -1.69311 -7.36797 0
M  V30 5825 H 564.839 -0.575305 -7.77374 0
M  V30 5826 N 569.068 1.32177 -0.85831 0
M  V30 5827 C 569.998 2.31282 -0.321041 0
M  V30 5828 C 570.979 1.59841 0.581786 0
M  V30 5829 O 572.164 1.87619 0.501262 0
M  V30 5830 C 569.294 3.4385 0.48832 0
M  V30 5831 C 568.248 4.26799 -0.320391 0
M  V30 5832 C 567.574 5.31164 0.613934 0
M  V30 5833 C 568.874 4.98829 -1.54813 0
M  V30 5834 H 570.568 2.76469 -1.14915 0
M  V30 5835 H 568.114 1.32916 -0.554028 0
M  V30 5836 H 570.067 4.12224 0.874626 0
M  V30 5837 H 568.791 2.97401 1.34983 0
M  V30 5838 H 567.45 3.60077 -0.688497 0
M  V30 5839 H 567.098 4.80967 1.47239 0
M  V30 5840 H 566.798 5.8755 0.0768097 0
M  V30 5841 H 568.322 6.024 0.997336 0
M  V30 5842 H 569.736 5.59864 -1.23392 0
M  V30 5843 H 568.133 5.64957 -2.02346 0
M  V30 5844 H 569.203 4.26483 -2.30739 0
M  V30 5845 N 570.547 0.616602 1.45037 0
M  V30 5846 C 571.824 0.0469086 1.95544 0
M  V30 5847 C 572.204 -1.42345 1.55888 0
M  V30 5848 O 571.552 -2.13055 0.825824 0
M  V30 5849 C 571.762 0.254489 3.48071 0
M  V30 5850 C 573.11 0.140025 4.24369 0
M  V30 5851 O 574.134 0.185084 3.55719 0
M  V30 5852 O 572.993 0.0327034 5.4649 0
M  V30 5853 H 570.087 -0.0306051 0.826433 0
M  V30 5854 H 572.633 0.687293 1.55159 0
M  V30 5855 H 571.405 1.27532 3.69934 0
M  V30 5856 H 571.028 -0.42073 3.95368 0
M  V30 5857 N 572.025 -1.5352 0.356285 0
M  V30 5858 C 572.957 -2.23009 -0.529127 0
M  V30 5859 C 573.97 -1.241 -1.05371 0
M  V30 5860 O 575.159 -1.50379 -0.961679 0
M  V30 5861 C 572.259 -2.90685 -1.74229 0
M  V30 5862 C 571.432 -4.16019 -1.35081 0
M  V30 5863 C 570.491 -4.66989 -2.42502 0
M  V30 5864 O 569.517 -5.30895 -2.05279 0
M  V30 5865 N 570.719 -4.44006 -3.7395 0
M  V30 5866 H 573.484 -2.99627 0.0660501 0
M  V30 5867 H 571.045 -1.60885 0.181014 0
M  V30 5868 H 573.037 -3.21695 -2.4555 0
M  V30 5869 H 571.607 -2.17575 -2.24454 0
M  V30 5870 H 570.827 -3.91414 -0.467833 0
M  V30 5871 H 572.115 -4.9752 -1.06542 0
M  V30 5872 H 571.513 -3.92924 -4.06973 0
M  V30 5873 H 570.07 -4.7959 -4.41403 0
M  V30 5874 N 573.503 -0.0852151 -1.57369 0
M  V30 5875 C 574.751 0.579658 -1.93609 0
M  V30 5876 C 575.072 1.69332 -0.967043 0
M  V30 5877 O 574.342 1.95892 -0.0174215 0
M  V30 5878 H 572.922 0.217113 -0.714752 0
M  V30 5879 H 575.584 -0.146226 -1.94351 0
M  V30 5880 H 574.68 0.996276 -2.95771 0
M  V30 5881 N 574.981 1.5647 0.188427 0
M  V30 5882 C 576.397 1.50204 0.539532 0
M  V30 5883 C 576.597 0.78644 1.85519 0
M  V30 5884 O 575.653 0.339714 2.50204 0
M  V30 5885 C 576.966 2.94893 0.588103 0
M  V30 5886 C 578.514 3.05602 0.67648 0
M  V30 5887 C 578.989 4.51716 0.756101 0
M  V30 5888 N 580.48 4.55894 0.819451 0
M  V30 5889 C 581.215 5.66272 0.90134 0
M  V30 5890 N 580.711 6.86323 0.945118 0
M  V30 5891 N 582.504 5.54201 0.939043 0
M  V30 5892 H 574.655 2.01406 -0.674493 0
M  V30 5893 H 576.918 0.916828 -0.241103 0
M  V30 5894 H 576.624 3.50334 -0.309633 0
M  V30 5895 H 576.498 3.4861 1.44051 0
M  V30 5896 H 578.885 2.50206 1.56465 0
M  V30 5897 H 578.966 2.54999 -0.202262 0
M  V30 5898 H 578.61 5.07739 -0.12774 0
M  V30 5899 H 578.54 5.00058 1.65074 0
M  V30 5900 H 581.031 3.69452 0.794594 0
M  V30 5901 H 581.344 7.66194 1.0083 0
M  V30 5902 H 579.689 6.88968 0.913683 0
M  V30 5903 H 582.88 4.59333 0.901725 0
M  V30 5904 H 583.053 6.40247 0.999402 0
M  V30 5905 N 576.459 -0.456382 1.50847 0
M  V30 5906 C 577.389 -1.56025 1.73719 0
M  V30 5907 C 578.37 -1.5967 0.586473 0
M  V30 5908 O 579.555 -1.75702 0.827185 0
M  V30 5909 C 576.685 -2.94251 1.84483 0
M  V30 5910 C 575.639 -3.05471 2.99786 0
M  V30 5911 C 574.965 -4.45489 2.95709 0
M  V30 5912 C 576.265 -2.81318 4.40065 0
M  V30 5913 H 577.959 -1.37138 2.66146 0
M  V30 5914 H 575.505 -0.658299 1.28072 0
M  V30 5915 H 577.458 -3.71417 1.99067 0
M  V30 5916 H 576.182 -3.14328 0.886891 0
M  V30 5917 H 574.841 -2.30741 2.84876 0
M  V30 5918 H 574.489 -4.62505 1.97732 0
M  V30 5919 H 574.189 -4.53929 3.73125 0
M  V30 5920 H 575.713 -5.24655 3.12362 0
M  V30 5921 H 577.127 -3.48226 4.55425 0
M  V30 5922 H 575.524 -3.01188 5.19043 0
M  V30 5923 H 576.594 -1.7706 4.51418 0
M  V30 5924 N 577.937 -1.40673 -0.710563 0
M  V30 5925 C 579.183 -1.39428 -1.47267 0
M  V30 5926 C 579.516 0.00182129 -1.942 0
M  V30 5927 O 578.791 0.971387 -1.68506 0
M  V30 5928 C 579.074 -2.38812 -2.6952 0
M  V30 5929 C 578.927 -3.87467 -2.28449 0
M  V30 5930 C 580.246 -2.3566 -3.71689 0
M  V30 5931 H 577.365 -0.507768 -0.534173 0
M  V30 5932 H 580.007 -1.71843 -0.810547 0
M  V30 5933 H 578.157 -2.113 -3.26013 0
M  V30 5934 H 579.829 -4.25825 -1.77399 0
M  V30 5935 H 578.072 -4.03058 -1.60395 0
M  V30 5936 H 578.743 -4.5253 -3.16103 0
M  V30 5937 H 581.219 -2.6004 -3.24836 0
M  V30 5938 H 580.095 -3.07237 -4.54859 0
M  V30 5939 H 580.356 -1.36996 -4.20339 0
M  V30 5940 N 579.415 0.9433 -1.26252 0
M  V30 5941 C 580.692 1.66639 -1.02424 0
M  V30 5942 C 581.072 2.06335 0.446006 0
M  V30 5943 O 580.42 1.78551 1.42589 0
M  V30 5944 C 580.63 2.88019 -1.97094 0
M  V30 5945 C 581.978 3.59718 -2.25584 0
M  V30 5946 O 583.002 2.9812 -1.94943 0
M  V30 5947 O 581.861 4.7066 -2.77743 0
M  V30 5948 H 578.955 0.729643 -0.389294 0
M  V30 5949 H 581.501 0.995218 -1.37454 0
M  V30 5950 H 580.273 2.5556 -2.96319 0
M  V30 5951 H 579.896 3.62863 -1.62532 0
M  V30 5952 N 580.893 1.08022 1.14757 0
M  V30 5953 C 581.823 0.728248 2.21853 0
M  V30 5954 C 582.804 -0.287486 1.67653 0
M  V30 5955 O 583.989 -0.158727 1.9355 0
M  V30 5956 C 581.119 0.132549 3.47047 0
M  V30 5957 C 580.073 1.07619 4.14249 0
M  V30 5958 C 579.399 0.342907 5.33599 0
M  V30 5959 C 580.699 2.41268 4.63235 0
M  V30 5960 H 582.393 1.62365 2.51551 0
M  V30 5961 H 579.939 0.782125 1.20908 0
M  V30 5962 H 581.892 -0.125665 4.21213 0
M  V30 5963 H 580.616 -0.797971 3.16702 0
M  V30 5964 H 579.275 1.31944 3.42033 0
M  V30 5965 H 578.923 -0.59129 4.99513 0
M  V30 5966 H 578.623 0.971955 5.79506 0
M  V30 5967 H 580.147 0.0926538 6.1053 0
M  V30 5968 H 581.561 2.21232 5.28894 0
M  V30 5969 H 579.958 2.9983 5.19829 0
M  V30 5970 H 581.028 3.03079 3.78512 0
M  V30 5971 N 582.371 -1.3172 0.865308 0
M  V30 5972 C 583.617 -1.97168 0.474633 0
M  V30 5973 C 583.95 -1.68263 -0.969604 0
M  V30 5974 O 583.225 -0.976588 -1.68205 0
M  V30 5975 C 583.508 -3.52689 0.726808 0
M  V30 5976 C 583.361 -3.91185 2.22024 0
M  V30 5977 C 584.68 -4.39689 0.190201 0
M  V30 5978 H 581.799 -0.716185 0.17392 0
M  V30 5979 H 584.441 -1.55925 1.08569 0
M  V30 5980 H 582.591 -3.8795 0.206705 0
M  V30 5981 H 584.263 -3.66049 2.80724 0
M  V30 5982 H 582.506 -3.3996 2.69462 0
M  V30 5983 H 583.177 -4.99604 2.34735 0
M  V30 5984 H 585.653 -4.11225 0.635103 0
M  V30 5985 H 584.529 -5.47469 0.396132 0
M  V30 5986 H 584.79 -4.32683 -0.907625 0
M  V30 5987 N 583.85 -0.624285 -1.44708 0
M  V30 5988 C 584.798 0.0969952 -2.32398 0
M  V30 5989 C 585.792 0.842762 -1.46949 0
M  V30 5990 O 586.998 0.756436 -1.63334 0
M  V30 5991 H 583.373 0.0501306 -0.750327 0
M  V30 5992 H 585.344 -0.660767 -2.90992 0
M  V30 5993 C 584.093 1.06967 -3.30837 0
M  V30 5994 H 583.416 0.505242 -3.96595 0
M  V30 5995 H 584.856 1.54397 -3.94889 0
M  V30 5996 C 583.315 2.15153 -2.5925 0
M  V30 5997 O 583.845 3.23139 -2.3863 0
M  V30 5998 N 582.051 1.90898 -2.19103 0
M  V30 5999 H 581.598 1.03086 -2.36074 0
M  V30 6000 H 581.556 2.63485 -1.71531 0
M  V30 6001 N 585.328 1.53329 -0.364422 0
M  V30 6002 C 586.291 2.24323 0.470292 0
M  V30 6003 C 587.291 1.25068 1.01067 0
M  V30 6004 O 588.481 1.49354 0.896605 0
M  V30 6005 C 585.613 2.97908 1.65722 0
M  V30 6006 H 586.806 2.9952 -0.150917 0
M  V30 6007 H 584.359 1.55868 -0.116092 0
M  V30 6008 H 585.094 2.2695 2.31655 0
M  V30 6009 H 584.879 3.70732 1.27671 0
M  V30 6010 H 586.369 3.5188 2.24878 0
M  V30 6011 N 586.806 0.0935595 1.57322 0
M  V30 6012 C 588.031 -0.582324 1.99057 0
M  V30 6013 C 588.456 -1.61025 0.972242 0
M  V30 6014 O 587.814 -1.81202 -0.0594622 0
M  V30 6015 C 587.862 -1.20799 3.39765 0
M  V30 6016 O 586.966 -2.32382 3.40694 0
M  V30 6017 H 586.307 -0.147884 0.647323 0
M  V30 6018 H 588.837 0.174516 2.03854 0
M  V30 6019 H 588.847 -1.54966 3.77425 0
M  V30 6020 H 587.522 -0.454914 4.13405 0
M  V30 6021 H 586.099 -1.99845 3.14827 0
M  V30 6022 N 588.284 -1.56567 -0.180126 0
M  V30 6023 C 589.531 -1.81492 -0.898167 0
M  V30 6024 C 589.859 -0.669225 -1.82624 0
M  V30 6025 O 589.114 0.344096 -1.92651 0
M  V30 6026 C 589.413 -3.1252 -1.73395 0
M  V30 6027 C 589.079 -4.40658 -0.955567 0
M  V30 6028 C 587.741 -4.75465 -0.740707 0
M  V30 6029 C 590.093 -5.19593 -0.408948 0
M  V30 6030 C 587.421 -5.86691 0.0320128 0
M  V30 6031 C 589.773 -6.31627 0.350638 0
M  V30 6032 C 588.437 -6.65007 0.576378 0
M  V30 6033 H 587.707 -0.664125 -0.328662 0
M  V30 6034 H 590.354 -1.908 -0.163616 0
M  V30 6035 H 588.659 -2.98515 -2.53763 0
M  V30 6036 H 590.356 -3.29013 -2.29241 0
M  V30 6037 H 586.946 -4.13352 -1.13306 0
M  V30 6038 H 591.13 -4.93104 -0.562307 0
M  V30 6039 H 586.386 -6.11016 0.216735 0
M  V30 6040 H 590.56 -6.92001 0.781497 0
M  V30 6041 H 588.187 -7.51033 1.17703 0
M  V30 6042 N 589.762 0.448376 -1.51087 0
M  V30 6043 C 591.01 1.19635 -1.62886 0
M  V30 6044 C 591.331 1.91977 -0.342024 0
M  V30 6045 O 590.601 1.85094 0.641636 0
M  V30 6046 H 589.181 0.444598 -0.600285 0
M  V30 6047 H 591.843 0.515138 -1.87969 0
M  V30 6048 H 590.939 1.93194 -2.45117 0
M  V30 6049 N 591.24 1.41047 0.703093 0
M  V30 6050 C 592.187 1.42302 1.81711 0
M  V30 6051 C 593.157 0.278336 1.63751 0
M  V30 6052 O 594.342 0.478266 1.84709 0
M  V30 6053 C 591.482 1.30362 3.19531 0
M  V30 6054 C 590.595 2.54638 3.48975 0
M  V30 6055 C 589.73 2.35047 4.76368 0
M  V30 6056 C 588.769 3.54837 4.98756 0
M  V30 6057 N 587.906 3.34363 6.1737 0
M  V30 6058 H 592.746 2.37516 1.79973 0
M  V30 6059 H 590.283 1.1795 0.878983 0
M  V30 6060 H 592.241 1.21443 3.99134 0
M  V30 6061 H 590.871 0.387602 3.20464 0
M  V30 6062 H 589.923 2.74037 2.63833 0
M  V30 6063 H 591.235 3.43766 3.61423 0
M  V30 6064 H 590.389 2.23552 5.64012 0
M  V30 6065 H 589.128 1.43363 4.66153 0
M  V30 6066 H 588.133 3.66795 4.09563 0
M  V30 6067 H 589.358 4.47464 5.10835 0
M  V30 6068 H 587.304 2.45373 6.08382 0
M  V30 6069 H 587.221 4.17063 6.30551 0
M  V30 6070 H 588.489 3.26626 7.07768 0
M  V30 6071 N 592.718 -0.936591 1.26751 0
M  V30 6072 C 593.665 -2.03597 1.08706 0
M  V30 6073 C 594.635 -1.66097 -0.00926542 0
M  V30 6074 O 595.82 -1.90199 0.151377 0
M  V30 6075 C 592.96 -3.3727 0.73094 0
M  V30 6076 C 592.073 -3.87778 1.90399 0
M  V30 6077 C 591.208 -5.09859 1.49056 0
M  V30 6078 C 590.247 -5.5264 2.63164 0
M  V30 6079 N 589.384 -6.65921 2.22471 0
M  V30 6080 H 594.224 -2.18364 2.02784 0
M  V30 6081 H 591.761 -1.06985 1.00958 0
M  V30 6082 H 593.719 -4.14128 0.505328 0
M  V30 6083 H 592.349 -3.22337 -0.172868 0
M  V30 6084 H 591.401 -3.07279 2.2424 0
M  V30 6085 H 592.713 -4.15464 2.76028 0
M  V30 6086 H 591.867 -5.9419 1.22567 0
M  V30 6087 H 590.606 -4.8393 0.60524 0
M  V30 6088 H 589.611 -4.66863 2.90377 0
M  V30 6089 H 590.836 -5.80568 3.52303 0
M  V30 6090 H 588.782 -6.41667 1.36379 0
M  V30 6091 H 588.699 -6.93216 3.01641 0
M  V30 6092 H 589.967 -7.53616 1.99205 0
M  V30 6093 N 594.196 -1.08629 -1.14182 0
M  V30 6094 C 595.126 -0.740003 -2.21464 0
M  V30 6095 C 596.107 0.278591 -1.67803 0
M  V30 6096 O 597.292 0.148461 -1.93632 0
M  V30 6097 C 594.422 -0.150952 -3.46972 0
M  V30 6098 C 593.376 -1.09815 -4.13672 0
M  V30 6099 C 592.702 -0.3712 -5.3341 0
M  V30 6100 C 594.002 -2.43722 -4.61949 0
M  V30 6101 H 595.696 -1.63697 -2.50686 0
M  V30 6102 H 593.242 -0.788526 -1.20492 0
M  V30 6103 H 595.195 0.103325 -4.21273 0
M  V30 6104 H 593.919 0.781164 -3.1712 0
M  V30 6105 H 592.578 -1.33756 -3.41328 0
M  V30 6106 H 592.226 0.564792 -4.99819 0
M  V30 6107 H 591.926 -1.00267 -5.78982 0
M  V30 6108 H 593.45 -0.12503 -6.10472 0
M  V30 6109 H 594.864 -2.24034 -5.27714 0
M  V30 6110 H 593.261 -3.02582 -5.18232 0
M  V30 6111 H 594.331 -3.05082 -3.76899 0
M  V30 6112 N 595.674 1.31259 -0.872281 0
M  V30 6113 C 597.09 1.49283 -0.564521 0
M  V30 6114 C 597.29 1.80243 0.900807 0
M  V30 6115 O 596.346 1.88246 1.68284 0
M  V30 6116 C 597.659 2.62503 -1.46673 0
M  V30 6117 C 599.207 2.76386 -1.46901 0
M  V30 6118 C 599.682 3.92705 -2.35684 0
M  V30 6119 N 601.173 3.99995 -2.33577 0
M  V30 6120 C 601.908 4.89276 -2.98992 0
M  V30 6121 N 601.404 5.83443 -3.73585 0
M  V30 6122 N 603.197 4.82541 -2.88289 0
M  V30 6123 H 595.348 1.09432 -1.82039 0
M  V30 6124 H 597.611 0.540949 -0.77851 0
M  V30 6125 H 597.317 2.46407 -2.50951 0
M  V30 6126 H 597.191 3.58695 -1.16696 0
M  V30 6127 H 599.578 2.91894 -0.433796 0
M  V30 6128 H 599.659 1.80853 -1.80903 0
M  V30 6129 H 599.303 3.77954 -3.39283 0
M  V30 6130 H 599.233 4.87549 -1.99006 0
M  V30 6131 H 601.724 3.32624 -1.7936 0
M  V30 6132 H 602.037 6.48303 -4.20622 0
M  V30 6133 H 600.382 5.83415 -3.77694 0
M  V30 6134 H 603.573 4.07951 -2.2955 0
M  V30 6135 H 603.746 5.51916 -3.39549 0
M  V30 6136 N 597.152 0.631951 1.44375 0
M  V30 6137 C 598.429 0.067646 1.95483 0
M  V30 6138 C 598.809 -1.40683 1.57389 0
M  V30 6139 O 598.157 -2.12167 0.848375 0
M  V30 6140 C 598.367 0.291392 3.47781 0
M  V30 6141 C 599.715 0.185028 4.24197 0
M  V30 6142 O 600.739 0.222803 3.55503 0
M  V30 6143 O 599.598 0.0906642 5.46425 0
M  V30 6144 H 596.692 -0.0218379 0.826712 0
M  V30 6145 H 599.238 0.703711 1.54421 0
M  V30 6146 H 598.01 1.31449 3.68561 0
M  V30 6147 H 597.633 -0.378772 3.95792 0
M  V30 6148 N 598.631 -1.53133 0.372548 0
M  V30 6149 C 599.908 -1.93704 -0.271693 0
M  V30 6150 C 600.288 -1.30667 -1.65799 0
M  V30 6151 O 599.636 -0.46838 -2.23648 0
M  V30 6152 C 599.846 -3.47576 -0.314903 0
M  V30 6153 C 601.194 -4.20998 -0.551912 0
M  V30 6154 O 602.218 -3.53994 -0.39582 0
M  V30 6155 O 601.077 -5.39748 -0.85639 0
M  V30 6156 H 598.171 -0.810457 -0.164586 0
M  V30 6157 H 600.717 -1.6427 0.425838 0
M  V30 6158 H 599.489 -3.85749 0.656792 0
M  V30 6159 H 599.112 -3.83264 -1.05804 0
M  V30 6160 N 600.109 -0.101901 -1.5727 0
M  V30 6161 C 601.339 0.567568 -1.98651 0
M  V30 6162 C 601.747 1.61839 -0.980037 0
M  V30 6163 O 601.09 1.83661 0.0376564 0
M  V30 6164 C 601.152 1.26742 -3.36417 0
M  V30 6165 C 600.816 0.366561 -4.55528 0
M  V30 6166 C 601.813 -0.388022 -5.1845 0
M  V30 6167 C 599.498 0.282629 -5.01504 0
M  V30 6168 C 601.492 -1.21445 -6.25724 0
M  V30 6169 C 599.179 -0.547443 -6.08643 0
M  V30 6170 C 600.177 -1.29462 -6.70618 0
M  V30 6171 O 599.865 -2.11095 -7.7569 0
M  V30 6172 H 599.597 0.156282 -0.657687 0
M  V30 6173 H 602.151 -0.179912 -2.04611 0
M  V30 6174 H 600.381 2.06162 -3.27161 0
M  V30 6175 H 602.07 1.8321 -3.622 0
M  V30 6176 H 602.836 -0.332949 -4.83856 0
M  V30 6177 H 598.715 0.853868 -4.53023 0
M  V30 6178 H 602.259 -1.79814 -6.74027 0
M  V30 6179 H 598.156 -0.603971 -6.42668 0
M  V30 6180 H 598.924 -2.03851 -7.92709 0
M  V30 6181 N 601.587 1.56661 0.17182 0
M  V30 6182 C 602.517 1.99401 1.21498 0
M  V30 6183 C 603.498 0.869516 1.46197 0
M  V30 6184 O 604.683 1.13556 1.57539 0
M  V30 6185 C 601.813 2.35346 2.55401 0
M  V30 6186 C 600.767 3.5075 2.45272 0
M  V30 6187 C 600.093 3.72437 3.8366 0
M  V30 6188 C 601.393 4.84216 1.95787 0
M  V30 6189 H 603.087 2.86792 0.859699 0
M  V30 6190 H 600.633 1.37977 0.412103 0
M  V30 6191 H 602.586 2.63843 3.2858 0
M  V30 6192 H 601.31 1.44864 2.92715 0
M  V30 6193 H 599.969 3.2238 1.74547 0
M  V30 6194 H 599.617 2.79246 4.18367 0
M  V30 6195 H 599.317 4.50087 3.77751 0
M  V30 6196 H 600.841 4.03334 4.58426 0
M  V30 6197 H 602.255 5.11592 2.5874 0
M  V30 6198 H 600.652 5.65498 2.00827 0
M  V30 6199 H 601.722 4.76243 0.912159 0
M  V30 6200 N 603.065 -0.440357 1.51323 0
M  V30 6201 C 604.028 -1.51679 1.71832 0
M  V30 6202 C 605.028 -1.49648 0.588386 0
M  V30 6203 O 606.218 -1.51724 0.855891 0
M  V30 6204 C 603.35 -2.91228 1.77199 0
M  V30 6205 H 604.543 -1.34799 2.67898 0
M  V30 6206 H 602.096 -0.66883 1.41267 0
M  V30 6207 H 602.831 -3.13516 0.829363 0
M  V30 6208 H 602.616 -2.94107 2.59314 0
M  V30 6209 H 604.106 -3.69321 1.94915 0
M  V30 6210 N 604.543 -1.41418 -0.695603 0
M  V30 6211 C 605.768 -1.44329 -1.48942 0
M  V30 6212 C 606.193 -0.0501579 -1.88033 0
M  V30 6213 O 605.551 0.946598 -1.54626 0
M  V30 6214 C 605.599 -2.3578 -2.72837 0
M  V30 6215 O 604.703 -1.81482 -3.70322 0
M  V30 6216 H 604.044 -0.489838 -0.44828 0
M  V30 6217 H 606.574 -1.85878 -0.855014 0
M  V30 6218 H 606.584 -2.51654 -3.21145 0
M  V30 6219 H 605.259 -3.37005 -2.43722 0
M  V30 6220 H 603.836 -1.75058 -3.29255 0
M  V30 6221 N 606.021 0.929856 -1.27246 0
M  V30 6222 C 606.951 2.04722 -1.12299 0
M  V30 6223 C 607.932 1.70082 -0.0250464 0
M  V30 6224 O 609.117 1.93176 -0.199141 0
M  V30 6225 C 606.247 3.38721 -0.767145 0
M  V30 6226 C 605.201 3.87466 -1.81808 0
M  V30 6227 C 604.527 5.18246 -1.31626 0
M  V30 6228 C 605.827 4.11095 -3.22177 0
M  V30 6229 H 607.521 2.17485 -2.05769 0
M  V30 6230 H 605.067 1.04503 -0.990715 0
M  V30 6231 H 607.02 4.16366 -0.649413 0
M  V30 6232 H 605.744 3.25967 0.203259 0
M  V30 6233 H 604.403 3.12012 -1.92468 0
M  V30 6234 H 604.051 5.01881 -0.335378 0
M  V30 6235 H 603.751 5.51829 -2.01887 0
M  V30 6236 H 605.275 5.98462 -1.21143 0
M  V30 6237 H 606.689 4.79316 -3.1453 0
M  V30 6238 H 605.086 4.55982 -3.90129 0
M  V30 6239 H 606.156 3.16468 -3.67391 0
M  V30 6240 N 607.499 1.09233 1.13605 0
M  V30 6241 C 608.915 0.82163 1.36826 0
M  V30 6242 C 609.115 -0.565021 1.93416 0
M  V30 6243 O 608.171 -1.32026 2.15234 0
M  V30 6244 C 609.484 1.91124 2.32147 0
M  V30 6245 C 611.032 1.93824 2.45767 0
M  V30 6246 C 611.507 3.01923 3.44393 0
M  V30 6247 N 612.998 3.01149 3.51942 0
M  V30 6248 C 613.733 3.81434 4.2813 0
M  V30 6249 N 613.229 4.71621 5.07489 0
M  V30 6250 N 615.022 3.69702 4.23411 0
M  V30 6251 H 607.173 1.98633 0.752234 0
M  V30 6252 H 609.436 0.862482 0.393482 0
M  V30 6253 H 609.142 2.90862 1.97717 0
M  V30 6254 H 609.016 1.78777 3.32142 0
M  V30 6255 H 611.403 0.94726 2.79483 0
M  V30 6256 H 611.484 2.10248 1.45703 0
M  V30 6257 H 611.128 4.01232 3.11408 0
M  V30 6258 H 611.058 2.82742 4.44257 0
M  V30 6259 H 613.549 2.35789 2.95317 0
M  V30 6260 H 613.862 5.29468 5.62924 0
M  V30 6261 H 612.207 4.75658 5.06729 0
M  V30 6262 H 615.398 2.98606 3.60489 0
M  V30 6263 H 615.571 4.32509 4.82535 0
M  V30 6264 N 608.977 -1.30795 0.87923 0
M  V30 6265 C 610.388 -1.78535 0.546093 0
M  V30 6266 C 610.739 -1.72354 -0.937467 0
M  V30 6267 O 609.864 -1.2969 -1.73233 0
M  V30 6268 C 610.459 -3.24181 0.9845 0
M  V30 6269 C 609.018 -3.69779 0.702871 0
M  V30 6270 C 608.165 -2.51377 1.17068 0
M  V30 6271 H 611.116 -1.17746 1.06403 0
M  V30 6272 H 611.137 -3.79227 0.311045 0
M  V30 6273 H 610.649 -3.28647 2.06429 0
M  V30 6274 H 608.75 -3.70806 -0.365166 0
M  V30 6275 H 608.863 -4.61507 1.28639 0
M  V30 6276 H 607.227 -2.47768 0.590172 0
M  V30 6277 H 608.01 -2.58584 2.25808 0
M  V30 6278 N 610.455 -0.639598 -1.44038 0
M  V30 6279 C 611.871 -0.305953 -1.5664 0
M  V30 6280 C 612.071 1.19055 -1.62567 0
M  V30 6281 O 611.127 1.97492 -1.57331 0
M  V30 6282 C 612.44 -1.00533 -2.83397 0
M  V30 6283 C 613.988 -0.984278 -2.97121 0
M  V30 6284 C 614.463 -1.66428 -4.26691 0
M  V30 6285 N 615.954 -1.63127 -4.33525 0
M  V30 6286 C 616.689 -2.12629 -5.32519 0
M  V30 6287 N 616.185 -2.70359 -6.3787 0
M  V30 6288 N 617.978 -2.03208 -5.24083 0
M  V30 6289 H 610.129 -1.6109 -1.38434 0
M  V30 6290 H 612.392 -0.676672 -0.663942 0
M  V30 6291 H 612.098 -2.06034 -2.85032 0
M  V30 6292 H 611.972 -0.548362 -3.73193 0
M  V30 6293 H 614.359 0.0622792 -2.95034 0
M  V30 6294 H 614.44 -1.47981 -2.08651 0
M  V30 6295 H 614.084 -2.71034 -4.29538 0
M  V30 6296 H 614.014 -1.14351 -5.14034 0
M  V30 6297 H 616.505 -1.20987 -3.58009 0
M  V30 6298 H 616.818 -3.05842 -7.09704 0
M  V30 6299 H 615.163 -2.74414 -6.38531 0
M  V30 6300 H 618.354 -1.57823 -4.40692 0
M  V30 6301 H 618.527 -2.42097 -6.01077 0
M  V30 6302 N 611.933 1.52934 -0.380664 0
M  V30 6303 C 612.863 2.29118 0.450268 0
M  V30 6304 C 613.844 1.32153 1.07096 0
M  V30 6305 O 615.029 1.61038 1.08537 0
M  V30 6306 C 612.159 3.09161 1.58231 0
M  V30 6307 C 611.113 4.13938 1.0881 0
M  V30 6308 C 610.439 4.82153 2.31155 0
M  V30 6309 C 611.739 5.22048 0.162146 0
M  V30 6310 H 613.433 2.98826 -0.185361 0
M  V30 6311 H 610.979 1.43715 -0.0905886 0
M  V30 6312 H 612.932 3.61211 2.17036 0
M  V30 6313 H 611.656 2.3717 2.2454 0
M  V30 6314 H 610.315 3.62855 0.522633 0
M  V30 6315 H 609.963 4.06719 2.95953 0
M  V30 6316 H 609.663 5.52966 1.98752 0
M  V30 6317 H 611.187 5.37004 2.90618 0
M  V30 6318 H 612.601 5.6951 0.658126 0
M  V30 6319 H 610.998 6.00057 -0.0717122 0
M  V30 6320 H 612.068 4.78398 -0.791438 0
M  V30 6321 N 613.412 0.11024 1.57214 0
M  V30 6322 C 614.362 -0.854147 2.11396 0
M  V30 6323 C 615.346 -1.23394 1.03261 0
M  V30 6324 O 616.538 -1.20649 1.2951 0
M  V30 6325 C 613.667 -2.10752 2.70995 0
M  V30 6326 C 612.753 -1.75249 3.86198 0
M  V30 6327 N 613.144 -1.10377 4.9361 0
M  V30 6328 C 611.442 -2.04763 3.96217 0
M  V30 6329 C 612.143 -0.938199 5.74084 0
M  V30 6330 N 611.119 -1.46039 5.23616 0
M  V30 6331 H 614.921 -0.348897 2.91822 0
M  V30 6332 H 612.435 -0.0925071 1.62136 0
M  V30 6333 H 614.432 -2.80801 3.0815 0
M  V30 6334 H 613.092 -2.61829 1.9203 0
M  V30 6335 H 614.103 -0.768785 5.12162 0
M  V30 6336 H 610.78 -2.57948 3.28282 0
M  V30 6337 H 612.17 -0.429678 6.70525 0
M  V30 6338 N 614.89 -1.56749 -0.16351 0
M  V30 6339 C 616.115 -1.86938 -0.898264 0
M  V30 6340 C 616.54 -0.697456 -1.74692 0
M  V30 6341 O 615.898 0.353327 -1.77824 0
M  V30 6342 C 615.946 -3.15599 -1.74441 0
M  V30 6343 O 615.05 -2.98371 -2.8469 0
M  V30 6344 H 614.391 -0.614659 -0.251178 0
M  V30 6345 H 616.921 -2.03979 -0.159298 0
M  V30 6346 H 616.931 -3.47202 -2.14277 0
M  V30 6347 H 615.606 -4.00505 -1.1211 0
M  V30 6348 H 614.183 -2.7814 -2.4838 0
M  V30 6349 N 616.368 0.432326 -1.51554 0
M  V30 6350 C 617.617 1.17831 -1.63703 0
M  V30 6351 C 617.93 1.92229 -0.36156 0
M  V30 6352 O 619.136 2.69069 -0.362495 0
M  V30 6353 C 617.592 2.14318 -2.89129 0
M  V30 6354 C 617.2 1.45544 -4.23699 0
M  V30 6355 C 618.944 2.89319 -3.10636 0
M  V30 6356 C 616.851 2.40545 -5.4027 0
M  V30 6357 H 615.781 0.443533 -0.60975 0
M  V30 6358 H 618.432 0.444878 -1.78026 0
M  V30 6359 H 616.814 2.91117 -2.68452 0
M  V30 6360 H 617.988 0.742693 -4.54775 0
M  V30 6361 H 616.303 0.826772 -4.0811 0
M  V30 6362 H 618.9 3.60495 -3.94902 0
M  V30 6363 H 619.243 3.50951 -2.23918 0
M  V30 6364 H 619.776 2.19625 -3.31677 0
M  V30 6365 H 616.515 1.83594 -6.29264 0
M  V30 6366 H 616.035 3.09859 -5.13563 0
M  V30 6367 H 617.714 3.01569 -5.72421 0
M  V30 6368 N 617.846 1.41785 0.688094 0
M  V30 6369 C 619.076 1.44705 1.47459 0
M  V30 6370 C 619.484 0.052916 1.89126 0
M  V30 6371 O 618.827 -0.939781 1.57841 0
M  V30 6372 C 618.889 2.29935 2.76352 0
M  V30 6373 C 618.553 3.77996 2.56843 0
M  V30 6374 C 619.55 4.69976 2.22304 0
M  V30 6375 C 617.235 4.2212 2.7225 0
M  V30 6376 C 619.229 6.04068 2.03421 0
M  V30 6377 C 616.916 5.56275 2.52985 0
M  V30 6378 C 617.914 6.47065 2.18621 0
M  V30 6379 O 617.602 7.78744 1.9953 0
M  V30 6380 H 617.334 0.494703 0.460701 0
M  V30 6381 H 619.888 1.86802 0.854057 0
M  V30 6382 H 618.118 1.82664 3.40839 0
M  V30 6383 H 619.807 2.24467 3.38186 0
M  V30 6384 H 620.573 4.37175 2.10008 0
M  V30 6385 H 616.452 3.51752 2.97979 0
M  V30 6386 H 619.996 6.74897 1.76523 0
M  V30 6387 H 615.893 5.88653 2.64873 0
M  V30 6388 H 616.661 7.89966 2.14234 0
M  V30 6389 N 619.324 -0.923095 1.27737 0
M  V30 6390 C 620.57 -1.67375 1.14514 0
M  V30 6391 C 620.903 -1.91751 -0.307424 0
M  V30 6392 O 620.178 -1.51119 -1.22447 0
M  V30 6393 C 620.461 -3.03745 1.9342 0
M  V30 6394 C 620.314 -2.86581 3.46686 0
M  V30 6395 C 621.633 -4.04144 1.74228 0
M  V30 6396 H 618.752 -0.607427 0.417374 0
M  V30 6397 H 621.394 -1.07089 1.56946 0
M  V30 6398 H 619.544 -3.55204 1.5736 0
M  V30 6399 H 621.216 -2.42203 3.92601 0
M  V30 6400 H 619.459 -2.21829 3.72793 0
M  V30 6401 H 620.13 -3.83381 3.97143 0
M  V30 6402 H 622.606 -3.61712 2.05678 0
M  V30 6403 H 621.482 -4.97543 2.31824 0
M  V30 6404 H 621.743 -4.36661 0.691373 0
M  V30 6405 N 620.802 -1.09834 -1.13024 0
M  V30 6406 C 622.027 -0.85909 -1.88771 0
M  V30 6407 C 622.452 0.584402 -1.78791 0
M  V30 6408 O 621.81 1.41101 -1.13842 0
M  V30 6409 C 621.858 -1.30427 -3.36186 0
M  V30 6410 O 620.962 -0.465368 -4.09766 0
M  V30 6411 H 620.303 -0.310786 -0.586778 0
M  V30 6412 H 622.833 -1.46355 -1.42973 0
M  V30 6413 H 622.843 -1.2915 -3.8702 0
M  V30 6414 H 621.518 -2.3555 -3.42767 0
M  V30 6415 H 620.095 -0.542814 -3.68928 0
M  V30 6416 N 622.28 1.30327 -0.886154 0
M  V30 6417 C 623.19 2.31854 -0.357866 0
M  V30 6418 C 624.206 1.65392 0.540502 0
M  V30 6419 O 625.382 1.96683 0.433339 0
M  V30 6420 C 622.447 3.44171 0.417999 0
M  V30 6421 C 621.508 4.26257 -0.510263 0
M  V30 6422 C 620.741 5.3321 0.228669 0
M  V30 6423 O 620.964 5.51542 1.45458 0
M  V30 6424 O 619.898 6.0042 -0.421832 0
M  V30 6425 H 623.724 2.78995 -1.19982 0
M  V30 6426 H 621.309 1.34518 -0.650028 0
M  V30 6427 H 623.191 4.12588 0.857251 0
M  V30 6428 H 621.866 2.99164 1.23623 0
M  V30 6429 H 620.773 3.60533 -0.99835 0
M  V30 6430 H 622.106 4.74871 -1.29454 0
M  V30 6431 N 623.758 0.647228 1.43697 0
M  V30 6432 C 625.006 0.157876 2.01482 0
M  V30 6433 C 625.327 -1.23039 1.51282 0
M  V30 6434 O 624.597 -1.82071 0.722982 0
M  V30 6435 H 623.177 0.0553745 0.744945 0
M  V30 6436 H 625.839 0.83755 1.75986 0
M  V30 6437 H 624.935 0.137895 3.11795 0
M  V30 6438 N 625.236 -1.5273 0.388769 0
M  V30 6439 C 626.466 -2.05693 -0.193397 0
M  V30 6440 C 626.874 -1.26038 -1.41107 0
M  V30 6441 O 626.217 -0.30001 -1.81234 0
M  V30 6442 C 626.279 -3.53962 -0.628561 0
M  V30 6443 C 625.943 -4.54519 0.475576 0
M  V30 6444 C 626.94 -5.02526 1.33281 0
M  V30 6445 C 624.625 -4.98174 0.642453 0
M  V30 6446 C 626.619 -5.92812 2.34205 0
M  V30 6447 C 624.306 -5.88262 1.65503 0
M  V30 6448 C 625.304 -6.35473 2.50325 0
M  V30 6449 O 624.992 -7.23781 3.49852 0
M  V30 6450 H 624.724 -0.675197 -0.0329395 0
M  V30 6451 H 627.278 -1.97835 0.552326 0
M  V30 6452 H 625.508 -3.59437 -1.42625 0
M  V30 6453 H 627.197 -3.89669 -1.13633 0
M  V30 6454 H 627.963 -4.6953 1.21519 0
M  V30 6455 H 623.842 -4.60999 -0.00805093 0
M  V30 6456 H 627.386 -6.29585 3.00447 0
M  V30 6457 H 623.283 -6.20672 1.77304 0
M  V30 6458 H 624.051 -7.4184 3.45855 0
M  V30 6459 N 626.714 -0.118576 -1.57153 0
M  V30 6460 C 627.662 0.849114 -2.16547 0
M  V30 6461 C 628.656 1.27567 -1.11458 0
M  V30 6462 O 629.862 1.24746 -1.29763 0
M  V30 6463 H 626.237 0.291935 -0.693021 0
M  V30 6464 H 628.208 0.323693 -2.96639 0
M  V30 6465 C 626.957 2.08951 -2.77912 0
M  V30 6466 H 626.28 1.77021 -3.58474 0
M  V30 6467 H 627.72 2.74666 -3.23008 0
M  V30 6468 C 626.179 2.87899 -1.74974 0
M  V30 6469 O 626.709 3.83268 -1.20285 0
M  V30 6470 N 624.915 2.51884 -1.44924 0
M  V30 6471 H 624.462 1.74397 -1.89587 0
M  V30 6472 H 624.42 3.05003 -0.762921 0
M  V30 6473 N 628.193 1.56834 0.155195 0
M  V30 6474 C 629.156 1.96748 1.17571 0
M  V30 6475 C 630.156 0.853006 1.3631 0
M  V30 6476 O 631.346 1.11978 1.33441 0
M  V30 6477 C 628.478 2.27631 2.53765 0
M  V30 6478 H 629.671 2.88085 0.833498 0
M  V30 6479 H 627.224 1.51141 0.398242 0
M  V30 6480 H 627.959 1.39059 2.92973 0
M  V30 6481 H 627.744 3.0888 2.41527 0
M  V30 6482 H 629.234 2.59377 3.27282 0
M  V30 6483 N 629.671 -0.424282 1.51781 0
M  V30 6484 C 630.634 -1.49848 1.73431 0
M  V30 6485 C 631.634 -1.49016 0.604225 0
M  V30 6486 O 632.824 -1.50808 0.871935 0
M  V30 6487 C 629.956 -2.89332 1.80277 0
M  V30 6488 H 631.149 -1.3195 2.69312 0
M  V30 6489 H 628.702 -0.653809 1.41968 0
M  V30 6490 H 629.437 -3.12618 0.862568 0
M  V30 6491 H 629.222 -2.9134 2.62419 0
M  V30 6492 H 630.712 -3.67233 1.98821 0
M  V30 6493 N 631.149 -1.42148 -0.680565 0
M  V30 6494 C 632.112 -1.4488 -1.77602 0
M  V30 6495 C 633.112 -0.337209 -1.57224 0
M  V30 6496 O 634.302 -0.597778 -1.63622 0
M  V30 6497 C 631.434 -1.27483 -3.16166 0
M  V30 6498 H 632.627 -2.42412 -1.76568 0
M  V30 6499 H 630.18 -1.28511 -0.889645 0
M  V30 6500 H 630.915 -0.30851 -3.22829 0
M  V30 6501 H 630.7 -2.08037 -3.3236 0
M  V30 6502 H 632.19 -1.32265 -3.96101 0
M  V30 6503 N 632.627 0.916307 -1.28225 0
M  V30 6504 C 633.876 1.65975 -1.14608 0
M  V30 6505 C 634.189 1.93204 0.305191 0
M  V30 6506 O 635.395 2.65611 0.562432 0
M  V30 6507 C 633.851 2.98989 -2.00333 0
M  V30 6508 C 633.459 2.79417 -3.50186 0
M  V30 6509 C 635.203 3.76856 -1.95397 0
M  V30 6510 C 633.11 4.08056 -4.28071 0
M  V30 6511 H 632.04 0.622587 -0.425324 0
M  V30 6512 H 634.691 1.01705 -1.52736 0
M  V30 6513 H 633.073 3.6438 -1.5506 0
M  V30 6514 H 634.247 2.22723 -4.034 0
M  V30 6515 H 632.562 2.14966 -3.56621 0
M  V30 6516 H 635.159 4.72203 -2.50856 0
M  V30 6517 H 635.502 4.05776 -0.930137 0
M  V30 6518 H 636.035 3.1828 -2.38626 0
M  V30 6519 H 632.774 3.8431 -5.31024 0
M  V30 6520 H 632.294 4.64371 -3.79631 0
M  V30 6521 H 633.973 4.76333 -4.37854 0
M  V30 6522 N 634.105 1.10431 1.1244 0
M  V30 6523 C 635.035 0.775143 2.20258 0
M  V30 6524 C 636.016 -0.25186 1.68225 0
M  V30 6525 O 637.201 -0.117637 1.93843 0
M  V30 6526 C 634.331 0.206133 3.46688 0
M  V30 6527 C 633.285 1.16382 4.11873 0
M  V30 6528 C 632.611 0.456014 5.32752 0
M  V30 6529 C 633.911 2.5104 4.58013 0
M  V30 6530 H 635.605 1.67665 2.4805 0
M  V30 6531 H 633.151 0.807595 1.19222 0
M  V30 6532 H 635.104 -0.036291 4.21384 0
M  V30 6533 H 633.828 -0.730614 3.18323 0
M  V30 6534 H 632.487 1.39169 3.39157 0
M  V30 6535 H 632.135 -0.485203 5.00654 0
M  V30 6536 H 631.835 1.09466 5.77314 0
M  V30 6537 H 633.359 0.222135 6.10196 0
M  V30 6538 H 634.773 2.32401 5.24083 0
M  V30 6539 H 633.17 3.10789 5.13352 0
M  V30 6540 H 634.24 3.11039 3.71998 0
M  V30 6541 N 635.583 -1.29855 0.893053 0
M  V30 6542 C 636.811 -1.99976 0.530788 0
M  V30 6543 C 637.226 -1.66889 -0.882799 0
M  V30 6544 O 636.583 -0.910352 -1.58173 0
M  V30 6545 C 636.634 -3.54547 0.705587 0
M  V30 6546 O 636.355 -3.86458 2.06353 0
M  V30 6547 C 637.856 -4.41937 0.347387 0
M  V30 6548 H 635.076 -0.639129 0.204339 0
M  V30 6549 H 637.62 -1.65549 1.20057 0
M  V30 6550 H 635.775 -3.87311 0.0830685 0
M  V30 6551 H 636.189 -4.81146 2.08803 0
M  V30 6552 H 637.663 -5.4954 0.520557 0
M  V30 6553 H 638.14 -4.33339 -0.715139 0
M  V30 6554 H 638.746 -4.14633 0.946567 0
M  V30 6555 N 637.061 -0.65484 -1.43351 0
M  V30 6556 C 637.994 0.0855537 -2.2804 0
M  V30 6557 C 638.972 0.828301 -1.39921 0
M  V30 6558 O 640.156 0.827539 -1.69364 0
M  V30 6559 C 637.283 1.12792 -3.19368 0
M  V30 6560 C 636.329 0.483037 -4.23756 0
M  V30 6561 S 637.162 -0.744605 -5.30298 0
M  V30 6562 C 638.318 0.297187 -6.25194 0
M  V30 6563 H 638.551 -0.632831 -2.90487 0
M  V30 6564 H 636.084 -0.44373 -1.47886 0
M  V30 6565 H 638.042 1.7243 -3.72529 0
M  V30 6566 H 636.703 1.81863 -2.56095 0
M  V30 6567 H 635.896 1.26888 -4.87766 0
M  V30 6568 H 635.498 -0.0392713 -3.73979 0
M  V30 6569 H 637.79 1.1629 -6.67445 0
M  V30 6570 H 638.733 -0.30793 -7.0743 0
M  V30 6571 H 639.141 0.633721 -5.60932 0
M  V30 6572 N 638.539 1.52521 -0.396863 0
M  V30 6573 C 639.449 2.30403 0.44178 0
M  V30 6574 C 640.465 1.37625 1.06468 0
M  V30 6575 O 641.641 1.70697 1.06886 0
M  V30 6576 C 638.706 3.1013 1.54986 0
M  V30 6577 C 637.767 4.18628 0.951279 0
M  V30 6578 C 637 4.94543 2.00655 0
M  V30 6579 O 637.223 4.70629 3.22281 0
M  V30 6580 O 636.157 5.797 1.61962 0
M  V30 6581 H 639.983 3.03087 -0.192892 0
M  V30 6582 H 637.568 1.48537 -0.16038 0
M  V30 6583 H 639.45 3.59816 2.19341 0
M  V30 6584 H 638.125 2.40251 2.16935 0
M  V30 6585 H 637.032 3.73119 0.270773 0
M  V30 6586 H 638.365 4.90763 0.375887 0
M  V30 6587 N 640.017 0.126909 1.57088 0
M  V30 6588 C 641.428 -0.397201 1.82426 0
M  V30 6589 C 641.779 -1.66084 1.04453 0
M  V30 6590 O 640.904 -2.14534 0.283552 0
M  V30 6591 C 641.499 -0.727411 3.30899 0
M  V30 6592 C 640.058 -1.19612 3.56889 0
M  V30 6593 C 639.205 -0.20885 2.76512 0
M  V30 6594 H 642.156 0.351924 1.54749 0
M  V30 6595 H 642.177 -1.58407 3.45959 0
M  V30 6596 H 641.689 0.19247 3.87622 0
M  V30 6597 H 639.79 -2.13263 3.05532 0
M  V30 6598 H 639.903 -1.13598 4.65438 0
M  V30 6599 H 638.267 -0.697479 2.44964 0
M  V30 6600 H 639.05 0.704267 3.35998 0
M  V30 6601 N 641.495 -1.56914 -0.146875 0
M  V30 6602 C 642.741 -1.83628 -0.860741 0
M  V30 6603 C 643.074 -0.708528 -1.80813 0
M  V30 6604 O 642.349 0.287838 -1.92358 0
M  V30 6605 C 642.632 -3.20836 -1.63511 0
M  V30 6606 C 642.485 -4.44174 -0.709199 0
M  V30 6607 C 643.804 -3.55268 -2.59756 0
M  V30 6608 H 640.923 -0.667949 -0.311468 0
M  V30 6609 H 643.565 -1.89582 -0.125936 0
M  V30 6610 H 641.715 -3.15891 -2.26153 0
M  V30 6611 H 643.387 -4.61205 -0.0937781 0
M  V30 6612 H 641.63 -4.33796 -0.0187856 0
M  V30 6613 H 642.301 -5.36785 -1.28707 0
M  V30 6614 H 644.777 -3.60824 -2.07232 0
M  V30 6615 H 643.653 -4.52303 -3.10987 0
M  V30 6616 H 643.914 -2.81231 -3.41118 0
M  V30 6617 N 642.974 0.416227 -1.52004 0
M  V30 6618 C 643.904 1.51365 -1.77795 0
M  V30 6619 C 644.885 1.58059 -0.628601 0
M  V30 6620 O 646.07 1.73447 -0.873478 0
M  V30 6621 C 643.2 2.89256 -1.92219 0
M  V30 6622 C 642.154 2.97415 -3.0778 0
M  V30 6623 C 641.48 4.37492 -3.07417 0
M  V30 6624 C 642.78 2.69551 -4.47369 0
M  V30 6625 H 644.474 1.30033 -2.69688 0
M  V30 6626 H 642.02 0.624112 -1.29772 0
M  V30 6627 H 643.973 3.66008 -2.08845 0
M  V30 6628 H 642.697 3.11866 -0.969917 0
M  V30 6629 H 641.356 2.23107 -2.90893 0
M  V30 6630 H 641.004 4.571 -2.09925 0
M  V30 6631 H 640.704 4.43877 -3.85029 0
M  V30 6632 H 642.228 5.16188 -3.26162 0
M  V30 6633 H 643.642 3.36028 -4.64497 0
M  V30 6634 H 642.039 2.87321 -5.26846 0
M  V30 6635 H 643.109 1.65029 -4.55953 0
M  V30 6636 N 644.452 1.42507 0.673017 0
M  V30 6637 C 645.7 1.42789 1.43023 0
M  V30 6638 C 646.021 0.0459738 1.94946 0
M  V30 6639 O 645.291 -0.915765 1.73178 0
M  V30 6640 H 643.871 0.525657 0.530748 0
M  V30 6641 H 646.533 1.77944 0.795113 0
M  V30 6642 H 645.629 2.12872 2.28237 0
M  V30 6643 N 645.93 -0.909495 1.28709 0
M  V30 6644 C 647.178 -1.65577 1.15882 0
M  V30 6645 C 647.499 -1.928 -0.292108 0
M  V30 6646 O 646.769 -1.54716 -1.20166 0
M  V30 6647 H 645.349 -0.613714 0.425869 0
M  V30 6648 H 648.011 -1.09108 1.61498 0
M  V30 6649 H 647.107 -2.61634 1.70159 0
M  V30 6650 N 647.408 -1.11026 -1.11852 0
M  V30 6651 C 648.636 -0.878818 -1.87308 0
M  V30 6652 C 649.051 0.57111 -1.79955 0
M  V30 6653 O 648.408 1.39409 -1.17777 0
M  V30 6654 C 648.459 -1.3264 -3.36287 0
M  V30 6655 O 648.18 -2.71948 -3.43476 0
M  V30 6656 C 649.681 -1.12974 -4.28663 0
M  V30 6657 H 646.901 -0.315015 -0.592458 0
M  V30 6658 H 649.445 -1.47649 -1.41492 0
M  V30 6659 H 647.6 -0.772269 -3.79625 0
M  V30 6660 H 648.014 -2.91241 -4.3621 0
M  V30 6661 H 649.488 -1.49198 -5.31454 0
M  V30 6662 H 649.965 -0.0689127 -4.39146 0
M  V30 6663 H 650.571 -1.67064 -3.91113 0
M  V30 6664 N 648.886 1.2938 -0.899927 0
M  V30 6665 C 650.297 1.77644 -0.574427 0
M  V30 6666 C 650.648 1.73824 0.909928 0
M  V30 6667 O 649.773 1.32429 1.71147 0
M  V30 6668 C 650.368 3.22573 -1.03595 0
M  V30 6669 C 648.927 3.68614 -0.76161 0
M  V30 6670 C 648.074 2.49483 -1.21052 0
M  V30 6671 H 651.025 1.16038 -1.08263 0
M  V30 6672 H 651.046 3.78684 -0.371337 0
M  V30 6673 H 650.558 3.25321 -2.11631 0
M  V30 6674 H 648.659 3.7134 0.306127 0
M  V30 6675 H 648.772 4.59402 -1.35965 0
M  V30 6676 H 647.136 2.46798 -0.629515 0
M  V30 6677 H 647.919 2.54959 -2.29893 0
M  V30 6678 N 650.364 0.662433 1.43002 0
M  V30 6679 C 651.594 0.187343 2.05749 0
M  V30 6680 C 652.002 -1.15582 1.49791 0
M  V30 6681 O 651.345 -1.72651 0.627487 0
M  V30 6682 C 651.407 0.0316493 3.59486 0
M  V30 6683 C 651.071 1.30156 4.38073 0
M  V30 6684 C 652.068 2.23234 4.69535 0
M  V30 6685 C 649.753 1.54572 4.77926 0
M  V30 6686 C 651.747 3.39012 5.39768 0
M  V30 6687 C 649.434 2.70641 5.47902 0
M  V30 6688 C 650.432 3.62687 5.78746 0
M  V30 6689 O 650.12 4.76728 6.47291 0
M  V30 6690 H 649.852 0.0915214 0.669776 0
M  V30 6691 H 652.406 0.905982 1.8434 0
M  V30 6692 H 650.636 -0.742451 3.79506 0
M  V30 6693 H 652.325 -0.401977 4.03905 0
M  V30 6694 H 653.091 2.05616 4.39257 0
M  V30 6695 H 648.97 0.83804 4.53319 0
M  V30 6696 H 652.514 4.10877 5.63761 0
M  V30 6697 H 648.411 2.88189 5.77596 0
M  V30 6698 H 649.179 4.76113 6.65777 0
M  V30 6699 N 651.842 -1.52309 0.404946 0
M  V30 6700 C 652.772 -2.29805 -0.41376 0
M  V30 6701 C 653.753 -1.3384 -1.0498 0
M  V30 6702 O 654.938 -1.62745 -1.05961 0
M  V30 6703 C 652.068 -3.11639 -1.53292 0
M  V30 6704 C 651.022 -4.15616 -1.02211 0
M  V30 6705 C 650.348 -4.8577 -2.23455 0
M  V30 6706 C 651.648 -5.2224 -0.0790725 0
M  V30 6707 H 653.342 -2.98493 0.232878 0
M  V30 6708 H 650.888 -1.43552 0.113441 0
M  V30 6709 H 652.841 -3.64618 -2.11262 0
M  V30 6710 H 651.565 -2.40712 -2.20738 0
M  V30 6711 H 650.224 -3.63641 -0.46484 0
M  V30 6712 H 649.872 -4.11376 -2.89445 0
M  V30 6713 H 649.572 -5.56058 -1.89929 0
M  V30 6714 H 651.096 -5.4156 -2.82038 0
M  V30 6715 H 652.51 -5.70485 -0.567438 0
M  V30 6716 H 650.907 -5.99867 0.167167 0
M  V30 6717 H 651.977 -4.77078 0.867447 0
M  V30 6718 N 653.32 -0.135238 -1.57019 0
M  V30 6719 C 654.597 0.563227 -1.87316 0
M  V30 6720 C 654.977 1.83749 -1.03921 0
M  V30 6721 O 654.325 2.2817 -0.122675 0
M  V30 6722 C 654.535 0.840031 -3.3874 0
M  V30 6723 C 655.883 1.18598 -4.077 0
M  V30 6724 O 656.907 0.92977 -3.43851 0
M  V30 6725 O 655.766 1.66758 -5.20436 0
M  V30 6726 H 652.86 0.285971 -0.775983 0
M  V30 6727 H 655.406 -0.170965 -1.68837 0
M  V30 6728 H 654.178 -0.0622785 -3.9125 0
M  V30 6729 H 653.801 1.62882 -3.62706 0
M  V30 6730 N 654.798 1.5699 0.138552 0
M  V30 6731 C 655.745 1.98899 1.17081 0
M  V30 6732 C 656.715 0.857922 1.42228 0
M  V30 6733 O 657.9 1.12065 1.54422 0
M  V30 6734 C 655.04 2.38189 2.4972 0
M  V30 6735 C 654.153 3.64624 2.31674 0
M  V30 6736 C 653.288 3.9298 3.57407 0
M  V30 6737 C 652.327 5.1266 3.34435 0
M  V30 6738 N 651.464 5.36983 4.5232 0
M  V30 6739 H 656.304 2.86881 0.80642 0
M  V30 6740 H 653.841 1.41925 0.386727 0
M  V30 6741 H 655.799 2.59 3.2707 0
M  V30 6742 H 654.429 1.53275 2.84089 0
M  V30 6743 H 653.481 3.51542 1.45337 0
M  V30 6744 H 654.793 4.52131 2.10664 0
M  V30 6745 H 653.947 4.14335 4.43183 0
M  V30 6746 H 652.686 3.03912 3.8143 0
M  V30 6747 H 651.691 4.9117 2.47048 0
M  V30 6748 H 652.916 6.03288 3.11802 0
M  V30 6749 H 650.862 4.50871 4.76499 0
M  V30 6750 H 650.779 6.18775 4.34343 0
M  V30 6751 H 652.047 5.62842 5.39285 0
M  V30 6752 N 656.276 -0.40816 1.52223 0
M  V30 6753 C 657.523 -1.15502 1.66329 0
M  V30 6754 C 657.851 -1.90474 0.393701 0
M  V30 6755 O 657.106 -1.85507 -0.623356 0
M  V30 6756 C 657.405 -2.17422 2.83659 0
M  V30 6757 C 657.071 -1.5925 4.21841 0
M  V30 6758 C 655.733 -1.4311 4.59427 0
M  V30 6759 C 658.085 -1.16776 5.0795 0
M  V30 6760 C 655.413 -0.830148 5.80797 0
M  V30 6761 C 657.765 -0.580988 6.29926 0
M  V30 6762 C 656.429 -0.406729 6.6626 0
M  V30 6763 H 655.699 -0.422653 0.608642 0
M  V30 6764 H 658.346 -0.442114 1.86327 0
M  V30 6765 H 656.651 -2.94861 2.58001 0
M  V30 6766 H 658.348 -2.75084 2.9177 0
M  V30 6767 H 654.938 -1.72796 3.92224 0
M  V30 6768 H 659.122 -1.28055 4.79495 0
M  V30 6769 H 654.378 -0.68316 6.07571 0
M  V30 6770 H 658.552 -0.243488 6.95974 0
M  V30 6771 H 656.179 0.0610366 7.60175 0
M  V30 6772 N 657.755 -1.42862 -0.66545 0
M  V30 6773 C 659.001 -1.44043 -1.42757 0
M  V30 6774 C 659.334 -0.0599629 -1.94107 0
M  V30 6775 O 658.609 0.917286 -1.71511 0
M  V30 6776 C 658.892 -2.47266 -2.61786 0
M  V30 6777 C 658.745 -3.94539 -2.16007 0
M  V30 6778 C 660.064 -2.47365 -3.64003 0
M  V30 6779 H 657.183 -0.524506 -0.517748 0
M  V30 6780 H 659.825 -1.74335 -0.755466 0
M  V30 6781 H 657.975 -2.21565 -3.19126 0
M  V30 6782 H 659.647 -4.31254 -1.63762 0
M  V30 6783 H 657.89 -4.07957 -1.47491 0
M  V30 6784 H 658.561 -4.62357 -3.01546 0
M  V30 6785 H 661.037 -2.70243 -3.16399 0
M  V30 6786 H 659.913 -3.21552 -4.44854 0
M  V30 6787 H 660.174 -1.50299 -4.15767 0
M  V30 6788 N 659.233 0.902656 -1.29189 0
M  V30 6789 C 660.479 1.65532 -1.17163 0
M  V30 6790 C 660.812 1.92216 0.276879 0
M  V30 6791 O 660.087 1.53048 1.20027 0
M  V30 6792 C 660.37 3.00629 -1.98228 0
M  V30 6793 C 660.223 2.81029 -3.51202 0
M  V30 6794 C 661.542 4.01321 -1.80635 0
M  V30 6795 H 658.661 0.60071 -0.426985 0
M  V30 6796 H 661.303 1.04578 -1.5863 0
M  V30 6797 H 659.453 3.52656 -1.62991 0
M  V30 6798 H 661.125 2.35927 -3.96404 0
M  V30 6799 H 659.368 2.1587 -3.76275 0
M  V30 6800 H 660.039 3.77014 -4.03192 0
M  V30 6801 H 662.515 3.58394 -2.11406 0
M  V30 6802 H 661.391 4.93792 -2.3971 0
M  V30 6803 H 661.652 4.35505 -0.760754 0
M  V30 6804 N 660.711 1.11618 1.11262 0
M  V30 6805 C 661.936 0.889013 1.8738 0
M  V30 6806 C 662.361 -0.555884 1.79698 0
M  V30 6807 O 661.719 -1.39272 1.16073 0
M  V30 6808 C 661.767 1.35759 3.34069 0
M  V30 6809 O 660.871 0.530499 4.08974 0
M  V30 6810 H 660.212 0.320082 0.581759 0
M  V30 6811 H 662.742 1.48611 1.40627 0
M  V30 6812 H 662.752 1.35291 3.84916 0
M  V30 6813 H 661.427 2.40973 3.38976 0
M  V30 6814 H 660.004 0.601439 3.68018 0
M  V30 6815 N 662.189 -1.289 0.906776 0
M  V30 6816 C 663.414 -1.99939 0.551303 0
M  V30 6817 C 663.839 -1.67366 -0.858496 0
M  V30 6818 O 663.197 -0.902176 -1.57259 0
M  V30 6819 C 663.245 -3.52523 0.758937 0
M  V30 6820 O 662.349 -4.11983 -0.185308 0
M  V30 6821 H 661.69 -0.628376 0.214568 0
M  V30 6822 H 664.22 -1.64225 1.2203 0
M  V30 6823 H 664.23 -4.02522 0.666329 0
M  V30 6824 H 662.905 -3.75566 1.78671 0
M  V30 6825 H 661.482 -3.72873 -0.0445577 0
M  V30 6826 N 663.667 -0.670007 -1.42649 0
M  V30 6827 C 664.892 -0.196955 -2.06463 0
M  V30 6828 C 665.317 1.1352 -1.49983 0
M  V30 6829 O 664.675 1.705 -0.616397 0
M  V30 6830 C 664.723 -0.137381 -3.60338 0
M  V30 6831 O 663.827 0.895523 -4.02559 0
M  V30 6832 H 663.168 -0.102579 -0.656029 0
M  V30 6833 H 665.698 -0.917669 -1.82866 0
M  V30 6834 H 665.708 0.0403625 -4.0798 0
M  V30 6835 H 664.383 -1.10977 -4.0082 0
M  V30 6836 H 662.96 0.689209 -3.66476 0
M  V30 6837 N 665.145 1.52092 -0.413018 0
M  V30 6838 C 666.561 1.59471 -0.0640836 0
M  V30 6839 C 666.761 1.42562 1.42402 0
M  V30 6840 O 665.817 1.25453 2.19129 0
M  V30 6841 C 667.13 2.95392 -0.562474 0
M  V30 6842 C 668.678 3.08637 -0.520788 0
M  V30 6843 C 669.153 4.47044 -0.995752 0
M  V30 6844 N 670.644 4.53296 -0.952732 0
M  V30 6845 C 671.379 5.58669 -1.29138 0
M  V30 6846 N 670.875 6.71576 -1.70168 0
M  V30 6847 N 672.668 5.48898 -1.2111 0
M  V30 6848 H 664.819 1.6133 -1.38153 0
M  V30 6849 H 667.082 0.75916 -0.567785 0
M  V30 6850 H 666.788 3.13059 -1.60271 0
M  V30 6851 H 666.662 3.77191 0.0257875 0
M  V30 6852 H 669.049 2.90652 0.510412 0
M  V30 6853 H 669.13 2.28735 -1.14515 0
M  V30 6854 H 668.774 4.65773 -2.0253 0
M  V30 6855 H 668.704 5.25448 -0.348162 0
M  V30 6856 H 671.195 3.72248 -0.651119 0
M  V30 6857 H 671.508 7.47973 -1.9431 0
M  V30 6858 H 669.853 6.72847 -1.74075 0
M  V30 6859 H 673.044 4.59573 -0.889396 0
M  V30 6860 H 673.217 6.30912 -1.47833 0
M  V30 6861 N 666.623 0.143563 1.56945 0
M  V30 6862 C 667.555 -0.828353 2.13708 0
M  V30 6863 C 668.568 -1.21313 1.08568 0
M  V30 6864 O 669.757 -1.1578 1.35857 0
M  V30 6865 C 666.857 -2.12248 2.64204 0
M  V30 6866 C 666.03 -1.90561 3.93707 0
M  V30 6867 C 665.089 -3.03931 4.29549 0
M  V30 6868 O 664.115 -2.75772 4.97934 0
M  V30 6869 N 665.317 -4.31016 3.88852 0
M  V30 6870 H 668.082 -0.343242 2.97728 0
M  V30 6871 H 665.643 -0.0401152 1.6185 0
M  V30 6872 H 667.635 -2.87132 2.85197 0
M  V30 6873 H 666.205 -2.52033 1.84928 0
M  V30 6874 H 665.425 -0.997327 3.81375 0
M  V30 6875 H 666.713 -1.73405 4.78339 0
M  V30 6876 H 666.111 -4.56762 3.33743 0
M  V30 6877 H 664.668 -5.02691 4.14903 0
M  V30 6878 N 668.101 -1.57061 -0.130224 0
M  V30 6879 C 669.349 -1.83893 -0.838313 0
M  V30 6880 C 669.67 -0.727046 -1.80939 0
M  V30 6881 O 668.94 0.249927 -1.94299 0
M  V30 6882 H 667.52 -0.67846 -0.312573 0
M  V30 6883 H 670.182 -1.94529 -0.120224 0
M  V30 6884 H 669.278 -2.79419 -1.39038 0
M  V30 6885 N 669.579 0.400081 -1.52437 0
M  V30 6886 C 670.511 1.50729 -1.72666 0
M  V30 6887 C 671.524 1.51058 -0.607075 0
M  V30 6888 O 672.713 1.5516 -0.88248 0
M  V30 6889 C 669.813 2.89604 -1.76019 0
M  V30 6890 C 668.986 3.13365 -3.05157 0
M  V30 6891 C 668.045 4.32163 -3.00203 0
M  V30 6892 O 667.071 4.29004 -3.74092 0
M  V30 6893 N 668.273 5.3776 -2.18619 0
M  V30 6894 H 671.038 1.33767 -2.68191 0
M  V30 6895 H 668.599 0.58948 -1.50787 0
M  V30 6896 H 670.591 3.67159 -1.70225 0
M  V30 6897 H 669.161 2.99979 -0.879284 0
M  V30 6898 H 668.381 2.23774 -3.24529 0
M  V30 6899 H 669.669 3.26089 -3.90568 0
M  V30 6900 H 669.067 5.43177 -1.58035 0
M  V30 6901 H 667.624 6.14023 -2.18674 0
M  V30 6902 N 671.057 1.43213 0.657864 0
M  V30 6903 C 672.305 1.44298 1.41501 0
M  V30 6904 C 672.626 0.0666478 1.94886 0
M  V30 6905 O 671.896 -0.897345 1.74139 0
M  V30 6906 H 670.476 0.531257 0.525143 0
M  V30 6907 H 673.138 1.78777 0.776195 0
M  V30 6908 H 672.234 2.1528 2.25966 0
M  V30 6909 N 672.536 -0.895792 1.29666 0
M  V30 6910 C 673.761 -1.68528 1.20885 0
M  V30 6911 C 674.186 -1.8673 -0.226595 0
M  V30 6912 O 673.544 -1.39044 -1.16347 0
M  V30 6913 C 673.592 -3.04512 1.93144 0
M  V30 6914 O 672.696 -3.92963 1.25115 0
M  V30 6915 H 672.037 -0.515371 0.418675 0
M  V30 6916 H 674.567 -1.11878 1.71302 0
M  V30 6917 H 674.577 -3.54628 2.0175 0
M  V30 6918 H 673.252 -2.90582 2.97548 0
M  V30 6919 H 671.829 -3.51399 1.24794 0
M  V30 6920 N 674.014 -1.12206 -1.10668 0
M  V30 6921 C 675.262 -0.874144 -1.82217 0
M  V30 6922 C 675.583 0.601736 -1.85484 0
M  V30 6923 O 674.853 1.43725 -1.33116 0
M  V30 6924 H 673.433 -0.320404 -0.674797 0
M  V30 6925 H 676.095 -1.41606 -1.33917 0
M  V30 6926 H 675.191 -1.25349 -2.85822 0
M  V30 6927 N 675.492 1.28418 -0.913599 0
M  V30 6928 C 676.424 2.26368 -0.359169 0
M  V30 6929 C 677.437 1.54858 0.502285 0
M  V30 6930 O 678.626 1.75659 0.31719 0
M  V30 6931 C 675.726 3.35112 0.50526 0
M  V30 6932 C 674.899 4.36126 -0.333648 0
M  V30 6933 C 673.958 5.24134 0.465845 0
M  V30 6934 O 672.984 5.6907 -0.121538 0
M  V30 6935 N 674.186 5.52892 1.76891 0
M  V30 6936 H 676.951 2.74579 -1.2011 0
M  V30 6937 H 674.512 1.41898 -0.779532 0
M  V30 6938 H 676.504 3.90926 1.04684 0
M  V30 6939 H 675.074 2.86611 1.2479 0
M  V30 6940 H 674.294 3.79776 -1.0566 0
M  V30 6941 H 675.582 5.00638 -0.907669 0
M  V30 6942 H 674.98 5.18217 2.26865 0
M  V30 6943 H 673.537 6.11464 2.25732 0
M  V30 6944 N 676.97 0.677563 1.42291 0
M  V30 6945 C 677.903 -0.0492638 2.28147 0
M  V30 6946 C 678.881 -0.805936 1.41221 0
M  V30 6947 O 680.065 -0.80049 1.70659 0
M  V30 6948 C 677.192 -1.07697 3.21122 0
M  V30 6949 C 676.238 -0.41556 4.24471 0
M  V30 6950 S 677.071 0.828876 5.29046 0
M  V30 6951 C 678.227 -0.197687 6.25588 0
M  V30 6952 H 678.46 0.678965 2.89443 0
M  V30 6953 H 675.993 0.467201 1.47162 0
M  V30 6954 H 677.951 -1.66482 3.75225 0
M  V30 6955 H 676.612 -1.77766 2.58956 0
M  V30 6956 H 675.805 -1.19112 4.89723 0
M  V30 6957 H 675.407 0.0987632 3.7387 0
M  V30 6958 H 677.699 -1.05656 6.69211 0
M  V30 6959 H 678.642 0.420437 7.06851 0
M  V30 6960 H 679.05 -0.544401 5.61869 0
M  V30 6961 N 678.448 -1.51871 0.421078 0
M  V30 6962 C 679.378 -2.30231 -0.389363 0
M  V30 6963 C 680.359 -1.34946 -1.03555 0
M  V30 6964 O 681.544 -1.63859 -1.04229 0
M  V30 6965 C 678.674 -3.13247 -1.49979 0
M  V30 6966 C 677.628 -4.16677 -0.977966 0
M  V30 6967 C 676.954 -4.88112 -2.1829 0
M  V30 6968 C 678.254 -5.22295 -0.0236775 0
M  V30 6969 H 679.948 -2.98229 0.264524 0
M  V30 6970 H 677.494 -1.43424 0.12866 0
M  V30 6971 H 679.447 -3.66838 -2.07383 0
M  V30 6972 H 678.171 -2.4304 -2.18173 0
M  V30 6973 H 676.83 -3.64114 -0.426245 0
M  V30 6974 H 676.478 -4.14423 -2.85066 0
M  V30 6975 H 676.178 -5.58041 -1.84021 0
M  V30 6976 H 677.702 -5.44521 -2.76278 0
M  V30 6977 H 679.116 -5.71055 -0.506899 0
M  V30 6978 H 677.513 -5.99656 0.230782 0
M  V30 6979 H 678.583 -4.76131 0.917999 0
M  V30 6980 N 679.926 -0.151884 -1.56866 0
M  V30 6981 C 681.172 0.492327 -1.97352 0
M  V30 6982 C 681.527 1.62156 -1.03553 0
M  V30 6983 O 680.82 1.91467 -0.0714872 0
M  V30 6984 C 681.014 1.04074 -3.41911 0
M  V30 6985 C 680.843 -0.0338306 -4.49687 0
M  V30 6986 C 679.613 -0.476914 -5.03044 0
M  V30 6987 C 681.811 -0.827105 -5.07606 0
M  V30 6988 N 679.793 -1.53382 -5.9443 0
M  V30 6989 C 681.164 -1.73439 -5.95247 0
M  V30 6990 C 683.219 -0.874351 -4.90163 0
M  V30 6991 C 681.922 -2.68488 -6.67313 0
M  V30 6992 C 683.948 -1.81269 -5.62935 0
M  V30 6993 C 683.31 -2.70749 -6.50288 0
M  V30 6994 H 679.409 0.148822 -0.767708 0
M  V30 6995 H 681.993 -0.247615 -1.93119 0
M  V30 6996 H 680.164 1.75027 -3.46728 0
M  V30 6997 H 681.896 1.65197 -3.69448 0
M  V30 6998 H 678.651 -0.0782493 -4.73535 0
M  V30 6999 H 679.075 -2.06217 -6.44828 0
M  V30 7000 H 683.717 -0.196628 -4.22343 0
M  V30 7001 H 681.435 -3.37257 -7.34359 0
M  V30 7002 H 685.021 -1.85511 -5.51432 0
M  V30 7003 H 683.901 -3.42175 -7.0561 0
M  V30 7004 N 681.404 1.57128 0.121893 0
M  V30 7005 C 682.314 2.03425 1.16857 0
M  V30 7006 C 683.33 0.954108 1.45509 0
M  V30 7007 O 684.506 1.26541 1.56682 0
M  V30 7008 C 681.571 2.42685 2.47599 0
M  V30 7009 C 680.632 3.64767 2.2637 0
M  V30 7010 C 679.865 4.02145 3.50878 0
M  V30 7011 O 680.088 3.39897 4.58068 0
M  V30 7012 O 679.022 4.95262 3.42051 0
M  V30 7013 H 682.848 2.92825 0.80544 0
M  V30 7014 H 680.433 1.45654 0.332477 0
M  V30 7015 H 682.315 2.68684 3.24634 0
M  V30 7016 H 680.99 1.56432 2.83392 0
M  V30 7017 H 679.897 3.43922 1.47203 0
M  V30 7018 H 681.23 4.51716 1.95482 0
M  V30 7019 N 682.882 -0.391992 1.52647 0
M  V30 7020 C 684.122 -1.1463 1.69232 0
M  V30 7021 C 684.486 -1.87312 0.421684 0
M  V30 7022 O 685.687 -2.64768 0.463852 0
M  V30 7023 C 683.958 -2.10088 2.89133 0
M  V30 7024 S 685.517 -2.93395 3.2629 0
M  V30 7025 H 682.335 -0.388076 0.59575 0
M  V30 7026 H 684.937 -0.431149 1.90687 0
M  V30 7027 H 683.641 -1.55408 3.79837 0
M  V30 7028 H 683.172 -2.86116 2.70003 0
M  V30 7029 H 685.187 -4.12193 2.76244 0
M  V30 7030 N 684.36 -1.4356 -0.65026 0
M  V30 7031 C 685.29 -1.51758 -1.77459 0
M  V30 7032 C 686.271 -0.372019 -1.65982 0
M  V30 7033 O 687.456 -0.589627 -1.85033 0
M  V30 7034 C 684.586 -1.44302 -3.15902 0
M  V30 7035 C 683.54 -2.57138 -3.42146 0
M  V30 7036 C 682.866 -2.34735 -4.8042 0
M  V30 7037 C 684.166 -3.99373 -3.36598 0
M  V30 7038 H 685.86 -2.45863 -1.70855 0
M  V30 7039 H 683.406 -1.18333 -0.820566 0
M  V30 7040 H 685.359 -1.48641 -3.94314 0
M  V30 7041 H 684.083 -0.467026 -3.23244 0
M  V30 7042 H 682.742 -2.52157 -2.66106 0
M  V30 7043 H 682.39 -1.35372 -4.84441 0
M  V30 7044 H 682.09 -3.10375 -4.9894 0
M  V30 7045 H 683.614 -2.40862 -5.61086 0
M  V30 7046 H 685.028 -4.05826 -4.04942 0
M  V30 7047 H 683.425 -4.75063 -3.66654 0
M  V30 7048 H 684.495 -4.243 -2.34729 0
M  V30 7049 N 685.838 0.888903 -1.30139 0
M  V30 7050 C 687.254 1.17153 -1.08385 0
M  V30 7051 C 687.454 2.0088 0.157925 0
M  V30 7052 O 686.51 2.37668 0.852652 0
M  V30 7053 C 687.823 1.882 -2.34523 0
M  V30 7054 C 689.371 2.00981 -2.39949 0
M  V30 7055 C 689.846 2.75441 -3.65918 0
M  V30 7056 N 691.337 2.82989 -3.66704 0
M  V30 7057 C 692.072 3.41167 -4.60861 0
M  V30 7058 N 691.568 4.00425 -5.6536 0
M  V30 7059 N 693.361 3.38944 -4.48412 0
M  V30 7060 H 685.512 0.33053 -2.09812 0
M  V30 7061 H 687.775 0.208964 -0.924683 0
M  V30 7062 H 687.481 1.34119 -3.25123 0
M  V30 7063 H 687.355 2.88609 -2.42868 0
M  V30 7064 H 689.742 2.54234 -1.4983 0
M  V30 7065 H 689.823 0.996725 -2.35582 0
M  V30 7066 H 689.467 2.22861 -4.56394 0
M  V30 7067 H 689.397 3.77118 -3.67546 0
M  V30 7068 H 691.888 2.40912 -2.91153 0
M  V30 7069 H 692.201 4.42871 -6.33313 0
M  V30 7070 H 690.546 3.98856 -5.69157 0
M  V30 7071 H 693.737 2.91875 -3.6596 0
M  V30 7072 H 693.91 3.83989 -5.21974 0
M  V30 7073 N 687.317 1.12792 1.10072 0
M  V30 7074 C 688.733 0.864745 1.34143 0
M  V30 7075 C 688.933 -0.503201 1.95116 0
M  V30 7076 O 687.989 -1.25111 2.19325 0
M  V30 7077 C 689.302 1.98413 2.25949 0
M  V30 7078 C 690.85 2.01545 2.39476 0
M  V30 7079 C 691.325 3.12727 3.34613 0
M  V30 7080 N 692.816 3.12194 3.42183 0
M  V30 7081 C 693.551 3.94862 4.15779 0
M  V30 7082 N 693.047 4.87528 4.92228 0
M  V30 7083 N 694.84 3.82985 4.11435 0
M  V30 7084 H 686.991 2.00926 0.68866 0
M  V30 7085 H 689.254 0.874564 0.365844 0
M  V30 7086 H 688.96 2.97005 1.88364 0
M  V30 7087 H 688.834 1.89254 3.26287 0
M  V30 7088 H 691.221 1.0357 2.76328 0
M  V30 7089 H 691.302 2.14777 1.3894 0
M  V30 7090 H 690.946 4.10936 2.98486 0
M  V30 7091 H 690.876 2.96732 4.35037 0
M  V30 7092 H 693.367 2.45065 2.87666 0
M  V30 7093 H 693.68 5.47109 5.45794 0
M  V30 7094 H 692.025 4.91539 4.9134 0
M  V30 7095 H 695.216 3.09923 3.50807 0
M  V30 7096 H 695.389 4.47641 4.68531 0
M  V30 7097 N 688.795 -1.27931 0.920396 0
M  V30 7098 C 690.072 -1.89728 0.475687 0
M  V30 7099 C 690.452 -1.8337 -1.04588 0
M  V30 7100 O 689.8 -1.27404 -1.89685 0
M  V30 7101 C 690.01 -3.33959 1.01354 0
M  V30 7102 C 691.358 -4.10907 1.06963 0
M  V30 7103 O 692.382 -3.42945 0.962646 0
M  V30 7104 O 691.241 -5.32399 1.23343 0
M  V30 7105 H 688.335 -0.81294 0.151845 0
M  V30 7106 H 690.881 -1.36252 1.01161 0
M  V30 7107 H 689.653 -3.32843 2.05746 0
M  V30 7108 H 689.276 -3.94944 0.458829 0
M  V30 7109 N 690.273 -0.685099 -1.4193 0
M  V30 7110 C 691.203 -0.0273506 -2.33484 0
M  V30 7111 C 692.184 0.778366 -1.51246 0
M  V30 7112 O 693.369 0.733449 -1.79817 0
M  V30 7113 C 690.499 0.917272 -3.34968 0
M  V30 7114 C 689.453 0.21941 -4.27437 0
M  V30 7115 C 688.779 1.27768 -5.1921 0
M  V30 7116 C 690.079 -0.907894 -5.14349 0
M  V30 7117 H 691.773 -0.791994 -2.88735 0
M  V30 7118 H 689.319 -0.382308 -1.38832 0
M  V30 7119 H 691.272 1.38657 -3.97935 0
M  V30 7120 H 689.996 1.71346 -2.78043 0
M  V30 7121 H 688.655 -0.229757 -3.65879 0
M  V30 7122 H 688.303 2.06612 -4.58607 0
M  V30 7123 H 688.003 0.815803 -5.81909 0
M  V30 7124 H 689.527 1.7477 -5.85054 0
M  V30 7125 H 690.941 -0.519348 -5.70943 0
M  V30 7126 H 689.338 -1.2962 -5.85934 0
M  V30 7127 H 690.408 -1.75218 -4.52136 0
M  V30 7128 N 691.751 1.51645 -0.429126 0
M  V30 7129 C 692.683 2.25279 0.422124 0
M  V30 7130 C 693.696 1.28986 0.993299 0
M  V30 7131 O 694.885 1.54797 0.888836 0
M  V30 7132 C 691.985 2.98666 1.60162 0
M  V30 7133 C 691.158 4.2199 1.15078 0
M  V30 7134 C 690.217 4.78028 2.19946 0
M  V30 7135 O 689.243 5.40084 1.79716 0
M  V30 7136 N 690.445 4.61342 3.5234 0
M  V30 7137 H 693.21 2.98971 -0.208931 0
M  V30 7138 H 690.771 1.59838 -0.257568 0
M  V30 7139 H 692.763 3.33044 2.29922 0
M  V30 7140 H 691.333 2.28036 2.13818 0
M  V30 7141 H 690.553 3.932 0.280552 0
M  V30 7142 H 691.841 5.02037 0.826831 0
M  V30 7143 H 691.239 4.11894 3.87763 0
M  V30 7144 H 689.796 5.00104 4.18019 0
M  V30 7145 N 693.229 0.160201 1.56784 0
M  V30 7146 C 694.457 -0.494165 2.00912 0
M  V30 7147 C 694.872 -1.57548 1.04038 0
M  V30 7148 O 694.229 -1.82457 0.0394581 0
M  V30 7149 C 694.28 -1.08271 3.44905 0
M  V30 7150 O 694.001 -0.0445704 4.38077 0
M  V30 7151 C 695.502 -1.8164 4.04378 0
M  V30 7152 H 692.722 -0.127498 0.658776 0
M  V30 7153 H 695.266 0.258665 2.02858 0
M  V30 7154 H 693.421 -1.78609 3.4377 0
M  V30 7155 H 693.835 -0.477544 5.22322 0
M  V30 7156 H 695.309 -2.18094 5.07089 0
M  V30 7157 H 695.786 -2.70727 3.45838 0
M  V30 7158 H 696.392 -1.15969 4.09184 0
M  V30 7159 N 694.707 -1.5719 -0.113559 0
M  V30 7160 C 695.637 -2.03772 -1.14013 0
M  V30 7161 C 696.618 -0.923176 -1.42869 0
M  V30 7162 O 697.803 -1.19325 -1.53216 0
M  V30 7163 C 694.933 -2.44663 -2.4649 0
M  V30 7164 C 693.887 -3.59612 -2.32085 0
M  V30 7165 C 693.213 -3.8642 -3.69573 0
M  V30 7166 C 694.513 -4.91149 -1.7768 0
M  V30 7167 H 696.207 -2.89785 -0.752665 0
M  V30 7168 H 693.753 -1.39412 -0.360609 0
M  V30 7169 H 695.706 -2.75857 -3.18561 0
M  V30 7170 H 694.43 -1.55628 -2.87137 0
M  V30 7171 H 693.089 -3.28636 -1.62461 0
M  V30 7172 H 692.737 -2.94581 -4.07715 0
M  V30 7173 H 692.437 -4.63797 -3.60786 0
M  V30 7174 H 693.961 -4.2007 -4.4314 0
M  V30 7175 H 695.375 -5.20843 -2.39574 0
M  V30 7176 H 693.772 -5.72562 -1.79701 0
M  V30 7177 H 694.842 -4.79301 -0.734776 0
M  V30 7178 N 696.185 0.383891 -1.52853 0
M  V30 7179 C 697.432 1.12842 -1.68146 0
M  V30 7180 C 697.76 1.89823 -0.423954 0
M  V30 7181 O 697.015 1.86475 0.593765 0
M  V30 7182 C 697.314 2.12881 -2.87082 0
M  V30 7183 C 696.98 1.52519 -4.24322 0
M  V30 7184 C 695.642 1.35783 -4.61645 0
M  V30 7185 C 697.994 1.0868 -5.09743 0
M  V30 7186 C 695.322 0.737643 -5.82044 0
M  V30 7187 C 697.674 0.480699 -6.30771 0
M  V30 7188 C 696.338 0.300681 -6.66822 0
M  V30 7189 H 695.608 0.412917 -0.615289 0
M  V30 7190 H 698.255 0.412416 -1.87006 0
M  V30 7191 H 696.56 2.90719 -2.62659 0
M  V30 7192 H 698.257 2.70408 -2.96109 0
M  V30 7193 H 694.847 1.66534 -3.94923 0
M  V30 7194 H 699.031 1.2041 -4.81472 0
M  V30 7195 H 694.287 0.586415 -6.08581 0
M  V30 7196 H 698.461 0.132733 -6.96273 0
M  V30 7197 H 696.088 -0.181966 -7.59982 0
M  V30 7198 N 697.663 1.43903 0.642637 0
M  V30 7199 C 698.909 1.47291 1.40275 0
M  V30 7200 C 699.264 0.0996024 1.92142 0
M  V30 7201 O 698.557 -0.883423 1.70018 0
M  V30 7202 C 698.751 2.45907 2.59354 0
M  V30 7203 C 698.58 3.92691 2.19143 0
M  V30 7204 C 697.35 4.6097 2.06966 0
M  V30 7205 C 699.548 4.82231 1.78768 0
M  V30 7206 N 697.53 5.9263 1.60196 0
M  V30 7207 C 698.901 6.03246 1.43159 0
M  V30 7208 C 700.956 4.69397 1.66045 0
M  V30 7209 C 699.659 7.12851 0.961014 0
M  V30 7210 C 701.685 5.79016 1.20392 0
M  V30 7211 C 701.047 6.99164 0.857271 0
M  V30 7212 H 697.146 0.594055 0.50855 0
M  V30 7213 H 699.73 1.80153 0.738434 0
M  V30 7214 H 697.901 2.15054 3.23429 0
M  V30 7215 H 699.633 2.39665 3.26102 0
M  V30 7216 H 696.388 4.15622 2.27058 0
M  V30 7217 H 696.812 6.62547 1.39143 0
M  V30 7218 H 701.454 3.76954 1.91482 0
M  V30 7219 H 699.172 8.05113 0.694148 0
M  V30 7220 H 702.758 5.71109 1.11023 0
M  V30 7221 H 701.638 7.82544 0.509408 0
M  V30 7222 N 699.141 -0.881989 1.30609 0
M  V30 7223 C 700.557 -1.16576 1.09005 0
M  V30 7224 C 700.757 -2.00961 -0.14727 0
M  V30 7225 O 699.813 -2.38117 -0.840036 0
M  V30 7226 C 701.126 -1.86954 2.35518 0
M  V30 7227 C 702.674 -1.99706 2.41011 0
M  V30 7228 C 703.149 -2.73497 3.67374 0
M  V30 7229 N 704.64 -2.8104 3.68199 0
M  V30 7230 C 705.375 -3.38718 4.62664 0
M  V30 7231 N 704.871 -3.97421 5.67475 0
M  V30 7232 N 706.664 -3.36561 4.50203 0
M  V30 7233 H 698.815 -0.319398 2.09985 0
M  V30 7234 H 701.078 -0.204058 0.925778 0
M  V30 7235 H 700.784 -1.32393 3.2583 0
M  V30 7236 H 700.658 -2.87317 2.44395 0
M  V30 7237 H 703.045 -2.53436 1.51176 0
M  V30 7238 H 703.126 -0.984218 2.36108 0
M  V30 7239 H 702.77 -2.20438 4.57569 0
M  V30 7240 H 702.7 -3.75163 3.6954 0
M  V30 7241 H 705.191 -2.39365 2.92426 0
M  V30 7242 H 705.504 -4.39507 6.35652 0
M  V30 7243 H 703.849 -3.95832 5.71264 0
M  V30 7244 H 707.04 -2.8993 3.67503 0
M  V30 7245 H 707.213 -3.81215 5.24003 0
M  V30 7246 N 700.619 -1.13374 -1.09472 0
M  V30 7247 C 701.844 -0.918711 -1.85942 0
M  V30 7248 C 702.269 0.527225 -1.8056 0
M  V30 7249 O 701.627 1.37408 -1.18274 0
M  V30 7250 C 701.675 -1.41056 -3.31867 0
M  V30 7251 O 700.779 -0.595496 -4.08078 0
M  V30 7252 H 700.12 -0.329297 -0.576593 0
M  V30 7253 H 702.65 -1.50829 -1.38245 0
M  V30 7254 H 702.66 -1.41398 -3.82715 0
M  V30 7255 H 701.335 -2.46335 -3.35099 0
M  V30 7256 H 699.912 -0.659911 -3.67014 0
M  V30 7257 N 702.098 1.27442 -0.927168 0
M  V30 7258 C 703.514 1.46754 -0.627329 0
M  V30 7259 C 703.714 1.83902 0.823549 0
M  V30 7260 O 702.77 1.95215 1.60148 0
M  V30 7261 C 704.083 2.56045 -1.57674 0
M  V30 7262 C 705.631 2.69906 -1.58491 0
M  V30 7263 C 706.106 3.82355 -2.52128 0
M  V30 7264 N 707.597 3.89728 -2.50332 0
M  V30 7265 C 708.332 4.76155 -3.19475 0
M  V30 7266 N 707.828 5.67073 -3.97995 0
M  V30 7267 N 709.621 4.6988 -3.08496 0
M  V30 7268 H 701.772 1.01613 -1.86517 0
M  V30 7269 H 704.035 0.507443 -0.800753 0
M  V30 7270 H 703.741 2.35542 -2.61176 0
M  V30 7271 H 703.615 3.53423 -1.31804 0
M  V30 7272 H 706.002 2.89792 -0.557208 0
M  V30 7273 H 706.083 1.73018 -1.8841 0
M  V30 7274 H 705.727 3.63224 -3.55008 0
M  V30 7275 H 705.657 4.7867 -2.19505 0
M  V30 7276 H 708.148 3.24717 -1.93306 0
M  V30 7277 H 708.461 6.2988 -4.4774 0
M  V30 7278 H 706.806 5.6687 -4.02098 0
M  V30 7279 H 709.997 3.97848 -2.46646 0
M  V30 7280 H 710.17 5.37017 -3.62652 0
M  V30 7281 N 703.576 0.692616 1.41565 0
M  V30 7282 C 704.822 0.222664 2.01574 0
M  V30 7283 C 705.155 -1.1737 1.54719 0
M  V30 7284 O 704.43 -1.79161 0.757084 0
M  V30 7285 C 704.713 0.277064 3.59033 0
M  V30 7286 C 704.566 1.71016 4.16021 0
M  V30 7287 C 705.885 -0.36479 4.38586 0
M  V30 7288 H 703.004 0.0823839 0.732381 0
M  V30 7289 H 705.646 0.880778 1.68352 0
M  V30 7290 H 703.796 -0.283288 3.87466 0
M  V30 7291 H 705.468 2.32413 3.98475 0
M  V30 7292 H 703.711 2.24525 3.71175 0
M  V30 7293 H 704.382 1.69978 5.25178 0
M  V30 7294 H 706.858 0.112404 4.15948 0
M  V30 7295 H 705.734 -0.296169 5.481 0
M  V30 7296 H 705.995 -1.44506 4.17816 0
M  V30 7297 N 705.054 -1.51416 0.437162 0
M  V30 7298 C 706.282 -2.06503 -0.128045 0
M  V30 7299 C 706.697 -1.30461 -1.36475 0
M  V30 7300 O 706.054 -0.364127 -1.78831 0
M  V30 7301 C 706.105 -3.58683 -0.450437 0
M  V30 7302 O 705.826 -4.31853 0.737186 0
M  V30 7303 C 707.327 -4.30284 -1.06633 0
M  V30 7304 H 704.547 -0.670952 -0.00800269 0
M  V30 7305 H 707.091 -1.94996 0.616193 0
M  V30 7306 H 705.246 -3.70106 -1.14457 0
M  V30 7307 H 705.66 -5.22467 0.461347 0
M  V30 7308 H 707.134 -5.37848 -1.24191 0
M  V30 7309 H 707.611 -3.88564 -2.0473 0
M  V30 7310 H 708.217 -4.23304 -0.411585 0
M  V30 7311 N 706.532 -0.168513 -1.56696 0
M  V30 7312 C 707.48 0.779791 -2.19139 0
M  V30 7313 C 708.474 1.23957 -1.1546 0
M  V30 7314 O 709.68 1.20555 -1.33666 0
M  V30 7315 H 706.055 0.269739 -0.701958 0
M  V30 7316 H 708.026 0.229156 -2.97519 0
M  V30 7317 C 706.775 2.00003 -2.84419 0
M  V30 7318 H 706.098 1.65527 -3.63924 0
M  V30 7319 H 707.538 2.64251 -3.31583 0
M  V30 7320 C 705.997 2.82187 -1.84044 0
M  V30 7321 O 706.527 3.79247 -1.32418 0
M  V30 7322 N 704.733 2.47145 -1.52864 0
M  V30 7323 H 704.28 1.68277 -1.9504 0
M  V30 7324 H 704.238 3.02422 -0.859569 0
M  V30 7325 N 708.01 1.57248 0.105221 0
M  V30 7326 C 709.421 1.74612 0.660865 0
M  V30 7327 C 709.772 0.789231 1.79626 0
M  V30 7328 O 708.897 -0.0346611 2.16372 0
M  V30 7329 C 709.492 3.16624 1.20559 0
M  V30 7330 C 708.051 3.35447 1.7074 0
M  V30 7331 C 707.198 2.70445 0.612764 0
M  V30 7332 H 710.149 1.5824 -0.12079 0
M  V30 7333 H 710.17 3.18937 2.07508 0
M  V30 7334 H 709.682 3.86245 0.379012 0
M  V30 7335 H 707.783 2.7089 2.5583 0
M  V30 7336 H 707.896 4.43702 1.80736 0
M  V30 7337 H 706.26 2.32061 1.04975 0
M  V30 7338 H 707.043 3.42699 -0.203066 0
M  V30 7339 N 709.488 -0.375779 1.53054 0
M  V30 7340 C 710.737 -1.11674 1.67964 0
M  V30 7341 C 711.05 -1.90755 0.432655 0
M  V30 7342 O 712.256 -2.67538 0.462109 0
M  V30 7343 C 710.712 -2.0344 2.96884 0
M  V30 7344 C 710.32 -1.29719 4.28809 0
M  V30 7345 C 712.064 -2.7759 3.2116 0
M  V30 7346 C 709.971 -2.20327 5.48826 0
M  V30 7347 H 708.901 -0.420597 0.625791 0
M  V30 7348 H 711.552 -0.378499 1.79554 0
M  V30 7349 H 709.934 -2.80953 2.79072 0
M  V30 7350 H 711.108 -0.573394 4.57219 0
M  V30 7351 H 709.423 -0.674735 4.10897 0
M  V30 7352 H 712.02 -3.4559 4.0801 0
M  V30 7353 H 712.363 -3.42399 2.36789 0
M  V30 7354 H 712.896 -2.07164 3.396 0
M  V30 7355 H 709.635 -1.60113 6.35645 0
M  V30 7356 H 709.155 -2.90585 5.2471 0
M  V30 7357 H 710.834 -2.80116 5.83219 0
M  V30 7358 N 710.966 -1.44241 -0.634997 0
M  V30 7359 C 711.914 -1.51103 -1.76835 0
M  V30 7360 C 712.908 -0.383051 -1.65012 0
M  V30 7361 O 714.114 -0.557832 -1.71138 0
M  V30 7362 H 710.489 -0.474076 -0.583743 0
M  V30 7363 H 712.46 -2.46499 -1.68169 0
M  V30 7364 C 711.209 -1.4687 -3.15158 0
M  V30 7365 H 710.532 -2.32979 -3.24901 0
M  V30 7366 H 711.972 -1.55731 -3.94365 0
M  V30 7367 C 710.431 -0.188884 -3.3637 0
M  V30 7368 O 710.961 0.742487 -3.94778 0
M  V30 7369 N 709.167 -0.0932516 -2.9045 0
M  V30 7370 H 708.714 -0.852004 -2.43102 0
M  V30 7371 H 708.672 0.762308 -3.05018 0
M  V30 7372 N 712.444 0.87505 -1.31075 0
M  V30 7373 C 713.855 1.4433 -1.18431 0
M  V30 7374 C 714.206 1.9506 0.211189 0
M  V30 7375 O 713.331 1.85847 1.10859 0
M  V30 7376 C 713.926 2.62341 -2.14389 0
M  V30 7377 C 712.485 3.15225 -2.05694 0
M  V30 7378 C 711.632 1.87929 -2.03907 0
M  V30 7379 H 714.583 0.684061 -1.432 0
M  V30 7380 H 714.604 3.3887 -1.73053 0
M  V30 7381 H 714.116 2.25388 -3.15946 0
M  V30 7382 H 712.217 3.56812 -1.07314 0
M  V30 7383 H 712.33 3.77853 -2.94558 0
M  V30 7384 H 710.694 2.06679 -1.48849 0
M  V30 7385 H 711.477 1.53221 -3.07211 0
M  V30 7386 N 713.922 1.13953 1.08869 0
M  V30 7387 C 715.168 0.916103 1.81602 0
M  V30 7388 C 715.523 -0.551633 1.84322 0
M  V30 7389 O 714.816 -1.40322 1.30462 0
M  V30 7390 C 715.01 1.44495 3.26888 0
M  V30 7391 C 714.839 2.96257 3.38322 0
M  V30 7392 C 713.609 3.64658 3.49789 0
M  V30 7393 C 715.807 3.94156 3.30372 0
M  V30 7394 N 713.789 5.04379 3.49965 0
M  V30 7395 C 715.16 5.20101 3.37484 0
M  V30 7396 C 717.215 3.86342 3.14077 0
M  V30 7397 C 715.918 6.39145 3.29979 0
M  V30 7398 C 717.944 5.04927 3.07901 0
M  V30 7399 C 717.306 6.29738 3.1561 0
M  V30 7400 H 713.405 0.388701 0.678554 0
M  V30 7401 H 715.989 1.44879 1.3007 0
M  V30 7402 H 714.16 0.939102 3.76876 0
M  V30 7403 H 715.892 1.16193 3.87661 0
M  V30 7404 H 712.647 3.15196 3.5348 0
M  V30 7405 H 713.071 5.77305 3.53622 0
M  V30 7406 H 717.713 2.90726 3.06982 0
M  V30 7407 H 715.431 7.3501 3.35836 0
M  V30 7408 H 719.017 5.00626 2.9642 0
M  V30 7409 H 717.897 7.19958 3.10854 0
M  V30 7410 N 715.4 -1.26948 0.933913 0
M  V30 7411 C 716.63 -1.97898 0.593279 0
M  V30 7412 C 717.038 -1.69806 -0.834412 0
M  V30 7413 O 716.381 -0.958704 -1.56699 0
M  V30 7414 C 716.443 -3.51657 0.746825 0
M  V30 7415 C 716.107 -4.03384 2.14779 0
M  V30 7416 C 717.104 -4.15682 3.12257 0
M  V30 7417 C 714.789 -4.37577 2.46641 0
M  V30 7418 C 716.783 -4.61455 4.39702 0
M  V30 7419 C 714.47 -4.8304 3.7432 0
M  V30 7420 C 715.468 -4.94939 4.70664 0
M  V30 7421 O 715.156 -5.39403 5.96071 0
M  V30 7422 H 714.888 -0.63814 0.223055 0
M  V30 7423 H 717.442 -1.62608 1.2549 0
M  V30 7424 H 715.672 -3.8669 0.0280889 0
M  V30 7425 H 717.361 -4.03821 0.410328 0
M  V30 7426 H 718.127 -3.89519 2.88964 0
M  V30 7427 H 714.006 -4.27554 1.72391 0
M  V30 7428 H 717.55 -4.70658 5.14905 0
M  V30 7429 H 713.447 -5.08646 3.97429 0
M  V30 7430 H 714.215 -5.57641 5.99148 0
M  V30 7431 N 716.879 -0.700114 -1.41195 0
M  V30 7432 C 718.126 -0.233006 -2.01155 0
M  V30 7433 C 718.454 1.16883 -1.55462 0
M  V30 7434 O 717.709 1.80395 -0.758695 0
M  V30 7435 C 718.008 -0.243986 -3.56566 0
M  V30 7436 C 717.674 -1.59397 -4.21786 0
M  V30 7437 C 716.336 -1.96355 -4.39316 0
M  V30 7438 C 718.688 -2.48192 -4.58312 0
M  V30 7439 C 716.016 -3.21683 -4.9065 0
M  V30 7440 C 718.368 -3.72857 -5.11039 0
M  V30 7441 C 717.032 -4.09951 -5.26779 0
M  V30 7442 H 716.302 -0.085263 -0.736078 0
M  V30 7443 H 718.949 -0.9001 -1.69028 0
M  V30 7444 H 717.254 0.506663 -3.8851 0
M  V30 7445 H 718.951 0.135031 -4.00773 0
M  V30 7446 H 715.541 -1.29654 -4.08519 0
M  V30 7447 H 719.725 -2.20918 -4.4442 0
M  V30 7448 H 714.981 -3.50412 -5.01021 0
M  V30 7449 H 719.155 -4.41844 -5.38282 0
M  V30 7450 H 716.782 -5.07136 -5.66319 0
M  V30 7451 N 718.357 1.51182 -0.445186 0
M  V30 7452 C 719.304 2.27939 0.362291 0
M  V30 7453 C 720.274 1.31864 1.01 0
M  V30 7454 O 721.459 1.60776 1.02741 0
M  V30 7455 C 718.599 3.13016 1.45311 0
M  V30 7456 C 717.712 4.24093 0.822757 0
M  V30 7457 C 716.847 4.96467 1.88928 0
M  V30 7458 C 715.886 5.99454 1.23778 0
M  V30 7459 N 715.023 6.65206 2.24602 0
M  V30 7460 H 719.863 2.965 -0.29862 0
M  V30 7461 H 717.4 1.46237 -0.15911 0
M  V30 7462 H 719.358 3.60673 2.09692 0
M  V30 7463 H 717.988 2.46553 2.08354 0
M  V30 7464 H 717.04 3.80341 0.0670364 0
M  V30 7465 H 718.352 4.97853 0.307184 0
M  V30 7466 H 717.506 5.47712 2.60953 0
M  V30 7467 H 716.245 4.22355 2.4386 0
M  V30 7468 H 715.25 5.47494 0.503042 0
M  V30 7469 H 716.475 6.75527 0.695694 0
M  V30 7470 H 714.421 5.93901 2.78599 0
M  V30 7471 H 714.338 7.34756 1.77958 0
M  V30 7472 H 715.606 7.21078 2.96085 0
M  V30 7473 N 719.835 0.176821 1.56605 0
M  V30 7474 C 720.785 -0.763718 2.14829 0
M  V30 7475 C 721.769 -1.18903 1.08401 0
M  V30 7476 O 722.961 -1.15048 1.3451 0
M  V30 7477 C 720.09 -1.99069 2.7969 0
M  V30 7478 C 719.176 -1.58711 3.93283 0
M  V30 7479 N 719.567 -0.893423 4.97847 0
M  V30 7480 C 717.865 -1.87774 4.04545 0
M  V30 7481 C 718.566 -0.693866 5.77547 0
M  V30 7482 N 717.542 -1.23699 5.29339 0
M  V30 7483 H 721.344 -0.224811 2.93039 0
M  V30 7484 H 718.858 -0.0236563 1.62383 0
M  V30 7485 H 720.855 -2.67478 3.19783 0
M  V30 7486 H 719.515 -2.53449 2.02962 0
M  V30 7487 H 720.526 -0.550868 5.14962 0
M  V30 7488 H 717.203 -2.43793 3.38927 0
M  V30 7489 H 718.593 -0.144899 6.71744 0
M  V30 7490 N 721.313 -1.57302 -0.09688 0
M  V30 7491 C 722.538 -1.9058 -0.818169 0
M  V30 7492 C 722.963 -0.770921 -1.71576 0
M  V30 7493 O 722.321 0.277588 -1.79162 0
M  V30 7494 C 722.369 -3.22714 -1.60898 0
M  V30 7495 O 721.473 -3.10178 -2.71779 0
M  V30 7496 H 720.814 -0.624759 -0.224882 0
M  V30 7497 H 723.344 -2.04471 -0.07264 0
M  V30 7498 H 723.354 -3.55978 -1.99358 0
M  V30 7499 H 722.029 -4.04899 -0.950227 0
M  V30 7500 H 720.606 -2.88424 -2.3636 0
M  V30 7501 N 722.791 0.367657 -1.53252 0
M  V30 7502 C 724.068 1.12606 -1.59935 0
M  V30 7503 C 724.448 2.07167 -0.405606 0
M  V30 7504 O 723.796 2.20364 0.604323 0
M  V30 7505 C 724.006 1.86699 -2.94863 0
M  V30 7506 C 725.354 2.41306 -3.49366 0
M  V30 7507 O 726.378 1.96828 -2.96879 0
M  V30 7508 O 725.237 3.2261 -4.41118 0
M  V30 7509 H 722.331 0.516438 -0.645926 0
M  V30 7510 H 724.877 0.371088 -1.65593 0
M  V30 7511 H 723.649 1.17674 -3.73187 0
M  V30 7512 H 723.272 2.6911 -2.92687 0
M  V30 7513 N 724.269 1.44576 0.627338 0
M  V30 7514 C 725.517 1.47267 1.38408 0
M  V30 7515 C 725.838 0.107971 1.94701 0
M  V30 7516 O 725.108 -0.860206 1.76004 0
M  V30 7517 H 723.688 0.542276 0.513756 0
M  V30 7518 H 726.35 1.80383 0.738099 0
M  V30 7519 H 725.446 2.20025 2.21349 0
M  V30 7520 N 725.747 -0.868086 1.31537 0
M  V30 7521 C 726.972 -1.65926 1.24432 0
M  V30 7522 C 727.397 -1.87169 -0.186936 0
M  V30 7523 O 726.755 -1.4148 -1.13371 0
M  V30 7524 C 726.803 -3.00347 1.9956 0
M  V30 7525 O 725.907 -3.90221 1.33422 0
M  V30 7526 H 725.248 -0.506375 0.429512 0
M  V30 7527 H 727.778 -1.0822 1.73637 0
M  V30 7528 H 727.788 -3.50269 2.09226 0
M  V30 7529 H 726.463 -2.84205 3.03645 0
M  V30 7530 H 725.04 -3.48672 1.32219 0
M  V30 7531 N 727.225 -1.14528 -1.08264 0
M  V30 7532 C 728.472 -0.914405 -1.80679 0
M  V30 7533 C 728.8 0.558952 -1.86295 0
M  V30 7534 O 728.055 1.43017 -1.33584 0
M  V30 7535 C 728.354 -1.46226 -3.26117 0
M  V30 7536 C 728.02 -2.95451 -3.40616 0
M  V30 7537 C 726.682 -3.36191 -3.4428 0
M  V30 7538 C 729.034 -3.91399 -3.44175 0
M  V30 7539 C 726.362 -4.71539 -3.49096 0
M  V30 7540 C 728.714 -5.26606 -3.50526 0
M  V30 7541 C 727.378 -5.66856 -3.52464 0
M  V30 7542 H 726.648 -0.334604 -0.661151 0
M  V30 7543 H 729.295 -1.4292 -1.27461 0
M  V30 7544 H 727.6 -0.868442 -3.82054 0
M  V30 7545 H 729.297 -1.25955 -3.80705 0
M  V30 7546 H 725.887 -2.62955 -3.38456 0
M  V30 7547 H 730.071 -3.61004 -3.40573 0
M  V30 7548 H 725.327 -5.02082 -3.4889 0
M  V30 7549 H 729.501 -6.00758 -3.52225 0
M  V30 7550 H 727.128 -6.71718 -3.55948 0
M  V30 7551 N 728.703 1.26451 -0.940633 0
M  V30 7552 C 729.928 1.98407 -0.60412 0
M  V30 7553 C 730.353 1.69584 0.81382 0
M  V30 7554 O 729.711 0.943553 1.54812 0
M  V30 7555 C 729.759 3.50387 -0.852136 0
M  V30 7556 O 728.863 4.1233 0.076013 0
M  V30 7557 H 728.204 0.622466 -0.231153 0
M  V30 7558 H 730.734 1.60932 -1.26342 0
M  V30 7559 H 730.744 4.00614 -0.772816 0
M  V30 7560 H 729.419 3.70696 -1.88566 0
M  V30 7561 H 727.996 3.7286 -0.0543187 0
M  V30 7562 N 730.181 0.707592 1.40822 0
M  V30 7563 C 731.129 0.0386643 2.32568 0
M  V30 7564 C 732.123 -0.755653 1.51612 0
M  V30 7565 O 733.329 -0.659921 1.67467 0
M  V30 7566 H 729.704 -0.00629912 0.751974 0
M  V30 7567 H 731.675 0.8293 2.86645 0
M  V30 7568 C 730.424 -0.87496 3.36511 0
M  V30 7569 H 729.747 -0.273157 3.98866 0
M  V30 7570 H 731.187 -1.31111 4.03219 0
M  V30 7571 C 729.646 -1.99672 2.71353 0
M  V30 7572 O 730.176 -3.08676 2.57064 0
M  V30 7573 N 728.382 -1.77799 2.29861 0
M  V30 7574 H 727.929 -0.89147 2.41683 0
M  V30 7575 H 727.887 -2.53036 1.86601 0
M  V30 7576 N 731.66 -1.50943 0.453197 0
M  V30 7577 C 732.607 -2.28128 -0.350197 0
M  V30 7578 C 733.577 -1.32398 -1.00299 0
M  V30 7579 O 734.762 -1.61319 -1.01887 0
M  V30 7580 C 731.902 -3.13782 -1.43649 0
M  V30 7581 C 731.015 -4.24523 -0.800255 0
M  V30 7582 C 730.15 -4.97462 -1.86293 0
M  V30 7583 C 729.189 -6.00102 -1.20598 0
M  V30 7584 N 728.326 -6.66387 -2.21071 0
M  V30 7585 H 733.166 -2.96337 0.31434 0
M  V30 7586 H 730.703 -1.46151 0.166863 0
M  V30 7587 H 732.661 -3.6178 -2.07776 0
M  V30 7588 H 731.291 -2.47655 -2.07044 0
M  V30 7589 H 730.343 -3.80371 -0.0468651 0
M  V30 7590 H 731.655 -4.98009 -0.280777 0
M  V30 7591 H 730.809 -5.49088 -2.58044 0
M  V30 7592 H 729.548 -4.23642 -2.41617 0
M  V30 7593 H 728.553 -5.47753 -0.474 0
M  V30 7594 H 729.778 -6.75887 -0.659859 0
M  V30 7595 H 727.724 -5.9537 -2.75446 0
M  V30 7596 H 727.641 -7.3569 -1.74058 0
M  V30 7597 H 728.909 -7.22638 -2.92257 0
M  V30 7598 N 733.138 -0.185124 -1.56509 0
M  V30 7599 C 734.07 0.771401 -2.15829 0
M  V30 7600 C 735.083 1.18392 -1.11747 0
M  V30 7601 O 736.272 1.12137 -1.38879 0
M  V30 7602 C 733.372 2.05169 -2.69739 0
M  V30 7603 C 732.545 1.80056 -3.98621 0
M  V30 7604 C 731.604 2.92435 -4.37456 0
M  V30 7605 O 730.63 2.62473 -5.05071 0
M  V30 7606 N 731.832 4.20554 -4.00143 0
M  V30 7607 H 734.597 0.264184 -2.98533 0
M  V30 7608 H 732.158 -0.00281069 -1.619 0
M  V30 7609 H 734.15 2.7947 -2.92709 0
M  V30 7610 H 732.72 2.47041 -1.91545 0
M  V30 7611 H 731.94 0.895862 -3.83885 0
M  V30 7612 H 733.228 1.60662 -4.82768 0
M  V30 7613 H 732.626 4.47753 -3.45736 0
M  V30 7614 H 731.183 4.91514 -4.28085 0
M  V30 7615 N 734.616 1.57351 0.0885366 0
M  V30 7616 C 735.862 1.87564 0.786842 0
M  V30 7617 C 736.217 0.776774 1.76023 0
M  V30 7618 O 735.51 -0.220637 1.90325 0
M  V30 7619 C 735.704 3.22098 1.5488 0
M  V30 7620 C 735.533 4.44967 0.650706 0
M  V30 7621 C 734.303 5.04444 0.293957 0
M  V30 7622 C 736.501 5.1428 -0.0452187 0
M  V30 7623 N 734.483 6.10846 -0.611609 0
M  V30 7624 C 735.854 6.14704 -0.808603 0
M  V30 7625 C 737.909 4.97759 -0.118451 0
M  V30 7626 C 736.612 7.00392 -1.63839 0
M  V30 7627 C 738.638 5.8396 -0.935157 0
M  V30 7628 C 738 6.83909 -1.68664 0
M  V30 7629 H 734.099 0.73613 0.263887 0
M  V30 7630 H 736.683 1.94638 0.049074 0
M  V30 7631 H 734.854 3.16064 2.2574 0
M  V30 7632 H 736.586 3.40015 2.19481 0
M  V30 7633 H 733.341 4.69214 0.643086 0
M  V30 7634 H 733.765 6.68695 -1.05714 0
M  V30 7635 H 738.407 4.20418 0.448202 0
M  V30 7636 H 736.125 7.7712 -2.21608 0
M  V30 7637 H 739.711 5.73236 -0.994579 0
M  V30 7638 H 738.591 7.49454 -2.30842 0
M  V30 7639 N 736.094 -0.359525 1.53444 0
M  V30 7640 C 737.343 -1.09886 1.69139 0
M  V30 7641 C 737.656 -1.90285 0.452863 0
M  V30 7642 O 738.862 -2.67033 0.490459 0
M  V30 7643 C 737.318 -2.0028 2.99025 0
M  V30 7644 C 736.926 -1.25164 4.30161 0
M  V30 7645 C 738.67 -2.74168 3.24086 0
M  V30 7646 C 736.577 -2.14494 5.51132 0
M  V30 7647 H 735.507 -0.413936 0.630217 0
M  V30 7648 H 738.158 -0.359434 1.79945 0
M  V30 7649 H 736.54 -2.77978 2.82036 0
M  V30 7650 H 737.714 -0.524867 4.57801 0
M  V30 7651 H 736.029 -0.631116 4.11589 0
M  V30 7652 H 738.626 -3.41243 4.11652 0
M  V30 7653 H 738.969 -3.39868 2.40407 0
M  V30 7654 H 739.502 -2.0355 3.41778 0
M  V30 7655 H 736.241 -1.53362 6.37307 0
M  V30 7656 H 735.761 -2.85004 5.27762 0
M  V30 7657 H 737.44 -2.73914 5.86157 0
M  V30 7658 N 737.572 -1.44907 -0.619662 0
M  V30 7659 C 738.819 -1.48292 -1.37898 0
M  V30 7660 C 739.147 -0.119933 -1.9413 0
M  V30 7661 O 738.402 0.879834 -1.74807 0
M  V30 7662 C 738.701 -2.50002 -2.55409 0
M  V30 7663 C 738.367 -3.95031 -2.17397 0
M  V30 7664 C 737.029 -4.34524 -2.06743 0
M  V30 7665 C 739.381 -4.86287 -1.87548 0
M  V30 7666 C 736.709 -5.63183 -1.64445 0
M  V30 7667 C 739.061 -6.15346 -1.4674 0
M  V30 7668 C 737.725 -6.53781 -1.34636 0
M  V30 7669 H 736.995 -0.542638 -0.504603 0
M  V30 7670 H 739.642 -1.78186 -0.701581 0
M  V30 7671 H 737.947 -2.13634 -3.28433 0
M  V30 7672 H 739.644 -2.49864 -3.13639 0
M  V30 7673 H 736.234 -3.63793 -2.26611 0
M  V30 7674 H 740.418 -4.56522 -1.94682 0
M  V30 7675 H 735.674 -5.91769 -1.53687 0
M  V30 7676 H 739.848 -6.85508 -1.22685 0
M  V30 7677 H 737.475 -7.53375 -1.01634 0
M  V30 7678 N 739.05 0.861098 -1.31996 0
M  V30 7679 C 740.297 1.61481 -1.22188 0
M  V30 7680 C 740.625 1.93276 0.217853 0
M  V30 7681 O 739.88 1.56942 1.16909 0
M  V30 7682 C 740.179 2.94822 -2.02027 0
M  V30 7683 C 739.845 2.82483 -3.51446 0
M  V30 7684 C 738.507 2.78825 -3.92186 0
M  V30 7685 C 740.859 2.68878 -4.46491 0
M  V30 7686 C 738.187 2.59433 -5.26224 0
M  V30 7687 C 740.539 2.51022 -5.80664 0
M  V30 7688 C 739.203 2.45753 -6.20614 0
M  V30 7689 H 738.473 0.590902 -0.447119 0
M  V30 7690 H 741.12 0.999376 -1.63355 0
M  V30 7691 H 739.425 3.6045 -1.53569 0
M  V30 7692 H 741.122 3.52149 -1.91812 0
M  V30 7693 H 737.712 2.86152 -3.19085 0
M  V30 7694 H 741.896 2.70754 -4.1594 0
M  V30 7695 H 737.152 2.53784 -5.5624 0
M  V30 7696 H 741.326 2.39473 -6.53931 0
M  V30 7697 H 738.953 2.30485 -7.24417 0
M  V30 7698 N 740.528 1.15101 1.07655 0
M  V30 7699 C 741.774 0.935313 1.8062 0
M  V30 7700 C 742.129 -0.532052 1.84897 0
M  V30 7701 O 741.422 -1.3893 1.31943 0
M  V30 7702 C 741.616 1.47954 3.25337 0
M  V30 7703 C 741.445 2.99829 3.35161 0
M  V30 7704 C 740.215 3.68348 3.45902 0
M  V30 7705 C 742.413 3.97638 3.26173 0
M  V30 7706 N 740.395 5.08062 3.44596 0
M  V30 7707 C 741.766 5.23651 3.31949 0
M  V30 7708 C 743.821 3.89651 3.09962 0
M  V30 7709 C 742.524 6.42609 3.23182 0
M  V30 7710 C 744.55 5.08164 3.02528 0
M  V30 7711 C 743.912 6.3305 3.08913 0
M  V30 7712 H 740.011 0.395876 0.674393 0
M  V30 7713 H 742.595 1.4625 1.28526 0
M  V30 7714 H 740.766 0.979022 3.75859 0
M  V30 7715 H 742.498 1.20298 3.86407 0
M  V30 7716 H 739.253 3.18928 3.50117 0
M  V30 7717 H 739.677 5.81023 3.47479 0
M  V30 7718 H 744.319 2.93966 3.03881 0
M  V30 7719 H 742.037 7.38531 3.28022 0
M  V30 7720 H 745.623 5.03742 2.91093 0
M  V30 7721 H 744.503 7.23214 3.03201 0
M  V30 7722 N 742.006 -1.2595 0.947325 0
M  V30 7723 C 743.253 -1.93463 0.598178 0
M  V30 7724 C 743.581 -1.74271 -0.863705 0
M  V30 7725 O 742.836 -1.07684 -1.63409 0
M  V30 7726 C 743.135 -3.46034 0.894158 0
M  V30 7727 C 742.801 -3.85373 2.3409 0
M  V30 7728 C 741.463 -3.95823 2.73637 0
M  V30 7729 C 743.815 -4.04986 3.2808 0
M  V30 7730 C 741.143 -4.23288 4.06257 0
M  V30 7731 C 743.495 -4.3394 4.60303 0
M  V30 7732 C 742.159 -4.42606 4.99656 0
M  V30 7733 H 741.429 -0.707933 0.218889 0
M  V30 7734 H 744.076 -1.4964 1.19499 0
M  V30 7735 H 742.381 -3.9121 0.214874 0
M  V30 7736 H 744.078 -3.96445 0.602698 0
M  V30 7737 H 740.668 -3.7779 2.02417 0
M  V30 7738 H 744.852 -3.96333 2.9872 0
M  V30 7739 H 740.108 -4.28211 4.36401 0
M  V30 7740 H 744.282 -4.48061 5.33118 0
M  V30 7741 H 741.909 -4.63641 6.02446 0
M  V30 7742 N 743.484 -0.715051 -1.40445 0
M  V30 7743 C 744.732 -0.253826 -2.005 0
M  V30 7744 C 745.053 1.15681 -1.5698 0
M  V30 7745 O 744.323 1.78414 -0.809027 0
M  V30 7746 H 742.903 -0.0908537 -0.741454 0
M  V30 7747 H 745.565 -0.920561 -1.7179 0
M  V30 7748 H 744.661 -0.286499 -3.10782 0
M  V30 7749 N 744.962 1.50701 -0.461195 0
M  V30 7750 C 745.892 2.31182 0.328184 0
M  V30 7751 C 746.873 1.37644 0.999408 0
M  V30 7752 O 748.058 1.66565 0.99848 0
M  V30 7753 C 745.188 3.17113 1.41621 0
M  V30 7754 C 744.142 4.19124 0.867148 0
M  V30 7755 C 743.468 4.93728 2.05272 0
M  V30 7756 C 744.768 5.22174 -0.114808 0
M  V30 7757 H 746.462 2.97423 -0.343501 0
M  V30 7758 H 744.008 1.43033 -0.166641 0
M  V30 7759 H 745.961 3.72208 1.97584 0
M  V30 7760 H 744.685 2.48739 2.11652 0
M  V30 7761 H 743.344 3.65116 0.329557 0
M  V30 7762 H 742.992 4.21835 2.73978 0
M  V30 7763 H 742.692 5.62724 1.69161 0
M  V30 7764 H 744.216 5.51654 2.61744 0
M  V30 7765 H 745.63 5.72198 0.355316 0
M  V30 7766 H 744.027 5.98833 -0.389689 0
M  V30 7767 H 745.097 4.7353 -1.04391 0
M  V30 7768 N 746.441 0.193421 1.56409 0
M  V30 7769 C 747.404 -0.714371 2.17783 0
M  V30 7770 C 748.404 -1.1422 1.13183 0
M  V30 7771 O 749.594 -1.05557 1.38576 0
M  V30 7772 C 746.726 -1.97509 2.77855 0
M  V30 7773 H 747.919 -0.179714 2.99361 0
M  V30 7774 H 745.472 -0.0561944 1.56199 0
M  V30 7775 H 746.207 -2.5523 2.0007 0
M  V30 7776 H 745.992 -1.67706 3.54425 0
M  V30 7777 H 747.482 -2.62246 3.24987 0
M  V30 7778 N 747.919 -1.57396 -0.0801906 0
M  V30 7779 C 749.196 -1.77883 -0.813451 0
M  V30 7780 C 749.576 -0.778879 -1.96206 0
M  V30 7781 O 748.924 0.189683 -2.27711 0
M  V30 7782 C 749.134 -3.24116 -1.2942 0
M  V30 7783 C 750.482 -3.87714 -1.73098 0
M  V30 7784 O 751.506 -3.27956 -1.39007 0
M  V30 7785 O 750.365 -4.92828 -2.36184 0
M  V30 7786 H 747.459 -0.729727 -0.389138 0
M  V30 7787 H 750.005 -1.69591 -0.0609166 0
M  V30 7788 H 748.777 -3.88443 -0.471947 0
M  V30 7789 H 748.4 -3.371 -2.1083 0
M  V30 7790 N 749.397 0.351382 -1.53633 0
M  V30 7791 C 750.646 1.08988 -1.69719 0
M  V30 7792 C 750.959 1.90043 -0.462948 0
M  V30 7793 O 752.165 2.66769 -0.504613 0
M  V30 7794 C 750.621 1.98691 -3.00083 0
M  V30 7795 C 750.229 1.22881 -4.30818 0
M  V30 7796 C 751.973 2.72446 -3.25536 0
M  V30 7797 C 749.88 2.11568 -5.52262 0
M  V30 7798 H 748.81 0.410588 -0.632403 0
M  V30 7799 H 751.461 0.349886 -1.80133 0
M  V30 7800 H 749.843 2.76478 -2.83506 0
M  V30 7801 H 751.017 0.500582 -4.58073 0
M  V30 7802 H 749.332 0.60928 -4.11918 0
M  V30 7803 H 751.929 3.39055 -4.13456 0
M  V30 7804 H 752.272 3.38588 -2.42206 0
M  V30 7805 H 752.805 2.01735 -3.42852 0
M  V30 7806 H 749.544 1.4998 -6.38111 0
M  V30 7807 H 749.064 2.82201 -5.29266 0
M  V30 7808 H 750.743 2.70802 -5.87601 0
M  V30 7809 N 750.875 1.45233 0.611969 0
M  V30 7810 C 752.291 1.29542 0.932251 0
M  V30 7811 C 752.491 0.24523 2.00002 0
M  V30 7812 O 751.547 -0.362333 2.49887 0
M  V30 7813 C 752.86 2.67301 1.37733 0
M  V30 7814 C 754.408 2.75163 1.49178 0
M  V30 7815 C 754.883 4.13437 1.97064 0
M  V30 7816 N 756.374 4.15709 2.04304 0
M  V30 7817 C 757.109 5.19566 2.42568 0
M  V30 7818 N 756.605 6.33771 2.79832 0
M  V30 7819 N 758.398 5.06923 2.42869 0
M  V30 7820 H 750.549 2.12192 -0.0938679 0
M  V30 7821 H 752.812 0.947775 0.0206569 0
M  V30 7822 H 752.518 3.45318 0.666951 0
M  V30 7823 H 752.392 2.95472 2.3447 0
M  V30 7824 H 754.779 1.97453 2.19309 0
M  V30 7825 H 754.86 2.50712 0.507674 0
M  V30 7826 H 754.504 4.91631 1.27521 0
M  V30 7827 H 754.434 4.35277 2.9638 0
M  V30 7828 H 756.925 3.33293 1.78113 0
M  V30 7829 H 757.238 7.08815 3.07898 0
M  V30 7830 H 755.583 6.37179 2.77538 0
M  V30 7831 H 758.774 4.1675 2.1316 0
M  V30 7832 H 758.947 5.87981 2.72364 0
M  V30 7833 N 752.353 -0.854086 1.3245 0
M  V30 7834 C 753.63 -1.59188 1.1366 0
M  V30 7835 C 754.01 -2.08917 -0.302807 0
M  V30 7836 O 753.358 -1.8795 -1.29951 0
M  V30 7837 C 753.568 -2.73757 2.16467 0
M  V30 7838 C 754.916 -3.43323 2.49829 0
M  V30 7839 O 755.94 -2.83983 2.15017 0
M  V30 7840 O 754.799 -4.50409 3.09506 0
M  V30 7841 H 751.893 -0.701092 0.438633 0
M  V30 7842 H 754.439 -0.898165 1.43983 0
M  V30 7843 H 753.211 -2.3454 3.1322 0
M  V30 7844 H 752.834 -3.50804 1.87142 0
M  V30 7845 N 753.831 -1.1567 -1.07043 0
M  V30 7846 C 755.056 -0.957946 -1.83952 0
M  V30 7847 C 755.481 0.488807 -1.81638 0
M  V30 7848 O 754.839 1.34869 -1.21162 0
M  V30 7849 C 754.887 -1.48064 -3.288 0
M  V30 7850 O 753.991 -0.681921 -4.06723 0
M  V30 7851 H 753.332 -0.341453 -0.569479 0
M  V30 7852 H 755.862 -1.53728 -1.35015 0
M  V30 7853 H 755.872 -1.49484 -3.7963 0
M  V30 7854 H 754.547 -2.53388 -3.29799 0
M  V30 7855 H 753.124 -0.737612 -3.65532 0
M  V30 7856 N 755.309 1.25446 -0.953992 0
M  V30 7857 C 756.539 1.96929 -0.624688 0
M  V30 7858 C 756.947 1.71112 0.807292 0
M  V30 7859 O 756.29 0.983512 1.55154 0
M  V30 7860 C 756.352 3.50425 -0.802676 0
M  V30 7861 C 756.016 3.99916 -2.21169 0
M  V30 7862 C 757.013 4.10662 -3.18831 0
M  V30 7863 C 754.698 4.33598 -2.53571 0
M  V30 7864 C 756.692 4.54401 -4.46988 0
M  V30 7865 C 754.379 4.77024 -3.81958 0
M  V30 7866 C 755.377 4.87388 -4.78478 0
M  V30 7867 O 755.065 5.29851 -6.04577 0
M  V30 7868 H 754.797 0.634511 -0.233179 0
M  V30 7869 H 757.351 1.60591 -1.28061 0
M  V30 7870 H 755.581 3.86596 -0.0896044 0
M  V30 7871 H 757.27 4.03117 -0.47452 0
M  V30 7872 H 758.036 3.84872 -2.95124 0
M  V30 7873 H 753.915 4.24757 -1.79171 0
M  V30 7874 H 757.459 4.62406 -5.22328 0
M  V30 7875 H 753.356 5.02258 -4.05471 0
M  V30 7876 H 754.124 5.48039 -6.07944 0
M  V30 7877 N 756.787 0.722489 1.40064 0
M  V30 7878 C 757.697 0.0755984 2.34478 0
M  V30 7879 C 758.713 -0.736046 1.57665 0
M  V30 7880 O 759.889 -0.667407 1.9002 0
M  V30 7881 C 756.954 -0.830075 3.36616 0
M  V30 7882 C 756.015 -0.00759884 4.29299 0
M  V30 7883 C 755.248 -0.870139 5.26559 0
M  V30 7884 O 755.471 -2.10921 5.2997 0
M  V30 7885 O 754.405 -0.305454 6.01124 0
M  V30 7886 H 758.231 0.854545 2.9143 0
M  V30 7887 H 755.816 0.483032 1.41376 0
M  V30 7888 H 757.698 -1.34864 3.99236 0
M  V30 7889 H 756.373 -1.58805 2.82069 0
M  V30 7890 H 755.28 0.556199 3.69942 0
M  V30 7891 H 756.613 0.712312 4.87018 0
M  V30 7892 N 758.265 -1.50454 0.469181 0
M  V30 7893 C 759.195 -2.31353 -0.31592 0
M  V30 7894 C 760.176 -1.38172 -0.992094 0
M  V30 7895 O 761.361 -1.67093 -0.989633 0
M  V30 7896 C 758.491 -3.1786 -1.39937 0
M  V30 7897 C 757.445 -4.19578 -0.844909 0
M  V30 7898 C 756.771 -4.9481 -2.0265 0
M  V30 7899 C 758.071 -5.22106 0.142499 0
M  V30 7900 H 759.765 -2.97237 0.359269 0
M  V30 7901 H 757.311 -1.42942 0.174224 0
M  V30 7902 H 759.264 -3.7325 -1.95607 0
M  V30 7903 H 757.988 -2.49858 -2.1033 0
M  V30 7904 H 756.647 -3.65285 -0.310189 0
M  V30 7905 H 756.295 -4.23282 -2.71737 0
M  V30 7906 H 755.995 -5.63613 -1.66174 0
M  V30 7907 H 757.519 -5.53035 -2.58815 0
M  V30 7908 H 758.933 -5.72378 -0.324966 0
M  V30 7909 H 757.33 -5.98618 0.421441 0
M  V30 7910 H 758.4 -4.7297 1.06901 0
M  V30 7911 N 759.743 -0.201713 -1.56304 0
M  V30 7912 C 760.989 0.435952 -1.98059 0
M  V30 7913 C 761.322 1.60811 -1.08873 0
M  V30 7914 O 760.597 1.9398 -0.142128 0
M  V30 7915 C 760.88 0.889706 -3.48936 0
M  V30 7916 C 760.733 -0.284725 -4.48898 0
M  V30 7917 C 762.052 1.7529 -4.03685 0
M  V30 7918 H 759.171 0.15699 -0.720085 0
M  V30 7919 H 761.813 -0.293965 -1.87712 0
M  V30 7920 H 759.963 1.51166 -3.57884 0
M  V30 7921 H 761.635 -0.922531 -4.51981 0
M  V30 7922 H 759.878 -0.935427 -4.23594 0
M  V30 7923 H 760.549 0.0753865 -5.51949 0
M  V30 7924 H 763.025 1.2283 -3.97558 0
M  V30 7925 H 761.901 2.03933 -5.0961 0
M  V30 7926 H 762.162 2.70939 -3.49348 0
M  V30 7927 N 761.222 1.57436 0.0718424 0
M  V30 7928 C 762.17 2.04725 1.10411 0
M  V30 7929 C 763.164 0.952579 1.4008 0
M  V30 7930 O 764.37 1.13769 1.39487 0
M  V30 7931 H 760.745 0.652749 0.373393 0
M  V30 7932 H 762.716 2.90569 0.679126 0
M  V30 7933 C 761.465 2.5068 2.40946 0
M  V30 7934 H 760.788 3.34505 2.18967 0
M  V30 7935 H 762.228 2.87521 3.11621 0
M  V30 7936 C 760.687 1.38971 3.06902 0
M  V30 7937 O 761.217 0.731786 3.94978 0
M  V30 7938 N 759.423 1.13485 2.67525 0
M  V30 7939 H 758.97 1.67168 1.95991 0
M  V30 7940 H 758.928 0.389467 3.11978 0
M  V30 7941 N 762.7 -0.34323 1.53817 0
M  V30 7942 C 763.65 -1.42217 1.78208 0
M  V30 7943 C 764.634 -1.4774 0.637304 0
M  V30 7944 O 765.826 -1.52605 0.896705 0
M  V30 7945 C 762.955 -2.79354 1.9954 0
M  V30 7946 C 762.041 -2.78222 3.20084 0
M  V30 7947 N 762.432 -2.46719 4.41547 0
M  V30 7948 C 760.73 -3.09368 3.21259 0
M  V30 7949 C 761.431 -2.53828 5.23399 0
M  V30 7950 N 760.407 -2.89464 4.60121 0
M  V30 7951 H 764.209 -1.16759 2.69712 0
M  V30 7952 H 761.723 -0.551592 1.52746 0
M  V30 7953 H 763.72 -3.57095 2.15148 0
M  V30 7954 H 762.38 -3.05759 1.09278 0
M  V30 7955 H 763.391 -2.19912 4.68891 0
M  V30 7956 H 760.068 -3.40942 2.40966 0
M  V30 7957 H 761.458 -2.32629 6.30344 0
M  V30 7958 N 764.178 -1.45556 -0.604258 0
M  V30 7959 C 765.141 -1.54091 -1.69672 0
M  V30 7960 C 766.141 -0.420076 -1.55216 0
M  V30 7961 O 767.331 -0.683671 -1.60224 0
M  V30 7962 C 764.463 -1.44063 -3.08964 0
M  V30 7963 H 765.656 -2.51431 -1.6347 0
M  V30 7964 H 763.209 -1.33046 -0.820273 0
M  V30 7965 H 763.944 -0.479201 -3.2074 0
M  V30 7966 H 763.729 -2.25362 -3.20865 0
M  V30 7967 H 765.219 -1.53075 -3.88533 0
M  V30 7968 N 765.656 0.84705 -1.32902 0
M  V30 7969 C 766.603 1.95624 -1.22473 0
M  V30 7970 C 767.573 1.65767 -0.105178 0
M  V30 7971 O 768.758 1.88704 -0.282042 0
M  V30 7972 C 765.898 3.31434 -0.961542 0
M  V30 7973 C 765.011 3.73741 -2.1666 0
M  V30 7974 C 764.146 4.98379 -1.83825 0
M  V30 7975 C 763.185 5.33199 -3.00609 0
M  V30 7976 N 762.322 6.49014 -2.67816 0
M  V30 7977 H 767.162 2.03875 -2.17345 0
M  V30 7978 H 764.699 0.997764 -1.08088 0
M  V30 7979 H 766.657 4.09663 -0.789411 0
M  V30 7980 H 765.287 3.22762 -0.0495938 0
M  V30 7981 H 764.339 2.91102 -2.44875 0
M  V30 7982 H 765.651 3.95462 -3.03993 0
M  V30 7983 H 764.805 5.84336 -1.63208 0
M  V30 7984 H 763.544 4.78611 -0.937172 0
M  V30 7985 H 762.549 4.4575 -3.21849 0
M  V30 7986 H 763.774 5.5492 -3.9146 0
M  V30 7987 H 761.72 6.30748 -1.80258 0
M  V30 7988 H 761.637 6.7079 -3.48679 0
M  V30 7989 H 762.905 7.38103 -2.50647 0
M  V30 7990 N 767.134 1.16236 1.06428 0
M  V30 7991 C 768.382 0.941171 1.78847 0
M  V30 7992 C 768.703 -0.53248 1.87589 0
M  V30 7993 O 767.973 -1.38686 1.38358 0
M  V30 7994 H 766.553 0.345228 0.66244 0
M  V30 7995 H 769.215 1.46479 1.28569 0
M  V30 7996 H 768.311 1.35871 2.80972 0
M  V30 7997 N 768.612 -1.24939 0.960631 0
M  V30 7998 C 769.542 -2.28 0.503815 0
M  V30 7999 C 770.523 -1.63959 -0.452928 0
M  V30 8000 O 771.708 -1.91009 -0.350585 0
M  V30 8001 C 768.838 -3.46643 -0.213535 0
M  V30 8002 C 767.792 -4.22903 0.658535 0
M  V30 8003 C 767.118 -5.34363 -0.189902 0
M  V30 8004 C 768.418 -4.84949 1.93963 0
M  V30 8005 H 770.112 -2.66462 1.36521 0
M  V30 8006 H 767.658 -1.28093 0.657897 0
M  V30 8007 H 769.611 -4.1787 -0.544286 0
M  V30 8008 H 768.335 -3.07187 -1.10923 0
M  V30 8009 H 766.994 -3.53467 0.972455 0
M  V30 8010 H 766.642 -4.91147 -1.08553 0
M  V30 8011 H 766.342 -5.86302 0.390331 0
M  V30 8012 H 767.866 -6.0842 -0.515484 0
M  V30 8013 H 769.28 -5.48288 1.67491 0
M  V30 8014 H 767.677 -5.47091 2.46601 0
M  V30 8015 H 768.747 -4.06799 2.639 0
M  V30 8016 N 770.09 -0.729906 -1.39679 0
M  V30 8017 C 771.501 -0.346241 -1.83461 0
M  V30 8018 C 771.852 1.1215 -1.60987 0
M  V30 8019 O 770.977 1.86456 -1.09832 0
M  V30 8020 C 771.572 -0.621656 -3.33048 0
M  V30 8021 C 770.131 -0.291543 -3.75269 0
M  V30 8022 C 769.278 -0.886844 -2.62736 0
M  V30 8023 H 772.229 -0.927949 -1.28743 0
M  V30 8024 H 772.25 0.108301 -3.80346 0
M  V30 8025 H 771.762 -1.68996 -3.49373 0
M  V30 8026 H 769.863 0.771133 -3.64533 0
M  V30 8027 H 769.976 -0.770544 -4.72863 0
M  V30 8028 H 768.34 -0.313839 -2.52759 0
M  V30 8029 H 769.123 -1.95971 -2.81869 0
M  V30 8030 N 771.568 1.50203 -0.477153 0
M  V30 8031 C 772.845 1.95115 0.137609 0
M  V30 8032 C 773.225 1.41778 1.56404 0
M  V30 8033 O 772.573 0.621333 2.1989 0
M  V30 8034 C 772.783 3.4892 0.0747168 0
M  V30 8035 C 774.131 4.238 0.260585 0
M  V30 8036 O 775.155 3.5588 0.151021 0
M  V30 8037 O 774.014 5.44366 0.482534 0
M  V30 8038 H 771.108 0.81987 0.108364 0
M  V30 8039 H 773.654 1.60946 -0.537989 0
M  V30 8040 H 772.426 3.80308 -0.920966 0
M  V30 8041 H 772.049 3.89642 0.791509 0
M  V30 8042 N 773.046 0.209999 1.56195 0
M  V30 8043 C 774.271 -0.433064 2.02828 0
M  V30 8044 C 774.696 -1.5337 1.08901 0
M  V30 8045 O 774.054 -1.81144 0.0751132 0
M  V30 8046 C 774.102 -0.952635 3.47789 0
M  V30 8047 O 773.206 -2.0647 3.56993 0
M  V30 8048 H 772.547 -0.0994594 0.656509 0
M  V30 8049 H 775.077 0.32525 2.01998 0
M  V30 8050 H 775.087 -1.26542 3.8788 0
M  V30 8051 H 773.762 -0.147007 4.1564 0
M  V30 8052 H 772.339 -1.75942 3.28784 0
M  V30 8053 N 774.524 -1.57472 -0.0634922 0
M  V30 8054 C 775.771 -1.87654 -0.761066 0
M  V30 8055 C 776.099 -0.802847 -1.77157 0
M  V30 8056 O 775.354 0.200244 -1.94673 0
M  V30 8057 C 775.653 -3.24521 -1.49736 0
M  V30 8058 C 775.319 -4.46532 -0.626065 0
M  V30 8059 C 773.981 -4.7965 -0.385978 0
M  V30 8060 C 776.333 -5.21195 -0.0224001 0
M  V30 8061 C 773.661 -5.84837 0.467118 0
M  V30 8062 C 776.013 -6.27286 0.818198 0
M  V30 8063 C 774.677 -6.58899 1.06808 0
M  V30 8064 H 773.947 -0.686675 -0.278494 0
M  V30 8065 H 776.594 -1.91488 -0.0216348 0
M  V30 8066 H 774.899 -3.16516 -2.30921 0
M  V30 8067 H 776.596 -3.45111 -2.04204 0
M  V30 8068 H 773.186 -4.20618 -0.823325 0
M  V30 8069 H 777.37 -4.95917 -0.194985 0
M  V30 8070 H 772.626 -6.07725 0.669375 0
M  V30 8071 H 776.8 -6.84298 1.29265 0
M  V30 8072 H 774.427 -7.40233 1.73088 0
M  V30 8073 N 776.003 0.335068 -1.53997 0
M  V30 8074 C 776.953 1.4127 -1.7896 0
M  V30 8075 C 777.937 1.474 -0.64513 0
M  V30 8076 O 779.129 1.52127 -0.904785 0
M  V30 8077 C 776.258 2.78292 -2.01018 0
M  V30 8078 C 775.344 2.7652 -3.21555 0
M  V30 8079 N 775.735 2.44374 -4.42849 0
M  V30 8080 C 774.033 3.0766 -3.22895 0
M  V30 8081 C 774.734 2.51049 -5.24737 0
M  V30 8082 N 773.71 2.8702 -4.6165 0
M  V30 8083 H 777.512 1.15327 -2.70327 0
M  V30 8084 H 775.026 0.543483 -1.53036 0
M  V30 8085 H 777.023 3.55949 -2.17039 0
M  V30 8086 H 775.683 3.05175 -1.10898 0
M  V30 8087 H 776.694 2.17422 -4.70051 0
M  V30 8088 H 773.371 3.3966 -2.42771 0
M  V30 8089 H 774.761 2.29283 -6.31569 0
M  V30 8090 N 777.481 1.45874 0.596531 0
M  V30 8091 C 778.428 1.55389 1.70655 0
M  V30 8092 C 779.398 0.399036 1.61236 0
M  V30 8093 O 780.583 0.61396 1.80652 0
M  V30 8094 C 777.723 1.53705 3.0898 0
M  V30 8095 C 776.836 2.79823 3.29125 0
M  V30 8096 C 775.971 2.69735 4.5762 0
M  V30 8097 C 775.01 3.90856 4.71061 0
M  V30 8098 N 774.147 3.79237 5.90867 0
M  V30 8099 H 778.987 2.50211 1.61859 0
M  V30 8100 H 776.524 1.24146 0.789069 0
M  V30 8101 H 778.482 1.50715 3.89026 0
M  V30 8102 H 777.112 0.624247 3.16706 0
M  V30 8103 H 776.164 2.92852 2.42779 0
M  V30 8104 H 777.476 3.69628 3.34927 0
M  V30 8105 H 776.63 2.64773 5.45875 0
M  V30 8106 H 775.369 1.77547 4.54234 0
M  V30 8107 H 774.374 3.96164 3.81227 0
M  V30 8108 H 775.599 4.84124 4.76236 0
M  V30 8109 H 773.545 2.89825 5.88504 0
M  V30 8110 H 773.462 4.62686 5.97877 0
M  V30 8111 H 774.73 3.78227 6.8159 0
M  V30 8112 N 778.959 -0.83999 1.33349 0
M  V30 8113 C 780.37 -1.41139 1.22216 0
M  V30 8114 C 780.721 -1.95551 -0.159398 0
M  V30 8115 O 779.846 -1.88721 -1.05893 0
M  V30 8116 C 780.441 -2.56564 2.21269 0
M  V30 8117 C 779 -3.09661 2.13979 0
M  V30 8118 C 778.147 -1.82457 2.08818 0
M  V30 8119 H 781.098 -0.645853 1.44964 0
M  V30 8120 H 781.119 -3.34163 1.81976 0
M  V30 8121 H 780.631 -2.16932 3.21811 0
M  V30 8122 H 778.732 -3.53841 1.16736 0
M  V30 8123 H 778.845 -3.6991 3.04472 0
M  V30 8124 H 777.209 -2.0266 1.54276 0
M  V30 8125 H 777.992 -1.45022 3.11165 0
M  V30 8126 N 780.437 -1.16799 -1.0581 0
M  V30 8127 C 781.4 -0.881396 -2.11575 0
M  V30 8128 C 782.4 0.12574 -1.60308 0
M  V30 8129 O 783.59 -0.105716 -1.73879 0
M  V30 8130 C 780.722 -0.319037 -3.39404 0
M  V30 8131 H 781.915 -1.81907 -2.38432 0
M  V30 8132 H 779.468 -0.977597 -1.21954 0
M  V30 8133 H 780.203 0.626082 -3.18199 0
M  V30 8134 H 779.988 -1.04481 -3.77923 0
M  V30 8135 H 781.478 -0.13663 -4.17376 0
M  V30 8136 N 781.915 1.24427 -0.967243 0
M  V30 8137 C 783.14 1.9708 -0.646069 0
M  V30 8138 C 783.565 1.71272 0.777665 0
M  V30 8139 O 782.923 0.976179 1.52776 0
M  V30 8140 C 782.971 3.48501 -0.926266 0
M  V30 8141 O 782.075 4.12398 -0.0114653 0
M  V30 8142 H 781.416 0.617423 -0.244304 0
M  V30 8143 H 783.946 1.58215 -1.29727 0
M  V30 8144 H 783.956 3.98885 -0.857619 0
M  V30 8145 H 782.631 3.66613 -1.96386 0
M  V30 8146 H 781.208 3.72661 -0.133396 0
M  V30 8147 N 783.393 0.737304 1.3929 0
M  V30 8148 C 784.67 0.212464 1.94443 0
M  V30 8149 C 785.05 -1.28621 1.67391 0
M  V30 8150 O 784.398 -2.0529 1.00342 0
M  V30 8151 C 784.608 0.548565 3.44662 0
M  V30 8152 C 785.956 0.499177 4.21656 0
M  V30 8153 O 786.98 0.485892 3.5287 0
M  V30 8154 O 785.839 0.495739 5.44247 0
M  V30 8155 H 782.933 0.0395457 0.826054 0
M  V30 8156 H 785.479 0.816319 1.48776 0
M  V30 8157 H 784.251 1.58426 3.57795 0
M  V30 8158 H 783.874 -0.0841399 3.97511 0
M  V30 8159 N 784.871 -1.49948 0.485112 0
M  V30 8160 C 786.282 -1.8667 0.0334041 0
M  V30 8161 C 786.633 -1.3988 -1.37579 0
M  V30 8162 O 785.758 -0.769788 -2.02245 0
M  V30 8163 C 786.353 -3.38757 0.0538426 0
M  V30 8164 C 784.912 -3.74839 -0.342453 0
M  V30 8165 C 784.059 -2.73894 0.433281 0
M  V30 8166 H 787.01 -1.42492 0.698699 0
M  V30 8167 H 787.031 -3.73132 -0.745146 0
M  V30 8168 H 786.543 -3.72782 1.07959 0
M  V30 8169 H 784.644 -3.46419 -1.37203 0
M  V30 8170 H 784.757 -4.79088 -0.0340503 0
M  V30 8171 H 783.121 -2.54441 -0.114849 0
M  V30 8172 H 783.904 -3.10763 1.45881 0
M  V30 8173 N 786.349 -0.21828 -1.56081 0
M  V30 8174 C 787.597 0.413488 -1.97825 0
M  V30 8175 C 787.918 1.60527 -1.10707 0
M  V30 8176 O 787.188 1.9504 -0.183378 0
M  V30 8177 H 785.768 0.155757 -0.730581 0
M  V30 8178 H 788.43 -0.310413 -1.92412 0
M  V30 8179 H 787.526 0.742024 -3.03151 0
M  V30 8180 N 787.827 1.57504 0.0551401 0
M  V30 8181 C 789.052 1.92682 0.767352 0
M  V30 8182 C 789.477 0.81614 1.69472 0
M  V30 8183 O 788.835 -0.229989 1.79835 0
M  V30 8184 C 788.883 3.26866 1.52286 0
M  V30 8185 O 787.987 3.17274 2.63459 0
M  V30 8186 H 787.328 0.630502 0.208238 0
M  V30 8187 H 789.858 2.04592 0.0184026 0
M  V30 8188 H 789.868 3.61138 1.8985 0
M  V30 8189 H 788.543 4.07276 0.842541 0
M  V30 8190 H 787.12 2.94589 2.2863 0
M  V30 8191 O 789.344 -0.198462 1.60276 0
M  V30 8192 H 790.035 -0.837638 1.74652 0
M  V30 END ATOM
M  V30 BEGIN BOND
M  V30 END BOND
M  V30 END CTAB
M  END
$$$$
