drugbank_target|P11413 Glucose-6-phosphate 1-dehydrogenase (DB03085; DB03461; DB05107; DB11638)
 OpenBabel12092119473D

  0  0  0     0  0            999 V3000
M  V30 BEGIN CTAB
M  V30 COUNTS 8295 8394 0 0 0
M  V30 BEGIN ATOM
M  V30 1 H -0.908 1.98254 -0.117106 0
M  V30 2 N 0 1.576 0 0
M  V30 3 C 0.933 2.03868 1.02534 0
M  V30 4 C 1.911 0.928543 1.3348 0
M  V30 5 O 3.095 1.19667 1.45644 0
M  V30 6 C 0.222 2.43627 2.35294 0
M  V30 7 C -0.732 3.65373 2.2001 0
M  V30 8 S 0.101 5.13292 1.52614 0
M  V30 9 C 1.257 5.56322 2.86805 0
M  V30 10 H 1.49 2.90518 0.631377 0
M  V30 11 H -0.977 1.52953 0.210867 0
M  V30 12 H 0.981 2.67203 3.11629 0
M  V30 13 H -0.358 1.57376 2.7183 0
M  V30 14 H -1.165 3.90944 3.18086 0
M  V30 15 H -1.563 3.418 1.51819 0
M  V30 16 H 0.729 5.58782 3.83104 0
M  V30 17 H 1.672 6.56266 2.65933 0
M  V30 18 H 2.08 4.83886 2.90714 0
M  V30 19 N 1.4781 -0.272755 1.55222 0
M  V30 20 C 2.4411 -1.32041 1.87344 0
M  V30 21 C 3.4411 -1.42342 0.74803 0
M  V30 22 O 4.6311 -1.41488 1.0162 0
M  V30 23 C 1.7631 -2.70173 2.07893 0
M  V30 24 H 2.9561 -1.04789 2.80997 0
M  V30 25 H 0.5091 -0.51083 1.47717 0
M  V30 26 H 1.2441 -3.02605 1.16622 0
M  V30 27 H 1.0291 -2.64082 2.89833 0
M  V30 28 H 2.5191 -3.45869 2.34017 0
M  V30 29 N 2.9562 -1.48159 -0.537278 0
M  V30 30 C 3.8662 -1.64807 -1.6696 0
M  V30 31 C 4.8822 -0.530651 -1.65711 0
M  V30 32 O 6.0582 -0.800784 -1.84796 0
M  V30 33 C 3.1232 -1.67708 -3.03438 0
M  V30 34 C 2.1842 -2.91025 -3.156 0
M  V30 35 C 1.4172 -2.93778 -4.45567 0
M  V30 36 O 1.6402 -2.05153 -5.3223 0
M  V30 37 O 0.5742 -3.85868 -4.61941 0
M  V30 38 H 4.4002 -2.6066 -1.55853 0
M  V30 39 H 1.9852 -1.31475 -0.709549 0
M  V30 40 H 3.8672 -1.7218 -3.84619 0
M  V30 41 H 2.5422 -0.750278 -3.14885 0
M  V30 42 H 1.4492 -2.92089 -2.33741 0
M  V30 43 H 2.7822 -3.83065 -3.09066 0
M  V30 44 N 4.4343 0.785586 -1.36625 0
M  V30 45 C 5.3663 1.90711 -1.2713 0
M  V30 46 C 6.3793 1.61688 -0.189986 0
M  V30 47 O 7.5683 1.72864 -0.445014 0
M  V30 48 C 4.6683 3.25611 -0.939713 0
M  V30 49 C 3.8413 3.82385 -2.12369 0
M  V30 50 C 2.9003 4.95732 -1.76456 0
M  V30 51 O 1.9263 5.12047 -2.48589 0
M  V30 52 N 3.1283 5.76258 -0.700492 0
M  V30 53 H 5.8933 1.99376 -2.23762 0
M  V30 54 H 3.4543 0.964041 -1.30069 0
M  V30 55 H 5.4463 3.98937 -0.680554 0
M  V30 56 H 4.0163 3.12538 -0.0624074 0
M  V30 57 H 3.2363 3.01001 -2.54543 0
M  V30 58 H 4.5243 4.17047 -2.9146 0
M  V30 59 H 3.9223 5.65609 -0.101624 0
M  V30 60 H 2.4793 6.4987 -0.501165 0
M  V30 61 N 5.9124 1.20967 1.01018 0
M  V30 62 C 7.1584 1.02526 1.74975 0
M  V30 63 C 7.4914 -0.4408 1.89131 0
M  V30 64 O 6.7664 -1.32718 1.42184 0
M  V30 65 C 7.0494 1.71699 3.1653 0
M  V30 66 C 6.9024 3.25791 3.10129 0
M  V30 67 C 8.2214 1.45531 4.15342 0
M  V30 68 H 5.3404 0.373863 0.635134 0
M  V30 69 H 7.9824 1.49071 1.17805 0
M  V30 70 H 6.1324 1.32128 3.65341 0
M  V30 71 H 7.8044 3.74697 2.69072 0
M  V30 72 H 6.0474 3.56363 2.47362 0
M  V30 73 H 6.7184 3.69353 4.10222 0
M  V30 74 H 9.1944 1.79872 3.75213 0
M  V30 75 H 8.0704 1.96453 5.1254 0
M  V30 76 H 8.3314 0.384237 4.40427 0
M  V30 77 N 7.3905 -1.2043 1.01659 0
M  V30 78 C 8.3535 -2.21433 0.591616 0
M  V30 79 C 9.3535 -1.57203 -0.338226 0
M  V30 80 O 10.5435 -1.73737 -0.126918 0
M  V30 81 C 7.6755 -3.40628 -0.136058 0
M  V30 82 H 8.8685 -2.60545 1.48514 0
M  V30 83 H 6.4215 -1.33893 0.806379 0
M  V30 84 H 7.1565 -3.07019 -1.04449 0
M  V30 85 H 6.9415 -3.88475 0.531917 0
M  V30 86 H 8.4315 -4.15475 -0.420735 0
M  V30 87 N 8.8686 -0.792821 -1.36206 0
M  V30 88 C 9.7986 -0.207853 -2.32573 0
M  V30 89 C 10.7796 0.659055 -1.56813 0
M  V30 90 O 11.9646 0.592176 -1.84951 0
M  V30 91 C 9.0946 0.655449 -3.41059 0
M  V30 92 C 8.0486 -0.111842 -4.27854 0
M  V30 93 C 7.3746 0.872274 -5.27537 0
M  V30 94 C 8.6746 -1.30299 -5.05786 0
M  V30 95 H 10.3686 -1.01294 -2.81744 0
M  V30 96 H 7.9146 -0.48854 -1.3546 0
M  V30 97 H 9.8676 1.07464 -4.07467 0
M  V30 98 H 8.5916 1.49328 -2.90463 0
M  V30 99 H 7.2506 -0.512053 -3.63006 0
M  V30 100 H 6.8986 1.70523 -4.73214 0
M  V30 101 H 6.5986 0.363291 -5.86476 0
M  V30 102 H 8.1226 1.28996 -5.96818 0
M  V30 103 H 9.5366 -0.959379 -5.65216 0
M  V30 104 H 7.9336 -1.7455 -5.74154 0
M  V30 105 H 9.0036 -2.09663 -4.37229 0
M  V30 106 N 10.3467 1.47872 -0.545128 0
M  V30 107 C 11.5717 2.07391 -0.0190611 0
M  V30 108 C 11.9967 1.39688 1.25971 0
M  V30 109 O 11.3547 0.467816 1.7516 0
M  V30 110 C 11.4027 3.60188 0.172335 0
M  V30 111 O 10.5067 3.9339 1.23766 0
M  V30 112 H 9.8477 0.662411 -0.0459059 0
M  V30 113 H 12.3777 1.90066 -0.757365 0
M  V30 114 H 12.3877 4.06129 0.390305 0
M  V30 115 H 11.0627 4.08865 -0.761725 0
M  V30 116 H 9.6397 3.5921 1.00114 0
M  V30 117 N 11.8248 0.280983 1.55075 0
M  V30 118 C 13.2408 -0.0729964 1.59433 0
M  V30 119 C 13.4408 -1.5411 1.29817 0
M  V30 120 O 12.4968 -2.29086 1.06187 0
M  V30 121 C 13.8098 0.306921 2.9913 0
M  V30 122 C 15.3578 0.254023 3.11968 0
M  V30 123 C 15.8328 0.608467 4.5394 0
M  V30 124 N 17.3238 0.560241 4.59799 0
M  V30 125 C 18.0588 0.80722 5.6769 0
M  V30 126 N 17.5548 1.11912 6.83701 0
M  V30 127 N 19.3478 0.735623 5.57266 0
M  V30 128 H 11.4988 1.238 1.7259 0
M  V30 129 H 13.7618 0.500547 0.805082 0
M  V30 130 H 13.4678 1.32816 3.25657 0
M  V30 131 H 13.3418 -0.349363 3.75579 0
M  V30 132 H 15.7288 -0.75794 2.852 0
M  V30 133 H 15.8098 0.944649 2.37718 0
M  V30 134 H 15.4538 1.61814 4.81434 0
M  V30 135 H 15.3838 -0.104013 5.26497 0
M  V30 136 H 17.8748 0.329288 3.76463 0
M  V30 137 H 18.1878 1.29409 7.61888 0
M  V30 138 H 16.5328 1.15695 6.85303 0
M  V30 139 H 19.7238 0.491752 4.6551 0
M  V30 140 H 19.8968 0.931482 6.4127 0
M  V30 141 N 13.3029 -1.57598 0.00835791 0
M  V30 142 C 14.5309 -1.95214 -0.68549 0
M  V30 143 C 14.9459 -0.883706 -1.66841 0
M  V30 144 O 14.3029 0.136565 -1.81988 0
M  V30 145 C 14.3539 -3.32865 -1.41007 0
M  V30 146 O 14.0749 -4.35609 -0.466552 0
M  V30 147 C 15.5759 -3.84991 -2.19765 0
M  V30 148 H 12.7959 -0.643422 -0.190392 0
M  V30 149 H 15.3399 -2.04406 0.0619607 0
M  V30 150 H 13.4949 -3.24956 -2.10908 0
M  V30 151 H 13.9089 -5.15288 -0.978699 0
M  V30 152 H 15.3829 -4.8371 -2.65948 0
M  V30 153 H 15.8599 -3.18137 -3.02796 0
M  V30 154 H 16.4659 -3.96103 -1.54864 0
M  V30 155 N 14.781 0.264519 -1.55364 0
M  V30 156 C 15.713 1.34965 -1.85248 0
M  V30 157 C 16.726 1.45136 -0.737525 0
M  V30 158 O 17.915 1.46801 -1.01547 0
M  V30 159 C 15.015 2.73008 -2.00797 0
M  V30 160 C 14.188 2.85324 -3.31525 0
M  V30 161 C 13.247 4.04097 -3.37034 0
M  V30 162 O 12.273 3.94455 -4.10358 0
M  V30 163 N 13.475 5.16458 -2.65049 0
M  V30 164 H 16.24 1.09672 -2.78913 0
M  V30 165 H 13.801 0.454635 -1.55386 0
M  V30 166 H 15.793 3.50772 -2.01844 0
M  V30 167 H 14.363 2.91087 -1.1396 0
M  V30 168 H 13.583 1.94377 -3.42945 0
M  V30 169 H 14.871 2.9049 -4.17724 0
M  V30 170 H 14.269 5.27181 -2.05175 0
M  V30 171 H 12.826 5.92422 -2.71809 0
M  V30 172 N 16.2591 1.48442 0.529413 0
M  V30 173 C 17.5051 1.5672 1.28711 0
M  V30 174 C 17.8381 0.2406 1.92704 0
M  V30 175 O 17.1131 -0.753454 1.79313 0
M  V30 176 C 17.3961 2.70587 2.37603 0
M  V30 177 C 17.2491 4.12953 1.78297 0
M  V30 178 C 18.5681 2.80212 3.39366 0
M  V30 179 H 15.6871 0.570474 0.466613 0
M  V30 180 H 18.3291 1.80617 0.589706 0
M  V30 181 H 16.4791 2.50342 2.97088 0
M  V30 182 H 18.1511 4.44639 1.22858 0
M  V30 183 H 16.3941 4.19927 1.0883 0
M  V30 184 H 17.0651 4.88448 2.57144 0
M  V30 185 H 19.5411 2.98553 2.89836 0
M  V30 186 H 18.4171 3.61611 4.12951 0
M  V30 187 H 18.6781 1.88393 3.99951 0
M  V30 188 N 17.7372 -0.778329 1.37039 0
M  V30 189 C 18.9772 -1.54973 1.33276 0
M  V30 190 C 19.3412 -1.91816 -0.0839376 0
M  V30 191 O 20.5422 -2.6767 -0.246228 0
M  V30 192 C 18.8132 -2.78517 2.23971 0
M  V30 193 S 20.3722 -3.6865 2.37997 0
M  V30 194 H 17.1902 -0.530639 0.473226 0
M  V30 195 H 19.7922 -0.915806 1.72723 0
M  V30 196 H 18.4962 -2.4952 3.25835 0
M  V30 197 H 18.0272 -3.46875 1.85584 0
M  V30 198 H 20.0422 -4.70182 1.58567 0
M  V30 199 N 19.2153 -1.21501 -1.00376 0
M  V30 200 C 20.4633 -1.03095 -1.73827 0
M  V30 201 C 20.7843 0.436341 -1.90055 0
M  V30 202 O 20.0543 1.31466 -1.45236 0
M  V30 203 H 18.6343 -0.378487 -0.644016 0
M  V30 204 H 21.2963 -1.52831 -1.20949 0
M  V30 205 H 20.3923 -1.49991 -2.73695 0
M  V30 206 N 20.6934 1.19889 -1.02296 0
M  V30 207 C 21.9424 1.88743 -0.711257 0
M  V30 208 C 22.2554 1.80112 0.762817 0
M  V30 209 O 23.4614 2.44161 1.18733 0
M  V30 210 C 21.9174 3.38525 -1.22185 0
M  V30 211 C 21.5254 3.55727 -2.72328 0
M  V30 212 C 23.2694 4.12893 -0.985864 0
M  V30 213 C 21.1764 4.99369 -3.16835 0
M  V30 214 H 20.1064 0.706885 -0.262353 0
M  V30 215 H 22.7574 1.35586 -1.23648 0
M  V30 216 H 21.1394 3.91044 -0.624571 0
M  V30 217 H 22.3134 3.13564 -3.3766 0
M  V30 218 H 20.6284 2.94739 -2.9414 0
M  V30 219 H 23.2254 5.18813 -1.29374 0
M  V30 220 H 23.5684 4.16228 0.0775055 0
M  V30 221 H 24.1014 3.66494 -1.54684 0
M  V30 222 H 20.8404 5.01193 -4.22476 0
M  V30 223 H 20.3604 5.42317 -2.56228 0
M  V30 224 H 22.0394 5.67988 -3.09837 0
M  V30 225 N 22.1715 0.800033 1.35784 0
M  V30 226 C 23.1015 0.220184 2.3246 0
M  V30 227 C 24.0825 -0.65073 1.57161 0
M  V30 228 O 25.2675 -0.582359 1.85263 0
M  V30 229 C 22.3975 -0.637353 3.41402 0
M  V30 230 C 21.3515 0.134531 4.27789 0
M  V30 231 C 20.6775 -0.844285 5.27992 0
M  V30 232 C 21.9775 1.32979 5.05088 0
M  V30 233 H 23.6715 1.02787 2.81203 0
M  V30 234 H 21.2175 0.495717 1.35199 0
M  V30 235 H 23.1705 -1.05302 4.08031 0
M  V30 236 H 21.8945 -1.47785 2.91251 0
M  V30 237 H 20.5535 0.531296 3.6273 0
M  V30 238 H 20.2015 -1.68011 4.74111 0
M  V30 239 H 19.9015 -0.332184 5.8666 0
M  V30 240 H 21.4255 -1.2583 5.97494 0
M  V30 241 H 22.8395 0.98934 5.64699 0
M  V30 242 H 21.2365 1.77593 5.7322 0
M  V30 243 H 22.3065 2.11978 4.36111 0
M  V30 244 N 23.6496 -1.47581 0.552962 0
M  V30 245 C 25.0656 -1.5818 0.212424 0
M  V30 246 C 25.2656 -1.55213 -1.28496 0
M  V30 247 O 24.3216 -1.45329 -2.06484 0
M  V30 248 C 25.6346 -2.88865 0.835318 0
M  V30 249 C 27.1826 -3.0244 0.806156 0
M  V30 250 C 27.6576 -4.35819 1.40804 0
M  V30 251 N 29.1486 -4.42444 1.37103 0
M  V30 252 C 29.8836 -5.44202 1.80641 0
M  V30 253 N 29.3796 -6.52795 2.32015 0
M  V30 254 N 31.1726 -5.35222 1.71738 0
M  V30 255 H 23.3236 -1.47753 1.52587 0
M  V30 256 H 25.5866 -0.702941 0.636064 0
M  V30 257 H 25.2926 -2.9676 1.88749 0
M  V30 258 H 25.1666 -3.7579 0.325848 0
M  V30 259 H 27.5536 -2.94144 -0.237317 0
M  V30 260 H 27.6346 -2.17068 1.35334 0
M  V30 261 H 27.2786 -4.44871 2.45056 0
M  V30 262 H 27.2086 -5.19916 0.836338 0
M  V30 263 H 29.6996 -3.6456 0.995202 0
M  V30 264 H 30.0126 -7.26609 2.63171 0
M  V30 265 H 28.3576 -6.53696 2.36023 0
M  V30 266 H 31.5486 -4.49284 1.31382 0
M  V30 267 H 31.7216 -6.14389 2.05987 0
M  V30 268 N 25.1277 -0.289203 -1.54924 0
M  V30 269 C 26.0377 0.601863 -2.26748 0
M  V30 270 C 27.0537 1.15834 -1.2984 0
M  V30 271 O 28.2297 1.18564 -1.62802 0
M  V30 272 C 25.2947 1.76299 -2.98529 0
M  V30 273 C 24.3557 1.24178 -4.10948 0
M  V30 274 C 23.5887 2.34757 -4.79296 0
M  V30 275 O 23.8117 3.54411 -4.46933 0
M  V30 276 O 22.7457 2.02115 -5.66951 0
M  V30 277 H 26.5717 0.0195879 -3.03694 0
M  V30 278 H 24.1567 -0.0560868 -1.49295 0
M  V30 279 H 26.0387 2.43973 -3.43592 0
M  V30 280 H 24.7137 2.33209 -2.24488 0
M  V30 281 H 23.6207 0.531104 -3.70311 0
M  V30 282 H 24.9537 0.718252 -4.86931 0
M  V30 283 N 26.6058 1.57591 -0.0167156 0
M  V30 284 C 27.5158 2.1291 0.98521 0
M  V30 285 C 28.5318 1.07834 1.36557 0
M  V30 286 O 29.7078 1.39826 1.44951 0
M  V30 287 C 26.7728 2.63512 2.25305 0
M  V30 288 C 25.8338 3.83256 1.93426 0
M  V30 289 C 25.0668 4.31435 3.14165 0
M  V30 290 O 25.2898 3.78851 4.26413 0
M  V30 291 O 24.2238 5.23416 2.97186 0
M  V30 292 H 28.0498 2.98772 0.544888 0
M  V30 293 H 25.6348 1.48012 0.203141 0
M  V30 294 H 27.5168 2.96183 2.99756 0
M  V30 295 H 26.1918 1.8074 2.68542 0
M  V30 296 H 25.0988 3.55531 1.16398 0
M  V30 297 H 26.4318 4.67153 1.55013 0
M  V30 298 N 28.0839 -0.256276 1.55502 0
M  V30 299 C 29.0139 -1.32102 1.92539 0
M  V30 300 C 29.9949 -1.50684 0.789194 0
M  V30 301 O 31.1799 -1.63449 1.04872 0
M  V30 302 C 28.3099 -2.67752 2.21192 0
M  V30 303 C 27.2639 -2.63878 3.36975 0
M  V30 304 C 26.5899 -4.03236 3.51147 0
M  V30 305 C 27.8899 -2.21682 4.72921 0
M  V30 306 H 29.5839 -1.01351 2.81724 0
M  V30 307 H 27.1299 -0.486105 1.35547 0
M  V30 308 H 29.0829 -3.42365 2.45691 0
M  V30 309 H 27.8069 -3.0012 1.28824 0
M  V30 310 H 26.4659 -1.91722 3.12471 0
M  V30 311 H 26.1139 -4.32854 2.56216 0
M  V30 312 H 25.8139 -4.01535 4.29003 0
M  V30 313 H 27.3379 -4.79563 3.77957 0
M  V30 314 H 28.7519 -2.86023 4.96854 0
M  V30 315 H 27.1489 -2.3111 5.53812 0
M  V30 316 H 28.2189 -1.16833 4.70615 0
M  V30 317 N 29.562 -1.4872 -0.521534 0
M  V30 318 C 30.809 -1.57168 -1.27689 0
M  V30 319 C 31.137 -0.249275 -1.92896 0
M  V30 320 O 30.392 0.761162 -1.80291 0
M  V30 321 C 30.691 -2.66497 -2.38148 0
M  V30 322 C 30.357 -4.08664 -1.90538 0
M  V30 323 C 29.019 -4.47357 -1.77271 0
M  V30 324 C 31.371 -4.97724 -1.54663 0
M  V30 325 C 28.699 -5.72905 -1.26478 0
M  V30 326 C 31.051 -6.2377 -1.05329 0
M  V30 327 C 29.715 -6.61311 -0.906861 0
M  V30 328 H 28.985 -0.575117 -0.467249 0
M  V30 329 H 31.632 -1.82472 -0.581051 0
M  V30 330 H 29.937 -2.35085 -3.13437 0
M  V30 331 H 31.634 -2.70246 -2.96257 0
M  V30 332 H 28.224 -3.78111 -2.01816 0
M  V30 333 H 32.408 -4.68501 -1.63768 0
M  V30 334 H 27.664 -6.00709 -1.13835 0
M  V30 335 H 31.838 -6.9217 -0.76644 0
M  V30 336 H 29.465 -7.5848 -0.511083 0
M  V30 337 N 31.0401 0.771051 -1.3745 0
M  V30 338 C 31.9721 1.89352 -1.29146 0
M  V30 339 C 32.9851 1.61477 -0.207124 0
M  V30 340 O 34.1741 1.72382 -0.463324 0
M  V30 341 C 31.2741 3.24596 -0.974195 0
M  V30 342 C 30.4471 3.80111 -2.16413 0
M  V30 343 C 29.5061 4.93832 -1.81703 0
M  V30 344 O 28.5321 5.09382 -2.54006 0
M  V30 345 N 29.7341 5.75483 -0.761573 0
M  V30 346 H 32.4991 1.96991 -2.25864 0
M  V30 347 H 30.0601 0.950191 -1.31084 0
M  V30 348 H 32.0521 3.98193 -0.722828 0
M  V30 349 H 30.6221 3.12454 -0.0955527 0
M  V30 350 H 29.8421 2.98284 -2.57721 0
M  V30 351 H 31.1301 4.13932 -2.95867 0
M  V30 352 H 30.5281 5.65469 -0.161609 0
M  V30 353 H 29.0851 6.49302 -0.570064 0
M  V30 354 N 32.5182 1.22032 0.997298 0
M  V30 355 C 33.7662 1.04016 1.73278 0
M  V30 356 C 34.0872 -0.426255 1.90284 0
M  V30 357 O 33.3572 -1.30694 1.45931 0
M  V30 358 H 31.9372 0.381897 0.642 0
M  V30 359 H 34.5992 1.5347 1.20137 0
M  V30 360 H 33.6952 1.51441 2.72896 0
M  V30 361 N 33.9963 -1.19345 1.0293 0
M  V30 362 C 35.2733 -1.84811 0.640642 0
M  V30 363 C 35.6533 -1.91855 -0.88062 0
M  V30 364 O 35.0013 -1.43587 -1.7775 0
M  V30 365 C 35.2113 -3.23755 1.30321 0
M  V30 366 C 36.5593 -3.99912 1.42673 0
M  V30 367 O 37.5833 -3.33155 1.26041 0
M  V30 368 O 36.4423 -5.19494 1.6967 0
M  V30 369 H 33.5363 -0.796443 0.222726 0
M  V30 370 H 36.0823 -1.26831 1.12748 0
M  V30 371 H 34.8543 -3.13466 2.34211 0
M  V30 372 H 34.4773 -3.89381 0.804261 0
M  V30 373 N 35.4744 -0.807222 -1.35358 0
M  V30 374 C 36.4374 -0.223665 -2.28106 0
M  V30 375 C 37.4374 0.589354 -1.4961 0
M  V30 376 O 38.6274 0.407745 -1.69361 0
M  V30 377 C 35.7594 0.688149 -3.33882 0
M  V30 378 H 36.9524 -1.04169 -2.81227 0
M  V30 379 H 34.5054 -0.577921 -1.45223 0
M  V30 380 H 35.2404 1.52984 -2.85948 0
M  V30 381 H 35.0254 0.10687 -3.91954 0
M  V30 382 H 36.5154 1.09075 -4.03104 0
M  V30 383 N 36.9525 1.47285 -0.560781 0
M  V30 384 C 38.1995 2.02464 -0.038062 0
M  V30 385 C 38.5275 1.43474 1.31322 0
M  V30 386 O 37.7825 0.581311 1.86867 0
M  V30 387 C 38.0815 3.57258 0.100784 0
M  V30 388 C 37.7475 4.35184 -1.18007 0
M  V30 389 C 36.4095 4.56194 -1.53103 0
M  V30 390 C 38.7615 4.80098 -2.02867 0
M  V30 391 C 36.0895 5.19367 -2.729 0
M  V30 392 C 38.4415 5.44593 -3.21871 0
M  V30 393 C 37.1055 5.63835 -3.57276 0
M  V30 394 H 36.3755 0.740869 -0.0139279 0
M  V30 395 H 39.0225 1.76916 -0.733012 0
M  V30 396 H 37.3275 3.81819 0.878724 0
M  V30 397 H 39.0245 3.97606 0.520639 0
M  V30 398 H 35.6145 4.19113 -0.8968 0
M  V30 399 H 39.7985 4.63642 -1.7706 0
M  V30 400 H 35.0545 5.32459 -3.00496 0
M  V30 401 H 39.2285 5.78358 -3.87911 0
M  V30 402 H 36.8555 6.12557 -4.50197 0
M  V30 403 N 38.4306 0.297415 1.54768 0
M  V30 404 C 39.3806 -0.595275 2.20092 0
M  V30 405 C 40.3646 -1.10163 1.17273 0
M  V30 406 O 41.5566 -1.043 1.43006 0
M  V30 407 C 38.6856 -1.7684 2.94249 0
M  V30 408 C 37.7716 -1.27818 4.0438 0
M  V30 409 N 38.1626 -0.505695 5.03266 0
M  V30 410 C 36.4606 -1.55923 4.17857 0
M  V30 411 C 37.1616 -0.245094 5.81183 0
M  V30 412 N 36.1376 -0.823881 5.3732 0
M  V30 413 H 39.9396 0.00250837 2.939 0
M  V30 414 H 37.4536 0.102007 1.62079 0
M  V30 415 H 39.4506 -2.41944 3.39513 0
M  V30 416 H 38.1106 -2.36992 2.21957 0
M  V30 417 H 39.1216 -0.150928 5.1768 0
M  V30 418 H 35.7986 -2.16849 3.56767 0
M  V30 419 H 37.1886 0.375084 6.70852 0
M  V30 420 N 39.9087 -1.5758 0.0250728 0
M  V30 421 C 40.8407 -2.06869 -0.986796 0
M  V30 422 C 41.8537 -0.991332 -1.29137 0
M  V30 423 O 43.0427 -1.26761 -1.25674 0
M  V30 424 C 40.1427 -2.47486 -2.31525 0
M  V30 425 C 39.3157 -3.78253 -2.19643 0
M  V30 426 C 38.3747 -4.05464 -3.35388 0
M  V30 427 O 37.4007 -4.75774 -3.12454 0
M  V30 428 N 38.6027 -3.55321 -4.59051 0
M  V30 429 H 41.3677 -2.94302 -0.566276 0
M  V30 430 H 38.9287 -1.6109 -0.161776 0
M  V30 431 H 40.9207 -2.62785 -3.07776 0
M  V30 432 H 39.4907 -1.65441 -2.65232 0
M  V30 433 H 38.7107 -3.7279 -1.28144 0
M  V30 434 H 39.9987 -4.63936 -2.08903 0
M  V30 435 H 39.3967 -2.98431 -4.80578 0
M  V30 436 H 37.9537 -3.75905 -5.32483 0
M  V30 437 N 41.3868 0.248026 -1.55636 0
M  V30 438 C 42.6118 0.998028 -1.81808 0
M  V30 439 C 43.0368 1.78207 -0.601979 0
M  V30 440 O 42.3948 1.75653 0.448961 0
M  V30 441 C 42.4428 1.9125 -3.05705 0
M  V30 442 O 41.5468 3.00406 -2.82542 0
M  V30 443 H 40.8878 0.284045 -0.600179 0
M  V30 444 H 43.4178 0.269357 -2.02819 0
M  V30 445 H 43.4278 2.32737 -3.35108 0
M  V30 446 H 42.1028 1.33602 -3.93857 0
M  V30 447 H 40.6798 2.63056 -2.64303 0
M  V30 448 N 42.8649 1.48995 0.513639 0
M  V30 449 C 44.1419 1.48338 1.27495 0
M  V30 450 C 44.5219 0.204065 2.10111 0
M  V30 451 O 43.8699 -0.813881 2.13514 0
M  V30 452 C 44.0799 2.75498 2.14247 0
M  V30 453 C 45.4279 3.24484 2.73852 0
M  V30 454 O 46.4519 2.76528 2.24523 0
M  V30 455 O 45.3109 4.07974 3.6362 0
M  V30 456 H 42.4049 0.593149 0.576284 0
M  V30 457 H 44.9509 1.61246 0.528948 0
M  V30 458 H 43.7229 3.60109 1.53092 0
M  V30 459 H 43.3459 2.6539 2.96064 0
M  V30 460 N 44.343 -0.763751 1.37857 0
M  V30 461 C 45.571 -1.55293 1.36718 0
M  V30 462 C 45.986 -1.88745 -0.0455434 0
M  V30 463 O 45.343 -1.52039 -1.00947 0
M  V30 464 C 45.394 -2.85831 2.2132 0
M  V30 465 O 45.115 -2.5381 3.57089 0
M  V30 466 C 46.616 -3.80023 2.28249 0
M  V30 467 H 43.836 -0.480841 0.468009 0
M  V30 468 H 46.38 -0.946009 1.81303 0
M  V30 469 H 44.535 -3.42926 1.80223 0
M  V30 470 H 44.949 -3.37459 4.01524 0
M  V30 471 H 46.423 -4.68599 2.91752 0
M  V30 472 H 46.9 -4.1973 1.2932 0
M  V30 473 H 47.506 -3.28855 2.69693 0
M  V30 474 N 45.8211 -1.22559 -0.990812 0
M  V30 475 C 46.7711 -0.964807 -2.0658 0
M  V30 476 C 47.7551 0.0853472 -1.60673 0
M  V30 477 O 48.9471 -0.125443 -1.76555 0
M  V30 478 C 46.0761 -0.546707 -3.38919 0
M  V30 479 C 45.1621 -1.6317 -3.91454 0
M  V30 480 N 45.5531 -2.85985 -4.17189 0
M  V30 481 C 43.8511 -1.50387 -4.19881 0
M  V30 482 C 44.5521 -3.56159 -4.59919 0
M  V30 483 N 43.5281 -2.83637 -4.63736 0
M  V30 484 H 47.3301 -1.89769 -2.24421 0
M  V30 485 H 44.8441 -1.12343 -1.17273 0
M  V30 486 H 46.8411 -0.34119 -4.15502 0
M  V30 487 H 45.5011 0.379254 -3.22478 0
M  V30 488 H 46.5121 -3.22392 -4.05319 0
M  V30 489 H 43.1891 -0.644254 -4.12499 0
M  V30 490 H 44.5791 -4.6139 -4.88435 0
M  V30 491 N 47.2992 1.18797 -1.03562 0
M  V30 492 C 48.5482 1.87978 -0.731235 0
M  V30 493 C 48.8612 1.80911 0.743671 0
M  V30 494 O 50.0672 2.45407 1.16137 0
M  V30 495 C 48.5232 3.3721 -1.25768 0
M  V30 496 C 48.1312 3.52818 -2.76085 0
M  V30 497 C 49.8752 4.11825 -1.0296 0
M  V30 498 C 47.7822 4.9598 -3.22114 0
M  V30 499 H 46.7122 0.704063 -0.269835 0
M  V30 500 H 49.3632 1.34266 -1.25079 0
M  V30 501 H 47.7452 3.90359 -0.666011 0
M  V30 502 H 48.9192 3.09965 -3.40966 0
M  V30 503 H 47.2342 2.91602 -2.97249 0
M  V30 504 H 49.8312 5.17411 -1.34869 0
M  V30 505 H 50.1742 4.16287 0.0333546 0
M  V30 506 H 50.7072 3.64833 -1.58562 0
M  V30 507 H 47.4462 4.96684 -4.27768 0
M  V30 508 H 46.9662 5.39569 -2.61965 0
M  V30 509 H 48.6452 5.6467 -3.15844 0
M  V30 510 N 48.7773 0.814389 1.34928 0
M  V30 511 C 50.0243 0.398423 1.98542 0
M  V30 512 C 50.3523 -1.03638 1.64589 0
M  V30 513 O 49.6073 -1.73509 0.90516 0
M  V30 514 C 49.9063 0.537781 3.53331 0
M  V30 515 C 49.5723 1.93704 4.07172 0
M  V30 516 C 48.2343 2.31984 4.21589 0
M  V30 517 C 50.5863 2.85213 4.36237 0
M  V30 518 C 47.9143 3.61125 4.62391 0
M  V30 519 C 50.2663 4.13809 4.78482 0
M  V30 520 C 48.9303 4.52077 4.91104 0
M  V30 521 H 48.2003 0.145793 0.726516 0
M  V30 522 H 50.8473 1.03669 1.61012 0
M  V30 523 H 49.1523 -0.183906 3.91368 0
M  V30 524 H 50.8493 0.196588 4.00518 0
M  V30 525 H 47.4393 1.62966 3.96409 0
M  V30 526 H 51.6233 2.56885 4.24645 0
M  V30 527 H 46.8793 3.90612 4.70353 0
M  V30 528 H 51.0533 4.84811 4.99932 0
M  V30 529 H 48.6803 5.52196 5.22478 0
M  V30 530 N 50.2554 -1.46986 0.568584 0
M  V30 531 C 51.5044 -2.01646 0.0465894 0
M  V30 532 C 51.8174 -1.44721 -1.31587 0
M  V30 533 O 53.0234 -1.91113 -1.92842 0
M  V30 534 C 51.4794 -3.59885 0.032752 0
M  V30 535 C 51.0874 -4.25804 1.39266 0
M  V30 536 C 52.8314 -4.22255 -0.436038 0
M  V30 537 C 50.7384 -5.76081 1.33732 0
M  V30 538 H 49.6684 -0.753876 0.013647 0
M  V30 539 H 52.3194 -1.68864 0.718131 0
M  V30 540 H 50.7014 -3.8968 -0.704669 0
M  V30 541 H 51.8754 -4.07637 2.1487 0
M  V30 542 H 50.1904 -3.7547 1.80032 0
M  V30 543 H 52.7874 -5.32394 -0.49602 0
M  V30 544 H 53.1304 -3.90212 -1.45053 0
M  V30 545 H 53.6634 -3.97033 0.246877 0
M  V30 546 H 50.4024 -6.12761 2.32817 0
M  V30 547 H 49.9224 -5.96553 0.623267 0
M  V30 548 H 51.6014 -6.38518 1.0442 0
M  V30 549 N 51.7335 -0.305618 -1.54608 0
M  V30 550 C 52.9825 0.303098 -1.9941 0
M  V30 551 C 53.2955 1.54648 -1.19764 0
M  V30 552 O 54.5015 2.23007 -1.54855 0
M  V30 553 C 52.9575 0.590588 -3.55021 0
M  V30 554 C 52.5655 -0.634719 -4.43481 0
M  V30 555 C 54.3095 1.16025 -4.08336 0
M  V30 556 C 52.2165 -0.320126 -5.90533 0
M  V30 557 H 51.1465 0.117031 -0.744862 0
M  V30 558 H 53.7975 -0.415045 -1.78745 0
M  V30 559 H 52.1795 1.36845 -3.71604 0
M  V30 560 H 53.3535 -1.41079 -4.38672 0
M  V30 561 H 51.6685 -1.12333 -4.00962 0
M  V30 562 H 54.2655 1.40994 -5.15776 0
M  V30 563 H 54.6085 2.10397 -3.5922 0
M  V30 564 H 55.1415 0.443985 -3.95315 0
M  V30 565 H 51.8805 -1.23254 -6.43808 0
M  V30 566 H 51.4005 0.418579 -5.98338 0
M  V30 567 H 53.0795 0.0766241 -6.46955 0
M  V30 568 N 53.2116 1.57565 -0.0334293 0
M  V30 569 C 54.1446 2.05997 0.981866 0
M  V30 570 C 55.1226 0.956647 1.3148 0
M  V30 571 O 56.3066 1.22729 1.43073 0
M  V30 572 C 53.4336 2.48564 2.30074 0
M  V30 573 C 52.4796 3.69958 2.12211 0
M  V30 574 S 53.3126 5.16414 1.41692 0
M  V30 575 C 54.4686 5.6228 2.7494 0
M  V30 576 H 54.7016 2.91792 0.569612 0
M  V30 577 H 52.2346 1.53366 0.178376 0
M  V30 578 H 54.1926 2.73753 3.05892 0
M  V30 579 H 52.8536 1.63106 2.68431 0
M  V30 580 H 52.0466 3.97603 3.09722 0
M  V30 581 H 51.6486 3.44943 1.44535 0
M  V30 582 H 53.9406 5.66783 3.71165 0
M  V30 583 H 54.8836 6.61759 2.51953 0
M  V30 584 H 55.2916 4.89944 2.80384 0
M  V30 585 N 54.6897 -0.239769 1.55765 0
M  V30 586 C 55.9377 -0.964892 1.77579 0
M  V30 587 C 56.2587 -1.85582 0.598699 0
M  V30 588 O 55.5287 -1.92075 -0.385226 0
M  V30 589 H 54.1087 -0.359265 0.654933 0
M  V30 590 H 56.7707 -0.256001 1.93211 0
M  V30 591 H 55.8667 -1.58243 2.69009 0
M  V30 592 N 56.1678 -1.49265 -0.50573 0
M  V30 593 C 57.1308 -1.65075 -1.59006 0
M  V30 594 C 58.1308 -0.522768 -1.52065 0
M  V30 595 O 59.3208 -0.789117 -1.55302 0
M  V30 596 C 56.4528 -1.64369 -2.98656 0
M  V30 597 H 57.6458 -2.61784 -1.46319 0
M  V30 598 H 55.1988 -1.38226 -0.729616 0
M  V30 599 H 55.9338 -0.692272 -3.16825 0
M  V30 600 H 55.7188 -2.46282 -3.05103 0
M  V30 601 H 57.2088 -1.78674 -3.77446 0
M  V30 602 N 57.6459 0.756429 -1.3826 0
M  V30 603 C 58.8709 1.55077 -1.37717 0
M  V30 604 C 59.2959 1.88073 0.03164 0
M  V30 605 O 58.6539 1.50364 1.01293 0
M  V30 606 C 58.7019 2.8283 -2.23695 0
M  V30 607 O 57.8059 3.77862 -1.6521 0
M  V30 608 H 57.1469 0.469152 -0.469885 0
M  V30 609 H 59.6769 0.935019 -1.81985 0
M  V30 610 H 59.6869 3.31783 -2.37453 0
M  V30 611 H 58.3619 2.58144 -3.2609 0
M  V30 612 H 56.9389 3.36555 -1.60578 0
M  V30 613 N 59.124 1.23083 0.984299 0
M  V30 614 C 60.372 1.05848 1.72165 0
M  V30 615 C 60.693 -0.406049 1.90726 0
M  V30 616 O 59.963 -1.29139 1.47309 0
M  V30 617 H 58.543 0.388685 0.637913 0
M  V30 618 H 61.205 1.54736 1.18503 0
M  V30 619 H 60.301 1.54327 2.71274 0
M  V30 620 N 60.6021 -1.18246 1.0419 0
M  V30 621 C 61.8791 -1.84121 0.660208 0
M  V30 622 C 62.2591 -1.92778 -0.860221 0
M  V30 623 O 61.6071 -1.45464 -1.76217 0
M  V30 624 C 61.8171 -3.22355 1.33747 0
M  V30 625 C 63.1651 -3.98376 1.46906 0
M  V30 626 O 64.1891 -3.31799 1.29568 0
M  V30 627 O 63.0481 -5.17665 1.75171 0
M  V30 628 H 60.1421 -0.794036 0.231161 0
M  V30 629 H 62.6881 -1.25628 1.14087 0
M  V30 630 H 61.4601 -3.10964 2.37522 0
M  V30 631 H 61.0831 -3.88506 0.845515 0
M  V30 632 N 62.0802 -0.821533 -1.34494 0
M  V30 633 C 63.0102 -0.257138 -2.3208 0
M  V30 634 C 63.9912 0.625645 -1.58176 0
M  V30 635 O 65.1762 0.552811 -1.86166 0
M  V30 636 C 62.3062 0.582958 -3.42372 0
M  V30 637 C 61.2602 -0.202571 -4.2752 0
M  V30 638 C 60.5862 0.760179 -5.29269 0
M  V30 639 C 61.8862 -1.40998 -5.02908 0
M  V30 640 H 63.5802 -1.07247 -2.79532 0
M  V30 641 H 61.1262 -0.517163 -1.34393 0
M  V30 642 H 63.0792 0.987972 -4.09655 0
M  V30 643 H 61.8032 1.43133 -2.93565 0
M  V30 644 H 60.4622 -0.588936 -3.61838 0
M  V30 645 H 60.1102 1.60447 -4.76724 0
M  V30 646 H 59.8102 0.238809 -5.87115 0
M  V30 647 H 61.3342 1.16308 -5.9942 0
M  V30 648 H 62.7482 -1.07905 -5.63054 0
M  V30 649 H 61.1452 -1.86689 -5.70322 0
M  V30 650 H 62.2152 -2.1889 -4.32684 0
M  V30 651 N 63.5583 1.46682 -0.576371 0
M  V30 652 C 64.5213 2.28707 0.150239 0
M  V30 653 C 65.5213 1.38035 0.824794 0
M  V30 654 O 66.7113 1.60476 0.677719 0
M  V30 655 C 63.8433 3.18248 1.22192 0
M  V30 656 H 65.0363 2.94423 -0.570521 0
M  V30 657 H 62.5893 1.52688 -0.334078 0
M  V30 658 H 63.3243 2.57265 1.97447 0
M  V30 659 H 63.1093 3.85 0.742812 0
M  V30 660 H 64.5993 3.80001 1.73172 0
M  V30 661 N 65.0364 0.313813 1.54444 0
M  V30 662 C 65.9834 -0.55655 2.23989 0
M  V30 663 C 66.9534 -1.11943 1.22711 0
M  V30 664 O 68.1384 -1.16158 1.51367 0
M  V30 665 C 65.2784 -1.71635 2.99392 0
M  V30 666 C 64.3914 -1.18364 4.15468 0
M  V30 667 C 63.5264 -2.30834 4.78424 0
M  V30 668 C 62.5654 -1.74762 5.86622 0
M  V30 669 N 61.7024 -2.80855 6.43479 0
M  V30 670 H 66.5424 0.0430893 2.97969 0
M  V30 671 H 64.0794 0.0330359 1.47063 0
M  V30 672 H 66.0374 -2.39868 3.41349 0
M  V30 673 H 64.6674 -2.28742 2.27765 0
M  V30 674 H 63.7194 -0.393163 3.78363 0
M  V30 675 H 65.0314 -0.733262 4.93381 0
M  V30 676 H 64.1854 -3.0699 5.23299 0
M  V30 677 H 62.9244 -2.79204 3.99871 0
M  V30 678 H 61.9294 -0.970995 5.41158 0
M  V30 679 H 63.1544 -1.2728 6.67066 0
M  V30 680 H 61.1004 -3.28535 5.67804 0
M  V30 681 H 61.0174 -2.40351 7.16776 0
M  V30 682 H 62.2854 -3.5687 6.93011 0
M  V30 683 N 66.5145 -1.57545 0.0417849 0
M  V30 684 C 67.4615 -2.10977 -0.935805 0
M  V30 685 C 68.4315 -1.01486 -1.31491 0
M  V30 686 O 69.6165 -1.2898 -1.40602 0
M  V30 687 C 66.7565 -2.65169 -2.2086 0
M  V30 688 C 65.8695 -3.88714 -1.88482 0
M  V30 689 C 65.0045 -4.31254 -3.1015 0
M  V30 690 C 64.0435 -5.47524 -2.7365 0
M  V30 691 N 63.1805 -5.85162 -3.87982 0
M  V30 692 H 68.0205 -2.94218 -0.473249 0
M  V30 693 H 65.5575 -1.45415 -0.221981 0
M  V30 694 H 67.5155 -2.94685 -2.95325 0
M  V30 695 H 66.1455 -1.8474 -2.64709 0
M  V30 696 H 65.1975 -3.65849 -1.04205 0
M  V30 697 H 66.5095 -4.73245 -1.57608 0
M  V30 698 H 65.6635 -4.62273 -3.92923 0
M  V30 699 H 64.4025 -3.45516 -3.44195 0
M  V30 700 H 63.4075 -5.16187 -1.89291 0
M  V30 701 H 64.6325 -6.34971 -2.40807 0
M  V30 702 H 62.5785 -5.02377 -4.21846 0
M  V30 703 H 62.4955 -6.64362 -3.60775 0
M  V30 704 H 63.7635 -6.20791 -4.71422 0
M  V30 705 N 67.9926 0.231505 -1.5589 0
M  V30 706 C 68.9396 1.28682 -1.91598 0
M  V30 707 C 69.9096 1.47071 -0.771974 0
M  V30 708 O 71.0946 1.60802 -1.027 0
M  V30 709 C 68.2346 2.6342 -2.22944 0
M  V30 710 C 67.3476 2.52912 -3.50228 0
M  V30 711 C 66.4826 3.80106 -3.7107 0
M  V30 712 C 65.5216 3.64279 -4.91902 0
M  V30 713 N 64.6586 4.834 -5.09184 0
M  V30 714 H 69.4986 0.975305 -2.81588 0
M  V30 715 H 67.0356 0.470299 -1.39379 0
M  V30 716 H 68.9936 3.41869 -2.39126 0
M  V30 717 H 67.6236 2.92687 -1.36139 0
M  V30 718 H 66.6756 1.6595 -3.42294 0
M  V30 719 H 67.9876 2.37133 -4.38827 0
M  V30 720 H 67.1416 4.66999 -3.87295 0
M  V30 721 H 65.8806 3.98799 -2.80733 0
M  V30 722 H 64.8856 2.7577 -4.75637 0
M  V30 723 H 66.1106 3.47067 -5.83714 0
M  V30 724 H 64.0566 5.02425 -4.21788 0
M  V30 725 H 63.9736 4.70311 -5.91898 0
M  V30 726 H 65.2416 5.71747 -5.29835 0
M  V30 727 N 69.4707 1.49531 0.497807 0
M  V30 728 C 70.7197 1.58426 1.24837 0
M  V30 729 C 71.0327 0.277643 1.93619 0
M  V30 730 O 72.2387 0.24517 2.70391 0
M  V30 731 C 70.6947 2.79538 2.26686 0
M  V30 732 C 70.3027 4.16971 1.63828 0
M  V30 733 C 72.0467 2.97764 3.0255 0
M  V30 734 C 69.9537 5.29301 2.63807 0
M  V30 735 H 68.8837 0.58989 0.469623 0
M  V30 736 H 71.5347 1.75923 0.521857 0
M  V30 737 H 69.9167 2.55542 3.02514 0
M  V30 738 H 71.0907 4.51116 0.939711 0
M  V30 739 H 69.4057 4.04129 1.00342 0
M  V30 740 H 72.0027 3.78856 3.77323 0
M  V30 741 H 72.3457 2.08448 3.60354 0
M  V30 742 H 72.8787 3.21815 2.33838 0
M  V30 743 H 69.6177 6.20687 2.10779 0
M  V30 744 H 69.1377 4.99606 3.31894 0
M  V30 745 H 70.8167 5.58768 3.2617 0
M  V30 746 N 70.9488 -0.749086 1.3866 0
M  V30 747 C 72.1788 -1.53611 1.38157 0
M  V30 748 C 72.5868 -1.89177 -0.0293595 0
M  V30 749 O 71.9298 -1.53606 -1.00752 0
M  V30 750 C 71.9918 -2.86087 2.17702 0
M  V30 751 C 71.6558 -2.73034 3.66472 0
M  V30 752 C 72.6528 -2.42526 4.59866 0
M  V30 753 C 70.3378 -2.90345 4.09884 0
M  V30 754 C 72.3318 -2.29492 5.94653 0
M  V30 755 C 70.0188 -2.7693 5.4475 0
M  V30 756 C 71.0168 -2.46547 6.36949 0
M  V30 757 O 70.7048 -2.33199 7.69333 0
M  V30 758 H 70.4368 -0.481773 0.474205 0
M  V30 759 H 72.9908 -0.934465 1.82912 0
M  V30 760 H 71.2208 -3.48458 1.67672 0
M  V30 761 H 72.9098 -3.47625 2.09551 0
M  V30 762 H 73.6758 -2.28816 4.27631 0
M  V30 763 H 69.5548 -3.1299 3.38464 0
M  V30 764 H 73.0988 -2.05698 6.66584 0
M  V30 765 H 68.9958 -2.90215 5.76581 0
M  V30 766 H 69.7638 -2.48376 7.79905 0
M  V30 767 N 72.4269 -1.23603 -0.977757 0
M  V30 768 C 73.8379 -1.06424 -1.53398 0
M  V30 769 C 74.1889 0.367578 -1.92726 0
M  V30 770 O 73.3139 1.25465 -1.76316 0
M  V30 771 C 73.9089 -1.92568 -2.78753 0
M  V30 772 C 72.4679 -1.79642 -3.30765 0
M  V30 773 C 71.6149 -1.88111 -2.03739 0
M  V30 774 H 74.5659 -1.37227 -0.797152 0
M  V30 775 H 74.5869 -1.45203 -3.51705 0
M  V30 776 H 74.0989 -2.96771 -2.50098 0
M  V30 777 H 72.1999 -0.782325 -3.64294 0
M  V30 778 H 72.3129 -2.63174 -4.00345 0
M  V30 779 H 70.6769 -1.31723 -2.17994 0
M  V30 780 H 71.4599 -2.93875 -1.77461 0
M  V30 781 N 73.905 1.17692 -1.04816 0
M  V30 782 C 75.133 1.91786 -0.776254 0
M  V30 783 C 75.548 1.76604 0.667577 0
M  V30 784 O 74.905 1.10067 1.45573 0
M  V30 785 C 74.956 3.42967 -1.14263 0
M  V30 786 O 74.677 3.57678 -2.52978 0
M  V30 787 C 76.178 4.34144 -0.896311 0
M  V30 788 H 73.398 0.608624 -0.282519 0
M  V30 789 H 75.942 1.49268 -1.39783 0
M  V30 790 H 74.097 3.83245 -0.565874 0
M  V30 791 H 74.511 4.51319 -2.67229 0
M  V30 792 H 75.985 5.38744 -1.20244 0
M  V30 793 H 76.462 4.38876 0.168636 0
M  V30 794 H 77.068 3.99574 -1.45672 0
M  V30 795 N 75.3831 0.828654 1.34056 0
M  V30 796 C 76.6321 0.415828 1.97367 0
M  V30 797 C 76.9451 -1.02796 1.6641 0
M  V30 798 O 78.1511 -1.54497 2.23255 0
M  V30 799 C 76.6071 0.692601 3.53173 0
M  V30 800 C 76.2151 2.15038 3.93017 0
M  V30 801 C 77.9591 0.346222 4.23086 0
M  V30 802 C 75.8661 2.37174 5.41758 0
M  V30 803 H 74.7961 0.151755 0.738571 0
M  V30 804 H 77.4471 1.01581 1.52819 0
M  V30 805 H 75.8291 0.0223764 3.95994 0
M  V30 806 H 77.0031 2.86024 3.61285 0
M  V30 807 H 75.3181 2.45875 3.36057 0
M  V30 808 H 77.9151 0.48937 5.32456 0
M  V30 809 H 78.2581 -0.709842 4.10204 0
M  V30 810 H 78.7911 0.971258 3.85761 0
M  V30 811 H 75.5301 3.41308 5.59633 0
M  V30 812 H 75.0501 1.70738 5.74986 0
M  V30 813 H 76.7291 2.19818 6.08514 0
M  V30 814 N 76.8612 -1.46375 0.584142 0
M  V30 815 C 78.1072 -2.03248 0.0787103 0
M  V30 816 C 78.4622 -1.44737 -1.26763 0
M  V30 817 O 77.7552 -0.603625 -1.81843 0
M  V30 818 C 77.9492 -3.57373 -0.0439342 0
M  V30 819 C 77.7782 -4.30831 1.28897 0
M  V30 820 C 76.5482 -4.69683 1.8635 0
M  V30 821 C 78.7462 -4.64278 2.21248 0
M  V30 822 N 76.7282 -5.27898 3.13365 0
M  V30 823 C 78.0992 -5.23078 3.32851 0
M  V30 824 C 80.1542 -4.46209 2.20911 0
M  V30 825 C 78.8572 -5.65715 4.44251 0
M  V30 826 C 80.8832 -4.89864 3.31341 0
M  V30 827 C 80.2452 -5.48736 4.41665 0
M  V30 828 H 76.3442 -0.778714 0.0716144 0
M  V30 829 H 78.9282 -1.78509 0.777355 0
M  V30 830 H 77.0992 -3.81823 -0.711749 0
M  V30 831 H 78.8312 -4.00892 -0.553881 0
M  V30 832 H 75.5862 -4.52488 1.39826 0
M  V30 833 H 76.0102 -5.61525 3.78178 0
M  V30 834 H 80.6522 -4.00027 1.36888 0
M  V30 835 H 78.3702 -6.10875 5.29015 0
M  V30 836 H 81.9562 -4.77634 3.322 0
M  V30 837 H 80.8362 -5.81898 5.25704 0
M  V30 838 N 78.3393 -0.321999 -1.54275 0
M  V30 839 C 79.5853 0.274234 -2.01543 0
M  V30 840 C 79.9403 1.499 -1.20614 0
M  V30 841 O 79.2333 1.89546 -0.279804 0
M  V30 842 C 79.4273 0.661769 -3.5122 0
M  V30 843 C 79.2563 -0.523892 -4.46638 0
M  V30 844 C 78.0263 -1.02251 -4.94846 0
M  V30 845 C 80.2243 -1.37558 -4.95563 0
M  V30 846 N 78.2063 -2.17274 -5.74165 0
M  V30 847 C 79.5773 -2.37301 -5.7279 0
M  V30 848 C 81.6323 -1.40353 -4.77709 0
M  V30 849 C 80.3353 -3.3964 -6.34064 0
M  V30 850 C 82.3613 -2.41562 -5.39817 0
M  V30 851 C 81.7233 -3.40031 -6.16894 0
M  V30 852 H 77.8223 0.0642367 -0.779357 0
M  V30 853 H 80.4063 -0.456683 -1.89268 0
M  V30 854 H 78.5773 1.36182 -3.63743 0
M  V30 855 H 80.3093 1.23934 -3.85256 0
M  V30 856 H 77.0643 -0.594046 -4.6986 0
M  V30 857 H 77.4883 -2.75289 -6.18502 0
M  V30 858 H 82.1303 -0.655907 -4.17681 0
M  V30 859 H 79.8483 -4.15309 -6.93213 0
M  V30 860 H 83.4343 -2.44524 -5.2792 0
M  V30 861 H 82.3143 -4.17063 -6.64099 0
M  V30 862 N 79.8174 1.5752 -0.0501392 0
M  V30 863 C 80.7474 2.14502 0.922566 0
M  V30 864 C 81.7284 1.06642 1.3252 0
M  V30 865 O 82.9134 1.34577 1.4001 0
M  V30 866 C 80.0434 2.68916 2.19776 0
M  V30 867 C 78.9974 3.8175 1.93523 0
M  V30 868 C 78.3234 4.22677 3.27487 0
M  V30 869 C 79.6234 5.06932 1.25765 0
M  V30 870 H 81.3174 2.9603 0.447952 0
M  V30 871 H 78.8634 1.42401 0.214024 0
M  V30 872 H 80.8164 3.07419 2.88222 0
M  V30 873 H 79.5404 1.84578 2.69441 0
M  V30 874 H 78.1994 3.43718 1.27489 0
M  V30 875 H 77.8474 3.35291 3.74952 0
M  V30 876 H 77.5474 4.98725 3.1072 0
M  V30 877 H 79.0714 4.63779 3.97166 0
M  V30 878 H 80.4854 5.42888 1.84244 0
M  V30 879 H 78.8824 5.88116 1.19328 0
M  V30 880 H 79.9524 4.84337 0.233536 0
M  V30 881 N 81.2955 -0.223234 1.56011 0
M  V30 882 C 82.5425 -0.947875 1.78946 0
M  V30 883 C 82.8705 -1.844 0.618608 0
M  V30 884 O 82.1255 -1.91629 -0.397093 0
M  V30 885 C 82.4245 -1.81948 3.0762 0
M  V30 886 C 82.0905 -1.07672 4.37856 0
M  V30 887 C 80.7525 -0.871544 4.73242 0
M  V30 888 C 83.1045 -0.552081 5.18268 0
M  V30 889 C 80.4325 -0.129791 5.86556 0
M  V30 890 C 82.7845 0.17632 6.32354 0
M  V30 891 C 81.4485 0.39277 6.66343 0
M  V30 892 H 80.7185 -0.346852 0.654809 0
M  V30 893 H 83.3655 -0.216171 1.90276 0
M  V30 894 H 81.6705 -2.61899 2.91404 0
M  V30 895 H 83.3675 -2.38227 3.22566 0
M  V30 896 H 79.9575 -1.24662 4.1007 0
M  V30 897 H 84.1415 -0.698076 4.91366 0
M  V30 898 H 79.3975 0.048153 6.11381 0
M  V30 899 H 83.5715 0.590367 6.93893 0
M  V30 900 H 81.1985 0.969466 7.53993 0
M  V30 901 N 82.7736 -1.49793 -0.48987 0
M  V30 902 C 84.1896 -1.36803 -0.822022 0
M  V30 903 C 84.3896 -0.409652 -1.97292 0
M  V30 904 O 83.4456 0.154614 -2.52026 0
M  V30 905 C 84.7586 -2.77768 -1.15175 0
M  V30 906 C 86.3066 -2.86549 -1.25931 0
M  V30 907 C 86.7816 -4.28306 -1.62228 0
M  V30 908 N 88.2726 -4.31169 -1.69256 0
M  V30 909 C 89.0076 -5.37832 -1.98807 0
M  V30 910 N 88.5036 -6.54726 -2.26507 0
M  V30 911 N 90.2966 -5.25258 -2.00152 0
M  V30 912 H 82.4476 -2.10691 0.268881 0
M  V30 913 H 84.7106 -0.946241 0.057728 0
M  V30 914 H 84.4166 -3.49648 -0.379335 0
M  V30 915 H 84.2906 -3.13836 -2.09253 0
M  V30 916 H 86.6776 -2.14899 -2.02243 0
M  V30 917 H 86.7586 -2.54049 -0.298776 0
M  V30 918 H 86.4026 -5.00486 -0.864622 0
M  V30 919 H 86.3326 -4.58279 -2.594 0
M  V30 920 H 88.8236 -3.4687 -1.49965 0
M  V30 921 H 89.1366 -7.31833 -2.48276 0
M  V30 922 H 87.4816 -6.57933 -2.23939 0
M  V30 923 H 90.6726 -4.32938 -1.77996 0
M  V30 924 H 90.8456 -6.08476 -2.22848 0
M  V30 925 N 84.2517 0.741722 -1.39055 0
M  V30 926 C 85.5287 1.49252 -1.26425 0
M  V30 927 C 85.9087 2.10705 0.129144 0
M  V30 928 O 85.2567 1.98045 1.13976 0
M  V30 929 C 85.4667 2.54934 -2.38347 0
M  V30 930 C 86.8147 3.21506 -2.77343 0
M  V30 931 O 87.8387 2.65245 -2.37747 0
M  V30 932 O 86.6977 4.23294 -3.45665 0
M  V30 933 H 83.7917 0.662451 -0.495064 0
M  V30 934 H 86.3377 0.776121 -1.50912 0
M  V30 935 H 85.1097 2.07857 -3.31529 0
M  V30 936 H 84.7327 3.34141 -2.15489 0
M  V30 937 N 85.7298 1.2412 0.971189 0
M  V30 938 C 86.9778 1.07668 1.71032 0
M  V30 939 C 87.2988 -0.385797 1.91146 0
M  V30 940 O 86.5688 -1.27569 1.4867 0
M  V30 941 H 85.1488 0.395429 0.633755 0
M  V30 942 H 87.8108 1.55984 1.16855 0
M  V30 943 H 86.9068 1.57195 2.69622 0
M  V30 944 N 87.2079 -1.17134 1.05439 0
M  V30 945 C 88.1379 -2.2342 0.678649 0
M  V30 946 C 89.1189 -1.66971 -0.32476 0
M  V30 947 O 90.3039 -1.93149 -0.201802 0
M  V30 948 C 87.4339 -3.47256 0.0552099 0
M  V30 949 C 86.3879 -4.16543 0.98365 0
M  V30 950 C 85.7139 -5.34231 0.223961 0
M  V30 951 C 87.0139 -4.68495 2.3089 0
M  V30 952 H 88.7079 -2.55105 1.56722 0
M  V30 953 H 86.2539 -1.2262 0.754998 0
M  V30 954 H 88.2069 -4.20828 -0.21946 0
M  V30 955 H 86.9309 -3.14846 -0.868319 0
M  V30 956 H 85.5899 -3.44887 1.24293 0
M  V30 957 H 85.2379 -4.98071 -0.702412 0
M  V30 958 H 84.9379 -5.81527 0.842627 0
M  V30 959 H 86.4619 -6.10585 -0.0433671 0
M  V30 960 H 87.8759 -5.33691 2.09396 0
M  V30 961 H 86.2729 -5.26379 2.88176 0
M  V30 962 H 87.3429 -3.85169 2.94572 0
M  V30 963 N 88.686 -0.835752 -1.33615 0
M  V30 964 C 89.616 -0.281739 -2.31794 0
M  V30 965 C 90.597 0.608833 -1.58831 0
M  V30 966 O 91.782 0.533035 -1.86741 0
M  V30 967 C 88.912 0.546612 -3.42971 0
M  V30 968 C 87.866 -0.247904 -4.27281 0
M  V30 969 C 87.192 0.704001 -5.30045 0
M  V30 970 C 88.492 -1.46324 -5.01385 0
M  V30 971 H 90.186 -1.10206 -2.78379 0
M  V30 972 H 87.732 -0.531388 -1.33837 0
M  V30 973 H 89.685 0.944467 -4.1068 0
M  V30 974 H 88.409 1.40011 -2.95067 0
M  V30 975 H 87.068 -0.627281 -3.61194 0
M  V30 976 H 86.716 1.55381 -4.78399 0
M  V30 977 H 86.416 0.176524 -5.87335 0
M  V30 978 H 87.94 1.09944 -6.0062 0
M  V30 979 H 89.354 -1.13871 -5.61877 0
M  V30 980 H 87.751 -1.92728 -5.6831 0
M  V30 981 H 88.821 -2.23467 -4.30338 0
M  V30 982 N 90.1641 1.46063 -0.591896 0
M  V30 983 C 91.5751 1.85944 -0.167822 0
M  V30 984 C 91.9261 1.49429 1.27143 0
M  V30 985 O 91.0511 0.913515 1.96173 0
M  V30 986 C 91.6461 3.37489 -0.297794 0
M  V30 987 C 90.2051 3.76332 0.0714732 0
M  V30 988 C 89.3521 2.7006 -0.629509 0
M  V30 989 H 92.3031 1.37087 -0.799555 0
M  V30 990 H 92.3241 3.77532 0.474349 0
M  V30 991 H 91.8361 3.64034 -1.3454 0
M  V30 992 H 89.9371 3.55405 1.11886 0
M  V30 993 H 90.0501 4.78088 -0.311245 0
M  V30 994 H 88.4141 2.54607 -0.0687867 0
M  V30 995 H 89.1971 2.99444 -1.67894 0
M  V30 996 N 91.6422 0.330177 1.54103 0
M  V30 997 C 92.5522 -0.541534 2.28264 0
M  V30 998 C 93.5682 -1.12351 1.32866 0
M  V30 999 O 94.7442 -1.14206 1.65888 0
M  V30 1000 C 91.8092 -1.68322 3.03098 0
M  V30 1001 C 90.8702 -1.13238 4.14096 0
M  V30 1002 C 90.1032 -2.21966 4.85352 0
M  V30 1003 O 90.3262 -3.42437 4.56172 0
M  V30 1004 O 89.2602 -1.87013 5.7211 0
M  V30 1005 H 93.0862 0.060938 3.03639 0
M  V30 1006 H 90.6712 0.09565 1.49093 0
M  V30 1007 H 92.5532 -2.34777 3.49939 0
M  V30 1008 H 91.2282 -2.27176 2.30593 0
M  V30 1009 H 90.1352 -0.432736 3.71589 0
M  V30 1010 H 91.4682 -0.588898 4.88664 0
M  V30 1011 N 93.1203 -1.57491 0.0584922 0
M  V30 1012 C 94.0683 -2.13148 -0.931168 0
M  V30 1013 C 95.0623 -1.06507 -1.31729 0
M  V30 1014 O 96.2683 -1.24906 -1.29609 0
M  V30 1015 H 92.6433 -0.68137 -0.31818 0
M  V30 1016 H 94.6143 -2.95187 -0.436707 0
M  V30 1017 C 93.3633 -2.69732 -2.19408 0
M  V30 1018 H 92.6863 -3.51454 -1.90578 0
M  V30 1019 H 94.1263 -3.12287 -2.86798 0
M  V30 1020 C 92.5853 -1.63855 -2.94369 0
M  V30 1021 O 93.1153 -1.05565 -3.87581 0
M  V30 1022 N 91.3213 -1.35202 -2.57233 0
M  V30 1023 H 90.8683 -1.82791 -1.81508 0
M  V30 1024 H 90.8263 -0.645922 -3.07693 0
M  V30 1025 N 94.5984 0.214957 -1.56127 0
M  V30 1026 C 95.8264 0.955092 -1.83536 0
M  V30 1027 C 96.2414 1.77677 -0.638472 0
M  V30 1028 O 95.5984 1.78219 0.392968 0
M  V30 1029 C 95.6494 1.86734 -3.09536 0
M  V30 1030 O 95.3704 1.07887 -4.24608 0
M  V30 1031 C 96.8714 2.72082 -3.4998 0
M  V30 1032 H 94.0914 0.279611 -0.609966 0
M  V30 1033 H 96.6354 0.228197 -2.03223 0
M  V30 1034 H 94.7904 2.5481 -2.91806 0
M  V30 1035 H 95.2044 1.69872 -4.9623 0
M  V30 1036 H 96.6784 3.31782 -4.41163 0
M  V30 1037 H 97.1554 3.44806 -2.7204 0
M  V30 1038 H 97.7614 2.09409 -3.70173 0
M  V30 1039 N 96.0765 1.50051 0.48192 0
M  V30 1040 C 97.3235 1.60498 1.23477 0
M  V30 1041 C 97.6515 0.300331 1.92167 0
M  V30 1042 O 96.9065 -0.713094 1.82246 0
M  V30 1043 C 97.2055 2.72717 2.30998 0
M  V30 1044 C 96.8715 4.13572 1.79636 0
M  V30 1045 C 95.5335 4.519 1.65348 0
M  V30 1046 C 97.8855 5.01649 1.41412 0
M  V30 1047 C 95.2135 5.76057 1.11244 0
M  V30 1048 C 97.5655 6.26343 0.887538 0
M  V30 1049 C 96.2295 6.63483 0.731207 0
M  V30 1050 H 95.4995 0.587303 0.451836 0
M  V30 1051 H 98.1465 1.83948 0.532468 0
M  V30 1052 H 96.4515 2.43312 3.07094 0
M  V30 1053 H 98.1485 2.78006 2.88988 0
M  V30 1054 H 94.7385 3.83329 1.91721 0
M  V30 1055 H 98.9225 4.72679 1.51289 0
M  V30 1056 H 94.1785 6.03516 0.978686 0
M  V30 1057 H 98.3525 6.93958 0.582654 0
M  V30 1058 H 95.9795 7.59568 0.309806 0
M  V30 1059 N 97.5546 -0.734337 1.39446 0
M  V30 1060 C 98.8036 -1.48937 1.36017 0
M  V30 1061 C 99.1166 -1.95557 -0.0409005 0
M  V30 1062 O 100.323 -2.70779 -0.19778 0
M  V30 1063 C 98.7786 -2.69125 2.38955 0
M  V30 1064 C 98.3866 -2.29452 3.8478 0
M  V30 1065 C 100.131 -3.46944 2.44603 0
M  V30 1066 C 98.0376 -3.46366 4.79358 0
M  V30 1067 H 96.9676 -0.559296 0.505672 0
M  V30 1068 H 99.6186 -0.800983 1.65095 0
M  V30 1069 H 98.0006 -3.40041 2.02948 0
M  V30 1070 H 99.1746 -1.66077 4.29831 0
M  V30 1071 H 97.4896 -1.64723 3.82433 0
M  V30 1072 H 100.087 -4.33907 3.12456 0
M  V30 1073 H 100.43 -3.89454 1.47076 0
M  V30 1074 H 100.963 -2.83056 2.79507 0
M  V30 1075 H 97.7016 -3.08905 5.78151 0
M  V30 1076 H 97.2216 -4.08719 4.38986 0
M  V30 1077 H 98.9006 -4.12691 4.98292 0
M  V30 1078 N 99.0327 -1.24633 -0.964593 0
M  V30 1079 C 100.279 -1.08949 -1.71049 0
M  V30 1080 C 100.612 0.370302 -1.90637 0
M  V30 1081 O 99.8867 1.27349 -1.47011 0
M  V30 1082 C 100.17 -1.83329 -3.0994 0
M  V30 1083 C 100.023 -3.37077 -2.97824 0
M  V30 1084 C 101.342 -1.60846 -4.09654 0
M  V30 1085 H 98.4607 -0.397178 -0.620821 0
M  V30 1086 H 101.103 -1.5334 -1.12191 0
M  V30 1087 H 99.2527 -1.45597 -3.60186 0
M  V30 1088 H 100.925 -3.84425 -2.5498 0
M  V30 1089 H 99.1677 -3.65298 -2.33965 0
M  V30 1090 H 99.8387 -3.84324 -3.96231 0
M  V30 1091 H 102.315 -1.93674 -3.68279 0
M  V30 1092 H 101.191 -2.1534 -5.04896 0
M  V30 1093 H 101.452 -0.547434 -4.38698 0
M  V30 1094 N 100.511 1.16574 -1.06058 0
M  V30 1095 C 101.759 1.86677 -0.77434 0
M  V30 1096 C 102.08 1.81959 0.701147 0
M  V30 1097 O 101.35 1.2515 1.50713 0
M  V30 1098 H 99.9298 0.691134 -0.283449 0
M  V30 1099 H 102.592 1.41378 -1.34158 0
M  V30 1100 H 101.688 2.92181 -1.09711 0
M  V30 1101 N 101.989 0.842826 1.3317 0
M  V30 1102 C 103.219 0.453397 2.01564 0
M  V30 1103 C 103.627 -0.951147 1.63554 0
M  V30 1104 O 102.97 -1.63021 0.846746 0
M  V30 1105 C 103.032 0.499013 3.5602 0
M  V30 1106 C 102.696 1.86037 4.1742 0
M  V30 1107 C 103.693 2.82416 4.36506 0
M  V30 1108 C 101.378 2.15428 4.53757 0
M  V30 1109 C 103.372 4.06346 4.91082 0
M  V30 1110 C 101.059 3.39615 5.0804 0
M  V30 1111 C 102.057 4.3489 5.26649 0
M  V30 1112 O 101.745 5.5688 5.79776 0
M  V30 1113 H 101.477 0.177871 0.652179 0
M  V30 1114 H 104.031 1.13808 1.70988 0
M  V30 1115 H 102.261 -0.242467 3.85939 0
M  V30 1116 H 103.95 0.126852 4.05702 0
M  V30 1117 H 104.716 2.6101 4.08777 0
M  V30 1118 H 100.595 1.42061 4.38565 0
M  V30 1119 H 104.139 4.80722 5.05522 0
M  V30 1120 H 100.036 3.60876 5.352 0
M  V30 1121 H 100.804 5.58674 5.98185 0
M  V30 1122 N 103.467 -1.45747 0.599634 0
M  V30 1123 C 104.43 -2.28917 -0.113835 0
M  V30 1124 C 105.43 -1.3933 -0.802729 0
M  V30 1125 O 106.62 -1.61534 -0.652103 0
M  V30 1126 C 103.752 -3.20152 -1.17114 0
M  V30 1127 H 104.945 -2.93478 0.617289 0
M  V30 1128 H 102.498 -1.52137 0.358327 0
M  V30 1129 H 103.233 -2.60374 -1.93329 0
M  V30 1130 H 103.018 -3.86133 -0.681468 0
M  V30 1131 H 104.508 -3.82708 -1.67105 0
M  V30 1132 N 104.945 -0.338344 -1.53925 0
M  V30 1133 C 106.361 0.0137736 -1.59594 0
M  V30 1134 C 106.561 1.49186 -1.35447 0
M  V30 1135 O 105.617 2.24987 -1.14616 0
M  V30 1136 C 106.93 -0.41773 -2.97784 0
M  V30 1137 C 108.478 -0.369633 -3.1081 0
M  V30 1138 C 108.953 -0.776524 -4.51369 0
M  V30 1139 N 110.444 -0.730506 -4.57403 0
M  V30 1140 C 111.179 -1.01736 -5.64303 0
M  V30 1141 N 110.675 -1.3721 -6.79077 0
M  V30 1142 N 112.468 -0.941942 -5.54151 0
M  V30 1143 H 104.619 -1.3012 -1.67876 0
M  V30 1144 H 106.882 -0.530082 -0.78595 0
M  V30 1145 H 106.588 -1.44811 -3.20504 0
M  V30 1146 H 106.462 0.209729 -3.76616 0
M  V30 1147 H 108.849 0.651568 -2.87817 0
M  V30 1148 H 108.93 -1.03223 -2.34049 0
M  V30 1149 H 108.574 -1.79571 -4.75096 0
M  V30 1150 H 108.504 -0.0914649 -5.26521 0
M  V30 1151 H 110.995 -0.468783 -3.74981 0
M  V30 1152 H 111.308 -1.57597 -7.5656 0
M  V30 1153 H 109.653 -1.4105 -6.80536 0
M  V30 1154 H 112.844 -0.664184 -4.63364 0
M  V30 1155 H 113.017 -1.16884 -6.37371 0
M  V30 1156 N 106.423 1.57458 -0.0668435 0
M  V30 1157 C 107.648 1.9804 0.616027 0
M  V30 1158 C 108.073 0.944771 1.62652 0
M  V30 1159 O 107.431 -0.0902094 1.81075 0
M  V30 1160 C 107.479 3.37665 1.26549 0
M  V30 1161 O 106.583 3.36701 2.38131 0
M  V30 1162 H 105.924 0.644719 0.158849 0
M  V30 1163 H 108.454 2.04121 -0.139891 0
M  V30 1164 H 108.464 3.7474 1.6135 0
M  V30 1165 H 107.139 4.12573 0.525016 0
M  V30 1166 H 105.716 3.1139 2.0516 0
M  V30 1167 N 107.901 -0.206675 1.56239 0
M  V30 1168 C 109.317 -0.557025 1.49564 0
M  V30 1169 C 109.517 -1.86424 0.764735 0
M  V30 1170 O 108.573 -2.50584 0.310491 0
M  V30 1171 C 109.886 -0.622478 2.94186 0
M  V30 1172 C 111.434 -0.712099 3.04792 0
M  V30 1173 C 111.909 -0.808767 4.50803 0
M  V30 1174 N 113.4 -0.8726 4.54907 0
M  V30 1175 C 114.135 -0.967365 5.65181 0
M  V30 1176 N 113.631 -1.02515 6.85173 0
M  V30 1177 N 115.424 -1.00366 5.53067 0
M  V30 1178 H 107.575 0.650943 2.02179 0
M  V30 1179 H 109.838 0.230387 0.919579 0
M  V30 1180 H 109.544 0.268727 3.50672 0
M  V30 1181 H 109.418 -1.4811 3.46905 0
M  V30 1182 H 111.805 -1.59374 2.48363 0
M  V30 1183 H 111.886 0.172489 2.55218 0
M  V30 1184 H 111.53 0.0684754 5.07854 0
M  V30 1185 H 111.46 -1.70899 4.98098 0
M  V30 1186 H 113.951 -0.837657 3.68499 0
M  V30 1187 H 114.264 -1.09765 7.64965 0
M  V30 1188 H 112.609 -0.994026 6.87855 0
M  V30 1189 H 115.8 -0.95527 4.58249 0
M  V30 1190 H 115.973 -1.07405 6.39037 0
M  V30 1191 N 109.379 -1.50304 -0.473955 0
M  V30 1192 C 110.309 -1.71886 -1.58042 0
M  V30 1193 C 111.29 -0.567799 -1.60344 0
M  V30 1194 O 112.475 -0.806623 -1.76656 0
M  V30 1195 C 109.605 -1.81036 -2.96384 0
M  V30 1196 C 108.559 -2.962 -3.08949 0
M  V30 1197 C 107.885 -2.9049 -4.48909 0
M  V30 1198 C 109.185 -4.36752 -2.86434 0
M  V30 1199 H 110.879 -2.64527 -1.40234 0
M  V30 1200 H 108.425 -1.27295 -0.673201 0
M  V30 1201 H 110.378 -1.94719 -3.73714 0
M  V30 1202 H 109.102 -0.850147 -3.15341 0
M  V30 1203 H 107.761 -2.82164 -2.3405 0
M  V30 1204 H 107.409 -1.92321 -4.64781 0
M  V30 1205 H 107.109 -3.67802 -4.58253 0
M  V30 1206 H 108.633 -3.06218 -5.28264 0
M  V30 1207 H 110.047 -4.5133 -3.53517 0
M  V30 1208 H 108.444 -5.15493 -3.07225 0
M  V30 1209 H 109.514 -4.49321 -1.82316 0
M  V30 1210 N 110.857 0.726932 -1.39834 0
M  V30 1211 C 112.085 1.51613 -1.40787 0
M  V30 1212 C 112.5 1.88799 -0.00451505 0
M  V30 1213 O 111.857 1.54662 0.968809 0
M  V30 1214 C 111.908 2.79863 -2.28821 0
M  V30 1215 O 111.629 2.44253 -3.63692 0
M  V30 1216 C 113.13 3.73837 -2.38245 0
M  V30 1217 H 110.35 0.468264 -0.480593 0
M  V30 1218 H 112.894 0.897607 -1.83748 0
M  V30 1219 H 111.049 3.38027 -1.89252 0
M  V30 1220 H 111.463 3.26695 -4.1033 0
M  V30 1221 H 112.937 4.60699 -3.04073 0
M  V30 1222 H 113.414 4.16153 -1.40403 0
M  V30 1223 H 114.02 3.21589 -2.78317 0
M  V30 1224 N 112.336 1.25143 0.95797 0
M  V30 1225 C 113.582 1.09855 1.70469 0
M  V30 1226 C 113.915 -0.360187 1.90831 0
M  V30 1227 O 113.19 -1.26568 1.47685 0
M  V30 1228 C 113.473 1.8497 3.08963 0
M  V30 1229 C 113.326 3.38652 2.96032 0
M  V30 1230 C 114.645 1.63016 4.08795 0
M  V30 1231 H 111.764 0.400465 0.618706 0
M  V30 1232 H 114.406 1.53933 1.11376 0
M  V30 1233 H 112.556 1.47505 3.59409 0
M  V30 1234 H 114.228 3.85772 2.52938 0
M  V30 1235 H 112.471 3.66534 2.32025 0
M  V30 1236 H 113.142 3.8642 3.94187 0
M  V30 1237 H 115.618 1.95625 3.67247 0
M  V30 1238 H 114.494 2.18015 5.03747 0
M  V30 1239 H 114.755 0.570692 4.38401 0
M  V30 1240 N 113.814 -1.1601 1.06675 0
M  V30 1241 C 114.777 -2.18724 0.685001 0
M  V30 1242 C 115.777 -1.58496 -0.271246 0
M  V30 1243 O 116.967 -1.74119 -0.0531156 0
M  V30 1244 C 114.099 -3.40899 0.00853648 0
M  V30 1245 H 115.292 -2.54011 1.59431 0
M  V30 1246 H 112.845 -1.30352 0.862441 0
M  V30 1247 H 113.58 -3.11173 -0.913337 0
M  V30 1248 H 113.365 -3.8587 0.696204 0
M  V30 1249 H 114.855 -4.16886 -0.24414 0
M  V30 1250 N 115.292 -0.849877 -1.32721 0
M  V30 1251 C 116.569 -0.372405 -1.92022 0
M  V30 1252 C 116.949 1.1435 -1.77447 0
M  V30 1253 O 116.297 1.96296 -1.16962 0
M  V30 1254 C 116.507 -0.831482 -3.3895 0
M  V30 1255 C 117.855 -0.845882 -4.16089 0
M  V30 1256 O 118.879 -0.775806 -3.47649 0
M  V30 1257 O 117.738 -0.943753 -5.38289 0
M  V30 1258 H 114.832 -0.107667 -0.819961 0
M  V30 1259 H 117.378 -0.93646 -1.41522 0
M  V30 1260 H 116.15 -1.87448 -3.4348 0
M  V30 1261 H 115.773 -0.24461 -3.96847 0
M  V30 1262 N 116.77 1.45427 -0.607355 0
M  V30 1263 C 118.019 2.01452 -0.100036 0
M  V30 1264 C 118.332 1.48159 1.27704 0
M  V30 1265 O 119.538 1.96159 1.87707 0
M  V30 1266 C 117.994 3.59672 -0.128158 0
M  V30 1267 C 117.602 4.21962 -1.50507 0
M  V30 1268 C 119.346 4.23262 0.323932 0
M  V30 1269 C 117.253 5.72333 -1.48959 0
M  V30 1270 H 116.183 0.75325 -0.0336299 0
M  V30 1271 H 118.834 1.66901 -0.76265 0
M  V30 1272 H 117.216 3.91411 0.601105 0
M  V30 1273 H 118.39 4.01796 -2.25602 0
M  V30 1274 H 116.705 3.70565 -1.89923 0
M  V30 1275 H 119.302 5.33522 0.354691 0
M  V30 1276 H 119.645 3.93921 1.34656 0
M  V30 1277 H 120.178 3.96239 -0.352056 0
M  V30 1278 H 116.917 6.06373 -2.48981 0
M  V30 1279 H 116.437 5.94691 -0.781214 0
M  V30 1280 H 118.116 6.35525 -1.21313 0
M  V30 1281 N 118.248 0.346503 1.53744 0
M  V30 1282 C 119.664 -0.00530975 1.59599 0
M  V30 1283 C 119.864 -1.48465 1.36236 0
M  V30 1284 O 118.92 -2.24376 1.15808 0
M  V30 1285 C 120.233 0.433516 2.97559 0
M  V30 1286 C 121.781 0.386111 3.10609 0
M  V30 1287 C 122.256 0.800451 4.50951 0
M  V30 1288 N 123.747 0.754753 4.5701 0
M  V30 1289 C 124.482 1.04727 5.63755 0
M  V30 1290 N 123.978 1.4081 6.7834 0
M  V30 1291 N 125.771 0.971316 5.53644 0
M  V30 1292 H 117.922 1.31009 1.67184 0
M  V30 1293 H 120.185 0.534242 0.783128 0
M  V30 1294 H 119.891 1.46509 3.19731 0
M  V30 1295 H 119.765 -0.189753 3.76722 0
M  V30 1296 H 122.152 -0.636295 2.88158 0
M  V30 1297 H 122.233 1.04462 2.33498 0
M  V30 1298 H 121.877 1.82088 4.74137 0
M  V30 1299 H 121.807 0.119386 5.26465 0
M  V30 1300 H 124.298 0.488662 3.74727 0
M  V30 1301 H 124.611 1.61607 7.55714 0
M  V30 1302 H 122.956 1.44657 6.79779 0
M  V30 1303 H 126.147 0.688748 4.63005 0
M  V30 1304 H 126.32 1.20263 6.36742 0
M  V30 1305 N 119.726 -1.57421 0.075193 0
M  V30 1306 C 120.673 -2.12915 -0.890843 0
M  V30 1307 C 121.643 -1.04252 -1.29309 0
M  V30 1308 O 122.828 -1.31933 -1.37834 0
M  V30 1309 C 119.968 -2.69795 -2.15186 0
M  V30 1310 C 119.081 -3.92624 -1.80194 0
M  V30 1311 C 118.216 -4.37736 -3.00933 0
M  V30 1312 C 117.255 -5.53205 -2.61974 0
M  V30 1313 N 116.392 -5.9326 -3.75483 0
M  V30 1314 H 121.232 -2.95156 -0.410735 0
M  V30 1315 H 118.769 -1.45854 -0.191086 0
M  V30 1316 H 120.727 -3.00883 -2.89008 0
M  V30 1317 H 119.357 -1.90313 -2.60731 0
M  V30 1318 H 118.409 -3.67977 -0.964218 0
M  V30 1319 H 119.721 -4.76482 -1.47534 0
M  V30 1320 H 118.875 -4.70503 -3.8303 0
M  V30 1321 H 117.614 -3.52739 -3.36789 0
M  V30 1322 H 116.619 -5.20086 -1.783 0
M  V30 1323 H 117.844 -6.39936 -2.27284 0
M  V30 1324 H 115.79 -5.11212 -4.11094 0
M  V30 1325 H 115.707 -6.71865 -3.46602 0
M  V30 1326 H 116.975 -6.30651 -4.58148 0
M  V30 1327 N 121.204 0.198386 -1.56346 0
M  V30 1328 C 122.136 1.26987 -1.90806 0
M  V30 1329 C 123.149 1.41877 -0.798419 0
M  V30 1330 O 124.338 1.42362 -1.07682 0
M  V30 1331 C 121.438 2.64246 -2.12196 0
M  V30 1332 C 120.611 2.71007 -3.43328 0
M  V30 1333 C 119.67 3.89439 -3.5387 0
M  V30 1334 O 118.696 3.76695 -4.26719 0
M  V30 1335 N 119.898 5.04752 -2.86715 0
M  V30 1336 H 122.663 0.977433 -2.83313 0
M  V30 1337 H 120.224 0.388322 -1.57174 0
M  V30 1338 H 122.216 3.41896 -2.1654 0
M  V30 1339 H 120.786 2.85992 -1.26204 0
M  V30 1340 H 120.006 1.79657 -3.50881 0
M  V30 1341 H 121.294 2.72512 -4.29668 0
M  V30 1342 H 120.692 5.18004 -2.2735 0
M  V30 1343 H 119.249 5.8036 -2.96691 0
M  V30 1344 N 122.682 1.50554 0.465978 0
M  V30 1345 C 123.907 1.65838 1.24549 0
M  V30 1346 C 124.332 0.343486 1.84937 0
M  V30 1347 O 123.69 -0.69324 1.67523 0
M  V30 1348 C 123.738 2.75533 2.32624 0
M  V30 1349 O 122.842 2.37142 3.37398 0
M  V30 1350 H 122.183 0.553893 0.366194 0
M  V30 1351 H 124.713 1.96959 0.553927 0
M  V30 1352 H 124.723 2.98763 2.77857 0
M  V30 1353 H 123.398 3.70962 1.88043 0
M  V30 1354 H 121.975 2.24377 2.97841 0
M  V30 1355 N 124.16 -0.719506 1.40217 0
M  V30 1356 C 125.07 -1.86378 1.42479 0
M  V30 1357 C 126.086 -1.71073 0.317834 0
M  V30 1358 O 127.262 -1.93406 0.561794 0
M  V30 1359 C 124.327 -3.22136 1.28178 0
M  V30 1360 C 123.388 -3.49723 2.48982 0
M  V30 1361 C 122.621 -4.79004 2.35353 0
M  V30 1362 O 122.844 -5.53821 1.36524 0
M  V30 1363 O 121.778 -5.06839 3.2465 0
M  V30 1364 H 125.604 -1.87425 2.38968 0
M  V30 1365 H 123.189 -0.869405 1.21498 0
M  V30 1366 H 125.071 -4.03234 1.22395 0
M  V30 1367 H 123.746 -3.21825 0.347934 0
M  V30 1368 H 122.653 -2.6865 2.60342 0
M  V30 1369 H 123.986 -3.54828 3.41113 0
M  V30 1370 N 125.638 -1.25649 -0.95132 0
M  V30 1371 C 127.049 -1.09654 -1.51106 0
M  V30 1372 C 127.4 0.326615 -1.93462 0
M  V30 1373 O 126.525 1.21697 -1.78938 0
M  V30 1374 C 127.12 -1.98437 -2.74605 0
M  V30 1375 C 125.679 -1.86618 -3.2688 0
M  V30 1376 C 124.826 -1.9239 -1.99703 0
M  V30 1377 H 127.777 -1.38887 -0.767865 0
M  V30 1378 H 127.798 -1.5263 -3.48546 0
M  V30 1379 H 127.31 -3.02009 -2.43746 0
M  V30 1380 H 125.411 -0.859421 -3.62553 0
M  V30 1381 H 125.524 -2.71607 -3.94673 0
M  V30 1382 H 123.888 -1.36317 -2.15151 0
M  V30 1383 H 124.671 -2.97573 -1.71188 0
M  V30 1384 N 127.117 1.15442 -1.07289 0
M  V30 1385 C 128.364 1.86213 -0.795668 0
M  V30 1386 C 128.692 1.82291 0.678238 0
M  V30 1387 O 127.947 1.24057 1.51355 0
M  V30 1388 C 128.246 3.3489 -1.24834 0
M  V30 1389 C 127.912 3.59007 -2.72809 0
M  V30 1390 C 126.574 3.65298 -3.13227 0
M  V30 1391 C 128.926 3.68762 -3.68326 0
M  V30 1392 C 126.254 3.78854 -4.4798 0
M  V30 1393 C 128.606 3.83842 -5.0284 0
M  V30 1394 C 127.27 3.88378 -5.4288 0
M  V30 1395 H 126.54 0.681403 -0.291155 0
M  V30 1396 H 129.187 1.36435 -1.34379 0
M  V30 1397 H 127.492 3.8687 -0.619595 0
M  V30 1398 H 129.189 3.88052 -1.01076 0
M  V30 1399 H 125.779 3.5475 -2.40521 0
M  V30 1400 H 129.963 3.63202 -3.38227 0
M  V30 1401 H 125.219 3.80623 -4.78472 0
M  V30 1402 H 129.393 3.90332 -5.76727 0
M  V30 1403 H 127.02 3.98635 -6.47298 0
M  V30 1404 N 128.595 0.856903 1.32268 0
M  V30 1405 C 129.842 0.461386 1.97174 0
M  V30 1406 C 130.17 -0.983491 1.67803 0
M  V30 1407 O 129.425 -1.70541 0.959903 0
M  V30 1408 C 129.724 0.649919 3.51441 0
M  V30 1409 C 129.39 2.0656 4.00804 0
M  V30 1410 C 128.052 2.45279 4.13995 0
M  V30 1411 C 130.404 2.98947 4.26943 0
M  V30 1412 C 127.732 3.75653 4.50668 0
M  V30 1413 C 130.084 4.28822 4.65075 0
M  V30 1414 C 128.748 4.67472 4.76472 0
M  V30 1415 H 128.018 0.168833 0.72151 0
M  V30 1416 H 130.665 1.08739 1.57633 0
M  V30 1417 H 128.97 -0.0593018 3.91755 0
M  V30 1418 H 130.667 0.32391 3.9969 0
M  V30 1419 H 127.257 1.75495 3.91024 0
M  V30 1420 H 131.441 2.70265 4.16258 0
M  V30 1421 H 126.697 4.05379 4.57688 0
M  V30 1422 H 130.871 5.0047 4.84255 0
M  V30 1423 H 128.498 5.68539 5.04646 0
M  V30 1424 N 130.073 -1.45103 0.615059 0
M  V30 1425 C 131.02 -2.30586 -0.0993978 0
M  V30 1426 C 131.99 -1.42544 -0.852669 0
M  V30 1427 O 133.175 -1.71465 -0.836917 0
M  V30 1428 C 130.315 -3.27572 -1.08583 0
M  V30 1429 C 129.428 -4.30717 -0.332656 0
M  V30 1430 C 128.563 -5.14807 -1.30947 0
M  V30 1431 C 127.602 -6.09673 -0.544538 0
M  V30 1432 N 126.739 -6.86517 -1.47101 0
M  V30 1433 H 131.579 -2.91144 0.635542 0
M  V30 1434 H 129.116 -1.4346 0.325206 0
M  V30 1435 H 131.074 -3.82276 -1.67095 0
M  V30 1436 H 129.704 -2.68751 -1.78809 0
M  V30 1437 H 128.756 -3.78615 0.368107 0
M  V30 1438 H 130.068 -4.98102 0.263842 0
M  V30 1439 H 129.222 -5.73948 -1.96643 0
M  V30 1440 H 127.961 -4.47458 -1.9399 0
M  V30 1441 H 126.966 -5.49656 0.126003 0
M  V30 1442 H 128.191 -6.79052 0.080947 0
M  V30 1443 H 126.137 -6.21851 -2.08895 0
M  V30 1444 H 126.054 -7.50281 -0.928137 0
M  V30 1445 H 127.322 -7.50194 -2.11731 0
M  V30 1446 N 131.551 -0.354651 -1.53558 0
M  V30 1447 C 132.514 0.484566 -2.24019 0
M  V30 1448 C 133.514 1.01861 -1.24422 0
M  V30 1449 O 134.704 0.906097 -1.4878 0
M  V30 1450 C 131.836 1.67615 -2.96847 0
M  V30 1451 H 133.029 -0.131843 -2.9961 0
M  V30 1452 H 130.582 -0.106165 -1.55939 0
M  V30 1453 H 131.317 2.33095 -2.25471 0
M  V30 1454 H 131.102 1.30029 -3.69912 0
M  V30 1455 H 132.592 2.27114 -3.50441 0
M  V30 1456 N 133.029 1.57378 -0.0835403 0
M  V30 1457 C 134.257 1.98263 0.59157 0
M  V30 1458 C 134.672 0.962302 1.62435 0
M  V30 1459 O 134.029 -0.049581 1.82433 0
M  V30 1460 C 134.08 3.39214 1.24965 0
M  V30 1461 O 133.801 4.37339 0.258186 0
M  V30 1462 C 135.302 3.95038 2.01147 0
M  V30 1463 H 132.522 0.651773 0.159477 0
M  V30 1464 H 135.066 2.03878 -0.159415 0
M  V30 1465 H 133.221 3.34649 1.95164 0
M  V30 1466 H 133.635 5.19371 0.731734 0
M  V30 1467 H 135.109 4.95848 2.42567 0
M  V30 1468 H 135.586 3.32222 2.87272 0
M  V30 1469 H 136.192 4.0304 1.35789 0
M  V30 1470 N 134.507 -0.190092 1.56449 0
M  V30 1471 C 135.918 -0.754312 1.70784 0
M  V30 1472 C 136.269 -1.83631 0.690951 0
M  V30 1473 O 135.394 -2.15868 -0.151604 0
M  V30 1474 C 135.989 -1.37503 3.09642 0
M  V30 1475 C 134.548 -1.88628 3.25725 0
M  V30 1476 C 133.695 -0.758098 2.66736 0
M  V30 1477 H 136.646 0.0350524 1.58661 0
M  V30 1478 H 136.667 -2.2445 3.0725 0
M  V30 1479 H 136.179 -0.587302 3.83631 0
M  V30 1480 H 134.28 -2.70103 2.56661 0
M  V30 1481 H 134.393 -2.04462 4.3328 0
M  V30 1482 H 132.757 -1.17369 2.26046 0
M  V30 1483 H 133.54 0.0174705 3.43296 0
M  V30 1484 N 135.985 -1.50799 -0.457987 0
M  V30 1485 C 136.895 -1.73426 -1.57989 0
M  V30 1486 C 137.911 -0.617745 -1.62665 0
M  V30 1487 O 139.087 -0.897614 -1.80291 0
M  V30 1488 C 136.152 -1.83557 -2.94122 0
M  V30 1489 C 135.213 -3.07345 -2.99729 0
M  V30 1490 C 134.446 -3.16983 -4.29368 0
M  V30 1491 O 134.669 -2.33077 -5.20607 0
M  V30 1492 O 133.603 -4.09812 -4.40837 0
M  V30 1493 H 137.429 -2.68555 -1.41817 0
M  V30 1494 H 135.014 -1.35052 -0.638859 0
M  V30 1495 H 136.896 -1.92326 -3.74952 0
M  V30 1496 H 135.571 -0.916137 -3.10465 0
M  V30 1497 H 134.478 -3.04068 -2.1793 0
M  V30 1498 H 135.811 -3.9891 -2.88326 0
M  V30 1499 N 137.463 0.71206 -1.40597 0
M  V30 1500 C 138.373 1.8562 -1.43466 0
M  V30 1501 C 139.389 1.70902 -0.326902 0
M  V30 1502 O 140.565 1.93105 -0.572043 0
M  V30 1503 C 137.63 3.21451 -1.29884 0
M  V30 1504 C 136.691 3.48398 -2.50833 0
M  V30 1505 C 135.924 4.77749 -2.3789 0
M  V30 1506 O 136.147 5.53089 -1.39459 0
M  V30 1507 O 135.081 5.05111 -3.27333 0
M  V30 1508 H 138.907 1.86155 -2.39958 0
M  V30 1509 H 136.492 0.86295 -1.21957 0
M  V30 1510 H 138.374 4.02579 -1.24531 0
M  V30 1511 H 137.049 3.21636 -0.364997 0
M  V30 1512 H 135.956 2.67265 -2.61763 0
M  V30 1513 H 137.289 3.53014 -3.4299 0
M  V30 1514 N 138.941 1.26152 0.944643 0
M  V30 1515 C 139.888 1.07408 2.04285 0
M  V30 1516 C 140.858 -0.0198413 1.66088 0
M  V30 1517 O 142.043 0.139264 1.90291 0
M  V30 1518 C 139.183 0.70945 3.37729 0
M  V30 1519 C 138.296 1.87926 3.88983 0
M  V30 1520 C 137.431 1.45807 5.10797 0
M  V30 1521 C 136.47 2.5964 5.54305 0
M  V30 1522 N 135.607 2.18226 6.67324 0
M  V30 1523 H 140.447 2.01389 2.1965 0
M  V30 1524 H 137.984 1.00275 1.07626 0
M  V30 1525 H 139.942 0.478948 4.14442 0
M  V30 1526 H 138.572 -0.193389 3.2222 0
M  V30 1527 H 137.624 2.22279 3.08701 0
M  V30 1528 H 138.936 2.73377 4.17213 0
M  V30 1529 H 138.09 1.18781 5.94959 0
M  V30 1530 H 136.829 0.574414 4.84305 0
M  V30 1531 H 135.834 2.87399 4.68702 0
M  V30 1532 H 137.059 3.48599 5.828 0
M  V30 1533 H 135.005 1.3229 6.42523 0
M  V30 1534 H 134.922 2.97221 6.95123 0
M  V30 1535 H 136.19 1.94403 7.54869 0
M  V30 1536 N 140.419 -1.14872 1.07899 0
M  V30 1537 C 141.349 -2.2193 0.725887 0
M  V30 1538 C 142.33 -1.67622 -0.28927 0
M  V30 1539 O 143.515 -1.93533 -0.160787 0
M  V30 1540 C 140.645 -3.47061 0.128856 0
M  V30 1541 C 139.599 -4.14363 1.07178 0
M  V30 1542 C 138.925 -5.33636 0.337229 0
M  V30 1543 C 140.225 -4.63492 2.40775 0
M  V30 1544 H 141.919 -2.51724 1.62097 0
M  V30 1545 H 139.465 -1.20991 0.780838 0
M  V30 1546 H 141.418 -4.21199 -0.130147 0
M  V30 1547 H 140.142 -3.16617 -0.80134 0
M  V30 1548 H 138.801 -3.42173 1.3158 0
M  V30 1549 H 138.449 -4.99449 -0.596606 0
M  V30 1550 H 138.149 -5.79609 0.965788 0
M  V30 1551 H 139.673 -6.10539 0.0861567 0
M  V30 1552 H 141.087 -5.2913 2.20669 0
M  V30 1553 H 139.484 -5.20148 2.99276 0
M  V30 1554 H 140.554 -3.78834 3.02676 0
M  V30 1555 N 141.898 -0.863906 -1.31812 0
M  V30 1556 C 142.845 -0.313303 -2.28664 0
M  V30 1557 C 143.815 0.584868 -1.55462 0
M  V30 1558 O 145 0.517805 -1.83639 0
M  V30 1559 C 142.14 0.48441 -3.41683 0
M  V30 1560 C 141.253 -0.440594 -4.29747 0
M  V30 1561 C 140.388 0.370652 -5.29905 0
M  V30 1562 C 139.427 -0.551164 -6.09613 0
M  V30 1563 N 138.564 0.223462 -7.01744 0
M  V30 1564 H 143.404 -1.14444 -2.75148 0
M  V30 1565 H 140.941 -0.575769 -1.35364 0
M  V30 1566 H 142.899 0.962627 -4.05943 0
M  V30 1567 H 141.529 1.28029 -2.96325 0
M  V30 1568 H 140.581 -1.03724 -3.65986 0
M  V30 1569 H 141.893 -1.14767 -4.85417 0
M  V30 1570 H 141.047 0.911638 -5.99812 0
M  V30 1571 H 139.786 1.11105 -4.74876 0
M  V30 1572 H 138.791 -1.10396 -5.38603 0
M  V30 1573 H 140.016 -1.29032 -6.66729 0
M  V30 1574 H 137.962 0.946787 -6.49132 0
M  V30 1575 H 137.879 -0.424399 -7.54808 0
M  V30 1576 H 139.147 0.745876 -7.75923 0
M  V30 1577 N 143.376 1.44774 -0.622745 0
M  V30 1578 C 144.306 2.33382 0.0741861 0
M  V30 1579 C 145.287 1.47719 0.843387 0
M  V30 1580 O 146.472 1.76458 0.810934 0
M  V30 1581 C 143.602 3.30663 1.06204 0
M  V30 1582 C 142.556 4.26079 0.405037 0
M  V30 1583 C 141.882 5.13165 1.5022 0
M  V30 1584 C 143.182 5.1781 -0.683414 0
M  V30 1585 H 144.876 2.91905 -0.665713 0
M  V30 1586 H 142.422 1.40363 -0.321587 0
M  V30 1587 H 144.375 3.9153 1.55827 0
M  V30 1588 H 143.099 2.70331 1.83272 0
M  V30 1589 H 141.758 3.66532 -0.0704683 0
M  V30 1590 H 141.406 4.49191 2.26355 0
M  V30 1591 H 141.106 5.77812 1.06803 0
M  V30 1592 H 142.63 5.76902 2.00041 0
M  V30 1593 H 144.044 5.72661 -0.270631 0
M  V30 1594 H 142.441 5.91015 -1.04023 0
M  V30 1595 H 143.511 4.59326 -1.55395 0
M  V30 1596 N 144.854 0.36279 1.53368 0
M  V30 1597 C 145.764 -0.492994 2.29362 0
M  V30 1598 C 146.78 -1.09507 1.35219 0
M  V30 1599 O 147.956 -1.10662 1.68273 0
M  V30 1600 C 145.021 -1.61855 3.066 0
M  V30 1601 C 144.082 -1.04429 4.16405 0
M  V30 1602 C 143.315 -2.11621 4.89951 0
M  V30 1603 O 143.538 -3.32684 4.63333 0
M  V30 1604 O 142.472 -1.74835 5.75948 0
M  V30 1605 H 146.298 0.125331 3.03441 0
M  V30 1606 H 143.883 0.127253 1.48857 0
M  V30 1607 H 145.765 -2.27302 3.54841 0
M  V30 1608 H 144.44 -2.22233 2.3536 0
M  V30 1609 H 143.347 -0.353819 3.72423 0
M  V30 1610 H 144.68 -0.485113 4.89804 0
M  V30 1611 N 146.332 -1.57332 0.0918853 0
M  V30 1612 C 147.609 -1.85691 -0.614668 0
M  V30 1613 C 147.989 -0.988146 -1.86545 0
M  V30 1614 O 147.337 -0.0597055 -2.28422 0
M  V30 1615 C 147.547 -3.36294 -0.933126 0
M  V30 1616 C 148.895 -4.04275 -1.29796 0
M  V30 1617 O 149.919 -3.41157 -1.02424 0
M  V30 1618 O 148.778 -5.1564 -1.81047 0
M  V30 1619 H 145.872 -0.767802 -0.307261 0
M  V30 1620 H 148.418 -1.69244 0.12434 0
M  V30 1621 H 147.19 -3.91273 -0.0456404 0
M  V30 1622 H 146.813 -3.58076 -1.72822 0
M  V30 1623 N 147.81 0.181792 -1.56548 0
M  V30 1624 C 149.057 0.900097 -1.81396 0
M  V30 1625 C 149.385 1.82695 -0.667281 0
M  V30 1626 O 148.64 1.92614 0.346146 0
M  V30 1627 C 148.939 1.73728 -3.12335 0
M  V30 1628 C 148.605 0.960255 -4.40556 0
M  V30 1629 C 147.267 0.745766 -4.75386 0
M  V30 1630 C 149.619 0.414477 -5.19549 0
M  V30 1631 C 146.947 -0.0257694 -5.86694 0
M  V30 1632 C 149.299 -0.343916 -6.31664 0
M  V30 1633 C 147.963 -0.569301 -6.65068 0
M  V30 1634 H 147.233 0.329369 -0.663775 0
M  V30 1635 H 149.88 0.165647 -1.90782 0
M  V30 1636 H 148.185 2.54081 -2.98245 0
M  V30 1637 H 149.882 2.29591 -3.28769 0
M  V30 1638 H 146.472 1.13746 -4.13231 0
M  V30 1639 H 150.656 0.567554 -4.93044 0
M  V30 1640 H 145.912 -0.210233 -6.11038 0
M  V30 1641 H 150.086 -0.774133 -6.92084 0
M  V30 1642 H 147.713 -1.16903 -7.51158 0
M  V30 1643 N 149.288 1.51039 0.449983 0
M  V30 1644 C 150.535 1.63081 1.20045 0
M  V30 1645 C 150.863 0.341024 1.91487 0
M  V30 1646 O 150.118 -0.674276 1.83717 0
M  V30 1647 C 150.417 2.77556 2.25161 0
M  V30 1648 C 150.083 4.17289 1.70823 0
M  V30 1649 C 148.745 4.55305 1.55725 0
M  V30 1650 C 151.097 5.04536 1.3074 0
M  V30 1651 C 148.425 5.78287 0.989999 0
M  V30 1652 C 150.777 6.28085 0.754482 0
M  V30 1653 C 149.441 6.64885 0.590308 0
M  V30 1654 H 148.711 0.596755 0.439277 0
M  V30 1655 H 151.358 1.85037 0.49333 0
M  V30 1656 H 149.663 2.49771 3.01863 0
M  V30 1657 H 151.36 2.84073 2.83026 0
M  V30 1658 H 147.95 3.8731 1.83546 0
M  V30 1659 H 152.134 4.75782 1.41229 0
M  V30 1660 H 147.39 6.05456 0.850451 0
M  V30 1661 H 151.564 6.95038 0.435324 0
M  V30 1662 H 149.191 7.60055 0.14862 0
M  V30 1663 N 150.766 -0.704594 1.40972 0
M  V30 1664 C 151.729 -1.80035 1.41845 0
M  V30 1665 C 152.729 -1.57774 0.310474 0
M  V30 1666 O 153.919 -1.64613 0.56992 0
M  V30 1667 C 151.051 -3.18284 1.22098 0
M  V30 1668 H 152.244 -1.80658 2.3938 0
M  V30 1669 H 149.797 -0.911329 1.26982 0
M  V30 1670 H 150.532 -3.23306 0.253672 0
M  V30 1671 H 150.317 -3.35843 2.02366 0
M  V30 1672 H 151.807 -3.98289 1.25522 0
M  V30 1673 N 152.244 -1.26651 -0.937939 0
M  V30 1674 C 153.66 -1.03834 -1.21205 0
M  V30 1675 C 153.86 0.234502 -2.00131 0
M  V30 1676 O 152.916 0.942767 -2.3424 0
M  V30 1677 C 154.229 -2.27167 -1.97017 0
M  V30 1678 C 155.777 -2.32101 -2.09996 0
M  V30 1679 C 156.252 -3.55136 -2.8921 0
M  V30 1680 N 157.743 -3.55632 -2.96783 0
M  V30 1681 C 158.478 -4.475 -3.58512 0
M  V30 1682 N 157.974 -5.4966 -4.21717 0
M  V30 1683 N 159.767 -4.35145 -3.55816 0
M  V30 1684 H 151.918 -2.08398 -0.410391 0
M  V30 1685 H 154.181 -0.916031 -0.244114 0
M  V30 1686 H 153.887 -3.19765 -1.46434 0
M  V30 1687 H 153.761 -2.31672 -2.97671 0
M  V30 1688 H 156.148 -1.40015 -2.59769 0
M  V30 1689 H 156.229 -2.31605 -1.08594 0
M  V30 1690 H 155.873 -4.47553 -2.40123 0
M  V30 1691 H 155.803 -3.5288 -3.90875 0
M  V30 1692 H 158.294 -2.81743 -2.51852 0
M  V30 1693 H 158.607 -6.15943 -4.66727 0
M  V30 1694 H 156.952 -5.53514 -4.20294 0
M  V30 1695 H 160.143 -3.5455 -3.05634 0
M  V30 1696 H 160.316 -5.06934 -4.03636 0
M  V30 1697 N 153.722 1.14298 -1.08507 0
M  V30 1698 C 154.67 2.21483 -0.710483 0
M  V30 1699 C 155.664 1.66998 0.284234 0
M  V30 1700 O 156.87 1.79401 0.146692 0
M  V30 1701 H 153.245 0.721578 -0.211729 0
M  V30 1702 H 155.216 2.50348 -1.62384 0
M  V30 1703 C 153.965 3.4743 -0.137007 0
M  V30 1704 H 153.288 3.89686 -0.893592 0
M  V30 1705 H 154.728 4.2391 0.0872789 0
M  V30 1706 C 153.187 3.17548 1.12538 0
M  V30 1707 O 153.717 3.35437 2.21009 0
M  V30 1708 N 151.923 2.71499 1.03617 0
M  V30 1709 H 151.47 2.57143 0.153403 0
M  V30 1710 H 151.428 2.51881 1.88158 0
M  V30 1711 N 155.201 0.870884 1.31352 0
M  V30 1712 C 156.426 0.495957 2.01383 0
M  V30 1713 C 156.851 -0.904324 1.64935 0
M  V30 1714 O 156.209 -1.59687 0.858466 0
M  V30 1715 C 156.257 0.661433 3.54482 0
M  V30 1716 O 155.361 -0.298851 4.11316 0
M  V30 1717 H 154.702 0.197158 0.634054 0
M  V30 1718 H 157.232 1.17455 1.67527 0
M  V30 1719 H 157.242 0.555072 4.04207 0
M  V30 1720 H 155.917 1.68246 3.8035 0
M  V30 1721 H 154.494 -0.147368 3.72609 0
M  V30 1722 N 156.679 -1.44442 0.630414 0
M  V30 1723 C 157.909 -2.06115 0.141465 0
M  V30 1724 C 158.317 -1.47179 -1.1889 0
M  V30 1725 O 157.66 -0.588873 -1.74006 0
M  V30 1726 C 157.722 -3.59467 -0.0484355 0
M  V30 1727 C 157.386 -4.40864 1.20366 0
M  V30 1728 C 158.383 -4.74391 2.12719 0
M  V30 1729 C 156.068 -4.8125 1.43887 0
M  V30 1730 C 158.062 -5.47186 3.26904 0
M  V30 1731 C 155.749 -5.53795 2.5837 0
M  V30 1732 C 156.747 -5.86682 3.49705 0
M  V30 1733 O 156.435 -6.57749 4.62191 0
M  V30 1734 H 156.167 -0.671648 0.0765792 0
M  V30 1735 H 158.721 -1.86312 0.864695 0
M  V30 1736 H 156.951 -3.77758 -0.826803 0
M  V30 1737 H 158.64 -4.02909 -0.491849 0
M  V30 1738 H 159.406 -4.43728 1.95781 0
M  V30 1739 H 155.285 -4.55073 0.736853 0
M  V30 1740 H 158.829 -5.72773 3.98217 0
M  V30 1741 H 154.726 -5.83872 2.75251 0
M  V30 1742 H 155.494 -6.76217 4.61164 0
M  V30 1743 N 158.157 -0.370918 -1.53173 0
M  V30 1744 C 159.403 0.217423 -2.01631 0
M  V30 1745 C 159.736 1.47983 -1.25756 0
M  V30 1746 O 159.011 1.91274 -0.352764 0
M  V30 1747 C 159.294 0.503982 -3.56556 0
M  V30 1748 C 159.147 -0.77243 -4.43118 0
M  V30 1749 C 160.466 1.30234 -4.20389 0
M  V30 1750 H 157.585 0.0775486 -0.732909 0
M  V30 1751 H 160.227 -0.496863 -1.83388 0
M  V30 1752 H 158.377 1.11248 -3.72231 0
M  V30 1753 H 160.049 -1.4098 -4.39229 0
M  V30 1754 H 158.292 -1.39167 -4.10871 0
M  V30 1755 H 158.963 -0.526815 -5.4948 0
M  V30 1756 H 161.439 0.787546 -4.08579 0
M  V30 1757 H 160.315 1.47158 -5.28806 0
M  V30 1758 H 160.576 2.31237 -3.76805 0
M  V30 1759 N 159.635 1.57281 -0.100228 0
M  V30 1760 C 160.598 2.13158 0.842398 0
M  V30 1761 C 161.598 1.06202 1.20738 0
M  V30 1762 O 162.788 1.32066 1.13597 0
M  V30 1763 C 159.92 2.65639 2.13655 0
M  V30 1764 H 161.113 2.97766 0.357114 0
M  V30 1765 H 158.666 1.5559 0.148823 0
M  V30 1766 H 159.401 1.84566 2.66657 0
M  V30 1767 H 159.186 3.43844 1.88451 0
M  V30 1768 H 160.676 3.08846 2.81077 0
M  V30 1769 N 161.113 -0.173488 1.56642 0
M  V30 1770 C 162.361 -0.888706 1.81512 0
M  V30 1771 C 162.682 -1.82875 0.676872 0
M  V30 1772 O 161.952 -1.93536 -0.303414 0
M  V30 1773 H 160.532 -0.331164 0.669582 0
M  V30 1774 H 163.194 -0.173823 1.94123 0
M  V30 1775 H 162.29 -1.46691 2.75478 0
M  V30 1776 N 162.591 -1.51276 -0.441967 0
M  V30 1777 C 163.523 -1.68444 -1.55433 0
M  V30 1778 C 164.536 -0.565187 -1.52674 0
M  V30 1779 O 165.725 -0.839356 -1.57534 0
M  V30 1780 C 162.825 -1.67966 -2.94348 0
M  V30 1781 C 161.998 -2.964 -3.21661 0
M  V30 1782 C 161.057 -2.88171 -4.40277 0
M  V30 1783 O 160.083 -3.62119 -4.39157 0
M  V30 1784 N 161.285 -2.03706 -5.43584 0
M  V30 1785 H 164.05 -2.644 -1.41112 0
M  V30 1786 H 161.611 -1.49104 -0.630838 0
M  V30 1787 H 163.603 -1.60035 -3.71713 0
M  V30 1788 H 162.173 -0.796225 -3.0229 0
M  V30 1789 H 161.393 -3.18234 -2.32638 0
M  V30 1790 H 162.681 -3.81427 -3.36736 0
M  V30 1791 H 162.079 -1.42995 -5.47329 0
M  V30 1792 H 160.636 -2.01658 -6.1982 0
M  V30 1793 N 164.069 0.697108 -1.41344 0
M  V30 1794 C 165.299 1.48377 -1.43763 0
M  V30 1795 C 165.707 1.89156 -0.0408726 0
M  V30 1796 O 165.05 1.57239 0.949812 0
M  V30 1797 C 165.112 2.7781 -2.2817 0
M  V30 1798 C 164.776 2.59244 -3.76353 0
M  V30 1799 C 165.773 2.25292 -4.68551 0
M  V30 1800 C 163.458 2.74933 -4.20378 0
M  V30 1801 C 165.452 2.07264 -6.02761 0
M  V30 1802 C 163.139 2.56521 -5.54653 0
M  V30 1803 C 164.137 2.22737 -6.4566 0
M  V30 1804 O 163.825 2.04485 -7.77458 0
M  V30 1805 H 163.557 0.463842 -0.491759 0
M  V30 1806 H 166.111 0.865934 -1.86255 0
M  V30 1807 H 164.341 3.41995 -1.8049 0
M  V30 1808 H 166.03 3.39608 -2.22309 0
M  V30 1809 H 166.796 2.12787 -4.35829 0
M  V30 1810 H 162.675 3.00213 -3.49848 0
M  V30 1811 H 166.219 1.80817 -6.73759 0
M  V30 1812 H 162.116 2.68616 -5.86955 0
M  V30 1813 H 162.884 2.1926 -7.88586 0
M  V30 1814 N 165.547 1.27147 0.931209 0
M  V30 1815 C 166.824 1.0401 1.65654 0
M  V30 1816 C 167.204 -0.426297 2.06751 0
M  V30 1817 O 166.552 -1.40879 1.79904 0
M  V30 1818 C 166.762 1.99834 2.86125 0
M  V30 1819 C 168.11 2.29007 3.57549 0
M  V30 1820 O 169.134 1.97779 2.96246 0
M  V30 1821 O 167.993 2.82222 4.67989 0
M  V30 1822 H 165.087 0.396239 0.725895 0
M  V30 1823 H 167.633 1.38397 0.982056 0
M  V30 1824 H 166.405 2.98744 2.52721 0
M  V30 1825 H 166.028 1.65987 3.61295 0
M  V30 1826 N 167.025 -1.13721 1.09112 0
M  V30 1827 C 168.302 -1.81155 0.737706 0
M  V30 1828 C 168.682 -1.96253 -0.777683 0
M  V30 1829 O 168.03 -1.52807 -1.69889 0
M  V30 1830 C 168.24 -3.16392 1.47299 0
M  V30 1831 C 169.588 -3.91787 1.63671 0
M  V30 1832 O 170.612 -3.26005 1.43524 0
M  V30 1833 O 169.471 -5.0977 1.96969 0
M  V30 1834 H 166.565 -0.783518 0.26463 0
M  V30 1835 H 169.111 -1.20676 1.19312 0
M  V30 1836 H 167.883 -3.0061 2.50498 0
M  V30 1837 H 167.506 -3.8457 1.00953 0
M  V30 1838 N 168.503 -0.877838 -1.30888 0
M  V30 1839 C 169.466 -0.344265 -2.266 0
M  V30 1840 C 170.466 0.50922 -1.52524 0
M  V30 1841 O 171.656 0.317398 -1.71284 0
M  V30 1842 C 168.788 0.510198 -3.37061 0
M  V30 1843 H 169.981 -1.1893 -2.7531 0
M  V30 1844 H 167.534 -0.654088 -1.41956 0
M  V30 1845 H 168.269 1.37612 -2.93655 0
M  V30 1846 H 168.054 -0.101047 -3.9197 0
M  V30 1847 H 169.544 0.875537 -4.08319 0
M  V30 1848 N 169.982 1.44106 -0.638065 0
M  V30 1849 C 170.945 2.29138 0.0531013 0
M  V30 1850 C 171.945 1.41409 0.765506 0
M  V30 1851 O 173.135 1.63206 0.609046 0
M  V30 1852 C 170.267 3.23144 1.08584 0
M  V30 1853 H 171.46 2.91739 -0.694883 0
M  V30 1854 H 169.013 1.51134 -0.398538 0
M  V30 1855 H 169.748 2.65408 1.86357 0
M  V30 1856 H 169.533 3.87804 0.578852 0
M  V30 1857 H 171.023 3.87004 1.56899 0
M  V30 1858 N 171.46 0.379036 1.52974 0
M  V30 1859 C 172.685 -0.209353 2.06341 0
M  V30 1860 C 173.11 -1.40583 1.24972 0
M  V30 1861 O 172.468 -1.79246 0.272155 0
M  V30 1862 C 172.516 -0.567786 3.56102 0
M  V30 1863 O 171.62 -1.66318 3.77375 0
M  V30 1864 H 170.961 -0.0272919 0.663439 0
M  V30 1865 H 173.491 0.543536 1.97248 0
M  V30 1866 H 173.501 -0.835003 3.99364 0
M  V30 1867 H 172.176 0.307013 4.14765 0
M  V30 1868 H 170.753 -1.39048 3.46006 0
M  V30 1869 N 172.938 -1.57226 0.108567 0
M  V30 1870 C 174.168 -1.9889 -0.559142 0
M  V30 1871 C 174.576 -0.986889 -1.61422 0
M  V30 1872 O 173.919 0.0298705 -1.83676 0
M  V30 1873 C 173.981 -3.36952 -1.25315 0
M  V30 1874 C 173.645 -4.55679 -0.347248 0
M  V30 1875 C 174.642 -5.18281 0.409996 0
M  V30 1876 C 172.327 -5.0162 -0.261367 0
M  V30 1877 C 174.321 -6.25203 1.24096 0
M  V30 1878 C 172.008 -6.08405 0.573238 0
M  V30 1879 C 173.006 -6.70063 1.32304 0
M  V30 1880 O 172.694 -7.74788 2.14381 0
M  V30 1881 H 172.426 -0.658343 -0.153492 0
M  V30 1882 H 174.98 -2.04532 0.188584 0
M  V30 1883 H 173.21 -3.28032 -2.04773 0
M  V30 1884 H 174.899 -3.62974 -1.81673 0
M  V30 1885 H 175.665 -4.8371 0.353457 0
M  V30 1886 H 171.544 -4.53381 -0.834656 0
M  V30 1887 H 175.088 -6.73259 1.82669 0
M  V30 1888 H 170.985 -6.42406 0.631208 0
M  V30 1889 H 171.753 -7.91837 2.07209 0
M  V30 1890 N 174.416 0.165178 -1.56732 0
M  V30 1891 C 175.348 1.22911 -1.93457 0
M  V30 1892 C 176.361 1.40152 -0.828333 0
M  V30 1893 O 177.55 1.40046 -1.10677 0
M  V30 1894 C 174.65 2.59686 -2.17753 0
M  V30 1895 C 173.823 2.63663 -3.48999 0
M  V30 1896 C 172.882 3.81845 -3.62051 0
M  V30 1897 O 171.908 3.67559 -4.34613 0
M  V30 1898 N 173.11 4.98557 -2.97357 0
M  V30 1899 H 175.875 0.917118 -2.85323 0
M  V30 1900 H 173.436 0.354895 -1.57962 0
M  V30 1901 H 175.428 3.37225 -2.23743 0
M  V30 1902 H 173.998 2.83251 -1.32242 0
M  V30 1903 H 173.218 1.72173 -3.54612 0
M  V30 1904 H 174.506 2.63336 -4.35352 0
M  V30 1905 H 173.904 5.13065 -2.38287 0
M  V30 1906 H 172.461 5.73936 -3.08934 0
M  V30 1907 N 175.894 1.51508 0.433938 0
M  V30 1908 C 177.31 1.39759 0.770682 0
M  V30 1909 C 177.51 0.482594 1.95636 0
M  V30 1910 O 176.566 -0.0609691 2.52426 0
M  V30 1911 C 177.879 2.81851 1.04787 0
M  V30 1912 C 179.427 2.91025 1.1521 0
M  V30 1913 C 179.902 4.34032 1.46219 0
M  V30 1914 N 181.393 4.37154 1.53136 0
M  V30 1915 C 182.128 5.4484 1.78709 0
M  V30 1916 N 181.624 6.62682 2.02051 0
M  V30 1917 N 183.417 5.32324 1.80519 0
M  V30 1918 H 175.568 2.09548 -0.346892 0
M  V30 1919 H 177.831 0.943446 -0.0928074 0
M  V30 1920 H 177.537 3.50815 0.249304 0
M  V30 1921 H 177.411 3.21386 1.97461 0
M  V30 1922 H 179.798 2.22257 1.94128 0
M  V30 1923 H 179.879 2.54983 0.204281 0
M  V30 1924 H 179.523 5.03351 0.678274 0
M  V30 1925 H 179.453 4.6759 2.42212 0
M  V30 1926 H 181.944 3.52197 1.36987 0
M  V30 1927 H 182.257 7.40543 2.20943 0
M  V30 1928 H 180.602 6.65791 1.99366 0
M  V30 1929 H 183.793 4.39246 1.61805 0
M  V30 1930 H 183.966 6.16328 2.00111 0
M  V30 1931 N 177.372 -0.689602 1.41712 0
M  V30 1932 C 178.302 -1.81577 1.46806 0
M  V30 1933 C 179.283 -1.66945 0.326105 0
M  V30 1934 O 180.468 -1.86588 0.538377 0
M  V30 1935 C 177.598 -3.19762 1.35535 0
M  V30 1936 C 176.552 -3.49107 2.47605 0
M  V30 1937 C 175.878 -4.86711 2.21397 0
M  V30 1938 C 177.178 -3.47483 3.89939 0
M  V30 1939 H 178.872 -1.7757 2.41058 0
M  V30 1940 H 176.418 -0.852887 1.16025 0
M  V30 1941 H 178.371 -3.98263 1.3771 0
M  V30 1942 H 177.095 -3.24409 0.377708 0
M  V30 1943 H 175.754 -2.72959 2.44722 0
M  V30 1944 H 175.402 -4.8799 1.21961 0
M  V30 1945 H 175.102 -5.0731 2.96497 0
M  V30 1946 H 176.626 -5.67515 2.25297 0
M  V30 1947 H 178.04 -4.1598 3.94505 0
M  V30 1948 H 176.437 -3.79615 4.64771 0
M  V30 1949 H 177.507 -2.46341 4.17665 0
M  V30 1950 N 178.85 -1.27639 -0.924453 0
M  V30 1951 C 179.798 -1.10485 -2.04685 0
M  V30 1952 C 180.792 -0.0270421 -1.69378 0
M  V30 1953 O 181.998 -0.185008 -1.79047 0
M  V30 1954 H 178.373 -0.340546 -0.670472 0
M  V30 1955 H 180.344 -2.05566 -2.16298 0
M  V30 1956 C 179.093 -0.772229 -3.39016 0
M  V30 1957 H 178.416 -1.59351 -3.66671 0
M  V30 1958 H 179.856 -0.692097 -4.18313 0
M  V30 1959 C 178.315 0.523554 -3.32807 0
M  V30 1960 O 178.845 1.55702 -3.70297 0
M  V30 1961 N 177.051 0.520363 -2.85903 0
M  V30 1962 H 176.598 -0.32107 -2.55591 0
M  V30 1963 H 176.556 1.38742 -2.82131 0
M  V30 1964 N 180.328 1.1314 -1.09713 0
M  V30 1965 C 181.553 1.88862 -0.857081 0
M  V30 1966 C 181.978 1.78729 0.586304 0
M  V30 1967 O 181.336 1.13692 1.41222 0
M  V30 1968 C 181.384 3.36325 -1.30069 0
M  V30 1969 O 180.488 4.09815 -0.461007 0
M  V30 1970 H 179.829 0.587108 -0.310162 0
M  V30 1971 H 182.359 1.43129 -1.46203 0
M  V30 1972 H 182.369 3.87157 -1.28738 0
M  V30 1973 H 181.044 3.43017 -2.35185 0
M  V30 1974 H 179.621 3.68986 -0.538888 0
M  V30 1975 N 181.806 0.884767 1.30421 0
M  V30 1976 C 182.756 0.322846 2.25703 0
M  V30 1977 C 183.74 -0.548582 1.51259 0
M  V30 1978 O 184.932 -0.39304 1.72581 0
M  V30 1979 C 182.061 -0.461787 3.4018 0
M  V30 1980 C 181.147 0.423717 4.21978 0
M  V30 1981 N 181.538 1.52408 4.82292 0
M  V30 1982 C 179.836 0.218795 4.45463 0
M  V30 1983 C 180.537 2.07136 5.43571 0
M  V30 1984 N 179.513 1.36635 5.26148 0
M  V30 1985 H 183.315 1.16363 2.69883 0
M  V30 1986 H 180.829 0.73415 1.44859 0
M  V30 1987 H 182.826 -0.880985 4.07485 0
M  V30 1988 H 181.486 -1.30001 2.9754 0
M  V30 1989 H 182.497 1.90693 4.81515 0
M  V30 1990 H 179.174 -0.582275 4.1342 0
M  V30 1991 H 180.564 2.99538 6.01437 0
M  V30 1992 N 183.284 -1.43765 0.645699 0
M  V30 1993 C 184.217 -2.2798 -0.100072 0
M  V30 1994 C 185.195 -1.39391 -0.837194 0
M  V30 1995 O 186.379 -1.68833 -0.838306 0
M  V30 1996 C 183.506 -3.18643 -1.14823 0
M  V30 1997 C 182.552 -4.2344 -0.510009 0
M  V30 1998 S 183.385 -5.30761 0.710824 0
M  V30 1999 C 184.541 -6.24992 -0.33699 0
M  V30 2000 H 184.774 -2.90884 0.614322 0
M  V30 2001 H 182.307 -1.48166 0.434304 0
M  V30 2002 H 184.265 -3.71424 -1.74799 0
M  V30 2003 H 182.926 -2.54932 -1.8349 0
M  V30 2004 H 182.119 -4.86948 -1.29991 0
M  V30 2005 H 181.721 -3.73997 0.0154577 0
M  V30 2006 H 184.013 -6.66691 -1.20537 0
M  V30 2007 H 184.956 -7.07612 0.262879 0
M  V30 2008 H 185.364 -5.60517 -0.669425 0
M  V30 2009 N 184.763 -0.387143 -1.52771 0
M  V30 2010 C 185.711 0.463953 -2.27926 0
M  V30 2011 C 186.705 1.06493 -1.31741 0
M  V30 2012 O 187.911 1.00565 -1.49287 0
M  V30 2013 H 184.286 0.16837 -0.732909 0
M  V30 2014 H 186.257 -0.19141 -2.97785 0
M  V30 2015 C 185.006 1.5803 -3.09713 0
M  V30 2016 H 184.329 1.12718 -3.83581 0
M  V30 2017 H 185.769 2.15008 -3.65442 0
M  V30 2018 C 184.228 2.53509 -2.2189 0
M  V30 2019 O 184.758 3.56863 -1.84422 0
M  V30 2020 N 182.964 2.23199 -1.86093 0
M  V30 2021 H 182.511 1.39185 -2.16761 0
M  V30 2022 H 182.469 2.87333 -1.27621 0
M  V30 2023 N 186.241 1.57166 -0.116904 0
M  V30 2024 C 187.204 2.14039 0.819742 0
M  V30 2025 C 188.204 1.07477 1.19605 0
M  V30 2026 O 189.394 1.33263 1.1219 0
M  V30 2027 C 186.526 2.67891 2.10826 0
M  V30 2028 H 187.719 2.98128 0.325511 0
M  V30 2029 H 185.272 1.55739 0.132312 0
M  V30 2030 H 186.007 1.87384 2.64685 0
M  V30 2031 H 185.792 3.45823 1.84793 0
M  V30 2032 H 187.282 3.11809 2.77785 0
M  V30 2033 N 187.719 -0.156864 1.56817 0
M  V30 2034 C 188.649 -1.19589 2.00551 0
M  V30 2035 C 189.63 -1.4536 0.883426 0
M  V30 2036 O 190.815 -1.56449 1.15054 0
M  V30 2037 C 187.945 -2.53143 2.37773 0
M  V30 2038 C 186.899 -2.41913 3.53075 0
M  V30 2039 C 186.225 -3.80088 3.76081 0
M  V30 2040 C 187.525 -1.91157 4.86062 0
M  V30 2041 H 189.219 -0.832293 2.87599 0
M  V30 2042 H 186.765 -0.398918 1.38364 0
M  V30 2043 H 188.718 -3.26047 2.66967 0
M  V30 2044 H 187.442 -2.91319 1.4765 0
M  V30 2045 H 186.101 -1.71462 3.24031 0
M  V30 2046 H 185.749 -4.15683 2.83225 0
M  V30 2047 H 185.449 -3.73439 4.53671 0
M  V30 2048 H 186.973 -4.54556 4.0769 0
M  V30 2049 H 188.387 -2.53846 5.14038 0
M  V30 2050 H 186.784 -1.95422 5.67389 0
M  V30 2051 H 187.854 -0.866673 4.77092 0
M  V30 2052 N 189.197 -1.51736 -0.425897 0
M  V30 2053 C 190.147 -1.70258 -1.51645 0
M  V30 2054 C 191.131 -0.556488 -1.5097 0
M  V30 2055 O 192.323 -0.812879 -1.5723 0
M  V30 2056 C 189.452 -1.84143 -2.89735 0
M  V30 2057 C 188.538 -3.04572 -2.95122 0
M  V30 2058 N 188.929 -4.2756 -2.70233 0
M  V30 2059 C 187.227 -3.04061 -3.26286 0
M  V30 2060 C 187.928 -5.08908 -2.81757 0
M  V30 2061 N 186.904 -4.43797 -3.13919 0
M  V30 2062 H 190.706 -2.63004 -1.31172 0
M  V30 2063 H 188.22 -1.4954 -0.633375 0
M  V30 2064 H 190.217 -1.95525 -3.68206 0
M  V30 2065 H 188.877 -0.925857 -3.1122 0
M  V30 2066 H 189.888 -4.56315 -2.44943 0
M  V30 2067 H 186.565 -2.22179 -3.53473 0
M  V30 2068 H 187.955 -6.16843 -2.66372 0
M  V30 2069 N 190.675 0.682077 -1.42076 0
M  V30 2070 C 191.605 1.80796 -1.47767 0
M  V30 2071 C 192.586 1.6677 -0.334954 0
M  V30 2072 O 193.771 1.863 -0.548264 0
M  V30 2073 C 190.901 3.19038 -1.37229 0
M  V30 2074 C 189.855 3.47789 -2.49453 0
M  V30 2075 C 189.181 4.8553 -2.23975 0
M  V30 2076 C 190.481 3.45411 -3.91776 0
M  V30 2077 H 192.175 1.7629 -2.41997 0
M  V30 2078 H 189.721 0.846721 -1.16476 0
M  V30 2079 H 191.674 3.97528 -1.39821 0
M  V30 2080 H 190.398 3.24204 -0.394907 0
M  V30 2081 H 189.057 2.71657 -2.46166 0
M  V30 2082 H 188.705 4.87337 -1.24547 0
M  V30 2083 H 188.405 5.0573 -2.99184 0
M  V30 2084 H 189.929 5.66312 -2.28304 0
M  V30 2085 H 191.343 4.13882 -3.96705 0
M  V30 2086 H 189.74 3.77145 -4.66778 0
M  V30 2087 H 190.81 2.44122 -4.18966 0
M  V30 2088 N 192.153 1.28127 0.917671 0
M  V30 2089 C 193.401 1.14825 1.66312 0
M  V30 2090 C 193.722 -0.304379 1.9261 0
M  V30 2091 O 192.992 -1.21149 1.53947 0
M  V30 2092 H 191.572 0.421953 0.616413 0
M  V30 2093 H 194.234 1.608 1.10134 0
M  V30 2094 H 193.33 1.68489 2.62712 0
M  V30 2095 N 193.631 -1.12557 1.10312 0
M  V30 2096 C 194.856 -1.88405 0.867085 0
M  V30 2097 C 195.281 -1.79038 -0.576817 0
M  V30 2098 O 194.639 -1.14439 -1.40618 0
M  V30 2099 C 194.687 -3.3563 1.31851 0
M  V30 2100 O 193.791 -4.09565 0.482734 0
M  V30 2101 H 193.132 -0.585455 0.313271 0
M  V30 2102 H 195.662 -1.42352 1.4696 0
M  V30 2103 H 195.672 -3.86469 1.3079 0
M  V30 2104 H 194.347 -3.41765 2.37001 0
M  V30 2105 H 192.924 -3.68695 0.558448 0
M  V30 2106 N 195.109 -0.891671 -1.2995 0
M  V30 2107 C 196.041 -0.320695 -2.26945 0
M  V30 2108 C 197.054 0.528497 -1.53983 0
M  V30 2109 O 198.243 0.346959 -1.75096 0
M  V30 2110 C 195.343 0.562066 -3.34207 0
M  V30 2111 C 194.516 -0.259576 -4.36629 0
M  V30 2112 C 193.575 0.554739 -5.23268 0
M  V30 2113 O 192.601 -0.0249311 -5.69195 0
M  V30 2114 N 193.803 1.8625 -5.4981 0
M  V30 2115 H 196.568 -1.15432 -2.76578 0
M  V30 2116 H 194.129 -0.755336 -1.432 0
M  V30 2117 H 196.121 1.11304 -3.89093 0
M  V30 2118 H 194.691 1.29637 -2.84452 0
M  V30 2119 H 193.911 -0.991986 -3.81514 0
M  V30 2120 H 195.199 -0.822564 -5.02107 0
M  V30 2121 H 194.597 2.35628 -5.14292 0
M  V30 2122 H 193.154 2.36078 -6.07545 0
M  V30 2123 N 196.587 1.43421 -0.653314 0
M  V30 2124 C 197.55 2.29182 0.0287951 0
M  V30 2125 C 198.55 1.42213 0.750465 0
M  V30 2126 O 199.74 1.63843 0.591701 0
M  V30 2127 C 196.872 3.24278 1.05151 0
M  V30 2128 H 198.065 2.90985 -0.725786 0
M  V30 2129 H 195.618 1.50702 -0.414545 0
M  V30 2130 H 196.353 2.6737 1.83532 0
M  V30 2131 H 196.138 3.88396 0.537687 0
M  V30 2132 H 197.628 3.88647 1.52786 0
M  V30 2133 N 198.065 0.39524 1.52563 0
M  V30 2134 C 199.013 -0.451859 2.28169 0
M  V30 2135 C 200.007 -1.05792 1.32304 0
M  V30 2136 O 201.213 -0.997718 1.49818 0
M  V30 2137 H 197.588 -0.164481 0.733792 0
M  V30 2138 H 199.559 0.207199 2.9768 0
M  V30 2139 C 198.308 -1.56385 3.10546 0
M  V30 2140 H 197.631 -1.10682 3.84174 0
M  V30 2141 H 199.071 -2.13067 3.66577 0
M  V30 2142 C 197.53 -2.52328 2.23231 0
M  V30 2143 O 198.06 -3.5588 1.86312 0
M  V30 2144 N 196.266 -2.22209 1.87274 0
M  V30 2145 H 195.813 -1.38033 2.17496 0
M  V30 2146 H 195.771 -2.86652 1.29143 0
M  V30 2147 N 199.544 -1.57102 0.125237 0
M  V30 2148 C 200.96 -1.57915 -0.231322 0
M  V30 2149 C 201.16 -1.13833 -1.66266 0
M  V30 2150 O 200.216 -0.828581 -2.38518 0
M  V30 2151 C 201.529 -3.00699 0.00766489 0
M  V30 2152 C 203.077 -3.12947 -0.0577483 0
M  V30 2153 C 203.552 -4.57742 0.153626 0
M  V30 2154 N 205.043 -4.63092 0.0998073 0
M  V30 2155 C 205.778 -5.72905 0.238174 0
M  V30 2156 N 205.274 -6.91445 0.433057 0
M  V30 2157 N 207.067 -5.6182 0.177308 0
M  V30 2158 H 199.218 -1.84055 1.06007 0
M  V30 2159 H 201.481 -0.850905 0.417929 0
M  V30 2160 H 201.187 -3.3726 0.997431 0
M  V30 2161 H 201.061 -3.70236 -0.721452 0
M  V30 2162 H 203.448 -2.7624 -1.03804 0
M  V30 2163 H 203.529 -2.4594 0.70335 0
M  V30 2164 H 203.173 -4.95149 1.13092 0
M  V30 2165 H 203.103 -5.22848 -0.627534 0
M  V30 2166 H 205.594 -3.77871 -0.047051 0
M  V30 2167 H 205.907 -7.70985 0.529332 0
M  V30 2168 H 204.252 -6.93415 0.469109 0
M  V30 2169 H 207.443 -4.68093 0.0259748 0
M  V30 2170 H 207.616 -6.47357 0.288582 0
M  V30 2171 N 201.022 0.148545 -1.56898 0
M  V30 2172 C 201.952 1.18524 -2.01182 0
M  V30 2173 C 202.933 1.4489 -0.891123 0
M  V30 2174 O 204.118 1.55836 -1.15882 0
M  V30 2175 C 201.248 2.51879 -2.39112 0
M  V30 2176 C 200.202 2.40038 -3.54353 0
M  V30 2177 C 199.528 3.78089 -3.78091 0
M  V30 2178 C 200.828 1.88577 -4.87069 0
M  V30 2179 H 202.522 0.817029 -2.88036 0
M  V30 2180 H 200.068 0.391575 -1.38574 0
M  V30 2181 H 202.021 3.24627 -2.68692 0
M  V30 2182 H 200.745 2.90532 -1.49193 0
M  V30 2183 H 199.404 1.69742 -3.24936 0
M  V30 2184 H 199.052 4.14175 -2.85426 0
M  V30 2185 H 198.752 3.71028 -4.55645 0
M  V30 2186 H 200.276 4.52387 -4.10095 0
M  V30 2187 H 201.69 2.51117 -5.15377 0
M  V30 2188 H 200.087 1.9241 -5.68417 0
M  V30 2189 H 201.157 0.84136 -4.77545 0
M  V30 2190 N 202.5 1.5196 0.417844 0
M  V30 2191 C 203.747 1.65591 1.16559 0
M  V30 2192 C 204.075 0.381565 1.90721 0
M  V30 2193 O 203.33 -0.635156 1.85106 0
M  V30 2194 C 203.629 2.82269 2.19223 0
M  V30 2195 C 203.295 4.20819 1.61933 0
M  V30 2196 C 201.957 4.58506 1.46033 0
M  V30 2197 C 204.309 5.07196 1.20008 0
M  V30 2198 C 201.637 5.80257 0.867113 0
M  V30 2199 C 203.989 6.29544 0.621086 0
M  V30 2200 C 202.653 6.65987 0.449144 0
M  V30 2201 H 201.923 0.605939 0.42652 0
M  V30 2202 H 204.57 1.86041 0.45397 0
M  V30 2203 H 202.875 2.56118 2.96498 0
M  V30 2204 H 204.572 2.90012 2.76936 0
M  V30 2205 H 201.162 3.91116 1.7529 0
M  V30 2206 H 205.346 4.7867 1.31105 0
M  V30 2207 H 200.602 6.07124 0.721833 0
M  V30 2208 H 204.776 6.95805 0.287798 0
M  V30 2209 H 202.403 7.60199 -0.012632 0
M  V30 2210 N 203.978 -0.674533 1.42435 0
M  V30 2211 C 205.208 -1.46071 1.46105 0
M  V30 2212 C 205.616 -1.89067 0.0709605 0
M  V30 2213 O 204.959 -1.58731 -0.924677 0
M  V30 2214 C 205.021 -2.74145 2.32561 0
M  V30 2215 C 204.685 -2.53224 3.8043 0
M  V30 2216 C 205.682 -2.17809 4.72075 0
M  V30 2217 C 203.367 -2.6821 4.24698 0
M  V30 2218 C 205.361 -1.97648 6.05982 0
M  V30 2219 C 203.048 -2.47665 5.58664 0
M  V30 2220 C 204.046 -2.12437 6.49122 0
M  V30 2221 O 203.734 -1.9209 7.80613 0
M  V30 2222 H 203.466 -0.455959 0.499076 0
M  V30 2223 H 206.02 -0.836193 1.87609 0
M  V30 2224 H 204.25 -3.3908 1.85908 0
M  V30 2225 H 205.939 -3.36028 2.27683 0
M  V30 2226 H 206.705 -2.05826 4.39159 0
M  V30 2227 H 202.584 -2.94609 3.54579 0
M  V30 2228 H 206.128 -1.70075 6.7655 0
M  V30 2229 H 202.025 -2.59244 5.91154 0
M  V30 2230 H 202.793 -2.06686 7.91974 0
M  V30 2231 N 205.456 -1.28612 -0.910864 0
M  V30 2232 C 206.386 -1.15326 -2.03032 0
M  V30 2233 C 207.367 -0.0502924 -1.70026 0
M  V30 2234 O 208.552 -0.227797 -1.92859 0
M  V30 2235 C 205.682 -0.817343 -3.37545 0
M  V30 2236 C 204.636 -1.8754 -3.84724 0
M  V30 2237 C 203.962 -1.39305 -5.16235 0
M  V30 2238 C 205.262 -3.28244 -4.06267 0
M  V30 2239 H 206.956 -2.08975 -2.14406 0
M  V30 2240 H 204.502 -1.00612 -1.03021 0
M  V30 2241 H 206.455 -0.711151 -4.15356 0
M  V30 2242 H 205.179 0.154846 -3.26233 0
M  V30 2243 H 203.838 -1.97079 -3.09121 0
M  V30 2244 H 203.486 -0.409846 -5.01328 0
M  V30 2245 H 203.186 -2.10057 -5.48771 0
M  V30 2246 H 204.71 -1.30014 -5.96598 0
M  V30 2247 H 206.124 -3.21611 -4.74594 0
M  V30 2248 H 204.521 -3.96855 -4.5014 0
M  V30 2249 H 205.591 -3.72048 -3.10979 0
M  V30 2250 N 206.934 1.1197 -1.10907 0
M  V30 2251 C 207.897 2.16031 -0.765707 0
M  V30 2252 C 208.897 1.59393 0.212235 0
M  V30 2253 O 210.087 1.74196 -0.0115441 0
M  V30 2254 C 207.219 3.40632 -0.135053 0
M  V30 2255 H 208.412 2.47919 -1.68748 0
M  V30 2256 H 205.965 1.27061 -0.910226 0
M  V30 2257 H 206.7 3.14348 0.797218 0
M  V30 2258 H 206.485 3.8302 -0.838937 0
M  V30 2259 H 207.975 4.17505 0.0892469 0
M  V30 2260 N 208.412 0.89855 1.29475 0
M  V30 2261 C 209.342 0.39201 2.30186 0
M  V30 2262 C 210.323 -0.532359 1.61555 0
M  V30 2263 O 211.508 -0.443331 1.89072 0
M  V30 2264 C 208.638 -0.382353 3.45189 0
M  V30 2265 C 207.592 0.451483 4.25612 0
M  V30 2266 C 206.918 -0.450307 5.328 0
M  V30 2267 C 208.218 1.70079 4.93832 0
M  V30 2268 H 209.912 1.23362 2.72804 0
M  V30 2269 H 207.458 0.594638 1.31149 0
M  V30 2270 H 209.411 -0.747451 4.14718 0
M  V30 2271 H 208.135 -1.25774 3.01411 0
M  V30 2272 H 206.794 0.798897 3.57789 0
M  V30 2273 H 206.442 -1.32379 4.85268 0
M  V30 2274 H 206.142 0.103902 5.87508 0
M  V30 2275 H 207.666 -0.811623 6.05182 0
M  V30 2276 H 209.08 1.40549 5.55805 0
M  V30 2277 H 207.477 2.19623 5.58467 0
M  V30 2278 H 208.547 2.43744 4.19186 0
M  V30 2279 N 209.89 -1.43072 0.660911 0
M  V30 2280 C 211.301 -1.84932 0.256348 0
M  V30 2281 C 211.652 -1.55325 -1.19868 0
M  V30 2282 O 210.777 -1.00607 -1.91591 0
M  V30 2283 C 211.372 -3.35684 0.458475 0
M  V30 2284 C 209.931 -3.76245 0.108161 0
M  V30 2285 C 209.078 -2.66749 0.757641 0
M  V30 2286 H 212.029 -1.33116 0.864051 0
M  V30 2287 H 212.05 -3.79365 -0.293683 0
M  V30 2288 H 211.562 -3.572 1.51755 0
M  V30 2289 H 209.663 -3.60338 -0.948014 0
M  V30 2290 H 209.776 -4.76058 0.538992 0
M  V30 2291 H 208.14 -2.53989 0.190185 0
M  V30 2292 H 208.923 -2.91092 1.81989 0
M  V30 2293 N 211.368 -0.403325 -1.52352 0
M  V30 2294 C 212.779 0.0675782 -1.86578 0
M  V30 2295 C 213.13 1.44941 -1.32236 0
M  V30 2296 O 212.255 2.06112 -0.659307 0
M  V30 2297 C 212.85 0.129404 -3.38553 0
M  V30 2298 C 211.409 0.544629 -3.72439 0
M  V30 2299 C 210.556 -0.284551 -2.75836 0
M  V30 2300 H 213.507 -0.620631 -1.46061 0
M  V30 2301 H 213.528 0.94581 -3.68558 0
M  V30 2302 H 213.04 -0.87645 -3.78074 0
M  V30 2303 H 211.141 1.55734 -3.38493 0
M  V30 2304 H 211.254 0.293046 -4.78203 0
M  V30 2305 H 209.618 0.252258 -2.53448 0
M  V30 2306 H 210.401 -1.28865 -3.18196 0
M  V30 2307 N 212.846 1.57033 -0.133567 0
M  V30 2308 C 214.074 2.00044 0.528195 0
M  V30 2309 C 214.489 1.01349 1.59291 0
M  V30 2310 O 213.846 0.00848369 1.82498 0
M  V30 2311 C 213.897 3.43018 1.1411 0
M  V30 2312 O 213.618 4.37939 0.11892 0
M  V30 2313 C 215.119 4.01237 1.88477 0
M  V30 2314 H 212.339 0.656517 0.138661 0
M  V30 2315 H 214.883 2.03267 -0.224196 0
M  V30 2316 H 213.038 3.40688 1.84418 0
M  V30 2317 H 213.452 5.21436 0.56613 0
M  V30 2318 H 214.926 5.03314 2.26669 0
M  V30 2319 H 215.403 3.41193 2.76558 0
M  V30 2320 H 216.009 4.07156 1.22898 0
M  V30 2321 N 214.325 -0.140222 1.56975 0
M  V30 2322 C 215.571 -0.852949 1.83991 0
M  V30 2323 C 215.904 -1.80512 0.716187 0
M  V30 2324 O 215.179 -1.92479 -0.279681 0
M  V30 2325 C 215.462 -1.6215 3.21527 0
M  V30 2326 C 215.315 -0.690363 4.4447 0
M  V30 2327 C 216.634 -2.58247 3.56366 0
M  V30 2328 H 213.753 -0.308634 0.669264 0
M  V30 2329 H 216.395 -0.117898 1.89634 0
M  V30 2330 H 214.545 -2.24812 3.16847 0
M  V30 2331 H 216.217 -0.0742264 4.6124 0
M  V30 2332 H 214.46 -0.000396433 4.338 0
M  V30 2333 H 215.131 -1.2643 5.37326 0
M  V30 2334 H 217.607 -2.05701 3.61699 0
M  V30 2335 H 216.483 -3.09067 4.53617 0
M  V30 2336 H 216.744 -3.39923 2.82674 0
M  V30 2337 N 215.803 -1.52179 -0.40978 0
M  V30 2338 C 217.033 -1.69807 -1.17682 0
M  V30 2339 C 217.441 -0.406908 -1.84773 0
M  V30 2340 O 216.784 0.626863 -1.72673 0
M  V30 2341 C 216.846 -2.77712 -2.2829 0
M  V30 2342 C 216.51 -4.19481 -1.81341 0
M  V30 2343 C 217.507 -5.03345 -1.30154 0
M  V30 2344 C 215.192 -4.65713 -1.88194 0
M  V30 2345 C 217.186 -6.31511 -0.864416 0
M  V30 2346 C 214.873 -5.93869 -1.44093 0
M  V30 2347 C 215.871 -6.76597 -0.933023 0
M  V30 2348 O 215.559 -8.02354 -0.49838 0
M  V30 2349 H 215.291 -0.572372 -0.359675 0
M  V30 2350 H 217.845 -1.99511 -0.488311 0
M  V30 2351 H 216.075 -2.43383 -3.00502 0
M  V30 2352 H 217.764 -2.83946 -2.90051 0
M  V30 2353 H 218.53 -4.68819 -1.24232 0
M  V30 2354 H 214.409 -4.01424 -2.26671 0
M  V30 2355 H 217.953 -6.96033 -0.467286 0
M  V30 2356 H 213.85 -6.27903 -1.49694 0
M  V30 2357 H 214.618 -8.16135 -0.621747 0
M  V30 2358 N 217.281 0.66697 -1.42791 0
M  V30 2359 C 218.191 1.80962 -1.49299 0
M  V30 2360 C 219.207 1.69775 -0.381108 0
M  V30 2361 O 220.383 1.91188 -0.633188 0
M  V30 2362 C 217.448 3.17156 -1.40045 0
M  V30 2363 C 216.509 3.40242 -2.6179 0
M  V30 2364 C 215.742 4.69939 -2.52969 0
M  V30 2365 O 215.965 5.48372 -1.56985 0
M  V30 2366 O 214.899 4.94441 -3.43237 0
M  V30 2367 H 218.725 1.78427 -2.45759 0
M  V30 2368 H 216.31 0.823713 -1.24641 0
M  V30 2369 H 218.192 3.98413 -1.37276 0
M  V30 2370 H 216.867 3.20312 -0.467138 0
M  V30 2371 H 215.774 2.58802 -2.70134 0
M  V30 2372 H 217.107 3.41923 -3.54047 0
M  V30 2373 N 218.759 1.29093 0.90403 0
M  V30 2374 C 219.722 1.1386 1.98919 0
M  V30 2375 C 220.722 0.0753457 1.60623 0
M  V30 2376 O 221.912 0.321931 1.71199 0
M  V30 2377 C 219.044 0.740198 3.32767 0
M  V30 2378 H 220.237 2.10246 2.13861 0
M  V30 2379 H 217.79 1.12218 1.08797 0
M  V30 2380 H 218.525 -0.223997 3.23525 0
M  V30 2381 H 218.31 1.50838 3.61926 0
M  V30 2382 H 219.8 0.656546 4.12407 0
M  V30 2383 N 220.237 -1.11381 1.11499 0
M  V30 2384 C 221.483 -1.83403 0.865512 0
M  V30 2385 C 221.816 -1.84459 -0.607329 0
M  V30 2386 O 221.091 -1.29811 -1.44842 0
M  V30 2387 C 221.374 -3.30552 1.42855 0
M  V30 2388 C 221.227 -3.37886 2.96906 0
M  V30 2389 C 222.546 -4.26643 1.08 0
M  V30 2390 H 219.665 -0.665879 0.31587 0
M  V30 2391 H 222.307 -1.30601 1.37998 0
M  V30 2392 H 220.457 -3.75648 0.990985 0
M  V30 2393 H 222.129 -3.01343 3.49271 0
M  V30 2394 H 220.372 -2.78088 3.32941 0
M  V30 2395 H 221.043 -4.41458 3.31389 0
M  V30 2396 H 223.519 -3.89729 1.45775 0
M  V30 2397 H 222.395 -5.27986 1.50072 0
M  V30 2398 H 222.656 -4.42099 -0.00915037 0
M  V30 2399 N 221.715 -0.905404 -1.28997 0
M  V30 2400 C 222.943 -0.549846 -1.9946 0
M  V30 2401 C 223.358 0.866834 -1.67724 0
M  V30 2402 O 222.715 1.57298 -0.925404 0
M  V30 2403 C 222.766 -0.739387 -3.53858 0
M  V30 2404 O 222.487 -2.10031 -3.84472 0
M  V30 2405 C 223.988 -0.389541 -4.41585 0
M  V30 2406 H 221.208 -0.210429 -0.637151 0
M  V30 2407 H 223.752 -1.21632 -1.64396 0
M  V30 2408 H 221.907 -0.120023 -3.87214 0
M  V30 2409 H 222.321 -2.13385 -4.79132 0
M  V30 2410 H 223.795 -0.572972 -5.49018 0
M  V30 2411 H 224.272 0.673756 -4.34001 0
M  V30 2412 H 224.878 -0.986089 -4.1371 0
M  V30 2413 N 223.193 1.4272 -0.668489 0
M  V30 2414 C 224.14 2.30796 0.0137489 0
M  V30 2415 C 225.11 1.4561 0.799177 0
M  V30 2416 O 226.295 1.74453 0.772702 0
M  V30 2417 C 223.435 3.31377 0.963507 0
M  V30 2418 C 222.548 4.31655 0.172569 0
M  V30 2419 C 221.683 5.19312 1.1175 0
M  V30 2420 C 220.722 6.11274 0.317886 0
M  V30 2421 N 219.859 6.91504 1.2152 0
M  V30 2422 H 224.699 2.88585 -0.743161 0
M  V30 2423 H 222.236 1.42154 -0.378226 0
M  V30 2424 H 224.194 3.88214 1.52792 0
M  V30 2425 H 222.824 2.75202 1.68712 0
M  V30 2426 H 221.876 3.76988 -0.508374 0
M  V30 2427 H 223.188 4.96779 -0.448527 0
M  V30 2428 H 222.342 5.80851 1.75206 0
M  V30 2429 H 221.081 4.5435 1.77249 0
M  V30 2430 H 220.086 5.48809 -0.329918 0
M  V30 2431 H 221.311 6.78283 -0.332917 0
M  V30 2432 H 219.257 6.29176 1.85671 0
M  V30 2433 H 219.174 7.53209 0.649036 0
M  V30 2434 H 220.442 7.57535 1.83742 0
M  V30 2435 N 224.671 0.411399 1.52136 0
M  V30 2436 C 225.619 -0.427633 2.28635 0
M  V30 2437 C 226.613 -1.04383 1.33419 0
M  V30 2438 O 227.819 -0.981772 1.50868 0
M  V30 2439 H 224.194 -0.156689 0.735495 0
M  V30 2440 H 226.165 0.238761 2.97443 0
M  V30 2441 C 224.914 -1.53082 3.12188 0
M  V30 2442 H 224.237 -1.06601 3.85326 0
M  V30 2443 H 225.677 -2.09167 3.68816 0
M  V30 2444 C 224.136 -2.49946 2.25895 0
M  V30 2445 O 224.666 -3.53884 1.90076 0
M  V30 2446 N 222.872 -2.2021 1.8962 0
M  V30 2447 H 222.419 -1.35719 2.18948 0
M  V30 2448 H 222.377 -2.85266 1.32176 0
M  V30 2449 N 226.149 -1.5696 0.141893 0
M  V30 2450 C 227.398 -1.95135 -0.510427 0
M  V30 2451 C 227.711 -1.02896 -1.66348 0
M  V30 2452 O 228.917 -1.30629 -2.38009 0
M  V30 2453 C 227.373 -3.46876 -0.959427 0
M  V30 2454 C 226.981 -4.47691 0.166419 0
M  V30 2455 C 228.725 -3.93927 -1.58183 0
M  V30 2456 C 226.632 -5.90636 -0.300565 0
M  V30 2457 H 225.562 -0.728494 -0.194454 0
M  V30 2458 H 228.213 -1.8211 0.22542 0
M  V30 2459 H 226.595 -3.55215 -1.75038 0
M  V30 2460 H 227.769 -4.51043 0.94325 0
M  V30 2461 H 226.084 -4.10527 0.696905 0
M  V30 2462 H 228.681 -4.98158 -1.94275 0
M  V30 2463 H 229.024 -3.3519 -2.46888 0
M  V30 2464 H 229.557 -3.88484 -0.855863 0
M  V30 2465 H 226.296 -6.5318 0.550989 0
M  V30 2466 H 225.816 -5.90655 -1.04338 0
M  V30 2467 H 227.495 -6.42588 -0.754265 0
M  V30 2468 N 227.627 0.131896 -1.57047 0
M  V30 2469 C 228.577 1.1679 -1.95816 0
M  V30 2470 C 229.561 1.37756 -0.831393 0
M  V30 2471 O 230.753 1.39065 -1.09499 0
M  V30 2472 C 227.882 2.49778 -2.35512 0
M  V30 2473 C 226.968 2.32342 -3.54793 0
M  V30 2474 N 227.359 1.8469 -4.70875 0
M  V30 2475 C 225.657 2.63043 -3.60173 0
M  V30 2476 C 226.358 1.80656 -5.52936 0
M  V30 2477 N 225.334 2.24528 -4.95064 0
M  V30 2478 H 229.136 0.791818 -2.83033 0
M  V30 2479 H 226.65 0.339791 -1.58805 0
M  V30 2480 H 228.647 3.24692 -2.61498 0
M  V30 2481 H 227.307 2.88156 -1.49654 0
M  V30 2482 H 228.318 1.54429 -4.9434 0
M  V30 2483 H 224.995 3.05193 -2.84892 0
M  V30 2484 H 226.385 1.45178 -6.56028 0
M  V30 2485 N 229.106 1.52395 0.401703 0
M  V30 2486 C 230.016 1.7917 1.51444 0
M  V30 2487 C 231.032 0.677691 1.6026 0
M  V30 2488 O 232.208 0.963909 1.76835 0
M  V30 2489 C 229.273 1.94347 2.87107 0
M  V30 2490 C 228.334 3.18257 2.88116 0
M  V30 2491 C 227.567 3.32701 4.17308 0
M  V30 2492 O 227.79 2.52238 5.11598 0
M  V30 2493 O 226.724 4.25891 4.25324 0
M  V30 2494 H 230.55 2.73633 1.31752 0
M  V30 2495 H 228.135 1.3733 0.588296 0
M  V30 2496 H 230.017 2.06109 3.67555 0
M  V30 2497 H 228.692 1.03073 3.06851 0
M  V30 2498 H 227.599 3.11947 2.06494 0
M  V30 2499 H 228.932 4.09336 2.73322 0
M  V30 2500 N 230.584 -0.659388 1.43143 0
M  V30 2501 C 231.809 -1.45221 1.48073 0
M  V30 2502 C 232.234 -1.87845 0.097995 0
M  V30 2503 O 231.592 -1.56985 -0.90694 0
M  V30 2504 C 231.64 -2.66748 2.42647 0
M  V30 2505 O 230.744 -3.65583 1.90848 0
M  V30 2506 H 230.085 -0.435669 0.501088 0
M  V30 2507 H 232.615 -0.807432 1.87994 0
M  V30 2508 H 232.625 -3.14637 2.59745 0
M  V30 2509 H 231.3 -2.35067 3.43098 0
M  V30 2510 H 229.877 -3.24693 1.83381 0
M  V30 2511 N 232.062 -1.29571 -0.897171 0
M  V30 2512 C 233.302 -1.18959 -1.66217 0
M  V30 2513 C 233.666 0.254271 -1.90309 0
M  V30 2514 O 234.867 0.483407 -2.64417 0
M  V30 2515 C 233.138 -1.98302 -2.9734 0
M  V30 2516 S 234.697 -2.04253 -3.88364 0
M  V30 2517 H 231.515 -0.424137 -0.570639 0
M  V30 2518 H 234.117 -1.6389 -1.06585 0
M  V30 2519 H 232.821 -3.02342 -2.77521 0
M  V30 2520 H 232.352 -1.53986 -3.62011 0
M  V30 2521 H 234.367 -1.16105 -4.82425 0
M  V30 2522 N 233.54 1.10788 -1.12088 0
M  V30 2523 C 234.473 2.16237 -0.729168 0
M  V30 2524 C 235.451 1.60207 0.277921 0
M  V30 2525 O 236.635 1.87707 0.172737 0
M  V30 2526 C 233.762 3.38609 -0.0786848 0
M  V30 2527 C 232.808 4.13322 -1.05201 0
M  V30 2528 S 233.641 4.69371 -2.57781 0
M  V30 2529 C 234.797 5.95058 -1.94053 0
M  V30 2530 H 235.03 2.4913 -1.62239 0
M  V30 2531 H 232.563 1.22519 -0.939603 0
M  V30 2532 H 234.521 4.09473 0.290254 0
M  V30 2533 H 233.182 3.03962 0.791593 0
M  V30 2534 H 232.375 5.01051 -0.544433 0
M  V30 2535 H 231.977 3.48251 -1.36371 0
M  V30 2536 H 234.269 6.65278 -1.28107 0
M  V30 2537 H 235.212 6.50472 -2.79807 0
M  V30 2538 H 235.62 5.46918 -1.39787 0
M  V30 2539 N 235.018 0.912232 1.28515 0
M  V30 2540 C 236.243 0.559774 1.99703 0
M  V30 2541 C 236.668 -0.851393 1.67729 0
M  V30 2542 O 236.026 -1.56875 0.908834 0
M  V30 2543 C 236.074 0.773874 3.52198 0
M  V30 2544 O 235.178 -0.167842 4.12058 0
M  V30 2545 H 234.519 0.21723 0.627461 0
M  V30 2546 H 237.049 1.22725 1.63706 0
M  V30 2547 H 237.059 0.683386 4.02236 0
M  V30 2548 H 235.734 1.80261 3.74805 0
M  V30 2549 H 234.311 -0.0287509 3.72889 0
M  V30 2550 N 236.496 -1.42363 0.676048 0
M  V30 2551 C 237.428 -2.29164 -0.0404605 0
M  V30 2552 C 238.441 -1.43747 -0.764245 0
M  V30 2553 O 239.63 -1.67453 -0.618195 0
M  V30 2554 C 236.73 -3.21196 -1.08103 0
M  V30 2555 C 235.903 -4.35273 -0.430812 0
M  V30 2556 C 234.962 -5.08017 -1.37133 0
M  V30 2557 O 233.988 -5.62494 -0.87116 0
M  V30 2558 N 235.19 -5.13647 -2.70456 0
M  V30 2559 H 237.955 -2.91298 0.704667 0
M  V30 2560 H 235.516 -1.53303 0.520559 0
M  V30 2561 H 237.508 -3.66728 -1.71152 0
M  V30 2562 H 236.078 -2.60505 -1.72788 0
M  V30 2563 H 235.298 -3.92372 0.379209 0
M  V30 2564 H 236.586 -5.08795 0.0221132 0
M  V30 2565 H 235.984 -4.708 -3.1363 0
M  V30 2566 H 234.541 -5.62821 -3.28749 0
M  V30 2567 N 237.974 -0.419461 -1.51915 0
M  V30 2568 C 239.223 0.154346 -2.01109 0
M  V30 2569 C 239.536 1.45338 -1.30905 0
M  V30 2570 O 240.742 2.10906 -1.7097 0
M  V30 2571 C 239.198 0.325615 -3.58424 0
M  V30 2572 C 238.806 -0.961934 -4.37551 0
M  V30 2573 C 240.55 0.854155 -4.15818 0
M  V30 2574 C 238.457 -0.757287 -5.86531 0
M  V30 2575 H 237.387 0.0614563 -0.751491 0
M  V30 2576 H 240.038 -0.54649 -1.75173 0
M  V30 2577 H 238.42 1.08903 -3.80731 0
M  V30 2578 H 239.594 -1.7323 -4.26999 0
M  V30 2579 H 237.909 -1.41766 -3.91524 0
M  V30 2580 H 240.506 1.02346 -5.24814 0
M  V30 2581 H 240.849 1.83172 -3.73837 0
M  V30 2582 H 241.382 0.149528 -3.97519 0
M  V30 2583 H 238.121 -1.70671 -6.32892 0
M  V30 2584 H 237.641 -0.0264061 -5.99794 0
M  V30 2585 H 239.32 -0.403482 -6.45741 0
M  V30 2586 N 239.452 1.56882 -0.150215 0
M  V30 2587 C 240.7 1.9584 0.499105 0
M  V30 2588 C 241.021 1.03623 1.65188 0
M  V30 2589 O 240.291 0.0984084 1.95653 0
M  V30 2590 H 238.871 0.723119 0.187373 0
M  V30 2591 H 241.533 1.9358 -0.226466 0
M  V30 2592 H 240.629 2.99638 0.873122 0
M  V30 2593 N 240.93 -0.123565 1.57115 0
M  V30 2594 C 242.176 -0.828428 1.85765 0
M  V30 2595 C 242.531 -1.77709 0.737371 0
M  V30 2596 O 241.824 -1.89787 -0.262978 0
M  V30 2597 C 242.018 -1.62016 3.18568 0
M  V30 2598 C 241.847 -0.749663 4.43407 0
M  V30 2599 C 240.617 -0.406251 5.03664 0
M  V30 2600 C 242.815 -0.0693505 5.14253 0
M  V30 2601 N 240.797 0.475389 6.12057 0
M  V30 2602 C 242.168 0.671474 6.16353 0
M  V30 2603 C 244.223 0.00754393 4.97899 0
M  V30 2604 C 242.926 1.48197 7.03868 0
M  V30 2605 C 244.952 0.804845 5.85898 0
M  V30 2606 C 244.314 1.53388 6.87497 0
M  V30 2607 H 240.413 -0.280219 0.73007 0
M  V30 2608 H 242.997 -0.0924183 1.94481 0
M  V30 2609 H 241.168 -2.32724 3.10957 0
M  V30 2610 H 242.9 -2.27 3.35042 0
M  V30 2611 H 239.655 -0.747446 4.67665 0
M  V30 2612 H 240.079 0.907924 6.70884 0
M  V30 2613 H 244.721 -0.541741 4.19315 0
M  V30 2614 H 242.439 2.04242 7.81864 0
M  V30 2615 H 246.025 0.866642 5.75309 0
M  V30 2616 H 244.905 2.1409 7.5441 0
M  V30 2617 N 242.408 -1.52605 -0.393616 0
M  V30 2618 C 243.356 -1.77688 -1.50099 0
M  V30 2619 C 244.35 -0.644615 -1.56656 0
M  V30 2620 O 245.556 -0.826997 -1.59877 0
M  V30 2621 H 241.931 -0.562159 -0.499481 0
M  V30 2622 H 243.902 -2.7043 -1.26135 0
M  V30 2623 C 242.651 -1.95858 -2.87289 0
M  V30 2624 H 241.974 -2.8241 -2.82992 0
M  V30 2625 H 243.414 -2.174 -3.64024 0
M  V30 2626 C 241.873 -0.729848 -3.28899 0
M  V30 2627 O 242.403 0.0949217 -4.01588 0
M  V30 2628 N 240.609 -0.561283 -2.85128 0
M  V30 2629 H 240.156 -1.23357 -2.26143 0
M  V30 2630 H 240.114 0.2595 -3.13327 0
M  V30 2631 N 243.887 0.651787 -1.4349 0
M  V30 2632 C 245.303 0.96762 -1.26922 0
M  V30 2633 C 245.503 2.00602 -0.189982 0
M  V30 2634 O 244.559 2.48793 0.431107 0
M  V30 2635 C 245.872 1.45052 -2.63401 0
M  V30 2636 C 247.42 1.5671 -2.70945 0
M  V30 2637 C 247.895 2.0839 -4.07845 0
M  V30 2638 N 249.386 2.1569 -4.09917 0
M  V30 2639 C 250.121 2.56804 -5.12679 0
M  V30 2640 N 249.617 2.97203 -6.25813 0
M  V30 2641 N 251.41 2.56756 -5.00033 0
M  V30 2642 H 243.561 -0.0353158 -2.12371 0
M  V30 2643 H 245.824 0.0467858 -0.946845 0
M  V30 2644 H 245.53 0.761926 -3.43348 0
M  V30 2645 H 245.404 2.42529 -2.88894 0
M  V30 2646 H 247.791 2.2467 -1.9133 0
M  V30 2647 H 247.872 0.57662 -2.49216 0
M  V30 2648 H 247.516 1.41031 -4.87927 0
M  V30 2649 H 247.446 3.08271 -4.26938 0
M  V30 2650 H 249.937 1.87237 -3.28254 0
M  V30 2651 H 250.25 3.27328 -7.00055 0
M  V30 2652 H 248.595 2.95004 -6.29283 0
M  V30 2653 H 251.786 2.24572 -4.10713 0
M  V30 2654 H 251.959 2.88475 -5.80247 0
M  V30 2655 N 245.365 1.30045 0.890287 0
M  V30 2656 C 246.614 1.17929 1.63633 0
M  V30 2657 C 246.927 -0.266204 1.9378 0
M  V30 2658 O 248.133 -0.508804 2.6669 0
M  V30 2659 C 246.589 2.06317 2.94892 0
M  V30 2660 C 246.197 3.55745 2.72305 0
M  V30 2661 C 247.941 2.0295 3.72843 0
M  V30 2662 C 245.848 4.36205 3.99348 0
M  V30 2663 H 244.778 0.437782 0.613892 0
M  V30 2664 H 247.429 1.54754 0.986075 0
M  V30 2665 H 245.811 1.6237 3.61182 0
M  V30 2666 H 246.985 4.07805 2.1455 0
M  V30 2667 H 245.3 3.6088 2.07737 0
M  V30 2668 H 247.897 2.60319 4.67053 0
M  V30 2669 H 248.24 1.0117 4.0382 0
M  V30 2670 H 248.773 2.4499 3.13408 0
M  V30 2671 H 245.512 5.38659 3.73533 0
M  V30 2672 H 245.032 3.8891 4.56628 0
M  V30 2673 H 246.711 4.47362 4.67415 0
M  V30 2674 N 246.843 -1.10192 1.12674 0
M  V30 2675 C 248.092 -1.81573 0.8783 0
M  V30 2676 C 248.405 -1.86249 -0.597557 0
M  V30 2677 O 249.611 -2.5386 -0.962681 0
M  V30 2678 C 248.067 -3.26149 1.52167 0
M  V30 2679 C 247.675 -3.29763 3.03249 0
M  V30 2680 C 249.419 -4.0234 1.3536 0
M  V30 2681 C 247.326 -4.68815 3.60508 0
M  V30 2682 H 246.256 -0.680394 0.324931 0
M  V30 2683 H 248.907 -1.23902 1.35353 0
M  V30 2684 H 247.289 -3.83832 0.974104 0
M  V30 2685 H 248.463 -2.8189 3.6452 0
M  V30 2686 H 246.778 -2.67059 3.19481 0
M  V30 2687 H 249.375 -5.05058 1.75559 0
M  V30 2688 H 249.718 -4.15235 0.297554 0
M  V30 2689 H 250.251 -3.51079 1.87052 0
M  V30 2690 H 246.99 -4.61121 4.65884 0
M  V30 2691 H 246.51 -5.17045 3.04014 0
M  V30 2692 H 248.189 -5.37785 3.59717 0
M  V30 2693 N 248.321 -0.919034 -1.28029 0
M  V30 2694 C 249.567 -0.555757 -1.95036 0
M  V30 2695 C 249.9 0.899198 -1.72128 0
M  V30 2696 O 249.175 1.64023 -1.04531 0
M  V30 2697 C 249.458 -0.872024 -3.49382 0
M  V30 2698 C 249.311 -2.3801 -3.81669 0
M  V30 2699 C 250.63 -0.37185 -4.38526 0
M  V30 2700 H 247.749 -0.203386 -0.708381 0
M  V30 2701 H 250.391 -1.14924 -1.51303 0
M  V30 2702 H 248.541 -0.366946 -3.86763 0
M  V30 2703 H 250.213 -2.9562 -3.54128 0
M  V30 2704 H 248.456 -2.83289 -3.28526 0
M  V30 2705 H 249.127 -2.55192 -4.8947 0
M  V30 2706 H 251.603 -0.804602 -4.08247 0
M  V30 2707 H 250.479 -0.622173 -5.45362 0
M  V30 2708 H 250.74 0.727934 -4.36066 0
M  V30 2709 N 249.799 1.42003 -0.683588 0
M  V30 2710 C 250.709 2.34597 -0.0109075 0
M  V30 2711 C 251.725 1.55576 0.779245 0
M  V30 2712 O 252.901 1.88107 0.719555 0
M  V30 2713 C 249.966 3.34199 0.922588 0
M  V30 2714 C 249.027 4.29115 0.125984 0
M  V30 2715 C 248.26 5.23959 1.01502 0
M  V30 2716 O 248.483 5.23952 2.25456 0
M  V30 2717 O 247.417 6.00053 0.47111 0
M  V30 2718 H 251.243 2.93675 -0.773853 0
M  V30 2719 H 248.828 1.42654 -0.443861 0
M  V30 2720 H 250.71 3.95365 1.45823 0
M  V30 2721 H 249.385 2.77582 1.66523 0
M  V30 2722 H 248.292 3.71335 -0.453969 0
M  V30 2723 H 249.625 4.88798 -0.577736 0
M  V30 2724 N 251.277 0.427512 1.51691 0
M  V30 2725 C 252.224 -0.388867 2.275 0
M  V30 2726 C 253.194 -1.02532 1.30677 0
M  V30 2727 O 254.379 -1.0461 1.59566 0
M  V30 2728 C 251.519 -1.48954 3.11298 0
M  V30 2729 C 250.632 -0.872194 4.23104 0
M  V30 2730 C 249.767 -1.94709 4.94228 0
M  V30 2731 C 248.806 -1.30766 5.97969 0
M  V30 2732 N 247.943 -2.32349 6.62539 0
M  V30 2733 H 252.783 0.263997 2.96828 0
M  V30 2734 H 250.32 0.142033 1.46413 0
M  V30 2735 H 252.278 -2.13887 3.58201 0
M  V30 2736 H 250.908 -2.11217 2.44105 0
M  V30 2737 H 249.96 -0.111419 3.80237 0
M  V30 2738 H 251.272 -0.365264 4.97461 0
M  V30 2739 H 250.426 -2.67327 5.44629 0
M  V30 2740 H 249.165 -2.48773 4.1948 0
M  V30 2741 H 248.17 -0.566902 5.4687 0
M  V30 2742 H 249.395 -0.774483 6.74669 0
M  V30 2743 H 247.341 -2.85511 5.90609 0
M  V30 2744 H 247.258 -1.8652 7.3263 0
M  V30 2745 H 248.526 -3.04481 7.17574 0
M  V30 2746 N 252.755 -1.56801 0.158532 0
M  V30 2747 C 254.166 -1.83189 -0.360366 0
M  V30 2748 C 254.517 -1.07778 -1.63946 0
M  V30 2749 O 253.642 -0.326718 -2.13919 0
M  V30 2750 C 254.237 -3.32297 -0.660595 0
M  V30 2751 C 252.796 -3.59227 -1.12398 0
M  V30 2752 C 251.943 -2.76877 -0.153097 0
M  V30 2753 H 254.894 -1.54008 0.383031 0
M  V30 2754 H 254.915 -3.4908 -1.51405 0
M  V30 2755 H 254.427 -3.87156 0.270527 0
M  V30 2756 H 252.528 -3.09766 -2.07064 0
M  V30 2757 H 252.641 -4.67632 -1.04197 0
M  V30 2758 H 251.005 -2.46319 -0.647983 0
M  V30 2759 H 251.788 -3.34511 0.77182 0
M  V30 2760 N 254.233 0.115231 -1.57178 0
M  V30 2761 C 255.48 0.822351 -1.8505 0
M  V30 2762 C 255.808 1.79701 -0.744168 0
M  V30 2763 O 255.063 1.93909 0.26414 0
M  V30 2764 C 255.362 1.60324 -3.19423 0
M  V30 2765 C 255.028 0.772536 -4.44233 0
M  V30 2766 C 253.69 0.543468 -4.78121 0
M  V30 2767 C 256.042 0.193746 -5.2084 0
M  V30 2768 C 253.37 -0.274583 -5.86057 0
M  V30 2769 C 255.722 -0.611517 -6.29637 0
M  V30 2770 C 254.386 -0.850867 -6.62055 0
M  V30 2771 H 253.656 0.30092 -0.677147 0
M  V30 2772 H 256.303 0.0845802 -1.91313 0
M  V30 2773 H 254.608 2.41203 -3.08753 0
M  V30 2774 H 256.305 2.1544 -3.38211 0
M  V30 2775 H 252.895 0.96117 -4.17683 0
M  V30 2776 H 257.079 0.357926 -4.95008 0
M  V30 2777 H 252.335 -0.469206 -6.09597 0
M  V30 2778 H 256.509 -1.06697 -6.88178 0
M  V30 2779 H 254.136 -1.48657 -7.45523 0
M  V30 2780 N 255.711 1.52812 0.385517 0
M  V30 2781 C 256.959 1.67694 1.12797 0
M  V30 2782 C 257.28 0.421115 1.90399 0
M  V30 2783 O 256.55 -0.564551 1.87589 0
M  V30 2784 H 255.13 0.618155 0.419396 0
M  V30 2785 H 257.792 1.89938 0.436972 0
M  V30 2786 H 256.888 2.52896 1.82894 0
M  V30 2787 N 257.189 -0.644168 1.43834 0
M  V30 2788 C 258.605 -0.960875 1.27434 0
M  V30 2789 C 258.805 -2.00499 0.200618 0
M  V30 2790 O 257.861 -2.49018 -0.417906 0
M  V30 2791 C 259.174 -1.43653 2.64167 0
M  V30 2792 C 260.722 -1.55271 2.71772 0
M  V30 2793 C 261.197 -2.06224 4.08944 0
M  V30 2794 N 262.688 -2.13513 4.11055 0
M  V30 2795 C 263.423 -2.54081 5.14033 0
M  V30 2796 N 262.919 -2.9388 6.27381 0
M  V30 2797 N 264.712 -2.54101 5.01387 0
M  V30 2798 H 256.863 0.0465779 2.12349 0
M  V30 2799 H 259.126 -0.0417638 0.94708 0
M  V30 2800 H 258.832 -0.743706 3.43747 0
M  V30 2801 H 258.706 -2.40993 2.90176 0
M  V30 2802 H 261.093 -2.23653 1.92519 0
M  V30 2803 H 261.174 -0.563395 2.49519 0
M  V30 2804 H 260.818 -1.38441 4.88668 0
M  V30 2805 H 260.748 -3.06003 4.28567 0
M  V30 2806 H 263.239 -1.85493 3.29242 0
M  V30 2807 H 263.552 -3.2361 7.01781 0
M  V30 2808 H 261.897 -2.91663 6.30839 0
M  V30 2809 H 265.088 -2.22391 4.11898 0
M  V30 2810 H 265.261 -2.85394 5.81768 0
M  V30 2811 N 258.668 -1.30515 -0.883378 0
M  V30 2812 C 259.945 -1.10086 -1.6168 0
M  V30 2813 C 260.325 0.349269 -2.08191 0
M  V30 2814 O 259.673 1.34105 -1.85008 0
M  V30 2815 C 259.883 -2.10315 -2.78511 0
M  V30 2816 C 261.231 -2.42119 -3.48803 0
M  V30 2817 O 262.255 -2.08638 -2.88702 0
M  V30 2818 O 261.114 -2.99396 -4.57192 0
M  V30 2819 H 258.208 -0.422907 -0.710689 0
M  V30 2820 H 260.754 -1.41947 -0.930015 0
M  V30 2821 H 259.526 -3.07917 -2.41459 0
M  V30 2822 H 259.149 -1.79282 -3.54886 0
M  V30 2823 N 260.146 1.09593 -1.13257 0
M  V30 2824 C 261.076 2.18214 -0.830946 0
M  V30 2825 C 262.057 1.68812 0.208966 0
M  V30 2826 O 263.242 1.9408 0.0682666 0
M  V30 2827 C 260.372 3.46051 -0.294296 0
M  V30 2828 C 259.326 4.08778 -1.26826 0
M  V30 2829 C 258.652 5.31419 -0.591449 0
M  V30 2830 C 259.952 4.51476 -2.62615 0
M  V30 2831 H 261.646 2.43703 -1.73923 0
M  V30 2832 H 259.192 1.17128 -0.837675 0
M  V30 2833 H 261.145 4.2134 -0.0709606 0
M  V30 2834 H 259.869 3.20079 0.649366 0
M  V30 2835 H 258.528 3.35505 -1.47756 0
M  V30 2836 H 258.176 5.01727 0.357633 0
M  V30 2837 H 257.876 5.74341 -1.24123 0
M  V30 2838 H 259.4 6.09433 -0.377355 0
M  V30 2839 H 260.814 5.17999 -2.45663 0
M  V30 2840 H 259.211 5.05277 -3.23752 0
M  V30 2841 H 260.281 3.63962 -3.20406 0
M  V30 2842 N 261.624 0.925811 1.2754 0
M  V30 2843 C 262.556 0.380753 2.26015 0
M  V30 2844 C 263.569 -0.487485 1.5533 0
M  V30 2845 O 264.758 -0.300413 1.75954 0
M  V30 2846 C 261.858 -0.473259 3.35579 0
M  V30 2847 C 261.031 0.375249 4.35787 0
M  V30 2848 C 260.09 -0.415809 5.24555 0
M  V30 2849 O 259.116 0.175834 5.68928 0
M  V30 2850 N 260.318 -1.71607 5.54555 0
M  V30 2851 H 263.083 1.22725 2.73421 0
M  V30 2852 H 260.644 0.793037 1.41147 0
M  V30 2853 H 262.636 -1.00949 3.91907 0
M  V30 2854 H 261.206 -1.2205 2.87789 0
M  V30 2855 H 260.426 1.09279 3.7875 0
M  V30 2856 H 261.714 0.955399 4.99749 0
M  V30 2857 H 261.112 -2.2191 5.20358 0
M  V30 2858 H 259.669 -2.19887 6.1359 0
M  V30 2859 N 263.102 -1.41638 0.69111 0
M  V30 2860 C 264.327 -2.06148 0.227583 0
M  V30 2861 C 264.752 -1.51652 -1.11281 0
M  V30 2862 O 264.11 -0.64164 -1.69566 0
M  V30 2863 C 264.158 -3.60095 0.190858 0
M  V30 2864 O 263.262 -4.03845 -0.835664 0
M  V30 2865 H 262.603 -0.654434 0.112306 0
M  V30 2866 H 265.133 -1.81484 0.944714 0
M  V30 2867 H 265.143 -4.07995 0.020207 0
M  V30 2868 H 263.818 -3.99129 1.16915 0
M  V30 2869 H 262.395 -3.67458 -0.63473 0
M  V30 2870 N 264.58 -0.43555 -1.51462 0
M  V30 2871 C 265.805 0.132627 -2.06976 0
M  V30 2872 C 266.23 1.35848 -1.30104 0
M  V30 2873 O 265.588 1.78112 -0.338493 0
M  V30 2874 C 265.636 0.43523 -3.57964 0
M  V30 2875 O 264.74 1.52198 -3.83288 0
M  V30 2876 H 264.081 0.00265 -0.663995 0
M  V30 2877 H 266.611 -0.616369 -1.95095 0
M  V30 2878 H 266.621 0.686206 -4.02188 0
M  V30 2879 H 265.296 -0.460739 -4.1334 0
M  V30 2880 H 263.873 1.2611 -3.50928 0
M  V30 2881 N 266.058 1.56714 -0.166846 0
M  V30 2882 C 267.335 1.88412 0.525373 0
M  V30 2883 C 267.715 1.07602 1.81618 0
M  V30 2884 O 267.063 0.168621 2.27877 0
M  V30 2885 C 267.273 3.40363 0.771613 0
M  V30 2886 C 268.621 4.10007 1.1036 0
M  V30 2887 O 269.645 3.45655 0.860304 0
M  V30 2888 O 268.504 5.2369 1.56239 0
M  V30 2889 H 265.598 0.781587 0.270278 0
M  V30 2890 H 268.144 1.68458 -0.204946 0
M  V30 2891 H 266.916 3.91046 -0.141093 0
M  V30 2892 H 266.539 3.65914 1.55541 0
M  V30 2893 N 267.536 -0.106894 1.57237 0
M  V30 2894 C 268.952 -0.46078 1.52804 0
M  V30 2895 C 269.152 -1.81184 0.881746 0
M  V30 2896 O 268.208 -2.48102 0.469224 0
M  V30 2897 C 269.521 -0.434127 2.9755 0
M  V30 2898 C 271.069 -0.516821 3.08704 0
M  V30 2899 C 271.544 -0.520436 4.55033 0
M  V30 2900 N 273.035 -0.58153 4.59535 0
M  V30 2901 C 273.77 -0.605973 5.70189 0
M  V30 2902 N 273.266 -0.587331 6.90306 0
M  V30 2903 N 275.059 -0.649895 5.5833 0
M  V30 2904 H 267.21 0.778203 1.9763 0
M  V30 2905 H 269.473 0.288403 0.903066 0
M  V30 2906 H 269.179 0.491197 3.48253 0
M  V30 2907 H 269.053 -1.25748 3.55622 0
M  V30 2908 H 271.44 -1.43256 2.57995 0
M  V30 2909 H 271.521 0.334449 2.53604 0
M  V30 2910 H 271.165 0.391313 5.0639 0
M  V30 2911 H 271.095 -1.38876 5.07958 0
M  V30 2912 H 273.586 -0.60161 3.73081 0
M  V30 2913 H 273.899 -0.60894 7.70397 0
M  V30 2914 H 272.244 -0.554564 6.92784 0
M  V30 2915 H 275.435 -0.661907 4.63397 0
M  V30 2916 H 275.608 -0.665476 6.44574 0
M  V30 2917 N 269.014 -1.53014 -0.377408 0
M  V30 2918 C 269.944 -1.81589 -1.46791 0
M  V30 2919 C 270.925 -0.668622 -1.56408 0
M  V30 2920 O 272.11 -0.917337 -1.71168 0
M  V30 2921 C 269.24 -1.99519 -2.8427 0
M  V30 2922 C 268.194 -3.15249 -2.89486 0
M  V30 2923 C 267.52 -3.18451 -4.29527 0
M  V30 2924 C 268.82 -4.54084 -2.58079 0
M  V30 2925 H 270.514 -2.7291 -1.23127 0
M  V30 2926 H 268.06 -1.31319 -0.590883 0
M  V30 2927 H 270.013 -2.18092 -3.60575 0
M  V30 2928 H 268.737 -1.04897 -3.09296 0
M  V30 2929 H 267.396 -2.96477 -2.15631 0
M  V30 2930 H 267.044 -2.2149 -4.5161 0
M  V30 2931 H 266.744 -3.962 -4.33934 0
M  V30 2932 H 268.268 -3.39193 -5.07721 0
M  V30 2933 H 269.682 -4.72899 -3.24098 0
M  V30 2934 H 268.079 -5.33987 -2.7382 0
M  V30 2935 H 269.149 -4.60006 -1.53372 0
M  V30 2936 N 270.492 0.636531 -1.44174 0
M  V30 2937 C 271.717 1.42847 -1.50364 0
M  V30 2938 C 272.142 1.87665 -0.127867 0
M  V30 2939 O 271.5 1.58408 0.88185 0
M  V30 2940 C 271.548 2.62854 -2.4686 0
M  V30 2941 O 270.652 3.62501 -1.9664 0
M  V30 2942 H 269.993 0.427642 -0.507955 0
M  V30 2943 H 272.523 0.777422 -1.89255 0
M  V30 2944 H 272.533 3.10465 -2.64718 0
M  V30 2945 H 271.208 2.29578 -3.46795 0
M  V30 2946 H 269.785 3.21735 -1.88523 0
M  V30 2947 N 271.97 1.30982 0.876444 0
M  V30 2948 C 272.918 1.18006 2.00443 0
M  V30 2949 C 273.912 0.0898871 1.69161 0
M  V30 2950 O 275.118 0.251333 1.78237 0
M  V30 2951 H 271.493 0.365196 0.65737 0
M  V30 2952 H 273.464 2.13453 2.0852 0
M  V30 2953 C 272.213 0.897521 3.35916 0
M  V30 2954 H 271.536 1.7285 3.60504 0
M  V30 2955 H 272.976 0.846874 4.15456 0
M  V30 2956 C 271.435 -0.399674 3.34521 0
M  V30 2957 O 271.965 -1.41852 3.7582 0
M  V30 2958 N 270.171 -0.413893 2.87637 0
M  V30 2959 H 269.718 0.41571 2.54224 0
M  V30 2960 H 269.676 -1.28175 2.87086 0
M  V30 2961 N 273.449 -1.08991 1.13837 0
M  V30 2962 C 274.399 -2.1393 0.788535 0
M  V30 2963 C 275.383 -1.59396 -0.219516 0
M  V30 2964 O 276.575 -1.76985 -0.0227557 0
M  V30 2965 C 273.704 -3.42305 0.261147 0
M  V30 2966 C 272.79 -4.03736 1.29837 0
M  V30 2967 N 273.181 -4.39659 2.50067 0
M  V30 2968 C 271.479 -4.30993 1.1472 0
M  V30 2969 C 272.18 -4.88113 3.16419 0
M  V30 2970 N 271.156 -4.85846 2.43832 0
M  V30 2971 H 274.958 -2.39516 1.70322 0
M  V30 2972 H 272.472 -1.26263 1.02134 0
M  V30 2973 H 274.469 -4.16899 -0.0077405 0
M  V30 2974 H 273.129 -3.18172 -0.647805 0
M  V30 2975 H 274.14 -4.30878 2.8734 0
M  V30 2976 H 270.817 -4.16444 0.296773 0
M  V30 2977 H 272.207 -5.25336 4.18894 0
M  V30 2978 N 274.927 -0.932562 -1.27047 0
M  V30 2979 C 276.176 -0.571351 -1.93439 0
M  V30 2980 C 276.489 0.892467 -1.74053 0
M  V30 2981 O 277.695 1.36267 -2.34826 0
M  V30 2982 C 276.151 -0.97106 -3.46552 0
M  V30 2983 C 275.759 -2.4559 -3.74686 0
M  V30 2984 C 277.503 -0.681333 -4.18997 0
M  V30 2985 C 275.41 -2.79475 -5.21198 0
M  V30 2986 H 274.34 -0.209966 -0.724176 0
M  V30 2987 H 276.991 -1.13403 -1.44263 0
M  V30 2988 H 275.373 -0.336983 -3.94564 0
M  V30 2989 H 276.547 -3.13829 -3.37414 0
M  V30 2990 H 274.862 -2.71802 -3.15456 0
M  V30 2991 H 277.459 -0.910939 -5.26883 0
M  V30 2992 H 277.802 0.381628 -4.14547 0
M  V30 2993 H 278.335 -1.27473 -3.76823 0
M  V30 2994 H 275.074 -3.847 -5.30741 0
M  V30 2995 H 274.594 -2.1589 -5.596 0
M  V30 2996 H 276.273 -2.67478 -5.89122 0
M  V30 2997 N 276.405 1.4127 -0.698611 0
M  V30 2998 C 277.63 2.06024 -0.238512 0
M  V30 2999 C 278.055 1.5224 1.10475 0
M  V30 3000 O 277.413 0.650623 1.69223 0
M  V30 3001 C 277.461 3.59988 -0.209952 0
M  V30 3002 O 276.565 4.04282 0.814235 0
M  V30 3003 H 275.906 0.653829 -0.115775 0
M  V30 3004 H 278.436 1.8098 -0.954326 0
M  V30 3005 H 278.446 4.07979 -0.0418436 0
M  V30 3006 H 277.121 3.98503 -1.1903 0
M  V30 3007 H 275.698 3.6779 0.615234 0
M  V30 3008 N 277.883 0.443576 1.51229 0
M  V30 3009 C 279.108 -0.121648 2.07043 0
M  V30 3010 C 279.533 -1.35156 1.30823 0
M  V30 3011 O 278.891 -1.7793 0.347934 0
M  V30 3012 C 278.939 -0.41624 3.5819 0
M  V30 3013 O 278.043 -1.50163 3.8409 0
M  V30 3014 H 277.384 0.000871367 0.663999 0
M  V30 3015 H 279.914 0.626706 1.94765 0
M  V30 3016 H 279.924 -0.664867 4.02546 0
M  V30 3017 H 278.599 0.482653 4.1309 0
M  V30 3018 H 277.176 -1.24248 3.51592 0
M  V30 3019 N 279.361 -1.56624 0.175154 0
M  V30 3020 C 280.291 -2.21155 -0.749195 0
M  V30 3021 C 281.272 -1.16836 -1.23626 0
M  V30 3022 O 282.457 -1.45277 -1.28873 0
M  V30 3023 C 279.587 -2.8553 -1.97711 0
M  V30 3024 C 278.541 -3.95921 -1.62575 0
M  V30 3025 C 277.867 -4.47365 -2.92864 0
M  V30 3026 C 279.167 -5.15323 -0.850838 0
M  V30 3027 H 280.861 -2.98653 -0.211295 0
M  V30 3028 H 278.407 -1.43651 -0.100188 0
M  V30 3029 H 280.36 -3.2935 -2.62881 0
M  V30 3030 H 279.084 -2.05406 -2.53921 0
M  V30 3031 H 277.743 -3.52762 -0.997719 0
M  V30 3032 H 277.391 -3.64027 -3.47122 0
M  V30 3033 H 277.091 -5.21839 -2.70106 0
M  V30 3034 H 278.615 -4.93873 -3.59056 0
M  V30 3035 H 280.029 -5.55812 -1.40521 0
M  V30 3036 H 278.426 -5.95739 -0.722154 0
M  V30 3037 H 279.496 -4.84661 0.152082 0
M  V30 3038 N 280.839 0.0985539 -1.57292 0
M  V30 3039 C 282.086 0.802678 -1.85912 0
M  V30 3040 C 282.414 1.78901 -0.763186 0
M  V30 3041 O 281.669 1.94178 0.243559 0
M  V30 3042 C 281.968 1.56927 -3.21105 0
M  V30 3043 C 281.634 0.725376 -4.45027 0
M  V30 3044 C 280.296 0.492726 -4.78671 0
M  V30 3045 C 282.648 0.138493 -5.21016 0
M  V30 3046 C 279.976 -0.336727 -5.85733 0
M  V30 3047 C 282.328 -0.678264 -6.28953 0
M  V30 3048 C 280.992 -0.921039 -6.61115 0
M  V30 3049 H 280.262 0.293721 -0.680301 0
M  V30 3050 H 282.909 0.0642841 -1.91392 0
M  V30 3051 H 281.214 2.37914 -3.11294 0
M  V30 3052 H 282.911 2.11841 -3.40477 0
M  V30 3053 H 279.501 0.916815 -4.18679 0
M  V30 3054 H 283.685 0.305404 -4.95359 0
M  V30 3055 H 278.941 -0.533836 -6.09065 0
M  V30 3056 H 283.115 -1.1399 -6.87007 0
M  V30 3057 H 280.742 -1.56556 -7.43905 0
M  V30 3058 N 282.317 1.53212 0.369288 0
M  V30 3059 C 283.733 1.42902 0.710712 0
M  V30 3060 C 283.933 0.565135 1.93413 0
M  V30 3061 O 282.989 0.0461484 2.52458 0
M  V30 3062 C 284.302 2.86042 0.927382 0
M  V30 3063 C 285.85 2.9565 1.02762 0
M  V30 3064 C 286.325 4.39843 1.27679 0
M  V30 3065 N 287.816 4.43256 1.34457 0
M  V30 3066 C 288.551 5.51929 1.55439 0
M  V30 3067 N 288.047 6.70655 1.73762 0
M  V30 3068 N 289.84 5.39502 1.57779 0
M  V30 3069 H 281.991 2.07888 -0.435457 0
M  V30 3070 H 284.254 0.938661 -0.132739 0
M  V30 3071 H 283.96 3.51557 0.100287 0
M  V30 3072 H 283.834 3.29472 1.83653 0
M  V30 3073 H 286.221 2.30291 1.84527 0
M  V30 3074 H 286.302 2.5562 0.0959504 0
M  V30 3075 H 285.946 5.05774 0.464175 0
M  V30 3076 H 285.876 4.77443 2.22162 0
M  V30 3077 H 288.367 3.5769 1.21926 0
M  V30 3078 H 288.68 7.49248 1.89335 0
M  V30 3079 H 287.025 6.73648 1.70948 0
M  V30 3080 H 290.216 4.45713 1.43029 0
M  V30 3081 H 290.389 6.2426 1.7379 0
M  V30 3082 N 283.795 -0.628877 1.44509 0
M  V30 3083 C 284.705 -1.7694 1.54044 0
M  V30 3084 C 285.721 -1.68705 0.425987 0
M  V30 3085 O 286.897 -1.89442 0.683656 0
M  V30 3086 C 283.962 -3.13332 1.48405 0
M  V30 3087 C 283.023 -3.33181 2.70719 0
M  V30 3088 C 282.256 -4.63067 2.6534 0
M  V30 3089 O 282.479 -5.44017 1.71469 0
M  V30 3090 O 281.413 -4.85167 3.56226 0
M  V30 3091 H 285.239 -1.71848 2.50403 0
M  V30 3092 H 282.824 -0.790378 1.26781 0
M  V30 3093 H 284.706 -3.94634 1.47791 0
M  V30 3094 H 283.381 -3.1896 0.551898 0
M  V30 3095 H 282.288 -2.51549 2.769 0
M  V30 3096 H 283.621 -3.32416 3.62988 0
M  V30 3097 N 285.273 -1.31445 -0.869486 0
M  V30 3098 C 286.55 -1.11795 -1.60503 0
M  V30 3099 C 286.93 0.327168 -2.08549 0
M  V30 3100 O 286.278 1.32135 -1.8642 0
M  V30 3101 C 286.488 -2.13258 -2.76265 0
M  V30 3102 C 287.836 -2.45805 -3.46215 0
M  V30 3103 O 288.86 -2.11688 -2.86473 0
M  V30 3104 O 287.719 -3.04228 -4.5399 0
M  V30 3105 H 284.813 -0.430421 -0.706163 0
M  V30 3106 H 287.359 -1.42925 -0.914907 0
M  V30 3107 H 286.131 -3.10461 -2.3818 0
M  V30 3108 H 285.754 -1.83035 -3.52964 0
M  V30 3109 N 286.751 1.08385 -1.14413 0
M  V30 3110 C 287.683 2.1519 -0.789036 0
M  V30 3111 C 288.696 1.61638 0.19417 0
M  V30 3112 O 289.885 1.78479 -0.0275711 0
M  V30 3113 C 286.985 3.38565 -0.15058 0
M  V30 3114 C 286.158 4.21501 -1.16857 0
M  V30 3115 C 285.217 5.23277 -0.553832 0
M  V30 3116 O 284.243 5.56041 -1.21686 0
M  V30 3117 N 285.445 5.76629 0.669296 0
M  V30 3118 H 288.21 2.46257 -1.70814 0
M  V30 3119 H 285.771 1.24198 -1.03858 0
M  V30 3120 H 287.763 4.03777 0.273181 0
M  V30 3121 H 286.333 3.05299 0.671667 0
M  V30 3122 H 285.553 3.52265 -1.76926 0
M  V30 3123 H 286.841 4.73731 -1.85624 0
M  V30 3124 H 286.239 5.52243 1.22654 0
M  V30 3125 H 284.796 6.43521 1.03556 0
M  V30 3126 N 288.23 0.939286 1.26551 0
M  V30 3127 C 289.479 0.581601 1.93133 0
M  V30 3128 C 289.792 -0.883224 1.74524 0
M  V30 3129 O 290.998 -1.3502 2.35546 0
M  V30 3130 C 289.454 0.989425 3.46032 0
M  V30 3131 C 289.062 2.47573 3.73379 0
M  V30 3132 C 290.806 0.703544 4.18629 0
M  V30 3133 C 288.713 2.82235 5.19709 0
M  V30 3134 H 287.643 0.213803 0.723052 0
M  V30 3135 H 290.294 1.14167 1.4366 0
M  V30 3136 H 288.676 0.357902 3.94379 0
M  V30 3137 H 289.85 3.15614 3.35744 0
M  V30 3138 H 288.165 2.73471 3.1401 0
M  V30 3139 H 290.762 0.938869 5.26393 0
M  V30 3140 H 291.105 -0.359639 4.14744 0
M  V30 3141 H 291.638 1.2947 3.76141 0
M  V30 3142 H 288.377 3.87509 5.28694 0
M  V30 3143 H 287.897 2.18854 5.58447 0
M  V30 3144 H 289.576 2.70599 5.87695 0
M  V30 3145 N 289.708 -1.40897 0.706093 0
M  V30 3146 C 290.938 -2.05075 0.250523 0
M  V30 3147 C 291.346 -1.53275 -1.10921 0
M  V30 3148 O 290.689 -0.680281 -1.7064 0
M  V30 3149 C 290.751 -3.59219 0.142178 0
M  V30 3150 C 290.415 -4.33864 1.43566 0
M  V30 3151 C 291.412 -4.62448 2.37566 0
M  V30 3152 C 289.097 -4.72946 1.69195 0
M  V30 3153 C 291.091 -5.29088 3.5545 0
M  V30 3154 C 288.778 -5.3932 2.87362 0
M  V30 3155 C 289.776 -5.6732 3.80312 0
M  V30 3156 O 289.464 -6.32325 4.96408 0
M  V30 3157 H 289.196 -0.666645 0.112074 0
M  V30 3158 H 291.75 -1.81467 0.962239 0
M  V30 3159 H 289.98 -3.81609 -0.6254 0
M  V30 3160 H 291.669 -4.0495 -0.277584 0
M  V30 3161 H 292.435 -4.32727 2.19027 0
M  V30 3162 H 288.314 -4.50527 0.977042 0
M  V30 3163 H 291.858 -5.50859 4.28018 0
M  V30 3164 H 287.755 -5.68461 3.05814 0
M  V30 3165 H 288.523 -6.50821 4.9636 0
M  V30 3166 N 291.186 -0.45159 -1.50991 0
M  V30 3167 C 292.602 -0.104647 -1.59257 0
M  V30 3168 C 292.802 1.38728 -1.4614 0
M  V30 3169 O 291.858 2.15866 -1.30989 0
M  V30 3170 C 293.171 -0.637468 -2.93865 0
M  V30 3171 C 294.719 -0.599166 -3.07212 0
M  V30 3172 C 295.194 -1.1092 -4.44366 0
M  V30 3173 N 296.685 -1.06778 -4.50725 0
M  V30 3174 C 297.42 -1.43314 -5.55201 0
M  V30 3175 N 296.916 -1.87204 -6.67028 0
M  V30 3176 N 298.709 -1.3504 -5.45638 0
M  V30 3177 H 290.86 -1.42214 -1.57762 0
M  V30 3178 H 293.123 -0.586921 -0.744465 0
M  V30 3179 H 292.829 -1.68187 -3.08879 0
M  V30 3180 H 292.703 -0.0702139 -3.77135 0
M  V30 3181 H 295.09 0.436277 -2.91857 0
M  V30 3182 H 295.171 -1.20299 -2.25747 0
M  V30 3183 H 294.815 -2.14318 -4.60467 0
M  V30 3184 H 294.745 -0.481773 -5.24392 0
M  V30 3185 H 297.236 -0.745643 -3.70471 0
M  V30 3186 H 297.549 -2.13282 -7.42786 0
M  V30 3187 H 295.894 -1.91142 -6.68199 0
M  V30 3188 H 299.085 -1.00607 -4.57161 0
M  V30 3189 H 299.258 -1.63841 -6.26945 0
M  V30 3190 N 292.664 1.56529 -0.183458 0
M  V30 3191 C 293.913 1.96419 0.458511 0
M  V30 3192 C 294.226 1.0727 1.63562 0
M  V30 3193 O 295.432 1.36893 2.34462 0
M  V30 3194 C 293.888 3.49298 0.867122 0
M  V30 3195 C 293.496 4.47092 -0.285057 0
M  V30 3196 C 295.24 3.97983 1.47683 0
M  V30 3197 C 293.147 5.91225 0.143862 0
M  V30 3198 H 292.077 0.733394 0.175071 0
M  V30 3199 H 294.728 1.81448 -0.273624 0
M  V30 3200 H 293.11 3.59731 1.65559 0
M  V30 3201 H 294.284 4.48383 -1.0625 0
M  V30 3202 H 292.599 4.08535 -0.805503 0
M  V30 3203 H 295.196 5.03134 1.80999 0
M  V30 3204 H 295.539 3.41618 2.37914 0
M  V30 3205 H 296.072 3.90617 0.752562 0
M  V30 3206 H 292.811 6.5149 -0.723974 0
M  V30 3207 H 292.331 5.93214 0.886413 0
M  V30 3208 H 294.01 6.44362 0.583628 0
M  V30 3209 N 294.142 -0.090211 1.57342 0
M  V30 3210 C 295.419 -0.824761 1.77361 0
M  V30 3211 C 295.799 -1.96698 0.76637 0
M  V30 3212 O 295.147 -2.27586 -0.204179 0
M  V30 3213 C 295.357 -1.31481 3.23286 0
M  V30 3214 C 296.705 -1.75563 3.86604 0
M  V30 3215 O 297.729 -1.41093 3.27065 0
M  V30 3216 O 296.588 -2.39317 4.91314 0
M  V30 3217 H 293.682 -0.393776 0.727234 0
M  V30 3218 H 296.228 -0.0717138 1.69548 0
M  V30 3219 H 295 -0.496671 3.88135 0
M  V30 3220 H 294.623 -2.12973 3.35751 0
M  V30 3221 N 295.62 -1.53406 -0.361157 0
M  V30 3222 C 296.57 -1.76536 -1.44287 0
M  V30 3223 C 297.554 -0.620019 -1.48474 0
M  V30 3224 O 298.746 -0.878834 -1.53641 0
M  V30 3225 C 295.875 -1.96266 -2.81664 0
M  V30 3226 C 294.961 -3.16815 -2.81938 0
M  V30 3227 N 295.352 -4.38637 -2.51855 0
M  V30 3228 C 293.65 -3.17627 -3.13096 0
M  V30 3229 C 294.351 -5.20401 -2.59919 0
M  V30 3230 N 293.327 -4.56712 -2.94814 0
M  V30 3231 H 297.129 -2.68331 -1.19899 0
M  V30 3232 H 294.643 -1.52091 -0.56938 0
M  V30 3233 H 296.64 -2.10966 -3.59582 0
M  V30 3234 H 295.3 -1.05702 -3.07013 0
M  V30 3235 H 296.311 -4.66293 -2.25369 0
M  V30 3236 H 292.988 -2.36971 -3.43731 0
M  V30 3237 H 294.378 -6.27586 -2.39969 0
M  V30 3238 N 297.098 0.621204 -1.44841 0
M  V30 3239 C 298.328 1.40548 -1.51426 0
M  V30 3240 C 298.736 1.88673 -0.141083 0
M  V30 3241 O 298.079 1.62053 0.865128 0
M  V30 3242 C 298.141 2.65325 -2.42576 0
M  V30 3243 C 297.805 2.3893 -3.89566 0
M  V30 3244 C 298.802 2.00138 -4.79834 0
M  V30 3245 C 296.487 2.52263 -4.3436 0
M  V30 3246 C 298.481 1.75021 -6.129 0
M  V30 3247 C 296.168 2.2676 -5.67471 0
M  V30 3248 C 297.166 1.88199 -6.56559 0
M  V30 3249 O 296.854 1.62986 -7.87204 0
M  V30 3250 H 296.586 0.437122 -0.515655 0
M  V30 3251 H 299.14 0.765987 -1.90583 0
M  V30 3252 H 297.37 3.31947 -1.98364 0
M  V30 3253 H 299.059 3.27347 -2.39998 0
M  V30 3254 H 299.825 1.89386 -4.46495 0
M  V30 3255 H 295.704 2.81246 -3.65269 0
M  V30 3256 H 299.248 1.44848 -6.82396 0
M  V30 3257 H 295.145 2.37125 -6.00368 0
M  V30 3258 H 295.913 1.7715 -7.991 0
M  V30 3259 N 298.576 1.31904 0.862503 0
M  V30 3260 C 299.506 1.22782 1.98612 0
M  V30 3261 C 300.487 0.113362 1.69722 0
M  V30 3262 O 301.672 0.299218 1.91881 0
M  V30 3263 C 298.802 0.942058 3.34279 0
M  V30 3264 C 297.756 2.0169 3.77499 0
M  V30 3265 C 297.082 1.58369 5.10709 0
M  V30 3266 C 298.382 3.43096 3.93805 0
M  V30 3267 H 300.076 2.16788 2.06502 0
M  V30 3268 H 297.622 1.04366 0.992154 0
M  V30 3269 H 299.575 0.864818 4.1243 0
M  V30 3270 H 298.299 -0.0336603 3.26583 0
M  V30 3271 H 296.958 2.08416 3.01593 0
M  V30 3272 H 296.606 0.595628 4.99461 0
M  V30 3273 H 296.306 2.30279 5.40597 0
M  V30 3274 H 297.83 1.52067 5.91361 0
M  V30 3275 H 299.244 3.39003 4.62331 0
M  V30 3276 H 297.641 4.13288 4.35101 0
M  V30 3277 H 298.711 3.83334 2.96957 0
M  V30 3278 N 300.054 -1.07777 1.14986 0
M  V30 3279 C 301.302 -1.79934 0.920235 0
M  V30 3280 C 301.623 -1.86955 -0.554336 0
M  V30 3281 O 300.893 -1.36731 -1.40291 0
M  V30 3282 H 299.473 -0.666424 0.337473 0
M  V30 3283 H 302.135 -1.3027 1.44968 0
M  V30 3284 H 301.231 -2.82539 1.32583 0
M  V30 3285 N 301.532 -0.945985 -1.26051 0
M  V30 3286 C 302.479 -0.45809 -2.26208 0
M  V30 3287 C 303.449 0.484816 -1.58867 0
M  V30 3288 O 304.634 0.399969 -1.86561 0
M  V30 3289 C 301.774 0.266131 -3.44072 0
M  V30 3290 C 300.887 -0.713005 -4.26075 0
M  V30 3291 C 300.022 0.0329013 -5.3119 0
M  V30 3292 C 299.061 -0.93774 -6.04874 0
M  V30 3293 N 298.198 -0.223274 -7.01745 0
M  V30 3294 H 303.038 -1.3171 -2.67313 0
M  V30 3295 H 300.575 -0.66069 -1.31428 0
M  V30 3296 H 302.533 0.702514 -4.11243 0
M  V30 3297 H 301.163 1.08925 -3.03867 0
M  V30 3298 H 300.215 -1.26789 -3.58648 0
M  V30 3299 H 301.527 -1.45406 -4.77136 0
M  V30 3300 H 300.681 0.528335 -6.04395 0
M  V30 3301 H 299.42 0.806801 -4.8098 0
M  V30 3302 H 298.425 -1.44425 -5.30492 0
M  V30 3303 H 299.65 -1.71172 -6.57173 0
M  V30 3304 H 297.596 0.532046 -6.53839 0
M  V30 3305 H 297.513 -0.90357 -7.50581 0
M  V30 3306 H 298.781 0.250907 -7.79096 0
M  V30 3307 N 303.011 1.40521 -0.713556 0
M  V30 3308 C 303.921 2.34522 -0.0606667 0
M  V30 3309 C 304.937 1.57193 0.74607 0
M  V30 3310 O 306.113 1.89591 0.679493 0
M  V30 3311 C 303.178 3.36081 0.851491 0
M  V30 3312 C 302.239 4.29286 0.0349339 0
M  V30 3313 C 301.472 5.25994 0.903649 0
M  V30 3314 O 301.695 5.28616 2.14292 0
M  V30 3315 O 300.629 6.00918 0.343723 0
M  V30 3316 H 304.455 2.91968 -0.835972 0
M  V30 3317 H 302.04 1.41681 -0.47402 0
M  V30 3318 H 303.922 3.98369 1.37404 0
M  V30 3319 H 302.597 2.81052 1.60598 0
M  V30 3320 H 301.504 3.70289 -0.532633 0
M  V30 3321 H 302.837 4.87462 -0.681287 0
M  V30 3322 N 304.489 0.459591 1.5075 0
M  V30 3323 C 305.422 -0.386257 2.24907 0
M  V30 3324 C 306.4 -1.006 1.27744 0
M  V30 3325 O 307.584 -1.04416 1.56938 0
M  V30 3326 C 304.711 -1.54021 3.01654 0
M  V30 3327 C 303.757 -1.03898 4.13651 0
M  V30 3328 S 304.59 0.0370501 5.35487 0
M  V30 3329 C 305.746 -1.12105 6.15779 0
M  V30 3330 H 305.979 0.243272 2.96303 0
M  V30 3331 H 303.512 0.244339 1.52454 0
M  V30 3332 H 305.47 -2.20163 3.46466 0
M  V30 3333 H 304.131 -2.14121 2.29806 0
M  V30 3334 H 303.324 -1.90254 4.66711 0
M  V30 3335 H 302.926 -0.45545 3.71216 0
M  V30 3336 H 305.218 -2.03501 6.46215 0
M  V30 3337 H 306.161 -0.62995 7.05292 0
M  V30 3338 H 306.569 -1.36967 5.47631 0
M  V30 3339 N 305.967 -1.56429 0.191757 0
M  V30 3340 C 307.213 -1.97777 -0.448554 0
M  V30 3341 C 307.546 -1.07847 -1.61501 0
M  V30 3342 O 306.821 -0.129774 -1.94067 0
M  V30 3343 C 307.104 -3.48362 -0.911906 0
M  V30 3344 C 306.957 -4.4907 0.256136 0
M  V30 3345 C 308.276 -4.02561 -1.77857 0
M  V30 3346 H 305.395 -0.719071 -0.161572 0
M  V30 3347 H 308.037 -1.87896 0.282007 0
M  V30 3348 H 306.187 -3.56914 -1.53442 0
M  V30 3349 H 307.859 -4.5256 0.893733 0
M  V30 3350 H 306.102 -4.24181 0.908436 0
M  V30 3351 H 306.773 -5.51889 -0.11053 0
M  V30 3352 H 309.249 -3.96767 -1.25359 0
M  V30 3353 H 308.125 -5.08301 -2.07174 0
M  V30 3354 H 308.386 -3.47616 -2.73158 0
M  V30 3355 N 307.445 0.0818655 -1.57387 0
M  V30 3356 C 308.377 1.12484 -1.997 0
M  V30 3357 C 309.39 1.35564 -0.90146 0
M  V30 3358 O 310.579 1.33982 -1.17945 0
M  V30 3359 C 307.679 2.47778 -2.31213 0
M  V30 3360 C 306.852 2.44793 -3.62485 0
M  V30 3361 C 305.911 3.62117 -3.81782 0
M  V30 3362 O 304.937 3.44005 -4.53486 0
M  V30 3363 N 306.139 4.82094 -3.23367 0
M  V30 3364 H 308.904 0.764585 -2.89783 0
M  V30 3365 H 306.465 0.270664 -1.59621 0
M  V30 3366 H 308.457 3.24891 -2.41304 0
M  V30 3367 H 307.027 2.75843 -1.4707 0
M  V30 3368 H 306.247 1.53134 -3.6324 0
M  V30 3369 H 307.535 2.39889 -4.48699 0
M  V30 3370 H 306.933 4.99713 -2.65148 0
M  V30 3371 H 305.49 5.56753 -3.38923 0
M  V30 3372 N 308.923 1.53595 0.353017 0
M  V30 3373 C 309.871 1.81605 1.45335 0
M  V30 3374 C 310.865 0.685923 1.54892 0
M  V30 3375 O 312.071 0.869095 1.57628 0
M  V30 3376 H 308.446 0.575204 0.484401 0
M  V30 3377 H 310.417 2.73679 1.18921 0
M  V30 3378 C 309.166 2.03406 2.81995 0
M  V30 3379 H 308.489 2.89814 2.75405 0
M  V30 3380 H 309.929 2.26975 3.58132 0
M  V30 3381 C 308.388 0.816794 3.26849 0
M  V30 3382 O 308.918 0.0115856 4.01698 0
M  V30 3383 N 307.124 0.636682 2.8354 0
M  V30 3384 H 306.671 1.2931 2.22793 0
M  V30 3385 H 306.629 -0.176336 3.13905 0
M  V30 3386 N 310.401 -0.613514 1.45168 0
M  V30 3387 C 311.331 -1.7354 1.56225 0
M  V30 3388 C 312.312 -1.64981 0.41414 0
M  V30 3389 O 313.497 -1.83472 0.636526 0
M  V30 3390 C 310.627 -3.12128 1.52295 0
M  V30 3391 C 309.581 -3.35491 2.65762 0
M  V30 3392 C 308.907 -4.74291 2.46885 0
M  V30 3393 C 310.207 -3.26325 4.0781 0
M  V30 3394 H 311.901 -1.64543 2.50132 0
M  V30 3395 H 309.447 -0.790185 1.20383 0
M  V30 3396 H 311.4 -3.90404 1.58628 0
M  V30 3397 H 310.124 -3.2195 0.549139 0
M  V30 3398 H 308.783 -2.59603 2.58847 0
M  V30 3399 H 308.431 -4.80839 1.47657 0
M  V30 3400 H 308.131 -4.9088 3.22972 0
M  V30 3401 H 309.655 -5.54775 2.55063 0
M  V30 3402 H 311.069 -3.94483 4.16 0
M  V30 3403 H 309.466 -3.54445 4.8424 0
M  V30 3404 H 310.536 -2.23855 4.30136 0
M  V30 3405 N 311.879 -1.3236 -0.855495 0
M  V30 3406 C 312.812 -1.15559 -1.96777 0
M  V30 3407 C 313.79 -0.0552681 -1.62506 0
M  V30 3408 O 314.974 -0.214419 -1.87277 0
M  V30 3409 C 312.101 -0.768851 -3.29858 0
M  V30 3410 C 311.147 -1.87429 -3.83109 0
M  V30 3411 S 311.98 -3.48243 -4.06801 0
M  V30 3412 C 313.136 -3.11539 -5.42858 0
M  V30 3413 H 313.369 -2.09717 -2.10727 0
M  V30 3414 H 310.902 -1.17011 -1.00737 0
M  V30 3415 H 312.86 -0.55248 -4.06765 0
M  V30 3416 H 311.521 0.153857 -3.13723 0
M  V30 3417 H 310.714 -1.55667 -4.79358 0
M  V30 3418 H 310.316 -2.04647 -3.13042 0
M  V30 3419 H 312.608 -2.61331 -6.2507 0
M  V30 3420 H 313.551 -4.06806 -5.79582 0
M  V30 3421 H 313.959 -2.48582 -5.06821 0
M  V30 3422 N 313.357 1.07166 -1.15556 0
M  V30 3423 C 314.603 1.80065 -0.932984 0
M  V30 3424 C 314.936 1.86586 0.53845 0
M  V30 3425 O 314.211 1.35098 1.39924 0
M  V30 3426 C 314.494 3.25022 -1.55025 0
M  V30 3427 C 314.347 3.26634 -3.09242 0
M  V30 3428 C 315.666 4.22341 -1.2376 0
M  V30 3429 H 312.785 0.653697 -0.340366 0
M  V30 3430 H 315.427 1.25389 -1.4275 0
M  V30 3431 H 313.577 3.71712 -1.12972 0
M  V30 3432 H 315.249 2.88173 -3.60214 0
M  V30 3433 H 313.492 2.65539 -3.43033 0
M  V30 3434 H 314.163 4.28854 -3.47546 0
M  V30 3435 H 316.639 3.8405 -1.60139 0
M  V30 3436 H 315.515 5.22053 -1.69564 0
M  V30 3437 H 315.776 4.41828 -0.154938 0
M  V30 3438 N 314.835 0.952656 1.25548 0
M  V30 3439 C 315.765 0.489287 2.28316 0
M  V30 3440 C 316.746 -0.463359 1.63667 0
M  V30 3441 O 317.931 -0.36274 1.90782 0
M  V30 3442 C 315.061 -0.235603 3.465 0
M  V30 3443 C 314.015 0.631593 4.23314 0
M  V30 3444 C 313.341 -0.223923 5.34231 0
M  V30 3445 C 314.641 1.90871 4.86174 0
M  V30 3446 H 316.335 1.34822 2.67326 0
M  V30 3447 H 313.881 0.649728 1.28509 0
M  V30 3448 H 315.834 -0.570882 4.17515 0
M  V30 3449 H 314.558 -1.12877 3.06474 0
M  V30 3450 H 313.217 0.949929 3.54079 0
M  V30 3451 H 312.865 -1.11678 4.90446 0
M  V30 3452 H 312.565 0.35299 5.86539 0
M  V30 3453 H 314.089 -0.554214 6.0808 0
M  V30 3454 H 315.503 1.63997 5.49343 0
M  V30 3455 H 313.9 2.43112 5.4865 0
M  V30 3456 H 314.97 2.61304 4.08471 0
M  V30 3457 N 316.313 -1.40141 0.720998 0
M  V30 3458 C 317.729 -1.54632 0.395113 0
M  V30 3459 C 317.929 -1.69115 -1.09555 0
M  V30 3460 O 316.985 -1.68377 -1.88163 0
M  V30 3461 C 318.298 -2.77177 1.1659 0
M  V30 3462 C 319.846 -2.91 1.15274 0
M  V30 3463 C 320.321 -4.16465 1.90579 0
M  V30 3464 N 321.812 -4.23476 1.87675 0
M  V30 3465 C 322.547 -5.19475 2.42762 0
M  V30 3466 N 322.043 -6.21348 3.06428 0
M  V30 3467 N 323.836 -5.11592 2.32874 0
M  V30 3468 H 315.987 -1.28986 1.68749 0
M  V30 3469 H 318.25 -0.62412 0.713567 0
M  V30 3470 H 317.956 -2.72771 2.22011 0
M  V30 3471 H 317.83 -3.69442 0.76108 0
M  V30 3472 H 320.217 -2.94907 0.106702 0
M  V30 3473 H 320.298 -1.99838 1.59682 0
M  V30 3474 H 319.942 -4.1332 2.95176 0
M  V30 3475 H 319.872 -5.06646 1.43587 0
M  V30 3476 H 322.363 -3.50497 1.41281 0
M  V30 3477 H 322.676 -6.91034 3.45965 0
M  V30 3478 H 321.021 -6.21777 3.10514 0
M  V30 3479 H 324.212 -4.30936 1.82789 0
M  V30 3480 H 324.385 -5.86233 2.76106 0
M  V30 3481 N 317.792 -0.46758 -1.50504 0
M  V30 3482 C 319.039 0.0886219 -2.02306 0
M  V30 3483 C 319.367 1.40037 -1.34981 0
M  V30 3484 O 318.622 1.90136 -0.463318 0
M  V30 3485 C 318.921 0.323995 -3.55928 0
M  V30 3486 C 318.587 -0.905618 -4.41712 0
M  V30 3487 C 317.249 -1.24275 -4.64875 0
M  V30 3488 C 319.601 -1.72448 -4.91845 0
M  V30 3489 C 316.929 -2.39888 -5.35417 0
M  V30 3490 C 319.281 -2.87185 -5.63656 0
M  V30 3491 C 317.945 -3.21317 -5.85074 0
M  V30 3492 H 317.215 0.0324291 -0.74029 0
M  V30 3493 H 319.862 -0.620945 -1.81153 0
M  V30 3494 H 318.167 1.11577 -3.75577 0
M  V30 3495 H 319.864 0.76826 -3.93572 0
M  V30 3496 H 316.454 -0.632956 -4.239 0
M  V30 3497 H 320.638 -1.4772 -4.73806 0
M  V30 3498 H 315.894 -2.66611 -5.50208 0
M  V30 3499 H 320.068 -3.50985 -6.01484 0
M  V30 3500 H 317.695 -4.1101 -6.39511 0
M  V30 3501 N 319.27 1.56325 -0.20005 0
M  V30 3502 C 320.233 2.18084 0.705132 0
M  V30 3503 C 321.233 1.13666 1.1374 0
M  V30 3504 O 322.423 1.39023 1.04968 0
M  V30 3505 C 319.555 2.78689 1.96329 0
M  V30 3506 H 320.748 2.99435 0.167023 0
M  V30 3507 H 318.301 1.56221 0.0495725 0
M  V30 3508 H 319.036 2.0115 2.5438 0
M  V30 3509 H 318.821 3.55133 1.66202 0
M  V30 3510 H 320.311 3.26096 2.60866 0
M  V30 3511 N 320.748 -0.0735177 1.57428 0
M  V30 3512 C 321.696 -1.10628 2.04607 0
M  V30 3513 C 322.69 -1.40181 0.951088 0
M  V30 3514 O 323.896 -1.39608 1.1362 0
M  V30 3515 H 320.271 -0.374088 0.652351 0
M  V30 3516 H 322.242 -0.682218 2.90497 0
M  V30 3517 C 320.991 -2.41212 2.50423 0
M  V30 3518 H 320.314 -2.19322 3.34272 0
M  V30 3519 H 321.754 -3.11927 2.87189 0
M  V30 3520 C 320.213 -3.0705 1.38644 0
M  V30 3521 O 320.743 -3.95056 0.727582 0
M  V30 3522 N 318.949 -2.67645 1.132 0
M  V30 3523 H 318.496 -1.96169 1.66959 0
M  V30 3524 H 318.454 -3.1202 0.386147 0
M  V30 3525 N 322.226 -1.5378 -0.344866 0
M  V30 3526 C 323.642 -1.44015 -0.687888 0
M  V30 3527 C 323.842 -0.595834 -1.92489 0
M  V30 3528 O 322.898 -0.0863064 -2.52352 0
M  V30 3529 C 324.211 -2.87481 -0.881758 0
M  V30 3530 C 325.759 -2.97247 -0.980459 0
M  V30 3531 C 326.234 -4.41819 -1.20665 0
M  V30 3532 N 327.725 -4.45339 -1.27389 0
M  V30 3533 C 328.46 -5.54333 -1.46639 0
M  V30 3534 N 327.956 -6.73335 -1.63071 0
M  V30 3535 N 329.749 -5.41944 -1.49176 0
M  V30 3536 H 321.9 -2.07169 0.468475 0
M  V30 3537 H 324.163 -0.93643 0.147655 0
M  V30 3538 H 323.869 -3.51672 -0.0443444 0
M  V30 3539 H 323.743 -3.32352 -1.78388 0
M  V30 3540 H 326.13 -2.33197 -1.8084 0
M  V30 3541 H 326.211 -2.5574 -0.0552713 0
M  V30 3542 H 325.855 -5.06449 -0.383652 0
M  V30 3543 H 325.785 -4.80917 -2.14539 0
M  V30 3544 H 328.276 -3.59585 -1.1622 0
M  V30 3545 H 328.589 -7.52165 -1.77391 0
M  V30 3546 H 326.934 -6.76282 -1.60209 0
M  V30 3547 H 330.125 -4.47932 -1.3592 0
M  V30 3548 H 330.298 -6.26946 -1.63837 0
M  V30 3549 N 323.704 0.605807 -1.45491 0
M  V30 3550 C 324.953 1.36086 -1.48874 0
M  V30 3551 C 325.266 1.95131 -0.135333 0
M  V30 3552 O 326.472 2.7146 -0.0468144 0
M  V30 3553 C 324.928 2.46518 -2.62215 0
M  V30 3554 C 324.536 1.93877 -4.03876 0
M  V30 3555 C 326.28 3.23512 -2.74846 0
M  V30 3556 C 324.187 3.01801 -5.08596 0
M  V30 3557 H 323.117 0.511497 -0.553974 0
M  V30 3558 H 325.768 0.649089 -1.71636 0
M  V30 3559 H 324.15 3.20388 -2.32739 0
M  V30 3560 H 325.324 1.26704 -4.43038 0
M  V30 3561 H 323.639 1.29622 -3.95711 0
M  V30 3562 H 326.236 4.04013 -3.50253 0
M  V30 3563 H 326.579 3.74631 -1.81542 0
M  V30 3564 H 327.112 2.56742 -3.03856 0
M  V30 3565 H 323.851 2.55597 -6.03614 0
M  V30 3566 H 323.371 3.67535 -4.74002 0
M  V30 3567 H 325.05 3.66152 -5.33424 0
M  V30 3568 N 325.182 1.32811 0.848464 0
M  V30 3569 C 326.429 1.23724 1.60308 0
M  V30 3570 C 326.757 -0.1994 1.93475 0
M  V30 3571 O 326.012 -1.15406 1.5805 0
M  V30 3572 C 326.311 2.04831 2.92881 0
M  V30 3573 C 325.977 3.54125 2.79117 0
M  V30 3574 C 324.639 3.94829 2.7507 0
M  V30 3575 C 326.991 4.49036 2.64606 0
M  V30 3576 C 324.319 5.28675 2.544 0
M  V30 3577 C 326.671 5.83033 2.4547 0
M  V30 3578 C 325.335 6.22931 2.39819 0
M  V30 3579 H 324.605 0.452737 0.586609 0
M  V30 3580 H 327.252 1.64301 0.983743 0
M  V30 3581 H 325.557 1.57001 3.58968 0
M  V30 3582 H 327.254 1.95164 3.50303 0
M  V30 3583 H 323.844 3.21801 2.83094 0
M  V30 3584 H 328.028 4.18505 2.66772 0
M  V30 3585 H 323.284 5.58637 2.48465 0
M  V30 3586 H 327.458 6.56186 2.33222 0
M  V30 3587 H 325.085 7.26584 2.23562 0
M  V30 3588 N 326.66 -1.06551 1.16123 0
M  V30 3589 C 327.908 -1.78947 0.939267 0
M  V30 3590 C 328.229 -1.87532 -0.534476 0
M  V30 3591 O 327.499 -1.38211 -1.38833 0
M  V30 3592 H 326.079 -0.662807 0.344523 0
M  V30 3593 H 328.741 -1.28725 1.46342 0
M  V30 3594 H 327.837 -2.81117 1.35572 0
M  V30 3595 N 328.138 -0.959301 -1.25041 0
M  V30 3596 C 329.549 -0.65667 -1.74771 0
M  V30 3597 C 329.9 0.827852 -1.77879 0
M  V30 3598 O 329.025 1.64783 -1.40269 0
M  V30 3599 C 329.62 -1.1853 -3.1739 0
M  V30 3600 C 328.179 -0.932734 -3.6466 0
M  V30 3601 C 327.326 -1.32558 -2.43564 0
M  V30 3602 H 330.277 -1.13558 -1.10862 0
M  V30 3603 H 330.298 -0.547582 -3.76539 0
M  V30 3604 H 329.81 -2.26576 -3.15095 0
M  V30 3605 H 327.911 0.13257 -3.72364 0
M  V30 3606 H 328.024 -1.57248 -4.52559 0
M  V30 3607 H 326.388 -0.743956 -2.43593 0
M  V30 3608 H 327.171 -2.41537 -2.43957 0
M  V30 3609 N 329.616 1.39756 -0.72842 0
M  V30 3610 C 330.865 1.99879 -0.270407 0
M  V30 3611 C 331.178 1.58449 1.14688 0
M  V30 3612 O 332.384 2.11362 1.70407 0
M  V30 3613 C 330.84 3.57292 -0.43252 0
M  V30 3614 C 330.448 4.07688 -1.85727 0
M  V30 3615 C 332.192 4.24485 -0.0359507 0
M  V30 3616 C 330.099 5.5765 -1.96928 0
M  V30 3617 H 329.029 0.747689 -0.0973472 0
M  V30 3618 H 331.68 1.59837 -0.901355 0
M  V30 3619 H 330.062 3.95097 0.267219 0
M  V30 3620 H 331.236 3.81231 -2.58843 0
M  V30 3621 H 329.551 3.53135 -2.20646 0
M  V30 3622 H 332.148 5.34609 -0.0987484 0
M  V30 3623 H 332.491 4.03915 1.00787 0
M  V30 3624 H 333.024 3.9183 -0.686604 0
M  V30 3625 H 329.763 5.8309 -2.99476 0
M  V30 3626 H 329.283 5.8593 -1.28241 0
M  V30 3627 H 330.962 6.22957 -1.74737 0
M  V30 3628 N 331.094 0.475555 1.50254 0
M  V30 3629 C 332.34 -0.0701075 2.03279 0
M  V30 3630 C 332.695 -1.37007 1.35081 0
M  V30 3631 O 331.988 -1.8577 0.469052 0
M  V30 3632 C 332.182 -0.305114 3.56095 0
M  V30 3633 C 332.011 0.970515 4.39103 0
M  V30 3634 C 330.781 1.51509 4.82051 0
M  V30 3635 C 332.979 1.8671 4.79212 0
M  V30 3636 N 330.961 2.73928 5.49397 0
M  V30 3637 C 332.332 2.93715 5.46014 0
M  V30 3638 C 334.387 1.87695 4.61167 0
M  V30 3639 C 333.09 4.01699 5.96683 0
M  V30 3640 C 335.116 2.94637 5.12779 0
M  V30 3641 C 334.478 4.00361 5.79561 0
M  V30 3642 H 330.577 0.014486 0.781866 0
M  V30 3643 H 333.161 0.644755 1.83714 0
M  V30 3644 H 331.332 -0.989019 3.75597 0
M  V30 3645 H 333.064 -0.845516 3.95769 0
M  V30 3646 H 329.819 1.06367 4.61501 0
M  V30 3647 H 330.243 3.36109 5.87673 0
M  V30 3648 H 334.885 1.07273 4.08965 0
M  V30 3649 H 332.603 4.82934 6.4792 0
M  V30 3650 H 336.189 2.96388 5.00645 0
M  V30 3651 H 335.069 4.81751 6.18778 0
M  V30 3652 N 332.573 -1.56217 0.208337 0
M  V30 3653 C 333.521 -2.21053 -0.723769 0
M  V30 3654 C 334.515 -1.18578 -1.20978 0
M  V30 3655 O 335.721 -1.36691 -1.17114 0
M  V30 3656 H 332.096 -0.708595 -0.251788 0
M  V30 3657 H 334.067 -2.98006 -0.153365 0
M  V30 3658 C 332.816 -2.89417 -1.927 0
M  V30 3659 H 332.139 -3.68019 -1.56212 0
M  V30 3660 H 333.579 -3.38201 -2.55727 0
M  V30 3661 C 332.038 -1.91166 -2.77411 0
M  V30 3662 O 332.568 -1.42026 -3.75754 0
M  V30 3663 N 330.774 -1.59105 -2.43175 0
M  V30 3664 H 330.321 -1.99259 -1.63259 0
M  V30 3665 H 330.279 -0.936255 -3.00136 0
M  V30 3666 N 334.051 0.0651679 -1.57465 0
M  V30 3667 C 335.467 0.420105 -1.53972 0
M  V30 3668 C 335.667 1.78782 -0.929474 0
M  V30 3669 O 334.723 2.46771 -0.534839 0
M  V30 3670 C 336.036 0.355084 -2.98596 0
M  V30 3671 C 337.584 0.434792 -3.09965 0
M  V30 3672 C 338.059 0.399609 -4.56253 0
M  V30 3673 N 339.55 0.459488 -4.60915 0
M  V30 3674 C 340.285 0.454584 -5.71595 0
M  V30 3675 N 339.781 0.404102 -6.9162 0
M  V30 3676 N 341.574 0.501635 -5.59857 0
M  V30 3677 H 333.725 -0.830328 -1.95498 0
M  V30 3678 H 335.988 -0.312244 -0.895102 0
M  V30 3679 H 335.694 -0.583357 -3.46828 0
M  V30 3680 H 335.568 1.16275 -3.58831 0
M  V30 3681 H 337.955 1.36366 -2.61703 0
M  V30 3682 H 338.036 -0.40157 -2.52628 0
M  V30 3683 H 337.68 -0.525436 -5.05175 0
M  V30 3684 H 337.61 1.25359 -5.11461 0
M  V30 3685 H 340.101 0.502482 -3.74544 0
M  V30 3686 H 340.414 0.404468 -7.71741 0
M  V30 3687 H 338.759 0.37069 -6.94011 0
M  V30 3688 H 341.95 0.538812 -4.64989 0
M  V30 3689 H 342.123 0.494345 -6.46112 0
M  V30 3690 N 335.529 1.53961 0.336706 0
M  V30 3691 C 336.806 1.62171 1.09361 0
M  V30 3692 C 337.186 0.447263 2.06307 0
M  V30 3693 O 336.534 -0.559802 2.21537 0
M  V30 3694 C 336.744 2.98565 1.80721 0
M  V30 3695 C 338.092 3.54157 2.34218 0
M  V30 3696 O 339.116 3.00784 1.90807 0
M  V30 3697 O 337.975 4.47528 3.13657 0
M  V30 3698 H 335.069 0.6562 0.503319 0
M  V30 3699 H 337.615 1.66307 0.33765 0
M  V30 3700 H 336.387 3.75482 1.10132 0
M  V30 3701 H 336.01 2.9805 2.63158 0
M  V30 3702 N 337.007 -0.598083 1.45811 0
M  V30 3703 C 337.955 -1.72932 1.55555 0
M  V30 3704 C 338.949 -1.63984 0.424921 0
M  V30 3705 O 340.155 -1.69663 0.601205 0
M  V30 3706 H 336.53 -0.571489 0.488779 0
M  V30 3707 H 338.501 -1.61842 2.50699 0
M  V30 3708 C 337.25 -3.11318 1.54843 0
M  V30 3709 H 336.573 -3.18867 2.41172 0
M  V30 3710 H 338.013 -3.90274 1.65717 0
M  V30 3711 C 336.472 -3.3578 0.274427 0
M  V30 3712 O 337.002 -3.9654 -0.641778 0
M  V30 3713 N 335.208 -2.90119 0.167139 0
M  V30 3714 H 334.755 -2.40855 0.913596 0
M  V30 3715 H 334.713 -3.0686 -0.684435 0
M  V30 3716 N 338.485 -1.33259 -0.841409 0
M  V30 3717 C 339.734 -1.23921 -1.59143 0
M  V30 3718 C 340.047 0.1941 -1.94635 0
M  V30 3719 O 341.253 0.409474 -2.68394 0
M  V30 3720 C 339.709 -2.17119 -2.87032 0
M  V30 3721 C 339.317 -3.65606 -2.58914 0
M  V30 3722 C 341.061 -2.16648 -3.65053 0
M  V30 3723 C 338.968 -4.50726 -3.82884 0
M  V30 3724 H 337.898 -0.460264 -0.597221 0
M  V30 3725 H 340.549 -1.58307 -0.927959 0
M  V30 3726 H 338.931 -1.75663 -3.54906 0
M  V30 3727 H 340.105 -4.15487 -1.99267 0
M  V30 3728 H 338.42 -3.68341 -1.942 0
M  V30 3729 H 341.017 -2.77474 -4.57069 0
M  V30 3730 H 341.36 -1.16088 -3.99787 0
M  V30 3731 H 341.893 -2.56453 -3.041 0
M  V30 3732 H 338.632 -5.52151 -3.53283 0
M  V30 3733 H 338.152 -4.0559 -4.41879 0
M  V30 3734 H 339.831 -4.64401 -4.50489 0
M  V30 3735 N 339.963 1.05934 -1.16686 0
M  V30 3736 C 340.926 2.11669 -0.879144 0
M  V30 3737 C 341.926 1.60294 0.127445 0
M  V30 3738 O 343.116 1.7389 -0.103865 0
M  V30 3739 C 340.248 3.39438 -0.315425 0
M  V30 3740 H 341.441 2.38626 -1.81653 0
M  V30 3741 H 338.994 1.22058 -0.976299 0
M  V30 3742 H 339.729 3.18132 0.629468 0
M  V30 3743 H 339.514 3.78034 -1.04079 0
M  V30 3744 H 341.004 4.17391 -0.132189 0
M  V30 3745 N 341.441 0.965919 1.2453 0
M  V30 3746 C 342.681 0.634656 1.94297 0
M  V30 3747 C 343.045 -0.814822 1.73852 0
M  V30 3748 O 344.246 -1.25622 2.3764 0
M  V30 3749 C 342.517 0.99702 3.43212 0
M  V30 3750 S 344.076 0.780038 4.31811 0
M  V30 3751 H 340.894 0.232893 0.671775 0
M  V30 3752 H 343.496 1.24249 1.50938 0
M  V30 3753 H 342.2 2.04886 3.55598 0
M  V30 3754 H 341.731 0.379888 3.91562 0
M  V30 3755 H 343.746 -0.343512 4.9501 0
M  V30 3756 N 342.919 -1.39368 0.735821 0
M  V30 3757 C 344.165 -2.00794 0.284544 0
M  V30 3758 C 344.498 -1.58255 -1.12557 0
M  V30 3759 O 343.773 -0.811819 -1.76748 0
M  V30 3760 C 344.056 -3.58011 0.387337 0
M  V30 3761 C 343.909 -4.10566 1.83728 0
M  V30 3762 C 345.228 -4.395 -0.22975 0
M  V30 3763 H 342.347 -0.729501 0.104866 0
M  V30 3764 H 344.989 -1.65564 0.93213 0
M  V30 3765 H 343.139 -3.88154 -0.164006 0
M  V30 3766 H 344.811 -3.91139 2.44556 0
M  V30 3767 H 343.054 -3.64095 2.35833 0
M  V30 3768 H 343.725 -5.19702 1.86047 0
M  V30 3769 H 346.201 -4.15406 0.240257 0
M  V30 3770 H 345.077 -5.48752 -0.127485 0
M  V30 3771 H 345.338 -4.22062 -1.3159 0
M  V30 3772 N 344.397 -0.483516 -1.5 0
M  V30 3773 C 345.646 0.0689102 -2.01582 0
M  V30 3774 C 345.959 1.39655 -1.36952 0
M  V30 3775 O 347.165 2.03465 -1.79762 0
M  V30 3776 C 345.621 0.173302 -3.59483 0
M  V30 3777 C 345.229 -1.14665 -4.33077 0
M  V30 3778 C 346.973 0.677024 -4.19066 0
M  V30 3779 C 344.88 -1.00537 -5.82792 0
M  V30 3780 H 343.81 0.0295277 -0.753422 0
M  V30 3781 H 346.461 -0.620295 -1.72698 0
M  V30 3782 H 344.843 0.926569 -3.85007 0
M  V30 3783 H 346.017 -1.91184 -4.19268 0
M  V30 3784 H 344.332 -1.58244 -3.85159 0
M  V30 3785 H 346.929 0.799952 -5.28682 0
M  V30 3786 H 347.272 1.67151 -3.81269 0
M  V30 3787 H 347.805 -0.0192083 -3.97795 0
M  V30 3788 H 344.544 -1.9736 -6.25083 0
M  V30 3789 H 344.064 -0.280776 -5.99142 0
M  V30 3790 H 345.743 -0.677 -6.43448 0
M  V30 3791 N 345.875 1.56104 -0.216619 0
M  V30 3792 C 346.805 2.23063 0.690296 0
M  V30 3793 C 347.786 1.20072 1.20485 0
M  V30 3794 O 348.971 1.48643 1.24976 0
M  V30 3795 C 346.101 2.90672 1.90072 0
M  V30 3796 C 345.055 4.00092 1.5202 0
M  V30 3797 C 344.381 4.54972 2.80899 0
M  V30 3798 C 345.681 5.17398 0.71391 0
M  V30 3799 H 347.375 2.99109 0.132038 0
M  V30 3800 H 344.921 1.43866 0.0620664 0
M  V30 3801 H 346.874 3.36204 2.54057 0
M  V30 3802 H 345.598 2.12066 2.48386 0
M  V30 3803 H 344.257 3.55283 0.903839 0
M  V30 3804 H 343.905 3.73102 3.37348 0
M  V30 3805 H 343.605 5.28817 2.56176 0
M  V30 3806 H 345.129 5.0322 3.45836 0
M  V30 3807 H 346.543 5.59342 1.25735 0
M  V30 3808 H 344.94 5.97444 0.563951 0
M  V30 3809 H 346.01 4.84088 -0.280527 0
M  V30 3810 N 347.353 -0.0568162 1.57498 0
M  V30 3811 C 348.581 -0.765626 1.92213 0
M  V30 3812 C 348.996 -1.70353 0.813961 0
M  V30 3813 O 348.353 -1.81268 -0.211701 0
M  V30 3814 C 348.404 -1.5465 3.2675 0
M  V30 3815 O 348.125 -0.646278 4.33307 0
M  V30 3816 C 349.626 -2.35497 3.75574 0
M  V30 3817 H 346.846 -0.216835 0.634999 0
M  V30 3818 H 349.39 -0.0226146 2.04487 0
M  V30 3819 H 347.545 -2.24165 3.15957 0
M  V30 3820 H 347.959 -1.19093 5.108 0
M  V30 3821 H 349.433 -2.85722 4.72299 0
M  V30 3822 H 349.91 -3.15692 3.05344 0
M  V30 3823 H 350.516 -1.7111 3.8936 0
M  V30 3824 N 348.832 -1.54138 -0.328536 0
M  V30 3825 C 350.079 -1.72105 -1.06706 0
M  V30 3826 C 350.407 -0.492111 -1.88171 0
M  V30 3827 O 349.662 0.526153 -1.88494 0
M  V30 3828 C 349.961 -2.9457 -2.02393 0
M  V30 3829 C 349.627 -4.29544 -1.37122 0
M  V30 3830 C 348.289 -4.6624 -1.19052 0
M  V30 3831 C 350.641 -5.1333 -0.902331 0
M  V30 3832 C 347.969 -5.84325 -0.527331 0
M  V30 3833 C 350.321 -6.32094 -0.252988 0
M  V30 3834 C 348.985 -6.67473 -0.0600901 0
M  V30 3835 H 348.255 -0.629775 -0.390466 0
M  V30 3836 H 350.902 -1.88372 -0.34473 0
M  V30 3837 H 349.207 -2.72969 -2.81061 0
M  V30 3838 H 350.904 -3.05665 -2.59557 0
M  V30 3839 H 347.494 -4.0067 -1.52188 0
M  V30 3840 H 351.678 -4.855 -1.02974 0
M  V30 3841 H 346.934 -6.103 -0.366634 0
M  V30 3842 H 351.108 -6.96299 0.118366 0
M  V30 3843 H 348.735 -7.58832 0.455828 0
M  V30 3844 N 350.31 0.590341 -1.46126 0
M  V30 3845 C 351.257 1.69994 -1.56111 0
M  V30 3846 C 352.227 1.61065 -0.405867 0
M  V30 3847 O 353.412 1.8039 -0.621613 0
M  V30 3848 C 350.552 3.08326 -1.55013 0
M  V30 3849 C 349.665 3.27936 -2.81215 0
M  V30 3850 C 348.8 4.56473 -2.71673 0
M  V30 3851 C 347.839 4.694 -3.92849 0
M  V30 3852 N 346.976 5.89254 -3.81738 0
M  V30 3853 H 351.816 1.60797 -2.50895 0
M  V30 3854 H 349.353 0.783799 -1.24479 0
M  V30 3855 H 351.311 3.88383 -1.52362 0
M  V30 3856 H 349.941 3.16439 -0.637667 0
M  V30 3857 H 348.993 2.41536 -2.93879 0
M  V30 3858 H 350.305 3.33357 -3.71045 0
M  V30 3859 H 349.459 5.44748 -2.67085 0
M  V30 3860 H 348.198 4.53477 -1.7947 0
M  V30 3861 H 347.203 3.79544 -3.97777 0
M  V30 3862 H 348.428 4.7418 -4.86138 0
M  V30 3863 H 346.374 5.87271 -2.92317 0
M  V30 3864 H 346.291 5.95911 -4.65217 0
M  V30 3865 H 347.559 6.79981 -3.81112 0
M  V30 3866 N 351.788 1.33704 0.83433 0
M  V30 3867 C 352.698 1.26382 1.97648 0
M  V30 3868 C 353.714 0.173548 1.73132 0
M  V30 3869 O 354.89 0.397962 1.97429 0
M  V30 3870 C 351.955 1.00769 3.31733 0
M  V30 3871 C 351.016 2.1884 3.69334 0
M  V30 3872 C 350.249 1.9444 4.9702 0
M  V30 3873 O 350.472 0.896961 5.63303 0
M  V30 3874 O 349.406 2.81093 5.32231 0
M  V30 3875 H 353.232 2.22444 2.06767 0
M  V30 3876 H 350.817 1.13795 0.968037 0
M  V30 3877 H 352.699 0.882186 4.12062 0
M  V30 3878 H 351.374 0.0773783 3.23608 0
M  V30 3879 H 350.281 2.36946 2.89495 0
M  V30 3880 H 351.614 3.10221 3.82131 0
M  V30 3881 N 353.266 -1.05314 1.17247 0
M  V30 3882 C 354.677 -1.59753 0.96623 0
M  V30 3883 C 355.028 -1.9005 -0.487378 0
M  V30 3884 O 354.153 -1.68126 -1.36245 0
M  V30 3885 C 354.748 -2.90249 1.74759 0
M  V30 3886 C 353.307 -3.41352 1.58606 0
M  V30 3887 C 352.454 -2.15103 1.75002 0
M  V30 3888 H 355.405 -0.881406 1.31973 0
M  V30 3889 H 355.426 -3.60097 1.22925 0
M  V30 3890 H 354.938 -2.68166 2.8055 0
M  V30 3891 H 353.039 -3.68474 0.552985 0
M  V30 3892 H 353.152 -4.16019 2.37624 0
M  V30 3893 H 351.516 -2.25804 1.17833 0
M  V30 3894 H 352.299 -1.95491 2.82202 0
M  V30 3895 N 354.744 -0.972509 -1.24016 0
M  V30 3896 C 355.991 -0.637034 -1.92219 0
M  V30 3897 C 356.319 0.828418 -1.75976 0
M  V30 3898 O 355.574 1.61206 -1.10955 0
M  V30 3899 C 355.873 -0.963694 -3.44162 0
M  V30 3900 C 355.539 -2.41807 -3.80579 0
M  V30 3901 C 354.201 -2.81556 -3.9023 0
M  V30 3902 C 356.553 -3.36172 -3.98293 0
M  V30 3903 C 353.881 -4.14702 -4.15017 0
M  V30 3904 C 356.233 -4.68952 -4.24578 0
M  V30 3905 C 354.897 -5.08472 -4.32449 0
M  V30 3906 H 354.167 -0.233107 -0.703379 0
M  V30 3907 H 356.814 -1.2249 -1.47202 0
M  V30 3908 H 355.119 -0.29365 -3.90698 0
M  V30 3909 H 356.816 -0.682449 -3.9515 0
M  V30 3910 H 353.406 -2.09988 -3.73635 0
M  V30 3911 H 357.59 -3.06644 -3.90234 0
M  V30 3912 H 352.846 -4.4494 -4.19331 0
M  V30 3913 H 357.02 -5.42037 -4.37229 0
M  V30 3914 H 354.647 -6.11665 -4.51409 0
M  V30 3915 N 356.222 1.38976 -0.743202 0
M  V30 3916 C 357.47 1.99948 -0.29417 0
M  V30 3917 C 357.791 1.59279 1.12495 0
M  V30 3918 O 357.061 0.844808 1.76748 0
M  V30 3919 H 355.641 0.739473 -0.105774 0
M  V30 3920 H 358.303 1.699 -0.954986 0
M  V30 3921 H 357.399 3.10142 -0.349056 0
M  V30 3922 N 357.7 0.491464 1.49741 0
M  V30 3923 C 358.928 -0.0535151 2.06831 0
M  V30 3924 C 359.343 -1.31683 1.35296 0
M  V30 3925 O 358.7 -1.77402 0.42836 0
M  V30 3926 C 358.751 -0.320835 3.60073 0
M  V30 3927 O 358.472 0.892394 4.28915 0
M  V30 3928 C 359.973 -0.910519 4.33848 0
M  V30 3929 H 357.193 0.0161909 0.670805 0
M  V30 3930 H 359.737 0.68609 1.92647 0
M  V30 3931 H 357.892 -1.0104 3.73991 0
M  V30 3932 H 358.306 0.649401 5.20464 0
M  V30 3933 H 359.78 -1.04721 5.41976 0
M  V30 3934 H 360.257 -1.90589 3.95692 0
M  V30 3935 H 360.863 -0.258712 4.24512 0
M  V30 3936 N 359.178 -1.55987 0.224894 0
M  V30 3937 C 360.088 -2.24066 -0.69511 0
M  V30 3938 C 361.104 -1.24939 -1.21104 0
M  V30 3939 O 362.28 -1.5776 -1.25195 0
M  V30 3940 C 359.345 -2.90983 -1.88493 0
M  V30 3941 C 358.406 -4.05462 -1.41064 0
M  V30 3942 C 357.639 -4.69179 -2.54375 0
M  V30 3943 O 357.862 -4.31895 -3.72589 0
M  V30 3944 O 356.796 -5.58108 -2.25386 0
M  V30 3945 H 360.622 -3.03353 -0.145149 0
M  V30 3946 H 358.207 -1.49399 -0.00569476 0
M  V30 3947 H 360.089 -3.33209 -2.57972 0
M  V30 3948 H 358.764 -2.14653 -2.42293 0
M  V30 3949 H 357.671 -3.67798 -0.683774 0
M  V30 3950 H 359.004 -4.83545 -0.918985 0
M  V30 3951 N 360.656 0.0484629 -1.57525 0
M  V30 3952 C 361.904 0.741657 -1.88 0
M  V30 3953 C 362.225 1.76918 -0.820054 0
M  V30 3954 O 361.495 1.95335 0.148661 0
M  V30 3955 H 360.075 0.276908 -0.69378 0
M  V30 3956 H 362.737 0.019013 -1.94891 0
M  V30 3957 H 361.833 1.24336 -2.86264 0
M  V30 3958 N 362.134 1.5431 0.320358 0
M  V30 3959 C 363.55 1.45091 0.664889 0
M  V30 3960 C 363.75 0.626382 1.91517 0
M  V30 3961 O 362.806 0.126443 2.52183 0
M  V30 3962 C 364.119 2.88848 0.83591 0
M  V30 3963 C 365.667 2.9877 0.933046 0
M  V30 3964 C 366.142 4.43683 1.13621 0
M  V30 3965 N 367.633 4.47309 1.20287 0
M  V30 3966 C 368.368 5.56595 1.37801 0
M  V30 3967 N 367.864 6.75844 1.52338 0
M  V30 3968 N 369.657 5.44248 1.40535 0
M  V30 3969 H 361.808 2.06398 -0.501374 0
M  V30 3970 H 364.071 0.933963 -0.162534 0
M  V30 3971 H 363.777 3.51698 -0.0116092 0
M  V30 3972 H 363.651 3.35148 1.73078 0
M  V30 3973 H 366.038 2.36045 1.77107 0
M  V30 3974 H 366.119 2.55796 0.0145782 0
M  V30 3975 H 365.763 5.06995 0.303032 0
M  V30 3976 H 365.693 4.84269 2.0686 0
M  V30 3977 H 368.184 3.61388 1.10485 0
M  V30 3978 H 368.497 7.54892 1.65403 0
M  V30 3979 H 366.842 6.78746 1.4943 0
M  V30 3980 H 370.033 4.50038 1.28777 0
M  V30 3981 H 370.206 6.29473 1.53842 0
M  V30 3982 N 363.613 -0.582584 1.46437 0
M  V30 3983 C 364.861 -1.33814 1.51453 0
M  V30 3984 C 365.182 -1.94277 0.167792 0
M  V30 3985 O 364.452 -1.78566 -0.805677 0
M  V30 3986 H 363.032 -0.496838 0.557818 0
M  V30 3987 H 365.694 -0.682281 1.82568 0
M  V30 3988 H 364.79 -2.14479 2.26728 0
M  V30 3989 N 365.091 -1.34144 -0.827227 0
M  V30 3990 C 366.339 -1.26009 -1.58007 0
M  V30 3991 C 366.66 0.170971 -1.94249 0
M  V30 3992 O 365.93 1.10256 -1.61927 0
M  V30 3993 H 364.51 -0.463414 -0.585881 0
M  V30 3994 H 367.172 -1.68005 -0.987951 0
M  V30 3995 H 366.268 -1.86187 -2.50481 0
M  V30 3996 N 366.569 1.04691 -1.17803 0
M  V30 3997 C 367.799 1.81183 -0.992788 0
M  V30 3998 C 368.207 1.8347 0.462098 0
M  V30 3999 O 367.55 1.2643 1.33271 0
M  V30 4000 C 367.612 3.28363 -1.46349 0
M  V30 4001 C 367.276 3.49749 -2.94151 0
M  V30 4002 C 368.273 3.41456 -3.92051 0
M  V30 4003 C 365.958 3.76548 -3.32441 0
M  V30 4004 C 367.952 3.59656 -5.26238 0
M  V30 4005 C 365.639 3.94396 -4.66792 0
M  V30 4006 C 366.637 3.8595 -5.635 0
M  V30 4007 O 366.325 4.03294 -6.9542 0
M  V30 4008 H 366.057 0.577622 -0.351182 0
M  V30 4009 H 368.611 1.32876 -1.5663 0
M  V30 4010 H 366.841 3.77609 -0.833574 0
M  V30 4011 H 368.53 3.86395 -1.24313 0
M  V30 4012 H 369.296 3.20723 -3.63815 0
M  V30 4013 H 365.175 3.82224 -2.57732 0
M  V30 4014 H 368.719 3.52979 -6.01707 0
M  V30 4015 H 364.616 4.14622 -4.94731 0
M  V30 4016 H 365.384 4.2049 -7.02232 0
M  V30 4017 N 368.047 0.979072 1.23499 0
M  V30 4018 C 369.294 0.647219 1.91878 0
M  V30 4019 C 369.622 -0.819074 1.76413 0
M  V30 4020 O 368.877 -1.60616 1.11808 0
M  V30 4021 C 369.176 0.981932 3.43646 0
M  V30 4022 C 368.842 2.43822 3.79291 0
M  V30 4023 C 367.504 2.83622 3.88731 0
M  V30 4024 C 369.856 3.3828 3.96505 0
M  V30 4025 C 367.184 4.16897 4.12812 0
M  V30 4026 C 369.536 4.71197 4.22085 0
M  V30 4027 C 368.2 5.10758 4.29747 0
M  V30 4028 H 367.47 0.236834 0.702133 0
M  V30 4029 H 370.117 1.23268 1.46551 0
M  V30 4030 H 368.422 0.314365 3.90537 0
M  V30 4031 H 370.119 0.703395 3.94783 0
M  V30 4032 H 366.709 2.11966 3.72516 0
M  V30 4033 H 370.893 3.0871 3.88603 0
M  V30 4034 H 366.149 4.47157 4.16966 0
M  V30 4035 H 370.323 5.44348 4.34348 0
M  V30 4036 H 367.95 6.1405 4.48159 0
M  V30 4037 N 369.525 -1.3858 0.750561 0
M  V30 4038 C 370.802 -1.94231 0.231009 0
M  V30 4039 C 371.182 -1.68611 -1.27018 0
M  V30 4040 O 370.53 -1.02296 -2.04323 0
M  V30 4041 C 370.74 -3.44123 0.581428 0
M  V30 4042 C 372.088 -4.2116 0.539389 0
M  V30 4043 O 373.112 -3.52391 0.519541 0
M  V30 4044 O 371.971 -5.43749 0.54765 0
M  V30 4045 H 369.065 -0.825639 0.0474263 0
M  V30 4046 H 371.611 -1.4799 0.830478 0
M  V30 4047 H 370.383 -3.56267 1.61833 0
M  V30 4048 H 370.006 -3.97573 -0.0462047 0
M  V30 4049 N 371.003 -0.499398 -1.49478 0
M  V30 4050 C 371.913 0.284489 -2.32869 0
M  V30 4051 C 372.929 0.968885 -1.44529 0
M  V30 4052 O 374.105 0.95062 -1.77553 0
M  V30 4053 C 371.17 1.33594 -3.19928 0
M  V30 4054 C 370.231 0.665149 -4.24116 0
M  V30 4055 C 369.464 1.6665 -5.07014 0
M  V30 4056 O 369.687 2.89618 -4.91404 0
M  V30 4057 O 368.621 1.22271 -5.8935 0
M  V30 4058 H 372.447 -0.39802 -3.01081 0
M  V30 4059 H 370.032 -0.260758 -1.47107 0
M  V30 4060 H 371.914 1.94431 -3.73864 0
M  V30 4061 H 370.589 2.0014 -2.54412 0
M  V30 4062 H 369.496 0.0170769 -3.74096 0
M  V30 4063 H 370.829 0.0421555 -4.92182 0
M  V30 4064 N 372.481 1.55866 -0.233164 0
M  V30 4065 C 373.728 1.98603 0.395374 0
M  V30 4066 C 374.056 1.12105 1.58942 0
M  V30 4067 O 373.311 0.168656 1.94972 0
M  V30 4068 C 373.61 3.46856 0.861724 0
M  V30 4069 C 373.276 4.50348 -0.223066 0
M  V30 4070 C 371.938 4.78371 -0.521038 0
M  V30 4071 C 374.29 5.12355 -0.956124 0
M  V30 4072 C 371.618 5.6568 -1.55638 0
M  V30 4073 C 373.97 6.00786 -1.98089 0
M  V30 4074 C 372.634 6.27148 -2.28565 0
M  V30 4075 H 371.904 0.726739 0.144677 0
M  V30 4076 H 374.551 1.88491 -0.338114 0
M  V30 4077 H 372.856 3.5423 1.67418 0
M  V30 4078 H 374.553 3.77302 1.35809 0
M  V30 4079 H 371.143 4.28596 0.0193234 0
M  V30 4080 H 375.327 4.90765 -0.739166 0
M  V30 4081 H 370.583 5.84365 -1.798 0
M  V30 4082 H 374.757 6.4788 -2.55391 0
M  V30 4083 H 372.384 6.94597 -3.08932 0
M  V30 4084 N 373.959 -0.0401083 1.57549 0
M  V30 4085 C 375.207 -0.731677 1.8839 0
M  V30 4086 C 375.528 -1.76481 0.829425 0
M  V30 4087 O 374.798 -1.95411 -0.1383 0
M  V30 4088 H 373.378 -0.273225 0.695239 0
M  V30 4089 H 376.04 -0.00867725 1.94898 0
M  V30 4090 H 375.136 -1.22816 2.86919 0
M  V30 4091 N 375.437 -1.54477 -0.31217 0
M  V30 4092 C 376.686 -1.72438 -1.04633 0
M  V30 4093 C 376.999 -0.511163 -1.88803 0
M  V30 4094 O 378.205 -0.572341 -2.65399 0
M  V30 4095 C 376.661 -3.05043 -1.9099 0
M  V30 4096 C 376.269 -4.33806 -1.11877 0
M  V30 4097 C 378.013 -3.32364 -2.64073 0
M  V30 4098 C 375.92 -5.57467 -1.97445 0
M  V30 4099 H 374.85 -0.642647 -0.394361 0
M  V30 4100 H 377.501 -1.80966 -0.303929 0
M  V30 4101 H 375.883 -2.90451 -2.69173 0
M  V30 4102 H 377.057 -4.59199 -0.383843 0
M  V30 4103 H 375.372 -4.13336 -0.504252 0
M  V30 4104 H 377.969 -4.21951 -3.28423 0
M  V30 4105 H 378.312 -2.50745 -3.32314 0
M  V30 4106 H 378.845 -3.47875 -1.92944 0
M  V30 4107 H 375.584 -6.41722 -1.33692 0
M  V30 4108 H 375.104 -5.36277 -2.6864 0
M  V30 4109 H 376.783 -5.94303 -2.5576 0
M  V30 4110 N 376.915 0.57481 -1.46744 0
M  V30 4111 C 378.164 1.32898 -1.51727 0
M  V30 4112 C 378.477 1.948 -0.176692 0
M  V30 4113 O 379.683 2.71299 -0.104385 0
M  V30 4114 C 378.139 2.40901 -2.67385 0
M  V30 4115 C 377.747 1.85266 -4.07898 0
M  V30 4116 C 379.491 3.17609 -2.81646 0
M  V30 4117 C 377.398 2.90945 -5.14883 0
M  V30 4118 H 376.328 0.499631 -0.564699 0
M  V30 4119 H 378.979 0.612536 -1.72975 0
M  V30 4120 H 377.361 3.15379 -2.39483 0
M  V30 4121 H 378.535 1.17278 -4.45626 0
M  V30 4122 H 376.85 1.21199 -3.98371 0
M  V30 4123 H 379.447 3.96493 -3.58744 0
M  V30 4124 H 379.79 3.70696 -1.89448 0
M  V30 4125 H 380.323 2.50239 -3.09233 0
M  V30 4126 H 377.062 2.42736 -6.089 0
M  V30 4127 H 376.582 3.57398 -4.81691 0
M  V30 4128 H 378.261 3.54755 -5.41071 0
M  V30 4129 N 378.394 1.34581 0.820102 0
M  V30 4130 C 379.81 1.14325 1.11364 0
M  V30 4131 C 380.01 -0.0533648 2.01429 0
M  V30 4132 O 379.066 -0.728044 2.41776 0
M  V30 4133 C 380.379 2.43983 1.75764 0
M  V30 4134 C 381.927 2.50065 1.88246 0
M  V30 4135 C 382.402 3.79732 2.56061 0
M  V30 4136 N 383.893 3.80908 2.63558 0
M  V30 4137 C 384.628 4.77961 3.16766 0
M  V30 4138 N 384.124 5.85397 3.70517 0
M  V30 4139 N 385.917 4.65413 3.15194 0
M  V30 4140 H 378.068 2.11246 0.221096 0
M  V30 4141 H 380.331 0.934289 0.160649 0
M  V30 4142 H 380.037 3.31651 1.1705 0
M  V30 4143 H 379.911 2.57531 2.75604 0
M  V30 4144 H 382.298 1.62834 2.46108 0
M  V30 4145 H 382.379 2.40442 0.873006 0
M  V30 4146 H 382.023 4.67354 1.98853 0
M  V30 4147 H 381.953 3.86639 3.57516 0
M  V30 4148 H 384.444 3.03274 2.25463 0
M  V30 4149 H 384.757 6.55463 4.09376 0
M  V30 4150 H 383.102 5.89107 3.68752 0
M  V30 4151 H 386.293 3.80627 2.72471 0
M  V30 4152 H 386.466 5.41216 3.56356 0
M  V30 4153 N 379.872 -1.04064 1.18357 0
M  V30 4154 C 381.149 -1.74252 0.888581 0
M  V30 4155 C 381.529 -2.02138 -0.60856 0
M  V30 4156 O 380.877 -1.66656 -1.56327 0
M  V30 4157 C 381.087 -3.0277 1.73584 0
M  V30 4158 C 382.435 -3.76506 1.96286 0
M  V30 4159 O 383.459 -3.12668 1.70637 0
M  V30 4160 O 382.318 -4.91243 2.39464 0
M  V30 4161 H 379.412 -0.758271 0.330082 0
M  V30 4162 H 381.958 -1.1013 1.2911 0
M  V30 4163 H 380.73 -2.78299 2.75073 0
M  V30 4164 H 380.353 -3.74631 1.33183 0
M  V30 4165 N 381.35 -0.985608 -1.22978 0
M  V30 4166 C 382.596 -0.65836 -1.91816 0
M  V30 4167 C 382.929 0.806692 -1.76653 0
M  V30 4168 O 382.204 1.58252 -1.13078 0
M  V30 4169 C 382.487 -1.056 -3.44268 0
M  V30 4170 C 382.34 -2.57906 -3.68516 0
M  V30 4171 C 383.659 -0.603781 -4.35939 0
M  V30 4172 H 380.778 -0.24065 -0.696604 0
M  V30 4173 H 383.42 -1.22783 -1.44998 0
M  V30 4174 H 381.57 -0.571445 -3.84274 0
M  V30 4175 H 383.242 -3.13976 -3.3796 0
M  V30 4176 H 381.485 -3.00305 -3.13048 0
M  V30 4177 H 382.156 -2.80779 -4.75255 0
M  V30 4178 H 384.632 -1.01987 -4.03408 0
M  V30 4179 H 383.508 -0.910383 -5.41298 0
M  V30 4180 H 383.769 0.495761 -4.39312 0
M  V30 4181 N 382.828 1.3818 -0.7579 0
M  V30 4182 C 383.761 2.28055 -0.0814093 0
M  V30 4183 C 384.739 1.45603 0.723779 0
M  V30 4184 O 385.923 1.74961 0.701491 0
M  V30 4185 C 383.05 3.2676 0.891394 0
M  V30 4186 C 382.096 4.26153 0.171909 0
M  V30 4187 S 382.929 5.23434 -1.13035 0
M  V30 4188 C 384.085 6.25694 -0.160727 0
M  V30 4189 H 384.318 2.85082 -0.84353 0
M  V30 4190 H 381.851 1.44246 -0.550671 0
M  V30 4191 H 383.809 3.8414 1.44731 0
M  V30 4192 H 382.47 2.68706 1.62652 0
M  V30 4193 H 381.663 4.95738 0.908843 0
M  V30 4194 H 381.265 3.72691 -0.312606 0
M  V30 4195 H 383.557 6.74161 0.671773 0
M  V30 4196 H 384.5 7.03285 -0.824353 0
M  V30 4197 H 384.908 5.64064 0.221892 0
M  V30 4198 N 384.306 0.507319 1.49211 0
M  V30 4199 C 385.238 -0.304532 2.27168 0
M  V30 4200 C 386.251 -0.924956 1.33972 0
M  V30 4201 O 387.44 -0.807227 1.59205 0
M  V30 4202 C 384.54 -1.44431 3.06583 0
M  V30 4203 C 383.713 -0.930026 4.27398 0
M  V30 4204 C 382.772 -1.94817 4.88807 0
M  V30 4205 O 381.798 -1.51418 5.4869 0
M  V30 4206 N 383 -3.279 4.79022 0
M  V30 4207 H 385.765 0.36395 2.97482 0
M  V30 4208 H 383.326 0.340249 1.58284 0
M  V30 4209 H 385.318 -2.12311 3.44537 0
M  V30 4210 H 383.888 -2.01684 2.38835 0
M  V30 4211 H 383.108 -0.0759244 3.94127 0
M  V30 4212 H 384.396 -0.564932 5.05654 0
M  V30 4213 H 383.794 -3.65843 4.3148 0
M  V30 4214 H 382.351 -3.91476 5.21142 0
M  V30 4215 N 385.784 -1.5574 0.241426 0
M  V30 4216 C 386.732 -2.22538 -0.676718 0
M  V30 4217 C 387.726 -1.21117 -1.18436 0
M  V30 4218 O 388.932 -1.39144 -1.14188 0
M  V30 4219 H 385.307 -0.713776 -0.236701 0
M  V30 4220 H 387.278 -2.98264 -0.0901187 0
M  V30 4221 C 386.027 -2.93439 -1.86518 0
M  V30 4222 H 385.35 -3.7125 -1.4837 0
M  V30 4223 H 386.79 -3.43549 -2.48495 0
M  V30 4224 C 385.249 -1.97008 -2.73294 0
M  V30 4225 O 385.779 -1.49965 -3.72657 0
M  V30 4226 N 383.985 -1.64227 -2.39745 0
M  V30 4227 H 383.532 -2.02677 -1.58996 0
M  V30 4228 H 383.49 -0.999708 -2.98083 0
M  V30 4229 N 387.262 0.0317525 -1.57568 0
M  V30 4230 C 388.212 1.04101 -2.02847 0
M  V30 4231 C 389.196 1.3219 -0.917317 0
M  V30 4232 O 390.388 1.31819 -1.18121 0
M  V30 4233 C 387.517 2.34295 -2.5092 0
M  V30 4234 C 386.603 2.09308 -3.68851 0
M  V30 4235 N 386.994 1.5437 -4.81667 0
M  V30 4236 C 385.292 2.39604 -3.76172 0
M  V30 4237 C 385.993 1.45126 -5.63306 0
M  V30 4238 N 384.969 1.92589 -5.08341 0
M  V30 4239 H 388.771 0.610217 -2.87495 0
M  V30 4240 H 386.285 0.238108 -1.60645 0
M  V30 4241 H 388.282 3.07404 -2.81617 0
M  V30 4242 H 386.942 2.78055 -1.67677 0
M  V30 4243 H 387.953 1.22678 -5.03161 0
M  V30 4244 H 384.63 2.86457 -3.03724 0
M  V30 4245 H 386.02 1.03163 -6.63933 0
M  V30 4246 N 388.74 1.54641 0.303973 0
M  V30 4247 C 389.67 1.88386 1.3796 0
M  V30 4248 C 390.651 0.742485 1.5304 0
M  V30 4249 O 391.836 0.997959 1.66597 0
M  V30 4250 C 388.966 2.12854 2.74427 0
M  V30 4251 C 387.92 3.28702 2.74115 0
M  V30 4252 C 387.246 3.38582 4.13844 0
M  V30 4253 C 388.546 4.65881 2.3612 0
M  V30 4254 H 390.24 2.78474 1.09966 0
M  V30 4255 H 387.786 1.33988 0.527556 0
M  V30 4256 H 389.739 2.35047 3.49758 0
M  V30 4257 H 388.463 1.19535 3.03939 0
M  V30 4258 H 387.122 3.06428 2.0124 0
M  V30 4259 H 386.77 2.42784 4.40528 0
M  V30 4260 H 386.47 4.16453 4.14537 0
M  V30 4261 H 387.994 3.63031 4.90959 0
M  V30 4262 H 389.408 4.87823 3.01167 0
M  V30 4263 H 387.805 5.46444 2.48031 0
M  V30 4264 H 388.875 4.66799 1.3125 0
M  V30 4265 N 390.218 -0.567019 1.47046 0
M  V30 4266 C 391.148 -1.68482 1.61667 0
M  V30 4267 C 392.129 -1.6358 0.466418 0
M  V30 4268 O 393.314 -1.81354 0.694574 0
M  V30 4269 C 390.444 -3.07124 1.62148 0
M  V30 4270 C 389.398 -3.26867 2.76301 0
M  V30 4271 C 388.724 -4.66196 2.61849 0
M  V30 4272 C 390.024 -3.13186 4.17986 0
M  V30 4273 H 391.718 -1.56502 2.5524 0
M  V30 4274 H 389.264 -0.751486 1.22836 0
M  V30 4275 H 391.217 -3.8516 1.70968 0
M  V30 4276 H 389.941 -3.2004 0.651287 0
M  V30 4277 H 388.6 -2.51237 2.66975 0
M  V30 4278 H 388.248 -4.75898 1.62879 0
M  V30 4279 H 387.948 -4.80356 3.38425 0
M  V30 4280 H 389.472 -5.46379 2.72584 0
M  V30 4281 H 390.886 -3.81049 4.2834 0
M  V30 4282 H 389.283 -3.3886 4.95272 0
M  V30 4283 H 390.353 -2.10057 4.3704 0
M  V30 4284 N 391.696 -1.35014 -0.812953 0
M  V30 4285 C 392.628 -1.23262 -1.93233 0
M  V30 4286 C 393.641 -0.157371 -1.62038 0
M  V30 4287 O 394.83 -0.410096 -1.73725 0
M  V30 4288 C 391.93 -0.87392 -3.27438 0
M  V30 4289 C 391.103 -2.04622 -3.86586 0
M  V30 4290 C 390.162 -1.66432 -4.99186 0
M  V30 4291 O 389.188 -2.38222 -5.16951 0
M  V30 4292 N 390.39 -0.584248 -5.77552 0
M  V30 4293 H 393.155 -2.19699 -2.03844 0
M  V30 4294 H 390.716 -1.281 -0.99005 0
M  V30 4295 H 392.708 -0.600039 -4.00227 0
M  V30 4296 H 391.278 0.00057392 -3.126 0
M  V30 4297 H 390.498 -2.48427 -3.06068 0
M  V30 4298 H 391.786 -2.82999 -4.22835 0
M  V30 4299 H 391.184 0.0123526 -5.65699 0
M  V30 4300 H 389.741 -0.37013 -6.50748 0
M  V30 4301 N 393.175 1.03435 -1.18907 0
M  V30 4302 C 394.108 2.11162 -0.86521 0
M  V30 4303 C 395.086 1.6165 0.175473 0
M  V30 4304 O 396.27 1.88425 0.0530129 0
M  V30 4305 C 393.397 3.37423 -0.293868 0
M  V30 4306 C 392.443 4.05795 -1.31274 0
M  V30 4307 S 393.276 4.52027 -2.8711 0
M  V30 4308 C 394.432 5.81513 -2.31504 0
M  V30 4309 H 394.665 2.38308 -1.77754 0
M  V30 4310 H 392.198 1.16295 -1.01562 0
M  V30 4311 H 394.156 4.1049 0.0292572 0
M  V30 4312 H 392.817 3.0838 0.596682 0
M  V30 4313 H 392.01 4.96574 -0.86198 0
M  V30 4314 H 391.612 3.38874 -1.58242 0
M  V30 4315 H 393.904 6.55784 -1.70157 0
M  V30 4316 H 394.847 6.3136 -3.20608 0
M  V30 4317 H 395.255 5.36921 -1.74286 0
M  V30 4318 N 394.653 0.992116 1.22453 0
M  V30 4319 C 395.583 0.561677 2.26644 0
M  V30 4320 C 396.564 -0.411055 1.65059 0
M  V30 4321 O 397.749 -0.301861 1.9184 0
M  V30 4322 C 394.879 -0.125247 3.47074 0
M  V30 4323 C 393.833 0.765948 4.21091 0
M  V30 4324 C 393.159 -0.0538484 5.34673 0
M  V30 4325 C 394.459 2.06242 4.79856 0
M  V30 4326 H 396.153 1.43259 2.62902 0
M  V30 4327 H 393.699 0.690283 1.26377 0
M  V30 4328 H 395.652 -0.437764 4.1912 0
M  V30 4329 H 394.376 -1.03069 3.0991 0
M  V30 4330 H 393.035 1.0621 3.50878 0
M  V30 4331 H 392.683 -0.960188 4.9375 0
M  V30 4332 H 392.383 0.539415 5.85119 0
M  V30 4333 H 393.907 -0.360477 6.09535 0
M  V30 4334 H 395.321 1.8139 5.43848 0
M  V30 4335 H 393.718 2.60444 5.40638 0
M  V30 4336 H 394.788 2.74167 3.99951 0
M  V30 4337 N 396.131 -1.37776 0.765217 0
M  V30 4338 C 397.371 -2.01691 0.331669 0
M  V30 4339 C 397.735 -1.59432 -1.06983 0
M  V30 4340 O 398.936 -2.15761 -1.60314 0
M  V30 4341 C 397.207 -3.54385 0.463261 0
M  V30 4342 S 398.766 -4.38652 0.114011 0
M  V30 4343 H 395.584 -0.699387 0.127979 0
M  V30 4344 H 398.186 -1.68084 0.998396 0
M  V30 4345 H 396.89 -3.82629 1.48401 0
M  V30 4346 H 396.421 -3.92783 -0.220246 0
M  V30 4347 H 398.436 -4.84021 -1.09261 0
M  V30 4348 N 397.609 -0.515225 -1.4894 0
M  V30 4349 C 398.539 0.244628 -2.32215 0
M  V30 4350 C 399.52 0.949136 -1.41157 0
M  V30 4351 O 400.705 0.937783 -1.70057 0
M  V30 4352 C 397.835 1.30096 -3.22013 0
M  V30 4353 C 396.789 0.715486 -4.21977 0
M  V30 4354 C 396.115 1.87339 -5.00808 0
M  V30 4355 C 397.415 -0.302982 -5.2142 0
M  V30 4356 H 399.109 -0.450501 -2.95991 0
M  V30 4357 H 396.655 -0.218098 -1.42339 0
M  V30 4358 H 398.608 1.84037 -3.79089 0
M  V30 4359 H 397.332 2.02547 -2.56207 0
M  V30 4360 H 395.991 0.197715 -3.66066 0
M  V30 4361 H 395.639 2.58592 -4.31438 0
M  V30 4362 H 395.339 1.48764 -5.68457 0
M  V30 4363 H 396.863 2.41686 -5.60732 0
M  V30 4364 H 398.277 0.148802 -5.73107 0
M  V30 4365 H 396.674 -0.60532 -5.97039 0
M  V30 4366 H 397.744 -1.21395 -4.69459 0
M  V30 4367 N 399.087 1.5561 -0.249682 0
M  V30 4368 C 400.333 1.99306 0.374841 0
M  V30 4369 C 400.666 1.13767 1.57387 0
M  V30 4370 O 399.941 0.201711 1.93451 0
M  V30 4371 C 400.224 3.51507 0.781986 0
M  V30 4372 C 400.077 4.4781 -0.422629 0
M  V30 4373 C 401.396 4.08884 1.62793 0
M  V30 4374 H 398.515 0.724572 0.134773 0
M  V30 4375 H 401.157 1.86719 -0.351549 0
M  V30 4376 H 399.307 3.62363 1.4009 0
M  V30 4377 H 400.979 4.48931 -1.06108 0
M  V30 4378 H 399.222 4.20518 -1.06524 0
M  V30 4379 H 399.893 5.51919 -0.0943766 0
M  V30 4380 H 402.369 4.01147 1.10547 0
M  V30 4381 H 401.245 5.1564 1.88166 0
M  V30 4382 H 401.506 3.57515 2.60068 0
M  V30 4383 N 400.565 -0.0233959 1.57583 0
M  V30 4384 C 401.528 -1.00693 2.05897 0
M  V30 4385 C 402.528 -1.28693 0.964092 0
M  V30 4386 O 403.718 -1.23602 1.22753 0
M  V30 4387 C 400.85 -2.33825 2.4807 0
M  V30 4388 H 402.043 -0.589476 2.9405 0
M  V30 4389 H 399.596 -0.270354 1.53944 0
M  V30 4390 H 400.331 -2.80307 1.6309 0
M  V30 4391 H 400.116 -2.1483 3.2801 0
M  V30 4392 H 401.606 -3.04426 2.85857 0
M  V30 4393 N 402.043 -1.548 -0.295768 0
M  V30 4394 C 402.976 -1.81003 -1.38972 0
M  V30 4395 C 403.954 -0.661544 -1.48534 0
M  V30 4396 O 405.138 -0.902074 -1.65514 0
M  V30 4397 C 402.265 -1.95141 -2.76835 0
M  V30 4398 C 401.311 -3.17592 -2.84671 0
M  V30 4399 S 402.144 -4.75531 -2.46232 0
M  V30 4400 C 403.3 -4.92613 -3.86114 0
M  V30 4401 H 403.533 -2.73507 -1.16537 0
M  V30 4402 H 401.066 -1.46278 -0.494168 0
M  V30 4403 H 403.024 -2.03972 -3.56238 0
M  V30 4404 H 401.685 -1.03565 -2.96535 0
M  V30 4405 H 400.878 -3.24303 -3.85803 0
M  V30 4406 H 400.48 -3.07235 -2.13267 0
M  V30 4407 H 402.772 -4.76957 -4.81164 0
M  V30 4408 H 403.715 -5.94698 -3.8437 0
M  V30 4409 H 404.123 -4.2073 -3.76359 0
M  V30 4410 N 403.521 0.559213 -1.47345 0
M  V30 4411 C 404.431 1.69388 -1.62311 0
M  V30 4412 C 405.447 1.6648 -0.505993 0
M  V30 4413 O 406.623 1.85964 -0.773262 0
M  V30 4414 C 403.688 3.05894 -1.63185 0
M  V30 4415 C 402.749 3.19885 -2.86307 0
M  V30 4416 C 401.982 4.49879 -2.87131 0
M  V30 4417 O 402.205 5.35217 -1.97229 0
M  V30 4418 O 401.139 4.67618 -3.78968 0
M  V30 4419 H 404.965 1.59706 -2.58317 0
M  V30 4420 H 402.55 0.728989 -1.30407 0
M  V30 4421 H 404.432 3.87133 -1.66451 0
M  V30 4422 H 403.107 3.15964 -0.70345 0
M  V30 4423 H 402.014 2.38052 -2.88587 0
M  V30 4424 H 403.347 3.14718 -3.78435 0
M  V30 4425 N 404.999 1.35443 0.805782 0
M  V30 4426 C 405.946 1.28431 1.91766 0
M  V30 4427 C 406.916 0.156102 1.65365 0
M  V30 4428 O 408.101 0.339936 1.87747 0
M  V30 4429 C 405.241 1.06301 3.2832 0
M  V30 4430 C 404.354 2.2805 3.66902 0
M  V30 4431 C 403.489 1.99064 4.92491 0
M  V30 4432 C 402.528 3.16863 5.23703 0
M  V30 4433 N 401.665 2.87647 6.40471 0
M  V30 4434 H 406.505 2.23511 1.97096 0
M  V30 4435 H 404.042 1.11105 0.964054 0
M  V30 4436 H 406 0.915012 4.07042 0
M  V30 4437 H 404.63 0.148822 3.22457 0
M  V30 4438 H 403.682 2.53711 2.83434 0
M  V30 4439 H 404.994 3.1601 3.85927 0
M  V30 4440 H 404.148 1.81099 5.7904 0
M  V30 4441 H 402.887 1.0839 4.75503 0
M  V30 4442 H 401.892 3.35404 4.35642 0
M  V30 4443 H 403.117 4.08339 5.4262 0
M  V30 4444 H 401.063 1.99568 6.24907 0
M  V30 4445 H 400.98 3.69141 6.59751 0
M  V30 4446 H 402.248 2.73226 7.30047 0
M  V30 4447 N 406.477 -1.02803 1.19454 0
M  V30 4448 C 407.888 -1.57667 0.999899 0
M  V30 4449 C 408.239 -1.91041 -0.446956 0
M  V30 4450 O 407.364 -1.70978 -1.32648 0
M  V30 4451 C 407.959 -2.86477 1.80877 0
M  V30 4452 C 406.518 -3.37911 1.65811 0
M  V30 4453 C 405.665 -2.11343 1.79526 0
M  V30 4454 H 408.616 -0.853214 1.33813 0
M  V30 4455 H 408.637 -3.57408 1.30536 0
M  V30 4456 H 408.149 -2.62155 2.86175 0
M  V30 4457 H 406.25 -3.67218 0.63102 0
M  V30 4458 H 406.363 -4.10885 2.46395 0
M  V30 4459 H 404.727 -2.23254 1.22596 0
M  V30 4460 H 405.51 -1.89461 2.86285 0
M  V30 4461 N 407.956 -0.998596 -1.21925 0
M  V30 4462 C 408.919 -0.558679 -2.22287 0
M  V30 4463 C 409.919 0.361525 -1.56683 0
M  V30 4464 O 411.109 0.152695 -1.73529 0
M  V30 4465 C 408.241 0.18661 -3.40389 0
M  V30 4466 H 409.434 -1.4463 -2.62721 0
M  V30 4467 H 406.987 -0.786413 -1.35075 0
M  V30 4468 H 407.722 1.08996 -3.05435 0
M  V30 4469 H 407.507 -0.474188 -3.89222 0
M  V30 4470 H 408.997 0.482367 -4.14805 0
M  V30 4471 N 409.434 1.37368 -0.772513 0
M  V30 4472 C 410.659 2.0447 -0.347386 0
M  V30 4473 C 411.084 1.57882 1.0225 0
M  V30 4474 O 410.442 0.73941 1.65537 0
M  V30 4475 C 410.49 3.58369 -0.400479 0
M  V30 4476 O 409.594 4.0803 0.598789 0
M  V30 4477 H 408.935 0.646773 -0.15027 0
M  V30 4478 H 411.465 1.75667 -1.04892 0
M  V30 4479 H 411.475 4.07183 -0.258045 0
M  V30 4480 H 410.15 3.91633 -1.39986 0
M  V30 4481 H 408.727 3.70534 0.419411 0
M  V30 4482 N 410.912 0.523116 1.48665 0
M  V30 4483 C 412.14 -0.0096312 2.06898 0
M  V30 4484 C 412.555 -1.28784 1.38059 0
M  V30 4485 O 411.912 -1.76453 0.465893 0
M  V30 4486 C 411.963 -0.244386 3.60673 0
M  V30 4487 O 411.684 0.983172 4.26925 0
M  V30 4488 C 413.185 -0.818289 4.35682 0
M  V30 4489 H 410.405 0.0304161 0.67031 0
M  V30 4490 H 412.949 0.726799 1.91149 0
M  V30 4491 H 411.104 -0.930847 3.76051 0
M  V30 4492 H 411.518 0.759653 5.1897 0
M  V30 4493 H 412.992 -0.93201 5.44075 0
M  V30 4494 H 413.469 -1.82153 3.99646 0
M  V30 4495 H 414.075 -0.168609 4.24966 0
M  V30 4496 N 412.39 -1.55475 0.257931 0
M  V30 4497 C 413.338 -2.23244 -0.653076 0
M  V30 4498 C 414.332 -1.22366 -1.17144 0
M  V30 4499 O 415.538 -1.40347 -1.12706 0
M  V30 4500 H 411.913 -0.716247 -0.229117 0
M  V30 4501 H 413.884 -2.98343 -0.0584788 0
M  V30 4502 C 412.633 -2.95401 -1.83395 0
M  V30 4503 H 411.956 -3.72802 -1.44424 0
M  V30 4504 H 413.396 -3.46165 -2.44838 0
M  V30 4505 C 411.855 -1.99895 -2.71189 0
M  V30 4506 O 412.385 -1.53909 -3.71046 0
M  V30 4507 N 410.591 -1.6676 -2.3799 0
M  V30 4508 H 410.138 -2.04352 -1.56837 0
M  V30 4509 H 410.096 -1.03127 -2.97005 0
M  V30 4510 N 413.868 0.0150385 -1.57593 0
M  V30 4511 C 415.093 0.718067 -1.94573 0
M  V30 4512 C 415.518 1.6734 -0.859005 0
M  V30 4513 O 414.876 1.80362 0.184147 0
M  V30 4514 C 414.924 1.43918 -3.30636 0
M  V30 4515 O 414.028 2.55299 -3.23876 0
M  V30 4516 H 413.369 0.192125 -0.635597 0
M  V30 4517 H 415.899 -0.0336708 -2.04572 0
M  V30 4518 H 415.909 1.80598 -3.65853 0
M  V30 4519 H 414.584 0.738619 -4.09289 0
M  V30 4520 H 413.161 2.21058 -3.00312 0
M  V30 4521 N 415.346 1.54954 0.287554 0
M  V30 4522 C 416.623 1.65569 1.04146 0
M  V30 4523 C 417.003 0.512672 2.0478 0
M  V30 4524 O 416.351 -0.489038 2.23205 0
M  V30 4525 C 416.561 3.04163 1.71131 0
M  V30 4526 C 417.909 3.61429 2.22832 0
M  V30 4527 O 418.933 3.06702 1.81141 0
M  V30 4528 O 417.792 4.57281 2.9926 0
M  V30 4529 H 414.886 0.671881 0.482188 0
M  V30 4530 H 417.432 1.67297 0.28457 0
M  V30 4531 H 416.204 3.78796 0.981303 0
M  V30 4532 H 415.827 3.06271 2.53543 0
M  V30 4533 N 416.824 -0.551391 1.4764 0
M  V30 4534 C 418.101 -1.31229 1.45046 0
M  V30 4535 C 418.481 -2.10563 0.150527 0
M  V30 4536 O 417.829 -2.11374 -0.867956 0
M  V30 4537 C 418.039 -2.21189 2.69956 0
M  V30 4538 C 419.387 -2.82021 3.1741 0
M  V30 4539 O 420.411 -2.31488 2.70724 0
M  V30 4540 O 419.27 -3.73885 3.98588 0
M  V30 4541 H 416.364 -0.591193 0.578291 0
M  V30 4542 H 418.91 -0.569813 1.59847 0
M  V30 4543 H 417.682 -1.62207 3.56096 0
M  V30 4544 H 417.305 -3.02722 2.57769 0
M  V30 4545 N 418.302 -1.35869 -0.798587 0
M  V30 4546 C 419.548 -1.2978 -1.55836 0
M  V30 4547 C 419.881 0.125322 -1.93795 0
M  V30 4548 O 419.156 1.07658 -1.61987 0
M  V30 4549 C 419.439 -2.21188 -2.84162 0
M  V30 4550 C 419.292 -3.72155 -2.52628 0
M  V30 4551 C 420.611 -2.11545 -3.85923 0
M  V30 4552 H 417.73 -0.472769 -0.565383 0
M  V30 4553 H 420.372 -1.66341 -0.918192 0
M  V30 4554 H 418.522 -1.90139 -3.38791 0
M  V30 4555 H 420.194 -4.13682 -2.04121 0
M  V30 4556 H 418.437 -3.92042 -1.85704 0
M  V30 4557 H 419.108 -4.31511 -3.44242 0
M  V30 4558 H 421.584 -2.38855 -3.40716 0
M  V30 4559 H 420.46 -2.77688 -4.73477 0
M  V30 4560 H 420.721 -1.09987 -4.282 0
M  V30 4561 N 419.78 1.02168 -1.19998 0
M  V30 4562 C 421.196 1.27969 -0.953737 0
M  V30 4563 C 421.396 1.98079 0.369703 0
M  V30 4564 O 420.452 2.27306 1.09947 0
M  V30 4565 C 421.765 2.11971 -2.13281 0
M  V30 4566 C 423.313 2.25255 -2.17323 0
M  V30 4567 C 423.788 3.12632 -3.34702 0
M  V30 4568 N 425.279 3.2022 -3.34684 0
M  V30 4569 C 426.014 3.88039 -4.22153 0
M  V30 4570 N 425.51 4.58027 -5.19791 0
M  V30 4571 N 427.303 3.84511 -4.10009 0
M  V30 4572 H 419.454 0.550794 -2.05134 0
M  V30 4573 H 421.717 0.305683 -0.897364 0
M  V30 4574 H 421.423 1.67785 -3.09097 0
M  V30 4575 H 421.297 3.12699 -2.10949 0
M  V30 4576 H 423.684 2.68667 -1.22073 0
M  V30 4577 H 423.765 1.24053 -2.23706 0
M  V30 4578 H 423.409 2.69926 -4.30235 0
M  V30 4579 H 423.339 4.13909 -3.25556 0
M  V30 4580 H 425.83 2.70382 -2.64012 0
M  V30 4581 H 426.143 5.07429 -5.82868 0
M  V30 4582 H 424.488 4.56869 -5.23733 0
M  V30 4583 H 427.679 3.28978 -3.33003 0
M  V30 4584 H 427.852 4.3709 -4.78389 0
M  V30 4585 N 421.258 1.00505 1.21394 0
M  V30 4586 C 422.535 0.603277 1.86064 0
M  V30 4587 C 422.915 -0.919095 1.90042 0
M  V30 4588 O 422.263 -1.80607 1.39977 0
M  V30 4589 C 422.473 1.23772 3.26315 0
M  V30 4590 C 423.821 1.34586 4.02705 0
M  V30 4591 O 424.845 1.19304 3.35626 0
M  V30 4592 O 423.704 1.59169 5.22807 0
M  V30 4593 H 420.798 0.206634 0.800769 0
M  V30 4594 H 423.344 1.1017 1.29076 0
M  V30 4595 H 422.116 2.27848 3.18121 0
M  V30 4596 H 421.739 0.725648 3.90922 0
M  V30 4597 N 422.737 -1.36956 0.779787 0
M  V30 4598 C 423.647 -2.33965 0.172491 0
M  V30 4599 C 424.663 -1.60574 -0.670222 0
M  V30 4600 O 425.839 -1.92617 -0.588263 0
M  V30 4601 C 422.904 -3.39761 -0.690173 0
M  V30 4602 C 421.965 -4.28964 0.169924 0
M  V30 4603 C 421.198 -5.29707 -0.651662 0
M  V30 4604 O 421.421 -5.38238 -1.88827 0
M  V30 4605 O 420.355 -6.01873 -0.0566264 0
M  V30 4606 H 424.181 -2.87647 0.974321 0
M  V30 4607 H 421.766 -1.39258 0.541078 0
M  V30 4608 H 423.648 -4.04471 -1.1824 0
M  V30 4609 H 422.323 -2.88394 -1.47006 0
M  V30 4610 H 421.23 -3.67326 0.708696 0
M  V30 4611 H 422.563 -4.83656 0.913085 0
M  V30 4612 N 424.215 -0.530993 -1.48385 0
M  V30 4613 C 425.162 0.231223 -2.29639 0
M  V30 4614 C 426.132 0.932864 -1.37429 0
M  V30 4615 O 427.317 0.933692 -1.66394 0
M  V30 4616 C 424.457 1.27155 -3.2082 0
M  V30 4617 C 423.57 0.578655 -4.28107 0
M  V30 4618 C 422.705 1.602 -5.06467 0
M  V30 4619 C 421.744 0.892625 -6.05556 0
M  V30 4620 N 420.881 1.86157 -6.76971 0
M  V30 4621 H 425.721 -0.467848 -2.94305 0
M  V30 4622 H 423.258 -0.242556 -1.45086 0
M  V30 4623 H 425.216 1.88703 -3.72085 0
M  V30 4624 H 423.846 1.939 -2.58075 0
M  V30 4625 H 422.898 -0.150782 -3.80101 0
M  V30 4626 H 424.21 0.0217065 -4.98795 0
M  V30 4627 H 423.364 2.29173 -5.61751 0
M  V30 4628 H 422.103 2.19285 -4.35621 0
M  V30 4629 H 421.108 0.188829 -5.49476 0
M  V30 4630 H 422.333 0.307878 -6.78402 0
M  V30 4631 H 420.279 2.44147 -6.08875 0
M  V30 4632 H 420.196 1.35608 -7.43738 0
M  V30 4633 H 421.464 2.54325 -7.36844 0
M  V30 4634 N 425.693 1.55336 -0.266172 0
M  V30 4635 C 426.939 1.99692 0.353681 0
M  V30 4636 C 427.272 1.1543 1.56172 0
M  V30 4637 O 426.547 0.222218 1.93226 0
M  V30 4638 C 426.83 3.52316 0.74466 0
M  V30 4639 C 426.683 4.47337 -0.470101 0
M  V30 4640 C 428.002 4.10588 1.58447 0
M  V30 4641 H 425.121 0.725961 0.12708 0
M  V30 4642 H 427.763 1.86336 -0.371333 0
M  V30 4643 H 425.913 3.63829 1.36239 0
M  V30 4644 H 427.585 4.4778 -1.10864 0
M  V30 4645 H 425.828 4.19364 -1.10978 0
M  V30 4646 H 426.499 5.51788 -0.15291 0
M  V30 4647 H 428.975 4.02297 1.06286 0
M  V30 4648 H 427.851 5.17607 1.82686 0
M  V30 4649 H 428.112 3.60253 2.56262 0
M  V30 4650 N 427.171 -0.0066808 1.57599 0
M  V30 4651 C 428.118 -1.00024 2.08 0
M  V30 4652 C 429.088 -1.34549 0.973943 0
M  V30 4653 O 430.273 -1.44502 1.24595 0
M  V30 4654 C 427.413 -2.2891 2.58252 0
M  V30 4655 C 426.526 -2.00346 3.82734 0
M  V30 4656 C 425.661 -3.23265 4.21513 0
M  V30 4657 C 424.7 -2.90357 5.3885 0
M  V30 4658 N 423.837 -4.05793 5.72954 0
M  V30 4659 H 428.677 -0.563499 2.92624 0
M  V30 4660 H 426.214 -0.266592 1.44664 0
M  V30 4661 H 428.172 -3.04247 2.85464 0
M  V30 4662 H 426.802 -2.70265 1.76512 0
M  V30 4663 H 425.854 -1.15406 3.62471 0
M  V30 4664 H 427.166 -1.72086 4.68175 0
M  V30 4665 H 426.32 -4.06953 4.49971 0
M  V30 4666 H 425.059 -3.54657 3.34768 0
M  V30 4667 H 424.064 -2.05075 5.10122 0
M  V30 4668 H 425.289 -2.60219 6.27266 0
M  V30 4669 H 423.235 -4.37094 4.89167 0
M  V30 4670 H 423.152 -3.81034 6.52954 0
M  V30 4671 H 424.42 -4.90289 6.06001 0
M  V30 4672 N 428.649 -1.55105 -0.279332 0
M  V30 4673 C 429.895 -1.75672 -1.01327 0
M  V30 4674 C 430.228 -0.552739 -1.86168 0
M  V30 4675 O 429.503 0.449827 -1.89227 0
M  V30 4676 C 429.786 -3.05825 -1.90114 0
M  V30 4677 C 429.639 -4.36565 -1.08309 0
M  V30 4678 C 430.958 -3.31975 -2.8893 0
M  V30 4679 H 428.077 -0.639149 -0.366957 0
M  V30 4680 H 430.719 -1.87833 -0.286154 0
M  V30 4681 H 428.869 -2.95588 -2.52111 0
M  V30 4682 H 430.541 -4.58751 -0.484314 0
M  V30 4683 H 428.784 -4.32076 -0.386362 0
M  V30 4684 H 429.455 -5.23946 -1.73737 0
M  V30 4685 H 431.931 -3.41963 -2.37067 0
M  V30 4686 H 430.807 -4.2432 -3.48201 0
M  V30 4687 H 431.068 -2.51309 -3.63725 0
M  V30 4688 N 430.127 0.543554 -1.4793 0
M  V30 4689 C 431.057 1.65888 -1.64327 0
M  V30 4690 C 432.038 1.62818 -0.492383 0
M  V30 4691 O 433.223 1.80226 -0.723338 0
M  V30 4692 C 430.353 3.04506 -1.67013 0
M  V30 4693 C 429.307 3.2243 -2.81466 0
M  V30 4694 C 428.633 4.61972 -2.69233 0
M  V30 4695 C 429.933 3.06496 -4.22915 0
M  V30 4696 H 431.627 1.52421 -2.57698 0
M  V30 4697 H 429.173 0.731849 -1.24016 0
M  V30 4698 H 431.126 3.82391 -1.77074 0
M  V30 4699 H 429.85 3.18964 -0.70212 0
M  V30 4700 H 428.509 2.46957 -2.70938 0
M  V30 4701 H 428.157 4.73247 -1.7043 0
M  V30 4702 H 427.857 4.74911 -3.46025 0
M  V30 4703 H 429.381 5.41974 -2.81242 0
M  V30 4704 H 430.795 3.74186 -4.34348 0
M  V30 4705 H 429.192 3.30938 -5.006 0
M  V30 4706 H 430.262 2.03077 -4.40327 0
M  V30 4707 N 431.605 1.3629 0.791371 0
M  V30 4708 C 432.552 1.30458 1.90393 0
M  V30 4709 C 433.522 0.173632 1.6519 0
M  V30 4710 O 434.707 0.35983 1.87376 0
M  V30 4711 C 431.847 1.09777 3.27174 0
M  V30 4712 C 430.96 2.31929 3.64462 0
M  V30 4713 C 430.095 2.04276 4.90352 0
M  V30 4714 C 429.134 3.224 5.20312 0
M  V30 4715 N 428.271 2.94424 6.37385 0
M  V30 4716 H 433.111 2.25589 1.94714 0
M  V30 4717 H 430.648 1.12122 0.952216 0
M  V30 4718 H 432.606 0.958133 4.06049 0
M  V30 4719 H 431.236 0.183014 3.22281 0
M  V30 4720 H 430.288 2.56703 2.80727 0
M  V30 4721 H 431.6 3.20085 3.82553 0
M  V30 4722 H 430.754 1.87231 5.77087 0
M  V30 4723 H 429.493 1.13428 4.74326 0
M  V30 4724 H 428.498 3.40005 4.32061 0
M  V30 4725 H 429.723 4.14071 5.38258 0
M  V30 4726 H 427.669 2.06185 6.22755 0
M  V30 4727 H 427.586 3.76118 6.55798 0
M  V30 4728 H 428.854 2.80953 7.27108 0
M  V30 4729 N 433.083 -1.0153 1.20538 0
M  V30 4730 C 434.323 -1.76689 1.02763 0
M  V30 4731 C 434.687 -1.87065 -0.432513 0
M  V30 4732 O 435.888 -2.58684 -0.730481 0
M  V30 4733 C 434.159 -3.14707 1.69393 0
M  V30 4734 S 435.718 -4.05886 1.66738 0
M  V30 4735 H 432.536 -0.608076 0.368463 0
M  V30 4736 H 435.138 -1.21558 1.53114 0
M  V30 4737 H 433.842 -3.04782 2.74838 0
M  V30 4738 H 433.373 -3.74913 1.19179 0
M  V30 4739 H 435.388 -4.91221 0.70117 0
M  V30 4740 N 434.561 -1.01147 -1.20859 0
M  V30 4741 C 435.81 -0.693214 -1.89413 0
M  V30 4742 C 436.123 0.779969 -1.79376 0
M  V30 4743 O 437.329 1.21057 -2.43017 0
M  V30 4744 C 435.785 -1.18949 -3.39675 0
M  V30 4745 C 435.393 -2.68921 -3.58309 0
M  V30 4746 C 437.137 -0.94642 -4.13815 0
M  V30 4747 C 435.044 -3.12056 -5.0237 0
M  V30 4748 H 433.974 -0.255595 -0.709357 0
M  V30 4749 H 436.625 -1.22349 -1.36759 0
M  V30 4750 H 435.007 -0.587228 -3.91622 0
M  V30 4751 H 436.181 -3.34652 -3.16772 0
M  V30 4752 H 434.496 -2.91314 -2.97532 0
M  V30 4753 H 437.093 -1.24417 -5.20023 0
M  V30 4754 H 437.436 0.117219 -4.16135 0
M  V30 4755 H 437.969 -1.5118 -3.67953 0
M  V30 4756 H 434.708 -4.17674 -5.05202 0
M  V30 4757 H 434.228 -2.51041 -5.44737 0
M  V30 4758 H 435.907 -3.04403 -5.70918 0
M  V30 4759 N 436.039 1.36541 -0.78704 0
M  V30 4760 C 437.264 2.0409 -0.369053 0
M  V30 4761 C 437.689 1.58957 1.00569 0
M  V30 4762 O 437.047 0.756926 1.64743 0
M  V30 4763 C 437.095 3.57924 -0.438466 0
M  V30 4764 O 436.199 4.08642 0.555479 0
M  V30 4765 H 435.54 0.645142 -0.157122 0
M  V30 4766 H 438.07 1.74545 -1.06749 0
M  V30 4767 H 438.08 4.06887 -0.301218 0
M  V30 4768 H 436.755 3.90127 -1.44132 0
M  V30 4769 H 435.332 3.70958 0.380088 0
M  V30 4770 N 437.518 0.538854 1.48102 0
M  V30 4771 C 438.428 -0.222648 2.33541 0
M  V30 4772 C 439.444 -0.930225 1.47047 0
M  V30 4773 O 440.62 -0.903211 1.80011 0
M  V30 4774 C 437.685 -1.25064 3.23357 0
M  V30 4775 C 436.746 -0.552469 4.2573 0
M  V30 4776 C 435.979 -1.53149 5.11254 0
M  V30 4777 O 436.202 -2.76487 4.9891 0
M  V30 4778 O 435.136 -1.06602 5.92385 0
M  V30 4779 H 438.962 0.477707 2.99919 0
M  V30 4780 H 436.547 0.299669 1.46364 0
M  V30 4781 H 438.429 -1.8445 3.78888 0
M  V30 4782 H 437.104 -1.93325 2.59629 0
M  V30 4783 H 436.011 0.082114 3.7401 0
M  V30 4784 H 437.344 0.0883526 4.92121 0
M  V30 4785 N 438.996 -1.55193 0.274407 0
M  V30 4786 C 440.242 -1.99877 -0.343086 0
M  V30 4787 C 440.575 -1.16256 -1.55558 0
M  V30 4788 O 439.85 -0.232462 -1.93106 0
M  V30 4789 C 440.133 -3.52706 -0.725965 0
M  V30 4790 C 439.986 -4.47081 0.493818 0
M  V30 4791 C 441.305 -4.11422 -1.56268 0
M  V30 4792 H 438.424 -0.726625 -0.123229 0
M  V30 4793 H 441.066 -1.86136 0.38121 0
M  V30 4794 H 439.216 -3.64546 -1.34307 0
M  V30 4795 H 440.888 -4.47186 1.13237 0
M  V30 4796 H 439.131 -4.1877 1.13201 0
M  V30 4797 H 439.802 -5.51699 0.18217 0
M  V30 4798 H 442.278 -4.02855 -1.04151 0
M  V30 4799 H 441.154 -5.18568 -1.79939 0
M  V30 4800 H 441.415 -3.61607 -2.54348 0
M  V30 4801 N 440.474 -0.00167713 -1.576 0
M  V30 4802 C 441.406 1.0174 -2.05382 0
M  V30 4803 C 442.419 1.30595 -0.972052 0
M  V30 4804 O 443.608 1.27542 -1.24882 0
M  V30 4805 C 440.708 2.35174 -2.44022 0
M  V30 4806 C 439.881 2.25234 -3.74951 0
M  V30 4807 C 438.94 3.4137 -4.00441 0
M  V30 4808 O 437.966 3.19483 -4.71083 0
M  V30 4809 N 439.168 4.64275 -3.48467 0
M  V30 4810 H 441.933 0.609902 -2.93428 0
M  V30 4811 H 439.494 0.185672 -1.60832 0
M  V30 4812 H 441.486 3.11643 -2.58187 0
M  V30 4813 H 440.056 2.67659 -1.61485 0
M  V30 4814 H 439.276 1.33664 -3.70847 0
M  V30 4815 H 440.564 2.15767 -4.60784 0
M  V30 4816 H 439.962 4.84955 -2.91264 0
M  V30 4817 H 438.519 5.38005 -3.67959 0
M  V30 4818 N 441.952 1.55251 0.271103 0
M  V30 4819 C 442.915 1.87484 1.31842 0
M  V30 4820 C 443.915 0.749545 1.42262 0
M  V30 4821 O 445.105 1.01771 1.4138 0
M  V30 4822 C 442.237 2.0818 2.69951 0
M  V30 4823 H 443.43 2.81108 1.0449 0
M  V30 4824 H 440.983 1.47771 0.509258 0
M  V30 4825 H 441.718 1.16944 3.02481 0
M  V30 4826 H 441.503 2.90114 2.63774 0
M  V30 4827 H 442.993 2.34385 3.4562 0
M  V30 4828 N 443.43 -0.535701 1.48216 0
M  V30 4829 C 444.378 -1.66179 1.62749 0
M  V30 4830 C 445.372 -1.62034 0.49409 0
M  V30 4831 O 446.578 -1.6696 0.672624 0
M  V30 4832 H 442.953 -0.550244 0.512578 0
M  V30 4833 H 444.924 -1.51063 2.57337 0
M  V30 4834 C 443.673 -3.04471 1.67907 0
M  V30 4835 H 442.996 -3.08351 2.54479 0
M  V30 4836 H 444.436 -3.82894 1.82121 0
M  V30 4837 C 442.895 -3.34314 0.416596 0
M  V30 4838 O 443.425 -3.98905 -0.473014 0
M  V30 4839 N 441.631 -2.89149 0.290038 0
M  V30 4840 H 441.178 -2.36764 1.01493 0
M  V30 4841 H 441.136 -3.09486 -0.55367 0
M  V30 4842 N 444.908 -1.36708 -0.784132 0
M  V30 4843 C 445.856 -1.31533 -1.91838 0
M  V30 4844 C 446.85 -0.206205 -1.6814 0
M  V30 4845 O 448.056 -0.373519 -1.76082 0
M  V30 4846 H 444.431 -0.409613 -0.630651 0
M  V30 4847 H 446.402 -2.2731 -1.9332 0
M  V30 4848 C 445.151 -1.12679 -3.28936 0
M  V30 4849 H 444.474 -1.97274 -3.4774 0
M  V30 4850 H 445.914 -1.13106 -4.08636 0
M  V30 4851 C 444.373 0.168281 -3.36479 0
M  V30 4852 O 444.903 1.15625 -3.84699 0
M  V30 4853 N 443.109 0.214762 -2.89805 0
M  V30 4854 H 442.656 -0.589852 -2.50756 0
M  V30 4855 H 442.614 1.08094 -2.95234 0
M  V30 4856 N 446.386 1.0089 -1.21074 0
M  V30 4857 C 447.632 1.74866 -1.02712 0
M  V30 4858 C 447.965 1.89178 0.438787 0
M  V30 4859 O 447.24 1.42325 1.32567 0
M  V30 4860 C 447.523 3.16347 -1.72036 0
M  V30 4861 C 447.376 3.09782 -3.26121 0
M  V30 4862 C 448.695 4.15187 -1.45973 0
M  V30 4863 H 445.814 0.634736 -0.374539 0
M  V30 4864 H 448.456 1.17646 -1.49196 0
M  V30 4865 H 446.606 3.65201 -1.32517 0
M  V30 4866 H 448.278 2.68673 -3.74983 0
M  V30 4867 H 446.521 2.46982 -3.56626 0
M  V30 4868 H 447.192 4.09829 -3.6979 0
M  V30 4869 H 449.668 3.75022 -1.80272 0
M  V30 4870 H 448.544 5.12331 -1.96999 0
M  V30 4871 H 448.805 4.40386 -0.388924 0
M  V30 4872 N 447.864 1.01787 1.20321 0
M  V30 4873 C 449.11 0.708985 1.90003 0
M  V30 4874 C 449.443 -0.759572 1.78729 0
M  V30 4875 O 448.718 -1.55198 1.17234 0
M  V30 4876 C 449.001 1.1469 3.41348 0
M  V30 4877 C 448.854 2.67586 3.61549 0
M  V30 4878 C 450.173 0.71915 4.34185 0
M  V30 4879 H 447.292 0.259034 0.689978 0
M  V30 4880 H 449.934 1.26584 1.41692 0
M  V30 4881 H 448.084 0.673128 3.82624 0
M  V30 4882 H 449.756 3.22826 3.29517 0
M  V30 4883 H 447.999 3.085 3.04976 0
M  V30 4884 H 448.67 2.93281 4.67643 0
M  V30 4885 H 451.146 1.12647 4.00562 0
M  V30 4886 H 450.022 1.05358 5.38694 0
M  V30 4887 H 450.283 -0.379111 4.40472 0
M  V30 4888 N 449.342 -1.36122 0.79427 0
M  V30 4889 C 450.272 -2.32551 0.210328 0
M  V30 4890 C 451.253 -1.56884 -0.657386 0
M  V30 4891 O 452.438 -1.85014 -0.590207 0
M  V30 4892 C 449.568 -3.41128 -0.651819 0
M  V30 4893 C 448.522 -4.27842 0.116395 0
M  V30 4894 C 447.848 -5.2763 -0.86666 0
M  V30 4895 C 449.148 -5.05647 1.30837 0
M  V30 4896 H 450.842 -2.81636 1.01594 0
M  V30 4897 H 448.388 -1.35407 0.489981 0
M  V30 4898 H 450.341 -4.07581 -1.07031 0
M  V30 4899 H 449.065 -2.90622 -1.49019 0
M  V30 4900 H 447.724 -3.62952 0.515915 0
M  V30 4901 H 447.372 -4.73395 -1.70019 0
M  V30 4902 H 447.072 -5.86514 -0.35705 0
M  V30 4903 H 448.596 -5.96955 -1.28361 0
M  V30 4904 H 450.01 -5.65113 0.965393 0
M  V30 4905 H 448.407 -5.73967 1.75161 0
M  V30 4906 H 449.477 -4.37006 2.10128 0
M  V30 4907 N 450.82 -0.546701 -1.47814 0
M  V30 4908 C 452.068 -0.0187037 -2.02091 0
M  V30 4909 C 452.389 1.33168 -1.42447 0
M  V30 4910 O 451.659 1.86619 -0.595839 0
M  V30 4911 H 450.239 -0.00392531 -0.74699 0
M  V30 4912 H 452.901 -0.714327 -1.81338 0
M  V30 4913 H 451.997 0.0772219 -3.12004 0
M  V30 4914 N 452.299 1.55045 -0.282633 0
M  V30 4915 C 453.231 2.2023 0.634924 0
M  V30 4916 C 454.244 1.18931 1.11172 0
M  V30 4917 O 455.433 1.4562 1.03233 0
M  V30 4918 C 452.533 2.82041 1.87899 0
M  V30 4919 C 451.706 4.091 1.54776 0
M  V30 4920 C 450.765 4.54887 2.64507 0
M  V30 4921 O 449.791 5.20496 2.30375 0
M  V30 4922 N 450.993 4.25659 3.94709 0
M  V30 4923 H 453.758 2.99601 0.0769811 0
M  V30 4924 H 451.319 1.61565 -0.104048 0
M  V30 4925 H 453.311 3.09613 2.60619 0
M  V30 4926 H 451.881 2.06618 2.3458 0
M  V30 4927 H 451.101 3.88736 0.654049 0
M  V30 4928 H 452.389 4.9187 1.30158 0
M  V30 4929 H 451.787 3.7306 4.25256 0
M  V30 4930 H 450.344 4.57984 4.63782 0
M  V30 4931 N 453.777 0.010035 1.57597 0
M  V30 4932 C 455.007 -0.682422 1.95004 0
M  V30 4933 C 455.415 -1.67278 0.884014 0
M  V30 4934 O 454.758 -1.83129 -0.144672 0
M  V30 4935 C 454.82 -1.46141 3.28456 0
M  V30 4936 C 454.484 -0.631523 4.52615 0
M  V30 4937 C 455.481 0.0850905 5.1983 0
M  V30 4938 C 453.166 -0.574539 4.99003 0
M  V30 4939 C 455.16 0.847566 6.3174 0
M  V30 4940 C 452.847 0.191655 6.10799 0
M  V30 4941 C 453.845 0.901432 6.77025 0
M  V30 4942 O 453.533 1.65511 7.86677 0
M  V30 4943 H 453.265 -0.194361 0.647456 0
M  V30 4944 H 455.819 0.060312 2.05311 0
M  V30 4945 H 454.049 -2.24885 3.14585 0
M  V30 4946 H 455.738 -2.04016 3.50902 0
M  V30 4947 H 456.504 0.0502812 4.84974 0
M  V30 4948 H 452.383 -1.11654 4.47274 0
M  V30 4949 H 455.927 1.4021 6.83364 0
M  V30 4950 H 451.824 0.228249 6.45096 0
M  V30 4951 H 452.592 1.57287 8.03245 0
M  V30 4952 N 455.255 -1.55392 -0.262866 0
M  V30 4953 C 456.501 -1.76737 -0.99458 0
M  V30 4954 C 456.834 -0.572453 -1.85571 0
M  V30 4955 O 456.109 0.429732 -1.89693 0
M  V30 4956 C 456.392 -3.07824 -1.8686 0
M  V30 4957 C 456.245 -4.3769 -1.03672 0
M  V30 4958 C 457.564 -3.35021 -2.85393 0
M  V30 4959 H 454.683 -0.643005 -0.360157 0
M  V30 4960 H 457.325 -1.88126 -0.266216 0
M  V30 4961 H 455.475 -2.98245 -2.48962 0
M  V30 4962 H 457.147 -4.59238 -0.43563 0
M  V30 4963 H 455.39 -4.32461 -0.340513 0
M  V30 4964 H 456.061 -5.25759 -1.6817 0
M  V30 4965 H 458.537 -3.44458 -2.33426 0
M  V30 4966 H 457.413 -4.27989 -3.43681 0
M  V30 4967 H 457.674 -2.55153 -3.61039 0
M  V30 4968 N 456.733 0.527833 -1.48498 0
M  V30 4969 C 457.981 1.28101 -1.56316 0
M  V30 4970 C 458.302 1.9352 -0.239781 0
M  V30 4971 O 457.572 1.81433 0.738849 0
M  V30 4972 H 456.152 0.475793 -0.575873 0
M  V30 4973 H 458.814 0.614052 -1.84974 0
M  V30 4974 H 457.91 2.05916 -2.34532 0
M  V30 4975 N 458.211 1.37122 0.776871 0
M  V30 4976 C 459.159 1.32549 1.91138 0
M  V30 4977 C 460.153 0.215119 1.68029 0
M  V30 4978 O 461.359 0.382852 1.75881 0
M  V30 4979 H 457.734 0.412952 0.62847 0
M  V30 4980 H 459.705 2.28332 1.92112 0
M  V30 4981 C 458.454 1.14422 3.28333 0
M  V30 4982 H 457.777 1.99115 3.46689 0
M  V30 4983 H 459.217 1.15272 4.0803 0
M  V30 4984 C 457.676 -0.150434 3.36564 0
M  V30 4985 O 458.206 -1.13584 3.85307 0
M  V30 4986 N 456.412 -0.19939 2.89915 0
M  V30 4987 H 455.959 0.603142 2.5044 0
M  V30 4988 H 455.917 -1.06526 2.95803 0
M  V30 4989 N 459.689 -1.00246 1.21608 0
M  V30 4990 C 461.1 -1.55511 1.03312 0
M  V30 4991 C 461.451 -1.91946 -0.406332 0
M  V30 4992 O 460.576 -1.73753 -1.28992 0
M  V30 4993 C 461.171 -2.82576 1.86913 0
M  V30 4994 C 459.73 -3.34318 1.72941 0
M  V30 4995 C 458.877 -2.07487 1.83968 0
M  V30 4996 H 461.828 -0.824638 1.35593 0
M  V30 4997 H 461.849 -3.54559 1.38087 0
M  V30 4998 H 461.361 -2.56026 2.91672 0
M  V30 4999 H 459.462 -3.65797 0.70877 0
M  V30 5000 H 459.575 -4.05566 2.55055 0
M  V30 5001 H 457.939 -2.20603 1.27304 0
M  V30 5002 H 458.722 -1.83346 2.9024 0
M  V30 5003 N 461.167 -1.02423 -1.1978 0
M  V30 5004 C 462.444 -0.632802 -1.85081 0
M  V30 5005 C 462.824 0.888745 -1.9148 0
M  V30 5006 O 462.172 1.78357 -1.42832 0
M  V30 5007 C 462.382 -1.28947 -3.24305 0
M  V30 5008 C 463.73 -1.40976 -4.00513 0
M  V30 5009 O 464.754 -1.24628 -3.33686 0
M  V30 5010 O 463.613 -1.67467 -5.20209 0
M  V30 5011 H 460.707 -0.219348 -0.79738 0
M  V30 5012 H 463.253 -1.12209 -1.27307 0
M  V30 5013 H 462.025 -2.3288 -3.14456 0
M  V30 5014 H 461.648 -0.787748 -3.89718 0
M  V30 5015 N 462.645 1.35699 -0.801477 0
M  V30 5016 C 463.893 1.9852 -0.37871 0
M  V30 5017 C 464.214 1.63907 1.05638 0
M  V30 5018 O 463.484 0.919013 1.73006 0
M  V30 5019 H 462.064 0.734322 -0.137042 0
M  V30 5020 H 464.726 1.65697 -1.02619 0
M  V30 5021 H 463.822 3.08382 -0.480284 0
M  V30 5022 N 464.123 0.554532 1.47522 0
M  V30 5023 C 465.033 -0.197865 2.33764 0
M  V30 5024 C 466.049 -0.914576 1.48025 0
M  V30 5025 O 467.225 -0.884067 1.80959 0
M  V30 5026 C 464.29 -1.21628 3.24665 0
M  V30 5027 C 463.351 -0.507283 4.26292 0
M  V30 5028 C 462.584 -1.47718 5.1285 0
M  V30 5029 O 462.807 -2.7118 5.01814 0
M  V30 5030 O 461.741 -1.00313 5.93482 0
M  V30 5031 H 465.567 0.50949 2.99396 0
M  V30 5032 H 463.152 0.315176 1.46038 0
M  V30 5033 H 465.034 -1.80421 3.80823 0
M  V30 5034 H 463.709 -1.9056 2.61665 0
M  V30 5035 H 462.616 0.121778 3.73902 0
M  V30 5036 H 463.949 0.140544 4.91999 0
M  V30 5037 N 465.601 -1.54893 0.290851 0
M  V30 5038 C 466.849 -1.99538 -0.320756 0
M  V30 5039 C 467.17 -1.18075 -1.55188 0
M  V30 5040 O 466.44 -0.274162 -1.93972 0
M  V30 5041 H 465.02 -0.737052 -0.121507 0
M  V30 5042 H 467.682 -1.90755 0.399832 0
M  V30 5043 H 466.778 -3.06282 -0.599802 0
M  V30 5044 N 467.08 -0.0183926 -1.57589 0
M  V30 5045 C 467.99 0.982943 -2.13015 0
M  V30 5046 C 469.006 1.36443 -1.07979 0
M  V30 5047 O 470.182 1.44802 -1.3998 0
M  V30 5048 C 467.247 2.25024 -2.63752 0
M  V30 5049 C 466.308 1.93018 -3.83461 0
M  V30 5050 C 465.541 3.13706 -4.31769 0
M  V30 5051 O 465.764 4.2601 -3.79305 0
M  V30 5052 O 464.698 2.96629 -5.23732 0
M  V30 5053 H 468.524 0.541709 -2.9883 0
M  V30 5054 H 466.109 0.201565 -1.48034 0
M  V30 5055 H 467.991 2.99441 -2.96502 0
M  V30 5056 H 466.666 2.68349 -1.81026 0
M  V30 5057 H 465.573 1.16019 -3.55655 0
M  V30 5058 H 466.906 1.54516 -4.67317 0
M  V30 5059 N 468.558 1.5553 0.254621 0
M  V30 5060 C 469.521 1.88872 1.29846 0
M  V30 5061 C 470.521 0.764591 1.41459 0
M  V30 5062 O 471.711 1.03265 1.40293 0
M  V30 5063 C 468.843 2.11032 2.67728 0
M  V30 5064 H 470.036 2.82201 1.01502 0
M  V30 5065 H 467.589 1.48303 0.493556 0
M  V30 5066 H 468.324 1.20146 3.01223 0
M  V30 5067 H 468.109 2.92895 2.60682 0
M  V30 5068 H 469.599 2.38038 3.43115 0
M  V30 5069 N 470.036 -0.519951 1.48776 0
M  V30 5070 C 471.264 -1.29971 1.60982 0
M  V30 5071 C 471.679 -1.86803 0.273885 0
M  V30 5072 O 471.036 -1.66904 -0.738193 0
M  V30 5073 C 471.087 -2.44346 2.66415 0
M  V30 5074 O 470.808 -1.89855 3.94825 0
M  V30 5075 C 472.309 -3.36014 2.89153 0
M  V30 5076 H 469.529 -0.394891 0.542496 0
M  V30 5077 H 472.073 -0.626214 1.94676 0
M  V30 5078 H 470.228 -3.07562 2.35552 0
M  V30 5079 H 470.642 -2.64798 4.5275 0
M  V30 5080 H 472.116 -4.12593 3.66703 0
M  V30 5081 H 472.593 -3.91859 1.98351 0
M  V30 5082 H 473.199 -2.78582 3.21359 0
M  V30 5083 N 471.514 -1.37532 -0.769588 0
M  V30 5084 C 472.461 -1.3347 -1.88293 0
M  V30 5085 C 473.431 -0.199891 -1.64893 0
M  V30 5086 O 474.616 -0.389594 -1.8678 0
M  V30 5087 C 471.756 -1.14968 -3.25387 0
M  V30 5088 C 470.869 -2.37698 -3.60727 0
M  V30 5089 C 470.004 -2.12051 -4.8704 0
M  V30 5090 C 469.043 -3.30636 -5.15117 0
M  V30 5091 N 468.18 -3.04527 -6.3262 0
M  V30 5092 H 473.02 -2.28658 -1.911 0
M  V30 5093 H 470.557 -1.13622 -0.934257 0
M  V30 5094 H 472.515 -1.02261 -4.04473 0
M  V30 5095 H 471.145 -0.234263 -3.21949 0
M  V30 5096 H 470.197 -2.61137 -2.76608 0
M  V30 5097 H 471.509 -3.26131 -3.77413 0
M  V30 5098 H 470.663 -1.96388 -5.74035 0
M  V30 5099 H 469.402 -1.20959 -4.72462 0
M  V30 5100 H 468.407 -3.46836 -4.26597 0
M  V30 5101 H 469.632 -4.22582 -5.31603 0
M  V30 5102 H 467.578 -2.16067 -6.19396 0
M  V30 5103 H 467.495 -3.86503 -6.49732 0
M  V30 5104 H 468.763 -2.92485 -7.22546 0
M  V30 5105 N 472.992 0.995999 -1.22138 0
M  V30 5106 C 474.24 1.73167 -1.042 0
M  V30 5107 C 474.561 1.90329 0.42423 0
M  V30 5108 O 473.831 1.4607 1.30539 0
M  V30 5109 H 472.411 0.641593 -0.38258 0
M  V30 5110 H 475.073 1.19974 -1.53598 0
M  V30 5111 H 474.169 2.72734 -1.51731 0
M  V30 5112 N 474.47 1.03057 1.19235 0
M  V30 5113 C 475.7 0.746613 1.92638 0
M  V30 5114 C 476.108 -0.698708 1.75826 0
M  V30 5115 O 475.451 -1.487 1.07861 0
M  V30 5116 C 475.513 1.02024 3.44719 0
M  V30 5117 C 475.177 2.45745 3.85303 0
M  V30 5118 C 476.174 3.43887 3.8992 0
M  V30 5119 C 473.859 2.8019 4.16892 0
M  V30 5120 C 475.853 4.74529 4.2556 0
M  V30 5121 C 473.54 4.1104 4.52205 0
M  V30 5122 C 474.538 5.0802 4.56513 0
M  V30 5123 O 474.226 6.36527 4.91008 0
M  V30 5124 H 473.958 0.272401 0.618687 0
M  V30 5125 H 476.512 1.37853 1.52269 0
M  V30 5126 H 474.742 0.331184 3.85279 0
M  V30 5127 H 476.431 0.725677 3.9936 0
M  V30 5128 H 477.197 3.18614 3.65664 0
M  V30 5129 H 473.076 2.05382 4.12722 0
M  V30 5130 H 476.62 5.50222 4.28838 0
M  V30 5131 H 472.517 4.36086 4.7592 0
M  V30 5132 H 473.285 6.41025 5.08949 0
M  V30 5133 N 475.948 -1.35272 0.808662 0
M  V30 5134 C 476.878 -2.32315 0.234981 0
M  V30 5135 C 477.859 -1.57572 -0.64071 0
M  V30 5136 O 479.044 -1.8563 -0.570551 0
M  V30 5137 C 476.174 -3.41801 -0.615601 0
M  V30 5138 C 475.128 -4.27694 0.161767 0
M  V30 5139 C 474.454 -5.28519 -0.810649 0
M  V30 5140 C 475.754 -5.04231 1.36193 0
M  V30 5141 H 477.448 -2.80543 1.04575 0
M  V30 5142 H 474.994 -1.3488 0.504315 0
M  V30 5143 H 476.947 -4.08693 -1.02702 0
M  V30 5144 H 475.671 -2.92186 -1.45928 0
M  V30 5145 H 474.33 -3.62384 0.554382 0
M  V30 5146 H 473.978 -4.75171 -1.64988 0
M  V30 5147 H 473.678 -5.8686 -0.294822 0
M  V30 5148 H 475.202 -5.98283 -1.22023 0
M  V30 5149 H 476.616 -5.64058 1.02528 0
M  V30 5150 H 475.013 -5.72077 1.81239 0
M  V30 5151 H 476.083 -4.34753 2.14751 0
M  V30 5152 N 477.426 -0.562348 -1.47226 0
M  V30 5153 C 478.703 0.0256985 -1.95583 0
M  V30 5154 C 479.083 1.48032 -1.50498 0
M  V30 5155 O 478.431 2.15973 -0.746181 0
M  V30 5156 C 478.641 -0.125129 -3.48776 0
M  V30 5157 C 479.989 0.0175728 -4.24596 0
M  V30 5158 O 481.013 -0.0529341 -3.56161 0
M  V30 5159 O 479.872 0.170145 -5.46235 0
M  V30 5160 H 476.966 0.0612565 -0.824728 0
M  V30 5161 H 479.512 -0.629233 -1.57603 0
M  V30 5162 H 478.284 -1.13715 -3.74412 0
M  V30 5163 H 477.907 0.567178 -3.93534 0
M  V30 5164 N 478.904 1.54736 -0.299062 0
M  V30 5165 C 480.181 1.92187 0.363802 0
M  V30 5166 C 480.561 1.22607 1.71845 0
M  V30 5167 O 479.909 0.361141 2.25628 0
M  V30 5168 C 480.119 3.45678 0.480377 0
M  V30 5169 C 481.467 4.17885 0.752147 0
M  V30 5170 O 482.491 3.51702 0.564264 0
M  V30 5171 O 481.35 5.35048 1.11294 0
M  V30 5172 H 478.444 0.801681 0.203066 0
M  V30 5173 H 480.99 1.66115 -0.346978 0
M  V30 5174 H 479.762 3.88443 -0.471999 0
M  V30 5175 H 479.385 3.77779 1.2397 0
M  V30 5176 N 480.382 0.0267497 1.57577 0
M  V30 5177 C 481.793 -0.512413 1.79531 0
M  V30 5178 C 482.144 -1.72391 0.936791 0
M  V30 5179 O 481.269 -2.15903 0.146543 0
M  V30 5180 C 481.864 -0.936378 3.25603 0
M  V30 5181 C 480.423 -1.42067 3.4856 0
M  V30 5182 C 479.57 -0.384278 2.74624 0
M  V30 5183 H 482.521 0.252797 1.56674 0
M  V30 5184 H 482.542 -1.80088 3.35184 0
M  V30 5185 H 482.054 -0.0544332 3.88062 0
M  V30 5186 H 480.155 -2.32262 2.9135 0
M  V30 5187 H 480.268 -1.42968 4.57271 0
M  V30 5188 H 478.632 -0.851855 2.40032 0
M  V30 5189 H 479.415 0.489159 3.39797 0
M  V30 5190 N 481.861 -1.55662 -0.24637 0
M  V30 5191 C 483.089 -1.81575 -0.991876 0
M  V30 5192 C 483.504 -0.602545 -1.78927 0
M  V30 5193 O 482.861 0.428795 -1.77391 0
M  V30 5194 C 482.912 -3.05711 -1.92933 0
M  V30 5195 O 482.633 -4.22348 -1.1642 0
M  V30 5196 C 484.134 -3.44428 -2.79078 0
M  V30 5197 H 481.354 -0.604209 -0.291844 0
M  V30 5198 H 483.898 -2.02722 -0.269095 0
M  V30 5199 H 482.053 -2.86612 -2.60638 0
M  V30 5200 H 482.467 -4.92706 -1.79835 0
M  V30 5201 H 483.941 -4.34388 -3.40603 0
M  V30 5202 H 484.418 -2.65037 -3.50217 0
M  V30 5203 H 485.024 -3.65879 -2.16824 0
M  V30 5204 N 483.339 0.512053 -1.4905 0
M  V30 5205 C 484.585 1.26874 -1.58212 0
M  V30 5206 C 484.918 1.9241 -0.263073 0
M  V30 5207 O 484.193 1.80181 0.732476 0
M  V30 5208 C 484.476 2.34428 -2.73341 0
M  V30 5209 C 484.329 1.73466 -4.15006 0
M  V30 5210 C 485.648 3.36073 -2.84154 0
M  V30 5211 H 482.767 0.459924 -0.575881 0
M  V30 5212 H 485.409 0.568587 -1.81293 0
M  V30 5213 H 483.559 2.94146 -2.53792 0
M  V30 5214 H 485.231 1.17661 -4.46042 0
M  V30 5215 H 483.474 1.03921 -4.21168 0
M  V30 5216 H 484.145 2.51426 -4.91415 0
M  V30 5217 H 486.621 2.86332 -3.01916 0
M  V30 5218 H 485.497 4.08703 -3.66406 0
M  V30 5219 H 485.758 3.97725 -1.93048 0
M  V30 5220 N 484.817 1.37938 0.762283 0
M  V30 5221 C 486.228 1.30094 1.33912 0
M  V30 5222 C 486.579 -0.0472026 1.96143 0
M  V30 5223 O 485.704 -0.94917 1.94473 0
M  V30 5224 C 486.299 2.35592 2.43478 0
M  V30 5225 C 484.858 2.31353 2.96905 0
M  V30 5226 C 484.005 2.18919 1.70205 0
M  V30 5227 H 486.956 1.48423 0.561816 0
M  V30 5228 H 486.977 2.00806 3.23199 0
M  V30 5229 H 486.489 3.33701 1.98155 0
M  V30 5230 H 484.59 1.36799 3.46579 0
M  V30 5231 H 484.703 3.25147 3.51875 0
M  V30 5232 H 483.067 1.65624 1.93496 0
M  V30 5233 H 483.85 3.18956 1.26973 0
M  V30 5234 N 486.295 -0.989507 1.22664 0
M  V30 5235 C 487.711 -1.25395 0.987331 0
M  V30 5236 C 487.911 -1.9899 -0.317056 0
M  V30 5237 O 486.967 -2.30141 -1.03882 0
M  V30 5238 C 488.28 -2.06242 2.18826 0
M  V30 5239 C 489.828 -2.19413 2.23219 0
M  V30 5240 C 490.303 -3.03648 3.42873 0
M  V30 5241 N 491.794 -3.11234 3.43056 0
M  V30 5242 C 492.529 -3.7671 4.32293 0
M  V30 5243 N 492.025 -4.44085 5.31752 0
M  V30 5244 N 493.818 -3.73505 4.2006 0
M  V30 5245 H 485.969 -0.496212 2.06522 0
M  V30 5246 H 488.232 -0.281784 0.905153 0
M  V30 5247 H 487.938 -1.59531 3.13437 0
M  V30 5248 H 487.812 -3.06996 2.19165 0
M  V30 5249 H 490.199 -2.65336 1.29154 0
M  V30 5250 H 490.28 -1.18078 2.26917 0
M  V30 5251 H 489.924 -2.58424 4.37241 0
M  V30 5252 H 489.854 -4.05132 3.36416 0
M  V30 5253 H 492.345 -2.63287 2.71088 0
M  V30 5254 H 492.658 -4.91797 5.96117 0
M  V30 5255 H 491.003 -4.42822 5.35662 0
M  V30 5256 H 494.194 -3.20033 3.41609 0
M  V30 5257 H 494.367 -4.24253 4.8981 0
M  V30 5258 N 487.773 -1.03688 -1.18687 0
M  V30 5259 C 489.021 -0.736572 -1.88199 0
M  V30 5260 C 489.342 0.737665 -1.80509 0
M  V30 5261 O 488.612 1.53204 -1.22088 0
M  V30 5262 H 487.192 -0.269466 -0.696704 0
M  V30 5263 H 489.854 -1.31282 -1.44052 0
M  V30 5264 H 488.95 -1.03802 -2.94332 0
M  V30 5265 N 489.251 1.34841 -0.815825 0
M  V30 5266 C 490.476 2.03261 -0.41226 0
M  V30 5267 C 490.901 1.61055 0.971751 0
M  V30 5268 O 490.259 0.7917 1.63101 0
M  V30 5269 C 490.307 3.56914 -0.514289 0
M  V30 5270 O 489.411 4.09728 0.468675 0
M  V30 5271 H 488.752 0.641664 -0.170771 0
M  V30 5272 H 491.282 1.72241 -1.10427 0
M  V30 5273 H 491.292 4.06156 -0.387457 0
M  V30 5274 H 489.967 3.86982 -1.52375 0
M  V30 5275 H 488.544 3.71681 0.301316 0
M  V30 5276 N 490.729 0.570148 1.46925 0
M  V30 5277 C 491.957 0.0561966 2.06824 0
M  V30 5278 C 492.372 -1.24326 1.42086 0
M  V30 5279 O 491.729 -1.74882 0.521794 0
M  V30 5280 C 491.78 -0.129517 3.61268 0
M  V30 5281 O 491.501 1.1185 4.23581 0
M  V30 5282 C 493.002 -0.679266 4.38065 0
M  V30 5283 H 490.222 0.0517261 0.669003 0
M  V30 5284 H 492.766 0.787243 1.8874 0
M  V30 5285 H 490.921 -0.810739 3.78822 0
M  V30 5286 H 491.335 0.924375 5.1629 0
M  V30 5287 H 492.809 -0.758445 5.46765 0
M  V30 5288 H 493.286 -1.69346 4.05239 0
M  V30 5289 H 493.892 -0.0333237 4.25287 0
M  V30 5290 N 492.207 -1.54576 0.307264 0
M  V30 5291 C 493.435 -2.04675 -0.302597 0
M  V30 5292 C 493.85 -1.18425 -1.47041 0
M  V30 5293 O 493.207 -0.211257 -1.81273 0
M  V30 5294 C 493.258 -3.53575 -0.752801 0
M  V30 5295 O 492.979 -4.36547 0.368536 0
M  V30 5296 C 494.48 -4.19699 -1.42717 0
M  V30 5297 H 491.7 -0.66786 -0.0648374 0
M  V30 5298 H 494.244 -1.99516 0.448716 0
M  V30 5299 H 492.399 -3.59074 -1.45412 0
M  V30 5300 H 492.813 -5.24497 0.0168937 0
M  V30 5301 H 494.287 -5.25388 -1.69327 0
M  V30 5302 H 494.764 -3.69815 -2.36925 0
M  V30 5303 H 495.37 -4.18293 -0.768856 0
M  V30 5304 N 493.685 -0.035106 -1.57561 0
M  V30 5305 C 494.648 0.929819 -2.09492 0
M  V30 5306 C 495.648 1.25026 -1.01119 0
M  V30 5307 O 496.838 1.18961 -1.27255 0
M  V30 5308 C 493.97 2.24457 -2.56577 0
M  V30 5309 H 495.163 0.479935 -2.96035 0
M  V30 5310 H 492.716 0.213033 -1.54841 0
M  V30 5311 H 493.451 2.74061 -1.73382 0
M  V30 5312 H 493.236 2.02508 -3.35757 0
M  V30 5313 H 494.726 2.93607 -2.96959 0
M  V30 5314 N 495.163 1.55791 0.238111 0
M  V30 5315 C 496.391 1.82098 0.982233 0
M  V30 5316 C 496.806 0.612025 1.78605 0
M  V30 5317 O 496.163 -0.419381 1.77616 0
M  V30 5318 C 496.214 3.0673 1.91309 0
M  V30 5319 O 495.935 4.2296 1.14179 0
M  V30 5320 C 497.436 3.45903 2.77248 0
M  V30 5321 H 494.656 0.605748 0.288635 0
M  V30 5322 H 497.2 2.02862 0.258341 0
M  V30 5323 H 495.355 2.87991 2.59114 0
M  V30 5324 H 495.769 4.93653 1.7722 0
M  V30 5325 H 497.243 4.36189 3.38295 0
M  V30 5326 H 497.72 2.66891 3.48806 0
M  V30 5327 H 498.326 3.67024 2.14881 0
M  V30 5328 N 496.642 -0.504142 1.49319 0
M  V30 5329 C 497.889 -1.25846 1.58647 0
M  V30 5330 C 498.217 -1.92592 0.27177 0
M  V30 5331 O 497.472 -1.81167 -0.74007 0
M  V30 5332 C 497.771 -2.35021 2.69258 0
M  V30 5333 C 497.437 -1.85755 4.1086 0
M  V30 5334 C 496.099 -1.72038 4.49395 0
M  V30 5335 C 498.451 -1.48844 4.99495 0
M  V30 5336 C 495.779 -1.19783 5.74342 0
M  V30 5337 C 498.131 -0.980422 6.24956 0
M  V30 5338 C 496.795 -0.829622 6.62324 0
M  V30 5339 H 496.065 -0.460505 0.580531 0
M  V30 5340 H 498.712 -0.559716 1.83138 0
M  V30 5341 H 497.017 -3.10672 2.38726 0
M  V30 5342 H 498.714 -2.93083 2.73685 0
M  V30 5343 H 495.304 -1.9739 3.80441 0
M  V30 5344 H 499.488 -1.5829 4.70381 0
M  V30 5345 H 494.744 -1.06817 6.01997 0
M  V30 5346 H 498.918 -0.685608 6.93017 0
M  V30 5347 H 496.545 -0.42253 7.59025 0
M  V30 5348 N 498.12 -1.38341 -0.754957 0
M  V30 5349 C 499.083 -1.35262 -1.85032 0
M  V30 5350 C 500.083 -0.253393 -1.58791 0
M  V30 5351 O 501.273 -0.510205 -1.66561 0
M  V30 5352 C 498.405 -1.10544 -3.22479 0
M  V30 5353 H 499.598 -2.32712 -1.8917 0
M  V30 5354 H 497.151 -1.23614 -0.956515 0
M  V30 5355 H 497.886 -0.136952 -3.24011 0
M  V30 5356 H 497.671 -1.90127 -3.4292 0
M  V30 5357 H 499.161 -1.11082 -4.02555 0
M  V30 5358 N 499.598 0.982988 -1.23187 0
M  V30 5359 C 500.561 2.05649 -1.01198 0
M  V30 5360 C 501.561 1.6078 0.0252464 0
M  V30 5361 O 502.751 1.72878 -0.214243 0
M  V30 5362 C 499.883 3.36744 -0.530656 0
M  V30 5363 H 501.076 2.2659 -1.96461 0
M  V30 5364 H 498.629 1.15602 -1.05195 0
M  V30 5365 H 499.364 3.21492 0.425873 0
M  V30 5366 H 499.149 3.7065 -1.2791 0
M  V30 5367 H 500.639 4.15705 -0.397366 0
M  V30 5368 N 501.076 1.04316 1.18135 0
M  V30 5369 C 502.322 0.749128 1.88457 0
M  V30 5370 C 502.655 -0.72149 1.803 0
M  V30 5371 O 501.93 -1.52676 1.205 0
M  V30 5372 C 502.213 1.21905 3.38838 0
M  V30 5373 C 502.066 2.75195 3.55792 0
M  V30 5374 C 503.385 0.811085 4.32561 0
M  V30 5375 H 500.504 0.273611 0.684329 0
M  V30 5376 H 503.146 1.29561 1.38975 0
M  V30 5377 H 501.296 0.754137 3.8111 0
M  V30 5378 H 502.968 3.29743 3.22595 0
M  V30 5379 H 501.211 3.14899 2.98364 0
M  V30 5380 H 501.882 3.03135 4.61317 0
M  V30 5381 H 504.358 1.21118 3.98082 0
M  V30 5382 H 503.234 1.16761 5.36338 0
M  V30 5383 H 503.495 -0.285596 4.41177 0
M  V30 5384 N 502.554 -1.34406 0.822964 0
M  V30 5385 C 503.8 -1.98578 0.411666 0
M  V30 5386 C 504.133 -1.65093 -1.02264 0
M  V30 5387 O 503.408 -0.92258 -1.71227 0
M  V30 5388 C 503.691 -3.54823 0.614235 0
M  V30 5389 C 503.544 -3.9805 2.09466 0
M  V30 5390 C 504.863 -4.40071 0.050221 0
M  V30 5391 H 501.982 -0.721355 0.151047 0
M  V30 5392 H 504.624 -1.59301 1.03554 0
M  V30 5393 H 502.774 -3.88411 0.0831774 0
M  V30 5394 H 504.446 -3.74795 2.68936 0
M  V30 5395 H 502.689 -3.4836 2.5851 0
M  V30 5396 H 503.36 -5.06819 2.18721 0
M  V30 5397 H 505.836 -4.13037 0.503953 0
M  V30 5398 H 504.712 -5.48452 0.221759 0
M  V30 5399 H 504.973 -4.29576 -1.04482 0
M  V30 5400 N 504.032 -0.577932 -1.46621 0
M  V30 5401 C 504.962 0.145917 -2.33044 0
M  V30 5402 C 505.943 0.888412 -1.45056 0
M  V30 5403 O 507.128 0.864812 -1.73881 0
M  V30 5404 C 504.258 1.16322 -3.27241 0
M  V30 5405 C 503.212 0.535868 -4.24632 0
M  V30 5406 C 502.538 1.65929 -5.08303 0
M  V30 5407 C 503.838 -0.523861 -5.19666 0
M  V30 5408 H 505.532 -0.575636 -2.93814 0
M  V30 5409 H 503.078 -0.278272 -1.41286 0
M  V30 5410 H 505.031 1.67793 -3.86553 0
M  V30 5411 H 503.755 1.91498 -2.64567 0
M  V30 5412 H 502.414 0.0422759 -3.66576 0
M  V30 5413 H 502.062 2.40061 -4.42018 0
M  V30 5414 H 501.762 1.2452 -5.74255 0
M  V30 5415 H 503.286 2.17686 -5.70478 0
M  V30 5416 H 504.7 -0.0944059 -5.73222 0
M  V30 5417 H 503.097 -0.858 -5.93935 0
M  V30 5418 H 504.167 -1.41197 -4.63887 0
M  V30 5419 N 505.51 1.54411 -0.315457 0
M  V30 5420 C 506.74 2.04536 0.291315 0
M  V30 5421 C 507.148 1.19162 1.4696 0
M  V30 5422 O 506.491 0.213199 1.82459 0
M  V30 5423 C 506.553 3.5056 0.796725 0
M  V30 5424 C 506.217 4.5627 -0.258178 0
M  V30 5425 C 507.214 5.08312 -1.09153 0
M  V30 5426 C 504.899 5.00672 -0.404036 0
M  V30 5427 C 506.893 6.03312 -2.05655 0
M  V30 5428 C 504.58 5.95488 -1.37248 0
M  V30 5429 C 505.578 6.46693 -2.19721 0
M  V30 5430 O 505.266 7.39648 -3.14921 0
M  V30 5431 H 504.998 0.672856 0.0651165 0
M  V30 5432 H 507.552 2.00244 -0.457308 0
M  V30 5433 H 505.782 3.52223 1.59612 0
M  V30 5434 H 507.471 3.83804 1.32096 0
M  V30 5435 H 508.237 4.74793 -0.98979 0
M  V30 5436 H 504.116 4.60436 0.22799 0
M  V30 5437 H 507.66 6.43203 -2.70067 0
M  V30 5438 H 503.557 6.28424 -1.47489 0
M  V30 5439 H 504.325 7.57496 -3.10067 0
M  V30 5440 N 506.988 0.0434614 1.5754 0
M  V30 5441 C 508.234 -0.632971 1.92669 0
M  V30 5442 C 508.567 -1.70947 0.921446 0
M  V30 5443 O 507.842 -1.94426 -0.0537202 0
M  V30 5444 C 508.125 -1.23619 3.38216 0
M  V30 5445 C 507.978 -0.168274 4.49485 0
M  V30 5446 C 509.297 -2.15008 3.84005 0
M  V30 5447 H 506.416 -0.228629 0.700641 0
M  V30 5448 H 509.058 0.103651 1.89717 0
M  V30 5449 H 507.208 -1.864 3.40863 0
M  V30 5450 H 508.88 0.463196 4.58969 0
M  V30 5451 H 507.123 0.504581 4.30855 0
M  V30 5452 H 507.794 -0.630218 5.48391 0
M  V30 5453 H 510.27 -1.62198 3.83185 0
M  V30 5454 H 509.146 -2.54161 4.86511 0
M  V30 5455 H 509.407 -3.04707 3.20322 0
M  V30 5456 N 508.466 -1.55915 -0.229846 0
M  V30 5457 C 509.376 -1.94891 -1.30593 0
M  V30 5458 C 510.392 -0.851604 -1.51736 0
M  V30 5459 O 511.568 -1.15447 -1.65027 0
M  V30 5460 C 508.633 -2.25052 -2.63728 0
M  V30 5461 C 507.694 -3.48306 -2.5096 0
M  V30 5462 C 506.927 -3.77019 -3.77747 0
M  V30 5463 O 507.15 -3.07534 -4.80395 0
M  V30 5464 O 506.084 -4.70523 -3.75356 0
M  V30 5465 H 509.91 -2.86581 -1.00525 0
M  V30 5466 H 507.495 -1.43017 -0.432025 0
M  V30 5467 H 509.377 -2.45682 -3.42372 0
M  V30 5468 H 508.052 -1.36538 -2.93495 0
M  V30 5469 H 506.959 -3.32964 -1.70546 0
M  V30 5470 H 508.292 -4.37177 -2.26136 0
M  V30 5471 N 509.944 0.496216 -1.49584 0
M  V30 5472 C 510.892 1.61805 -1.67098 0
M  V30 5473 C 511.886 1.60667 -0.536877 0
M  V30 5474 O 513.092 1.65118 -0.716654 0
M  V30 5475 H 509.467 0.53646 -0.526986 0
M  V30 5476 H 511.438 1.44187 -2.61252 0
M  V30 5477 C 510.187 2.99912 -1.75921 0
M  V30 5478 H 509.51 3.01496 -2.62565 0
M  V30 5479 H 510.95 3.77931 -1.92209 0
M  V30 5480 C 509.409 3.33092 -0.505088 0
M  V30 5481 O 509.939 4.00019 0.367085 0
M  V30 5482 N 508.145 2.88278 -0.366599 0
M  V30 5483 H 507.692 2.33989 -1.07735 0
M  V30 5484 H 507.65 3.10846 0.47142 0
M  V30 5485 N 511.423 1.38739 0.74761 0
M  V30 5486 C 512.333 1.38696 1.89211 0
M  V30 5487 C 513.349 0.283303 1.71678 0
M  V30 5488 O 514.525 0.522713 1.94498 0
M  V30 5489 C 511.59 1.21662 3.24653 0
M  V30 5490 C 510.651 2.41886 3.54669 0
M  V30 5491 C 509.884 2.25655 4.83648 0
M  V30 5492 O 510.107 1.25339 5.56459 0
M  V30 5493 O 509.041 3.14372 5.13277 0
M  V30 5494 H 512.867 2.35143 1.92202 0
M  V30 5495 H 510.452 1.19721 0.893708 0
M  V30 5496 H 512.334 1.14246 4.05618 0
M  V30 5497 H 511.009 0.283024 3.2246 0
M  V30 5498 H 509.916 2.54877 2.73841 0
M  V30 5499 H 511.249 3.33895 3.61628 0
M  V30 5500 N 512.901 -0.976442 1.23707 0
M  V30 5501 C 514.317 -1.24341 1.00058 0
M  V30 5502 C 514.517 -1.99315 -0.295932 0
M  V30 5503 O 513.573 -2.3123 -1.01435 0
M  V30 5504 C 514.886 -2.03909 2.21001 0
M  V30 5505 C 516.434 -2.17034 2.25534 0
M  V30 5506 C 516.909 -2.99994 3.46075 0
M  V30 5507 N 518.4 -3.07578 3.46338 0
M  V30 5508 C 519.135 -3.72104 4.36264 0
M  V30 5509 N 518.631 -4.3842 5.36432 0
M  V30 5510 N 520.424 -3.69029 4.23998 0
M  V30 5511 H 512.575 -0.47428 2.07037 0
M  V30 5512 H 514.838 -0.272167 0.908091 0
M  V30 5513 H 514.544 -1.56198 3.15111 0
M  V30 5514 H 514.418 -3.04654 2.22409 0
M  V30 5515 H 516.805 -2.63951 1.31961 0
M  V30 5516 H 516.886 -1.15664 2.28156 0
M  V30 5517 H 516.53 -2.53772 4.39957 0
M  V30 5518 H 516.46 -4.01541 3.40694 0
M  V30 5519 H 518.951 -2.60397 2.73865 0
M  V30 5520 H 519.264 -4.85447 6.013 0
M  V30 5521 H 517.609 -4.37116 5.40328 0
M  V30 5522 H 520.8 -3.16392 3.44984 0
M  V30 5523 H 520.973 -4.19034 4.94282 0
M  V30 5524 N 514.379 -1.04941 -1.1758 0
M  V30 5525 C 515.625 -0.768896 -1.88307 0
M  V30 5526 C 515.98 0.696361 -1.79356 0
M  V30 5527 O 515.273 1.50245 -1.18899 0
M  V30 5528 C 515.467 -1.18062 -3.37337 0
M  V30 5529 C 515.296 -2.68436 -3.60794 0
M  V30 5530 C 514.066 -3.35709 -3.77661 0
M  V30 5531 C 516.264 -3.66657 -3.60649 0
M  V30 5532 N 514.246 -4.74974 -3.88939 0
M  V30 5533 C 515.617 -4.91638 -3.77747 0
M  V30 5534 C 517.672 -3.60162 -3.43785 0
M  V30 5535 C 516.375 -6.10902 -3.79726 0
M  V30 5536 C 518.401 -4.78863 -3.47051 0
M  V30 5537 C 517.763 -6.02666 -3.64654 0
M  V30 5538 H 513.862 -0.33355 -0.707296 0
M  V30 5539 H 516.446 -1.34085 -1.41171 0
M  V30 5540 H 514.617 -0.636648 -3.83147 0
M  V30 5541 H 516.349 -0.8502 -3.95669 0
M  V30 5542 H 513.104 -2.8611 -3.77409 0
M  V30 5543 H 513.528 -5.47378 -3.98379 0
M  V30 5544 H 518.17 -2.65412 -3.29114 0
M  V30 5545 H 515.888 -7.05998 -3.93182 0
M  V30 5546 H 519.474 -4.75488 -3.35265 0
M  V30 5547 H 518.354 -6.92979 -3.67083 0
M  V30 5548 N 515.857 1.33968 -0.830081 0
M  V30 5549 C 517.134 1.92554 -0.343858 0
M  V30 5550 C 517.514 1.7573 1.16971 0
M  V30 5551 O 516.862 1.14035 1.98011 0
M  V30 5552 C 517.072 3.40147 -0.781073 0
M  V30 5553 C 518.42 4.17299 -0.78402 0
M  V30 5554 O 519.444 3.48762 -0.724112 0
M  V30 5555 O 518.303 5.39631 -0.863739 0
M  V30 5556 H 515.397 0.821469 -0.0954827 0
M  V30 5557 H 517.943 1.42897 -0.915348 0
M  V30 5558 H 516.715 3.46225 -1.82329 0
M  V30 5559 H 516.338 3.97166 -0.18567 0
M  V30 5560 N 517.335 0.585699 1.46312 0
M  V30 5561 C 518.583 0.072278 2.01971 0
M  V30 5562 C 518.904 -1.29345 1.45928 0
M  V30 5563 O 518.174 -1.84973 0.645109 0
M  V30 5564 H 516.754 0.023729 0.746623 0
M  V30 5565 H 519.416 0.762155 1.7938 0
M  V30 5566 H 518.512 0.00552767 3.121 0
M  V30 5567 N 518.813 -1.54241 0.323641 0
M  V30 5568 C 520.059 -2.00867 -0.279323 0
M  V30 5569 C 520.392 -1.21146 -1.5178 0
M  V30 5570 O 519.667 -0.29378 -1.92269 0
M  V30 5571 C 519.95 -3.54837 -0.613387 0
M  V30 5572 C 519.803 -4.45284 0.635803 0
M  V30 5573 C 521.122 -4.16186 -1.43099 0
M  V30 5574 H 518.241 -0.730177 -0.100049 0
M  V30 5575 H 520.883 -1.84829 0.440235 0
M  V30 5576 H 519.033 -3.68634 -1.22641 0
M  V30 5577 H 520.705 -4.43357 1.27406 0
M  V30 5578 H 518.948 -4.14956 1.26466 0
M  V30 5579 H 519.619 -5.5084 0.357597 0
M  V30 5580 H 522.095 -4.05964 -0.912814 0
M  V30 5581 H 520.971 -5.24031 -1.6335 0
M  V30 5582 H 521.232 -3.69516 -2.42715 0
M  V30 5583 N 520.291 -0.0518155 -1.57515 0
M  V30 5584 C 521.702 0.483787 -1.80323 0
M  V30 5585 C 522.053 1.70879 -0.964099 0
M  V30 5586 O 521.178 2.15643 -0.180872 0
M  V30 5587 C 521.773 0.884459 -3.27052 0
M  V30 5588 C 520.332 1.36504 -3.50776 0
M  V30 5589 C 519.479 0.340539 -2.75201 0
M  V30 5590 H 522.43 -0.277691 -1.56252 0
M  V30 5591 H 522.451 1.74733 -3.38007 0
M  V30 5592 H 521.963 -0.00731093 -3.88099 0
M  V30 5593 H 520.064 2.27598 -2.95009 0
M  V30 5594 H 520.177 1.35675 -4.59488 0
M  V30 5595 H 518.541 0.81356 -2.41357 0
M  V30 5596 H 519.324 -0.543156 -3.38976 0
M  V30 5597 N 521.769 1.56035 0.221574 0
M  V30 5598 C 523.016 1.79047 0.94597 0
M  V30 5599 C 523.344 0.62057 1.84334 0
M  V30 5600 O 522.599 -0.395053 1.91671 0
M  V30 5601 C 522.898 3.07813 1.8162 0
M  V30 5602 C 522.564 4.3797 1.07206 0
M  V30 5603 C 521.226 4.73334 0.866508 0
M  V30 5604 C 523.578 5.18326 0.546565 0
M  V30 5605 C 520.906 5.8657 0.123549 0
M  V30 5606 C 523.258 6.32335 -0.18305 0
M  V30 5607 C 521.922 6.66301 -0.399861 0
M  V30 5608 H 521.192 0.655178 0.346155 0
M  V30 5609 H 523.839 1.90299 0.214146 0
M  V30 5610 H 522.144 2.91682 2.61589 0
M  V30 5611 H 523.841 3.2282 2.37884 0
M  V30 5612 H 520.431 4.10202 1.24226 0
M  V30 5613 H 524.615 4.9144 0.692847 0
M  V30 5614 H 519.871 6.11376 -0.0546591 0
M  V30 5615 H 524.045 6.9383 -0.59775 0
M  V30 5616 H 521.672 7.53889 -0.977489 0
M  V30 5617 N 523.247 -0.488276 1.49845 0
M  V30 5618 C 524.496 -1.23826 1.59217 0
M  V30 5619 C 524.809 -1.93439 0.289966 0
M  V30 5620 O 526.015 -2.70229 0.262382 0
M  V30 5621 C 524.471 -2.24902 2.80976 0
M  V30 5622 C 524.079 -1.6117 4.18005 0
M  V30 5623 C 525.823 -3.00648 2.99685 0
M  V30 5624 C 523.73 -2.60431 5.3097 0
M  V30 5625 H 522.66 -0.465858 0.592868 0
M  V30 5626 H 525.311 -0.510645 1.76252 0
M  V30 5627 H 523.693 -3.0088 2.57463 0
M  V30 5628 H 524.867 -0.910968 4.51706 0
M  V30 5629 H 523.182 -0.97767 4.0476 0
M  V30 5630 H 525.779 -3.74903 3.81251 0
M  V30 5631 H 526.122 -3.5902 2.10738 0
M  V30 5632 H 526.655 -2.31784 3.23297 0
M  V30 5633 H 523.394 -2.06823 6.22017 0
M  V30 5634 H 522.914 -3.28707 5.01709 0
M  V30 5635 H 524.593 -3.22606 5.60834 0
M  V30 5636 N 524.725 -1.39134 -0.740242 0
M  V30 5637 C 525.655 -1.40165 -1.86751 0
M  V30 5638 C 526.636 -0.265708 -1.68012 0
M  V30 5639 O 527.821 -0.47076 -1.88408 0
M  V30 5640 C 524.951 -1.2392 -3.2444 0
M  V30 5641 C 523.905 -2.34858 -3.57807 0
M  V30 5642 C 523.231 -2.03707 -4.94376 0
M  V30 5643 C 524.531 -3.77159 -3.61315 0
M  V30 5644 H 526.225 -2.345 -1.86145 0
M  V30 5645 H 523.771 -1.12875 -0.89416 0
M  V30 5646 H 525.724 -1.23263 -4.02969 0
M  V30 5647 H 524.448 -0.26051 -3.25559 0
M  V30 5648 H 523.107 -2.34723 -2.81604 0
M  V30 5649 H 522.755 -1.04289 -4.9207 0
M  V30 5650 H 522.455 -2.78016 -5.17669 0
M  V30 5651 H 523.979 -2.04691 -5.75268 0
M  V30 5652 H 525.393 -3.79252 -4.29931 0
M  V30 5653 H 523.79 -4.50784 -3.96124 0
M  V30 5654 H 524.86 -4.08513 -2.61238 0
M  V30 5655 N 526.204 0.969867 -1.24223 0
M  V30 5656 C 527.62 1.23809 -1.00716 0
M  V30 5657 C 527.82 1.99469 0.285358 0
M  V30 5658 O 526.876 2.31764 1.00207 0
M  V30 5659 C 528.189 2.02734 -2.2208 0
M  V30 5660 C 529.737 2.15834 -2.26681 0
M  V30 5661 C 530.212 2.98154 -3.47661 0
M  V30 5662 N 531.703 3.05737 -3.47964 0
M  V30 5663 C 532.438 3.69785 -4.38231 0
M  V30 5664 N 531.934 4.35569 -5.3875 0
M  V30 5665 N 533.727 3.66775 -4.25949 0
M  V30 5666 H 525.878 0.463294 -2.07286 0
M  V30 5667 H 528.141 0.267348 -0.909521 0
M  V30 5668 H 527.847 1.54524 -3.15935 0
M  V30 5669 H 527.721 3.0347 -2.24021 0
M  V30 5670 H 530.108 2.63248 -1.33359 0
M  V30 5671 H 530.189 1.14453 -2.28767 0
M  V30 5672 H 529.833 2.51435 -4.41297 0
M  V30 5673 H 529.763 3.99729 -3.42818 0
M  V30 5674 H 532.254 2.58941 -2.75242 0
M  V30 5675 H 532.567 4.82251 -6.03866 0
M  V30 5676 H 530.912 4.34244 -5.42639 0
M  V30 5677 H 534.103 3.14558 -3.46657 0
M  V30 5678 H 534.276 4.16407 -4.96497 0
M  V30 5679 N 527.682 1.05563 1.17022 0
M  V30 5680 C 528.922 0.777033 1.89054 0
M  V30 5681 C 529.286 -0.683617 1.79418 0
M  V30 5682 O 530.487 -1.07648 2.46303 0
M  V30 5683 C 528.758 1.24886 3.34871 0
M  V30 5684 S 530.317 1.0982 4.24835 0
M  V30 5685 H 527.135 0.282082 0.652649 0
M  V30 5686 H 529.737 1.35103 1.41306 0
M  V30 5687 H 528.441 2.30699 3.3942 0
M  V30 5688 H 527.972 0.669292 3.87665 0
M  V30 5689 H 529.987 0.02462 4.96194 0
M  V30 5690 N 529.16 -1.33526 0.837174 0
M  V30 5691 C 530.408 -1.97446 0.431211 0
M  V30 5692 C 530.729 -1.6665 -1.01255 0
M  V30 5693 O 529.999 -0.964559 -1.70508 0
M  V30 5694 H 528.579 -0.73043 0.156463 0
M  V30 5695 H 531.241 -1.62918 1.06976 0
M  V30 5696 H 530.337 -3.07001 0.561877 0
M  V30 5697 N 530.638 -0.59345 -1.46 0
M  V30 5698 C 531.585 0.133618 -2.30413 0
M  V30 5699 C 532.555 0.873736 -1.41262 0
M  V30 5700 O 533.74 0.862279 -1.70204 0
M  V30 5701 C 530.88 1.13434 -3.25924 0
M  V30 5702 C 529.993 0.39656 -4.30176 0
M  V30 5703 C 529.128 1.38575 -5.12806 0
M  V30 5704 C 528.167 0.634984 -6.08797 0
M  V30 5705 N 527.304 1.57276 -6.84258 0
M  V30 5706 H 532.144 -0.592252 -2.92055 0
M  V30 5707 H 529.681 -0.303874 -1.43927 0
M  V30 5708 H 531.639 1.72752 -3.79753 0
M  V30 5709 H 530.269 1.82779 -2.66067 0
M  V30 5710 H 529.321 -0.311861 -3.79119 0
M  V30 5711 H 530.633 -0.189869 -4.98438 0
M  V30 5712 H 529.787 2.05141 -5.70966 0
M  V30 5713 H 528.526 2.00611 -4.44529 0
M  V30 5714 H 527.531 -0.0443925 -5.49782 0
M  V30 5715 H 528.756 0.0198678 -6.79097 0
M  V30 5716 H 526.702 2.18103 -6.18682 0
M  V30 5717 H 526.619 1.03941 -7.48821 0
M  V30 5718 H 527.887 2.22844 -7.46968 0
M  V30 5719 N 532.116 1.54067 -0.331816 0
M  V30 5720 C 533.079 2.23275 0.517768 0
M  V30 5721 C 534.079 1.22897 1.03697 0
M  V30 5722 O 535.269 1.47419 0.928084 0
M  V30 5723 C 532.401 2.94326 1.72004 0
M  V30 5724 H 533.594 2.99773 -0.0873507 0
M  V30 5725 H 531.147 1.56079 -0.0830042 0
M  V30 5726 H 531.882 2.21986 2.36417 0
M  V30 5727 H 531.667 3.67941 1.35507 0
M  V30 5728 H 533.157 3.47031 2.32291 0
M  V30 5729 N 533.594 0.0601682 1.57485 0
M  V30 5730 C 534.524 -0.90889 2.15085 0
M  V30 5731 C 535.505 -1.31838 1.07484 0
M  V30 5732 O 536.69 -1.3915 1.35466 0
M  V30 5733 C 533.82 -2.18059 2.7031 0
M  V30 5734 C 532.774 -1.91088 3.82974 0
M  V30 5735 C 532.1 -3.24789 4.24754 0
M  V30 5736 C 533.4 -1.22535 5.07723 0
M  V30 5737 H 535.094 -0.429093 2.96309 0
M  V30 5738 H 532.64 -0.204952 1.42534 0
M  V30 5739 H 534.593 -2.86258 3.09248 0
M  V30 5740 H 533.317 -2.6826 1.8629 0
M  V30 5741 H 531.976 -1.25297 3.44523 0
M  V30 5742 H 531.624 -3.72809 3.37672 0
M  V30 5743 H 531.324 -3.07538 5.00694 0
M  V30 5744 H 532.848 -3.94205 4.66299 0
M  V30 5745 H 534.262 -1.80783 5.4405 0
M  V30 5746 H 532.659 -1.1558 5.88864 0
M  V30 5747 H 533.729 -0.202692 4.84476 0
M  V30 5748 N 535.072 -1.5615 -0.213296 0
M  V30 5749 C 536.02 -1.93953 -1.28394 0
M  V30 5750 C 537.014 -0.822592 -1.48087 0
M  V30 5751 O 538.22 -1.00748 -1.49164 0
M  V30 5752 H 534.595 -0.61648 -0.430646 0
M  V30 5753 H 536.566 -2.83275 -0.937977 0
M  V30 5754 C 535.315 -2.27969 -2.62537 0
M  V30 5755 H 534.638 -3.13432 -2.48194 0
M  V30 5756 H 536.078 -2.58297 -3.36242 0
M  V30 5757 C 534.537 -1.10775 -3.18167 0
M  V30 5758 O 535.067 -0.373201 -3.99963 0
M  V30 5759 N 533.273 -0.889377 -2.76656 0
M  V30 5760 H 532.82 -1.48843 -2.10246 0
M  V30 5761 H 532.778 -0.107 -3.14218 0
M  V30 5762 N 536.55 0.480323 -1.50102 0
M  V30 5763 C 537.46 1.60547 -1.71061 0
M  V30 5764 C 538.476 1.63564 -0.593529 0
M  V30 5765 O 539.652 1.81604 -0.870751 0
M  V30 5766 C 536.717 2.96814 -1.79171 0
M  V30 5767 C 535.778 3.04259 -3.02861 0
M  V30 5768 C 535.011 4.34027 -3.10574 0
M  V30 5769 O 535.234 5.24009 -2.25323 0
M  V30 5770 O 534.168 4.46873 -4.03223 0
M  V30 5771 H 537.994 1.45788 -2.6642 0
M  V30 5772 H 535.579 0.658838 -1.34088 0
M  V30 5773 H 537.461 3.77765 -1.86738 0
M  V30 5774 H 536.136 3.11791 -0.869947 0
M  V30 5775 H 535.043 2.22419 -3.008 0
M  V30 5776 H 536.376 2.94216 -3.94586 0
M  V30 5777 N 538.028 1.39524 0.732853 0
M  V30 5778 C 539.444 1.21176 1.03868 0
M  V30 5779 C 539.644 0.0748448 2.01361 0
M  V30 5780 O 538.7 -0.57281 2.45917 0
M  V30 5781 C 540.013 2.54667 1.59892 0
M  V30 5782 C 541.561 2.6153 1.71962 0
M  V30 5783 C 542.036 3.95248 2.31394 0
M  V30 5784 N 543.527 3.96899 2.38801 0
M  V30 5785 C 544.262 4.97138 2.85729 0
M  V30 5786 N 543.758 6.07775 3.32537 0
M  V30 5787 N 545.551 4.84516 2.84957 0
M  V30 5788 H 537.702 2.12225 0.086304 0
M  V30 5789 H 539.965 0.942614 0.100907 0
M  V30 5790 H 539.671 3.38423 0.95721 0
M  V30 5791 H 539.545 2.74538 2.58668 0
M  V30 5792 H 541.932 1.78156 2.35254 0
M  V30 5793 H 542.013 2.45507 0.718327 0
M  V30 5794 H 541.657 4.79054 1.68729 0
M  V30 5795 H 541.587 4.08593 3.32204 0
M  V30 5796 H 544.078 3.16998 2.05719 0
M  V30 5797 H 544.391 6.8017 3.66862 0
M  V30 5798 H 542.736 6.11366 3.30541 0
M  V30 5799 H 545.927 3.97185 2.47713 0
M  V30 5800 H 546.1 5.62783 3.21215 0
M  V30 5801 N 539.506 -0.963266 1.24736 0
M  V30 5802 C 540.453 -2.05857 1.04363 0
M  V30 5803 C 541.423 -1.6604 -0.0444951 0
M  V30 5804 O 542.608 -1.90477 0.110999 0
M  V30 5805 C 539.748 -3.38745 0.659235 0
M  V30 5806 C 538.861 -3.9173 1.82131 0
M  V30 5807 C 537.996 -5.12906 1.38208 0
M  V30 5808 C 537.035 -5.58098 2.51382 0
M  V30 5809 N 536.172 -6.7049 2.08295 0
M  V30 5810 H 541.012 -2.22616 1.98107 0
M  V30 5811 H 538.549 -1.09103 0.986661 0
M  V30 5812 H 540.507 -4.15107 0.417371 0
M  V30 5813 H 539.137 -3.21898 -0.241201 0
M  V30 5814 H 538.189 -3.11966 2.17672 0
M  V30 5815 H 539.501 -4.21225 2.67153 0
M  V30 5816 H 538.655 -5.96657 1.09935 0
M  V30 5817 H 537.394 -4.85105 0.502456 0
M  V30 5818 H 536.399 -4.72917 2.80409 0
M  V30 5819 H 537.624 -5.87911 3.39909 0
M  V30 5820 H 535.57 -6.44416 1.22737 0
M  V30 5821 H 535.487 -6.99458 2.86869 0
M  V30 5822 H 536.755 -7.57672 1.83175 0
M  V30 5823 N 540.985 -1.06182 -1.16461 0
M  V30 5824 C 541.948 -0.675723 -2.19013 0
M  V30 5825 C 542.948 0.277963 -1.58379 0
M  V30 5826 O 544.138 0.0604962 -1.74095 0
M  V30 5827 C 541.27 0.00591459 -3.40899 0
M  V30 5828 H 542.463 -1.58353 -2.54685 0
M  V30 5829 H 540.016 -0.856908 -1.30716 0
M  V30 5830 H 540.751 0.92652 -3.10783 0
M  V30 5831 H 540.536 -0.67984 -3.86161 0
M  V30 5832 H 542.026 0.26181 -4.16778 0
M  V30 5833 N 542.463 1.3308 -0.844243 0
M  V30 5834 C 543.373 2.32876 -0.283922 0
M  V30 5835 C 544.389 1.63589 0.592846 0
M  V30 5836 O 545.565 1.95205 0.495693 0
M  V30 5837 C 542.63 3.42667 0.527283 0
M  V30 5838 C 541.691 4.27664 -0.374394 0
M  V30 5839 C 540.924 5.32212 0.39819 0
M  V30 5840 O 541.147 5.46635 1.62932 0
M  V30 5841 O 540.081 6.01458 -0.2306 0
M  V30 5842 H 543.907 2.82671 -1.11045 0
M  V30 5843 H 541.492 1.36518 -0.606903 0
M  V30 5844 H 543.374 4.09652 0.988078 0
M  V30 5845 H 542.049 2.95079 1.33078 0
M  V30 5846 H 540.956 3.63526 -0.883144 0
M  V30 5847 H 542.289 4.78749 -1.1428 0
M  V30 5848 N 543.941 0.601185 1.45683 0
M  V30 5849 C 545.187 0.0940202 2.02582 0
M  V30 5850 C 545.52 -1.26972 1.46941 0
M  V30 5851 O 544.795 -1.83613 0.641612 0
M  V30 5852 C 545.078 0.0481715 3.60068 0
M  V30 5853 C 544.931 1.44212 4.26055 0
M  V30 5854 C 546.25 -0.642975 4.35378 0
M  V30 5855 H 543.369 0.0356404 0.736138 0
M  V30 5856 H 546.011 0.771929 1.73612 0
M  V30 5857 H 544.161 -0.529128 3.8488 0
M  V30 5858 H 545.833 2.06601 4.12449 0
M  V30 5859 H 544.076 2.00465 3.84703 0
M  V30 5860 H 544.747 1.36234 5.34925 0
M  V30 5861 H 547.223 -0.152351 4.15821 0
M  V30 5862 H 546.099 -0.644141 5.45107 0
M  V30 5863 H 546.36 -1.70785 4.0778 0
M  V30 5864 N 545.419 -1.53889 0.339982 0
M  V30 5865 C 546.835 -1.59595 -0.0120752 0
M  V30 5866 C 547.035 -1.35605 -1.49042 0
M  V30 5867 O 546.091 -1.14856 -2.24865 0
M  V30 5868 C 547.404 -2.9774 0.420898 0
M  V30 5869 C 548.952 -3.1077 0.37294 0
M  V30 5870 C 549.427 -4.51286 0.781327 0
M  V30 5871 N 550.918 -4.57325 0.735374 0
M  V30 5872 C 551.653 -5.64194 1.02336 0
M  V30 5873 N 551.149 -6.7893 1.37933 0
M  V30 5874 N 552.942 -5.54051 0.947838 0
M  V30 5875 H 545.093 -1.67738 1.30299 0
M  V30 5876 H 547.356 -0.785385 0.530918 0
M  V30 5877 H 547.062 -3.20349 1.45152 0
M  V30 5878 H 546.936 -3.76639 -0.205721 0
M  V30 5879 H 549.323 -2.87886 -0.648505 0
M  V30 5880 H 549.404 -2.33939 1.03472 0
M  V30 5881 H 549.048 -4.74905 1.80077 0
M  V30 5882 H 548.978 -5.26511 0.0970679 0
M  V30 5883 H 551.469 -3.74931 0.472773 0
M  V30 5884 H 551.782 -7.56392 1.58402 0
M  V30 5885 H 550.127 -6.80386 1.41774 0
M  V30 5886 H 553.318 -4.63293 0.669115 0
M  V30 5887 H 553.491 -6.37246 1.17563 0
M  V30 5888 N 546.897 -0.0685191 -1.57451 0
M  V30 5889 C 547.827 0.89747 -2.15564 0
M  V30 5890 C 548.808 1.31266 -1.08181 0
M  V30 5891 O 549.993 1.38429 -1.36202 0
M  V30 5892 C 547.123 2.16623 -2.71463 0
M  V30 5893 C 546.077 1.89054 -3.83982 0
M  V30 5894 C 545.403 3.22532 -4.26471 0
M  V30 5895 C 546.703 1.1984 -5.08366 0
M  V30 5896 H 548.397 0.413373 -2.96533 0
M  V30 5897 H 545.943 0.197391 -1.42641 0
M  V30 5898 H 547.896 2.84614 -3.10761 0
M  V30 5899 H 546.62 2.67269 -1.8771 0
M  V30 5900 H 545.279 1.23469 -3.45183 0
M  V30 5901 H 544.927 3.71013 -3.39644 0
M  V30 5902 H 544.627 3.04879 -5.02317 0
M  V30 5903 H 546.151 3.91727 -4.68383 0
M  V30 5904 H 547.565 1.77896 -5.45001 0
M  V30 5905 H 545.962 1.12456 -5.89469 0
M  V30 5906 H 547.032 0.176996 -4.84577 0
M  V30 5907 N 548.375 1.56261 0.205012 0
M  V30 5908 C 549.307 1.90266 1.27795 0
M  V30 5909 C 550.32 0.792397 1.42214 0
M  V30 5910 O 551.509 1.07077 1.42817 0
M  V30 5911 C 548.609 2.11074 2.65143 0
M  V30 5912 C 547.782 3.42176 2.7246 0
M  V30 5913 C 546.841 3.52216 3.90936 0
M  V30 5914 O 545.867 4.25119 3.78501 0
M  V30 5915 N 547.069 2.84573 5.05963 0
M  V30 5916 H 549.834 2.82896 0.989434 0
M  V30 5917 H 547.395 1.57008 0.394981 0
M  V30 5918 H 549.387 2.15089 3.4281 0
M  V30 5919 H 547.957 1.2499 2.86524 0
M  V30 5920 H 547.177 3.50116 1.81142 0
M  V30 5921 H 548.465 4.28509 2.74331 0
M  V30 5922 H 547.863 2.25152 5.18963 0
M  V30 5923 H 546.42 2.94228 5.81613 0
M  V30 5924 N 549.853 -0.472356 1.50355 0
M  V30 5925 C 551.1 -1.22453 1.61281 0
M  V30 5926 C 551.428 -1.91972 0.31256 0
M  V30 5927 O 550.683 -1.82696 -0.701475 0
M  V30 5928 C 550.982 -2.29257 2.74182 0
M  V30 5929 C 550.648 -1.76999 4.14708 0
M  V30 5930 C 549.31 -1.62467 4.52944 0
M  V30 5931 C 551.662 -1.38215 5.0254 0
M  V30 5932 C 548.99 -1.07574 5.76754 0
M  V30 5933 C 551.342 -0.847638 6.26895 0
M  V30 5934 C 550.006 -0.688946 6.63935 0
M  V30 5935 H 549.276 -0.448087 0.590168 0
M  V30 5936 H 551.923 -0.520744 1.84284 0
M  V30 5937 H 550.228 -3.05538 2.45263 0
M  V30 5938 H 551.925 -2.87212 2.7984 0
M  V30 5939 H 548.515 -1.89276 3.84542 0
M  V30 5940 H 552.699 -1.48276 4.73633 0
M  V30 5941 H 547.955 -0.940237 6.04127 0
M  V30 5942 H 552.129 -0.538455 6.94315 0
M  V30 5943 H 549.756 -0.261435 7.5975 0
M  V30 5944 N 551.331 -1.39911 -0.725443 0
M  V30 5945 C 552.281 -1.35878 -1.83088 0
M  V30 5946 C 553.265 -0.237989 -1.5913 0
M  V30 5947 O 554.457 -0.476302 -1.70471 0
M  V30 5948 C 551.586 -1.21403 -3.21117 0
M  V30 5949 C 550.672 -2.38223 -3.50871 0
M  V30 5950 N 551.063 -3.63703 -3.51502 0
M  V30 5951 C 549.361 -2.31388 -3.81281 0
M  V30 5952 C 550.062 -4.4101 -3.79322 0
M  V30 5953 N 549.038 -3.7072 -3.97577 0
M  V30 5954 H 552.84 -2.3085 -1.81895 0
M  V30 5955 H 550.354 -1.33543 -0.924125 0
M  V30 5956 H 552.351 -1.16597 -4.00263 0
M  V30 5957 H 551.011 -0.273902 -3.23543 0
M  V30 5958 H 552.022 -3.96998 -3.32586 0
M  V30 5959 H 548.699 -1.45689 -3.91256 0
M  V30 5960 H 550.089 -5.49819 -3.86198 0
M  V30 5961 N 552.809 0.956637 -1.25245 0
M  V30 5962 C 554.086 1.67716 -1.00651 0
M  V30 5963 C 554.466 2.0585 0.467866 0
M  V30 5964 O 553.814 1.77029 1.44475 0
M  V30 5965 C 554.024 2.90093 -1.94028 0
M  V30 5966 C 555.372 3.6209 -2.21756 0
M  V30 5967 O 556.396 3.00171 -1.9177 0
M  V30 5968 O 555.255 4.7358 -2.72735 0
M  V30 5969 H 552.349 0.733731 -0.381533 0
M  V30 5970 H 554.895 1.00974 -1.3639 0
M  V30 5971 H 553.667 2.58689 -2.93591 0
M  V30 5972 H 553.29 3.64566 -1.58674 0
M  V30 5973 N 554.287 1.06798 1.15896 0
M  V30 5974 C 555.533 0.788934 1.86825 0
M  V30 5975 C 555.866 -0.683084 1.8179 0
M  V30 5976 O 555.141 -1.50086 1.23711 0
M  V30 5977 C 555.424 1.29065 3.36176 0
M  V30 5978 C 555.277 2.8268 3.49874 0
M  V30 5979 C 556.596 0.902655 4.30744 0
M  V30 5980 H 553.715 0.288066 0.678371 0
M  V30 5981 H 556.357 1.32479 1.36195 0
M  V30 5982 H 554.507 0.834806 3.79425 0
M  V30 5983 H 556.179 3.36511 3.15528 0
M  V30 5984 H 554.422 3.21157 2.91617 0
M  V30 5985 H 555.093 3.12852 4.54783 0
M  V30 5986 H 557.569 1.29535 3.95424 0
M  V30 5987 H 556.445 1.28111 5.3374 0
M  V30 5988 H 556.706 -0.191951 4.41683 0
M  V30 5989 N 555.766 -1.3263 0.851289 0
M  V30 5990 C 556.729 -2.27247 0.298541 0
M  V30 5991 C 557.729 -1.51467 -0.539847 0
M  V30 5992 O 558.919 -1.7061 -0.351843 0
M  V30 5993 C 556.051 -3.35964 -0.578004 0
M  V30 5994 H 557.244 -2.7765 1.13359 0
M  V30 5995 H 554.797 -1.43245 0.625354 0
M  V30 5996 H 555.532 -2.90823 -1.435 0
M  V30 5997 H 555.317 -3.92094 0.0220539 0
M  V30 5998 H 556.807 -4.06472 -0.957626 0
M  V30 5999 N 557.244 -0.608902 -1.45362 0
M  V30 6000 C 558.492 -0.104401 -2.0183 0
M  V30 6001 C 558.813 1.27007 -1.47967 0
M  V30 6002 O 558.083 1.83924 -0.674455 0
M  V30 6003 H 556.663 -0.0356042 -0.746151 0
M  V30 6004 H 559.325 -0.790596 -1.78145 0
M  V30 6005 H 558.421 -0.0551793 -3.12051 0
M  V30 6006 N 558.722 1.53707 -0.348139 0
M  V30 6007 C 559.999 1.93247 0.302475 0
M  V30 6008 C 560.379 1.28012 1.67857 0
M  V30 6009 O 559.727 0.43274 2.24365 0
M  V30 6010 C 559.937 3.47031 0.370159 0
M  V30 6011 C 561.285 4.20066 0.61882 0
M  V30 6012 O 562.309 3.53319 0.452087 0
M  V30 6013 O 561.168 5.38318 0.94215 0
M  V30 6014 H 558.262 0.807736 0.177458 0
M  V30 6015 H 560.808 1.64927 -0.399651 0
M  V30 6016 H 559.58 3.86745 -0.59534 0
M  V30 6017 H 559.203 3.81532 1.11888 0
M  V30 6018 N 560.2 0.0768682 1.57412 0
M  V30 6019 C 561.449 -0.590679 1.92857 0
M  V30 6020 C 561.762 -1.70461 0.959293 0
M  V30 6021 O 562.968 -2.43207 1.20675 0
M  V30 6022 C 561.424 -1.10204 3.42612 0
M  V30 6023 C 561.032 -0.0188447 4.47996 0
M  V30 6024 C 562.776 -1.74336 3.87049 0
M  V30 6025 C 560.683 -0.544536 5.88888 0
M  V30 6026 H 559.613 -0.224411 0.71983 0
M  V30 6027 H 562.264 0.149924 1.82887 0
M  V30 6028 H 560.646 -1.89577 3.47673 0
M  V30 6029 H 561.82 0.755936 4.54557 0
M  V30 6030 H 560.135 0.526555 4.13057 0
M  V30 6031 H 562.732 -2.14708 4.89699 0
M  V30 6032 H 563.075 -2.60537 3.24694 0
M  V30 6033 H 563.608 -1.01577 3.84613 0
M  V30 6034 H 560.347 0.280426 6.549 0
M  V30 6035 H 559.867 -1.28673 5.85836 0
M  V30 6036 H 561.546 -1.01933 6.3892 0
M  V30 6037 N 561.678 -1.56367 -0.196722 0
M  V30 6038 C 562.925 -1.80529 -0.917366 0
M  V30 6039 C 563.253 -0.649817 -1.83324 0
M  V30 6040 O 562.508 0.36451 -1.92275 0
M  V30 6041 C 562.807 -3.10663 -1.767 0
M  V30 6042 C 562.473 -4.3962 -1.00225 0
M  V30 6043 C 561.135 -4.74653 -0.791095 0
M  V30 6044 C 563.487 -5.1913 -0.464035 0
M  V30 6045 C 560.815 -5.86692 -0.0302155 0
M  V30 6046 C 563.167 -6.31964 0.283625 0
M  V30 6047 C 561.831 -6.65581 0.505813 0
M  V30 6048 H 561.101 -0.660602 -0.335688 0
M  V30 6049 H 563.748 -1.90615 -0.183844 0
M  V30 6050 H 562.053 -2.95807 -2.56915 0
M  V30 6051 H 563.75 -3.26563 -2.32718 0
M  V30 6052 H 560.34 -4.12127 -1.17684 0
M  V30 6053 H 564.524 -4.9248 -0.614575 0
M  V30 6054 H 559.78 -6.11211 0.151917 0
M  V30 6055 H 563.954 -6.92791 0.708057 0
M  V30 6056 H 561.581 -7.52239 1.0973 0
M  V30 6057 N 563.156 0.464375 -1.50603 0
M  V30 6058 C 564.106 1.55929 -1.66343 0
M  V30 6059 C 565.09 1.52338 -0.517887 0
M  V30 6060 O 566.282 1.59248 -0.772601 0
M  V30 6061 C 563.411 2.94327 -1.7671 0
M  V30 6062 C 562.497 3.02777 -2.96962 0
M  V30 6063 N 562.888 2.81026 -4.20545 0
M  V30 6064 C 561.186 3.33919 -2.95659 0
M  V30 6065 C 561.887 2.94618 -5.01573 0
M  V30 6066 N 560.863 3.25112 -4.35664 0
M  V30 6067 H 564.665 1.37822 -2.59581 0
M  V30 6068 H 562.179 0.671227 -1.47879 0
M  V30 6069 H 564.176 3.73063 -1.86091 0
M  V30 6070 H 562.836 3.13476 -0.846353 0
M  V30 6071 H 563.847 2.56477 -4.49933 0
M  V30 6072 H 560.524 3.59013 -2.13111 0
M  V30 6073 H 561.914 2.81984 -6.09865 0
M  V30 6074 N 564.634 1.40294 0.718013 0
M  V30 6075 C 565.566 1.36281 1.84283 0
M  V30 6076 C 566.579 0.268621 1.60569 0
M  V30 6077 O 567.768 0.528798 1.70487 0
M  V30 6078 C 564.868 1.09741 3.2064 0
M  V30 6079 C 564.041 2.30767 3.71571 0
M  V30 6080 C 563.1 2.00424 4.86535 0
M  V30 6081 O 562.126 2.73268 4.99313 0
M  V30 6082 N 563.328 0.980724 5.72156 0
M  V30 6083 H 566.093 2.3322 1.88225 0
M  V30 6084 H 563.654 1.34616 0.899453 0
M  V30 6085 H 565.646 0.874322 3.95143 0
M  V30 6086 H 564.216 0.214771 3.11861 0
M  V30 6087 H 563.436 2.68921 2.88228 0
M  V30 6088 H 564.724 3.11455 4.02335 0
M  V30 6089 H 564.122 0.377375 5.6444 0
M  V30 6090 H 562.679 0.817538 6.46653 0
M  V30 6091 N 566.112 -0.949982 1.2575 0
M  V30 6092 C 567.044 -2.05088 1.02331 0
M  V30 6093 C 568.057 -1.62795 -0.0133247 0
M  V30 6094 O 569.246 -1.77067 0.225759 0
M  V30 6095 C 566.346 -3.34794 0.525924 0
M  V30 6096 C 565.519 -4.05903 1.62978 0
M  V30 6097 C 564.578 -5.1388 1.13196 0
M  V30 6098 O 563.604 -5.39072 1.82729 0
M  V30 6099 N 564.806 -5.80495 -0.0242926 0
M  V30 6100 H 567.571 -2.25747 1.97125 0
M  V30 6101 H 565.132 -1.11886 1.17018 0
M  V30 6102 H 567.124 -4.04312 0.177263 0
M  V30 6103 H 565.694 -3.10872 -0.328202 0
M  V30 6104 H 564.914 -3.3042 2.1498 0
M  V30 6105 H 566.202 -4.50166 2.37124 0
M  V30 6106 H 565.6 -5.62454 -0.605184 0
M  V30 6107 H 564.157 -6.51043 -0.313947 0
M  V30 6108 N 567.59 -1.07411 -1.15328 0
M  V30 6109 C 568.83 -0.807011 -1.87794 0
M  V30 6110 C 569.194 0.654987 -1.80482 0
M  V30 6111 O 570.395 1.03716 -2.47985 0
M  V30 6112 C 568.666 -1.30198 -3.32841 0
M  V30 6113 S 570.225 -1.16564 -4.23034 0
M  V30 6114 H 567.043 -0.292429 -0.648079 0
M  V30 6115 H 569.645 -1.37334 -1.39139 0
M  V30 6116 H 568.349 -2.3607 -3.35707 0
M  V30 6117 H 567.88 -0.730881 -3.86551 0
M  V30 6118 H 569.895 -0.103557 -4.96092 0
M  V30 6119 N 569.068 1.32177 -0.85831 0
M  V30 6120 C 570.015 2.28794 -0.303607 0
M  V30 6121 C 570.985 1.55213 0.591453 0
M  V30 6122 O 572.17 1.83418 0.525585 0
M  V30 6123 C 569.31 3.41475 0.49889 0
M  V30 6124 C 568.423 4.2993 -0.422373 0
M  V30 6125 C 567.558 5.29743 0.393111 0
M  V30 6126 C 566.597 6.09842 -0.525317 0
M  V30 6127 N 565.734 7.01643 0.253208 0
M  V30 6128 H 570.574 2.75631 -1.13276 0
M  V30 6129 H 568.111 1.35606 -0.570026 0
M  V30 6130 H 570.069 4.05531 0.979826 0
M  V30 6131 H 568.699 2.95779 1.29284 0
M  V30 6132 H 567.751 3.66422 -1.02171 0
M  V30 6133 H 569.063 4.85899 -1.12709 0
M  V30 6134 H 568.217 5.9942 0.937056 0
M  V30 6135 H 566.956 4.744 1.13117 0
M  V30 6136 H 565.961 5.39066 -1.08112 0
M  V30 6137 H 567.186 6.6727 -1.26205 0
M  V30 6138 H 565.132 6.48725 0.974295 0
M  V30 6139 H 565.049 7.54981 -0.392398 0
M  V30 6140 H 566.317 7.756 0.778761 0
M  V30 6141 N 570.547 0.616602 1.45037 0
M  V30 6142 C 571.963 0.280994 1.57107 0
M  V30 6143 C 572.163 -1.21627 1.60653 0
M  V30 6144 O 571.219 -1.9997 1.54169 0
M  V30 6145 C 572.532 0.960116 2.8496 0
M  V30 6146 C 574.08 0.936884 2.98649 0
M  V30 6147 C 574.555 1.59619 4.29285 0
M  V30 6148 N 576.046 1.5621 4.36065 0
M  V30 6149 C 576.781 2.04131 5.35834 0
M  V30 6150 N 576.277 2.60177 6.4209 0
M  V30 6151 N 578.07 1.94845 5.27249 0
M  V30 6152 H 570.221 1.58867 1.40979 0
M  V30 6153 H 572.484 0.666024 0.674623 0
M  V30 6154 H 572.19 2.01473 2.88273 0
M  V30 6155 H 572.064 0.488921 3.74018 0
M  V30 6156 H 574.451 -0.109209 2.94898 0
M  V30 6157 H 574.532 1.44643 2.10979 0
M  V30 6158 H 574.176 2.64166 4.33796 0
M  V30 6159 H 574.106 1.06159 5.15789 0
M  V30 6160 H 576.597 1.15276 3.59889 0
M  V30 6161 H 576.91 2.94513 7.1448 0
M  V30 6162 H 575.255 2.64221 6.42816 0
M  V30 6163 H 578.446 1.50792 4.43147 0
M  V30 6164 H 578.619 2.32504 6.04852 0
M  V30 6165 N 572.025 -1.5352 0.356285 0
M  V30 6166 C 572.973 -2.26945 -0.50978 0
M  V30 6167 C 573.967 -1.29569 -1.09125 0
M  V30 6168 O 575.173 -1.47231 -1.03552 0
M  V30 6169 H 571.548 -0.729368 -0.183102 0
M  V30 6170 H 573.519 -2.98111 0.131374 0
M  V30 6171 C 572.268 -3.06466 -1.64237 0
M  V30 6172 H 571.591 -3.81233 -1.20423 0
M  V30 6173 H 573.031 -3.61035 -2.22327 0
M  V30 6174 C 571.49 -2.16737 -2.57928 0
M  V30 6175 O 572.02 -1.77195 -3.60507 0
M  V30 6176 N 570.226 -1.81558 -2.26903 0
M  V30 6177 H 569.773 -2.13913 -1.43524 0
M  V30 6178 H 569.731 -1.21806 -2.89846 0
M  V30 6179 N 573.503 -0.0852151 -1.57369 0
M  V30 6180 C 574.413 0.891712 -2.16992 0
M  V30 6181 C 575.429 1.3174 -1.13669 0
M  V30 6182 O 576.605 1.38735 -1.45995 0
M  V30 6183 C 573.67 2.13635 -2.73059 0
M  V30 6184 C 572.731 1.7658 -3.91303 0
M  V30 6185 C 571.964 2.95111 -4.44686 0
M  V30 6186 O 572.187 4.09539 -3.97032 0
M  V30 6187 O 571.121 2.74149 -5.35841 0
M  V30 6188 H 574.947 0.414477 -3.00858 0
M  V30 6189 H 572.532 0.138598 -1.48756 0
M  V30 6190 H 574.414 2.86595 -3.08935 0
M  V30 6191 H 573.089 2.6043 -1.92244 0
M  V30 6192 H 571.996 1.00831 -3.60255 0
M  V30 6193 H 573.329 1.34557 -4.7345 0
M  V30 6194 N 574.981 1.5647 0.188427 0
M  V30 6195 C 575.911 1.98101 1.23606 0
M  V30 6196 C 576.892 0.853961 1.47111 0
M  V30 6197 O 578.077 1.11879 1.58735 0
M  V30 6198 C 575.207 2.32624 2.57882 0
M  V30 6199 C 574.161 3.48129 2.48978 0
M  V30 6200 C 573.487 3.68347 3.87588 0
M  V30 6201 C 574.787 4.82112 2.00911 0
M  V30 6202 H 576.481 2.85864 0.890068 0
M  V30 6203 H 574.027 1.37532 0.426714 0
M  V30 6204 H 575.98 2.60343 3.3136 0
M  V30 6205 H 574.704 1.41751 2.94235 0
M  V30 6206 H 573.363 3.20511 1.77956 0
M  V30 6207 H 573.011 2.74793 4.21305 0
M  V30 6208 H 572.711 4.46055 3.82503 0
M  V30 6209 H 574.235 3.98449 4.62678 0
M  V30 6210 H 575.649 5.08819 2.64151 0
M  V30 6211 H 574.046 5.63337 2.06814 0
M  V30 6212 H 575.116 4.75249 0.96262 0
M  V30 6213 N 576.459 -0.456382 1.50847 0
M  V30 6214 C 577.705 -1.20914 1.62811 0
M  V30 6215 C 578.038 -1.91301 0.334304 0
M  V30 6216 O 577.313 -1.82775 -0.665098 0
M  V30 6217 C 577.596 -2.24122 2.81853 0
M  V30 6218 C 577.449 -1.57944 4.21158 0
M  V30 6219 C 578.768 -3.25295 2.96431 0
M  V30 6220 H 575.887 -0.438233 0.592554 0
M  V30 6221 H 578.529 -0.50091 1.83278 0
M  V30 6222 H 576.679 -2.84524 2.64534 0
M  V30 6223 H 578.351 -1.01025 4.50102 0
M  V30 6224 H 576.594 -0.882185 4.24735 0
M  V30 6225 H 577.265 -2.33014 5.00408 0
M  V30 6226 H 579.741 -2.7493 3.12335 0
M  V30 6227 H 578.617 -3.94822 3.81322 0
M  V30 6228 H 578.878 -3.90286 2.07676 0
M  V30 6229 N 577.937 -1.40673 -0.710563 0
M  V30 6230 C 579.186 -1.38525 -1.46607 0
M  V30 6231 C 579.499 0.0077024 -1.95598 0
M  V30 6232 O 580.705 0.151792 -2.71075 0
M  V30 6233 C 579.161 -2.43489 -2.6503 0
M  V30 6234 C 578.769 -3.88619 -2.22888 0
M  V30 6235 C 580.513 -2.50456 -3.42742 0
M  V30 6236 C 578.42 -4.85168 -3.3818 0
M  V30 6237 H 577.35 -0.515092 -0.550632 0
M  V30 6238 H 580.001 -1.66431 -0.772846 0
M  V30 6239 H 578.383 -2.0869 -3.36548 0
M  V30 6240 H 579.557 -4.32588 -1.58758 0
M  V30 6241 H 577.872 -3.85174 -1.58208 0
M  V30 6242 H 580.469 -3.19776 -4.28541 0
M  V30 6243 H 580.812 -1.53665 -3.86902 0
M  V30 6244 H 581.345 -2.84271 -2.78271 0
M  V30 6245 H 578.084 -5.8331 -2.99047 0
M  V30 6246 H 577.604 -4.4586 -4.01209 0
M  V30 6247 H 579.283 -5.05225 -4.04174 0
M  V30 6248 N 579.415 0.9433 -1.26252 0
M  V30 6249 C 580.831 1.21644 -1.03319 0
M  V30 6250 C 581.031 2.0003 0.242983 0
M  V30 6251 O 580.087 2.33838 0.952688 0
M  V30 6252 C 581.4 1.97978 -2.2633 0
M  V30 6253 C 582.948 2.10978 -2.31209 0
M  V30 6254 C 583.423 2.90713 -3.53907 0
M  V30 6255 N 584.914 2.98287 -3.54371 0
M  V30 6256 C 585.649 3.60406 -4.45976 0
M  V30 6257 N 585.145 4.24043 -5.47868 0
M  V30 6258 N 586.938 3.57658 -4.33633 0
M  V30 6259 H 579.089 0.419221 -2.08222 0
M  V30 6260 H 581.352 0.247995 -0.914988 0
M  V30 6261 H 581.058 1.47788 -3.19142 0
M  V30 6262 H 580.932 2.9865 -2.30408 0
M  V30 6263 H 583.319 2.6036 -1.38913 0
M  V30 6264 H 583.4 1.09575 -2.31143 0
M  V30 6265 H 583.044 2.42018 -4.46531 0
M  V30 6266 H 582.974 3.92367 -3.5122 0
M  V30 6267 H 585.465 2.53044 -2.80673 0
M  V30 6268 H 585.778 4.69334 -6.13959 0
M  V30 6269 H 584.123 4.22637 -5.51728 0
M  V30 6270 H 587.314 3.07134 -3.53251 0
M  V30 6271 H 587.487 4.05782 -5.05218 0
M  V30 6272 N 580.893 1.08022 1.14757 0
M  V30 6273 C 582.139 0.808705 1.85978 0
M  V30 6274 C 582.472 -0.663764 1.82504 0
M  V30 6275 O 581.747 -1.48765 1.25296 0
M  V30 6276 C 582.03 1.32623 3.34788 0
M  V30 6277 C 581.883 2.86375 3.46856 0
M  V30 6278 C 583.202 0.948291 4.29762 0
M  V30 6279 H 580.321 0.295244 0.675278 0
M  V30 6280 H 582.963 1.33917 1.34783 0
M  V30 6281 H 581.113 0.875002 3.78518 0
M  V30 6282 H 582.785 3.39839 3.11941 0
M  V30 6283 H 581.028 3.24232 2.88194 0
M  V30 6284 H 581.699 3.17658 4.51439 0
M  V30 6285 H 584.175 1.33722 3.94028 0
M  V30 6286 H 583.051 1.33765 5.32352 0
M  V30 6287 H 583.312 -0.145094 4.41862 0
M  V30 6288 N 582.371 -1.3172 0.865308 0
M  V30 6289 C 583.303 -2.27545 0.274906 0
M  V30 6290 C 584.316 -1.52887 -0.559413 0
M  V30 6291 O 585.505 -1.74361 -0.382166 0
M  V30 6292 C 582.605 -3.33006 -0.629286 0
M  V30 6293 C 581.778 -4.37063 0.171553 0
M  V30 6294 C 580.837 -5.22044 -0.660052 0
M  V30 6295 O 579.863 -5.69129 -0.0897527 0
M  V30 6296 N 581.065 -5.45946 -1.97289 0
M  V30 6297 H 583.83 -2.78848 1.09836 0
M  V30 6298 H 581.391 -1.44693 0.726331 0
M  V30 6299 H 583.383 -3.86772 -1.19121 0
M  V30 6300 H 581.953 -2.81782 -1.35342 0
M  V30 6301 H 581.173 -3.83436 0.914919 0
M  V30 6302 H 582.461 -5.03662 0.721235 0
M  V30 6303 H 581.859 -5.0944 -2.45942 0
M  V30 6304 H 580.416 -6.02665 -2.4827 0
M  V30 6305 N 583.85 -0.624285 -1.44708 0
M  V30 6306 C 585.26 -0.2092 -1.85524 0
M  V30 6307 C 585.611 1.23783 -1.52225 0
M  V30 6308 O 584.736 1.94089 -0.956986 0
M  V30 6309 C 585.332 -0.372897 -3.36742 0
M  V30 6310 C 583.891 -0.012374 -3.76398 0
M  V30 6311 C 583.038 -0.68951 -2.68591 0
M  V30 6312 H 585.989 -0.829894 -1.35272 0
M  V30 6313 H 586.01 0.390134 -3.78495 0
M  V30 6314 H 585.522 -1.42615 -3.60947 0
M  V30 6315 H 583.623 1.03941 -3.57809 0
M  V30 6316 H 583.736 -0.417663 -4.77276 0
M  V30 6317 H 582.1 -0.125484 -2.54391 0
M  V30 6318 H 582.883 -1.74522 -2.9563 0
M  V30 6319 N 585.328 1.53329 -0.364422 0
M  V30 6320 C 586.276 2.27212 0.497737 0
M  V30 6321 C 587.27 1.30146 1.08437 0
M  V30 6322 O 588.476 1.47778 1.0277 0
M  V30 6323 H 584.851 0.730329 0.179232 0
M  V30 6324 H 586.822 2.98037 -0.147182 0
M  V30 6325 C 585.571 3.07333 1.6261 0
M  V30 6326 H 584.894 3.81866 1.184 0
M  V30 6327 H 586.334 3.62209 2.20409 0
M  V30 6328 C 584.793 2.18102 2.56775 0
M  V30 6329 O 585.323 1.79104 3.59562 0
M  V30 6330 N 583.529 1.82759 2.25937 0
M  V30 6331 H 583.076 2.14671 1.42387 0
M  V30 6332 H 583.034 1.23342 2.89196 0
M  V30 6333 N 586.806 0.0935595 1.57322 0
M  V30 6334 C 587.716 -0.880192 2.17462 0
M  V30 6335 C 588.732 -1.31135 1.14366 0
M  V30 6336 O 589.908 -1.37958 1.46729 0
M  V30 6337 C 586.973 -2.12184 2.74188 0
M  V30 6338 C 586.034 -1.74503 3.92234 0
M  V30 6339 C 585.267 -2.92748 4.46245 0
M  V30 6340 O 585.49 -4.07427 3.99198 0
M  V30 6341 O 584.424 -2.71303 5.37288 0
M  V30 6342 H 588.25 -0.398516 3.01074 0
M  V30 6343 H 585.835 -0.130707 1.48827 0
M  V30 6344 H 587.717 -2.84953 3.10451 0
M  V30 6345 H 586.392 -2.59407 1.93623 0
M  V30 6346 H 585.299 -0.989186 3.60785 0
M  V30 6347 H 586.632 -1.32044 4.74157 0
M  V30 6348 N 588.284 -1.56567 -0.180126 0
M  V30 6349 C 589.247 -1.94852 -1.20686 0
M  V30 6350 C 590.247 -0.831212 -1.3765 0
M  V30 6351 O 591.437 -1.09841 -1.35206 0
M  V30 6352 C 588.569 -2.23565 -2.57355 0
M  V30 6353 H 589.762 -2.86722 -0.879225 0
M  V30 6354 H 587.315 -1.50489 -0.422237 0
M  V30 6355 H 588.05 -1.34381 -2.95148 0
M  V30 6356 H 587.835 -3.04999 -2.46411 0
M  V30 6357 H 589.325 -2.54137 -3.31367 0
M  V30 6358 N 589.762 0.448376 -1.51087 0
M  V30 6359 C 591.008 1.20049 -1.6345 0
M  V30 6360 C 591.341 1.91121 -0.344444 0
M  V30 6361 O 590.616 1.83125 0.655396 0
M  V30 6362 C 590.899 2.22624 -2.83038 0
M  V30 6363 C 590.752 1.55708 -4.21989 0
M  V30 6364 C 592.071 3.23718 -2.98152 0
M  V30 6365 H 589.19 0.435085 -0.59487 0
M  V30 6366 H 591.832 0.491183 -1.83541 0
M  V30 6367 H 589.982 2.83117 -2.66039 0
M  V30 6368 H 591.654 0.986367 -4.50631 0
M  V30 6369 H 589.897 0.859647 -4.25197 0
M  V30 6370 H 590.568 2.30357 -5.01637 0
M  V30 6371 H 593.044 2.73269 -3.13788 0
M  V30 6372 H 591.92 3.92795 -3.83411 0
M  V30 6373 H 592.181 3.89179 -2.09743 0
M  V30 6374 N 591.24 1.41047 0.703093 0
M  V30 6375 C 592.47 1.43133 1.48985 0
M  V30 6376 C 592.878 0.0328537 1.89171 0
M  V30 6377 O 592.221 -0.956469 1.56835 0
M  V30 6378 C 592.283 2.26991 2.78775 0
M  V30 6379 C 591.947 3.7525 2.60837 0
M  V30 6380 C 592.944 4.67591 2.27276 0
M  V30 6381 C 590.629 4.19208 2.76712 0
M  V30 6382 C 592.623 6.01877 2.09817 0
M  V30 6383 C 590.31 5.53561 2.5887 0
M  V30 6384 C 591.308 6.4471 2.25472 0
M  V30 6385 O 590.996 7.76584 2.07778 0
M  V30 6386 H 590.728 0.489788 0.465922 0
M  V30 6387 H 593.282 1.85886 0.873822 0
M  V30 6388 H 591.512 1.79038 3.42757 0
M  V30 6389 H 593.201 2.20867 3.40547 0
M  V30 6390 H 593.967 4.34923 2.14633 0
M  V30 6391 H 589.846 3.48572 3.01693 0
M  V30 6392 H 593.39 6.72986 1.83671 0
M  V30 6393 H 589.287 5.85811 2.71102 0
M  V30 6394 H 590.055 7.87649 2.22601 0
M  V30 6395 N 592.718 -0.936591 1.26751 0
M  V30 6396 C 593.946 -1.71758 1.15355 0
M  V30 6397 C 594.361 -1.86549 -0.290683 0
M  V30 6398 O 593.718 -1.37616 -1.19868 0
M  V30 6399 C 593.769 -3.12193 1.82258 0
M  V30 6400 O 593.49 -2.98105 3.21038 0
M  V30 6401 C 594.991 -4.06485 1.76875 0
M  V30 6402 H 592.211 -0.537636 0.401483 0
M  V30 6403 H 594.755 -1.17382 1.67457 0
M  V30 6404 H 592.91 -3.63456 1.34083 0
M  V30 6405 H 593.324 -3.86824 3.54214 0
M  V30 6406 H 594.798 -5.02569 2.28316 0
M  V30 6407 H 595.275 -4.32986 0.736216 0
M  V30 6408 H 595.881 -3.61144 2.24623 0
M  V30 6409 N 594.196 -1.08629 -1.14182 0
M  V30 6410 C 595.143 -0.718299 -2.19338 0
M  V30 6411 C 596.113 0.296587 -1.63431 0
M  V30 6412 O 597.298 0.180079 -1.89948 0
M  V30 6413 C 594.438 -0.136203 -3.44831 0
M  V30 6414 C 593.551 -1.20414 -4.14879 0
M  V30 6415 C 592.686 -0.585666 -5.27962 0
M  V30 6416 C 591.725 -1.63548 -5.89846 0
M  V30 6417 N 590.862 -1.03864 -6.94375 0
M  V30 6418 H 595.702 -1.61932 -2.50164 0
M  V30 6419 H 593.239 -0.80919 -1.22844 0
M  V30 6420 H 595.197 0.219021 -4.16625 0
M  V30 6421 H 593.827 0.728121 -3.14481 0
M  V30 6422 H 592.879 -1.67676 -3.41451 0
M  V30 6423 H 594.191 -1.99959 -4.56966 0
M  V30 6424 H 593.345 -0.178818 -6.06436 0
M  V30 6425 H 592.084 0.24142 -4.87102 0
M  V30 6426 H 591.089 -2.05197 -5.10073 0
M  V30 6427 H 592.314 -2.46509 -6.3278 0
M  V30 6428 H 590.26 -0.232687 -6.55587 0
M  V30 6429 H 590.177 -1.77116 -7.3496 0
M  V30 6430 H 591.445 -0.657724 -7.7672 0
M  V30 6431 N 595.674 1.31259 -0.872281 0
M  V30 6432 C 596.607 2.26544 -0.274394 0
M  V30 6433 C 597.585 1.51213 0.597776 0
M  V30 6434 O 598.769 1.80277 0.550687 0
M  V30 6435 C 595.896 3.33139 0.611256 0
M  V30 6436 C 594.942 4.26077 -0.189876 0
M  V30 6437 S 595.775 5.11971 -1.56989 0
M  V30 6438 C 596.931 6.2208 -0.690427 0
M  V30 6439 H 597.164 2.76908 -1.0821 0
M  V30 6440 H 594.697 1.3906 -0.670939 0
M  V30 6441 H 596.655 3.95024 1.11654 0
M  V30 6442 H 595.316 2.81525 1.39294 0
M  V30 6443 H 594.509 5.01657 0.485433 0
M  V30 6444 H 594.111 3.68701 -0.627339 0
M  V30 6445 H 596.403 6.77429 0.098001 0
M  V30 6446 H 597.346 6.93768 -1.41742 0
M  V30 6447 H 597.754 5.63915 -0.256953 0
M  V30 6448 N 597.152 0.631951 1.44375 0
M  V30 6449 C 598.085 -0.121822 2.27875 0
M  V30 6450 C 599.063 -0.850457 1.38586 0
M  V30 6451 O 600.247 -0.854378 1.68026 0
M  V30 6452 C 597.374 -1.17859 3.17533 0
M  V30 6453 C 596.42 -0.550391 4.22934 0
M  V30 6454 S 597.253 0.660145 5.31415 0
M  V30 6455 C 598.409 -0.396613 6.24642 0
M  V30 6456 H 598.642 0.586537 2.91457 0
M  V30 6457 H 596.175 0.420146 1.48574 0
M  V30 6458 H 598.133 -1.78335 3.69739 0
M  V30 6459 H 596.794 -1.85915 2.53169 0
M  V30 6460 H 595.987 -1.34631 4.85685 0
M  V30 6461 H 595.589 -0.0202306 3.73995 0
M  V30 6462 H 597.881 -1.26893 6.65511 0
M  V30 6463 H 598.824 0.195345 7.0783 0
M  V30 6464 H 599.232 -0.72288 5.59852 0
M  V30 6465 N 598.631 -1.53133 0.372548 0
M  V30 6466 C 599.859 -2.05774 -0.215515 0
M  V30 6467 C 600.274 -1.24555 -1.41886 0
M  V30 6468 O 599.631 -0.287951 -1.80214 0
M  V30 6469 C 599.682 -3.5645 -0.602161 0
M  V30 6470 O 599.403 -4.34591 0.553359 0
M  V30 6471 C 600.904 -4.25374 -1.24787 0
M  V30 6472 H 598.124 -0.670009 -0.0364529 0
M  V30 6473 H 600.668 -1.97434 0.532934 0
M  V30 6474 H 598.823 -3.64918 -1.30052 0
M  V30 6475 H 599.237 -5.23954 0.239336 0
M  V30 6476 H 600.711 -5.32097 -1.46891 0
M  V30 6477 H 601.188 -3.79531 -2.21026 0
M  V30 6478 H 601.794 -4.21177 -0.590752 0
M  V30 6479 N 600.109 -0.101901 -1.5727 0
M  V30 6480 C 601.056 0.854577 -2.14396 0
M  V30 6481 C 602.026 1.27521 -1.06432 0
M  V30 6482 O 603.211 1.35575 -1.34253 0
M  V30 6483 C 600.351 2.10576 -2.73408 0
M  V30 6484 C 599.464 1.73504 -3.95626 0
M  V30 6485 C 598.599 2.9346 -4.42781 0
M  V30 6486 C 597.638 2.52547 -5.57572 0
M  V30 6487 N 596.775 3.65359 -5.99547 0
M  V30 6488 H 601.615 0.360578 -2.9581 0
M  V30 6489 H 599.152 0.166303 -1.46157 0
M  V30 6490 H 601.11 2.83859 -3.05745 0
M  V30 6491 H 599.74 2.57463 -1.94711 0
M  V30 6492 H 598.792 0.901622 -3.6956 0
M  V30 6493 H 600.104 1.39426 -4.78917 0
M  V30 6494 H 599.258 3.74988 -4.76937 0
M  V30 6495 H 597.997 3.30753 -3.58404 0
M  V30 6496 H 597.002 1.69446 -5.23037 0
M  V30 6497 H 598.227 2.1639 -6.43702 0
M  V30 6498 H 596.173 4.02358 -5.18116 0
M  V30 6499 H 596.09 3.35148 -6.77652 0
M  V30 6500 H 597.358 4.47378 -6.38336 0
M  V30 6501 N 601.587 1.56661 0.17182 0
M  V30 6502 C 602.534 1.96371 1.21273 0
M  V30 6503 C 603.504 0.82756 1.44016 0
M  V30 6504 O 604.689 1.08764 1.56764 0
M  V30 6505 C 601.829 2.32838 2.54716 0
M  V30 6506 C 600.942 3.59628 2.39356 0
M  V30 6507 C 600.077 3.85311 3.65662 0
M  V30 6508 C 599.116 5.0545 3.45234 0
M  V30 6509 N 598.253 5.27268 4.63608 0
M  V30 6510 H 603.093 2.85106 0.86709 0
M  V30 6511 H 600.63 1.41073 0.416744 0
M  V30 6512 H 602.588 2.52004 3.3249 0
M  V30 6513 H 601.218 1.47214 2.87277 0
M  V30 6514 H 600.27 3.4838 1.52761 0
M  V30 6515 H 601.582 4.4756 2.20207 0
M  V30 6516 H 600.736 4.04841 4.51872 0
M  V30 6517 H 599.475 2.95753 3.8779 0
M  V30 6518 H 598.48 4.85819 2.5741 0
M  V30 6519 H 599.705 5.96538 3.24529 0
M  V30 6520 H 597.651 4.40662 4.85956 0
M  V30 6521 H 597.568 6.09422 4.4737 0
M  V30 6522 H 598.836 5.51277 5.51103 0
M  V30 6523 N 603.065 -0.440357 1.51323 0
M  V30 6524 C 604.476 -1.02032 1.56353 0
M  V30 6525 C 604.827 -1.92382 0.385197 0
M  V30 6526 O 603.952 -2.10583 -0.498373 0
M  V30 6527 C 604.547 -1.85723 2.83359 0
M  V30 6528 C 603.106 -2.38774 2.90971 0
M  V30 6529 C 602.253 -1.17908 2.50984 0
M  V30 6530 H 605.204 -0.221744 1.57143 0
M  V30 6531 H 605.225 -2.71141 2.66951 0
M  V30 6532 H 604.737 -1.19939 3.69102 0
M  V30 6533 H 602.838 -3.08021 2.09651 0
M  V30 6534 H 602.951 -2.71778 3.94555 0
M  V30 6535 H 601.315 -1.52347 2.04114 0
M  V30 6536 H 602.098 -0.537393 3.39068 0
M  V30 6537 N 604.543 -1.41418 -0.695603 0
M  V30 6538 C 605.791 -1.40496 -1.45277 0
M  V30 6539 C 606.112 -0.0149538 -1.94994 0
M  V30 6540 O 605.382 0.9432 -1.71699 0
M  V30 6541 H 603.962 -0.517147 -0.539044 0
M  V30 6542 H 606.624 -1.76656 -0.823321 0
M  V30 6543 H 605.72 -2.09214 -2.31595 0
M  V30 6544 N 606.021 0.929856 -1.27246 0
M  V30 6545 C 606.954 2.03069 -1.04106 0
M  V30 6546 C 607.932 1.62556 0.0378417 0
M  V30 6547 O 609.116 1.88197 -0.106869 0
M  V30 6548 C 606.243 3.33718 -0.578778 0
M  V30 6549 C 605.289 3.93209 -1.65193 0
M  V30 6550 S 606.122 4.26068 -3.24386 0
M  V30 6551 C 607.278 5.598 -2.79954 0
M  V30 6552 H 607.511 2.22386 -1.97311 0
M  V30 6553 H 605.044 1.07269 -1.11053 0
M  V30 6554 H 607.002 4.09261 -0.31874 0
M  V30 6555 H 605.663 3.12328 0.333182 0
M  V30 6556 H 604.856 4.87482 -1.27973 0
M  V30 6557 H 604.458 3.24243 -1.86393 0
M  V30 6558 H 606.75 6.39004 -2.25123 0
M  V30 6559 H 607.693 6.01917 -3.72963 0
M  V30 6560 H 608.101 5.20219 -2.19164 0
M  V30 6561 N 607.499 1.09233 1.13605 0
M  V30 6562 C 608.746 0.827159 1.84836 0
M  V30 6563 C 609.074 -0.647199 1.83416 0
M  V30 6564 O 608.329 -1.49228 1.26608 0
M  V30 6565 C 608.628 1.305 3.32723 0
M  V30 6566 C 608.294 2.78864 3.54325 0
M  V30 6567 C 606.956 3.19382 3.59928 0
M  V30 6568 C 609.308 3.74532 3.62457 0
M  V30 6569 C 606.636 4.54346 3.71196 0
M  V30 6570 C 608.988 5.09283 3.75252 0
M  V30 6571 C 607.652 5.49394 3.79108 0
M  V30 6572 H 606.922 0.302679 0.676363 0
M  V30 6573 H 609.569 1.36676 1.34134 0
M  V30 6574 H 607.874 0.68517 3.85762 0
M  V30 6575 H 609.571 1.07648 3.86281 0
M  V30 6576 H 606.161 2.46507 3.50617 0
M  V30 6577 H 610.345 3.44343 3.57409 0
M  V30 6578 H 605.601 4.84864 3.72447 0
M  V30 6579 H 609.775 5.83269 3.80487 0
M  V30 6580 H 607.402 6.5397 3.87591 0
M  V30 6581 N 608.977 -1.30795 0.87923 0
M  V30 6582 C 610.224 -1.96362 0.494786 0
M  V30 6583 C 610.552 -1.69448 -0.954868 0
M  V30 6584 O 609.807 -0.988711 -1.68888 0
M  V30 6585 C 610.106 -3.50287 0.709476 0
M  V30 6586 C 609.772 -3.9724 2.13333 0
M  V30 6587 C 608.434 -4.09772 2.52271 0
M  V30 6588 C 610.786 -4.21807 3.06151 0
M  V30 6589 C 608.114 -4.44227 3.83248 0
M  V30 6590 C 610.466 -4.5773 4.36654 0
M  V30 6591 C 609.13 -4.68469 4.75492 0
M  V30 6592 H 608.4 -0.71854 0.181055 0
M  V30 6593 H 611.047 -1.55764 1.11399 0
M  V30 6594 H 609.352 -3.91799 0.0072 0
M  V30 6595 H 611.049 -3.99082 0.391703 0
M  V30 6596 H 607.639 -3.87988 1.82107 0
M  V30 6597 H 611.823 -4.11611 2.77291 0
M  V30 6598 H 607.079 -4.50741 4.13089 0
M  V30 6599 H 611.253 -4.7569 5.08617 0
M  V30 6600 H 608.88 -4.94923 5.77022 0
M  V30 6601 N 610.455 -0.639598 -1.44038 0
M  V30 6602 C 611.403 0.0723409 -2.32487 0
M  V30 6603 C 612.397 0.827129 -1.47834 0
M  V30 6604 O 613.603 0.73907 -1.64127 0
M  V30 6605 H 609.978 0.0421696 -0.750817 0
M  V30 6606 H 611.949 -0.691593 -2.90275 0
M  V30 6607 C 610.698 1.03452 -3.31953 0
M  V30 6608 H 610.021 0.46315 -3.97108 0
M  V30 6609 H 611.461 1.502 -3.96505 0
M  V30 6610 C 609.92 2.12392 -2.61518 0
M  V30 6611 O 610.45 3.2059 -2.42044 0
M  V30 6612 N 608.656 1.88563 -2.21116 0
M  V30 6613 H 608.203 1.00577 -2.37154 0
M  V30 6614 H 608.161 2.61651 -1.74316 0
M  V30 6615 N 611.933 1.52934 -0.380664 0
M  V30 6616 C 613.344 1.86457 0.0952684 0
M  V30 6617 C 613.695 1.3007 1.46889 0
M  V30 6618 O 612.82 0.628636 2.07068 0
M  V30 6619 C 613.415 3.38323 0.179648 0
M  V30 6620 C 611.974 3.71589 0.599858 0
M  V30 6621 C 611.121 2.76228 -0.243572 0
M  V30 6622 H 614.072 1.46966 -0.59888 0
M  V30 6623 H 614.093 3.67113 1.00042 0
M  V30 6624 H 613.605 3.79333 -0.820228 0
M  V30 6625 H 611.706 3.36144 1.60742 0
M  V30 6626 H 611.819 4.77715 0.364003 0
M  V30 6627 H 610.183 2.53045 0.289855 0
M  V30 6628 H 610.966 3.20074 -1.24127 0
M  V30 6629 N 613.412 0.11024 1.57214 0
M  V30 6630 C 614.322 -0.857077 2.18383 0
M  V30 6631 C 615.338 -1.29915 1.1575 0
M  V30 6632 O 616.514 -1.36394 1.48184 0
M  V30 6633 C 613.579 -2.09264 2.76423 0
M  V30 6634 C 612.64 -1.70333 3.94063 0
M  V30 6635 C 611.873 -2.87999 4.49324 0
M  V30 6636 O 612.096 -4.0317 4.03497 0
M  V30 6637 O 611.03 -2.6559 5.40135 0
M  V30 6638 H 614.856 -0.366561 3.0148 0
M  V30 6639 H 612.441 -0.114914 1.48957 0
M  V30 6640 H 614.323 -2.81644 3.13456 0
M  V30 6641 H 612.998 -2.57339 1.96363 0
M  V30 6642 H 611.905 -0.950864 3.61814 0
M  V30 6643 H 613.238 -1.27007 4.75531 0
M  V30 6644 N 614.89 -1.56749 -0.16351 0
M  V30 6645 C 615.8 -2.00255 -1.2221 0
M  V30 6646 C 616.816 -0.915194 -1.47987 0
M  V30 6647 O 617.992 -1.22342 -1.59982 0
M  V30 6648 C 615.057 -2.36035 -2.53946 0
M  V30 6649 C 614.118 -3.58637 -2.35962 0
M  V30 6650 C 613.351 -3.92701 -3.61416 0
M  V30 6651 O 613.574 -3.27632 -4.66919 0
M  V30 6652 O 612.508 -4.86019 -3.55062 0
M  V30 6653 H 616.334 -2.90586 -0.882794 0
M  V30 6654 H 613.919 -1.44721 -0.370978 0
M  V30 6655 H 615.801 -2.59982 -3.31643 0
M  V30 6656 H 614.476 -1.48863 -2.8744 0
M  V30 6657 H 613.383 -3.39898 -1.5627 0
M  V30 6658 H 614.716 -4.46374 -2.0739 0
M  V30 6659 N 616.368 0.432326 -1.51554 0
M  V30 6660 C 617.593 1.20824 -1.68571 0
M  V30 6661 C 618.018 1.84126 -0.384596 0
M  V30 6662 O 617.376 1.69025 0.655751 0
M  V30 6663 C 617.424 2.26429 -2.80646 0
M  V30 6664 O 616.528 3.32032 -2.44598 0
M  V30 6665 H 615.869 0.353765 -0.561913 0
M  V30 6666 H 618.399 0.509916 -1.98144 0
M  V30 6667 H 618.409 2.71133 -3.04878 0
M  V30 6668 H 617.084 1.79733 -3.75058 0
M  V30 6669 H 615.661 2.92769 -2.30956 0
M  V30 6670 N 617.846 1.41785 0.688094 0
M  V30 6671 C 618.756 1.46596 1.83158 0
M  V30 6672 C 619.772 0.355862 1.70322 0
M  V30 6673 O 620.948 0.604737 1.92106 0
M  V30 6674 C 618.013 1.35322 3.192 0
M  V30 6675 C 617.074 2.56711 3.4409 0
M  V30 6676 C 616.307 2.45965 4.73642 0
M  V30 6677 O 616.53 1.48827 5.50642 0
M  V30 6678 O 615.464 3.35859 4.99482 0
M  V30 6679 H 619.29 2.43083 1.82056 0
M  V30 6680 H 616.875 1.23404 0.842126 0
M  V30 6681 H 618.757 1.31347 4.00407 0
M  V30 6682 H 617.432 0.419536 3.2097 0
M  V30 6683 H 616.339 2.66262 2.62784 0
M  V30 6684 H 617.672 3.48933 3.47141 0
M  V30 6685 N 619.324 -0.923095 1.27737 0
M  V30 6686 C 620.254 -2.04124 1.13383 0
M  V30 6687 C 621.235 -1.70066 0.0340658 0
M  V30 6688 O 622.42 -1.93068 0.209383 0
M  V30 6689 C 619.55 -3.3831 0.785097 0
M  V30 6690 C 618.504 -3.86496 1.8386 0
M  V30 6691 C 617.83 -5.1754 1.34373 0
M  V30 6692 C 619.13 -4.09381 3.24353 0
M  V30 6693 H 620.824 -2.1639 2.06919 0
M  V30 6694 H 618.37 -1.03976 0.996243 0
M  V30 6695 H 620.323 -4.16016 0.671485 0
M  V30 6696 H 619.047 -3.2607 -0.185969 0
M  V30 6697 H 617.706 -3.10987 1.9412 0
M  V30 6698 H 617.354 -5.01696 0.361989 0
M  V30 6699 H 617.054 -5.50751 2.04811 0
M  V30 6700 H 618.578 -5.97811 1.24315 0
M  V30 6701 H 619.992 -4.77641 3.17067 0
M  V30 6702 H 618.389 -4.53906 3.92542 0
M  V30 6703 H 619.459 -3.14515 3.69064 0
M  V30 6704 N 620.802 -1.09834 -1.13024 0
M  V30 6705 C 622.079 -0.749225 -1.80682 0
M  V30 6706 C 622.459 0.765171 -1.96744 0
M  V30 6707 O 621.807 1.68912 -1.53886 0
M  V30 6708 C 622.017 -1.49311 -3.15448 0
M  V30 6709 C 623.365 -1.66162 -3.90737 0
M  V30 6710 O 624.389 -1.45597 -3.25085 0
M  V30 6711 O 623.248 -2.00211 -5.08505 0
M  V30 6712 H 620.342 -0.269614 -0.781817 0
M  V30 6713 H 622.888 -1.20078 -1.19914 0
M  V30 6714 H 621.66 -2.52407 -2.99009 0
M  V30 6715 H 621.283 -1.034 -3.8392 0
M  V30 6716 N 622.28 1.30327 -0.886154 0
M  V30 6717 C 623.21 2.30549 -0.370028 0
M  V30 6718 C 624.191 1.61039 0.547751 0
M  V30 6719 O 625.376 1.8864 0.461353 0
M  V30 6720 C 622.506 3.44808 0.415275 0
M  V30 6721 C 621.46 4.26024 -0.41085 0
M  V30 6722 C 620.786 5.32347 0.501128 0
M  V30 6723 C 622.086 4.95433 -1.65359 0
M  V30 6724 H 623.78 2.73969 -1.20754 0
M  V30 6725 H 621.326 1.3171 -0.582097 0
M  V30 6726 H 623.279 4.13986 0.78699 0
M  V30 6727 H 622.003 3.00197 1.28644 0
M  V30 6728 H 620.662 3.58535 -0.764719 0
M  V30 6729 H 620.31 4.83982 1.37004 0
M  V30 6730 H 620.01 5.87581 -0.0478356 0
M  V30 6731 H 621.534 6.0438 0.869333 0
M  V30 6732 H 622.948 5.5712 -1.35239 0
M  V30 6733 H 621.345 5.60537 -2.14284 0
M  V30 6734 H 622.415 4.21493 -2.39733 0
M  V30 6735 N 623.758 0.647228 1.43697 0
M  V30 6736 C 624.986 0.16575 2.06235 0
M  V30 6737 C 625.401 -1.1662 1.48476 0
M  V30 6738 O 624.758 -1.7187 0.613762 0
M  V30 6739 C 624.809 0.0621651 3.61447 0
M  V30 6740 O 624.53 1.34146 4.17057 0
M  V30 6741 C 626.031 -0.446102 4.4105 0
M  V30 6742 H 623.251 0.0871158 0.665321 0
M  V30 6743 H 625.795 0.886183 1.84301 0
M  V30 6744 H 623.95 -0.608794 3.82587 0
M  V30 6745 H 624.364 1.19675 5.10664 0
M  V30 6746 H 625.838 -0.46755 5.50016 0
M  V30 6747 H 626.315 -1.47627 4.13646 0
M  V30 6748 H 626.921 0.192159 4.24866 0
M  V30 6749 N 625.236 -1.5273 0.388769 0
M  V30 6750 C 626.466 -2.05693 -0.193397 0
M  V30 6751 C 626.874 -1.26038 -1.41107 0
M  V30 6752 O 626.217 -0.30001 -1.81234 0
M  V30 6753 C 626.279 -3.53962 -0.628561 0
M  V30 6754 C 625.943 -4.54519 0.475576 0
M  V30 6755 C 626.94 -5.02526 1.33281 0
M  V30 6756 C 624.625 -4.98174 0.642453 0
M  V30 6757 C 626.619 -5.92812 2.34205 0
M  V30 6758 C 624.306 -5.88262 1.65503 0
M  V30 6759 C 625.304 -6.35473 2.50325 0
M  V30 6760 O 624.992 -7.23781 3.49852 0
M  V30 6761 H 624.724 -0.675197 -0.0329395 0
M  V30 6762 H 627.278 -1.97835 0.552326 0
M  V30 6763 H 625.508 -3.59437 -1.42625 0
M  V30 6764 H 627.197 -3.89669 -1.13633 0
M  V30 6765 H 627.963 -4.6953 1.21519 0
M  V30 6766 H 623.842 -4.60999 -0.00805093 0
M  V30 6767 H 627.386 -6.29585 3.00447 0
M  V30 6768 H 623.283 -6.20672 1.77304 0
M  V30 6769 H 624.051 -7.4184 3.45855 0
M  V30 6770 N 626.714 -0.118576 -1.57153 0
M  V30 6771 C 627.962 0.538461 -1.94795 0
M  V30 6772 C 628.283 1.67243 -1.00274 0
M  V30 6773 O 627.553 1.95811 -0.0589692 0
M  V30 6774 H 626.133 0.201904 -0.719197 0
M  V30 6775 H 628.795 -0.187418 -1.93997 0
M  V30 6776 H 627.891 0.933315 -2.97818 0
M  V30 6777 N 628.193 1.56834 0.155195 0
M  V30 6778 C 629.141 1.98584 1.21107 0
M  V30 6779 C 630.135 0.876987 1.44932 0
M  V30 6780 O 631.341 1.06215 1.45322 0
M  V30 6781 H 627.716 0.632039 0.407469 0
M  V30 6782 H 629.687 2.86561 0.832195 0
M  V30 6783 C 628.436 2.37555 2.53895 0
M  V30 6784 H 627.759 3.22428 2.3639 0
M  V30 6785 H 629.199 2.70598 3.26424 0
M  V30 6786 C 627.658 1.22507 3.13837 0
M  V30 6787 O 628.188 0.521388 3.98302 0
M  V30 6788 N 626.394 0.991444 2.73164 0
M  V30 6789 H 625.941 1.56544 2.04577 0
M  V30 6790 H 625.899 0.223546 3.13604 0
M  V30 6791 N 629.671 -0.424282 1.51781 0
M  V30 6792 C 631.087 -0.761768 1.40247 0
M  V30 6793 C 631.287 -1.95324 0.495041 0
M  V30 6794 O 630.343 -2.5246 -0.0448949 0
M  V30 6795 C 631.656 -1.0299 2.82513 0
M  V30 6796 C 633.204 -1.13354 2.91753 0
M  V30 6797 C 633.679 -1.43453 4.34954 0
M  V30 6798 N 635.17 -1.5035 4.3812 0
M  V30 6799 C 635.905 -1.75236 5.45967 0
M  V30 6800 N 635.401 -1.97827 6.63955 0
M  V30 6801 N 637.194 -1.77126 5.33463 0
M  V30 6802 H 629.345 0.360228 2.09323 0
M  V30 6803 H 631.608 0.0988128 0.942836 0
M  V30 6804 H 631.314 -0.226961 3.50967 0
M  V30 6805 H 631.188 -1.95411 3.22637 0
M  V30 6806 H 633.575 -1.92709 2.23489 0
M  V30 6807 H 633.656 -0.188041 2.55108 0
M  V30 6808 H 633.3 -0.646209 5.03772 0
M  V30 6809 H 633.23 -2.3923 4.69123 0
M  V30 6810 H 635.721 -1.34742 3.53062 0
M  V30 6811 H 636.034 -2.16223 7.41935 0
M  V30 6812 H 634.379 -1.95123 6.67047 0
M  V30 6813 H 637.57 -1.59005 4.40267 0
M  V30 6814 H 637.743 -1.96182 6.17589 0
M  V30 6815 N 631.149 -1.42148 -0.680565 0
M  V30 6816 C 632.379 -1.45485 -1.46689 0
M  V30 6817 C 632.787 -0.0629451 -1.89095 0
M  V30 6818 O 632.13 0.931397 -1.58337 0
M  V30 6819 C 632.192 -2.31397 -2.75129 0
M  V30 6820 C 631.856 -3.79353 -2.54834 0
M  V30 6821 C 632.853 -4.71148 -2.19808 0
M  V30 6822 C 630.538 -4.23557 -2.70008 0
M  V30 6823 C 632.532 -6.05139 -2.00215 0
M  V30 6824 C 630.219 -5.57609 -2.50031 0
M  V30 6825 C 631.217 -6.48216 -2.15187 0
M  V30 6826 O 630.905 -7.79792 -1.95397 0
M  V30 6827 H 630.637 -0.497139 -0.458071 0
M  V30 6828 H 633.191 -1.87252 -0.844139 0
M  V30 6829 H 631.421 -1.84468 -3.39865 0
M  V30 6830 H 633.11 -2.26257 -3.36991 0
M  V30 6831 H 633.876 -4.38282 -2.07686 0
M  V30 6832 H 629.755 -3.53327 -2.96109 0
M  V30 6833 H 633.299 -6.75823 -1.72941 0
M  V30 6834 H 629.196 -5.9005 -2.61748 0
M  V30 6835 H 629.964 -7.91091 -2.10042 0
M  V30 6836 N 632.627 0.916307 -1.28225 0
M  V30 6837 C 633.574 2.01841 -1.11932 0
M  V30 6838 C 634.544 1.66091 -0.0171604 0
M  V30 6839 O 635.729 1.89934 -0.181617 0
M  V30 6840 C 632.869 3.36065 -0.784504 0
M  V30 6841 C 631.982 3.847 -1.96544 0
M  V30 6842 C 631.117 5.07423 -1.57149 0
M  V30 6843 C 630.156 5.48384 -2.71922 0
M  V30 6844 N 629.293 6.62298 -2.33037 0
M  V30 6845 H 634.133 2.1511 -2.06232 0
M  V30 6846 H 631.67 1.05366 -1.02647 0
M  V30 6847 H 633.628 4.13272 -0.571148 0
M  V30 6848 H 632.258 3.22571 0.121565 0
M  V30 6849 H 631.31 3.03673 -2.291 0
M  V30 6850 H 632.622 4.1102 -2.82603 0
M  V30 6851 H 631.776 5.92165 -1.32004 0
M  V30 6852 H 630.515 4.82906 -0.682153 0
M  V30 6853 H 629.52 4.62184 -2.97768 0
M  V30 6854 H 630.745 5.7489 -3.61494 0
M  V30 6855 H 628.691 6.39416 -1.4657 0
M  V30 6856 H 628.608 6.8833 -3.12631 0
M  V30 6857 H 629.876 7.50352 -2.11169 0
M  V30 6858 N 634.105 1.10431 1.1244 0
M  V30 6859 C 635.053 0.747974 2.20246 0
M  V30 6860 C 636.047 -0.255848 1.67457 0
M  V30 6861 O 637.253 -0.116221 1.79624 0
M  V30 6862 H 633.628 0.223946 0.71788 0
M  V30 6863 H 635.599 1.6661 2.47556 0
M  V30 6864 C 634.348 0.195957 3.47147 0
M  V30 6865 H 633.671 0.959606 3.88113 0
M  V30 6866 H 635.111 -0.0153154 4.23997 0
M  V30 6867 C 633.57 -1.07132 3.19413 0
M  V30 6868 O 634.1 -2.15284 3.3914 0
M  V30 6869 N 632.306 -0.98994 2.73219 0
M  V30 6870 H 631.853 -0.109736 2.57366 0
M  V30 6871 H 631.811 -1.83856 2.55038 0
M  V30 6872 N 635.583 -1.29855 0.893053 0
M  V30 6873 C 636.829 -1.96116 0.516349 0
M  V30 6874 C 637.162 -1.70281 -0.933695 0
M  V30 6875 O 636.437 -1.01205 -1.66096 0
M  V30 6876 C 636.72 -3.51068 0.801455 0
M  V30 6877 C 636.573 -3.86387 2.30272 0
M  V30 6878 C 637.892 -4.39186 0.283423 0
M  V30 6879 H 635.011 -0.712335 0.189072 0
M  V30 6880 H 637.653 -1.53587 1.11852 0
M  V30 6881 H 635.803 -3.87424 0.288949 0
M  V30 6882 H 637.475 -3.60012 2.88425 0
M  V30 6883 H 635.718 -3.34167 2.76613 0
M  V30 6884 H 636.389 -4.94512 2.45279 0
M  V30 6885 H 638.865 -4.09785 0.722187 0
M  V30 6886 H 637.741 -5.46505 0.512169 0
M  V30 6887 H 638.002 -4.34511 -0.815643 0
M  V30 6888 N 637.061 -0.65484 -1.43351 0
M  V30 6889 C 638.008 0.0357713 -2.30772 0
M  V30 6890 C 638.978 0.813035 -1.44841 0
M  V30 6891 O 640.163 0.789314 -1.73708 0
M  V30 6892 C 637.303 0.995084 -3.30442 0
M  V30 6893 C 636.416 0.21375 -4.31471 0
M  V30 6894 C 635.551 1.16701 -5.18222 0
M  V30 6895 C 634.59 0.376201 -6.10943 0
M  V30 6896 N 633.727 1.28113 -6.90313 0
M  V30 6897 H 638.567 -0.71559 -2.89281 0
M  V30 6898 H 636.104 -0.364645 -1.42509 0
M  V30 6899 H 638.062 1.5649 -3.86739 0
M  V30 6900 H 636.692 1.7133 -2.7358 0
M  V30 6901 H 635.744 -0.472377 -3.77456 0
M  V30 6902 H 637.056 -0.401103 -4.97185 0
M  V30 6903 H 636.21 1.8074 -5.79153 0
M  V30 6904 H 634.949 1.81577 -4.52638 0
M  V30 6905 H 633.954 -0.277534 -5.49099 0
M  V30 6906 H 635.179 -0.268178 -6.7857 0
M  V30 6907 H 633.125 1.91666 -6.27376 0
M  V30 6908 H 633.042 0.720879 -7.52555 0
M  V30 6909 H 634.31 1.90962 -7.55747 0
M  V30 6910 N 638.539 1.52521 -0.396863 0
M  V30 6911 C 639.469 2.29582 0.425941 0
M  V30 6912 C 640.45 1.33281 1.05689 0
M  V30 6913 O 641.635 1.62181 1.06823 0
M  V30 6914 C 638.765 3.10821 1.54943 0
M  V30 6915 C 637.719 4.15069 1.04413 0
M  V30 6916 C 637.045 4.84578 2.26028 0
M  V30 6917 C 638.345 5.22191 0.106767 0
M  V30 6918 H 640.039 2.98612 -0.217045 0
M  V30 6919 H 637.585 1.43611 -0.105826 0
M  V30 6920 H 639.538 3.63492 2.13193 0
M  V30 6921 H 638.262 2.39538 2.22011 0
M  V30 6922 H 636.921 3.63389 0.484118 0
M  V30 6923 H 636.569 4.09835 2.91623 0
M  V30 6924 H 636.269 5.55043 1.92876 0
M  V30 6925 H 637.793 5.40056 2.84906 0
M  V30 6926 H 639.207 5.70176 0.597685 0
M  V30 6927 H 637.604 5.99947 -0.135352 0
M  V30 6928 H 638.674 4.77531 -0.842134 0
M  V30 6929 N 640.017 0.126909 1.57088 0
M  V30 6930 C 641.428 -0.397201 1.82426 0
M  V30 6931 C 641.779 -1.66084 1.04453 0
M  V30 6932 O 640.904 -2.14534 0.283552 0
M  V30 6933 C 641.499 -0.727411 3.30899 0
M  V30 6934 C 640.058 -1.19612 3.56889 0
M  V30 6935 C 639.205 -0.20885 2.76512 0
M  V30 6936 H 642.156 0.351924 1.54749 0
M  V30 6937 H 642.177 -1.58407 3.45959 0
M  V30 6938 H 641.689 0.19247 3.87622 0
M  V30 6939 H 639.79 -2.13263 3.05532 0
M  V30 6940 H 639.903 -1.13598 4.65438 0
M  V30 6941 H 638.267 -0.697479 2.44964 0
M  V30 6942 H 639.05 0.704267 3.35998 0
M  V30 6943 N 641.495 -1.56914 -0.146875 0
M  V30 6944 C 642.772 -1.74273 -0.888165 0
M  V30 6945 C 643.152 -0.69496 -1.99333 0
M  V30 6946 O 642.5 0.286093 -2.26702 0
M  V30 6947 C 642.71 -3.18336 -1.43051 0
M  V30 6948 C 644.058 -3.80024 -1.89387 0
M  V30 6949 O 645.082 -3.21765 -1.52792 0
M  V30 6950 O 643.941 -4.82367 -2.56874 0
M  V30 6951 H 641.035 -0.712565 -0.419738 0
M  V30 6952 H 643.581 -1.6918 -0.132791 0
M  V30 6953 H 642.353 -3.86092 -0.636274 0
M  V30 6954 H 641.976 -3.27854 -2.24938 0
M  V30 6955 N 642.974 0.416227 -1.52004 0
M  V30 6956 C 643.937 1.48926 -1.74223 0
M  V30 6957 C 644.937 1.48693 -0.612119 0
M  V30 6958 O 646.127 1.50343 -0.879921 0
M  V30 6959 C 643.259 2.88372 -1.81809 0
M  V30 6960 H 644.452 1.3052 -2.70008 0
M  V30 6961 H 642.005 0.646271 -1.42313 0
M  V30 6962 H 642.74 3.12157 -0.879135 0
M  V30 6963 H 642.525 2.89944 -2.6396 0
M  V30 6964 H 644.015 3.66173 -2.00766 0
M  V30 6965 N 644.452 1.42507 0.673017 0
M  V30 6966 C 645.682 1.46261 1.45916 0
M  V30 6967 C 646.09 0.0729724 1.89059 0
M  V30 6968 O 645.433 -0.922987 1.58829 0
M  V30 6969 C 645.495 2.32853 2.73898 0
M  V30 6970 C 645.159 3.80699 2.52819 0
M  V30 6971 C 646.156 4.72307 2.17306 0
M  V30 6972 C 643.841 4.24983 2.67758 0
M  V30 6973 C 645.835 6.06192 1.97003 0
M  V30 6974 C 643.522 5.58927 2.4707 0
M  V30 6975 C 644.52 6.49348 2.11746 0
M  V30 6976 O 644.208 7.80817 1.91259 0
M  V30 6977 H 643.94 0.499561 0.455428 0
M  V30 6978 H 646.494 1.87697 0.834196 0
M  V30 6979 H 644.724 1.86268 3.38882 0
M  V30 6980 H 646.413 2.28041 3.35786 0
M  V30 6981 H 647.179 4.39378 2.05359 0
M  V30 6982 H 643.058 3.54893 2.94231 0
M  V30 6983 H 646.602 6.76731 1.69355 0
M  V30 6984 H 642.499 5.91429 2.58615 0
M  V30 6985 H 643.267 7.92194 2.05843 0
M  V30 6986 N 645.93 -0.909495 1.28709 0
M  V30 6987 C 646.84 -2.04558 1.14861 0
M  V30 6988 C 647.856 -1.73842 0.0741621 0
M  V30 6989 O 649.032 -1.99383 0.2843 0
M  V30 6990 C 646.097 -3.36957 0.816148 0
M  V30 6991 C 645.158 -3.81255 1.97341 0
M  V30 6992 C 644.391 -5.07335 1.65671 0
M  V30 6993 O 644.614 -5.67514 0.573053 0
M  V30 6994 O 643.548 -5.47449 2.50167 0
M  V30 6995 H 647.374 -2.19161 2.10243 0
M  V30 6996 H 644.959 -1.03159 1.08068 0
M  V30 6997 H 646.841 -4.16436 0.644873 0
M  V30 6998 H 645.516 -3.2352 -0.107983 0
M  V30 6999 H 644.423 -3.02584 2.19986 0
M  V30 7000 H 645.756 -3.99261 2.87839 0
M  V30 7001 N 647.408 -1.11026 -1.11852 0
M  V30 7002 C 648.824 -0.843294 -1.35502 0
M  V30 7003 C 649.024 0.534179 -1.9429 0
M  V30 7004 O 648.08 1.28585 -2.17307 0
M  V30 7005 C 649.393 -1.94793 -2.29077 0
M  V30 7006 C 650.941 -1.97709 -2.42652 0
M  V30 7007 C 651.416 -3.07364 -3.39546 0
M  V30 7008 N 652.907 -3.0671 -3.47107 0
M  V30 7009 C 653.642 -3.88197 -4.22008 0
M  V30 7010 N 653.138 -4.79635 -4.99922 0
M  V30 7011 N 654.931 -3.76391 -4.17476 0
M  V30 7012 H 647.082 -1.99805 -0.720538 0
M  V30 7013 H 649.345 -0.868633 -0.379711 0
M  V30 7014 H 649.051 -2.93971 -1.93065 0
M  V30 7015 H 648.925 -1.84039 -3.29256 0
M  V30 7016 H 651.312 -0.991604 -2.77941 0
M  V30 7017 H 651.393 -2.1254 -1.4234 0
M  V30 7018 H 651.037 -4.06136 -3.04985 0
M  V30 7019 H 650.967 -2.89774 -4.39703 0
M  V30 7020 H 653.458 -2.40457 -2.91528 0
M  V30 7021 H 653.771 -5.38357 -5.54429 0
M  V30 7022 H 652.116 -4.8366 -4.99097 0
M  V30 7023 H 655.307 -3.04303 -3.55693 0
M  V30 7024 H 655.48 -4.40131 -4.75593 0
M  V30 7025 N 648.886 1.2938 -0.899927 0
M  V30 7026 C 649.816 2.30144 -0.39446 0
M  V30 7027 C 650.797 1.61611 0.530639 0
M  V30 7028 O 651.982 1.89119 0.441319 0
M  V30 7029 C 649.112 3.45229 0.37868 0
M  V30 7030 C 648.066 4.25564 -0.456012 0
M  V30 7031 C 647.392 5.32848 0.444637 0
M  V30 7032 C 648.692 4.93651 -1.70605 0
M  V30 7033 H 650.386 2.72673 -1.23653 0
M  V30 7034 H 647.932 1.31086 -0.596034 0
M  V30 7035 H 649.885 4.14797 0.743037 0
M  V30 7036 H 648.609 3.01545 1.25453 0
M  V30 7037 H 647.268 3.57704 -0.802704 0
M  V30 7038 H 646.916 4.85408 1.31863 0
M  V30 7039 H 646.616 5.87497 -0.110154 0
M  V30 7040 H 648.14 6.05268 0.805182 0
M  V30 7041 H 649.554 5.55655 -1.41141 0
M  V30 7042 H 647.951 5.58233 -2.20217 0
M  V30 7043 H 649.021 4.18926 -2.4419 0
M  V30 7044 N 650.364 0.662433 1.43002 0
M  V30 7045 C 651.613 0.176873 2.00923 0
M  V30 7046 C 651.926 -1.21954 1.52927 0
M  V30 7047 O 653.132 -1.80081 2.03182 0
M  V30 7048 C 651.588 0.265379 3.5892 0
M  V30 7049 C 651.196 1.66507 4.15908 0
M  V30 7050 C 652.94 -0.162103 4.2419 0
M  V30 7051 C 650.847 1.707 5.66229 0
M  V30 7052 H 649.777 0.0623627 0.751417 0
M  V30 7053 H 652.428 0.825813 1.63868 0
M  V30 7054 H 650.81 -0.451235 3.93421 0
M  V30 7055 H 651.984 2.40777 3.92891 0
M  V30 7056 H 650.299 2.03932 3.63044 0
M  V30 7057 H 652.896 -0.150745 5.34487 0
M  V30 7058 H 653.239 -1.19519 3.98774 0
M  V30 7059 H 653.772 0.503075 3.94606 0
M  V30 7060 H 650.511 2.7195 5.96426 0
M  V30 7061 H 650.031 1.00768 5.91275 0
M  V30 7062 H 651.71 1.45487 6.3043 0
M  V30 7063 N 651.842 -1.52309 0.404946 0
M  V30 7064 C 652.772 -2.29805 -0.41376 0
M  V30 7065 C 653.753 -1.3384 -1.0498 0
M  V30 7066 O 654.938 -1.62745 -1.05961 0
M  V30 7067 C 652.068 -3.11639 -1.53292 0
M  V30 7068 C 651.022 -4.15616 -1.02211 0
M  V30 7069 C 650.348 -4.8577 -2.23455 0
M  V30 7070 C 651.648 -5.2224 -0.0790725 0
M  V30 7071 H 653.342 -2.98493 0.232878 0
M  V30 7072 H 650.888 -1.43552 0.113441 0
M  V30 7073 H 652.841 -3.64618 -2.11262 0
M  V30 7074 H 651.565 -2.40712 -2.20738 0
M  V30 7075 H 650.224 -3.63641 -0.46484 0
M  V30 7076 H 649.872 -4.11376 -2.89445 0
M  V30 7077 H 649.572 -5.56058 -1.89929 0
M  V30 7078 H 651.096 -5.4156 -2.82038 0
M  V30 7079 H 652.51 -5.70485 -0.567438 0
M  V30 7080 H 650.907 -5.99867 0.167167 0
M  V30 7081 H 651.977 -4.77078 0.867447 0
M  V30 7082 N 653.32 -0.135238 -1.57019 0
M  V30 7083 C 654.597 0.563227 -1.87316 0
M  V30 7084 C 654.977 1.83749 -1.03921 0
M  V30 7085 O 654.325 2.2817 -0.122675 0
M  V30 7086 C 654.535 0.840031 -3.3874 0
M  V30 7087 C 655.883 1.18598 -4.077 0
M  V30 7088 O 656.907 0.92977 -3.43851 0
M  V30 7089 O 655.766 1.66758 -5.20436 0
M  V30 7090 H 652.86 0.285971 -0.775983 0
M  V30 7091 H 655.406 -0.170965 -1.68837 0
M  V30 7092 H 654.178 -0.0622785 -3.9125 0
M  V30 7093 H 653.801 1.62882 -3.62706 0
M  V30 7094 N 654.798 1.5699 0.138552 0
M  V30 7095 C 656.044 1.84081 0.85099 0
M  V30 7096 C 656.377 0.718107 1.80435 0
M  V30 7097 O 655.652 -0.277633 1.92508 0
M  V30 7098 C 655.935 3.21699 1.61808 0
M  V30 7099 C 655.788 4.44544 0.685633 0
M  V30 7100 C 657.107 3.5664 2.57868 0
M  V30 7101 H 654.226 0.669592 0.307922 0
M  V30 7102 H 656.868 1.89646 0.11588 0
M  V30 7103 H 655.018 3.17086 2.24474 0
M  V30 7104 H 656.69 4.61248 0.0693179 0
M  V30 7105 H 654.933 4.338 -0.00421993 0
M  V30 7106 H 655.604 5.3746 1.25858 0
M  V30 7107 H 658.08 3.61918 2.05316 0
M  V30 7108 H 656.956 4.53946 3.08584 0
M  V30 7109 H 657.217 2.83036 3.39622 0
M  V30 7110 N 656.276 -0.40816 1.52223 0
M  V30 7111 C 657.523 -1.15502 1.66329 0
M  V30 7112 C 657.851 -1.90474 0.393701 0
M  V30 7113 O 657.106 -1.85507 -0.623356 0
M  V30 7114 C 657.405 -2.17422 2.83659 0
M  V30 7115 C 657.071 -1.5925 4.21841 0
M  V30 7116 C 655.733 -1.4311 4.59427 0
M  V30 7117 C 658.085 -1.16776 5.0795 0
M  V30 7118 C 655.413 -0.830148 5.80797 0
M  V30 7119 C 657.765 -0.580988 6.29926 0
M  V30 7120 C 656.429 -0.406729 6.6626 0
M  V30 7121 H 655.699 -0.422653 0.608642 0
M  V30 7122 H 658.346 -0.442114 1.86327 0
M  V30 7123 H 656.651 -2.94861 2.58001 0
M  V30 7124 H 658.348 -2.75084 2.9177 0
M  V30 7125 H 654.938 -1.72796 3.92224 0
M  V30 7126 H 659.122 -1.28055 4.79495 0
M  V30 7127 H 654.378 -0.68316 6.07571 0
M  V30 7128 H 658.552 -0.243488 6.95974 0
M  V30 7129 H 656.179 0.0610366 7.60175 0
M  V30 7130 N 657.755 -1.42862 -0.66545 0
M  V30 7131 C 658.995 -1.45323 -1.43738 0
M  V30 7132 C 659.359 -0.0707969 -1.91869 0
M  V30 7133 O 660.56 0.0298852 -2.68783 0
M  V30 7134 C 658.831 -2.45671 -2.59577 0
M  V30 7135 S 660.39 -2.6691 -3.48288 0
M  V30 7136 H 657.208 -0.51442 -0.490809 0
M  V30 7137 H 659.81 -1.79537 -0.773745 0
M  V30 7138 H 658.514 -3.44869 -2.22471 0
M  V30 7139 H 658.045 -2.12914 -3.30804 0
M  V30 7140 H 660.06 -1.95914 -4.55886 0
M  V30 7141 N 659.233 0.902656 -1.29189 0
M  V30 7142 C 660.481 1.6496 -1.16758 0
M  V30 7143 C 660.802 1.92952 0.28188 0
M  V30 7144 O 660.072 1.55351 1.19344 0
M  V30 7145 H 658.652 0.611447 -0.429118 0
M  V30 7146 H 661.314 1.0825 -1.62074 0
M  V30 7147 H 660.41 2.60728 -1.71544 0
M  V30 7148 N 660.711 1.11618 1.11262 0
M  V30 7149 C 661.936 0.889013 1.8738 0
M  V30 7150 C 662.361 -0.555884 1.79698 0
M  V30 7151 O 661.719 -1.39272 1.16073 0
M  V30 7152 C 661.767 1.35759 3.34069 0
M  V30 7153 O 660.871 0.530499 4.08974 0
M  V30 7154 H 660.212 0.320082 0.581759 0
M  V30 7155 H 662.742 1.48611 1.40627 0
M  V30 7156 H 662.752 1.35291 3.84916 0
M  V30 7157 H 661.427 2.40973 3.38976 0
M  V30 7158 H 660.004 0.601439 3.68018 0
M  V30 7159 N 662.189 -1.289 0.906776 0
M  V30 7160 C 663.121 -2.26556 0.347159 0
M  V30 7161 C 664.134 -1.54589 -0.51049 0
M  V30 7162 O 665.323 -1.75489 -0.326501 0
M  V30 7163 C 662.423 -3.3484 -0.523024 0
M  V30 7164 C 661.596 -4.36296 0.310515 0
M  V30 7165 C 660.655 -5.23879 -0.493634 0
M  V30 7166 O 659.681 -5.69127 0.0913569 0
M  V30 7167 N 660.883 -5.51946 -1.7982 0
M  V30 7168 H 663.648 -2.75212 1.18652 0
M  V30 7169 H 661.209 -1.42309 0.771996 0
M  V30 7170 H 663.201 -3.90366 -1.06756 0
M  V30 7171 H 661.771 -2.85946 -1.26309 0
M  V30 7172 H 660.991 -3.80331 1.03644 0
M  V30 7173 H 662.279 -5.01113 0.881106 0
M  V30 7174 H 661.677 -5.17006 -2.2961 0
M  V30 7175 H 660.234 -6.10258 -2.28971 0
M  V30 7176 N 663.667 -0.670007 -1.42649 0
M  V30 7177 C 664.6 0.0613623 -2.28117 0
M  V30 7178 C 665.578 0.813414 -1.40792 0
M  V30 7179 O 666.762 0.809529 -1.70232 0
M  V30 7180 C 663.889 1.09399 -3.20546 0
M  V30 7181 C 662.935 0.438064 -4.24244 0
M  V30 7182 S 663.768 -0.800808 -5.29478 0
M  V30 7183 C 664.924 0.23086 -6.25474 0
M  V30 7184 H 665.157 -0.663606 -2.89799 0
M  V30 7185 H 662.69 -0.45939 -1.47407 0
M  V30 7186 H 664.648 1.68469 -3.74337 0
M  V30 7187 H 663.309 1.79137 -2.58009 0
M  V30 7188 H 662.502 1.21707 -4.89084 0
M  V30 7189 H 662.104 -0.0789346 -3.73917 0
M  V30 7190 H 664.396 1.09204 -6.68641 0
M  V30 7191 H 665.339 -0.382945 -7.07064 0
M  V30 7192 H 665.747 0.574191 -5.61572 0
M  V30 7193 N 665.145 1.52092 -0.413018 0
M  V30 7194 C 666.095 2.23947 0.427993 0
M  V30 7195 C 667.079 1.25229 1.01027 0
M  V30 7196 O 668.271 1.50448 0.932444 0
M  V30 7197 C 665.4 3.0672 1.542 0
M  V30 7198 C 664.486 4.12851 0.970307 0
M  V30 7199 N 664.877 5.05644 0.125611 0
M  V30 7200 C 663.175 4.28404 1.24042 0
M  V30 7201 C 663.876 5.8138 -0.192876 0
M  V30 7202 N 662.852 5.41996 0.417273 0
M  V30 7203 H 666.654 2.93048 -0.223628 0
M  V30 7204 H 664.168 1.60852 -0.223664 0
M  V30 7205 H 666.165 3.56754 2.15714 0
M  V30 7206 H 664.825 2.39159 2.19621 0
M  V30 7207 H 665.836 5.17348 -0.238995 0
M  V30 7208 H 662.513 3.72071 1.89391 0
M  V30 7209 H 663.903 6.66129 -0.878762 0
M  V30 7210 N 666.623 0.143563 1.56945 0
M  V30 7211 C 667.87 -0.508407 1.96014 0
M  V30 7212 C 668.198 -1.65099 1.02824 0
M  V30 7213 O 667.453 -1.95618 0.0567764 0
M  V30 7214 C 667.752 -1.05885 3.41355 0
M  V30 7215 C 667.418 -0.0350809 4.50886 0
M  V30 7216 C 666.08 0.246362 4.80569 0
M  V30 7217 C 668.432 0.661282 5.16988 0
M  V30 7218 C 665.76 1.23003 5.73661 0
M  V30 7219 C 668.112 1.63375 6.11139 0
M  V30 7220 C 666.776 1.92292 6.39203 0
M  V30 7221 H 666.046 -0.186039 0.717266 0
M  V30 7222 H 668.693 0.229667 1.90118 0
M  V30 7223 H 666.998 -1.87419 3.44066 0
M  V30 7224 H 668.695 -1.57183 3.6891 0
M  V30 7225 H 665.285 -0.264622 4.27782 0
M  V30 7226 H 669.469 0.457038 4.94191 0
M  V30 7227 H 664.725 1.46056 5.93698 0
M  V30 7228 H 668.899 2.17887 6.61436 0
M  V30 7229 H 666.526 2.68666 7.11142 0
M  V30 7230 N 668.101 -1.57061 -0.130224 0
M  V30 7231 C 669.347 -1.8453 -0.841216 0
M  V30 7232 C 669.68 -0.727666 -1.80052 0
M  V30 7233 O 668.955 0.267419 -1.92653 0
M  V30 7234 C 669.238 -3.22553 -1.60099 0
M  V30 7235 C 669.091 -4.44901 -0.662048 0
M  V30 7236 C 670.41 -3.58003 -2.55973 0
M  V30 7237 H 667.529 -0.671215 -0.304366 0
M  V30 7238 H 670.171 -1.89705 -0.105821 0
M  V30 7239 H 668.321 -3.18272 -2.22789 0
M  V30 7240 H 669.993 -4.61278 -0.0448559 0
M  V30 7241 H 668.236 -4.33791 0.0272253 0
M  V30 7242 H 668.907 -5.3812 -1.23006 0
M  V30 7243 H 671.383 -3.63002 -2.03393 0
M  V30 7244 H 670.259 -4.55576 -3.06172 0
M  V30 7245 H 670.52 -2.84833 -3.38116 0
M  V30 7246 N 669.579 0.400081 -1.52437 0
M  V30 7247 C 670.995 0.739359 -1.41441 0
M  V30 7248 C 671.195 1.94512 -0.526053 0
M  V30 7249 O 670.251 2.525 0.00472502 0
M  V30 7250 C 671.564 0.984824 -2.84116 0
M  V30 7251 C 673.112 1.08698 -2.93519 0
M  V30 7252 C 673.587 1.36515 -4.37181 0
M  V30 7253 N 675.078 1.43361 -4.40457 0
M  V30 7254 C 675.813 1.66528 -5.48686 0
M  V30 7255 N 675.309 1.87239 -6.67018 0
M  V30 7256 N 677.102 1.68617 -5.36213 0
M  V30 7257 H 669.253 -0.393484 -2.08723 0
M  V30 7258 H 671.516 -0.1138 -0.941145 0
M  V30 7259 H 671.222 0.171096 -3.51284 0
M  V30 7260 H 671.096 1.90253 -3.25705 0
M  V30 7261 H 673.483 1.89129 -2.26526 0
M  V30 7262 H 673.564 0.147432 -2.55375 0
M  V30 7263 H 673.208 0.565982 -5.04737 0
M  V30 7264 H 673.138 2.31737 -4.7287 0
M  V30 7265 H 675.629 1.29108 -3.55161 0
M  V30 7266 H 675.942 2.04392 -7.45281 0
M  V30 7267 H 674.287 1.84486 -6.70067 0
M  V30 7268 H 677.478 1.5198 -4.42741 0
M  V30 7269 H 677.651 1.86332 -6.20632 0
M  V30 7270 N 671.057 1.43213 0.657864 0
M  V30 7271 C 672.282 1.48227 1.45064 0
M  V30 7272 C 672.707 0.0999939 1.87834 0
M  V30 7273 O 672.065 -0.905269 1.57081 0
M  V30 7274 C 672.113 2.42931 2.6649 0
M  V30 7275 O 671.217 1.91237 3.6538 0
M  V30 7276 H 670.558 0.501551 0.435135 0
M  V30 7277 H 673.088 1.8808 0.805431 0
M  V30 7278 H 673.098 2.6008 3.1436 0
M  V30 7279 H 671.773 3.43348 2.34701 0
M  V30 7280 H 670.35 1.83726 3.24498 0
M  V30 7281 N 672.536 -0.895792 1.29666 0
M  V30 7282 C 673.813 -1.62723 1.08538 0
M  V30 7283 C 674.193 -2.07848 -0.369119 0
M  V30 7284 O 673.541 -1.8372 -1.35864 0
M  V30 7285 C 673.751 -2.80505 2.07648 0
M  V30 7286 C 675.099 -3.51098 2.3878 0
M  V30 7287 O 676.123 -2.90679 2.05874 0
M  V30 7288 O 674.982 -4.60028 2.9502 0
M  V30 7289 H 672.076 -0.714692 0.416106 0
M  V30 7290 H 674.622 -0.943517 1.41053 0
M  V30 7291 H 673.394 -2.44386 3.05599 0
M  V30 7292 H 673.017 -3.5658 1.75887 0
M  V30 7293 N 674.014 -1.12206 -1.10668 0
M  V30 7294 C 674.924 -0.800686 -2.20513 0
M  V30 7295 C 675.94 0.209512 -1.72734 0
M  V30 7296 O 677.116 0.043705 -2.01353 0
M  V30 7297 C 674.181 -0.257353 -3.45744 0
M  V30 7298 C 673.242 -1.32718 -4.0827 0
M  V30 7299 C 672.475 -0.809674 -5.27522 0
M  V30 7300 O 672.698 0.35742 -5.69279 0
M  V30 7301 O 671.632 -1.57816 -5.80842 0
M  V30 7302 H 675.458 -1.71807 -2.50432 0
M  V30 7303 H 673.043 -0.898546 -1.19359 0
M  V30 7304 H 674.925 0.0408849 -4.2138 0
M  V30 7305 H 673.6 0.632627 -3.17458 0
M  V30 7306 H 672.507 -1.67855 -3.34329 0
M  V30 7307 H 673.84 -2.19083 -4.40753 0
M  V30 7308 N 675.492 1.28418 -0.913599 0
M  V30 7309 C 676.422 2.29713 -0.418847 0
M  V30 7310 C 677.403 1.62165 0.513469 0
M  V30 7311 O 678.588 1.89576 0.421235 0
M  V30 7312 C 675.718 3.45612 0.342042 0
M  V30 7313 C 674.672 4.25056 -0.501123 0
M  V30 7314 C 673.998 5.3329 0.388097 0
M  V30 7315 C 675.298 4.91814 -1.75831 0
M  V30 7316 H 676.992 2.71346 -1.26538 0
M  V30 7317 H 674.538 1.30446 -0.609903 0
M  V30 7318 H 676.491 4.15562 0.699 0
M  V30 7319 H 675.215 3.02858 1.22248 0
M  V30 7320 H 673.874 3.56833 -0.840598 0
M  V30 7321 H 673.522 4.8678 1.26707 0
M  V30 7322 H 673.222 5.87347 -0.172459 0
M  V30 7323 H 674.746 6.06088 0.74094 0
M  V30 7324 H 676.16 5.54126 -1.47026 0
M  V30 7325 H 674.557 5.55866 -2.26126 0
M  V30 7326 H 675.627 4.16313 -2.4862 0
M  V30 7327 N 676.97 0.677563 1.42291 0
M  V30 7328 C 678.386 0.347376 1.55774 0
M  V30 7329 C 678.586 -1.14703 1.65667 0
M  V30 7330 O 677.642 -1.93252 1.62512 0
M  V30 7331 C 678.955 1.08011 2.80631 0
M  V30 7332 C 680.503 1.06271 2.94407 0
M  V30 7333 C 680.978 1.77683 4.22129 0
M  V30 7334 N 682.469 1.74564 4.29047 0
M  V30 7335 C 683.204 2.26673 5.26694 0
M  V30 7336 N 682.7 2.87176 6.30477 0
M  V30 7337 N 684.493 2.17032 5.18511 0
M  V30 7338 H 676.644 1.64703 1.34114 0
M  V30 7339 H 678.907 0.694038 0.645768 0
M  V30 7340 H 678.613 2.13518 2.79469 0
M  V30 7341 H 678.487 0.647115 3.71608 0
M  V30 7342 H 680.874 0.0159658 2.95096 0
M  V30 7343 H 680.955 1.53461 2.04654 0
M  V30 7344 H 680.599 2.82327 4.22201 0
M  V30 7345 H 680.529 1.2794 5.10822 0
M  V30 7346 H 683.02 1.30436 3.54676 0
M  V30 7347 H 683.333 3.24551 7.01346 0
M  V30 7348 H 681.678 2.91247 6.31031 0
M  V30 7349 H 684.869 1.69451 4.36353 0
M  V30 7350 H 685.042 2.57948 5.94446 0
M  V30 7351 N 678.448 -1.51871 0.421078 0
M  V30 7352 C 679.358 -2.31077 -0.405069 0
M  V30 7353 C 680.374 -1.39301 -1.04265 0
M  V30 7354 O 681.55 -1.72376 -1.04157 0
M  V30 7355 C 678.615 -3.12556 -1.50032 0
M  V30 7356 C 677.676 -4.20088 -0.884559 0
M  V30 7357 C 676.909 -4.97673 -1.92762 0
M  V30 7358 O 677.132 -4.75696 -3.14753 0
M  V30 7359 O 676.066 -5.82203 -1.52719 0
M  V30 7360 H 679.892 -3.02742 0.241086 0
M  V30 7361 H 677.477 -1.48263 0.183991 0
M  V30 7362 H 679.359 -3.6326 -2.13589 0
M  V30 7363 H 678.034 -2.43672 -2.13086 0
M  V30 7364 H 676.941 -3.73502 -0.211379 0
M  V30 7365 H 678.274 -4.91298 -0.297763 0
M  V30 7366 N 679.926 -0.151884 -1.56866 0
M  V30 7367 C 680.889 0.771861 -2.15812 0
M  V30 7368 C 681.889 1.17181 -1.10115 0
M  V30 7369 O 683.079 1.09194 -1.35729 0
M  V30 7370 C 680.211 2.04806 -2.7252 0
M  V30 7371 H 681.404 0.259021 -2.98779 0
M  V30 7372 H 678.957 0.097588 -1.55995 0
M  V30 7373 H 679.692 2.60445 -1.93233 0
M  V30 7374 H 679.477 1.77044 -3.49854 0
M  V30 7375 H 680.967 2.70771 -3.1792 0
M  V30 7376 N 681.404 1.57128 0.121893 0
M  V30 7377 C 682.65 1.85853 0.826451 0
M  V30 7378 C 683.005 0.739262 1.77631 0
M  V30 7379 O 682.298 -0.260959 1.89815 0
M  V30 7380 C 682.492 3.1874 1.61677 0
M  V30 7381 C 682.321 4.43487 0.744944 0
M  V30 7382 C 681.091 5.03707 0.400891 0
M  V30 7383 C 683.289 5.1426 0.0638779 0
M  V30 7384 N 681.271 6.12006 -0.481902 0
M  V30 7385 C 682.642 6.16281 -0.678033 0
M  V30 7386 C 684.697 4.97898 -0.0128424 0
M  V30 7387 C 683.4 7.0371 -1.48946 0
M  V30 7388 C 685.426 5.85812 -0.81108 0
M  V30 7389 C 684.788 6.87333 -1.54119 0
M  V30 7390 H 680.887 0.730367 0.279442 0
M  V30 7391 H 683.471 1.9449 0.0903486 0
M  V30 7392 H 681.642 3.11204 2.32393 0
M  V30 7393 H 683.374 3.35283 2.26644 0
M  V30 7394 H 680.129 4.67744 0.742469 0
M  V30 7395 H 680.553 6.70787 -0.915063 0
M  V30 7396 H 685.195 4.19372 0.537278 0
M  V30 7397 H 682.913 7.81646 -2.05074 0
M  V30 7398 H 686.499 5.75217 -0.872764 0
M  V30 7399 H 685.379 7.54182 -2.14893 0
M  V30 7400 N 682.882 -0.391992 1.52647 0
M  V30 7401 C 684.298 -0.731848 1.41831 0
M  V30 7402 C 684.498 -1.9423 0.536361 0
M  V30 7403 O 683.554 -2.52499 0.00866571 0
M  V30 7404 C 684.867 -0.969743 2.84634 0
M  V30 7405 C 686.415 -1.0714 2.94092 0
M  V30 7406 C 686.89 -1.34195 4.37899 0
M  V30 7407 N 688.381 -1.41023 4.41211 0
M  V30 7408 C 689.116 -1.63616 5.49561 0
M  V30 7409 N 688.612 -1.83699 6.68002 0
M  V30 7410 N 690.405 -1.65771 5.371 0
M  V30 7411 H 682.556 0.404547 2.08512 0
M  V30 7412 H 684.819 0.11879 0.940528 0
M  V30 7413 H 684.525 -0.152465 3.51369 0
M  V30 7414 H 684.399 -1.88523 3.26709 0
M  V30 7415 H 686.786 -1.87925 2.27526 0
M  V30 7416 H 686.867 -0.133887 2.55449 0
M  V30 7417 H 686.511 -0.539207 5.0503 0
M  V30 7418 H 686.441 -2.29226 4.74092 0
M  V30 7419 H 688.932 -1.27223 3.55841 0
M  V30 7420 H 689.245 -2.00437 7.46354 0
M  V30 7421 H 687.59 -1.8093 6.71036 0
M  V30 7422 H 690.781 -1.4963 4.43541 0
M  V30 7423 H 690.954 -1.83038 6.21612 0
M  V30 7424 N 684.36 -1.4356 -0.65026 0
M  V30 7425 C 685.609 -1.44619 -1.406 0
M  V30 7426 C 685.922 -0.0752645 -1.95455 0
M  V30 7427 O 687.128 0.0366832 -2.71475 0
M  V30 7428 C 685.584 -2.54511 -2.54465 0
M  V30 7429 C 685.192 -3.97723 -2.06204 0
M  V30 7430 C 686.936 -2.64768 -3.31811 0
M  V30 7431 C 684.843 -4.99075 -3.17298 0
M  V30 7432 H 683.773 -0.537983 -0.52829 0
M  V30 7433 H 686.424 -1.69559 -0.701561 0
M  V30 7434 H 684.806 -2.22777 -3.27393 0
M  V30 7435 H 685.98 -4.38932 -1.40267 0
M  V30 7436 H 684.295 -3.91538 -1.41729 0
M  V30 7437 H 686.892 -3.37664 -4.14593 0
M  V30 7438 H 687.235 -1.69936 -3.80036 0
M  V30 7439 H 687.768 -2.95817 -2.65964 0
M  V30 7440 H 684.507 -5.95469 -2.74038 0
M  V30 7441 H 684.027 -4.62476 -3.81937 0
M  V30 7442 H 685.706 -5.21913 -3.82382 0
M  V30 7443 N 685.838 0.888903 -1.30139 0
M  V30 7444 C 687.085 1.64037 -1.18736 0
M  V30 7445 C 687.413 1.92771 0.258801 0
M  V30 7446 O 686.668 1.54427 1.20212 0
M  V30 7447 C 686.967 2.99041 -1.95728 0
M  V30 7448 C 686.633 2.89874 -3.45375 0
M  V30 7449 C 685.295 2.87082 -3.86183 0
M  V30 7450 C 687.647 2.78289 -4.40687 0
M  V30 7451 C 684.975 2.70536 -5.20603 0
M  V30 7452 C 687.327 2.63282 -5.75209 0
M  V30 7453 C 685.991 2.58861 -6.15262 0
M  V30 7454 H 685.261 0.600253 -0.434485 0
M  V30 7455 H 687.908 1.0338 -1.61198 0
M  V30 7456 H 686.213 3.63626 -1.45888 0
M  V30 7457 H 687.91 3.56139 -1.843 0
M  V30 7458 H 684.5 2.92856 -3.12943 0
M  V30 7459 H 688.684 2.79516 -4.10103 0
M  V30 7460 H 683.94 2.65526 -5.50732 0
M  V30 7461 H 688.114 2.5329 -6.48704 0
M  V30 7462 H 685.741 2.45799 -7.19366 0
M  V30 7463 N 687.317 1.12792 1.10072 0
M  V30 7464 C 688.545 0.908506 1.85886 0
M  V30 7465 C 688.96 -0.542408 1.80841 0
M  V30 7466 O 688.317 -1.37517 1.1998 0
M  V30 7467 C 688.368 1.37973 3.34134 0
M  V30 7468 O 688.089 2.77378 3.39106 0
M  V30 7469 C 689.59 1.1978 4.26811 0
M  V30 7470 H 686.81 0.3244 0.587372 0
M  V30 7471 H 689.354 1.49882 1.39125 0
M  V30 7472 H 687.509 0.832566 3.78348 0
M  V30 7473 H 687.923 2.98144 4.31521 0
M  V30 7474 H 689.397 1.57635 5.29014 0
M  V30 7475 H 689.874 0.138768 4.38981 0
M  V30 7476 H 690.48 1.73266 3.88406 0
M  V30 7477 N 688.795 -1.27931 0.920396 0
M  V30 7478 C 690.206 -1.76707 0.602616 0
M  V30 7479 C 690.557 -1.75249 -0.882159 0
M  V30 7480 O 689.682 -1.35135 -1.69019 0
M  V30 7481 C 690.277 -3.20884 1.08714 0
M  V30 7482 C 688.836 -3.67356 0.820157 0
M  V30 7483 C 687.983 -2.47525 1.25006 0
M  V30 7484 H 690.934 -1.14301 1.10095 0
M  V30 7485 H 690.955 -3.78045 0.431535 0
M  V30 7486 H 690.467 -3.21913 2.1678 0
M  V30 7487 H 688.568 -3.7178 -0.247012 0
M  V30 7488 H 688.681 -4.57181 1.43257 0
M  V30 7489 H 687.045 -2.45765 0.668698 0
M  V30 7490 H 687.828 -2.51269 2.3392 0
M  V30 7491 N 690.273 -0.685099 -1.4193 0
M  V30 7492 C 691.203 -0.0273506 -2.33484 0
M  V30 7493 C 692.184 0.778366 -1.51246 0
M  V30 7494 O 693.369 0.733449 -1.79817 0
M  V30 7495 C 690.499 0.917272 -3.34968 0
M  V30 7496 C 689.453 0.21941 -4.27437 0
M  V30 7497 C 688.779 1.27768 -5.1921 0
M  V30 7498 C 690.079 -0.907894 -5.14349 0
M  V30 7499 H 691.773 -0.791994 -2.88735 0
M  V30 7500 H 689.319 -0.382308 -1.38832 0
M  V30 7501 H 691.272 1.38657 -3.97935 0
M  V30 7502 H 689.996 1.71346 -2.78043 0
M  V30 7503 H 688.655 -0.229757 -3.65879 0
M  V30 7504 H 688.303 2.06612 -4.58607 0
M  V30 7505 H 688.003 0.815803 -5.81909 0
M  V30 7506 H 689.527 1.7477 -5.85054 0
M  V30 7507 H 690.941 -0.519348 -5.70943 0
M  V30 7508 H 689.338 -1.2962 -5.85934 0
M  V30 7509 H 690.408 -1.75218 -4.52136 0
M  V30 7510 N 691.751 1.51645 -0.429126 0
M  V30 7511 C 692.681 2.30434 0.377148 0
M  V30 7512 C 693.662 1.35493 1.02838 0
M  V30 7513 O 694.847 1.6441 1.03359 0
M  V30 7514 C 691.977 3.14038 1.48315 0
M  V30 7515 C 690.931 4.1719 0.955855 0
M  V30 7516 C 690.257 4.89263 2.15698 0
M  V30 7517 C 691.557 5.223 -0.00402136 0
M  V30 7518 H 693.251 2.98085 -0.280336 0
M  V30 7519 H 690.797 1.43354 -0.136265 0
M  V30 7520 H 692.75 3.67933 2.05435 0
M  V30 7521 H 691.474 2.44193 2.16881 0
M  V30 7522 H 690.133 3.64335 0.406929 0
M  V30 7523 H 689.781 4.15929 2.82864 0
M  V30 7524 H 689.481 5.59009 1.81059 0
M  V30 7525 H 691.005 5.45978 2.73387 0
M  V30 7526 H 692.419 5.71315 0.476607 0
M  V30 7527 H 690.816 5.99525 -0.26258 0
M  V30 7528 H 691.886 4.75638 -0.943236 0
M  V30 7529 N 693.229 0.160201 1.56784 0
M  V30 7530 C 694.179 -0.786461 2.14007 0
M  V30 7531 C 695.163 -1.20046 1.07134 0
M  V30 7532 O 696.355 -1.16468 1.33283 0
M  V30 7533 C 693.484 -2.02024 2.77563 0
M  V30 7534 C 692.57 -1.62874 3.91578 0
M  V30 7535 N 692.961 -0.946176 4.96871 0
M  V30 7536 C 691.259 -1.92054 4.02531 0
M  V30 7537 C 691.96 -0.755084 5.76778 0
M  V30 7538 N 690.936 -1.29307 5.27997 0
M  V30 7539 H 694.738 -0.255879 2.92784 0
M  V30 7540 H 692.252 -0.0408778 1.62349 0
M  V30 7541 H 694.249 -2.70855 3.16928 0
M  V30 7542 H 692.909 -2.55587 2.00263 0
M  V30 7543 H 693.92 -0.605455 5.14349 0
M  V30 7544 H 690.597 -2.47374 3.36322 0
M  V30 7545 H 691.987 -0.216138 6.71552 0
M  V30 7546 N 694.707 -1.5719 -0.113559 0
M  V30 7547 C 695.639 -1.97393 -1.16484 0
M  V30 7548 C 696.652 -0.873964 -1.37352 0
M  V30 7549 O 697.841 -1.15222 -1.36331 0
M  V30 7550 C 694.941 -2.26174 -2.52386 0
M  V30 7551 C 694.114 -3.57479 -2.52046 0
M  V30 7552 C 693.173 -3.74409 -3.69735 0
M  V30 7553 O 692.199 -4.46463 -3.53071 0
M  V30 7554 N 693.401 -3.13588 -4.88511 0
M  V30 7555 H 696.166 -2.88184 -0.822814 0
M  V30 7556 H 693.727 -1.59044 -0.302769 0
M  V30 7557 H 695.719 -2.3471 -3.29687 0
M  V30 7558 H 694.289 -1.41483 -2.7875 0
M  V30 7559 H 693.509 -3.60081 -1.60421 0
M  V30 7560 H 694.797 -4.43775 -2.48881 0
M  V30 7561 H 694.195 -2.55026 -5.04953 0
M  V30 7562 H 692.752 -3.27637 -5.63469 0
M  V30 7563 N 696.185 0.383891 -1.52853 0
M  V30 7564 C 697.434 1.12563 -1.67369 0
M  V30 7565 C 697.747 1.90982 -0.422533 0
M  V30 7566 O 698.953 2.6778 -0.447914 0
M  V30 7567 C 697.409 2.05011 -2.95801 0
M  V30 7568 C 697.017 1.31991 -4.28115 0
M  V30 7569 C 698.761 2.79289 -3.19684 0
M  V30 7570 C 696.668 2.23235 -5.4765 0
M  V30 7571 H 695.598 0.42391 -0.623552 0
M  V30 7572 H 698.249 0.388016 -1.79351 0
M  V30 7573 H 696.631 2.82429 -2.77578 0
M  V30 7574 H 697.805 0.597633 -4.56908 0
M  V30 7575 H 696.12 0.696517 -4.10533 0
M  V30 7576 H 698.717 3.47749 -4.06171 0
M  V30 7577 H 699.06 3.43649 -2.3497 0
M  V30 7578 H 699.593 2.08962 -3.38496 0
M  V30 7579 H 696.332 1.63482 -6.34786 0
M  V30 7580 H 695.852 2.93364 -5.23161 0
M  V30 7581 H 697.531 2.83205 -5.81725 0
M  V30 7582 N 697.663 1.43903 0.642637 0
M  V30 7583 C 698.573 1.52349 1.78401 0
M  V30 7584 C 699.589 0.409869 1.69104 0
M  V30 7585 O 700.765 0.665548 1.90085 0
M  V30 7586 C 697.83 1.45408 3.14734 0
M  V30 7587 C 696.891 2.67528 3.35749 0
M  V30 7588 C 696.124 2.60909 4.65577 0
M  V30 7589 O 696.347 1.6627 5.45628 0
M  V30 7590 O 695.281 3.5158 4.88544 0
M  V30 7591 H 699.107 2.48752 1.7423 0
M  V30 7592 H 696.692 1.26021 0.802439 0
M  V30 7593 H 698.574 1.44019 3.96026 0
M  V30 7594 H 697.249 0.521437 3.19473 0
M  V30 7595 H 696.156 2.74487 2.5418 0
M  V30 7596 H 697.489 3.598 3.35864 0
M  V30 7597 N 699.141 -0.881989 1.30609 0
M  V30 7598 C 700.071 -2.00413 1.1982 0
M  V30 7599 C 701.052 -1.69871 0.0881538 0
M  V30 7600 O 702.237 -1.92304 0.2707 0
M  V30 7601 C 699.367 -3.35641 0.89233 0
M  V30 7602 C 698.321 -3.80451 1.96064 0
M  V30 7603 C 697.647 -5.13003 1.5077 0
M  V30 7604 C 698.947 -3.98855 3.37213 0
M  V30 7605 H 700.641 -2.09698 2.13699 0
M  V30 7606 H 698.187 -1.00754 1.02882 0
M  V30 7607 H 700.14 -4.13669 0.803497 0
M  V30 7608 H 698.864 -3.26497 -0.0821381 0
M  V30 7609 H 697.523 -3.04654 2.03916 0
M  V30 7610 H 697.171 -5.0029 0.521417 0
M  V30 7611 H 696.871 -5.43956 2.22229 0
M  V30 7612 H 698.395 -5.93554 1.43271 0
M  V30 7613 H 699.809 -4.67312 3.32103 0
M  V30 7614 H 698.206 -4.41188 4.06784 0
M  V30 7615 H 699.276 -3.02614 3.78883 0
M  V30 7616 N 700.619 -1.13374 -1.09472 0
M  V30 7617 C 701.529 -0.824029 -2.19652 0
M  V30 7618 C 702.545 0.19118 -1.72947 0
M  V30 7619 O 703.721 0.0223464 -2.01388 0
M  V30 7620 C 700.786 -0.294009 -3.45451 0
M  V30 7621 C 699.847 -1.3704 -4.0684 0
M  V30 7622 C 699.08 -0.86558 -5.26634 0
M  V30 7623 O 699.303 0.29702 -5.69626 0
M  V30 7624 O 698.237 -1.63968 -5.79136 0
M  V30 7625 H 702.063 -1.74454 -2.48595 0
M  V30 7626 H 699.648 -0.911155 -1.18399 0
M  V30 7627 H 701.53 -0.00381039 -4.214 0
M  V30 7628 H 700.205 0.598921 -3.18111 0
M  V30 7629 H 699.112 -1.71391 -3.3253 0
M  V30 7630 H 700.445 -2.23746 -4.38405 0
M  V30 7631 N 702.098 1.27442 -0.927168 0
M  V30 7632 C 703.045 2.26863 -0.424459 0
M  V30 7633 C 704.015 1.5813 0.508346 0
M  V30 7634 O 705.2 1.85946 0.42762 0
M  V30 7635 C 702.34 3.43639 0.31718 0
M  V30 7636 C 701.453 4.27087 -0.649675 0
M  V30 7637 C 700.588 5.31082 0.111753 0
M  V30 7638 C 699.627 6.062 -0.847843 0
M  V30 7639 N 698.764 7.01999 -0.119074 0
M  V30 7640 H 703.604 2.69239 -1.27728 0
M  V30 7641 H 701.141 1.32394 -0.641106 0
M  V30 7642 H 703.099 4.10155 0.763486 0
M  V30 7643 H 701.729 3.02217 1.13424 0
M  V30 7644 H 700.781 3.60491 -1.21451 0
M  V30 7645 H 702.093 4.79242 -1.38307 0
M  V30 7646 H 701.247 6.03544 0.618 0
M  V30 7647 H 699.986 4.7973 0.878114 0
M  V30 7648 H 698.991 5.32577 -1.36534 0
M  V30 7649 H 700.216 6.59642 -1.61398 0
M  V30 7650 H 698.162 6.52977 0.629051 0
M  V30 7651 H 698.079 7.5184 -0.792046 0
M  V30 7652 H 699.347 7.78638 0.366537 0
M  V30 7653 N 703.576 0.692616 1.41565 0
M  V30 7654 C 704.987 0.297478 1.84315 0
M  V30 7655 C 705.338 -1.16379 1.57957 0
M  V30 7656 O 704.463 -1.89303 1.0485 0
M  V30 7657 C 705.058 0.533136 3.34579 0
M  V30 7658 C 703.617 0.191944 3.7591 0
M  V30 7659 C 702.764 0.816873 2.64995 0
M  V30 7660 H 705.715 0.893488 1.31158 0
M  V30 7661 H 705.736 -0.209105 3.79925 0
M  V30 7662 H 705.248 1.59674 3.53731 0
M  V30 7663 H 703.349 -0.867512 3.6236 0
M  V30 7664 H 703.462 0.644902 4.7474 0
M  V30 7665 H 701.826 0.246715 2.53502 0
M  V30 7666 H 702.609 1.88429 2.86966 0
M  V30 7667 N 705.054 -1.51416 0.437162 0
M  V30 7668 C 706.001 -2.27743 -0.374374 0
M  V30 7669 C 706.971 -1.31327 -1.01698 0
M  V30 7670 O 708.156 -1.60229 -1.03592 0
M  V30 7671 C 705.296 -3.12241 -1.46969 0
M  V30 7672 C 704.409 -4.23651 -0.845236 0
M  V30 7673 C 703.544 -4.95458 -1.91559 0
M  V30 7674 C 702.583 -5.98789 -1.26956 0
M  V30 7675 N 701.72 -6.64005 -2.28126 0
M  V30 7676 H 706.56 -2.96654 0.282892 0
M  V30 7677 H 704.097 -1.46319 0.151352 0
M  V30 7678 H 706.055 -3.59556 -2.11602 0
M  V30 7679 H 704.685 -2.45445 -2.09659 0
M  V30 7680 H 703.737 -3.803 -0.0872059 0
M  V30 7681 H 705.049 -4.97683 -0.333582 0
M  V30 7682 H 704.203 -5.46321 -2.63854 0
M  V30 7683 H 702.942 -4.21055 -2.46097 0
M  V30 7684 H 701.947 -5.47219 -0.53207 0
M  V30 7685 H 703.172 -6.75149 -0.731509 0
M  V30 7686 H 701.118 -5.92415 -2.81745 0
M  V30 7687 H 701.035 -7.33802 -1.81852 0
M  V30 7688 H 702.303 -7.19498 -2.99905 0
M  V30 7689 N 706.532 -0.168513 -1.56696 0
M  V30 7690 C 707.943 0.348694 -1.83415 0
M  V30 7691 C 708.294 1.63257 -1.0882 0
M  V30 7692 O 707.419 2.13707 -0.340333 0
M  V30 7693 C 708.014 0.639423 -3.32711 0
M  V30 7694 C 706.573 1.10108 -3.59935 0
M  V30 7695 C 705.72 0.135464 -2.76969 0
M  V30 7696 H 708.671 -0.392829 -1.53761 0
M  V30 7697 H 708.692 1.49179 -3.50037 0
M  V30 7698 H 708.204 -0.295173 -3.86976 0
M  V30 7699 H 706.305 2.05088 -3.11079 0
M  V30 7700 H 706.418 1.01218 -4.68286 0
M  V30 7701 H 704.782 0.632286 -2.46727 0
M  V30 7702 H 705.565 -0.793104 -3.34013 0
M  V30 7703 N 708.01 1.57248 0.105221 0
M  V30 7704 C 709.259 1.84756 0.809198 0
M  V30 7705 C 709.572 0.756262 1.80389 0
M  V30 7706 O 710.778 0.918158 2.55504 0
M  V30 7707 C 709.234 3.27613 1.48989 0
M  V30 7708 C 708.842 4.44788 0.535484 0
M  V30 7709 C 710.586 3.64356 2.17819 0
M  V30 7710 C 708.493 5.78676 1.22019 0
M  V30 7711 H 707.423 0.689139 0.305946 0
M  V30 7712 H 710.074 1.83395 0.0620371 0
M  V30 7713 H 708.456 3.23485 2.28415 0
M  V30 7714 H 709.63 4.60243 -0.226557 0
M  V30 7715 H 707.945 4.16374 -0.0465769 0
M  V30 7716 H 710.542 4.61663 2.69761 0
M  V30 7717 H 710.885 2.92474 2.96251 0
M  V30 7718 H 711.418 3.70328 1.45264 0
M  V30 7719 H 708.157 6.53763 0.476875 0
M  V30 7720 H 707.677 5.67083 1.9539 0
M  V30 7721 H 709.356 6.22897 1.74952 0
M  V30 7722 N 709.488 -0.375779 1.53054 0
M  V30 7723 C 710.899 -0.95309 1.6054 0
M  V30 7724 C 711.25 -1.90575 0.466446 0
M  V30 7725 O 710.375 -2.12507 -0.408609 0
M  V30 7726 C 710.97 -1.73537 2.90982 0
M  V30 7727 C 709.529 -2.26218 3.00836 0
M  V30 7728 C 708.676 -1.07157 2.55759 0
M  V30 7729 H 711.627 -0.154895 1.57942 0
M  V30 7730 H 711.648 -2.59574 2.78211 0
M  V30 7731 H 711.16 -1.04176 3.73857 0
M  V30 7732 H 709.261 -2.98852 2.22527 0
M  V30 7733 H 709.374 -2.54799 4.05727 0
M  V30 7734 H 707.738 -1.43553 2.10391 0
M  V30 7735 H 708.521 -0.393099 3.41042 0
M  V30 7736 N 710.966 -1.44241 -0.634997 0
M  V30 7737 C 712.196 -1.50078 -1.41987 0
M  V30 7738 C 712.604 -0.123072 -1.88799 0
M  V30 7739 O 711.947 0.880552 -1.6122 0
M  V30 7740 C 712.009 -2.40033 -2.67628 0
M  V30 7741 C 711.673 -3.87268 -2.42637 0
M  V30 7742 C 712.67 -4.77902 -2.04708 0
M  V30 7743 C 710.355 -4.31933 -2.56396 0
M  V30 7744 C 712.349 -6.11202 -1.80862 0
M  V30 7745 C 710.036 -5.65281 -2.32164 0
M  V30 7746 C 711.034 -6.54734 -1.94455 0
M  V30 7747 O 710.722 -7.85613 -1.7049 0
M  V30 7748 H 710.454 -0.51146 -0.442023 0
M  V30 7749 H 713.008 -1.89843 -0.784138 0
M  V30 7750 H 711.238 -1.95188 -3.33824 0
M  V30 7751 H 712.927 -2.36863 -3.29622 0
M  V30 7752 H 713.693 -4.44668 -1.93638 0
M  V30 7753 H 709.572 -3.62569 -2.84719 0
M  V30 7754 H 713.116 -6.80983 -1.51353 0
M  V30 7755 H 709.013 -5.98078 -2.42843 0
M  V30 7756 H 709.781 -7.97373 -1.84767 0
M  V30 7757 N 712.444 0.87505 -1.31075 0
M  V30 7758 C 713.693 1.62245 -1.19831 0
M  V30 7759 C 714.006 1.94078 0.24357 0
M  V30 7760 O 715.212 2.67265 0.477646 0
M  V30 7761 C 713.668 2.92464 -2.09744 0
M  V30 7762 C 713.276 2.68134 -3.58898 0
M  V30 7763 C 715.02 3.70449 -2.07287 0
M  V30 7764 C 712.927 3.9423 -4.40836 0
M  V30 7765 H 711.857 0.608741 -0.444916 0
M  V30 7766 H 714.508 0.967947 -1.55894 0
M  V30 7767 H 712.89 3.59262 -1.66574 0
M  V30 7768 H 714.064 2.09776 -4.10281 0
M  V30 7769 H 712.379 2.03511 -3.6328 0
M  V30 7770 H 714.976 4.63983 -2.65752 0
M  V30 7771 H 715.319 4.02611 -1.05876 0
M  V30 7772 H 715.852 3.10528 -2.48631 0
M  V30 7773 H 712.591 3.67221 -5.42982 0
M  V30 7774 H 712.111 4.52058 -3.94213 0
M  V30 7775 H 713.79 4.62162 -4.52786 0
M  V30 7776 N 713.922 1.13953 1.08869 0
M  V30 7777 C 715.152 0.926825 1.84644 0
M  V30 7778 C 715.56 -0.527941 1.81685 0
M  V30 7779 O 714.903 -1.37742 1.21543 0
M  V30 7780 C 714.965 1.34416 3.33426 0
M  V30 7781 C 714.629 2.81351 3.60126 0
M  V30 7782 C 715.626 3.79486 3.55368 0
M  V30 7783 C 713.311 3.1865 3.88288 0
M  V30 7784 C 715.305 5.1293 3.78393 0
M  V30 7785 C 712.992 4.5227 4.10968 0
M  V30 7786 C 713.99 5.4922 4.06013 0
M  V30 7787 O 713.678 6.80429 4.28102 0
M  V30 7788 H 713.41 0.33013 0.589907 0
M  V30 7789 H 715.964 1.51738 1.38436 0
M  V30 7790 H 714.194 0.696901 3.80368 0
M  V30 7791 H 715.883 1.10302 3.90626 0
M  V30 7792 H 716.649 3.52017 3.3363 0
M  V30 7793 H 712.528 2.43785 3.91267 0
M  V30 7794 H 716.072 5.88591 3.74442 0
M  V30 7795 H 711.969 4.79462 4.32188 0
M  V30 7796 H 712.737 6.86617 4.45533 0
M  V30 7797 N 715.4 -1.26948 0.933913 0
M  V30 7798 C 716.648 -1.93704 0.576484 0
M  V30 7799 C 716.969 -1.73702 -0.886145 0
M  V30 7800 O 716.239 -1.08838 -1.62884 0
M  V30 7801 H 714.819 -0.716812 0.210214 0
M  V30 7802 H 717.481 -1.54534 1.18766 0
M  V30 7803 H 716.577 -3.01987 0.788055 0
M  V30 7804 N 716.879 -0.700114 -1.41195 0
M  V30 7805 C 718.104 -0.240704 -2.05998 0
M  V30 7806 C 718.529 1.10313 -1.52357 0
M  V30 7807 O 717.887 1.69154 -0.652424 0
M  V30 7808 C 717.935 -0.213783 -3.59966 0
M  V30 7809 O 717.039 0.809933 -4.04368 0
M  V30 7810 H 716.38 -0.116471 -0.653705 0
M  V30 7811 H 718.91 -0.956251 -1.80878 0
M  V30 7812 H 718.92 -0.0461852 -4.07974 0
M  V30 7813 H 717.595 -1.19454 -3.98376 0
M  V30 7814 H 716.172 0.611319 -3.67855 0
M  V30 7815 N 718.357 1.51182 -0.445186 0
M  V30 7816 C 719.773 1.59299 -0.0978954 0
M  V30 7817 C 719.973 1.4555 1.39346 0
M  V30 7818 O 719.029 1.30073 2.16419 0
M  V30 7819 C 720.342 2.94133 -0.625005 0
M  V30 7820 C 721.89 3.07463 -0.586137 0
M  V30 7821 C 722.365 4.44832 -1.09035 0
M  V30 7822 N 723.856 4.51173 -1.04867 0
M  V30 7823 C 724.591 5.55804 -1.40959 0
M  V30 7824 N 724.087 6.67816 -1.84375 0
M  V30 7825 N 725.88 5.46205 -1.32726 0
M  V30 7826 H 718.031 1.58363 -1.41544 0
M  V30 7827 H 720.294 0.746946 -0.58376 0
M  V30 7828 H 720 3.09589 -1.66876 0
M  V30 7829 H 719.874 3.77161 -0.0542262 0
M  V30 7830 H 722.261 2.9167 0.448646 0
M  V30 7831 H 722.342 2.26255 -1.19341 0
M  V30 7832 H 721.986 4.61372 -2.12364 0
M  V30 7833 H 721.916 5.24591 -0.459539 0
M  V30 7834 H 724.407 3.70783 -0.729932 0
M  V30 7835 H 724.72 7.43683 -2.10131 0
M  V30 7836 H 723.065 6.69003 -1.88308 0
M  V30 7837 H 726.256 4.57583 -0.986678 0
M  V30 7838 H 726.429 6.27634 -1.61182 0
M  V30 7839 N 719.835 0.176821 1.56605 0
M  V30 7840 C 721.083 -0.465793 1.96659 0
M  V30 7841 C 721.404 -1.63406 1.06412 0
M  V30 7842 O 720.674 -1.95457 0.131603 0
M  V30 7843 H 719.254 -0.175072 0.726195 0
M  V30 7844 H 721.916 0.25929 1.93168 0
M  V30 7845 H 721.012 -0.822138 3.01077 0
M  V30 7846 N 721.313 -1.57302 -0.09688 0
M  V30 7847 C 722.724 -1.7496 -0.651595 0
M  V30 7848 C 723.075 -0.798746 -1.79205 0
M  V30 7849 O 722.2 0.0231858 -2.16388 0
M  V30 7850 C 722.795 -3.17259 -1.18878 0
M  V30 7851 C 721.354 -3.36348 -1.68958 0
M  V30 7852 C 720.501 -2.70766 -0.598413 0
M  V30 7853 H 723.452 -1.58173 0.12918 0
M  V30 7854 H 723.473 -3.20033 -2.05814 0
M  V30 7855 H 722.985 -3.8644 -0.358523 0
M  V30 7856 H 721.086 -2.72243 -2.5439 0
M  V30 7857 H 721.199 -4.44654 -1.7838 0
M  V30 7858 H 719.563 -2.32615 -1.03743 0
M  V30 7859 H 720.346 -3.42586 0.221238 0
M  V30 7860 N 722.791 0.367657 -1.53252 0
M  V30 7861 C 724.019 1.13119 -1.73239 0
M  V30 7862 C 724.434 1.831 -0.460404 0
M  V30 7863 O 723.791 1.73483 0.566557 0
M  V30 7864 C 723.842 2.16308 -2.89643 0
M  V30 7865 O 723.563 1.49175 -4.1192 0
M  V30 7866 C 725.064 3.05224 -3.21486 0
M  V30 7867 H 722.284 0.338318 -0.579467 0
M  V30 7868 H 724.828 0.42721 -1.99988 0
M  V30 7869 H 722.983 2.82307 -2.65295 0
M  V30 7870 H 723.397 2.17912 -4.7709 0
M  V30 7871 H 724.871 3.73613 -4.06346 0
M  V30 7872 H 725.348 3.69919 -2.36763 0
M  V30 7873 H 725.954 2.44843 -3.47753 0
M  V30 7874 N 724.269 1.44576 0.627338 0
M  V30 7875 C 725.179 1.54232 1.76776 0
M  V30 7876 C 726.195 0.427782 1.6866 0
M  V30 7877 O 727.371 0.685671 1.89369 0
M  V30 7878 C 724.436 1.48738 3.13174 0
M  V30 7879 C 723.497 2.71074 3.32893 0
M  V30 7880 C 722.73 2.65832 4.62784 0
M  V30 7881 O 722.953 1.72048 5.43834 0
M  V30 7882 O 721.887 3.56742 4.84787 0
M  V30 7883 H 725.713 2.50586 1.71582 0
M  V30 7884 H 723.298 1.26865 0.789028 0
M  V30 7885 H 725.18 1.48211 3.94476 0
M  V30 7886 H 723.855 0.555292 3.18902 0
M  V30 7887 H 722.762 2.77168 2.51254 0
M  V30 7888 H 724.095 3.63342 3.32029 0
M  V30 7889 N 725.747 -0.868086 1.31537 0
M  V30 7890 C 726.71 -1.95703 1.19302 0
M  V30 7891 C 727.71 -1.60355 0.119612 0
M  V30 7892 O 728.9 -1.70247 0.36902 0
M  V30 7893 C 726.032 -3.30599 0.831684 0
M  V30 7894 H 727.225 -2.07982 2.16064 0
M  V30 7895 H 724.778 -1.05661 1.15176 0
M  V30 7896 H 725.513 -3.2402 -0.134694 0
M  V30 7897 H 725.298 -3.57629 1.60761 0
M  V30 7898 H 726.788 -4.10439 0.770026 0
M  V30 7899 N 727.225 -1.14528 -1.08264 0
M  V30 7900 C 728.502 -0.825185 -1.77342 0
M  V30 7901 C 728.882 0.681037 -1.99813 0
M  V30 7902 O 728.23 1.62234 -1.60912 0
M  V30 7903 C 728.44 -1.62556 -3.08831 0
M  V30 7904 C 729.788 -1.82585 -3.83338 0
M  V30 7905 O 730.812 -1.59254 -3.18617 0
M  V30 7906 O 729.671 -2.21598 -4.99556 0
M  V30 7907 H 726.765 -0.302531 -0.769678 0
M  V30 7908 H 729.311 -1.25056 -1.14713 0
M  V30 7909 H 728.083 -2.64862 -2.88035 0
M  V30 7910 H 727.706 -1.1959 -3.79189 0
M  V30 7911 N 728.703 1.26451 -0.940633 0
M  V30 7912 C 729.613 2.30128 -0.455881 0
M  V30 7913 C 730.629 1.67536 0.469867 0
M  V30 7914 O 731.805 1.98344 0.349529 0
M  V30 7915 C 728.87 3.45634 0.271648 0
M  V30 7916 C 727.931 4.23709 -0.690594 0
M  V30 7917 C 727.164 5.337 0.00231047 0
M  V30 7918 O 727.387 5.57215 1.21935 0
M  V30 7919 O 726.321 5.98091 -0.676111 0
M  V30 7920 H 730.147 2.73655 -1.31707 0
M  V30 7921 H 727.732 1.3164 -0.706497 0
M  V30 7922 H 729.614 4.15853 0.681486 0
M  V30 7923 H 728.289 3.04138 1.10824 0
M  V30 7924 H 727.196 3.55974 -1.15037 0
M  V30 7925 H 728.529 4.68953 -1.49478 0
M  V30 7926 N 730.181 0.707592 1.40822 0
M  V30 7927 C 731.111 0.0644925 2.33411 0
M  V30 7928 C 732.092 -0.754205 1.52466 0
M  V30 7929 O 733.277 -0.704749 1.80961 0
M  V30 7930 C 730.407 -0.863865 3.36385 0
M  V30 7931 C 729.361 -0.15138 4.27732 0
M  V30 7932 C 728.687 -1.19491 5.21177 0
M  V30 7933 C 729.987 0.989607 5.12839 0
M  V30 7934 H 731.681 0.837829 2.87438 0
M  V30 7935 H 729.227 0.404346 1.38207 0
M  V30 7936 H 731.18 -1.32309 4.0009 0
M  V30 7937 H 729.904 -1.66901 2.80734 0
M  V30 7938 H 728.563 0.287937 3.65467 0
M  V30 7939 H 728.211 -1.9929 4.61836 0
M  V30 7940 H 727.911 -0.723123 5.83134 0
M  V30 7941 H 729.435 -1.6544 5.8776 0
M  V30 7942 H 730.849 0.610114 5.70044 0
M  V30 7943 H 729.246 1.38926 5.83798 0
M  V30 7944 H 730.316 1.82389 4.49291 0
M  V30 7945 N 731.66 -1.50943 0.453197 0
M  V30 7946 C 732.593 -2.24742 -0.395787 0
M  V30 7947 C 733.571 -1.27316 -1.01141 0
M  V30 7948 O 734.755 -1.56494 -1.05081 0
M  V30 7949 C 731.882 -3.00999 -1.55298 0
M  V30 7950 C 730.928 -4.13207 -1.0565 0
M  V30 7951 S 731.761 -5.35498 0.01435 0
M  V30 7952 C 732.917 -6.15298 -1.14714 0
M  V30 7953 H 733.15 -2.96403 0.23071 0
M  V30 7954 H 730.683 -1.52557 0.237874 0
M  V30 7955 H 732.641 -3.45529 -2.2163 0
M  V30 7956 H 731.302 -2.28896 -2.15094 0
M  V30 7957 H 730.495 -4.65901 -1.9223 0
M  V30 7958 H 730.097 -3.7102 -0.471182 0
M  V30 7959 H 732.389 -6.45346 -2.06239 0
M  V30 7960 H 733.332 -7.05019 -0.659842 0
M  V30 7961 H 733.74 -5.47046 -1.39288 0
M  V30 7962 N 733.138 -0.185124 -1.56509 0
M  V30 7963 C 734.085 0.739729 -2.18624 0
M  V30 7964 C 735.055 1.217 -1.13042 0
M  V30 7965 O 736.24 1.28268 -1.41251 0
M  V30 7966 C 733.38 1.95787 -2.84186 0
M  V30 7967 C 732.493 1.52289 -4.04267 0
M  V30 7968 C 731.628 2.69576 -4.57714 0
M  V30 7969 C 730.667 2.22636 -5.70175 0
M  V30 7970 N 729.804 3.33065 -6.18071 0
M  V30 7971 H 734.644 0.203269 -2.97306 0
M  V30 7972 H 732.181 0.0885946 -1.46833 0
M  V30 7973 H 734.139 2.67253 -3.20361 0
M  V30 7974 H 732.769 2.4678 -2.08085 0
M  V30 7975 H 731.821 0.704458 -3.7382 0
M  V30 7976 H 733.133 1.13843 -4.85635 0
M  V30 7977 H 732.287 3.4918 -4.96143 0
M  V30 7978 H 731.026 3.1129 -3.75433 0
M  V30 7979 H 730.031 1.41483 -5.31284 0
M  V30 7980 H 731.256 1.81964 -6.54267 0
M  V30 7981 H 729.202 3.74328 -5.38715 0
M  V30 7982 H 729.119 2.98756 -6.94464 0
M  V30 7983 H 730.387 4.12912 -6.61153 0
M  V30 7984 N 734.616 1.57351 0.0885366 0
M  V30 7985 C 736.032 1.53331 0.442916 0
M  V30 7986 C 736.232 0.902831 1.80142 0
M  V30 7987 O 735.288 0.498147 2.47537 0
M  V30 7988 C 736.601 2.98036 0.399372 0
M  V30 7989 C 738.149 3.09286 0.480759 0
M  V30 7990 C 738.624 4.5561 0.467296 0
M  V30 7991 N 740.115 4.60182 0.52786 0
M  V30 7992 C 740.85 5.70857 0.539388 0
M  V30 7993 N 740.346 6.90944 0.506729 0
M  V30 7994 N 742.139 5.59051 0.584691 0
M  V30 7995 H 734.29 1.96709 -0.801215 0
M  V30 7996 H 736.553 0.899639 -0.298922 0
M  V30 7997 H 736.259 3.47656 -0.531806 0
M  V30 7998 H 736.133 3.57066 1.21589 0
M  V30 7999 H 738.52 2.5965 1.40236 0
M  V30 8000 H 738.601 2.53197 -0.364023 0
M  V30 8001 H 738.245 5.05899 -0.450384 0
M  V30 8002 H 738.175 5.09544 1.32938 0
M  V30 8003 H 740.666 3.73757 0.558028 0
M  V30 8004 H 740.979 7.71055 0.518989 0
M  V30 8005 H 739.324 6.93384 0.473675 0
M  V30 8006 H 742.515 4.64138 0.607781 0
M  V30 8007 H 742.688 6.45307 0.590206 0
M  V30 8008 N 736.094 -0.359525 1.53444 0
M  V30 8009 C 737.34 -1.10315 1.70172 0
M  V30 8010 C 737.673 -1.88788 0.455287 0
M  V30 8011 O 736.948 -1.86635 -0.547514 0
M  V30 8012 C 737.231 -2.05744 2.95536 0
M  V30 8013 C 737.084 -1.3084 4.3035 0
M  V30 8014 C 738.403 -3.05784 3.16518 0
M  V30 8015 H 735.522 -0.399662 0.619225 0
M  V30 8016 H 738.164 -0.383338 1.86093 0
M  V30 8017 H 736.314 -2.67125 2.82093 0
M  V30 8018 H 737.986 -0.721959 4.55615 0
M  V30 8019 H 736.229 -0.610283 4.29486 0
M  V30 8020 H 736.9 -2.00718 5.14214 0
M  V30 8021 H 739.376 -2.5451 3.29187 0
M  V30 8022 H 738.252 -3.69772 4.05659 0
M  V30 8023 H 738.513 -3.76289 2.32076 0
M  V30 8024 N 737.572 -1.44907 -0.619662 0
M  V30 8025 C 738.82 -1.47999 -1.37625 0
M  V30 8026 C 739.141 -0.118295 -1.94641 0
M  V30 8027 O 738.411 0.85086 -1.76457 0
M  V30 8028 H 736.991 -0.544993 -0.510873 0
M  V30 8029 H 739.653 -1.80772 -0.728522 0
M  V30 8030 H 738.749 -2.21196 -2.20179 0
M  V30 8031 N 739.05 0.861098 -1.31996 0
M  V30 8032 C 740.297 1.61481 -1.22188 0
M  V30 8033 C 740.625 1.93276 0.217853 0
M  V30 8034 O 739.88 1.56942 1.16909 0
M  V30 8035 C 740.179 2.94822 -2.02027 0
M  V30 8036 C 739.845 2.82483 -3.51446 0
M  V30 8037 C 738.507 2.78825 -3.92186 0
M  V30 8038 C 740.859 2.68878 -4.46491 0
M  V30 8039 C 738.187 2.59433 -5.26224 0
M  V30 8040 C 740.539 2.51022 -5.80664 0
M  V30 8041 C 739.203 2.45753 -6.20614 0
M  V30 8042 H 738.473 0.590902 -0.447119 0
M  V30 8043 H 741.12 0.999376 -1.63355 0
M  V30 8044 H 739.425 3.6045 -1.53569 0
M  V30 8045 H 741.122 3.52149 -1.91812 0
M  V30 8046 H 737.712 2.86152 -3.19085 0
M  V30 8047 H 741.896 2.70754 -4.1594 0
M  V30 8048 H 737.152 2.53784 -5.5624 0
M  V30 8049 H 741.326 2.39473 -6.53931 0
M  V30 8050 H 738.953 2.30485 -7.24417 0
M  V30 8051 N 740.528 1.15101 1.07655 0
M  V30 8052 C 741.46 0.802722 2.14684 0
M  V30 8053 C 742.473 -0.183874 1.61758 0
M  V30 8054 O 743.662 0.0389349 1.78458 0
M  V30 8055 C 740.762 0.172135 3.38463 0
M  V30 8056 C 739.935 1.19538 4.20749 0
M  V30 8057 C 738.994 0.58714 5.22914 0
M  V30 8058 O 738.02 1.25224 5.55255 0
M  V30 8059 N 739.222 -0.632566 5.77043 0
M  V30 8060 H 741.987 1.72379 2.45164 0
M  V30 8061 H 739.548 1.04647 1.23534 0
M  V30 8062 H 741.54 -0.247465 4.03943 0
M  V30 8063 H 740.11 -0.652214 3.0572 0
M  V30 8064 H 739.33 1.79165 3.51132 0
M  V30 8065 H 740.618 1.88636 4.7254 0
M  V30 8066 H 740.016 -1.19135 5.53013 0
M  V30 8067 H 738.573 -0.994566 6.44167 0
M  V30 8068 N 742.006 -1.2595 0.947325 0
M  V30 8069 C 743.236 -1.97258 0.614235 0
M  V30 8070 C 743.644 -1.70682 -0.816355 0
M  V30 8071 O 742.987 -0.97527 -1.55673 0
M  V30 8072 C 743.049 -3.50845 0.784081 0
M  V30 8073 C 742.713 -4.01084 2.19045 0
M  V30 8074 C 743.71 -4.12347 3.16648 0
M  V30 8075 C 741.395 -4.34936 2.51268 0
M  V30 8076 C 743.389 -4.56766 4.44572 0
M  V30 8077 C 741.076 -4.79043 3.79422 0
M  V30 8078 C 742.074 -4.89919 4.75887 0
M  V30 8079 O 741.762 -5.3305 6.01758 0
M  V30 8080 H 741.494 -0.635738 0.22981 0
M  V30 8081 H 744.048 -1.61268 1.27207 0
M  V30 8082 H 742.278 -3.86638 0.069101 0
M  V30 8083 H 743.967 -4.03363 0.453135 0
M  V30 8084 H 744.733 -3.86432 2.93079 0
M  V30 8085 H 740.612 -4.25702 1.76916 0
M  V30 8086 H 744.156 -4.6517 5.19868 0
M  V30 8087 H 740.053 -5.04402 4.02802 0
M  V30 8088 H 740.821 -5.51255 6.05029 0
M  V30 8089 N 743.484 -0.715051 -1.40445 0
M  V30 8090 C 744.394 -0.0631624 -2.34515 0
M  V30 8091 C 745.41 0.744397 -1.57273 0
M  V30 8092 O 746.586 0.677475 -1.89663 0
M  V30 8093 C 743.651 0.847915 -3.36172 0
M  V30 8094 C 742.712 0.0303655 -4.29289 0
M  V30 8095 C 741.945 0.898051 -5.2609 0
M  V30 8096 O 742.168 2.13729 -5.28844 0
M  V30 8097 O 741.102 0.337328 -6.00954 0
M  V30 8098 H 744.928 -0.839078 -2.91879 0
M  V30 8099 H 742.513 -0.475527 -1.4163 0
M  V30 8100 H 744.395 1.3698 -3.98515 0
M  V30 8101 H 743.07 1.60299 -2.81222 0
M  V30 8102 H 741.977 -0.536573 -3.70232 0
M  V30 8103 H 743.31 -0.686474 -4.87389 0
M  V30 8104 N 744.962 1.50701 -0.461195 0
M  V30 8105 C 746.21 2.01867 0.0970051 0
M  V30 8106 C 746.531 1.34591 1.41104 0
M  V30 8107 O 745.801 0.488041 1.89723 0
M  V30 8108 H 744.381 0.74599 0.0388392 0
M  V30 8109 H 747.043 1.85129 -0.609357 0
M  V30 8110 H 746.139 3.11051 0.255688 0
M  V30 8111 N 746.441 0.193421 1.56409 0
M  V30 8112 C 747.669 -0.451438 2.01915 0
M  V30 8113 C 748.084 -1.55306 1.07357 0
M  V30 8114 O 747.441 -1.82333 0.0781512 0
M  V30 8115 C 747.492 -1.00931 3.47124 0
M  V30 8116 O 747.213 0.0483623 4.38073 0
M  V30 8117 C 748.714 -1.73021 4.0814 0
M  V30 8118 H 745.934 -0.113495 0.661332 0
M  V30 8119 H 748.478 0.301636 2.02263 0
M  V30 8120 H 746.633 -1.71277 3.47481 0
M  V30 8121 H 747.047 -0.366644 5.23217 0
M  V30 8122 H 748.521 -2.07289 5.11601 0
M  V30 8123 H 748.998 -2.6333 3.51502 0
M  V30 8124 H 749.604 -1.07264 4.11551 0
M  V30 8125 N 747.919 -1.57396 -0.0801906 0
M  V30 8126 C 749.149 -1.90778 -0.792924 0
M  V30 8127 C 749.557 -0.786814 -1.72064 0
M  V30 8128 O 748.9 0.249259 -1.82001 0
M  V30 8129 C 748.962 -3.19552 -1.64702 0
M  V30 8130 C 748.626 -4.48259 -0.889567 0
M  V30 8131 C 749.623 -5.19465 -0.212602 0
M  V30 8132 C 747.308 -4.94896 -0.859229 0
M  V30 8133 C 749.302 -6.35555 0.484566 0
M  V30 8134 C 746.989 -6.10895 -0.158284 0
M  V30 8135 C 747.987 -6.81075 0.512421 0
M  V30 8136 O 747.675 -7.94862 1.20209 0
M  V30 8137 H 747.407 -0.63527 -0.231103 0
M  V30 8138 H 749.961 -2.0532 -0.0573081 0
M  V30 8139 H 748.191 -3.01196 -2.42524 0
M  V30 8140 H 749.88 -3.38649 -2.23767 0
M  V30 8141 H 750.646 -4.84467 -0.227403 0
M  V30 8142 H 746.525 -4.4015 -1.37073 0
M  V30 8143 H 750.069 -6.9027 1.00864 0
M  V30 8144 H 745.966 -6.45345 -0.141381 0
M  V30 8145 H 746.734 -8.10932 1.11051 0
M  V30 8146 N 749.397 0.351382 -1.53633 0
M  V30 8147 C 750.344 1.43115 -1.81071 0
M  V30 8148 C 751.314 1.52601 -0.655913 0
M  V30 8149 O 752.499 1.68264 -0.89955 0
M  V30 8150 C 749.639 2.79874 -2.01903 0
M  V30 8151 C 748.752 2.79242 -3.29618 0
M  V30 8152 C 747.887 4.07667 -3.40559 0
M  V30 8153 C 746.926 4.01233 -4.62254 0
M  V30 8154 N 746.063 5.21334 -4.70271 0
M  V30 8155 H 750.903 1.19017 -2.73201 0
M  V30 8156 H 748.44 0.576691 -1.35324 0
M  V30 8157 H 750.398 3.5934 -2.11969 0
M  V30 8158 H 749.028 3.0234 -1.13094 0
M  V30 8159 H 748.08 1.91927 -3.28433 0
M  V30 8160 H 749.392 2.70363 -4.19172 0
M  V30 8161 H 748.546 4.95555 -3.50015 0
M  V30 8162 H 747.285 4.19317 -2.49047 0
M  V30 8163 H 746.29 3.11732 -4.52884 0
M  V30 8164 H 747.515 3.91173 -5.55122 0
M  V30 8165 H 745.461 5.33543 -3.81665 0
M  V30 8166 H 745.378 5.14681 -5.5375 0
M  V30 8167 H 746.646 6.11014 -4.84027 0
M  V30 8168 N 750.875 1.45233 0.611969 0
M  V30 8169 C 752.121 1.50233 1.37119 0
M  V30 8170 C 752.476 0.140336 1.91888 0
M  V30 8171 O 751.769 -0.847161 1.71854 0
M  V30 8172 C 751.963 2.51353 2.54079 0
M  V30 8173 C 751.792 3.97251 2.10764 0
M  V30 8174 C 750.562 4.65256 1.97141 0
M  V30 8175 C 752.76 4.85914 1.68499 0
M  V30 8176 N 750.742 5.95895 1.4759 0
M  V30 8177 C 752.113 6.06147 1.30331 0
M  V30 8178 C 754.168 4.72813 1.56051 0
M  V30 8179 C 752.871 7.14729 0.809591 0
M  V30 8180 C 754.897 5.8144 1.08083 0
M  V30 8181 C 754.259 7.00825 0.708775 0
M  V30 8182 H 750.358 0.604708 0.495835 0
M  V30 8183 H 752.942 1.81679 0.700055 0
M  V30 8184 H 751.113 2.21866 3.18795 0
M  V30 8185 H 752.845 2.46528 3.20945 0
M  V30 8186 H 749.6 4.20345 2.18191 0
M  V30 8187 H 750.024 6.65349 1.25059 0
M  V30 8188 H 754.666 3.80931 1.83443 0
M  V30 8189 H 752.384 8.06404 0.523215 0
M  V30 8190 H 755.97 5.73335 0.988842 0
M  V30 8191 H 754.85 7.83448 0.343305 0
M  V30 8192 N 752.353 -0.854086 1.3245 0
M  V30 8193 C 753.599 -1.61069 1.23225 0
M  V30 8194 C 753.932 -1.93111 -0.205349 0
M  V30 8195 O 753.207 -1.57397 -1.14265 0
M  V30 8196 C 753.49 -2.93065 2.09249 0
M  V30 8197 C 753.343 -2.67801 3.6139 0
M  V30 8198 C 754.662 -3.94341 1.95406 0
M  V30 8199 H 751.781 -0.584449 0.448986 0
M  V30 8200 H 754.423 -0.986189 1.62402 0
M  V30 8201 H 752.573 -3.46364 1.75967 0
M  V30 8202 H 754.245 -2.21052 4.04887 0
M  V30 8203 H 752.488 -2.01756 3.84027 0
M  V30 8204 H 753.159 -3.6179 4.16907 0
M  V30 8205 H 755.635 -3.50301 2.24562 0
M  V30 8206 H 754.511 -4.84555 2.57872 0
M  V30 8207 H 754.772 -4.32382 0.921865 0
M  V30 8208 N 753.831 -1.1567 -1.07043 0
M  V30 8209 C 754.779 -0.852204 -2.16426 0
M  V30 8210 C 755.773 0.175661 -1.68487 0
M  V30 8211 O 756.979 0.0303874 -1.79974 0
M  V30 8212 H 753.354 -0.257942 -0.706378 0
M  V30 8213 H 755.325 -1.78231 -2.39324 0
M  V30 8214 C 754.074 -0.361362 -3.45817 0
M  V30 8215 H 753.397 -1.14369 -3.83092 0
M  V30 8216 H 754.837 -0.186997 -4.23587 0
M  V30 8217 C 753.296 0.917703 -3.2416 0
M  V30 8218 O 753.826 1.98858 -3.49025 0
M  V30 8219 N 752.032 0.858456 -2.77631 0
M  V30 8220 H 751.579 -0.0131821 -2.57597 0
M  V30 8221 H 751.537 1.71478 -2.6352 0
M  V30 8222 N 755.309 1.25446 -0.953992 0
M  V30 8223 C 756.72 1.75047 -0.649255 0
M  V30 8224 C 757.071 1.77527 0.835385 0
M  V30 8225 O 756.196 1.39569 1.65377 0
M  V30 8226 C 756.791 3.17889 -1.17183 0
M  V30 8227 C 755.35 3.65052 -0.917267 0
M  V30 8228 C 754.497 2.44124 -1.31525 0
M  V30 8229 H 757.448 1.11342 -1.13087 0
M  V30 8230 H 757.469 3.76768 -0.531616 0
M  V30 8231 H 756.981 3.16052 -2.25239 0
M  V30 8232 H 755.082 3.72305 0.148354 0
M  V30 8233 H 755.195 4.53222 -1.55328 0
M  V30 8234 H 753.559 2.43906 -0.733624 0
M  V30 8235 H 754.342 2.44979 -2.405 0
M  V30 8236 N 756.787 0.722489 1.40064 0
M  V30 8237 C 757.737 0.0506801 2.27944 0
M  V30 8238 C 758.721 -0.725493 1.43615 0
M  V30 8239 O 759.913 -0.596559 1.66644 0
M  V30 8240 C 757.042 -0.865195 3.32219 0
M  V30 8241 C 756.128 -0.0838393 4.24017 0
M  V30 8242 N 756.519 0.936516 4.97054 0
M  V30 8243 C 754.817 -0.315371 4.44884 0
M  V30 8244 C 755.518 1.4066 5.64437 0
M  V30 8245 N 754.494 0.727485 5.3871 0
M  V30 8246 H 758.296 0.832609 2.8186 0
M  V30 8247 H 755.81 0.555691 1.52597 0
M  V30 8248 H 757.807 -1.36186 3.94029 0
M  V30 8249 H 756.467 -1.64642 2.79862 0
M  V30 8250 H 757.478 1.31755 5.0086 0
M  V30 8251 H 754.155 -1.07238 4.03492 0
M  V30 8252 H 755.545 2.25482 6.32936 0
M  V30 8253 N 758.265 -1.50454 0.469181 0
M  V30 8254 C 759.212 -2.28486 -0.325982 0
M  V30 8255 C 760.182 -1.33455 -0.988893 0
M  V30 8256 O 761.367 -1.6239 -1.0017 0
M  V30 8257 C 758.507 -3.15288 -1.40313 0
M  V30 8258 C 757.62 -4.25348 -0.755183 0
M  V30 8259 C 756.755 -4.9941 -1.81006 0
M  V30 8260 C 755.794 -6.01348 -1.14226 0
M  V30 8261 N 754.931 -6.68695 -2.1399 0
M  V30 8262 H 759.771 -2.95987 0.345753 0
M  V30 8263 H 757.308 -1.45965 0.182355 0
M  V30 8264 H 759.266 -3.63964 -2.03927 0
M  V30 8265 H 757.896 -2.49837 -2.04405 0
M  V30 8266 H 756.948 -3.80399 -0.00651901 0
M  V30 8267 H 758.26 -4.98279 -0.227941 0
M  V30 8268 H 757.414 -5.51794 -2.52206 0
M  V30 8269 H 756.153 -4.26181 -2.3711 0
M  V30 8270 H 755.158 -5.48225 -0.415876 0
M  V30 8271 H 756.383 -6.76548 -0.588135 0
M  V30 8272 H 754.329 -5.98258 -2.69115 0
M  V30 8273 H 754.246 -7.37495 -1.66246 0
M  V30 8274 H 755.514 -7.25697 -2.84576 0
M  V30 8275 N 759.743 -0.201713 -1.56304 0
M  V30 8276 C 760.673 0.71155 -2.22394 0
M  V30 8277 C 761.654 1.21625 -1.18917 0
M  V30 8278 O 762.839 1.26388 -1.47444 0
M  V30 8279 C 759.969 1.92837 -2.88845 0
M  V30 8280 C 758.923 1.55831 -3.98623 0
M  V30 8281 C 758.249 2.85228 -4.52271 0
M  V30 8282 C 759.549 0.763249 -5.16693 0
M  V30 8283 H 761.243 0.160573 -2.98969 0
M  V30 8284 H 758.789 0.0757916 -1.438 0
M  V30 8285 H 760.742 2.57253 -3.33764 0
M  V30 8286 H 759.466 2.50398 -2.09686 0
M  V30 8287 H 758.125 0.9377 -3.54405 0
M  V30 8288 H 757.773 3.40893 -3.69866 0
M  V30 8289 H 757.473 2.6121 -5.26349 0
M  V30 8290 H 758.997 3.50622 -4.99897 0
M  V30 8291 H 760.411 1.31066 -5.58117 0
M  V30 8292 H 758.808 0.620935 -5.96879 0
M  V30 8293 H 759.878 -0.234322 -4.84334 0
M  V30 8294 O 761.26 1.6137 -0.064807 0
M  V30 8295 H 761.951 1.85948 0.542485 0
M  V30 END ATOM
M  V30 BEGIN BOND
M  V30 END BOND
M  V30 END CTAB
M  END
$$$$
