drugbank_target|Q9L6V3 NADPH:ferredoxin reductase (DB04450)
 OpenBabel12092120473D

  0  0  0     0  0            999 V3000
M  V30 BEGIN CTAB
M  V30 COUNTS 4281 4329 0 0 0
M  V30 BEGIN ATOM
M  V30 1 H -0.908 1.98254 -0.117106 0
M  V30 2 N 0 1.576 0 0
M  V30 3 C 1.228 1.94848 0.695833 0
M  V30 4 C 1.643 0.874846 1.67308 0
M  V30 5 O 1 -0.146215 1.81913 0
M  V30 6 C 1.051 3.32113 1.4277 0
M  V30 7 O 0.772 4.35355 0.489647 0
M  V30 8 C 2.273 3.8382 2.21804 0
M  V30 9 H -0.507 0.642403 0.193802 0
M  V30 10 H 2.037 2.04436 -0.0511197 0
M  V30 11 H 0.192 3.23833 2.12628 0
M  V30 12 H 0.606 5.14762 1.00601 0
M  V30 13 H 2.08 4.82293 2.6851 0
M  V30 14 H 2.557 3.16527 3.04479 0
M  V30 15 H 3.163 3.95276 1.56962 0
M  V30 16 N 1.4781 -0.272755 1.55222 0
M  V30 17 C 2.7061 -1.02255 1.79865 0
M  V30 18 C 3.1211 -1.79924 0.572088 0
M  V30 19 O 2.4781 -1.76638 -0.458842 0
M  V30 20 C 2.5291 -1.98094 3.02392 0
M  V30 21 O 2.2501 -1.23572 4.20311 0
M  V30 22 C 3.7511 -2.84884 3.39641 0
M  V30 23 H 0.9711 -0.302057 0.599168 0
M  V30 24 H 3.5151 -0.303465 2.02236 0
M  V30 25 H 1.6701 -2.65465 2.82147 0
M  V30 26 H 2.0841 -1.88172 4.89583 0
M  V30 27 H 3.5581 -3.47927 4.28545 0
M  V30 28 H 4.0351 -3.54665 2.59055 0
M  V30 29 H 4.6411 -2.23003 3.62146 0
M  V30 30 N 2.9562 -1.48159 -0.537278 0
M  V30 31 C 4.2022 -1.56035 -1.29541 0
M  V30 32 C 4.5352 -0.230377 -1.92829 0
M  V30 33 O 3.8102 0.762952 -1.78911 0
M  V30 34 C 4.0932 -2.69323 -2.39034 0
M  V30 35 C 3.9462 -4.12002 -1.80485 0
M  V30 36 C 5.2652 -2.78408 -3.40847 0
M  V30 37 H 2.3842 -0.567992 -0.469632 0
M  V30 38 H 5.0262 -1.80302 -0.599277 0
M  V30 39 H 3.1762 -2.48763 -2.98412 0
M  V30 40 H 4.8482 -4.43981 -1.25215 0
M  V30 41 H 3.0912 -4.19344 -1.11055 0
M  V30 42 H 3.7622 -4.87077 -2.59731 0
M  V30 43 H 6.2382 -2.97012 -2.91416 0
M  V30 44 H 5.1142 -3.59416 -4.14863 0
M  V30 45 H 5.3752 -1.86269 -4.00944 0
M  V30 46 N 4.4343 0.785586 -1.36625 0
M  V30 47 C 5.3823 1.91978 -1.31329 0
M  V30 48 C 6.3763 1.68162 -0.204416 0
M  V30 49 O 7.5823 1.76122 -0.371645 0
M  V30 50 H 3.9573 0.631087 -0.408942 0
M  V30 51 H 5.9283 1.93562 -2.27104 0
M  V30 52 C 4.6773 3.29055 -1.12329 0
M  V30 53 H 4.0003 3.4795 -1.96903 0
M  V30 54 H 5.4403 4.08756 -1.12671 0
M  V30 55 C 3.8993 3.36461 0.171861 0
M  V30 56 O 4.4293 3.84576 1.16035 0
M  V30 57 N 2.6353 2.89782 0.217846 0
M  V30 58 H 2.1823 2.50819 -0.587183 0
M  V30 59 H 2.1403 2.95119 1.08408 0
M  V30 60 N 5.9124 1.20967 1.01018 0
M  V30 61 C 6.8224 0.980157 2.13143 0
M  V30 62 C 7.8384 -0.0660665 1.73875 0
M  V30 63 O 9.0144 0.122821 2.01025 0
M  V30 64 C 6.0794 0.54216 3.42435 0
M  V30 65 C 5.1404 1.65999 3.95908 0
M  V30 66 C 4.3734 1.2428 5.19028 0
M  V30 67 O 4.5964 0.114196 5.70286 0
M  V30 68 O 3.5304 2.05271 5.65816 0
M  V30 69 H 7.3564 1.91913 2.35379 0
M  V30 70 H 4.9414 0.994099 1.11526 0
M  V30 71 H 6.8234 0.30744 4.20277 0
M  V30 72 H 5.4984 -0.36815 3.216 0
M  V30 73 H 4.4054 1.94906 3.19316 0
M  V30 74 H 5.7384 2.54753 4.21143 0
M  V30 75 N 7.3905 -1.2043 1.01659 0
M  V30 76 C 8.6185 -1.93777 0.725132 0
M  V30 77 C 9.0335 -1.74772 -0.714166 0
M  V30 78 O 8.3905 -1.06169 -1.4844 0
M  V30 79 C 8.4415 -3.45876 1.05129 0
M  V30 80 O 8.1625 -3.6426 2.43406 0
M  V30 81 C 9.6635 -4.36368 0.780891 0
M  V30 82 H 6.8835 -0.615901 0.266284 0
M  V30 83 H 9.4275 -1.52922 1.35776 0
M  V30 84 H 7.5825 -3.8461 0.464065 0
M  V30 85 H 7.9965 -4.58246 2.55169 0
M  V30 86 H 9.4705 -5.41743 1.05918 0
M  V30 87 H 9.9475 -4.38275 -0.284937 0
M  V30 88 H 10.5535 -4.03296 1.35027 0
M  V30 89 N 8.8686 -0.792821 -1.36206 0
M  V30 90 C 10.0966 -0.378825 -2.03402 0
M  V30 91 C 10.5116 1.00586 -1.59774 0
M  V30 92 O 9.8686 1.64574 -0.788764 0
M  V30 93 C 9.9196 -0.43683 -3.58851 0
M  V30 94 O 9.6406 -1.76691 -4.00889 0
M  V30 95 C 11.1416 -0.0138943 -4.43298 0
M  V30 96 H 8.3616 -0.155673 -0.652692 0
M  V30 97 H 10.9056 -1.07261 -1.74113 0
M  V30 98 H 9.0606 0.208575 -3.86838 0
M  V30 99 H 9.4746 -1.72011 -4.95492 0
M  V30 100 H 10.9486 -0.105615 -5.51899 0
M  V30 101 H 11.4256 1.03915 -4.2673 0
M  V30 102 H 12.0316 -0.63192 -4.20579 0
M  V30 103 N 10.3467 1.47872 -0.545128 0
M  V30 104 C 11.7577 1.86384 -0.108581 0
M  V30 105 C 12.1087 1.45309 1.31832 0
M  V30 106 O 11.2337 0.850641 1.9898 0
M  V30 107 C 11.8287 3.38265 -0.190274 0
M  V30 108 C 10.3877 3.75914 0.191164 0
M  V30 109 C 9.5347 2.71926 -0.543273 0
M  V30 110 H 12.4857 1.39561 -0.755537 0
M  V30 111 H 12.5067 3.75831 0.594217 0
M  V30 112 H 12.0187 3.6813 -1.2289 0
M  V30 113 H 10.1197 3.51665 1.23136 0
M  V30 114 H 10.2327 4.78836 -0.158987 0
M  V30 115 H 8.5967 2.54697 0.0122495 0
M  V30 116 H 9.3797 3.04634 -1.58282 0
M  V30 117 N 11.8248 0.280983 1.55075 0
M  V30 118 C 13.0738 -0.334784 1.98902 0
M  V30 119 C 13.3868 -1.56534 1.17288 0
M  V30 120 O 14.5928 -2.25443 1.51287 0
M  V30 121 C 13.0488 -0.646994 3.54037 0
M  V30 122 C 12.6568 0.564085 4.44435 0
M  V30 123 C 14.4008 -1.22506 4.06439 0
M  V30 124 C 12.3078 0.226137 5.90967 0
M  V30 125 H 11.2378 -0.128866 0.742906 0
M  V30 126 H 13.8888 0.386556 1.79382 0
M  V30 127 H 12.2708 -1.42739 3.6938 0
M  V30 128 H 13.4448 1.34082 4.40861 0
M  V30 129 H 11.7598 1.0594 4.02698 0
M  V30 130 H 14.3568 -1.49182 5.13468 0
M  V30 131 H 14.6998 -2.16085 3.55827 0
M  V30 132 H 15.2328 -0.50682 3.94558 0
M  V30 133 H 11.9718 1.12996 6.45687 0
M  V30 134 H 11.4918 -0.513717 5.97596 0
M  V30 135 H 13.1708 -0.179539 6.46751 0
M  V30 136 N 13.3029 -1.57598 0.00835791 0
M  V30 137 C 14.2659 -2.07884 -0.965242 0
M  V30 138 C 15.2659 -0.989825 -1.26725 0
M  V30 139 O 16.4559 -1.25218 -1.21104 0
M  V30 140 C 13.5879 -2.52731 -2.28779 0
M  V30 141 H 14.7809 -2.95178 -0.530112 0
M  V30 142 H 12.3339 -1.54458 -0.239283 0
M  V30 143 H 13.0689 -1.68705 -2.76964 0
M  V30 144 H 12.8539 -3.32272 -2.08177 0
M  V30 145 H 14.3439 -2.91933 -2.98605 0
M  V30 146 N 14.781 0.264519 -1.55364 0
M  V30 147 C 16.192 0.834936 -1.6699 0
M  V30 148 C 16.543 1.86718 -0.602552 0
M  V30 149 O 15.668 2.14899 0.254425 0
M  V30 150 C 16.263 1.5212 -3.02729 0
M  V30 151 C 14.822 2.03954 -3.16354 0
M  V30 152 C 13.969 0.884498 -2.62815 0
M  V30 153 H 16.92 0.0406869 -1.58648 0
M  V30 154 H 16.941 2.38853 -2.96191 0
M  V30 155 H 16.453 0.769668 -3.80392 0
M  V30 156 H 14.554 2.82041 -2.43482 0
M  V30 157 H 14.667 2.24902 -4.23032 0
M  V30 158 H 13.031 1.2802 -2.20188 0
M  V30 159 H 13.814 0.14634 -3.42988 0
M  V30 160 N 16.2591 1.48442 0.529413 0
M  V30 161 C 17.2221 1.62524 1.61612 0
M  V30 162 C 18.2221 0.498509 1.52877 0
M  V30 163 O 19.4121 0.76431 1.56537 0
M  V30 164 C 16.5441 1.59597 3.01233 0
M  V30 165 H 17.7371 2.59423 1.50465 0
M  V30 166 H 15.2901 1.37047 0.751514 0
M  V30 167 H 16.0251 0.641781 3.17886 0
M  V30 168 H 15.8101 2.41397 3.08982 0
M  V30 169 H 17.3001 1.72646 3.80241 0
M  V30 170 N 17.7372 -0.778329 1.37039 0
M  V30 171 C 18.6842 -1.89139 1.32269 0
M  V30 172 C 19.6542 -1.65017 0.189387 0
M  V30 173 O 20.8392 -1.87024 0.377693 0
M  V30 174 C 17.9792 -3.26112 1.12894 0
M  V30 175 C 17.0922 -3.62233 2.35396 0
M  V30 176 C 16.2272 -4.8838 2.08946 0
M  V30 177 C 15.2662 -5.17212 3.2735 0
M  V30 178 N 14.4032 -6.34546 3.00492 0
M  V30 179 H 19.2432 -1.92552 2.27437 0
M  V30 180 H 16.7802 -0.941473 1.13025 0
M  V30 181 H 18.7382 -4.05116 0.996835 0
M  V30 182 H 17.3682 -3.22091 0.213758 0
M  V30 183 H 16.4202 -2.78265 2.5937 0
M  V30 184 H 17.7322 -3.79481 3.23721 0
M  V30 185 H 16.8862 -5.75274 1.92729 0
M  V30 186 H 15.6252 -4.73222 1.17949 0
M  V30 187 H 14.6302 -4.28796 3.44113 0
M  V30 188 H 15.8552 -5.34283 4.19188 0
M  V30 189 H 13.8012 -6.20759 2.12118 0
M  V30 190 H 13.7182 -6.52179 3.82358 0
M  V30 191 H 14.9862 -7.24394 2.87879 0
M  V30 192 N 19.2153 -1.21501 -1.00376 0
M  V30 193 C 20.4613 -1.03452 -1.74429 0
M  V30 194 C 20.7943 0.430764 -1.89362 0
M  V30 195 O 20.0693 1.31962 -1.42886 0
M  V30 196 C 20.3523 -1.73375 -3.15615 0
M  V30 197 C 20.2053 -3.27431 -3.08397 0
M  V30 198 C 21.5243 -1.47732 -4.14564 0
M  V30 199 H 18.6433 -0.377226 -0.633143 0
M  V30 200 H 21.2853 -1.49693 -1.17013 0
M  V30 201 H 19.4353 -1.34064 -3.64636 0
M  V30 202 H 21.1073 -3.76119 -2.67081 0
M  V30 203 H 19.3503 -3.5767 -2.45468 0
M  V30 204 H 20.0213 -3.71524 -4.08258 0
M  V30 205 H 22.4973 -1.8186 -3.74254 0
M  V30 206 H 21.3733 -1.99169 -5.11491 0
M  V30 207 H 21.6343 -0.407589 -4.40217 0
M  V30 208 N 20.6934 1.19889 -1.02296 0
M  V30 209 C 21.6234 2.25141 -0.619174 0
M  V30 210 C 22.6044 1.66051 0.368915 0
M  V30 211 O 23.7894 1.92546 0.252941 0
M  V30 212 C 20.9194 3.4728 0.0368783 0
M  V30 213 C 19.8734 4.19005 -0.872865 0
M  V30 214 C 19.1994 5.34637 -0.0822402 0
M  V30 215 C 20.4994 4.74452 -2.18387 0
M  V30 216 H 22.1934 2.59171 -1.49903 0
M  V30 217 H 19.7394 1.24579 -0.722222 0
M  V30 218 H 21.6924 4.20098 0.330958 0
M  V30 219 H 20.4164 3.12433 0.95149 0
M  V30 220 H 19.0754 3.48061 -1.15105 0
M  V30 221 H 18.7234 4.96034 0.83422 0
M  V30 222 H 18.4234 5.83557 -0.688149 0
M  V30 223 H 19.9474 6.10255 0.205238 0
M  V30 224 H 21.3614 5.39055 -1.95172 0
M  V30 225 H 19.7584 5.33834 -2.74119 0
M  V30 226 H 20.8284 3.92844 -2.84257 0
M  V30 227 N 22.1715 0.800033 1.35784 0
M  V30 228 C 23.5825 0.439142 1.81462 0
M  V30 229 C 23.9335 -1.03813 1.66485 0
M  V30 230 O 23.0585 -1.80626 1.19177 0
M  V30 231 C 23.6535 0.790314 3.29453 0
M  V30 232 C 22.2125 0.482111 3.733 0
M  V30 233 C 21.3595 1.01938 2.57883 0
M  V30 234 H 24.3105 0.992254 1.23855 0
M  V30 235 H 24.3315 0.0853677 3.80404 0
M  V30 236 H 23.8435 1.86554 3.40322 0
M  V30 237 H 21.9445 -0.584652 3.67984 0
M  V30 238 H 22.0575 1.01015 4.6833 0
M  V30 239 H 20.4215 0.442043 2.50835 0
M  V30 240 H 21.2045 2.10059 2.71533 0
M  V30 241 N 23.6496 -1.47581 0.552962 0
M  V30 242 C 24.9266 -1.95563 -0.0381515 0
M  V30 243 C 25.3066 -1.49552 -1.48988 0
M  V30 244 O 24.6546 -0.732414 -2.16444 0
M  V30 245 C 24.8646 -3.48848 0.102919 0
M  V30 246 C 26.2126 -4.24577 -0.0446082 0
M  V30 247 O 27.2366 -3.56187 0.0302548 0
M  V30 248 O 26.0956 -5.46116 -0.204923 0
M  V30 249 H 23.1896 -0.824321 -0.0665067 0
M  V30 250 H 25.7356 -1.58001 0.619186 0
M  V30 251 H 24.5076 -3.75129 1.11328 0
M  V30 252 H 24.1306 -3.93165 -0.592224 0
M  V30 253 N 25.1277 -0.289203 -1.54924 0
M  V30 254 C 26.0907 0.579144 -2.21762 0
M  V30 255 C 27.0907 1.07047 -1.1999 0
M  V30 256 O 28.2807 0.968384 -1.44803 0
M  V30 257 C 25.4127 1.80055 -2.8947 0
M  V30 258 H 26.6057 -0.00464908 -2.999 0
M  V30 259 H 24.1587 -0.0399306 -1.56249 0
M  V30 260 H 24.8937 2.42449 -2.15381 0
M  V30 261 H 24.6787 1.45602 -3.64064 0
M  V30 262 H 26.1687 2.41773 -3.40493 0
M  V30 263 N 26.6058 1.57591 -0.0167156 0
M  V30 264 C 27.5378 2.06343 0.997753 0
M  V30 265 C 28.5508 0.984469 1.29661 0
M  V30 266 O 29.7398 1.26093 1.26344 0
M  V30 267 C 26.8398 2.46255 2.32834 0
M  V30 268 C 26.0128 3.77083 2.21646 0
M  V30 269 C 25.0718 4.0368 3.37534 0
M  V30 270 O 24.0978 4.7411 3.14973 0
M  V30 271 N 25.2998 3.52881 4.60929 0
M  V30 272 H 28.0648 2.93997 0.581875 0
M  V30 273 H 25.6258 1.61002 0.170316 0
M  V30 274 H 27.6178 2.61149 3.09166 0
M  V30 275 H 26.1878 1.64032 2.66106 0
M  V30 276 H 25.4078 3.72106 1.30119 0
M  V30 277 H 26.6958 4.62822 2.11361 0
M  V30 278 H 26.0938 2.95878 4.82154 0
M  V30 279 H 24.6508 3.73076 5.34469 0
M  V30 280 N 28.0839 -0.256276 1.55502 0
M  V30 281 C 29.3119 -1.00342 1.8094 0
M  V30 282 C 29.7269 -1.79307 0.59114 0
M  V30 283 O 29.0839 -1.77114 -0.440081 0
M  V30 284 C 29.1349 -1.94875 3.04476 0
M  V30 285 O 28.8559 -1.19107 4.21598 0
M  V30 286 C 30.3569 -2.81266 3.42644 0
M  V30 287 H 27.5769 -0.295685 0.602338 0
M  V30 288 H 30.1209 -0.281998 2.02546 0
M  V30 289 H 28.2759 -2.62457 2.84947 0
M  V30 290 H 28.6899 -1.82969 4.91551 0
M  V30 291 H 30.1639 -3.43362 4.32211 0
M  V30 292 H 30.6409 -3.51897 2.62802 0
M  V30 293 H 31.2469 -2.1915 3.64491 0
M  V30 294 N 29.562 -1.4872 -0.521534 0
M  V30 295 C 30.808 -1.574 -1.27879 0
M  V30 296 C 31.141 -0.250817 -1.92573 0
M  V30 297 O 30.416 0.743934 -1.79711 0
M  V30 298 C 30.699 -2.71843 -2.36164 0
M  V30 299 C 30.552 -4.13893 -1.76105 0
M  V30 300 C 31.871 -2.82008 -3.37875 0
M  V30 301 H 28.99 -0.572941 -0.463581 0
M  V30 302 H 31.632 -1.80927 -0.580119 0
M  V30 303 H 29.782 -2.51914 -2.95756 0
M  V30 304 H 31.454 -4.45284 -1.20499 0
M  V30 305 H 29.697 -4.20498 -1.06601 0
M  V30 306 H 30.368 -4.89804 -2.5455 0
M  V30 307 H 32.844 -3.00086 -2.88249 0
M  V30 308 H 31.72 -3.63796 -4.11028 0
M  V30 309 H 31.981 -1.90511 -3.98946 0
M  V30 310 N 31.0401 0.771051 -1.3745 0
M  V30 311 C 32.2681 1.56015 -1.35893 0
M  V30 312 C 32.6831 1.88718 0.0555523 0
M  V30 313 O 32.0401 1.51502 1.01752 0
M  V30 314 C 32.0911 2.87001 -2.19801 0
M  V30 315 O 31.8121 2.557 -3.55738 0
M  V30 316 C 33.3131 3.81228 -2.26231 0
M  V30 317 H 30.5331 0.483317 -0.465453 0
M  V30 318 H 33.0771 0.955611 -1.80799 0
M  V30 319 H 31.2321 3.43877 -1.78402 0
M  V30 320 H 31.6461 3.39584 -3.99729 0
M  V30 321 H 33.1201 4.70139 -2.89263 0
M  V30 322 H 33.5971 4.20409 -1.27093 0
M  V30 323 H 34.2031 3.30281 -2.67945 0
M  V30 324 N 32.5182 1.22032 0.997298 0
M  V30 325 C 33.7432 1.06921 1.77715 0
M  V30 326 C 34.1682 -0.376226 1.84299 0
M  V30 327 O 33.5262 -1.27165 1.29223 0
M  V30 328 C 33.5742 1.67996 3.19076 0
M  V30 329 O 32.6782 0.930653 4.01762 0
M  V30 330 H 32.0192 0.375814 0.547412 0
M  V30 331 H 34.5492 1.61737 1.25309 0
M  V30 332 H 34.5592 1.72538 3.69723 0
M  V30 333 H 33.2342 2.73182 3.13599 0
M  V30 334 H 31.8112 0.960917 3.60307 0
M  V30 335 N 33.9963 -1.19345 1.0293 0
M  V30 336 C 35.2423 -1.89318 0.727083 0
M  V30 337 C 35.5753 -1.79446 -0.742483 0
M  V30 338 O 34.8503 -1.1871 -1.54072 0
M  V30 339 C 35.1333 -3.40238 1.17942 0
M  V30 340 C 34.9863 -3.58979 2.71024 0
M  V30 341 C 36.3053 -4.33479 0.760548 0
M  V30 342 H 33.4243 -0.687475 0.265606 0
M  V30 343 H 36.0663 -1.40477 1.2793 0
M  V30 344 H 34.2163 -3.81964 0.709608 0
M  V30 345 H 35.8883 -3.26421 3.25955 0
M  V30 346 H 34.1313 -3.02018 3.11396 0
M  V30 347 H 34.8023 -4.64823 2.9773 0
M  V30 348 H 37.2783 -3.99469 1.16464 0
M  V30 349 H 36.1543 -5.37664 1.10493 0
M  V30 350 H 36.4153 -4.40813 -0.337063 0
M  V30 351 N 35.4744 -0.807222 -1.35358 0
M  V30 352 C 36.8904 -0.491038 -1.51858 0
M  V30 353 C 37.0904 0.987648 -1.75635 0
M  V30 354 O 36.1464 1.77265 -1.79815 0
M  V30 355 C 37.4594 -1.33695 -2.69344 0
M  V30 356 C 39.0074 -1.33246 -2.83222 0
M  V30 357 C 39.4824 -2.1625 -4.03733 0
M  V30 358 N 40.9734 -2.1379 -4.10911 0
M  V30 359 C 41.7084 -2.74772 -5.03277 0
M  V30 360 N 41.2044 -3.44684 -6.0097 0
M  V30 361 N 42.9974 -2.6441 -4.96028 0
M  V30 362 H 35.1484 -1.76485 -1.18181 0
M  V30 363 H 37.4114 -0.751199 -0.578276 0
M  V30 364 H 37.1174 -2.38634 -2.58354 0
M  V30 365 H 36.9914 -0.990618 -3.6396 0
M  V30 366 H 39.3784 -0.290911 -2.93663 0
M  V30 367 H 39.4594 -1.71866 -1.89461 0
M  V30 368 H 39.1034 -3.20445 -3.94052 0
M  V30 369 H 39.0334 -1.74989 -4.96675 0
M  V30 370 H 41.5244 -1.62923 -3.40976 0
M  V30 371 H 41.8374 -3.88501 -6.68047 0
M  V30 372 H 40.1824 -3.48788 -6.01142 0
M  V30 373 H 43.3734 -2.0938 -4.18662 0
M  V30 374 H 43.5464 -3.12225 -5.6782 0
M  V30 375 N 36.9525 1.47285 -0.560781 0
M  V30 376 C 37.9025 2.27073 0.205384 0
M  V30 377 C 38.8865 1.34569 0.882044 0
M  V30 378 O 40.0785 1.58899 0.77976 0
M  V30 379 C 37.2075 3.20414 1.23247 0
M  V30 380 C 36.2935 4.20399 0.559041 0
M  V30 381 N 36.6845 5.04423 -0.372927 0
M  V30 382 C 34.9825 4.38536 0.812522 0
M  V30 383 C 35.6835 5.76655 -0.764446 0
M  V30 384 N 34.6595 5.43471 -0.11848 0
M  V30 385 H 38.4615 2.89422 -0.511117 0
M  V30 386 H 35.9755 1.57868 -0.380975 0
M  V30 387 H 37.9725 3.76262 1.79534 0
M  V30 388 H 36.6325 2.59623 1.95002 0
M  V30 389 H 37.6435 5.1248 -0.747287 0
M  V30 390 H 34.3205 3.88913 1.51832 0
M  V30 391 H 35.7105 6.54238 -1.53045 0
M  V30 392 N 38.4306 0.297415 1.54768 0
M  V30 393 C 39.6766 -0.306263 2.01081 0
M  V30 394 C 40.0316 -1.518 1.18214 0
M  V30 395 O 39.3246 -1.89967 0.249613 0
M  V30 396 C 39.5186 -0.717561 3.50123 0
M  V30 397 C 39.3476 0.45277 4.47415 0
M  V30 398 C 38.1176 0.943651 4.9641 0
M  V30 399 C 40.3156 1.29657 4.97688 0
M  V30 400 N 38.2976 2.08112 5.77549 0
M  V30 401 C 39.6686 2.28158 5.76493 0
M  V30 402 C 41.7236 1.32735 4.79881 0
M  V30 403 C 40.4266 3.29509 6.39387 0
M  V30 404 C 42.4526 2.32943 5.43591 0
M  V30 405 C 41.8146 3.30174 6.22225 0
M  V30 406 H 37.9136 -0.0766274 0.778237 0
M  V30 407 H 40.4976 0.426515 1.89971 0
M  V30 408 H 38.6686 -1.41952 3.6153 0
M  V30 409 H 40.4006 -1.30047 3.83236 0
M  V30 410 H 37.1556 0.51922 4.70745 0
M  V30 411 H 37.5796 2.65414 6.22803 0
M  V30 412 H 42.2216 0.589375 4.18672 0
M  V30 413 H 39.9396 4.04228 6.99732 0
M  V30 414 H 43.5256 2.36094 5.31743 0
M  V30 415 H 42.4056 4.06445 6.7065 0
M  V30 416 N 39.9087 -1.5758 0.0250728 0
M  V30 417 C 41.1367 -1.9593 -0.664747 0
M  V30 418 C 41.5517 -0.901352 -1.65895 0
M  V30 419 O 40.9087 0.117255 -1.82123 0
M  V30 420 C 40.9597 -3.34342 -1.37468 0
M  V30 421 O 40.6807 -4.36079 -0.420324 0
M  V30 422 C 42.1817 -3.873 -2.1567 0
M  V30 423 H 39.4017 -0.645405 -0.183557 0
M  V30 424 H 41.9457 -2.04329 0.0836372 0
M  V30 425 H 40.1007 -3.27175 -2.0745 0
M  V30 426 H 40.5147 -5.16297 -0.923991 0
M  V30 427 H 41.9887 -4.86504 -2.60803 0
M  V30 428 H 42.4657 -3.21331 -2.99405 0
M  V30 429 H 43.0717 -3.97723 -1.50654 0
M  V30 430 N 41.3868 0.248026 -1.55636 0
M  V30 431 C 42.6638 0.998988 -1.68165 0
M  V30 432 C 43.0438 2.03409 -0.564621 0
M  V30 433 O 42.3918 2.24378 0.432076 0
M  V30 434 C 42.6018 1.63334 -3.0842 0
M  V30 435 C 43.9498 2.13562 -3.66983 0
M  V30 436 O 44.9738 1.73277 -3.11213 0
M  V30 437 O 43.8328 2.87526 -4.64749 0
M  V30 438 H 40.9268 0.464933 -0.683935 0
M  V30 439 H 43.4728 0.241902 -1.67967 0
M  V30 440 H 42.2448 0.884583 -3.8117 0
M  V30 441 H 41.8678 2.45666 -3.12624 0
M  V30 442 N 42.8649 1.48995 0.513639 0
M  V30 443 C 44.0929 1.61531 1.29288 0
M  V30 444 C 44.5079 0.281801 1.86685 0
M  V30 445 O 43.8649 -0.731111 1.67215 0
M  V30 446 C 43.9159 2.67449 2.43215 0
M  V30 447 O 43.6369 3.95626 1.88179 0
M  V30 448 C 45.1379 2.90575 3.34785 0
M  V30 449 H 42.3579 0.544165 0.392588 0
M  V30 450 H 44.9019 1.9494 0.617956 0
M  V30 451 H 43.0569 2.36853 3.0656 0
M  V30 452 H 43.4709 4.53868 2.62876 0
M  V30 453 H 44.9449 3.68449 4.11035 0
M  V30 454 H 45.4219 2.00011 3.91015 0
M  V30 455 H 46.0279 3.22538 2.77218 0
M  V30 456 N 44.343 -0.763751 1.37857 0
M  V30 457 C 45.273 -1.89103 1.36975 0
M  V30 458 C 46.254 -1.68439 0.237152 0
M  V30 459 O 47.439 -1.8918 0.438713 0
M  V30 460 C 44.569 -3.26496 1.18395 0
M  V30 461 C 43.523 -3.61741 2.28751 0
M  V30 462 C 42.849 -4.97762 1.95286 0
M  V30 463 C 44.149 -3.67665 3.70972 0
M  V30 464 H 45.843 -1.90099 2.31307 0
M  V30 465 H 43.389 -0.91319 1.11341 0
M  V30 466 H 45.342 -4.05003 1.16406 0
M  V30 467 H 44.066 -3.25955 0.205215 0
M  V30 468 H 42.725 -2.85547 2.29909 0
M  V30 469 H 42.373 -4.93769 0.959221 0
M  V30 470 H 42.073 -5.22313 2.69189 0
M  V30 471 H 43.597 -5.7866 1.94898 0
M  V30 472 H 45.011 -4.36307 3.719 0
M  V30 473 H 43.408 -4.03718 4.43995 0
M  V30 474 H 44.478 -2.68134 4.0402 0
M  V30 475 N 45.8211 -1.22559 -0.990812 0
M  V30 476 C 47.0681 -1.05141 -1.73065 0
M  V30 477 C 47.3961 0.413191 -1.9006 0
M  V30 478 O 46.6511 1.32257 -1.44245 0
M  V30 479 C 46.9501 -1.71011 -3.13831 0
M  V30 480 C 46.6161 -3.20911 -3.16745 0
M  V30 481 C 45.2781 -3.61812 -3.17247 0
M  V30 482 C 47.6301 -4.16846 -3.12872 0
M  V30 483 C 44.9581 -4.97127 -3.1158 0
M  V30 484 C 47.3101 -5.5214 -3.08746 0
M  V30 485 C 45.9741 -5.92419 -3.07565 0
M  V30 486 H 45.2441 -0.384738 -0.633291 0
M  V30 487 H 47.8911 -1.5235 -1.16025 0
M  V30 488 H 46.1961 -1.16133 -3.74193 0
M  V30 489 H 47.8931 -1.55023 -3.69823 0
M  V30 490 H 44.4831 -2.88344 -3.17105 0
M  V30 491 H 48.6671 -3.86263 -3.11632 0
M  V30 492 H 43.9231 -5.27562 -3.09012 0
M  V30 493 H 48.0971 -6.26201 -3.04705 0
M  V30 494 H 45.7241 -6.97236 -3.02929 0
M  V30 495 N 47.2992 1.18797 -1.03562 0
M  V30 496 C 48.5242 1.9314 -0.755764 0
M  V30 497 C 48.9492 1.7537 0.68022 0
M  V30 498 O 48.3072 1.06046 1.47051 0
M  V30 499 C 48.3552 3.42747 -1.12058 0
M  V30 500 O 47.4592 4.11683 -0.243124 0
M  V30 501 H 46.8002 0.602724 -0.278604 0
M  V30 502 H 49.3302 1.50678 -1.3841 0
M  V30 503 H 49.3402 3.93437 -1.08035 0
M  V30 504 H 48.0152 3.55002 -2.16672 0
M  V30 505 H 46.5922 3.71323 -0.342539 0
M  V30 506 N 48.7773 0.814389 1.34928 0
M  V30 507 C 50.0243 0.398423 1.98542 0
M  V30 508 C 50.3523 -1.03638 1.64589 0
M  V30 509 O 49.6073 -1.73509 0.90516 0
M  V30 510 C 49.9063 0.537781 3.53331 0
M  V30 511 C 49.5723 1.93704 4.07172 0
M  V30 512 C 48.2343 2.31984 4.21589 0
M  V30 513 C 50.5863 2.85213 4.36237 0
M  V30 514 C 47.9143 3.61125 4.62391 0
M  V30 515 C 50.2663 4.13809 4.78482 0
M  V30 516 C 48.9303 4.52077 4.91104 0
M  V30 517 H 48.2003 0.145793 0.726516 0
M  V30 518 H 50.8473 1.03669 1.61012 0
M  V30 519 H 49.1523 -0.183906 3.91368 0
M  V30 520 H 50.8493 0.196588 4.00518 0
M  V30 521 H 47.4393 1.62966 3.96409 0
M  V30 522 H 51.6233 2.56885 4.24645 0
M  V30 523 H 46.8793 3.90612 4.70353 0
M  V30 524 H 51.0533 4.84811 4.99932 0
M  V30 525 H 48.6803 5.52196 5.22478 0
M  V30 526 N 50.2554 -1.46986 0.568584 0
M  V30 527 C 51.6714 -1.57946 0.229189 0
M  V30 528 C 51.8714 -1.56567 -1.26843 0
M  V30 529 O 50.9274 -1.47511 -2.04931 0
M  V30 530 C 52.2404 -2.87963 0.865909 0
M  V30 531 C 53.7884 -3.01568 0.838188 0
M  V30 532 C 54.2634 -4.34301 1.45419 0
M  V30 533 N 55.7544 -4.40965 1.41788 0
M  V30 534 C 56.4894 -5.42256 1.86403 0
M  V30 535 N 55.9854 -6.50297 2.38926 0
M  V30 536 N 57.7784 -5.3337 1.77405 0
M  V30 537 H 49.9294 -1.46126 1.54146 0
M  V30 538 H 52.1924 -0.696156 0.643484 0
M  V30 539 H 51.8984 -2.94742 1.91886 0
M  V30 540 H 51.7724 -3.75423 0.365687 0
M  V30 541 H 54.1594 -2.94379 -0.206106 0
M  V30 542 H 54.2404 -2.1562 1.37629 0
M  V30 543 H 53.8844 -4.42247 2.49761 0
M  V30 544 H 53.8144 -5.19 0.891435 0
M  V30 545 H 56.3054 -3.63484 1.03381 0
M  V30 546 H 56.6184 -7.23777 2.70863 0
M  V30 547 H 54.9634 -6.51155 2.42944 0
M  V30 548 H 58.1544 -4.47865 1.3614 0
M  V30 549 H 58.3274 -6.12169 2.12492 0
M  V30 550 N 51.7335 -0.305618 -1.54608 0
M  V30 551 C 52.9795 0.302746 -2.00528 0
M  V30 552 C 53.3125 1.53184 -1.19367 0
M  V30 553 O 52.5875 1.92598 -0.271321 0
M  V30 554 C 52.8705 0.654756 -3.54097 0
M  V30 555 C 52.7235 -0.583793 -4.45995 0
M  V30 556 C 54.0425 1.47947 -4.14487 0
M  V30 557 H 51.1615 0.108564 -0.72896 0
M  V30 558 H 53.8035 -0.418634 -1.85331 0
M  V30 559 H 51.9535 1.26935 -3.67178 0
M  V30 560 H 53.6255 -1.22224 -4.44814 0
M  V30 561 H 51.8685 -1.21615 -4.16404 0
M  V30 562 H 52.5395 -0.293287 -5.5122 0
M  V30 563 H 55.0155 0.96013 -4.04871 0
M  V30 564 H 53.8915 1.69454 -5.22088 0
M  V30 565 H 54.1525 2.47011 -3.66658 0
M  V30 566 N 53.2116 1.57565 -0.0334293 0
M  V30 567 C 54.4396 1.9628 0.654347 0
M  V30 568 C 54.8546 0.910138 1.65414 0
M  V30 569 O 54.2116 -0.107595 1.82183 0
M  V30 570 C 54.2626 3.35067 1.35693 0
M  V30 571 O 53.9836 4.36296 0.397191 0
M  V30 572 C 55.4846 3.88439 2.13613 0
M  V30 573 H 52.7046 0.646369 0.180132 0
M  V30 574 H 55.2486 2.04282 -0.0944721 0
M  V30 575 H 53.4036 3.2827 2.05712 0
M  V30 576 H 53.8176 5.1678 0.896597 0
M  V30 577 H 55.2916 4.8788 2.58219 0
M  V30 578 H 55.7686 3.22914 2.97696 0
M  V30 579 H 56.3746 3.98516 1.48543 0
M  V30 580 N 54.6897 -0.239769 1.55765 0
M  V30 581 C 56.1057 -0.588624 1.48349 0
M  V30 582 C 56.3057 -1.88005 0.72502 0
M  V30 583 O 55.3617 -2.51186 0.257269 0
M  V30 584 C 56.6747 -0.68474 2.928 0
M  V30 585 C 58.2227 -0.77659 3.03213 0
M  V30 586 C 58.6977 -0.904207 4.48986 0
M  V30 587 N 60.1887 -0.968896 4.52953 0
M  V30 588 C 60.9237 -1.08703 5.63002 0
M  V30 589 N 60.4197 -1.17026 6.82845 0
M  V30 590 N 62.2127 -1.12074 5.50814 0
M  V30 591 H 54.3637 0.607911 2.03515 0
M  V30 592 H 56.6267 0.21083 0.924259 0
M  V30 593 H 56.3327 0.194284 3.51163 0
M  V30 594 H 56.2067 -1.55435 3.43686 0
M  V30 595 H 58.5937 -1.64606 2.44926 0
M  V30 596 H 58.6747 0.118315 2.55526 0
M  V30 597 H 58.3187 -0.0392633 5.07885 0
M  V30 598 H 58.2487 -1.81426 4.9436 0
M  V30 599 H 60.7397 -0.915633 3.6664 0
M  V30 600 H 61.0527 -1.25966 7.62465 0
M  V30 601 H 59.3977 -1.13971 6.85591 0
M  V30 602 H 62.5887 -1.05226 4.5612 0
M  V30 603 H 62.7617 -1.20936 6.36615 0
M  V30 604 N 56.1678 -1.49265 -0.50573 0
M  V30 605 C 57.5788 -1.51769 -1.08734 0
M  V30 606 C 57.9298 -0.301192 -1.93874 0
M  V30 607 O 57.0548 0.589456 -2.08217 0
M  V30 608 C 57.6498 -2.75017 -1.97867 0
M  V30 609 C 56.2088 -2.80314 -2.51199 0
M  V30 610 C 55.3558 -2.4562 -1.28709 0
M  V30 611 H 58.3068 -1.56031 -0.289855 0
M  V30 612 H 58.3278 -2.5491 -2.82491 0
M  V30 613 H 57.8398 -3.63539 -1.35873 0
M  V30 614 H 55.9408 -1.96061 -3.16845 0
M  V30 615 H 56.0538 -3.82366 -2.88675 0
M  V30 616 H 54.4178 -1.97297 -1.61078 0
M  V30 617 H 55.2008 -3.36411 -0.6843 0
M  V30 618 N 57.6459 0.756429 -1.3826 0
M  V30 619 C 58.5779 1.87971 -1.31147 0
M  V30 620 C 59.5909 1.61248 -0.224239 0
M  V30 621 O 60.7799 1.71881 -0.481581 0
M  V30 622 C 57.8799 3.23545 -1.00857 0
M  V30 623 C 57.0529 3.77794 -2.20432 0
M  V30 624 C 56.1119 4.91877 -1.86931 0
M  V30 625 O 55.1379 5.06659 -2.59395 0
M  V30 626 N 56.3399 5.74643 -0.822568 0
M  V30 627 H 59.1049 1.94585 -2.2794 0
M  V30 628 H 56.6659 0.936234 -1.32084 0
M  V30 629 H 58.6579 3.97403 -0.765021 0
M  V30 630 H 57.2279 3.12335 -0.128687 0
M  V30 631 H 56.4479 2.95534 -2.6087 0
M  V30 632 H 57.7359 4.10771 -3.00241 0
M  V30 633 H 57.1339 5.65266 -0.221575 0
M  V30 634 H 55.6909 6.48661 -0.638899 0
M  V30 635 N 59.124 1.23083 0.984299 0
M  V30 636 C 60.352 1.08714 1.76037 0
M  V30 637 C 60.767 -0.361691 1.85303 0
M  V30 638 O 60.124 -1.25034 1.32939 0
M  V30 639 C 60.175 1.70206 3.18923 0
M  V30 640 O 59.896 3.09423 3.10144 0
M  V30 641 C 61.397 1.61227 4.12941 0
M  V30 642 H 58.617 0.380664 0.552572 0
M  V30 643 H 61.161 1.62853 1.23689 0
M  V30 644 H 59.316 1.20109 3.6831 0
M  V30 645 H 59.73 3.39188 4.00065 0
M  V30 646 H 61.204 2.08962 5.10919 0
M  V30 647 H 61.681 0.570375 4.35481 0
M  V30 648 H 62.287 2.10671 3.69456 0
M  V30 649 N 60.6021 -1.18246 1.0419 0
M  V30 650 C 61.5321 -2.24127 0.654914 0
M  V30 651 C 62.5131 -1.66617 -0.342451 0
M  V30 652 O 63.6981 -1.92924 -0.222277 0
M  V30 653 C 60.8281 -3.47295 0.0183757 0
M  V30 654 C 59.7821 -4.17563 0.939414 0
M  V30 655 C 59.1081 -5.34438 0.167286 0
M  V30 656 C 60.4081 -4.70917 2.25908 0
M  V30 657 H 62.1021 -2.56753 1.54007 0
M  V30 658 H 59.6481 -1.23414 0.74195 0
M  V30 659 H 61.6011 -4.20572 -0.264082 0
M  V30 660 H 60.3251 -3.13907 -0.901664 0
M  V30 661 H 58.9841 -3.46186 1.20628 0
M  V30 662 H 58.6321 -4.97298 -0.7552 0
M  V30 663 H 58.3321 -5.82388 0.780901 0
M  V30 664 H 59.8561 -6.10504 -0.108125 0
M  V30 665 H 61.2701 -5.35882 2.03724 0
M  V30 666 H 59.6671 -5.29406 2.82577 0
M  V30 667 H 60.7371 -3.88272 2.9047 0
M  V30 668 N 62.0802 -0.821533 -1.34494 0
M  V30 669 C 63.4962 -0.507117 -1.51329 0
M  V30 670 C 63.6962 0.968964 -1.76673 0
M  V30 671 O 62.7522 1.75348 -1.81685 0
M  V30 672 C 64.0652 -1.36544 -2.67911 0
M  V30 673 C 65.6132 -1.36242 -2.81793 0
M  V30 674 C 66.0882 -2.2052 -4.01416 0
M  V30 675 N 67.5792 -2.18136 -4.08621 0
M  V30 676 C 68.3142 -2.80095 -5.00334 0
M  V30 677 N 67.8102 -3.51039 -5.9728 0
M  V30 678 N 69.6032 -2.69656 -4.93196 0
M  V30 679 H 61.7542 -1.77729 -1.16302 0
M  V30 680 H 64.0172 -0.757291 -0.570276 0
M  V30 681 H 63.7232 -2.41361 -2.55808 0
M  V30 682 H 63.5972 -1.02917 -3.62888 0
M  V30 683 H 65.9842 -0.322041 -2.93338 0
M  V30 684 H 66.0652 -1.73866 -1.87628 0
M  V30 685 H 65.7092 -3.24607 -3.90631 0
M  V30 686 H 65.6392 -1.80247 -4.94791 0
M  V30 687 H 68.1302 -1.6653 -3.39229 0
M  V30 688 H 68.4432 -3.95565 -6.63889 0
M  V30 689 H 66.7882 -3.55145 -5.97409 0
M  V30 690 H 69.9792 -2.13808 -4.16418 0
M  V30 691 H 70.1522 -3.1823 -5.64476 0
M  V30 692 N 63.5583 1.46682 -0.576371 0
M  V30 693 C 64.8053 2.02412 -0.0595339 0
M  V30 694 C 65.1333 1.44859 1.29793 0
M  V30 695 O 64.3883 0.601099 1.8624 0
M  V30 696 C 64.6873 3.57345 0.062886 0
M  V30 697 C 64.3533 4.33908 -1.22616 0
M  V30 698 C 63.0153 4.54544 -1.57933 0
M  V30 699 C 65.3673 4.77919 -2.07948 0
M  V30 700 C 62.6953 5.16444 -2.78393 0
M  V30 701 C 65.0473 5.41149 -3.27629 0
M  V30 702 C 63.7113 5.60014 -3.63236 0
M  V30 703 H 62.9813 0.74068 -0.021785 0
M  V30 704 H 65.6283 1.76128 -0.751735 0
M  V30 705 H 63.9333 3.82729 0.838178 0
M  V30 706 H 65.6303 3.98136 0.478439 0
M  V30 707 H 62.2203 4.18138 -0.941202 0
M  V30 708 H 66.4043 4.61738 -1.81967 0
M  V30 709 H 61.6603 5.29242 -3.06126 0
M  V30 710 H 65.8343 5.74211 -3.94023 0
M  V30 711 H 63.4613 6.07748 -4.56669 0
M  V30 712 N 65.0364 0.313813 1.54444 0
M  V30 713 C 66.4524 -0.0391619 1.59552 0
M  V30 714 C 66.6524 -1.51322 1.33056 0
M  V30 715 O 65.7084 -2.26782 1.11022 0
M  V30 716 C 67.0214 0.370302 2.98411 0
M  V30 717 C 68.5694 0.320139 3.11358 0
M  V30 718 C 69.0444 0.704617 4.52547 0
M  V30 719 N 70.5354 0.657645 4.58508 0
M  V30 720 C 71.2704 0.927453 5.6585 0
M  V30 721 N 70.7664 1.26389 6.81174 0
M  V30 722 N 72.5594 0.853662 5.5558 0
M  V30 723 H 64.7104 1.27433 1.69925 0
M  V30 724 H 66.9734 0.517511 0.794284 0
M  V30 725 H 66.6794 1.39694 3.22767 0
M  V30 726 H 66.5534 -0.269619 3.76235 0
M  V30 727 H 68.9404 -0.697275 2.86744 0
M  V30 728 H 69.0214 0.99486 2.35661 0
M  V30 729 H 68.6654 1.7199 4.77893 0
M  V30 730 H 68.5954 0.00768843 5.26599 0
M  V30 731 H 71.0864 0.409067 3.75679 0
M  V30 732 H 71.3994 1.4554 7.58972 0
M  V30 733 H 69.7444 1.30206 6.82694 0
M  V30 734 H 72.9354 0.590383 4.64362 0
M  V30 735 H 73.1084 1.0673 6.3915 0
M  V30 736 N 66.5145 -1.57545 0.0417849 0
M  V30 737 C 67.7395 -1.97035 -0.647455 0
M  V30 738 C 68.1645 -0.918775 -1.64135 0
M  V30 739 O 67.5225 0.119006 -1.80909 0
M  V30 740 C 67.5705 -3.35609 -1.31905 0
M  V30 741 O 66.6745 -3.3287 -2.43457 0
M  V30 742 H 66.0155 -0.64211 -0.169086 0
M  V30 743 H 68.5455 -2.04318 0.107399 0
M  V30 744 H 68.5555 -3.72126 -1.67291 0
M  V30 745 H 67.2305 -4.11685 -0.590586 0
M  V30 746 H 65.8075 -3.08087 -2.10088 0
M  V30 747 N 67.9926 0.231505 -1.5589 0
M  V30 748 C 69.2406 0.955461 -1.78088 0
M  V30 749 C 69.5616 1.85262 -0.608533 0
M  V30 750 O 68.8316 1.92277 0.375035 0
M  V30 751 H 67.4116 0.355787 -0.656829 0
M  V30 752 H 70.0736 0.245751 -1.93344 0
M  V30 753 H 69.1696 1.56814 -2.69844 0
M  V30 754 N 69.4707 1.49531 0.497807 0
M  V30 755 C 70.3807 1.69176 1.62532 0
M  V30 756 C 71.3967 0.5744 1.64246 0
M  V30 757 O 72.5727 0.849497 1.82608 0
M  V30 758 C 69.6377 1.75695 2.98885 0
M  V30 759 C 68.6987 2.9929 3.07773 0
M  V30 760 C 67.9317 3.05488 4.37622 0
M  V30 761 O 68.1547 2.19192 5.26603 0
M  V30 762 O 67.0887 3.9798 4.51548 0
M  V30 763 H 70.9147 2.647 1.48887 0
M  V30 764 H 68.4997 1.3331 0.674441 0
M  V30 765 H 70.3817 1.82317 3.79919 0
M  V30 766 H 69.0567 0.8335 3.12785 0
M  V30 767 H 67.9637 2.98183 2.25915 0
M  V30 768 H 69.2967 3.91125 2.98801 0
M  V30 769 N 70.9488 -0.749086 1.3866 0
M  V30 770 C 72.1958 -1.50833 1.35114 0
M  V30 771 C 72.5238 -1.94415 -0.0574049 0
M  V30 772 O 71.7788 -1.66065 -1.03541 0
M  V30 773 C 72.0778 -2.7712 2.25697 0
M  V30 774 C 71.7438 -2.52477 3.73585 0
M  V30 775 C 70.4058 -2.45466 4.13884 0
M  V30 776 C 72.7578 -2.31066 4.67181 0
M  V30 777 C 70.0858 -2.15064 5.45861 0
M  V30 778 C 72.4378 -2.02183 5.9942 0
M  V30 779 C 71.1018 -1.93631 6.38798 0
M  V30 780 H 70.3718 -0.551936 0.494416 0
M  V30 781 H 73.0188 -0.860979 1.71054 0
M  V30 782 H 71.3238 -3.46528 1.82827 0
M  V30 783 H 73.0208 -3.35096 2.20254 0
M  V30 784 H 69.6108 -2.58807 3.41638 0
M  V30 785 H 73.7948 -2.35459 4.3689 0
M  V30 786 H 69.0508 -2.06954 5.75308 0
M  V30 787 H 73.2248 -1.8462 6.71482 0
M  V30 788 H 70.8518 -1.69839 7.40985 0
M  V30 789 N 72.4269 -1.23603 -0.977757 0
M  V30 790 C 73.6729 -1.07129 -1.72195 0
M  V30 791 C 74.0059 0.390501 -1.90233 0
M  V30 792 O 73.2809 1.28902 -1.45653 0
M  V30 793 C 73.5639 -1.80031 -3.11867 0
M  V30 794 C 73.4169 -3.33899 -3.01383 0
M  V30 795 C 74.7359 -1.56492 -4.11337 0
M  V30 796 H 71.8549 -0.390571 -0.624999 0
M  V30 797 H 74.4969 -1.52142 -1.13811 0
M  V30 798 H 72.6469 -1.41768 -3.6171 0
M  V30 799 H 74.3189 -3.81699 -2.59043 0
M  V30 800 H 72.5619 -3.62796 -2.37827 0
M  V30 801 H 73.2329 -3.801 -4.00285 0
M  V30 802 H 75.7089 -1.89757 -3.70313 0
M  V30 803 H 74.5849 -2.09973 -5.07151 0
M  V30 804 H 74.8459 -0.500874 -4.39254 0
M  V30 805 N 73.905 1.17692 -1.04816 0
M  V30 806 C 74.838 2.20436 -0.590173 0
M  V30 807 C 75.816 1.58115 0.379244 0
M  V30 808 O 77 1.86228 0.291762 0
M  V30 809 C 74.127 3.38424 0.136817 0
M  V30 810 C 73.173 4.19176 -0.787023 0
M  V30 811 S 74.006 4.84815 -2.27409 0
M  V30 812 C 75.162 6.06195 -1.55817 0
M  V30 813 H 75.395 2.58944 -1.46067 0
M  V30 814 H 72.928 1.28246 -0.859784 0
M  V30 815 H 74.886 4.06798 0.550076 0
M  V30 816 H 73.547 2.98312 0.983299 0
M  V30 817 H 72.74 5.03499 -0.224681 0
M  V30 818 H 72.342 3.56219 -1.13947 0
M  V30 819 H 74.634 6.72078 -0.855387 0
M  V30 820 H 75.577 6.6695 -2.37873 0
M  V30 821 H 75.985 5.54701 -1.04722 0
M  V30 822 N 75.3831 0.828654 1.34056 0
M  V30 823 C 76.6321 0.415828 1.97367 0
M  V30 824 C 76.9451 -1.02796 1.6641 0
M  V30 825 O 78.1511 -1.54497 2.23255 0
M  V30 826 C 76.6071 0.692601 3.53173 0
M  V30 827 C 76.2151 2.15038 3.93017 0
M  V30 828 C 77.9591 0.346222 4.23086 0
M  V30 829 C 75.8661 2.37174 5.41758 0
M  V30 830 H 74.7961 0.151755 0.738571 0
M  V30 831 H 77.4471 1.01581 1.52819 0
M  V30 832 H 75.8291 0.0223764 3.95994 0
M  V30 833 H 77.0031 2.86024 3.61285 0
M  V30 834 H 75.3181 2.45875 3.36057 0
M  V30 835 H 77.9151 0.48937 5.32456 0
M  V30 836 H 78.2581 -0.709842 4.10204 0
M  V30 837 H 78.7911 0.971258 3.85761 0
M  V30 838 H 75.5301 3.41308 5.59633 0
M  V30 839 H 75.0501 1.70738 5.74986 0
M  V30 840 H 76.7291 2.19818 6.08514 0
M  V30 841 N 76.8612 -1.46375 0.584142 0
M  V30 842 C 78.1092 -2.01978 0.0701287 0
M  V30 843 C 78.4302 -1.4579 -1.295 0
M  V30 844 O 77.7002 -0.64314 -1.85042 0
M  V30 845 H 76.2802 -0.746648 0.0229345 0
M  V30 846 H 78.9422 -1.79461 0.760245 0
M  V30 847 H 78.0382 -3.121 0.0022064 0
M  V30 848 N 78.3393 -0.321999 -1.54275 0
M  V30 849 C 79.2693 0.537411 -2.27231 0
M  V30 850 C 80.2503 1.12064 -1.27968 0
M  V30 851 O 81.4353 1.14606 -1.56777 0
M  V30 852 C 78.5653 1.69919 -3.02894 0
M  V30 853 C 77.5193 1.24534 -4.09482 0
M  V30 854 C 76.8453 2.49394 -4.72977 0
M  V30 855 C 78.1453 0.361335 -5.21049 0
M  V30 856 H 79.8393 -0.0711406 -2.99315 0
M  V30 857 H 77.3853 -0.0356555 -1.43956 0
M  V30 858 H 79.3383 2.30668 -3.52662 0
M  V30 859 H 78.0623 2.33431 -2.28424 0
M  V30 860 H 76.7213 0.660782 -3.60596 0
M  V30 861 H 76.3693 3.11265 -3.95124 0
M  V30 862 H 76.0693 2.19718 -5.44975 0
M  V30 863 H 77.5933 3.10908 -5.25517 0
M  V30 864 H 79.0073 0.875072 -5.66582 0
M  V30 865 H 77.4043 0.157428 -5.99893 0
M  V30 866 H 78.4743 -0.60822 -4.8107 0
M  V30 867 N 79.8174 1.5752 -0.0501392 0
M  V30 868 C 80.7474 2.14502 0.922566 0
M  V30 869 C 81.7284 1.06642 1.3252 0
M  V30 870 O 82.9134 1.34577 1.4001 0
M  V30 871 C 80.0434 2.68916 2.19776 0
M  V30 872 C 78.9974 3.8175 1.93523 0
M  V30 873 C 78.3234 4.22677 3.27487 0
M  V30 874 C 79.6234 5.06932 1.25765 0
M  V30 875 H 81.3174 2.9603 0.447952 0
M  V30 876 H 78.8634 1.42401 0.214024 0
M  V30 877 H 80.8164 3.07419 2.88222 0
M  V30 878 H 79.5404 1.84578 2.69441 0
M  V30 879 H 78.1994 3.43718 1.27489 0
M  V30 880 H 77.8474 3.35291 3.74952 0
M  V30 881 H 77.5474 4.98725 3.1072 0
M  V30 882 H 79.0714 4.63779 3.97166 0
M  V30 883 H 80.4854 5.42888 1.84244 0
M  V30 884 H 78.8824 5.88116 1.19328 0
M  V30 885 H 79.9524 4.84337 0.233536 0
M  V30 886 N 81.2955 -0.223234 1.56011 0
M  V30 887 C 82.5725 -0.972108 1.69733 0
M  V30 888 C 82.9525 -2.02485 0.59691 0
M  V30 889 O 82.3005 -2.25037 -0.396324 0
M  V30 890 C 82.5105 -1.58407 3.10979 0
M  V30 891 C 83.8585 -2.07696 3.70334 0
M  V30 892 O 84.8825 -1.68304 3.1393 0
M  V30 893 O 83.7415 -2.80096 4.69264 0
M  V30 894 H 80.8355 -0.453993 0.691245 0
M  V30 895 H 83.3815 -0.215149 1.68331 0
M  V30 896 H 82.1535 -0.823831 3.82529 0
M  V30 897 H 81.7765 -2.40661 3.16493 0
M  V30 898 N 82.7736 -1.49793 -0.48987 0
M  V30 899 C 84.0506 -1.50348 -1.25119 0
M  V30 900 C 84.4306 -0.237466 -2.0976 0
M  V30 901 O 83.7786 0.77981 -2.14782 0
M  V30 902 C 83.9886 -2.78872 -2.09837 0
M  V30 903 C 85.3366 -3.288 -2.68655 0
M  V30 904 O 86.3606 -2.80065 -2.20096 0
M  V30 905 O 85.2196 -4.13707 -3.57083 0
M  V30 906 H 82.3136 -0.602242 -0.566775 0
M  V30 907 H 84.8596 -1.62067 -0.503229 0
M  V30 908 H 83.6316 -3.62499 -1.47343 0
M  V30 909 H 83.2546 -2.70066 -2.91805 0
M  V30 910 N 84.2517 0.741722 -1.39055 0
M  V30 911 C 85.1997 1.87702 -1.3737 0
M  V30 912 C 86.1937 1.67427 -0.257812 0
M  V30 913 O 87.3997 1.7485 -0.427489 0
M  V30 914 H 83.7747 0.617757 -0.428812 0
M  V30 915 H 85.7457 1.86239 -2.33147 0
M  V30 916 C 84.4947 3.25315 -1.22741 0
M  V30 917 H 83.8177 3.41509 -2.07873 0
M  V30 918 H 85.2577 4.04964 -1.25618 0
M  V30 919 C 83.7167 3.36838 0.0647316 0
M  V30 920 O 84.2467 3.88073 1.03741 0
M  V30 921 N 82.4527 2.90329 0.125544 0
M  V30 922 H 81.9997 2.48823 -0.666682 0
M  V30 923 H 81.9577 2.98418 0.989639 0
M  V30 924 N 85.7298 1.2412 0.971189 0
M  V30 925 C 86.9778 1.07668 1.71032 0
M  V30 926 C 87.2988 -0.385797 1.91146 0
M  V30 927 O 86.5688 -1.27569 1.4867 0
M  V30 928 H 85.1488 0.395429 0.633755 0
M  V30 929 H 87.8108 1.55984 1.16855 0
M  V30 930 H 86.9068 1.57195 2.69622 0
M  V30 931 N 87.2079 -1.17134 1.05439 0
M  V30 932 C 88.1549 -2.21235 0.657539 0
M  V30 933 C 89.1249 -1.62551 -0.341543 0
M  V30 934 O 90.3099 -1.89379 -0.232393 0
M  V30 935 C 87.4499 -3.45076 0.0410575 0
M  V30 936 C 86.5629 -4.18042 1.08927 0
M  V30 937 C 85.6979 -5.29376 0.439848 0
M  V30 938 C 84.7369 -5.94132 1.4722 0
M  V30 939 N 83.8739 -6.96975 0.846756 0
M  V30 940 H 88.7139 -2.54534 1.54972 0
M  V30 941 H 86.2509 -1.25028 0.775006 0
M  V30 942 H 88.2089 -4.15862 -0.33383 0
M  V30 943 H 86.8389 -3.12353 -0.814568 0
M  V30 944 H 85.8909 -3.45945 1.58196 0
M  V30 945 H 87.2029 -4.62306 1.87282 0
M  V30 946 H 86.3569 -6.06699 0.0115125 0
M  V30 947 H 85.0959 -4.86251 -0.375656 0
M  V30 948 H 84.1009 -5.15538 1.91052 0
M  V30 949 H 85.3259 -6.39337 2.28965 0
M  V30 950 H 83.2719 -6.5598 0.0518075 0
M  V30 951 H 83.1889 -7.39565 1.5678 0
M  V30 952 H 84.4569 -7.78239 0.443277 0
M  V30 953 N 88.686 -0.835752 -1.33615 0
M  V30 954 C 90.097 -0.487099 -1.80234 0
M  V30 955 C 90.448 0.993627 -1.69179 0
M  V30 956 O 89.573 1.77403 -1.23924 0
M  V30 957 C 90.168 -0.877385 -3.27242 0
M  V30 958 C 88.727 -0.580915 -3.7189 0
M  V30 959 C 87.874 -1.0874 -2.5509 0
M  V30 960 H 90.825 -1.02474 -1.2118 0
M  V30 961 H 90.846 -0.186195 -3.80044 0
M  V30 962 H 90.358 -1.95512 -3.35256 0
M  V30 963 H 88.459 0.486881 -3.69405 0
M  V30 964 H 88.572 -1.13396 -4.65487 0
M  V30 965 H 86.936 -0.508392 -2.49575 0
M  V30 966 H 87.719 -2.17184 -2.65868 0
M  V30 967 N 90.1641 1.46063 -0.591896 0
M  V30 968 C 91.4131 2.01547 -0.0786637 0
M  V30 969 C 91.7261 1.46796 1.29268 0
M  V30 970 O 92.9321 1.94157 1.89777 0
M  V30 971 C 91.3881 3.59787 -0.0900024 0
M  V30 972 C 90.9961 4.23534 -1.46023 0
M  V30 973 C 92.7401 4.22895 0.368806 0
M  V30 974 C 90.6471 5.73881 -1.4288 0
M  V30 975 H 89.5771 0.753564 -0.0256388 0
M  V30 976 H 92.2281 1.677 -0.744905 0
M  V30 977 H 90.6101 3.90752 0.642586 0
M  V30 978 H 91.7841 4.04167 -2.21328 0
M  V30 979 H 90.0991 3.72558 -1.85982 0
M  V30 980 H 92.6961 5.33116 0.411258 0
M  V30 981 H 93.0391 3.9247 1.38827 0
M  V30 982 H 93.5721 3.9659 -0.31001 0
M  V30 983 H 90.3111 6.0898 -2.42536 0
M  V30 984 H 89.8311 5.95486 -0.718095 0
M  V30 985 H 91.5101 6.36776 -1.14565 0
M  V30 986 N 91.6422 0.330177 1.54103 0
M  V30 987 C 92.5752 -0.575477 2.20825 0
M  V30 988 C 93.5532 -1.11064 1.18758 0
M  V30 989 O 94.7372 -1.17341 1.47524 0
M  V30 990 C 91.8642 -1.79032 2.87516 0
M  V30 991 C 90.9102 -1.38581 4.03358 0
M  V30 992 S 91.7432 -0.416911 5.33875 0
M  V30 993 C 92.8992 -1.63889 6.04062 0
M  V30 994 H 93.1322 -0.00872114 2.97299 0
M  V30 995 H 90.6652 0.114254 1.53977 0
M  V30 996 H 92.6232 -2.48734 3.2656 0
M  V30 997 H 91.2842 -2.32827 2.10832 0
M  V30 998 H 90.4772 -2.29123 4.48908 0
M  V30 999 H 90.0792 -0.768419 3.66021 0
M  V30 1000 H 92.3712 -2.57536 6.26643 0
M  V30 1001 H 93.3142 -1.22542 6.97416 0
M  V30 1002 H 93.7222 -1.82887 5.34053 0
M  V30 1003 N 93.1203 -1.57491 0.0584922 0
M  V30 1004 C 94.5363 -1.56792 -0.298091 0
M  V30 1005 C 94.7363 -1.06679 -1.70944 0
M  V30 1006 O 93.7923 -0.726672 -2.41818 0
M  V30 1007 C 95.1053 -3.00461 -0.119879 0
M  V30 1008 C 96.6533 -3.1242 -0.190428 0
M  V30 1009 C 97.1283 -4.57982 -0.0406567 0
M  V30 1010 N 98.6193 -4.63099 -0.0966958 0
M  V30 1011 C 99.3543 -5.734 -0.00502943 0
M  V30 1012 N 98.8503 -6.9266 0.139402 0
M  V30 1013 N 100.643 -5.62067 -0.0611391 0
M  V30 1014 H 92.7943 -1.88386 0.98105 0
M  V30 1015 H 95.0573 -0.867865 0.381463 0
M  V30 1016 H 94.7633 -3.41187 0.85349 0
M  V30 1017 H 94.6373 -3.66843 -0.877833 0
M  V30 1018 H 97.0243 -2.71589 -1.15427 0
M  V30 1019 H 97.1053 -2.48702 0.598405 0
M  V30 1020 H 96.7493 -4.995 0.919897 0
M  V30 1021 H 96.6793 -5.19715 -0.848727 0
M  V30 1022 H 99.1703 -3.77331 -0.207277 0
M  V30 1023 H 99.4833 -7.72536 0.201855 0
M  V30 1024 H 97.8283 -6.94781 0.174586 0
M  V30 1025 H 101.019 -4.67782 -0.172583 0
M  V30 1026 H 101.192 -6.47999 0.0137562 0
M  V30 1027 N 94.5984 0.214957 -1.56127 0
M  V30 1028 C 95.5614 1.24997 -1.92116 0
M  V30 1029 C 96.5614 1.39467 -0.800344 0
M  V30 1030 O 97.7514 1.37619 -1.06802 0
M  V30 1031 C 94.8834 2.62271 -2.17777 0
M  V30 1032 H 96.0764 0.942875 -2.84693 0
M  V30 1033 H 93.6294 0.455654 -1.49511 0
M  V30 1034 H 94.3644 2.98068 -1.27773 0
M  V30 1035 H 94.1494 2.53143 -2.99434 0
M  V30 1036 H 95.6394 3.36946 -2.46693 0
M  V30 1037 N 96.0765 1.50051 0.48192 0
M  V30 1038 C 97.3065 1.63999 1.2565 0
M  V30 1039 C 97.7145 0.318288 1.86504 0
M  V30 1040 O 97.0575 -0.708534 1.69486 0
M  V30 1041 C 97.1195 2.66504 2.4128 0
M  V30 1042 C 96.7835 4.10352 2.01148 0
M  V30 1043 C 97.7805 4.96562 1.54021 0
M  V30 1044 C 95.4655 4.56203 2.10199 0
M  V30 1045 C 97.4595 6.26668 1.16473 0
M  V30 1046 C 95.1465 5.86318 1.72264 0
M  V30 1047 C 96.1445 6.71375 1.25477 0
M  V30 1048 O 95.8325 7.99062 0.880626 0
M  V30 1049 H 95.5645 0.55456 0.386574 0
M  V30 1050 H 98.1185 1.96954 0.582944 0
M  V30 1051 H 96.3485 2.28769 3.11772 0
M  V30 1052 H 98.0375 2.69783 3.03268 0
M  V30 1053 H 98.8035 4.62358 1.46458 0
M  V30 1054 H 94.6825 3.90152 2.45566 0
M  V30 1055 H 98.2265 6.93011 0.798841 0
M  V30 1056 H 94.1235 6.20046 1.79482 0
M  V30 1057 H 94.8915 8.12239 1.01043 0
M  V30 1058 N 97.5546 -0.734337 1.39446 0
M  V30 1059 C 98.7796 -1.52866 1.40167 0
M  V30 1060 C 99.2046 -1.881 -0.00171513 0
M  V30 1061 O 98.5626 -1.51957 -0.988879 0
M  V30 1062 C 98.6106 -2.79235 2.28167 0
M  V30 1063 O 97.7146 -3.75185 1.71201 0
M  V30 1064 H 97.0556 -0.461618 0.477289 0
M  V30 1065 H 99.5856 -0.905949 1.8345 0
M  V30 1066 H 99.5956 -3.27963 2.42702 0
M  V30 1067 H 98.2706 -2.52923 3.30156 0
M  V30 1068 H 96.8476 -3.33958 1.65912 0
M  V30 1069 N 99.0327 -1.24633 -0.964593 0
M  V30 1070 C 100.282 -1.08188 -1.7023 0
M  V30 1071 C 100.595 0.37873 -1.91898 0
M  V30 1072 O 101.801 0.663427 -2.6327 0
M  V30 1073 C 100.257 -1.88773 -3.06419 0
M  V30 1074 C 99.8647 -3.39263 -2.92582 0
M  V30 1075 C 101.609 -1.80867 -3.84041 0
M  V30 1076 C 99.5157 -4.1218 -4.24101 0
M  V30 1077 H 98.4457 -0.401245 -0.638372 0
M  V30 1078 H 101.097 -1.48742 -1.07462 0
M  V30 1079 H 99.4787 -1.41035 -3.70034 0
M  V30 1080 H 100.653 -3.94603 -2.37961 0
M  V30 1081 H 98.9677 -3.48154 -2.28424 0
M  V30 1082 H 101.565 -2.32646 -4.81435 0
M  V30 1083 H 101.908 -0.774543 -4.09031 0
M  V30 1084 H 102.441 -2.26301 -3.27159 0
M  V30 1085 H 99.1797 -5.15965 -4.04303 0
M  V30 1086 H 98.6997 -3.61626 -4.78526 0
M  V30 1087 H 100.379 -4.19349 -4.92702 0
M  V30 1088 N 100.511 1.16574 -1.06058 0
M  V30 1089 C 101.474 2.19085 -0.673392 0
M  V30 1090 C 102.474 1.5835 0.279648 0
M  V30 1091 O 103.664 1.74088 0.0623488 0
M  V30 1092 C 100.796 3.40899 0.00954234 0
M  V30 1093 H 101.989 2.54853 -1.58081 0
M  V30 1094 H 99.5418 1.30808 -0.855516 0
M  V30 1095 H 100.277 3.10684 0.929826 0
M  V30 1096 H 100.062 3.86233 -0.67573 0
M  V30 1097 H 101.552 4.1675 0.266245 0
M  V30 1098 N 101.989 0.842826 1.3317 0
M  V30 1099 C 103.214 0.453129 2.02389 0
M  V30 1100 C 103.639 -0.939105 1.6298 0
M  V30 1101 O 102.997 -1.61472 0.8244 0
M  V30 1102 C 103.045 0.586094 3.55805 0
M  V30 1103 O 102.149 -0.386029 4.10589 0
M  V30 1104 H 101.49 0.183664 0.638094 0
M  V30 1105 H 104.02 1.13875 1.69981 0
M  V30 1106 H 104.03 0.469209 4.05293 0
M  V30 1107 H 102.705 1.6014 3.83833 0
M  V30 1108 H 101.282 -0.226371 3.72212 0
M  V30 1109 N 103.467 -1.45747 0.599634 0
M  V30 1110 C 104.878 -1.85853 0.177681 0
M  V30 1111 C 105.229 -1.50102 -1.26348 0
M  V30 1112 O 104.354 -0.923905 -1.95686 0
M  V30 1113 C 104.949 -3.37326 0.315688 0
M  V30 1114 C 103.508 -3.76365 -0.0515144 0
M  V30 1115 C 102.655 -2.69722 0.643822 0
M  V30 1116 H 105.606 -1.36661 0.806814 0
M  V30 1117 H 105.627 -3.77778 -0.454321 0
M  V30 1118 H 105.139 -3.63315 1.36468 0
M  V30 1119 H 103.24 -3.55993 -1.09999 0
M  V30 1120 H 103.353 -4.77916 0.336594 0
M  V30 1121 H 101.717 -2.54567 0.0822881 0
M  V30 1122 H 102.5 -2.98549 1.6948 0
M  V30 1123 N 104.945 -0.338344 -1.53925 0
M  V30 1124 C 105.908 0.508299 -2.23493 0
M  V30 1125 C 106.908 1.03175 -1.23335 0
M  V30 1126 O 108.098 0.921826 -1.47811 0
M  V30 1127 C 105.23 1.70754 -2.95052 0
M  V30 1128 H 106.423 -0.100058 -2.99733 0
M  V30 1129 H 103.976 -0.0896198 -1.56043 0
M  V30 1130 H 104.711 2.35474 -2.22986 0
M  V30 1131 H 104.496 1.33946 -3.68512 0
M  V30 1132 H 105.986 2.30818 -3.48013 0
M  V30 1133 N 106.423 1.57458 -0.0668435 0
M  V30 1134 C 107.669 1.94401 0.598316 0
M  V30 1135 C 108.024 0.946335 1.67518 0
M  V30 1136 O 107.317 -0.0321442 1.91573 0
M  V30 1137 C 107.511 3.35784 1.22409 0
M  V30 1138 C 107.34 4.49212 0.209367 0
M  V30 1139 C 106.11 5.04887 -0.204218 0
M  V30 1140 C 108.308 5.11335 -0.551431 0
M  V30 1141 N 106.29 6.01854 -1.21016 0
M  V30 1142 C 107.661 6.03754 -1.41 0
M  V30 1143 C 109.716 4.94173 -0.608038 0
M  V30 1144 C 108.419 6.80854 -2.32013 0
M  V30 1145 C 110.445 5.71912 -1.50566 0
M  V30 1146 C 109.807 6.63976 -2.35191 0
M  V30 1147 H 105.906 0.758538 0.190114 0
M  V30 1148 H 108.49 1.94175 -0.142832 0
M  V30 1149 H 106.661 3.36757 1.93518 0
M  V30 1150 H 108.393 3.59976 1.84931 0
M  V30 1151 H 105.148 4.73266 0.177908 0
M  V30 1152 H 105.572 6.55035 -1.71049 0
M  V30 1153 H 110.214 4.22788 0.032022 0
M  V30 1154 H 107.932 7.5152 -2.97057 0
M  V30 1155 H 111.518 5.60656 -1.55423 0
M  V30 1156 H 110.398 7.2308 -3.03522 0
M  V30 1157 N 107.901 -0.206675 1.56239 0
M  V30 1158 C 109.178 -0.954051 1.70755 0
M  V30 1159 C 109.558 -2.01841 0.618353 0
M  V30 1160 O 108.906 -2.25444 -0.372434 0
M  V30 1161 C 109.116 -1.551 3.12642 0
M  V30 1162 C 110.464 -2.03757 3.72516 0
M  V30 1163 O 111.488 -1.64965 3.15698 0
M  V30 1164 O 110.347 -2.75103 4.72208 0
M  V30 1165 H 107.441 -0.446636 0.696021 0
M  V30 1166 H 109.987 -0.197283 1.68549 0
M  V30 1167 H 108.759 -0.783212 3.83382 0
M  V30 1168 H 108.382 -2.37291 3.19028 0
M  V30 1169 N 109.379 -1.50304 -0.473955 0
M  V30 1170 C 110.289 -1.7174 -1.5982 0
M  V30 1171 C 111.305 -0.600457 -1.63311 0
M  V30 1172 O 112.481 -0.878441 -1.81233 0
M  V30 1173 C 109.546 -1.80427 -2.96052 0
M  V30 1174 C 108.607 -3.04148 -3.02972 0
M  V30 1175 C 107.84 -3.12411 -4.32706 0
M  V30 1176 O 108.063 -2.27542 -5.23049 0
M  V30 1177 O 106.997 -4.05113 -4.45159 0
M  V30 1178 H 110.823 -2.67035 -1.44657 0
M  V30 1179 H 108.408 -1.34366 -0.653148 0
M  V30 1180 H 110.29 -1.88338 -3.7697 0
M  V30 1181 H 108.965 -0.883156 -3.11419 0
M  V30 1182 H 107.872 -3.0174 -2.21142 0
M  V30 1183 H 109.205 -3.95829 -2.92541 0
M  V30 1184 N 110.857 0.726932 -1.39834 0
M  V30 1185 C 111.767 1.87131 -1.41489 0
M  V30 1186 C 112.783 1.71239 -0.308757 0
M  V30 1187 O 113.959 1.93701 -0.551529 0
M  V30 1188 C 111.024 3.22811 -1.26468 0
M  V30 1189 C 110.085 3.51039 -2.47124 0
M  V30 1190 C 109.318 4.80245 -2.3281 0
M  V30 1191 O 109.541 5.54537 -1.33585 0
M  V30 1192 O 108.475 5.08554 -3.21957 0
M  V30 1193 H 112.301 1.8869 -2.3797 0
M  V30 1194 H 109.886 0.875837 -1.21035 0
M  V30 1195 H 111.768 4.03877 -1.20255 0
M  V30 1196 H 110.443 3.22005 -0.330862 0
M  V30 1197 H 109.35 2.70027 -2.58914 0
M  V30 1198 H 110.683 3.56632 -3.39227 0
M  V30 1199 N 112.336 1.25143 0.95797 0
M  V30 1200 C 113.266 1.07711 2.07173 0
M  V30 1201 C 114.247 -0.0128462 1.70095 0
M  V30 1202 O 115.432 0.156061 1.93572 0
M  V30 1203 C 112.562 0.691503 3.40346 0
M  V30 1204 C 111.516 1.73132 3.9142 0
M  V30 1205 C 110.842 1.20049 5.21049 0
M  V30 1206 C 112.142 3.1294 4.1817 0
M  V30 1207 H 113.836 2.00873 2.22014 0
M  V30 1208 H 111.382 0.967191 1.06684 0
M  V30 1209 H 113.335 0.556505 4.17709 0
M  V30 1210 H 112.059 -0.275819 3.25433 0
M  V30 1211 H 110.718 1.8547 3.16222 0
M  V30 1212 H 110.366 0.223499 5.02503 0
M  V30 1213 H 110.066 1.89545 5.56189 0
M  V30 1214 H 111.59 1.07782 6.01012 0
M  V30 1215 H 113.004 3.03775 4.86203 0
M  V30 1216 H 111.401 3.79875 4.64559 0
M  V30 1217 H 112.471 3.6025 3.24573 0
M  V30 1218 N 113.814 -1.1601 1.06675 0
M  V30 1219 C 114.724 -2.24156 0.692179 0
M  V30 1220 C 115.74 -1.71507 -0.293513 0
M  V30 1221 O 116.916 -2.009 -0.141861 0
M  V30 1222 C 113.981 -3.46587 0.0884131 0
M  V30 1223 C 113.042 -4.14257 1.12646 0
M  V30 1224 C 112.275 -5.30844 0.551416 0
M  V30 1225 O 112.498 -5.66858 -0.634656 0
M  V30 1226 O 111.432 -5.87848 1.29298 0
M  V30 1227 H 115.258 -2.58513 1.59388 0
M  V30 1228 H 112.843 -1.23599 0.83926 0
M  V30 1229 H 114.725 -4.20679 -0.246361 0
M  V30 1230 H 113.4 -3.13994 -0.786712 0
M  V30 1231 H 112.307 -3.42118 1.51348 0
M  V30 1232 H 113.64 -4.50914 1.97325 0
M  V30 1233 N 115.292 -0.849877 -1.32721 0
M  V30 1234 C 116.539 -0.450923 -1.97416 0
M  V30 1235 C 116.867 0.992376 -1.67279 0
M  V30 1236 O 116.122 1.71048 -0.950845 0
M  V30 1237 C 116.421 -0.631272 -3.51781 0
M  V30 1238 C 116.087 -2.04432 -4.01894 0
M  V30 1239 C 114.749 -2.4308 -4.1529 0
M  V30 1240 C 117.101 -2.96679 -4.28522 0
M  V30 1241 C 114.429 -3.73257 -4.52654 0
M  V30 1242 C 116.781 -4.26349 -4.67343 0
M  V30 1243 C 115.445 -4.64939 -4.78945 0
M  V30 1244 H 114.715 -0.165004 -0.722395 0
M  V30 1245 H 117.362 -1.07901 -1.58207 0
M  V30 1246 H 115.667 0.0800767 -3.91718 0
M  V30 1247 H 117.364 -0.302709 -3.99856 0
M  V30 1248 H 113.954 -1.73419 -3.91949 0
M  V30 1249 H 118.138 -2.68054 -4.17685 0
M  V30 1250 H 113.394 -4.02946 -4.59831 0
M  V30 1251 H 117.568 -4.97895 -4.86902 0
M  V30 1252 H 115.195 -5.65855 -5.07654 0
M  V30 1253 N 116.77 1.45427 -0.607355 0
M  V30 1254 C 118 2.06314 -0.108656 0
M  V30 1255 C 118.408 1.45269 1.21217 0
M  V30 1256 O 117.751 0.561115 1.74921 0
M  V30 1257 C 117.813 3.59345 0.105618 0
M  V30 1258 C 117.477 4.42723 -1.13337 0
M  V30 1259 C 118.474 4.77715 -2.05145 0
M  V30 1260 C 116.159 4.83478 -1.36213 0
M  V30 1261 C 118.153 5.52317 -3.18158 0
M  V30 1262 C 115.84 5.57835 -2.49527 0
M  V30 1263 C 116.838 5.92171 -3.40327 0
M  V30 1264 O 116.526 6.65019 -4.51669 0
M  V30 1265 H 116.258 0.672782 -0.0658842 0
M  V30 1266 H 118.812 1.87664 -0.834945 0
M  V30 1267 H 117.042 3.76394 0.886796 0
M  V30 1268 H 118.731 4.02076 0.555886 0
M  V30 1269 H 119.497 4.46787 -1.88697 0
M  V30 1270 H 115.376 4.56188 -0.664362 0
M  V30 1271 H 118.92 5.79036 -3.89054 0
M  V30 1272 H 114.817 5.88177 -2.65928 0
M  V30 1273 H 115.585 6.83469 -4.50348 0
M  V30 1274 N 118.248 0.346503 1.53744 0
M  V30 1275 C 119.473 -0.253074 2.0585 0
M  V30 1276 C 119.898 -1.43202 1.21962 0
M  V30 1277 O 119.256 -1.79783 0.234073 0
M  V30 1278 C 119.304 -0.643193 3.54817 0
M  V30 1279 O 118.408 -1.74286 3.73762 0
M  V30 1280 H 117.749 -0.0413583 0.662711 0
M  V30 1281 H 120.279 0.501574 1.98357 0
M  V30 1282 H 120.289 -0.919526 3.97503 0
M  V30 1283 H 118.964 0.218966 4.15323 0
M  V30 1284 H 117.541 -1.46356 3.42979 0
M  V30 1285 N 119.726 -1.57421 0.075193 0
M  V30 1286 C 120.975 -1.92794 -0.592731 0
M  V30 1287 C 121.288 -0.957478 -1.70563 0
M  V30 1288 O 122.494 -1.20417 -2.43335 0
M  V30 1289 C 120.95 -3.42495 -1.10569 0
M  V30 1290 C 120.558 -4.47994 -0.0236121 0
M  V30 1291 C 122.302 -3.86864 -1.74748 0
M  V30 1292 C 120.209 -5.88829 -0.550803 0
M  V30 1293 H 119.139 -0.719591 -0.225177 0
M  V30 1294 H 121.79 -1.82902 0.147978 0
M  V30 1295 H 120.172 -3.47471 -1.89947 0
M  V30 1296 H 121.346 -4.54637 0.751099 0
M  V30 1297 H 119.661 -4.13113 0.522159 0
M  V30 1298 H 122.258 -4.8947 -2.15229 0
M  V30 1299 H 122.601 -3.24417 -2.60882 0
M  V30 1300 H 123.134 -3.84504 -1.01986 0
M  V30 1301 H 119.873 -6.54929 0.273457 0
M  V30 1302 H 119.393 -5.85698 -1.29296 0
M  V30 1303 H 121.072 -6.38811 -1.02613 0
M  V30 1304 N 121.204 0.198386 -1.56346 0
M  V30 1305 C 122.151 1.24589 -1.94284 0
M  V30 1306 C 123.121 1.454 -0.802997 0
M  V30 1307 O 124.306 1.58588 -1.06087 0
M  V30 1308 C 121.446 2.58631 -2.28482 0
M  V30 1309 C 120.559 2.45426 -3.55514 0
M  V30 1310 C 119.694 3.7215 -3.79049 0
M  V30 1311 C 118.733 3.53763 -4.99518 0
M  V30 1312 N 117.87 4.72491 -5.19323 0
M  V30 1313 H 122.71 0.915356 -2.83593 0
M  V30 1314 H 120.247 0.440629 -1.40346 0
M  V30 1315 H 122.205 3.3672 -2.46324 0
M  V30 1316 H 120.835 2.89734 -1.42317 0
M  V30 1317 H 119.887 1.58652 -3.45737 0
M  V30 1318 H 121.199 2.27772 -4.43758 0
M  V30 1319 H 120.353 4.58679 -3.97113 0
M  V30 1320 H 119.092 3.92754 -2.89129 0
M  V30 1321 H 118.097 2.65619 -4.8138 0
M  V30 1322 H 119.322 3.34607 -5.90944 0
M  V30 1323 H 117.268 4.93365 -4.3235 0
M  V30 1324 H 117.185 4.5765 -6.01741 0
M  V30 1325 H 118.453 5.6038 -5.41843 0
M  V30 1326 N 122.682 1.50554 0.465978 0
M  V30 1327 C 123.928 1.62038 1.21949 0
M  V30 1328 C 124.261 0.322116 1.9151 0
M  V30 1329 O 123.536 -0.676723 1.82348 0
M  V30 1330 C 123.819 2.80421 2.25912 0
M  V30 1331 C 123.672 4.20144 1.60622 0
M  V30 1332 C 124.991 2.94354 3.27176 0
M  V30 1333 H 122.11 0.589752 0.441998 0
M  V30 1334 H 124.752 1.82956 0.51257 0
M  V30 1335 H 122.902 2.62717 2.86203 0
M  V30 1336 H 124.574 4.49449 1.03889 0
M  V30 1337 H 122.817 4.24165 0.909211 0
M  V30 1338 H 123.488 4.98914 2.36196 0
M  V30 1339 H 125.964 3.10578 2.76913 0
M  V30 1340 H 124.84 3.788 3.97242 0
M  V30 1341 H 125.101 2.05186 3.916 0
M  V30 1342 N 124.16 -0.719506 1.40217 0
M  V30 1343 C 125.571 -1.29848 1.34151 0
M  V30 1344 C 125.922 -1.96196 0.0131349 0
M  V30 1345 O 125.047 -1.973 -0.88892 0
M  V30 1346 C 125.642 -2.36118 2.42968 0
M  V30 1347 C 124.201 -2.8965 2.40374 0
M  V30 1348 C 123.348 -1.63393 2.24049 0
M  V30 1349 H 126.299 -0.51591 1.5008 0
M  V30 1350 H 126.32 -3.16871 2.10649 0
M  V30 1351 H 125.832 -1.878 3.39636 0
M  V30 1352 H 123.933 -3.42208 1.47392 0
M  V30 1353 H 124.046 -3.4171 3.35814 0
M  V30 1354 H 122.41 -1.88312 1.71495 0
M  V30 1355 H 123.193 -1.17104 3.2271 0
M  V30 1356 N 125.638 -1.25649 -0.95132 0
M  V30 1357 C 126.915 -1.01361 -1.67288 0
M  V30 1358 C 127.295 0.459135 -2.06046 0
M  V30 1359 O 126.643 1.43723 -1.7764 0
M  V30 1360 C 126.853 -1.95256 -2.89268 0
M  V30 1361 C 128.201 -2.23289 -3.61147 0
M  V30 1362 O 129.225 -1.93041 -2.99355 0
M  V30 1363 O 128.084 -2.74741 -4.72419 0
M  V30 1364 H 125.178 -0.38464 -0.732107 0
M  V30 1365 H 127.724 -1.36817 -1.00395 0
M  V30 1366 H 126.496 -2.94685 -2.57442 0
M  V30 1367 H 126.119 -1.60218 -3.6389 0
M  V30 1368 N 127.117 1.15442 -1.07289 0
M  V30 1369 C 128.365 1.85845 -0.794096 0
M  V30 1370 C 128.686 1.82692 0.681809 0
M  V30 1371 O 127.956 1.26741 1.49377 0
M  V30 1372 H 126.536 0.688089 -0.290763 0
M  V30 1373 H 129.198 1.39947 -1.3565 0
M  V30 1374 H 128.294 2.91001 -1.12804 0
M  V30 1375 N 128.595 0.856903 1.32268 0
M  V30 1376 C 130.006 0.515711 1.79436 0
M  V30 1377 C 130.357 -0.966586 1.70738 0
M  V30 1378 O 129.482 -1.75409 1.26731 0
M  V30 1379 C 130.077 0.929335 3.25805 0
M  V30 1380 C 128.636 0.640006 3.70919 0
M  V30 1381 C 127.783 1.12784 2.53328 0
M  V30 1382 H 130.734 1.04389 1.19535 0
M  V30 1383 H 130.755 0.246633 3.797 0
M  V30 1384 H 130.267 2.00821 3.32103 0
M  V30 1385 H 128.368 -0.428051 3.70133 0
M  V30 1386 H 128.481 1.20788 4.63624 0
M  V30 1387 H 126.845 0.548033 2.48734 0
M  V30 1388 H 127.628 2.21387 2.62379 0
M  V30 1389 N 130.073 -1.45103 0.615059 0
M  V30 1390 C 131.003 -2.33339 -0.0865619 0
M  V30 1391 C 131.984 -1.4727 -0.851209 0
M  V30 1392 O 133.169 -1.76026 -0.820281 0
M  V30 1393 C 130.299 -3.30095 -1.07956 0
M  V30 1394 C 129.253 -4.25858 -0.427628 0
M  V30 1395 C 128.579 -5.12361 -1.5294 0
M  V30 1396 C 129.879 -5.18165 0.655944 0
M  V30 1397 H 131.573 -2.92254 0.650224 0
M  V30 1398 H 129.119 -1.40532 0.314138 0
M  V30 1399 H 131.072 -3.90698 -1.57901 0
M  V30 1400 H 129.796 -2.69355 -1.84703 0
M  V30 1401 H 128.455 -3.66564 0.0510292 0
M  V30 1402 H 128.103 -4.47984 -2.28734 0
M  V30 1403 H 127.803 -5.77238 -1.09865 0
M  V30 1404 H 129.327 -5.75833 -2.03098 0
M  V30 1405 H 130.741 -5.72796 0.240257 0
M  V30 1406 H 129.138 -5.91559 1.00888 0
M  V30 1407 H 130.208 -4.60144 1.52957 0
M  V30 1408 N 131.551 -0.354651 -1.53558 0
M  V30 1409 C 132.779 0.239515 -2.05509 0
M  V30 1410 C 133.194 1.4333 -1.2289 0
M  V30 1411 O 132.551 1.80538 -0.266899 0
M  V30 1412 C 132.602 0.643719 -3.55723 0
M  V30 1413 O 132.323 -0.502602 -4.35207 0
M  V30 1414 C 133.824 1.29743 -4.23889 0
M  V30 1415 H 131.044 0.0442697 -0.669538 0
M  V30 1416 H 133.588 -0.509856 -1.98042 0
M  V30 1417 H 131.743 1.34302 -3.63376 0
M  V30 1418 H 132.157 -0.178172 -5.24197 0
M  V30 1419 H 133.631 1.53091 -5.30346 0
M  V30 1420 H 134.108 2.25441 -3.76926 0
M  V30 1421 H 134.714 0.639865 -4.20459 0
M  V30 1422 N 133.029 1.57378 -0.0835403 0
M  V30 1423 C 134.254 1.98682 0.594987 0
M  V30 1424 C 134.679 0.961969 1.61641 0
M  V30 1425 O 134.037 -0.0709989 1.81161 0
M  V30 1426 C 134.085 3.38988 1.2296 0
M  V30 1427 O 133.189 3.39208 2.34546 0
M  V30 1428 H 132.53 0.646368 0.152002 0
M  V30 1429 H 135.06 2.03961 -0.161533 0
M  V30 1430 H 135.07 3.76431 1.57366 0
M  V30 1431 H 133.745 4.13107 0.481228 0
M  V30 1432 H 132.322 3.13548 2.01846 0
M  V30 1433 N 134.507 -0.190092 1.56449 0
M  V30 1434 C 135.923 -0.54113 1.50146 0
M  V30 1435 C 136.123 -1.85603 0.784465 0
M  V30 1436 O 135.179 -2.5024 0.337051 0
M  V30 1437 C 136.492 -0.591241 2.9483 0
M  V30 1438 C 138.04 -0.679732 3.0553 0
M  V30 1439 C 138.515 -0.760908 4.51635 0
M  V30 1440 N 140.006 -0.824302 4.55806 0
M  V30 1441 C 140.741 -0.907365 5.66175 0
M  V30 1442 N 140.237 -0.952422 6.86222 0
M  V30 1443 N 142.03 -0.94494 5.541 0
M  V30 1444 H 134.181 0.67235 2.01478 0
M  V30 1445 H 136.444 0.240127 0.917084 0
M  V30 1446 H 136.15 0.305905 3.50367 0
M  V30 1447 H 136.024 -1.44422 3.48457 0
M  V30 1448 H 138.411 -1.56731 2.50039 0
M  V30 1449 H 138.492 0.199549 2.5502 0
M  V30 1450 H 138.136 0.122336 5.07753 0
M  V30 1451 H 138.066 -1.65606 4.99882 0
M  V30 1452 H 140.557 -0.798526 3.69367 0
M  V30 1453 H 140.87 -1.01645 7.66086 0
M  V30 1454 H 139.215 -0.921014 6.8887 0
M  V30 1455 H 142.406 -0.906612 4.59236 0
M  V30 1456 H 142.579 -1.00622 6.4014 0
M  V30 1457 N 135.985 -1.50799 -0.457987 0
M  V30 1458 C 136.915 -1.73553 -1.5621 0
M  V30 1459 C 137.896 -0.584774 -1.59732 0
M  V30 1460 O 139.081 -0.825314 -1.7579 0
M  V30 1461 C 136.211 -1.84169 -2.94447 0
M  V30 1462 C 135.165 -2.99461 -3.0579 0
M  V30 1463 C 134.491 -2.95235 -4.45803 0
M  V30 1464 C 135.791 -4.39766 -2.81786 0
M  V30 1465 H 137.485 -2.66 -1.37421 0
M  V30 1466 H 135.031 -1.28002 -0.659662 0
M  V30 1467 H 136.984 -1.98672 -3.71628 0
M  V30 1468 H 135.708 -0.883545 -3.14422 0
M  V30 1469 H 134.367 -2.8463 -2.31044 0
M  V30 1470 H 134.015 -1.97239 -4.62715 0
M  V30 1471 H 133.715 -3.72642 -4.54326 0
M  V30 1472 H 135.239 -3.11803 -5.24987 0
M  V30 1473 H 136.653 -4.55054 -3.4871 0
M  V30 1474 H 135.05 -5.18722 -3.0174 0
M  V30 1475 H 136.12 -4.51229 -1.7754 0
M  V30 1476 N 137.463 0.71206 -1.40597 0
M  V30 1477 C 138.395 1.83704 -1.37061 0
M  V30 1478 C 139.408 1.60453 -0.275426 0
M  V30 1479 O 140.597 1.70262 -0.53602 0
M  V30 1480 C 137.697 3.20172 -1.11099 0
M  V30 1481 C 136.87 3.7059 -2.3234 0
M  V30 1482 C 135.929 4.85681 -2.02485 0
M  V30 1483 O 134.955 4.9815 -2.75382 0
M  V30 1484 N 136.157 5.71735 -1.00497 0
M  V30 1485 H 138.922 1.87235 -2.34016 0
M  V30 1486 H 136.483 0.893739 -1.34996 0
M  V30 1487 H 138.475 3.94768 -0.891064 0
M  V30 1488 H 137.045 3.11767 -0.227989 0
M  V30 1489 H 136.265 2.87085 -2.7014 0
M  V30 1490 H 137.553 4.01011 -3.13157 0
M  V30 1491 H 136.951 5.64275 -0.401298 0
M  V30 1492 H 135.508 6.463 -0.844942 0
M  V30 1493 N 138.941 1.26152 0.944643 0
M  V30 1494 C 139.891 1.04081 2.02857 0
M  V30 1495 C 140.875 -0.0256555 1.6088 0
M  V30 1496 O 142.067 0.190884 1.75968 0
M  V30 1497 C 139.196 0.672118 3.36656 0
M  V30 1498 C 138.282 1.77586 3.85128 0
M  V30 1499 N 138.673 3.01272 4.06287 0
M  V30 1500 C 136.971 1.65867 4.1401 0
M  V30 1501 C 137.672 3.72983 4.46384 0
M  V30 1502 N 136.648 3.00653 4.52889 0
M  V30 1503 H 140.45 1.97968 2.17223 0
M  V30 1504 H 137.964 1.16618 1.13022 0
M  V30 1505 H 139.961 0.495166 4.13949 0
M  V30 1506 H 138.621 -0.259307 3.23663 0
M  V30 1507 H 139.632 3.37213 3.93075 0
M  V30 1508 H 136.309 0.796907 4.09824 0
M  V30 1509 H 137.699 4.792 4.70975 0
M  V30 1510 N 140.419 -1.14872 1.07899 0
M  V30 1511 C 141.668 -1.85135 0.800499 0
M  V30 1512 C 141.981 -1.83547 -0.676014 0
M  V30 1513 O 143.187 -2.49548 -1.06948 0
M  V30 1514 C 141.643 -3.3231 1.38197 0
M  V30 1515 C 141.251 -3.42329 2.8899 0
M  V30 1516 C 142.995 -4.0772 1.18174 0
M  V30 1517 C 140.902 -4.83684 3.403 0
M  V30 1518 H 139.832 -0.693563 0.29578 0
M  V30 1519 H 142.483 -1.29532 1.29976 0
M  V30 1520 H 140.865 -3.87618 0.810431 0
M  V30 1521 H 142.039 -2.97097 3.52236 0
M  V30 1522 H 140.354 -2.80369 3.07867 0
M  V30 1523 H 142.951 -5.12049 1.5398 0
M  V30 1524 H 143.294 -4.16124 0.12117 0
M  V30 1525 H 143.827 -3.58696 1.71994 0
M  V30 1526 H 140.566 -4.80465 4.45907 0
M  V30 1527 H 140.086 -5.29474 2.81811 0
M  V30 1528 H 141.765 -5.52558 3.36584 0
M  V30 1529 N 141.898 -0.863906 -1.31812 0
M  V30 1530 C 142.845 -0.313303 -2.28664 0
M  V30 1531 C 143.815 0.584868 -1.55462 0
M  V30 1532 O 145 0.517805 -1.83639 0
M  V30 1533 C 142.14 0.48441 -3.41683 0
M  V30 1534 C 141.253 -0.440594 -4.29747 0
M  V30 1535 C 140.388 0.370652 -5.29905 0
M  V30 1536 C 139.427 -0.551164 -6.09613 0
M  V30 1537 N 138.564 0.223462 -7.01744 0
M  V30 1538 H 143.404 -1.14444 -2.75148 0
M  V30 1539 H 140.941 -0.575769 -1.35364 0
M  V30 1540 H 142.899 0.962627 -4.05943 0
M  V30 1541 H 141.529 1.28029 -2.96325 0
M  V30 1542 H 140.581 -1.03724 -3.65986 0
M  V30 1543 H 141.893 -1.14767 -4.85417 0
M  V30 1544 H 141.047 0.911638 -5.99812 0
M  V30 1545 H 139.786 1.11105 -4.74876 0
M  V30 1546 H 138.791 -1.10396 -5.38603 0
M  V30 1547 H 140.016 -1.29032 -6.66729 0
M  V30 1548 H 137.962 0.946787 -6.49132 0
M  V30 1549 H 137.879 -0.424399 -7.54808 0
M  V30 1550 H 139.147 0.745876 -7.75923 0
M  V30 1551 N 143.376 1.44774 -0.622745 0
M  V30 1552 C 144.622 2.0242 -0.124083 0
M  V30 1553 C 144.955 1.4881 1.24777 0
M  V30 1554 O 144.23 0.668799 1.8264 0
M  V30 1555 C 144.513 3.59957 -0.101619 0
M  V30 1556 C 144.366 4.23867 -1.50521 0
M  V30 1557 C 145.685 4.36284 0.578272 0
M  V30 1558 H 142.804 0.735528 -0.0465645 0
M  V30 1559 H 145.446 1.72447 -0.797617 0
M  V30 1560 H 143.596 3.85623 0.471934 0
M  V30 1561 H 145.268 4.09336 -2.12701 0
M  V30 1562 H 143.511 3.81684 -2.06154 0
M  V30 1563 H 144.182 5.32843 -1.4416 0
M  V30 1564 H 146.658 4.16001 0.0906057 0
M  V30 1565 H 145.534 5.46004 0.563149 0
M  V30 1566 H 145.795 4.10271 1.64713 0
M  V30 1567 N 144.854 0.36279 1.53368 0
M  V30 1568 C 146.102 -0.227326 2.00817 0
M  V30 1569 C 146.423 -1.49511 1.25186 0
M  V30 1570 O 145.693 -1.92482 0.364348 0
M  V30 1571 H 144.273 -0.0869923 0.741917 0
M  V30 1572 H 146.935 0.488381 1.88682 0
M  V30 1573 H 146.031 -0.456273 3.08747 0
M  V30 1574 N 146.332 -1.57332 0.0918853 0
M  V30 1575 C 147.242 -2.17368 -0.882505 0
M  V30 1576 C 148.258 -1.14226 -1.31257 0
M  V30 1577 O 149.434 -1.46582 -1.38115 0
M  V30 1578 C 146.499 -2.73962 -2.12476 0
M  V30 1579 C 145.56 -3.92048 -1.7492 0
M  V30 1580 C 144.793 -4.45933 -2.93223 0
M  V30 1581 O 145.016 -3.98764 -4.07852 0
M  V30 1582 O 143.95 -5.36999 -2.71875 0
M  V30 1583 H 147.776 -3.01031 -0.40172 0
M  V30 1584 H 145.361 -1.48813 -0.132291 0
M  V30 1585 H 147.243 -3.10147 -2.85283 0
M  V30 1586 H 145.918 -1.93347 -2.59613 0
M  V30 1587 H 144.825 -3.6068 -0.993025 0
M  V30 1588 H 146.158 -4.74017 -1.32548 0
M  V30 1589 N 147.81 0.181792 -1.56548 0
M  V30 1590 C 148.742 1.24956 -1.92142 0
M  V30 1591 C 149.755 1.41022 -0.813422 0
M  V30 1592 O 150.944 1.41212 -1.09186 0
M  V30 1593 C 148.044 2.61981 -2.14987 0
M  V30 1594 C 147.217 2.6735 -3.46183 0
M  V30 1595 C 146.276 3.85664 -3.5798 0
M  V30 1596 O 145.302 3.72148 -4.30691 0
M  V30 1597 N 146.504 5.01683 -2.92053 0
M  V30 1598 H 149.269 0.947329 -2.84334 0
M  V30 1599 H 146.83 0.371629 -1.57577 0
M  V30 1600 H 148.822 3.3958 -2.20154 0
M  V30 1601 H 147.392 2.84637 -1.2923 0
M  V30 1602 H 146.612 1.75925 -3.52766 0
M  V30 1603 H 147.9 2.67939 -4.32534 0
M  V30 1604 H 147.298 5.15564 -2.32832 0
M  V30 1605 H 145.855 5.77181 -3.0283 0
M  V30 1606 N 149.288 1.51039 0.449983 0
M  V30 1607 C 150.537 1.62317 1.19733 0
M  V30 1608 C 150.85 0.339101 1.92638 0
M  V30 1609 O 152.056 0.331069 2.69474 0
M  V30 1610 C 150.512 2.86608 2.17678 0
M  V30 1611 C 150.12 4.21972 1.50479 0
M  V30 1612 C 151.864 3.07239 2.92924 0
M  V30 1613 C 149.771 5.37426 2.46834 0
M  V30 1614 H 148.701 0.604532 0.450619 0
M  V30 1615 H 151.352 1.77494 0.465625 0
M  V30 1616 H 149.734 2.65037 2.94231 0
M  V30 1617 H 150.908 4.53878 0.795716 0
M  V30 1618 H 149.223 4.07117 0.874344 0
M  V30 1619 H 151.82 3.90668 3.65079 0
M  V30 1620 H 152.163 2.19807 3.5354 0
M  V30 1621 H 152.696 3.29091 2.23481 0
M  V30 1622 H 149.435 6.27079 1.90926 0
M  V30 1623 H 148.955 5.09912 3.15832 0
M  V30 1624 H 150.634 5.68862 3.08228 0
M  V30 1625 N 150.766 -0.704594 1.40972 0
M  V30 1626 C 152.015 -1.46018 1.39146 0
M  V30 1627 C 152.328 -1.956 0.000589254 0
M  V30 1628 O 153.534 -2.71137 -0.1403 0
M  V30 1629 C 151.99 -2.63996 2.4461 0
M  V30 1630 C 151.598 -2.21238 3.89561 0
M  V30 1631 C 153.342 -3.41677 2.51907 0
M  V30 1632 C 151.249 -3.3612 4.86598 0
M  V30 1633 H 150.179 -0.548444 0.517422 0
M  V30 1634 H 152.83 -0.765784 1.66757 0
M  V30 1635 H 151.212 -3.3566 2.10115 0
M  V30 1636 H 152.386 -1.56923 4.33257 0
M  V30 1637 H 150.701 -1.56574 3.85841 0
M  V30 1638 H 153.298 -4.27182 3.2159 0
M  V30 1639 H 153.641 -3.86247 1.55303 0
M  V30 1640 H 154.174 -2.77064 2.85448 0
M  V30 1641 H 150.913 -2.96572 5.84573 0
M  V30 1642 H 150.433 -3.99315 4.47557 0
M  V30 1643 H 152.112 -4.02029 5.06934 0
M  V30 1644 N 152.244 -1.26651 -0.937939 0
M  V30 1645 C 153.174 -1.10993 -2.05433 0
M  V30 1646 C 154.155 -0.0142161 -1.70094 0
M  V30 1647 O 155.34 -0.186837 -1.93299 0
M  V30 1648 C 152.47 -0.745561 -3.39203 0
M  V30 1649 C 151.424 -1.79337 -3.88616 0
M  V30 1650 C 150.75 -1.28324 -5.19073 0
M  V30 1651 C 152.05 -3.19553 -4.13138 0
M  V30 1652 H 153.744 -2.0438 -2.1879 0
M  V30 1653 H 151.29 -0.984041 -1.05131 0
M  V30 1654 H 153.243 -0.622888 -4.16771 0
M  V30 1655 H 151.967 0.22401 -3.25831 0
M  V30 1656 H 150.626 -1.90477 -3.13231 0
M  V30 1657 H 150.274 -0.303414 -5.02084 0
M  V30 1658 H 149.974 -1.98369 -5.53103 0
M  V30 1659 H 151.498 -1.1733 -5.99221 0
M  V30 1660 H 152.912 -3.11471 -4.81309 0
M  V30 1661 H 151.309 -3.87218 -4.58457 0
M  V30 1662 H 152.379 -3.65368 -3.18801 0
M  V30 1663 N 153.722 1.14298 -1.08507 0
M  V30 1664 C 155.138 1.37347 -0.812901 0
M  V30 1665 C 155.338 1.93052 0.577325 0
M  V30 1666 O 154.394 2.14389 1.33393 0
M  V30 1667 C 155.707 2.33359 -1.89642 0
M  V30 1668 C 157.255 2.46996 -1.92255 0
M  V30 1669 C 157.73 3.46309 -2.99724 0
M  V30 1670 N 159.221 3.53853 -2.98902 0
M  V30 1671 C 159.956 4.3055 -3.787 0
M  V30 1672 N 159.452 5.10482 -4.6838 0
M  V30 1673 N 161.245 4.25757 -3.66998 0
M  V30 1674 H 153.396 0.764867 -1.9815 0
M  V30 1675 H 155.659 0.398966 -0.859959 0
M  V30 1676 H 155.365 1.99565 -2.89597 0
M  V30 1677 H 155.239 3.33274 -1.76659 0
M  V30 1678 H 157.626 2.80081 -0.929445 0
M  V30 1679 H 157.707 1.47039 -2.09316 0
M  V30 1680 H 157.351 3.13957 -3.99241 0
M  V30 1681 H 157.281 4.46049 -2.79907 0
M  V30 1682 H 159.772 2.96812 -2.33904 0
M  V30 1683 H 160.085 5.66284 -5.25873 0
M  V30 1684 H 158.43 5.09747 -4.72422 0
M  V30 1685 H 161.621 3.62383 -2.96304 0
M  V30 1686 H 161.794 4.85279 -4.29427 0
M  V30 1687 N 155.201 0.870884 1.31352 0
M  V30 1688 C 156.612 0.534714 1.78879 0
M  V30 1689 C 156.963 -0.948423 1.71754 0
M  V30 1690 O 156.088 -1.74055 1.28584 0
M  V30 1691 C 156.683 0.963839 3.24801 0
M  V30 1692 C 155.242 0.679311 3.70219 0
M  V30 1693 C 154.389 1.15465 2.52117 0
M  V30 1694 H 157.34 1.05651 1.18421 0
M  V30 1695 H 157.361 0.286892 3.79417 0
M  V30 1696 H 156.873 2.04332 3.29955 0
M  V30 1697 H 154.974 -0.388769 3.70566 0
M  V30 1698 H 155.087 1.25698 4.62317 0
M  V30 1699 H 153.451 0.574383 2.48139 0
M  V30 1700 H 154.234 2.24157 2.60016 0
M  V30 1701 N 156.679 -1.44442 0.630414 0
M  V30 1702 C 157.626 -2.30678 -0.0749355 0
M  V30 1703 C 158.596 -1.4344 -0.837502 0
M  V30 1704 O 159.781 -1.72343 -0.818684 0
M  V30 1705 C 156.921 -3.28706 -1.05103 0
M  V30 1706 C 156.034 -4.31046 -0.286954 0
M  V30 1707 C 155.169 -5.16167 -1.2548 0
M  V30 1708 C 154.208 -6.10216 -0.479843 0
M  V30 1709 N 153.345 -6.88039 -1.39811 0
M  V30 1710 H 158.185 -2.90454 0.666386 0
M  V30 1711 H 155.722 -1.43107 0.340404 0
M  V30 1712 H 157.68 -3.84027 -1.63031 0
M  V30 1713 H 156.31 -2.70632 -1.75949 0
M  V30 1714 H 155.362 -3.78203 0.408243 0
M  V30 1715 H 156.674 -4.97794 0.316657 0
M  V30 1716 H 155.828 -5.76002 -1.90544 0
M  V30 1717 H 154.567 -4.49491 -1.89233 0
M  V30 1718 H 153.572 -5.49491 0.184295 0
M  V30 1719 H 154.797 -6.78928 0.152965 0
M  V30 1720 H 152.743 -6.24032 -2.02287 0
M  V30 1721 H 152.66 -7.51223 -0.848508 0
M  V30 1722 H 153.928 -7.52397 -2.03762 0
M  V30 1723 N 158.157 -0.370918 -1.53173 0
M  V30 1724 C 159.568 0.107139 -1.86392 0
M  V30 1725 C 159.919 1.47714 -1.29132 0
M  V30 1726 O 159.044 2.07464 -0.615439 0
M  V30 1727 C 159.639 0.201187 -3.38202 0
M  V30 1728 C 158.198 0.623507 -3.712 0
M  V30 1729 C 157.345 -0.225978 -2.76378 0
M  V30 1730 H 160.296 -0.58951 -1.47345 0
M  V30 1731 H 160.317 1.02377 -3.66468 0
M  V30 1732 H 159.829 -0.796058 -3.79848 0
M  V30 1733 H 157.93 1.62879 -3.35114 0
M  V30 1734 H 158.043 0.394414 -4.77474 0
M  V30 1735 H 156.407 0.305962 -2.52856 0
M  V30 1736 H 157.19 -1.22086 -3.20858 0
M  V30 1737 N 159.635 1.57281 -0.100228 0
M  V30 1738 C 160.881 1.94826 0.563101 0
M  V30 1739 C 161.214 0.982475 1.67514 0
M  V30 1740 O 160.489 0.0164069 1.94493 0
M  V30 1741 C 160.772 3.42453 1.11346 0
M  V30 1742 C 160.625 4.498 0.00612081 0
M  V30 1743 C 161.944 3.91506 2.01024 0
M  V30 1744 H 159.063 0.708428 0.203221 0
M  V30 1745 H 161.705 1.8922 -0.171979 0
M  V30 1746 H 159.855 3.47361 1.7399 0
M  V30 1747 H 161.527 4.57 -0.628357 0
M  V30 1748 H 159.77 4.28756 -0.659581 0
M  V30 1749 H 160.441 5.50306 0.432109 0
M  V30 1750 H 162.917 3.88784 1.48278 0
M  V30 1751 H 161.793 4.95358 2.36457 0
M  V30 1752 H 162.054 3.31099 2.92961 0
M  V30 1753 N 161.113 -0.173488 1.56642 0
M  V30 1754 C 162.361 -0.888706 1.81512 0
M  V30 1755 C 162.682 -1.82875 0.676872 0
M  V30 1756 O 161.952 -1.93536 -0.303414 0
M  V30 1757 H 160.532 -0.331164 0.669582 0
M  V30 1758 H 163.194 -0.173823 1.94123 0
M  V30 1759 H 162.29 -1.46691 2.75478 0
M  V30 1760 N 162.591 -1.51276 -0.441967 0
M  V30 1761 C 163.819 -1.67516 -1.21434 0
M  V30 1762 C 164.234 -0.37055 -1.85128 0
M  V30 1763 O 163.591 0.650498 -1.70513 0
M  V30 1764 C 163.642 -2.78748 -2.30177 0
M  V30 1765 O 163.363 -4.04154 -1.69089 0
M  V30 1766 C 164.864 -3.06217 -3.20541 0
M  V30 1767 H 162.084 -0.562276 -0.366178 0
M  V30 1768 H 164.628 -1.97666 -0.524244 0
M  V30 1769 H 162.783 -2.5121 -2.94911 0
M  V30 1770 H 163.197 -4.65894 -2.40922 0
M  V30 1771 H 164.671 -3.8764 -3.92987 0
M  V30 1772 H 165.148 -2.18439 -3.81026 0
M  V30 1773 H 165.754 -3.35397 -2.61513 0
M  V30 1774 N 164.069 0.697108 -1.41344 0
M  V30 1775 C 164.999 1.82353 -1.45841 0
M  V30 1776 C 165.98 1.67115 -0.317247 0
M  V30 1777 O 167.165 1.86871 -0.528474 0
M  V30 1778 C 164.295 3.20476 -1.33838 0
M  V30 1779 C 163.249 3.50415 -2.4575 0
M  V30 1780 C 162.575 4.87878 -2.18813 0
M  V30 1781 C 163.875 3.49546 -3.88091 0
M  V30 1782 H 165.569 1.78846 -2.40113 0
M  V30 1783 H 163.115 0.859028 -1.15571 0
M  V30 1784 H 165.068 3.98988 -1.35596 0
M  V30 1785 H 163.792 3.24604 -0.360498 0
M  V30 1786 H 162.451 2.74253 -2.43271 0
M  V30 1787 H 162.099 4.8863 -1.19371 0
M  V30 1788 H 161.799 5.08875 -2.93803 0
M  V30 1789 H 163.323 5.68702 -2.22284 0
M  V30 1790 H 164.737 4.18066 -3.92293 0
M  V30 1791 H 163.134 3.82075 -4.62751 0
M  V30 1792 H 164.204 2.48552 -4.16353 0
M  V30 1793 N 165.547 1.27147 0.931209 0
M  V30 1794 C 166.793 1.13446 1.68101 0
M  V30 1795 C 167.126 -0.319628 1.91552 0
M  V30 1796 O 166.401 -1.23407 1.50336 0
M  V30 1797 C 166.684 1.91482 3.0497 0
M  V30 1798 C 166.537 3.44855 2.88782 0
M  V30 1799 C 167.856 1.71651 4.05246 0
M  V30 1800 H 164.975 0.413498 0.610072 0
M  V30 1801 H 167.617 1.56261 1.08086 0
M  V30 1802 H 165.767 1.55095 3.56199 0
M  V30 1803 H 167.439 3.9105 2.44698 0
M  V30 1804 H 165.682 3.71373 2.24198 0
M  V30 1805 H 166.353 3.94694 3.85902 0
M  V30 1806 H 168.829 2.0337 3.63015 0
M  V30 1807 H 167.705 2.28651 4.99009 0
M  V30 1808 H 167.966 0.663555 4.37092 0
M  V30 1809 N 167.025 -1.13721 1.09112 0
M  V30 1810 C 168.274 -1.84275 0.82009 0
M  V30 1811 C 168.587 -1.84253 -0.656509 0
M  V30 1812 O 169.793 -2.50668 -1.04296 0
M  V30 1813 C 168.249 -3.30825 1.41714 0
M  V30 1814 C 167.857 -3.39244 2.92605 0
M  V30 1815 C 169.601 -4.06443 1.22492 0
M  V30 1816 C 167.508 -4.80047 3.45411 0
M  V30 1817 H 166.438 -0.690387 0.30312 0
M  V30 1818 H 169.089 -1.28146 1.31343 0
M  V30 1819 H 167.471 -3.86737 0.851498 0
M  V30 1820 H 168.645 -2.93344 3.55367 0
M  V30 1821 H 166.96 -2.77088 3.10823 0
M  V30 1822 H 169.557 -5.10387 1.59402 0
M  V30 1823 H 169.9 -4.15972 0.165299 0
M  V30 1824 H 170.433 -3.56852 1.75788 0
M  V30 1825 H 167.172 -4.75709 4.50978 0
M  V30 1826 H 166.692 -5.26455 2.87411 0
M  V30 1827 H 168.371 -5.48957 3.42425 0
M  V30 1828 N 168.503 -0.877838 -1.30888 0
M  V30 1829 C 169.78 -0.413052 -1.91189 0
M  V30 1830 C 170.16 1.1056 -1.79832 0
M  V30 1831 O 169.508 1.93771 -1.21099 0
M  V30 1832 C 169.718 -0.903191 -3.3711 0
M  V30 1833 C 171.066 -0.93395 -4.14201 0
M  V30 1834 O 172.09 -0.849373 -3.45925 0
M  V30 1835 O 170.949 -1.05772 -5.36167 0
M  V30 1836 H 168.043 -0.125035 -0.817493 0
M  V30 1837 H 170.589 -0.966269 -1.39504 0
M  V30 1838 H 169.361 -1.94692 -3.39427 0
M  V30 1839 H 168.984 -0.328732 -3.96239 0
M  V30 1840 N 169.982 1.44106 -0.638065 0
M  V30 1841 C 170.945 2.29138 0.0531013 0
M  V30 1842 C 171.945 1.41409 0.765506 0
M  V30 1843 O 173.135 1.63206 0.609046 0
M  V30 1844 C 170.267 3.23144 1.08584 0
M  V30 1845 H 171.46 2.91739 -0.694883 0
M  V30 1846 H 169.013 1.51134 -0.398538 0
M  V30 1847 H 169.748 2.65408 1.86357 0
M  V30 1848 H 169.533 3.87804 0.578852 0
M  V30 1849 H 171.023 3.87004 1.56899 0
M  V30 1850 N 171.46 0.379036 1.52974 0
M  V30 1851 C 172.39 -0.452706 2.29069 0
M  V30 1852 C 173.371 -1.07237 1.32039 0
M  V30 1853 O 174.556 -1.08708 1.60923 0
M  V30 1854 C 171.686 -1.5856 3.08992 0
M  V30 1855 C 170.64 -1.0925 4.13822 0
M  V30 1856 C 169.966 -2.31668 4.81907 0
M  V30 1857 C 171.266 -0.167702 5.22031 0
M  V30 1858 H 172.96 0.182181 2.98845 0
M  V30 1859 H 170.506 0.0890592 1.43724 0
M  V30 1860 H 172.459 -2.1742 3.6098 0
M  V30 1861 H 171.183 -2.24792 2.36931 0
M  V30 1862 H 169.842 -0.526494 3.628 0
M  V30 1863 H 169.49 -2.96386 4.06404 0
M  V30 1864 H 169.19 -1.9934 5.52754 0
M  V30 1865 H 170.714 -2.91189 5.36695 0
M  V30 1866 H 172.128 -0.664186 5.6944 0
M  V30 1867 H 170.525 0.0653265 6.00064 0
M  V30 1868 H 171.595 0.786347 4.78482 0
M  V30 1869 N 172.938 -1.57226 0.108567 0
M  V30 1870 C 173.868 -2.17778 -0.84232 0
M  V30 1871 C 174.849 -1.11487 -1.2847 0
M  V30 1872 O 176.034 -1.39681 -1.34918 0
M  V30 1873 C 173.164 -2.76888 -2.09644 0
M  V30 1874 C 172.118 -3.88669 -1.79221 0
M  V30 1875 C 171.444 -4.34541 -3.11574 0
M  V30 1876 C 172.744 -5.11251 -1.06864 0
M  V30 1877 H 174.438 -2.97489 -0.337774 0
M  V30 1878 H 171.984 -1.43097 -0.161025 0
M  V30 1879 H 173.937 -3.17904 -2.76614 0
M  V30 1880 H 172.661 -1.94451 -2.62405 0
M  V30 1881 H 171.32 -3.48213 -1.14644 0
M  V30 1882 H 170.968 -3.48977 -3.62249 0
M  V30 1883 H 170.668 -5.09914 -2.91996 0
M  V30 1884 H 172.192 -4.782 -3.7968 0
M  V30 1885 H 173.606 -5.49352 -1.63968 0
M  V30 1886 H 172.003 -5.9214 -0.974178 0
M  V30 1887 H 173.073 -4.8487 -0.0536168 0
M  V30 1888 N 174.416 0.165178 -1.56732 0
M  V30 1889 C 175.827 0.727046 -1.71962 0
M  V30 1890 C 176.178 1.82508 -0.720078 0
M  V30 1891 O 175.303 2.16082 0.117242 0
M  V30 1892 C 175.898 1.32559 -3.11791 0
M  V30 1893 C 174.457 1.83422 -3.28684 0
M  V30 1894 C 173.604 0.715567 -2.67908 0
M  V30 1895 H 176.555 -0.0602896 -1.58585 0
M  V30 1896 H 176.576 2.19533 -3.10782 0
M  V30 1897 H 176.088 0.526195 -3.84516 0
M  V30 1898 H 174.189 2.65986 -2.60926 0
M  V30 1899 H 174.302 1.97543 -4.36478 0
M  V30 1900 H 172.666 1.13758 -2.27884 0
M  V30 1901 H 173.449 -0.0720836 -3.43224 0
M  V30 1902 N 175.894 1.51508 0.433938 0
M  V30 1903 C 177.142 1.6402 1.18075 0
M  V30 1904 C 177.463 0.360328 1.91642 0
M  V30 1905 O 176.733 -0.623945 1.85698 0
M  V30 1906 H 175.313 0.6045 0.43885 0
M  V30 1907 H 177.975 1.88452 0.497178 0
M  V30 1908 H 177.071 2.46949 1.90847 0
M  V30 1909 N 177.372 -0.689602 1.41712 0
M  V30 1910 C 178.319 -1.80345 1.44029 0
M  V30 1911 C 179.289 -1.63478 0.293948 0
M  V30 1912 O 180.474 -1.84244 0.495869 0
M  V30 1913 C 177.614 -3.18272 1.33405 0
M  V30 1914 C 176.727 -3.46529 2.57956 0
M  V30 1915 C 175.862 -4.74103 2.39582 0
M  V30 1916 C 174.901 -4.95347 3.5958 0
M  V30 1917 N 174.038 -6.14151 3.40239 0
M  V30 1918 H 178.878 -1.77698 2.39222 0
M  V30 1919 H 176.415 -0.867688 1.18784 0
M  V30 1920 H 178.373 -3.97956 1.25246 0
M  V30 1921 H 177.003 -3.2008 0.418164 0
M  V30 1922 H 176.055 -2.61207 2.76542 0
M  V30 1923 H 177.367 -3.58126 3.47199 0
M  V30 1924 H 176.521 -5.61853 2.28924 0
M  V30 1925 H 175.26 -4.64763 1.47805 0
M  V30 1926 H 174.265 -4.06044 3.70686 0
M  V30 1927 H 175.49 -5.06542 4.52318 0
M  V30 1928 H 173.436 -6.06013 2.51167 0
M  V30 1929 H 173.353 -6.26543 4.23061 0
M  V30 1930 H 174.621 -7.04619 3.33365 0
M  V30 1931 N 178.85 -1.27639 -0.924453 0
M  V30 1932 C 180.266 -1.05113 -1.20097 0
M  V30 1933 C 180.466 0.213262 -2.00368 0
M  V30 1934 O 179.522 0.91787 -2.35226 0
M  V30 1935 C 180.835 -2.29244 -1.94596 0
M  V30 1936 C 182.383 -2.34315 -2.07522 0
M  V30 1937 C 182.858 -3.58183 -2.85427 0
M  V30 1938 N 184.349 -3.5876 -2.92994 0
M  V30 1939 C 185.084 -4.51277 -3.53746 0
M  V30 1940 N 184.58 -5.54102 -4.15863 0
M  V30 1941 N 186.373 -4.38894 -3.51181 0
M  V30 1942 H 178.524 -2.08821 -0.388264 0
M  V30 1943 H 180.787 -0.918568 -0.234385 0
M  V30 1944 H 180.493 -3.21301 -1.43034 0
M  V30 1945 H 180.367 -2.34816 -2.95197 0
M  V30 1946 H 182.754 -1.42762 -2.58269 0
M  V30 1947 H 182.835 -2.32744 -1.06131 0
M  V30 1948 H 182.479 -4.50074 -2.35363 0
M  V30 1949 H 182.409 -3.57006 -3.8711 0
M  V30 1950 H 184.9 -2.84398 -2.4885 0
M  V30 1951 H 185.213 -6.20859 -4.60168 0
M  V30 1952 H 183.558 -5.57941 -4.144 0
M  V30 1953 H 186.749 -3.57772 -3.01856 0
M  V30 1954 H 186.922 -5.11186 -3.98237 0
M  V30 1955 N 180.328 1.1314 -1.09713 0
M  V30 1956 C 181.258 2.20748 -0.761102 0
M  V30 1957 C 182.239 1.68061 0.262566 0
M  V30 1958 O 183.424 1.93765 0.129977 0
M  V30 1959 C 180.554 3.46812 -0.184054 0
M  V30 1960 C 179.508 4.12606 -1.13757 0
M  V30 1961 C 178.834 5.33031 -0.422083 0
M  V30 1962 C 180.134 4.59603 -2.48118 0
M  V30 1963 H 181.828 2.49113 -1.66082 0
M  V30 1964 H 179.374 1.19734 -0.799987 0
M  V30 1965 H 181.327 4.21353 0.0631215 0
M  V30 1966 H 180.051 3.17851 0.750868 0
M  V30 1967 H 178.71 3.40036 -1.37007 0
M  V30 1968 H 178.358 5.00335 0.517072 0
M  V30 1969 H 178.058 5.77999 -1.05788 0
M  V30 1970 H 179.582 6.10325 -0.183277 0
M  V30 1971 H 180.996 5.25552 -2.29059 0
M  V30 1972 H 179.393 5.15321 -3.07514 0
M  V30 1973 H 180.463 3.73971 -3.08665 0
M  V30 1974 N 181.806 0.884767 1.30421 0
M  V30 1975 C 183.052 0.513218 1.96819 0
M  V30 1976 C 183.407 -0.927347 1.68577 0
M  V30 1977 O 182.7 -1.64644 0.979941 0
M  V30 1978 C 182.894 0.724318 3.49983 0
M  V30 1979 C 182.723 2.18385 3.93113 0
M  V30 1980 C 181.493 2.82839 4.18725 0
M  V30 1981 C 183.691 3.15763 4.05953 0
M  V30 1982 N 181.673 4.1939 4.48314 0
M  V30 1983 C 183.044 4.37387 4.39423 0
M  V30 1984 C 185.099 3.11555 3.88379 0
M  V30 1985 C 183.802 5.55343 4.5715 0
M  V30 1986 C 185.828 4.28782 4.07308 0
M  V30 1987 C 185.19 5.49172 4.41123 0
M  V30 1988 H 181.289 0.237123 0.745182 0
M  V30 1989 H 183.873 1.14246 1.57658 0
M  V30 1990 H 182.044 0.124565 3.882 0
M  V30 1991 H 183.776 0.31969 4.03435 0
M  V30 1992 H 180.531 2.33708 4.11919 0
M  V30 1993 H 180.955 4.89911 4.67243 0
M  V30 1994 H 185.597 2.19576 3.61312 0
M  V30 1995 H 183.315 6.47826 4.8306 0
M  V30 1996 H 186.901 4.26995 3.95179 0
M  V30 1997 H 185.781 6.38371 4.55469 0
M  V30 1998 N 183.284 -1.43765 0.645699 0
M  V30 1999 C 184.531 -2.01898 0.15604 0
M  V30 2000 C 184.859 -1.50887 -1.22733 0
M  V30 2001 O 184.114 -0.689271 -1.8316 0
M  V30 2002 C 184.413 -3.57238 0.107679 0
M  V30 2003 C 184.079 -4.27564 1.43178 0
M  V30 2004 C 182.741 -4.46492 1.7944 0
M  V30 2005 C 185.093 -4.67454 2.30513 0
M  V30 2006 C 182.421 -5.02573 3.02716 0
M  V30 2007 C 184.773 -5.24901 3.53074 0
M  V30 2008 C 183.437 -5.42046 3.89541 0
M  V30 2009 H 182.707 -0.738797 0.057099 0
M  V30 2010 H 185.354 -1.72341 0.834912 0
M  V30 2011 H 183.659 -3.86293 -0.654618 0
M  V30 2012 H 185.356 -3.99965 -0.287938 0
M  V30 2013 H 181.946 -4.13171 1.13963 0
M  V30 2014 H 186.13 -4.5253 2.0379 0
M  V30 2015 H 181.386 -5.14033 3.31028 0
M  V30 2016 H 185.56 -5.54758 4.20971 0
M  V30 2017 H 183.187 -5.85268 4.85145 0
M  V30 2018 N 184.763 -0.387143 -1.52771 0
M  V30 2019 C 185.693 0.440551 -2.29306 0
M  V30 2020 C 186.674 1.06535 -1.32606 0
M  V30 2021 O 187.859 1.07853 -1.61497 0
M  V30 2022 C 184.989 1.56919 -3.09829 0
M  V30 2023 C 183.943 1.07054 -4.14395 0
M  V30 2024 C 183.269 2.29109 -4.83129 0
M  V30 2025 C 184.569 0.140015 -5.22112 0
M  V30 2026 H 186.263 -0.198026 -2.98744 0
M  V30 2027 H 183.809 -0.09668 -1.43675 0
M  V30 2028 H 185.762 2.15503 -3.62128 0
M  V30 2029 H 184.486 2.23532 -2.3812 0
M  V30 2030 H 183.145 0.507247 -3.63074 0
M  V30 2031 H 182.793 2.94227 -4.0797 0
M  V30 2032 H 182.493 1.96406 -5.53804 0
M  V30 2033 H 184.017 2.88339 -5.38231 0
M  V30 2034 H 185.431 0.633978 -5.69784 0
M  V30 2035 H 183.828 -0.0971485 -6.00021 0
M  V30 2036 H 184.898 -0.811711 -4.78058 0
M  V30 2037 N 186.241 1.57166 -0.116904 0
M  V30 2038 C 187.204 2.14039 0.819742 0
M  V30 2039 C 188.204 1.07477 1.19605 0
M  V30 2040 O 189.394 1.33263 1.1219 0
M  V30 2041 C 186.526 2.67891 2.10826 0
M  V30 2042 H 187.719 2.98128 0.325511 0
M  V30 2043 H 185.272 1.55739 0.132312 0
M  V30 2044 H 186.007 1.87384 2.64685 0
M  V30 2045 H 185.792 3.45823 1.84793 0
M  V30 2046 H 187.282 3.11809 2.77785 0
M  V30 2047 N 187.719 -0.156864 1.56817 0
M  V30 2048 C 188.947 -0.886316 1.86955 0
M  V30 2049 C 189.362 -1.75185 0.703975 0
M  V30 2050 O 188.719 -1.79555 -0.326552 0
M  V30 2051 C 188.77 -1.75117 3.16253 0
M  V30 2052 O 188.491 -0.920537 4.2832 0
M  V30 2053 C 189.992 -2.58905 3.59837 0
M  V30 2054 H 187.212 -0.25678 0.619923 0
M  V30 2055 H 189.756 -0.152615 2.0393 0
M  V30 2056 H 187.911 -2.43805 3.01062 0
M  V30 2057 H 188.325 -1.51337 5.02192 0
M  V30 2058 H 189.799 -3.1518 4.53172 0
M  V30 2059 H 190.276 -3.34472 2.84649 0
M  V30 2060 H 190.882 -1.95526 3.7769 0
M  V30 2061 N 189.197 -1.51736 -0.425897 0
M  V30 2062 C 190.445 -1.64644 -1.17204 0
M  V30 2063 C 190.766 -0.370486 -1.91448 0
M  V30 2064 O 190.036 0.614088 -1.86026 0
M  V30 2065 H 188.616 -0.606819 -0.435638 0
M  V30 2066 H 191.278 -1.88713 -0.487177 0
M  V30 2067 H 190.374 -2.47958 -1.89534 0
M  V30 2068 N 190.675 0.682077 -1.42076 0
M  V30 2069 C 191.903 1.47057 -1.4554 0
M  V30 2070 C 192.318 1.8869 -0.0645779 0
M  V30 2071 O 191.675 1.57666 0.919115 0
M  V30 2072 C 191.726 2.72442 -2.37609 0
M  V30 2073 O 191.447 2.32559 -3.71279 0
M  V30 2074 C 192.948 3.66069 -2.50017 0
M  V30 2075 H 190.168 0.452737 -0.495248 0
M  V30 2076 H 192.712 0.838695 -1.8651 0
M  V30 2077 H 190.867 3.31835 -1.9991 0
M  V30 2078 H 191.281 3.13475 -4.20516 0
M  V30 2079 H 192.755 4.50792 -3.18576 0
M  V30 2080 H 193.232 4.11476 -1.53572 0
M  V30 2081 H 193.838 3.12572 -2.88407 0
M  V30 2082 N 192.153 1.28127 0.917671 0
M  V30 2083 C 193.401 1.14825 1.66312 0
M  V30 2084 C 193.722 -0.304379 1.9261 0
M  V30 2085 O 192.992 -1.21149 1.53947 0
M  V30 2086 H 191.572 0.421953 0.616413 0
M  V30 2087 H 194.234 1.608 1.10134 0
M  V30 2088 H 193.33 1.68489 2.62712 0
M  V30 2089 N 193.631 -1.12557 1.10312 0
M  V30 2090 C 194.88 -1.83395 0.839588 0
M  V30 2091 C 195.193 -1.84939 -0.636929 0
M  V30 2092 O 196.399 -2.51761 -1.01631 0
M  V30 2093 C 194.855 -3.29303 1.45215 0
M  V30 2094 C 194.463 -3.36122 2.96186 0
M  V30 2095 C 196.207 -4.05121 1.26796 0
M  V30 2096 C 194.114 -4.76357 3.50483 0
M  V30 2097 H 193.044 -0.687133 0.310425 0
M  V30 2098 H 195.695 -1.26746 1.32694 0
M  V30 2099 H 194.077 -3.85812 0.892469 0
M  V30 2100 H 195.251 -2.89559 3.58458 0
M  V30 2101 H 193.566 -2.73776 3.13745 0
M  V30 2102 H 196.163 -5.08668 1.64806 0
M  V30 2103 H 196.506 -4.15773 0.209409 0
M  V30 2104 H 197.039 -3.54967 1.79563 0
M  V30 2105 H 193.778 -4.70899 4.55998 0
M  V30 2106 H 193.298 -5.23377 2.92978 0
M  V30 2107 H 194.977 -5.45294 3.48228 0
M  V30 2108 N 195.109 -0.891671 -1.2995 0
M  V30 2109 C 196.072 -0.36828 -2.26222 0
M  V30 2110 C 197.072 0.493014 -1.53056 0
M  V30 2111 O 198.262 0.299213 -1.71611 0
M  V30 2112 C 195.394 0.47442 -3.37583 0
M  V30 2113 H 196.587 -1.21844 -2.74033 0
M  V30 2114 H 194.14 -0.669107 -1.41254 0
M  V30 2115 H 194.875 1.34489 -2.95099 0
M  V30 2116 H 194.66 -0.142615 -3.91841 0
M  V30 2117 H 196.15 0.83218 -4.09224 0
M  V30 2118 N 196.587 1.43421 -0.653314 0
M  V30 2119 C 197.998 1.85065 -0.246537 0
M  V30 2120 C 198.349 1.54688 1.2069 0
M  V30 2121 O 197.474 0.995896 1.92122 0
M  V30 2122 C 198.069 3.35922 -0.440666 0
M  V30 2123 C 196.628 3.76297 -0.0882064 0
M  V30 2124 C 195.775 2.67147 -0.743484 0
M  V30 2125 H 198.726 1.33572 -0.856979 0
M  V30 2126 H 198.747 3.79204 0.313798 0
M  V30 2127 H 198.259 3.58 -1.49858 0
M  V30 2128 H 196.36 3.5983 0.96711 0
M  V30 2129 H 196.473 4.76338 -0.513738 0
M  V30 2130 H 194.837 2.54086 -0.176712 0
M  V30 2131 H 195.62 2.92053 -1.80443 0
M  V30 2132 N 198.065 0.39524 1.52563 0
M  V30 2133 C 199.312 -0.185044 2.01653 0
M  V30 2134 C 199.64 -1.46317 1.28146 0
M  V30 2135 O 198.895 -1.9213 0.372074 0
M  V30 2136 C 199.194 -0.493444 3.53977 0
M  V30 2137 C 198.86 0.69384 4.4553 0
M  V30 2138 C 197.522 1.01954 4.70275 0
M  V30 2139 C 199.874 1.48785 4.99512 0
M  V30 2140 C 197.202 2.14069 5.46252 0
M  V30 2141 C 199.554 2.59965 5.76716 0
M  V30 2142 C 198.218 2.93037 5.99738 0
M  V30 2143 H 197.488 -0.0677123 0.7379 0
M  V30 2144 H 200.135 0.533807 1.8391 0
M  V30 2145 H 198.44 -1.29369 3.69825 0
M  V30 2146 H 200.137 -0.955163 3.89458 0
M  V30 2147 H 196.727 0.429987 4.26438 0
M  V30 2148 H 200.911 1.24946 4.80315 0
M  V30 2149 H 196.167 2.40056 5.62302 0
M  V30 2150 H 200.341 3.21887 6.17545 0
M  V30 2151 H 197.968 3.8003 6.58393 0
M  V30 2152 N 199.544 -1.57102 0.125237 0
M  V30 2153 C 200.507 -2.14471 -0.80838 0
M  V30 2154 C 201.507 -1.0811 -1.19033 0
M  V30 2155 O 202.697 -1.33856 -1.11482 0
M  V30 2156 C 199.829 -2.69005 -2.09402 0
M  V30 2157 H 201.022 -2.98297 -0.309696 0
M  V30 2158 H 198.575 -1.55807 -0.124051 0
M  V30 2159 H 199.31 -1.88785 -2.63687 0
M  V30 2160 H 199.095 -3.46799 -1.82957 0
M  V30 2161 H 200.585 -3.13278 -2.76128 0
M  V30 2162 N 201.022 0.148545 -1.56898 0
M  V30 2163 C 202.247 0.880385 -1.87787 0
M  V30 2164 C 202.672 1.74018 -0.714093 0
M  V30 2165 O 202.03 1.78153 0.336343 0
M  V30 2166 C 202.078 1.71422 -3.17249 0
M  V30 2167 O 201.182 2.8183 -3.01074 0
M  V30 2168 H 200.523 0.245301 -0.617028 0
M  V30 2169 H 203.053 0.139826 -2.04122 0
M  V30 2170 H 203.063 2.10954 -3.49231 0
M  V30 2171 H 201.738 1.08284 -4.01556 0
M  V30 2172 H 200.315 2.45715 -2.80497 0
M  V30 2173 N 202.5 1.5196 0.417844 0
M  V30 2174 C 203.43 1.77634 1.51554 0
M  V30 2175 C 204.411 0.626918 1.58126 0
M  V30 2176 O 205.596 0.871632 1.7354 0
M  V30 2177 C 202.726 1.91911 2.8946 0
M  V30 2178 C 201.68 3.07463 2.97743 0
M  V30 2179 C 201.006 3.06951 4.37819 0
M  V30 2180 C 202.306 4.47082 2.70027 0
M  V30 2181 H 204 2.6955 1.3032 0
M  V30 2182 H 201.546 1.29706 0.625492 0
M  V30 2183 H 203.499 2.08455 3.6623 0
M  V30 2184 H 202.223 0.966598 3.11969 0
M  V30 2185 H 200.882 2.90656 2.23416 0
M  V30 2186 H 200.53 2.09438 4.57323 0
M  V30 2187 H 200.23 3.84556 4.44286 0
M  V30 2188 H 201.754 3.25613 5.16535 0
M  V30 2189 H 203.168 4.6414 3.36522 0
M  V30 2190 H 201.565 5.2654 2.87881 0
M  V30 2191 H 202.635 4.55777 1.65514 0
M  V30 2192 N 203.978 -0.674533 1.42435 0
M  V30 2193 C 204.911 -1.79924 1.40366 0
M  V30 2194 C 205.889 -1.60378 0.267899 0
M  V30 2195 O 207.073 -1.82847 0.458159 0
M  V30 2196 C 204.2 -3.16927 1.19478 0
M  V30 2197 C 203.246 -3.55221 2.36051 0
M  V30 2198 S 204.079 -3.5762 3.98583 0
M  V30 2199 C 205.235 -4.97315 3.80038 0
M  V30 2200 H 205.468 -1.81405 2.35541 0
M  V30 2201 H 203.001 -0.845221 1.29211 0
M  V30 2202 H 204.959 -3.96007 1.08114 0
M  V30 2203 H 203.62 -3.13031 0.258883 0
M  V30 2204 H 202.813 -4.54804 2.17185 0
M  V30 2205 H 202.415 -2.83502 2.43932 0
M  V30 2206 H 204.707 -5.85401 3.41045 0
M  V30 2207 H 205.65 -5.21228 4.79298 0
M  V30 2208 H 206.058 -4.69845 3.12899 0
M  V30 2209 N 205.456 -1.28612 -0.910864 0
M  V30 2210 C 206.872 -1.06381 -1.18976 0
M  V30 2211 C 207.072 0.191998 -2.00583 0
M  V30 2212 O 206.128 0.892869 -2.36187 0
M  V30 2213 C 207.441 -2.31295 -1.92154 0
M  V30 2214 C 208.989 -2.36503 -2.05025 0
M  V30 2215 C 209.464 -3.61191 -2.81612 0
M  V30 2216 N 210.955 -3.61847 -2.89172 0
M  V30 2217 C 211.69 -4.55004 -3.4894 0
M  V30 2218 N 211.186 -5.58482 -4.09963 0
M  V30 2219 N 212.979 -4.42594 -3.46506 0
M  V30 2220 H 205.13 -2.09221 -0.366094 0
M  V30 2221 H 207.393 -0.921003 -0.224629 0
M  V30 2222 H 207.099 -3.228 -1.39618 0
M  V30 2223 H 206.973 -2.37934 -2.9269 0
M  V30 2224 H 209.36 -1.45494 -2.5674 0
M  V30 2225 H 209.441 -2.33857 -1.03657 0
M  V30 2226 H 209.085 -4.52545 -2.30576 0
M  V30 2227 H 209.015 -3.61092 -3.83302 0
M  V30 2228 H 211.506 -2.87022 -2.45819 0
M  V30 2229 H 211.819 -6.25704 -4.53557 0
M  V30 2230 H 210.164 -5.62305 -4.08459 0
M  V30 2231 H 213.355 -3.60953 -2.98045 0
M  V30 2232 H 213.528 -5.15381 -3.92793 0
M  V30 2233 N 206.934 1.1197 -1.10907 0
M  V30 2234 C 207.844 2.21433 -0.774896 0
M  V30 2235 C 208.86 1.72478 0.229657 0
M  V30 2236 O 210.036 2.01288 0.0672008 0
M  V30 2237 C 207.101 3.4602 -0.216986 0
M  V30 2238 C 206.162 4.09791 -1.27944 0
M  V30 2239 C 205.395 5.28431 -0.748055 0
M  V30 2240 O 205.618 5.68823 0.423833 0
M  V30 2241 O 204.552 5.82644 -1.51027 0
M  V30 2242 H 208.378 2.5242 -1.68873 0
M  V30 2243 H 205.963 1.20399 -0.884555 0
M  V30 2244 H 207.845 4.21304 0.090059 0
M  V30 2245 H 206.52 3.16698 0.669633 0
M  V30 2246 H 205.427 3.36265 -1.63941 0
M  V30 2247 H 206.76 4.4328 -2.13925 0
M  V30 2248 N 208.412 0.89855 1.29475 0
M  V30 2249 C 209.823 0.572537 1.77705 0
M  V30 2250 C 210.174 -0.911778 1.73727 0
M  V30 2251 O 209.299 -1.71288 1.32247 0
M  V30 2252 C 209.894 1.03252 3.22683 0
M  V30 2253 C 208.453 0.757687 3.68695 0
M  V30 2254 C 207.6 1.20787 2.49612 0
M  V30 2255 H 210.551 1.08139 1.16153 0
M  V30 2256 H 210.572 0.367307 3.78723 0
M  V30 2257 H 210.084 2.11285 3.25546 0
M  V30 2258 H 208.185 -0.310079 3.71308 0
M  V30 2259 H 208.298 1.35476 4.59547 0
M  V30 2260 H 206.662 0.626888 2.46865 0
M  V30 2261 H 207.445 2.29622 2.55203 0
M  V30 2262 N 209.89 -1.43072 0.660911 0
M  V30 2263 C 210.8 -2.34585 -0.0264163 0
M  V30 2264 C 211.816 -1.54316 -0.803898 0
M  V30 2265 O 212.992 -1.86939 -0.749391 0
M  V30 2266 C 210.057 -3.32689 -0.975639 0
M  V30 2267 C 209.118 -4.2886 -0.194236 0
M  V30 2268 C 208.351 -5.22278 -1.09825 0
M  V30 2269 O 208.574 -5.20299 -2.33763 0
M  V30 2270 O 207.508 -5.99228 -0.566513 0
M  V30 2271 H 211.334 -2.94869 0.727034 0
M  V30 2272 H 208.919 -1.43342 0.42111 0
M  V30 2273 H 210.801 -3.92995 -1.52094 0
M  V30 2274 H 209.476 -2.74898 -1.70918 0
M  V30 2275 H 208.383 -3.72011 0.394835 0
M  V30 2276 H 209.716 -4.89655 0.499899 0
M  V30 2277 N 211.368 -0.403325 -1.52352 0
M  V30 2278 C 212.331 0.413051 -2.25447 0
M  V30 2279 C 213.331 0.978513 -1.276 0
M  V30 2280 O 214.521 0.858305 -1.51587 0
M  V30 2281 C 211.653 1.58087 -3.02029 0
M  V30 2282 H 212.846 -0.227094 -2.99039 0
M  V30 2283 H 210.399 -0.155722 -1.55522 0
M  V30 2284 H 211.134 2.25804 -2.32772 0
M  V30 2285 H 210.919 1.18195 -3.73861 0
M  V30 2286 H 212.409 2.1585 -3.57489 0
M  V30 2287 N 212.846 1.57033 -0.133567 0
M  V30 2288 C 214.076 1.99754 0.527429 0
M  V30 2289 C 214.484 1.01245 1.59832 0
M  V30 2290 O 213.827 -0.000645496 1.837 0
M  V30 2291 C 213.889 3.38903 1.19939 0
M  V30 2292 C 213.553 4.56174 0.274709 0
M  V30 2293 C 214.55 5.17563 -0.492398 0
M  V30 2294 C 212.235 5.01972 0.18153 0
M  V30 2295 C 214.229 6.2315 -1.34027 0
M  V30 2296 C 211.916 6.07416 -0.669958 0
M  V30 2297 C 212.914 6.67874 -1.42947 0
M  V30 2298 O 212.602 7.71279 -2.2668 0
M  V30 2299 H 212.334 0.660702 0.142999 0
M  V30 2300 H 214.888 2.04207 -0.221099 0
M  V30 2301 H 213.118 3.31248 1.99528 0
M  V30 2302 H 214.807 3.65818 1.75875 0
M  V30 2303 H 215.573 4.83087 -0.430367 0
M  V30 2304 H 211.452 4.54652 0.762422 0
M  V30 2305 H 214.996 6.70268 -1.93357 0
M  V30 2306 H 210.893 6.41321 -0.73333 0
M  V30 2307 H 211.661 7.88441 -2.1978 0
M  V30 2308 N 214.325 -0.140222 1.56975 0
M  V30 2309 C 215.235 -1.19223 2.02047 0
M  V30 2310 C 216.251 -1.46612 0.937062 0
M  V30 2311 O 217.427 -1.58148 1.24704 0
M  V30 2312 C 214.492 -2.50414 2.39778 0
M  V30 2313 C 213.553 -2.30612 3.621 0
M  V30 2314 C 212.786 -3.55547 3.98023 0
M  V30 2315 O 213.009 -4.62004 3.34528 0
M  V30 2316 O 211.943 -3.47808 4.91237 0
M  V30 2317 H 215.769 -0.839559 2.91865 0
M  V30 2318 H 213.354 -0.349453 1.45256 0
M  V30 2319 H 215.236 -3.27747 2.64877 0
M  V30 2320 H 213.911 -2.85198 1.53114 0
M  V30 2321 H 212.818 -1.51207 3.4218 0
M  V30 2322 H 214.151 -2.00741 4.49404 0
M  V30 2323 N 215.803 -1.52179 -0.40978 0
M  V30 2324 C 216.75 -1.75475 -1.49924 0
M  V30 2325 C 217.72 -0.597175 -1.54994 0
M  V30 2326 O 218.905 -0.834655 -1.71575 0
M  V30 2327 C 216.045 -1.9107 -2.87378 0
M  V30 2328 C 215.158 -3.18717 -2.91622 0
M  V30 2329 C 214.293 -3.24747 -4.20372 0
M  V30 2330 C 213.332 -4.46598 -4.18588 0
M  V30 2331 N 212.469 -4.50025 -5.38908 0
M  V30 2332 H 217.309 -2.68458 -1.29361 0
M  V30 2333 H 214.846 -1.33024 -0.627934 0
M  V30 2334 H 216.804 -1.98096 -3.6717 0
M  V30 2335 H 215.434 -1.01469 -3.06437 0
M  V30 2336 H 214.486 -3.20866 -2.04326 0
M  V30 2337 H 215.798 -4.08544 -2.86169 0
M  V30 2338 H 214.952 -3.30841 -5.08556 0
M  V30 2339 H 213.691 -2.32857 -4.28519 0
M  V30 2340 H 212.696 -4.40652 -3.28794 0
M  V30 2341 H 213.921 -5.39783 -4.12081 0
M  V30 2342 H 211.867 -3.61017 -5.47725 0
M  V30 2343 H 211.784 -5.33697 -5.35447 0
M  V30 2344 H 213.052 -4.60347 -6.29048 0
M  V30 2345 N 217.281 0.66697 -1.42791 0
M  V30 2346 C 218.528 1.42699 -1.43678 0
M  V30 2347 C 218.856 1.94419 -0.0560425 0
M  V30 2348 O 218.111 1.7182 0.936831 0
M  V30 2349 C 218.41 2.6349 -2.4147 0
M  V30 2350 C 218.076 2.30267 -3.8767 0
M  V30 2351 C 216.738 2.20918 -4.27491 0
M  V30 2352 C 219.09 2.03435 -4.79858 0
M  V30 2353 C 216.418 1.82873 -5.57471 0
M  V30 2354 C 218.77 1.66892 -6.10188 0
M  V30 2355 C 217.434 1.56058 -6.49001 0
M  V30 2356 H 216.704 0.522171 -0.525755 0
M  V30 2357 H 219.351 0.759785 -1.75783 0
M  V30 2358 H 217.656 3.35279 -2.0272 0
M  V30 2359 H 219.353 3.21684 -2.39417 0
M  V30 2360 H 215.943 2.38449 -3.56146 0
M  V30 2361 H 220.127 2.09586 -4.49875 0
M  V30 2362 H 215.383 1.7306 -5.86396 0
M  V30 2363 H 219.557 1.45157 -6.81104 0
M  V30 2364 H 217.184 1.26348 -7.49627 0
M  V30 2365 N 218.759 1.29093 0.90403 0
M  V30 2366 C 220.036 1.075 1.63411 0
M  V30 2367 C 220.416 -0.382346 2.07609 0
M  V30 2368 O 219.764 -1.37031 1.82851 0
M  V30 2369 C 219.974 2.05858 2.81822 0
M  V30 2370 C 221.322 2.36539 3.52611 0
M  V30 2371 O 222.346 2.04019 2.91984 0
M  V30 2372 O 221.205 2.92085 4.61897 0
M  V30 2373 H 218.299 0.411547 0.717327 0
M  V30 2374 H 220.845 1.40449 0.952479 0
M  V30 2375 H 219.617 3.04037 2.46327 0
M  V30 2376 H 219.24 1.73613 3.57693 0
M  V30 2377 N 220.237 -1.11381 1.11499 0
M  V30 2378 C 221.147 -2.21019 0.786628 0
M  V30 2379 C 222.163 -1.72597 -0.220507 0
M  V30 2380 O 223.339 -2.01321 -0.0565251 0
M  V30 2381 C 220.404 -3.459 0.235333 0
M  V30 2382 C 219.465 -4.09107 1.30115 0
M  V30 2383 C 218.698 -5.28027 0.776068 0
M  V30 2384 O 218.921 -5.6904 -0.393661 0
M  V30 2385 O 217.855 -5.81835 1.54114 0
M  V30 2386 H 221.681 -2.51521 1.70209 0
M  V30 2387 H 219.266 -1.19928 0.890928 0
M  V30 2388 H 221.148 -4.21346 -0.067715 0
M  V30 2389 H 219.823 -3.17049 -0.652828 0
M  V30 2390 H 218.73 -3.35391 1.65722 0
M  V30 2391 H 220.063 -4.42139 2.16273 0
M  V30 2392 N 221.715 -0.905404 -1.28997 0
M  V30 2393 C 222.961 -0.535039 -1.95615 0
M  V30 2394 C 223.294 0.917404 -1.71165 0
M  V30 2395 O 222.569 1.65123 -1.02785 0
M  V30 2396 C 222.852 -0.834918 -3.50287 0
M  V30 2397 C 222.705 -2.33948 -3.84172 0
M  V30 2398 C 224.024 -0.325318 -4.38896 0
M  V30 2399 H 221.143 -0.195861 -0.710498 0
M  V30 2400 H 223.785 -1.13313 -1.52513 0
M  V30 2401 H 221.935 -0.325904 -3.87131 0
M  V30 2402 H 223.607 -2.91847 -3.57243 0
M  V30 2403 H 221.85 -2.79789 -3.31513 0
M  V30 2404 H 222.521 -2.49987 -4.92149 0
M  V30 2405 H 224.997 -0.761256 -4.09077 0
M  V30 2406 H 223.873 -0.564295 -5.45992 0
M  V30 2407 H 224.134 0.774144 -4.35269 0
M  V30 2408 N 223.193 1.4272 -0.668489 0
M  V30 2409 C 224.442 2.00846 -0.185389 0
M  V30 2410 C 224.755 1.53442 1.21305 0
M  V30 2411 O 225.961 2.03944 1.79218 0
M  V30 2412 C 224.417 3.58805 -0.280591 0
M  V30 2413 C 224.025 4.15198 -1.68268 0
M  V30 2414 C 225.769 4.24255 0.14412 0
M  V30 2415 C 223.676 5.655 -1.73099 0
M  V30 2416 H 222.606 0.751145 -0.0655475 0
M  V30 2417 H 225.257 1.63516 -0.832752 0
M  V30 2418 H 223.639 3.93608 0.434553 0
M  V30 2419 H 224.813 3.91866 -2.42441 0
M  V30 2420 H 223.128 3.62176 -2.05469 0
M  V30 2421 H 225.725 5.34547 0.128086 0
M  V30 2422 H 226.068 3.99277 1.17827 0
M  V30 2423 H 226.601 3.94389 -0.519798 0
M  V30 2424 H 223.34 5.95268 -2.74475 0
M  V30 2425 H 222.86 5.90842 -1.03274 0
M  V30 2426 H 224.539 6.29808 -1.48158 0
M  V30 2427 N 224.671 0.411399 1.52136 0
M  V30 2428 C 225.604 -0.457614 2.23565 0
M  V30 2429 C 226.582 -1.04613 1.24478 0
M  V30 2430 O 227.766 -1.09356 1.53536 0
M  V30 2431 C 224.893 -1.6354 2.96602 0
M  V30 2432 C 223.939 -1.17005 4.10137 0
M  V30 2433 S 224.772 -0.13333 5.35334 0
M  V30 2434 C 225.928 -1.31638 6.119 0
M  V30 2435 H 226.161 0.148883 2.96927 0
M  V30 2436 H 223.694 0.195713 1.53155 0
M  V30 2437 H 225.652 -2.31074 3.39286 0
M  V30 2438 H 224.313 -2.21324 2.22878 0
M  V30 2439 H 223.506 -2.05005 4.60422 0
M  V30 2440 H 223.108 -0.573319 3.6958 0
M  V30 2441 H 225.4 -2.23957 6.39413 0
M  V30 2442 H 226.343 -0.854014 7.02931 0
M  V30 2443 H 226.751 -1.54321 5.42997 0
M  V30 2444 N 226.149 -1.5696 0.141893 0
M  V30 2445 C 227.082 -2.12271 -0.837627 0
M  V30 2446 C 228.06 -1.04495 -1.24578 0
M  V30 2447 O 229.244 -1.32293 -1.34278 0
M  V30 2448 C 226.371 -2.63822 -2.12404 0
M  V30 2449 C 225.417 -3.83698 -1.86221 0
M  V30 2450 S 226.25 -5.24948 -1.05781 0
M  V30 2451 C 227.406 -5.79884 -2.35552 0
M  V30 2452 H 227.639 -2.95023 -0.367249 0
M  V30 2453 H 225.172 -1.54231 -0.0723014 0
M  V30 2454 H 227.13 -2.94175 -2.86307 0
M  V30 2455 H 225.791 -1.8121 -2.56557 0
M  V30 2456 H 224.984 -4.17995 -2.81596 0
M  V30 2457 H 224.586 -3.5408 -1.20429 0
M  V30 2458 H 226.878 -5.91005 -3.31239 0
M  V30 2459 H 227.821 -6.77544 -2.05767 0
M  V30 2460 H 228.229 -5.08095 -2.45967 0
M  V30 2461 N 227.627 0.131896 -1.57047 0
M  V30 2462 C 228.577 1.1679 -1.95816 0
M  V30 2463 C 229.561 1.37756 -0.831393 0
M  V30 2464 O 230.753 1.39065 -1.09499 0
M  V30 2465 C 227.882 2.49778 -2.35512 0
M  V30 2466 C 226.968 2.32342 -3.54793 0
M  V30 2467 N 227.359 1.8469 -4.70875 0
M  V30 2468 C 225.657 2.63043 -3.60173 0
M  V30 2469 C 226.358 1.80656 -5.52936 0
M  V30 2470 N 225.334 2.24528 -4.95064 0
M  V30 2471 H 229.136 0.791818 -2.83033 0
M  V30 2472 H 226.65 0.339791 -1.58805 0
M  V30 2473 H 228.647 3.24692 -2.61498 0
M  V30 2474 H 227.307 2.88156 -1.49654 0
M  V30 2475 H 228.318 1.54429 -4.9434 0
M  V30 2476 H 224.995 3.05193 -2.84892 0
M  V30 2477 H 226.385 1.45178 -6.56028 0
M  V30 2478 N 229.106 1.52395 0.401703 0
M  V30 2479 C 230.069 1.75636 1.47257 0
M  V30 2480 C 231.069 0.62628 1.48103 0
M  V30 2481 O 232.259 0.894227 1.49497 0
M  V30 2482 C 229.391 1.84553 2.86624 0
M  V30 2483 H 230.584 2.71241 1.27938 0
M  V30 2484 H 228.137 1.42923 0.632662 0
M  V30 2485 H 228.872 0.908882 3.11303 0
M  V30 2486 H 228.657 2.66715 2.87412 0
M  V30 2487 H 230.147 2.04251 3.64241 0
M  V30 2488 N 230.584 -0.659388 1.43143 0
M  V30 2489 C 231.824 -1.43121 1.45931 0
M  V30 2490 C 232.188 -1.91838 0.0789298 0
M  V30 2491 O 233.389 -2.68794 -0.018491 0
M  V30 2492 C 231.66 -2.58534 2.46769 0
M  V30 2493 S 233.219 -3.47154 2.68384 0
M  V30 2494 H 230.037 -0.488624 0.516496 0
M  V30 2495 H 232.639 -0.766128 1.79863 0
M  V30 2496 H 231.343 -2.21007 3.45809 0
M  V30 2497 H 230.874 -3.29898 2.14315 0
M  V30 2498 H 232.889 -4.55051 1.97845 0
M  V30 2499 N 232.062 -1.29571 -0.897171 0
M  V30 2500 C 233.478 -1.07637 -1.17841 0
M  V30 2501 C 233.678 0.170713 -2.00776 0
M  V30 2502 O 232.734 0.867768 -2.3712 0
M  V30 2503 C 234.047 -2.3332 -1.8969 0
M  V30 2504 C 235.595 -2.38664 -2.02505 0
M  V30 2505 C 236.07 -3.64157 -2.77765 0
M  V30 2506 N 237.561 -3.64894 -2.85318 0
M  V30 2507 C 238.296 -4.58679 -3.44094 0
M  V30 2508 N 237.792 -5.62799 -4.04017 0
M  V30 2509 N 239.585 -4.46245 -3.41793 0
M  V30 2510 H 231.736 -2.09598 -0.343883 0
M  V30 2511 H 233.999 -0.923333 -0.214848 0
M  V30 2512 H 233.705 -3.24262 -1.36187 0
M  V30 2513 H 233.579 -2.41025 -2.9015 0
M  V30 2514 H 235.966 -1.48208 -2.55183 0
M  V30 2515 H 236.047 -2.34943 -1.01171 0
M  V30 2516 H 235.691 -4.54965 -2.25763 0
M  V30 2517 H 235.621 -3.65137 -3.7945 0
M  V30 2518 H 238.112 -2.89613 -2.42761 0
M  V30 2519 H 238.425 -6.3048 -4.46895 0
M  V30 2520 H 236.77 -5.66605 -4.02472 0
M  V30 2521 H 239.961 -3.64094 -2.94199 0
M  V30 2522 H 240.134 -5.19518 -3.87304 0
M  V30 2523 N 233.54 1.10788 -1.12088 0
M  V30 2524 C 234.768 1.86461 -0.896651 0
M  V30 2525 C 235.183 1.80492 0.553912 0
M  V30 2526 O 234.54 1.19102 1.38278 0
M  V30 2527 C 234.591 3.35006 -1.35843 0
M  V30 2528 O 234.312 3.40866 -2.75213 0
M  V30 2529 C 235.813 4.27565 -1.1706 0
M  V30 2530 H 233.033 0.589425 -0.320654 0
M  V30 2531 H 235.577 1.40076 -1.48993 0
M  V30 2532 H 233.732 3.7887 -0.808458 0
M  V30 2533 H 234.146 4.33411 -2.9539 0
M  V30 2534 H 235.62 5.30007 -1.54263 0
M  V30 2535 H 236.097 4.3906 -0.110814 0
M  V30 2536 H 236.703 3.89501 -1.70789 0
M  V30 2537 N 235.018 0.912232 1.28515 0
M  V30 2538 C 236.264 0.545405 1.95328 0
M  V30 2539 C 236.597 -0.908313 1.71649 0
M  V30 2540 O 235.872 -1.64575 1.03659 0
M  V30 2541 C 236.155 0.853483 3.4984 0
M  V30 2542 C 236.008 2.35982 3.82926 0
M  V30 2543 C 237.327 0.348589 4.38717 0
M  V30 2544 H 234.446 0.199626 0.709449 0
M  V30 2545 H 237.088 1.1412 1.5191 0
M  V30 2546 H 235.238 0.34643 3.86952 0
M  V30 2547 H 236.91 2.93738 3.55691 0
M  V30 2548 H 235.153 2.81543 3.30024 0
M  V30 2549 H 235.824 2.52593 4.90816 0
M  V30 2550 H 238.3 0.78294 4.08668 0
M  V30 2551 H 237.176 0.593242 5.45685 0
M  V30 2552 H 237.437 -0.751049 4.35674 0
M  V30 2553 N 236.496 -1.42363 0.676048 0
M  V30 2554 C 237.459 -2.29199 0.00766941 0
M  V30 2555 C 238.459 -1.43389 -0.727745 0
M  V30 2556 O 239.649 -1.64764 -0.56556 0
M  V30 2557 C 236.781 -3.2591 -0.999785 0
M  V30 2558 H 237.974 -2.89794 0.771988 0
M  V30 2559 H 235.527 -1.50024 0.438468 0
M  V30 2560 H 236.262 -2.70256 -1.79255 0
M  V30 2561 H 236.047 -3.89202 -0.475829 0
M  V30 2562 H 237.537 -3.91028 -1.46583 0
M  V30 2563 N 237.974 -0.419461 -1.51915 0
M  V30 2564 C 238.884 0.407528 -2.31033 0
M  V30 2565 C 239.9 1.04413 -1.3919 0
M  V30 2566 O 241.076 1.0434 -1.72265 0
M  V30 2567 C 238.141 1.50365 -3.12396 0
M  V30 2568 C 237.202 0.889029 -4.19994 0
M  V30 2569 C 236.435 1.93291 -4.97468 0
M  V30 2570 O 236.658 3.15259 -4.75361 0
M  V30 2571 O 235.592 1.53339 -5.8204 0
M  V30 2572 H 239.418 -0.237865 -3.02767 0
M  V30 2573 H 237.003 -0.182413 -1.48282 0
M  V30 2574 H 238.885 2.13975 -3.63032 0
M  V30 2575 H 237.56 2.13345 -2.43445 0
M  V30 2576 H 236.467 0.215353 -3.7348 0
M  V30 2577 H 237.8 0.302991 -4.91267 0
M  V30 2578 N 239.452 1.56882 -0.150215 0
M  V30 2579 C 240.382 2.19935 0.784284 0
M  V30 2580 C 241.363 1.14854 1.25469 0
M  V30 2581 O 242.548 1.43209 1.31168 0
M  V30 2582 C 239.678 2.82349 2.02229 0
M  V30 2583 C 238.632 3.93285 1.68853 0
M  V30 2584 C 237.958 4.42649 2.99944 0
M  V30 2585 C 239.258 5.13904 0.932714 0
M  V30 2586 H 240.952 2.9828 0.258781 0
M  V30 2587 H 238.498 1.43473 0.123029 0
M  V30 2588 H 240.451 3.25126 2.68088 0
M  V30 2589 H 239.175 2.0134 2.57157 0
M  V30 2590 H 237.834 3.5113 1.05371 0
M  V30 2591 H 237.482 3.58458 3.52869 0
M  V30 2592 H 237.182 5.17476 2.78374 0
M  V30 2593 H 238.706 4.88099 3.66868 0
M  V30 2594 H 240.12 5.53506 1.49345 0
M  V30 2595 H 238.517 5.94515 0.81684 0
M  V30 2596 H 239.587 4.84842 -0.0749568 0
M  V30 2597 N 240.93 -0.123565 1.57115 0
M  V30 2598 C 241.84 -1.17074 2.033 0
M  V30 2599 C 242.856 -1.4561 0.952559 0
M  V30 2600 O 244.032 -1.56817 1.26374 0
M  V30 2601 C 241.097 -2.47857 2.42421 0
M  V30 2602 C 240.158 -2.26758 3.64526 0
M  V30 2603 C 239.391 -3.51305 4.01771 0
M  V30 2604 O 239.614 -4.5843 3.39409 0
M  V30 2605 O 238.548 -3.42578 4.94898 0
M  V30 2606 H 242.374 -0.808555 2.92739 0
M  V30 2607 H 239.959 -0.334027 1.45618 0
M  V30 2608 H 241.841 -3.2492 2.68338 0
M  V30 2609 H 240.516 -2.83558 1.5613 0
M  V30 2610 H 239.423 -1.47569 3.43765 0
M  V30 2611 H 240.756 -1.95963 4.51508 0
M  V30 2612 N 242.408 -1.52605 -0.393616 0
M  V30 2613 C 243.638 -1.71046 -1.15874 0
M  V30 2614 C 244.046 -0.426483 -1.84331 0
M  V30 2615 O 243.389 0.608513 -1.73329 0
M  V30 2616 C 243.451 -2.80118 -2.25332 0
M  V30 2617 C 243.115 -4.21381 -1.76881 0
M  V30 2618 C 244.112 -5.04697 -1.24808 0
M  V30 2619 C 241.797 -4.67683 -1.83244 0
M  V30 2620 C 243.791 -6.32393 -0.797387 0
M  V30 2621 C 241.478 -5.95364 -1.37787 0
M  V30 2622 C 242.476 -6.77549 -0.861208 0
M  V30 2623 O 242.164 -8.02837 -0.413252 0
M  V30 2624 H 241.896 -0.576155 -0.353583 0
M  V30 2625 H 244.45 -2.00018 -0.467123 0
M  V30 2626 H 242.68 -2.46557 -2.97904 0
M  V30 2627 H 244.369 -2.87006 -2.87023 0
M  V30 2628 H 245.135 -4.70111 -1.19252 0
M  V30 2629 H 241.014 -4.03805 -2.22401 0
M  V30 2630 H 244.558 -6.9649 -0.393437 0
M  V30 2631 H 240.455 -6.29455 -1.43026 0
M  V30 2632 H 241.223 -8.16749 -0.53515 0
M  V30 2633 N 243.887 0.651787 -1.4349 0
M  V30 2634 C 245.135 1.40888 -1.44897 0
M  V30 2635 C 245.456 1.94856 -0.0749086 0
M  V30 2636 O 244.726 1.74518 0.889956 0
M  V30 2637 H 243.306 0.522887 -0.533478 0
M  V30 2638 H 245.968 0.768609 -1.79104 0
M  V30 2639 H 245.064 2.25052 -2.16236 0
M  V30 2640 N 245.365 1.30045 0.890287 0
M  V30 2641 C 246.781 1.08261 1.17268 0
M  V30 2642 C 246.981 -0.160063 2.00863 0
M  V30 2643 O 246.037 -0.855181 2.37577 0
M  V30 2644 C 247.35 2.34323 1.8845 0
M  V30 2645 C 248.898 2.39735 2.01237 0
M  V30 2646 C 249.373 3.65625 2.7583 0
M  V30 2647 N 250.864 3.66402 2.83379 0
M  V30 2648 C 251.599 4.60498 3.41657 0
M  V30 2649 N 251.095 5.64933 4.01026 0
M  V30 2650 N 252.888 4.48051 3.39421 0
M  V30 2651 H 245.039 2.09777 0.332762 0
M  V30 2652 H 247.302 0.92446 0.209948 0
M  V30 2653 H 247.008 3.2498 1.34465 0
M  V30 2654 H 246.882 2.4256 2.88867 0
M  V30 2655 H 249.269 1.4956 2.54393 0
M  V30 2656 H 249.35 2.35476 0.999232 0
M  V30 2657 H 248.994 4.56156 2.23347 0
M  V30 2658 H 248.924 3.67144 3.77509 0
M  V30 2659 H 251.415 2.90896 2.41222 0
M  V30 2660 H 251.728 6.32841 4.43545 0
M  V30 2661 H 250.073 5.68732 3.99461 0
M  V30 2662 H 253.264 3.65649 2.92264 0
M  V30 2663 H 253.437 5.21565 3.84544 0
M  V30 2664 N 246.843 -1.10192 1.12674 0
M  V30 2665 C 247.775 -2.16418 0.754701 0
M  V30 2666 C 248.788 -1.61309 -0.21986 0
M  V30 2667 O 249.977 -1.785 -0.000826841 0
M  V30 2668 C 247.077 -3.38762 0.096698 0
M  V30 2669 C 246.25 -4.23307 1.10136 0
M  V30 2670 C 245.309 -5.24092 0.470513 0
M  V30 2671 O 244.335 -5.57906 1.12824 0
M  V30 2672 N 245.537 -5.75491 -0.760948 0
M  V30 2673 H 248.302 -2.48943 1.66875 0
M  V30 2674 H 245.863 -1.25834 1.01869 0
M  V30 2675 H 247.855 -4.03291 -0.337384 0
M  V30 2676 H 246.425 -3.04192 -0.720153 0
M  V30 2677 H 245.645 -3.55036 1.71299 0
M  V30 2678 H 246.933 -4.76624 1.78064 0
M  V30 2679 H 246.331 -5.50222 -1.31424 0
M  V30 2680 H 244.888 -6.41792 -1.13781 0
M  V30 2681 N 248.321 -0.919034 -1.28029 0
M  V30 2682 C 249.251 -0.428581 -2.29533 0
M  V30 2683 C 250.232 0.50659 -1.62381 0
M  V30 2684 O 251.417 0.413195 -1.89753 0
M  V30 2685 C 248.547 0.327388 -3.45753 0
M  V30 2686 C 247.501 -0.519137 -4.2484 0
M  V30 2687 C 246.827 0.365486 -5.33449 0
M  V30 2688 C 248.127 -1.77914 -4.91064 0
M  V30 2689 H 249.821 -1.27687 -2.70807 0
M  V30 2690 H 247.367 -0.615428 -1.30186 0
M  V30 2691 H 249.32 0.681378 -4.15855 0
M  V30 2692 H 248.044 1.20963 -3.03374 0
M  V30 2693 H 246.703 -0.855717 -3.56473 0
M  V30 2694 H 246.351 1.24642 -4.87312 0
M  V30 2695 H 246.051 -0.197356 -5.87268 0
M  V30 2696 H 247.575 0.715241 -6.06396 0
M  V30 2697 H 248.989 -1.49374 -5.53498 0
M  V30 2698 H 247.386 -2.2848 -5.54903 0
M  V30 2699 H 248.456 -2.50382 -4.15255 0
M  V30 2700 N 249.799 1.42003 -0.683588 0
M  V30 2701 C 251.045 2.01712 -0.209825 0
M  V30 2702 C 251.378 1.53968 1.18353 0
M  V30 2703 O 250.653 0.745661 1.79639 0
M  V30 2704 C 250.936 3.59202 -0.254197 0
M  V30 2705 C 250.789 4.17102 -1.68363 0
M  V30 2706 C 252.108 4.38344 0.392709 0
M  V30 2707 H 249.227 0.732891 -0.0777189 0
M  V30 2708 H 251.869 1.68909 -0.87004 0
M  V30 2709 H 250.019 3.87278 0.307954 0
M  V30 2710 H 251.691 3.99946 -2.29871 0
M  V30 2711 H 249.934 3.72597 -2.22157 0
M  V30 2712 H 250.605 5.26249 -1.6663 0
M  V30 2713 H 253.081 4.16011 -0.0859162 0
M  V30 2714 H 251.957 5.47901 0.331063 0
M  V30 2715 H 252.218 4.16887 1.47164 0
M  V30 2716 N 251.277 0.427512 1.51691 0
M  V30 2717 C 252.187 -0.39527 2.31246 0
M  V30 2718 C 253.203 -1.03674 1.39742 0
M  V30 2719 O 254.379 -1.03425 1.72816 0
M  V30 2720 C 251.444 -1.48706 3.13189 0
M  V30 2721 C 250.505 -0.866743 4.20459 0
M  V30 2722 C 249.738 -1.90651 4.98486 0
M  V30 2723 O 249.961 -3.12733 4.77026 0
M  V30 2724 O 248.895 -1.5025 5.82845 0
M  V30 2725 H 252.721 0.253918 3.02637 0
M  V30 2726 H 250.306 0.190274 1.48183 0
M  V30 2727 H 252.188 -2.12047 3.64162 0
M  V30 2728 H 250.863 -2.12051 2.44573 0
M  V30 2729 H 249.77 -0.195544 3.73589 0
M  V30 2730 H 251.103 -0.276934 4.9142 0
M  V30 2731 N 252.755 -1.56801 0.158532 0
M  V30 2732 C 253.718 -2.16138 -0.762705 0
M  V30 2733 C 254.718 -1.1061 -1.16713 0
M  V30 2734 O 255.908 -1.36191 -1.08617 0
M  V30 2735 C 253.04 -2.73386 -2.03649 0
M  V30 2736 H 254.233 -2.98886 -0.246354 0
M  V30 2737 H 251.786 -1.56035 -0.0909744 0
M  V30 2738 H 252.521 -1.94335 -2.59623 0
M  V30 2739 H 252.306 -3.50601 -1.75559 0
M  V30 2740 H 253.796 -3.19065 -2.6942 0
M  V30 2741 N 254.233 0.115231 -1.57178 0
M  V30 2742 C 255.163 1.1423 -2.03651 0
M  V30 2743 C 256.144 1.42967 -0.921655 0
M  V30 2744 O 257.329 1.53343 -1.19162 0
M  V30 2745 C 254.459 2.4675 -2.44401 0
M  V30 2746 C 253.413 2.32467 -3.59365 0
M  V30 2747 C 252.739 3.69984 -3.86026 0
M  V30 2748 C 254.039 1.78203 -4.90959 0
M  V30 2749 H 255.733 0.755749 -2.89705 0
M  V30 2750 H 253.279 0.362093 -1.39373 0
M  V30 2751 H 255.232 3.18854 -2.75517 0
M  V30 2752 H 253.956 2.87302 -1.55322 0
M  V30 2753 H 252.615 1.62811 -3.28463 0
M  V30 2754 H 252.263 4.08028 -2.94147 0
M  V30 2755 H 251.963 3.61279 -4.63412 0
M  V30 2756 H 253.487 4.43587 -4.19599 0
M  V30 2757 H 254.901 2.40128 -5.20587 0
M  V30 2758 H 253.298 1.8031 -5.72371 0
M  V30 2759 H 254.368 0.739876 -4.79222 0
M  V30 2760 N 255.711 1.52812 0.385517 0
M  V30 2761 C 256.643 1.74096 1.49074 0
M  V30 2762 C 257.656 0.621462 1.50472 0
M  V30 2763 O 258.845 0.897245 1.54311 0
M  V30 2764 C 255.945 1.78774 2.87911 0
M  V30 2765 C 255.118 3.08134 3.10439 0
M  V30 2766 C 254.177 3.04313 4.29278 0
M  V30 2767 O 253.203 3.78168 4.25415 0
M  V30 2768 N 254.405 2.23741 5.35649 0
M  V30 2769 H 257.17 2.69455 1.31202 0
M  V30 2770 H 254.731 1.51343 0.575065 0
M  V30 2771 H 256.723 1.73721 3.65518 0
M  V30 2772 H 255.293 0.907869 2.99126 0
M  V30 2773 H 254.513 3.26649 2.20667 0
M  V30 2774 H 255.801 3.93662 3.22347 0
M  V30 2775 H 255.199 1.63211 5.41645 0
M  V30 2776 H 253.756 2.24524 6.11909 0
M  V30 2777 N 257.189 -0.644168 1.43834 0
M  V30 2778 C 258.099 -1.78563 1.52159 0
M  V30 2779 C 259.115 -1.69147 0.408069 0
M  V30 2780 O 260.291 -1.90156 0.663524 0
M  V30 2781 C 257.356 -3.14888 1.45073 0
M  V30 2782 C 256.417 -3.36034 2.6717 0
M  V30 2783 C 255.65 -4.65855 2.60413 0
M  V30 2784 O 255.873 -5.45805 1.65689 0
M  V30 2785 O 254.807 -4.88918 3.5106 0
M  V30 2786 H 258.633 -1.74494 2.48567 0
M  V30 2787 H 256.218 -0.80378 1.25935 0
M  V30 2788 H 258.1 -3.96179 1.43597 0
M  V30 2789 H 256.775 -3.19528 0.518037 0
M  V30 2790 H 255.682 -2.54472 2.74217 0
M  V30 2791 H 257.015 -3.36247 3.59442 0
M  V30 2792 N 258.668 -1.30515 -0.883378 0
M  V30 2793 C 259.945 -1.10086 -1.6168 0
M  V30 2794 C 260.325 0.349269 -2.08191 0
M  V30 2795 O 259.673 1.34105 -1.85008 0
M  V30 2796 C 259.883 -2.10315 -2.78511 0
M  V30 2797 C 261.231 -2.42119 -3.48803 0
M  V30 2798 O 262.255 -2.08638 -2.88702 0
M  V30 2799 O 261.114 -2.99396 -4.57192 0
M  V30 2800 H 258.208 -0.422907 -0.710689 0
M  V30 2801 H 260.754 -1.41947 -0.930015 0
M  V30 2802 H 259.526 -3.07917 -2.41459 0
M  V30 2803 H 259.149 -1.79282 -3.54886 0
M  V30 2804 N 260.146 1.09593 -1.13257 0
M  V30 2805 C 261.557 1.63229 -0.906274 0
M  V30 2806 C 261.908 1.8811 0.557578 0
M  V30 2807 O 261.033 1.62953 1.42391 0
M  V30 2808 C 261.628 2.96535 -1.63867 0
M  V30 2809 C 260.187 3.47003 -1.45828 0
M  V30 2810 C 259.334 2.2145 -1.66898 0
M  V30 2811 H 262.285 0.92978 -1.28611 0
M  V30 2812 H 262.306 3.64411 -1.09476 0
M  V30 2813 H 261.818 2.78394 -2.70404 0
M  V30 2814 H 259.919 3.70272 -0.415848 0
M  V30 2815 H 260.032 4.24551 -2.2202 0
M  V30 2816 H 258.396 2.30022 -1.09371 0
M  V30 2817 H 259.179 2.0583 -2.74752 0
M  V30 2818 N 261.624 0.925811 1.2754 0
M  V30 2819 C 262.554 0.440748 2.29303 0
M  V30 2820 C 263.535 -0.497971 1.62648 0
M  V30 2821 O 264.72 -0.403126 1.8997 0
M  V30 2822 C 261.85 -0.309048 3.45922 0
M  V30 2823 C 260.804 0.54166 4.24559 0
M  V30 2824 C 260.13 -0.337191 5.33636 0
M  V30 2825 C 261.43 1.80516 4.90114 0
M  V30 2826 H 263.124 1.29121 2.70126 0
M  V30 2827 H 260.67 0.622323 1.29858 0
M  V30 2828 H 262.623 -0.659315 4.1621 0
M  V30 2829 H 261.347 -1.19352 3.04011 0
M  V30 2830 H 260.006 0.874609 3.56014 0
M  V30 2831 H 259.654 -1.22056 4.87966 0
M  V30 2832 H 259.354 0.228497 5.87156 0
M  V30 2833 H 260.878 -0.683072 6.06767 0
M  V30 2834 H 262.292 1.52307 5.52698 0
M  V30 2835 H 260.689 2.3142 5.53683 0
M  V30 2836 H 261.759 2.52581 4.13921 0
M  V30 2837 N 263.102 -1.41638 0.69111 0
M  V30 2838 C 264.351 -2.00526 0.217318 0
M  V30 2839 C 264.664 -1.55353 -1.18848 0
M  V30 2840 O 265.87 -2.06769 -1.75951 0
M  V30 2841 C 264.326 -3.58313 0.337639 0
M  V30 2842 C 263.934 -4.12469 1.74852 0
M  V30 2843 C 265.678 -4.24431 -0.0766066 0
M  V30 2844 C 263.585 -5.62675 1.82074 0
M  V30 2845 H 262.515 -0.750008 0.0774893 0
M  V30 2846 H 265.166 -1.6217 0.858661 0
M  V30 2847 H 263.548 -3.9425 -0.371879 0
M  V30 2848 H 264.722 -3.8796 2.48644 0
M  V30 2849 H 263.037 -3.58861 2.11205 0
M  V30 2850 H 265.634 -5.34683 -0.0430284 0
M  V30 2851 H 265.977 -4.01101 -1.1146 0
M  V30 2852 H 266.51 -3.93512 0.582476 0
M  V30 2853 H 263.249 -5.90826 2.83911 0
M  V30 2854 H 262.769 -5.89124 1.12661 0
M  V30 2855 H 264.448 -6.27371 1.58159 0
M  V30 2856 N 264.58 -0.43555 -1.51462 0
M  V30 2857 C 265.828 0.131254 -2.01673 0
M  V30 2858 C 266.149 1.43368 -1.32177 0
M  V30 2859 O 265.419 1.90524 -0.455769 0
M  V30 2860 H 263.999 0.0514954 -0.745223 0
M  V30 2861 H 266.661 -0.577847 -1.86137 0
M  V30 2862 H 265.757 0.308446 -3.10572 0
M  V30 2863 N 266.058 1.56714 -0.166846 0
M  V30 2864 C 266.968 2.21331 0.777791 0
M  V30 2865 C 267.984 1.20358 1.25658 0
M  V30 2866 O 269.16 1.53005 1.30964 0
M  V30 2867 C 266.225 2.83787 1.99163 0
M  V30 2868 C 265.286 3.99947 1.56016 0
M  V30 2869 C 264.519 4.59415 2.71613 0
M  V30 2870 O 264.742 4.17769 3.88362 0
M  V30 2871 O 263.676 5.49359 2.45945 0
M  V30 2872 H 267.502 3.02605 0.257636 0
M  V30 2873 H 265.087 1.49275 0.0611393 0
M  V30 2874 H 266.969 3.23405 2.70161 0
M  V30 2875 H 265.644 2.05513 2.50092 0
M  V30 2876 H 264.551 3.65007 0.819809 0
M  V30 2877 H 265.884 4.79801 1.09782 0
M  V30 2878 N 267.536 -0.106894 1.57237 0
M  V30 2879 C 268.466 -1.13148 2.04254 0
M  V30 2880 C 269.447 -1.42476 0.929224 0
M  V30 2881 O 270.632 -1.52709 1.19973 0
M  V30 2882 C 267.762 -2.4545 2.45706 0
M  V30 2883 C 266.716 -2.30558 3.60592 0
M  V30 2884 C 266.042 -3.67931 3.87983 0
M  V30 2885 C 267.342 -1.75597 4.91897 0
M  V30 2886 H 269.036 -0.740374 2.90101 0
M  V30 2887 H 266.582 -0.354696 1.39563 0
M  V30 2888 H 268.535 -3.17389 2.77205 0
M  V30 2889 H 267.259 -2.86475 1.56843 0
M  V30 2890 H 265.918 -1.61067 3.29322 0
M  V30 2891 H 265.566 -4.06462 2.96306 0
M  V30 2892 H 265.266 -3.58817 4.65322 0
M  V30 2893 H 266.79 -4.41356 4.21945 0
M  V30 2894 H 268.204 -2.37364 5.21854 0
M  V30 2895 H 266.601 -1.77272 5.73319 0
M  V30 2896 H 267.671 -0.714451 4.79608 0
M  V30 2897 N 269.014 -1.53014 -0.377408 0
M  V30 2898 C 270.26 -1.68872 -1.12294 0
M  V30 2899 C 270.593 -0.433224 -1.89306 0
M  V30 2900 O 269.868 0.569258 -1.85983 0
M  V30 2901 C 270.151 -2.93115 -2.09179 0
M  V30 2902 C 270.004 -4.28794 -1.35853 0
M  V30 2903 C 271.323 -3.12928 -3.09458 0
M  V30 2904 H 268.442 -0.614518 -0.406862 0
M  V30 2905 H 271.084 -1.85633 -0.40503 0
M  V30 2906 H 269.234 -2.78956 -2.70399 0
M  V30 2907 H 270.906 -4.54742 -0.775082 0
M  V30 2908 H 269.149 -4.28744 -0.660364 0
M  V30 2909 H 269.82 -5.11837 -2.06706 0
M  V30 2910 H 272.296 -3.26194 -2.58334 0
M  V30 2911 H 271.172 -4.01316 -3.74482 0
M  V30 2912 H 271.433 -2.27669 -3.78971 0
M  V30 2913 N 270.492 0.636531 -1.44174 0
M  V30 2914 C 271.402 1.77754 -1.53103 0
M  V30 2915 C 272.418 1.68928 -0.417034 0
M  V30 2916 O 273.594 1.89801 -0.6736 0
M  V30 2917 C 270.659 3.14115 -1.46741 0
M  V30 2918 C 269.72 3.34612 -2.68948 0
M  V30 2919 C 268.953 4.64467 -2.6288 0
M  V30 2920 O 269.176 5.44919 -1.68581 0
M  V30 2921 O 268.11 4.87049 -3.53648 0
M  V30 2922 H 271.936 1.73174 -2.49489 0
M  V30 2923 H 269.521 0.79709 -1.2636 0
M  V30 2924 H 271.403 3.95412 -1.45696 0
M  V30 2925 H 270.078 3.19249 -0.534975 0
M  V30 2926 H 268.985 2.53014 -2.75562 0
M  V30 2927 H 270.318 3.34336 -3.61221 0
M  V30 2928 N 271.97 1.30982 0.876444 0
M  V30 2929 C 273.218 1.20058 1.62575 0
M  V30 2930 C 273.539 -0.242947 1.93481 0
M  V30 2931 O 272.809 -1.1619 1.57724 0
M  V30 2932 H 271.389 0.44135 0.602677 0
M  V30 2933 H 274.051 1.64222 1.04962 0
M  V30 2934 H 273.147 1.76762 2.57219 0
M  V30 2935 N 273.449 -1.08991 1.13837 0
M  V30 2936 C 274.396 -2.15748 0.819835 0
M  V30 2937 C 275.366 -1.64636 -0.220026 0
M  V30 2938 O 276.551 -1.90582 -0.0912757 0
M  V30 2939 C 273.691 -3.4382 0.296913 0
M  V30 2940 C 272.804 -4.0881 1.39636 0
M  V30 2941 C 271.939 -5.24655 0.831314 0
M  V30 2942 C 270.978 -5.81575 1.90886 0
M  V30 2943 N 270.115 -6.88774 1.36142 0
M  V30 2944 H 274.955 -2.42338 1.73426 0
M  V30 2945 H 272.492 -1.18935 0.865613 0
M  V30 2946 H 274.45 -4.17193 -0.0244339 0
M  V30 2947 H 273.08 -3.17535 -0.580628 0
M  V30 2948 H 272.132 -3.33258 1.83422 0
M  V30 2949 H 273.444 -4.47141 2.21058 0
M  V30 2950 H 272.598 -6.04942 0.461515 0
M  V30 2951 H 271.337 -4.87698 -0.013932 0
M  V30 2952 H 270.342 -4.99946 2.28767 0
M  V30 2953 H 271.567 -6.20592 2.75758 0
M  V30 2954 H 269.513 -6.53788 0.538254 0
M  V30 2955 H 269.43 -7.25898 2.11208 0
M  V30 2956 H 270.698 -7.72806 1.01933 0
M  V30 2957 N 274.927 -0.932562 -1.27047 0
M  V30 2958 C 275.857 -0.452902 -2.29066 0
M  V30 2959 C 276.838 0.489338 -1.62909 0
M  V30 2960 O 278.023 0.393046 -1.90181 0
M  V30 2961 C 275.153 0.290698 -3.46081 0
M  V30 2962 C 274.107 -0.564168 -4.24265 0
M  V30 2963 C 273.433 0.308886 -5.33807 0
M  V30 2964 C 274.733 -1.83112 -4.89149 0
M  V30 2965 H 276.427 -1.30552 -2.69437 0
M  V30 2966 H 273.973 -0.629201 -1.29526 0
M  V30 2967 H 275.926 0.637233 -4.16554 0
M  V30 2968 H 274.65 1.17738 -3.0464 0
M  V30 2969 H 273.309 -0.893477 -3.55545 0
M  V30 2970 H 272.957 1.19467 -4.88607 0
M  V30 2971 H 272.657 -0.259633 -5.87026 0
M  V30 2972 H 274.181 0.650884 -6.07121 0
M  V30 2973 H 275.595 -1.55236 -5.51883 0
M  V30 2974 H 273.992 -2.34353 -5.52448 0
M  V30 2975 H 275.062 -2.54772 -4.12576 0
M  V30 2976 N 276.405 1.4127 -0.698611 0
M  V30 2977 C 277.352 2.30773 -0.0352094 0
M  V30 2978 C 278.322 1.47273 0.768111 0
M  V30 2979 O 279.507 1.76053 0.735524 0
M  V30 2980 C 276.647 3.33346 0.893 0
M  V30 2981 C 275.76 4.31924 0.0809695 0
M  V30 2982 C 274.895 5.21566 1.0071 0
M  V30 2983 C 273.934 6.11811 0.188155 0
M  V30 2984 N 273.071 6.93926 1.06825 0
M  V30 2985 H 277.911 2.86943 -0.804207 0
M  V30 2986 H 275.448 1.4132 -0.408294 0
M  V30 2987 H 277.406 3.91368 1.44523 0
M  V30 2988 H 276.036 2.78719 1.62836 0
M  V30 2989 H 275.088 3.75825 -0.588224 0
M  V30 2990 H 276.4 4.95716 -0.553801 0
M  V30 2991 H 275.554 5.84437 1.62845 0
M  V30 2992 H 274.293 4.58008 1.67572 0
M  V30 2993 H 273.298 5.47986 -0.446254 0
M  V30 2994 H 274.523 6.77425 -0.476716 0
M  V30 2995 H 272.469 6.32973 1.72283 0
M  V30 2996 H 272.386 7.54416 0.489123 0
M  V30 2997 H 273.654 7.61262 1.67632 0
M  V30 2998 N 277.883 0.443576 1.51229 0
M  V30 2999 C 279.113 -0.119117 2.06256 0
M  V30 3000 C 279.521 -1.36471 1.31043 0
M  V30 3001 O 278.864 -1.80034 0.365151 0
M  V30 3002 C 278.926 -0.500546 3.55998 0
M  V30 3003 C 278.59 0.639125 4.52509 0
M  V30 3004 C 279.587 1.51311 4.97394 0
M  V30 3005 C 277.272 0.821632 4.95535 0
M  V30 3006 C 279.266 2.55425 5.83984 0
M  V30 3007 C 276.953 1.86603 5.81913 0
M  V30 3008 C 277.951 2.73072 6.26036 0
M  V30 3009 O 277.639 3.75718 7.10698 0
M  V30 3010 H 277.371 -0.00857665 0.675946 0
M  V30 3011 H 279.925 0.623288 1.95715 0
M  V30 3012 H 278.155 -1.29575 3.64345 0
M  V30 3013 H 279.844 -0.995116 3.93513 0
M  V30 3014 H 280.61 1.38367 4.64844 0
M  V30 3015 H 276.489 0.158149 4.60729 0
M  V30 3016 H 280.033 3.22949 6.18344 0
M  V30 3017 H 275.93 1.99564 6.13876 0
M  V30 3018 H 276.698 3.72374 7.2889 0
M  V30 3019 N 279.361 -1.56624 0.175154 0
M  V30 3020 C 280.591 -2.01082 -0.474283 0
M  V30 3021 C 280.999 -1.05447 -1.57091 0
M  V30 3022 O 280.342 -0.0480595 -1.83637 0
M  V30 3023 C 280.404 -3.41963 -1.10911 0
M  V30 3024 C 280.068 -4.56742 -0.153666 0
M  V30 3025 C 281.065 -5.16076 0.629448 0
M  V30 3026 C 278.75 -5.02277 -0.0483776 0
M  V30 3027 C 280.744 -6.19377 1.50501 0
M  V30 3028 C 278.431 -6.05427 0.830768 0
M  V30 3029 C 279.429 -6.63849 1.60605 0
M  V30 3030 O 279.117 -7.64998 2.47049 0
M  V30 3031 H 278.849 -0.664261 -0.125432 0
M  V30 3032 H 281.403 -2.03549 0.275163 0
M  V30 3033 H 279.633 -3.36422 -1.90676 0
M  V30 3034 H 281.322 -3.70352 -1.66114 0
M  V30 3035 H 282.088 -4.81776 0.558297 0
M  V30 3036 H 277.967 -4.56513 -0.641611 0
M  V30 3037 H 281.511 -6.64906 2.1106 0
M  V30 3038 H 277.408 -6.39151 0.903107 0
M  V30 3039 H 278.176 -7.82336 2.40607 0
M  V30 3040 N 280.839 0.0985539 -1.57292 0
M  V30 3041 C 282.25 0.653457 -1.74891 0
M  V30 3042 C 282.601 1.7929 -0.796838 0
M  V30 3043 O 281.726 2.16385 0.0254886 0
M  V30 3044 C 282.321 1.19216 -3.17133 0
M  V30 3045 C 280.88 1.69316 -3.36168 0
M  V30 3046 C 280.027 0.601294 -2.70702 0
M  V30 3047 H 282.978 -0.127497 -1.58187 0
M  V30 3048 H 282.999 2.06154 -3.19814 0
M  V30 3049 H 282.511 0.362635 -3.86402 0
M  V30 3050 H 280.612 2.5468 -2.71972 0
M  V30 3051 H 280.725 1.78853 -4.44464 0
M  V30 3052 H 279.089 1.0399 -2.32504 0
M  V30 3053 H 279.872 -0.217592 -3.4261 0
M  V30 3054 N 282.317 1.53212 0.369288 0
M  V30 3055 C 283.545 1.73119 1.13303 0
M  V30 3056 C 283.96 0.458455 1.83149 0
M  V30 3057 O 283.317 -0.568403 1.73423 0
M  V30 3058 C 283.368 2.89413 2.16616 0
M  V30 3059 O 283.089 4.11761 1.49614 0
M  V30 3060 C 284.59 3.21161 3.05566 0
M  V30 3061 H 281.81 0.579107 0.338934 0
M  V30 3062 H 284.354 1.99942 0.429338 0
M  V30 3063 H 282.509 2.64994 2.82589 0
M  V30 3064 H 282.923 4.76858 2.18419 0
M  V30 3065 H 284.397 4.05949 3.74045 0
M  V30 3066 H 284.874 2.36369 3.70171 0
M  V30 3067 H 285.48 3.47492 2.45213 0
M  V30 3068 N 283.795 -0.628877 1.44509 0
M  V30 3069 C 285.023 -1.41554 1.50897 0
M  V30 3070 C 285.438 -1.8832 0.134564 0
M  V30 3071 O 284.795 -1.60969 -0.859965 0
M  V30 3072 C 284.846 -2.63435 2.47556 0
M  V30 3073 O 284.567 -2.18619 3.79654 0
M  V30 3074 C 286.068 -3.56537 2.63431 0
M  V30 3075 H 283.288 -0.434044 0.511709 0
M  V30 3076 H 285.832 -0.768895 1.89495 0
M  V30 3077 H 283.987 -3.24187 2.12089 0
M  V30 3078 H 284.401 -2.97652 4.31861 0
M  V30 3079 H 285.875 -4.38657 3.35088 0
M  V30 3080 H 286.352 -4.05493 1.68738 0
M  V30 3081 H 286.958 -3.01653 2.9981 0
M  V30 3082 N 285.273 -1.31445 -0.869486 0
M  V30 3083 C 286.501 -1.24122 -1.65534 0
M  V30 3084 C 286.916 0.193387 -1.87807 0
M  V30 3085 O 286.273 1.12557 -1.43656 0
M  V30 3086 C 286.324 -1.98229 -3.02304 0
M  V30 3087 O 286.045 -3.3609 -2.81026 0
M  V30 3088 C 287.546 -1.97751 -3.96749 0
M  V30 3089 H 284.766 -0.428868 -0.516055 0
M  V30 3090 H 287.31 -1.73328 -1.08525 0
M  V30 3091 H 285.465 -1.52782 -3.56001 0
M  V30 3092 H 285.879 -3.7383 -3.67902 0
M  V30 3093 H 287.353 -2.54114 -4.90031 0
M  V30 3094 H 287.83 -0.960137 -4.28577 0
M  V30 3095 H 288.436 -2.43079 -3.48988 0
M  V30 3096 N 286.751 1.08385 -1.14413 0
M  V30 3097 C 288.167 1.32844 -0.884563 0
M  V30 3098 C 288.367 1.95841 0.474181 0
M  V30 3099 O 287.423 2.21158 1.21842 0
M  V30 3100 C 288.736 2.22978 -2.01745 0
M  V30 3101 C 290.284 2.36458 -2.05077 0
M  V30 3102 C 290.759 3.29934 -3.1766 0
M  V30 3103 N 292.25 3.37511 -3.17239 0
M  V30 3104 C 292.985 4.09871 -4.0099 0
M  V30 3105 N 292.481 4.84936 -4.94781 0
M  V30 3106 N 294.274 4.05704 -3.89051 0
M  V30 3107 H 286.425 0.658756 -2.01926 0
M  V30 3108 H 288.688 0.352821 -0.879899 0
M  V30 3109 H 288.394 1.83934 -2.99769 0
M  V30 3110 H 288.268 3.23441 -1.94077 0
M  V30 3111 H 290.655 2.7476 -1.0766 0
M  V30 3112 H 290.736 1.35736 -2.16816 0
M  V30 3113 H 290.38 2.92352 -4.15322 0
M  V30 3114 H 290.31 4.30584 -3.03158 0
M  V30 3115 H 292.801 2.83996 -2.49308 0
M  V30 3116 H 293.114 5.37612 -5.55151 0
M  V30 3117 H 291.459 4.83988 -4.98779 0
M  V30 3118 H 294.65 3.46167 -3.15097 0
M  V30 3119 H 294.823 4.61834 -4.54547 0
M  V30 3120 N 288.23 0.939286 1.26551 0
M  V30 3121 C 289.14 0.453432 2.30176 0
M  V30 3122 C 290.156 -0.471649 1.67486 0
M  V30 3123 O 291.332 -0.35164 1.98306 0
M  V30 3124 C 288.397 -0.275326 3.45605 0
M  V30 3125 C 287.458 0.686084 4.23782 0
M  V30 3126 C 286.691 -0.00798994 5.33699 0
M  V30 3127 O 286.914 -1.22528 5.57085 0
M  V30 3128 O 285.848 0.669746 5.98162 0
M  V30 3129 H 289.674 1.31416 2.73795 0
M  V30 3130 H 287.259 0.705095 1.31715 0
M  V30 3131 H 289.141 -0.685911 4.1578 0
M  V30 3132 H 287.816 -1.11147 3.0402 0
M  V30 3133 H 286.723 1.14658 3.56096 0
M  V30 3134 H 288.056 1.48979 4.69112 0
M  V30 3135 N 289.708 -1.40897 0.706093 0
M  V30 3136 C 290.618 -2.3455 0.0482286 0
M  V30 3137 C 291.634 -1.56796 -0.754396 0
M  V30 3138 O 292.81 -1.89228 -0.689538 0
M  V30 3139 C 289.875 -3.35625 -0.869303 0
M  V30 3140 C 288.936 -4.29261 -0.0576994 0
M  V30 3141 C 288.169 -5.25508 -0.931531 0
M  V30 3142 O 288.392 -5.27472 -2.17092 0
M  V30 3143 O 287.326 -6.00727 -0.375587 0
M  V30 3144 H 291.152 -2.92407 0.820476 0
M  V30 3145 H 288.737 -1.4193 0.4665 0
M  V30 3146 H 290.619 -3.97635 -1.39514 0
M  V30 3147 H 289.294 -2.80196 -1.62086 0
M  V30 3148 H 288.201 -3.70566 0.512988 0
M  V30 3149 H 289.534 -4.87817 0.655426 0
M  V30 3150 N 291.186 -0.45159 -1.50991 0
M  V30 3151 C 292.433 0.110074 -2.02201 0
M  V30 3152 C 292.761 1.4146 -1.33489 0
M  V30 3153 O 292.016 1.90617 -0.443125 0
M  V30 3154 C 292.315 0.361728 -3.55565 0
M  V30 3155 C 291.981 -0.858717 -4.42648 0
M  V30 3156 C 290.643 -1.19338 -4.66167 0
M  V30 3157 C 292.995 -1.67221 -4.93646 0
M  V30 3158 C 290.323 -2.34195 -5.37931 0
M  V30 3159 C 292.675 -2.8119 -5.6667 0
M  V30 3160 C 291.339 -3.15094 -5.88449 0
M  V30 3161 H 290.609 0.040279 -0.739904 0
M  V30 3162 H 293.256 -0.601696 -1.81802 0
M  V30 3163 H 291.561 1.15554 -3.74372 0
M  V30 3164 H 293.258 0.80996 -3.92735 0
M  V30 3165 H 289.848 -0.58796 -4.24548 0
M  V30 3166 H 294.032 -1.42686 -4.75347 0
M  V30 3167 H 289.288 -2.6076 -5.53005 0
M  V30 3168 H 293.462 -3.44585 -6.05173 0
M  V30 3169 H 291.089 -4.04204 -6.43835 0
M  V30 3170 N 292.664 1.56529 -0.183458 0
M  V30 3171 C 293.614 2.1515 0.754605 0
M  V30 3172 C 294.598 1.08904 1.18443 0
M  V30 3173 O 295.79 1.34997 1.14476 0
M  V30 3174 C 292.919 2.80531 1.97881 0
M  V30 3175 C 292.005 3.93952 1.57043 0
M  V30 3176 N 292.396 4.98221 0.87231 0
M  V30 3177 C 290.694 4.05338 1.86057 0
M  V30 3178 C 291.395 5.77836 0.669377 0
M  V30 3179 N 290.371 5.29858 1.21454 0
M  V30 3180 H 294.173 2.93132 0.212387 0
M  V30 3181 H 291.687 1.62391 0.0167725 0
M  V30 3182 H 293.684 3.20914 2.6612 0
M  V30 3183 H 292.344 2.04035 2.52586 0
M  V30 3184 H 293.355 5.15191 0.529033 0
M  V30 3185 H 290.032 3.39957 2.42354 0
M  V30 3186 H 291.422 6.71799 0.116422 0
M  V30 3187 N 294.142 -0.090211 1.57342 0
M  V30 3188 C 295.092 -1.11557 1.98844 0
M  V30 3189 C 296.076 -1.35503 0.867624 0
M  V30 3190 O 297.268 -1.36113 1.13148 0
M  V30 3191 C 294.397 -2.43446 2.42051 0
M  V30 3192 C 293.483 -2.22853 3.60828 0
M  V30 3193 N 293.874 -1.72141 4.75606 0
M  V30 3194 C 292.172 -2.53401 3.67021 0
M  V30 3195 C 292.873 -1.65932 5.57531 0
M  V30 3196 N 291.849 -2.11323 5.00843 0
M  V30 3197 H 295.651 -0.716499 2.85032 0
M  V30 3198 H 293.165 -0.297567 1.59651 0
M  V30 3199 H 295.162 -3.17644 2.70014 0
M  V30 3200 H 293.822 -2.84087 1.57241 0
M  V30 3201 H 294.833 -1.41268 4.98261 0
M  V30 3202 H 291.51 -2.97532 2.92884 0
M  V30 3203 H 292.9 -1.27733 6.59647 0
M  V30 3204 N 295.62 -1.53406 -0.361157 0
M  V30 3205 C 296.553 -1.74946 -1.46524 0
M  V30 3206 C 297.531 -0.59795 -1.51206 0
M  V30 3207 O 298.715 -0.831062 -1.69191 0
M  V30 3208 C 295.842 -1.83224 -2.84863 0
M  V30 3209 C 294.888 -3.05233 -2.97885 0
M  V30 3210 S 295.721 -4.6466 -2.66179 0
M  V30 3211 C 296.877 -4.75793 -4.06659 0
M  V30 3212 H 297.11 -2.68319 -1.28033 0
M  V30 3213 H 294.643 -1.44051 -0.555764 0
M  V30 3214 H 296.601 -1.88679 -3.64569 0
M  V30 3215 H 295.262 -0.908948 -3.00661 0
M  V30 3216 H 294.455 -3.07648 -3.9921 0
M  V30 3217 H 294.057 -2.97913 -2.26106 0
M  V30 3218 H 296.349 -4.5612 -5.0096 0
M  V30 3219 H 297.292 -5.7786 -4.09247 0
M  V30 3220 H 297.7 -4.04389 -3.93865 0
M  V30 3221 N 297.098 0.621204 -1.44841 0
M  V30 3222 C 298.346 1.37783 -1.47852 0
M  V30 3223 C 298.667 1.94653 -0.116224 0
M  V30 3224 O 297.937 1.76367 0.852737 0
M  V30 3225 H 296.517 0.511453 -0.544449 0
M  V30 3226 H 299.179 0.730446 -1.80694 0
M  V30 3227 H 298.275 2.20414 -2.20961 0
M  V30 3228 N 298.576 1.31904 0.862503 0
M  V30 3229 C 299.992 1.10724 1.14945 0
M  V30 3230 C 300.192 -0.117421 2.01158 0
M  V30 3231 O 299.248 -0.804595 2.39338 0
M  V30 3232 C 300.561 2.38267 1.83437 0
M  V30 3233 C 302.109 2.43949 1.96106 0
M  V30 3234 C 302.584 3.71394 2.68013 0
M  V30 3235 N 304.075 3.72331 2.75543 0
M  V30 3236 C 304.81 4.67641 3.31812 0
M  V30 3237 N 304.306 5.73313 3.88953 0
M  V30 3238 N 306.099 4.5515 3.29841 0
M  V30 3239 H 298.25 2.10436 0.288191 0
M  V30 3240 H 300.513 0.928705 0.190292 0
M  V30 3241 H 300.219 3.27759 1.27542 0
M  V30 3242 H 300.093 2.48633 2.83657 0
M  V30 3243 H 302.48 1.54922 2.51164 0
M  V30 3244 H 302.561 2.37543 0.949059 0
M  V30 3245 H 302.205 4.60791 2.13621 0
M  V30 3246 H 302.135 3.75069 3.69636 0
M  V30 3247 H 304.626 2.95947 2.34997 0
M  V30 3248 H 304.939 6.42107 4.30022 0
M  V30 3249 H 303.284 5.77077 3.87308 0
M  V30 3250 H 306.475 3.71766 2.84443 0
M  V30 3251 H 306.648 5.29604 3.73394 0
M  V30 3252 N 300.054 -1.07777 1.14986 0
M  V30 3253 C 301.303 -1.79669 0.916617 0
M  V30 3254 C 301.616 -1.87474 -0.557917 0
M  V30 3255 O 302.822 -2.55845 -0.908617 0
M  V30 3256 C 301.278 -3.22848 1.59051 0
M  V30 3257 C 300.886 -3.23257 3.10176 0
M  V30 3258 C 302.63 -3.99379 1.43864 0
M  V30 3259 C 300.537 -4.61063 3.70372 0
M  V30 3260 H 299.467 -0.673349 0.33929 0
M  V30 3261 H 302.118 -1.21003 1.37951 0
M  V30 3262 H 300.5 -3.8168 1.0553 0
M  V30 3263 H 301.674 -2.74095 3.70417 0
M  V30 3264 H 299.989 -2.60222 3.25074 0
M  V30 3265 H 302.586 -5.0122 1.86232 0
M  V30 3266 H 302.929 -4.14511 0.385564 0
M  V30 3267 H 303.462 -3.47032 1.94457 0
M  V30 3268 H 300.201 -4.51135 4.7556 0
M  V30 3269 H 299.721 -5.1048 3.14913 0
M  V30 3270 H 301.4 -5.30034 3.71043 0
M  V30 3271 N 301.532 -0.945985 -1.26051 0
M  V30 3272 C 302.76 -0.613025 -1.9761 0
M  V30 3273 C 303.175 0.813035 -1.70397 0
M  V30 3274 O 302.532 1.54274 -0.974979 0
M  V30 3275 C 302.583 -0.85159 -3.51326 0
M  V30 3276 O 302.304 -2.22157 -3.77595 0
M  V30 3277 C 303.805 -0.529831 -4.40122 0
M  V30 3278 H 301.025 -0.230593 -0.630133 0
M  V30 3279 H 303.569 -1.268 -1.60443 0
M  V30 3280 H 301.724 -0.243151 -3.86636 0
M  V30 3281 H 302.138 -2.2852 -4.721 0
M  V30 3282 H 303.612 -0.747348 -5.46917 0
M  V30 3283 H 304.089 0.535341 -4.35925 0
M  V30 3284 H 304.695 -1.11721 -4.10364 0
M  V30 3285 N 303.011 1.40521 -0.713556 0
M  V30 3286 C 304.288 1.94775 -0.17943 0
M  V30 3287 C 304.668 1.65184 1.31444 0
M  V30 3288 O 304.016 0.968429 2.06963 0
M  V30 3289 C 304.226 3.45543 -0.489986 0
M  V30 3290 C 305.574 4.22442 -0.427536 0
M  V30 3291 O 306.598 3.53644 -0.425929 0
M  V30 3292 O 305.457 5.4501 -0.403292 0
M  V30 3293 H 302.551 0.826606 -0.0255192 0
M  V30 3294 H 305.097 1.5014 -0.790949 0
M  V30 3295 H 303.869 3.60432 -1.5233 0
M  V30 3296 H 303.492 3.97311 0.151598 0
M  V30 3297 N 304.489 0.459591 1.5075 0
M  V30 3298 C 305.437 -0.354678 2.2988 0
M  V30 3299 C 306.431 -1.00086 1.36672 0
M  V30 3300 O 307.637 -0.933277 1.53915 0
M  V30 3301 H 304.012 -0.13321 0.740107 0
M  V30 3302 H 305.983 0.333269 2.96533 0
M  V30 3303 C 304.732 -1.43073 3.169 0
M  V30 3304 H 304.055 -0.942882 3.88523 0
M  V30 3305 H 305.495 -1.97328 3.75284 0
M  V30 3306 C 303.954 -2.42633 2.33732 0
M  V30 3307 O 304.484 -3.47658 2.01238 0
M  V30 3308 N 302.69 -2.14066 1.9653 0
M  V30 3309 H 302.237 -1.28685 2.23155 0
M  V30 3310 H 302.195 -2.80917 1.41185 0
M  V30 3311 N 305.967 -1.56429 0.191757 0
M  V30 3312 C 306.897 -2.21937 -0.725696 0
M  V30 3313 C 307.878 -1.1814 -1.2238 0
M  V30 3314 O 309.063 -1.46636 -1.27325 0
M  V30 3315 C 306.193 -2.87611 -1.94672 0
M  V30 3316 C 305.147 -3.97623 -1.58366 0
M  V30 3317 C 304.473 -4.50446 -2.88102 0
M  V30 3318 C 305.773 -5.16197 -0.796133 0
M  V30 3319 H 307.467 -2.98861 -0.179606 0
M  V30 3320 H 305.013 -1.43749 -0.0849464 0
M  V30 3321 H 306.966 -3.3212 -2.59373 0
M  V30 3322 H 305.69 -2.08087 -2.51728 0
M  V30 3323 H 304.349 -3.53801 -0.960247 0
M  V30 3324 H 303.997 -3.67688 -3.43241 0
M  V30 3325 H 303.697 -5.24675 -2.64556 0
M  V30 3326 H 305.221 -4.97654 -3.53798 0
M  V30 3327 H 306.635 -5.57271 -1.34618 0
M  V30 3328 H 305.032 -5.96471 -0.658928 0
M  V30 3329 H 306.102 -4.84473 0.203478 0
M  V30 3330 N 307.445 0.0818655 -1.57387 0
M  V30 3331 C 308.408 1.08265 -2.02018 0
M  V30 3332 C 309.408 1.32183 -0.915664 0
M  V30 3333 O 310.598 1.28073 -1.18081 0
M  V30 3334 C 307.73 2.42871 -2.39221 0
M  V30 3335 H 308.923 0.698204 -2.91659 0
M  V30 3336 H 306.476 0.327303 -1.52835 0
M  V30 3337 H 307.211 2.86167 -1.52575 0
M  V30 3338 H 306.996 2.26855 -3.19811 0
M  V30 3339 H 308.486 3.14826 -2.74362 0
M  V30 3340 N 308.923 1.53595 0.353017 0
M  V30 3341 C 310.148 1.7462 1.11904 0
M  V30 3342 C 310.573 0.479721 1.8188 0
M  V30 3343 O 309.931 -0.567066 1.72204 0
M  V30 3344 C 309.979 2.92029 2.11545 0
M  V30 3345 O 309.083 2.61516 3.18878 0
M  V30 3346 H 308.424 0.579531 0.324099 0
M  V30 3347 H 310.954 2.00525 0.406301 0
M  V30 3348 H 310.964 3.18551 2.5493 0
M  V30 3349 H 309.639 3.83888 1.60008 0
M  V30 3350 H 308.216 2.45852 2.80377 0
M  V30 3351 N 310.401 -0.613514 1.45168 0
M  V30 3352 C 311.649 -1.36997 1.48581 0
M  V30 3353 C 311.97 -1.94589 0.126545 0
M  V30 3354 O 311.24 -1.76816 -0.843372 0
M  V30 3355 H 309.82 -0.508558 0.547154 0
M  V30 3356 H 312.482 -0.720853 1.81079 0
M  V30 3357 H 311.578 -2.1924 2.22127 0
M  V30 3358 N 311.879 -1.3236 -0.855495 0
M  V30 3359 C 312.826 -1.21225 -1.964 0
M  V30 3360 C 313.796 -0.0946204 -1.6583 0
M  V30 3361 O 314.981 -0.27002 -1.8888 0
M  V30 3362 C 312.121 -0.940419 -3.32039 0
M  V30 3363 C 311.234 -2.14276 -3.75113 0
M  V30 3364 C 310.369 -1.80648 -4.9954 0
M  V30 3365 C 309.408 -2.97208 -5.35102 0
M  V30 3366 N 308.545 -2.63678 -6.50706 0
M  V30 3367 H 313.385 -2.16042 -2.05255 0
M  V30 3368 H 310.922 -1.07451 -1.00463 0
M  V30 3369 H 312.88 -0.763311 -4.10158 0
M  V30 3370 H 311.51 -0.0290413 -3.22787 0
M  V30 3371 H 310.562 -2.43017 -2.92655 0
M  V30 3372 H 311.874 -3.01468 -3.97389 0
M  V30 3373 H 311.028 -1.59484 -5.85363 0
M  V30 3374 H 309.767 -0.906678 -4.79198 0
M  V30 3375 H 308.772 -3.19004 -4.47791 0
M  V30 3376 H 309.997 -3.87918 -5.57401 0
M  V30 3377 H 307.943 -1.76238 -6.31883 0
M  V30 3378 H 307.86 -3.444 -6.72997 0
M  V30 3379 H 309.128 -2.45942 -7.39684 0
M  V30 3380 N 313.357 1.07166 -1.15556 0
M  V30 3381 C 314.603 1.80065 -0.932984 0
M  V30 3382 C 314.936 1.86586 0.53845 0
M  V30 3383 O 314.211 1.35098 1.39924 0
M  V30 3384 C 314.494 3.25022 -1.55025 0
M  V30 3385 C 314.347 3.26634 -3.09242 0
M  V30 3386 C 315.666 4.22341 -1.2376 0
M  V30 3387 H 312.785 0.653697 -0.340366 0
M  V30 3388 H 315.427 1.25389 -1.4275 0
M  V30 3389 H 313.577 3.71712 -1.12972 0
M  V30 3390 H 315.249 2.88173 -3.60214 0
M  V30 3391 H 313.492 2.65539 -3.43033 0
M  V30 3392 H 314.163 4.28854 -3.47546 0
M  V30 3393 H 316.639 3.8405 -1.60139 0
M  V30 3394 H 315.515 5.22053 -1.69564 0
M  V30 3395 H 315.776 4.41828 -0.154938 0
M  V30 3396 N 314.835 0.952656 1.25548 0
M  V30 3397 C 316.082 0.606373 1.93208 0
M  V30 3398 C 316.41 -0.85631 1.74636 0
M  V30 3399 O 315.665 -1.62951 1.08376 0
M  V30 3400 C 315.964 0.908818 3.45652 0
M  V30 3401 C 315.63 2.35722 3.84378 0
M  V30 3402 C 314.292 2.75312 3.9466 0
M  V30 3403 C 316.644 3.29793 4.03591 0
M  V30 3404 C 313.972 4.08047 4.21562 0
M  V30 3405 C 316.324 4.62138 4.31985 0
M  V30 3406 C 314.988 5.01528 4.40484 0
M  V30 3407 H 314.258 0.221888 0.706998 0
M  V30 3408 H 316.905 1.20132 1.49133 0
M  V30 3409 H 315.21 0.231456 3.91116 0
M  V30 3410 H 316.907 0.619498 3.96186 0
M  V30 3411 H 313.497 2.04017 3.76928 0
M  V30 3412 H 317.681 3.00397 3.95064 0
M  V30 3413 H 312.937 4.38212 4.26357 0
M  V30 3414 H 317.111 5.35012 4.45797 0
M  V30 3415 H 314.738 6.04406 4.61083 0
M  V30 3416 N 316.313 -1.40141 0.720998 0
M  V30 3417 C 317.223 -2.34486 0.0731031 0
M  V30 3418 C 318.239 -1.57587 -0.737723 0
M  V30 3419 O 319.415 -1.89949 -0.669429 0
M  V30 3420 C 316.48 -3.36528 -0.833656 0
M  V30 3421 C 315.541 -4.29298 -0.0121673 0
M  V30 3422 C 314.774 -5.26466 -0.875742 0
M  V30 3423 O 314.997 -5.29745 -2.11485 0
M  V30 3424 O 313.931 -6.01092 -0.31185 0
M  V30 3425 H 317.757 -2.9152 0.851444 0
M  V30 3426 H 315.342 -1.41427 0.481527 0
M  V30 3427 H 317.224 -3.99093 -1.35289 0
M  V30 3428 H 315.899 -2.81899 -1.59105 0
M  V30 3429 H 314.806 -3.70001 0.552262 0
M  V30 3430 H 316.139 -4.87094 0.707129 0
M  V30 3431 N 317.792 -0.46758 -1.50504 0
M  V30 3432 C 319.069 0.15003 -1.95024 0
M  V30 3433 C 319.449 1.57304 -1.40779 0
M  V30 3434 O 318.797 2.20281 -0.607319 0
M  V30 3435 C 319.007 0.0969324 -3.48865 0
M  V30 3436 C 320.355 0.287565 -4.23625 0
M  V30 3437 O 321.379 0.173678 -3.55776 0
M  V30 3438 O 320.238 0.517186 -5.44047 0
M  V30 3439 H 317.332 0.113582 -0.819163 0
M  V30 3440 H 319.878 -0.52773 -1.61286 0
M  V30 3441 H 318.65 -0.896732 -3.80886 0
M  V30 3442 H 318.273 0.816303 -3.8913 0
M  V30 3443 N 319.27 1.56325 -0.20005 0
M  V30 3444 C 320.2 2.22318 0.713916 0
M  V30 3445 C 321.181 1.18788 1.21752 0
M  V30 3446 O 322.366 1.47309 1.26545 0
M  V30 3447 C 319.496 2.88639 1.93144 0
M  V30 3448 C 318.45 3.98457 1.56255 0
M  V30 3449 C 317.776 4.51967 2.85709 0
M  V30 3450 C 319.076 5.16612 0.768747 0
M  V30 3451 H 320.77 2.98952 0.163755 0
M  V30 3452 H 318.316 1.43792 0.0773219 0
M  V30 3453 H 320.269 3.33491 2.57608 0
M  V30 3454 H 318.993 2.09419 2.50621 0
M  V30 3455 H 317.652 3.54305 0.941471 0
M  V30 3456 H 317.3 3.69503 3.41287 0
M  V30 3457 H 317 5.26071 2.6177 0
M  V30 3458 H 318.524 4.99523 3.51154 0
M  V30 3459 H 319.938 5.57977 1.3166 0
M  V30 3460 H 318.335 5.96812 0.627286 0
M  V30 3461 H 319.405 4.84358 -0.229168 0
M  V30 3462 N 320.748 -0.0735177 1.57428 0
M  V30 3463 C 321.996 -0.771472 1.86796 0
M  V30 3464 C 322.317 -1.78201 0.791804 0
M  V30 3465 O 321.587 -1.95074 -0.179718 0
M  V30 3466 H 320.167 -0.28791 0.689287 0
M  V30 3467 H 322.829 -0.0500161 1.94836 0
M  V30 3468 H 321.925 -1.28874 2.8425 0
M  V30 3469 N 322.226 -1.5378 -0.344866 0
M  V30 3470 C 323.475 -1.7018 -1.08267 0
M  V30 3471 C 323.788 -0.471 -1.89845 0
M  V30 3472 O 324.994 -0.515917 -2.66553 0
M  V30 3473 C 323.45 -3.00923 -1.97417 0
M  V30 3474 C 323.058 -4.31335 -1.21053 0
M  V30 3475 C 324.802 -3.26688 -2.71063 0
M  V30 3476 C 322.709 -5.53153 -2.09225 0
M  V30 3477 H 321.639 -0.634138 -0.407903 0
M  V30 3478 H 324.29 -1.8028 -0.342246 0
M  V30 3479 H 322.672 -2.84676 -2.75274 0
M  V30 3480 H 323.846 -4.58281 -0.481159 0
M  V30 3481 H 322.161 -4.12173 -0.591813 0
M  V30 3482 H 324.758 -4.1489 -3.37299 0
M  V30 3483 H 325.101 -2.43639 -3.37558 0
M  V30 3484 H 325.634 -3.43705 -2.0028 0
M  V30 3485 H 322.373 -6.38741 -1.47274 0
M  V30 3486 H 321.893 -5.30458 -2.79955 0
M  V30 3487 H 323.572 -5.88744 -2.68308 0
M  V30 3488 N 323.704 0.605807 -1.45491 0
M  V30 3489 C 324.667 1.69836 -1.5391 0
M  V30 3490 C 325.667 1.55261 -0.418424 0
M  V30 3491 O 326.857 1.60296 -0.681965 0
M  V30 3492 C 323.989 3.09117 -1.43734 0
M  V30 3493 H 325.182 1.63738 -2.51257 0
M  V30 3494 H 322.735 0.821689 -1.32959 0
M  V30 3495 H 323.47 3.20791 -0.475788 0
M  V30 3496 H 323.255 3.21104 -2.25021 0
M  V30 3497 H 324.745 3.88696 -1.52661 0
M  V30 3498 N 325.182 1.32811 0.848464 0
M  V30 3499 C 326.593 1.21315 1.41914 0
M  V30 3500 C 326.944 -0.171847 1.95446 0
M  V30 3501 O 326.069 -1.07093 1.88043 0
M  V30 3502 C 326.664 2.19631 2.57968 0
M  V30 3503 C 325.223 2.12003 3.11017 0
M  V30 3504 C 324.37 2.07651 1.83783 0
M  V30 3505 H 327.321 1.44549 0.655071 0
M  V30 3506 H 327.342 1.79845 3.35315 0
M  V30 3507 H 326.854 3.20423 2.18976 0
M  V30 3508 H 324.955 1.14481 3.54577 0
M  V30 3509 H 325.068 3.02111 3.71841 0
M  V30 3510 H 323.432 1.52983 2.03638 0
M  V30 3511 H 324.215 3.10235 1.47 0
M  V30 3512 N 326.66 -1.06551 1.16123 0
M  V30 3513 C 327.593 -2.13382 0.80892 0
M  V30 3514 C 328.571 -1.61128 -0.21827 0
M  V30 3515 O 329.755 -1.88219 -0.102952 0
M  V30 3516 C 326.882 -3.38083 0.204303 0
M  V30 3517 C 325.928 -4.09133 1.20469 0
M  V30 3518 S 326.761 -4.5948 2.75024 0
M  V30 3519 C 327.917 -5.87446 2.16005 0
M  V30 3520 H 328.15 -2.42937 1.71373 0
M  V30 3521 H 325.683 -1.18947 0.984428 0
M  V30 3522 H 327.641 -4.10268 -0.138081 0
M  V30 3523 H 326.302 -3.0669 -0.678234 0
M  V30 3524 H 325.495 -4.98685 0.730019 0
M  V30 3525 H 325.097 -3.4295 1.49202 0
M  V30 3526 H 327.389 -6.60065 1.5271 0
M  V30 3527 H 328.332 -6.39639 3.03756 0
M  V30 3528 H 328.74 -5.41354 1.59989 0
M  V30 3529 N 328.138 -0.959301 -1.25041 0
M  V30 3530 C 329.086 -0.474437 -2.2771 0
M  V30 3531 C 330.08 0.457697 -1.631 0
M  V30 3532 O 331.286 0.333912 -1.76876 0
M  V30 3533 H 327.661 -0.134936 -0.739795 0
M  V30 3534 H 329.632 -1.35251 -2.65988 0
M  V30 3535 C 328.381 0.227884 -3.46952 0
M  V30 3536 H 327.704 -0.480248 -3.96905 0
M  V30 3537 H 329.144 0.531091 -4.20661 0
M  V30 3538 C 327.603 1.452 -3.04004 0
M  V30 3539 O 328.133 2.54949 -3.10426 0
M  V30 3540 N 326.339 1.31502 -2.59144 0
M  V30 3541 H 325.886 0.422065 -2.54119 0
M  V30 3542 H 325.844 2.13521 -2.30773 0
M  V30 3543 N 329.616 1.39756 -0.72842 0
M  V30 3544 C 331.027 1.83498 -0.344289 0
M  V30 3545 C 331.378 1.60868 1.12321 0
M  V30 3546 O 330.503 1.09634 1.86573 0
M  V30 3547 C 331.098 3.33114 -0.618112 0
M  V30 3548 C 329.657 3.753 -0.287549 0
M  V30 3549 C 328.804 2.62831 -0.884048 0
M  V30 3550 H 331.755 1.28842 -0.926578 0
M  V30 3551 H 331.776 3.80334 0.112349 0
M  V30 3552 H 331.288 3.49553 -1.68625 0
M  V30 3553 H 329.389 3.64451 0.775012 0
M  V30 3554 H 329.502 4.72945 -0.765512 0
M  V30 3555 H 327.866 2.52792 -0.311149 0
M  V30 3556 H 328.649 2.82078 -1.95671 0
M  V30 3557 N 331.094 0.475555 1.50254 0
M  V30 3558 C 332.004 -0.321501 2.32387 0
M  V30 3559 C 333.02 -0.991755 1.42969 0
M  V30 3560 O 334.196 -0.978747 1.76018 0
M  V30 3561 C 331.261 -1.38667 3.17762 0
M  V30 3562 C 330.322 -0.732538 4.23004 0
M  V30 3563 C 329.555 -1.74695 5.04299 0
M  V30 3564 O 329.778 -2.97399 4.86734 0
M  V30 3565 O 328.712 -1.31631 5.8733 0
M  V30 3566 H 332.538 0.350071 3.01676 0
M  V30 3567 H 330.123 0.237321 1.47503 0
M  V30 3568 H 332.005 -2.00354 3.70724 0
M  V30 3569 H 330.68 -2.04163 2.51196 0
M  V30 3570 H 329.587 -0.0765902 3.74022 0
M  V30 3571 H 330.92 -0.120452 4.92053 0
M  V30 3572 N 332.573 -1.56217 0.208337 0
M  V30 3573 C 333.801 -2.02337 -0.43215 0
M  V30 3574 C 334.216 -1.08834 -1.54275 0
M  V30 3575 O 333.573 -0.0955462 -1.8225 0
M  V30 3576 C 333.624 -3.48072 -0.976138 0
M  V30 3577 O 333.345 -4.38007 0.0901621 0
M  V30 3578 C 334.846 -4.09773 -1.69119 0
M  V30 3579 H 332.066 -0.662385 -0.10718 0
M  V30 3580 H 334.61 -2.01966 0.320923 0
M  V30 3581 H 332.765 -3.49099 -1.67954 0
M  V30 3582 H 333.179 -5.23543 -0.316701 0
M  V30 3583 H 334.653 -5.13556 -2.02397 0
M  V30 3584 H 335.13 -3.53999 -2.59964 0
M  V30 3585 H 335.736 -4.12556 -1.03332 0
M  V30 3586 N 334.051 0.0651679 -1.57465 0
M  V30 3587 C 335.328 0.79644 -1.78651 0
M  V30 3588 C 335.708 1.95454 -0.797566 0
M  V30 3589 O 335.056 2.27882 0.167946 0
M  V30 3590 C 335.266 1.26322 -3.25337 0
M  V30 3591 C 336.614 1.6939 -3.89348 0
M  V30 3592 O 337.638 1.35872 -3.29268 0
M  V30 3593 O 336.497 2.31471 -4.95059 0
M  V30 3594 H 333.591 0.382157 -0.733407 0
M  V30 3595 H 336.137 0.0447311 -1.69641 0
M  V30 3596 H 334.909 0.434859 -3.88876 0
M  V30 3597 H 334.532 2.07604 -3.39096 0
M  V30 3598 N 335.529 1.53961 0.336706 0
M  V30 3599 C 336.945 1.44378 0.680241 0
M  V30 3600 C 337.145 0.606034 1.9217 0
M  V30 3601 O 336.201 0.099688 2.52303 0
M  V30 3602 C 337.514 2.87945 0.8665 0
M  V30 3603 C 339.062 2.97763 0.964682 0
M  V30 3604 C 339.537 4.42453 1.18321 0
M  V30 3605 N 341.028 4.46008 1.25025 0
M  V30 3606 C 341.763 5.55102 1.43697 0
M  V30 3607 N 341.259 6.7419 1.59498 0
M  V30 3608 N 343.052 5.42727 1.463 0
M  V30 3609 H 335.203 2.06918 -0.479455 0
M  V30 3610 H 337.466 0.935634 -0.152619 0
M  V30 3611 H 337.172 3.51691 0.0256937 0
M  V30 3612 H 337.046 3.33293 1.76623 0
M  V30 3613 H 339.433 2.34153 1.796 0
M  V30 3614 H 339.514 2.55766 0.041708 0
M  V30 3615 H 339.158 5.06645 0.356788 0
M  V30 3616 H 339.088 4.82048 2.11985 0
M  V30 3617 H 341.579 3.60196 1.14312 0
M  V30 3618 H 341.892 7.53095 1.734 0
M  V30 3619 H 340.237 6.77123 1.56621 0
M  V30 3620 H 343.428 4.48647 1.33543 0
M  V30 3621 H 343.601 6.27806 1.6051 0
M  V30 3622 N 337.007 -0.598083 1.45811 0
M  V30 3623 C 337.97 -1.69018 1.54808 0
M  V30 3624 C 338.97 -1.55037 0.426652 0
M  V30 3625 O 340.16 -1.59932 0.690456 0
M  V30 3626 C 337.292 -3.0835 1.45371 0
M  V30 3627 H 338.485 -1.62403 2.52121 0
M  V30 3628 H 336.038 -0.814626 1.33392 0
M  V30 3629 H 336.773 -3.20534 0.492793 0
M  V30 3630 H 336.558 -3.19907 2.26721 0
M  V30 3631 H 338.048 -3.8788 1.54721 0
M  V30 3632 N 338.485 -1.33259 -0.841409 0
M  V30 3633 C 339.418 -1.1764 -1.95541 0
M  V30 3634 C 340.396 -0.072501 -1.62438 0
M  V30 3635 O 341.58 -0.23427 -1.87039 0
M  V30 3636 C 338.707 -0.803794 -3.29024 0
M  V30 3637 C 337.753 -1.91482 -3.81099 0
M  V30 3638 S 338.586 -3.52538 -4.03085 0
M  V30 3639 C 339.742 -3.17279 -5.39523 0
M  V30 3640 H 339.975 -2.11941 -2.08491 0
M  V30 3641 H 337.508 -1.18072 -0.9949 0
M  V30 3642 H 339.466 -0.595592 -4.06156 0
M  V30 3643 H 338.127 0.120574 -3.13868 0
M  V30 3644 H 337.32 -1.60742 -4.7768 0
M  V30 3645 H 336.922 -2.07956 -3.10854 0
M  V30 3646 H 339.214 -2.67946 -6.22263 0
M  V30 3647 H 340.157 -4.1293 -5.75234 0
M  V30 3648 H 340.565 -2.53943 -5.04156 0
M  V30 3649 N 339.963 1.05934 -1.16686 0
M  V30 3650 C 341.209 1.79065 -0.95203 0
M  V30 3651 C 341.542 1.87147 0.518629 0
M  V30 3652 O 340.817 1.36574 1.38484 0
M  V30 3653 C 341.1 3.23359 -1.58464 0
M  V30 3654 C 340.953 3.23336 -3.12689 0
M  V30 3655 C 342.272 4.21004 -1.28232 0
M  V30 3656 H 339.391 0.65005 -0.34728 0
M  V30 3657 H 342.033 1.23868 -1.44072 0
M  V30 3658 H 340.183 3.70493 -1.16908 0
M  V30 3659 H 341.855 2.84336 -3.6325 0
M  V30 3660 H 340.098 2.61886 -3.4583 0
M  V30 3661 H 340.769 4.25144 -3.52075 0
M  V30 3662 H 343.245 3.8233 -1.64203 0
M  V30 3663 H 342.121 5.20225 -1.75092 0
M  V30 3664 H 342.382 4.41639 -0.201791 0
M  V30 3665 N 341.441 0.965919 1.2453 0
M  V30 3666 C 342.681 0.634656 1.94297 0
M  V30 3667 C 343.045 -0.814822 1.73852 0
M  V30 3668 O 344.246 -1.25622 2.3764 0
M  V30 3669 C 342.517 0.99702 3.43212 0
M  V30 3670 S 344.076 0.780038 4.31811 0
M  V30 3671 H 340.894 0.232893 0.671775 0
M  V30 3672 H 343.496 1.24249 1.50938 0
M  V30 3673 H 342.2 2.04886 3.55598 0
M  V30 3674 H 341.731 0.379888 3.91562 0
M  V30 3675 H 343.746 -0.343512 4.9501 0
M  V30 3676 N 342.919 -1.39368 0.735821 0
M  V30 3677 C 344.167 -2.00101 0.283562 0
M  V30 3678 C 344.488 -1.5868 -1.13338 0
M  V30 3679 O 343.758 -0.835423 -1.77193 0
M  V30 3680 H 342.338 -0.740024 0.101851 0
M  V30 3681 H 345 -1.70404 0.945962 0
M  V30 3682 H 344.096 -3.10323 0.332604 0
M  V30 3683 N 344.397 -0.483516 -1.5 0
M  V30 3684 C 345.622 0.0667119 -2.07293 0
M  V30 3685 C 346.047 1.3164 -1.3436 0
M  V30 3686 O 345.405 1.76945 -0.394987 0
M  V30 3687 C 345.453 0.321126 -3.59167 0
M  V30 3688 O 344.557 1.39927 -3.87936 0
M  V30 3689 H 343.898 -0.0184758 -0.663743 0
M  V30 3690 H 346.428 -0.678125 -1.93035 0
M  V30 3691 H 346.438 0.557906 -4.04168 0
M  V30 3692 H 345.113 -0.592007 -4.11665 0
M  V30 3693 H 343.69 1.14882 -3.54763 0
M  V30 3694 N 345.875 1.56104 -0.216619 0
M  V30 3695 C 346.805 2.23063 0.690296 0
M  V30 3696 C 347.786 1.20072 1.20485 0
M  V30 3697 O 348.971 1.48643 1.24976 0
M  V30 3698 C 346.101 2.90672 1.90072 0
M  V30 3699 C 345.055 4.00092 1.5202 0
M  V30 3700 C 344.381 4.54972 2.80899 0
M  V30 3701 C 345.681 5.17398 0.71391 0
M  V30 3702 H 347.375 2.99109 0.132038 0
M  V30 3703 H 344.921 1.43866 0.0620664 0
M  V30 3704 H 346.874 3.36204 2.54057 0
M  V30 3705 H 345.598 2.12066 2.48386 0
M  V30 3706 H 344.257 3.55283 0.903839 0
M  V30 3707 H 343.905 3.73102 3.37348 0
M  V30 3708 H 343.605 5.28817 2.56176 0
M  V30 3709 H 345.129 5.0322 3.45836 0
M  V30 3710 H 346.543 5.59342 1.25735 0
M  V30 3711 H 344.94 5.97444 0.563951 0
M  V30 3712 H 346.01 4.84088 -0.280527 0
M  V30 3713 N 347.353 -0.0568162 1.57498 0
M  V30 3714 C 348.316 -1.05038 2.03715 0
M  V30 3715 C 349.316 -1.30709 0.936577 0
M  V30 3716 O 350.506 -1.26178 1.20103 0
M  V30 3717 C 347.638 -2.39034 2.43055 0
M  V30 3718 H 348.831 -0.651715 2.92733 0
M  V30 3719 H 346.384 -0.302947 1.53336 0
M  V30 3720 H 347.119 -2.83703 1.57108 0
M  V30 3721 H 346.904 -2.21739 3.2338 0
M  V30 3722 H 348.394 -3.10421 2.79336 0
M  V30 3723 N 348.832 -1.54138 -0.328536 0
M  V30 3724 C 350.079 -1.72105 -1.06706 0
M  V30 3725 C 350.407 -0.492111 -1.88171 0
M  V30 3726 O 349.662 0.526153 -1.88494 0
M  V30 3727 C 349.961 -2.9457 -2.02393 0
M  V30 3728 C 349.627 -4.29544 -1.37122 0
M  V30 3729 C 348.289 -4.6624 -1.19052 0
M  V30 3730 C 350.641 -5.1333 -0.902331 0
M  V30 3731 C 347.969 -5.84325 -0.527331 0
M  V30 3732 C 350.321 -6.32094 -0.252988 0
M  V30 3733 C 348.985 -6.67473 -0.0600901 0
M  V30 3734 H 348.255 -0.629775 -0.390466 0
M  V30 3735 H 350.902 -1.88372 -0.34473 0
M  V30 3736 H 349.207 -2.72969 -2.81061 0
M  V30 3737 H 350.904 -3.05665 -2.59557 0
M  V30 3738 H 347.494 -4.0067 -1.52188 0
M  V30 3739 H 351.678 -4.855 -1.02974 0
M  V30 3740 H 346.934 -6.103 -0.366634 0
M  V30 3741 H 351.108 -6.96299 0.118366 0
M  V30 3742 H 348.735 -7.58832 0.455828 0
M  V30 3743 N 350.31 0.590341 -1.46126 0
M  V30 3744 C 351.258 1.72105 -1.5647 0
M  V30 3745 C 352.252 1.63756 -0.433612 0
M  V30 3746 O 353.458 1.69342 -0.610194 0
M  V30 3747 H 349.833 0.568889 -0.491802 0
M  V30 3748 H 351.804 1.6051 -2.51553 0
M  V30 3749 C 350.553 3.10493 -1.56491 0
M  V30 3750 H 349.876 3.17583 -2.4286 0
M  V30 3751 H 351.316 3.8939 -1.67785 0
M  V30 3752 C 349.775 3.3563 -0.292231 0
M  V30 3753 O 350.305 3.96875 0.620739 0
M  V30 3754 N 348.511 2.90026 -0.182523 0
M  V30 3755 H 348.058 2.40367 -0.926356 0
M  V30 3756 H 348.016 3.07218 0.668152 0
M  V30 3757 N 351.788 1.33704 0.83433 0
M  V30 3758 C 353.034 1.25603 1.59222 0
M  V30 3759 C 353.367 -0.176659 1.93395 0
M  V30 3760 O 352.642 -1.11915 1.59076 0
M  V30 3761 C 352.925 2.13576 2.89926 0
M  V30 3762 C 352.778 3.65326 2.62406 0
M  V30 3763 C 354.097 2.01238 3.91397 0
M  V30 3764 H 351.216 0.457613 0.577719 0
M  V30 3765 H 353.858 1.63848 0.961972 0
M  V30 3766 H 352.008 1.8109 3.43713 0
M  V30 3767 H 353.68 4.08124 2.15017 0
M  V30 3768 H 351.923 3.8698 1.96033 0
M  V30 3769 H 352.594 4.22232 3.55562 0
M  V30 3770 H 355.07 2.29738 3.46929 0
M  V30 3771 H 353.946 2.65036 4.80673 0
M  V30 3772 H 354.207 0.985951 4.30966 0
M  V30 3773 N 353.266 -1.05314 1.17247 0
M  V30 3774 C 354.543 -1.75184 0.87005 0
M  V30 3775 C 354.923 -2.01481 -0.629965 0
M  V30 3776 O 354.271 -1.64988 -1.58086 0
M  V30 3777 C 354.481 -3.04594 1.70363 0
M  V30 3778 C 355.829 -3.78567 1.92281 0
M  V30 3779 O 356.853 -3.14461 1.67311 0
M  V30 3780 O 355.712 -4.93755 2.3424 0
M  V30 3781 H 352.806 -0.761729 0.322021 0
M  V30 3782 H 355.352 -1.11493 1.27935 0
M  V30 3783 H 354.124 -2.81201 2.72106 0
M  V30 3784 H 353.747 -3.76022 1.29202 0
M  V30 3785 N 354.744 -0.972509 -1.24016 0
M  V30 3786 C 355.99 -0.637978 -1.92504 0
M  V30 3787 C 356.323 0.825383 -1.75787 0
M  V30 3788 O 355.598 1.59442 -1.11393 0
M  V30 3789 C 355.881 -1.01942 -3.45369 0
M  V30 3790 C 355.734 -2.53983 -3.71231 0
M  V30 3791 C 357.053 -0.55751 -4.36555 0
M  V30 3792 H 354.172 -0.233248 -0.699117 0
M  V30 3793 H 356.814 -1.21238 -1.46292 0
M  V30 3794 H 354.964 -0.530656 -3.84859 0
M  V30 3795 H 356.636 -3.10374 -3.41271 0
M  V30 3796 H 354.879 -2.96968 -3.16216 0
M  V30 3797 H 355.55 -2.75723 -4.78206 0
M  V30 3798 H 358.026 -0.977029 -4.04467 0
M  V30 3799 H 356.902 -0.85292 -5.42233 0
M  V30 3800 H 357.163 0.542328 -4.38761 0
M  V30 3801 N 356.222 1.38976 -0.743202 0
M  V30 3802 C 357.155 2.28128 -0.0572165 0
M  V30 3803 C 358.133 1.44827 0.739182 0
M  V30 3804 O 359.317 1.74207 0.720009 0
M  V30 3805 C 356.444 3.25796 0.926001 0
M  V30 3806 C 355.49 4.25947 0.217099 0
M  V30 3807 S 356.323 5.24604 -1.07477 0
M  V30 3808 C 357.479 6.25829 -0.0943545 0
M  V30 3809 H 357.712 2.85961 -0.813246 0
M  V30 3810 H 355.245 1.44822 -0.535341 0
M  V30 3811 H 357.203 3.82583 1.48797 0
M  V30 3812 H 355.864 2.66966 1.65493 0
M  V30 3813 H 355.057 4.94746 0.961372 0
M  V30 3814 H 354.659 3.73002 -0.273059 0
M  V30 3815 H 356.951 6.73411 0.743239 0
M  V30 3816 H 357.894 7.0412 -0.749713 0
M  V30 3817 H 358.302 5.63797 0.281706 0
M  V30 3818 N 357.7 0.491464 1.49741 0
M  V30 3819 C 358.647 -0.292027 2.28945 0
M  V30 3820 C 359.617 -0.968973 1.34908 0
M  V30 3821 O 360.802 -0.97748 1.6386 0
M  V30 3822 C 357.942 -1.35617 3.17336 0
M  V30 3823 C 357.055 -0.691957 4.26422 0
M  V30 3824 C 356.19 -1.73572 5.02042 0
M  V30 3825 C 355.229 -1.05286 6.02977 0
M  V30 3826 N 354.366 -2.0404 6.71798 0
M  V30 3827 H 359.206 0.389654 2.95442 0
M  V30 3828 H 356.743 0.204003 1.45679 0
M  V30 3829 H 358.701 -1.98502 3.66951 0
M  V30 3830 H 357.331 -2.00674 2.52844 0
M  V30 3831 H 356.383 0.0499523 3.80367 0
M  V30 3832 H 357.695 -0.153946 4.98562 0
M  V30 3833 H 356.849 -2.43987 5.55478 0
M  V30 3834 H 355.588 -2.30757 4.29654 0
M  V30 3835 H 354.593 -0.334446 5.48782 0
M  V30 3836 H 355.818 -0.487636 6.77347 0
M  V30 3837 H 353.764 -2.60205 6.02187 0
M  V30 3838 H 353.681 -1.55279 7.39881 0
M  V30 3839 H 354.949 -2.73772 7.29842 0
M  V30 3840 N 359.178 -1.55987 0.224894 0
M  V30 3841 C 360.424 -1.98684 -0.406502 0
M  V30 3842 C 360.757 -1.11248 -1.59177 0
M  V30 3843 O 360.032 -0.170909 -1.93748 0
M  V30 3844 C 360.315 -3.50218 -0.837808 0
M  V30 3845 C 360.168 -4.48426 0.351332 0
M  V30 3846 C 361.487 -4.06243 -1.69278 0
M  V30 3847 H 358.606 -0.722337 -0.146283 0
M  V30 3848 H 361.248 -1.87255 0.321799 0
M  V30 3849 H 359.398 -3.60089 -1.45837 0
M  V30 3850 H 361.07 -4.50562 0.989526 0
M  V30 3851 H 359.313 -4.22159 0.998207 0
M  V30 3852 H 359.984 -5.52 0.00655905 0
M  V30 3853 H 362.46 -3.99337 -1.16914 0
M  V30 3854 H 361.336 -5.12581 -1.96346 0
M  V30 3855 H 361.597 -3.53332 -2.65723 0
M  V30 3856 N 360.656 0.0484629 -1.57525 0
M  V30 3857 C 361.586 1.0549 -2.08313 0
M  V30 3858 C 362.567 1.38929 -0.981463 0
M  V30 3859 O 363.752 1.48151 -1.25558 0
M  V30 3860 C 360.882 2.36162 -2.54646 0
M  V30 3861 C 359.836 2.17016 -3.68901 0
M  V30 3862 C 359.162 3.53278 -4.01371 0
M  V30 3863 C 360.462 1.57219 -4.98076 0
M  V30 3864 H 362.156 0.632195 -2.92649 0
M  V30 3865 H 359.702 0.302654 -1.40784 0
M  V30 3866 H 361.655 3.06882 -2.88793 0
M  V30 3867 H 360.379 2.80456 -1.67368 0
M  V30 3868 H 359.038 1.48733 -3.35073 0
M  V30 3869 H 358.686 3.95185 -3.11188 0
M  V30 3870 H 358.386 3.41299 -4.78318 0
M  V30 3871 H 359.91 4.25391 -4.38035 0
M  V30 3872 H 361.324 2.17832 -5.30304 0
M  V30 3873 H 359.721 1.55871 -5.79503 0
M  V30 3874 H 360.791 0.535956 -4.81929 0
M  V30 3875 N 362.134 1.5431 0.320358 0
M  V30 3876 C 363.044 1.86946 1.41734 0
M  V30 3877 C 364.06 0.761689 1.56443 0
M  V30 3878 O 365.236 1.05629 1.71477 0
M  V30 3879 C 362.301 2.09293 2.76401 0
M  V30 3880 C 361.362 3.33082 2.70841 0
M  V30 3881 C 360.595 3.54353 3.99086 0
M  V30 3882 O 360.818 2.79002 4.97508 0
M  V30 3883 O 359.752 4.47838 4.0215 0
M  V30 3884 H 363.578 2.80232 1.17062 0
M  V30 3885 H 361.163 1.40255 0.514673 0
M  V30 3886 H 363.045 2.25303 3.56113 0
M  V30 3887 H 361.72 1.19194 3.00956 0
M  V30 3888 H 360.627 3.22454 1.89668 0
M  V30 3889 H 361.96 4.23249 2.5124 0
M  V30 3890 N 363.613 -0.582584 1.46437 0
M  V30 3891 C 364.838 -1.37168 1.55563 0
M  V30 3892 C 365.263 -1.87061 0.19743 0
M  V30 3893 O 364.621 -1.61572 -0.822451 0
M  V30 3894 C 364.669 -2.53511 2.56446 0
M  V30 3895 O 363.773 -3.54953 2.09958 0
M  V30 3896 H 363.114 -0.408494 0.523477 0
M  V30 3897 H 365.644 -0.706646 1.9201 0
M  V30 3898 H 365.654 -3.00426 2.76058 0
M  V30 3899 H 364.329 -2.16549 3.55076 0
M  V30 3900 H 362.906 -3.14516 2.00334 0
M  V30 3901 N 365.091 -1.34144 -0.827227 0
M  V30 3902 C 366.321 -1.29138 -1.61267 0
M  V30 3903 C 366.729 0.137597 -1.88699 0
M  V30 3904 O 366.072 1.09379 -1.47587 0
M  V30 3905 C 366.134 -2.0097 -2.9808 0
M  V30 3906 C 365.798 -3.50242 -2.93563 0
M  V30 3907 C 366.795 -4.4523 -2.68452 0
M  V30 3908 C 364.48 -3.92592 -3.13331 0
M  V30 3909 C 366.474 -5.80542 -2.63154 0
M  V30 3910 C 364.161 -5.28005 -3.07658 0
M  V30 3911 C 365.159 -6.21792 -2.82602 0
M  V30 3912 O 364.847 -7.54723 -2.76853 0
M  V30 3913 H 364.579 -0.445851 -0.508127 0
M  V30 3914 H 367.133 -1.77263 -1.03763 0
M  V30 3915 H 365.363 -1.47451 -3.57484 0
M  V30 3916 H 367.052 -1.89309 -3.5905 0
M  V30 3917 H 367.818 -4.13832 -2.52919 0
M  V30 3918 H 363.697 -3.19994 -3.31851 0
M  V30 3919 H 367.241 -6.53717 -2.43516 0
M  V30 3920 H 363.138 -5.59023 -3.22743 0
M  V30 3921 H 363.906 -7.64409 -2.92611 0
M  V30 3922 N 366.569 1.04691 -1.17803 0
M  V30 3923 C 367.817 1.7743 -0.967617 0
M  V30 3924 C 368.138 1.88359 0.504574 0
M  V30 3925 O 367.408 1.40402 1.36617 0
M  V30 3926 H 365.988 0.657242 -0.355024 0
M  V30 3927 H 368.65 1.2638 -1.48371 0
M  V30 3928 H 367.746 2.78924 -1.40027 0
M  V30 3929 N 368.047 0.979072 1.23499 0
M  V30 3930 C 368.977 0.537606 2.27227 0
M  V30 3931 C 369.958 -0.428539 1.64613 0
M  V30 3932 O 371.143 -0.322191 1.91509 0
M  V30 3933 C 368.273 -0.162052 3.46922 0
M  V30 3934 C 367.227 0.721242 4.21879 0
M  V30 3935 C 366.553 -0.110555 5.34586 0
M  V30 3936 C 367.853 2.01141 4.82016 0
M  V30 3937 H 369.547 1.40462 2.64406 0
M  V30 3938 H 367.093 0.67684 1.27102 0
M  V30 3939 H 369.046 -0.482192 4.18632 0
M  V30 3940 H 367.77 -1.06351 3.08799 0
M  V30 3941 H 366.429 1.02482 3.51984 0
M  V30 3942 H 366.077 -1.0125 4.92704 0
M  V30 3943 H 365.777 0.477325 5.85658 0
M  V30 3944 H 367.301 -0.425107 6.09118 0
M  V30 3945 H 368.715 1.75612 5.45741 0
M  V30 3946 H 367.112 2.54695 5.43369 0
M  V30 3947 H 368.182 2.69909 4.02836 0
M  V30 3948 N 369.525 -1.3858 0.750561 0
M  V30 3949 C 370.941 -1.53759 0.427824 0
M  V30 3950 C 371.141 -1.71401 -1.05943 0
M  V30 3951 O 370.197 -1.72331 -1.84549 0
M  V30 3952 C 371.51 -2.74642 1.22443 0
M  V30 3953 C 373.058 -2.88489 1.2142 0
M  V30 3954 C 373.533 -4.12329 1.9937 0
M  V30 3955 N 375.024 -4.194 1.96616 0
M  V30 3956 C 375.759 -5.14209 2.53727 0
M  V30 3957 N 375.255 -6.14709 3.19539 0
M  V30 3958 N 377.048 -5.06537 2.43673 0
M  V30 3959 H 369.199 -1.25377 1.71447 0
M  V30 3960 H 371.462 -0.608844 0.726645 0
M  V30 3961 H 371.168 -2.68 2.27747 0
M  V30 3962 H 371.042 -3.67745 0.839273 0
M  V30 3963 H 373.429 -2.94614 0.169232 0
M  V30 3964 H 373.51 -1.96406 1.63885 0
M  V30 3965 H 373.154 -4.06966 3.03877 0
M  V30 3966 H 373.084 -5.03486 1.54302 0
M  V30 3967 H 375.575 -3.47421 1.48684 0
M  V30 3968 H 375.888 -6.8354 3.60545 0
M  V30 3969 H 374.233 -6.1505 3.23633 0
M  V30 3970 H 377.424 -4.26962 1.91889 0
M  V30 3971 H 377.597 -5.80245 2.88479 0
M  V30 3972 N 371.003 -0.499398 -1.49478 0
M  V30 3973 C 371.913 0.284489 -2.32869 0
M  V30 3974 C 372.929 0.968885 -1.44529 0
M  V30 3975 O 374.105 0.95062 -1.77553 0
M  V30 3976 C 371.17 1.33594 -3.19928 0
M  V30 3977 C 370.231 0.665149 -4.24116 0
M  V30 3978 C 369.464 1.6665 -5.07014 0
M  V30 3979 O 369.687 2.89618 -4.91404 0
M  V30 3980 O 368.621 1.22271 -5.8935 0
M  V30 3981 H 372.447 -0.39802 -3.01081 0
M  V30 3982 H 370.032 -0.260758 -1.47107 0
M  V30 3983 H 371.914 1.94431 -3.73864 0
M  V30 3984 H 370.589 2.0014 -2.54412 0
M  V30 3985 H 369.496 0.0170769 -3.74096 0
M  V30 3986 H 370.829 0.0421555 -4.92182 0
M  V30 3987 N 372.481 1.55866 -0.233164 0
M  V30 3988 C 373.729 1.9821 0.394593 0
M  V30 3989 C 374.05 1.12234 1.59463 0
M  V30 3990 O 373.32 0.201981 1.94856 0
M  V30 3991 H 371.9 0.732034 0.148778 0
M  V30 3992 H 374.562 1.92107 -0.32876 0
M  V30 3993 H 373.658 3.03845 0.713063 0
M  V30 3994 N 373.959 -0.0401083 1.57549 0
M  V30 3995 C 374.922 -1.02871 2.04817 0
M  V30 3996 C 375.922 -1.29708 0.950388 0
M  V30 3997 O 377.112 -1.24897 1.21435 0
M  V30 3998 C 374.244 -2.36443 2.45576 0
M  V30 3999 H 375.437 -0.620631 2.93408 0
M  V30 4000 H 372.99 -0.286667 1.53649 0
M  V30 4001 H 373.725 -2.82021 1.60108 0
M  V30 4002 H 373.51 -2.18296 3.25713 0
M  V30 4003 H 375 -3.07441 2.82612 0
M  V30 4004 N 375.437 -1.54477 -0.31217 0
M  V30 4005 C 376.385 -1.85395 -1.40469 0
M  V30 4006 C 377.379 -0.726749 -1.53019 0
M  V30 4007 O 378.585 -0.910582 -1.55269 0
M  V30 4008 H 374.96 -0.587845 -0.46898 0
M  V30 4009 H 376.931 -2.76736 -1.11623 0
M  V30 4010 C 375.68 -2.10811 -2.76503 0
M  V30 4011 H 375.003 -2.97014 -2.67625 0
M  V30 4012 H 376.443 -2.3639 -3.51988 0
M  V30 4013 C 374.902 -0.903165 -3.24568 0
M  V30 4014 O 375.432 -0.118085 -4.01526 0
M  V30 4015 N 373.638 -0.711634 -2.81752 0
M  V30 4016 H 373.185 -1.35171 -2.19286 0
M  V30 4017 H 373.143 0.0930473 -3.14262 0
M  V30 4018 N 376.915 0.57481 -1.46744 0
M  V30 4019 C 378.14 1.36341 -1.56288 0
M  V30 4020 C 378.565 1.86954 -0.207347 0
M  V30 4021 O 377.923 1.62006 0.813871 0
M  V30 4022 C 377.971 2.52147 -2.57787 0
M  V30 4023 O 377.075 3.53834 -2.11838 0
M  V30 4024 H 376.416 0.405713 -0.525636 0
M  V30 4025 H 378.946 0.696453 -1.92382 0
M  V30 4026 H 378.956 2.98958 -2.77648 0
M  V30 4027 H 377.631 2.14663 -3.5622 0
M  V30 4028 H 376.208 3.1345 -2.01999 0
M  V30 4029 N 378.394 1.34581 0.820102 0
M  V30 4030 C 379.304 1.28471 1.96297 0
M  V30 4031 C 380.32 0.191902 1.72939 0
M  V30 4032 O 381.496 0.418879 1.96996 0
M  V30 4033 C 378.561 1.04281 3.30645 0
M  V30 4034 C 377.622 2.22745 3.66992 0
M  V30 4035 C 376.855 1.997 4.9493 0
M  V30 4036 O 377.078 0.956656 5.6232 0
M  V30 4037 O 376.012 2.86723 5.2922 0
M  V30 4038 H 379.838 2.24624 2.04396 0
M  V30 4039 H 377.423 1.14816 0.955913 0
M  V30 4040 H 379.305 0.925841 4.11104 0
M  V30 4041 H 377.98 0.111697 3.23507 0
M  V30 4042 H 376.887 2.40003 2.86966 0
M  V30 4043 H 378.22 3.14257 3.78819 0
M  V30 4044 N 379.872 -1.04064 1.18357 0
M  V30 4045 C 381.283 -1.58719 0.98312 0
M  V30 4046 C 381.634 -1.90556 -0.467193 0
M  V30 4047 O 380.759 -1.69561 -1.34454 0
M  V30 4048 C 381.354 -2.88379 1.77828 0
M  V30 4049 C 379.913 -3.3965 1.62218 0
M  V30 4050 C 379.06 -2.13235 1.77274 0
M  V30 4051 H 382.011 -0.867359 1.32901 0
M  V30 4052 H 382.032 -3.58773 1.26737 0
M  V30 4053 H 381.544 -2.65176 2.83379 0
M  V30 4054 H 379.645 -3.67866 0.592036 0
M  V30 4055 H 379.758 -4.13475 2.42023 0
M  V30 4056 H 378.122 -2.24542 1.20221 0
M  V30 4057 H 378.905 -1.92487 2.8426 0
M  V30 4058 N 381.35 -0.985608 -1.22978 0
M  V30 4059 C 382.766 -0.695104 -1.43668 0
M  V30 4060 C 382.966 0.736866 -1.87543 0
M  V30 4061 O 382.022 1.50868 -2.02473 0
M  V30 4062 C 383.335 -1.69447 -2.48412 0
M  V30 4063 C 384.883 -1.70909 -2.62219 0
M  V30 4064 C 385.358 -2.6969 -3.70178 0
M  V30 4065 N 386.849 -2.6824 -3.77626 0
M  V30 4066 C 387.584 -3.41339 -4.60733 0
M  V30 4067 N 387.08 -4.24015 -5.4789 0
M  V30 4068 N 388.873 -3.30079 -4.54977 0
M  V30 4069 H 381.024 -1.91054 -0.928016 0
M  V30 4070 H 383.287 -0.823553 -0.469536 0
M  V30 4071 H 382.993 -2.7188 -2.23102 0
M  V30 4072 H 382.867 -1.48147 -3.46889 0
M  V30 4073 H 385.254 -0.691785 -2.86877 0
M  V30 4074 H 385.335 -1.96276 -1.6404 0
M  V30 4075 H 384.979 -3.71566 -3.46268 0
M  V30 4076 H 384.909 -2.41595 -4.67909 0
M  V30 4077 H 387.4 -2.08243 -3.15346 0
M  V30 4078 H 387.713 -4.76636 -6.08308 0
M  V30 4079 H 386.058 -4.28104 -5.47496 0
M  V30 4080 H 389.249 -2.64937 -3.85909 0
M  V30 4081 H 389.422 -3.87308 -5.19516 0
M  V30 4082 N 382.828 1.3818 -0.7579 0
M  V30 4083 C 383.738 2.3421 -0.135247 0
M  V30 4084 C 384.754 1.59487 0.695683 0
M  V30 4085 O 385.93 1.91657 0.618832 0
M  V30 4086 C 382.995 3.3862 0.744139 0
M  V30 4087 C 382.056 4.2918 -0.101658 0
M  V30 4088 C 381.289 5.28603 0.735851 0
M  V30 4089 O 381.512 5.35166 1.97366 0
M  V30 4090 O 380.446 6.01707 0.152372 0
M  V30 4091 H 384.272 2.8916 -0.928436 0
M  V30 4092 H 381.857 1.40101 -0.518855 0
M  V30 4093 H 383.739 4.02539 1.2466 0
M  V30 4094 H 382.414 2.86019 1.51575 0
M  V30 4095 H 381.321 3.68407 -0.650167 0
M  V30 4096 H 382.654 4.85048 -0.836024 0
M  V30 4097 N 384.306 0.507319 1.49211 0
M  V30 4098 C 385.553 -0.0349529 2.0247 0
M  V30 4099 C 385.881 -1.36409 1.38647 0
M  V30 4100 O 385.136 -1.88841 0.513566 0
M  V30 4101 C 385.435 -0.229513 3.56662 0
M  V30 4102 C 385.101 1.02241 4.39156 0
M  V30 4103 C 383.763 1.36557 4.61417 0
M  V30 4104 C 386.115 1.85428 4.871 0
M  V30 4105 C 383.443 2.53999 5.28868 0
M  V30 4106 C 385.795 3.02028 5.55843 0
M  V30 4107 C 384.459 3.36717 5.76349 0
M  V30 4108 H 383.729 -0.0127902 0.74089 0
M  V30 4109 H 386.376 0.668756 1.79443 0
M  V30 4110 H 384.681 -1.0158 3.78403 0
M  V30 4111 H 386.378 -0.663641 3.9547 0
M  V30 4112 H 382.968 0.745124 4.22073 0
M  V30 4113 H 387.152 1.6023 4.69723 0
M  V30 4114 H 382.408 2.81105 5.42946 0
M  V30 4115 H 386.582 3.66808 5.91967 0
M  V30 4116 H 384.209 4.27821 6.28389 0
M  V30 4117 N 385.784 -1.5574 0.241426 0
M  V30 4118 C 387.03 -1.99104 -0.385406 0
M  V30 4119 C 387.363 -1.1293 -1.57988 0
M  V30 4120 O 386.638 -0.191449 -1.93555 0
M  V30 4121 C 386.921 -3.51087 -0.800616 0
M  V30 4122 C 386.774 -4.48028 0.398874 0
M  V30 4123 C 388.093 -4.08015 -1.64959 0
M  V30 4124 H 385.212 -0.723848 -0.138614 0
M  V30 4125 H 387.854 -1.86903 0.341642 0
M  V30 4126 H 386.004 -3.61615 -1.4201 0
M  V30 4127 H 387.676 -4.49487 1.03726 0
M  V30 4128 H 385.919 -4.21077 1.04293 0
M  V30 4129 H 386.59 -5.51962 0.0651056 0
M  V30 4130 H 389.066 -4.00555 -1.12672 0
M  V30 4131 H 387.942 -5.14635 -1.90898 0
M  V30 4132 H 388.203 -3.56131 -2.61961 0
M  V30 4133 N 387.262 0.0317525 -1.57568 0
M  V30 4134 C 388.508 0.724175 -1.8943 0
M  V30 4135 C 388.841 1.75149 -0.838836 0
M  V30 4136 O 388.116 1.93948 0.146422 0
M  V30 4137 C 388.399 1.39615 -3.31933 0
M  V30 4138 C 388.252 0.382537 -4.4817 0
M  V30 4139 C 389.571 2.33084 -3.73309 0
M  V30 4140 H 386.69 0.261797 -0.688935 0
M  V30 4141 H 389.332 -0.013017 -1.89996 0
M  V30 4142 H 387.482 2.02451 -3.31581 0
M  V30 4143 H 389.154 -0.243689 -4.60656 0
M  V30 4144 H 387.397 -0.29844 -4.32772 0
M  V30 4145 H 388.068 0.891145 -5.44759 0
M  V30 4146 H 390.544 1.80295 -3.7501 0
M  V30 4147 H 389.42 2.77084 -4.73831 0
M  V30 4148 H 389.681 3.19643 -3.05419 0
M  V30 4149 N 388.74 1.54641 0.303973 0
M  V30 4150 C 389.65 1.88439 1.39743 0
M  V30 4151 C 390.666 0.778239 1.55626 0
M  V30 4152 O 391.842 1.07442 1.70347 0
M  V30 4153 C 388.907 2.12212 2.74166 0
M  V30 4154 C 387.968 3.35936 2.67293 0
M  V30 4155 C 387.201 3.58566 3.95305 0
M  V30 4156 O 387.424 2.84263 4.9452 0
M  V30 4157 O 386.358 4.52078 3.97378 0
M  V30 4158 H 390.184 2.81458 1.14083 0
M  V30 4159 H 387.769 1.40793 0.499768 0
M  V30 4160 H 389.651 2.29067 3.53704 0
M  V30 4161 H 388.326 1.22379 2.99675 0
M  V30 4162 H 387.233 3.24448 1.86237 0
M  V30 4163 H 388.566 4.2589 2.46736 0
M  V30 4164 N 390.218 -0.567019 1.47046 0
M  V30 4165 C 391.165 -1.67489 1.58796 0
M  V30 4166 C 392.135 -1.60399 0.43144 0
M  V30 4167 O 393.32 -1.79378 0.650233 0
M  V30 4168 C 390.46 -3.05821 1.59899 0
M  V30 4169 C 389.573 -3.2342 2.86397 0
M  V30 4170 C 388.708 -4.52093 2.789 0
M  V30 4171 C 387.747 -4.6309 4.00267 0
M  V30 4172 N 386.884 -5.83106 3.91064 0
M  V30 4173 H 391.724 -1.56785 2.53422 0
M  V30 4174 H 389.261 -0.763896 1.2571 0
M  V30 4175 H 391.219 -3.8591 1.58522 0
M  V30 4176 H 389.849 -3.15384 0.687929 0
M  V30 4177 H 388.901 -2.3683 2.97684 0
M  V30 4178 H 390.213 -3.27412 3.76301 0
M  V30 4179 H 389.367 -5.4043 2.75718 0
M  V30 4180 H 388.106 -4.50565 1.86662 0
M  V30 4181 H 387.111 -3.73168 4.03765 0
M  V30 4182 H 388.336 -4.66386 4.93621 0
M  V30 4183 H 386.282 -5.82546 3.01623 0
M  V30 4184 H 386.199 -5.88434 4.74638 0
M  V30 4185 H 387.467 -6.73831 3.91882 0
M  V30 4186 N 391.696 -1.35014 -0.812953 0
M  V30 4187 C 392.659 -1.27292 -1.90602 0
M  V30 4188 C 393.659 -0.185817 -1.59723 0
M  V30 4189 O 394.849 -0.439102 -1.68575 0
M  V30 4190 C 391.981 -0.967676 -3.26877 0
M  V30 4191 H 393.174 -2.24479 -1.9887 0
M  V30 4192 H 390.727 -1.19446 -1.00808 0
M  V30 4193 H 391.462 0.0005954 -3.243 0
M  V30 4194 H 391.247 -1.75412 -3.50675 0
M  V30 4195 H 392.737 -0.939085 -4.06904 0
M  V30 4196 N 393.175 1.03435 -1.18907 0
M  V30 4197 C 394.422 1.76743 -0.988334 0
M  V30 4198 C 394.75 1.88447 0.481441 0
M  V30 4199 O 394.005 1.39383 1.37371 0
M  V30 4200 C 394.304 3.19792 -1.59586 0
M  V30 4201 C 393.97 3.28108 -3.09283 0
M  V30 4202 C 392.632 3.30084 -3.5014 0
M  V30 4203 C 394.984 3.27696 -4.05296 0
M  V30 4204 C 392.312 3.29299 -4.85571 0
M  V30 4205 C 394.664 3.28451 -5.4065 0
M  V30 4206 C 393.328 3.28723 -5.80946 0
M  V30 4207 H 392.598 0.64675 -0.361657 0
M  V30 4208 H 395.245 1.21442 -1.48068 0
M  V30 4209 H 393.55 3.78136 -1.02568 0
M  V30 4210 H 395.247 3.75171 -1.41589 0
M  V30 4211 H 391.837 3.27294 -2.76725 0
M  V30 4212 H 396.021 3.25354 -3.74778 0
M  V30 4213 H 391.277 3.2783 -5.16079 0
M  V30 4214 H 395.451 3.27082 -6.14809 0
M  V30 4215 H 393.078 3.27868 -6.85862 0
M  V30 4216 N 394.653 0.992116 1.22453 0
M  V30 4217 C 395.899 0.668523 1.91464 0
M  V30 4218 C 396.232 -0.797313 1.77078 0
M  V30 4219 O 395.507 -1.5765 1.13916 0
M  V30 4220 C 395.79 1.07424 3.43703 0
M  V30 4221 C 395.643 2.59857 3.67143 0
M  V30 4222 C 396.962 0.626891 4.35612 0
M  V30 4223 H 394.081 0.244341 0.695318 0
M  V30 4224 H 396.723 1.2355 1.44345 0
M  V30 4225 H 394.873 0.591816 3.83966 0
M  V30 4226 H 396.545 3.15764 3.3629 0
M  V30 4227 H 394.788 3.01961 3.11451 0
M  V30 4228 H 395.459 2.83296 4.73759 0
M  V30 4229 H 397.935 1.04125 4.02861 0
M  V30 4230 H 396.811 0.939076 5.40807 0
M  V30 4231 H 397.072 -0.472457 4.39568 0
M  V30 4232 N 396.131 -1.37776 0.765217 0
M  V30 4233 C 397.379 -1.99454 0.325943 0
M  V30 4234 C 397.7 -1.61049 -1.09947 0
M  V30 4235 O 396.97 -0.872821 -1.75381 0
M  V30 4236 H 395.55 -0.737697 0.117525 0
M  V30 4237 H 398.212 -1.68359 0.981895 0
M  V30 4238 H 397.308 -3.09547 0.398353 0
M  V30 4239 N 397.609 -0.515225 -1.4894 0
M  V30 4240 C 398.519 0.259774 -2.33157 0
M  V30 4241 C 399.535 0.953501 -1.45548 0
M  V30 4242 O 400.711 0.931735 -1.78552 0
M  V30 4243 C 397.776 1.30193 -3.21326 0
M  V30 4244 C 396.837 0.620129 -4.24797 0
M  V30 4245 C 396.07 1.61263 -5.08753 0
M  V30 4246 O 396.293 2.84389 -4.94448 0
M  V30 4247 O 395.227 1.16013 -5.90614 0
M  V30 4248 H 399.053 -0.429932 -3.00641 0
M  V30 4249 H 396.638 -0.276346 -1.46822 0
M  V30 4250 H 398.52 1.90455 -3.75905 0
M  V30 4251 H 397.195 1.97431 -2.56521 0
M  V30 4252 H 396.102 -0.0226019 -3.74093 0
M  V30 4253 H 397.435 -0.0100493 -4.92199 0
M  V30 4254 N 399.087 1.5561 -0.249682 0
M  V30 4255 C 400.335 1.98618 0.373548 0
M  V30 4256 C 400.656 1.13919 1.58264 0
M  V30 4257 O 399.926 0.222637 1.94631 0
M  V30 4258 H 398.506 0.733571 0.141006 0
M  V30 4259 H 401.168 1.91748 -0.349117 0
M  V30 4260 H 400.264 3.04584 0.680796 0
M  V30 4261 N 400.565 -0.0233959 1.57583 0
M  V30 4262 C 401.814 -0.712133 1.8871 0
M  V30 4263 C 402.127 -1.76217 0.848944 0
M  V30 4264 O 403.333 -2.50389 1.04964 0
M  V30 4265 C 401.789 -1.3177 3.3491 0
M  V30 4266 C 401.397 -0.303715 4.46969 0
M  V30 4267 C 403.141 -1.98598 3.75179 0
M  V30 4268 C 401.048 -0.917945 5.84233 0
M  V30 4269 H 399.978 -0.269735 0.704101 0
M  V30 4270 H 402.629 0.0333114 1.8347 0
M  V30 4271 H 401.011 -2.11304 3.34913 0
M  V30 4272 H 402.185 0.465325 4.58445 0
M  V30 4273 H 400.5 0.2628 4.1557 0
M  V30 4274 H 403.097 -2.45416 4.75053 0
M  V30 4275 H 403.44 -2.80659 3.07468 0
M  V30 4276 H 403.973 -1.25831 3.77374 0
M  V30 4277 H 400.712 -0.136633 6.55358 0
M  V30 4278 H 400.232 -1.65669 5.76467 0
M  V30 4279 H 401.911 -1.4236 6.31144 0
M  V30 4280 O 402.082 -1.60643 -0.16613 0
M  V30 4281 H 402.773 -1.76304 -0.80228 0
M  V30 END ATOM
M  V30 BEGIN BOND
M  V30 END BOND
M  V30 END CTAB
M  END
$$$$
