drugbank_target|K7YNB3 Glutathione S-transferase omega class (DB12245)
 OpenBabel12092121193D

  0  0  0     0  0            999 V3000
M  V30 BEGIN CTAB
M  V30 COUNTS 3855 3904 0 0 0
M  V30 BEGIN ATOM
M  V30 1 H -0.908 1.98254 -0.117106 0
M  V30 2 N 0 1.576 0 0
M  V30 3 C 0.933 2.03868 1.02534 0
M  V30 4 C 1.911 0.928543 1.3348 0
M  V30 5 O 3.095 1.19667 1.45644 0
M  V30 6 C 0.222 2.43627 2.35294 0
M  V30 7 C -0.732 3.65373 2.2001 0
M  V30 8 S 0.101 5.13292 1.52614 0
M  V30 9 C 1.257 5.56322 2.86805 0
M  V30 10 H 1.49 2.90518 0.631377 0
M  V30 11 H -0.977 1.52953 0.210867 0
M  V30 12 H 0.981 2.67203 3.11629 0
M  V30 13 H -0.358 1.57376 2.7183 0
M  V30 14 H -1.165 3.90944 3.18086 0
M  V30 15 H -1.563 3.418 1.51819 0
M  V30 16 H 0.729 5.58782 3.83104 0
M  V30 17 H 1.672 6.56266 2.65933 0
M  V30 18 H 2.08 4.83886 2.90714 0
M  V30 19 N 1.4781 -0.272755 1.55222 0
M  V30 20 C 2.4281 -1.33946 1.84506 0
M  V30 21 C 3.4121 -1.44682 0.70399 0
M  V30 22 O 4.6041 -1.48358 0.965338 0
M  V30 23 C 1.7331 -2.69968 2.12067 0
M  V30 24 C 0.8191 -2.63341 3.32434 0
M  V30 25 N 1.2101 -2.26335 4.52334 0
M  V30 26 C -0.4919 -2.94402 3.35028 0
M  V30 27 C 0.2091 -2.29705 5.34425 0
M  V30 28 N -0.8149 -2.68188 4.72838 0
M  V30 29 H 2.9871 -1.04343 2.74754 0
M  V30 30 H 0.5011 -0.481389 1.55101 0
M  V30 31 H 2.4981 -3.46916 2.31202 0
M  V30 32 H 1.1581 -3.00459 1.23103 0
M  V30 33 H 2.1691 -1.98309 4.78429 0
M  V30 34 H -1.1539 -3.29603 2.56257 0
M  V30 35 H 0.2361 -2.03653 6.40293 0
M  V30 36 N 2.9562 -1.48159 -0.537278 0
M  V30 37 C 3.8862 -1.65029 -1.6519 0
M  V30 38 C 4.8672 -0.499281 -1.62607 0
M  V30 39 O 6.0522 -0.730972 -1.79918 0
M  V30 40 C 3.1822 -1.68303 -3.03795 0
M  V30 41 C 2.1362 -2.8283 -3.21234 0
M  V30 42 C 1.4622 -2.71189 -4.60826 0
M  V30 43 C 2.7622 -4.24211 -3.04701 0
M  V30 44 H 4.4562 -2.58341 -1.51328 0
M  V30 45 H 2.0022 -1.24325 -0.726585 0
M  V30 46 H 3.9552 -1.78693 -3.81637 0
M  V30 47 H 2.6792 -0.715635 -3.18663 0
M  V30 48 H 1.3382 -2.71983 -2.45807 0
M  V30 49 H 0.9862 -1.72435 -4.7252 0
M  V30 50 H 0.6862 -3.48035 -4.7344 0
M  V30 51 H 2.2102 -2.83537 -5.40777 0
M  V30 52 H 3.6242 -4.3593 -3.72341 0
M  V30 53 H 2.0212 -5.01998 -3.28813 0
M  V30 54 H 3.0912 -4.41184 -2.01209 0
M  V30 55 N 4.4343 0.785586 -1.36625 0
M  V30 56 C 5.3813 1.89838 -1.31264 0
M  V30 57 C 6.3513 1.65115 -0.180633 0
M  V30 58 O 7.5363 1.87222 -0.36777 0
M  V30 59 C 4.6763 3.26706 -1.11163 0
M  V30 60 C 3.7893 3.63476 -2.33472 0
M  V30 61 C 2.9243 4.89481 -2.06353 0
M  V30 62 C 1.9633 5.18941 -3.24602 0
M  V30 63 N 1.1003 6.36131 -2.97123 0
M  V30 64 H 5.9403 1.93756 -2.26413 0
M  V30 65 H 3.4773 0.947454 -1.12524 0
M  V30 66 H 5.4353 4.05639 -0.975337 0
M  V30 67 H 4.0653 3.222 -0.196674 0
M  V30 68 H 3.1173 2.79636 -2.57891 0
M  V30 69 H 4.4293 3.81193 -3.21704 0
M  V30 70 H 3.5833 5.76288 -1.89675 0
M  V30 71 H 2.3223 4.73841 -1.15437 0
M  V30 72 H 1.3273 4.30615 -3.41834 0
M  V30 73 H 2.5523 5.36498 -4.16349 0
M  V30 74 H 0.4983 6.21875 -2.08823 0
M  V30 75 H 0.4153 6.54198 -3.78894 0
M  V30 76 H 1.6833 7.2591 -2.84033 0
M  V30 77 N 5.9124 1.20967 1.01018 0
M  V30 78 C 6.8604 0.961223 2.1181 0
M  V30 79 C 7.8544 -0.0897034 1.69162 0
M  V30 80 O 9.0604 0.0612271 1.79896 0
M  V30 81 H 5.4354 0.29355 0.692338 0
M  V30 82 H 7.4064 1.90178 2.29946 0
M  V30 83 C 6.1554 0.536854 3.4353 0
M  V30 84 H 5.4784 1.33713 3.76777 0
M  V30 85 H 6.9184 0.402286 4.22087 0
M  V30 86 C 5.3774 -0.751574 3.2841 0
M  V30 87 O 5.9074 -1.80841 3.58691 0
M  V30 88 N 4.1134 -0.716079 2.81639 0
M  V30 89 H 3.6604 0.144236 2.57196 0
M  V30 90 H 3.6184 -1.57847 2.71904 0
M  V30 91 N 7.3905 -1.2043 1.01659 0
M  V30 92 C 8.6385 -1.89423 0.704522 0
M  V30 93 C 8.9595 -1.79231 -0.768197 0
M  V30 94 O 8.2295 -1.1947 -1.55254 0
M  V30 95 H 6.8095 -0.701178 0.257602 0
M  V30 96 H 9.4715 -1.4626 1.28818 0
M  V30 97 H 8.5675 -2.96052 0.987916 0
M  V30 98 N 8.8686 -0.792821 -1.36206 0
M  V30 99 C 10.1456 -0.290627 -1.93429 0
M  V30 100 C 10.5256 1.21773 -1.72437 0
M  V30 101 O 9.8736 2.0108 -1.08531 0
M  V30 102 C 10.0836 -0.686973 -3.42172 0
M  V30 103 C 11.4316 -0.668643 -4.19302 0
M  V30 104 O 12.4556 -0.627658 -3.50626 0
M  V30 105 O 11.3146 -0.714597 -5.41808 0
M  V30 106 H 8.4086 -0.0727927 -0.82379 0
M  V30 107 H 10.9546 -0.875593 -1.45367 0
M  V30 108 H 9.7266 -1.72711 -3.51122 0
M  V30 109 H 9.3496 -0.0760733 -3.97527 0
M  V30 110 N 10.3467 1.47872 -0.545128 0
M  V30 111 C 11.7577 1.86384 -0.108581 0
M  V30 112 C 12.1087 1.45309 1.31832 0
M  V30 113 O 11.2337 0.850641 1.9898 0
M  V30 114 C 11.8287 3.38265 -0.190274 0
M  V30 115 C 10.3877 3.75914 0.191164 0
M  V30 116 C 9.5347 2.71926 -0.543273 0
M  V30 117 H 12.4857 1.39561 -0.755537 0
M  V30 118 H 12.5067 3.75831 0.594217 0
M  V30 119 H 12.0187 3.6813 -1.2289 0
M  V30 120 H 10.1197 3.51665 1.23136 0
M  V30 121 H 10.2327 4.78836 -0.158987 0
M  V30 122 H 8.5967 2.54697 0.0122495 0
M  V30 123 H 9.3797 3.04634 -1.58282 0
M  V30 124 N 11.8248 0.280983 1.55075 0
M  V30 125 C 12.7718 -0.603937 2.22758 0
M  V30 126 C 13.7418 -1.1452 1.20309 0
M  V30 127 O 14.9268 -1.19343 1.48869 0
M  V30 128 C 12.0668 -1.77947 2.95684 0
M  V30 129 C 11.1798 -1.2715 4.12864 0
M  V30 130 C 10.3148 -2.4093 4.7342 0
M  V30 131 C 9.3538 -1.87165 5.82783 0
M  V30 132 N 8.4908 -2.94441 6.37377 0
M  V30 133 H 13.3308 -0.020124 2.97993 0
M  V30 134 H 10.8678 0.00183425 1.471 0
M  V30 135 H 12.8258 -2.47055 3.36184 0
M  V30 136 H 11.4558 -2.33522 2.22861 0
M  V30 137 H 10.5078 -0.473331 3.77444 0
M  V30 138 H 11.8198 -0.837751 4.91715 0
M  V30 139 H 10.9738 -3.18021 5.1667 0
M  V30 140 H 9.7128 -2.87623 3.93859 0
M  V30 141 H 8.7178 -1.08556 5.38976 0
M  V30 142 H 9.9428 -1.41401 6.64216 0
M  V30 143 H 7.8888 -3.40505 5.60707 0
M  V30 144 H 7.8058 -2.55501 7.11516 0
M  V30 145 H 9.0738 -3.71489 6.85285 0
M  V30 146 N 13.3029 -1.57598 0.00835791 0
M  V30 147 C 14.7139 -1.7892 -0.53333 0
M  V30 148 C 15.0649 -0.916609 -1.73473 0
M  V30 149 O 14.1899 -0.121336 -2.1606 0
M  V30 150 C 14.7849 -3.24488 -0.974313 0
M  V30 151 C 13.3439 -3.46878 -1.46125 0
M  V30 152 C 12.4909 -2.74157 -0.416302 0
M  V30 153 H 15.4419 -1.56958 0.234495 0
M  V30 154 H 15.4629 -3.3306 -1.83988 0
M  V30 155 H 14.9749 -3.87972 -0.099718 0
M  V30 156 H 13.0759 -2.8862 -2.35646 0
M  V30 157 H 13.1889 -4.55572 -1.48295 0
M  V30 158 H 11.5529 -2.39022 -0.87981 0
M  V30 159 H 12.3359 -3.40345 0.44947 0
M  V30 160 N 14.781 0.264519 -1.55364 0
M  V30 161 C 16.009 1.013 -1.80405 0
M  V30 162 C 16.424 1.79618 -0.581622 0
M  V30 163 O 15.781 1.76879 0.449468 0
M  V30 164 C 15.832 1.96487 -3.03439 0
M  V30 165 O 15.553 1.21341 -4.20961 0
M  V30 166 C 17.054 2.83079 -3.41147 0
M  V30 167 H 14.274 0.298875 -0.600762 0
M  V30 168 H 16.818 0.292736 -2.02394 0
M  V30 169 H 14.973 2.63965 -2.83551 0
M  V30 170 H 15.387 1.85573 -4.90574 0
M  V30 171 H 16.861 3.4565 -4.30384 0
M  V30 172 H 17.338 3.53286 -2.60932 0
M  V30 173 H 17.944 2.2108 -3.63323 0
M  V30 174 N 16.2591 1.48442 0.529413 0
M  V30 175 C 17.5081 1.55742 1.28169 0
M  V30 176 C 17.8211 0.236511 1.94165 0
M  V30 177 O 19.0271 0.187761 2.7085 0
M  V30 178 C 17.4831 2.74667 2.32564 0
M  V30 179 C 17.0911 4.13402 1.72636 0
M  V30 180 C 18.8351 2.9128 3.08798 0
M  V30 181 C 16.7421 5.23587 2.74975 0
M  V30 182 H 15.6721 0.579796 0.48203 0
M  V30 183 H 18.3231 1.74776 0.559056 0
M  V30 184 H 16.7051 2.49067 3.07866 0
M  V30 185 H 17.8791 4.49022 1.03519 0
M  V30 186 H 16.1941 4.0191 1.08892 0
M  V30 187 H 18.7911 3.70767 3.85274 0
M  V30 188 H 19.1341 2.00757 3.64695 0
M  V30 189 H 19.6671 3.16782 2.40611 0
M  V30 190 H 16.4061 6.16076 2.23897 0
M  V30 191 H 15.9261 4.92454 3.42417 0
M  V30 192 H 17.6051 5.51724 3.37949 0
M  V30 193 N 17.7372 -0.778329 1.37039 0
M  V30 194 C 18.6842 -1.89139 1.32269 0
M  V30 195 C 19.6542 -1.65017 0.189387 0
M  V30 196 O 20.8392 -1.87024 0.377693 0
M  V30 197 C 17.9792 -3.26112 1.12894 0
M  V30 198 C 17.0922 -3.62233 2.35396 0
M  V30 199 C 16.2272 -4.8838 2.08946 0
M  V30 200 C 15.2662 -5.17212 3.2735 0
M  V30 201 N 14.4032 -6.34546 3.00492 0
M  V30 202 H 19.2432 -1.92552 2.27437 0
M  V30 203 H 16.7802 -0.941473 1.13025 0
M  V30 204 H 18.7382 -4.05116 0.996835 0
M  V30 205 H 17.3682 -3.22091 0.213758 0
M  V30 206 H 16.4202 -2.78265 2.5937 0
M  V30 207 H 17.7322 -3.79481 3.23721 0
M  V30 208 H 16.8862 -5.75274 1.92729 0
M  V30 209 H 15.6252 -4.73222 1.17949 0
M  V30 210 H 14.6302 -4.28796 3.44113 0
M  V30 211 H 15.8552 -5.34283 4.19188 0
M  V30 212 H 13.8012 -6.20759 2.12118 0
M  V30 213 H 13.7182 -6.52179 3.82358 0
M  V30 214 H 14.9862 -7.24394 2.87879 0
M  V30 215 N 19.2153 -1.21501 -1.00376 0
M  V30 216 C 20.6263 -1.03146 -1.55621 0
M  V30 217 C 20.9773 0.408375 -1.91903 0
M  V30 218 O 20.1023 1.29177 -1.73616 0
M  V30 219 C 20.6973 -1.86612 -2.82775 0
M  V30 220 C 19.2563 -1.72586 -3.34501 0
M  V30 221 C 18.4033 -1.83747 -2.07683 0
M  V30 222 H 21.3543 -1.35505 -0.826081 0
M  V30 223 H 21.3753 -1.3771 -3.54706 0
M  V30 224 H 20.8873 -2.91399 -2.56336 0
M  V30 225 H 18.9883 -0.704877 -3.65872 0
M  V30 226 H 19.1013 -2.54623 -4.05837 0
M  V30 227 H 17.4653 -1.27069 -2.20739 0
M  V30 228 H 18.2483 -2.90044 -1.83655 0
M  V30 229 N 20.6934 1.19889 -1.02296 0
M  V30 230 C 21.6414 2.24938 -0.592081 0
M  V30 231 C 22.6354 1.65257 0.372357 0
M  V30 232 O 23.8414 1.78371 0.241583 0
M  V30 233 H 20.2164 0.731787 -0.173182 0
M  V30 234 H 22.1874 2.58603 -1.48885 0
M  V30 235 C 20.9364 3.47668 0.047351 0
M  V30 236 H 20.2594 3.93875 -0.685772 0
M  V30 237 H 21.6994 4.22852 0.311862 0
M  V30 238 C 20.1584 3.11136 1.29212 0
M  V30 239 O 20.6884 3.2325 2.38479 0
M  V30 240 N 18.8944 2.65625 1.17863 0
M  V30 241 H 18.4414 2.55968 0.289493 0
M  V30 242 H 18.3994 2.41553 2.01245 0
M  V30 243 N 22.1715 0.800033 1.35784 0
M  V30 244 C 23.1035 0.163596 2.28615 0
M  V30 245 C 24.1165 -0.633317 1.49976 0
M  V30 246 O 25.3055 -0.466754 1.72289 0
M  V30 247 C 22.4055 -0.790958 3.29541 0
M  V30 248 C 21.5785 -0.0418255 4.3738 0
M  V30 249 C 20.6375 -0.91389 5.18203 0
M  V30 250 O 19.6635 -0.367234 5.68014 0
M  V30 251 N 20.8655 -2.23682 5.35674 0
M  V30 252 H 23.6305 0.96105 2.83873 0
M  V30 253 H 21.1915 0.654894 1.48063 0
M  V30 254 H 23.1835 -1.37844 3.80501 0
M  V30 255 H 21.7535 -1.48925 2.74846 0
M  V30 256 H 20.9735 0.726813 3.87442 0
M  V30 257 H 22.2615 0.474719 5.06581 0
M  V30 258 H 21.6595 -2.70497 4.96838 0
M  V30 259 H 20.2165 -2.77369 5.89839 0
M  V30 260 N 23.6496 -1.47581 0.552962 0
M  V30 261 C 24.8896 -2.04379 0.0296245 0
M  V30 262 C 25.2536 -1.4185 -1.29393 0
M  V30 263 O 26.4546 -1.89669 -1.90471 0
M  V30 264 C 24.7256 -3.57339 -0.0661371 0
M  V30 265 S 26.2846 -4.35511 -0.536213 0
M  V30 266 H 23.1026 -0.710625 0.0230991 0
M  V30 267 H 25.7046 -1.81005 0.738734 0
M  V30 268 H 24.4086 -4.00374 0.901596 0
M  V30 269 H 23.9396 -3.85202 -0.798931 0
M  V30 270 H 25.9546 -4.6253 -1.79668 0
M  V30 271 N 25.1277 -0.289203 -1.54924 0
M  V30 272 C 26.3557 0.326463 -2.04308 0
M  V30 273 C 26.7707 1.48413 -1.16701 0
M  V30 274 O 26.1277 1.81507 -0.190087 0
M  V30 275 C 26.1787 0.794014 -3.52672 0
M  V30 276 O 25.8997 -0.317564 -4.36948 0
M  V30 277 C 27.4007 1.47605 -4.18004 0
M  V30 278 H 24.6207 0.0726272 -0.667058 0
M  V30 279 H 27.1647 -0.425401 -2.00026 0
M  V30 280 H 25.3197 1.49593 -3.57352 0
M  V30 281 H 25.7337 0.0443186 -5.24481 0
M  V30 282 H 27.2077 1.75447 -5.23376 0
M  V30 283 H 27.6847 2.41224 -3.67025 0
M  V30 284 H 28.2907 0.81762 -4.17367 0
M  V30 285 N 26.6058 1.57591 -0.0167156 0
M  V30 286 C 27.5358 2.12496 0.967858 0
M  V30 287 C 28.5168 1.03807 1.34752 0
M  V30 288 O 29.7018 1.31577 1.42833 0
M  V30 289 C 26.8318 2.64194 2.25431 0
M  V30 290 C 25.7858 3.77559 2.01576 0
M  V30 291 C 25.1118 4.15636 3.36379 0
M  V30 292 C 26.4118 5.04151 1.36489 0
M  V30 293 H 28.1058 2.95013 0.510643 0
M  V30 294 H 25.6518 1.41915 0.244181 0
M  V30 295 H 27.6048 3.01236 2.94678 0
M  V30 296 H 26.3288 1.78821 2.73296 0
M  V30 297 H 24.9878 3.40937 1.34751 0
M  V30 298 H 24.6358 3.27263 3.81979 0
M  V30 299 H 24.3358 4.92022 3.21229 0
M  V30 300 H 25.8598 4.5525 4.06915 0
M  V30 301 H 27.2738 5.38857 1.95718 0
M  V30 302 H 25.6708 5.85453 1.31776 0
M  V30 303 H 26.7408 4.83733 0.336219 0
M  V30 304 N 28.0839 -0.256276 1.55502 0
M  V30 305 C 29.3309 -0.985619 1.76895 0
M  V30 306 C 29.6589 -1.85671 0.579355 0
M  V30 307 O 28.9139 -1.90744 -0.437651 0
M  V30 308 C 29.2129 -1.88432 3.03691 0
M  V30 309 C 28.8789 -1.16936 4.35473 0
M  V30 310 C 27.5409 -0.97173 4.71286 0
M  V30 311 C 29.8929 -0.661889 5.1698 0
M  V30 312 C 27.2209 -0.254179 5.86149 0
M  V30 313 C 29.5729 0.042149 6.32586 0
M  V30 314 C 28.2369 0.25134 6.67027 0
M  V30 315 H 27.5069 -0.360663 0.647304 0
M  V30 316 H 30.1539 -0.256483 1.89775 0
M  V30 317 H 28.4589 -2.68021 2.85783 0
M  V30 318 H 30.1559 -2.45015 3.1744 0
M  V30 319 H 26.7459 -1.33332 4.07333 0
M  V30 320 H 30.9299 -0.802145 4.89775 0
M  V30 321 H 26.1859 -0.0815408 6.11346 0
M  V30 322 H 30.3599 0.443049 6.94989 0
M  V30 323 H 27.9869 0.809314 7.5588 0
M  V30 324 N 29.562 -1.4872 -0.521534 0
M  V30 325 C 30.81 -1.56857 -1.27437 0
M  V30 326 C 31.131 -0.247982 -1.93417 0
M  V30 327 O 30.401 0.731151 -1.81744 0
M  V30 328 H 28.981 -0.577885 -0.473347 0
M  V30 329 H 31.643 -1.85233 -0.606205 0
M  V30 330 H 30.739 -2.35402 -2.0492 0
M  V30 331 N 31.0401 0.771051 -1.3745 0
M  V30 332 C 32.2871 1.52963 -1.32697 0
M  V30 333 C 32.6151 1.94299 0.0883274 0
M  V30 334 O 31.8701 1.64397 1.0617 0
M  V30 335 C 32.1691 2.80676 -2.2126 0
M  V30 336 C 31.8351 2.58389 -3.69521 0
M  V30 337 C 30.4971 2.52019 -4.09927 0
M  V30 338 C 32.8491 2.38469 -4.63446 0
M  V30 339 C 30.1771 2.23721 -5.42371 0
M  V30 340 C 32.5291 2.11694 -5.96128 0
M  V30 341 C 31.1931 2.03769 -6.35637 0
M  V30 342 H 30.4631 0.559732 -0.485573 0
M  V30 343 H 33.1101 0.888083 -1.69662 0
M  V30 344 H 31.4151 3.49392 -1.77291 0
M  V30 345 H 33.1121 3.38557 -2.14895 0
M  V30 346 H 29.7021 2.6421 -3.37478 0
M  V30 347 H 33.8861 2.4238 -4.33089 0
M  V30 348 H 29.1421 2.16081 -5.71943 0
M  V30 349 H 33.3161 1.9528 -6.6846 0
M  V30 350 H 30.9431 1.81606 -7.38189 0
M  V30 351 N 32.5182 1.22032 0.997298 0
M  V30 352 C 33.9342 0.979326 1.26021 0
M  V30 353 C 34.1342 -0.32972 1.98784 0
M  V30 354 O 33.1902 -1.05345 2.29475 0
M  V30 355 C 34.5032 2.17509 2.07631 0
M  V30 356 C 36.0512 2.21817 2.2083 0
M  V30 357 C 36.5262 3.40933 3.05825 0
M  V30 358 N 38.0172 3.41067 3.13412 0
M  V30 359 C 38.7522 4.29885 3.79455 0
M  V30 360 N 38.2482 5.28914 4.47462 0
M  V30 361 N 40.0412 4.17673 3.76173 0
M  V30 362 H 32.1922 2.06202 0.509352 0
M  V30 363 H 34.4552 0.90334 0.287541 0
M  V30 364 H 34.1612 3.12415 1.61524 0
M  V30 365 H 34.0352 2.17206 3.08385 0
M  V30 366 H 36.4222 1.27462 2.66153 0
M  V30 367 H 36.5032 2.2616 1.1952 0
M  V30 368 H 36.1472 4.35586 2.61203 0
M  V30 369 H 36.0772 3.33829 4.07266 0
M  V30 370 H 38.5682 2.69406 2.65007 0
M  V30 371 H 38.8812 5.92973 4.95583 0
M  V30 372 H 37.2262 5.32831 4.46224 0
M  V30 373 H 40.4172 3.39564 3.22202 0
M  V30 374 H 40.5902 4.87098 4.27363 0
M  V30 375 N 33.9963 -1.19345 1.0293 0
M  V30 376 C 35.2433 -1.89038 0.726008 0
M  V30 377 C 35.5713 -1.79649 -0.745427 0
M  V30 378 O 34.8263 -1.18354 -1.55855 0
M  V30 379 C 35.1253 -3.39292 1.12319 0
M  V30 380 C 34.7913 -3.68885 2.59297 0
M  V30 381 C 33.4533 -3.76671 2.99453 0
M  V30 382 C 35.8053 -3.82178 3.54386 0
M  V30 383 C 33.1333 -3.9522 4.33611 0
M  V30 384 C 35.4853 -4.0224 4.88248 0
M  V30 385 C 34.1493 -4.08259 5.28092 0
M  V30 386 H 33.4193 -0.691739 0.265665 0
M  V30 387 H 36.0663 -1.41328 1.29223 0
M  V30 388 H 34.3713 -3.88903 0.475584 0
M  V30 389 H 36.0683 -3.91536 0.866037 0
M  V30 390 H 32.6583 -3.63433 2.27189 0
M  V30 391 H 36.8423 -3.75505 3.24514 0
M  V30 392 H 32.0983 -3.98119 4.64016 0
M  V30 393 H 36.2723 -4.11468 5.61843 0
M  V30 394 H 33.8993 -4.22384 6.32057 0
M  V30 395 N 35.4744 -0.807222 -1.35358 0
M  V30 396 C 36.7144 -0.393534 -2.00576 0
M  V30 397 C 37.0784 1.0203 -1.62647 0
M  V30 398 O 38.2794 1.53603 -2.20589 0
M  V30 399 C 36.5504 -0.572017 -3.52793 0
M  V30 400 S 38.1094 -0.248845 -4.38094 0
M  V30 401 H 34.9274 -0.149425 -0.695121 0
M  V30 402 H 37.5294 -1.04961 -1.64935 0
M  V30 403 H 36.2334 -1.60097 -3.77885 0
M  V30 404 H 35.7644 0.099359 -3.93275 0
M  V30 405 H 37.7794 0.943253 -4.87152 0
M  V30 406 N 36.9525 1.47285 -0.560781 0
M  V30 407 C 38.3635 1.86258 -0.128343 0
M  V30 408 C 38.7145 1.46699 1.30284 0
M  V30 409 O 37.8395 0.871698 1.98067 0
M  V30 410 C 38.4345 3.38044 -0.22614 0
M  V30 411 C 36.9935 3.76096 0.151283 0
M  V30 412 C 36.1405 2.71335 -0.572084 0
M  V30 413 H 39.0915 1.38752 -0.770297 0
M  V30 414 H 39.1125 3.76441 0.554322 0
M  V30 415 H 38.6245 3.66806 -1.26788 0
M  V30 416 H 36.7255 3.52951 1.19399 0
M  V30 417 H 36.8385 4.78641 -0.209765 0
M  V30 418 H 35.2025 2.54696 -0.0147653 0
M  V30 419 H 35.9855 3.02938 -1.61504 0
M  V30 420 N 38.4306 0.297415 1.54768 0
M  V30 421 C 39.6606 -0.315165 2.04182 0
M  V30 422 C 40.0686 -1.4834 1.17439 0
M  V30 423 O 39.4116 -1.82695 0.191891 0
M  V30 424 C 39.4736 -0.837583 3.49607 0
M  V30 425 C 39.1376 0.204912 4.5654 0
M  V30 426 C 40.1346 1.03214 5.09552 0
M  V30 427 C 37.8196 0.345578 5.0111 0
M  V30 428 C 39.8136 1.986 6.05671 0
M  V30 429 C 37.5006 1.30289 5.97049 0
M  V30 430 C 38.4986 2.12159 6.49213 0
M  V30 431 O 38.1866 3.06268 7.43273 0
M  V30 432 H 37.9186 -0.0729646 0.672051 0
M  V30 433 H 40.4726 0.433907 2.00765 0
M  V30 434 H 38.7026 -1.63712 3.50336 0
M  V30 435 H 40.3916 -1.36566 3.82236 0
M  V30 436 H 41.1576 0.934312 4.75916 0
M  V30 437 H 37.0366 -0.28171 4.60138 0
M  V30 438 H 40.5806 2.62542 6.46311 0
M  V30 439 H 36.4776 1.40145 6.30103 0
M  V30 440 H 37.2456 3.01205 7.61064 0
M  V30 441 N 39.9087 -1.5758 0.0250728 0
M  V30 442 C 41.1547 -1.91917 -0.655413 0
M  V30 443 C 41.4877 -0.901433 -1.72011 0
M  V30 444 O 40.7627 0.0764069 -1.9435 0
M  V30 445 C 41.0457 -3.36751 -1.27558 0
M  V30 446 C 40.8987 -4.49258 -0.220719 0
M  V30 447 C 42.2177 -3.81469 -2.19475 0
M  V30 448 H 39.3367 -0.697925 -0.23679 0
M  V30 449 H 41.9787 -1.89825 0.0815036 0
M  V30 450 H 40.1287 -3.38664 -1.90365 0
M  V30 451 H 41.8007 -4.59478 0.409601 0
M  V30 452 H 40.0437 -4.31415 0.454264 0
M  V30 453 H 40.7147 -5.47618 -0.694175 0
M  V30 454 H 43.1907 -3.81266 -1.66659 0
M  V30 455 H 42.0667 -4.83512 -2.59822 0
M  V30 456 H 42.3277 -3.16744 -3.08424 0
M  V30 457 N 41.3868 0.248026 -1.55636 0
M  V30 458 C 42.6638 0.998988 -1.68165 0
M  V30 459 C 43.0438 2.03409 -0.564621 0
M  V30 460 O 42.3918 2.24378 0.432076 0
M  V30 461 C 42.6018 1.63334 -3.0842 0
M  V30 462 C 43.9498 2.13562 -3.66983 0
M  V30 463 O 44.9738 1.73277 -3.11213 0
M  V30 464 O 43.8328 2.87526 -4.64749 0
M  V30 465 H 40.9268 0.464933 -0.683935 0
M  V30 466 H 43.4728 0.241902 -1.67967 0
M  V30 467 H 42.2448 0.884583 -3.8117 0
M  V30 468 H 41.8678 2.45666 -3.12624 0
M  V30 469 N 42.8649 1.48995 0.513639 0
M  V30 470 C 44.2809 1.35478 0.843682 0
M  V30 471 C 44.4809 0.378213 1.97919 0
M  V30 472 O 43.5369 -0.194689 2.51748 0
M  V30 473 C 44.8499 2.75901 1.1958 0
M  V30 474 C 46.3979 2.84509 1.30474 0
M  V30 475 C 46.8729 4.25671 1.69021 0
M  V30 476 N 48.3639 4.28422 1.76094 0
M  V30 477 C 49.0989 5.34601 2.07338 0
M  V30 478 N 48.5949 6.5104 2.36894 0
M  V30 479 N 50.3879 5.22007 2.08483 0
M  V30 480 H 42.5389 2.11092 -0.235328 0
M  V30 481 H 44.8019 0.947039 -0.0426669 0
M  V30 482 H 44.5079 3.49001 0.434913 0
M  V30 483 H 44.3819 3.10467 2.1422 0
M  V30 484 H 46.7689 2.11655 2.05637 0
M  V30 485 H 46.8499 2.53542 0.339155 0
M  V30 486 H 46.4939 4.99048 0.944135 0
M  V30 487 H 46.4239 4.54094 2.66658 0
M  V30 488 H 48.9149 3.44441 1.55464 0
M  V30 489 H 49.2279 7.2779 2.59887 0
M  V30 490 H 47.5729 6.54287 2.34378 0
M  V30 491 H 50.7639 4.30051 1.84861 0
M  V30 492 H 50.9369 6.04854 2.325 0
M  V30 493 N 44.343 -0.763751 1.37857 0
M  V30 494 C 45.589 -1.52483 1.33704 0
M  V30 495 C 45.922 -1.94051 -0.0759612 0
M  V30 496 O 45.197 -1.64675 -1.03501 0
M  V30 497 C 45.48 -2.78441 2.28348 0
M  V30 498 C 45.333 -2.43075 3.78463 0
M  V30 499 C 46.652 -3.80415 2.21298 0
M  V30 500 H 43.771 -0.553169 0.487005 0
M  V30 501 H 46.413 -0.875562 1.68624 0
M  V30 502 H 44.563 -3.33842 1.987 0
M  V30 503 H 46.235 -1.93527 4.18742 0
M  V30 504 H 44.478 -1.75666 3.96641 0
M  V30 505 H 45.149 -3.33149 4.40132 0
M  V30 506 H 47.625 -3.34527 2.47449 0
M  V30 507 H 46.501 -4.66257 2.89647 0
M  V30 508 H 46.762 -4.25262 1.20849 0
M  V30 509 N 45.8211 -1.22559 -0.990812 0
M  V30 510 C 47.2371 -0.985996 -1.255 0
M  V30 511 C 47.4371 0.319173 -1.98956 0
M  V30 512 O 46.4931 1.04127 -2.3003 0
M  V30 513 C 47.8061 -2.18607 -2.06474 0
M  V30 514 C 49.3541 -2.22985 -2.19651 0
M  V30 515 C 49.8291 -3.4255 -3.04012 0
M  V30 516 N 51.3201 -3.42725 -3.11599 0
M  V30 517 C 52.0551 -4.31892 -3.7717 0
M  V30 518 N 51.5511 -5.31279 -4.44651 0
M  V30 519 N 53.3441 -4.19662 -3.73952 0
M  V30 520 H 45.4951 -2.06469 -0.49841 0
M  V30 521 H 47.7581 -0.904853 -0.282747 0
M  V30 522 H 47.4641 -3.13267 -1.59865 0
M  V30 523 H 47.3381 -2.18838 -3.07229 0
M  V30 524 H 49.7251 -1.28871 -2.65474 0
M  V30 525 H 49.8061 -2.26791 -1.18319 0
M  V30 526 H 49.4501 -4.36965 -2.58889 0
M  V30 527 H 49.3801 -3.35984 -4.0549 0
M  V30 528 H 51.8711 -2.70807 -2.63575 0
M  V30 529 H 52.1841 -5.95593 -4.92431 0
M  V30 530 H 50.5291 -5.3519 -4.43392 0
M  V30 531 H 53.7201 -3.41268 -3.20396 0
M  V30 532 H 53.8931 -4.89358 -4.24774 0
M  V30 533 N 47.2992 1.18797 -1.03562 0
M  V30 534 C 48.2322 2.2105 -0.56676 0
M  V30 535 C 49.2102 1.57704 0.395993 0
M  V30 536 O 50.3942 1.85908 0.311498 0
M  V30 537 C 47.5212 3.38259 0.172704 0
M  V30 538 C 46.5672 4.19987 -0.74252 0
M  V30 539 S 47.4002 4.87199 -2.22254 0
M  V30 540 C 48.5562 6.07813 -1.49379 0
M  V30 541 H 48.7892 2.60478 -1.43312 0
M  V30 542 H 46.3222 1.29151 -0.846133 0
M  V30 543 H 48.2802 4.06191 0.593191 0
M  V30 544 H 46.9412 2.97252 1.01488 0
M  V30 545 H 46.1342 5.03709 -0.171265 0
M  V30 546 H 45.7362 3.57408 -1.10163 0
M  V30 547 H 48.0282 6.72948 -0.784056 0
M  V30 548 H 48.9712 6.69435 -2.30786 0
M  V30 549 H 49.3792 5.55781 -0.988331 0
M  V30 550 N 48.7773 0.814389 1.34928 0
M  V30 551 C 50.0233 0.399013 1.98836 0
M  V30 552 C 50.3563 -1.03314 1.64438 0
M  V30 553 O 49.6313 -1.71811 0.911659 0
M  V30 554 C 49.9143 0.591629 3.55207 0
M  V30 555 C 49.7673 2.06928 3.99376 0
M  V30 556 C 51.0863 0.022199 4.40094 0
M  V30 557 H 48.2053 0.146451 0.722303 0
M  V30 558 H 50.8473 1.02537 1.59957 0
M  V30 559 H 48.9973 0.0584441 3.88456 0
M  V30 560 H 50.6693 2.66544 3.76499 0
M  V30 561 H 48.9123 2.56287 3.49999 0
M  V30 562 H 49.5833 2.1549 5.08201 0
M  V30 563 H 52.0593 0.477643 4.13349 0
M  V30 564 H 50.9353 0.186832 5.48582 0
M  V30 565 H 51.1963 -1.07215 4.28902 0
M  V30 566 N 50.2554 -1.46986 0.568584 0
M  V30 567 C 51.1854 -2.32946 -0.160753 0
M  V30 568 C 52.1664 -1.44487 -0.897631 0
M  V30 569 O 53.3514 -1.73327 -0.875867 0
M  V30 570 C 50.4814 -3.26494 -1.18403 0
M  V30 571 C 49.4354 -4.24282 -0.562895 0
M  V30 572 C 48.7614 -5.07236 -1.69163 0
M  V30 573 C 50.0614 -5.19989 0.490761 0
M  V30 574 H 51.7554 -2.94175 0.556916 0
M  V30 575 H 49.3014 -1.4146 0.26927 0
M  V30 576 H 51.2544 -3.85477 -1.70251 0
M  V30 577 H 49.9784 -2.63343 -1.93179 0
M  V30 578 H 48.6374 -3.66541 -0.0656164 0
M  V30 579 H 48.2854 -4.4048 -2.42871 0
M  V30 580 H 47.9854 -5.7345 -1.28174 0
M  V30 581 H 49.5094 -5.6908 -2.21314 0
M  V30 582 H 50.9234 -5.73271 0.0579047 0
M  V30 583 H 49.3204 -5.94469 0.820165 0
M  V30 584 H 50.3904 -4.64777 1.3824 0
M  V30 585 N 51.7335 -0.305618 -1.54608 0
M  V30 586 C 52.6655 0.602161 -2.21149 0
M  V30 587 C 53.6785 1.09394 -1.20569 0
M  V30 588 O 54.8675 1.0106 -1.47136 0
M  V30 589 C 51.9675 1.83692 -2.84799 0
M  V30 590 C 51.1405 1.48686 -4.11353 0
M  V30 591 C 50.1995 2.57725 -4.58764 0
M  V30 592 O 49.2255 2.22623 -5.23858 0
M  V30 593 N 50.4275 3.88346 -4.31471 0
M  V30 594 H 53.1925 0.0324966 -2.99682 0
M  V30 595 H 50.7535 -0.128021 -1.61393 0
M  V30 596 H 52.7455 2.55994 -3.13448 0
M  V30 597 H 51.3155 2.31486 -2.10078 0
M  V30 598 H 50.5355 0.596269 -3.89664 0
M  V30 599 H 51.8235 1.22842 -4.93748 0
M  V30 600 H 51.2215 4.19671 -3.79331 0
M  V30 601 H 49.7785 4.56932 -4.64818 0
M  V30 602 N 53.2116 1.57565 -0.0334293 0
M  V30 603 C 54.4416 1.95996 0.653398 0
M  V30 604 C 54.8496 0.908749 1.65947 0
M  V30 605 O 54.1926 -0.117471 1.83324 0
M  V30 606 C 54.2546 3.30589 1.41249 0
M  V30 607 C 53.9186 4.53503 0.564263 0
M  V30 608 C 54.9156 5.19647 -0.16225 0
M  V30 609 C 52.6006 4.99801 0.500398 0
M  V30 610 C 54.5946 6.30412 -0.941255 0
M  V30 611 C 52.2816 6.10448 -0.282308 0
M  V30 612 C 53.2796 6.75612 -1.00184 0
M  V30 613 O 52.9676 7.84134 -1.77171 0
M  V30 614 H 52.6996 0.65027 0.184728 0
M  V30 615 H 55.2536 2.05199 -0.0907841 0
M  V30 616 H 53.4836 3.17888 2.20191 0
M  V30 617 H 55.1726 3.53892 1.98784 0
M  V30 618 H 55.9386 4.84846 -0.12227 0
M  V30 619 H 51.8176 4.48883 1.05002 0
M  V30 620 H 55.3616 6.81208 -1.50339 0
M  V30 621 H 51.2586 6.44686 -0.323989 0
M  V30 622 H 52.0266 8.00822 -1.69194 0
M  V30 623 N 54.6897 -0.239769 1.55765 0
M  V30 624 C 55.9197 -0.982743 1.8173 0
M  V30 625 C 56.3277 -1.7917 0.607835 0
M  V30 626 O 55.6707 -1.78525 -0.432973 0
M  V30 627 C 55.7327 -1.96332 3.01155 0
M  V30 628 C 55.3967 -1.34062 4.36894 0
M  V30 629 C 56.3937 -0.739539 5.14613 0
M  V30 630 C 54.0787 -1.35784 4.83599 0
M  V30 631 C 56.0727 -0.163989 6.37189 0
M  V30 632 C 53.7597 -0.778441 6.06122 0
M  V30 633 C 54.7577 -0.182548 6.82756 0
M  V30 634 O 54.4457 0.387887 8.02964 0
M  V30 635 H 54.1777 -0.294481 0.608487 0
M  V30 636 H 56.7317 -0.26572 2.03674 0
M  V30 637 H 54.9617 -2.71884 2.74984 0
M  V30 638 H 56.6507 -2.57032 3.14149 0
M  V30 639 H 57.4167 -0.718687 4.79646 0
M  V30 640 H 53.2957 -1.81105 4.23936 0
M  V30 641 H 56.8397 0.301753 6.96947 0
M  V30 642 H 52.7367 -0.796645 6.40565 0
M  V30 643 H 53.5047 0.28044 8.18019 0
M  V30 644 N 56.1678 -1.49265 -0.50573 0
M  V30 645 C 57.1158 -1.66065 -1.62866 0
M  V30 646 C 58.1098 -0.526636 -1.61006 0
M  V30 647 O 59.3158 -0.706126 -1.65571 0
M  V30 648 H 55.6908 -0.52356 -0.539805 0
M  V30 649 H 57.6618 -2.60329 -1.45848 0
M  V30 650 C 56.4108 -1.74008 -3.01026 0
M  V30 651 H 55.7338 -2.6064 -3.03161 0
M  V30 652 H 57.1738 -1.89798 -3.79147 0
M  V30 653 C 55.6328 -0.483868 -3.33407 0
M  V30 654 O 56.1628 0.392548 -3.99777 0
M  V30 655 N 54.3688 -0.348236 -2.88506 0
M  V30 656 H 53.9158 -1.06242 -2.34671 0
M  V30 657 H 53.8738 0.491204 -3.10539 0
M  V30 658 N 57.6459 0.756429 -1.3826 0
M  V30 659 C 58.8919 1.51772 -1.34511 0
M  V30 660 C 59.2249 1.94089 0.0656691 0
M  V30 661 O 58.4999 1.65221 1.02626 0
M  V30 662 C 58.7829 2.77226 -2.29821 0
M  V30 663 C 58.6359 2.41065 -3.79747 0
M  V30 664 C 59.9549 3.79236 -2.23312 0
M  V30 665 H 57.0739 0.550578 -0.489931 0
M  V30 666 H 59.7159 0.866607 -1.69086 0
M  V30 667 H 57.8659 3.32784 -2.00467 0
M  V30 668 H 59.5379 1.91303 -4.19763 0
M  V30 669 H 57.7809 1.7356 -3.97567 0
M  V30 670 H 58.4519 3.3081 -4.41892 0
M  V30 671 H 60.9279 3.3321 -2.49219 0
M  V30 672 H 59.8039 4.64714 -2.92116 0
M  V30 673 H 60.0649 4.24615 -1.23102 0
M  V30 674 N 59.124 1.23083 0.984299 0
M  V30 675 C 60.535 1.05609 1.5396 0
M  V30 676 C 60.886 -0.377793 1.92528 0
M  V30 677 O 60.011 -1.26398 1.75649 0
M  V30 678 C 60.606 1.91087 2.7977 0
M  V30 679 C 59.165 1.77885 3.31713 0
M  V30 680 C 58.312 1.87028 2.04733 0
M  V30 681 H 61.263 1.36802 0.804419 0
M  V30 682 H 61.284 1.43336 3.5247 0
M  V30 683 H 60.796 2.9544 2.51668 0
M  V30 684 H 58.897 0.762995 3.64704 0
M  V30 685 H 59.01 2.61047 4.01735 0
M  V30 686 H 57.374 1.30565 2.18689 0
M  V30 687 H 58.157 2.92929 1.79017 0
M  V30 688 N 60.6021 -1.18246 1.0419 0
M  V30 689 C 61.5521 -2.19843 0.604392 0
M  V30 690 C 62.5361 -1.56962 -0.353814 0
M  V30 691 O 63.7281 -1.76156 -0.17267 0
M  V30 692 C 60.8571 -3.43287 -0.0298975 0
M  V30 693 C 59.9431 -4.13288 0.951531 0
M  V30 694 N 60.3341 -4.59271 2.11906 0
M  V30 695 C 58.6321 -4.39165 0.7778 0
M  V30 696 C 59.3331 -5.13173 2.73912 0
M  V30 697 N 58.3091 -5.04763 2.01779 0
M  V30 698 H 62.1111 -2.53089 1.4941 0
M  V30 699 H 59.6251 -1.34465 0.910658 0
M  V30 700 H 61.6221 -4.15334 -0.361037 0
M  V30 701 H 60.2821 -3.11537 -0.915127 0
M  V30 702 H 61.2931 -4.5368 2.49789 0
M  V30 703 H 57.9701 -4.17461 -0.0572331 0
M  V30 704 H 59.3601 -5.58947 3.72864 0
M  V30 705 N 62.0802 -0.821533 -1.34494 0
M  V30 706 C 63.3572 -0.33159 -1.92769 0
M  V30 707 C 63.7372 1.18088 -1.74981 0
M  V30 708 O 63.0852 1.98733 -1.12772 0
M  V30 709 C 63.2952 -0.759398 -3.40638 0
M  V30 710 C 64.6432 -0.757433 -4.1779 0
M  V30 711 O 65.6672 -0.70189 -3.49216 0
M  V30 712 O 64.5262 -0.829361 -5.4017 0
M  V30 713 H 61.6202 -0.0902502 -0.822061 0
M  V30 714 H 64.1662 -0.906231 -1.43477 0
M  V30 715 H 62.9382 -1.8012 -3.47379 0
M  V30 716 H 62.5612 -0.160378 -3.97276 0
M  V30 717 N 63.5583 1.46682 -0.576371 0
M  V30 718 C 64.5063 2.31953 0.17335 0
M  V30 719 C 65.5003 1.44098 0.89062 0
M  V30 720 O 66.7063 1.60759 0.809728 0
M  V30 721 H 63.0813 0.748273 0.0747727 0
M  V30 722 H 65.0523 2.93007 -0.564738 0
M  V30 723 C 63.8013 3.27142 1.17786 0
M  V30 724 H 63.1243 3.94719 0.635361 0
M  V30 725 H 64.5643 3.896 1.67296 0
M  V30 726 C 63.0233 2.52036 2.23561 0
M  V30 727 O 63.5533 2.27877 3.3081 0
M  V30 728 N 61.7593 2.12709 1.97998 0
M  V30 729 H 61.3063 2.32557 1.10792 0
M  V30 730 H 61.2643 1.62776 2.68982 0
M  V30 731 N 65.0364 0.313813 1.54444 0
M  V30 732 C 66.2824 -0.292108 2.00685 0
M  V30 733 C 66.6154 -1.52548 1.20177 0
M  V30 734 O 65.8904 -1.92452 0.281531 0
M  V30 735 C 66.1734 -0.635968 3.5444 0
M  V30 736 C 66.0264 0.607437 4.4568 0
M  V30 737 C 67.3454 -1.45747 4.15266 0
M  V30 738 H 64.4644 -0.104697 0.729526 0
M  V30 739 H 67.1064 0.428457 1.85106 0
M  V30 740 H 65.2564 -1.24986 3.67846 0
M  V30 741 H 66.9284 1.24581 4.44159 0
M  V30 742 H 65.1714 1.23822 4.15753 0
M  V30 743 H 65.8424 0.322515 5.51057 0
M  V30 744 H 68.3184 -0.938645 4.05375 0
M  V30 745 H 67.1944 -1.66683 5.2298 0
M  V30 746 H 67.4554 -2.45063 3.67963 0
M  V30 747 N 66.5145 -1.57545 0.0417849 0
M  V30 748 C 67.7605 -1.93424 -0.629168 0
M  V30 749 C 68.1155 -0.919564 -1.69002 0
M  V30 750 O 67.4085 0.0626178 -1.91498 0
M  V30 751 C 67.6025 -3.33794 -1.27735 0
M  V30 752 C 67.4315 -4.48822 -0.280806 0
M  V30 753 C 66.2015 -5.05148 0.123869 0
M  V30 754 C 68.3995 -5.12148 0.470012 0
M  V30 755 N 66.3815 -6.03703 1.11426 0
M  V30 756 C 67.7525 -6.05921 1.31377 0
M  V30 757 C 69.8075 -4.95078 0.529343 0
M  V30 758 C 68.5105 -6.84459 2.21152 0
M  V30 759 C 70.5365 -5.74235 1.41448 0
M  V30 760 C 69.8985 -6.67634 2.24598 0
M  V30 761 H 65.9975 -0.755418 -0.202158 0
M  V30 762 H 68.5815 -1.94378 0.111923 0
M  V30 763 H 66.7525 -3.33635 -1.98852 0
M  V30 764 H 68.4845 -3.56988 -1.90635 0
M  V30 765 H 65.2395 -4.72923 -0.253178 0
M  V30 766 H 65.6635 -6.57674 1.60607 0
M  V30 767 H 70.3055 -4.22683 -0.0992798 0
M  V30 768 H 68.0235 -7.56151 2.85063 0
M  V30 769 H 71.6095 -5.63057 1.46484 0
M  V30 770 H 70.4895 -7.27817 2.9198 0
M  V30 771 N 67.9926 0.231505 -1.5589 0
M  V30 772 C 69.2416 0.955346 -1.7764 0
M  V30 773 C 69.5546 1.85893 -0.608546 0
M  V30 774 O 70.7606 2.62067 -0.70943 0
M  V30 775 C 69.2166 1.74886 -3.14552 0
M  V30 776 C 68.8246 0.891915 -4.39032 0
M  V30 777 C 70.5686 2.46452 -3.45633 0
M  V30 778 C 68.4756 1.68221 -5.66971 0
M  V30 779 H 67.4056 0.360446 -0.662265 0
M  V30 780 H 70.0566 0.209516 -1.823 0
M  V30 781 H 68.4386 2.53723 -3.04041 0
M  V30 782 H 69.6126 0.144793 -4.60572 0
M  V30 783 H 67.9276 0.288863 -4.15397 0
M  V30 784 H 70.5246 3.06061 -4.38441 0
M  V30 785 H 70.8676 3.18841 -2.67668 0
M  V30 786 H 71.4006 1.74613 -3.57428 0
M  V30 787 H 68.1396 1.00178 -6.478 0
M  V30 788 H 67.6596 2.4042 -5.49507 0
M  V30 789 H 69.3386 2.24544 -6.06786 0
M  V30 790 N 69.4707 1.49531 0.497807 0
M  V30 791 C 70.4207 1.62829 1.59596 0
M  V30 792 C 71.4047 0.483824 1.53453 0
M  V30 793 O 72.5967 0.736937 1.60929 0
M  V30 794 C 69.7257 1.7011 2.98191 0
M  V30 795 C 68.8117 2.90144 3.09317 0
M  V30 796 N 69.2027 4.1418 2.90324 0
M  V30 797 C 67.5007 2.88148 3.40422 0
M  V30 798 C 68.2017 4.94886 3.05717 0
M  V30 799 N 67.1777 4.28314 3.34736 0
M  V30 800 H 70.9797 2.56446 1.4357 0
M  V30 801 H 68.4937 1.46347 0.704001 0
M  V30 802 H 70.4907 1.77735 3.77115 0
M  V30 803 H 69.1507 0.776315 3.15283 0
M  V30 804 H 70.1617 4.44109 2.66436 0
M  V30 805 H 66.8387 2.05061 3.63671 0
M  V30 806 H 68.2287 6.03432 2.95499 0
M  V30 807 N 70.9488 -0.749086 1.3866 0
M  V30 808 C 71.8788 -1.8764 1.38973 0
M  V30 809 C 72.8598 -1.68178 0.255004 0
M  V30 810 O 74.0448 -1.88704 0.458754 0
M  V30 811 C 71.1748 -3.25222 1.21851 0
M  V30 812 C 70.1288 -3.59295 2.32575 0
M  V30 813 C 69.4548 -4.95663 2.00555 0
M  V30 814 C 70.7548 -3.63709 3.7485 0
M  V30 815 H 72.4488 -1.87635 2.3331 0
M  V30 816 H 69.9948 -0.901329 1.12303 0
M  V30 817 H 71.9478 -4.03746 1.20695 0
M  V30 818 H 70.6718 -3.25719 0.239775 0
M  V30 819 H 69.3308 -2.83093 2.32925 0
M  V30 820 H 68.9788 -4.92724 1.01154 0
M  V30 821 H 68.6788 -5.19429 2.74714 0
M  V30 822 H 70.2028 -5.7656 2.01024 0
M  V30 823 H 71.6168 -4.32338 3.76506 0
M  V30 824 H 70.0138 -3.98986 4.48252 0
M  V30 825 H 71.0838 -2.63834 4.06841 0
M  V30 826 N 72.4269 -1.23603 -0.977757 0
M  V30 827 C 73.6569 -1.09487 -1.75203 0
M  V30 828 C 74.0649 0.356321 -1.85814 0
M  V30 829 O 73.4079 1.25816 -1.33851 0
M  V30 830 C 73.4699 -1.64905 -3.19447 0
M  V30 831 C 73.1339 -3.13688 -3.32338 0
M  V30 832 C 74.1309 -4.10953 -3.18455 0
M  V30 833 C 71.8159 -3.53449 -3.56902 0
M  V30 834 C 73.8099 -5.45962 -3.28944 0
M  V30 835 C 71.4969 -4.88602 -3.6703 0
M  V30 836 C 72.4949 -5.84668 -3.53062 0
M  V30 837 O 72.1829 -7.17365 -3.62826 0
M  V30 838 H 71.9149 -0.38367 -0.556573 0
M  V30 839 H 74.4689 -1.6398 -1.23693 0
M  V30 840 H 72.6989 -1.04835 -3.72218 0
M  V30 841 H 74.3879 -1.46226 -3.78646 0
M  V30 842 H 75.1539 -3.81577 -2.99372 0
M  V30 843 H 71.0329 -2.79188 -3.66844 0
M  V30 844 H 74.5769 -6.20925 -3.17958 0
M  V30 845 H 70.4739 -5.17653 -3.85623 0
M  V30 846 H 71.2419 -7.2515 -3.79605 0
M  V30 847 N 73.905 1.17692 -1.04816 0
M  V30 848 C 75.13 1.92327 -0.776207 0
M  V30 849 C 75.555 1.76082 0.661581 0
M  V30 850 O 74.913 1.076 1.45917 0
M  V30 851 C 74.961 3.41539 -1.15687 0
M  V30 852 O 74.065 4.11402 -0.286775 0
M  V30 853 H 73.406 0.599735 -0.284981 0
M  V30 854 H 75.936 1.49201 -1.4 0
M  V30 855 H 75.946 3.92269 -1.12202 0
M  V30 856 H 74.621 3.52684 -2.20425 0
M  V30 857 H 73.198 3.70939 -0.381903 0
M  V30 858 N 75.3831 0.828654 1.34056 0
M  V30 859 C 76.3301 0.252567 2.29414 0
M  V30 860 C 77.3001 -0.62588 1.53857 0
M  V30 861 O 78.4851 -0.566312 1.82202 0
M  V30 862 C 75.6251 -0.574831 3.40279 0
M  V30 863 C 74.7381 0.326499 4.30764 0
M  V30 864 C 73.8731 -0.511016 5.28736 0
M  V30 865 C 72.9121 0.389342 6.1086 0
M  V30 866 N 72.0491 -0.409439 7.00905 0
M  V30 867 H 76.8891 1.07108 2.78086 0
M  V30 868 H 74.4261 0.539677 1.36843 0
M  V30 869 H 76.3841 -1.06992 4.03248 0
M  V30 870 H 75.0141 -1.35841 2.92826 0
M  V30 871 H 74.0661 0.939837 3.68607 0
M  V30 872 H 75.3781 1.01857 4.88289 0
M  V30 873 H 74.5321 -1.07035 5.97184 0
M  V30 874 H 73.2711 -1.23657 4.71763 0
M  V30 875 H 72.2761 0.960769 5.4134 0
M  V30 876 H 73.5011 1.1131 6.69916 0
M  V30 877 H 71.4471 -1.11856 6.46393 0
M  V30 878 H 71.3641 0.224126 7.55668 0
M  V30 879 H 72.6321 -0.951336 7.73673 0
M  V30 880 N 76.8612 -1.46375 0.584142 0
M  V30 881 C 78.2722 -1.86031 0.157959 0
M  V30 882 C 78.6232 -1.48753 -1.27933 0
M  V30 883 O 77.7482 -0.903098 -1.96655 0
M  V30 884 C 78.3432 -3.37642 0.279892 0
M  V30 885 C 76.9022 -3.76289 -0.09143 0
M  V30 886 C 76.0492 -2.7039 0.615178 0
M  V30 887 H 79.0002 -1.37509 0.792274 0
M  V30 888 H 79.0212 -3.77275 -0.494364 0
M  V30 889 H 78.5332 -3.64742 1.32607 0
M  V30 890 H 76.6342 -3.54806 -1.13769 0
M  V30 891 H 76.7472 -4.78246 0.285886 0
M  V30 892 H 75.1112 -2.5464 0.0552833 0
M  V30 893 H 75.8942 -3.0033 1.66303 0
M  V30 894 N 78.3393 -0.321999 -1.54275 0
M  V30 895 C 79.6163 0.335232 -1.92706 0
M  V30 896 C 79.9963 1.70006 -1.25145 0
M  V30 897 O 79.3443 2.25067 -0.394596 0
M  V30 898 C 79.5543 0.429008 -3.46353 0
M  V30 899 C 80.9023 0.690029 -4.18956 0
M  V30 900 O 81.9263 0.511992 -3.52501 0
M  V30 901 O 80.7853 1.03338 -5.36641 0
M  V30 902 H 77.8793 0.191143 -0.804608 0
M  V30 903 H 80.4253 -0.3716 -1.65581 0
M  V30 904 H 79.1973 -0.529611 -3.87699 0
M  V30 905 H 78.8203 1.18348 -3.79578 0
M  V30 906 N 79.8174 1.5752 -0.0501392 0
M  V30 907 C 81.0634 1.93755 0.618901 0
M  V30 908 C 81.4184 0.928514 1.68512 0
M  V30 909 O 80.7114 -0.0524613 1.91528 0
M  V30 910 C 80.9054 3.34467 1.25963 0
M  V30 911 C 80.7344 4.48965 0.257 0
M  V30 912 C 79.5044 5.05075 -0.150656 0
M  V30 913 C 81.7024 5.11891 -0.497166 0
M  V30 914 N 79.6844 6.03104 -1.14626 0
M  V30 915 C 81.0554 6.05216 -1.34588 0
M  V30 916 C 83.1104 4.9479 -0.55559 0
M  V30 917 C 81.8134 6.83277 -2.24778 0
M  V30 918 C 83.8394 5.73477 -1.44492 0
M  V30 919 C 83.2014 6.66433 -2.28136 0
M  V30 920 H 79.3004 0.756479 0.198149 0
M  V30 921 H 81.8844 1.94316 -0.122229 0
M  V30 922 H 80.0554 3.34685 1.97079 0
M  V30 923 H 81.7874 3.57994 1.88739 0
M  V30 924 H 78.5424 4.7305 0.228094 0
M  V30 925 H 78.9664 6.56813 -1.64092 0
M  V30 926 H 83.6084 4.2273 0.0768625 0
M  V30 927 H 81.3264 7.54629 -2.89069 0
M  V30 928 H 84.9124 5.62273 -1.49468 0
M  V30 929 H 83.7924 7.26258 -2.95835 0
M  V30 930 N 81.2955 -0.223234 1.56011 0
M  V30 931 C 82.5255 -0.963413 1.82762 0
M  V30 932 C 82.9335 -1.78516 0.626804 0
M  V30 933 O 82.2765 -1.78974 -0.414014 0
M  V30 934 C 82.3385 -1.93126 3.0322 0
M  V30 935 C 82.0025 -1.2942 4.38291 0
M  V30 936 C 82.9995 -0.684916 5.15369 0
M  V30 937 C 80.6845 -1.30647 4.85012 0
M  V30 938 C 82.6785 -0.0963971 6.37327 0
M  V30 939 C 80.3655 -0.71411 6.06913 0
M  V30 940 C 81.3635 -0.110123 6.82911 0
M  V30 941 O 81.0515 0.47303 8.02507 0
M  V30 942 H 80.7835 -0.288011 0.611576 0
M  V30 943 H 83.3375 -0.244103 2.03944 0
M  V30 944 H 81.5675 -2.68952 2.77852 0
M  V30 945 H 83.2565 -2.53685 3.16857 0
M  V30 946 H 84.0225 -0.667774 4.80381 0
M  V30 947 H 79.9015 -1.76598 4.25833 0
M  V30 948 H 83.4455 0.375657 6.96588 0
M  V30 949 H 79.3425 -0.728659 6.41374 0
M  V30 950 H 80.1105 0.367186 8.17676 0
M  V30 951 N 82.7736 -1.49793 -0.48987 0
M  V30 952 C 83.7036 -1.70201 -1.59856 0
M  V30 953 C 84.6846 -0.55076 -1.60937 0
M  V30 954 O 85.8696 -0.787841 -1.77501 0
M  V30 955 C 82.9996 -1.77882 -2.98287 0
M  V30 956 C 81.9536 -2.92907 -3.12073 0
M  V30 957 C 81.2796 -2.85712 -4.51965 0
M  V30 958 C 82.5796 -4.3369 -2.91051 0
M  V30 959 H 84.2736 -2.63025 -1.43032 0
M  V30 960 H 81.8196 -1.26574 -0.686664 0
M  V30 961 H 83.7726 -1.90744 -3.75759 0
M  V30 962 H 82.4966 -0.816653 -3.16225 0
M  V30 963 H 81.1556 -2.79665 -2.37029 0
M  V30 964 H 80.8036 -1.8738 -4.66795 0
M  V30 965 H 80.5036 -3.62921 -4.62128 0
M  V30 966 H 82.0276 -3.00598 -5.31482 0
M  V30 967 H 83.4416 -4.47555 -3.58284 0
M  V30 968 H 81.8386 -5.12205 -3.12675 0
M  V30 969 H 82.9086 -4.47362 -1.87071 0
M  V30 970 N 84.2517 0.741722 -1.39055 0
M  V30 971 C 85.1617 1.88621 -1.39496 0
M  V30 972 C 86.1777 1.71557 -0.290578 0
M  V30 973 O 87.3537 1.94275 -0.530954 0
M  V30 974 C 84.4187 3.24134 -1.23037 0
M  V30 975 C 83.4797 3.5364 -2.43387 0
M  V30 976 C 82.7127 4.82687 -2.27703 0
M  V30 977 O 82.9357 5.55922 -1.27696 0
M  V30 978 O 81.8697 5.1194 -3.16545 0
M  V30 979 H 85.6957 1.91203 -2.35956 0
M  V30 980 H 83.2807 0.888625 -1.20099 0
M  V30 981 H 85.1627 4.0513 -1.15964 0
M  V30 982 H 83.8377 3.22337 -0.296691 0
M  V30 983 H 82.7447 2.72758 -2.56035 0
M  V30 984 H 84.0777 3.60209 -3.35425 0
M  V30 985 N 85.7298 1.2412 0.971189 0
M  V30 986 C 86.6598 1.05508 2.08304 0
M  V30 987 C 87.6408 -0.0308864 1.70072 0
M  V30 988 O 88.8258 0.135521 1.93727 0
M  V30 989 C 85.9558 0.655365 3.4106 0
M  V30 990 C 84.9098 1.68971 3.93234 0
M  V30 991 C 84.2358 1.14516 5.22293 0
M  V30 992 C 85.5358 3.08487 4.21465 0
M  V30 993 H 87.2298 1.98507 2.24132 0
M  V30 994 H 84.7758 0.955821 1.07704 0
M  V30 995 H 86.7288 0.51217 4.18276 0
M  V30 996 H 85.4528 -0.31032 3.25122 0
M  V30 997 H 84.1118 1.82106 3.18171 0
M  V30 998 H 83.7598 0.170189 5.02712 0
M  V30 999 H 83.4598 1.83635 5.58168 0
M  V30 1000 H 84.9838 1.01401 6.02121 0
M  V30 1001 H 86.3978 2.98601 4.89398 0
M  V30 1002 H 84.7948 3.74926 4.68562 0
M  V30 1003 H 85.8648 3.56787 3.28376 0
M  V30 1004 N 87.2079 -1.17134 1.05439 0
M  V30 1005 C 88.4379 -1.91094 0.785274 0
M  V30 1006 C 88.8459 -1.77198 -0.663142 0
M  V30 1007 O 88.1889 -1.10835 -1.46497 0
M  V30 1008 C 88.2509 -3.42594 1.08949 0
M  V30 1009 C 87.9149 -3.80274 2.53458 0
M  V30 1010 C 88.9119 -3.82912 3.51673 0
M  V30 1011 C 86.5969 -4.11162 2.88532 0
M  V30 1012 C 88.5909 -4.15913 4.83006 0
M  V30 1013 C 86.2779 -4.43831 4.20068 0
M  V30 1014 C 87.2759 -4.46185 5.17115 0
M  V30 1015 O 86.9639 -4.78083 6.46291 0
M  V30 1016 H 86.6959 -0.613073 0.284811 0
M  V30 1017 H 89.2499 -1.49461 1.40893 0
M  V30 1018 H 87.4799 -3.84534 0.408741 0
M  V30 1019 H 89.1689 -3.97817 0.805991 0
M  V30 1020 H 89.9349 -3.5917 3.25917 0
M  V30 1021 H 85.8139 -4.085 2.13656 0
M  V30 1022 H 89.3579 -4.17665 5.5875 0
M  V30 1023 H 85.2549 -4.67037 4.45586 0
M  V30 1024 H 86.0229 -4.9593 6.51149 0
M  V30 1025 N 88.686 -0.835752 -1.33615 0
M  V30 1026 C 90.097 -0.487099 -1.80234 0
M  V30 1027 C 90.448 0.993627 -1.69179 0
M  V30 1028 O 89.573 1.77403 -1.23924 0
M  V30 1029 C 90.168 -0.877385 -3.27242 0
M  V30 1030 C 88.727 -0.580915 -3.7189 0
M  V30 1031 C 87.874 -1.0874 -2.5509 0
M  V30 1032 H 90.825 -1.02474 -1.2118 0
M  V30 1033 H 90.846 -0.186195 -3.80044 0
M  V30 1034 H 90.358 -1.95512 -3.35256 0
M  V30 1035 H 88.459 0.486881 -3.69405 0
M  V30 1036 H 88.572 -1.13396 -4.65487 0
M  V30 1037 H 86.936 -0.508392 -2.49575 0
M  V30 1038 H 87.719 -2.17184 -2.65868 0
M  V30 1039 N 90.1641 1.46063 -0.591896 0
M  V30 1040 C 91.4101 2.02638 -0.0811191 0
M  V30 1041 C 91.7431 1.4613 1.27905 0
M  V30 1042 O 91.0181 0.629908 1.84017 0
M  V30 1043 C 91.3011 3.60091 -0.0252436 0
M  V30 1044 C 91.1541 4.26965 -1.41496 0
M  V30 1045 C 92.4731 4.3496 0.670685 0
M  V30 1046 H 89.5921 0.73635 -0.0309524 0
M  V30 1047 H 92.2341 1.741 -0.760859 0
M  V30 1048 H 90.3841 3.84535 0.553624 0
M  V30 1049 H 92.0561 4.13756 -2.0397 0
M  V30 1050 H 90.2991 3.85971 -1.98011 0
M  V30 1051 H 90.9701 5.35781 -1.32825 0
M  V30 1052 H 93.4461 4.15716 0.178825 0
M  V30 1053 H 92.3221 5.44686 0.678837 0
M  V30 1054 H 92.5831 4.06685 1.73379 0
M  V30 1055 N 91.6422 0.330177 1.54103 0
M  V30 1056 C 92.8902 -0.269871 2.0029 0
M  V30 1057 C 93.2112 -1.52133 1.21986 0
M  V30 1058 O 92.4812 -1.93212 0.323438 0
M  V30 1059 H 91.0612 -0.10271 0.739905 0
M  V30 1060 H 93.7232 0.448249 1.89675 0
M  V30 1061 H 92.8192 -0.52166 3.07709 0
M  V30 1062 N 93.1203 -1.57491 0.0584922 0
M  V30 1063 C 94.0673 -2.11958 -0.913376 0
M  V30 1064 C 95.0373 -1.02875 -1.30407 0
M  V30 1065 O 96.2223 -1.30464 -1.39226 0
M  V30 1066 C 93.3623 -2.67497 -2.18035 0
M  V30 1067 C 92.4753 -3.90691 -1.84349 0
M  V30 1068 C 91.6103 -4.3452 -3.05559 0
M  V30 1069 C 90.6493 -5.50395 -2.67827 0
M  V30 1070 N 89.7863 -5.89244 -3.81754 0
M  V30 1071 H 94.6263 -2.94704 -0.442017 0
M  V30 1072 H 92.1633 -1.45643 -0.206545 0
M  V30 1073 H 94.1213 -2.978 -2.92183 0
M  V30 1074 H 92.7513 -1.87537 -2.62735 0
M  V30 1075 H 91.8033 -3.66934 -1.00319 0
M  V30 1076 H 93.1153 -4.7489 -1.5258 0
M  V30 1077 H 92.2693 -4.66414 -3.87998 0
M  V30 1078 H 91.0083 -3.49147 -3.40511 0
M  V30 1079 H 90.0133 -5.18165 -1.83806 0
M  V30 1080 H 91.2383 -6.3749 -2.34059 0
M  V30 1081 H 89.1843 -5.06823 -4.16493 0
M  V30 1082 H 89.1013 -6.68151 -3.53708 0
M  V30 1083 H 90.3693 -6.25756 -4.64811 0
M  V30 1084 N 94.5984 0.214957 -1.56127 0
M  V30 1085 C 95.8444 0.939762 -1.79712 0
M  V30 1086 C 96.1774 1.83723 -0.629247 0
M  V30 1087 O 95.4524 1.90925 0.371197 0
M  V30 1088 C 95.7354 1.77306 -3.13424 0
M  V30 1089 C 95.5884 0.90164 -4.40671 0
M  V30 1090 C 96.9074 2.74956 -3.43638 0
M  V30 1091 H 94.0264 0.340214 -0.653776 0
M  V30 1092 H 96.6684 0.20824 -1.88855 0
M  V30 1093 H 94.8184 2.39673 -3.0576 0
M  V30 1094 H 96.4904 0.294206 -4.60361 0
M  V30 1095 H 94.7334 0.207368 -4.33304 0
M  V30 1096 H 95.4044 1.51923 -5.30682 0
M  V30 1097 H 97.8804 2.22724 -3.51473 0
M  V30 1098 H 96.7564 3.30358 -4.38355 0
M  V30 1099 H 97.0174 3.53023 -2.66134 0
M  V30 1100 N 96.0765 1.50051 0.48192 0
M  V30 1101 C 97.4875 1.5348 1.06305 0
M  V30 1102 C 97.8385 0.331997 1.93371 0
M  V30 1103 O 96.9635 -0.556256 2.09129 0
M  V30 1104 C 97.5585 2.7813 1.93466 0
M  V30 1105 C 96.1175 2.84275 2.46707 0
M  V30 1106 C 95.2645 2.47637 1.24785 0
M  V30 1107 H 98.2155 1.56472 0.264995 0
M  V30 1108 H 98.2365 2.59372 2.78399 0
M  V30 1109 H 97.7485 3.65654 1.30072 0
M  V30 1110 H 95.8495 2.01077 3.13686 0
M  V30 1111 H 95.9625 3.8691 2.82555 0
M  V30 1112 H 94.3265 1.99835 1.57918 0
M  V30 1113 H 95.1095 3.37457 0.630694 0
M  V30 1114 N 97.5546 -0.734337 1.39446 0
M  V30 1115 C 98.4846 -1.86155 1.40955 0
M  V30 1116 C 99.4656 -1.67898 0.272827 0
M  V30 1117 O 100.651 -1.88207 0.478743 0
M  V30 1118 C 97.7806 -3.23912 1.25294 0
M  V30 1119 C 96.7346 -3.56808 2.36373 0
M  V30 1120 C 96.0606 -4.93508 2.058 0
M  V30 1121 C 97.3606 -3.59713 3.78687 0
M  V30 1122 H 99.0546 -1.8515 2.35287 0
M  V30 1123 H 96.6006 -0.889367 1.13253 0
M  V30 1124 H 98.5536 -4.02443 1.2497 0
M  V30 1125 H 97.2776 -3.25446 0.274308 0
M  V30 1126 H 95.9366 -2.80606 2.35914 0
M  V30 1127 H 95.5846 -4.91623 1.06374 0
M  V30 1128 H 95.2846 -5.16486 2.80208 0
M  V30 1129 H 96.8086 -5.74396 2.07128 0
M  V30 1130 H 98.2226 -4.2832 3.81071 0
M  V30 1131 H 96.6196 -3.94209 4.52459 0
M  V30 1132 H 97.6896 -2.59504 4.09617 0
M  V30 1133 N 99.0327 -1.24633 -0.964593 0
M  V30 1134 C 99.9627 -1.06611 -2.07741 0
M  V30 1135 C 100.944 0.0218666 -1.70086 0
M  V30 1136 O 102.129 -0.145793 -1.93652 0
M  V30 1137 C 99.2587 -0.673444 -3.40708 0
M  V30 1138 C 98.2127 -1.71054 -3.92332 0
M  V30 1139 C 97.5387 -1.17285 -5.21678 0
M  V30 1140 C 98.8387 -3.10718 -4.19824 0
M  V30 1141 H 100.533 -1.99693 -2.23076 0
M  V30 1142 H 98.0787 -0.96152 -1.07195 0
M  V30 1143 H 100.032 -0.534345 -4.17998 0
M  V30 1144 H 98.7557 0.293073 -3.25282 0
M  V30 1145 H 97.4147 -1.83791 -3.17201 0
M  V30 1146 H 97.0627 -0.196847 -5.02615 0
M  V30 1147 H 96.7627 -1.86592 -5.57187 0
M  V30 1148 H 98.2867 -1.04593 -6.01575 0
M  V30 1149 H 99.7007 -3.01192 -4.87808 0
M  V30 1150 H 98.0977 -3.77406 -4.66567 0
M  V30 1151 H 99.1677 -3.58524 -3.26479 0
M  V30 1152 N 100.511 1.16574 -1.06058 0
M  V30 1153 C 101.76 1.86385 -0.770944 0
M  V30 1154 C 102.073 1.82448 0.705129 0
M  V30 1155 O 103.279 2.47815 1.10905 0
M  V30 1156 C 101.735 3.34466 -1.32893 0
M  V30 1157 C 101.343 3.46883 -2.83507 0
M  V30 1158 C 103.087 4.09548 -1.11672 0
M  V30 1159 C 100.994 4.89036 -3.32562 0
M  V30 1160 H 99.9238 0.698181 -0.284709 0
M  V30 1161 H 102.575 1.31583 -1.27899 0
M  V30 1162 H 100.957 3.88859 -0.748662 0
M  V30 1163 H 102.131 3.02663 -3.47465 0
M  V30 1164 H 100.446 2.85232 -3.03368 0
M  V30 1165 H 103.043 5.14434 -1.45814 0
M  V30 1166 H 103.386 4.16264 -0.0549535 0
M  V30 1167 H 103.919 3.61387 -1.66265 0
M  V30 1168 H 100.658 4.87499 -4.38207 0
M  V30 1169 H 100.178 5.3389 -2.73351 0
M  V30 1170 H 101.857 5.57843 -3.2775 0
M  V30 1171 N 101.989 0.842826 1.3317 0
M  V30 1172 C 103.217 0.454055 2.01856 0
M  V30 1173 C 103.632 -0.94587 1.63397 0
M  V30 1174 O 102.989 -1.61534 0.849302 0
M  V30 1175 C 103.04 0.569715 3.56982 0
M  V30 1176 O 102.761 1.91448 3.94055 0
M  V30 1177 C 104.262 0.178412 4.42941 0
M  V30 1178 H 101.482 0.17979 0.646465 0
M  V30 1179 H 104.026 1.1365 1.70012 0
M  V30 1180 H 102.181 -0.0648587 3.87346 0
M  V30 1181 H 102.595 1.90282 4.88767 0
M  V30 1182 H 104.069 0.310376 5.51127 0
M  V30 1183 H 104.546 -0.880056 4.30293 0
M  V30 1184 H 105.152 0.787579 4.17944 0
M  V30 1185 N 103.467 -1.45747 0.599634 0
M  V30 1186 C 104.414 -2.30467 -0.123849 0
M  V30 1187 C 105.384 -1.41632 -0.86774 0
M  V30 1188 O 106.569 -1.70568 -0.855056 0
M  V30 1189 C 103.709 -3.26402 -1.12051 0
M  V30 1190 C 102.822 -4.3034 -0.37832 0
M  V30 1191 C 101.957 -5.13389 -1.364 0
M  V30 1192 C 100.996 -6.09061 -0.609171 0
M  V30 1193 N 100.133 -6.84918 -1.54374 0
M  V30 1194 H 104.973 -2.91802 0.604627 0
M  V30 1195 H 102.51 -1.43797 0.309972 0
M  V30 1196 H 104.468 -3.80482 -1.7114 0
M  V30 1197 H 103.098 -2.66839 -1.8165 0
M  V30 1198 H 102.15 -3.78984 0.327929 0
M  V30 1199 H 103.462 -4.98354 0.210997 0
M  V30 1200 H 102.616 -5.7183 -2.02719 0
M  V30 1201 H 101.355 -4.45376 -1.98725 0
M  V30 1202 H 100.36 -5.49758 0.0676979 0
M  V30 1203 H 101.585 -6.79099 0.00891991 0
M  V30 1204 H 99.531 -6.19601 -2.15478 0
M  V30 1205 H 99.448 -7.49254 -1.00766 0
M  V30 1206 H 100.716 -7.47906 -2.19676 0
M  V30 1207 N 104.945 -0.338344 -1.53925 0
M  V30 1208 C 105.855 0.529421 -2.28548 0
M  V30 1209 C 106.871 1.11645 -1.3346 0
M  V30 1210 O 108.047 1.13325 -1.66492 0
M  V30 1211 C 105.112 1.66713 -3.03987 0
M  V30 1212 C 104.173 1.11041 -4.14691 0
M  V30 1213 C 103.406 2.19389 -4.86522 0
M  V30 1214 O 103.629 3.40013 -4.57982 0
M  V30 1215 O 102.563 1.83976 -5.73094 0
M  V30 1216 H 106.389 -0.0770399 -3.03602 0
M  V30 1217 H 103.974 -0.103555 -1.49041 0
M  V30 1218 H 105.856 2.32918 -3.5118 0
M  V30 1219 H 104.531 2.25949 -2.31794 0
M  V30 1220 H 103.438 0.413024 -3.71813 0
M  V30 1221 H 104.771 0.562975 -4.8897 0
M  V30 1222 N 106.423 1.57458 -0.0668435 0
M  V30 1223 C 107.671 1.92919 0.602214 0
M  V30 1224 C 107.992 0.947215 1.70449 0
M  V30 1225 O 107.262 -0.00544117 1.95899 0
M  V30 1226 H 105.842 0.71217 0.22544 0
M  V30 1227 H 108.504 1.94508 -0.123535 0
M  V30 1228 H 107.6 2.94589 1.03073 0
M  V30 1229 N 107.901 -0.206675 1.56239 0
M  V30 1230 C 108.848 -1.25617 1.93621 0
M  V30 1231 C 109.818 -1.45824 0.795274 0
M  V30 1232 O 111.003 -1.59148 1.05245 0
M  V30 1233 C 108.143 -2.59839 2.27107 0
M  V30 1234 C 107.256 -2.47308 3.54207 0
M  V30 1235 C 106.391 -3.74155 3.7707 0
M  V30 1236 C 105.43 -3.56407 4.97635 0
M  V30 1237 N 104.567 -4.75238 5.1681 0
M  V30 1238 H 109.407 -0.930383 2.83104 0
M  V30 1239 H 106.944 -0.448065 1.4011 0
M  V30 1240 H 108.902 -3.38021 2.44535 0
M  V30 1241 H 107.532 -2.90485 1.40778 0
M  V30 1242 H 106.584 -1.60483 3.4489 0
M  V30 1243 H 107.896 -2.30122 4.42544 0
M  V30 1244 H 107.05 -4.60778 3.94675 0
M  V30 1245 H 105.789 -3.94282 2.87042 0
M  V30 1246 H 104.794 -2.68168 4.79964 0
M  V30 1247 H 106.019 -3.37736 5.89161 0
M  V30 1248 H 103.965 -4.95651 4.29728 0
M  V30 1249 H 103.882 -4.60835 5.99306 0
M  V30 1250 H 105.15 -5.63246 5.38864 0
M  V30 1251 N 109.379 -1.50304 -0.473955 0
M  V30 1252 C 110.607 -1.64902 -1.24959 0
M  V30 1253 C 111.022 -0.331198 -1.85872 0
M  V30 1254 O 110.379 0.68652 -1.69095 0
M  V30 1255 C 110.43 -2.73803 -2.36038 0
M  V30 1256 O 110.151 -4.00477 -1.77624 0
M  V30 1257 C 111.652 -2.99349 -3.26964 0
M  V30 1258 H 108.872 -0.554383 -0.378022 0
M  V30 1259 H 111.416 -1.9651 -0.566054 0
M  V30 1260 H 109.571 -2.44898 -3.00173 0
M  V30 1261 H 109.985 -4.60678 -2.5075 0
M  V30 1262 H 111.459 -3.79217 -4.01121 0
M  V30 1263 H 111.936 -2.10307 -3.85574 0
M  V30 1264 H 112.542 -3.29774 -2.68569 0
M  V30 1265 N 110.857 0.726932 -1.39834 0
M  V30 1266 C 112.106 1.48214 -1.36805 0
M  V30 1267 C 112.419 1.95576 0.0305291 0
M  V30 1268 O 113.625 2.7088 0.183417 0
M  V30 1269 C 112.081 2.67854 -2.40379 0
M  V30 1270 C 111.689 2.27408 -3.85992 0
M  V30 1271 C 113.433 3.45641 -2.46439 0
M  V30 1272 C 111.34 3.43819 -4.81189 0
M  V30 1273 H 110.27 0.556606 -0.508631 0
M  V30 1274 H 112.921 0.792216 -1.65518 0
M  V30 1275 H 111.303 3.3896 -2.04749 0
M  V30 1276 H 112.477 1.63795 -4.30706 0
M  V30 1277 H 110.792 1.62692 -3.83302 0
M  V30 1278 H 113.389 4.32244 -3.14753 0
M  V30 1279 H 113.732 3.88669 -1.49139 0
M  V30 1280 H 114.265 2.8157 -2.81004 0
M  V30 1281 H 111.004 3.05834 -5.79781 0
M  V30 1282 H 110.524 4.06385 -4.41148 0
M  V30 1283 H 112.203 4.10043 -5.00474 0
M  V30 1284 N 112.336 1.25143 0.95797 0
M  V30 1285 C 113.582 1.09855 1.70469 0
M  V30 1286 C 113.915 -0.360187 1.90831 0
M  V30 1287 O 113.19 -1.26568 1.47685 0
M  V30 1288 C 113.473 1.8497 3.08963 0
M  V30 1289 C 113.326 3.38652 2.96032 0
M  V30 1290 C 114.645 1.63016 4.08795 0
M  V30 1291 H 111.764 0.400465 0.618706 0
M  V30 1292 H 114.406 1.53933 1.11376 0
M  V30 1293 H 112.556 1.47505 3.59409 0
M  V30 1294 H 114.228 3.85772 2.52938 0
M  V30 1295 H 112.471 3.66534 2.32025 0
M  V30 1296 H 113.142 3.8642 3.94187 0
M  V30 1297 H 115.618 1.95625 3.67247 0
M  V30 1298 H 114.494 2.18015 5.03747 0
M  V30 1299 H 114.755 0.570692 4.38401 0
M  V30 1300 N 113.814 -1.1601 1.06675 0
M  V30 1301 C 114.724 -2.24156 0.692179 0
M  V30 1302 C 115.74 -1.71507 -0.293513 0
M  V30 1303 O 116.916 -2.009 -0.141861 0
M  V30 1304 C 113.981 -3.46587 0.0884131 0
M  V30 1305 C 113.042 -4.14257 1.12646 0
M  V30 1306 C 112.275 -5.30844 0.551416 0
M  V30 1307 O 112.498 -5.66858 -0.634656 0
M  V30 1308 O 111.432 -5.87848 1.29298 0
M  V30 1309 H 115.258 -2.58513 1.59388 0
M  V30 1310 H 112.843 -1.23599 0.83926 0
M  V30 1311 H 114.725 -4.20679 -0.246361 0
M  V30 1312 H 113.4 -3.13994 -0.786712 0
M  V30 1313 H 112.307 -3.42118 1.51348 0
M  V30 1314 H 113.64 -4.50914 1.97325 0
M  V30 1315 N 115.292 -0.849877 -1.32721 0
M  V30 1316 C 116.517 -0.463856 -2.02146 0
M  V30 1317 C 116.942 0.930449 -1.63476 0
M  V30 1318 O 116.3 1.61033 -0.832952 0
M  V30 1319 C 116.348 -0.604955 -3.55489 0
M  V30 1320 O 115.452 0.36425 -4.10788 0
M  V30 1321 H 114.793 -0.187046 -0.637111 0
M  V30 1322 H 117.323 -1.14775 -1.69375 0
M  V30 1323 H 117.333 -0.490696 -4.05038 0
M  V30 1324 H 116.008 -1.62174 -3.82978 0
M  V30 1325 H 114.585 0.206628 -3.72327 0
M  V30 1326 N 116.77 1.45427 -0.607355 0
M  V30 1327 C 118.047 1.9557 -0.0344566 0
M  V30 1328 C 118.427 1.54979 1.43334 0
M  V30 1329 O 117.775 0.812241 2.13576 0
M  V30 1330 C 117.985 3.48226 -0.232321 0
M  V30 1331 C 119.333 4.2445 -0.113001 0
M  V30 1332 O 120.357 3.55829 -0.162431 0
M  V30 1333 O 119.216 5.465 0.00209442 0
M  V30 1334 H 116.31 0.826222 0.0358667 0
M  V30 1335 H 118.856 1.55594 -0.6774 0
M  V30 1336 H 117.628 3.70739 -1.25174 0
M  V30 1337 H 117.251 3.95092 0.445896 0
M  V30 1338 N 118.248 0.346503 1.53744 0
M  V30 1339 C 119.211 -0.496439 2.23759 0
M  V30 1340 C 120.211 -1.0252 1.2388 0
M  V30 1341 O 121.401 -0.913974 1.48297 0
M  V30 1342 C 118.533 -1.69187 2.95954 0
M  V30 1343 H 119.726 0.115952 2.99676 0
M  V30 1344 H 117.279 0.0978939 1.55993 0
M  V30 1345 H 118.014 -2.34288 2.24231 0
M  V30 1346 H 117.799 -1.31989 3.69217 0
M  V30 1347 H 119.289 -2.28969 3.49232 0
M  V30 1348 N 119.726 -1.57421 0.075193 0
M  V30 1349 C 120.975 -1.92794 -0.592731 0
M  V30 1350 C 121.288 -0.957478 -1.70563 0
M  V30 1351 O 122.494 -1.20417 -2.43335 0
M  V30 1352 C 120.95 -3.42495 -1.10569 0
M  V30 1353 C 120.558 -4.47994 -0.0236121 0
M  V30 1354 C 122.302 -3.86864 -1.74748 0
M  V30 1355 C 120.209 -5.88829 -0.550803 0
M  V30 1356 H 119.139 -0.719591 -0.225177 0
M  V30 1357 H 121.79 -1.82902 0.147978 0
M  V30 1358 H 120.172 -3.47471 -1.89947 0
M  V30 1359 H 121.346 -4.54637 0.751099 0
M  V30 1360 H 119.661 -4.13113 0.522159 0
M  V30 1361 H 122.258 -4.8947 -2.15229 0
M  V30 1362 H 122.601 -3.24417 -2.60882 0
M  V30 1363 H 123.134 -3.84504 -1.01986 0
M  V30 1364 H 119.873 -6.54929 0.273457 0
M  V30 1365 H 119.393 -5.85698 -1.29296 0
M  V30 1366 H 121.072 -6.38811 -1.02613 0
M  V30 1367 N 121.204 0.198386 -1.56346 0
M  V30 1368 C 122.453 0.917451 -1.79627 0
M  V30 1369 C 122.766 1.8456 -0.64784 0
M  V30 1370 O 123.972 2.60504 -0.764859 0
M  V30 1371 C 122.428 1.68175 -3.18191 0
M  V30 1372 C 122.036 0.798589 -4.40825 0
M  V30 1373 C 123.78 2.39065 -3.50782 0
M  V30 1374 C 121.687 1.56157 -5.70411 0
M  V30 1375 H 120.617 0.346317 -0.669762 0
M  V30 1376 H 123.268 0.170801 -1.82703 0
M  V30 1377 H 121.65 2.47216 -3.09354 0
M  V30 1378 H 122.824 0.0470665 -4.60776 0
M  V30 1379 H 121.139 0.200686 -4.15916 0
M  V30 1380 H 123.736 2.96692 -4.44835 0
M  V30 1381 H 124.079 3.13091 -2.74371 0
M  V30 1382 H 124.612 1.66993 -3.61052 0
M  V30 1383 H 121.351 0.864142 -6.49779 0
M  V30 1384 H 120.871 2.2871 -5.54483 0
M  V30 1385 H 122.55 2.11622 -6.11412 0
M  V30 1386 N 122.682 1.50554 0.465978 0
M  V30 1387 C 124.098 1.38093 0.800154 0
M  V30 1388 C 124.298 0.440988 1.96615 0
M  V30 1389 O 123.354 -0.114499 2.5224 0
M  V30 1390 C 124.667 2.79565 1.10742 0
M  V30 1391 C 126.215 2.88516 1.21357 0
M  V30 1392 C 126.69 4.30833 1.55393 0
M  V30 1393 N 128.181 4.33807 1.62375 0
M  V30 1394 C 128.916 5.40927 1.90225 0
M  V30 1395 N 128.412 6.58247 2.16062 0
M  V30 1396 N 130.205 5.28376 1.9177 0
M  V30 1397 H 122.356 2.10237 -0.302366 0
M  V30 1398 H 124.619 0.945203 -0.0727746 0
M  V30 1399 H 124.325 3.50208 0.323661 0
M  V30 1400 H 124.199 3.17125 2.04234 0
M  V30 1401 H 126.586 2.1809 1.98799 0
M  V30 1402 H 126.667 2.54492 0.258321 0
M  V30 1403 H 126.311 5.01799 0.784889 0
M  V30 1404 H 126.241 4.62347 2.52076 0
M  V30 1405 H 128.732 3.49212 1.44427 0
M  V30 1406 H 129.045 7.3569 2.36601 0
M  V30 1407 H 127.39 6.61413 2.13444 0
M  V30 1408 H 130.581 4.35715 1.71085 0
M  V30 1409 H 130.754 6.11944 2.13139 0
M  V30 1410 N 124.16 -0.719506 1.40217 0
M  V30 1411 C 125.39 -1.50646 1.41384 0
M  V30 1412 C 125.798 -1.89197 0.0107743 0
M  V30 1413 O 125.141 -1.55709 -0.974708 0
M  V30 1414 C 125.203 -2.81405 2.23722 0
M  V30 1415 C 124.867 -2.65199 3.72181 0
M  V30 1416 C 125.864 -2.32717 4.64907 0
M  V30 1417 C 123.549 -2.81586 4.1595 0
M  V30 1418 C 125.543 -2.16827 5.99387 0
M  V30 1419 C 123.23 -2.65313 5.50502 0
M  V30 1420 C 124.228 -2.32981 6.42035 0
M  V30 1421 O 123.916 -2.16827 7.74107 0
M  V30 1422 H 123.648 -0.471606 0.484318 0
M  V30 1423 H 126.202 -0.895456 1.84853 0
M  V30 1424 H 124.432 -3.44823 1.75026 0
M  V30 1425 H 126.121 -3.43102 2.16878 0
M  V30 1426 H 126.887 -2.19694 4.32388 0
M  V30 1427 H 122.766 -3.0574 3.45027 0
M  V30 1428 H 126.31 -1.91513 6.70797 0
M  V30 1429 H 122.207 -2.7792 5.82607 0
M  V30 1430 H 122.975 -2.31778 7.84998 0
M  V30 1431 N 125.638 -1.25649 -0.95132 0
M  V30 1432 C 126.568 -1.08808 -2.06599 0
M  V30 1433 C 127.549 0.00382547 -1.701 0
M  V30 1434 O 128.734 -0.166325 -1.93486 0
M  V30 1435 C 125.864 -0.709542 -3.39975 0
M  V30 1436 C 124.818 -1.75206 -3.90496 0
M  V30 1437 C 124.144 -1.22811 -5.20405 0
M  V30 1438 C 125.444 -3.15153 -4.16504 0
M  V30 1439 H 127.138 -2.02048 -2.20946 0
M  V30 1440 H 124.684 -0.972835 -1.06169 0
M  V30 1441 H 126.637 -0.578649 -4.17408 0
M  V30 1442 H 125.361 0.258556 -3.25575 0
M  V30 1443 H 124.02 -1.87145 -3.15234 0
M  V30 1444 H 123.668 -0.250145 -5.02378 0
M  V30 1445 H 123.368 -1.92492 -5.55176 0
M  V30 1446 H 124.892 -1.10968 -6.00432 0
M  V30 1447 H 126.306 -3.06349 -4.84586 0
M  V30 1448 H 124.703 -3.82333 -4.62538 0
M  V30 1449 H 125.773 -3.61966 -3.22658 0
M  V30 1450 N 127.117 1.15442 -1.07289 0
M  V30 1451 C 128.394 1.82306 -0.708792 0
M  V30 1452 C 128.774 1.94991 0.808807 0
M  V30 1453 O 128.122 1.50085 1.72298 0
M  V30 1454 C 128.332 3.18695 -1.42247 0
M  V30 1455 C 129.68 3.94341 -1.57417 0
M  V30 1456 O 130.704 3.28247 -1.38319 0
M  V30 1457 O 129.563 5.12839 -1.88834 0
M  V30 1458 H 126.657 0.787628 -0.252132 0
M  V30 1459 H 129.203 1.22559 -1.17377 0
M  V30 1460 H 127.975 3.04557 -2.45684 0
M  V30 1461 H 127.598 3.86128 -0.948223 0
M  V30 1462 N 128.595 0.856903 1.32268 0
M  V30 1463 C 129.505 0.306131 2.32594 0
M  V30 1464 C 130.521 -0.577209 1.64147 0
M  V30 1465 O 131.697 -0.477043 1.95669 0
M  V30 1466 C 128.762 -0.494561 3.43154 0
M  V30 1467 C 127.823 0.415186 4.27288 0
M  V30 1468 C 127.056 -0.347387 5.32568 0
M  V30 1469 O 127.279 -1.57708 5.48165 0
M  V30 1470 O 126.213 0.287982 6.01211 0
M  V30 1471 H 130.039 1.13737 2.81598 0
M  V30 1472 H 127.624 0.619902 1.35932 0
M  V30 1473 H 129.506 -0.948944 4.10576 0
M  V30 1474 H 128.181 -1.30257 2.96336 0
M  V30 1475 H 127.088 0.917793 3.62667 0
M  V30 1476 H 128.421 1.18844 4.77637 0
M  V30 1477 N 130.073 -1.45103 0.615059 0
M  V30 1478 C 131.301 -2.06553 0.11977 0
M  V30 1479 C 131.716 -1.45842 -1.19898 0
M  V30 1480 O 131.073 -0.575325 -1.73194 0
M  V30 1481 C 131.124 -3.61495 -0.018364 0
M  V30 1482 O 130.845 -4.19942 1.24822 0
M  V30 1483 C 132.346 -4.39947 -0.544237 0
M  V30 1484 H 129.566 -0.667096 0.0722739 0
M  V30 1485 H 132.11 -1.8623 0.84491 0
M  V30 1486 H 130.265 -3.81135 -0.693865 0
M  V30 1487 H 130.679 -5.13204 1.0827 0
M  V30 1488 H 132.153 -5.48838 -0.589953 0
M  V30 1489 H 132.63 -4.10255 -1.56805 0
M  V30 1490 H 133.236 -4.25188 0.0974703 0
M  V30 1491 N 131.551 -0.354651 -1.53558 0
M  V30 1492 C 132.8 0.239504 -2.00273 0
M  V30 1493 C 133.113 1.50759 -1.24623 0
M  V30 1494 O 134.319 2.17968 -1.61871 0
M  V30 1495 C 132.775 0.477341 -3.5672 0
M  V30 1496 C 132.383 -0.775488 -4.41237 0
M  V30 1497 C 134.127 1.02975 -4.11821 0
M  V30 1498 C 132.034 -0.507838 -5.89216 0
M  V30 1499 H 130.964 0.0932743 -0.748208 0
M  V30 1500 H 133.615 -0.471701 -1.77334 0
M  V30 1501 H 131.997 1.24953 -3.7577 0
M  V30 1502 H 133.171 -1.54963 -4.33962 0
M  V30 1503 H 131.486 -1.25033 -3.97185 0
M  V30 1504 H 134.083 1.24513 -5.2 0
M  V30 1505 H 134.426 1.98862 -3.65731 0
M  V30 1506 H 134.959 0.317994 -3.96527 0
M  V30 1507 H 131.698 -1.43674 -6.39561 0
M  V30 1508 H 131.218 0.228011 -5.99366 0
M  V30 1509 H 132.897 -0.129238 -6.46871 0
M  V30 1510 N 133.029 1.57378 -0.0835403 0
M  V30 1511 C 134.277 1.93547 0.581718 0
M  V30 1512 C 134.598 0.96524 1.69435 0
M  V30 1513 O 133.868 0.0153369 1.95894 0
M  V30 1514 H 132.448 0.714521 0.217874 0
M  V30 1515 H 135.11 1.94366 -0.144158 0
M  V30 1516 H 134.206 2.95665 0.999423 0
M  V30 1517 N 134.507 -0.190092 1.56449 0
M  V30 1518 C 135.455 -1.25501 1.95837 0
M  V30 1519 C 136.449 -1.4685 0.844485 0
M  V30 1520 O 137.655 -1.47651 1.02952 0
M  V30 1521 H 134.03 -0.421447 0.622805 0
M  V30 1522 H 136.001 -0.895821 2.84636 0
M  V30 1523 C 134.75 -2.59124 2.31841 0
M  V30 1524 H 134.073 -2.43514 3.17082 0
M  V30 1525 H 135.513 -3.32371 2.6326 0
M  V30 1526 C 133.972 -3.16488 1.15486 0
M  V30 1527 O 134.502 -3.99365 0.432535 0
M  V30 1528 N 132.708 -2.75305 0.930349 0
M  V30 1529 H 132.255 -2.08013 1.51948 0
M  V30 1530 H 132.213 -3.14024 0.153634 0
M  V30 1531 N 135.985 -1.50799 -0.457987 0
M  V30 1532 C 136.932 -1.70617 -1.5543 0
M  V30 1533 C 137.902 -0.547562 -1.56815 0
M  V30 1534 O 139.087 -0.779647 -1.74144 0
M  V30 1535 C 136.227 -1.81831 -2.93311 0
M  V30 1536 C 135.34 -3.09278 -3.01615 0
M  V30 1537 C 134.475 -3.11209 -4.30491 0
M  V30 1538 C 133.514 -4.33055 -4.32585 0
M  V30 1539 N 132.651 -4.32652 -5.52952 0
M  V30 1540 H 137.491 -2.64207 -1.37836 0
M  V30 1541 H 135.028 -1.30959 -0.669937 0
M  V30 1542 H 136.986 -1.86314 -3.73287 0
M  V30 1543 H 135.616 -0.916685 -3.0951 0
M  V30 1544 H 134.668 -3.14203 -2.1443 0
M  V30 1545 H 135.98 -3.99233 -2.99022 0
M  V30 1546 H 135.134 -3.14494 -5.18824 0
M  V30 1547 H 133.873 -2.19106 -4.35711 0
M  V30 1548 H 132.878 -4.29969 -3.42647 0
M  V30 1549 H 134.103 -5.264 -4.29046 0
M  V30 1550 H 132.049 -3.43409 -5.58933 0
M  V30 1551 H 131.966 -5.16392 -5.52155 0
M  V30 1552 H 133.234 -4.40101 -6.43375 0
M  V30 1553 N 137.463 0.71206 -1.40597 0
M  V30 1554 C 138.688 1.50617 -1.42581 0
M  V30 1555 C 139.113 1.88079 -0.0282102 0
M  V30 1556 O 138.471 1.53511 0.964579 0
M  V30 1557 C 138.519 2.7557 -2.3258 0
M  V30 1558 O 137.623 3.72414 -1.77148 0
M  V30 1559 H 136.964 0.453966 -0.484573 0
M  V30 1560 H 139.494 0.876649 -1.84868 0
M  V30 1561 H 139.504 3.2406 -2.47889 0
M  V30 1562 H 138.179 2.47639 -3.34138 0
M  V30 1563 H 136.756 3.31276 -1.71204 0
M  V30 1564 N 138.941 1.26152 0.944643 0
M  V30 1565 C 139.871 1.09902 2.06019 0
M  V30 1566 C 140.852 0.00519538 1.70099 0
M  V30 1567 O 142.037 0.176583 1.93396 0
M  V30 1568 C 139.167 0.727562 3.39594 0
M  V30 1569 C 138.121 1.77274 3.89561 0
M  V30 1570 C 137.447 1.25569 5.19747 0
M  V30 1571 C 138.747 3.17357 4.14827 0
M  V30 1572 H 140.441 2.03217 2.19871 0
M  V30 1573 H 137.987 0.978452 1.05652 0
M  V30 1574 H 139.94 0.600777 4.17095 0
M  V30 1575 H 138.664 -0.241287 3.25707 0
M  V30 1576 H 137.323 1.88814 3.14237 0
M  V30 1577 H 136.971 0.276783 5.02238 0
M  V30 1578 H 136.671 1.95433 5.54148 0
M  V30 1579 H 138.195 1.1415 5.99835 0
M  V30 1580 H 139.609 3.08914 4.82954 0
M  V30 1581 H 138.006 3.84781 4.60504 0
M  V30 1582 H 139.076 3.63673 3.20734 0
M  V30 1583 N 140.419 -1.14872 1.07899 0
M  V30 1584 C 141.352 -2.18794 0.64841 0
M  V30 1585 C 142.33 -1.59065 -0.337189 0
M  V30 1586 O 143.514 -1.86936 -0.242284 0
M  V30 1587 C 140.641 -3.38667 -0.0470417 0
M  V30 1588 C 139.687 -4.16942 0.897884 0
M  V30 1589 S 140.52 -4.78615 2.40183 0
M  V30 1590 C 141.676 -6.0185 1.71834 0
M  V30 1591 H 141.909 -2.5498 1.52881 0
M  V30 1592 H 139.442 -1.25922 0.893484 0
M  V30 1593 H 141.4 -4.08113 -0.442027 0
M  V30 1594 H 140.061 -3.00814 -0.903861 0
M  V30 1595 H 139.254 -5.02726 0.358096 0
M  V30 1596 H 138.856 -3.53073 1.23352 0
M  V30 1597 H 141.148 -6.69574 1.03328 0
M  V30 1598 H 142.091 -6.60408 2.55473 0
M  V30 1599 H 142.499 -5.5173 1.19392 0
M  V30 1600 N 141.898 -0.863906 -1.31812 0
M  V30 1601 C 143.123 -0.48527 -2.01643 0
M  V30 1602 C 143.548 0.913058 -1.64453 0
M  V30 1603 O 142.906 1.6014 -0.849985 0
M  V30 1604 C 142.954 -0.642625 -3.54828 0
M  V30 1605 O 142.058 0.320659 -4.11151 0
M  V30 1606 H 141.399 -0.193793 -0.635091 0
M  V30 1607 H 143.929 -1.16565 -1.68148 0
M  V30 1608 H 143.939 -0.533628 -4.04495 0
M  V30 1609 H 142.614 -1.66227 -3.81237 0
M  V30 1610 H 141.191 0.167126 -3.72525 0
M  V30 1611 N 143.376 1.44774 -0.622745 0
M  V30 1612 C 144.306 2.33382 0.0741861 0
M  V30 1613 C 145.287 1.47719 0.843387 0
M  V30 1614 O 146.472 1.76458 0.810934 0
M  V30 1615 C 143.602 3.30663 1.06204 0
M  V30 1616 C 142.556 4.26079 0.405037 0
M  V30 1617 C 141.882 5.13165 1.5022 0
M  V30 1618 C 143.182 5.1781 -0.683414 0
M  V30 1619 H 144.876 2.91905 -0.665713 0
M  V30 1620 H 142.422 1.40363 -0.321587 0
M  V30 1621 H 144.375 3.9153 1.55827 0
M  V30 1622 H 143.099 2.70331 1.83272 0
M  V30 1623 H 141.758 3.66532 -0.0704683 0
M  V30 1624 H 141.406 4.49191 2.26355 0
M  V30 1625 H 141.106 5.77812 1.06803 0
M  V30 1626 H 142.63 5.76902 2.00041 0
M  V30 1627 H 144.044 5.72661 -0.270631 0
M  V30 1628 H 142.441 5.91015 -1.04023 0
M  V30 1629 H 143.511 4.59326 -1.55395 0
M  V30 1630 N 144.854 0.36279 1.53368 0
M  V30 1631 C 146.094 -0.227882 2.03126 0
M  V30 1632 C 146.458 -1.4622 1.24434 0
M  V30 1633 O 147.659 -2.12831 1.64184 0
M  V30 1634 C 145.93 -0.515427 3.53664 0
M  V30 1635 S 147.489 -1.08017 4.25297 0
M  V30 1636 H 144.307 -0.0665377 0.70788 0
M  V30 1637 H 146.909 0.50501 1.88865 0
M  V30 1638 H 145.613 0.390436 4.08539 0
M  V30 1639 H 145.144 -1.27747 3.72081 0
M  V30 1640 H 147.159 -2.36462 4.36234 0
M  V30 1641 N 146.332 -1.57332 0.0918853 0
M  V30 1642 C 147.58 -1.93853 -0.571446 0
M  V30 1643 C 147.901 -0.974212 -1.6892 0
M  V30 1644 O 147.171 -0.0257254 -1.95883 0
M  V30 1645 H 145.751 -0.715666 -0.214082 0
M  V30 1646 H 148.413 -1.94287 0.154464 0
M  V30 1647 H 147.509 -2.96191 -0.983729 0
M  V30 1648 N 147.81 0.181792 -1.56548 0
M  V30 1649 C 148.72 1.24538 -1.98815 0
M  V30 1650 C 149.736 1.49045 -0.897861 0
M  V30 1651 O 150.912 1.61399 -1.20467 0
M  V30 1652 C 147.977 2.56683 -2.33055 0
M  V30 1653 C 147.038 2.40131 -3.55859 0
M  V30 1654 C 146.271 3.65975 -3.88456 0
M  V30 1655 O 146.494 4.70711 -3.22161 0
M  V30 1656 O 145.428 3.6071 -4.81842 0
M  V30 1657 H 149.254 0.916647 -2.89536 0
M  V30 1658 H 146.839 0.387842 -1.44278 0
M  V30 1659 H 148.721 3.34655 -2.56094 0
M  V30 1660 H 147.396 2.89157 -1.45498 0
M  V30 1661 H 146.303 1.60226 -3.38051 0
M  V30 1662 H 147.636 2.12585 -4.43924 0
M  V30 1663 N 149.288 1.51039 0.449983 0
M  V30 1664 C 150.251 1.70863 1.5277 0
M  V30 1665 C 151.251 0.578846 1.5002 0
M  V30 1666 O 152.441 0.846213 1.52266 0
M  V30 1667 C 149.573 1.75341 2.9235 0
M  V30 1668 H 150.766 2.67034 1.36502 0
M  V30 1669 H 148.319 1.40838 0.677812 0
M  V30 1670 H 149.054 0.809383 3.14037 0
M  V30 1671 H 148.839 2.57436 2.95752 0
M  V30 1672 H 150.329 1.92559 3.70555 0
M  V30 1673 N 150.766 -0.704594 1.40972 0
M  V30 1674 C 151.676 -1.84856 1.44448 0
M  V30 1675 C 152.692 -1.70726 0.335961 0
M  V30 1676 O 153.868 -1.92799 0.582276 0
M  V30 1677 C 150.933 -3.20758 1.31587 0
M  V30 1678 C 149.994 -3.47063 2.52677 0
M  V30 1679 C 149.227 -4.76481 2.4042 0
M  V30 1680 O 149.45 -5.52341 1.42391 0
M  V30 1681 O 148.384 -5.03367 3.30007 0
M  V30 1682 H 152.21 -1.8488 2.40942 0
M  V30 1683 H 149.795 -0.85647 1.22413 0
M  V30 1684 H 151.677 -4.01913 1.26665 0
M  V30 1685 H 150.352 -3.21438 0.382049 0
M  V30 1686 H 149.259 -2.65873 2.63177 0
M  V30 1687 H 150.592 -3.5119 3.44858 0
M  V30 1688 N 152.244 -1.26651 -0.937939 0
M  V30 1689 C 153.491 -1.12387 -1.6845 0
M  V30 1690 C 153.819 0.332208 -1.91642 0
M  V30 1691 O 153.074 1.2602 -1.49725 0
M  V30 1692 C 153.373 -1.84168 -3.06295 0
M  V30 1693 C 153.039 -3.34056 -3.02849 0
M  V30 1694 C 151.701 -3.74942 -3.01616 0
M  V30 1695 C 154.053 -4.29741 -2.9491 0
M  V30 1696 C 151.381 -5.09894 -2.90215 0
M  V30 1697 C 153.733 -5.64738 -2.8505 0
M  V30 1698 C 152.397 -6.0493 -2.82162 0
M  V30 1699 H 151.667 -0.411252 -0.616403 0
M  V30 1700 H 154.314 -1.57134 -1.09459 0
M  V30 1701 H 152.619 -1.319 -3.6893 0
M  V30 1702 H 154.316 -1.70569 -3.62915 0
M  V30 1703 H 150.906 -3.01534 -3.0459 0
M  V30 1704 H 155.09 -3.99133 -2.94969 0
M  V30 1705 H 150.346 -5.40194 -2.86358 0
M  V30 1706 H 154.52 -6.38561 -2.77872 0
M  V30 1707 H 152.147 -7.09457 -2.73084 0
M  V30 1708 N 153.722 1.14298 -1.08507 0
M  V30 1709 C 154.632 2.23027 -0.727753 0
M  V30 1710 C 155.648 1.71952 0.26619 0
M  V30 1711 O 156.824 2.011 0.109882 0
M  V30 1712 C 153.889 3.46403 -0.143541 0
M  V30 1713 C 152.95 4.12413 -1.19223 0
M  V30 1714 C 152.183 5.29899 -0.635798 0
M  V30 1715 O 152.406 5.67796 0.544393 0
M  V30 1716 O 151.34 5.85717 -1.38634 0
M  V30 1717 H 155.166 2.55945 -1.63481 0
M  V30 1718 H 152.751 1.22248 -0.858817 0
M  V30 1719 H 154.633 4.21018 0.179404 0
M  V30 1720 H 153.308 3.15206 0.736659 0
M  V30 1721 H 152.215 3.39667 -1.56772 0
M  V30 1722 H 153.548 4.47718 -2.04474 0
M  V30 1723 N 155.201 0.870884 1.31352 0
M  V30 1724 C 156.617 0.562932 1.49343 0
M  V30 1725 C 156.817 -0.902725 1.80148 0
M  V30 1726 O 155.873 -1.68484 1.88067 0
M  V30 1727 C 157.186 1.46393 2.62659 0
M  V30 1728 C 158.734 1.46607 2.76542 0
M  V30 1729 C 159.209 2.35266 3.92955 0
M  V30 1730 N 160.7 2.33151 4.00243 0
M  V30 1731 C 161.435 2.98471 4.89594 0
M  V30 1732 N 160.931 3.72964 5.8384 0
M  V30 1733 N 162.724 2.87775 4.82848 0
M  V30 1734 H 154.875 1.81923 1.09626 0
M  V30 1735 H 157.138 0.777934 0.541777 0
M  V30 1736 H 156.844 2.50689 2.46674 0
M  V30 1737 H 156.718 1.16314 3.58819 0
M  V30 1738 H 159.105 0.43069 2.9194 0
M  V30 1739 H 159.186 1.8071 1.81046 0
M  V30 1740 H 158.83 3.38881 3.78315 0
M  V30 1741 H 158.76 1.98487 4.87761 0
M  V30 1742 H 161.251 1.79006 3.32814 0
M  V30 1743 H 161.564 4.19932 6.4875 0
M  V30 1744 H 159.909 3.77073 5.83816 0
M  V30 1745 H 163.1 2.29116 4.08195 0
M  V30 1746 H 163.273 3.38961 5.52277 0
M  V30 1747 N 156.679 -1.44442 0.630414 0
M  V30 1748 C 157.642 -2.29107 -0.0652523 0
M  V30 1749 C 158.642 -1.41002 -0.772995 0
M  V30 1750 O 159.832 -1.62881 -0.617692 0
M  V30 1751 C 156.964 -3.22564 -1.10296 0
M  V30 1752 H 158.157 -2.92103 0.679401 0
M  V30 1753 H 155.71 -1.51343 0.390517 0
M  V30 1754 H 156.445 -2.64416 -1.87762 0
M  V30 1755 H 156.23 -3.87491 -0.59941 0
M  V30 1756 H 157.72 -3.86167 -1.5895 0
M  V30 1757 N 158.157 -0.370918 -1.53173 0
M  V30 1758 C 159.405 0.216673 -2.00935 0
M  V30 1759 C 159.726 1.48845 -1.25977 0
M  V30 1760 O 158.996 1.92286 -0.374551 0
M  V30 1761 H 157.576 0.0830565 -0.742368 0
M  V30 1762 H 160.238 -0.49838 -1.8842 0
M  V30 1763 H 159.334 0.439893 -3.08984 0
M  V30 1764 N 159.635 1.57281 -0.100228 0
M  V30 1765 C 160.582 2.14305 0.856858 0
M  V30 1766 C 161.552 1.06296 1.27634 0
M  V30 1767 O 162.737 1.34109 1.35718 0
M  V30 1768 C 159.877 2.73184 2.10866 0
M  V30 1769 C 158.99 3.95442 1.73925 0
M  V30 1770 C 158.125 4.42468 2.93931 0
M  V30 1771 C 157.164 5.57303 2.5314 0
M  V30 1772 N 156.301 5.99158 3.65997 0
M  V30 1773 H 161.141 2.95772 0.363726 0
M  V30 1774 H 158.678 1.46139 0.167858 0
M  V30 1775 H 160.636 3.05442 2.84185 0
M  V30 1776 H 159.266 1.94437 2.57671 0
M  V30 1777 H 158.318 3.69464 0.905554 0
M  V30 1778 H 159.63 4.78769 1.39935 0
M  V30 1779 H 158.784 4.76537 3.75496 0
M  V30 1780 H 157.523 3.58052 3.31134 0
M  V30 1781 H 156.528 5.22857 1.70003 0
M  V30 1782 H 157.753 6.43471 2.17075 0
M  V30 1783 H 155.699 5.17687 4.02909 0
M  V30 1784 H 155.616 6.77295 3.35869 0
M  V30 1785 H 156.884 6.3786 4.48057 0
M  V30 1786 N 161.113 -0.173488 1.56642 0
M  V30 1787 C 162.043 -1.2171 1.99271 0
M  V30 1788 C 163.024 -1.46289 0.867959 0
M  V30 1789 O 164.209 -1.5766 1.13388 0
M  V30 1790 C 161.339 -2.55651 2.35074 0
M  V30 1791 C 160.293 -2.45645 3.50489 0
M  V30 1792 C 159.619 -3.84056 3.72028 0
M  V30 1793 C 160.919 -1.96302 4.84007 0
M  V30 1794 H 162.613 -0.86275 2.867 0
M  V30 1795 H 160.159 -0.413571 1.37933 0
M  V30 1796 H 162.112 -3.2886 2.63494 0
M  V30 1797 H 160.836 -2.92869 1.44552 0
M  V30 1798 H 159.495 -1.7489 3.22194 0
M  V30 1799 H 159.143 -4.18664 2.788 0
M  V30 1800 H 158.843 -3.7823 4.49684 0
M  V30 1801 H 160.367 -4.58854 4.02846 0
M  V30 1802 H 161.781 -2.59284 5.11317 0
M  V30 1803 H 160.178 -2.01429 5.65284 0
M  V30 1804 H 161.248 -0.917226 4.76146 0
M  V30 1805 N 162.591 -1.51276 -0.441967 0
M  V30 1806 C 163.554 -1.7167 -1.51862 0
M  V30 1807 C 164.554 -0.586793 -1.49711 0
M  V30 1808 O 165.744 -0.854276 -1.51815 0
M  V30 1809 C 162.876 -1.76889 -2.91416 0
M  V30 1810 H 164.069 -2.67754 -1.35084 0
M  V30 1811 H 161.622 -1.41196 -0.670333 0
M  V30 1812 H 162.357 -0.826026 -3.13604 0
M  V30 1813 H 162.142 -2.59001 -2.94382 0
M  V30 1814 H 163.632 -1.94522 -3.69528 0
M  V30 1815 N 164.069 0.697108 -1.41344 0
M  V30 1816 C 165.294 1.49096 -1.44171 0
M  V30 1817 C 165.719 1.88038 -0.0481568 0
M  V30 1818 O 165.077 1.54525 0.948243 0
M  V30 1819 C 165.125 2.73088 -2.3549 0
M  V30 1820 O 164.229 3.70514 -1.81088 0
M  V30 1821 H 163.57 0.448801 -0.489361 0
M  V30 1822 H 166.1 0.856992 -1.85787 0
M  V30 1823 H 166.11 3.21413 -2.51312 0
M  V30 1824 H 164.785 2.44081 -3.36745 0
M  V30 1825 H 163.362 3.29441 -1.74708 0
M  V30 1826 N 165.547 1.27147 0.931209 0
M  V30 1827 C 166.494 1.09568 2.03134 0
M  V30 1828 C 167.464 -0.00222433 1.661 0
M  V30 1829 O 168.649 0.159439 1.90133 0
M  V30 1830 C 165.789 0.745231 3.36957 0
M  V30 1831 C 164.902 1.92041 3.86968 0
M  V30 1832 C 164.037 1.51216 5.09222 0
M  V30 1833 C 163.076 2.65504 5.5152 0
M  V30 1834 N 162.213 2.25291 6.64972 0
M  V30 1835 H 167.053 2.03708 2.17502 0
M  V30 1836 H 164.59 1.01411 1.06556 0
M  V30 1837 H 166.548 0.522878 4.1391 0
M  V30 1838 H 165.178 -0.159202 3.22407 0
M  V30 1839 H 164.23 2.25541 3.06326 0
M  V30 1840 H 165.542 2.77787 4.1429 0
M  V30 1841 H 164.696 1.25084 5.93666 0
M  V30 1842 H 163.435 0.625749 4.83669 0
M  V30 1843 H 162.44 2.92354 4.65628 0
M  V30 1844 H 163.665 3.54761 5.7907 0
M  V30 1845 H 161.611 1.39098 6.41083 0
M  V30 1846 H 161.528 3.04577 6.91931 0
M  V30 1847 H 162.796 2.02398 7.52765 0
M  V30 1848 N 167.025 -1.13721 1.09112 0
M  V30 1849 C 167.955 -2.21148 0.749385 0
M  V30 1850 C 168.936 -1.6792 -0.271475 0
M  V30 1851 O 170.121 -1.93693 -0.140251 0
M  V30 1852 C 167.251 -3.46905 0.165659 0
M  V30 1853 C 166.205 -4.13203 1.11567 0
M  V30 1854 C 165.531 -5.33248 0.393809 0
M  V30 1855 C 166.831 -4.60912 2.45678 0
M  V30 1856 H 168.525 -2.4999 1.64758 0
M  V30 1857 H 166.071 -1.20156 0.793626 0
M  V30 1858 H 168.024 -4.21313 -0.085466 0
M  V30 1859 H 166.748 -3.17449 -0.767714 0
M  V30 1860 H 165.407 -3.40758 1.35202 0
M  V30 1861 H 165.055 -5.00054 -0.543599 0
M  V30 1862 H 164.755 -5.78552 1.02721 0
M  V30 1863 H 166.279 -6.10413 0.150908 0
M  V30 1864 H 167.693 -5.26759 2.26269 0
M  V30 1865 H 166.09 -5.16944 3.04776 0
M  V30 1866 H 167.16 -3.75603 3.06677 0
M  V30 1867 N 168.503 -0.877838 -1.30888 0
M  V30 1868 C 169.436 -0.283995 -2.26426 0
M  V30 1869 C 170.414 0.591361 -1.51465 0
M  V30 1870 O 171.598 0.54304 -1.80509 0
M  V30 1871 C 168.725 0.597129 -3.33395 0
M  V30 1872 C 167.771 -0.207937 -4.25993 0
M  V30 1873 S 168.604 -1.59158 -5.11301 0
M  V30 1874 C 169.76 -0.716791 -6.21782 0
M  V30 1875 H 169.993 -1.09383 -2.76446 0
M  V30 1876 H 167.526 -0.676828 -1.38775 0
M  V30 1877 H 169.484 1.09978 -3.95493 0
M  V30 1878 H 168.145 1.38099 -2.82113 0
M  V30 1879 H 167.338 0.464163 -5.01858 0
M  V30 1880 H 166.94 -0.642963 -3.68432 0
M  V30 1881 H 169.232 0.0692833 -6.77465 0
M  V30 1882 H 170.175 -1.44682 -6.93161 0
M  V30 1883 H 170.583 -0.280855 -5.63801 0
M  V30 1884 N 169.982 1.44106 -0.638065 0
M  V30 1885 C 170.945 2.29138 0.0531013 0
M  V30 1886 C 171.945 1.41409 0.765506 0
M  V30 1887 O 173.135 1.63206 0.609046 0
M  V30 1888 C 170.267 3.23144 1.08584 0
M  V30 1889 H 171.46 2.91739 -0.694883 0
M  V30 1890 H 169.013 1.51134 -0.398538 0
M  V30 1891 H 169.748 2.65408 1.86357 0
M  V30 1892 H 169.533 3.87804 0.578852 0
M  V30 1893 H 171.023 3.87004 1.56899 0
M  V30 1894 N 171.46 0.379036 1.52974 0
M  V30 1895 C 172.392 -0.495963 2.2377 0
M  V30 1896 C 173.405 -1.03517 1.25651 0
M  V30 1897 O 174.594 -0.939249 1.51791 0
M  V30 1898 C 171.694 -1.69894 2.93239 0
M  V30 1899 C 170.867 -1.2889 4.17979 0
M  V30 1900 C 169.926 -2.35543 4.70538 0
M  V30 1901 O 168.952 -1.97375 5.33883 0
M  V30 1902 N 170.154 -3.67318 4.49508 0
M  V30 1903 H 172.919 0.110523 2.99496 0
M  V30 1904 H 170.48 0.204878 1.60598 0
M  V30 1905 H 172.472 -2.40747 3.25304 0
M  V30 1906 H 171.042 -2.212 2.20883 0
M  V30 1907 H 170.262 -0.409676 3.92065 0
M  V30 1908 H 171.55 -0.991443 4.99047 0
M  V30 1909 H 170.948 -4.01095 3.98923 0
M  V30 1910 H 169.505 -4.34235 4.8609 0
M  V30 1911 N 172.938 -1.57226 0.108567 0
M  V30 1912 C 174.163 -1.99604 -0.563303 0
M  V30 1913 C 174.588 -0.987563 -1.6009 0
M  V30 1914 O 173.946 0.0421687 -1.81251 0
M  V30 1915 C 173.994 -3.40902 -1.17552 0
M  V30 1916 O 173.098 -3.42896 -2.2912 0
M  V30 1917 H 172.439 -0.648704 -0.1417 0
M  V30 1918 H 174.969 -2.03679 0.193961 0
M  V30 1919 H 174.979 -3.78886 -1.51357 0
M  V30 1920 H 173.654 -4.1382 -0.415445 0
M  V30 1921 H 172.231 -3.1672 -1.96832 0
M  V30 1922 N 174.416 0.165178 -1.56732 0
M  V30 1923 C 175.366 1.20917 -1.93295 0
M  V30 1924 C 176.35 1.39488 -0.801985 0
M  V30 1925 O 177.542 1.41356 -1.06525 0
M  V30 1926 C 174.671 2.54718 -2.3016 0
M  V30 1927 C 173.757 2.39815 -3.49785 0
M  V30 1928 N 174.148 1.94637 -4.66851 0
M  V30 1929 C 172.446 2.70623 -3.54513 0
M  V30 1930 C 173.147 1.92344 -5.4898 0
M  V30 1931 N 172.123 2.34978 -4.9019 0
M  V30 1932 H 175.925 0.851675 -2.81289 0
M  V30 1933 H 173.439 0.373399 -1.58049 0
M  V30 1934 H 175.436 3.30165 -2.54552 0
M  V30 1935 H 174.096 2.91265 -1.43508 0
M  V30 1936 H 175.107 1.6488 -4.90953 0
M  V30 1937 H 171.784 3.11167 -2.78354 0
M  V30 1938 H 173.174 1.5906 -6.52801 0
M  V30 1939 N 175.894 1.51508 0.433938 0
M  V30 1940 C 177.142 1.6402 1.18075 0
M  V30 1941 C 177.463 0.360328 1.91642 0
M  V30 1942 O 176.733 -0.623945 1.85698 0
M  V30 1943 H 175.313 0.6045 0.43885 0
M  V30 1944 H 177.975 1.88452 0.497178 0
M  V30 1945 H 177.071 2.46949 1.90847 0
M  V30 1946 N 177.372 -0.689602 1.41712 0
M  V30 1947 C 178.621 -1.44534 1.40686 0
M  V30 1948 C 178.934 -1.95588 0.0213352 0
M  V30 1949 O 180.14 -2.71271 -0.111534 0
M  V30 1950 C 178.596 -2.61387 2.47396 0
M  V30 1951 C 178.204 -2.17094 3.91885 0
M  V30 1952 C 179.948 -3.38986 2.55517 0
M  V30 1953 C 177.855 -3.3094 4.90135 0
M  V30 1954 H 176.785 -0.542925 0.52321 0
M  V30 1955 H 179.436 -0.748054 1.6756 0
M  V30 1956 H 177.818 -3.33412 2.13664 0
M  V30 1957 H 178.992 -1.52318 4.34897 0
M  V30 1958 H 177.307 -1.52473 3.8748 0
M  V30 1959 H 179.904 -4.23747 3.26102 0
M  V30 1960 H 180.247 -3.84578 1.59391 0
M  V30 1961 H 180.78 -2.74021 2.8837 0
M  V30 1962 H 177.519 -2.90355 5.87685 0
M  V30 1963 H 177.039 -3.94546 4.51767 0
M  V30 1964 H 178.718 -3.9663 5.11169 0
M  V30 1965 N 178.85 -1.27639 -0.924453 0
M  V30 1966 C 179.78 -1.13166 -2.04244 0
M  V30 1967 C 180.761 -0.032256 -1.70069 0
M  V30 1968 O 181.946 -0.207328 -1.9309 0
M  V30 1969 C 179.076 -0.781496 -3.38393 0
M  V30 1970 C 178.03 -1.83449 -3.86692 0
M  V30 1971 C 177.356 -1.33822 -5.17683 0
M  V30 1972 C 178.656 -3.23917 -4.09726 0
M  V30 1973 H 180.35 -2.06689 -2.1661 0
M  V30 1974 H 177.896 -0.995136 -1.04082 0
M  V30 1975 H 179.849 -0.667057 -4.16087 0
M  V30 1976 H 178.573 0.189439 -3.2605 0
M  V30 1977 H 177.232 -1.93789 -3.11193 0
M  V30 1978 H 176.88 -0.35665 -5.01734 0
M  V30 1979 H 176.58 -2.04224 -5.50968 0
M  V30 1980 H 178.104 -1.23679 -5.97943 0
M  V30 1981 H 179.518 -3.16559 -4.77978 0
M  V30 1982 H 177.915 -3.92059 -4.54324 0
M  V30 1983 H 178.985 -3.68729 -3.14908 0
M  V30 1984 N 180.328 1.1314 -1.09713 0
M  V30 1985 C 181.575 1.84484 -0.834987 0
M  V30 1986 C 181.903 1.83689 0.639418 0
M  V30 1987 O 181.158 1.2724 1.4869 0
M  V30 1988 C 181.457 3.32167 -1.3191 0
M  V30 1989 C 181.123 3.53139 -2.80363 0
M  V30 1990 C 179.785 3.58571 -3.20905 0
M  V30 1991 C 182.137 3.60866 -3.76065 0
M  V30 1992 C 179.465 3.69267 -4.55916 0
M  V30 1993 C 181.817 3.73089 -5.10869 0
M  V30 1994 C 180.481 3.76775 -5.50996 0
M  V30 1995 H 179.751 0.675073 -0.305544 0
M  V30 1996 H 182.398 1.33554 -1.37243 0
M  V30 1997 H 180.703 3.85469 -0.701517 0
M  V30 1998 H 182.4 3.85821 -1.09284 0
M  V30 1999 H 178.99 3.49569 -2.47991 0
M  V30 2000 H 183.174 3.55946 -3.45855 0
M  V30 2001 H 178.43 3.70388 -4.86438 0
M  V30 2002 H 182.604 3.78011 -5.84877 0
M  V30 2003 H 180.231 3.84815 -6.55608 0
M  V30 2004 N 181.806 0.884767 1.30421 0
M  V30 2005 C 183.054 0.502112 1.95763 0
M  V30 2006 C 183.375 -0.951815 1.70192 0
M  V30 2007 O 182.645 -1.6692 1.0254 0
M  V30 2008 H 181.225 0.182694 0.724315 0
M  V30 2009 H 183.887 1.1278 1.58955 0
M  V30 2010 H 182.983 0.672188 3.04775 0
M  V30 2011 N 183.284 -1.43765 0.645699 0
M  V30 2012 C 184.247 -2.29163 -0.0409488 0
M  V30 2013 C 185.247 -1.41813 -0.757996 0
M  V30 2014 O 186.437 -1.63527 -0.600382 0
M  V30 2015 C 183.569 -3.23716 -1.06869 0
M  V30 2016 H 184.762 -2.91366 0.710345 0
M  V30 2017 H 182.315 -1.5092 0.406547 0
M  V30 2018 H 183.05 -2.66393 -1.84947 0
M  V30 2019 H 182.835 -3.88105 -0.558277 0
M  V30 2020 H 184.325 -3.87831 -1.54845 0
M  V30 2021 N 184.763 -0.387143 -1.52771 0
M  V30 2022 C 185.988 0.198407 -2.06449 0
M  V30 2023 C 186.413 1.39918 -1.25716 0
M  V30 2024 O 185.771 1.79099 -0.281657 0
M  V30 2025 C 185.819 0.548893 -3.56398 0
M  V30 2026 O 184.923 1.64315 -3.78252 0
M  V30 2027 H 184.264 0.0237731 -0.663574 0
M  V30 2028 H 186.794 -0.553989 -1.96957 0
M  V30 2029 H 186.804 0.813812 -3.99801 0
M  V30 2030 H 185.479 -0.329005 -4.14597 0
M  V30 2031 H 184.056 1.37211 -3.46738 0
M  V30 2032 N 186.241 1.57166 -0.116904 0
M  V30 2033 C 187.487 1.95412 0.542405 0
M  V30 2034 C 187.82 1.00019 1.66463 0
M  V30 2035 O 187.095 0.0370346 1.94465 0
M  V30 2036 C 187.378 3.43615 1.07708 0
M  V30 2037 C 187.231 4.49781 -0.0415868 0
M  V30 2038 C 188.55 3.93616 1.96861 0
M  V30 2039 H 185.669 0.710543 0.195696 0
M  V30 2040 H 188.311 1.89027 -0.192038 0
M  V30 2041 H 186.461 3.49187 1.70296 0
M  V30 2042 H 188.133 4.56308 -0.676793 0
M  V30 2043 H 186.376 4.28033 -0.705019 0
M  V30 2044 H 187.047 5.50733 0.373717 0
M  V30 2045 H 189.523 3.90335 1.44146 0
M  V30 2046 H 188.399 4.97838 2.3119 0
M  V30 2047 H 188.66 3.34188 2.89432 0
M  V30 2048 N 187.719 -0.156864 1.56817 0
M  V30 2049 C 188.682 -1.17781 1.96622 0
M  V30 2050 C 189.682 -1.36401 0.851555 0
M  V30 2051 O 190.872 -1.33561 1.11836 0
M  V30 2052 C 188.004 -2.54008 2.27361 0
M  V30 2053 H 189.197 -0.836564 2.87996 0
M  V30 2054 H 186.75 -0.39985 1.51099 0
M  V30 2055 H 187.485 -2.9312 1.38748 0
M  V30 2056 H 187.27 -2.41856 3.08623 0
M  V30 2057 H 188.76 -3.27558 2.59029 0
M  V30 2058 N 189.197 -1.51736 -0.425897 0
M  V30 2059 C 190.107 -1.76738 -1.54275 0
M  V30 2060 C 191.123 -0.65211 -1.61318 0
M  V30 2061 O 192.299 -0.935654 -1.78346 0
M  V30 2062 C 189.364 -1.89755 -2.90162 0
M  V30 2063 C 188.425 -3.13633 -2.93143 0
M  V30 2064 C 187.658 -3.2602 -4.22548 0
M  V30 2065 O 187.881 -2.44067 -5.15546 0
M  V30 2066 O 186.815 -4.19071 -4.32046 0
M  V30 2067 H 190.641 -2.71502 -1.36089 0
M  V30 2068 H 188.226 -1.36376 -0.610069 0
M  V30 2069 H 190.108 -2.00236 -3.70788 0
M  V30 2070 H 188.783 -0.981785 -3.08452 0
M  V30 2071 H 187.69 -3.08622 -2.11431 0
M  V30 2072 H 189.023 -4.04936 -2.798 0
M  V30 2073 N 190.675 0.682077 -1.42076 0
M  V30 2074 C 191.638 1.77756 -1.44691 0
M  V30 2075 C 192.638 1.5726 -0.335535 0
M  V30 2076 O 193.828 1.63686 -0.596037 0
M  V30 2077 C 190.96 3.16301 -1.27146 0
M  V30 2078 H 192.153 1.76826 -2.42224 0
M  V30 2079 H 189.706 0.891012 -1.28416 0
M  V30 2080 H 190.441 3.22862 -0.305075 0
M  V30 2081 H 190.226 3.32581 -2.07683 0
M  V30 2082 H 191.716 3.96241 -1.31843 0
M  V30 2083 N 192.153 1.28127 0.917671 0
M  V30 2084 C 193.101 1.11569 2.04096 0
M  V30 2085 C 194.095 0.0360242 1.69362 0
M  V30 2086 O 195.301 0.194501 1.78946 0
M  V30 2087 H 191.676 0.344097 0.668656 0
M  V30 2088 H 193.647 2.06711 2.15205 0
M  V30 2089 C 192.396 0.790197 3.38602 0
M  V30 2090 H 191.719 1.61293 3.6582 0
M  V30 2091 H 193.159 0.714271 4.1794 0
M  V30 2092 C 191.618 -0.505897 3.3308 0
M  V30 2093 O 192.148 -1.53736 3.71117 0
M  V30 2094 N 190.354 -0.505193 2.86175 0
M  V30 2095 H 189.901 0.334621 2.55417 0
M  V30 2096 H 189.859 -1.37243 2.82863 0
M  V30 2097 N 193.631 -1.12557 1.10312 0
M  V30 2098 C 194.594 -2.16434 0.75424 0
M  V30 2099 C 195.594 -1.59278 -0.220685 0
M  V30 2100 O 196.784 -1.742 0.00230591 0
M  V30 2101 C 193.916 -3.40699 0.116987 0
M  V30 2102 H 195.109 -2.48811 1.67431 0
M  V30 2103 H 192.662 -1.27542 0.903475 0
M  V30 2104 H 193.397 -3.13921 -0.813877 0
M  V30 2105 H 193.182 -3.83459 0.818613 0
M  V30 2106 H 194.672 -4.17451 -0.111387 0
M  V30 2107 N 195.109 -0.891671 -1.2995 0
M  V30 2108 C 196.334 -0.527932 -2.00568 0
M  V30 2109 C 196.759 0.877969 -1.66353 0
M  V30 2110 O 196.117 1.58301 -0.883762 0
M  V30 2111 C 196.165 -0.717745 -3.53385 0
M  V30 2112 O 195.269 0.233376 -4.11739 0
M  V30 2113 H 194.61 -0.20722 -0.630837 0
M  V30 2114 H 197.14 -1.20105 -1.65638 0
M  V30 2115 H 197.15 -0.619307 -4.03272 0
M  V30 2116 H 195.825 -1.74276 -3.77625 0
M  V30 2117 H 194.402 0.0880706 -3.72796 0
M  V30 2118 N 196.587 1.43421 -0.653314 0
M  V30 2119 C 197.55 2.29182 0.0287951 0
M  V30 2120 C 198.55 1.42213 0.750465 0
M  V30 2121 O 199.74 1.63843 0.591701 0
M  V30 2122 C 196.872 3.24278 1.05151 0
M  V30 2123 H 198.065 2.90985 -0.725786 0
M  V30 2124 H 195.618 1.50702 -0.414545 0
M  V30 2125 H 196.353 2.6737 1.83532 0
M  V30 2126 H 196.138 3.88396 0.537687 0
M  V30 2127 H 197.628 3.88647 1.52786 0
M  V30 2128 N 198.065 0.39524 1.52563 0
M  V30 2129 C 199.295 -0.184675 2.05773 0
M  V30 2130 C 199.703 -1.40571 1.26635 0
M  V30 2131 O 199.046 -1.81105 0.30769 0
M  V30 2132 C 199.108 -0.613551 3.54226 0
M  V30 2133 C 198.772 0.49484 4.54313 0
M  V30 2134 C 199.769 1.3541 5.01956 0
M  V30 2135 C 197.454 0.663565 4.97898 0
M  V30 2136 C 199.448 2.36716 5.91814 0
M  V30 2137 C 197.135 1.67996 5.87555 0
M  V30 2138 C 198.133 2.53017 6.34406 0
M  V30 2139 O 197.821 3.52917 7.22291 0
M  V30 2140 H 197.553 -0.030077 0.675331 0
M  V30 2141 H 200.107 0.560708 1.97599 0
M  V30 2142 H 198.337 -1.411 3.60038 0
M  V30 2143 H 200.026 -1.11981 3.90148 0
M  V30 2144 H 200.792 1.23509 4.6901 0
M  V30 2145 H 196.671 0.0114913 4.60999 0
M  V30 2146 H 200.215 3.03113 6.28306 0
M  V30 2147 H 196.112 1.79933 6.19915 0
M  V30 2148 H 196.88 3.48996 7.40367 0
M  V30 2149 N 199.544 -1.57102 0.125237 0
M  V30 2150 C 200.96 -1.57915 -0.231322 0
M  V30 2151 C 201.16 -1.13833 -1.66266 0
M  V30 2152 O 200.216 -0.828581 -2.38518 0
M  V30 2153 C 201.529 -3.00699 0.00766489 0
M  V30 2154 C 203.077 -3.12947 -0.0577483 0
M  V30 2155 C 203.552 -4.57742 0.153626 0
M  V30 2156 N 205.043 -4.63092 0.0998073 0
M  V30 2157 C 205.778 -5.72905 0.238174 0
M  V30 2158 N 205.274 -6.91445 0.433057 0
M  V30 2159 N 207.067 -5.6182 0.177308 0
M  V30 2160 H 199.218 -1.84055 1.06007 0
M  V30 2161 H 201.481 -0.850905 0.417929 0
M  V30 2162 H 201.187 -3.3726 0.997431 0
M  V30 2163 H 201.061 -3.70236 -0.721452 0
M  V30 2164 H 203.448 -2.7624 -1.03804 0
M  V30 2165 H 203.529 -2.4594 0.70335 0
M  V30 2166 H 203.173 -4.95149 1.13092 0
M  V30 2167 H 203.103 -5.22848 -0.627534 0
M  V30 2168 H 205.594 -3.77871 -0.047051 0
M  V30 2169 H 205.907 -7.70985 0.529332 0
M  V30 2170 H 204.252 -6.93415 0.469109 0
M  V30 2171 H 207.443 -4.68093 0.0259748 0
M  V30 2172 H 207.616 -6.47357 0.288582 0
M  V30 2173 N 201.022 0.148545 -1.56898 0
M  V30 2174 C 202.299 0.890019 -1.74178 0
M  V30 2175 C 202.679 1.99407 -0.692839 0
M  V30 2176 O 202.027 2.26671 0.288505 0
M  V30 2177 C 202.237 1.43389 -3.18183 0
M  V30 2178 C 203.585 1.89791 -3.79822 0
M  V30 2179 O 204.609 1.53134 -3.21603 0
M  V30 2180 O 203.468 2.57387 -4.82093 0
M  V30 2181 H 200.562 0.420496 -0.712118 0
M  V30 2182 H 203.108 0.134591 -1.69165 0
M  V30 2183 H 201.88 0.640383 -3.86024 0
M  V30 2184 H 201.503 2.25287 -3.27615 0
M  V30 2185 N 202.5 1.5196 0.417844 0
M  V30 2186 C 203.746 1.65836 1.16732 0
M  V30 2187 C 204.079 0.382881 1.90388 0
M  V30 2188 O 203.354 -0.618368 1.84408 0
M  V30 2189 C 203.637 2.87466 2.16876 0
M  V30 2190 C 203.49 4.25041 1.47174 0
M  V30 2191 C 204.809 3.04613 3.17646 0
M  V30 2192 H 201.928 0.603515 0.423011 0
M  V30 2193 H 204.57 1.84494 0.454105 0
M  V30 2194 H 202.72 2.71689 2.777 0
M  V30 2195 H 204.392 4.52527 0.895376 0
M  V30 2196 H 202.635 4.26843 0.773806 0
M  V30 2197 H 203.306 5.06176 2.20204 0
M  V30 2198 H 205.782 3.1923 2.66892 0
M  V30 2199 H 204.658 3.91247 3.8499 0
M  V30 2200 H 204.919 2.17541 3.84874 0
M  V30 2201 N 203.978 -0.674533 1.42435 0
M  V30 2202 C 205.218 -1.4466 1.44405 0
M  V30 2203 C 205.582 -1.91911 0.0585784 0
M  V30 2204 O 206.783 -2.68759 -0.0469991 0
M  V30 2205 C 205.054 -2.61136 2.44013 0
M  V30 2206 S 206.613 -3.49981 2.64687 0
M  V30 2207 H 203.431 -0.494074 0.511284 0
M  V30 2208 H 206.033 -0.785162 1.7904 0
M  V30 2209 H 204.737 -2.24662 3.43446 0
M  V30 2210 H 204.268 -3.32153 2.10803 0
M  V30 2211 H 206.283 -4.57124 1.93007 0
M  V30 2212 N 205.456 -1.28612 -0.910864 0
M  V30 2213 C 206.388 -1.08589 -2.01844 0
M  V30 2214 C 207.401 -0.0367419 -1.62759 0
M  V30 2215 O 208.59 -0.280101 -1.76289 0
M  V30 2216 C 205.69 -0.628626 -3.33019 0
M  V30 2217 C 204.863 -1.75382 -4.00699 0
M  V30 2218 C 203.922 -1.28945 -5.10156 0
M  V30 2219 O 202.948 -1.9922 -5.33198 0
M  V30 2220 N 204.15 -0.154224 -5.80295 0
M  V30 2221 H 206.915 -2.03973 -2.19579 0
M  V30 2222 H 204.476 -1.20403 -1.08234 0
M  V30 2223 H 206.468 -0.301508 -4.03575 0
M  V30 2224 H 205.038 0.232451 -3.11735 0
M  V30 2225 H 204.258 -2.25039 -3.23653 0
M  V30 2226 H 205.546 -2.50854 -4.42662 0
M  V30 2227 H 204.944 0.43194 -5.64049 0
M  V30 2228 H 203.501 0.113599 -6.51701 0
M  V30 2229 N 206.934 1.1197 -1.10907 0
M  V30 2230 C 207.844 2.21433 -0.774896 0
M  V30 2231 C 208.86 1.72478 0.229657 0
M  V30 2232 O 210.036 2.01288 0.0672008 0
M  V30 2233 C 207.101 3.4602 -0.216986 0
M  V30 2234 C 206.162 4.09791 -1.27944 0
M  V30 2235 C 205.395 5.28431 -0.748055 0
M  V30 2236 O 205.618 5.68823 0.423833 0
M  V30 2237 O 204.552 5.82644 -1.51027 0
M  V30 2238 H 208.378 2.5242 -1.68873 0
M  V30 2239 H 205.963 1.20399 -0.884555 0
M  V30 2240 H 207.845 4.21304 0.090059 0
M  V30 2241 H 206.52 3.16698 0.669633 0
M  V30 2242 H 205.427 3.36265 -1.63941 0
M  V30 2243 H 206.76 4.4328 -2.13925 0
M  V30 2244 N 208.412 0.89855 1.29475 0
M  V30 2245 C 209.661 0.519863 1.94885 0
M  V30 2246 C 209.974 -0.9383 1.71625 0
M  V30 2247 O 211.18 -1.42445 2.31131 0
M  V30 2248 C 209.636 0.878836 3.49005 0
M  V30 2249 C 209.244 2.35569 3.81066 0
M  V30 2250 C 210.988 0.570004 4.20656 0
M  V30 2251 C 208.895 2.65558 5.28425 0
M  V30 2252 H 207.825 0.190692 0.729488 0
M  V30 2253 H 210.476 1.09539 1.47219 0
M  V30 2254 H 208.858 0.232253 3.95318 0
M  V30 2255 H 210.032 3.04773 3.45616 0
M  V30 2256 H 208.347 2.63343 3.22552 0
M  V30 2257 H 210.944 0.770925 5.29113 0
M  V30 2258 H 211.287 -0.491404 4.1339 0
M  V30 2259 H 211.82 1.17438 3.8007 0
M  V30 2260 H 208.559 3.70493 5.40754 0
M  V30 2261 H 208.079 2.00977 5.65127 0
M  V30 2262 H 209.758 2.51765 5.96006 0
M  V30 2263 N 209.89 -1.43072 0.660911 0
M  V30 2264 C 210.838 -2.32569 -0.0378199 0
M  V30 2265 C 211.832 -1.49046 -0.805092 0
M  V30 2266 O 213.038 -1.65206 -0.714624 0
M  V30 2267 H 209.413 -0.75136 -0.031019 0
M  V30 2268 H 211.384 -2.89216 0.734609 0
M  V30 2269 C 210.133 -3.33453 -0.985124 0
M  V30 2270 H 209.456 -3.97752 -0.404147 0
M  V30 2271 H 210.896 -3.98691 -1.44297 0
M  V30 2272 C 209.355 -2.64642 -2.08486 0
M  V30 2273 O 209.885 -2.46776 -3.16961 0
M  V30 2274 N 208.091 -2.23891 -1.8526 0
M  V30 2275 H 207.638 -2.38621 -0.970449 0
M  V30 2276 H 207.596 -1.78181 -2.59034 0
M  V30 2277 N 211.368 -0.403325 -1.52352 0
M  V30 2278 C 212.645 0.232611 -1.94212 0
M  V30 2279 C 213.025 1.63133 -1.33981 0
M  V30 2280 O 212.373 2.22659 -0.513344 0
M  V30 2281 C 212.583 0.244811 -3.4814 0
M  V30 2282 C 213.931 0.46698 -4.22024 0
M  V30 2283 O 214.955 0.324419 -3.5472 0
M  V30 2284 O 213.814 0.74747 -5.41364 0
M  V30 2285 H 210.908 0.148223 -0.813609 0
M  V30 2286 H 213.454 -0.458848 -1.63379 0
M  V30 2287 H 212.226 -0.734378 -3.84347 0
M  V30 2288 H 211.849 0.980611 -3.85318 0
M  V30 2289 N 212.846 1.57033 -0.133567 0
M  V30 2290 C 214.074 2.00044 0.528195 0
M  V30 2291 C 214.489 1.01349 1.59291 0
M  V30 2292 O 213.846 0.00848369 1.82498 0
M  V30 2293 C 213.897 3.43018 1.1411 0
M  V30 2294 O 213.618 4.37939 0.11892 0
M  V30 2295 C 215.119 4.01237 1.88477 0
M  V30 2296 H 212.339 0.656517 0.138661 0
M  V30 2297 H 214.883 2.03267 -0.224196 0
M  V30 2298 H 213.038 3.40688 1.84418 0
M  V30 2299 H 213.452 5.21436 0.56613 0
M  V30 2300 H 214.926 5.03314 2.26669 0
M  V30 2301 H 215.403 3.41193 2.76558 0
M  V30 2302 H 216.009 4.07156 1.22898 0
M  V30 2303 N 214.325 -0.140222 1.56975 0
M  V30 2304 C 215.574 -0.850152 1.82908 0
M  V30 2305 C 215.887 -1.82028 0.715892 0
M  V30 2306 O 217.093 -2.57485 0.861016 0
M  V30 2307 C 215.549 -1.5625 3.24213 0
M  V30 2308 C 215.157 -0.63443 4.43485 0
M  V30 2309 C 216.901 -2.25881 3.59413 0
M  V30 2310 C 214.808 -1.34879 5.75814 0
M  V30 2311 H 213.738 -0.321221 0.682153 0
M  V30 2312 H 216.389 -0.102874 1.83211 0
M  V30 2313 H 214.771 -2.35565 3.18316 0
M  V30 2314 H 215.945 0.12398 4.60633 0
M  V30 2315 H 214.26 -0.0461836 4.16374 0
M  V30 2316 H 216.857 -2.79978 4.5554 0
M  V30 2317 H 217.2 -3.02693 2.85802 0
M  V30 2318 H 217.733 -1.53477 3.67001 0
M  V30 2319 H 214.472 -0.622385 6.52539 0
M  V30 2320 H 213.992 -2.07974 5.6259 0
M  V30 2321 H 215.671 -1.88784 6.18845 0
M  V30 2322 N 215.803 -1.52179 -0.40978 0
M  V30 2323 C 216.75 -1.75475 -1.49924 0
M  V30 2324 C 217.72 -0.597175 -1.54994 0
M  V30 2325 O 218.905 -0.834655 -1.71575 0
M  V30 2326 C 216.045 -1.9107 -2.87378 0
M  V30 2327 C 215.158 -3.18717 -2.91622 0
M  V30 2328 C 214.293 -3.24747 -4.20372 0
M  V30 2329 C 213.332 -4.46598 -4.18588 0
M  V30 2330 N 212.469 -4.50025 -5.38908 0
M  V30 2331 H 217.309 -2.68458 -1.29361 0
M  V30 2332 H 214.846 -1.33024 -0.627934 0
M  V30 2333 H 216.804 -1.98096 -3.6717 0
M  V30 2334 H 215.434 -1.01469 -3.06437 0
M  V30 2335 H 214.486 -3.20866 -2.04326 0
M  V30 2336 H 215.798 -4.08544 -2.86169 0
M  V30 2337 H 214.952 -3.30841 -5.08556 0
M  V30 2338 H 213.691 -2.32857 -4.28519 0
M  V30 2339 H 212.696 -4.40652 -3.28794 0
M  V30 2340 H 213.921 -5.39783 -4.12081 0
M  V30 2341 H 211.867 -3.61017 -5.47725 0
M  V30 2342 H 211.784 -5.33697 -5.35447 0
M  V30 2343 H 213.052 -4.60347 -6.29048 0
M  V30 2344 N 217.281 0.66697 -1.42791 0
M  V30 2345 C 218.529 1.42417 -1.43394 0
M  V30 2346 C 218.85 1.94925 -0.0542373 0
M  V30 2347 O 218.12 1.73564 0.908415 0
M  V30 2348 H 216.7 0.528515 -0.527902 0
M  V30 2349 H 219.362 0.787562 -1.78279 0
M  V30 2350 H 218.458 2.27333 -2.13837 0
M  V30 2351 N 218.759 1.29093 0.90403 0
M  V30 2352 C 220.17 1.15186 1.46932 0
M  V30 2353 C 220.521 -0.254587 1.94541 0
M  V30 2354 O 219.646 -1.14972 1.83332 0
M  V30 2355 C 220.241 2.08492 2.67051 0
M  V30 2356 C 218.8 1.98621 3.19729 0
M  V30 2357 C 217.947 1.9967 1.92425 0
M  V30 2358 H 220.898 1.41641 0.715789 0
M  V30 2359 H 220.919 1.65461 3.42641 0
M  V30 2360 H 220.431 3.10847 2.3237 0
M  V30 2361 H 218.532 0.993389 3.59114 0
M  V30 2362 H 218.645 2.86068 3.8432 0
M  V30 2363 H 217.009 1.44208 2.09943 0
M  V30 2364 H 217.792 3.03721 1.60026 0
M  V30 2365 N 220.237 -1.11381 1.11499 0
M  V30 2366 C 221.467 -1.86663 0.885464 0
M  V30 2367 C 221.875 -1.80464 -0.568281 0
M  V30 2368 O 221.218 -1.18445 -1.40415 0
M  V30 2369 C 221.28 -3.36337 1.26956 0
M  V30 2370 C 220.944 -3.66304 2.73259 0
M  V30 2371 C 221.941 -3.63733 3.71476 0
M  V30 2372 C 219.626 -3.9529 3.09921 0
M  V30 2373 C 221.62 -3.89725 5.04374 0
M  V30 2374 C 219.307 -4.20941 4.43004 0
M  V30 2375 C 220.305 -4.18147 5.40039 0
M  V30 2376 O 219.993 -4.43153 6.70724 0
M  V30 2377 H 219.725 -0.597114 0.316908 0
M  V30 2378 H 222.279 -1.41782 1.48617 0
M  V30 2379 H 220.509 -3.81826 0.611999 0
M  V30 2380 H 222.198 -3.92986 1.01573 0
M  V30 2381 H 222.964 -3.41389 3.44498 0
M  V30 2382 H 218.843 -3.966 2.35009 0
M  V30 2383 H 222.387 -3.8746 5.80104 0
M  V30 2384 H 218.284 -4.42761 4.69716 0
M  V30 2385 H 219.052 -4.60717 6.76522 0
M  V30 2386 N 221.715 -0.905404 -1.28997 0
M  V30 2387 C 222.645 -0.404212 -2.29975 0
M  V30 2388 C 223.626 0.523784 -1.61835 0
M  V30 2389 O 224.811 0.433298 -1.89304 0
M  V30 2390 C 221.941 0.364042 -3.45387 0
M  V30 2391 C 220.895 -0.474048 -4.25367 0
M  V30 2392 C 220.221 0.422045 -5.33032 0
M  V30 2393 C 221.521 -1.72696 -4.92923 0
M  V30 2394 H 223.215 -1.24807 -2.72146 0
M  V30 2395 H 220.761 -0.601585 -1.30832 0
M  V30 2396 H 222.714 0.725447 -4.15109 0
M  V30 2397 H 221.438 1.24174 -3.02074 0
M  V30 2398 H 220.097 -0.81786 -3.57361 0
M  V30 2399 H 219.745 1.29804 -4.85963 0
M  V30 2400 H 219.445 -0.135057 -5.87445 0
M  V30 2401 H 220.969 0.779517 -6.05604 0
M  V30 2402 H 222.383 -1.43495 -5.55051 0
M  V30 2403 H 220.78 -2.22582 -5.57295 0
M  V30 2404 H 221.85 -2.45964 -4.17887 0
M  V30 2405 N 223.193 1.4272 -0.668489 0
M  V30 2406 C 224.123 2.335 -0.000100175 0
M  V30 2407 C 225.104 1.50328 0.795964 0
M  V30 2408 O 226.289 1.78949 0.754385 0
M  V30 2409 C 223.419 3.33874 0.956302 0
M  V30 2410 C 222.373 4.27152 0.269278 0
M  V30 2411 C 221.699 5.17684 1.33818 0
M  V30 2412 C 222.999 5.15373 -0.847805 0
M  V30 2413 H 224.693 2.89639 -0.758244 0
M  V30 2414 H 222.239 1.39269 -0.366079 0
M  V30 2415 H 224.192 3.9629 1.43292 0
M  V30 2416 H 222.916 2.76025 1.74579 0
M  V30 2417 H 221.575 3.66123 -0.187042 0
M  V30 2418 H 221.223 4.56165 2.1195 0
M  V30 2419 H 220.923 5.80918 0.883659 0
M  V30 2420 H 222.447 5.82974 1.81586 0
M  V30 2421 H 223.861 5.7151 -0.452681 0
M  V30 2422 H 222.258 5.87407 -1.22773 0
M  V30 2423 H 223.328 4.5415 -1.69929 0
M  V30 2424 N 224.671 0.411399 1.52136 0
M  V30 2425 C 225.919 -0.163322 2.01439 0
M  V30 2426 C 226.24 -1.45453 1.29879 0
M  V30 2427 O 225.51 -1.91225 0.4254 0
M  V30 2428 H 224.09 -0.0633447 0.744309 0
M  V30 2429 H 226.752 0.548161 1.87033 0
M  V30 2430 H 225.848 -0.357817 3.10042 0
M  V30 2431 N 226.149 -1.5696 0.141893 0
M  V30 2432 C 227.426 -1.87553 -0.555281 0
M  V30 2433 C 227.806 -1.04699 -1.83306 0
M  V30 2434 O 227.154 -0.132346 -2.28116 0
M  V30 2435 C 227.364 -3.39093 -0.825664 0
M  V30 2436 C 228.712 -4.08199 -1.16869 0
M  V30 2437 O 229.736 -3.44242 -0.915185 0
M  V30 2438 O 228.595 -5.21139 -1.6455 0
M  V30 2439 H 225.689 -0.777188 -0.282679 0
M  V30 2440 H 228.235 -1.68763 0.17812 0
M  V30 2441 H 227.007 -3.91221 0.0788633 0
M  V30 2442 H 226.63 -3.63393 -1.61343 0
M  V30 2443 N 227.627 0.131896 -1.57047 0
M  V30 2444 C 228.574 1.16236 -1.99393 0
M  V30 2445 C 229.544 1.41863 -0.863943 0
M  V30 2446 O 230.729 1.53946 -1.12718 0
M  V30 2447 C 227.869 2.48708 -2.39245 0
M  V30 2448 C 226.982 2.30127 -3.65603 0
M  V30 2449 C 226.117 3.55738 -3.94492 0
M  V30 2450 C 225.156 3.32259 -5.14073 0
M  V30 2451 N 224.293 4.50039 -5.38896 0
M  V30 2452 H 229.133 0.794251 -2.87221 0
M  V30 2453 H 226.67 0.380707 -1.42088 0
M  V30 2454 H 228.628 3.25969 -2.60384 0
M  V30 2455 H 227.258 2.83437 -1.54478 0
M  V30 2456 H 226.31 1.43845 -3.52154 0
M  V30 2457 H 227.622 2.08746 -4.5302 0
M  V30 2458 H 226.776 4.41423 -4.1621 0
M  V30 2459 H 225.515 3.80138 -3.05526 0
M  V30 2460 H 224.52 2.44963 -4.92212 0
M  V30 2461 H 225.745 3.09242 -6.04604 0
M  V30 2462 H 223.691 4.74584 -4.52886 0
M  V30 2463 H 223.608 4.31716 -6.2061 0
M  V30 2464 H 224.876 5.36895 -5.65123 0
M  V30 2465 N 229.106 1.52395 0.401703 0
M  V30 2466 C 230.036 1.79231 1.49661 0
M  V30 2467 C 231.017 0.643654 1.57452 0
M  V30 2468 O 232.202 0.889989 1.72606 0
M  V30 2469 C 229.332 1.94971 2.87409 0
M  V30 2470 C 228.286 3.10604 2.94465 0
M  V30 2471 C 227.612 3.11577 4.34538 0
M  V30 2472 C 228.912 4.49921 2.6527 0
M  V30 2473 H 230.606 2.70917 1.27454 0
M  V30 2474 H 228.152 1.30362 0.6117 0
M  V30 2475 H 230.105 2.12328 3.63999 0
M  V30 2476 H 228.829 0.999632 3.10926 0
M  V30 2477 H 227.488 2.93009 2.20321 0
M  V30 2478 H 227.136 2.14277 4.55076 0
M  V30 2479 H 226.836 3.89247 4.40183 0
M  V30 2480 H 228.36 3.31073 5.13053 0
M  V30 2481 H 229.774 4.67683 3.31581 0
M  V30 2482 H 228.171 5.29564 2.82281 0
M  V30 2483 H 229.241 4.57507 1.60671 0
M  V30 2484 N 230.584 -0.659388 1.43143 0
M  V30 2485 C 231.812 -1.44723 1.47861 0
M  V30 2486 C 232.227 -1.88563 0.0945886 0
M  V30 2487 O 231.584 -1.59108 -0.893915 0
M  V30 2488 C 231.635 -2.68627 2.41913 0
M  V30 2489 O 231.356 -2.26623 3.74932 0
M  V30 2490 C 232.857 -3.62045 2.55809 0
M  V30 2491 H 230.077 -0.444801 0.502387 0
M  V30 2492 H 232.621 -0.808916 1.87821 0
M  V30 2493 H 230.776 -3.28613 2.05164 0
M  V30 2494 H 231.19 -3.06745 4.2545 0
M  V30 2495 H 232.664 -4.45666 3.25708 0
M  V30 2496 H 233.141 -4.08981 1.60099 0
M  V30 2497 H 233.747 -3.07944 2.93344 0
M  V30 2498 N 232.062 -1.29571 -0.897171 0
M  V30 2499 C 232.992 -1.17473 -2.01798 0
M  V30 2500 C 233.973 -0.068323 -1.69963 0
M  V30 2501 O 235.158 -0.248239 -1.92607 0
M  V30 2502 C 232.288 -0.853099 -3.36659 0
M  V30 2503 C 231.242 -1.9161 -3.82713 0
M  V30 2504 C 230.568 -1.44773 -5.14728 0
M  V30 2505 C 231.868 -3.32535 -4.02763 0
M  V30 2506 H 233.562 -2.11237 -2.12177 0
M  V30 2507 H 231.108 -1.01699 -1.01948 0
M  V30 2508 H 233.061 -0.755165 -4.14578 0
M  V30 2509 H 231.785 0.120236 -3.26379 0
M  V30 2510 H 230.444 -2.00346 -3.07013 0
M  V30 2511 H 230.092 -0.462995 -5.00865 0
M  V30 2512 H 229.792 -2.15865 -5.46513 0
M  V30 2513 H 231.316 -1.36334 -5.95185 0
M  V30 2514 H 232.73 -3.26626 -4.71156 0
M  V30 2515 H 231.127 -4.01607 -4.45905 0
M  V30 2516 H 232.197 -3.75326 -3.07016 0
M  V30 2517 N 233.54 1.10788 -1.12088 0
M  V30 2518 C 234.503 2.15207 -0.788577 0
M  V30 2519 C 235.503 1.59609 0.195317 0
M  V30 2520 O 236.693 1.74174 -0.0300193 0
M  V30 2521 C 233.825 3.4047 -0.171174 0
M  V30 2522 H 235.018 2.46116 -1.71368 0
M  V30 2523 H 232.571 1.26089 -0.923652 0
M  V30 2524 H 233.306 3.15176 0.763832 0
M  V30 2525 H 233.091 3.82109 -0.879514 0
M  V30 2526 H 234.581 4.17576 0.04496 0
M  V30 2527 N 235.018 0.912232 1.28515 0
M  V30 2528 C 236.295 0.463597 1.90027 0
M  V30 2529 C 236.675 -1.05753 1.82701 0
M  V30 2530 O 236.023 -1.90492 1.26194 0
M  V30 2531 C 236.233 0.992253 3.34597 0
M  V30 2532 C 237.581 1.04344 4.11579 0
M  V30 2533 O 238.605 0.94079 3.43551 0
M  V30 2534 O 237.464 1.1995 5.33174 0
M  V30 2535 H 234.558 0.146666 0.813891 0
M  V30 2536 H 237.104 1.00292 1.36893 0
M  V30 2537 H 235.876 2.03623 3.34146 0
M  V30 2538 H 235.499 0.433672 3.95228 0
M  V30 2539 N 236.496 -1.42363 0.676048 0
M  V30 2540 C 237.743 -2.01522 0.19883 0
M  V30 2541 C 238.071 -1.53456 -1.19505 0
M  V30 2542 O 237.326 -0.727967 -1.81657 0
M  V30 2543 C 237.625 -3.56929 0.183431 0
M  V30 2544 C 237.291 -4.24431 1.52215 0
M  V30 2545 C 235.953 -4.42585 1.8887 0
M  V30 2546 C 238.305 -4.62459 2.40377 0
M  V30 2547 C 235.633 -4.96039 3.13309 0
M  V30 2548 C 237.985 -5.17294 3.64129 0
M  V30 2549 C 236.649 -5.33661 4.00951 0
M  V30 2550 H 235.919 -0.737419 0.0727571 0
M  V30 2551 H 238.566 -1.70531 0.871281 0
M  V30 2552 H 236.871 -3.87594 -0.572532 0
M  V30 2553 H 238.568 -4.00486 -0.203035 0
M  V30 2554 H 235.158 -4.10661 1.22701 0
M  V30 2555 H 239.342 -4.48105 2.13343 0
M  V30 2556 H 234.598 -5.06896 3.41857 0
M  V30 2557 H 238.772 -5.45704 4.32644 0
M  V30 2558 H 236.399 -5.74845 4.9745 0
M  V30 2559 N 237.974 -0.419461 -1.51915 0
M  V30 2560 C 238.904 0.391813 -2.30189 0
M  V30 2561 C 239.885 1.03699 -1.34836 0
M  V30 2562 O 241.07 1.04403 -1.63748 0
M  V30 2563 C 238.2 1.50312 -3.13087 0
M  V30 2564 C 237.154 0.9824 -4.16573 0
M  V30 2565 C 236.48 2.18809 -4.8788 0
M  V30 2566 C 237.78 0.0292356 -5.22292 0
M  V30 2567 H 239.474 -0.26135 -2.98257 0
M  V30 2568 H 237.02 -0.127134 -1.43438 0
M  V30 2569 H 238.973 2.07773 -3.66617 0
M  V30 2570 H 237.697 2.18431 -2.42807 0
M  V30 2571 H 236.356 0.430119 -3.64068 0
M  V30 2572 H 236.004 2.85507 -4.14119 0
M  V30 2573 H 235.704 1.84615 -5.57845 0
M  V30 2574 H 237.228 2.76858 -5.44226 0
M  V30 2575 H 238.642 0.512976 -5.71 0
M  V30 2576 H 237.039 -0.2244 -5.9968 0
M  V30 2577 H 238.109 -0.912931 -4.76228 0
M  V30 2578 N 239.452 1.56882 -0.150215 0
M  V30 2579 C 240.382 2.19935 0.784284 0
M  V30 2580 C 241.363 1.14854 1.25469 0
M  V30 2581 O 242.548 1.43209 1.31168 0
M  V30 2582 C 239.678 2.82349 2.02229 0
M  V30 2583 C 238.632 3.93285 1.68853 0
M  V30 2584 C 237.958 4.42649 2.99944 0
M  V30 2585 C 239.258 5.13904 0.932714 0
M  V30 2586 H 240.952 2.9828 0.258781 0
M  V30 2587 H 238.498 1.43473 0.123029 0
M  V30 2588 H 240.451 3.25126 2.68088 0
M  V30 2589 H 239.175 2.0134 2.57157 0
M  V30 2590 H 237.834 3.5113 1.05371 0
M  V30 2591 H 237.482 3.58458 3.52869 0
M  V30 2592 H 237.182 5.17476 2.78374 0
M  V30 2593 H 238.706 4.88099 3.66868 0
M  V30 2594 H 240.12 5.53506 1.49345 0
M  V30 2595 H 238.517 5.94515 0.81684 0
M  V30 2596 H 239.587 4.84842 -0.0749568 0
M  V30 2597 N 240.93 -0.123565 1.57115 0
M  V30 2598 C 242.177 -0.832153 1.84612 0
M  V30 2599 C 242.505 -1.80093 0.734627 0
M  V30 2600 O 241.76 -1.93766 -0.27442 0
M  V30 2601 C 242.059 -1.62016 3.18568 0
M  V30 2602 C 241.725 -0.796084 4.43817 0
M  V30 2603 C 240.387 -0.568816 4.77826 0
M  V30 2604 C 242.739 -0.221364 5.2073 0
M  V30 2605 C 240.067 0.243499 5.86194 0
M  V30 2606 C 242.419 0.578117 6.29953 0
M  V30 2607 C 241.083 0.815744 6.62497 0
M  V30 2608 H 240.353 -0.304507 0.675542 0
M  V30 2609 H 243 -0.0947248 1.91266 0
M  V30 2610 H 241.305 -2.42837 3.0747 0
M  V30 2611 H 243.002 -2.17231 3.37064 0
M  V30 2612 H 239.592 -0.983307 4.17168 0
M  V30 2613 H 243.776 -0.384173 4.94811 0
M  V30 2614 H 239.032 0.436871 6.09837 0
M  V30 2615 H 243.206 1.03046 6.88734 0
M  V30 2616 H 240.833 1.44701 7.46301 0
M  V30 2617 N 242.408 -1.52605 -0.393616 0
M  V30 2618 C 243.633 -1.71592 -1.16495 0
M  V30 2619 C 244.058 -0.43133 -1.83088 0
M  V30 2620 O 243.416 0.612523 -1.7064 0
M  V30 2621 C 243.464 -2.86318 -2.19213 0
M  V30 2622 O 242.568 -2.52969 -3.257 0
M  V30 2623 H 241.909 -0.570734 -0.33935 0
M  V30 2624 H 244.439 -1.99377 -0.459324 0
M  V30 2625 H 244.449 -3.1168 -2.63286 0
M  V30 2626 H 243.124 -3.79511 -1.7013 0
M  V30 2627 H 241.701 -2.38332 -2.86797 0
M  V30 2628 N 243.887 0.651787 -1.4349 0
M  V30 2629 C 244.837 1.75783 -1.45205 0
M  V30 2630 C 245.821 1.57679 -0.320328 0
M  V30 2631 O 247.013 1.67767 -0.564211 0
M  V30 2632 C 244.142 3.14377 -1.3792 0
M  V30 2633 C 243.228 3.38023 -2.56127 0
M  V30 2634 N 243.619 3.32135 -3.81471 0
M  V30 2635 C 241.917 3.68747 -2.50882 0
M  V30 2636 C 242.618 3.55902 -4.60118 0
M  V30 2637 N 241.594 3.77783 -3.90872 0
M  V30 2638 H 245.396 1.69657 -2.39987 0
M  V30 2639 H 242.91 0.853508 -1.38163 0
M  V30 2640 H 244.907 3.93666 -1.37231 0
M  V30 2641 H 243.567 3.21683 -0.441596 0
M  V30 2642 H 244.578 3.11515 -4.13738 0
M  V30 2643 H 241.255 3.8316 -1.65816 0
M  V30 2644 H 242.645 3.57116 -5.69138 0
M  V30 2645 N 245.365 1.30045 0.890287 0
M  V30 2646 C 246.611 1.18737 1.64406 0
M  V30 2647 C 246.944 -0.258525 1.92472 0
M  V30 2648 O 246.219 -1.18562 1.54186 0
M  V30 2649 C 246.502 2.01087 2.98724 0
M  V30 2650 C 246.355 3.53867 2.77665 0
M  V30 2651 C 247.674 1.84457 3.9958 0
M  V30 2652 H 244.793 0.432698 0.596608 0
M  V30 2653 H 247.435 1.5962 1.0306 0
M  V30 2654 H 245.585 1.66349 3.51084 0
M  V30 2655 H 247.257 3.98637 2.32133 0
M  V30 2656 H 245.5 3.78318 2.12269 0
M  V30 2657 H 246.171 4.06772 3.7315 0
M  V30 2658 H 248.647 2.14817 3.56361 0
M  V30 2659 H 247.523 2.44411 4.91482 0
M  V30 2660 H 247.784 0.802276 4.3476 0
M  V30 2661 N 246.843 -1.10192 1.12674 0
M  V30 2662 C 247.791 -2.18694 0.792196 0
M  V30 2663 C 248.785 -1.67938 -0.222058 0
M  V30 2664 O 249.991 -1.79822 -0.0800074 0
M  V30 2665 H 246.366 -0.713223 0.238364 0
M  V30 2666 H 248.337 -2.44149 1.71564 0
M  V30 2667 C 247.086 -3.46682 0.265859 0
M  V30 2668 H 246.409 -3.86101 1.03761 0
M  V30 2669 H 247.849 -4.23942 0.0701128 0
M  V30 2670 C 246.308 -3.21506 -1.00675 0
M  V30 2671 O 246.838 -3.43408 -2.08408 0
M  V30 2672 N 245.044 -2.75158 -0.934692 0
M  V30 2673 H 244.591 -2.57535 -0.0578604 0
M  V30 2674 H 244.549 -2.58691 -1.7868 0
M  V30 2675 N 248.321 -0.919034 -1.28029 0
M  V30 2676 C 249.271 -0.382574 -2.24767 0
M  V30 2677 C 250.255 0.508286 -1.52661 0
M  V30 2678 O 251.447 0.347145 -1.73562 0
M  V30 2679 C 248.576 0.371432 -3.41285 0
M  V30 2680 C 247.662 -0.535449 -4.20706 0
M  V30 2681 N 248.053 -1.65141 -4.78082 0
M  V30 2682 C 246.351 -0.336824 -4.44726 0
M  V30 2683 C 247.052 -2.21475 -5.37888 0
M  V30 2684 N 246.028 -1.50537 -5.22341 0
M  V30 2685 H 249.83 -1.23477 -2.66703 0
M  V30 2686 H 247.344 -0.772299 -1.42861 0
M  V30 2687 H 249.341 0.772638 -4.09678 0
M  V30 2688 H 248.001 1.22066 -3.00882 0
M  V30 2689 H 249.012 -2.03392 -4.7629 0
M  V30 2690 H 245.689 0.47246 -4.14818 0
M  V30 2691 H 247.079 -3.15379 -5.93284 0
M  V30 2692 N 249.799 1.42003 -0.683588 0
M  V30 2693 C 251.046 2.01413 -0.209514 0
M  V30 2694 C 251.374 1.54088 1.1869 0
M  V30 2695 O 250.629 0.737591 1.81268 0
M  V30 2696 C 250.928 3.56827 -0.202357 0
M  V30 2697 C 250.594 4.23617 -1.54464 0
M  V30 2698 C 249.256 4.41577 -1.91215 0
M  V30 2699 C 251.608 4.61178 -2.42826 0
M  V30 2700 C 248.936 4.9437 -3.15935 0
M  V30 2701 C 251.288 5.15355 -3.66867 0
M  V30 2702 C 249.952 5.31528 -4.03776 0
M  V30 2703 H 249.222 0.737023 -0.0766668 0
M  V30 2704 H 251.869 1.70067 -0.880312 0
M  V30 2705 H 250.174 3.87892 0.551969 0
M  V30 2706 H 251.871 4.00588 0.181793 0
M  V30 2707 H 248.461 4.10004 -1.24877 0
M  V30 2708 H 252.645 4.46968 -2.15717 0
M  V30 2709 H 247.901 5.05076 -3.44541 0
M  V30 2710 H 252.075 5.43402 -4.35531 0
M  V30 2711 H 249.702 5.72199 -5.00492 0
M  V30 2712 N 251.277 0.427512 1.51691 0
M  V30 2713 C 252.187 -0.39527 2.31246 0
M  V30 2714 C 253.203 -1.03674 1.39742 0
M  V30 2715 O 254.379 -1.03425 1.72816 0
M  V30 2716 C 251.444 -1.48706 3.13189 0
M  V30 2717 C 250.505 -0.866743 4.20459 0
M  V30 2718 C 249.738 -1.90651 4.98486 0
M  V30 2719 O 249.961 -3.12733 4.77026 0
M  V30 2720 O 248.895 -1.5025 5.82845 0
M  V30 2721 H 252.721 0.253918 3.02637 0
M  V30 2722 H 250.306 0.190274 1.48183 0
M  V30 2723 H 252.188 -2.12047 3.64162 0
M  V30 2724 H 250.863 -2.12051 2.44573 0
M  V30 2725 H 249.77 -0.195544 3.73589 0
M  V30 2726 H 251.103 -0.276934 4.9142 0
M  V30 2727 N 252.755 -1.56801 0.158532 0
M  V30 2728 C 254.166 -1.83189 -0.360366 0
M  V30 2729 C 254.517 -1.07778 -1.63946 0
M  V30 2730 O 253.642 -0.326718 -2.13919 0
M  V30 2731 C 254.237 -3.32297 -0.660595 0
M  V30 2732 C 252.796 -3.59227 -1.12398 0
M  V30 2733 C 251.943 -2.76877 -0.153097 0
M  V30 2734 H 254.894 -1.54008 0.383031 0
M  V30 2735 H 254.915 -3.4908 -1.51405 0
M  V30 2736 H 254.427 -3.87156 0.270527 0
M  V30 2737 H 252.528 -3.09766 -2.07064 0
M  V30 2738 H 252.641 -4.67632 -1.04197 0
M  V30 2739 H 251.005 -2.46319 -0.647983 0
M  V30 2740 H 251.788 -3.34511 0.77182 0
M  V30 2741 N 254.233 0.115231 -1.57178 0
M  V30 2742 C 255.482 0.820945 -1.84237 0
M  V30 2743 C 255.795 1.80866 -0.744761 0
M  V30 2744 O 257.001 2.56083 -0.901871 0
M  V30 2745 C 255.457 1.51072 -3.26658 0
M  V30 2746 C 255.065 0.563795 -4.44438 0
M  V30 2747 C 256.809 2.20134 -3.62962 0
M  V30 2748 C 254.716 1.25701 -5.77887 0
M  V30 2749 H 253.646 0.310328 -0.687177 0
M  V30 2750 H 256.297 0.0737134 -1.83352 0
M  V30 2751 H 254.679 2.30471 -3.22024 0
M  V30 2752 H 255.853 -0.197247 -4.60378 0
M  V30 2753 H 254.168 -0.0200638 -4.16395 0
M  V30 2754 H 256.765 2.72696 -4.59936 0
M  V30 2755 H 257.108 2.98107 -2.90582 0
M  V30 2756 H 257.641 1.47619 -3.69396 0
M  V30 2757 H 254.38 0.518493 -6.53446 0
M  V30 2758 H 253.9 1.98997 -5.65827 0
M  V30 2759 H 255.579 1.78915 -6.2177 0
M  V30 2760 N 255.711 1.52812 0.385517 0
M  V30 2761 C 256.644 1.72592 1.49289 0
M  V30 2762 C 257.622 0.573819 1.52138 0
M  V30 2763 O 258.806 0.80404 1.70492 0
M  V30 2764 C 255.933 1.78669 2.87741 0
M  V30 2765 C 254.979 3.00455 3.02703 0
M  V30 2766 S 255.812 4.60366 2.73538 0
M  V30 2767 C 256.968 4.69263 4.14177 0
M  V30 2768 H 257.201 2.66248 1.32285 0
M  V30 2769 H 254.734 1.43148 0.578611 0
M  V30 2770 H 256.692 1.82855 3.67524 0
M  V30 2771 H 255.353 0.861 3.02069 0
M  V30 2772 H 254.546 3.01258 4.04054 0
M  V30 2773 H 254.148 2.94278 2.30817 0
M  V30 2774 H 256.44 4.48092 5.08153 0
M  V30 2775 H 257.383 5.71276 4.18388 0
M  V30 2776 H 257.791 3.98072 4.00249 0
M  V30 2777 N 257.189 -0.644168 1.43834 0
M  V30 2778 C 258.152 -1.73857 1.49353 0
M  V30 2779 C 259.152 -1.56315 0.377112 0
M  V30 2780 O 260.342 -1.62048 0.639226 0
M  V30 2781 C 257.474 -3.12819 1.35488 0
M  V30 2782 H 258.667 -1.70342 2.46827 0
M  V30 2783 H 256.22 -0.856652 1.30733 0
M  V30 2784 H 256.955 -3.2194 0.390569 0
M  V30 2785 H 256.74 -3.26958 2.16428 0
M  V30 2786 H 258.23 -3.92606 1.42302 0
M  V30 2787 N 258.668 -1.30515 -0.883378 0
M  V30 2788 C 260.084 -1.08881 -1.16692 0
M  V30 2789 C 260.284 0.149409 -2.00945 0
M  V30 2790 O 259.34 0.84257 -2.38027 0
M  V30 2791 C 260.653 -2.35319 -1.87204 0
M  V30 2792 C 262.201 -2.40799 -1.99962 0
M  V30 2793 C 262.676 -3.67083 -2.73887 0
M  V30 2794 N 264.167 -3.679 -2.81432 0
M  V30 2795 C 264.902 -4.62303 -3.3921 0
M  V30 2796 N 264.398 -5.67052 -3.98025 0
M  V30 2797 N 266.191 -4.49845 -3.3704 0
M  V30 2798 H 258.342 -2.09951 -0.321633 0
M  V30 2799 H 260.605 -0.92556 -0.205043 0
M  V30 2800 H 260.311 -3.25689 -1.3274 0
M  V30 2801 H 260.185 -2.44089 -2.87577 0
M  V30 2802 H 262.572 -1.50907 -2.53597 0
M  V30 2803 H 262.653 -2.36003 -0.98673 0
M  V30 2804 H 262.297 -4.57334 -2.20925 0
M  V30 2805 H 262.227 -3.69141 -3.75556 0
M  V30 2806 H 264.718 -2.92171 -2.39676 0
M  V30 2807 H 265.031 -6.35184 -4.40183 0
M  V30 2808 H 263.376 -5.70842 -3.96439 0
M  V30 2809 H 266.567 -3.67194 -2.90321 0
M  V30 2810 H 266.74 -5.23597 -3.81772 0
M  V30 2811 N 260.146 1.09593 -1.13257 0
M  V30 2812 C 261.076 2.18214 -0.830946 0
M  V30 2813 C 262.057 1.68812 0.208966 0
M  V30 2814 O 263.242 1.9408 0.0682666 0
M  V30 2815 C 260.372 3.46051 -0.294296 0
M  V30 2816 C 259.326 4.08778 -1.26826 0
M  V30 2817 C 258.652 5.31419 -0.591449 0
M  V30 2818 C 259.952 4.51476 -2.62615 0
M  V30 2819 H 261.646 2.43703 -1.73923 0
M  V30 2820 H 259.192 1.17128 -0.837675 0
M  V30 2821 H 261.145 4.2134 -0.0709606 0
M  V30 2822 H 259.869 3.20079 0.649366 0
M  V30 2823 H 258.528 3.35505 -1.47756 0
M  V30 2824 H 258.176 5.01727 0.357633 0
M  V30 2825 H 257.876 5.74341 -1.24123 0
M  V30 2826 H 259.4 6.09433 -0.377355 0
M  V30 2827 H 260.814 5.17999 -2.45663 0
M  V30 2828 H 259.211 5.05277 -3.23752 0
M  V30 2829 H 260.281 3.63962 -3.20406 0
M  V30 2830 N 261.624 0.925811 1.2754 0
M  V30 2831 C 262.901 0.483726 1.89524 0
M  V30 2832 C 263.281 -1.03809 1.83812 0
M  V30 2833 O 262.629 -1.89143 1.28207 0
M  V30 2834 C 262.839 1.02769 3.33526 0
M  V30 2835 C 264.187 1.08703 4.10449 0
M  V30 2836 O 265.211 0.977175 3.42534 0
M  V30 2837 O 264.07 1.25599 5.31871 0
M  V30 2838 H 261.164 0.15529 0.812289 0
M  V30 2839 H 263.71 1.01738 1.35822 0
M  V30 2840 H 262.482 2.07155 3.31967 0
M  V30 2841 H 262.105 0.475567 3.94746 0
M  V30 2842 N 263.102 -1.41638 0.69111 0
M  V30 2843 C 264.35 -2.00902 0.219758 0
M  V30 2844 C 264.671 -1.54994 -1.18329 0
M  V30 2845 O 263.941 -0.778628 -1.79762 0
M  V30 2846 H 262.521 -0.74289 0.0782558 0
M  V30 2847 H 265.183 -1.73327 0.891271 0
M  V30 2848 H 264.279 -3.11224 0.233708 0
M  V30 2849 N 264.58 -0.43555 -1.51462 0
M  V30 2850 C 265.51 0.367376 -2.30592 0
M  V30 2851 C 266.491 1.02263 -1.35928 0
M  V30 2852 O 267.676 1.02661 -1.64847 0
M  V30 2853 C 264.806 1.46983 -3.14664 0
M  V30 2854 C 263.76 0.938161 -4.17591 0
M  V30 2855 C 263.086 2.13622 -4.90173 0
M  V30 2856 C 264.386 -0.0261621 -5.22293 0
M  V30 2857 H 266.08 -0.292969 -2.97963 0
M  V30 2858 H 263.626 -0.14234 -1.43295 0
M  V30 2859 H 265.579 2.03873 -3.688 0
M  V30 2860 H 264.303 2.15843 -2.4511 0
M  V30 2861 H 262.962 0.391481 -3.64504 0
M  V30 2862 H 262.61 2.81098 -4.17124 0
M  V30 2863 H 262.31 1.78688 -5.59772 0
M  V30 2864 H 263.834 2.7107 -5.47132 0
M  V30 2865 H 265.248 0.452384 -5.71512 0
M  V30 2866 H 263.645 -0.287992 -5.99409 0
M  V30 2867 H 264.715 -0.963391 -4.75233 0
M  V30 2868 N 266.058 1.56714 -0.166846 0
M  V30 2869 C 267.021 2.16539 0.751232 0
M  V30 2870 C 268.021 1.11228 1.16125 0
M  V30 2871 O 269.211 1.36765 1.07894 0
M  V30 2872 C 266.343 2.74462 2.02196 0
M  V30 2873 H 267.536 2.99013 0.230499 0
M  V30 2874 H 265.089 1.56081 0.0826982 0
M  V30 2875 H 265.824 1.95709 2.58589 0
M  V30 2876 H 265.609 3.51527 1.73698 0
M  V30 2877 H 267.099 3.20489 2.67725 0
M  V30 2878 N 267.536 -0.106894 1.57237 0
M  V30 2879 C 268.947 -0.662723 1.74542 0
M  V30 2880 C 269.298 -1.7971 0.787319 0
M  V30 2881 O 268.423 -2.16368 -0.0369636 0
M  V30 2882 C 269.018 -1.20896 3.16496 0
M  V30 2883 C 267.577 -1.71096 3.35266 0
M  V30 2884 C 266.724 -0.615642 2.7038 0
M  V30 2885 H 269.675 0.119106 1.58252 0
M  V30 2886 H 269.696 -2.07847 3.18716 0
M  V30 2887 H 269.208 -0.383122 3.86204 0
M  V30 2888 H 267.309 -2.56119 2.70618 0
M  V30 2889 H 267.422 -1.81208 4.43509 0
M  V30 2890 H 265.786 -1.05222 2.31949 0
M  V30 2891 H 266.569 0.199419 3.4272 0
M  V30 2892 N 269.014 -1.53014 -0.377408 0
M  V30 2893 C 270.239 -1.72818 -1.14668 0
M  V30 2894 C 270.664 -0.450725 -1.8262 0
M  V30 2895 O 270.022 0.59439 -1.7128 0
M  V30 2896 C 270.07 -2.88627 -2.16164 0
M  V30 2897 O 269.174 -2.56409 -3.22998 0
M  V30 2898 H 268.515 -0.574301 -0.333278 0
M  V30 2899 H 271.045 -1.99853 -0.438152 0
M  V30 2900 H 271.055 -3.14455 -2.59966 0
M  V30 2901 H 269.73 -3.81294 -1.66095 0
M  V30 2902 H 268.307 -2.4136 -2.84253 0
M  V30 2903 N 270.492 0.636531 -1.44174 0
M  V30 2904 C 271.769 1.39463 -1.37148 0
M  V30 2905 C 272.149 2.11082 -0.027507 0
M  V30 2906 O 271.497 2.05954 0.989716 0
M  V30 2907 C 271.707 2.36552 -2.56601 0
M  V30 2908 C 273.055 3.00048 -3.00427 0
M  V30 2909 O 274.079 2.46878 -2.56767 0
M  V30 2910 O 272.938 3.96488 -3.76111 0
M  V30 2911 H 270.032 0.623903 -0.542839 0
M  V30 2912 H 272.578 0.662039 -1.56253 0
M  V30 2913 H 271.35 1.82692 -3.46034 0
M  V30 2914 H 270.973 3.17236 -2.39681 0
M  V30 2915 N 271.97 1.30982 0.876444 0
M  V30 2916 C 273.216 1.20474 1.63138 0
M  V30 2917 C 273.549 -0.238096 1.92735 0
M  V30 2918 O 272.824 -1.1692 1.55435 0
M  V30 2919 C 273.107 2.04244 2.96574 0
M  V30 2920 C 272.96 3.56793 2.73896 0
M  V30 2921 C 274.279 1.88684 3.97601 0
M  V30 2922 H 271.398 0.439001 0.591985 0
M  V30 2923 H 274.04 1.60704 1.01361 0
M  V30 2924 H 272.19 1.70063 3.493 0
M  V30 2925 H 273.862 4.01077 2.27892 0
M  V30 2926 H 272.105 3.80548 2.08245 0
M  V30 2927 H 272.776 4.10706 3.68815 0
M  V30 2928 H 275.252 2.18584 3.54062 0
M  V30 2929 H 274.128 2.4961 4.88862 0
M  V30 2930 H 274.389 0.848343 4.33884 0
M  V30 2931 N 273.449 -1.08991 1.13837 0
M  V30 2932 C 274.399 -2.1393 0.788535 0
M  V30 2933 C 275.383 -1.59396 -0.219516 0
M  V30 2934 O 276.575 -1.76985 -0.0227557 0
M  V30 2935 C 273.704 -3.42305 0.261147 0
M  V30 2936 C 272.79 -4.03736 1.29837 0
M  V30 2937 N 273.181 -4.39659 2.50067 0
M  V30 2938 C 271.479 -4.30993 1.1472 0
M  V30 2939 C 272.18 -4.88113 3.16419 0
M  V30 2940 N 271.156 -4.85846 2.43832 0
M  V30 2941 H 274.958 -2.39516 1.70322 0
M  V30 2942 H 272.472 -1.26263 1.02134 0
M  V30 2943 H 274.469 -4.16899 -0.0077405 0
M  V30 2944 H 273.129 -3.18172 -0.647805 0
M  V30 2945 H 274.14 -4.30878 2.8734 0
M  V30 2946 H 270.817 -4.16444 0.296773 0
M  V30 2947 H 272.207 -5.25336 4.18894 0
M  V30 2948 N 274.927 -0.932562 -1.27047 0
M  V30 2949 C 276.204 -0.49377 -1.89265 0
M  V30 2950 C 276.584 1.02833 -1.8436 0
M  V30 2951 O 275.932 1.88461 -1.29209 0
M  V30 2952 C 276.142 -1.04536 -3.32976 0
M  V30 2953 C 277.49 -1.10879 -4.09867 0
M  V30 2954 O 278.514 -0.995327 -3.42011 0
M  V30 2955 O 277.373 -1.28417 -5.31198 0
M  V30 2956 H 274.467 -0.159596 -0.811454 0
M  V30 2957 H 277.013 -1.02457 -1.3528 0
M  V30 2958 H 275.785 -2.08913 -3.30864 0
M  V30 2959 H 275.408 -0.496494 -3.94488 0
M  V30 2960 N 276.405 1.4127 -0.698611 0
M  V30 2961 C 277.335 2.33447 -0.049629 0
M  V30 2962 C 278.316 1.51982 0.763898 0
M  V30 2963 O 279.501 1.80509 0.716257 0
M  V30 2964 C 276.631 3.35828 0.885267 0
M  V30 2965 C 275.585 4.27627 0.178613 0
M  V30 2966 C 274.911 5.20406 1.22807 0
M  V30 2967 C 276.211 5.13459 -0.956933 0
M  V30 2968 H 277.905 2.87966 -0.81951 0
M  V30 2969 H 275.451 1.38461 -0.395538 0
M  V30 2970 H 277.404 3.9924 1.34854 0
M  V30 2971 H 276.128 2.79666 1.68685 0
M  V30 2972 H 274.787 3.65643 -0.26466 0
M  V30 2973 H 274.435 4.60558 2.02226 0
M  V30 2974 H 274.135 5.82661 0.760239 0
M  V30 2975 H 275.659 5.86695 1.69179 0
M  V30 2976 H 277.073 5.70421 -0.573805 0
M  V30 2977 H 275.47 5.8467 -1.35205 0
M  V30 2978 H 276.54 4.50443 -1.79524 0
M  V30 2979 N 277.883 0.443576 1.51229 0
M  V30 2980 C 278.83 -0.364716 2.279 0
M  V30 2981 C 279.8 -1.0114 1.31757 0
M  V30 2982 O 280.985 -1.02912 1.60667 0
M  V30 2983 C 278.125 -1.45644 3.12861 0
M  V30 2984 C 277.238 -0.827269 4.24005 0
M  V30 2985 C 276.373 -1.89456 4.96266 0
M  V30 2986 C 275.412 -1.24416 5.99322 0
M  V30 2987 N 274.549 -2.25309 6.64966 0
M  V30 2988 H 279.389 0.295464 2.96532 0
M  V30 2989 H 276.926 0.157554 1.46254 0
M  V30 2990 H 278.884 -2.10076 3.6045 0
M  V30 2991 H 277.514 -2.08616 2.46331 0
M  V30 2992 H 276.566 -0.0710839 3.80334 0
M  V30 2993 H 277.878 -0.312481 4.9782 0
M  V30 2994 H 277.032 -2.61535 5.47434 0
M  V30 2995 H 275.771 -2.4431 4.22095 0
M  V30 2996 H 274.776 -0.508868 5.4744 0
M  V30 2997 H 276.001 -0.702882 6.75453 0
M  V30 2998 H 273.947 -2.79231 5.93604 0
M  V30 2999 H 273.864 -1.78739 7.34567 0
M  V30 3000 H 275.132 -2.96853 7.20763 0
M  V30 3001 N 279.361 -1.56624 0.175154 0
M  V30 3002 C 280.324 -2.16934 -0.739738 0
M  V30 3003 C 281.324 -1.11842 -1.15533 0
M  V30 3004 O 282.514 -1.37335 -1.07167 0
M  V30 3005 C 279.646 -2.75531 -2.00738 0
M  V30 3006 H 280.839 -2.99131 -0.214639 0
M  V30 3007 H 278.392 -1.56123 -0.0744197 0
M  V30 3008 H 279.127 -1.97078 -2.57548 0
M  V30 3009 H 278.912 -3.52444 -1.71831 0
M  V30 3010 H 280.402 -3.21904 -2.66021 0
M  V30 3011 N 280.839 0.0985539 -1.57292 0
M  V30 3012 C 282.067 0.816318 -1.90115 0
M  V30 3013 C 282.482 1.72451 -0.768509 0
M  V30 3014 O 281.839 1.80643 0.259687 0
M  V30 3015 C 281.89 1.63259 -3.22535 0
M  V30 3016 O 281.611 0.760934 -4.31441 0
M  V30 3017 C 283.112 2.45372 -3.69199 0
M  V30 3018 H 280.332 0.233595 -0.629027 0
M  V30 3019 H 282.876 0.0768229 -2.04356 0
M  V30 3020 H 281.031 2.32463 -3.09903 0
M  V30 3021 H 281.445 1.32595 -5.07463 0
M  V30 3022 H 282.919 2.98144 -4.64558 0
M  V30 3023 H 283.396 3.23677 -2.96867 0
M  V30 3024 H 284.002 1.81373 -3.84687 0
M  V30 3025 N 282.317 1.53212 0.369288 0
M  V30 3026 C 283.594 1.59815 1.12776 0
M  V30 3027 C 283.974 0.403402 2.0721 0
M  V30 3028 O 283.322 -0.606667 2.20299 0
M  V30 3029 C 283.532 2.94664 1.87013 0
M  V30 3030 C 284.88 3.49109 2.41677 0
M  V30 3031 O 285.904 2.96669 1.97144 0
M  V30 3032 O 284.763 4.40775 3.23079 0
M  V30 3033 H 281.857 0.645376 0.517125 0
M  V30 3034 H 284.403 1.65553 0.37285 0
M  V30 3035 H 283.175 3.73061 1.18071 0
M  V30 3036 H 282.798 2.92401 2.69421 0
M  V30 3037 N 283.795 -0.628877 1.44509 0
M  V30 3038 C 284.727 -1.754 1.47538 0
M  V30 3039 C 285.74 -1.58575 0.368506 0
M  V30 3040 O 286.929 -1.66847 0.634376 0
M  V30 3041 C 284.029 -3.1315 1.29577 0
M  V30 3042 C 283.202 -3.56413 2.53551 0
M  V30 3043 C 282.261 -4.7305 2.30457 0
M  V30 3044 O 281.287 -4.81247 3.03957 0
M  V30 3045 N 282.489 -5.64903 1.3366 0
M  V30 3046 H 285.254 -1.73272 2.44534 0
M  V30 3047 H 282.815 -0.813512 1.39977 0
M  V30 3048 H 284.807 -3.88902 1.11971 0
M  V30 3049 H 283.377 -3.09908 0.409371 0
M  V30 3050 H 282.597 -2.70847 2.86419 0
M  V30 3051 H 283.885 -3.82071 3.36005 0
M  V30 3052 H 283.283 -5.60975 0.729604 0
M  V30 3053 H 281.84 -6.40275 1.22032 0
M  V30 3054 N 285.273 -1.31445 -0.869486 0
M  V30 3055 C 286.503 -1.23942 -1.65294 0
M  V30 3056 C 286.911 0.197561 -1.88166 0
M  V30 3057 O 286.254 1.14019 -1.44033 0
M  V30 3058 C 286.316 -1.91385 -3.04322 0
M  V30 3059 C 285.98 -3.40726 -3.04557 0
M  V30 3060 C 286.977 -4.36464 -2.82481 0
M  V30 3061 C 284.662 -3.82425 -3.25663 0
M  V30 3062 C 286.656 -5.71876 -2.8149 0
M  V30 3063 C 284.343 -5.1795 -3.243 0
M  V30 3064 C 285.341 -6.12486 -3.02241 0
M  V30 3065 O 285.029 -7.45534 -3.00724 0
M  V30 3066 H 284.761 -0.429459 -0.522054 0
M  V30 3067 H 287.315 -1.73873 -1.0935 0
M  V30 3068 H 285.545 -1.36004 -3.61994 0
M  V30 3069 H 287.234 -1.77791 -3.64891 0
M  V30 3070 H 288 -4.05576 -2.65956 0
M  V30 3071 H 283.879 -3.09274 -3.41863 0
M  V30 3072 H 287.423 -6.45638 -2.64191 0
M  V30 3073 H 283.32 -5.48473 -3.40365 0
M  V30 3074 H 284.088 -7.54713 -3.16782 0
M  V30 3075 N 286.751 1.08385 -1.14413 0
M  V30 3076 C 288.167 1.32844 -0.884563 0
M  V30 3077 C 288.367 1.95841 0.474181 0
M  V30 3078 O 287.423 2.21158 1.21842 0
M  V30 3079 C 288.736 2.22978 -2.01745 0
M  V30 3080 C 290.284 2.36458 -2.05077 0
M  V30 3081 C 290.759 3.29934 -3.1766 0
M  V30 3082 N 292.25 3.37511 -3.17239 0
M  V30 3083 C 292.985 4.09871 -4.0099 0
M  V30 3084 N 292.481 4.84936 -4.94781 0
M  V30 3085 N 294.274 4.05704 -3.89051 0
M  V30 3086 H 286.425 0.658756 -2.01926 0
M  V30 3087 H 288.688 0.352821 -0.879899 0
M  V30 3088 H 288.394 1.83934 -2.99769 0
M  V30 3089 H 288.268 3.23441 -1.94077 0
M  V30 3090 H 290.655 2.7476 -1.0766 0
M  V30 3091 H 290.736 1.35736 -2.16816 0
M  V30 3092 H 290.38 2.92352 -4.15322 0
M  V30 3093 H 290.31 4.30584 -3.03158 0
M  V30 3094 H 292.801 2.83996 -2.49308 0
M  V30 3095 H 293.114 5.37612 -5.55151 0
M  V30 3096 H 291.459 4.83988 -4.98779 0
M  V30 3097 H 294.65 3.46167 -3.15097 0
M  V30 3098 H 294.823 4.61834 -4.54547 0
M  V30 3099 N 288.23 0.939286 1.26551 0
M  V30 3100 C 289.458 0.602536 1.97932 0
M  V30 3101 C 289.873 -0.82206 1.69964 0
M  V30 3102 O 289.23 -1.54789 0.966784 0
M  V30 3103 C 289.281 0.832946 3.51773 0
M  V30 3104 O 289.002 2.20151 3.78768 0
M  V30 3105 C 290.503 0.506483 4.40397 0
M  V30 3106 H 287.723 0.227248 0.631347 0
M  V30 3107 H 290.267 1.25948 1.61113 0
M  V30 3108 H 288.422 0.222644 3.8676 0
M  V30 3109 H 288.836 2.26013 4.73306 0
M  V30 3110 H 290.31 0.718333 5.47306 0
M  V30 3111 H 290.787 -0.558451 4.35635 0
M  V30 3112 H 291.393 1.09543 4.10951 0
M  V30 3113 N 289.708 -1.40897 0.706093 0
M  V30 3114 C 290.655 -2.30751 0.0474474 0
M  V30 3115 C 291.625 -1.47678 -0.76029 0
M  V30 3116 O 292.81 -1.76441 -0.726177 0
M  V30 3117 C 289.95 -3.33815 -0.875309 0
M  V30 3118 C 289.063 -4.31961 -0.0580623 0
M  V30 3119 C 288.198 -5.22093 -0.979425 0
M  V30 3120 C 287.237 -6.11902 -0.155706 0
M  V30 3121 N 286.374 -6.94482 -1.03144 0
M  V30 3122 H 291.214 -2.86513 0.819413 0
M  V30 3123 H 288.751 -1.41102 0.415783 0
M  V30 3124 H 290.709 -3.92129 -1.42446 0
M  V30 3125 H 289.339 -2.79579 -1.61356 0
M  V30 3126 H 288.391 -3.75507 0.608147 0
M  V30 3127 H 289.703 -4.95415 0.580082 0
M  V30 3128 H 288.857 -5.85292 -1.59744 0
M  V30 3129 H 287.596 -4.5889 -1.65141 0
M  V30 3130 H 286.601 -5.47742 0.475309 0
M  V30 3131 H 287.826 -6.77162 0.512635 0
M  V30 3132 H 285.772 -6.33877 -1.68924 0
M  V30 3133 H 285.689 -7.54665 -0.449108 0
M  V30 3134 H 286.957 -7.6214 -1.63593 0
M  V30 3135 N 291.186 -0.45159 -1.50991 0
M  V30 3136 C 292.432 0.102439 -2.03142 0
M  V30 3137 C 292.787 1.39138 -1.32884 0
M  V30 3138 O 292.08 1.86493 -0.439438 0
M  V30 3139 C 292.274 0.361728 -3.55565 0
M  V30 3140 C 292.103 -0.900535 -4.40591 0
M  V30 3141 C 290.873 -1.43821 -4.844 0
M  V30 3142 C 293.071 -1.79063 -4.82121 0
M  V30 3143 N 291.053 -2.65153 -5.53685 0
M  V30 3144 C 292.424 -2.84991 -5.50618 0
M  V30 3145 C 294.479 -1.80334 -4.64095 0
M  V30 3146 C 293.182 -3.92155 -6.02998 0
M  V30 3147 C 295.208 -2.86442 -5.17402 0
M  V30 3148 C 294.57 -3.9109 -5.85857 0
M  V30 3149 H 290.669 -0.00204537 -0.781997 0
M  V30 3150 H 293.253 -0.615446 -1.84717 0
M  V30 3151 H 291.424 1.04865 -3.73976 0
M  V30 3152 H 293.156 0.908372 -3.94374 0
M  V30 3153 H 289.911 -0.990117 -4.63135 0
M  V30 3154 H 290.335 -3.26717 -5.92946 0
M  V30 3155 H 294.977 -1.00753 -4.1062 0
M  V30 3156 H 292.695 -4.72565 -6.55521 0
M  V30 3157 H 296.281 -2.88386 -5.05297 0
M  V30 3158 H 295.161 -4.71845 -6.26364 0
M  V30 3159 N 292.664 1.56529 -0.183458 0
M  V30 3160 C 294.075 1.83739 0.331177 0
M  V30 3161 C 294.426 1.10373 1.62211 0
M  V30 3162 O 293.551 0.36071 2.13373 0
M  V30 3163 C 294.146 3.33306 0.607646 0
M  V30 3164 C 292.705 3.60969 1.06668 0
M  V30 3165 C 291.852 2.77086 0.109029 0
M  V30 3166 H 294.803 1.53379 -0.407484 0
M  V30 3167 H 294.824 3.51444 1.45832 0
M  V30 3168 H 294.336 3.86677 -0.332086 0
M  V30 3169 H 292.437 3.13021 2.0211 0
M  V30 3170 H 292.55 4.69231 0.967447 0
M  V30 3171 H 290.914 2.47319 0.608714 0
M  V30 3172 H 291.697 3.33241 -0.82494 0
M  V30 3173 N 294.142 -0.090211 1.57342 0
M  V30 3174 C 295.558 -0.444547 1.53284 0
M  V30 3175 C 295.758 -1.80238 0.900914 0
M  V30 3176 O 294.814 -2.4759 0.495513 0
M  V30 3177 C 296.127 -0.402543 2.97993 0
M  V30 3178 C 297.675 -0.48405 3.09234 0
M  V30 3179 C 298.15 -0.472144 4.5556 0
M  V30 3180 N 299.641 -0.532757 4.60126 0
M  V30 3181 C 300.376 -0.545462 5.708 0
M  V30 3182 N 299.872 -0.514082 6.9089 0
M  V30 3183 N 301.665 -0.59064 5.58988 0
M  V30 3184 H 293.816 0.799121 1.96794 0
M  V30 3185 H 296.079 0.297965 0.899956 0
M  V30 3186 H 295.785 0.528106 3.47712 0
M  V30 3187 H 295.659 -1.21969 3.56936 0
M  V30 3188 H 298.046 -1.40512 2.595 0
M  V30 3189 H 298.127 0.361328 2.53235 0
M  V30 3190 H 297.771 0.445 5.05947 0
M  V30 3191 H 297.701 -1.3348 5.09402 0
M  V30 3192 H 300.192 -0.562006 3.73698 0
M  V30 3193 H 300.505 -0.527195 7.71 0
M  V30 3194 H 298.85 -0.481054 6.93333 0
M  V30 3195 H 302.041 -0.61272 4.64073 0
M  V30 3196 H 302.214 -0.597073 6.45243 0
M  V30 3197 N 295.62 -1.53406 -0.361157 0
M  V30 3198 C 296.55 -1.83136 -1.44857 0
M  V30 3199 C 297.531 -0.685174 -1.5569 0
M  V30 3200 O 298.716 -0.93544 -1.70186 0
M  V30 3201 C 295.846 -2.02522 -2.82138 0
M  V30 3202 C 294.8 -3.18302 -2.86126 0
M  V30 3203 C 294.126 -3.22989 -4.26125 0
M  V30 3204 C 295.426 -4.56796 -2.53248 0
M  V30 3205 H 297.12 -2.74201 -1.20226 0
M  V30 3206 H 294.666 -1.31938 -0.576922 0
M  V30 3207 H 296.619 -2.21904 -3.58241 0
M  V30 3208 H 295.343 -1.08172 -3.08166 0
M  V30 3209 H 294.002 -2.98747 -2.12475 0
M  V30 3210 H 293.65 -2.26267 -4.49235 0
M  V30 3211 H 293.35 -4.00781 -4.29708 0
M  V30 3212 H 294.874 -3.44559 -5.04094 0
M  V30 3213 H 296.288 -4.7631 -3.19064 0
M  V30 3214 H 294.685 -5.36862 -2.68141 0
M  V30 3215 H 295.755 -4.61606 -1.48484 0
M  V30 3216 N 297.098 0.621204 -1.44841 0
M  V30 3217 C 298.326 1.40752 -1.51646 0
M  V30 3218 C 298.741 1.88246 -0.144549 0
M  V30 3219 O 298.098 1.61422 0.851416 0
M  V30 3220 C 298.149 2.62119 -2.4895 0
M  V30 3221 O 297.87 2.16602 -3.80808 0
M  V30 3222 C 299.371 3.55135 -2.65319 0
M  V30 3223 H 296.591 0.431325 -0.514004 0
M  V30 3224 H 299.135 0.758835 -1.899 0
M  V30 3225 H 297.29 3.23058 -2.13805 0
M  V30 3226 H 297.704 2.95358 -4.33433 0
M  V30 3227 H 299.178 4.36874 -3.37409 0
M  V30 3228 H 299.655 4.04592 -1.70886 0
M  V30 3229 H 300.261 3.00058 -3.01405 0
M  V30 3230 N 298.576 1.31904 0.862503 0
M  V30 3231 C 299.804 1.24998 1.64873 0
M  V30 3232 C 300.219 -0.183425 1.87907 0
M  V30 3233 O 299.576 -1.11794 1.44251 0
M  V30 3234 C 299.627 1.99829 3.01248 0
M  V30 3235 O 299.348 3.37575 2.79239 0
M  V30 3236 C 300.849 1.99852 3.95694 0
M  V30 3237 H 298.069 0.431599 0.513773 0
M  V30 3238 H 300.613 1.73901 1.07604 0
M  V30 3239 H 298.768 1.54668 3.55185 0
M  V30 3240 H 299.182 3.75776 3.65914 0
M  V30 3241 H 300.656 2.56709 4.88676 0
M  V30 3242 H 301.133 0.982852 4.28062 0
M  V30 3243 H 301.739 2.44926 3.47694 0
M  V30 3244 N 300.054 -1.07777 1.14986 0
M  V30 3245 C 301.301 -1.8029 0.922056 0
M  V30 3246 C 301.629 -1.86531 -0.55105 0
M  V30 3247 O 300.884 -1.34189 -1.42449 0
M  V30 3248 C 301.183 -3.25495 1.47608 0
M  V30 3249 C 300.849 -3.39361 2.96893 0
M  V30 3250 C 299.511 -3.42852 3.37647 0
M  V30 3251 C 301.863 -3.42512 3.92854 0
M  V30 3252 C 299.191 -3.47094 4.73015 0
M  V30 3253 C 301.543 -3.4829 5.28088 0
M  V30 3254 C 300.207 -3.50058 5.68345 0
M  V30 3255 H 299.477 -0.659727 0.337404 0
M  V30 3256 H 302.124 -1.26854 1.43459 0
M  V30 3257 H 300.429 -3.81683 0.88463 0
M  V30 3258 H 302.126 -3.80168 1.27568 0
M  V30 3259 H 298.716 -3.37339 2.64387 0
M  V30 3260 H 302.9 -3.3904 3.62444 0
M  V30 3261 H 298.156 -3.46758 5.03556 0
M  V30 3262 H 302.33 -3.49675 6.02246 0
M  V30 3263 H 299.957 -3.53097 6.73221 0
M  V30 3264 N 301.532 -0.945985 -1.26051 0
M  V30 3265 C 302.462 -0.477172 -2.28572 0
M  V30 3266 C 303.443 0.472032 -1.63419 0
M  V30 3267 O 304.628 0.372853 -1.90587 0
M  V30 3268 C 301.758 0.253975 -3.4637 0
M  V30 3269 C 300.712 -0.609135 -4.23643 0
M  V30 3270 C 300.038 0.252252 -5.34105 0
M  V30 3271 C 301.338 -1.8829 -4.8718 0
M  V30 3272 H 303.032 -1.33402 -2.68038 0
M  V30 3273 H 300.578 -0.642904 -1.28852 0
M  V30 3274 H 302.531 0.593016 -4.17207 0
M  V30 3275 H 301.255 1.145 -3.05871 0
M  V30 3276 H 299.914 -0.931138 -3.54578 0
M  V30 3277 H 299.562 1.14278 -4.89846 0
M  V30 3278 H 299.262 -0.32188 -5.86718 0
M  V30 3279 H 300.786 0.586454 -6.07777 0
M  V30 3280 H 302.2 -1.61081 -5.50205 0
M  V30 3281 H 300.597 -2.40199 -5.49931 0
M  V30 3282 H 301.667 -2.59134 -4.09851 0
M  V30 3283 N 303.011 1.40521 -0.713556 0
M  V30 3284 C 304.288 1.94775 -0.17943 0
M  V30 3285 C 304.668 1.65184 1.31444 0
M  V30 3286 O 304.016 0.968429 2.06963 0
M  V30 3287 C 304.226 3.45543 -0.489986 0
M  V30 3288 C 305.574 4.22442 -0.427536 0
M  V30 3289 O 306.598 3.53644 -0.425929 0
M  V30 3290 O 305.457 5.4501 -0.403292 0
M  V30 3291 H 302.551 0.826606 -0.0255192 0
M  V30 3292 H 305.097 1.5014 -0.790949 0
M  V30 3293 H 303.869 3.60432 -1.5233 0
M  V30 3294 H 303.492 3.97311 0.151598 0
M  V30 3295 N 304.489 0.459591 1.5075 0
M  V30 3296 C 305.735 -0.0994966 2.02556 0
M  V30 3297 C 306.068 -1.40399 1.3417 0
M  V30 3298 O 305.343 -1.88892 0.463683 0
M  V30 3299 C 305.626 -0.295242 3.58888 0
M  V30 3300 C 305.479 1.02947 4.37861 0
M  V30 3301 C 306.798 -1.05502 4.27267 0
M  V30 3302 H 303.917 -0.034686 0.736183 0
M  V30 3303 H 306.559 0.602938 1.8018 0
M  V30 3304 H 304.709 -0.893563 3.78084 0
M  V30 3305 H 306.381 1.66348 4.30263 0
M  V30 3306 H 304.624 1.62885 4.02058 0
M  V30 3307 H 305.295 0.846281 5.45474 0
M  V30 3308 H 307.771 -0.547993 4.12476 0
M  V30 3309 H 306.647 -1.16077 5.36486 0
M  V30 3310 H 306.908 -2.08875 3.89645 0
M  V30 3311 N 305.967 -1.56429 0.191757 0
M  V30 3312 C 306.9 -2.14829 -0.76967 0
M  V30 3313 C 307.878 -1.08405 -1.2119 0
M  V30 3314 O 309.062 -1.36498 -1.30002 0
M  V30 3315 C 306.189 -2.70446 -2.03903 0
M  V30 3316 C 305.235 -3.89428 -1.7392 0
M  V30 3317 S 306.068 -5.28048 -0.890265 0
M  V30 3318 C 307.224 -5.87085 -2.16984 0
M  V30 3319 H 307.457 -2.96042 -0.273204 0
M  V30 3320 H 304.99 -1.54383 -0.0231975 0
M  V30 3321 H 306.948 -3.03134 -2.76803 0
M  V30 3322 H 305.609 -1.89281 -2.50662 0
M  V30 3323 H 304.802 -4.26742 -2.68155 0
M  V30 3324 H 304.404 -3.57732 -1.09103 0
M  V30 3325 H 306.696 -6.01244 -3.12269 0
M  V30 3326 H 307.639 -6.83747 -1.84108 0
M  V30 3327 H 308.047 -5.15663 -2.29678 0
M  V30 3328 N 307.445 0.0818655 -1.57387 0
M  V30 3329 C 308.861 0.436412 -1.53517 0
M  V30 3330 C 309.061 1.79758 -0.910459 0
M  V30 3331 O 308.117 2.47324 -0.508636 0
M  V30 3332 C 309.43 0.386734 -2.98203 0
M  V30 3333 C 310.978 0.467644 -3.09487 0
M  V30 3334 C 311.453 0.447978 -4.55804 0
M  V30 3335 N 312.944 0.508348 -4.60402 0
M  V30 3336 C 313.679 0.515184 -5.71081 0
M  V30 3337 N 313.175 0.477435 -6.91153 0
M  V30 3338 N 314.968 0.560988 -5.59294 0
M  V30 3339 H 307.119 -0.809546 -1.96367 0
M  V30 3340 H 309.382 -0.302733 -0.898363 0
M  V30 3341 H 309.088 -0.546539 -3.47427 0
M  V30 3342 H 308.962 1.20075 -3.57578 0
M  V30 3343 H 311.349 1.39134 -2.60242 0
M  V30 3344 H 311.43 -0.374753 -2.5304 0
M  V30 3345 H 311.074 -0.471826 -5.05704 0
M  V30 3346 H 311.004 1.30777 -5.10103 0
M  V30 3347 H 313.495 0.54218 -3.7399 0
M  V30 3348 H 313.808 0.486299 -7.71268 0
M  V30 3349 H 312.153 0.444278 -6.93579 0
M  V30 3350 H 315.344 0.5881 -4.64391 0
M  V30 3351 H 315.517 0.562846 -6.45551 0
M  V30 3352 N 308.923 1.53595 0.353017 0
M  V30 3353 C 310.339 1.43648 0.695516 0
M  V30 3354 C 310.539 0.585617 1.92802 0
M  V30 3355 O 309.595 0.0729223 2.52395 0
M  V30 3356 C 310.908 2.8701 0.896991 0
M  V30 3357 C 312.456 2.96723 0.996209 0
M  V30 3358 C 312.931 4.41173 1.23007 0
M  V30 3359 N 314.422 4.44657 1.29749 0
M  V30 3360 C 315.157 5.53547 1.49577 0
M  V30 3361 N 314.653 6.72461 1.66639 0
M  V30 3362 N 316.446 5.41145 1.52048 0
M  V30 3363 H 308.597 2.07415 -0.457481 0
M  V30 3364 H 310.86 0.9372 -0.142687 0
M  V30 3365 H 310.566 3.51644 0.0629938 0
M  V30 3366 H 310.44 3.31401 1.80148 0
M  V30 3367 H 312.827 2.32235 1.82074 0
M  V30 3368 H 312.908 2.55707 0.0688331 0
M  V30 3369 H 312.552 5.06238 0.410505 0
M  V30 3370 H 312.482 4.79772 2.17086 0
M  V30 3371 H 314.973 3.58963 1.18126 0
M  V30 3372 H 315.286 7.51214 1.81378 0
M  V30 3373 H 313.631 6.75423 1.63794 0
M  V30 3374 H 316.822 4.47205 1.38294 0
M  V30 3375 H 316.995 6.26068 1.67159 0
M  V30 3376 N 310.401 -0.613514 1.45168 0
M  V30 3377 C 311.331 -1.7354 1.56225 0
M  V30 3378 C 312.312 -1.64981 0.41414 0
M  V30 3379 O 313.497 -1.83472 0.636526 0
M  V30 3380 C 310.627 -3.12128 1.52295 0
M  V30 3381 C 309.581 -3.35491 2.65762 0
M  V30 3382 C 308.907 -4.74291 2.46885 0
M  V30 3383 C 310.207 -3.26325 4.0781 0
M  V30 3384 H 311.901 -1.64543 2.50132 0
M  V30 3385 H 309.447 -0.790185 1.20383 0
M  V30 3386 H 311.4 -3.90404 1.58628 0
M  V30 3387 H 310.124 -3.2195 0.549139 0
M  V30 3388 H 308.783 -2.59603 2.58847 0
M  V30 3389 H 308.431 -4.80839 1.47657 0
M  V30 3390 H 308.131 -4.9088 3.22972 0
M  V30 3391 H 309.655 -5.54775 2.55063 0
M  V30 3392 H 311.069 -3.94483 4.16 0
M  V30 3393 H 309.466 -3.54445 4.8424 0
M  V30 3394 H 310.536 -2.23855 4.30136 0
M  V30 3395 N 311.879 -1.3236 -0.855495 0
M  V30 3396 C 313.29 -1.2056 -1.42556 0
M  V30 3397 C 313.641 0.182209 -1.95352 0
M  V30 3398 O 312.766 1.08088 -1.87472 0
M  V30 3399 C 313.361 -2.1826 -2.59129 0
M  V30 3400 C 311.92 -2.10351 -3.12137 0
M  V30 3401 C 311.067 -2.06674 -1.84882 0
M  V30 3402 H 314.018 -1.442 -0.662727 0
M  V30 3403 H 314.039 -1.78064 -3.36264 0
M  V30 3404 H 313.551 -3.19257 -2.20673 0
M  V30 3405 H 311.652 -1.12599 -3.55179 0
M  V30 3406 H 311.765 -3.00135 -3.73438 0
M  V30 3407 H 310.129 -1.51901 -2.04446 0
M  V30 3408 H 310.912 -3.09451 -1.48643 0
M  V30 3409 N 313.357 1.07166 -1.15556 0
M  V30 3410 C 314.597 1.81391 -0.94216 0
M  V30 3411 C 314.961 1.84788 0.521272 0
M  V30 3412 O 316.162 2.54904 0.85307 0
M  V30 3413 C 314.433 3.22431 -1.54185 0
M  V30 3414 S 315.992 4.13379 -1.47183 0
M  V30 3415 H 312.81 0.624963 -0.339031 0
M  V30 3416 H 315.412 1.28725 -1.4714 0
M  V30 3417 H 314.116 3.17548 -2.59984 0
M  V30 3418 H 313.647 3.80172 -1.01156 0
M  V30 3419 H 315.662 4.94007 -0.466004 0
M  V30 3420 N 314.835 0.952656 1.25548 0
M  V30 3421 C 316.081 0.607272 1.93494 0
M  V30 3422 C 316.414 -0.853245 1.74452 0
M  V30 3423 O 315.689 -1.61194 1.08843 0
M  V30 3424 C 315.972 0.96435 3.46947 0
M  V30 3425 C 315.825 2.48045 3.75225 0
M  V30 3426 C 317.144 0.487987 4.37386 0
M  V30 3427 H 314.263 0.222096 0.702739 0
M  V30 3428 H 316.905 1.18895 1.48203 0
M  V30 3429 H 315.055 0.469361 3.85654 0
M  V30 3430 H 316.727 3.04905 3.46166 0
M  V30 3431 H 314.97 2.919 3.209 0
M  V30 3432 H 315.641 2.6808 4.82532 0
M  V30 3433 H 318.117 0.912558 4.0597 0
M  V30 3434 H 316.993 0.766547 5.43521 0
M  V30 3435 H 317.254 -0.612063 4.37843 0
M  V30 3436 N 316.313 -1.40141 0.720998 0
M  V30 3437 C 317.243 -2.33339 0.0867621 0
M  V30 3438 C 318.224 -1.53178 -0.739622 0
M  V30 3439 O 319.409 -1.81625 -0.687449 0
M  V30 3440 C 316.539 -3.37194 -0.831728 0
M  V30 3441 C 315.493 -4.27857 -0.110558 0
M  V30 3442 C 314.819 -5.22294 -1.14513 0
M  V30 3443 C 316.119 -5.11872 1.0385 0
M  V30 3444 H 317.813 -2.86626 0.865219 0
M  V30 3445 H 315.359 -1.37814 0.417516 0
M  V30 3446 H 317.312 -4.01335 -1.28485 0
M  V30 3447 H 316.036 -2.82314 -1.64214 0
M  V30 3448 H 314.695 -3.65176 0.322797 0
M  V30 3449 H 314.343 -4.63717 -1.94874 0
M  V30 3450 H 314.043 -5.83797 -0.667446 0
M  V30 3451 H 315.567 -5.89312 -1.59824 0
M  V30 3452 H 316.981 -5.69436 0.664482 0
M  V30 3453 H 315.378 -5.82445 1.4449 0
M  V30 3454 H 316.448 -4.4753 1.86668 0
M  V30 3455 N 317.792 -0.46758 -1.50504 0
M  V30 3456 C 319.02 0.0864133 -2.06719 0
M  V30 3457 C 319.435 1.33819 -1.33184 0
M  V30 3458 O 318.792 1.78061 -0.400083 0
M  V30 3459 C 318.843 0.378079 -3.59517 0
M  V30 3460 O 318.564 -0.824044 -4.3028 0
M  V30 3461 C 320.065 0.979426 -4.32345 0
M  V30 3462 H 317.285 -0.00551697 -0.670977 0
M  V30 3463 H 319.829 -0.655354 -1.93715 0
M  V30 3464 H 317.984 1.06977 -3.72337 0
M  V30 3465 H 318.398 -0.566518 -5.21432 0
M  V30 3466 H 319.872 1.1333 -5.40241 0
M  V30 3467 H 320.349 1.9686 -3.9261 0
M  V30 3468 H 320.955 0.326216 -4.24047 0
M  V30 3469 N 319.27 1.56325 -0.20005 0
M  V30 3470 C 320.516 1.98012 0.438059 0
M  V30 3471 C 320.849 1.08702 1.60927 0
M  V30 3472 O 320.124 0.140064 1.93995 0
M  V30 3473 C 320.407 3.48841 0.893419 0
M  V30 3474 C 320.26 4.48928 -0.279947 0
M  V30 3475 C 321.579 4.03498 1.75719 0
M  V30 3476 H 318.698 0.719918 0.157757 0
M  V30 3477 H 321.34 1.87743 -0.291968 0
M  V30 3478 H 319.49 3.57723 1.51547 0
M  V30 3479 H 321.162 4.52079 -0.91772 0
M  V30 3480 H 319.405 4.23694 -0.930919 0
M  V30 3481 H 320.076 5.5194 0.0812601 0
M  V30 3482 H 322.552 3.97427 1.23253 0
M  V30 3483 H 321.428 5.09393 2.04476 0
M  V30 3484 H 321.689 3.4906 2.71311 0
M  V30 3485 N 320.748 -0.0735177 1.57428 0
M  V30 3486 C 322.164 -0.428264 1.53747 0
M  V30 3487 C 322.364 -1.79272 0.91998 0
M  V30 3488 O 321.42 -2.47051 0.521745 0
M  V30 3489 C 322.733 -0.370914 2.98404 0
M  V30 3490 C 324.281 -0.451224 3.0973 0
M  V30 3491 C 324.756 -0.4238 4.56035 0
M  V30 3492 N 326.247 -0.483925 4.60665 0
M  V30 3493 C 326.982 -0.484891 5.71346 0
M  V30 3494 N 326.478 -0.440775 6.91396 0
M  V30 3495 N 328.271 -0.531319 5.59583 0
M  V30 3496 H 320.422 0.819949 1.95935 0
M  V30 3497 H 322.685 0.307493 0.896745 0
M  V30 3498 H 322.391 0.564956 3.47133 0
M  V30 3499 H 322.265 -1.18176 3.5821 0
M  V30 3500 H 324.652 -1.37752 2.60976 0
M  V30 3501 H 324.733 0.388167 2.52838 0
M  V30 3502 H 324.377 0.498638 5.05446 0
M  V30 3503 H 324.307 -1.2807 5.10789 0
M  V30 3504 H 326.798 -0.522338 3.74273 0
M  V30 3505 H 327.111 -0.44539 7.71515 0
M  V30 3506 H 325.456 -0.40749 6.93804 0
M  V30 3507 H 328.647 -0.563464 4.64696 0
M  V30 3508 H 328.82 -0.528603 6.4584 0
M  V30 3509 N 322.226 -1.5378 -0.344866 0
M  V30 3510 C 323.136 -1.84667 -1.4469 0
M  V30 3511 C 324.152 -0.736704 -1.57635 0
M  V30 3512 O 325.328 -1.02888 -1.73136 0
M  V30 3513 C 322.393 -2.04869 -2.79696 0
M  V30 3514 C 321.454 -3.28731 -2.76106 0
M  V30 3515 C 320.687 -3.4796 -4.04673 0
M  V30 3516 O 320.91 -2.71052 -5.01883 0
M  V30 3517 O 319.844 -4.41383 -4.09224 0
M  V30 3518 H 323.67 -2.78334 -1.21506 0
M  V30 3519 H 321.255 -1.39418 -0.536921 0
M  V30 3520 H 323.137 -2.19609 -3.59652 0
M  V30 3521 H 321.812 -1.14391 -3.02814 0
M  V30 3522 H 320.719 -3.19396 -1.94774 0
M  V30 3523 H 322.052 -4.19198 -2.57941 0
M  V30 3524 N 323.704 0.605807 -1.45491 0
M  V30 3525 C 325.115 1.18777 -1.44045 0
M  V30 3526 C 325.466 1.95471 -0.169001 0
M  V30 3527 O 324.591 2.0374 0.729324 0
M  V30 3528 C 325.186 2.16064 -2.60963 0
M  V30 3529 C 323.745 2.69633 -2.62631 0
M  V30 3530 C 322.892 1.45072 -2.36325 0
M  V30 3531 H 325.843 0.395017 -1.53705 0
M  V30 3532 H 325.864 2.9913 -2.35163 0
M  V30 3533 H 325.376 1.60217 -3.53486 0
M  V30 3534 H 323.477 3.29414 -1.74119 0
M  V30 3535 H 323.59 3.13944 -3.61906 0
M  V30 3536 H 321.954 1.74089 -1.85917 0
M  V30 3537 H 322.737 0.910899 -3.30995 0
M  V30 3538 N 325.182 1.32811 0.848464 0
M  V30 3539 C 326.407 1.26882 1.6406 0
M  V30 3540 C 326.832 -0.15913 1.87426 0
M  V30 3541 O 326.19 -1.11258 1.43148 0
M  V30 3542 C 326.238 2.03997 2.97351 0
M  V30 3543 O 325.342 1.39201 3.88197 0
M  V30 3544 H 324.683 0.436982 0.499943 0
M  V30 3545 H 327.213 1.75224 1.0563 0
M  V30 3546 H 327.223 2.14403 3.47124 0
M  V30 3547 H 325.898 3.0783 2.79666 0
M  V30 3548 H 324.475 1.37381 3.46671 0
M  V30 3549 N 326.66 -1.06551 1.16123 0
M  V30 3550 C 327.592 -2.13908 0.823171 0
M  V30 3551 C 328.605 -1.61926 -0.16843 0
M  V30 3552 O 329.794 -1.78412 0.055962 0
M  V30 3553 C 326.894 -3.38283 0.204424 0
M  V30 3554 C 326.067 -4.19589 1.23548 0
M  V30 3555 C 325.126 -5.2233 0.637011 0
M  V30 3556 O 324.152 -5.54034 1.30516 0
M  V30 3557 N 325.354 -5.77621 -0.577474 0
M  V30 3558 H 328.119 -2.43508 1.74711 0
M  V30 3559 H 325.68 -1.2253 1.05821 0
M  V30 3560 H 327.672 -4.0416 -0.208909 0
M  V30 3561 H 326.242 -3.06329 -0.623012 0
M  V30 3562 H 325.462 -3.49406 1.82507 0
M  V30 3563 H 326.75 -4.70718 1.93137 0
M  V30 3564 H 326.148 -5.54125 -1.13853 0
M  V30 3565 H 324.705 -6.45087 -0.933053 0
M  V30 3566 N 328.138 -0.959301 -1.25041 0
M  V30 3567 C 329.085 -0.482057 -2.2571 0
M  V30 3568 C 330.055 0.467939 -1.59372 0
M  V30 3569 O 331.24 0.380159 -1.86974 0
M  V30 3570 C 328.38 0.229623 -3.44335 0
M  V30 3571 C 327.493 -0.758156 -4.25295 0
M  V30 3572 C 326.628 -0.0234403 -5.31195 0
M  V30 3573 C 325.667 -1.00184 -6.03846 0
M  V30 3574 N 324.804 -0.29769 -7.01469 0
M  V30 3575 H 329.644 -1.34538 -2.65901 0
M  V30 3576 H 327.181 -0.674592 -1.3072 0
M  V30 3577 H 329.139 0.658856 -4.11965 0
M  V30 3578 H 327.769 1.05696 -3.05005 0
M  V30 3579 H 326.821 -1.30586 -3.57284 0
M  V30 3580 H 328.133 -1.50458 -4.75567 0
M  V30 3581 H 327.287 0.464201 -6.04922 0
M  V30 3582 H 326.026 0.755741 -4.81809 0
M  V30 3583 H 325.031 -1.50044 -5.2893 0
M  V30 3584 H 326.256 -1.78133 -6.55321 0
M  V30 3585 H 324.202 0.462668 -6.54366 0
M  V30 3586 H 324.119 -0.983128 -7.4958 0
M  V30 3587 H 325.387 0.16826 -7.79318 0
M  V30 3588 N 329.616 1.39756 -0.72842 0
M  V30 3589 C 330.546 2.33289 -0.0991354 0
M  V30 3590 C 331.527 1.53568 0.731489 0
M  V30 3591 O 332.712 1.81987 0.677807 0
M  V30 3592 C 329.842 3.3763 0.813834 0
M  V30 3593 C 328.796 4.2791 0.0878663 0
M  V30 3594 C 328.122 5.22894 1.11741 0
M  V30 3595 C 329.422 5.11314 -1.06563 0
M  V30 3596 H 331.116 2.86163 -0.880408 0
M  V30 3597 H 328.662 1.37591 -0.424819 0
M  V30 3598 H 330.615 4.0201 1.26355 0
M  V30 3599 H 329.339 2.83181 1.62715 0
M  V30 3600 H 327.998 3.65 -0.342159 0
M  V30 3601 H 327.646 4.64744 1.92412 0
M  V30 3602 H 327.346 5.84143 0.636477 0
M  V30 3603 H 328.87 5.90151 1.56697 0
M  V30 3604 H 330.284 5.69076 -0.694671 0
M  V30 3605 H 328.681 5.81671 -1.47577 0
M  V30 3606 H 329.751 4.46534 -1.89038 0
M  V30 3607 N 331.094 0.475555 1.50254 0
M  V30 3608 C 332.057 -0.305016 2.27161 0
M  V30 3609 C 333.057 -0.916519 1.32123 0
M  V30 3610 O 334.247 -0.785003 1.5551 0
M  V30 3611 C 331.379 -1.43496 3.09227 0
M  V30 3612 H 332.572 0.369511 2.97615 0
M  V30 3613 H 330.125 0.229747 1.54602 0
M  V30 3614 H 330.86 -2.14441 2.43281 0
M  V30 3615 H 330.645 -1.00223 3.79075 0
M  V30 3616 H 332.135 -1.98548 3.67381 0
M  V30 3617 N 332.573 -1.56217 0.208337 0
M  V30 3618 C 333.503 -2.22694 -0.702116 0
M  V30 3619 C 334.484 -1.19432 -1.2112 0
M  V30 3620 O 335.669 -1.47978 -1.25762 0
M  V30 3621 C 332.799 -2.8966 -1.9161 0
M  V30 3622 C 331.753 -3.9928 -1.5414 0
M  V30 3623 C 331.079 -4.53476 -2.83308 0
M  V30 3624 C 332.379 -5.17012 -0.741339 0
M  V30 3625 H 334.073 -2.99034 -0.147898 0
M  V30 3626 H 331.619 -1.43831 -0.0696951 0
M  V30 3627 H 333.572 -3.34852 -2.55836 0
M  V30 3628 H 332.296 -2.10746 -2.49507 0
M  V30 3629 H 330.955 -3.54799 -0.922668 0
M  V30 3630 H 330.603 -3.71308 -3.39322 0
M  V30 3631 H 330.303 -5.27451 -2.58976 0
M  V30 3632 H 331.827 -5.01378 -3.485 0
M  V30 3633 H 333.241 -5.58667 -1.28699 0
M  V30 3634 H 331.638 -5.97137 -0.595627 0
M  V30 3635 H 332.708 -4.8423 0.254851 0
M  V30 3636 N 334.051 0.0651679 -1.57465 0
M  V30 3637 C 335.298 0.763063 -1.87573 0
M  V30 3638 C 335.626 1.77242 -0.800961 0
M  V30 3639 O 334.881 1.94651 0.202316 0
M  V30 3640 C 335.18 1.50081 -3.24362 0
M  V30 3641 C 334.846 0.630816 -4.46466 0
M  V30 3642 C 333.508 0.391082 -4.79608 0
M  V30 3643 C 335.86 0.0279465 -5.21193 0
M  V30 3644 C 333.188 -0.460894 -5.84887 0
M  V30 3645 C 335.54 -0.811522 -6.27373 0
M  V30 3646 C 334.204 -1.06106 -6.59013 0
M  V30 3647 H 333.474 0.279224 -0.686378 0
M  V30 3648 H 336.121 0.0236726 -1.91485 0
M  V30 3649 H 334.426 2.31258 -3.16271 0
M  V30 3650 H 336.123 2.04571 -3.44894 0
M  V30 3651 H 332.713 0.8278 -4.2053 0
M  V30 3652 H 336.897 0.200262 -4.95896 0
M  V30 3653 H 332.153 -0.662907 -6.07796 0
M  V30 3654 H 336.327 -1.28537 -6.84435 0
M  V30 3655 H 333.954 -1.723 -7.40417 0
M  V30 3656 N 335.529 1.53961 0.336706 0
M  V30 3657 C 336.492 1.81724 1.39675 0
M  V30 3658 C 337.492 0.688532 1.45313 0
M  V30 3659 O 338.682 0.956829 1.45569 0
M  V30 3660 C 335.814 1.96543 2.78538 0
M  V30 3661 H 337.007 2.76424 1.16318 0
M  V30 3662 H 334.56 1.45478 0.571474 0
M  V30 3663 H 335.295 1.0401 3.07168 0
M  V30 3664 H 335.08 2.78665 2.75841 0
M  V30 3665 H 336.57 2.19516 3.5525 0
M  V30 3666 N 337.007 -0.598083 1.45811 0
M  V30 3667 C 337.917 -1.73632 1.57763 0
M  V30 3668 C 338.933 -1.67763 0.461676 0
M  V30 3669 O 340.109 -1.87949 0.723685 0
M  V30 3670 C 337.174 -3.10114 1.55018 0
M  V30 3671 C 336.235 -3.27364 2.77726 0
M  V30 3672 C 335.468 -4.57334 2.75102 0
M  V30 3673 O 335.691 -5.40258 1.8297 0
M  V30 3674 O 334.625 -4.77502 3.66437 0
M  V30 3675 H 338.451 -1.66498 2.53992 0
M  V30 3676 H 336.036 -0.763308 1.28429 0
M  V30 3677 H 337.918 -3.9141 1.56129 0
M  V30 3678 H 336.593 -3.17718 0.619431 0
M  V30 3679 H 335.5 -2.45619 2.82174 0
M  V30 3680 H 336.833 -3.24641 3.69958 0
M  V30 3681 N 338.485 -1.33259 -0.841409 0
M  V30 3682 C 339.713 -1.27605 -1.62864 0
M  V30 3683 C 340.128 0.153507 -1.88175 0
M  V30 3684 O 339.485 1.09485 -1.46011 0
M  V30 3685 C 339.536 -2.04596 -2.98031 0
M  V30 3686 O 339.257 -3.41975 -2.73834 0
M  V30 3687 C 340.758 -2.06122 -3.92465 0
M  V30 3688 H 337.978 -0.439718 -0.506842 0
M  V30 3689 H 340.522 -1.75591 -1.04824 0
M  V30 3690 H 338.677 -1.60299 -3.5268 0
M  V30 3691 H 339.091 -3.81549 -3.59889 0
M  V30 3692 H 340.565 -2.64451 -4.84531 0
M  V30 3693 H 341.042 -1.05083 -4.26444 0
M  V30 3694 H 341.648 -2.50427 -3.43753 0
M  V30 3695 N 339.963 1.05934 -1.16686 0
M  V30 3696 C 341.193 1.82226 -0.973515 0
M  V30 3697 C 341.601 1.8297 0.481532 0
M  V30 3698 O 340.944 1.25009 1.34604 0
M  V30 3699 C 341.006 3.29897 -1.42858 0
M  V30 3700 C 340.67 3.52849 -2.90425 0
M  V30 3701 C 341.667 3.45595 -3.88407 0
M  V30 3702 C 339.352 3.80053 -3.28428 0
M  V30 3703 C 341.346 3.65217 -5.22394 0
M  V30 3704 C 339.033 3.99325 -4.62583 0
M  V30 3705 C 340.031 3.91905 -5.59374 0
M  V30 3706 O 339.719 4.10647 -6.91104 0
M  V30 3707 H 339.451 0.581314 -0.345036 0
M  V30 3708 H 342.005 1.3453 -1.55212 0
M  V30 3709 H 340.235 3.78472 -0.793477 0
M  V30 3710 H 341.924 3.87692 -1.20207 0
M  V30 3711 H 342.69 3.24564 -3.60393 0
M  V30 3712 H 338.569 3.84936 -2.53664 0
M  V30 3713 H 342.113 3.59341 -5.9793 0
M  V30 3714 H 338.01 4.19846 -4.90306 0
M  V30 3715 H 338.778 4.27915 -6.97733 0
M  V30 3716 N 341.441 0.965919 1.2453 0
M  V30 3717 C 342.857 0.67216 1.44756 0
M  V30 3718 C 343.057 -0.766609 1.86347 0
M  V30 3719 O 342.113 -1.5407 2.00047 0
M  V30 3720 C 343.426 1.65473 2.51076 0
M  V30 3721 C 344.974 1.66716 2.64905 0
M  V30 3722 C 345.449 2.63766 3.74421 0
M  V30 3723 N 346.94 2.62198 3.81846 0
M  V30 3724 C 347.675 3.33966 4.66106 0
M  V30 3725 N 347.171 4.15245 5.54566 0
M  V30 3726 N 348.964 3.22799 4.60171 0
M  V30 3727 H 341.115 1.89553 0.958293 0
M  V30 3728 H 343.378 0.815979 0.482579 0
M  V30 3729 H 343.084 2.68296 2.27399 0
M  V30 3730 H 342.958 1.4261 3.49202 0
M  V30 3731 H 345.345 0.646057 2.87941 0
M  V30 3732 H 345.426 1.93642 1.67142 0
M  V30 3733 H 345.07 3.6601 3.52135 0
M  V30 3734 H 345 2.34121 4.71694 0
M  V30 3735 H 347.491 2.032 3.18619 0
M  V30 3736 H 347.804 4.66898 6.15814 0
M  V30 3737 H 346.149 4.1934 5.54237 0
M  V30 3738 H 349.34 2.58764 3.90075 0
M  V30 3739 H 349.513 3.78994 5.25612 0
M  V30 3740 N 342.919 -1.39368 0.735821 0
M  V30 3741 C 343.851 -2.2913 0.0567723 0
M  V30 3742 C 344.864 -1.46859 -0.702589 0
M  V30 3743 O 346.053 -1.69925 -0.546616 0
M  V30 3744 C 343.153 -3.25492 -0.943823 0
M  V30 3745 C 342.326 -4.36709 -0.24581 0
M  V30 3746 C 341.385 -5.13376 -1.15463 0
M  V30 3747 O 340.411 -5.65683 -0.631803 0
M  V30 3748 N 341.613 -5.24656 -2.48427 0
M  V30 3749 H 344.378 -2.88047 0.827582 0
M  V30 3750 H 341.939 -1.50957 0.585112 0
M  V30 3751 H 343.931 -3.73657 -1.55443 0
M  V30 3752 H 342.501 -2.676 -1.61583 0
M  V30 3753 H 341.721 -3.9041 0.545286 0
M  V30 3754 H 343.009 -5.08244 0.237891 0
M  V30 3755 H 342.407 -4.83679 -2.93379 0
M  V30 3756 H 340.964 -5.76258 -3.04582 0
M  V30 3757 N 344.397 -0.483516 -1.5 0
M  V30 3758 C 345.645 0.067027 -2.01989 0
M  V30 3759 C 345.966 1.3909 -1.36671 0
M  V30 3760 O 345.236 1.88978 -0.516152 0
M  V30 3761 H 343.816 0.0277606 -0.746484 0
M  V30 3762 H 346.478 -0.636773 -1.84204 0
M  V30 3763 H 345.574 0.209484 -3.11396 0
M  V30 3764 N 345.875 1.56104 -0.216619 0
M  V30 3765 C 346.807 2.17339 0.72776 0
M  V30 3766 C 347.82 1.14109 1.16116 0
M  V30 3767 O 349.009 1.4111 1.09317 0
M  V30 3768 C 346.109 2.73818 1.99693 0
M  V30 3769 C 345.282 4.02168 1.71988 0
M  V30 3770 C 344.341 4.43259 2.83562 0
M  V30 3771 O 343.367 5.10257 2.52244 0
M  V30 3772 N 344.569 4.08535 4.12407 0
M  V30 3773 H 347.334 2.99005 0.203983 0
M  V30 3774 H 344.895 1.61861 -0.0354289 0
M  V30 3775 H 346.887 2.9828 2.73516 0
M  V30 3776 H 345.457 1.96483 2.43132 0
M  V30 3777 H 344.677 3.85612 0.818337 0
M  V30 3778 H 345.965 4.85907 1.50903 0
M  V30 3779 H 345.363 3.54687 4.40696 0
M  V30 3780 H 343.92 4.37901 4.8279 0
M  V30 3781 N 347.353 -0.0568162 1.57498 0
M  V30 3782 C 348.764 -0.606858 1.76562 0
M  V30 3783 C 349.115 -1.77114 0.844094 0
M  V30 3784 O 348.24 -2.16376 0.0318911 0
M  V30 3785 C 348.835 -1.10766 3.20182 0
M  V30 3786 C 347.394 -1.60344 3.40539 0
M  V30 3787 C 346.541 -0.529311 2.72201 0
M  V30 3788 H 349.492 0.169393 1.57793 0
M  V30 3789 H 349.513 -1.97602 3.25167 0
M  V30 3790 H 349.025 -0.26006 3.87228 0
M  V30 3791 H 347.126 -2.47379 2.78629 0
M  V30 3792 H 347.239 -1.67006 4.4905 0
M  V30 3793 H 345.603 -0.977893 2.35179 0
M  V30 3794 H 346.386 0.308352 3.41912 0
M  V30 3795 N 348.832 -1.54138 -0.328536 0
M  V30 3796 C 349.78 -1.83894 -1.42428 0
M  V30 3797 C 350.774 -0.710478 -1.53781 0
M  V30 3798 O 351.98 -0.894062 -1.56226 0
M  V30 3799 H 348.355 -0.582837 -0.475189 0
M  V30 3800 H 350.326 -2.75537 -1.14552 0
M  V30 3801 C 349.075 -2.07866 -2.78724 0
M  V30 3802 H 348.398 -2.94158 -2.7076 0
M  V30 3803 H 349.838 -2.32644 -3.54476 0
M  V30 3804 C 348.297 -0.868689 -3.25508 0
M  V30 3805 O 348.827 -0.0754908 -4.01629 0
M  V30 3806 N 347.033 -0.681711 -2.82491 0
M  V30 3807 H 346.58 -1.32838 -2.20708 0
M  V30 3808 H 346.538 0.126374 -3.14146 0
M  V30 3809 N 350.31 0.590341 -1.46126 0
M  V30 3810 C 351.721 1.17243 -1.45296 0
M  V30 3811 C 352.072 1.95281 -0.189723 0
M  V30 3812 O 351.197 2.04502 0.707674 0
M  V30 3813 C 351.792 2.13284 -2.6324 0
M  V30 3814 C 350.351 2.66832 -2.65476 0
M  V30 3815 C 349.498 1.42557 -2.3785 0
M  V30 3816 H 352.449 0.378692 -1.54116 0
M  V30 3817 H 352.47 2.96619 -2.38323 0
M  V30 3818 H 351.982 1.56459 -3.55165 0
M  V30 3819 H 350.083 3.27548 -1.77603 0
M  V30 3820 H 350.196 3.10088 -3.65215 0
M  V30 3821 H 348.56 1.72107 -1.87753 0
M  V30 3822 H 349.343 0.875741 -3.31942 0
M  V30 3823 N 351.788 1.33704 0.83433 0
M  V30 3824 C 353.065 1.16011 1.57483 0
M  V30 3825 C 353.445 -0.27176 2.09343 0
M  V30 3826 O 352.793 -1.27146 1.89858 0
M  V30 3827 C 353.003 2.20507 2.70514 0
M  V30 3828 C 354.351 2.54898 3.39577 0
M  V30 3829 O 355.375 2.19209 2.80759 0
M  V30 3830 O 354.234 3.16158 4.45765 0
M  V30 3831 H 351.328 0.448992 0.694503 0
M  V30 3832 H 353.874 1.453 0.876691 0
M  V30 3833 H 352.646 3.16667 2.29865 0
M  V30 3834 H 352.269 1.92329 3.47987 0
M  V30 3835 N 353.266 -1.05314 1.17247 0
M  V30 3836 C 354.196 -2.1498 0.911362 0
M  V30 3837 C 355.177 -1.69471 -0.146169 0
M  V30 3838 O 356.362 -1.942 0.003812 0
M  V30 3839 C 353.492 -3.4472 0.422528 0
M  V30 3840 C 352.446 -4.03789 1.4191 0
M  V30 3841 C 351.772 -5.28858 0.788274 0
M  V30 3842 C 353.072 -4.41418 2.7919 0
M  V30 3843 H 354.766 -2.3708 1.82848 0
M  V30 3844 H 352.312 -1.13938 0.880569 0
M  V30 3845 H 354.265 -4.20787 0.227289 0
M  V30 3846 H 352.989 -3.22269 -0.530123 0
M  V30 3847 H 351.648 -3.2979 1.60106 0
M  V30 3848 H 351.296 -5.02709 -0.171173 0
M  V30 3849 H 350.996 -5.69338 1.45353 0
M  V30 3850 H 352.52 -6.07612 0.603282 0
M  V30 3851 H 353.934 -5.08524 2.64719 0
M  V30 3852 H 352.331 -4.92913 3.42282 0
M  V30 3853 H 353.401 -3.51819 3.33693 0
M  V30 3854 O 354.783 -1.10174 -1.18084 0
M  V30 3855 H 355.474 -0.801769 -1.76327 0
M  V30 END ATOM
M  V30 BEGIN BOND
M  V30 END BOND
M  V30 END CTAB
M  END
$$$$
