drugbank_target|Q96S37 Solute carrier family 22 member 12 (DB01138; DB11560)
 OpenBabel12092120593D

  0  0  0     0  0            999 V3000
M  V30 BEGIN CTAB
M  V30 COUNTS 8485 8590 0 0 0
M  V30 BEGIN ATOM
M  V30 1 H -0.908 1.98254 -0.117106 0
M  V30 2 N 0 1.576 0 0
M  V30 3 C 0.933 2.03868 1.02534 0
M  V30 4 C 1.911 0.928543 1.3348 0
M  V30 5 O 3.095 1.19667 1.45644 0
M  V30 6 C 0.222 2.43627 2.35294 0
M  V30 7 C -0.732 3.65373 2.2001 0
M  V30 8 S 0.101 5.13292 1.52614 0
M  V30 9 C 1.257 5.56322 2.86805 0
M  V30 10 H 1.49 2.90518 0.631377 0
M  V30 11 H -0.977 1.52953 0.210867 0
M  V30 12 H 0.981 2.67203 3.11629 0
M  V30 13 H -0.358 1.57376 2.7183 0
M  V30 14 H -1.165 3.90944 3.18086 0
M  V30 15 H -1.563 3.418 1.51819 0
M  V30 16 H 0.729 5.58782 3.83104 0
M  V30 17 H 1.672 6.56266 2.65933 0
M  V30 18 H 2.08 4.83886 2.90714 0
M  V30 19 N 1.4781 -0.272755 1.55222 0
M  V30 20 C 2.4411 -1.32041 1.87344 0
M  V30 21 C 3.4411 -1.42342 0.74803 0
M  V30 22 O 4.6311 -1.41488 1.0162 0
M  V30 23 C 1.7631 -2.70173 2.07893 0
M  V30 24 H 2.9561 -1.04789 2.80997 0
M  V30 25 H 0.5091 -0.51083 1.47717 0
M  V30 26 H 1.2441 -3.02605 1.16622 0
M  V30 27 H 1.0291 -2.64082 2.89833 0
M  V30 28 H 2.5191 -3.45869 2.34017 0
M  V30 29 N 2.9562 -1.48159 -0.537278 0
M  V30 30 C 4.2032 -1.55804 -1.29349 0
M  V30 31 C 4.5312 -0.228802 -1.9315 0
M  V30 32 O 3.7862 0.780242 -1.79473 0
M  V30 33 C 4.0852 -2.63956 -2.40961 0
M  V30 34 C 3.7512 -4.0662 -1.94861 0
M  V30 35 C 2.4132 -4.45452 -1.82006 0
M  V30 36 C 4.7652 -4.96055 -1.59933 0
M  V30 37 C 2.0932 -5.71531 -1.32547 0
M  V30 38 C 4.4452 -6.22617 -1.11939 0
M  V30 39 C 3.1092 -6.60312 -0.976951 0
M  V30 40 H 2.3792 -0.570129 -0.473322 0
M  V30 41 H 5.0262 -1.81845 -0.600372 0
M  V30 42 H 3.3312 -2.31747 -3.15912 0
M  V30 43 H 5.0282 -2.67089 -2.99107 0
M  V30 44 H 1.6182 -3.75949 -2.05815 0
M  V30 45 H 5.8022 -4.66738 -1.68728 0
M  V30 46 H 1.0582 -5.99468 -1.202 0
M  V30 47 H 5.2322 -6.91318 -0.839811 0
M  V30 48 H 2.8592 -7.57895 -0.591501 0
M  V30 49 N 4.4343 0.785586 -1.36625 0
M  V30 50 C 5.6593 1.57963 -1.34397 0
M  V30 51 C 6.0843 1.87964 0.071526 0
M  V30 52 O 5.4423 1.48182 1.0446 0
M  V30 53 C 5.4903 2.87511 -2.17646 0
M  V30 54 O 4.5943 3.81281 -1.57158 0
M  V30 55 H 3.9353 0.479014 -0.459828 0
M  V30 56 H 6.4653 0.973411 -1.79961 0
M  V30 57 H 6.4753 3.36745 -2.30362 0
M  V30 58 H 5.1503 2.65002 -3.20541 0
M  V30 59 H 3.7273 3.39885 -1.53403 0
M  V30 60 N 5.9124 1.20967 1.01018 0
M  V30 61 C 6.8224 0.980157 2.13143 0
M  V30 62 C 7.8384 -0.0660665 1.73875 0
M  V30 63 O 9.0144 0.122821 2.01025 0
M  V30 64 C 6.0794 0.54216 3.42435 0
M  V30 65 C 5.1404 1.65999 3.95908 0
M  V30 66 C 4.3734 1.2428 5.19028 0
M  V30 67 O 4.5964 0.114196 5.70286 0
M  V30 68 O 3.5304 2.05271 5.65816 0
M  V30 69 H 7.3564 1.91913 2.35379 0
M  V30 70 H 4.9414 0.994099 1.11526 0
M  V30 71 H 6.8234 0.30744 4.20277 0
M  V30 72 H 5.4984 -0.36815 3.216 0
M  V30 73 H 4.4054 1.94906 3.19316 0
M  V30 74 H 5.7384 2.54753 4.21143 0
M  V30 75 N 7.3905 -1.2043 1.01659 0
M  V30 76 C 8.3205 -2.25466 0.607226 0
M  V30 77 C 9.3015 -1.65853 -0.377716 0
M  V30 78 O 10.4865 -1.92409 -0.263149 0
M  V30 79 C 7.6165 -3.47256 -0.0552949 0
M  V30 80 C 6.5705 -4.19462 0.850632 0
M  V30 81 C 5.8965 -5.34673 0.0538859 0
M  V30 82 C 7.1965 -4.75603 2.15868 0
M  V30 83 H 8.8905 -2.59962 1.48526 0
M  V30 84 H 6.4365 -1.2496 0.715605 0
M  V30 85 H 8.3895 -4.19917 -0.353233 0
M  V30 86 H 7.1135 -3.11924 -0.968045 0
M  V30 87 H 5.7725 -3.48667 1.13257 0
M  V30 88 H 5.4205 -4.95585 -0.860514 0
M  V30 89 H 5.1205 -5.83913 0.657192 0
M  V30 90 H 6.6445 -6.10138 -0.237598 0
M  V30 91 H 8.0585 -5.40083 1.92311 0
M  V30 92 H 6.4555 -5.3528 2.71284 0
M  V30 93 H 7.5255 -3.94346 2.82169 0
M  V30 94 N 8.8686 -0.792821 -1.36206 0
M  V30 95 C 9.7986 -0.207853 -2.32573 0
M  V30 96 C 10.7796 0.659055 -1.56813 0
M  V30 97 O 11.9646 0.592176 -1.84951 0
M  V30 98 C 9.0946 0.655449 -3.41059 0
M  V30 99 C 8.0486 -0.111842 -4.27854 0
M  V30 100 C 7.3746 0.872274 -5.27537 0
M  V30 101 C 8.6746 -1.30299 -5.05786 0
M  V30 102 H 10.3686 -1.01294 -2.81744 0
M  V30 103 H 7.9146 -0.48854 -1.3546 0
M  V30 104 H 9.8676 1.07464 -4.07467 0
M  V30 105 H 8.5916 1.49328 -2.90463 0
M  V30 106 H 7.2506 -0.512053 -3.63006 0
M  V30 107 H 6.8986 1.70523 -4.73214 0
M  V30 108 H 6.5986 0.363291 -5.86476 0
M  V30 109 H 8.1226 1.28996 -5.96818 0
M  V30 110 H 9.5366 -0.959379 -5.65216 0
M  V30 111 H 7.9336 -1.7455 -5.74154 0
M  V30 112 H 9.0036 -2.09663 -4.37229 0
M  V30 113 N 10.3467 1.47872 -0.545128 0
M  V30 114 C 11.6237 1.9554 0.0485222 0
M  V30 115 C 12.0037 1.4876 1.49779 0
M  V30 116 O 11.3517 0.720925 2.16829 0
M  V30 117 C 11.5617 3.48898 -0.084417 0
M  V30 118 C 12.9097 4.24547 0.0671239 0
M  V30 119 O 13.9337 3.56198 -0.0113649 0
M  V30 120 O 12.7927 5.45999 0.233882 0
M  V30 121 H 9.8867 0.823957 0.0708773 0
M  V30 122 H 12.4327 1.58327 -0.610798 0
M  V30 123 H 11.2047 3.75714 -1.09337 0
M  V30 124 H 10.8277 3.92845 0.613066 0
M  V30 125 N 11.8248 0.280983 1.55075 0
M  V30 126 C 12.7548 -0.597469 2.25727 0
M  V30 127 C 13.7358 -1.15417 1.24952 0
M  V30 128 O 14.9208 -1.18722 1.53684 0
M  V30 129 C 12.0508 -1.7789 2.98283 0
M  V30 130 C 11.0048 -1.35347 4.06036 0
M  V30 131 C 10.3308 -2.61846 4.66198 0
M  V30 132 C 11.6308 -0.499354 5.19907 0
M  V30 133 H 13.3248 -0.00824265 2.99399 0
M  V30 134 H 10.8708 -0.0025244 1.44 0
M  V30 135 H 12.8238 -2.39937 3.46422 0
M  V30 136 H 11.5478 -2.39405 2.22155 0
M  V30 137 H 10.2068 -0.756156 3.58717 0
M  V30 138 H 9.8548 -3.21632 3.86732 0
M  V30 139 H 9.5548 -2.3409 5.38958 0
M  V30 140 H 11.0788 -3.24732 5.1709 0
M  V30 141 H 12.4928 -1.02498 5.64063 0
M  V30 142 H 10.8898 -0.316424 5.99265 0
M  V30 143 H 11.9598 0.480459 4.82514 0
M  V30 144 N 13.3029 -1.57598 0.00835791 0
M  V30 145 C 14.5489 -1.91211 -0.675732 0
M  V30 146 C 14.8819 -0.883139 -1.72958 0
M  V30 147 O 14.1569 0.097016 -1.94258 0
M  V30 148 C 14.4399 -3.35379 -1.31123 0
M  V30 149 C 14.2929 -4.48999 -0.268356 0
M  V30 150 C 15.6119 -3.7912 -2.23508 0
M  V30 151 H 12.7309 -0.695374 -0.244179 0
M  V30 152 H 15.3729 -1.89901 0.0613655 0
M  V30 153 H 13.5229 -3.36626 -1.93946 0
M  V30 154 H 15.1949 -4.59887 0.360844 0
M  V30 155 H 13.4379 -4.31873 0.408482 0
M  V30 156 H 14.1089 -5.46851 -0.752218 0
M  V30 157 H 16.5849 -3.79477 -1.70693 0
M  V30 158 H 15.4609 -4.80729 -2.64936 0
M  V30 159 H 15.7219 -3.13455 -3.11766 0
M  V30 160 N 14.781 0.264519 -1.55364 0
M  V30 161 C 16.029 0.993021 -1.76021 0
M  V30 162 C 16.35 1.86511 -0.569099 0
M  V30 163 O 15.62 1.91438 0.415735 0
M  V30 164 H 14.2 0.369639 -0.649135 0
M  V30 165 H 16.862 0.286707 -1.9278 0
M  V30 166 H 15.958 1.62502 -2.66457 0
M  V30 167 N 16.2591 1.48442 0.529413 0
M  V30 168 C 17.5071 1.56179 1.28267 0
M  V30 169 C 17.8281 0.237721 1.93546 0
M  V30 170 O 17.0981 -0.740779 1.81354 0
M  V30 171 H 15.6781 0.575367 0.476405 0
M  V30 172 H 18.3401 1.84909 0.61602 0
M  V30 173 H 17.4361 2.34312 2.06165 0
M  V30 174 N 17.7372 -0.778329 1.37039 0
M  V30 175 C 18.6672 -1.90546 1.34962 0
M  V30 176 C 19.6482 -1.68681 0.219274 0
M  V30 177 O 20.8332 -1.89634 0.418624 0
M  V30 178 C 17.9632 -3.27734 1.14925 0
M  V30 179 C 16.9172 -3.64147 2.24902 0
M  V30 180 C 16.2432 -4.99806 1.89996 0
M  V30 181 C 17.5432 -3.71579 3.67051 0
M  V30 182 H 19.2372 -1.92541 2.29277 0
M  V30 183 H 16.7832 -0.924948 1.10366 0
M  V30 184 H 18.7362 -4.06215 1.12104 0
M  V30 185 H 17.4602 -3.26154 0.170631 0
M  V30 186 H 16.1192 -2.8797 2.26868 0
M  V30 187 H 15.7672 -4.94759 0.906796 0
M  V30 188 H 15.4672 -5.25139 2.63634 0
M  V30 189 H 16.9912 -5.80694 1.88749 0
M  V30 190 H 18.4052 -4.40227 3.67251 0
M  V30 191 H 16.8022 -4.08405 4.39688 0
M  V30 192 H 17.8722 -2.72404 4.01154 0
M  V30 193 N 19.2153 -1.21501 -1.00376 0
M  V30 194 C 20.4633 -1.03095 -1.73827 0
M  V30 195 C 20.7843 0.436341 -1.90055 0
M  V30 196 O 20.0543 1.31466 -1.45236 0
M  V30 197 H 18.6343 -0.378487 -0.644016 0
M  V30 198 H 21.2963 -1.52831 -1.20949 0
M  V30 199 H 20.3923 -1.49991 -2.73695 0
M  V30 200 N 20.6934 1.19889 -1.02296 0
M  V30 201 C 22.1094 1.41462 -0.738954 0
M  V30 202 C 22.3094 1.89721 0.678846 0
M  V30 203 O 21.3654 2.07016 1.4457 0
M  V30 204 C 22.6784 2.43083 -1.77005 0
M  V30 205 C 24.2264 2.5684 -1.78892 0
M  V30 206 C 24.7014 3.61709 -2.80945 0
M  V30 207 N 26.1924 3.69199 -2.79725 0
M  V30 208 C 26.9274 4.50019 -3.55345 0
M  V30 209 N 26.4234 5.34592 -4.40662 0
M  V30 210 N 28.2164 4.44612 -3.43914 0
M  V30 211 H 20.3674 0.868827 -1.93817 0
M  V30 212 H 22.6304 0.44399 -0.837602 0
M  V30 213 H 22.3364 2.14636 -2.78612 0
M  V30 214 H 22.2104 3.4217 -1.58744 0
M  V30 215 H 24.5974 2.84614 -0.779674 0
M  V30 216 H 24.6784 1.57927 -2.01228 0
M  V30 217 H 24.3224 3.34678 -3.82038 0
M  V30 218 H 24.2524 4.60259 -2.5587 0
M  V30 219 H 26.7434 3.08794 -2.17842 0
M  V30 220 H 27.0564 5.93363 -4.95116 0
M  V30 221 H 25.4014 5.34073 -4.44737 0
M  V30 222 H 28.5924 3.7758 -2.76679 0
M  V30 223 H 28.7654 5.0736 -4.031 0
M  V30 224 N 22.1715 0.800033 1.35784 0
M  V30 225 C 23.4185 0.377342 1.98953 0
M  V30 226 C 23.7465 -1.05378 1.6348 0
M  V30 227 O 23.0015 -1.74459 0.886707 0
M  V30 228 C 23.3005 0.500276 3.53881 0
M  V30 229 C 22.9665 1.89375 4.09204 0
M  V30 230 C 21.6285 2.27499 4.24025 0
M  V30 231 C 23.9805 2.8057 4.39238 0
M  V30 232 C 21.3085 3.562 4.66195 0
M  V30 233 C 23.6605 4.0871 4.82844 0
M  V30 234 C 22.3245 4.46843 4.95871 0
M  V30 235 H 21.5945 0.138079 0.728021 0
M  V30 236 H 24.2415 1.01955 1.62103 0
M  V30 237 H 22.5465 -0.225405 3.91151 0
M  V30 238 H 24.2435 0.154097 4.00704 0
M  V30 239 H 20.8335 1.58753 3.98115 0
M  V30 240 H 25.0175 2.52367 4.27346 0
M  V30 241 H 20.2735 3.85602 4.74469 0
M  V30 242 H 24.4475 4.79481 5.05046 0
M  V30 243 H 22.0745 5.46623 5.28306 0
M  V30 244 N 23.6496 -1.47581 0.552962 0
M  V30 245 C 24.5816 -2.27997 -0.234533 0
M  V30 246 C 25.5946 -1.36753 -0.883321 0
M  V30 247 O 26.7836 -1.61612 -0.757889 0
M  V30 248 C 23.8836 -3.10879 -1.34935 0
M  V30 249 C 23.0566 -4.30056 -0.798158 0
M  V30 250 C 22.1156 -4.94567 -1.79694 0
M  V30 251 O 21.1416 -5.53087 -1.34474 0
M  V30 252 N 22.3436 -4.88878 -3.13015 0
M  V30 253 H 25.1086 -2.96222 0.455255 0
M  V30 254 H 22.6696 -1.57163 0.388761 0
M  V30 255 H 24.6616 -3.50903 -2.01616 0
M  V30 256 H 23.2316 -2.44924 -1.94244 0
M  V30 257 H 22.4516 -3.94174 0.0453079 0
M  V30 258 H 23.7396 -5.07152 -0.409173 0
M  V30 259 H 23.1376 -4.42526 -3.52402 0
M  V30 260 H 21.6946 -5.32934 -3.75266 0
M  V30 261 N 25.1277 -0.289203 -1.54924 0
M  V30 262 C 26.3737 0.323998 -2.00195 0
M  V30 263 C 26.7067 1.54441 -1.17735 0
M  V30 264 O 25.9817 1.92875 -0.250878 0
M  V30 265 C 26.2647 0.692276 -3.53383 0
M  V30 266 C 26.1177 -0.536457 -4.46589 0
M  V30 267 C 27.4367 1.52335 -4.12895 0
M  V30 268 H 24.5557 0.116289 -0.727768 0
M  V30 269 H 27.1977 -0.398954 -1.85764 0
M  V30 270 H 25.3477 1.30822 -3.65811 0
M  V30 271 H 27.0197 -1.17499 -4.46085 0
M  V30 272 H 25.2627 -1.17192 -4.1767 0
M  V30 273 H 25.9337 -0.234806 -5.515 0
M  V30 274 H 28.4097 1.00302 -4.0383 0
M  V30 275 H 27.2857 1.74982 -5.20262 0
M  V30 276 H 27.5467 2.50886 -3.64018 0
M  V30 277 N 26.6058 1.57591 -0.0167156 0
M  V30 278 C 27.5358 2.12496 0.967858 0
M  V30 279 C 28.5168 1.03807 1.34752 0
M  V30 280 O 29.7018 1.31577 1.42833 0
M  V30 281 C 26.8318 2.64194 2.25431 0
M  V30 282 C 25.7858 3.77559 2.01576 0
M  V30 283 C 25.1118 4.15636 3.36379 0
M  V30 284 C 26.4118 5.04151 1.36489 0
M  V30 285 H 28.1058 2.95013 0.510643 0
M  V30 286 H 25.6518 1.41915 0.244181 0
M  V30 287 H 27.6048 3.01236 2.94678 0
M  V30 288 H 26.3288 1.78821 2.73296 0
M  V30 289 H 24.9878 3.40937 1.34751 0
M  V30 290 H 24.6358 3.27263 3.81979 0
M  V30 291 H 24.3358 4.92022 3.21229 0
M  V30 292 H 25.8598 4.5525 4.06915 0
M  V30 293 H 27.2738 5.38857 1.95718 0
M  V30 294 H 25.6708 5.85453 1.31776 0
M  V30 295 H 26.7408 4.83733 0.336219 0
M  V30 296 N 28.0839 -0.256276 1.55502 0
M  V30 297 C 29.0159 -1.33981 1.85962 0
M  V30 298 C 30.0289 -1.44743 0.745212 0
M  V30 299 O 31.2179 -1.4626 1.02324 0
M  V30 300 C 28.3179 -2.7194 2.02242 0
M  V30 301 C 27.4909 -2.83562 3.33033 0
M  V30 302 C 26.5499 -4.02304 3.39172 0
M  V30 303 O 25.5759 -3.92273 4.12444 0
M  V30 304 N 26.7779 -5.15045 2.67784 0
M  V30 305 H 29.5429 -1.08191 2.7949 0
M  V30 306 H 27.1039 -0.446388 1.55624 0
M  V30 307 H 29.0959 -3.49697 2.03701 0
M  V30 308 H 27.6659 -2.90479 1.15502 0
M  V30 309 H 26.8859 -1.92555 3.43971 0
M  V30 310 H 28.1739 -2.88271 4.19258 0
M  V30 311 H 27.5719 -5.26085 2.07968 0
M  V30 312 H 26.1289 -5.90972 2.74947 0
M  V30 313 N 29.562 -1.4872 -0.521534 0
M  V30 314 C 30.79 -1.60843 -1.30142 0
M  V30 315 C 31.205 -0.271897 -1.86832 0
M  V30 316 O 30.562 0.739969 -1.66825 0
M  V30 317 C 30.613 -2.66155 -2.4463 0
M  V30 318 O 30.334 -3.94623 -1.90275 0
M  V30 319 C 31.835 -2.88795 -3.36322 0
M  V30 320 H 29.055 -0.542075 -0.395468 0
M  V30 321 H 31.599 -1.94609 -0.628285 0
M  V30 322 H 29.754 -2.35224 -3.07812 0
M  V30 323 H 30.168 -4.52468 -2.65279 0
M  V30 324 H 31.642 -3.66264 -4.12983 0
M  V30 325 H 32.119 -1.97934 -3.9207 0
M  V30 326 H 32.725 -3.21063 -2.78924 0
M  V30 327 N 31.0401 0.771051 -1.3745 0
M  V30 328 C 31.9731 1.89166 -1.27638 0
M  V30 329 C 32.9511 1.61842 -0.156782 0
M  V30 330 O 34.1351 1.85569 -0.331111 0
M  V30 331 C 31.2621 3.24405 -0.973621 0
M  V30 332 C 30.3081 3.70638 -2.1102 0
M  V30 333 S 31.1411 3.84228 -3.73 0
M  V30 334 C 32.2971 5.22313 -3.44876 0
M  V30 335 H 32.5301 1.972 -2.22485 0
M  V30 336 H 30.0631 0.932224 -1.23081 0
M  V30 337 H 32.0211 4.02514 -0.805766 0
M  V30 338 H 30.6821 3.14071 -0.0426279 0
M  V30 339 H 29.8751 4.68685 -1.85338 0
M  V30 340 H 29.4771 2.99632 -2.23822 0
M  V30 341 H 31.7691 6.07505 -2.99908 0
M  V30 342 H 32.7121 5.53008 -4.42253 0
M  V30 343 H 33.1201 4.90284 -2.79789 0
M  V30 344 N 32.5182 1.22032 0.997298 0
M  V30 345 C 33.4812 0.987909 2.06816 0
M  V30 346 C 34.4812 -0.0440084 1.6074 0
M  V30 347 O 35.6712 0.194053 1.73116 0
M  V30 348 C 32.8032 0.49132 3.37341 0
M  V30 349 H 33.9962 1.93803 2.28868 0
M  V30 350 H 31.5492 1.03838 1.16822 0
M  V30 351 H 32.2842 -0.463364 3.20973 0
M  V30 352 H 32.0692 1.23575 3.72118 0
M  V30 353 H 33.5592 0.348824 4.16141 0
M  V30 354 N 33.9963 -1.19345 1.0293 0
M  V30 355 C 34.9263 -2.2481 0.631105 0
M  V30 356 C 35.9073 -1.66245 -0.360104 0
M  V30 357 O 37.0923 -1.92677 -0.242726 0
M  V30 358 C 34.2223 -3.47295 -0.0184607 0
M  V30 359 C 33.1763 -4.18536 0.895073 0
M  V30 360 C 32.5023 -5.34586 0.110592 0
M  V30 361 C 33.8023 -4.73287 2.209 0
M  V30 362 H 35.4963 -2.58372 1.51275 0
M  V30 363 H 33.0423 -1.24194 0.728818 0
M  V30 364 H 34.9953 -4.20268 -0.308675 0
M  V30 365 H 33.7193 -3.12933 -0.934907 0
M  V30 366 H 32.3783 -3.47446 1.16949 0
M  V30 367 H 32.0263 -4.96469 -0.807902 0
M  V30 368 H 31.7263 -5.83183 0.719087 0
M  V30 369 H 33.2503 -6.10355 -0.172871 0
M  V30 370 H 34.6643 -5.38013 1.98028 0
M  V30 371 H 33.0613 -5.32373 2.76946 0
M  V30 372 H 34.1313 -3.91331 2.86336 0
M  V30 373 N 35.4744 -0.807222 -1.35358 0
M  V30 374 C 36.4074 -0.163572 -2.27613 0
M  V30 375 C 37.3854 0.670817 -1.48118 0
M  V30 376 O 38.5694 0.63796 -1.77376 0
M  V30 377 C 35.6964 0.773015 -3.29761 0
M  V30 378 C 34.7424 0.0181653 -4.26496 0
M  V30 379 S 35.5754 -1.31831 -5.19019 0
M  V30 380 C 36.7314 -0.38619 -6.24707 0
M  V30 381 H 36.9644 -0.945757 -2.81856 0
M  V30 382 H 34.4974 -0.602315 -1.42167 0
M  V30 383 H 36.4554 1.30788 -3.89108 0
M  V30 384 H 35.1164 1.52859 -2.74396 0
M  V30 385 H 34.3094 0.729534 -4.98692 0
M  V30 386 H 33.9114 -0.446761 -3.71322 0
M  V30 387 H 36.2034 0.428295 -6.76145 0
M  V30 388 H 37.1464 -1.07736 -6.99856 0
M  V30 389 H 37.5544 0.018398 -5.64497 0
M  V30 390 N 36.9525 1.47285 -0.560781 0
M  V30 391 C 38.1985 2.02764 -0.0381184 0
M  V30 392 C 38.5315 1.43384 1.30976 0
M  V30 393 O 37.8065 0.590733 1.85312 0
M  V30 394 C 38.0895 3.60064 0.0511427 0
M  V30 395 C 37.9425 4.2987 -1.32408 0
M  V30 396 C 39.2615 4.33439 0.762795 0
M  V30 397 H 36.3805 0.736841 -0.0153264 0
M  V30 398 H 39.0225 1.75675 -0.723759 0
M  V30 399 H 37.1725 3.83274 0.635065 0
M  V30 400 H 38.8445 4.17989 -1.95148 0
M  V30 401 H 37.0875 3.90085 -1.8978 0
M  V30 402 H 37.7585 5.38478 -1.21431 0
M  V30 403 H 40.2345 4.15243 0.266965 0
M  V30 404 H 39.1105 5.43124 0.794221 0
M  V30 405 H 39.3715 4.02915 1.81966 0
M  V30 406 N 38.4306 0.297415 1.54768 0
M  V30 407 C 39.6556 -0.318435 2.04941 0
M  V30 408 C 40.0806 -1.4701 1.17345 0
M  V30 409 O 39.4386 -1.80436 0.176758 0
M  V30 410 C 39.4866 -0.755749 3.52592 0
M  V30 411 O 38.5906 -1.86088 3.68028 0
M  V30 412 H 37.9316 -0.062421 0.661059 0
M  V30 413 H 40.4616 0.438215 1.99852 0
M  V30 414 H 40.4716 -1.04552 3.94376 0
M  V30 415 H 39.1466 0.0867233 4.1581 0
M  V30 416 H 37.7236 -1.57193 3.38149 0
M  V30 417 N 39.9087 -1.5758 0.0250728 0
M  V30 418 C 41.1577 -1.90811 -0.653767 0
M  V30 419 C 41.4707 -0.90273 -1.73523 0
M  V30 420 O 42.6767 -1.12614 -2.47043 0
M  V30 421 C 41.1327 -3.38804 -1.21409 0
M  V30 422 C 40.7407 -4.47692 -0.166126 0
M  V30 423 C 42.4847 -3.81108 -1.86967 0
M  V30 424 C 40.3917 -5.86779 -0.737856 0
M  V30 425 H 39.3217 -0.712063 -0.247956 0
M  V30 426 H 41.9727 -1.83281 0.0897137 0
M  V30 427 H 40.3547 -3.41252 -2.00905 0
M  V30 428 H 41.5287 -4.56797 0.606079 0
M  V30 429 H 39.8437 -4.14565 0.390466 0
M  V30 430 H 42.4407 -4.82375 -2.30692 0
M  V30 431 H 42.7837 -3.15953 -2.71071 0
M  V30 432 H 43.3167 -3.81065 -1.14167 0
M  V30 433 H 40.0557 -6.55468 0.0649577 0
M  V30 434 H 39.5757 -5.81288 -1.47864 0
M  V30 435 H 41.2547 -6.35223 -1.22884 0
M  V30 436 N 41.3868 0.248026 -1.55636 0
M  V30 437 C 42.3198 1.3334 -1.85191 0
M  V30 438 C 43.2978 1.46429 -0.706906 0
M  V30 439 O 44.4818 1.62662 -0.952544 0
M  V30 440 C 41.6088 2.70703 -2.03562 0
M  V30 441 C 40.6548 2.7477 -3.26196 0
M  V30 442 S 41.4878 2.31493 -4.82878 0
M  V30 443 C 42.6438 3.70783 -5.04253 0
M  V30 444 H 42.8768 1.08072 -2.76962 0
M  V30 445 H 40.4098 0.448952 -1.47729 0
M  V30 446 H 42.3678 3.49798 -2.1483 0
M  V30 447 H 41.0288 2.9321 -1.12635 0
M  V30 448 H 40.2218 3.75648 -3.36013 0
M  V30 449 H 39.8238 2.03719 -3.13647 0
M  V30 450 H 42.1158 4.6627 -4.91527 0
M  V30 451 H 43.0588 3.65901 -6.06236 0
M  V30 452 H 43.4668 3.63244 -4.32105 0
M  V30 453 N 42.8649 1.48995 0.513639 0
M  V30 454 C 44.1109 1.59053 1.26783 0
M  V30 455 C 44.4659 0.268136 1.90522 0
M  V30 456 O 43.7589 -0.730534 1.77126 0
M  V30 457 C 43.9529 2.67756 2.36731 0
M  V30 458 C 43.7819 4.10437 1.83771 0
M  V30 459 C 42.5519 4.7738 1.65639 0
M  V30 460 C 44.7499 4.9608 1.35681 0
M  V30 461 N 42.7319 6.04419 1.07476 0
M  V30 462 C 44.1029 6.13496 0.895715 0
M  V30 463 C 46.1579 4.82177 1.24136 0
M  V30 464 C 44.8609 7.1854 0.3306 0
M  V30 465 C 46.8869 5.87358 0.690229 0
M  V30 466 C 46.2489 7.03993 0.239292 0
M  V30 467 H 42.3479 0.636463 0.454355 0
M  V30 468 H 44.9319 1.85948 0.577196 0
M  V30 469 H 43.1029 2.42655 3.03271 0
M  V30 470 H 44.8349 2.67406 3.0377 0
M  V30 471 H 41.5899 4.33974 1.8964 0
M  V30 472 H 42.0139 6.72214 0.803579 0
M  V30 473 H 46.6559 3.92329 1.57601 0
M  V30 474 H 44.3739 8.08098 -0.0163435 0
M  V30 475 H 47.9599 5.78658 0.603852 0
M  V30 476 H 46.8399 7.83992 -0.180526 0
M  V30 477 N 44.343 -0.763751 1.37857 0
M  V30 478 C 45.273 -1.89103 1.36975 0
M  V30 479 C 46.254 -1.68439 0.237152 0
M  V30 480 O 47.439 -1.8918 0.438713 0
M  V30 481 C 44.569 -3.26496 1.18395 0
M  V30 482 C 43.523 -3.61741 2.28751 0
M  V30 483 C 42.849 -4.97762 1.95286 0
M  V30 484 C 44.149 -3.67665 3.70972 0
M  V30 485 H 45.843 -1.90099 2.31307 0
M  V30 486 H 43.389 -0.91319 1.11341 0
M  V30 487 H 45.342 -4.05003 1.16406 0
M  V30 488 H 44.066 -3.25955 0.205215 0
M  V30 489 H 42.725 -2.85547 2.29909 0
M  V30 490 H 42.373 -4.93769 0.959221 0
M  V30 491 H 42.073 -5.22313 2.69189 0
M  V30 492 H 43.597 -5.7866 1.94898 0
M  V30 493 H 45.011 -4.36307 3.719 0
M  V30 494 H 43.408 -4.03718 4.43995 0
M  V30 495 H 44.478 -2.68134 4.0402 0
M  V30 496 N 45.8211 -1.22559 -0.990812 0
M  V30 497 C 47.0611 -1.06302 -1.74583 0
M  V30 498 C 47.4251 0.394737 -1.87898 0
M  V30 499 O 48.6261 0.678214 -2.60103 0
M  V30 500 C 46.8971 -1.75699 -3.11231 0
M  V30 501 S 48.4561 -1.74882 -4.02445 0
M  V30 502 H 45.2741 -0.380639 -0.600529 0
M  V30 503 H 47.8761 -1.55532 -1.18449 0
M  V30 504 H 46.5801 -2.80923 -2.99183 0
M  V30 505 H 46.1111 -1.26708 -3.72436 0
M  V30 506 H 48.1261 -0.799997 -4.89709 0
M  V30 507 N 47.2992 1.18797 -1.03562 0
M  V30 508 C 48.5272 1.92599 -0.755869 0
M  V30 509 C 48.9422 1.75886 0.686271 0
M  V30 510 O 48.2992 1.08517 1.46732 0
M  V30 511 C 48.3502 3.44159 -1.10619 0
M  V30 512 O 48.0712 3.60341 -2.4917 0
M  V30 513 C 49.5722 4.3507 -0.850214 0
M  V30 514 H 46.7922 0.611587 -0.276048 0
M  V30 515 H 49.3362 1.50742 -1.38192 0
M  V30 516 H 47.4912 3.83823 -0.525194 0
M  V30 517 H 47.9052 4.54128 -2.62427 0
M  V30 518 H 49.3792 5.39989 -1.14523 0
M  V30 519 H 49.8562 4.38673 0.215176 0
M  V30 520 H 50.4622 4.01097 -1.41426 0
M  V30 521 N 48.7773 0.814389 1.34928 0
M  V30 522 C 49.7093 0.187834 2.28429 0
M  V30 523 C 50.7223 -0.617374 1.5064 0
M  V30 524 O 51.9113 -0.448454 1.72775 0
M  V30 525 C 49.0113 -0.755962 3.30361 0
M  V30 526 C 48.1843 0.00456686 4.374 0
M  V30 527 C 47.2433 -0.858876 5.19143 0
M  V30 528 O 46.2693 -0.306968 5.68372 0
M  V30 529 N 47.4713 -2.17988 5.38016 0
M  V30 530 H 50.2363 0.991105 2.82838 0
M  V30 531 H 47.7973 0.670561 1.4736 0
M  V30 532 H 49.7893 -1.338 3.81942 0
M  V30 533 H 48.3593 -1.46001 2.7641 0
M  V30 534 H 47.5793 0.767865 3.86649 0
M  V30 535 H 48.8673 0.528422 5.06049 0
M  V30 536 H 48.2653 -2.65212 4.99679 0
M  V30 537 H 46.8223 -2.71098 5.92747 0
M  V30 538 N 50.2554 -1.46986 0.568584 0
M  V30 539 C 51.4804 -2.07335 0.0520528 0
M  V30 540 C 51.9054 -1.41675 -1.23733 0
M  V30 541 O 51.2634 -0.495623 -1.74394 0
M  V30 542 C 51.3114 -3.60417 -0.11501 0
M  V30 543 O 50.4154 -3.95309 -1.17492 0
M  V30 544 H 49.7564 -0.661597 0.0564385 0
M  V30 545 H 52.2864 -1.88837 0.787507 0
M  V30 546 H 52.2964 -4.06698 -0.325644 0
M  V30 547 H 50.9714 -4.07601 0.826675 0
M  V30 548 H 49.5484 -3.60757 -0.943869 0
M  V30 549 N 51.7335 -0.305618 -1.54608 0
M  V30 550 C 52.6665 0.610536 -2.19881 0
M  V30 551 C 53.6445 1.1294 -1.16976 0
M  V30 552 O 54.8285 1.19673 -1.45638 0
M  V30 553 C 51.9555 1.83583 -2.84631 0
M  V30 554 C 51.0015 1.4498 -4.01102 0
M  V30 555 S 51.8345 0.501793 -5.33144 0
M  V30 556 C 52.9905 1.73478 -6.01379 0
M  V30 557 H 53.2235 0.0560177 -2.97247 0
M  V30 558 H 50.7565 -0.0897434 -1.54139 0
M  V30 559 H 52.7145 2.53898 -3.22562 0
M  V30 560 H 51.3755 2.36152 -2.07102 0
M  V30 561 H 50.5685 2.36236 -4.45206 0
M  V30 562 H 50.1705 0.826553 -3.64752 0
M  V30 563 H 52.4625 2.67473 -6.22467 0
M  V30 564 H 53.4055 1.33622 -6.95378 0
M  V30 565 H 53.8135 1.9136 -5.31076 0
M  V30 566 N 53.2116 1.57565 -0.0334293 0
M  V30 567 C 54.1416 2.13511 0.945265 0
M  V30 568 C 55.1226 1.05231 1.33643 0
M  V30 569 O 56.3076 1.33084 1.41429 0
M  V30 570 C 53.4376 2.6657 2.22616 0
M  V30 571 C 52.3916 3.79676 1.97561 0
M  V30 572 C 51.7176 4.1918 3.31952 0
M  V30 573 C 53.0176 5.0557 1.31135 0
M  V30 574 H 54.7116 2.95538 0.479325 0
M  V30 575 H 52.2576 1.42166 0.229115 0
M  V30 576 H 54.2106 3.04344 2.91466 0
M  V30 577 H 52.9346 1.8171 2.71384 0
M  V30 578 H 51.5936 3.42347 1.31127 0
M  V30 579 H 51.2416 3.31296 3.78487 0
M  V30 580 H 50.9416 4.95402 3.15992 0
M  V30 581 H 52.4656 4.59541 4.02063 0
M  V30 582 H 53.8796 5.40903 1.89992 0
M  V30 583 H 52.2766 5.86818 1.25559 0
M  V30 584 H 53.3466 4.84062 0.284894 0
M  V30 585 N 54.6897 -0.239769 1.55765 0
M  V30 586 C 55.5997 -1.31831 1.94056 0
M  V30 587 C 56.6157 -1.52275 0.841925 0
M  V30 588 O 57.7917 -1.65759 1.14394 0
M  V30 589 C 54.8567 -2.65156 2.23368 0
M  V30 590 C 53.9177 -2.53173 3.46701 0
M  V30 591 C 53.1507 -3.8014 3.74606 0
M  V30 592 O 53.3737 -4.82343 3.04469 0
M  V30 593 O 52.3077 -3.78344 4.68123 0
M  V30 594 H 56.1337 -1.02347 2.85935 0
M  V30 595 H 53.7187 -0.441123 1.42739 0
M  V30 596 H 55.6007 -3.43929 2.43497 0
M  V30 597 H 54.2757 -2.94358 1.34666 0
M  V30 598 H 53.1827 -1.72662 3.31871 0
M  V30 599 H 54.5157 -2.28915 4.35728 0
M  V30 600 N 56.1678 -1.49265 -0.50573 0
M  V30 601 C 57.1158 -1.66065 -1.62866 0
M  V30 602 C 58.1098 -0.526636 -1.61006 0
M  V30 603 O 59.3158 -0.706126 -1.65571 0
M  V30 604 H 55.6908 -0.52356 -0.539805 0
M  V30 605 H 57.6618 -2.60329 -1.45848 0
M  V30 606 C 56.4108 -1.74008 -3.01026 0
M  V30 607 H 55.7338 -2.6064 -3.03161 0
M  V30 608 H 57.1738 -1.89798 -3.79147 0
M  V30 609 C 55.6328 -0.483868 -3.33407 0
M  V30 610 O 56.1628 0.392548 -3.99777 0
M  V30 611 N 54.3688 -0.348236 -2.88506 0
M  V30 612 H 53.9158 -1.06242 -2.34671 0
M  V30 613 H 53.8738 0.491204 -3.10539 0
M  V30 614 N 57.6459 0.756429 -1.3826 0
M  V30 615 C 58.8929 1.51547 -1.34312 0
M  V30 616 C 59.2209 1.94382 0.0677144 0
M  V30 617 O 58.4759 1.65514 1.04421 0
M  V30 618 C 58.7749 2.78313 -2.24224 0
M  V30 619 C 58.4409 2.54455 -3.72241 0
M  V30 620 C 57.1029 2.47657 -4.12576 0
M  V30 621 C 59.4549 2.3354 -4.65949 0
M  V30 622 C 56.7829 2.17956 -5.44713 0
M  V30 623 C 59.1349 2.05359 -5.9834 0
M  V30 624 C 57.7989 1.97016 -6.37762 0
M  V30 625 H 57.0689 0.55455 -0.491482 0
M  V30 626 H 59.7159 0.870039 -1.70595 0
M  V30 627 H 58.0209 3.47492 -1.80987 0
M  V30 628 H 59.7179 3.36259 -2.18474 0
M  V30 629 H 56.3079 2.60616 -3.40261 0
M  V30 630 H 60.4919 2.37772 -4.35635 0
M  V30 631 H 55.7479 2.10003 -5.74203 0
M  V30 632 H 59.9219 1.88179 -6.70494 0
M  V30 633 H 57.5489 1.73766 -7.40074 0
M  V30 634 N 59.124 1.23083 0.984299 0
M  V30 635 C 60.349 1.088 1.76571 0
M  V30 636 C 60.774 -0.356657 1.84688 0
M  V30 637 O 60.132 -1.25788 1.30565 0
M  V30 638 C 60.18 1.71371 3.17277 0
M  V30 639 O 59.284 0.973213 4.00752 0
M  V30 640 H 58.625 0.381599 0.543395 0
M  V30 641 H 61.155 1.63057 1.23587 0
M  V30 642 H 61.165 1.76449 3.67872 0
M  V30 643 H 59.84 2.76493 3.10684 0
M  V30 644 H 58.417 0.999078 3.59267 0
M  V30 645 N 60.6021 -1.18246 1.0419 0
M  V30 646 C 61.5651 -2.20128 0.638452 0
M  V30 647 C 62.5651 -1.57885 -0.304805 0
M  V30 648 O 63.7551 -1.73967 -0.0900369 0
M  V30 649 C 60.8871 -3.4084 -0.0637751 0
M  V30 650 H 62.0801 -2.57336 1.54007 0
M  V30 651 H 59.6331 -1.32152 0.834598 0
M  V30 652 H 60.3681 -3.09166 -0.979136 0
M  V30 653 H 60.1531 -3.8726 0.614198 0
M  V30 654 H 61.6431 -4.16274 -0.332512 0
M  V30 655 N 62.0802 -0.821533 -1.34494 0
M  V30 656 C 63.0432 -0.247847 -2.27856 0
M  V30 657 C 64.0432 0.573453 -1.50227 0
M  V30 658 O 65.2332 0.389759 -1.69784 0
M  V30 659 C 62.3652 0.652698 -3.34593 0
M  V30 660 H 63.5582 -1.07146 -2.80107 0
M  V30 661 H 61.1112 -0.593291 -1.44602 0
M  V30 662 H 61.8462 1.49943 -2.87555 0
M  V30 663 H 61.6312 0.065292 -3.92046 0
M  V30 664 H 63.1212 1.04793 -4.04238 0
M  V30 665 N 63.5583 1.46682 -0.576371 0
M  V30 666 C 64.8043 2.02712 -0.0596221 0
M  V30 667 C 65.1373 1.44765 1.29448 0
M  V30 668 O 64.4123 0.610355 1.84675 0
M  V30 669 C 64.6953 3.60098 0.0129503 0
M  V30 670 C 64.5483 4.28441 -1.3696 0
M  V30 671 C 65.8673 4.34224 0.71678 0
M  V30 672 H 62.9863 0.736637 -0.0231407 0
M  V30 673 H 65.6283 1.74898 -0.742351 0
M  V30 674 H 63.7783 3.83926 0.594378 0
M  V30 675 H 65.4503 4.15896 -1.9957 0
M  V30 676 H 63.6933 3.8805 -1.93907 0
M  V30 677 H 64.3643 5.3716 -1.27135 0
M  V30 678 H 66.8403 4.15503 0.222908 0
M  V30 679 H 65.7163 5.43936 0.73657 0
M  V30 680 H 65.9773 4.04823 1.77682 0
M  V30 681 N 65.0364 0.313813 1.54444 0
M  V30 682 C 66.4474 -0.176243 1.85866 0
M  V30 683 C 66.7984 -1.52405 1.23561 0
M  V30 684 O 65.9234 -2.09605 0.538016 0
M  V30 685 C 66.5184 -0.32657 3.37222 0
M  V30 686 C 65.0774 -0.760846 3.6863 0
M  V30 687 C 64.2244 0.123247 2.77026 0
M  V30 688 H 67.1754 0.534418 1.49431 0
M  V30 689 H 67.1964 -1.15908 3.62416 0
M  V30 690 H 66.7084 0.654531 3.82541 0
M  V30 691 H 64.8094 -1.75204 3.28838 0
M  V30 692 H 64.9224 -0.571353 4.75681 0
M  V30 693 H 63.2864 -0.399597 2.51546 0
M  V30 694 H 64.0694 1.10094 3.25168 0
M  V30 695 N 66.5145 -1.57545 0.0417849 0
M  V30 696 C 67.7395 -1.97035 -0.647455 0
M  V30 697 C 68.1645 -0.918775 -1.64135 0
M  V30 698 O 67.5225 0.119006 -1.80909 0
M  V30 699 C 67.5705 -3.35609 -1.31905 0
M  V30 700 O 66.6745 -3.3287 -2.43457 0
M  V30 701 H 66.0155 -0.64211 -0.169086 0
M  V30 702 H 68.5455 -2.04318 0.107399 0
M  V30 703 H 68.5555 -3.72126 -1.67291 0
M  V30 704 H 67.2305 -4.11685 -0.590586 0
M  V30 705 H 65.8075 -3.08087 -2.10088 0
M  V30 706 N 67.9926 0.231505 -1.5589 0
M  V30 707 C 68.9426 1.29007 -1.87993 0
M  V30 708 C 69.9266 1.42764 -0.742102 0
M  V30 709 O 71.1186 1.45747 -1.00433 0
M  V30 710 C 68.2476 2.6425 -2.1915 0
M  V30 711 C 67.3336 2.54435 -3.39299 0
M  V30 712 N 67.7246 2.14262 -4.58176 0
M  V30 713 C 66.0226 2.85416 -3.42715 0
M  V30 714 C 66.7236 2.15455 -5.40328 0
M  V30 715 N 65.6996 2.55558 -4.79783 0
M  V30 716 H 69.5016 0.970213 -2.77424 0
M  V30 717 H 67.0156 0.440097 -1.56323 0
M  V30 718 H 69.0126 3.40665 -2.40319 0
M  V30 719 H 67.6726 2.9709 -1.31025 0
M  V30 720 H 68.6836 1.85554 -4.83518 0
M  V30 721 H 65.3606 3.22693 -2.64906 0
M  V30 722 H 66.7506 1.86605 -6.45467 0
M  V30 723 N 69.4707 1.49531 0.497807 0
M  V30 724 C 70.8867 1.36365 0.829266 0
M  V30 725 C 71.0867 0.399184 1.97506 0
M  V30 726 O 70.1427 -0.167977 2.51941 0
M  V30 727 C 71.4557 2.77153 1.16647 0
M  V30 728 C 73.0037 2.85877 1.27449 0
M  V30 729 C 73.4787 4.2744 1.64497 0
M  V30 730 N 74.9697 4.30265 1.7154 0
M  V30 731 C 75.7047 5.3677 2.01656 0
M  V30 732 N 75.2007 6.53516 2.29976 0
M  V30 733 N 76.9937 5.24189 2.02934 0
M  V30 734 H 69.1447 2.10831 -0.257703 0
M  V30 735 H 71.4077 0.946534 -0.0527091 0
M  V30 736 H 71.1137 3.49442 0.397872 0
M  V30 737 H 70.9877 3.12722 2.10915 0
M  V30 738 H 73.3747 2.13824 2.0338 0
M  V30 739 H 73.4557 2.53887 0.312244 0
M  V30 740 H 73.0997 5.00021 0.891151 0
M  V30 741 H 73.0297 4.56896 2.61827 0
M  V30 742 H 75.5207 3.4607 1.51802 0
M  V30 743 H 75.8337 7.30506 2.52153 0
M  V30 744 H 74.1787 6.56737 2.27425 0
M  V30 745 H 77.3697 4.31988 1.80289 0
M  V30 746 H 77.5427 6.07286 2.26071 0
M  V30 747 N 70.9488 -0.749086 1.3866 0
M  V30 748 C 72.1888 -1.52112 1.36534 0
M  V30 749 C 72.5528 -1.91951 -0.0432316 0
M  V30 750 O 73.7538 -2.68132 -0.189396 0
M  V30 751 C 72.0248 -2.73704 2.29828 0
M  V30 752 S 73.5838 -3.63519 2.45763 0
M  V30 753 H 70.4018 -0.520482 0.484375 0
M  V30 754 H 73.0038 -0.878963 1.74627 0
M  V30 755 H 71.7078 -2.42552 3.31054 0
M  V30 756 H 71.2388 -3.4286 1.929 0
M  V30 757 H 73.2538 -4.66712 1.68505 0
M  V30 758 N 72.4269 -1.23603 -0.977757 0
M  V30 759 C 73.6729 -1.08136 -1.72274 0
M  V30 760 C 74.0279 0.377453 -1.88661 0
M  V30 761 O 73.3209 1.27552 -1.42972 0
M  V30 762 C 73.5149 -1.7433 -3.11999 0
M  V30 763 C 73.3439 -3.26498 -3.0924 0
M  V30 764 C 72.1139 -3.9567 -3.14282 0
M  V30 765 C 74.3119 -4.2323 -2.92201 0
M  V30 766 N 72.2939 -5.34799 -3.01436 0
M  V30 767 C 73.6649 -5.49289 -2.87544 0
M  V30 768 C 75.7199 -4.13931 -2.76705 0
M  V30 769 C 74.4229 -6.67116 -2.68978 0
M  V30 770 C 76.4489 -5.31424 -2.59504 0
M  V30 771 C 75.8109 -6.5641 -2.55548 0
M  V30 772 H 71.9099 -0.450247 -0.639376 0
M  V30 773 H 74.4939 -1.5637 -1.16002 0
M  V30 774 H 72.6649 -1.28624 -3.66484 0
M  V30 775 H 74.3969 -1.51815 -3.75146 0
M  V30 776 H 71.1519 -3.46767 -3.22567 0
M  V30 777 H 71.5759 -6.07748 -2.98281 0
M  V30 778 H 76.2179 -3.1807 -2.78552 0
M  V30 779 H 73.9359 -7.63109 -2.65876 0
M  V30 780 H 77.5219 -5.26072 -2.48474 0
M  V30 781 H 76.4019 -7.45795 -2.42405 0
M  V30 782 N 73.905 1.17692 -1.04816 0
M  V30 783 C 74.868 2.19787 -0.650117 0
M  V30 784 C 75.868 1.58044 0.296427 0
M  V30 785 O 77.058 1.74012 0.0808097 0
M  V30 786 C 74.19 3.40869 0.0456987 0
M  V30 787 H 75.383 2.56516 -1.5537 0
M  V30 788 H 72.936 1.31708 -0.841594 0
M  V30 789 H 73.671 3.09681 0.962726 0
M  V30 790 H 73.456 3.86928 -0.634727 0
M  V30 791 H 74.946 4.16445 0.310432 0
M  V30 792 N 75.3831 0.828654 1.34056 0
M  V30 793 C 76.7941 0.477534 1.8049 0
M  V30 794 C 77.1451 -1.00258 1.6865 0
M  V30 795 O 76.2701 -1.78057 1.22982 0
M  V30 796 C 76.8651 0.860018 3.27703 0
M  V30 797 C 75.4241 0.561185 3.72193 0
M  V30 798 C 74.5711 1.07385 2.55663 0
M  V30 799 H 77.5221 1.0183 1.21722 0
M  V30 800 H 77.5431 0.166038 3.80138 0
M  V30 801 H 77.0551 1.93731 3.36288 0
M  V30 802 H 75.1561 -0.506465 3.69142 0
M  V30 803 H 75.2691 1.10926 4.66082 0
M  V30 804 H 73.6331 0.495149 2.49841 0
M  V30 805 H 74.4161 2.15771 2.67016 0
M  V30 806 N 76.8612 -1.46375 0.584142 0
M  V30 807 C 77.7912 -2.33103 -0.136037 0
M  V30 808 C 78.7722 -1.45431 -0.882255 0
M  V30 809 O 79.9572 -1.74246 -0.857434 0
M  V30 810 C 77.0872 -3.27731 -1.14933 0
M  V30 811 C 76.0412 -4.24855 -0.517862 0
M  V30 812 C 75.3672 -5.09001 -1.63773 0
M  V30 813 C 76.6672 -5.19439 0.545886 0
M  V30 814 H 78.3612 -2.93568 0.588086 0
M  V30 815 H 75.9072 -1.41166 0.284259 0
M  V30 816 H 77.8602 -3.87261 -1.66153 0
M  V30 817 H 76.5842 -2.65377 -1.90375 0
M  V30 818 H 75.2432 -3.6659 -0.0267361 0
M  V30 819 H 74.8912 -4.43031 -2.38185 0
M  V30 820 H 74.5912 -5.74777 -1.22085 0
M  V30 821 H 76.1152 -5.71396 -2.15266 0
M  V30 822 H 77.5292 -5.73177 0.118704 0
M  V30 823 H 75.9262 -5.93566 0.88317 0
M  V30 824 H 76.9962 -4.63285 1.43162 0
M  V30 825 N 78.3393 -0.321999 -1.54275 0
M  V30 826 C 79.2693 0.537411 -2.27231 0
M  V30 827 C 80.2503 1.12064 -1.27968 0
M  V30 828 O 81.4353 1.14606 -1.56777 0
M  V30 829 C 78.5653 1.69919 -3.02894 0
M  V30 830 C 77.5193 1.24534 -4.09482 0
M  V30 831 C 76.8453 2.49394 -4.72977 0
M  V30 832 C 78.1453 0.361335 -5.21049 0
M  V30 833 H 79.8393 -0.0711406 -2.99315 0
M  V30 834 H 77.3853 -0.0356555 -1.43956 0
M  V30 835 H 79.3383 2.30668 -3.52662 0
M  V30 836 H 78.0623 2.33431 -2.28424 0
M  V30 837 H 76.7213 0.660782 -3.60596 0
M  V30 838 H 76.3693 3.11265 -3.95124 0
M  V30 839 H 76.0693 2.19718 -5.44975 0
M  V30 840 H 77.5933 3.10908 -5.25517 0
M  V30 841 H 79.0073 0.875072 -5.66582 0
M  V30 842 H 77.4043 0.157428 -5.99893 0
M  V30 843 H 78.4743 -0.60822 -4.8107 0
M  V30 844 N 79.8174 1.5752 -0.0501392 0
M  V30 845 C 81.0944 1.83996 0.663685 0
M  V30 846 C 81.4744 0.938339 1.89099 0
M  V30 847 O 80.8224 -0.00087759 2.285 0
M  V30 848 C 81.0324 3.33702 1.02196 0
M  V30 849 C 82.3804 4.00691 1.40469 0
M  V30 850 O 83.4044 3.38321 1.11433 0
M  V30 851 O 82.2634 5.10658 1.94654 0
M  V30 852 H 79.3574 0.759385 0.32751 0
M  V30 853 H 81.9034 1.69514 -0.0794238 0
M  V30 854 H 80.6754 3.91015 0.149364 0
M  V30 855 H 80.2984 3.53368 1.82255 0
M  V30 856 N 81.2955 -0.223234 1.56011 0
M  V30 857 C 82.2435 -1.29627 1.93131 0
M  V30 858 C 83.2375 -1.48608 0.813146 0
M  V30 859 O 84.4435 -1.49802 0.997966 0
M  V30 860 H 80.8185 -0.434563 0.613726 0
M  V30 861 H 82.7895 -0.955995 2.82672 0
M  V30 862 C 81.5385 -2.63983 2.26292 0
M  V30 863 H 80.8615 -2.50185 3.11846 0
M  V30 864 H 82.3015 -3.3788 2.56151 0
M  V30 865 C 80.7605 -3.18866 1.08747 0
M  V30 866 O 81.2905 -4.00192 0.347727 0
M  V30 867 N 79.4965 -2.77217 0.871743 0
M  V30 868 H 79.0435 -2.1119 1.47501 0
M  V30 869 H 79.0015 -3.1428 0.0869905 0
M  V30 870 N 82.7736 -1.49793 -0.48987 0
M  V30 871 C 83.9986 -1.63836 -1.27172 0
M  V30 872 C 84.4236 -0.31402 -1.8546 0
M  V30 873 O 83.7816 0.719803 -1.66399 0
M  V30 874 C 83.8296 -2.71797 -2.36978 0
M  V30 875 O 82.9336 -2.31744 -3.41128 0
M  V30 876 H 82.2746 -0.547997 -0.37496 0
M  V30 877 H 84.8046 -1.96053 -0.585191 0
M  V30 878 H 84.8146 -2.94305 -2.82575 0
M  V30 879 H 83.4896 -3.67923 -1.93921 0
M  V30 880 H 82.0666 -2.1961 -3.01373 0
M  V30 881 N 84.2517 0.741722 -1.39055 0
M  V30 882 C 85.4797 1.53098 -1.39171 0
M  V30 883 C 85.8947 1.88794 0.0155099 0
M  V30 884 O 85.2517 1.53626 0.985159 0
M  V30 885 C 85.3027 2.82274 -2.2584 0
M  V30 886 O 85.0237 2.48097 -3.61081 0
M  V30 887 C 86.5247 3.76343 -2.34266 0
M  V30 888 H 83.7447 0.473335 -0.4756 0
M  V30 889 H 86.2887 0.917045 -1.82785 0
M  V30 890 H 84.4437 3.40015 -1.85656 0
M  V30 891 H 84.8577 3.31029 -4.06842 0
M  V30 892 H 86.3317 4.63898 -2.9917 0
M  V30 893 H 86.8087 4.17619 -1.35982 0
M  V30 894 H 87.4147 3.24523 -2.74891 0
M  V30 895 N 85.7298 1.2412 0.971189 0
M  V30 896 C 86.6928 1.03156 2.04674 0
M  V30 897 C 87.6928 -0.00990322 1.60797 0
M  V30 898 O 88.8828 0.230729 1.72665 0
M  V30 899 C 86.0148 0.562765 3.36223 0
M  V30 900 H 87.2078 1.98614 2.24705 0
M  V30 901 H 84.7608 1.06293 1.14593 0
M  V30 902 H 85.4958 -0.395176 3.21883 0
M  V30 903 H 85.2808 1.31441 3.69413 0
M  V30 904 H 86.7708 0.437015 4.15307 0
M  V30 905 N 87.2079 -1.17134 1.05439 0
M  V30 906 C 88.1399 -2.2078 0.615539 0
M  V30 907 C 89.1529 -1.59584 -0.322001 0
M  V30 908 O 90.3419 -1.78133 -0.114344 0
M  V30 909 C 87.4419 -3.38691 -0.118938 0
M  V30 910 C 86.6149 -4.29454 0.829924 0
M  V30 911 C 85.6739 -5.26024 0.136258 0
M  V30 912 O 84.6999 -5.63952 0.77115 0
M  V30 913 N 85.9019 -5.69487 -1.1254 0
M  V30 914 H 88.6669 -2.59052 1.50705 0
M  V30 915 H 86.2279 -1.32058 0.936603 0
M  V30 916 H 88.2199 -4.00329 -0.593179 0
M  V30 917 H 86.7899 -2.98996 -0.91215 0
M  V30 918 H 86.0099 -3.65211 1.48373 0
M  V30 919 H 87.2979 -4.86984 1.47392 0
M  V30 920 H 86.6959 -5.4075 -1.6615 0
M  V30 921 H 85.2529 -6.33257 -1.54366 0
M  V30 922 N 88.686 -0.835752 -1.33615 0
M  V30 923 C 89.649 -0.272 -2.2758 0
M  V30 924 C 90.649 0.557487 -1.50827 0
M  V30 925 O 91.839 0.37173 -1.70188 0
M  V30 926 C 88.971 0.617173 -3.35267 0
M  V30 927 H 90.164 -1.10111 -2.78954 0
M  V30 928 H 87.717 -0.608594 -1.43965 0
M  V30 929 H 88.452 1.46884 -2.89129 0
M  V30 930 H 88.237 0.0237066 -3.92093 0
M  V30 931 H 89.727 1.005 -4.05326 0
M  V30 932 N 90.1641 1.46063 -0.591896 0
M  V30 933 C 91.3891 2.07226 -0.0850314 0
M  V30 934 C 91.8141 1.43625 1.21463 0
M  V30 935 O 91.1721 0.523305 1.73583 0
M  V30 936 C 91.2201 3.60554 0.0576567 0
M  V30 937 O 90.3241 3.97128 1.11188 0
M  V30 938 H 89.6651 0.660615 -0.0669568 0
M  V30 939 H 92.1951 1.8756 -0.81745 0
M  V30 940 H 92.2051 4.07165 0.2609 0
M  V30 941 H 90.8801 4.06235 -0.891416 0
M  V30 942 H 89.4571 3.62213 0.886356 0
M  V30 943 N 91.6422 0.330177 1.54103 0
M  V30 944 C 92.8912 -0.271336 1.99867 0
M  V30 945 C 93.2042 -1.52723 1.22209 0
M  V30 946 O 94.4102 -2.20515 1.58383 0
M  V30 947 C 92.8662 -0.534032 3.55916 0
M  V30 948 C 92.4742 0.705193 4.42415 0
M  V30 949 C 94.2182 -1.09514 4.1013 0
M  V30 950 C 92.1252 0.414035 5.89949 0
M  V30 951 H 91.0552 -0.105166 0.74663 0
M  V30 952 H 93.7062 0.443429 1.78062 0
M  V30 953 H 92.0882 -1.30915 3.73734 0
M  V30 954 H 93.2622 1.4804 4.36372 0
M  V30 955 H 91.5772 1.18698 3.99124 0
M  V30 956 H 94.1742 -1.3277 5.17954 0
M  V30 957 H 94.5172 -2.04656 3.62521 0
M  V30 958 H 95.0502 -0.381038 3.95971 0
M  V30 959 H 91.7892 1.33481 6.41766 0
M  V30 960 H 91.3092 -0.323336 5.98928 0
M  V30 961 H 92.9882 0.0263105 6.46995 0
M  V30 962 N 93.1203 -1.57491 0.0584922 0
M  V30 963 C 94.0503 -2.14988 -0.911178 0
M  V30 964 C 95.0313 -1.07343 -1.31952 0
M  V30 965 O 96.2163 -1.35318 -1.39294 0
M  V30 966 C 93.3463 -2.70078 -2.18347 0
M  V30 967 C 92.3003 -3.82771 -1.91495 0
M  V30 968 C 91.6263 -4.24408 -3.25241 0
M  V30 969 C 92.9263 -5.07592 -1.23075 0
M  V30 970 H 94.6203 -2.96263 -0.432246 0
M  V30 971 H 92.1663 -1.42512 -0.206469 0
M  V30 972 H 94.1193 -3.08943 -2.86587 0
M  V30 973 H 92.8433 -1.86005 -2.68458 0
M  V30 974 H 91.5023 -3.44389 -1.25664 0
M  V30 975 H 91.1503 -3.37275 -3.73168 0
M  V30 976 H 90.8503 -5.00366 -3.08071 0
M  V30 977 H 92.3743 -4.65879 -3.94701 0
M  V30 978 H 93.7883 -5.43857 -1.81362 0
M  V30 979 H 92.1853 -5.88741 -1.16207 0
M  V30 980 H 93.2553 -4.84454 -0.207847 0
M  V30 981 N 94.5984 0.214957 -1.56127 0
M  V30 982 C 95.8464 0.936518 -1.79091 0
M  V30 983 C 96.1674 1.84606 -0.628148 0
M  V30 984 O 95.4374 1.92664 0.35462 0
M  V30 985 H 94.0174 0.3488 -0.660566 0
M  V30 986 H 96.6794 0.22523 -1.93594 0
M  V30 987 H 95.7754 1.53943 -2.71492 0
M  V30 988 N 96.0765 1.50051 0.48192 0
M  V30 989 C 97.3015 1.64508 1.26301 0
M  V30 990 C 97.7265 0.323851 1.85291 0
M  V30 991 O 97.0845 -0.710969 1.66778 0
M  V30 992 C 97.1325 2.7305 2.35533 0
M  V30 993 O 96.2365 2.3355 3.39895 0
M  V30 994 H 95.5775 0.549978 0.372048 0
M  V30 995 H 98.1075 1.9636 0.574786 0
M  V30 996 H 98.1175 2.95799 2.8101 0
M  V30 997 H 96.7925 3.68946 1.91967 0
M  V30 998 H 95.3695 2.21205 3.00204 0
M  V30 999 N 97.5546 -0.734337 1.39446 0
M  V30 1000 C 98.4846 -1.86155 1.40955 0
M  V30 1001 C 99.4656 -1.67898 0.272827 0
M  V30 1002 O 100.651 -1.88207 0.478743 0
M  V30 1003 C 97.7806 -3.23912 1.25294 0
M  V30 1004 C 96.7346 -3.56808 2.36373 0
M  V30 1005 C 96.0606 -4.93508 2.058 0
M  V30 1006 C 97.3606 -3.59713 3.78687 0
M  V30 1007 H 99.0546 -1.8515 2.35287 0
M  V30 1008 H 96.6006 -0.889367 1.13253 0
M  V30 1009 H 98.5536 -4.02443 1.2497 0
M  V30 1010 H 97.2776 -3.25446 0.274308 0
M  V30 1011 H 95.9366 -2.80606 2.35914 0
M  V30 1012 H 95.5846 -4.91623 1.06374 0
M  V30 1013 H 95.2846 -5.16486 2.80208 0
M  V30 1014 H 96.8086 -5.74396 2.07128 0
M  V30 1015 H 98.2226 -4.2832 3.81071 0
M  V30 1016 H 96.6196 -3.94209 4.52459 0
M  V30 1017 H 97.6896 -2.59504 4.09617 0
M  V30 1018 N 99.0327 -1.24633 -0.964593 0
M  V30 1019 C 100.258 -1.11596 -1.74818 0
M  V30 1020 C 100.683 0.32723 -1.85232 0
M  V30 1021 O 100.041 1.23695 -1.32549 0
M  V30 1022 C 100.089 -1.76397 -3.1451 0
M  V30 1023 O 99.1927 -1.03685 -3.99153 0
M  V30 1024 H 98.5337 -0.390196 -0.537255 0
M  V30 1025 H 101.064 -1.65002 -1.20977 0
M  V30 1026 H 101.074 -1.8228 -3.65018 0
M  V30 1027 H 99.7487 -2.81401 -3.06246 0
M  V30 1028 H 98.3257 -1.05611 -3.57632 0
M  V30 1029 N 100.511 1.16574 -1.06058 0
M  V30 1030 C 101.922 1.68662 -0.800632 0
M  V30 1031 C 102.273 1.84184 0.67608 0
M  V30 1032 O 101.398 1.53568 1.52466 0
M  V30 1033 C 101.993 3.06356 -1.44676 0
M  V30 1034 C 100.552 3.55575 -1.23465 0
M  V30 1035 C 99.6988 2.31616 -1.52477 0
M  V30 1036 H 102.65 1.00969 -1.22438 0
M  V30 1037 H 102.671 3.70636 -0.860788 0
M  V30 1038 H 102.183 2.95027 -2.52152 0
M  V30 1039 H 100.284 3.72167 -0.179527 0
M  V30 1040 H 100.397 4.37812 -1.94571 0
M  V30 1041 H 98.7608 2.36512 -0.945209 0
M  V30 1042 H 99.5438 2.22887 -2.61106 0
M  V30 1043 N 101.989 0.842826 1.3317 0
M  V30 1044 C 102.899 0.281444 2.32906 0
M  V30 1045 C 103.915 -0.594587 1.63526 0
M  V30 1046 O 105.091 -0.49777 1.95152 0
M  V30 1047 C 102.156 -0.530929 3.42611 0
M  V30 1048 C 101.217 0.369843 4.27704 0
M  V30 1049 C 100.45 -0.403853 5.3217 0
M  V30 1050 O 100.673 -1.63513 5.46461 0
M  V30 1051 O 99.6069 0.224199 6.01482 0
M  V30 1052 H 103.433 1.10744 2.82789 0
M  V30 1053 H 101.018 0.60545 1.36582 0
M  V30 1054 H 102.9 -0.992437 4.09547 0
M  V30 1055 H 101.575 -1.33392 2.94938 0
M  V30 1056 H 100.482 0.879275 3.6362 0
M  V30 1057 H 101.815 1.13771 4.78871 0
M  V30 1058 N 103.467 -1.45747 0.599634 0
M  V30 1059 C 104.43 -2.28917 -0.113835 0
M  V30 1060 C 105.43 -1.3933 -0.802729 0
M  V30 1061 O 106.62 -1.61534 -0.652103 0
M  V30 1062 C 103.752 -3.20152 -1.17114 0
M  V30 1063 H 104.945 -2.93478 0.617289 0
M  V30 1064 H 102.498 -1.52137 0.358327 0
M  V30 1065 H 103.233 -2.60374 -1.93329 0
M  V30 1066 H 103.018 -3.86133 -0.681468 0
M  V30 1067 H 104.508 -3.82708 -1.67105 0
M  V30 1068 N 104.945 -0.338344 -1.53925 0
M  V30 1069 C 105.875 0.51328 -2.27789 0
M  V30 1070 C 106.856 1.107 -1.29149 0
M  V30 1071 O 108.041 1.12937 -1.57984 0
M  V30 1072 C 105.171 1.66697 -3.04679 0
M  V30 1073 C 104.125 1.20183 -4.1078 0
M  V30 1074 C 103.451 2.44363 -4.75595 0
M  V30 1075 C 104.751 0.30605 -5.21403 0
M  V30 1076 H 106.445 -0.102883 -2.99223 0
M  V30 1077 H 103.991 -0.0509219 -1.4391 0
M  V30 1078 H 105.944 2.26915 -3.55088 0
M  V30 1079 H 104.668 2.30995 -2.30887 0
M  V30 1080 H 103.327 0.622499 -3.61276 0
M  V30 1081 H 102.975 3.07057 -3.98403 0
M  V30 1082 H 102.675 2.13925 -5.47275 0
M  V30 1083 H 104.199 3.05317 -5.28786 0
M  V30 1084 H 105.613 0.814929 -5.67478 0
M  V30 1085 H 104.01 0.0937929 -6.00027 0
M  V30 1086 H 105.08 -0.65921 -4.80398 0
M  V30 1087 N 106.423 1.57458 -0.0668435 0
M  V30 1088 C 107.353 2.15468 0.899764 0
M  V30 1089 C 108.334 1.08042 1.31381 0
M  V30 1090 O 109.519 1.36054 1.38574 0
M  V30 1091 C 106.649 2.71232 2.16911 0
M  V30 1092 C 105.603 3.83781 1.89463 0
M  V30 1093 C 104.929 4.26127 3.22986 0
M  V30 1094 C 106.229 5.08238 1.20381 0
M  V30 1095 H 107.923 2.96488 0.416529 0
M  V30 1096 H 105.469 1.4262 0.198908 0
M  V30 1097 H 107.422 3.10458 2.84945 0
M  V30 1098 H 106.146 1.87426 2.67468 0
M  V30 1099 H 104.805 3.45051 1.23836 0
M  V30 1100 H 104.453 3.39249 3.71374 0
M  V30 1101 H 104.153 5.01993 3.05413 0
M  V30 1102 H 105.677 4.67966 3.92225 0
M  V30 1103 H 107.091 5.44811 1.78475 0
M  V30 1104 H 105.488 5.89349 1.13083 0
M  V30 1105 H 106.558 4.84558 0.182153 0
M  V30 1106 N 107.901 -0.206675 1.56239 0
M  V30 1107 C 108.864 -1.23976 1.92776 0
M  V30 1108 C 109.864 -1.39041 0.807729 0
M  V30 1109 O 111.054 -1.37051 1.0753 0
M  V30 1110 C 108.186 -2.61112 2.19165 0
M  V30 1111 H 109.379 -0.927764 2.85189 0
M  V30 1112 H 106.932 -0.447718 1.4975 0
M  V30 1113 H 107.667 -2.97386 1.29352 0
M  V30 1114 H 107.452 -2.51552 3.00772 0
M  V30 1115 H 108.942 -3.35633 2.48476 0
M  V30 1116 N 109.379 -1.50304 -0.473955 0
M  V30 1117 C 110.628 -1.60392 -1.22301 0
M  V30 1118 C 110.941 -0.308411 -1.93153 0
M  V30 1119 O 112.147 -0.288156 -2.69966 0
M  V30 1120 C 110.603 -2.83109 -2.2221 0
M  V30 1121 C 110.211 -4.19524 -1.57173 0
M  V30 1122 C 111.955 -3.0254 -2.97775 0
M  V30 1123 C 109.862 -5.33431 -2.55353 0
M  V30 1124 H 108.792 -0.597286 -0.460179 0
M  V30 1125 H 111.443 -1.76731 -0.493803 0
M  V30 1126 H 109.825 -2.60322 -2.9841 0
M  V30 1127 H 110.999 -4.52554 -0.867824 0
M  V30 1128 H 109.314 -4.05674 -0.939002 0
M  V30 1129 H 111.911 -3.84811 -3.71248 0
M  V30 1130 H 112.254 -2.14154 -3.56992 0
M  V30 1131 H 112.787 -3.25494 -2.28688 0
M  V30 1132 H 109.526 -6.23962 -2.00878 0
M  V30 1133 H 109.046 -5.04823 -3.23904 0
M  V30 1134 H 110.725 -5.63887 -3.17239 0
M  V30 1135 N 110.857 0.726932 -1.39834 0
M  V30 1136 C 112.082 1.52121 -1.40976 0
M  V30 1137 C 112.507 1.88098 -0.00826029 0
M  V30 1138 O 111.865 1.52479 0.980807 0
M  V30 1139 C 111.913 2.78021 -2.29644 0
M  V30 1140 O 111.017 3.74272 -1.73188 0
M  V30 1141 H 110.358 0.45908 -0.479731 0
M  V30 1142 H 112.888 0.896207 -1.83927 0
M  V30 1143 H 112.898 3.26671 -2.44438 0
M  V30 1144 H 111.573 2.51169 -3.31492 0
M  V30 1145 H 110.15 3.33073 -1.6768 0
M  V30 1146 N 112.336 1.25143 0.95797 0
M  V30 1147 C 113.585 1.0909 1.69654 0
M  V30 1148 C 113.898 -0.368548 1.92097 0
M  V30 1149 O 115.104 -0.649455 2.63618 0
M  V30 1150 C 113.56 1.90395 3.05414 0
M  V30 1151 C 113.168 3.4081 2.90779 0
M  V30 1152 C 114.912 1.82901 3.83076 0
M  V30 1153 C 112.819 4.14423 4.21909 0
M  V30 1154 H 111.749 0.404625 0.636235 0
M  V30 1155 H 114.4 1.4931 1.06672 0
M  V30 1156 H 112.782 1.42996 3.69281 0
M  V30 1157 H 113.956 3.95859 2.35865 0
M  V30 1158 H 112.271 3.49361 2.26575 0
M  V30 1159 H 114.868 2.35196 4.80195 0
M  V30 1160 H 115.211 0.796224 4.08615 0
M  V30 1161 H 115.744 2.28033 3.25954 0
M  V30 1162 H 112.483 5.18102 4.01561 0
M  V30 1163 H 112.003 3.64159 4.76601 0
M  V30 1164 H 113.682 4.21956 4.90471 0
M  V30 1165 N 113.814 -1.1601 1.06675 0
M  V30 1166 C 115.225 -1.68235 0.809565 0
M  V30 1167 C 115.576 -1.8454 -0.666303 0
M  V30 1168 O 114.701 -1.54374 -1.5165 0
M  V30 1169 C 115.296 -3.05585 1.46299 0
M  V30 1170 C 113.855 -3.54915 1.25349 0
M  V30 1171 C 113.002 -2.30804 1.53703 0
M  V30 1172 H 115.953 -1.00318 1.22971 0
M  V30 1173 H 115.974 -3.70174 0.880431 0
M  V30 1174 H 115.486 -2.93686 2.53713 0
M  V30 1175 H 113.587 -3.72067 0.199261 0
M  V30 1176 H 113.7 -4.36774 1.9689 0
M  V30 1177 H 112.064 -2.36007 0.957739 0
M  V30 1178 H 112.847 -2.21499 2.62284 0
M  V30 1179 N 115.292 -0.849877 -1.32721 0
M  V30 1180 C 116.703 -0.506188 -1.79707 0
M  V30 1181 C 117.054 0.975627 -1.70223 0
M  V30 1182 O 116.179 1.76078 -1.25799 0
M  V30 1183 C 116.774 -0.912044 -3.26293 0
M  V30 1184 C 115.333 -0.620326 -3.71253 0
M  V30 1185 C 114.48 -1.11439 -2.53922 0
M  V30 1186 H 117.431 -1.03754 -1.20087 0
M  V30 1187 H 117.452 -0.226493 -3.79825 0
M  V30 1188 H 116.964 -1.99057 -3.33164 0
M  V30 1189 H 115.065 0.447674 -3.69901 0
M  V30 1190 H 115.178 -1.18327 -4.64258 0
M  V30 1191 H 113.542 -0.534834 -2.49021 0
M  V30 1192 H 114.325 -2.19992 -2.6355 0
M  V30 1193 N 116.77 1.45427 -0.607355 0
M  V30 1194 C 118.018 2.01841 -0.102253 0
M  V30 1195 C 118.339 1.47832 1.27164 0
M  V30 1196 O 117.609 0.672497 1.83995 0
M  V30 1197 H 116.189 0.746188 -0.0348101 0
M  V30 1198 H 118.851 1.78229 -0.7887 0
M  V30 1199 H 117.947 3.12057 -0.0518585 0
M  V30 1200 N 118.248 0.346503 1.53744 0
M  V30 1201 C 119.659 -0.136779 1.86198 0
M  V30 1202 C 120.01 -1.49749 1.26766 0
M  V30 1203 O 119.135 -2.08417 0.582355 0
M  V30 1204 C 119.73 -0.254966 3.37839 0
M  V30 1205 C 118.289 -0.682482 3.70161 0
M  V30 1206 C 117.436 0.181981 2.76702 0
M  V30 1207 H 120.387 0.565994 1.48264 0
M  V30 1208 H 120.408 -1.08195 3.64793 0
M  V30 1209 H 119.92 0.735526 3.81066 0
M  V30 1210 H 118.021 -1.68189 3.3248 0
M  V30 1211 H 118.134 -0.470326 4.76786 0
M  V30 1212 H 116.498 -0.34615 2.52337 0
M  V30 1213 H 117.281 1.16966 3.2276 0
M  V30 1214 N 119.726 -1.57421 0.075193 0
M  V30 1215 C 120.674 -2.14124 -0.908508 0
M  V30 1216 C 121.668 -1.07898 -1.30592 0
M  V30 1217 O 122.874 -1.26273 -1.28277 0
M  V30 1218 H 119.249 -0.684707 -0.310935 0
M  V30 1219 H 121.22 -2.95634 -0.405374 0
M  V30 1220 C 119.969 -2.72044 -2.16535 0
M  V30 1221 H 119.292 -3.53456 -1.86839 0
M  V30 1222 H 120.732 -3.15311 -2.83469 0
M  V30 1223 C 119.191 -1.66968 -2.92615 0
M  V30 1224 O 119.721 -1.0967 -3.86439 0
M  V30 1225 N 117.927 -1.37923 -2.55784 0
M  V30 1226 H 117.474 -1.84706 -1.79559 0
M  V30 1227 H 117.432 -0.67852 -3.06991 0
M  V30 1228 N 121.204 0.198386 -1.56346 0
M  V30 1229 C 122.136 1.26987 -1.90806 0
M  V30 1230 C 123.149 1.41877 -0.798419 0
M  V30 1231 O 124.338 1.42362 -1.07682 0
M  V30 1232 C 121.438 2.64246 -2.12196 0
M  V30 1233 C 120.611 2.71007 -3.43328 0
M  V30 1234 C 119.67 3.89439 -3.5387 0
M  V30 1235 O 118.696 3.76695 -4.26719 0
M  V30 1236 N 119.898 5.04752 -2.86715 0
M  V30 1237 H 122.663 0.977433 -2.83313 0
M  V30 1238 H 120.224 0.388322 -1.57174 0
M  V30 1239 H 122.216 3.41896 -2.1654 0
M  V30 1240 H 120.786 2.85992 -1.26204 0
M  V30 1241 H 120.006 1.79657 -3.50881 0
M  V30 1242 H 121.294 2.72512 -4.29668 0
M  V30 1243 H 120.692 5.18004 -2.2735 0
M  V30 1244 H 119.249 5.8036 -2.96691 0
M  V30 1245 N 122.682 1.50554 0.465978 0
M  V30 1246 C 124.098 1.38093 0.800154 0
M  V30 1247 C 124.298 0.440988 1.96615 0
M  V30 1248 O 123.354 -0.114499 2.5224 0
M  V30 1249 C 124.667 2.79565 1.10742 0
M  V30 1250 C 126.215 2.88516 1.21357 0
M  V30 1251 C 126.69 4.30833 1.55393 0
M  V30 1252 N 128.181 4.33807 1.62375 0
M  V30 1253 C 128.916 5.40927 1.90225 0
M  V30 1254 N 128.412 6.58247 2.16062 0
M  V30 1255 N 130.205 5.28376 1.9177 0
M  V30 1256 H 122.356 2.10237 -0.302366 0
M  V30 1257 H 124.619 0.945203 -0.0727746 0
M  V30 1258 H 124.325 3.50208 0.323661 0
M  V30 1259 H 124.199 3.17125 2.04234 0
M  V30 1260 H 126.586 2.1809 1.98799 0
M  V30 1261 H 126.667 2.54492 0.258321 0
M  V30 1262 H 126.311 5.01799 0.784889 0
M  V30 1263 H 126.241 4.62347 2.52076 0
M  V30 1264 H 128.732 3.49212 1.44427 0
M  V30 1265 H 129.045 7.3569 2.36601 0
M  V30 1266 H 127.39 6.61413 2.13444 0
M  V30 1267 H 130.581 4.35715 1.71085 0
M  V30 1268 H 130.754 6.11944 2.13139 0
M  V30 1269 N 124.16 -0.719506 1.40217 0
M  V30 1270 C 125.571 -1.29848 1.34151 0
M  V30 1271 C 125.922 -1.96196 0.0131349 0
M  V30 1272 O 125.047 -1.973 -0.88892 0
M  V30 1273 C 125.642 -2.36118 2.42968 0
M  V30 1274 C 124.201 -2.8965 2.40374 0
M  V30 1275 C 123.348 -1.63393 2.24049 0
M  V30 1276 H 126.299 -0.51591 1.5008 0
M  V30 1277 H 126.32 -3.16871 2.10649 0
M  V30 1278 H 125.832 -1.878 3.39636 0
M  V30 1279 H 123.933 -3.42208 1.47392 0
M  V30 1280 H 124.046 -3.4171 3.35814 0
M  V30 1281 H 122.41 -1.88312 1.71495 0
M  V30 1282 H 123.193 -1.17104 3.2271 0
M  V30 1283 N 125.638 -1.25649 -0.95132 0
M  V30 1284 C 126.588 -1.03004 -2.03406 0
M  V30 1285 C 127.572 0.034187 -1.60864 0
M  V30 1286 O 128.764 -0.181549 -1.76066 0
M  V30 1287 C 125.893 -0.654255 -3.37008 0
M  V30 1288 C 124.979 -1.75542 -3.86065 0
M  V30 1289 N 125.37 -2.99113 -4.07879 0
M  V30 1290 C 123.668 -1.63669 -4.14884 0
M  V30 1291 C 124.369 -3.70611 -4.48356 0
M  V30 1292 N 123.345 -2.98247 -4.54477 0
M  V30 1293 H 127.147 -1.96813 -2.1827 0
M  V30 1294 H 124.661 -1.16017 -1.13639 0
M  V30 1295 H 126.658 -0.473206 -4.14206 0
M  V30 1296 H 125.318 0.276468 -3.23521 0
M  V30 1297 H 126.329 -3.35124 -3.94857 0
M  V30 1298 H 123.006 -0.775161 -4.10241 0
M  V30 1299 H 124.396 -4.76695 -4.73509 0
M  V30 1300 N 127.117 1.15442 -1.07289 0
M  V30 1301 C 128.049 2.19773 -0.650585 0
M  V30 1302 C 129.062 1.60076 0.296572 0
M  V30 1303 O 130.251 1.78293 0.0859905 0
M  V30 1304 C 127.351 3.38838 0.0650398 0
M  V30 1305 C 126.524 4.2808 -0.898141 0
M  V30 1306 C 125.583 5.2574 -0.219926 0
M  V30 1307 O 124.609 5.62654 -0.860773 0
M  V30 1308 N 125.811 5.71205 1.03466 0
M  V30 1309 H 128.576 2.56622 -1.54808 0
M  V30 1310 H 126.137 1.30551 -0.957494 0
M  V30 1311 H 128.129 4.01222 0.529415 0
M  V30 1312 H 126.699 3.00409 0.864466 0
M  V30 1313 H 125.919 3.62804 -1.54165 0
M  V30 1314 H 127.207 4.84577 -1.5512 0
M  V30 1315 H 126.605 5.43325 1.57526 0
M  V30 1316 H 125.162 6.35633 1.44272 0
M  V30 1317 N 128.595 0.856903 1.32268 0
M  V30 1318 C 129.835 0.467705 1.98977 0
M  V30 1319 C 130.199 -0.959231 1.66321 0
M  V30 1320 O 131.4 -1.4531 2.26138 0
M  V30 1321 C 129.671 0.70256 3.50427 0
M  V30 1322 S 131.23 0.411269 4.36868 0
M  V30 1323 H 128.048 0.175121 0.689096 0
M  V30 1324 H 130.65 1.1101 1.60925 0
M  V30 1325 H 129.354 1.74012 3.71683 0
M  V30 1326 H 128.885 0.0466707 3.93372 0
M  V30 1327 H 130.9 -0.761799 4.90317 0
M  V30 1328 N 130.073 -1.45103 0.615059 0
M  V30 1329 C 131.489 -1.57137 0.279322 0
M  V30 1330 C 131.689 -1.60523 -1.21797 0
M  V30 1331 O 130.745 -1.53956 -2.00134 0
M  V30 1332 C 132.058 -2.85062 0.957083 0
M  V30 1333 C 133.606 -2.98749 0.933706 0
M  V30 1334 C 134.081 -4.29455 1.59162 0
M  V30 1335 N 135.572 -4.36231 1.55746 0
M  V30 1336 C 136.307 -5.36051 2.0356 0
M  V30 1337 N 135.803 -6.42367 2.59494 0
M  V30 1338 N 137.596 -5.27456 1.94284 0
M  V30 1339 H 129.747 -1.41148 1.58717 0
M  V30 1340 H 132.01 -0.675331 0.665306 0
M  V30 1341 H 131.716 -2.88488 2.01166 0
M  V30 1342 H 131.59 -3.7407 0.48494 0
M  V30 1343 H 133.977 -2.94886 -0.112347 0
M  V30 1344 H 134.058 -2.11132 1.44419 0
M  V30 1345 H 133.702 -4.34077 2.63704 0
M  V30 1346 H 133.632 -5.15901 1.0561 0
M  V30 1347 H 136.123 -3.60011 1.14893 0
M  V30 1348 H 136.436 -7.14793 2.93752 0
M  V30 1349 H 134.781 -6.43097 2.63537 0
M  V30 1350 H 137.972 -4.43308 1.5032 0
M  V30 1351 H 138.145 -6.05099 2.3186 0
M  V30 1352 N 131.551 -0.354651 -1.53558 0
M  V30 1353 C 132.967 -0.00315426 -1.596 0
M  V30 1354 C 133.167 1.47741 -1.37021 0
M  V30 1355 O 132.223 2.23759 -1.16996 0
M  V30 1356 C 133.536 -0.44929 -2.97325 0
M  V30 1357 C 135.084 -0.402578 -3.104 0
M  V30 1358 C 135.559 -0.824355 -4.5052 0
M  V30 1359 N 137.05 -0.778979 -4.56603 0
M  V30 1360 C 137.785 -1.07715 -5.63192 0
M  V30 1361 N 137.281 -1.44405 -6.77583 0
M  V30 1362 N 139.074 -1.00066 -5.53121 0
M  V30 1363 H 131.225 -1.31893 -1.66487 0
M  V30 1364 H 133.488 -0.538388 -0.780284 0
M  V30 1365 H 133.194 -1.48202 -3.1895 0
M  V30 1366 H 133.068 0.169772 -3.76818 0
M  V30 1367 H 135.455 0.621004 -2.88492 0
M  V30 1368 H 135.536 -1.05699 -2.32941 0
M  V30 1369 H 135.18 -1.846 -4.73165 0
M  V30 1370 H 135.11 -0.147304 -5.26394 0
M  V30 1371 H 137.601 -0.508528 -3.74463 0
M  V30 1372 H 137.914 -1.65612 -7.54846 0
M  V30 1373 H 136.259 -1.4826 -6.79002 0
M  V30 1374 H 139.45 -0.713293 -4.62633 0
M  V30 1375 H 139.623 -1.23638 -6.36096 0
M  V30 1376 N 133.029 1.57378 -0.0835403 0
M  V30 1377 C 134.276 1.9393 0.58287 0
M  V30 1378 C 134.604 0.964455 1.68904 0
M  V30 1379 O 133.859 -0.0179474 1.95692 0
M  V30 1380 C 134.158 3.37063 1.1884 0
M  V30 1381 C 133.824 4.50424 0.207194 0
M  V30 1382 C 132.486 4.81159 -0.0627115 0
M  V30 1383 C 134.838 5.19136 -0.463426 0
M  V30 1384 C 132.166 5.77939 -1.01012 0
M  V30 1385 C 134.518 6.16931 -1.39924 0
M  V30 1386 C 133.182 6.46078 -1.67749 0
M  V30 1387 H 132.452 0.70964 0.213287 0
M  V30 1388 H 135.099 1.90856 -0.156916 0
M  V30 1389 H 133.404 3.3666 2.00418 0
M  V30 1390 H 135.101 3.6264 1.71153 0
M  V30 1391 H 131.691 4.2646 0.427747 0
M  V30 1392 H 135.875 4.95576 -0.268034 0
M  V30 1393 H 131.131 5.98842 -1.23283 0
M  V30 1394 H 135.305 6.69273 -1.92476 0
M  V30 1395 H 132.932 7.2088 -2.41321 0
M  V30 1396 N 134.507 -0.190092 1.56449 0
M  V30 1397 C 135.923 -0.54113 1.50146 0
M  V30 1398 C 136.123 -1.85603 0.784465 0
M  V30 1399 O 135.179 -2.5024 0.337051 0
M  V30 1400 C 136.492 -0.591241 2.9483 0
M  V30 1401 C 138.04 -0.679732 3.0553 0
M  V30 1402 C 138.515 -0.760908 4.51635 0
M  V30 1403 N 140.006 -0.824302 4.55806 0
M  V30 1404 C 140.741 -0.907365 5.66175 0
M  V30 1405 N 140.237 -0.952422 6.86222 0
M  V30 1406 N 142.03 -0.94494 5.541 0
M  V30 1407 H 134.181 0.67235 2.01478 0
M  V30 1408 H 136.444 0.240127 0.917084 0
M  V30 1409 H 136.15 0.305905 3.50367 0
M  V30 1410 H 136.024 -1.44422 3.48457 0
M  V30 1411 H 138.411 -1.56731 2.50039 0
M  V30 1412 H 138.492 0.199549 2.5502 0
M  V30 1413 H 138.136 0.122336 5.07753 0
M  V30 1414 H 138.066 -1.65606 4.99882 0
M  V30 1415 H 140.557 -0.798526 3.69367 0
M  V30 1416 H 140.87 -1.01645 7.66086 0
M  V30 1417 H 139.215 -0.921014 6.8887 0
M  V30 1418 H 142.406 -0.906612 4.59236 0
M  V30 1419 H 142.579 -1.00622 6.4014 0
M  V30 1420 N 135.985 -1.50799 -0.457987 0
M  V30 1421 C 136.917 -1.66786 -1.57211 0
M  V30 1422 C 137.93 -0.548962 -1.53265 0
M  V30 1423 O 139.119 -0.8226 -1.58416 0
M  V30 1424 C 136.219 -1.64834 -2.96113 0
M  V30 1425 C 135.392 -2.92971 -3.24787 0
M  V30 1426 C 134.451 -2.83485 -4.43309 0
M  V30 1427 O 133.477 -3.5744 -4.42973 0
M  V30 1428 N 134.679 -1.97929 -5.45714 0
M  V30 1429 H 137.444 -2.62889 -1.43909 0
M  V30 1430 H 135.005 -1.48427 -0.646617 0
M  V30 1431 H 136.997 -1.56084 -3.7339 0
M  V30 1432 H 135.567 -0.764118 -3.03117 0
M  V30 1433 H 134.787 -3.15749 -2.36 0
M  V30 1434 H 136.075 -3.77834 -3.40762 0
M  V30 1435 H 135.473 -1.37182 -5.48815 0
M  V30 1436 H 134.03 -1.95073 -6.21924 0
M  V30 1437 N 137.463 0.71206 -1.40597 0
M  V30 1438 C 138.874 1.29135 -1.34837 0
M  V30 1439 C 139.225 1.96186 -0.0235395 0
M  V30 1440 O 138.35 1.97768 0.878444 0
M  V30 1441 C 138.945 2.34827 -2.44217 0
M  V30 1442 C 137.504 2.88371 -2.41907 0
M  V30 1443 C 136.651 1.62202 -2.24913 0
M  V30 1444 H 139.602 0.507944 -1.50352 0
M  V30 1445 H 139.623 3.15749 -2.12327 0
M  V30 1446 H 139.135 1.85996 -3.40627 0
M  V30 1447 H 137.236 3.41422 -1.49204 0
M  V30 1448 H 137.349 3.39925 -3.37621 0
M  V30 1449 H 135.713 1.874 -1.72492 0
M  V30 1450 H 136.496 1.15391 -3.23326 0
M  V30 1451 N 138.941 1.26152 0.944643 0
M  V30 1452 C 139.873 1.03199 2.04652 0
M  V30 1453 C 140.886 -0.00642356 1.62799 0
M  V30 1454 O 142.075 0.233263 1.76969 0
M  V30 1455 C 139.175 0.540111 3.34568 0
M  V30 1456 C 138.348 1.64697 4.05208 0
M  V30 1457 C 137.407 1.15374 5.13396 0
M  V30 1458 O 136.433 1.85013 5.38293 0
M  V30 1459 N 137.635 0.00031529 5.805 0
M  V30 1460 H 140.4 1.9808 2.2491 0
M  V30 1461 H 137.961 1.17491 1.11389 0
M  V30 1462 H 139.953 0.194401 4.04233 0
M  V30 1463 H 138.523 -0.315021 3.11009 0
M  V30 1464 H 137.743 2.16379 3.29506 0
M  V30 1465 H 139.031 2.3903 4.49157 0
M  V30 1466 H 138.429 -0.581336 5.62705 0
M  V30 1467 H 136.986 -0.286346 6.51171 0
M  V30 1468 N 140.419 -1.14872 1.07899 0
M  V30 1469 C 141.665 -1.86289 0.81657 0
M  V30 1470 C 142.02 -1.8107 -0.65049 0
M  V30 1471 O 141.313 -1.22684 -1.47171 0
M  V30 1472 C 141.507 -3.34223 1.26609 0
M  V30 1473 C 141.336 -3.53846 2.77531 0
M  V30 1474 C 140.106 -3.68995 3.45212 0
M  V30 1475 C 142.304 -3.51201 3.75716 0
M  V30 1476 N 140.286 -3.76725 4.84718 0
M  V30 1477 C 141.657 -3.65112 5.01092 0
M  V30 1478 C 143.712 -3.34507 3.68794 0
M  V30 1479 C 142.415 -3.64056 6.20368 0
M  V30 1480 C 144.441 -3.34752 4.8754 0
M  V30 1481 C 143.803 -3.49199 6.11751 0
M  V30 1482 H 139.902 -0.698579 0.351443 0
M  V30 1483 H 142.486 -1.37713 1.37634 0
M  V30 1484 H 140.657 -3.81402 0.73395 0
M  V30 1485 H 142.389 -3.93377 0.95062 0
M  V30 1486 H 139.144 -3.70006 2.95622 0
M  V30 1487 H 139.568 -3.8432 5.5734 0
M  V30 1488 H 144.21 -3.22253 2.73702 0
M  V30 1489 H 141.928 -3.75087 7.15776 0
M  V30 1490 H 145.514 -3.23055 4.83866 0
M  V30 1491 H 144.394 -3.49328 7.02097 0
M  V30 1492 N 141.898 -0.863906 -1.31812 0
M  V30 1493 C 142.83 -0.272485 -2.27575 0
M  V30 1494 C 143.843 0.56104 -1.52827 0
M  V30 1495 O 145.032 0.384021 -1.7432 0
M  V30 1496 C 142.132 0.63283 -3.32939 0
M  V30 1497 C 141.305 -0.166902 -4.37081 0
M  V30 1498 C 140.364 0.665608 -5.21973 0
M  V30 1499 O 139.39 0.0958091 -5.69119 0
M  V30 1500 N 140.592 1.9787 -5.45736 0
M  V30 1501 H 143.357 -1.0954 -2.78964 0
M  V30 1502 H 140.918 -0.724791 -1.4477 0
M  V30 1503 H 142.91 1.19532 -3.86645 0
M  V30 1504 H 141.48 1.35642 -2.81638 0
M  V30 1505 H 140.7 -0.910838 -3.83533 0
M  V30 1506 H 141.988 -0.715874 -5.03739 0
M  V30 1507 H 141.386 2.46484 -5.09178 0
M  V30 1508 H 139.943 2.48911 -6.024 0
M  V30 1509 N 143.376 1.44774 -0.622745 0
M  V30 1510 C 144.306 2.33382 0.0741861 0
M  V30 1511 C 145.287 1.47719 0.843387 0
M  V30 1512 O 146.472 1.76458 0.810934 0
M  V30 1513 C 143.602 3.30663 1.06204 0
M  V30 1514 C 142.556 4.26079 0.405037 0
M  V30 1515 C 141.882 5.13165 1.5022 0
M  V30 1516 C 143.182 5.1781 -0.683414 0
M  V30 1517 H 144.876 2.91905 -0.665713 0
M  V30 1518 H 142.422 1.40363 -0.321587 0
M  V30 1519 H 144.375 3.9153 1.55827 0
M  V30 1520 H 143.099 2.70331 1.83272 0
M  V30 1521 H 141.758 3.66532 -0.0704683 0
M  V30 1522 H 141.406 4.49191 2.26355 0
M  V30 1523 H 141.106 5.77812 1.06803 0
M  V30 1524 H 142.63 5.76902 2.00041 0
M  V30 1525 H 144.044 5.72661 -0.270631 0
M  V30 1526 H 142.441 5.91015 -1.04023 0
M  V30 1527 H 143.511 4.59326 -1.55395 0
M  V30 1528 N 144.854 0.36279 1.53368 0
M  V30 1529 C 145.784 -0.476976 2.28576 0
M  V30 1530 C 146.765 -1.08631 1.30894 0
M  V30 1531 O 147.95 -1.10409 1.59761 0
M  V30 1532 C 145.08 -1.61828 3.07293 0
M  V30 1533 C 144.034 -1.13633 4.1264 0
M  V30 1534 C 143.36 -2.36766 4.79423 0
M  V30 1535 C 144.66 -0.223061 5.21823 0
M  V30 1536 H 146.354 0.150474 2.99022 0
M  V30 1537 H 143.9 0.0738103 1.43811 0
M  V30 1538 H 145.853 -2.21237 3.58653 0
M  V30 1539 H 144.577 -2.27292 2.34533 0
M  V30 1540 H 143.236 -0.564945 3.62221 0
M  V30 1541 H 142.884 -3.0068 4.03238 0
M  V30 1542 H 142.584 -2.05192 5.50609 0
M  V30 1543 H 144.108 -2.96865 5.33576 0
M  V30 1544 H 145.522 -0.724545 5.68703 0
M  V30 1545 H 143.919 0.001678 6.001 0
M  V30 1546 H 144.989 0.735553 4.79289 0
M  V30 1547 N 146.332 -1.57332 0.0918853 0
M  V30 1548 C 147.609 -1.85691 -0.614668 0
M  V30 1549 C 147.989 -0.988146 -1.86545 0
M  V30 1550 O 147.337 -0.0597055 -2.28422 0
M  V30 1551 C 147.547 -3.36294 -0.933126 0
M  V30 1552 C 148.895 -4.04275 -1.29796 0
M  V30 1553 O 149.919 -3.41157 -1.02424 0
M  V30 1554 O 148.778 -5.1564 -1.81047 0
M  V30 1555 H 145.872 -0.767802 -0.307261 0
M  V30 1556 H 148.418 -1.69244 0.12434 0
M  V30 1557 H 147.19 -3.91273 -0.0456404 0
M  V30 1558 H 146.813 -3.58076 -1.72822 0
M  V30 1559 N 147.81 0.181792 -1.56548 0
M  V30 1560 C 149.221 0.745244 -1.71181 0
M  V30 1561 C 149.572 1.83262 -0.70068 0
M  V30 1562 O 148.697 2.15946 0.140154 0
M  V30 1563 C 149.292 1.35859 -3.10367 0
M  V30 1564 C 147.851 1.86898 -3.2672 0
M  V30 1565 C 146.998 0.743942 -2.67134 0
M  V30 1566 H 149.949 -0.0434661 -1.5864 0
M  V30 1567 H 149.97 2.22817 -3.08436 0
M  V30 1568 H 149.482 0.566948 -3.83937 0
M  V30 1569 H 147.583 2.68738 -2.5809 0
M  V30 1570 H 147.696 2.02162 -4.34359 0
M  V30 1571 H 146.06 1.16169 -2.26665 0
M  V30 1572 H 146.843 -0.035676 -3.43281 0
M  V30 1573 N 149.288 1.51039 0.449983 0
M  V30 1574 C 150.236 1.71995 1.5659 0
M  V30 1575 C 151.23 0.586029 1.5894 0
M  V30 1576 O 152.436 0.76709 1.62837 0
M  V30 1577 H 148.811 0.543233 0.520001 0
M  V30 1578 H 150.782 2.65562 1.36085 0
M  V30 1579 C 149.531 1.8506 2.9436 0
M  V30 1580 H 148.854 2.71712 2.93279 0
M  V30 1581 H 150.294 2.0374 3.71842 0
M  V30 1582 C 148.753 0.607277 3.31382 0
M  V30 1583 O 149.283 -0.243903 4.00959 0
M  V30 1584 N 147.489 0.455073 2.87015 0
M  V30 1585 H 147.036 1.14879 2.30566 0
M  V30 1586 H 146.994 -0.375611 3.12148 0
M  V30 1587 N 150.766 -0.704594 1.40972 0
M  V30 1588 C 151.729 -1.80035 1.41845 0
M  V30 1589 C 152.729 -1.57774 0.310474 0
M  V30 1590 O 153.919 -1.64613 0.56992 0
M  V30 1591 C 151.051 -3.18284 1.22098 0
M  V30 1592 H 152.244 -1.80658 2.3938 0
M  V30 1593 H 149.797 -0.911329 1.26982 0
M  V30 1594 H 150.532 -3.23306 0.253672 0
M  V30 1595 H 150.317 -3.35843 2.02366 0
M  V30 1596 H 151.807 -3.98289 1.25522 0
M  V30 1597 N 152.244 -1.26651 -0.937939 0
M  V30 1598 C 153.472 -1.15173 -1.7188 0
M  V30 1599 C 153.887 0.292668 -1.86518 0
M  V30 1600 O 153.244 1.20014 -1.37488 0
M  V30 1601 C 153.295 -1.81925 -3.12387 0
M  V30 1602 O 153.016 -3.2072 -2.98446 0
M  V30 1603 C 154.517 -1.76442 -4.06673 0
M  V30 1604 H 151.737 -0.400911 -0.538063 0
M  V30 1605 H 154.281 -1.67332 -1.1756 0
M  V30 1606 H 152.436 -1.33696 -3.63599 0
M  V30 1607 H 152.85 -3.53802 -3.872 0
M  V30 1608 H 154.324 -2.27781 -5.02812 0
M  V30 1609 H 154.801 -0.731608 -4.33064 0
M  V30 1610 H 155.407 -2.24238 -3.61382 0
M  V30 1611 N 153.722 1.14298 -1.08507 0
M  V30 1612 C 154.685 2.17607 -0.719711 0
M  V30 1613 C 155.685 1.58907 0.245997 0
M  V30 1614 O 156.875 1.74181 0.0254081 0
M  V30 1615 C 154.007 3.40842 -0.0627695 0
M  V30 1616 H 155.2 2.51443 -1.63452 0
M  V30 1617 H 152.753 1.28963 -0.88307 0
M  V30 1618 H 153.488 3.12587 0.863716 0
M  V30 1619 H 153.273 3.84713 -0.757504 0
M  V30 1620 H 154.763 4.17221 0.177786 0
M  V30 1621 N 155.201 0.870884 1.31352 0
M  V30 1622 C 156.429 0.49677 2.00848 0
M  V30 1623 C 156.844 -0.910998 1.65367 0
M  V30 1624 O 156.201 -1.59696 0.883374 0
M  V30 1625 C 156.252 0.645308 3.55694 0
M  V30 1626 O 155.973 1.99764 3.89905 0
M  V30 1627 C 157.474 0.272326 4.42463 0
M  V30 1628 H 154.694 0.193462 0.642506 0
M  V30 1629 H 157.238 1.1723 1.67563 0
M  V30 1630 H 155.393 0.0173176 3.87396 0
M  V30 1631 H 155.807 2.00607 4.84621 0
M  V30 1632 H 157.281 0.427208 5.50344 0
M  V30 1633 H 157.758 -0.788587 4.32062 0
M  V30 1634 H 158.364 0.876054 4.1618 0
M  V30 1635 N 156.679 -1.44442 0.630414 0
M  V30 1636 C 157.904 -2.06927 0.139944 0
M  V30 1637 C 158.329 -1.46795 -1.17613 0
M  V30 1638 O 157.687 -0.569144 -1.72135 0
M  V30 1639 C 157.735 -3.6058 0.0379581 0
M  V30 1640 O 156.839 -3.99937 -1.0062 0
M  V30 1641 H 156.18 -0.658608 0.0844483 0
M  V30 1642 H 158.71 -1.85327 0.866891 0
M  V30 1643 H 158.72 -4.07714 -0.152856 0
M  V30 1644 H 157.395 -4.03728 0.998809 0
M  V30 1645 H 155.972 -3.64436 -0.79001 0
M  V30 1646 N 158.157 -0.370918 -1.53173 0
M  V30 1647 C 159.403 0.209976 -2.02313 0
M  V30 1648 C 159.758 1.45987 -1.25322 0
M  V30 1649 O 159.051 1.8856 -0.339965 0
M  V30 1650 C 159.245 0.549696 -3.53147 0
M  V30 1651 C 159.074 -0.665721 -4.44745 0
M  V30 1652 C 157.844 -1.17942 -4.91343 0
M  V30 1653 C 160.042 -1.53255 -4.90935 0
M  V30 1654 N 158.024 -2.35431 -5.66962 0
M  V30 1655 C 159.395 -2.55403 -5.64951 0
M  V30 1656 C 161.45 -1.5548 -4.73002 0
M  V30 1657 C 160.153 -3.5964 -6.22938 0
M  V30 1658 C 162.179 -2.58613 -5.31858 0
M  V30 1659 C 161.541 -3.59485 -6.05764 0
M  V30 1660 H 157.64 0.0394095 -0.781006 0
M  V30 1661 H 160.224 -0.516666 -1.8772 0
M  V30 1662 H 158.395 1.24541 -3.67891 0
M  V30 1663 H 160.127 1.11614 -3.89004 0
M  V30 1664 H 156.882 -0.743228 -4.67732 0
M  V30 1665 H 157.306 -2.94827 -6.09431 0
M  V30 1666 H 161.948 -0.788457 -4.15383 0
M  V30 1667 H 159.666 -4.37153 -6.79649 0
M  V30 1668 H 163.252 -2.61195 -5.19873 0
M  V30 1669 H 162.132 -4.3798 -6.50495 0
M  V30 1670 N 159.635 1.57281 -0.100228 0
M  V30 1671 C 160.86 1.99302 0.573881 0
M  V30 1672 C 161.285 0.979059 1.60611 0
M  V30 1673 O 160.643 -0.0517803 1.81226 0
M  V30 1674 C 160.691 3.40274 1.19358 0
M  V30 1675 O 159.795 3.41676 2.30935 0
M  V30 1676 H 159.136 0.647944 0.145138 0
M  V30 1677 H 161.666 2.03779 -0.183156 0
M  V30 1678 H 161.676 3.78078 1.53365 0
M  V30 1679 H 160.351 4.13594 0.437385 0
M  V30 1680 H 158.928 3.15672 1.98509 0
M  V30 1681 N 161.113 -0.173488 1.56642 0
M  V30 1682 C 162.023 -1.23482 1.99473 0
M  V30 1683 C 163.039 -1.48567 0.905752 0
M  V30 1684 O 164.215 -1.60758 1.21321 0
M  V30 1685 C 161.28 -2.55444 2.34413 0
M  V30 1686 C 160.341 -2.38241 3.57127 0
M  V30 1687 C 159.574 -3.63909 3.90392 0
M  V30 1688 O 159.797 -4.68996 3.24653 0
M  V30 1689 O 158.731 -3.58149 4.83749 0
M  V30 1690 H 162.557 -0.901279 2.90018 0
M  V30 1691 H 160.142 -0.380185 1.44482 0
M  V30 1692 H 162.024 -3.33292 2.57865 0
M  V30 1693 H 160.699 -2.88382 1.4703 0
M  V30 1694 H 159.606 -1.58431 3.38896 0
M  V30 1695 H 160.939 -2.10228 4.45045 0
M  V30 1696 N 162.591 -1.51276 -0.441967 0
M  V30 1697 C 163.554 -1.7167 -1.51862 0
M  V30 1698 C 164.554 -0.586793 -1.49711 0
M  V30 1699 O 165.744 -0.854276 -1.51815 0
M  V30 1700 C 162.876 -1.76889 -2.91416 0
M  V30 1701 H 164.069 -2.67754 -1.35084 0
M  V30 1702 H 161.622 -1.41196 -0.670333 0
M  V30 1703 H 162.357 -0.826026 -3.13604 0
M  V30 1704 H 162.142 -2.59001 -2.94382 0
M  V30 1705 H 163.632 -1.94522 -3.69528 0
M  V30 1706 N 164.069 0.697108 -1.41344 0
M  V30 1707 C 165.346 1.45154 -1.31109 0
M  V30 1708 C 165.726 2.11009 0.0620449 0
M  V30 1709 O 165.074 2.01571 1.07618 0
M  V30 1710 C 165.284 2.47223 -2.46337 0
M  V30 1711 C 166.632 3.1252 -2.87431 0
M  V30 1712 O 167.656 2.57547 -2.46065 0
M  V30 1713 O 166.515 4.12083 -3.58957 0
M  V30 1714 H 163.609 0.646365 -0.515889 0
M  V30 1715 H 166.155 0.727716 -1.53305 0
M  V30 1716 H 164.927 1.97204 -3.37974 0
M  V30 1717 H 164.55 3.27116 -2.2601 0
M  V30 1718 N 165.547 1.27147 0.931209 0
M  V30 1719 C 166.775 1.16082 1.71267 0
M  V30 1720 C 167.19 -0.282772 1.8667 0
M  V30 1721 O 166.547 -1.19283 1.38122 0
M  V30 1722 C 166.598 1.8358 3.11417 0
M  V30 1723 O 166.319 3.22299 2.96741 0
M  V30 1724 C 167.82 1.78597 4.05732 0
M  V30 1725 H 165.04 0.403758 0.535929 0
M  V30 1726 H 167.584 1.67953 1.16671 0
M  V30 1727 H 165.739 1.35623 3.62885 0
M  V30 1728 H 166.153 3.55851 3.85319 0
M  V30 1729 H 167.627 2.30444 5.01597 0
M  V30 1730 H 168.104 0.754564 4.3267 0
M  V30 1731 H 168.71 2.26152 3.60188 0
M  V30 1732 N 167.025 -1.13721 1.09112 0
M  V30 1733 C 167.935 -2.22638 0.73957 0
M  V30 1734 C 168.951 -1.72091 -0.257068 0
M  V30 1735 O 170.127 -2.01155 -0.0992154 0
M  V30 1736 C 167.192 -3.46322 0.16191 0
M  V30 1737 C 166.253 -4.11775 1.21408 0
M  V30 1738 C 165.486 -5.29555 0.663891 0
M  V30 1739 O 165.709 -5.68077 -0.514274 0
M  V30 1740 O 164.643 -5.84973 1.41738 0
M  V30 1741 H 168.469 -2.55074 1.64836 0
M  V30 1742 H 166.054 -1.21791 0.865289 0
M  V30 1743 H 167.936 -4.21107 -0.157073 0
M  V30 1744 H 166.611 -3.15593 -0.719932 0
M  V30 1745 H 165.518 -3.3883 1.58571 0
M  V30 1746 H 166.851 -4.46627 2.06845 0
M  V30 1747 N 168.503 -0.877838 -1.30888 0
M  V30 1748 C 169.914 -0.544193 -1.78593 0
M  V30 1749 C 170.265 0.939301 -1.72254 0
M  V30 1750 O 169.39 1.7337 -1.29505 0
M  V30 1751 C 169.985 -0.98105 -3.24285 0
M  V30 1752 C 168.544 -0.698935 -3.69854 0
M  V30 1753 C 167.691 -1.168 -2.51502 0
M  V30 1754 H 170.642 -1.06278 -1.17859 0
M  V30 1755 H 170.663 -0.307009 -3.79259 0
M  V30 1756 H 170.175 -2.06079 -3.28866 0
M  V30 1757 H 168.276 0.369112 -3.70767 0
M  V30 1758 H 168.389 -1.28148 -4.61644 0
M  V30 1759 H 166.753 -0.587535 -2.47831 0
M  V30 1760 H 167.536 -2.25533 -2.58824 0
M  V30 1761 N 169.982 1.44106 -0.638065 0
M  V30 1762 C 171.222 2.03858 -0.148733 0
M  V30 1763 C 171.586 1.49153 1.20903 0
M  V30 1764 O 172.787 2.00452 1.79088 0
M  V30 1765 C 171.058 3.57117 -0.142314 0
M  V30 1766 S 172.617 4.37897 0.281385 0
M  V30 1767 H 169.435 0.708069 -0.0644912 0
M  V30 1768 H 172.037 1.7639 -0.843009 0
M  V30 1769 H 170.741 3.94436 -1.13349 0
M  V30 1770 H 170.272 3.89205 0.572988 0
M  V30 1771 H 172.287 4.72218 1.52395 0
M  V30 1772 N 171.46 0.379036 1.52974 0
M  V30 1773 C 172.706 -0.206727 2.01744 0
M  V30 1774 C 173.039 -1.47314 1.26539 0
M  V30 1775 O 172.314 -1.91084 0.362903 0
M  V30 1776 C 172.597 -0.485066 3.56818 0
M  V30 1777 C 172.45 0.795919 4.42702 0
M  V30 1778 C 173.769 -1.28003 4.21074 0
M  V30 1779 H 170.888 -0.0736607 0.73331 0
M  V30 1780 H 173.53 0.506581 1.83122 0
M  V30 1781 H 171.68 -1.09272 3.72816 0
M  V30 1782 H 173.352 1.43307 4.38476 0
M  V30 1783 H 171.595 1.41344 4.10127 0
M  V30 1784 H 172.266 0.555947 5.49193 0
M  V30 1785 H 174.742 -0.765867 4.08991 0
M  V30 1786 H 173.618 -1.44352 5.29579 0
M  V30 1787 H 173.879 -2.29236 3.78026 0
M  V30 1788 N 172.938 -1.57226 0.108567 0
M  V30 1789 C 174.215 -1.86333 -0.594939 0
M  V30 1790 C 174.595 -1.00788 -1.85486 0
M  V30 1791 O 173.943 -0.0839293 -2.28346 0
M  V30 1792 C 174.153 -3.37265 -0.897405 0
M  V30 1793 C 175.501 -4.05629 -1.25501 0
M  V30 1794 O 176.525 -3.42224 -0.987998 0
M  V30 1795 O 175.384 -5.17531 -1.75567 0
M  V30 1796 H 172.478 -0.771018 -0.2991 0
M  V30 1797 H 175.024 -1.69102 0.142283 0
M  V30 1798 H 173.796 -3.913 -0.00413806 0
M  V30 1799 H 173.419 -3.59889 -1.69014 0
M  V30 1800 N 174.416 0.165178 -1.56732 0
M  V30 1801 C 175.664 0.879068 -1.8198 0
M  V30 1802 C 175.985 1.82514 -0.686561 0
M  V30 1803 O 175.255 1.93694 0.293146 0
M  V30 1804 H 173.835 0.327608 -0.671329 0
M  V30 1805 H 176.497 0.163526 -1.94213 0
M  V30 1806 H 175.593 1.45228 -2.76252 0
M  V30 1807 N 175.894 1.51508 0.433938 0
M  V30 1808 C 177.14 1.65549 1.18173 0
M  V30 1809 C 177.495 0.368751 1.88833 0
M  V30 1810 O 176.788 -0.635616 1.8075 0
M  V30 1811 C 176.982 2.79928 2.22205 0
M  V30 1812 C 176.811 4.19601 1.61756 0
M  V30 1813 C 175.581 4.85489 1.40101 0
M  V30 1814 C 177.779 5.02574 1.09194 0
M  V30 1815 N 175.761 6.09266 0.752859 0
M  V30 1816 C 177.132 6.17381 0.569255 0
M  V30 1817 C 179.187 4.88079 0.984025 0
M  V30 1818 C 177.89 7.19282 -0.0507472 0
M  V30 1819 C 179.916 5.90191 0.377912 0
M  V30 1820 C 179.278 7.04272 -0.134216 0
M  V30 1821 H 175.377 0.659653 0.419979 0
M  V30 1822 H 177.961 1.88746 0.477818 0
M  V30 1823 H 176.132 2.5839 2.89982 0
M  V30 1824 H 177.864 2.83132 2.89168 0
M  V30 1825 H 174.619 4.43417 1.66369 0
M  V30 1826 H 175.043 6.75528 0.446123 0
M  V30 1827 H 179.685 4.00131 1.36583 0
M  V30 1828 H 177.403 8.06876 -0.444676 0
M  V30 1829 H 180.989 5.81045 0.296269 0
M  V30 1830 H 179.869 7.81933 -0.59585 0
M  V30 1831 N 177.372 -0.689602 1.41712 0
M  V30 1832 C 178.618 -1.45181 1.41599 0
M  V30 1833 C 178.951 -1.94181 0.0270081 0
M  V30 1834 O 178.226 -1.6993 -0.946265 0
M  V30 1835 C 178.509 -2.65945 2.42787 0
M  V30 1836 C 178.362 -2.22672 3.90816 0
M  V30 1837 C 179.681 -3.68149 2.41151 0
M  V30 1838 H 176.8 -0.526576 0.515642 0
M  V30 1839 H 179.442 -0.784947 1.73028 0
M  V30 1840 H 177.592 -3.2284 2.16116 0
M  V30 1841 H 179.264 -1.71058 4.28412 0
M  V30 1842 H 177.507 -1.54394 4.05395 0
M  V30 1843 H 178.178 -3.0935 4.57172 0
M  V30 1844 H 180.654 -3.2094 2.64834 0
M  V30 1845 H 179.53 -4.50248 3.13955 0
M  V30 1846 H 179.791 -4.18259 1.43221 0
M  V30 1847 N 178.85 -1.27639 -0.924453 0
M  V30 1848 C 180.08 -1.16819 -1.70402 0
M  V30 1849 C 180.488 0.277191 -1.87158 0
M  V30 1850 O 179.831 1.20025 -1.39067 0
M  V30 1851 C 179.893 -1.78305 -3.12166 0
M  V30 1852 C 179.557 -3.27502 -3.18734 0
M  V30 1853 C 180.554 -4.2409 -3.00738 0
M  V30 1854 C 178.239 -3.68269 -3.4159 0
M  V30 1855 C 180.233 -5.59422 -3.05492 0
M  V30 1856 C 177.92 -5.0373 -3.45977 0
M  V30 1857 C 178.918 -5.99116 -3.27946 0
M  V30 1858 O 178.606 -7.32108 -3.32074 0
M  V30 1859 H 178.338 -0.406931 -0.539799 0
M  V30 1860 H 180.892 -1.69078 -1.16626 0
M  V30 1861 H 179.122 -1.20528 -3.67437 0
M  V30 1862 H 180.811 -1.62154 -3.72103 0
M  V30 1863 H 181.577 -3.93931 -2.82919 0
M  V30 1864 H 177.456 -2.94496 -3.54673 0
M  V30 1865 H 181 -6.33852 -2.91337 0
M  V30 1866 H 176.897 -5.33543 -3.63321 0
M  V30 1867 H 177.665 -7.40598 -3.48507 0
M  V30 1868 N 180.328 1.1314 -1.09713 0
M  V30 1869 C 181.605 1.80762 -0.747302 0
M  V30 1870 C 181.985 1.96663 0.767265 0
M  V30 1871 O 181.333 1.53706 1.69076 0
M  V30 1872 C 181.543 3.15606 -1.48975 0
M  V30 1873 C 182.891 3.90914 -1.65746 0
M  V30 1874 O 183.915 3.25239 -1.45251 0
M  V30 1875 O 182.774 5.08718 -1.9967 0
M  V30 1876 H 179.868 0.782103 -0.268782 0
M  V30 1877 H 182.414 1.20041 -1.19951 0
M  V30 1878 H 181.186 2.99278 -2.52088 0
M  V30 1879 H 180.809 3.84029 -1.02991 0
M  V30 1880 N 181.806 0.884767 1.30421 0
M  V30 1881 C 183.222 0.57874 1.48737 0
M  V30 1882 C 183.422 -0.883567 1.81095 0
M  V30 1883 O 182.478 -1.6648 1.89844 0
M  V30 1884 C 183.791 1.49171 2.61091 0
M  V30 1885 C 185.339 1.49532 2.74971 0
M  V30 1886 C 185.814 2.39421 3.90438 0
M  V30 1887 N 187.305 2.37383 3.97748 0
M  V30 1888 C 188.04 3.03647 4.86401 0
M  V30 1889 N 187.536 3.79136 5.79852 0
M  V30 1890 N 189.329 2.9288 4.79768 0
M  V30 1891 H 181.48 1.83075 1.0769 0
M  V30 1892 H 183.743 0.783637 0.533495 0
M  V30 1893 H 183.449 2.53291 2.44001 0
M  V30 1894 H 183.323 1.20113 3.57565 0
M  V30 1895 H 185.71 0.46163 2.91467 0
M  V30 1896 H 185.791 1.8262 1.79119 0
M  V30 1897 H 185.435 3.42874 3.74699 0
M  V30 1898 H 185.365 2.03649 4.85628 0
M  V30 1899 H 187.856 1.82525 3.30897 0
M  V30 1900 H 188.169 4.26789 6.4426 0
M  V30 1901 H 186.514 3.83243 5.79784 0
M  V30 1902 H 189.705 2.33433 4.05742 0
M  V30 1903 H 189.878 3.448 5.4865 0
M  V30 1904 N 183.284 -1.43765 0.645699 0
M  V30 1905 C 184.509 -2.06767 0.161883 0
M  V30 1906 C 184.934 -1.48034 -1.16049 0
M  V30 1907 O 184.292 -0.587369 -1.71522 0
M  V30 1908 C 184.34 -3.60519 0.0762003 0
M  V30 1909 O 183.444 -4.00982 -0.963721 0
M  V30 1910 H 182.785 -0.657675 0.091429 0
M  V30 1911 H 185.315 -1.84397 0.886499 0
M  V30 1912 H 185.325 -4.07853 -0.109604 0
M  V30 1913 H 184 -4.02646 1.04157 0
M  V30 1914 H 182.577 -3.65253 -0.751312 0
M  V30 1915 N 184.763 -0.387143 -1.52771 0
M  V30 1916 C 186.012 0.19697 -2.00736 0
M  V30 1917 C 186.325 1.48082 -1.27793 0
M  V30 1918 O 187.531 2.14485 -1.66458 0
M  V30 1919 C 185.987 0.401568 -3.57653 0
M  V30 1920 C 185.595 -0.868907 -4.39493 0
M  V30 1921 C 187.339 0.942164 -4.13912 0
M  V30 1922 C 185.246 -0.632705 -5.88006 0
M  V30 1923 H 184.176 0.0773827 -0.750019 0
M  V30 1924 H 186.827 -0.50921 -1.76293 0
M  V30 1925 H 185.209 1.16954 -3.78335 0
M  V30 1926 H 186.383 -1.64133 -4.30577 0
M  V30 1927 H 184.698 -1.33429 -3.94443 0
M  V30 1928 H 187.295 1.13455 -5.22525 0
M  V30 1929 H 187.638 1.9106 -3.69867 0
M  V30 1930 H 188.171 0.233814 -3.97112 0
M  V30 1931 H 184.91 -1.57208 -6.36369 0
M  V30 1932 H 184.43 0.100825 -5.99715 0
M  V30 1933 H 186.109 -0.26642 -6.46451 0
M  V30 1934 N 186.241 1.57166 -0.116904 0
M  V30 1935 C 187.488 1.95123 0.541603 0
M  V30 1936 C 187.816 1.00006 1.6682 0
M  V30 1937 O 187.071 0.0235658 1.95686 0
M  V30 1938 C 187.37 3.39508 1.11664 0
M  V30 1939 C 187.036 4.50762 0.111606 0
M  V30 1940 C 185.698 4.80918 -0.164758 0
M  V30 1941 C 188.05 5.18036 -0.573438 0
M  V30 1942 C 185.378 5.75666 -1.13249 0
M  V30 1943 C 187.73 6.13824 -1.52978 0
M  V30 1944 C 186.394 6.42374 -1.81415 0
M  V30 1945 H 185.664 0.714005 0.198187 0
M  V30 1946 H 188.311 1.9048 -0.197365 0
M  V30 1947 H 186.616 3.40835 1.93232 0
M  V30 1948 H 188.313 3.66189 1.63422 0
M  V30 1949 H 184.903 4.27272 0.337192 0
M  V30 1950 H 189.087 4.94896 -0.373092 0
M  V30 1951 H 184.343 5.96092 -1.35958 0
M  V30 1952 H 188.517 6.65039 -2.06629 0
M  V30 1953 H 186.144 7.15599 -2.56557 0
M  V30 1954 N 187.719 -0.156864 1.56817 0
M  V30 1955 C 188.947 -0.886316 1.86955 0
M  V30 1956 C 189.362 -1.75185 0.703975 0
M  V30 1957 O 188.719 -1.79555 -0.326552 0
M  V30 1958 C 188.77 -1.75117 3.16253 0
M  V30 1959 O 188.491 -0.920537 4.2832 0
M  V30 1960 C 189.992 -2.58905 3.59837 0
M  V30 1961 H 187.212 -0.25678 0.619923 0
M  V30 1962 H 189.756 -0.152615 2.0393 0
M  V30 1963 H 187.911 -2.43805 3.01062 0
M  V30 1964 H 188.325 -1.51337 5.02192 0
M  V30 1965 H 189.799 -3.1518 4.53172 0
M  V30 1966 H 190.276 -3.34472 2.84649 0
M  V30 1967 H 190.882 -1.95526 3.7769 0
M  V30 1968 N 189.197 -1.51736 -0.425897 0
M  V30 1969 C 190.422 -1.69082 -1.20108 0
M  V30 1970 C 190.847 -0.392398 -1.83962 0
M  V30 1971 O 190.205 0.64858 -1.69302 0
M  V30 1972 C 190.253 -2.81604 -2.25237 0
M  V30 1973 O 189.357 -2.46004 -3.30992 0
M  V30 1974 H 188.698 -0.563408 -0.35138 0
M  V30 1975 H 191.228 -1.98358 -0.501512 0
M  V30 1976 H 191.238 -3.06025 -2.69838 0
M  V30 1977 H 189.913 -3.75817 -1.78142 0
M  V30 1978 H 188.49 -2.32195 -2.91787 0
M  V30 1979 N 190.675 0.682077 -1.42076 0
M  V30 1980 C 191.903 1.47057 -1.4554 0
M  V30 1981 C 192.318 1.8869 -0.0645779 0
M  V30 1982 O 191.675 1.57666 0.919115 0
M  V30 1983 C 191.726 2.72442 -2.37609 0
M  V30 1984 O 191.447 2.32559 -3.71279 0
M  V30 1985 C 192.948 3.66069 -2.50017 0
M  V30 1986 H 190.168 0.452737 -0.495248 0
M  V30 1987 H 192.712 0.838695 -1.8651 0
M  V30 1988 H 190.867 3.31835 -1.9991 0
M  V30 1989 H 191.281 3.13475 -4.20516 0
M  V30 1990 H 192.755 4.50792 -3.18576 0
M  V30 1991 H 193.232 4.11476 -1.53572 0
M  V30 1992 H 193.838 3.12572 -2.88407 0
M  V30 1993 N 192.153 1.28127 0.917671 0
M  V30 1994 C 193.402 1.14432 1.66097 0
M  V30 1995 C 193.715 -0.307247 1.93172 0
M  V30 1996 O 194.921 -0.565259 2.65551 0
M  V30 1997 C 193.377 2.00015 2.99202 0
M  V30 1998 C 192.985 3.49889 2.79789 0
M  V30 1999 C 194.729 1.94996 3.77064 0
M  V30 2000 C 192.636 4.27636 4.08511 0
M  V30 2001 H 191.566 0.424662 0.62304 0
M  V30 2002 H 194.217 1.52628 1.01868 0
M  V30 2003 H 192.599 1.54672 3.64544 0
M  V30 2004 H 193.773 4.03162 2.23152 0
M  V30 2005 H 192.088 3.56392 2.15345 0
M  V30 2006 H 194.685 2.50354 4.72469 0
M  V30 2007 H 195.028 0.925819 4.05875 0
M  V30 2008 H 195.561 2.38287 3.18534 0
M  V30 2009 H 192.3 5.30615 3.84874 0
M  V30 2010 H 191.82 3.79137 4.64774 0
M  V30 2011 H 193.499 4.37346 4.76799 0
M  V30 2012 N 193.631 -1.12557 1.10312 0
M  V30 2013 C 194.877 -1.84311 0.846011 0
M  V30 2014 C 195.21 -1.83805 -0.626859 0
M  V30 2015 O 194.485 -1.28268 -1.46211 0
M  V30 2016 C 194.768 -3.32048 1.39341 0
M  V30 2017 C 194.621 -3.41016 2.93305 0
M  V30 2018 C 195.94 -4.27764 1.03468 0
M  V30 2019 H 193.059 -0.669192 0.30879 0
M  V30 2020 H 195.701 -1.32057 1.36605 0
M  V30 2021 H 193.851 -3.76678 0.951087 0
M  V30 2022 H 195.523 -3.05031 3.46055 0
M  V30 2023 H 193.766 -2.81603 3.29973 0
M  V30 2024 H 194.437 -4.44948 3.26689 0
M  V30 2025 H 196.913 -3.91253 1.41633 0
M  V30 2026 H 195.789 -5.29549 1.44463 0
M  V30 2027 H 196.05 -4.42064 -0.0560404 0
M  V30 2028 N 195.109 -0.891671 -1.2995 0
M  V30 2029 C 196.072 -0.36828 -2.26222 0
M  V30 2030 C 197.072 0.493014 -1.53056 0
M  V30 2031 O 198.262 0.299213 -1.71611 0
M  V30 2032 C 195.394 0.47442 -3.37583 0
M  V30 2033 H 196.587 -1.21844 -2.74033 0
M  V30 2034 H 194.14 -0.669107 -1.41254 0
M  V30 2035 H 194.875 1.34489 -2.95099 0
M  V30 2036 H 194.66 -0.142615 -3.91841 0
M  V30 2037 H 196.15 0.83218 -4.09224 0
M  V30 2038 N 196.587 1.43421 -0.653314 0
M  V30 2039 C 197.534 2.30768 0.0382271 0
M  V30 2040 C 198.504 1.44755 0.814576 0
M  V30 2041 O 199.689 1.73624 0.791162 0
M  V30 2042 C 196.829 3.30336 0.998599 0
M  V30 2043 C 195.942 4.31448 0.218342 0
M  V30 2044 C 195.077 5.18098 1.17252 0
M  V30 2045 C 194.116 6.10902 0.382702 0
M  V30 2046 N 193.253 6.90176 1.28848 0
M  V30 2047 H 198.093 2.89357 -0.712511 0
M  V30 2048 H 195.63 1.42548 -0.363128 0
M  V30 2049 H 197.588 3.86572 1.56901 0
M  V30 2050 H 196.218 2.73397 1.71621 0
M  V30 2051 H 195.27 3.77506 -0.46836 0
M  V30 2052 H 196.582 4.97227 -0.395812 0
M  V30 2053 H 195.736 5.7896 1.81356 0
M  V30 2054 H 194.475 4.52444 1.82058 0
M  V30 2055 H 193.48 5.49128 -0.27169 0
M  V30 2056 H 194.705 6.78598 -0.260957 0
M  V30 2057 H 192.651 6.27171 1.92334 0
M  V30 2058 H 192.568 7.52478 0.728887 0
M  V30 2059 H 193.836 7.55543 1.91766 0
M  V30 2060 N 198.065 0.39524 1.52563 0
M  V30 2061 C 199.311 -0.177763 2.02622 0
M  V30 2062 C 199.666 -1.43974 1.27629 0
M  V30 2063 O 198.959 -1.87995 0.36992 0
M  V30 2064 C 199.153 -0.493444 3.53977 0
M  V30 2065 C 198.982 0.736392 4.4363 0
M  V30 2066 C 197.752 1.25744 4.89404 0
M  V30 2067 C 199.95 1.61046 4.88435 0
M  V30 2068 N 197.932 2.44421 5.63145 0
M  V30 2069 C 199.303 2.64359 5.60816 0
M  V30 2070 C 201.358 1.62985 4.70468 0
M  V30 2071 C 200.061 3.69505 6.17137 0
M  V30 2072 C 202.087 2.67042 5.27677 0
M  V30 2073 C 201.449 3.69077 5.99968 0
M  V30 2074 H 197.548 -0.0269794 0.781534 0
M  V30 2075 H 200.132 0.546466 1.86874 0
M  V30 2076 H 198.303 -1.18672 3.69826 0
M  V30 2077 H 200.035 -1.05412 3.90731 0
M  V30 2078 H 196.79 0.817546 4.6649 0
M  V30 2079 H 197.214 3.04485 6.04663 0
M  V30 2080 H 201.856 0.854442 4.14076 0
M  V30 2081 H 199.574 4.4791 6.72608 0
M  V30 2082 H 203.16 2.69433 5.15652 0
M  V30 2083 H 202.04 4.48273 6.43444 0
M  V30 2084 N 199.544 -1.57102 0.125237 0
M  V30 2085 C 200.492 -2.16905 -0.839927 0
M  V30 2086 C 201.486 -1.11998 -1.27094 0
M  V30 2087 O 202.692 -1.3029 -1.24195 0
M  V30 2088 H 199.067 -0.694252 -0.288995 0
M  V30 2089 H 201.038 -2.96774 -0.311115 0
M  V30 2090 C 199.787 -2.78795 -2.07771 0
M  V30 2091 H 199.11 -3.59221 -1.755 0
M  V30 2092 H 200.55 -3.2417 -2.73295 0
M  V30 2093 C 199.009 -1.76193 -2.87155 0
M  V30 2094 O 199.539 -1.21909 -3.82755 0
M  V30 2095 N 197.745 -1.45991 -2.51267 0
M  V30 2096 H 197.292 -1.90325 -1.73592 0
M  V30 2097 H 197.25 -0.775844 -3.04677 0
M  V30 2098 N 201.022 0.148545 -1.56898 0
M  V30 2099 C 201.952 1.18524 -2.01182 0
M  V30 2100 C 202.933 1.4489 -0.891123 0
M  V30 2101 O 204.118 1.55836 -1.15882 0
M  V30 2102 C 201.248 2.51879 -2.39112 0
M  V30 2103 C 200.202 2.40038 -3.54353 0
M  V30 2104 C 199.528 3.78089 -3.78091 0
M  V30 2105 C 200.828 1.88577 -4.87069 0
M  V30 2106 H 202.522 0.817029 -2.88036 0
M  V30 2107 H 200.068 0.391575 -1.38574 0
M  V30 2108 H 202.021 3.24627 -2.68692 0
M  V30 2109 H 200.745 2.90532 -1.49193 0
M  V30 2110 H 199.404 1.69742 -3.24936 0
M  V30 2111 H 199.052 4.14175 -2.85426 0
M  V30 2112 H 198.752 3.71028 -4.55645 0
M  V30 2113 H 200.276 4.52387 -4.10095 0
M  V30 2114 H 201.69 2.51117 -5.15377 0
M  V30 2115 H 200.087 1.9241 -5.68417 0
M  V30 2116 H 201.157 0.84136 -4.77545 0
M  V30 2117 N 202.5 1.5196 0.417844 0
M  V30 2118 C 203.746 1.65836 1.16732 0
M  V30 2119 C 204.079 0.382881 1.90388 0
M  V30 2120 O 203.354 -0.618368 1.84408 0
M  V30 2121 C 203.637 2.87466 2.16876 0
M  V30 2122 C 203.49 4.25041 1.47174 0
M  V30 2123 C 204.809 3.04613 3.17646 0
M  V30 2124 H 201.928 0.603515 0.423011 0
M  V30 2125 H 204.57 1.84494 0.454105 0
M  V30 2126 H 202.72 2.71689 2.777 0
M  V30 2127 H 204.392 4.52527 0.895376 0
M  V30 2128 H 202.635 4.26843 0.773806 0
M  V30 2129 H 203.306 5.06176 2.20204 0
M  V30 2130 H 205.782 3.1923 2.66892 0
M  V30 2131 H 204.658 3.91247 3.8499 0
M  V30 2132 H 204.919 2.17541 3.84874 0
M  V30 2133 N 203.978 -0.674533 1.42435 0
M  V30 2134 C 205.218 -1.4466 1.44405 0
M  V30 2135 C 205.582 -1.91911 0.0585784 0
M  V30 2136 O 206.783 -2.68759 -0.0469991 0
M  V30 2137 C 205.054 -2.61136 2.44013 0
M  V30 2138 S 206.613 -3.49981 2.64687 0
M  V30 2139 H 203.431 -0.494074 0.511284 0
M  V30 2140 H 206.033 -0.785162 1.7904 0
M  V30 2141 H 204.737 -2.24662 3.43446 0
M  V30 2142 H 204.268 -3.32153 2.10803 0
M  V30 2143 H 206.283 -4.57124 1.93007 0
M  V30 2144 N 205.456 -1.28612 -0.910864 0
M  V30 2145 C 206.733 -1.06632 -1.63979 0
M  V30 2146 C 207.113 0.393351 -2.07403 0
M  V30 2147 O 206.461 1.37999 -1.82122 0
M  V30 2148 C 206.671 -2.0436 -2.8291 0
M  V30 2149 C 208.019 -2.34666 -3.5386 0
M  V30 2150 O 209.043 -2.02467 -2.93062 0
M  V30 2151 O 207.902 -2.89631 -4.63439 0
M  V30 2152 H 204.996 -0.407737 -0.7195 0
M  V30 2153 H 207.542 -1.39942 -0.959914 0
M  V30 2154 H 206.314 -3.02727 -2.47936 0
M  V30 2155 H 205.937 -1.71714 -3.58609 0
M  V30 2156 N 206.934 1.1197 -1.10907 0
M  V30 2157 C 208.159 1.87942 -0.877064 0
M  V30 2158 C 208.584 1.79341 0.567314 0
M  V30 2159 O 207.942 1.15184 1.40009 0
M  V30 2160 C 207.99 3.34926 -1.33629 0
M  V30 2161 O 207.094 4.09303 -0.504447 0
M  V30 2162 H 206.435 0.583785 -0.316371 0
M  V30 2163 H 208.965 1.4157 -1.47712 0
M  V30 2164 H 208.975 3.8577 -1.32837 0
M  V30 2165 H 207.65 3.40504 -2.3881 0
M  V30 2166 H 206.227 3.68393 -0.577993 0
M  V30 2167 N 208.412 0.89855 1.29475 0
M  V30 2168 C 209.362 0.346767 2.25348 0
M  V30 2169 C 210.346 -0.532509 1.51833 0
M  V30 2170 O 211.538 -0.374714 1.72988 0
M  V30 2171 C 208.667 -0.425681 3.40651 0
M  V30 2172 C 207.753 0.46845 4.21505 0
M  V30 2173 N 208.144 1.57514 4.80648 0
M  V30 2174 C 206.442 0.26603 4.45206 0
M  V30 2175 C 207.143 2.12889 5.41344 0
M  V30 2176 N 206.119 1.42208 5.24669 0
M  V30 2177 H 209.921 1.19219 2.68634 0
M  V30 2178 H 207.435 0.749473 1.44072 0
M  V30 2179 H 209.432 -0.837716 4.08397 0
M  V30 2180 H 208.092 -1.26838 2.98902 0
M  V30 2181 H 209.103 1.95789 4.79465 0
M  V30 2182 H 205.78 -0.538394 4.14014 0
M  V30 2183 H 207.17 3.05901 5.98226 0
M  V30 2184 N 209.89 -1.43072 0.660911 0
M  V30 2185 C 210.853 -2.29194 -0.0166406 0
M  V30 2186 C 211.853 -1.42609 -0.742912 0
M  V30 2187 O 213.043 -1.64155 -0.583004 0
M  V30 2188 C 210.175 -3.24831 -1.0343 0
M  V30 2189 H 211.368 -2.90596 0.741208 0
M  V30 2190 H 208.921 -1.5048 0.422532 0
M  V30 2191 H 209.656 -2.68339 -1.82111 0
M  V30 2192 H 209.441 -3.88676 -0.517082 0
M  V30 2193 H 210.931 -3.89451 -1.50723 0
M  V30 2194 N 211.368 -0.403325 -1.52352 0
M  V30 2195 C 212.298 0.416205 -2.29761 0
M  V30 2196 C 213.279 1.05123 -1.33728 0
M  V30 2197 O 214.464 1.06134 -1.62632 0
M  V30 2198 C 211.594 1.53624 -3.11475 0
M  V30 2199 C 210.548 1.02653 -4.15507 0
M  V30 2200 C 209.874 2.23971 -4.85532 0
M  V30 2201 C 211.174 0.08463 -5.22231 0
M  V30 2202 H 212.868 -0.229701 -2.98518 0
M  V30 2203 H 210.414 -0.111913 -1.43564 0
M  V30 2204 H 212.367 2.1165 -3.64393 0
M  V30 2205 H 211.091 2.20994 -2.40477 0
M  V30 2206 H 209.75 0.46871 -3.63591 0
M  V30 2207 H 209.398 2.89883 -4.11068 0
M  V30 2208 H 209.098 1.90521 -5.55856 0
M  V30 2209 H 210.622 2.82614 -5.41259 0
M  V30 2210 H 212.036 0.573509 -5.70424 0
M  V30 2211 H 210.433 -0.160783 -5.99885 0
M  V30 2212 H 211.503 -0.86237 -4.7717 0
M  V30 2213 N 212.846 1.57033 -0.133567 0
M  V30 2214 C 213.793 2.16074 0.811208 0
M  V30 2215 C 214.763 1.08979 1.2535 0
M  V30 2216 O 215.948 1.36958 1.32843 0
M  V30 2217 C 213.088 2.77595 2.05024 0
M  V30 2218 C 212.201 3.99042 1.65498 0
M  V30 2219 C 211.336 4.48603 2.84479 0
M  V30 2220 C 210.375 5.62547 2.41262 0
M  V30 2221 N 209.512 6.06787 3.53206 0
M  V30 2222 H 214.352 2.96477 0.300906 0
M  V30 2223 H 211.889 1.46462 0.136822 0
M  V30 2224 H 213.847 3.11402 2.77642 0
M  V30 2225 H 212.477 1.99859 2.53488 0
M  V30 2226 H 211.529 3.71302 0.826981 0
M  V30 2227 H 212.841 4.81629 1.29748 0
M  V30 2228 H 211.995 4.84395 3.65303 0
M  V30 2229 H 210.734 3.64995 3.23465 0
M  V30 2230 H 209.739 5.26345 1.58874 0
M  V30 2231 H 210.964 6.47931 2.03377 0
M  V30 2232 H 208.91 5.26117 3.91838 0
M  V30 2233 H 208.827 6.84266 3.21427 0
M  V30 2234 H 210.095 6.4722 4.34427 0
M  V30 2235 N 214.325 -0.140222 1.56975 0
M  V30 2236 C 215.736 -0.699596 1.73097 0
M  V30 2237 C 216.087 -1.8134 0.749022 0
M  V30 2238 O 215.212 -2.16241 -0.0828503 0
M  V30 2239 C 215.807 -1.27582 3.1386 0
M  V30 2240 C 214.366 -1.78169 3.31561 0
M  V30 2241 C 213.513 -0.672855 2.69013 0
M  V30 2242 H 216.464 0.0855115 1.58469 0
M  V30 2243 H 216.485 -2.14561 3.14235 0
M  V30 2244 H 215.997 -0.464955 3.85305 0
M  V30 2245 H 214.098 -2.61801 2.65124 0
M  V30 2246 H 214.211 -1.90574 4.39566 0
M  V30 2247 H 212.575 -1.10118 2.29665 0
M  V30 2248 H 213.358 0.126679 3.43066 0
M  V30 2249 N 215.803 -1.52179 -0.40978 0
M  V30 2250 C 216.736 -1.70196 -1.52015 0
M  V30 2251 C 217.714 -0.549542 -1.53032 0
M  V30 2252 O 218.898 -0.776815 -1.71749 0
M  V30 2253 C 216.025 -1.74069 -2.90547 0
M  V30 2254 C 215.071 -2.95601 -3.07445 0
M  V30 2255 S 215.904 -4.55956 -2.80827 0
M  V30 2256 C 217.06 -4.62614 -4.21591 0
M  V30 2257 H 217.293 -2.64109 -1.36504 0
M  V30 2258 H 214.826 -1.4221 -0.601312 0
M  V30 2259 H 216.784 -1.76985 -3.70387 0
M  V30 2260 H 215.445 -0.812835 -3.034 0
M  V30 2261 H 214.638 -2.94791 -4.08796 0
M  V30 2262 H 214.24 -2.90569 -2.35469 0
M  V30 2263 H 216.532 -4.39951 -5.15218 0
M  V30 2264 H 217.475 -5.64548 -4.27424 0
M  V30 2265 H 217.883 -3.91654 -4.06531 0
M  V30 2266 N 217.281 0.66697 -1.42791 0
M  V30 2267 C 218.244 1.76211 -1.46568 0
M  V30 2268 C 219.244 1.56896 -0.352196 0
M  V30 2269 O 220.434 1.63044 -0.613364 0
M  V30 2270 C 217.566 3.14935 -1.30494 0
M  V30 2271 H 218.759 1.74247 -2.44086 0
M  V30 2272 H 216.312 0.877342 -1.29354 0
M  V30 2273 H 217.047 3.2252 -0.339301 0
M  V30 2274 H 216.832 3.30359 -2.11199 0
M  V30 2275 H 218.322 3.94821 -1.36038 0
M  V30 2276 N 218.759 1.29093 0.90403 0
M  V30 2277 C 219.691 1.09658 2.01266 0
M  V30 2278 C 220.704 0.0453729 1.62737 0
M  V30 2279 O 221.893 0.289446 1.76138 0
M  V30 2280 C 218.993 0.646278 3.32681 0
M  V30 2281 C 218.166 1.77505 3.99763 0
M  V30 2282 C 217.225 1.31649 5.09465 0
M  V30 2283 O 216.251 2.02045 5.32134 0
M  V30 2284 N 217.453 0.184997 5.80205 0
M  V30 2285 H 220.218 2.05135 2.18494 0
M  V30 2286 H 217.779 1.20975 1.07594 0
M  V30 2287 H 219.771 0.322906 4.0341 0
M  V30 2288 H 218.341 -0.215916 3.11853 0
M  V30 2289 H 217.561 2.26752 3.22455 0
M  V30 2290 H 218.849 2.53198 4.41325 0
M  V30 2291 H 218.247 -0.402021 5.6427 0
M  V30 2292 H 216.804 -0.0790358 6.51752 0
M  V30 2293 N 220.237 -1.11381 1.11499 0
M  V30 2294 C 221.462 -1.87475 0.887019 0
M  V30 2295 C 221.887 -1.79639 -0.557796 0
M  V30 2296 O 221.245 -1.15924 -1.39396 0
M  V30 2297 C 221.293 -3.34213 1.35403 0
M  V30 2298 O 220.397 -4.0903 0.526146 0
M  V30 2299 H 219.738 -0.582099 0.319463 0
M  V30 2300 H 222.268 -1.40785 1.48461 0
M  V30 2301 H 222.278 -3.8506 1.34881 0
M  V30 2302 H 220.953 -3.39232 2.40612 0
M  V30 2303 H 219.53 -3.68082 0.597522 0
M  V30 2304 N 221.715 -0.905404 -1.28997 0
M  V30 2305 C 222.964 -0.530191 -1.94607 0
M  V30 2306 C 223.277 0.929185 -1.72121 0
M  V30 2307 O 224.483 1.41218 -2.31883 0
M  V30 2308 C 222.939 -0.897333 -3.48534 0
M  V30 2309 C 222.547 -2.37587 -3.79811 0
M  V30 2310 C 224.291 -0.592304 -4.20347 0
M  V30 2311 C 222.198 -2.68357 -5.27009 0
M  V30 2312 H 221.128 -0.194558 -0.728466 0
M  V30 2313 H 223.779 -1.10318 -1.46636 0
M  V30 2314 H 222.161 -0.253214 -3.9519 0
M  V30 2315 H 223.335 -3.06602 -3.43994 0
M  V30 2316 H 221.65 -2.6505 -3.2115 0
M  V30 2317 H 224.247 -0.798975 -5.28697 0
M  V30 2318 H 224.59 0.469474 -4.13644 0
M  V30 2319 H 225.123 -1.19452 -3.79442 0
M  V30 2320 H 221.862 -3.73355 -5.38782 0
M  V30 2321 H 221.382 -2.03971 -5.64053 0
M  V30 2322 H 223.061 -2.54922 -5.94663 0
M  V30 2323 N 223.193 1.4272 -0.668489 0
M  V30 2324 C 224.423 2.05668 -0.196063 0
M  V30 2325 C 224.831 1.5028 1.14946 0
M  V30 2326 O 224.174 0.6348 1.72383 0
M  V30 2327 C 224.236 3.59469 -0.0468879 0
M  V30 2328 C 223.9 4.37518 -1.32012 0
M  V30 2329 C 224.897 4.68584 -2.25222 0
M  V30 2330 C 222.582 4.77266 -1.56596 0
M  V30 2331 C 224.576 5.38326 -3.41297 0
M  V30 2332 C 222.263 5.4675 -2.72962 0
M  V30 2333 C 223.261 5.77204 -3.65137 0
M  V30 2334 O 222.949 6.45264 -4.79468 0
M  V30 2335 H 222.681 0.669382 -0.0943599 0
M  V30 2336 H 225.235 1.83954 -0.913788 0
M  V30 2337 H 223.465 3.79817 0.726357 0
M  V30 2338 H 225.154 4.04071 0.384852 0
M  V30 2339 H 225.92 4.38382 -2.07477 0
M  V30 2340 H 221.799 4.52959 -0.857249 0
M  V30 2341 H 225.343 5.62014 -4.13263 0
M  V30 2342 H 221.24 5.76369 -2.90635 0
M  V30 2343 H 222.008 6.63753 -4.78931 0
M  V30 2344 N 224.671 0.411399 1.52136 0
M  V30 2345 C 225.601 -0.404015 2.29978 0
M  V30 2346 C 226.582 -1.04412 1.34284 0
M  V30 2347 O 227.767 -1.0527 1.63192 0
M  V30 2348 C 224.897 -1.5197 3.12286 0
M  V30 2349 C 223.851 -1.00448 4.16046 0
M  V30 2350 C 223.177 -2.21393 4.86712 0
M  V30 2351 C 224.477 -0.0569336 5.22269 0
M  V30 2352 H 226.171 0.245529 2.98392 0
M  V30 2353 H 223.717 0.119525 1.43503 0
M  V30 2354 H 225.67 -2.09715 3.6551 0
M  V30 2355 H 224.394 -2.19716 2.41646 0
M  V30 2356 H 223.053 -0.449421 3.63835 0
M  V30 2357 H 222.701 -2.87699 4.12599 0
M  V30 2358 H 222.401 -1.87571 5.56858 0
M  V30 2359 H 223.925 -2.7974 5.4275 0
M  V30 2360 H 225.339 -0.54325 5.7072 0
M  V30 2361 H 223.736 0.192594 5.99791 0
M  V30 2362 H 224.806 0.887663 4.76706 0
M  V30 2363 N 226.149 -1.5696 0.141893 0
M  V30 2364 C 227.112 -2.15316 -0.785587 0
M  V30 2365 C 228.112 -1.09366 -1.1788 0
M  V30 2366 O 229.302 -1.35031 -1.10056 0
M  V30 2367 C 226.434 -2.71211 -2.06537 0
M  V30 2368 H 227.627 -2.98608 -0.278041 0
M  V30 2369 H 225.18 -1.5593 -0.107519 0
M  V30 2370 H 225.915 -1.91571 -2.6167 0
M  V30 2371 H 225.7 -3.4872 -1.79268 0
M  V30 2372 H 227.19 -3.16189 -2.72789 0
M  V30 2373 N 227.627 0.131896 -1.57047 0
M  V30 2374 C 228.875 0.840269 -1.83804 0
M  V30 2375 C 229.196 1.81017 -0.72512 0
M  V30 2376 O 228.466 1.94272 0.251995 0
M  V30 2377 H 227.046 0.313294 -0.678127 0
M  V30 2378 H 229.708 0.122294 -1.94516 0
M  V30 2379 H 228.804 1.39335 -2.79271 0
M  V30 2380 N 229.106 1.52395 0.401703 0
M  V30 2381 C 230.355 1.66044 1.14509 0
M  V30 2382 C 230.668 0.400216 1.91462 0
M  V30 2383 O 231.874 0.416632 2.68284 0
M  V30 2384 C 230.33 2.93388 2.0845 0
M  V30 2385 C 229.938 4.26545 1.36978 0
M  V30 2386 C 231.682 3.16402 2.83001 0
M  V30 2387 C 229.589 5.45007 2.29611 0
M  V30 2388 H 228.519 0.618562 0.431158 0
M  V30 2389 H 231.17 1.78886 0.40892 0
M  V30 2390 H 229.552 2.74263 2.8565 0
M  V30 2391 H 230.726 4.56179 0.650916 0
M  V30 2392 H 229.041 4.09692 0.74438 0
M  V30 2393 H 231.638 4.02085 3.52465 0
M  V30 2394 H 231.981 2.30943 3.46368 0
M  V30 2395 H 232.514 3.36034 2.12898 0
M  V30 2396 H 229.253 6.32835 1.70879 0
M  V30 2397 H 228.773 5.19702 2.9945 0
M  V30 2398 H 230.452 5.7838 2.89974 0
M  V30 2399 N 230.584 -0.659388 1.43143 0
M  V30 2400 C 231.514 -1.78422 1.50625 0
M  V30 2401 C 232.495 -1.66216 0.361443 0
M  V30 2402 O 233.68 -1.85404 0.577834 0
M  V30 2403 C 230.81 -3.16815 1.42287 0
M  V30 2404 C 229.764 -3.43777 2.54954 0
M  V30 2405 C 229.09 -4.81905 2.31671 0
M  V30 2406 C 230.39 -3.39134 3.97222 0
M  V30 2407 H 232.084 -1.72417 2.44771 0
M  V30 2408 H 229.63 -0.828084 1.17808 0
M  V30 2409 H 231.583 -3.95253 1.46127 0
M  V30 2410 H 230.307 -3.23534 0.446435 0
M  V30 2411 H 228.966 -2.67707 2.50457 0
M  V30 2412 H 228.614 -4.85294 1.32284 0
M  V30 2413 H 228.314 -5.00906 3.07192 0
M  V30 2414 H 229.838 -5.62609 2.37284 0
M  V30 2415 H 231.252 -4.07518 4.03239 0
M  V30 2416 H 229.649 -3.69671 4.72719 0
M  V30 2417 H 230.719 -2.37426 4.22797 0
M  V30 2418 N 232.062 -1.29571 -0.897171 0
M  V30 2419 C 233.308 -1.17863 -1.65034 0
M  V30 2420 C 233.641 0.268729 -1.92332 0
M  V30 2421 O 232.916 1.19378 -1.53555 0
M  V30 2422 C 233.199 -1.995 -2.99786 0
M  V30 2423 C 233.052 -3.5239 -2.79538 0
M  V30 2424 C 234.371 -1.82335 -4.00552 0
M  V30 2425 H 231.49 -0.429528 -0.598895 0
M  V30 2426 H 234.132 -1.59072 -1.03905 0
M  V30 2427 H 232.282 -1.64485 -3.51962 0
M  V30 2428 H 233.954 -3.97401 -2.34244 0
M  V30 2429 H 232.197 -3.77187 -2.14273 0
M  V30 2430 H 232.868 -4.04787 -3.75302 0
M  V30 2431 H 235.344 -2.12924 -3.57495 0
M  V30 2432 H 234.22 -2.41801 -4.92771 0
M  V30 2433 H 234.481 -0.779209 -4.35179 0
M  V30 2434 N 233.54 1.10788 -1.12088 0
M  V30 2435 C 234.788 1.8231 -0.872205 0
M  V30 2436 C 235.109 1.85419 0.603709 0
M  V30 2437 O 234.379 1.32963 1.43867 0
M  V30 2438 H 232.959 0.675137 -0.319686 0
M  V30 2439 H 235.621 1.34068 -1.41463 0
M  V30 2440 H 234.717 2.85955 -1.25045 0
M  V30 2441 N 235.018 0.912232 1.28515 0
M  V30 2442 C 235.981 0.404223 2.25607 0
M  V30 2443 C 236.981 -0.468602 1.53821 0
M  V30 2444 O 238.171 -0.271873 1.72065 0
M  V30 2445 C 235.303 -0.420653 3.38295 0
M  V30 2446 H 236.496 1.26188 2.7206 0
M  V30 2447 H 234.049 0.691495 1.40171 0
M  V30 2448 H 234.784 -1.29777 2.97201 0
M  V30 2449 H 234.569 0.204935 3.91564 0
M  V30 2450 H 236.059 -0.766971 4.10496 0
M  V30 2451 N 236.496 -1.42363 0.676048 0
M  V30 2452 C 237.459 -2.29199 0.00766941 0
M  V30 2453 C 238.459 -1.43389 -0.727745 0
M  V30 2454 O 239.649 -1.64764 -0.56556 0
M  V30 2455 C 236.781 -3.2591 -0.999785 0
M  V30 2456 H 237.974 -2.89794 0.771988 0
M  V30 2457 H 235.527 -1.50024 0.438468 0
M  V30 2458 H 236.262 -2.70256 -1.79255 0
M  V30 2459 H 236.047 -3.89202 -0.475829 0
M  V30 2460 H 237.537 -3.91028 -1.46583 0
M  V30 2461 N 237.974 -0.419461 -1.51915 0
M  V30 2462 C 238.937 0.389116 -2.25873 0
M  V30 2463 C 239.937 0.964924 -1.28631 0
M  V30 2464 O 241.127 0.842179 -1.52489 0
M  V30 2465 C 238.259 1.54874 -3.03689 0
M  V30 2466 H 239.452 -0.258799 -2.98781 0
M  V30 2467 H 237.005 -0.172209 -1.55348 0
M  V30 2468 H 237.74 2.23323 -2.35154 0
M  V30 2469 H 237.525 1.14223 -3.75094 0
M  V30 2470 H 239.015 2.12046 -3.59759 0
M  V30 2471 N 239.452 1.56882 -0.150215 0
M  V30 2472 C 240.692 1.98119 0.502804 0
M  V30 2473 C 241.056 1.03327 1.61826 0
M  V30 2474 O 242.257 1.33621 2.33236 0
M  V30 2475 C 240.528 3.43329 0.992988 0
M  V30 2476 S 242.087 4.0659 1.65015 0
M  V30 2477 H 238.905 0.692189 0.162467 0
M  V30 2478 H 241.507 1.93988 -0.242689 0
M  V30 2479 H 240.211 4.10046 0.170436 0
M  V30 2480 H 239.742 3.5118 1.77303 0
M  V30 2481 H 241.757 3.99906 2.93752 0
M  V30 2482 N 240.93 -0.123565 1.57115 0
M  V30 2483 C 242.178 -0.83051 1.84247 0
M  V30 2484 C 242.499 -1.80629 0.73471 0
M  V30 2485 O 241.769 -1.94403 -0.241688 0
M  V30 2486 H 240.349 -0.309694 0.679778 0
M  V30 2487 H 243.011 -0.111976 1.94578 0
M  V30 2488 H 242.107 -1.37852 2.80006 0
M  V30 2489 N 242.408 -1.52605 -0.393616 0
M  V30 2490 C 243.819 -1.59417 -0.971761 0
M  V30 2491 C 244.17 -0.444173 -1.91106 0
M  V30 2492 O 243.295 0.433382 -2.12016 0
M  V30 2493 C 243.89 -2.88936 -1.76921 0
M  V30 2494 C 242.449 -2.98175 -2.29714 0
M  V30 2495 C 241.596 -2.54491 -1.10135 0
M  V30 2496 H 244.547 -1.57751 -0.173317 0
M  V30 2497 H 244.568 -2.75163 -2.62804 0
M  V30 2498 H 244.08 -3.72616 -1.08532 0
M  V30 2499 H 242.181 -2.19024 -3.01429 0
M  V30 2500 H 242.294 -4.02726 -2.59517 0
M  V30 2501 H 240.658 -2.08702 -1.45999 0
M  V30 2502 H 241.441 -3.4056 -0.432874 0
M  V30 2503 N 243.887 0.651787 -1.4349 0
M  V30 2504 C 244.85 1.74647 -1.48429 0
M  V30 2505 C 245.85 1.56513 -0.368817 0
M  V30 2506 O 247.04 1.62385 -0.630623 0
M  V30 2507 C 244.172 3.13533 -1.33827 0
M  V30 2508 H 245.365 1.71649 -2.4592 0
M  V30 2509 H 242.918 0.863573 -1.30277 0
M  V30 2510 H 243.653 3.22142 -0.37349 0
M  V30 2511 H 243.438 3.28101 -2.14691 0
M  V30 2512 H 244.928 3.93356 -1.40218 0
M  V30 2513 N 245.365 1.30045 0.890287 0
M  V30 2514 C 246.59 1.21598 1.68014 0
M  V30 2515 C 247.015 -0.218678 1.86825 0
M  V30 2516 O 246.373 -1.15756 1.39536 0
M  V30 2517 C 246.421 1.94434 3.03691 0
M  V30 2518 O 245.525 1.2678 3.92429 0
M  V30 2519 H 244.866 0.420856 0.513592 0
M  V30 2520 H 247.396 1.71775 1.11151 0
M  V30 2521 H 247.406 2.03251 3.5377 0
M  V30 2522 H 246.081 2.98777 2.89318 0
M  V30 2523 H 244.658 1.26282 3.50866 0
M  V30 2524 N 246.843 -1.10192 1.12674 0
M  V30 2525 C 248.12 -1.78717 0.794965 0
M  V30 2526 C 248.5 -1.98628 -0.714853 0
M  V30 2527 O 247.848 -1.58135 -1.64941 0
M  V30 2528 C 248.058 -3.11546 1.5729 0
M  V30 2529 C 249.406 -3.86382 1.76052 0
M  V30 2530 O 250.43 -3.21274 1.53823 0
M  V30 2531 O 249.289 -5.03246 2.13087 0
M  V30 2532 H 246.383 -0.774702 0.289423 0
M  V30 2533 H 248.929 -1.16819 1.23091 0
M  V30 2534 H 247.701 -2.92489 2.59935 0
M  V30 2535 H 247.324 -3.81164 1.13137 0
M  V30 2536 N 248.321 -0.919034 -1.28029 0
M  V30 2537 C 249.737 -0.617972 -1.4715 0
M  V30 2538 C 249.937 0.835242 -1.83374 0
M  V30 2539 O 248.993 1.61388 -1.94191 0
M  V30 2540 C 250.306 -1.56041 -2.57044 0
M  V30 2541 C 251.854 -1.56769 -2.7091 0
M  V30 2542 C 252.329 -2.49688 -3.83953 0
M  V30 2543 N 253.82 -2.47845 -3.91314 0
M  V30 2544 C 254.555 -3.16437 -4.78179 0
M  V30 2545 N 254.051 -3.94376 -5.69596 0
M  V30 2546 N 255.844 -3.05498 -4.71834 0
M  V30 2547 H 247.995 -1.85866 -1.02798 0
M  V30 2548 H 250.258 -0.797506 -0.512531 0
M  V30 2549 H 249.964 -2.59671 -2.372 0
M  V30 2550 H 249.838 -1.29551 -3.54255 0
M  V30 2551 H 252.225 -0.538745 -2.90141 0
M  V30 2552 H 252.306 -1.87305 -1.74214 0
M  V30 2553 H 251.95 -3.52688 -3.65477 0
M  V30 2554 H 251.88 -2.16453 -4.80058 0
M  V30 2555 H 254.371 -1.91234 -3.25941 0
M  V30 2556 H 254.684 -4.43721 -6.32718 0
M  V30 2557 H 253.029 -3.98481 -5.69419 0
M  V30 2558 H 256.22 -2.44108 -3.99411 0
M  V30 2559 H 256.393 -3.59225 -5.39316 0
M  V30 2560 N 249.799 1.42003 -0.683588 0
M  V30 2561 C 251.046 2.01413 -0.209514 0
M  V30 2562 C 251.374 1.54088 1.1869 0
M  V30 2563 O 250.629 0.737591 1.81268 0
M  V30 2564 C 250.928 3.56827 -0.202357 0
M  V30 2565 C 250.594 4.23617 -1.54464 0
M  V30 2566 C 249.256 4.41577 -1.91215 0
M  V30 2567 C 251.608 4.61178 -2.42826 0
M  V30 2568 C 248.936 4.9437 -3.15935 0
M  V30 2569 C 251.288 5.15355 -3.66867 0
M  V30 2570 C 249.952 5.31528 -4.03776 0
M  V30 2571 H 249.222 0.737023 -0.0766668 0
M  V30 2572 H 251.869 1.70067 -0.880312 0
M  V30 2573 H 250.174 3.87892 0.551969 0
M  V30 2574 H 251.871 4.00588 0.181793 0
M  V30 2575 H 248.461 4.10004 -1.24877 0
M  V30 2576 H 252.645 4.46968 -2.15717 0
M  V30 2577 H 247.901 5.05076 -3.44541 0
M  V30 2578 H 252.075 5.43402 -4.35531 0
M  V30 2579 H 249.702 5.72199 -5.00492 0
M  V30 2580 N 251.277 0.427512 1.51691 0
M  V30 2581 C 252.525 -0.141948 2.01601 0
M  V30 2582 C 252.846 -1.44067 1.31414 0
M  V30 2583 O 252.116 -1.90763 0.445658 0
M  V30 2584 H 250.696 -0.0554468 0.744939 0
M  V30 2585 H 253.358 0.567968 1.86441 0
M  V30 2586 H 252.454 -0.324913 3.10404 0
M  V30 2587 N 252.755 -1.56801 0.158532 0
M  V30 2588 C 254.171 -1.5837 -0.197774 0
M  V30 2589 C 254.371 -1.17334 -1.63814 0
M  V30 2590 O 253.427 -0.878988 -2.36707 0
M  V30 2591 C 254.74 -3.00615 0.0714459 0
M  V30 2592 C 256.288 -3.12999 0.00864533 0
M  V30 2593 C 256.763 -4.57313 0.250685 0
M  V30 2594 N 258.254 -4.62777 0.198014 0
M  V30 2595 C 258.989 -5.72271 0.359642 0
M  V30 2596 N 258.485 -6.90371 0.579625 0
M  V30 2597 N 260.278 -5.61318 0.296438 0
M  V30 2598 H 252.429 -1.81765 1.09887 0
M  V30 2599 H 254.692 -0.841849 0.435884 0
M  V30 2600 H 254.398 -3.35068 1.06874 0
M  V30 2601 H 254.272 -3.71683 -0.642757 0
M  V30 2602 H 256.659 -2.7838 -0.979217 0
M  V30 2603 H 256.74 -2.44393 0.755359 0
M  V30 2604 H 256.384 -4.92639 1.2357 0
M  V30 2605 H 256.314 -5.24061 -0.516489 0
M  V30 2606 H 258.805 -3.77885 0.0331115 0
M  V30 2607 H 259.118 -7.69689 0.69275 0
M  V30 2608 H 257.463 -6.92264 0.616087 0
M  V30 2609 H 260.654 -4.67932 0.125258 0
M  V30 2610 H 260.827 -6.46599 0.425831 0
M  V30 2611 N 254.233 0.115231 -1.57178 0
M  V30 2612 C 255.649 0.468877 -1.52557 0
M  V30 2613 C 255.849 1.81649 -0.872125 0
M  V30 2614 O 254.905 2.48347 -0.45606 0
M  V30 2615 C 256.218 0.4499 -2.97315 0
M  V30 2616 C 257.766 0.533185 -3.08425 0
M  V30 2617 C 258.241 0.54456 -4.54751 0
M  V30 2618 N 259.732 0.605892 -4.5922 0
M  V30 2619 C 260.467 0.636203 -5.6986 0
M  V30 2620 N 259.963 0.623931 -6.89985 0
M  V30 2621 N 261.756 0.679496 -5.57978 0
M  V30 2622 H 253.907 -0.767712 -1.9804 0
M  V30 2623 H 256.17 -0.283609 -0.904583 0
M  V30 2624 H 255.876 -0.472721 -3.48509 0
M  V30 2625 H 255.75 1.27632 -3.5495 0
M  V30 2626 H 258.137 1.44623 -2.57232 0
M  V30 2627 H 258.218 -0.320995 -2.53778 0
M  V30 2628 H 257.862 -0.364452 -5.06591 0
M  V30 2629 H 257.792 1.41568 -5.07214 0
M  V30 2630 H 260.283 0.621386 -3.72756 0
M  V30 2631 H 260.596 0.649787 -7.70063 0
M  V30 2632 H 258.941 0.591296 -6.9248 0
M  V30 2633 H 262.132 0.686472 -4.63039 0
M  V30 2634 H 262.305 0.69965 -6.44212 0
M  V30 2635 N 255.711 1.52812 0.385517 0
M  V30 2636 C 256.641 1.80808 1.47752 0
M  V30 2637 C 257.622 0.660318 1.5676 0
M  V30 2638 O 258.807 0.908246 1.71652 0
M  V30 2639 C 255.937 1.98008 2.85324 0
M  V30 2640 C 254.891 3.13709 2.91154 0
M  V30 2641 C 254.217 3.16169 4.31209 0
M  V30 2642 C 255.517 4.52709 2.60483 0
M  V30 2643 H 257.211 2.72253 1.24573 0
M  V30 2644 H 254.757 1.31003 0.597839 0
M  V30 2645 H 256.71 2.16176 3.61726 0
M  V30 2646 H 255.434 1.03255 3.09848 0
M  V30 2647 H 254.093 2.95329 2.17201 0
M  V30 2648 H 253.741 2.19092 4.52778 0
M  V30 2649 H 253.441 3.93894 4.36029 0
M  V30 2650 H 254.965 3.36496 5.09512 0
M  V30 2651 H 256.379 4.71173 3.26602 0
M  V30 2652 H 254.776 5.32528 2.76648 0
M  V30 2653 H 255.846 4.59186 1.55809 0
M  V30 2654 N 257.189 -0.644168 1.43834 0
M  V30 2655 C 258.435 -1.40603 1.46146 0
M  V30 2656 C 258.768 -1.93997 0.0887717 0
M  V30 2657 O 258.043 -1.72854 -0.891724 0
M  V30 2658 C 258.326 -2.58086 2.51124 0
M  V30 2659 C 258.179 -2.10126 3.97702 0
M  V30 2660 C 259.498 -3.60291 2.52742 0
M  V30 2661 H 256.617 -0.509905 0.532134 0
M  V30 2662 H 259.259 -0.729502 1.75437 0
M  V30 2663 H 257.409 -3.15801 2.26278 0
M  V30 2664 H 259.081 -1.57342 4.33637 0
M  V30 2665 H 257.324 -1.41419 4.10101 0
M  V30 2666 H 257.995 -2.94649 4.66783 0
M  V30 2667 H 260.471 -3.12352 2.7491 0
M  V30 2668 H 259.347 -4.40032 3.28121 0
M  V30 2669 H 259.608 -4.1349 1.56455 0
M  V30 2670 N 258.668 -1.30515 -0.883378 0
M  V30 2671 C 259.598 -1.19607 -2.00541 0
M  V30 2672 C 260.579 -0.086346 -1.69881 0
M  V30 2673 O 261.764 -0.268654 -1.92333 0
M  V30 2674 C 258.894 -0.888758 -3.35736 0
M  V30 2675 C 257.848 -1.95659 -3.8066 0
M  V30 2676 C 257.174 -1.50224 -5.13164 0
M  V30 2677 C 258.474 -3.36788 -3.99213 0
M  V30 2678 H 260.168 -2.13476 -2.09925 0
M  V30 2679 H 257.714 -1.02775 -1.00863 0
M  V30 2680 H 259.667 -0.799094 -4.13754 0
M  V30 2681 H 258.391 0.0856125 -3.26488 0
M  V30 2682 H 257.05 -2.03591 -3.04871 0
M  V30 2683 H 256.698 -0.516092 -5.00345 0
M  V30 2684 H 256.398 -2.2165 -5.44192 0
M  V30 2685 H 257.922 -1.42639 -5.93706 0
M  V30 2686 H 259.336 -3.31605 -4.67665 0
M  V30 2687 H 257.733 -4.06314 -4.41621 0
M  V30 2688 H 258.803 -3.78561 -3.03017 0
M  V30 2689 N 260.146 1.09593 -1.13257 0
M  V30 2690 C 261.374 1.855 -0.916378 0
M  V30 2691 C 261.789 1.81069 0.534738 0
M  V30 2692 O 261.146 1.20562 1.37007 0
M  V30 2693 C 261.197 3.33546 -1.39388 0
M  V30 2694 O 260.918 3.37927 -2.78813 0
M  V30 2695 C 262.419 4.26299 -1.21588 0
M  V30 2696 H 259.639 0.585991 -0.326887 0
M  V30 2697 H 262.183 1.38488 -1.5047 0
M  V30 2698 H 260.338 3.77992 -0.848597 0
M  V30 2699 H 260.752 4.30254 -2.9997 0
M  V30 2700 H 262.226 5.28341 -1.59876 0
M  V30 2701 H 262.703 4.38918 -0.157376 0
M  V30 2702 H 263.309 3.87668 -1.7491 0
M  V30 2703 N 261.624 0.925811 1.2754 0
M  V30 2704 C 262.87 0.575575 1.95086 0
M  V30 2705 C 263.225 -0.873246 1.71441 0
M  V30 2706 O 262.518 -1.61443 1.03183 0
M  V30 2707 C 262.712 0.835296 3.47502 0
M  V30 2708 C 262.541 2.30781 3.85967 0
M  V30 2709 C 261.311 2.96017 4.09514 0
M  V30 2710 C 263.509 3.28519 3.95702 0
M  V30 2711 N 261.491 4.3344 4.34744 0
M  V30 2712 C 262.862 4.51146 4.25285 0
M  V30 2713 C 264.917 3.23753 3.7827 0
M  V30 2714 C 263.62 5.69606 4.39251 0
M  V30 2715 C 265.646 4.41523 3.9346 0
M  V30 2716 C 265.008 5.62928 4.23428 0
M  V30 2717 H 261.107 0.260711 0.737261 0
M  V30 2718 H 263.691 1.19204 1.53943 0
M  V30 2719 H 261.862 0.248005 3.87607 0
M  V30 2720 H 263.594 0.447878 4.02214 0
M  V30 2721 H 260.349 2.46695 4.04275 0
M  V30 2722 H 260.773 5.04528 4.5142 0
M  V30 2723 H 265.415 2.3096 3.54143 0
M  V30 2724 H 263.133 6.62866 4.62205 0
M  V30 2725 H 266.719 4.39351 3.81394 0
M  V30 2726 H 265.599 6.52538 4.34929 0
M  V30 2727 N 263.102 -1.41638 0.69111 0
M  V30 2728 C 264.327 -2.06148 0.227583 0
M  V30 2729 C 264.752 -1.51652 -1.11281 0
M  V30 2730 O 264.11 -0.64164 -1.69566 0
M  V30 2731 C 264.158 -3.60095 0.190858 0
M  V30 2732 O 263.262 -4.03845 -0.835664 0
M  V30 2733 H 262.603 -0.654434 0.112306 0
M  V30 2734 H 265.133 -1.81484 0.944714 0
M  V30 2735 H 265.143 -4.07995 0.020207 0
M  V30 2736 H 263.818 -3.99129 1.16915 0
M  V30 2737 H 262.395 -3.67458 -0.63473 0
M  V30 2738 N 264.58 -0.43555 -1.51462 0
M  V30 2739 C 265.81 0.130053 -2.0619 0
M  V30 2740 C 266.218 1.37164 -1.30317 0
M  V30 2741 O 265.561 1.80225 -0.355598 0
M  V30 2742 C 265.623 0.519418 -3.55728 0
M  V30 2743 C 265.287 -0.615119 -4.52841 0
M  V30 2744 C 266.284 -1.48671 -4.9819 0
M  V30 2745 C 263.969 -0.795341 -4.95963 0
M  V30 2746 C 265.963 -2.52324 -5.8533 0
M  V30 2747 C 263.65 -1.83514 -5.82894 0
M  V30 2748 C 264.648 -2.69748 -6.27475 0
M  V30 2749 O 264.336 -3.71944 -7.1268 0
M  V30 2750 H 264.068 0.0121612 -0.675891 0
M  V30 2751 H 266.622 -0.6129 -1.96043 0
M  V30 2752 H 264.852 1.31505 -3.63653 0
M  V30 2753 H 266.541 1.01597 -3.92979 0
M  V30 2754 H 267.307 -1.359 -4.65571 0
M  V30 2755 H 263.186 -0.133713 -4.60806 0
M  V30 2756 H 266.73 -3.19665 -6.20048 0
M  V30 2757 H 262.627 -1.96306 -6.14926 0
M  V30 2758 H 263.395 -3.68503 -7.30854 0
M  V30 2759 N 266.058 1.56714 -0.166846 0
M  V30 2760 C 266.988 2.20754 0.760913 0
M  V30 2761 C 267.969 1.16178 1.24244 0
M  V30 2762 O 269.154 1.44592 1.29641 0
M  V30 2763 C 266.284 2.84478 1.99223 0
M  V30 2764 C 265.238 3.95053 1.64672 0
M  V30 2765 C 264.564 4.45805 2.95232 0
M  V30 2766 C 265.864 5.14865 0.878155 0
M  V30 2767 H 267.558 2.98537 0.22713 0
M  V30 2768 H 265.104 1.43596 0.107805 0
M  V30 2769 H 267.057 3.27951 2.64624 0
M  V30 2770 H 265.781 2.04056 2.55007 0
M  V30 2771 H 264.44 3.52228 1.01641 0
M  V30 2772 H 264.088 3.62181 3.49047 0
M  V30 2773 H 263.788 5.204 2.7287 0
M  V30 2774 H 265.312 4.91962 3.6167 0
M  V30 2775 H 266.726 5.55059 1.43466 0
M  V30 2776 H 265.123 5.95348 0.753738 0
M  V30 2777 H 266.193 4.84735 -0.126377 0
M  V30 2778 N 267.536 -0.106894 1.57237 0
M  V30 2779 C 268.468 -1.15646 1.97885 0
M  V30 2780 C 269.481 -1.36981 0.879779 0
M  V30 2781 O 270.67 -1.35841 1.15799 0
M  V30 2782 C 267.77 -2.51425 2.27241 0
M  V30 2783 C 266.943 -2.50529 3.58545 0
M  V30 2784 C 266.002 -3.68145 3.75973 0
M  V30 2785 O 265.028 -3.51176 4.47956 0
M  V30 2786 N 266.23 -4.87177 3.15656 0
M  V30 2787 H 268.995 -0.81059 2.8853 0
M  V30 2788 H 266.556 -0.296024 1.59171 0
M  V30 2789 H 268.548 -3.28689 2.36105 0
M  V30 2790 H 267.118 -2.78147 1.42663 0
M  V30 2791 H 266.338 -1.58894 3.60758 0
M  V30 2792 H 267.626 -2.46997 4.44826 0
M  V30 2793 H 267.024 -5.03868 2.57165 0
M  V30 2794 H 265.581 -5.62075 3.30023 0
M  V30 2795 N 269.014 -1.53014 -0.377408 0
M  V30 2796 C 269.947 -1.73382 -1.48371 0
M  V30 2797 C 270.925 -0.581879 -1.51832 0
M  V30 2798 O 272.109 -0.81307 -1.70063 0
M  V30 2799 C 269.236 -1.80192 -2.8679 0
M  V30 2800 C 268.282 -3.02056 -3.01105 0
M  V30 2801 S 269.115 -4.61811 -2.71093 0
M  V30 2802 C 270.271 -4.71453 -4.11683 0
M  V30 2803 H 270.504 -2.66946 -1.30872 0
M  V30 2804 H 268.037 -1.43453 -0.571012 0
M  V30 2805 H 269.995 -1.84802 -3.6655 0
M  V30 2806 H 268.656 -0.877008 -3.01608 0
M  V30 2807 H 267.849 -3.03396 -4.02451 0
M  V30 2808 H 267.451 -2.95498 -2.29253 0
M  V30 2809 H 269.743 -4.50781 -5.0577 0
M  V30 2810 H 270.686 -5.73487 -4.15353 0
M  V30 2811 H 271.094 -4.00189 -3.98132 0
M  V30 2812 N 270.492 0.636531 -1.44174 0
M  V30 2813 C 271.455 1.73063 -1.50273 0
M  V30 2814 C 272.455 1.56113 -0.385397 0
M  V30 2815 O 273.645 1.61707 -0.64781 0
M  V30 2816 C 270.777 3.12096 -1.37145 0
M  V30 2817 H 271.97 1.69031 -2.47727 0
M  V30 2818 H 269.523 0.849706 -1.31186 0
M  V30 2819 H 270.258 3.21728 -0.407636 0
M  V30 2820 H 270.043 3.25805 -2.18159 0
M  V30 2821 H 271.533 3.91846 -1.44382 0
M  V30 2822 N 271.97 1.30982 0.876444 0
M  V30 2823 C 273.216 1.20474 1.63138 0
M  V30 2824 C 273.549 -0.238096 1.92735 0
M  V30 2825 O 272.824 -1.1692 1.55435 0
M  V30 2826 C 273.107 2.04244 2.96574 0
M  V30 2827 C 272.96 3.56793 2.73896 0
M  V30 2828 C 274.279 1.88684 3.97601 0
M  V30 2829 H 271.398 0.439001 0.591985 0
M  V30 2830 H 274.04 1.60704 1.01361 0
M  V30 2831 H 272.19 1.70063 3.493 0
M  V30 2832 H 273.862 4.01077 2.27892 0
M  V30 2833 H 272.105 3.80548 2.08245 0
M  V30 2834 H 272.776 4.10706 3.68815 0
M  V30 2835 H 275.252 2.18584 3.54062 0
M  V30 2836 H 274.128 2.4961 4.88862 0
M  V30 2837 H 274.389 0.848343 4.33884 0
M  V30 2838 N 273.449 -1.08991 1.13837 0
M  V30 2839 C 274.382 -2.15049 0.763477 0
M  V30 2840 C 275.36 -1.60629 -0.252398 0
M  V30 2841 O 276.544 -1.87958 -0.142853 0
M  V30 2842 C 273.671 -3.38441 0.132545 0
M  V30 2843 C 272.717 -4.11596 1.11763 0
M  V30 2844 S 273.55 -4.6521 2.65216 0
M  V30 2845 C 274.706 -5.91896 2.03495 0
M  V30 2846 H 274.939 -2.46518 1.66182 0
M  V30 2847 H 272.472 -1.21008 0.958976 0
M  V30 2848 H 274.43 -4.09883 -0.225074 0
M  V30 2849 H 273.091 -3.05182 -0.743135 0
M  V30 2850 H 272.284 -5.00121 0.624076 0
M  V30 2851 H 271.886 -3.46038 1.41894 0
M  V30 2852 H 274.178 -6.63156 1.38675 0
M  V30 2853 H 275.121 -6.45938 2.9012 0
M  V30 2854 H 275.529 -5.44625 1.48471 0
M  V30 2855 N 274.927 -0.932562 -1.27047 0
M  V30 2856 C 276.175 -0.574422 -1.93765 0
M  V30 2857 C 276.496 0.887993 -1.73608 0
M  V30 2858 O 275.766 1.62999 -1.08665 0
M  V30 2859 H 274.346 -0.209451 -0.717035 0
M  V30 2860 H 277.008 -1.18601 -1.5466 0
M  V30 2861 H 276.104 -0.784841 -3.02071 0
M  V30 2862 N 276.405 1.4127 -0.698611 0
M  V30 2863 C 277.633 2.05503 -0.239992 0
M  V30 2864 C 278.048 1.52584 1.11191 0
M  V30 2865 O 277.405 0.675323 1.69545 0
M  V30 2866 C 277.456 3.60987 -0.192429 0
M  V30 2867 O 277.177 4.1195 -1.49094 0
M  V30 2868 C 278.678 4.42371 0.28681 0
M  V30 2869 H 275.898 0.661748 -0.111045 0
M  V30 2870 H 278.442 1.80987 -0.95205 0
M  V30 2871 H 276.597 3.84533 0.470472 0
M  V30 2872 H 277.011 5.06018 -1.38007 0
M  V30 2873 H 278.485 5.51344 0.26896 0
M  V30 2874 H 278.962 4.18699 1.32619 0
M  V30 2875 H 279.568 4.23897 -0.345201 0
M  V30 2876 N 277.883 0.443576 1.51229 0
M  V30 2877 C 278.846 -0.353132 2.26463 0
M  V30 2878 C 279.846 -0.944338 1.3015 0
M  V30 2879 O 281.036 -0.817813 1.5381 0
M  V30 2880 C 278.168 -1.50023 3.06114 0
M  V30 2881 H 279.361 0.3063 2.98332 0
M  V30 2882 H 276.914 0.196902 1.55055 0
M  V30 2883 H 277.649 -2.19553 2.38677 0
M  V30 2884 H 277.434 -1.08241 3.76864 0
M  V30 2885 H 278.924 -2.06296 3.63087 0
M  V30 2886 N 279.361 -1.56624 0.175154 0
M  V30 2887 C 280.324 -2.16934 -0.739738 0
M  V30 2888 C 281.324 -1.11842 -1.15533 0
M  V30 2889 O 282.514 -1.37335 -1.07167 0
M  V30 2890 C 279.646 -2.75531 -2.00738 0
M  V30 2891 H 280.839 -2.99131 -0.214639 0
M  V30 2892 H 278.392 -1.56123 -0.0744197 0
M  V30 2893 H 279.127 -1.97078 -2.57548 0
M  V30 2894 H 278.912 -3.52444 -1.71831 0
M  V30 2895 H 280.402 -3.21904 -2.66021 0
M  V30 2896 N 280.839 0.0985539 -1.57292 0
M  V30 2897 C 281.802 1.10402 -2.00858 0
M  V30 2898 C 282.802 1.33146 -0.901593 0
M  V30 2899 O 283.992 1.29318 -1.16716 0
M  V30 2900 C 281.124 2.45394 -2.36632 0
M  V30 2901 H 282.317 0.729099 -2.90902 0
M  V30 2902 H 279.87 0.343495 -1.52479 0
M  V30 2903 H 280.605 2.87769 -1.49531 0
M  V30 2904 H 280.39 2.30235 -3.17387 0
M  V30 2905 H 281.88 3.17718 -2.71007 0
M  V30 2906 N 282.317 1.53212 0.369288 0
M  V30 2907 C 283.564 1.69215 1.11232 0
M  V30 2908 C 283.892 0.442048 1.8941 0
M  V30 2909 O 283.147 -0.575944 1.87033 0
M  V30 2910 C 283.446 2.89101 2.10132 0
M  V30 2911 C 283.112 4.25758 1.48463 0
M  V30 2912 C 281.774 4.6292 1.31372 0
M  V30 2913 C 284.126 5.10757 1.03811 0
M  V30 2914 C 281.454 5.82722 0.68207 0
M  V30 2915 C 283.806 6.31201 0.420487 0
M  V30 2916 C 282.47 6.67079 0.237038 0
M  V30 2917 H 281.74 0.619201 0.407027 0
M  V30 2918 H 284.387 1.87391 0.394552 0
M  V30 2919 H 282.692 2.65421 2.88199 0
M  V30 2920 H 284.389 2.98676 2.6757 0
M  V30 2921 H 280.979 3.96494 1.62758 0
M  V30 2922 H 285.163 4.82599 1.1581 0
M  V30 2923 H 280.419 6.09113 0.528316 0
M  V30 2924 H 284.593 6.96368 0.0662874 0
M  V30 2925 H 282.22 7.59774 -0.254477 0
M  V30 2926 N 283.795 -0.628877 1.44509 0
M  V30 2927 C 284.758 -1.72263 1.51188 0
M  V30 2928 C 285.758 -1.55907 0.39367 0
M  V30 2929 O 286.948 -1.61361 0.656377 0
M  V30 2930 C 284.08 -3.11365 1.38798 0
M  V30 2931 H 285.273 -1.67714 2.4862 0
M  V30 2932 H 282.826 -0.842737 1.31634 0
M  V30 2933 H 283.561 -3.21507 0.424693 0
M  V30 2934 H 283.346 -3.24644 2.19884 0
M  V30 2935 H 284.836 -3.91075 1.46458 0
M  V30 2936 N 285.273 -1.31445 -0.869486 0
M  V30 2937 C 286.684 -1.19042 -1.43826 0
M  V30 2938 C 287.035 0.202919 -1.95148 0
M  V30 2939 O 286.16 1.10071 -1.86315 0
M  V30 2940 C 286.755 -2.15499 -2.6143 0
M  V30 2941 C 285.314 -2.07028 -3.14351 0
M  V30 2942 C 284.461 -2.04701 -1.87063 0
M  V30 2943 H 287.412 -1.43489 -0.677984 0
M  V30 2944 H 287.433 -1.74488 -3.38134 0
M  V30 2945 H 286.945 -3.16899 -2.24046 0
M  V30 2946 H 285.046 -1.08825 -3.56354 0
M  V30 2947 H 285.159 -2.96157 -3.766 0
M  V30 2948 H 283.523 -1.49724 -2.06046 0
M  V30 2949 H 284.306 -3.07857 -1.51917 0
M  V30 2950 N 286.751 1.08385 -1.14413 0
M  V30 2951 C 287.714 2.13486 -0.834048 0
M  V30 2952 C 288.714 1.59988 0.161418 0
M  V30 2953 O 289.904 1.74071 -0.0669575 0
M  V30 2954 C 287.036 3.4003 -0.243354 0
M  V30 2955 H 288.229 2.42425 -1.7655 0
M  V30 2956 H 285.782 1.24101 -0.950189 0
M  V30 2957 H 286.517 3.16726 0.696807 0
M  V30 2958 H 286.302 3.80157 -0.960367 0
M  V30 2959 H 287.792 4.17577 -0.0436242 0
M  V30 2960 N 288.23 0.939286 1.26551 0
M  V30 2961 C 289.477 0.585847 1.9384 0
M  V30 2962 C 289.805 -0.874784 1.73718 0
M  V30 2963 O 289.06 -1.64092 1.06642 0
M  V30 2964 C 289.359 0.872106 3.46596 0
M  V30 2965 C 289.025 2.31632 3.86856 0
M  V30 2966 C 287.687 2.71111 3.97558 0
M  V30 2967 C 290.039 3.25494 4.07066 0
M  V30 2968 C 287.367 4.03553 4.25866 0
M  V30 2969 C 289.719 4.57531 4.36862 0
M  V30 2970 C 288.383 4.96828 4.45778 0
M  V30 2971 H 287.653 0.214377 0.709312 0
M  V30 2972 H 290.3 1.18544 1.50398 0
M  V30 2973 H 288.605 0.18996 3.91339 0
M  V30 2974 H 290.302 0.577442 3.96821 0
M  V30 2975 H 286.892 2.00008 3.79071 0
M  V30 2976 H 291.076 2.9619 3.98227 0
M  V30 2977 H 286.332 4.33665 4.30981 0
M  V30 2978 H 290.506 5.30254 4.51446 0
M  V30 2979 H 288.133 5.99482 4.67468 0
M  V30 2980 N 289.708 -1.40897 0.706093 0
M  V30 2981 C 291.119 -1.84023 0.315052 0
M  V30 2982 C 291.47 -1.5906 -1.14866 0
M  V30 2983 O 290.595 -1.06651 -1.88293 0
M  V30 2984 C 291.19 -3.34055 0.565038 0
M  V30 2985 C 289.749 -3.7571 0.227806 0
M  V30 2986 C 288.896 -2.64204 0.842122 0
M  V30 2987 H 291.847 -1.303 0.905963 0
M  V30 2988 H 291.868 -3.80107 -0.172843 0
M  V30 2989 H 291.38 -3.52192 1.63042 0
M  V30 2990 H 289.481 -3.63172 -0.832895 0
M  V30 2991 H 289.594 -4.74103 0.690174 0
M  V30 2992 H 287.958 -2.53255 0.270893 0
M  V30 2993 H 288.741 -2.85155 1.91158 0
M  V30 2994 N 291.186 -0.45159 -1.50991 0
M  V30 2995 C 292.432 0.110237 -2.025 0
M  V30 2996 C 292.765 1.41109 -1.33424 0
M  V30 2997 O 292.04 1.89135 -0.453659 0
M  V30 2998 C 292.323 0.314271 -3.58726 0
M  V30 2999 C 292.176 -1.00623 -4.38401 0
M  V30 3000 C 293.495 1.07767 -4.26702 0
M  V30 3001 H 290.614 0.0385897 -0.735989 0
M  V30 3002 H 293.256 -0.593374 -1.80497 0
M  V30 3003 H 291.406 0.913601 -3.77605 0
M  V30 3004 H 293.078 -1.64064 -4.31139 0
M  V30 3005 H 291.321 -1.6075 -4.02917 0
M  V30 3006 H 291.992 -0.817341 -5.45915 0
M  V30 3007 H 294.468 0.56986 -4.12179 0
M  V30 3008 H 293.344 1.18921 -5.35863 0
M  V30 3009 H 293.605 2.10939 -3.88532 0
M  V30 3010 N 292.664 1.56529 -0.183458 0
M  V30 3011 C 293.894 2.01331 0.463612 0
M  V30 3012 C 294.302 1.06278 1.5653 0
M  V30 3013 O 293.645 0.0577976 1.83609 0
M  V30 3014 C 293.707 3.42547 1.09096 0
M  V30 3015 C 293.371 4.56817 0.129442 0
M  V30 3016 C 294.368 5.15734 -0.656807 0
M  V30 3017 C 292.053 5.02295 0.02174 0
M  V30 3018 C 294.047 6.1857 -1.53784 0
M  V30 3019 C 291.734 6.04978 -0.862864 0
M  V30 3020 C 292.732 6.62988 -1.64123 0
M  V30 3021 O 292.42 7.63677 -2.51103 0
M  V30 3022 H 292.152 0.664917 0.121907 0
M  V30 3023 H 294.706 2.034 -0.285954 0
M  V30 3024 H 292.936 3.37428 1.88889 0
M  V30 3025 H 294.625 3.71228 1.64148 0
M  V30 3026 H 295.391 4.81473 -0.583839 0
M  V30 3027 H 291.27 4.56847 0.617392 0
M  V30 3028 H 294.814 6.63777 -2.14583 0
M  V30 3029 H 290.711 6.38663 -0.93699 0
M  V30 3030 H 291.479 7.81049 -2.44753 0
M  V30 3031 N 294.142 -0.090211 1.57342 0
M  V30 3032 C 295.382 -0.798365 1.88163 0
M  V30 3033 C 295.746 -1.75662 0.775046 0
M  V30 3034 O 296.947 -2.50849 0.965816 0
M  V30 3035 C 295.218 -1.50376 3.24225 0
M  V30 3036 S 296.777 -2.24952 3.76752 0
M  V30 3037 H 293.595 -0.265883 0.659414 0
M  V30 3038 H 296.197 -0.055264 1.95422 0
M  V30 3039 H 294.901 -0.792286 4.0268 0
M  V30 3040 H 294.432 -2.28666 3.20118 0
M  V30 3041 H 296.447 -3.51173 3.5056 0
M  V30 3042 N 295.62 -1.53406 -0.361157 0
M  V30 3043 C 296.55 -1.83136 -1.44857 0
M  V30 3044 C 297.531 -0.685174 -1.5569 0
M  V30 3045 O 298.716 -0.93544 -1.70186 0
M  V30 3046 C 295.846 -2.02522 -2.82138 0
M  V30 3047 C 294.8 -3.18302 -2.86126 0
M  V30 3048 C 294.126 -3.22989 -4.26125 0
M  V30 3049 C 295.426 -4.56796 -2.53248 0
M  V30 3050 H 297.12 -2.74201 -1.20226 0
M  V30 3051 H 294.666 -1.31938 -0.576922 0
M  V30 3052 H 296.619 -2.21904 -3.58241 0
M  V30 3053 H 295.343 -1.08172 -3.08166 0
M  V30 3054 H 294.002 -2.98747 -2.12475 0
M  V30 3055 H 293.65 -2.26267 -4.49235 0
M  V30 3056 H 293.35 -4.00781 -4.29708 0
M  V30 3057 H 294.874 -3.44559 -5.04094 0
M  V30 3058 H 296.288 -4.7631 -3.19064 0
M  V30 3059 H 294.685 -5.36862 -2.68141 0
M  V30 3060 H 295.755 -4.61606 -1.48484 0
M  V30 3061 N 297.098 0.621204 -1.44841 0
M  V30 3062 C 298.345 1.38055 -1.48145 0
M  V30 3063 C 298.673 1.94143 -0.117867 0
M  V30 3064 O 297.928 1.74713 0.881694 0
M  V30 3065 C 298.227 2.55675 -2.4973 0
M  V30 3066 C 297.893 2.17817 -3.94799 0
M  V30 3067 C 296.555 2.07205 -4.34303 0
M  V30 3068 C 298.907 1.88065 -4.86087 0
M  V30 3069 C 296.235 1.65045 -5.63007 0
M  V30 3070 C 298.587 1.47394 -6.15189 0
M  V30 3071 C 297.251 1.35331 -6.53637 0
M  V30 3072 H 296.521 0.505181 -0.542101 0
M  V30 3073 H 299.168 0.703477 -1.78111 0
M  V30 3074 H 297.473 3.2866 -2.13284 0
M  V30 3075 H 299.17 3.13904 -2.4953 0
M  V30 3076 H 295.76 2.26998 -3.63552 0
M  V30 3077 H 299.944 1.95168 -4.56315 0
M  V30 3078 H 295.2 1.54317 -5.91605 0
M  V30 3079 H 299.374 1.23415 -6.85377 0
M  V30 3080 H 297.001 1.02435 -7.53267 0
M  V30 3081 N 298.576 1.31904 0.862503 0
M  V30 3082 C 299.992 1.10724 1.14945 0
M  V30 3083 C 300.192 -0.117421 2.01158 0
M  V30 3084 O 299.248 -0.804595 2.39338 0
M  V30 3085 C 300.561 2.38267 1.83437 0
M  V30 3086 C 302.109 2.43949 1.96106 0
M  V30 3087 C 302.584 3.71394 2.68013 0
M  V30 3088 N 304.075 3.72331 2.75543 0
M  V30 3089 C 304.81 4.67641 3.31812 0
M  V30 3090 N 304.306 5.73313 3.88953 0
M  V30 3091 N 306.099 4.5515 3.29841 0
M  V30 3092 H 298.25 2.10436 0.288191 0
M  V30 3093 H 300.513 0.928705 0.190292 0
M  V30 3094 H 300.219 3.27759 1.27542 0
M  V30 3095 H 300.093 2.48633 2.83657 0
M  V30 3096 H 302.48 1.54922 2.51164 0
M  V30 3097 H 302.561 2.37543 0.949059 0
M  V30 3098 H 302.205 4.60791 2.13621 0
M  V30 3099 H 302.135 3.75069 3.69636 0
M  V30 3100 H 304.626 2.95947 2.34997 0
M  V30 3101 H 304.939 6.42107 4.30022 0
M  V30 3102 H 303.284 5.77077 3.87308 0
M  V30 3103 H 306.475 3.71766 2.84443 0
M  V30 3104 H 306.648 5.29604 3.73394 0
M  V30 3105 N 300.054 -1.07777 1.14986 0
M  V30 3106 C 301.301 -1.8029 0.922056 0
M  V30 3107 C 301.629 -1.86531 -0.55105 0
M  V30 3108 O 300.884 -1.34189 -1.42449 0
M  V30 3109 C 301.183 -3.25495 1.47608 0
M  V30 3110 C 300.849 -3.39361 2.96893 0
M  V30 3111 C 299.511 -3.42852 3.37647 0
M  V30 3112 C 301.863 -3.42512 3.92854 0
M  V30 3113 C 299.191 -3.47094 4.73015 0
M  V30 3114 C 301.543 -3.4829 5.28088 0
M  V30 3115 C 300.207 -3.50058 5.68345 0
M  V30 3116 H 299.477 -0.659727 0.337404 0
M  V30 3117 H 302.124 -1.26854 1.43459 0
M  V30 3118 H 300.429 -3.81683 0.88463 0
M  V30 3119 H 302.126 -3.80168 1.27568 0
M  V30 3120 H 298.716 -3.37339 2.64387 0
M  V30 3121 H 302.9 -3.3904 3.62444 0
M  V30 3122 H 298.156 -3.46758 5.03556 0
M  V30 3123 H 302.33 -3.49675 6.02246 0
M  V30 3124 H 299.957 -3.53097 6.73221 0
M  V30 3125 N 301.532 -0.945985 -1.26051 0
M  V30 3126 C 302.462 -0.477172 -2.28572 0
M  V30 3127 C 303.443 0.472032 -1.63419 0
M  V30 3128 O 304.628 0.372853 -1.90587 0
M  V30 3129 C 301.758 0.253975 -3.4637 0
M  V30 3130 C 300.712 -0.609135 -4.23643 0
M  V30 3131 C 300.038 0.252252 -5.34105 0
M  V30 3132 C 301.338 -1.8829 -4.8718 0
M  V30 3133 H 303.032 -1.33402 -2.68038 0
M  V30 3134 H 300.578 -0.642904 -1.28852 0
M  V30 3135 H 302.531 0.593016 -4.17207 0
M  V30 3136 H 301.255 1.145 -3.05871 0
M  V30 3137 H 299.914 -0.931138 -3.54578 0
M  V30 3138 H 299.562 1.14278 -4.89846 0
M  V30 3139 H 299.262 -0.32188 -5.86718 0
M  V30 3140 H 300.786 0.586454 -6.07777 0
M  V30 3141 H 302.2 -1.61081 -5.50205 0
M  V30 3142 H 300.597 -2.40199 -5.49931 0
M  V30 3143 H 301.667 -2.59134 -4.09851 0
M  V30 3144 N 303.011 1.40521 -0.713556 0
M  V30 3145 C 303.941 2.33381 -0.0743864 0
M  V30 3146 C 304.922 1.52784 0.747735 0
M  V30 3147 O 306.107 1.81258 0.697071 0
M  V30 3148 C 303.237 3.36748 0.849598 0
M  V30 3149 C 302.191 4.27793 0.133247 0
M  V30 3150 C 301.517 5.21679 1.17281 0
M  V30 3151 C 302.817 5.12415 -1.01134 0
M  V30 3152 H 304.511 2.87081 -0.850007 0
M  V30 3153 H 302.057 1.38034 -0.410201 0
M  V30 3154 H 304.01 4.00648 1.30612 0
M  V30 3155 H 302.734 2.81439 1.65709 0
M  V30 3156 H 301.393 3.65342 -0.303426 0
M  V30 3157 H 301.041 4.62677 1.9733 0
M  V30 3158 H 300.741 5.83435 0.698397 0
M  V30 3159 H 302.265 5.88456 1.62947 0
M  V30 3160 H 303.679 5.69781 -0.634274 0
M  V30 3161 H 302.076 5.83203 -1.41399 0
M  V30 3162 H 303.146 4.48514 -1.84292 0
M  V30 3163 N 304.489 0.459591 1.5075 0
M  V30 3164 C 305.452 -0.329093 2.26825 0
M  V30 3165 C 306.452 -0.930481 1.31144 0
M  V30 3166 O 307.642 -0.801453 1.54669 0
M  V30 3167 C 304.774 -1.46768 3.07688 0
M  V30 3168 H 305.967 0.337924 2.9799 0
M  V30 3169 H 303.52 0.213336 1.54837 0
M  V30 3170 H 304.255 -2.17009 2.40993 0
M  V30 3171 H 304.04 -1.04238 3.77991 0
M  V30 3172 H 305.53 -2.02433 3.65254 0
M  V30 3173 N 305.967 -1.56429 0.191757 0
M  V30 3174 C 307.214 -1.97485 -0.447891 0
M  V30 3175 C 307.542 -1.07852 -1.61859 0
M  V30 3176 O 306.797 -0.116903 -1.95351 0
M  V30 3177 C 307.096 -3.44449 -0.953384 0
M  V30 3178 C 306.762 -4.50781 0.103586 0
M  V30 3179 C 305.424 -4.79584 0.394023 0
M  V30 3180 C 307.776 -5.1471 0.819946 0
M  V30 3181 C 305.104 -5.69607 1.40585 0
M  V30 3182 C 307.456 -6.05827 1.8209 0
M  V30 3183 C 306.12 -6.32987 2.11857 0
M  V30 3184 H 305.39 -0.722648 -0.163895 0
M  V30 3185 H 308.037 -1.89322 0.28802 0
M  V30 3186 H 306.342 -3.49666 -1.76751 0
M  V30 3187 H 308.039 -3.73569 -1.45765 0
M  V30 3188 H 304.629 -4.28394 -0.132951 0
M  V30 3189 H 308.813 -4.92552 0.608789 0
M  V30 3190 H 304.069 -5.88926 1.64243 0
M  V30 3191 H 308.243 -6.54424 2.38123 0
M  V30 3192 H 305.87 -7.02544 2.90407 0
M  V30 3193 N 307.445 0.0818655 -1.57387 0
M  V30 3194 C 308.408 1.08265 -2.02018 0
M  V30 3195 C 309.408 1.32183 -0.915664 0
M  V30 3196 O 310.598 1.28073 -1.18081 0
M  V30 3197 C 307.73 2.42871 -2.39221 0
M  V30 3198 H 308.923 0.698204 -2.91659 0
M  V30 3199 H 306.476 0.327303 -1.52835 0
M  V30 3200 H 307.211 2.86167 -1.52575 0
M  V30 3201 H 306.996 2.26855 -3.19811 0
M  V30 3202 H 308.486 3.14826 -2.74362 0
M  V30 3203 N 308.923 1.53595 0.353017 0
M  V30 3204 C 310.169 1.70638 1.09593 0
M  V30 3205 C 310.502 0.463286 1.88593 0
M  V30 3206 O 309.777 -0.539597 1.86865 0
M  V30 3207 C 310.06 2.96406 2.04489 0
M  V30 3208 C 309.913 4.30901 1.29014 0
M  V30 3209 C 311.232 3.17812 3.0444 0
M  V30 3210 H 308.351 0.620913 0.397034 0
M  V30 3211 H 310.993 1.86254 0.375446 0
M  V30 3212 H 309.143 2.83223 2.65927 0
M  V30 3213 H 310.815 4.55917 0.702638 0
M  V30 3214 H 309.058 4.29741 0.592071 0
M  V30 3215 H 309.729 5.1506 1.98537 0
M  V30 3216 H 312.205 3.30263 2.53112 0
M  V30 3217 H 311.081 4.07223 3.6805 0
M  V30 3218 H 311.342 2.33669 3.75301 0
M  V30 3219 N 310.401 -0.613514 1.45168 0
M  V30 3220 C 311.364 -1.7065 1.53007 0
M  V30 3221 C 312.364 -1.5548 0.410184 0
M  V30 3222 O 313.554 -1.60656 0.673455 0
M  V30 3223 C 310.686 -3.09875 1.42093 0
M  V30 3224 H 311.879 -1.65068 2.50385 0
M  V30 3225 H 309.432 -0.828728 1.32521 0
M  V30 3226 H 310.167 -3.21039 0.458769 0
M  V30 3227 H 309.952 -3.22293 2.23315 0
M  V30 3228 H 311.442 -3.895 1.50598 0
M  V30 3229 N 311.879 -1.3236 -0.855495 0
M  V30 3230 C 313.127 -1.22629 -1.60644 0
M  V30 3231 C 313.448 0.212136 -1.93843 0
M  V30 3232 O 312.718 1.13666 -1.59552 0
M  V30 3233 H 311.298 -0.450882 -0.595579 0
M  V30 3234 H 313.96 -1.65871 -1.02337 0
M  V30 3235 H 313.056 -1.80832 -2.54374 0
M  V30 3236 N 313.357 1.07166 -1.15556 0
M  V30 3237 C 314.603 1.80065 -0.932984 0
M  V30 3238 C 314.936 1.86586 0.53845 0
M  V30 3239 O 314.211 1.35098 1.39924 0
M  V30 3240 C 314.494 3.25022 -1.55025 0
M  V30 3241 C 314.347 3.26634 -3.09242 0
M  V30 3242 C 315.666 4.22341 -1.2376 0
M  V30 3243 H 312.785 0.653697 -0.340366 0
M  V30 3244 H 315.427 1.25389 -1.4275 0
M  V30 3245 H 313.577 3.71712 -1.12972 0
M  V30 3246 H 315.249 2.88173 -3.60214 0
M  V30 3247 H 313.492 2.65539 -3.43033 0
M  V30 3248 H 314.163 4.28854 -3.47546 0
M  V30 3249 H 316.639 3.8405 -1.60139 0
M  V30 3250 H 315.515 5.22053 -1.69564 0
M  V30 3251 H 315.776 4.41828 -0.154938 0
M  V30 3252 N 314.835 0.952656 1.25548 0
M  V30 3253 C 315.768 0.415525 2.24385 0
M  V30 3254 C 316.746 -0.502046 1.54655 0
M  V30 3255 O 317.93 -0.436875 1.83368 0
M  V30 3256 C 315.057 -0.401734 3.36309 0
M  V30 3257 C 314.103 0.455949 4.24056 0
M  V30 3258 S 314.936 1.88698 5.01152 0
M  V30 3259 C 316.092 1.07809 6.16545 0
M  V30 3260 H 316.325 1.25315 2.69599 0
M  V30 3261 H 313.858 0.756587 1.34592 0
M  V30 3262 H 315.816 -0.867329 4.01233 0
M  V30 3263 H 314.477 -1.21416 2.89684 0
M  V30 3264 H 313.67 -0.170776 5.03711 0
M  V30 3265 H 313.272 0.856675 3.64056 0
M  V30 3266 H 315.564 0.325816 6.76716 0
M  V30 3267 H 316.507 1.84849 6.83547 0
M  V30 3268 H 316.915 0.60909 5.61204 0
M  V30 3269 N 316.313 -1.40141 0.720998 0
M  V30 3270 C 317.246 -2.2819 0.020916 0
M  V30 3271 C 318.224 -1.43633 -0.762129 0
M  V30 3272 O 319.408 -1.7304 -0.747633 0
M  V30 3273 C 316.535 -3.24281 -0.977715 0
M  V30 3274 C 315.581 -4.25548 -0.284836 0
M  V30 3275 S 316.414 -5.26247 0.991169 0
M  V30 3276 C 317.57 -6.259 -0.0052214 0
M  V30 3277 H 317.803 -2.87218 0.767649 0
M  V30 3278 H 315.336 -1.45656 0.512233 0
M  V30 3279 H 317.294 -3.80167 -1.54865 0
M  V30 3280 H 315.955 -2.643 -1.69719 0
M  V30 3281 H 315.148 -4.93154 -1.03996 0
M  V30 3282 H 314.75 -3.73389 0.213684 0
M  V30 3283 H 317.042 -6.72143 -0.850279 0
M  V30 3284 H 317.985 -7.05224 0.637599 0
M  V30 3285 H 318.393 -5.63277 -0.371366 0
M  V30 3286 N 317.792 -0.46758 -1.50504 0
M  V30 3287 C 318.74 0.342482 -2.30065 0
M  V30 3288 C 319.734 0.993596 -1.37201 0
M  V30 3289 O 320.94 0.925102 -1.54408 0
M  V30 3290 H 317.315 0.129283 -0.740803 0
M  V30 3291 H 319.286 -0.34899 -2.96352 0
M  V30 3292 C 318.035 1.4139 -3.17654 0
M  V30 3293 H 317.358 0.922264 -3.89017 0
M  V30 3294 H 318.798 1.95335 -3.76325 0
M  V30 3295 C 317.257 2.4139 -2.35016 0
M  V30 3296 O 317.787 3.46586 -2.03079 0
M  V30 3297 N 315.993 2.13021 -1.97662 0
M  V30 3298 H 315.54 1.27499 -2.23834 0
M  V30 3299 H 315.498 2.80164 -1.42673 0
M  V30 3300 N 319.27 1.56325 -0.20005 0
M  V30 3301 C 320.498 2.02105 0.442874 0
M  V30 3302 C 320.913 1.08014 1.5485 0
M  V30 3303 O 320.27 0.0858797 1.82298 0
M  V30 3304 C 320.321 3.47549 0.994583 0
M  V30 3305 O 320.042 4.38049 -0.0669322 0
M  V30 3306 C 321.543 4.0887 1.7129 0
M  V30 3307 H 318.763 0.661807 0.110691 0
M  V30 3308 H 321.307 2.02134 -0.310207 0
M  V30 3309 H 319.462 3.48204 1.69803 0
M  V30 3310 H 319.876 5.23368 0.344462 0
M  V30 3311 H 321.35 5.12475 2.05118 0
M  V30 3312 H 321.827 3.52615 2.61838 0
M  V30 3313 H 322.433 4.12002 1.05518 0
M  V30 3314 N 320.748 -0.0735177 1.57428 0
M  V30 3315 C 321.996 -0.771472 1.86796 0
M  V30 3316 C 322.317 -1.78201 0.791804 0
M  V30 3317 O 321.587 -1.95074 -0.179718 0
M  V30 3318 H 320.167 -0.28791 0.689287 0
M  V30 3319 H 322.829 -0.0500161 1.94836 0
M  V30 3320 H 321.925 -1.28874 2.8425 0
M  V30 3321 N 322.226 -1.5378 -0.344866 0
M  V30 3322 C 323.454 -1.74899 -1.10534 0
M  V30 3323 C 323.869 -0.487534 -1.82397 0
M  V30 3324 O 323.226 0.540741 -1.74305 0
M  V30 3325 C 323.277 -2.92822 -2.11984 0
M  V30 3326 O 322.998 -4.14089 -1.43044 0
M  V30 3327 C 324.499 -3.25982 -3.00417 0
M  V30 3328 H 321.719 -0.584426 -0.329678 0
M  V30 3329 H 324.263 -2.006 -0.397474 0
M  V30 3330 H 322.418 -2.69457 -2.78338 0
M  V30 3331 H 322.832 -4.80272 -2.10805 0
M  V30 3332 H 324.306 -4.11848 -3.67539 0
M  V30 3333 H 324.783 -2.42228 -3.66363 0
M  V30 3334 H 325.389 -3.51349 -2.39654 0
M  V30 3335 N 323.704 0.605807 -1.45491 0
M  V30 3336 C 324.634 1.72709 -1.57143 0
M  V30 3337 C 325.615 1.6476 -0.422884 0
M  V30 3338 O 326.8 1.83132 -0.646247 0
M  V30 3339 C 323.93 3.11316 -1.53948 0
M  V30 3340 C 322.884 3.34077 -2.67537 0
M  V30 3341 C 322.21 4.72975 -2.49397 0
M  V30 3342 C 323.51 3.24158 -4.09535 0
M  V30 3343 H 325.204 1.63214 -2.51001 0
M  V30 3344 H 322.75 0.78379 -1.208 0
M  V30 3345 H 324.703 3.89557 -1.60696 0
M  V30 3346 H 323.427 3.21655 -0.566205 0
M  V30 3347 H 322.086 2.58227 -2.6022 0
M  V30 3348 H 321.734 4.8005 -1.50205 0
M  V30 3349 H 321.434 4.8916 -3.25571 0
M  V30 3350 H 322.958 5.53414 -2.58002 0
M  V30 3351 H 324.372 3.92271 -4.18086 0
M  V30 3352 H 322.769 3.51872 -4.86113 0
M  V30 3353 H 323.839 2.2157 -4.31317 0
M  V30 3354 N 325.182 1.32811 0.848464 0
M  V30 3355 C 326.112 1.24882 1.97299 0
M  V30 3356 C 327.093 0.131357 1.69592 0
M  V30 3357 O 328.278 0.319553 1.91553 0
M  V30 3358 C 325.408 0.97746 3.33261 0
M  V30 3359 C 324.362 2.05682 3.75338 0
M  V30 3360 C 323.688 1.63777 5.09 0
M  V30 3361 C 324.988 3.47254 3.90144 0
M  V30 3362 H 326.682 2.18966 2.04191 0
M  V30 3363 H 324.228 1.05413 0.981029 0
M  V30 3364 H 326.181 0.908513 4.1149 0
M  V30 3365 H 324.905 0.000980011 3.266 0
M  V30 3366 H 323.564 2.11603 2.99366 0
M  V30 3367 H 323.212 0.648569 4.98801 0
M  V30 3368 H 322.912 2.36 5.38124 0
M  V30 3369 H 324.436 1.5833 5.89715 0
M  V30 3370 H 325.85 3.43888 4.58709 0
M  V30 3371 H 324.247 4.1788 4.30693 0
M  V30 3372 H 325.317 3.86462 2.92874 0
M  V30 3373 N 326.66 -1.06551 1.16123 0
M  V30 3374 C 327.593 -2.13382 0.80892 0
M  V30 3375 C 328.571 -1.61128 -0.21827 0
M  V30 3376 O 329.755 -1.88219 -0.102952 0
M  V30 3377 C 326.882 -3.38083 0.204303 0
M  V30 3378 C 325.928 -4.09133 1.20469 0
M  V30 3379 S 326.761 -4.5948 2.75024 0
M  V30 3380 C 327.917 -5.87446 2.16005 0
M  V30 3381 H 328.15 -2.42937 1.71373 0
M  V30 3382 H 325.683 -1.18947 0.984428 0
M  V30 3383 H 327.641 -4.10268 -0.138081 0
M  V30 3384 H 326.302 -3.0669 -0.678234 0
M  V30 3385 H 325.495 -4.98685 0.730019 0
M  V30 3386 H 325.097 -3.4295 1.49202 0
M  V30 3387 H 327.389 -6.60065 1.5271 0
M  V30 3388 H 328.332 -6.39639 3.03756 0
M  V30 3389 H 328.74 -5.41354 1.59989 0
M  V30 3390 N 328.138 -0.959301 -1.25041 0
M  V30 3391 C 329.048 -0.489994 -2.29426 0
M  V30 3392 C 330.064 0.444944 -1.68215 0
M  V30 3393 O 331.24 0.320046 -1.98841 0
M  V30 3394 C 328.305 0.220309 -3.45999 0
M  V30 3395 C 327.366 -0.753418 -4.22637 0
M  V30 3396 C 326.599 -0.076918 -5.33645 0
M  V30 3397 O 326.822 1.13649 -5.58963 0
M  V30 3398 O 325.756 -0.764824 -5.97021 0
M  V30 3399 H 329.582 -1.35755 -2.71669 0
M  V30 3400 H 327.167 -0.725961 -1.30576 0
M  V30 3401 H 329.049 0.619677 -4.16819 0
M  V30 3402 H 327.724 1.06296 -3.0575 0
M  V30 3403 H 326.631 -1.20308 -3.54227 0
M  V30 3404 H 327.964 -1.56423 -4.66683 0
M  V30 3405 N 329.616 1.39756 -0.72842 0
M  V30 3406 C 330.862 2.01425 -0.282761 0
M  V30 3407 C 331.217 1.56754 1.11561 0
M  V30 3408 O 330.51 0.783482 1.74849 0
M  V30 3409 C 330.704 3.56002 -0.315776 0
M  V30 3410 C 330.533 4.1568 -1.71582 0
M  V30 3411 C 329.303 4.48555 -2.32651 0
M  V30 3412 C 331.501 4.39667 -2.66829 0
M  V30 3413 N 329.483 4.93698 -3.64877 0
M  V30 3414 C 330.854 4.86942 -3.8378 0
M  V30 3415 C 332.909 4.21724 -2.64675 0
M  V30 3416 C 331.612 5.18158 -4.98904 0
M  V30 3417 C 333.638 4.54049 -3.78937 0
M  V30 3418 C 333 5.01525 -4.94623 0
M  V30 3419 H 329.099 0.76756 -0.149583 0
M  V30 3420 H 331.683 1.69784 -0.952976 0
M  V30 3421 H 329.854 3.87046 0.324057 0
M  V30 3422 H 331.586 4.0443 0.147808 0
M  V30 3423 H 328.341 4.36128 -1.84633 0
M  V30 3424 H 328.765 5.20635 -4.32744 0
M  V30 3425 H 333.407 3.84228 -1.76433 0
M  V30 3426 H 331.125 5.54562 -5.87781 0
M  V30 3427 H 334.711 4.41795 -3.78561 0
M  V30 3428 H 333.591 5.26065 -5.81572 0
M  V30 3429 N 331.094 0.475555 1.50254 0
M  V30 3430 C 332.322 -0.0754493 2.06762 0
M  V30 3431 C 332.737 -1.33111 1.33891 0
M  V30 3432 O 332.094 -1.77846 0.40952 0
M  V30 3433 C 332.145 -0.359008 3.59713 0
M  V30 3434 O 331.866 0.846851 4.29837 0
M  V30 3435 C 333.367 -0.956484 4.32858 0
M  V30 3436 H 330.587 0.00907525 0.670939 0
M  V30 3437 H 333.131 0.665618 1.93364 0
M  V30 3438 H 331.286 -1.05001 3.72899 0
M  V30 3439 H 331.7 0.594162 5.21124 0
M  V30 3440 H 333.174 -1.10463 5.40834 0
M  V30 3441 H 333.651 -1.94775 3.93649 0
M  V30 3442 H 334.257 -0.303723 4.24214 0
M  V30 3443 N 332.573 -1.56217 0.208337 0
M  V30 3444 C 333.536 -2.18455 -0.693557 0
M  V30 3445 C 334.536 -1.14268 -1.13135 0
M  V30 3446 O 335.726 -1.39577 -1.0423 0
M  V30 3447 C 332.858 -2.79727 -1.94848 0
M  V30 3448 H 334.051 -2.99519 -0.15114 0
M  V30 3449 H 331.604 -1.56245 -0.041287 0
M  V30 3450 H 332.339 -2.02497 -2.53309 0
M  V30 3451 H 332.124 -3.56009 -1.64316 0
M  V30 3452 H 333.614 -3.27475 -2.59133 0
M  V30 3453 N 334.051 0.0651679 -1.57465 0
M  V30 3454 C 335.014 1.06117 -2.03155 0
M  V30 3455 C 336.014 1.31204 -0.929632 0
M  V30 3456 O 337.204 1.26813 -1.19432 0
M  V30 3457 C 334.336 2.4032 -2.41783 0
M  V30 3458 H 335.529 0.667231 -2.92383 0
M  V30 3459 H 333.082 0.311075 -1.53173 0
M  V30 3460 H 333.817 2.84532 -1.55601 0
M  V30 3461 H 333.602 2.23451 -3.22199 0
M  V30 3462 H 335.092 3.11898 -2.77685 0
M  V30 3463 N 335.529 1.53961 0.336706 0
M  V30 3464 C 336.945 1.44378 0.680241 0
M  V30 3465 C 337.145 0.606034 1.9217 0
M  V30 3466 O 336.201 0.099688 2.52303 0
M  V30 3467 C 337.514 2.87945 0.8665 0
M  V30 3468 C 339.062 2.97763 0.964682 0
M  V30 3469 C 339.537 4.42453 1.18321 0
M  V30 3470 N 341.028 4.46008 1.25025 0
M  V30 3471 C 341.763 5.55102 1.43697 0
M  V30 3472 N 341.259 6.7419 1.59498 0
M  V30 3473 N 343.052 5.42727 1.463 0
M  V30 3474 H 335.203 2.06918 -0.479455 0
M  V30 3475 H 337.466 0.935634 -0.152619 0
M  V30 3476 H 337.172 3.51691 0.0256937 0
M  V30 3477 H 337.046 3.33293 1.76623 0
M  V30 3478 H 339.433 2.34153 1.796 0
M  V30 3479 H 339.514 2.55766 0.041708 0
M  V30 3480 H 339.158 5.06645 0.356788 0
M  V30 3481 H 339.088 4.82048 2.11985 0
M  V30 3482 H 341.579 3.60196 1.14312 0
M  V30 3483 H 341.892 7.53095 1.734 0
M  V30 3484 H 340.237 6.77123 1.56621 0
M  V30 3485 H 343.428 4.48647 1.33543 0
M  V30 3486 H 343.601 6.27806 1.6051 0
M  V30 3487 N 337.007 -0.598083 1.45811 0
M  V30 3488 C 337.97 -1.69018 1.54808 0
M  V30 3489 C 338.97 -1.55037 0.426652 0
M  V30 3490 O 340.16 -1.59932 0.690456 0
M  V30 3491 C 337.292 -3.0835 1.45371 0
M  V30 3492 H 338.485 -1.62403 2.52121 0
M  V30 3493 H 336.038 -0.814626 1.33392 0
M  V30 3494 H 336.773 -3.20534 0.492793 0
M  V30 3495 H 336.558 -3.19907 2.26721 0
M  V30 3496 H 338.048 -3.8788 1.54721 0
M  V30 3497 N 338.485 -1.33259 -0.841409 0
M  V30 3498 C 339.901 -1.12538 -1.13169 0
M  V30 3499 C 340.101 0.0854037 -2.01319 0
M  V30 3500 O 339.157 0.766417 -2.40587 0
M  V30 3501 C 340.47 -2.41156 -1.79623 0
M  V30 3502 C 342.018 -2.47038 -1.922 0
M  V30 3503 C 342.493 -3.7561 -2.6207 0
M  V30 3504 N 343.984 -3.76667 -2.69585 0
M  V30 3505 C 344.719 -4.72861 -3.2433 0
M  V30 3506 N 344.215 -5.79428 -3.79783 0
M  V30 3507 N 346.008 -4.6034 -3.22558 0
M  V30 3508 H 338.159 -2.10868 -0.254676 0
M  V30 3509 H 340.422 -0.931615 -0.175493 0
M  V30 3510 H 340.128 -3.29747 -1.22311 0
M  V30 3511 H 340.002 -2.53114 -2.79666 0
M  V30 3512 H 342.389 -1.58898 -2.48667 0
M  V30 3513 H 342.47 -2.39022 -0.911148 0
M  V30 3514 H 342.114 -4.64131 -2.06263 0
M  V30 3515 H 342.044 -3.80902 -3.63622 0
M  V30 3516 H 344.535 -2.99648 -2.30259 0
M  V30 3517 H 344.848 -6.48867 -4.19752 0
M  V30 3518 H 343.193 -5.83166 -3.78078 0
M  V30 3519 H 346.384 -3.76244 -2.78492 0
M  V30 3520 H 346.557 -5.35478 -3.64921 0
M  V30 3521 N 339.963 1.05934 -1.16686 0
M  V30 3522 C 341.374 1.60263 -0.957745 0
M  V30 3523 C 341.725 1.89789 0.49745 0
M  V30 3524 O 340.85 1.67401 1.37135 0
M  V30 3525 C 341.445 2.91172 -1.73218 0
M  V30 3526 C 340.004 3.42188 -1.56794 0
M  V30 3527 C 339.151 2.16028 -1.73859 0
M  V30 3528 H 342.102 0.888392 -1.31504 0
M  V30 3529 H 342.123 3.60744 -1.21014 0
M  V30 3530 H 341.635 2.6965 -2.79124 0
M  V30 3531 H 339.736 3.68762 -0.533437 0
M  V30 3532 H 339.849 4.17273 -2.35414 0
M  V30 3533 H 338.213 2.26426 -1.16633 0
M  V30 3534 H 338.996 1.96985 -2.81161 0
M  V30 3535 N 341.441 0.965919 1.2453 0
M  V30 3536 C 342.371 0.513476 2.27784 0
M  V30 3537 C 343.352 -0.445974 1.6415 0
M  V30 3538 O 344.537 -0.342485 1.91156 0
M  V30 3539 C 341.667 -0.198839 3.4673 0
M  V30 3540 C 340.621 0.676456 4.2262 0
M  V30 3541 C 339.947 -0.167248 5.34438 0
M  V30 3542 C 341.247 1.96017 4.84123 0
M  V30 3543 H 342.941 1.3765 2.65881 0
M  V30 3544 H 340.487 0.663321 1.27813 0
M  V30 3545 H 342.44 -0.526567 4.18097 0
M  V30 3546 H 341.164 -1.0962 3.07654 0
M  V30 3547 H 339.823 0.98743 3.53052 0
M  V30 3548 H 339.471 -1.0647 4.91603 0
M  V30 3549 H 339.171 0.415181 5.86131 0
M  V30 3550 H 340.695 -0.489688 6.08633 0
M  V30 3551 H 342.109 1.69814 5.47573 0
M  V30 3552 H 340.506 2.48918 5.4604 0
M  V30 3553 H 341.576 2.65622 4.05676 0
M  V30 3554 N 342.919 -1.39368 0.735821 0
M  V30 3555 C 344.165 -2.00794 0.284544 0
M  V30 3556 C 344.498 -1.58255 -1.12557 0
M  V30 3557 O 343.773 -0.811819 -1.76748 0
M  V30 3558 C 344.056 -3.58011 0.387337 0
M  V30 3559 C 343.909 -4.10566 1.83728 0
M  V30 3560 C 345.228 -4.395 -0.22975 0
M  V30 3561 H 342.347 -0.729501 0.104866 0
M  V30 3562 H 344.989 -1.65564 0.93213 0
M  V30 3563 H 343.139 -3.88154 -0.164006 0
M  V30 3564 H 344.811 -3.91139 2.44556 0
M  V30 3565 H 343.054 -3.64095 2.35833 0
M  V30 3566 H 343.725 -5.19702 1.86047 0
M  V30 3567 H 346.201 -4.15406 0.240257 0
M  V30 3568 H 345.077 -5.48752 -0.127485 0
M  V30 3569 H 345.338 -4.22062 -1.3159 0
M  V30 3570 N 344.397 -0.483516 -1.5 0
M  V30 3571 C 345.33 0.350427 -2.25493 0
M  V30 3572 C 346.308 0.985549 -1.29328 0
M  V30 3573 O 347.492 1.01906 -1.58579 0
M  V30 3574 C 344.619 1.49202 -3.04066 0
M  V30 3575 C 343.665 0.973036 -4.15252 0
M  V30 3576 S 344.498 -0.122237 -5.3536 0
M  V30 3577 C 345.654 1.02294 -6.17484 0
M  V30 3578 H 345.887 -0.290381 -2.95878 0
M  V30 3579 H 343.42 -0.268562 -1.52046 0
M  V30 3580 H 345.378 2.14623 -3.49925 0
M  V30 3581 H 344.039 2.10438 -2.33183 0
M  V30 3582 H 343.232 1.82804 -4.69679 0
M  V30 3583 H 342.834 0.396335 -3.71894 0
M  V30 3584 H 345.126 1.93195 -6.49371 0
M  V30 3585 H 346.069 0.517664 -7.06205 0
M  V30 3586 H 346.477 1.28238 -5.49741 0
M  V30 3587 N 345.875 1.56104 -0.216619 0
M  V30 3588 C 347.103 2.02563 0.421413 0
M  V30 3589 C 347.518 1.0965 1.53695 0
M  V30 3590 O 346.875 0.10521 1.82196 0
M  V30 3591 C 346.926 3.48584 0.957665 0
M  V30 3592 O 346.647 4.37953 -0.113389 0
M  V30 3593 C 348.148 4.10664 1.66943 0
M  V30 3594 H 345.368 0.662944 0.103665 0
M  V30 3595 H 347.912 2.01793 -0.331629 0
M  V30 3596 H 346.067 3.49985 1.661 0
M  V30 3597 H 346.481 5.23704 0.288932 0
M  V30 3598 H 347.955 5.14622 1.99671 0
M  V30 3599 H 348.432 3.55373 2.58083 0
M  V30 3600 H 349.038 4.13098 1.01142 0
M  V30 3601 N 347.353 -0.0568162 1.57498 0
M  V30 3602 C 348.283 -1.06593 2.0775 0
M  V30 3603 C 349.264 -1.39448 0.974082 0
M  V30 3604 O 350.449 -1.48815 1.24771 0
M  V30 3605 C 347.579 -2.37509 2.5339 0
M  V30 3606 C 346.533 -2.1897 3.67745 0
M  V30 3607 C 345.859 -3.55402 3.99492 0
M  V30 3608 C 347.159 -1.59859 4.97235 0
M  V30 3609 H 348.853 -0.647706 2.9231 0
M  V30 3610 H 346.399 -0.310116 1.40621 0
M  V30 3611 H 348.352 -3.08409 2.87162 0
M  V30 3612 H 347.076 -2.8134 1.65878 0
M  V30 3613 H 345.735 -1.50508 3.3428 0
M  V30 3614 H 345.383 -3.9683 3.09088 0
M  V30 3615 H 345.083 -3.43831 4.76502 0
M  V30 3616 H 346.607 -4.27708 4.35773 0
M  V30 3617 H 348.021 -2.20642 5.29141 0
M  V30 3618 H 346.418 -1.58942 5.78669 0
M  V30 3619 H 347.488 -0.561506 4.81638 0
M  V30 3620 N 348.832 -1.54138 -0.328536 0
M  V30 3621 C 349.78 -1.83894 -1.42428 0
M  V30 3622 C 350.774 -0.710478 -1.53781 0
M  V30 3623 O 351.98 -0.894062 -1.56226 0
M  V30 3624 H 348.355 -0.582837 -0.475189 0
M  V30 3625 H 350.326 -2.75537 -1.14552 0
M  V30 3626 C 349.075 -2.07866 -2.78724 0
M  V30 3627 H 348.398 -2.94158 -2.7076 0
M  V30 3628 H 349.838 -2.32644 -3.54476 0
M  V30 3629 C 348.297 -0.868689 -3.25508 0
M  V30 3630 O 348.827 -0.0754908 -4.01629 0
M  V30 3631 N 347.033 -0.681711 -2.82491 0
M  V30 3632 H 346.58 -1.32838 -2.20708 0
M  V30 3633 H 346.538 0.126374 -3.14146 0
M  V30 3634 N 350.31 0.590341 -1.46126 0
M  V30 3635 C 351.535 1.37991 -1.54833 0
M  V30 3636 C 351.96 1.87163 -0.187506 0
M  V30 3637 O 351.318 1.61133 0.831008 0
M  V30 3638 C 351.366 2.54867 -2.55098 0
M  V30 3639 O 350.47 3.56061 -2.08073 0
M  V30 3640 H 349.811 0.411265 -0.521303 0
M  V30 3641 H 352.341 0.716819 -1.91632 0
M  V30 3642 H 352.351 3.01886 -2.74461 0
M  V30 3643 H 351.026 2.18429 -3.53923 0
M  V30 3644 H 349.603 3.15574 -1.98664 0
M  V30 3645 N 351.788 1.33704 0.83433 0
M  V30 3646 C 352.718 1.26967 1.95963 0
M  V30 3647 C 353.699 0.149337 1.69443 0
M  V30 3648 O 354.884 0.339852 1.91203 0
M  V30 3649 C 352.014 1.01275 3.32206 0
M  V30 3650 C 350.968 2.09652 3.73136 0
M  V30 3651 C 350.294 1.69166 5.07235 0
M  V30 3652 C 351.594 3.51372 3.86439 0
M  V30 3653 H 353.288 2.2112 2.01857 0
M  V30 3654 H 350.834 1.06447 0.969793 0
M  V30 3655 H 352.787 0.952106 4.10503 0
M  V30 3656 H 351.511 0.0356203 3.26581 0
M  V30 3657 H 350.17 2.14766 2.97104 0
M  V30 3658 H 349.818 0.701437 4.98085 0
M  V30 3659 H 349.518 2.41694 5.35591 0
M  V30 3660 H 351.042 1.64576 5.88003 0
M  V30 3661 H 352.456 3.48734 4.55036 0
M  V30 3662 H 350.853 4.22425 4.26236 0
M  V30 3663 H 351.923 3.89546 2.88759 0
M  V30 3664 N 353.266 -1.05314 1.17247 0
M  V30 3665 C 354.514 -1.77941 0.958194 0
M  V30 3666 C 354.835 -1.88089 -0.514556 0
M  V30 3667 O 354.105 -1.39676 -1.37359 0
M  V30 3668 H 352.685 -0.659116 0.351533 0
M  V30 3669 H 355.347 -1.27166 1.47699 0
M  V30 3670 H 354.443 -2.79663 1.38546 0
M  V30 3671 N 354.744 -0.972509 -1.24016 0
M  V30 3672 C 355.991 -0.637034 -1.92219 0
M  V30 3673 C 356.319 0.828418 -1.75976 0
M  V30 3674 O 355.574 1.61206 -1.10955 0
M  V30 3675 C 355.873 -0.963694 -3.44162 0
M  V30 3676 C 355.539 -2.41807 -3.80579 0
M  V30 3677 C 354.201 -2.81556 -3.9023 0
M  V30 3678 C 356.553 -3.36172 -3.98293 0
M  V30 3679 C 353.881 -4.14702 -4.15017 0
M  V30 3680 C 356.233 -4.68952 -4.24578 0
M  V30 3681 C 354.897 -5.08472 -4.32449 0
M  V30 3682 H 354.167 -0.233107 -0.703379 0
M  V30 3683 H 356.814 -1.2249 -1.47202 0
M  V30 3684 H 355.119 -0.29365 -3.90698 0
M  V30 3685 H 356.816 -0.682449 -3.9515 0
M  V30 3686 H 353.406 -2.09988 -3.73635 0
M  V30 3687 H 357.59 -3.06644 -3.90234 0
M  V30 3688 H 352.846 -4.4494 -4.19331 0
M  V30 3689 H 357.02 -5.42037 -4.37229 0
M  V30 3690 H 354.647 -6.11665 -4.51409 0
M  V30 3691 N 356.222 1.38976 -0.743202 0
M  V30 3692 C 357.447 2.05161 -0.303936 0
M  V30 3693 C 357.872 1.55677 1.05576 0
M  V30 3694 O 357.23 0.704131 1.67068 0
M  V30 3695 C 357.278 3.59138 -0.324373 0
M  V30 3696 O 356.382 4.06668 0.685204 0
M  V30 3697 H 355.723 0.649815 -0.136518 0
M  V30 3698 H 358.253 1.77852 -1.01142 0
M  V30 3699 H 358.263 4.07639 -0.171618 0
M  V30 3700 H 356.938 3.94515 -1.31647 0
M  V30 3701 H 355.515 3.69561 0.497913 0
M  V30 3702 N 357.7 0.491464 1.49741 0
M  V30 3703 C 358.947 -0.0564256 2.02421 0
M  V30 3704 C 359.275 -1.37872 1.37192 0
M  V30 3705 O 358.53 -1.89375 0.493508 0
M  V30 3706 C 358.829 -0.267329 3.56399 0
M  V30 3707 C 358.495 0.975775 4.40215 0
M  V30 3708 C 357.157 1.31655 4.62839 0
M  V30 3709 C 359.509 1.80251 4.89039 0
M  V30 3710 C 356.837 2.48375 5.31532 0
M  V30 3711 C 359.189 2.96116 5.59015 0
M  V30 3712 C 357.853 3.30585 5.79888 0
M  V30 3713 H 357.123 -0.0206476 0.740712 0
M  V30 3714 H 359.77 0.649686 1.80143 0
M  V30 3715 H 358.075 -1.05588 3.77304 0
M  V30 3716 H 359.772 -0.705549 3.94744 0
M  V30 3717 H 356.362 0.700315 4.2284 0
M  V30 3718 H 360.546 1.55239 4.71396 0
M  V30 3719 H 355.802 2.7533 5.45897 0
M  V30 3720 H 359.976 3.60509 5.95824 0
M  V30 3721 H 357.603 4.21132 6.32892 0
M  V30 3722 N 359.178 -1.55987 0.224894 0
M  V30 3723 C 360.426 -1.97998 -0.405099 0
M  V30 3724 C 360.747 -1.11387 -1.60056 0
M  V30 3725 O 360.017 -0.191645 -1.9496 0
M  V30 3726 H 358.597 -0.731235 -0.152658 0
M  V30 3727 H 361.259 -1.92279 0.318567 0
M  V30 3728 H 360.355 -3.03463 -0.729167 0
M  V30 3729 N 360.656 0.0484629 -1.57525 0
M  V30 3730 C 361.606 1.06246 -2.01732 0
M  V30 3731 C 362.59 1.33155 -0.903245 0
M  V30 3732 O 363.782 1.33065 -1.16717 0
M  V30 3733 C 360.911 2.36943 -2.48421 0
M  V30 3734 C 359.997 2.13208 -3.6661 0
M  V30 3735 N 360.388 1.5947 -4.80003 0
M  V30 3736 C 358.686 2.43581 -3.7361 0
M  V30 3737 C 359.387 1.51092 -5.61735 0
M  V30 3738 N 358.363 1.9797 -5.0627 0
M  V30 3739 H 362.165 0.640675 -2.86832 0
M  V30 3740 H 359.679 0.255134 -1.60383 0
M  V30 3741 H 361.676 3.10374 -2.78341 0
M  V30 3742 H 360.336 2.79818 -1.64718 0
M  V30 3743 H 361.347 1.28008 -5.01831 0
M  V30 3744 H 358.024 2.89662 -3.00669 0
M  V30 3745 H 359.414 1.10199 -6.62801 0
M  V30 3746 N 362.134 1.5431 0.320358 0
M  V30 3747 C 363.382 1.72327 1.05583 0
M  V30 3748 C 363.703 0.50149 1.88441 0
M  V30 3749 O 362.973 -0.48448 1.89815 0
M  V30 3750 H 361.553 0.635387 0.3928 0
M  V30 3751 H 364.215 1.91621 0.356019 0
M  V30 3752 H 363.311 2.60426 1.72003 0
M  V30 3753 N 363.613 -0.582584 1.46437 0
M  V30 3754 C 364.543 -1.70187 1.59871 0
M  V30 3755 C 365.524 -1.64066 0.449042 0
M  V30 3756 O 366.709 -1.82081 0.6753 0
M  V30 3757 C 363.839 -3.08827 1.58881 0
M  V30 3758 C 362.793 -3.29779 2.72819 0
M  V30 3759 C 362.119 -4.68947 2.5689 0
M  V30 3760 C 363.419 -3.17601 4.1464 0
M  V30 3761 H 365.113 -1.592 2.53566 0
M  V30 3762 H 362.659 -0.764472 1.22032 0
M  V30 3763 H 364.612 -3.86951 1.66873 0
M  V30 3764 H 363.336 -3.20713 0.617306 0
M  V30 3765 H 361.995 -2.54054 2.64296 0
M  V30 3766 H 361.643 -4.77599 1.57823 0
M  V30 3767 H 361.343 -4.83919 3.33312 0
M  V30 3768 H 362.867 -5.4924 2.66773 0
M  V30 3769 H 364.281 -3.8557 4.24274 0
M  V30 3770 H 362.678 -3.44094 4.9165 0
M  V30 3771 H 363.748 -2.14681 4.34788 0
M  V30 3772 N 365.091 -1.34144 -0.827227 0
M  V30 3773 C 366.319 -1.29325 -1.61501 0
M  V30 3774 C 366.734 0.13354 -1.88327 0
M  V30 3775 O 366.091 1.0793 -1.47164 0
M  V30 3776 C 366.142 -2.07746 -2.95844 0
M  V30 3777 O 365.863 -3.4486 -2.70191 0
M  V30 3778 C 367.364 -2.10273 -3.90256 0
M  V30 3779 H 364.584 -0.445069 -0.50215 0
M  V30 3780 H 367.128 -1.76693 -1.02955 0
M  V30 3781 H 365.283 -1.6403 -3.5096 0
M  V30 3782 H 365.697 -3.85345 -3.55822 0
M  V30 3783 H 367.171 -2.69575 -4.81698 0
M  V30 3784 H 367.648 -1.096 -4.25305 0
M  V30 3785 H 368.254 -2.54059 -3.41078 0
M  V30 3786 N 366.569 1.04691 -1.17803 0
M  V30 3787 C 367.532 2.10724 -0.901545 0
M  V30 3788 C 368.532 1.6042 0.110437 0
M  V30 3789 O 369.722 1.7377 -0.122303 0
M  V30 3790 C 366.854 3.39084 -0.351409 0
M  V30 3791 H 368.047 2.36686 -1.84174 0
M  V30 3792 H 365.6 1.21015 -0.98919 0
M  V30 3793 H 366.335 3.18782 0.59569 0
M  V30 3794 H 366.12 3.76909 -1.08083 0
M  V30 3795 H 367.61 4.17227 -0.176451 0
M  V30 3796 N 368.047 0.979072 1.23499 0
M  V30 3797 C 369.01 0.523244 2.23147 0
M  V30 3798 C 370.01 -0.386406 1.56088 0
M  V30 3799 O 371.2 -0.180283 1.73265 0
M  V30 3800 C 368.332 -0.240739 3.40049 0
M  V30 3801 H 369.525 1.40432 2.64989 0
M  V30 3802 H 367.078 0.764824 1.36309 0
M  V30 3803 H 367.813 -1.13841 3.03662 0
M  V30 3804 H 367.598 0.412207 3.89927 0
M  V30 3805 H 369.088 -0.548297 4.13985 0
M  V30 3806 N 369.525 -1.3858 0.750561 0
M  V30 3807 C 370.771 -2.00481 0.305825 0
M  V30 3808 C 371.104 -1.5944 -1.10872 0
M  V30 3809 O 370.379 -0.83052 -1.75877 0
M  V30 3810 C 370.662 -3.5758 0.425287 0
M  V30 3811 C 370.515 -4.08594 1.88072 0
M  V30 3812 C 371.834 -4.39719 -0.183122 0
M  V30 3813 H 368.953 -0.728348 0.112598 0
M  V30 3814 H 371.595 -1.64566 0.949638 0
M  V30 3815 H 369.745 -3.88306 -0.122828 0
M  V30 3816 H 371.417 -3.88523 2.48691 0
M  V30 3817 H 369.66 -3.61574 2.39681 0
M  V30 3818 H 370.331 -5.177 1.91548 0
M  V30 3819 H 372.807 -4.15128 0.284303 0
M  V30 3820 H 371.683 -5.48856 -0.0692757 0
M  V30 3821 H 371.944 -4.23434 -1.27106 0
M  V30 3822 N 371.003 -0.499398 -1.49478 0
M  V30 3823 C 371.966 0.268838 -2.27618 0
M  V30 3824 C 372.966 0.895383 -1.33565 0
M  V30 3825 O 374.156 0.760164 -1.56739 0
M  V30 3826 C 371.288 1.38559 -3.11471 0
M  V30 3827 H 372.481 -0.416812 -2.96989 0
M  V30 3828 H 370.034 -0.254313 -1.54217 0
M  V30 3829 H 370.769 2.10544 -2.46661 0
M  V30 3830 H 370.554 0.941797 -3.80621 0
M  V30 3831 H 372.044 1.92678 -3.70493 0
M  V30 3832 N 372.481 1.55866 -0.233164 0
M  V30 3833 C 373.711 2.02704 0.399325 0
M  V30 3834 C 374.119 1.11204 1.53069 0
M  V30 3835 O 373.462 0.116182 1.83332 0
M  V30 3836 C 373.524 3.45844 0.981429 0
M  V30 3837 C 373.188 4.56997 -0.0159561 0
M  V30 3838 C 374.185 5.13384 -0.820552 0
M  V30 3839 C 371.87 5.0211 -0.138072 0
M  V30 3840 C 373.864 6.13365 -1.73386 0
M  V30 3841 C 371.551 6.01926 -1.0549 0
M  V30 3842 C 372.549 6.57431 -1.85132 0
M  V30 3843 O 372.237 7.55302 -2.75272 0
M  V30 3844 H 371.969 0.668459 0.100692 0
M  V30 3845 H 374.523 2.02387 -0.35052 0
M  V30 3846 H 372.753 3.43267 1.78058 0
M  V30 3847 H 374.442 3.76262 1.52255 0
M  V30 3848 H 375.208 4.79372 -0.736721 0
M  V30 3849 H 371.087 4.5858 0.471737 0
M  V30 3850 H 374.631 6.56614 -2.35592 0
M  V30 3851 H 370.528 6.35359 -1.1397 0
M  V30 3852 H 371.296 7.72867 -2.69477 0
M  V30 3853 N 373.959 -0.0401083 1.57549 0
M  V30 3854 C 375.207 -0.731677 1.8839 0
M  V30 3855 C 375.528 -1.76481 0.829425 0
M  V30 3856 O 374.798 -1.95411 -0.1383 0
M  V30 3857 H 373.378 -0.273225 0.695239 0
M  V30 3858 H 376.04 -0.00867725 1.94898 0
M  V30 3859 H 375.136 -1.22816 2.86919 0
M  V30 3860 N 375.437 -1.54477 -0.31217 0
M  V30 3861 C 376.683 -1.73483 -1.0503 0
M  V30 3862 C 377.016 -0.513125 -1.87298 0
M  V30 3863 O 376.291 0.489864 -1.8823 0
M  V30 3864 C 376.574 -3.01723 -1.96558 0
M  V30 3865 C 376.427 -4.3417 -1.17545 0
M  V30 3866 C 377.746 -3.25772 -2.95907 0
M  V30 3867 H 374.865 -0.631222 -0.380432 0
M  V30 3868 H 377.507 -1.87184 -0.325932 0
M  V30 3869 H 375.657 -2.90174 -2.58324 0
M  V30 3870 H 377.329 -4.5762 -0.581513 0
M  V30 3871 H 375.572 -4.31159 -0.477925 0
M  V30 3872 H 376.243 -5.20143 -1.84811 0
M  V30 3873 H 378.719 -3.36857 -2.44267 0
M  V30 3874 H 377.595 -4.16838 -3.57123 0
M  V30 3875 H 377.856 -2.43537 -3.68974 0
M  V30 3876 N 376.915 0.57481 -1.46744 0
M  V30 3877 C 378.331 0.898981 -1.31873 0
M  V30 3878 C 378.531 1.99313 -0.29605 0
M  V30 3879 O 377.587 2.50728 0.298621 0
M  V30 3880 C 378.9 1.30886 -2.7072 0
M  V30 3881 C 380.448 1.42127 -2.78871 0
M  V30 3882 C 380.923 1.86478 -4.18318 0
M  V30 3883 N 382.414 1.93658 -4.20774 0
M  V30 3884 C 383.149 2.29267 -5.2557 0
M  V30 3885 N 382.645 2.63612 -6.40688 0
M  V30 3886 N 384.438 2.29889 -5.1294 0
M  V30 3887 H 376.589 -0.147839 -2.11885 0
M  V30 3888 H 378.852 -0.00347013 -0.947994 0
M  V30 3889 H 378.558 0.578853 -3.46904 0
M  V30 3890 H 378.432 2.26874 -3.01343 0
M  V30 3891 H 380.819 2.14213 -2.0297 0
M  V30 3892 H 380.9 0.443705 -2.51922 0
M  V30 3893 H 380.544 1.14968 -4.94717 0
M  V30 3894 H 380.474 2.85207 -4.42679 0
M  V30 3895 H 382.965 1.69574 -3.37718 0
M  V30 3896 H 383.278 2.89759 -7.16421 0
M  V30 3897 H 381.623 2.61232 -6.44036 0
M  V30 3898 H 384.814 2.02485 -4.22039 0
M  V30 3899 H 384.987 2.57312 -5.94722 0
M  V30 3900 N 378.394 1.34581 0.820102 0
M  V30 3901 C 379.671 1.17675 1.56244 0
M  V30 3902 C 380.051 -0.249541 2.0962 0
M  V30 3903 O 379.399 -1.25125 1.91196 0
M  V30 3904 C 379.609 2.23364 2.6816 0
M  V30 3905 C 380.957 2.58485 3.36854 0
M  V30 3906 O 381.981 2.22175 2.78418 0
M  V30 3907 O 380.84 3.20868 4.42386 0
M  V30 3908 H 377.934 0.456333 0.689702 0
M  V30 3909 H 380.48 1.46222 0.861231 0
M  V30 3910 H 379.252 3.19087 2.26493 0
M  V30 3911 H 378.875 1.96009 3.45928 0
M  V30 3912 N 379.872 -1.04064 1.18357 0
M  V30 3913 C 381.118 -1.77658 0.990412 0
M  V30 3914 C 381.473 -1.86446 -0.474944 0
M  V30 3915 O 380.766 -1.36153 -1.34807 0
M  V30 3916 C 380.96 -3.20634 1.57888 0
M  V30 3917 C 380.789 -3.25782 3.09994 0
M  V30 3918 C 379.559 -3.34411 3.7881 0
M  V30 3919 C 381.757 -3.13791 4.0748 0
M  V30 3920 N 379.739 -3.28809 5.18418 0
M  V30 3921 C 381.11 -3.15689 5.33611 0
M  V30 3922 C 383.165 -2.97833 3.98998 0
M  V30 3923 C 381.868 -3.03268 6.52243 0
M  V30 3924 C 383.894 -2.86759 5.17227 0
M  V30 3925 C 383.256 -2.893 6.4225 0
M  V30 3926 H 379.355 -0.661901 0.416427 0
M  V30 3927 H 381.939 -1.23968 1.50133 0
M  V30 3928 H 380.11 -3.7267 1.09414 0
M  V30 3929 H 381.842 -3.82525 1.32124 0
M  V30 3930 H 378.597 -3.40144 3.29543 0
M  V30 3931 H 379.021 -3.29448 5.91433 0
M  V30 3932 H 383.663 -2.94698 3.03171 0
M  V30 3933 H 381.381 -3.05156 7.48268 0
M  V30 3934 H 384.967 -2.75465 5.12455 0
M  V30 3935 H 383.847 -2.80818 7.32196 0
M  V30 3936 N 381.35 -0.985608 -1.22978 0
M  V30 3937 C 382.578 -0.675582 -1.95559 0
M  V30 3938 C 382.993 0.758413 -1.72897 0
M  V30 3939 O 382.35 1.51094 -1.02357 0
M  V30 3940 C 382.401 -0.96293 -3.48439 0
M  V30 3941 O 382.122 -2.34057 -3.70336 0
M  V30 3942 C 383.623 -0.669585 -4.38214 0
M  V30 3943 H 380.843 -0.250523 -0.622478 0
M  V30 3944 H 383.387 -1.3184 -1.56328 0
M  V30 3945 H 381.542 -0.366033 -3.85667 0
M  V30 3946 H 381.956 -2.43424 -4.64591 0
M  V30 3947 H 383.43 -0.920967 -5.44263 0
M  V30 3948 H 383.907 0.396383 -4.37408 0
M  V30 3949 H 384.513 -1.2472 -4.06602 0
M  V30 3950 N 382.828 1.3818 -0.7579 0
M  V30 3951 C 383.758 2.33027 -0.148597 0
M  V30 3952 C 384.739 1.55085 0.69875 0
M  V30 3953 O 385.924 1.83384 0.639053 0
M  V30 3954 C 383.054 3.3928 0.742034 0
M  V30 3955 C 382.008 4.28 -0.00291946 0
M  V30 3956 C 381.334 5.25146 1.00625 0
M  V30 3957 C 382.634 5.08938 -1.17385 0
M  V30 3958 H 384.328 2.84231 -0.940909 0
M  V30 3959 H 381.874 1.36659 -0.453908 0
M  V30 3960 H 383.827 4.046 1.17799 0
M  V30 3961 H 382.551 2.86569 1.56671 0
M  V30 3962 H 381.21 3.64192 -0.419504 0
M  V30 3963 H 380.858 4.68721 1.8251 0
M  V30 3964 H 380.558 5.85361 0.512428 0
M  V30 3965 H 382.082 5.93342 1.44143 0
M  V30 3966 H 383.496 5.67474 -0.815224 0
M  V30 3967 H 381.893 5.7841 -1.59882 0
M  V30 3968 H 382.963 4.42424 -1.98468 0
M  V30 3969 N 384.306 0.507319 1.49211 0
M  V30 3970 C 385.236 -0.256939 2.32082 0
M  V30 3971 C 386.217 -0.956609 1.40652 0
M  V30 3972 O 387.402 -0.946788 1.69557 0
M  V30 3973 C 384.532 -1.31802 3.21318 0
M  V30 3974 C 383.486 -0.737855 4.21592 0
M  V30 3975 C 382.812 -1.89992 4.99807 0
M  V30 3976 C 384.112 0.275325 5.21574 0
M  V30 3977 H 385.806 0.434798 2.96226 0
M  V30 3978 H 383.352 0.210546 1.42452 0
M  V30 3979 H 385.305 -1.86045 3.78107 0
M  V30 3980 H 384.029 -2.03903 2.5513 0
M  V30 3981 H 382.688 -0.217126 3.65956 0
M  V30 3982 H 382.336 -2.60877 4.30061 0
M  V30 3983 H 382.036 -1.51777 5.6766 0
M  V30 3984 H 383.56 -2.44657 5.59442 0
M  V30 3985 H 384.974 -0.179193 5.7302 0
M  V30 3986 H 383.371 0.573649 5.97352 0
M  V30 3987 H 384.441 1.18903 4.70096 0
M  V30 3988 N 385.784 -1.5574 0.241426 0
M  V30 3989 C 386.716 -2.18469 -0.693091 0
M  V30 3990 C 387.729 -1.15942 -1.14286 0
M  V30 3991 O 388.918 -1.42832 -1.07058 0
M  V30 3992 C 386.018 -2.7696 -1.95311 0
M  V30 3993 C 385.191 -4.04853 -1.65568 0
M  V30 3994 C 384.25 -4.47715 -2.76474 0
M  V30 3995 O 383.276 -5.14205 -2.44094 0
M  V30 3996 N 384.478 -4.15044 -4.05855 0
M  V30 3997 H 387.243 -2.99292 -0.156388 0
M  V30 3998 H 384.804 -1.61784 0.0611752 0
M  V30 3999 H 386.796 -3.02594 -2.68736 0
M  V30 4000 H 385.366 -2.00326 -2.39975 0
M  V30 4001 H 384.586 -3.86865 -0.756886 0
M  V30 4002 H 385.874 -4.88246 -1.43153 0
M  V30 4003 H 385.272 -3.61654 -4.34998 0
M  V30 4004 H 383.829 -4.45526 -4.75762 0
M  V30 4005 N 387.262 0.0317525 -1.57568 0
M  V30 4006 C 388.192 1.03274 -2.0942 0
M  V30 4007 C 389.173 1.3788 -0.996143 0
M  V30 4008 O 390.358 1.46811 -1.27122 0
M  V30 4009 C 387.488 2.33448 -2.57137 0
M  V30 4010 C 386.442 2.13091 -3.71182 0
M  V30 4011 C 385.768 3.49001 -4.05095 0
M  V30 4012 C 387.068 1.51928 -4.99715 0
M  V30 4013 H 388.762 0.60112 -2.93303 0
M  V30 4014 H 386.308 0.287705 -1.41097 0
M  V30 4015 H 388.261 3.03802 -2.92032 0
M  V30 4016 H 386.985 2.78665 -1.70333 0
M  V30 4017 H 385.644 1.45171 -3.36632 0
M  V30 4018 H 385.292 3.91862 -3.15362 0
M  V30 4019 H 384.992 3.36207 -4.81911 0
M  V30 4020 H 386.516 4.20721 -4.42522 0
M  V30 4021 H 387.93 2.12196 -5.32584 0
M  V30 4022 H 386.327 1.49716 -5.81124 0
M  V30 4023 H 387.397 0.484811 -4.8247 0
M  V30 4024 N 388.74 1.54641 0.303973 0
M  V30 4025 C 389.986 1.74038 1.04109 0
M  V30 4026 C 390.319 0.523051 1.87024 0
M  V30 4027 O 389.594 -0.479874 1.88487 0
M  V30 4028 C 389.877 3.02761 1.94955 0
M  V30 4029 C 389.73 4.34787 1.1524 0
M  V30 4030 C 391.049 3.27336 2.94175 0
M  V30 4031 H 388.168 0.63323 0.377079 0
M  V30 4032 H 390.81 1.87354 0.316001 0
M  V30 4033 H 388.96 2.9154 2.56782 0
M  V30 4034 H 390.632 4.57922 0.557236 0
M  V30 4035 H 388.875 4.31407 0.455053 0
M  V30 4036 H 389.546 5.21116 1.8205 0
M  V30 4037 H 392.022 3.38148 2.42477 0
M  V30 4038 H 390.898 4.18726 3.54908 0
M  V30 4039 H 391.159 2.45491 3.67677 0
M  V30 4040 N 390.218 -0.567019 1.47046 0
M  V30 4041 C 391.464 -1.32658 1.53394 0
M  V30 4042 C 391.797 -1.93254 0.19148 0
M  V30 4043 O 391.072 -1.77338 -0.798844 0
M  V30 4044 C 391.355 -2.44412 2.64452 0
M  V30 4045 C 391.208 -1.88749 4.08282 0
M  V30 4046 C 392.527 -3.46387 2.71485 0
M  V30 4047 H 389.646 -0.48098 0.558415 0
M  V30 4048 H 392.288 -0.635481 1.79058 0
M  V30 4049 H 390.438 -3.03363 2.427 0
M  V30 4050 H 392.11 -1.34134 4.41368 0
M  V30 4051 H 390.353 -1.19481 4.17021 0
M  V30 4052 H 391.024 -2.69491 4.81745 0
M  V30 4053 H 393.5 -2.9734 2.91081 0
M  V30 4054 H 392.376 -4.2202 3.50985 0
M  V30 4055 H 392.637 -4.04616 1.78153 0
M  V30 4056 N 391.696 -1.35014 -0.812953 0
M  V30 4057 C 392.921 -1.31187 -1.60639 0
M  V30 4058 C 393.346 0.109382 -1.87782 0
M  V30 4059 O 392.704 1.07424 -1.46047 0
M  V30 4060 C 392.752 -2.11809 -2.91838 0
M  V30 4061 O 391.856 -1.49444 -3.8437 0
M  V30 4062 H 391.197 -0.450084 -0.488181 0
M  V30 4063 H 393.727 -1.77963 -1.00947 0
M  V30 4064 H 393.737 -2.23531 -3.41318 0
M  V30 4065 H 392.412 -3.15137 -2.71407 0
M  V30 4066 H 390.989 -1.46524 -3.42907 0
M  V30 4067 N 393.175 1.03435 -1.18907 0
M  V30 4068 C 394.421 1.77005 -0.989798 0
M  V30 4069 C 394.754 1.88205 0.478816 0
M  V30 4070 O 394.029 1.39481 1.35556 0
M  V30 4071 C 394.312 3.19925 -1.65287 0
M  V30 4072 C 394.165 3.1663 -3.19477 0
M  V30 4073 C 395.484 4.18189 -1.37134 0
M  V30 4074 H 392.603 0.642538 -0.360991 0
M  V30 4075 H 395.245 1.20784 -1.46667 0
M  V30 4076 H 393.395 3.67929 -1.24741 0
M  V30 4077 H 395.067 2.76567 -3.692 0
M  V30 4078 H 393.31 2.54491 -3.51307 0
M  V30 4079 H 393.981 4.1758 -3.61013 0
M  V30 4080 H 396.457 3.78761 -1.72276 0
M  V30 4081 H 395.333 5.16394 -1.86087 0
M  V30 4082 H 395.594 4.41112 -0.295424 0
M  V30 4083 N 394.653 0.992116 1.22453 0
M  V30 4084 C 396.064 0.702776 1.72968 0
M  V30 4085 C 396.415 -0.780399 1.80012 0
M  V30 4086 O 395.54 -1.61007 1.44589 0
M  V30 4087 C 396.135 1.26903 3.14135 0
M  V30 4088 C 394.694 1.02909 3.62059 0
M  V30 4089 C 393.841 1.38969 2.39964 0
M  V30 4090 H 396.792 1.16457 1.07812 0
M  V30 4091 H 396.813 0.647223 3.74955 0
M  V30 4092 H 396.325 2.34851 3.08977 0
M  V30 4093 H 394.426 -0.0337979 3.72585 0
M  V30 4094 H 394.539 1.69191 4.48231 0
M  V30 4095 H 392.903 0.808279 2.41535 0
M  V30 4096 H 393.686 2.4792 2.37467 0
M  V30 4097 N 396.131 -1.37776 0.765217 0
M  V30 4098 C 397.378 -1.99849 0.326588 0
M  V30 4099 C 397.706 -1.60746 -1.09504 0
M  V30 4100 O 396.961 -0.84202 -1.76659 0
M  V30 4101 C 397.26 -3.5504 0.410053 0
M  V30 4102 C 396.926 -4.13891 1.78899 0
M  V30 4103 C 395.588 -4.29678 2.16635 0
M  V30 4104 C 397.94 -4.46236 2.69301 0
M  V30 4105 C 395.268 -4.7511 3.44221 0
M  V30 4106 C 397.62 -4.93089 3.9629 0
M  V30 4107 C 396.284 -5.07082 4.34078 0
M  V30 4108 H 395.554 -0.7313 0.119507 0
M  V30 4109 H 398.201 -1.64645 0.977968 0
M  V30 4110 H 396.506 -3.90451 -0.324878 0
M  V30 4111 H 398.203 -4.00966 0.0520699 0
M  V30 4112 H 394.793 -4.02026 1.48569 0
M  V30 4113 H 398.977 -4.3363 2.41409 0
M  V30 4114 H 394.233 -4.84129 3.73402 0
M  V30 4115 H 398.407 -5.17084 4.66472 0
M  V30 4116 H 396.034 -5.42046 5.33001 0
M  V30 4117 N 397.609 -0.515225 -1.4894 0
M  V30 4118 C 398.856 0.024215 -2.02486 0
M  V30 4119 C 399.184 1.35671 -1.39368 0
M  V30 4120 O 398.439 1.88566 -0.523574 0
M  V30 4121 C 398.738 0.210595 -3.56779 0
M  V30 4122 C 398.404 -1.04569 -4.38607 0
M  V30 4123 C 397.066 -1.39002 -4.60686 0
M  V30 4124 C 399.418 -1.88008 -4.86109 0
M  V30 4125 C 396.746 -2.568 -5.27514 0
M  V30 4126 C 399.098 -3.04972 -5.54234 0
M  V30 4127 C 397.762 -3.39768 -5.74555 0
M  V30 4128 H 397.032 0.00886088 -0.740947 0
M  V30 4129 H 399.679 -0.678263 -1.79086 0
M  V30 4130 H 397.984 0.99572 -3.78936 0
M  V30 4131 H 399.681 0.642659 -3.95817 0
M  V30 4132 H 396.271 -0.767497 -4.21672 0
M  V30 4133 H 400.455 -1.62719 -4.68867 0
M  V30 4134 H 395.711 -2.8398 -5.41447 0
M  V30 4135 H 399.885 -3.69943 -5.90013 0
M  V30 4136 H 397.512 -4.31148 -6.26112 0
M  V30 4137 N 399.087 1.5561 -0.249682 0
M  V30 4138 C 400.017 2.24477 0.642826 0
M  V30 4139 C 400.998 1.22601 1.17911 0
M  V30 4140 O 402.183 1.5126 1.21795 0
M  V30 4141 C 399.313 2.94638 1.83863 0
M  V30 4142 C 398.267 4.03227 1.435 0
M  V30 4143 C 397.593 4.60828 2.71186 0
M  V30 4144 C 398.893 5.18796 0.604002 0
M  V30 4145 H 400.587 2.99321 0.0685625 0
M  V30 4146 H 398.133 1.43965 0.0315363 0
M  V30 4147 H 400.086 3.41517 2.46868 0
M  V30 4148 H 398.81 2.17287 2.43832 0
M  V30 4149 H 397.469 3.57121 0.828275 0
M  V30 4150 H 397.117 3.80174 3.29358 0
M  V30 4151 H 396.817 5.34132 2.44901 0
M  V30 4152 H 398.341 5.10442 3.35084 0
M  V30 4153 H 399.755 5.61883 1.13842 0
M  V30 4154 H 398.152 5.98506 0.437097 0
M  V30 4155 H 399.222 4.83384 -0.383147 0
M  V30 4156 N 400.565 -0.0233959 1.57583 0
M  V30 4157 C 401.805 -0.71784 1.9138 0
M  V30 4158 C 402.169 -1.72216 0.848853 0
M  V30 4159 O 403.37 -2.46527 1.07134 0
M  V30 4160 C 401.641 -1.36489 3.30311 0
M  V30 4161 S 403.2 -2.0877 3.85954 0
M  V30 4162 H 400.018 -0.237676 0.670098 0
M  V30 4163 H 402.62 0.0276709 1.9548 0
M  V30 4164 H 401.324 -0.620782 4.05678 0
M  V30 4165 H 400.855 -2.14883 3.29528 0
M  V30 4166 H 402.87 -3.35988 3.65139 0
M  V30 4167 N 402.043 -1.548 -0.295768 0
M  V30 4168 C 403.29 -1.74329 -1.03032 0
M  V30 4169 C 403.618 -0.531915 -1.87085 0
M  V30 4170 O 402.873 0.486052 -1.89568 0
M  V30 4171 C 403.172 -2.98797 -1.961 0
M  V30 4172 C 402.838 -4.32356 -1.2798 0
M  V30 4173 C 401.5 -4.68661 -1.09135 0
M  V30 4174 C 403.852 -5.15128 -0.793243 0
M  V30 4175 C 401.18 -5.85312 -0.403269 0
M  V30 4176 C 403.532 -6.32488 -0.118854 0
M  V30 4177 C 402.196 -6.6745 0.0815043 0
M  V30 4178 H 401.466 -0.637916 -0.37702 0
M  V30 4179 H 404.113 -1.8906 -0.304696 0
M  V30 4180 H 402.418 -2.78869 -2.75207 0
M  V30 4181 H 404.115 -3.11102 -2.53015 0
M  V30 4182 H 400.705 -4.03808 -1.43655 0
M  V30 4183 H 404.889 -4.87575 -0.92653 0
M  V30 4184 H 400.145 -6.1094 -0.237098 0
M  V30 4185 H 404.319 -6.95892 0.266035 0
M  V30 4186 H 401.946 -7.57695 0.616685 0
M  V30 4187 N 403.521 0.559213 -1.47345 0
M  V30 4188 C 404.451 1.67622 -1.62558 0
M  V30 4189 C 405.432 1.63331 -0.475087 0
M  V30 4190 O 406.617 1.80983 -0.704182 0
M  V30 4191 C 403.747 3.0626 -1.63774 0
M  V30 4192 C 402.701 3.25397 -2.7803 0
M  V30 4193 C 402.027 4.64801 -2.64318 0
M  V30 4194 C 403.327 3.10965 -4.19641 0
M  V30 4195 H 405.021 1.55146 -2.56067 0
M  V30 4196 H 402.567 0.744961 -1.23233 0
M  V30 4197 H 404.52 3.84247 -1.73008 0
M  V30 4198 H 403.244 3.1969 -0.66825 0
M  V30 4199 H 401.903 2.49817 -2.68304 0
M  V30 4200 H 401.551 4.75028 -1.65401 0
M  V30 4201 H 401.251 4.78555 -3.40968 0
M  V30 4202 H 402.775 5.44926 -2.75478 0
M  V30 4203 H 404.189 3.78772 -4.30354 0
M  V30 4204 H 402.586 3.36229 -4.97062 0
M  V30 4205 H 403.656 2.07736 -4.38148 0
M  V30 4206 N 404.999 1.35443 0.805782 0
M  V30 4207 C 406.229 1.31687 1.59192 0
M  V30 4208 C 406.637 -0.10756 1.88894 0
M  V30 4209 O 405.98 -1.07017 1.49309 0
M  V30 4210 C 406.042 2.05686 2.94845 0
M  V30 4211 C 405.706 3.54868 2.87954 0
M  V30 4212 C 406.703 4.49444 2.61335 0
M  V30 4213 C 404.388 3.97528 3.07046 0
M  V30 4214 C 406.382 5.84655 2.53885 0
M  V30 4215 C 404.069 5.32833 2.99219 0
M  V30 4216 C 405.067 6.26209 2.72674 0
M  V30 4217 O 404.755 7.59032 2.64811 0
M  V30 4218 H 404.487 0.453878 0.50097 0
M  V30 4219 H 407.041 1.78892 1.0093 0
M  V30 4220 H 405.271 1.5312 3.55093 0
M  V30 4221 H 406.96 1.94998 3.55993 0
M  V30 4222 H 407.726 4.17804 2.46303 0
M  V30 4223 H 403.605 3.25233 3.26718 0
M  V30 4224 H 407.149 6.57508 2.33086 0
M  V30 4225 H 403.046 5.64087 3.13809 0
M  V30 4226 H 403.814 7.68967 2.80413 0
M  V30 4227 N 406.477 -1.02803 1.19454 0
M  V30 4228 C 407.702 -1.80378 1.02364 0
M  V30 4229 C 408.127 -1.83282 -0.423007 0
M  V30 4230 O 407.485 -1.25945 -1.30413 0
M  V30 4231 C 407.533 -3.23248 1.59821 0
M  V30 4232 O 406.637 -4.04 0.828105 0
M  V30 4233 H 405.978 -0.556799 0.361761 0
M  V30 4234 H 408.508 -1.29385 1.58495 0
M  V30 4235 H 408.518 -3.73994 1.63073 0
M  V30 4236 H 407.193 -3.2045 2.65113 0
M  V30 4237 H 405.77 -3.62635 0.86891 0
M  V30 4238 N 407.956 -0.998596 -1.21925 0
M  V30 4239 C 409.202 -0.688337 -1.91399 0
M  V30 4240 C 409.557 0.771805 -1.76241 0
M  V30 4241 O 408.85 1.55153 -1.1242 0
M  V30 4242 C 409.044 -1.03648 -3.42041 0
M  V30 4243 C 408.873 -2.52892 -3.71855 0
M  V30 4244 C 407.643 -3.19389 -3.91559 0
M  V30 4245 C 409.841 -3.5103 -3.75875 0
M  V30 4246 N 407.823 -4.5805 -4.08734 0
M  V30 4247 C 409.194 -4.75174 -3.98259 0
M  V30 4248 C 411.249 -3.45257 -3.58751 0
M  V30 4249 C 409.952 -5.94247 -4.05294 0
M  V30 4250 C 411.978 -4.63712 -3.67049 0
M  V30 4251 C 411.34 -5.86658 -3.89887 0
M  V30 4252 H 407.439 -0.303251 -0.720807 0
M  V30 4253 H 410.023 -1.27977 -1.46731 0
M  V30 4254 H 408.194 -0.473569 -3.85502 0
M  V30 4255 H 409.926 -0.681619 -3.98919 0
M  V30 4256 H 406.681 -2.69846 -3.89205 0
M  V30 4257 H 407.105 -5.29989 -4.21237 0
M  V30 4258 H 411.747 -2.51215 -3.40075 0
M  V30 4259 H 409.465 -6.88687 -4.22772 0
M  V30 4260 H 413.051 -4.6084 -3.5513 0
M  V30 4261 H 411.931 -6.76786 -3.96144 0
M  V30 4262 N 409.434 1.37368 -0.772513 0
M  V30 4263 C 410.68 2.00423 -0.3467 0
M  V30 4264 C 411.035 1.60224 1.06518 0
M  V30 4265 O 410.328 0.838712 1.72268 0
M  V30 4266 C 410.522 3.54817 -0.428876 0
M  V30 4267 C 410.351 4.10011 -1.84719 0
M  V30 4268 C 409.121 4.40927 -2.46803 0
M  V30 4269 C 411.319 4.30955 -2.80681 0
M  V30 4270 N 409.301 4.8184 -3.80399 0
M  V30 4271 C 410.672 4.74486 -3.99078 0
M  V30 4272 C 412.727 4.1309 -2.77958 0
M  V30 4273 C 411.43 5.02023 -5.15136 0
M  V30 4274 C 413.456 4.41764 -3.9319 0
M  V30 4275 C 412.818 4.85535 -5.10328 0
M  V30 4276 H 408.917 0.762413 -0.173927 0
M  V30 4277 H 411.501 1.66666 -1.00651 0
M  V30 4278 H 409.672 3.87881 0.200757 0
M  V30 4279 H 411.404 4.04696 0.0190668 0
M  V30 4280 H 408.159 4.30033 -1.98415 0
M  V30 4281 H 408.583 5.06604 -4.49089 0
M  V30 4282 H 413.225 3.7842 -1.88568 0
M  V30 4283 H 410.943 5.35582 -6.05126 0
M  V30 4284 H 414.529 4.29528 -3.92425 0
M  V30 4285 H 413.409 5.07296 -5.98013 0
M  V30 4286 N 410.912 0.523116 1.48665 0
M  V30 4287 C 411.842 -0.23231 2.32342 0
M  V30 4288 C 412.823 -0.941637 1.41659 0
M  V30 4289 O 414.008 -0.928751 1.70552 0
M  V30 4290 C 411.138 -1.28387 3.22698 0
M  V30 4291 C 410.092 -0.693098 4.22351 0
M  V30 4292 C 409.418 -1.8468 5.01794 0
M  V30 4293 C 410.718 0.33063 5.21252 0
M  V30 4294 H 412.412 0.466192 2.95748 0
M  V30 4295 H 409.958 0.225643 1.42221 0
M  V30 4296 H 411.911 -1.82024 3.80059 0
M  V30 4297 H 410.635 -2.01186 2.57278 0
M  V30 4298 H 409.294 -0.178299 3.66166 0
M  V30 4299 H 408.942 -2.56301 4.32804 0
M  V30 4300 H 408.642 -1.45747 5.69238 0
M  V30 4301 H 410.166 -2.38709 5.62006 0
M  V30 4302 H 411.58 -0.118407 5.73178 0
M  V30 4303 H 409.977 0.636974 5.9671 0
M  V30 4304 H 411.047 1.23883 4.68808 0
M  V30 4305 N 412.39 -1.55475 0.257931 0
M  V30 4306 C 413.353 -2.20551 -0.623706 0
M  V30 4307 C 414.353 -1.17809 -1.09443 0
M  V30 4308 O 415.543 -1.42823 -0.997362 0
M  V30 4309 C 412.675 -2.85784 -1.8585 0
M  V30 4310 H 413.868 -2.99848 -0.0557743 0
M  V30 4311 H 411.421 -1.56298 0.0084422 0
M  V30 4312 H 412.156 -2.10453 -2.46739 0
M  V30 4313 H 411.941 -3.61057 -1.52907 0
M  V30 4314 H 413.431 -3.35553 -2.48584 0
M  V30 4315 N 413.868 0.0150385 -1.57593 0
M  V30 4316 C 414.778 1.02791 -2.10882 0
M  V30 4317 C 415.794 1.38702 -1.0506 0
M  V30 4318 O 416.97 1.47739 -1.36877 0
M  V30 4319 C 414.035 2.30568 -2.58919 0
M  V30 4320 C 413.096 2.01108 -3.79281 0
M  V30 4321 C 412.329 3.22794 -4.25018 0
M  V30 4322 O 412.552 4.33959 -3.70183 0
M  V30 4323 O 411.486 3.07672 -5.17322 0
M  V30 4324 H 415.312 0.604973 -2.97613 0
M  V30 4325 H 412.897 0.23292 -1.47573 0
M  V30 4326 H 414.779 3.05662 -2.90084 0
M  V30 4327 H 413.454 2.72129 -1.75293 0
M  V30 4328 H 412.361 1.23537 -3.53114 0
M  V30 4329 H 413.694 1.64394 -4.63935 0
M  V30 4330 N 415.346 1.54954 0.287554 0
M  V30 4331 C 416.571 1.79209 1.04397 0
M  V30 4332 C 416.996 0.556431 1.79682 0
M  V30 4333 O 416.354 -0.493518 1.74454 0
M  V30 4334 C 416.402 3.00739 1.98969 0
M  V30 4335 O 415.506 2.74805 3.075 0
M  V30 4336 H 414.847 0.592755 0.299227 0
M  V30 4337 H 417.377 2.02068 0.320886 0
M  V30 4338 H 417.387 3.29077 2.4119 0
M  V30 4339 H 416.062 3.90329 1.43582 0
M  V30 4340 H 414.639 2.57523 2.69697 0
M  V30 4341 N 416.824 -0.551391 1.4764 0
M  V30 4342 C 417.787 -1.64007 1.60107 0
M  V30 4343 C 418.787 -1.53601 0.47576 0
M  V30 4344 O 419.977 -1.57655 0.740988 0
M  V30 4345 C 417.109 -3.03569 1.55108 0
M  V30 4346 H 418.302 -1.543 2.57161 0
M  V30 4347 H 415.855 -0.771776 1.35917 0
M  V30 4348 H 416.59 -3.18804 0.594519 0
M  V30 4349 H 416.375 -3.12532 2.36783 0
M  V30 4350 H 417.865 -3.82762 1.66982 0
M  V30 4351 N 418.302 -1.35869 -0.798587 0
M  V30 4352 C 419.718 -1.16082 -1.09532 0
M  V30 4353 C 419.918 0.0213124 -2.01489 0
M  V30 4354 O 418.974 0.689488 -2.42904 0
M  V30 4355 C 420.287 -2.46748 -1.7186 0
M  V30 4356 C 421.835 -2.53028 -1.84244 0
M  V30 4357 C 422.31 -3.83758 -2.49988 0
M  V30 4358 N 423.801 -3.85053 -2.57465 0
M  V30 4359 C 424.536 -4.8294 -3.09122 0
M  V30 4360 N 424.032 -5.91217 -3.61157 0
M  V30 4361 N 425.825 -4.70369 -3.0775 0
M  V30 4362 H 417.976 -2.11571 -0.187461 0
M  V30 4363 H 420.239 -0.936726 -0.145765 0
M  V30 4364 H 419.945 -3.33471 -1.11759 0
M  V30 4365 H 419.819 -2.61883 -2.71472 0
M  V30 4366 H 422.206 -1.66729 -2.43486 0
M  V30 4367 H 422.287 -2.418 -0.834643 0
M  V30 4368 H 421.931 -4.70459 -1.91393 0
M  V30 4369 H 421.861 -3.92278 -3.5132 0
M  V30 4370 H 424.352 -3.06822 -2.20609 0
M  V30 4371 H 424.665 -6.61892 -3.98896 0
M  V30 4372 H 423.01 -5.94899 -3.59333 0
M  V30 4373 H 426.201 -3.84914 -2.66381 0
M  V30 4374 H 426.374 -5.46816 -3.47701 0
M  V30 4375 N 419.78 1.02168 -1.19998 0
M  V30 4376 C 421.026 1.7606 -1.01855 0
M  V30 4377 C 421.381 1.87178 0.445222 0
M  V30 4378 O 420.674 1.3828 1.32624 0
M  V30 4379 C 420.868 3.18081 -1.62969 0
M  V30 4380 C 420.697 3.20809 -3.15137 0
M  V30 4381 C 419.467 3.28342 -3.84083 0
M  V30 4382 C 421.665 3.07268 -4.1242 0
M  V30 4383 N 419.647 3.2052 -5.23584 0
M  V30 4384 C 421.018 3.0716 -5.38566 0
M  V30 4385 C 423.073 2.91448 -4.03686 0
M  V30 4386 C 421.776 2.92853 -6.56985 0
M  V30 4387 C 423.802 2.78494 -5.21723 0
M  V30 4388 C 423.164 2.79046 -6.46771 0
M  V30 4389 H 419.263 0.655192 -0.426905 0
M  V30 4390 H 421.847 1.21564 -1.52087 0
M  V30 4391 H 420.018 3.70882 -1.15329 0
M  V30 4392 H 421.75 3.80375 -1.38192 0
M  V30 4393 H 418.505 3.34859 -3.34913 0
M  V30 4394 H 418.929 3.19997 -5.96599 0
M  V30 4395 H 423.571 2.89838 -3.07821 0
M  V30 4396 H 421.289 2.93213 -7.53028 0
M  V30 4397 H 424.875 2.67278 -5.16773 0
M  V30 4398 H 423.755 2.69134 -7.36571 0
M  V30 4399 N 421.258 1.00505 1.21394 0
M  V30 4400 C 422.188 0.585684 2.26035 0
M  V30 4401 C 423.169 -0.393525 1.65485 0
M  V30 4402 O 424.354 -0.281497 1.92149 0
M  V30 4403 C 421.484 -0.0884283 3.47187 0
M  V30 4404 C 420.438 0.810567 4.20254 0
M  V30 4405 C 419.764 0.00286382 5.347 0
M  V30 4406 C 421.064 2.1132 4.77641 0
M  V30 4407 H 422.758 1.46039 2.61368 0
M  V30 4408 H 420.304 0.703648 1.25638 0
M  V30 4409 H 422.257 -0.393286 4.19561 0
M  V30 4410 H 420.981 -0.997766 3.10986 0
M  V30 4411 H 419.64 1.09925 3.49731 0
M  V30 4412 H 419.288 -0.907765 4.94741 0
M  V30 4413 H 418.988 0.601444 5.84514 0
M  V30 4414 H 420.512 -0.295808 6.09883 0
M  V30 4415 H 421.926 1.87148 5.41893 0
M  V30 4416 H 420.323 2.66164 5.37845 0
M  V30 4417 H 421.393 2.78393 3.9702 0
M  V30 4418 N 422.737 -1.36956 0.779787 0
M  V30 4419 C 423.667 -2.32761 0.185651 0
M  V30 4420 C 424.648 -1.56177 -0.673989 0
M  V30 4421 O 425.833 -1.84378 -0.609797 0
M  V30 4422 C 422.963 -3.40418 -0.687964 0
M  V30 4423 C 421.917 -4.27941 0.0710102 0
M  V30 4424 C 421.243 -5.26681 -0.922573 0
M  V30 4425 C 422.543 -5.07006 1.25467 0
M  V30 4426 H 424.237 -2.82698 0.986008 0
M  V30 4427 H 421.783 -1.3592 0.475592 0
M  V30 4428 H 423.736 -4.06423 -1.11348 0
M  V30 4429 H 422.46 -2.89025 -1.52093 0
M  V30 4430 H 421.119 -3.63478 0.47739 0
M  V30 4431 H 420.767 -4.71565 -1.7503 0
M  V30 4432 H 420.467 -5.86103 -0.419237 0
M  V30 4433 H 421.991 -5.9556 -1.34686 0
M  V30 4434 H 423.405 -5.66105 0.905401 0
M  V30 4435 H 421.802 -5.75793 1.69063 0
M  V30 4436 H 422.872 -4.3921 2.05481 0
M  V30 4437 N 424.215 -0.530993 -1.48385 0
M  V30 4438 C 425.443 -0.00134122 -2.069 0
M  V30 4439 C 425.858 1.2805 -1.3874 0
M  V30 4440 O 425.215 1.76204 -0.475244 0
M  V30 4441 C 425.266 0.225256 -3.60798 0
M  V30 4442 O 424.987 -1.0058 -4.26398 0
M  V30 4443 C 426.488 0.795172 -4.3611 0
M  V30 4444 H 423.708 -0.0339704 -0.67014 0
M  V30 4445 H 426.252 -0.736926 -1.90761 0
M  V30 4446 H 424.407 0.910891 -3.76539 0
M  V30 4447 H 424.821 -0.787165 -5.1856 0
M  V30 4448 H 426.295 0.903143 -5.44562 0
M  V30 4449 H 426.772 1.80031 -4.00606 0
M  V30 4450 H 427.378 0.146069 -4.25049 0
M  V30 4451 N 425.693 1.55336 -0.266172 0
M  V30 4452 C 426.921 2.03801 0.356756 0
M  V30 4453 C 427.336 1.14485 1.50129 0
M  V30 4454 O 426.693 0.163121 1.8177 0
M  V30 4455 C 426.744 3.51455 0.846281 0
M  V30 4456 O 426.465 4.37371 -0.252663 0
M  V30 4457 C 427.966 4.15767 1.53794 0
M  V30 4458 H 425.186 0.665906 0.0825218 0
M  V30 4459 H 427.73 2.00636 -0.39566 0
M  V30 4460 H 425.885 3.55092 1.54881 0
M  V30 4461 H 426.299 5.24358 0.122173 0
M  V30 4462 H 427.773 5.20714 1.83198 0
M  V30 4463 H 428.25 3.63404 2.46646 0
M  V30 4464 H 428.856 4.16107 0.879488 0
M  V30 4465 N 427.171 -0.0066808 1.57599 0
M  V30 4466 C 428.419 -0.691552 1.899 0
M  V30 4467 C 428.74 -1.74682 0.866672 0
M  V30 4468 O 428.01 -1.95661 -0.0968189 0
M  V30 4469 H 426.59 -0.258416 0.700878 0
M  V30 4470 H 429.252 0.0326655 1.94873 0
M  V30 4471 H 428.348 -1.16702 2.8946 0
M  V30 4472 N 428.649 -1.55105 -0.279332 0
M  V30 4473 C 430.065 -1.46803 -0.626187 0
M  V30 4474 C 430.265 -0.676939 -1.89789 0
M  V30 4475 O 429.321 -0.19326 -2.51759 0
M  V30 4476 C 430.634 -2.90962 -0.759034 0
M  V30 4477 C 432.182 -3.01138 -0.853504 0
M  V30 4478 C 432.657 -4.46539 -1.01818 0
M  V30 4479 N 434.148 -4.50341 -1.08386 0
M  V30 4480 C 434.883 -5.60053 -1.22996 0
M  V30 4481 N 434.379 -6.79645 -1.34366 0
M  V30 4482 N 436.172 -5.47783 -1.26056 0
M  V30 4483 H 428.323 -2.04996 0.555921 0
M  V30 4484 H 430.586 -0.929325 0.187239 0
M  V30 4485 H 430.292 -3.51544 0.104852 0
M  V30 4486 H 430.166 -3.39619 -1.64131 0
M  V30 4487 H 432.553 -2.40658 -1.70786 0
M  V30 4488 H 432.634 -2.55745 0.0532466 0
M  V30 4489 H 432.278 -5.0762 -0.168504 0
M  V30 4490 H 432.208 -4.89583 -1.93948 0
M  V30 4491 H 434.699 -3.64191 -1.00864 0
M  V30 4492 H 435.012 -7.59012 -1.4533 0
M  V30 4493 H 433.357 -6.82469 -1.31382 0
M  V30 4494 H 436.548 -4.53294 -1.168 0
M  V30 4495 H 436.721 -6.33331 -1.37098 0
M  V30 4496 N 430.127 0.543554 -1.4793 0
M  V30 4497 C 431.057 1.65888 -1.64327 0
M  V30 4498 C 432.038 1.62818 -0.492383 0
M  V30 4499 O 433.223 1.80226 -0.723338 0
M  V30 4500 C 430.353 3.04506 -1.67013 0
M  V30 4501 C 429.307 3.2243 -2.81466 0
M  V30 4502 C 428.633 4.61972 -2.69233 0
M  V30 4503 C 429.933 3.06496 -4.22915 0
M  V30 4504 H 431.627 1.52421 -2.57698 0
M  V30 4505 H 429.173 0.731849 -1.24016 0
M  V30 4506 H 431.126 3.82391 -1.77074 0
M  V30 4507 H 429.85 3.18964 -0.70212 0
M  V30 4508 H 428.509 2.46957 -2.70938 0
M  V30 4509 H 428.157 4.73247 -1.7043 0
M  V30 4510 H 427.857 4.74911 -3.46025 0
M  V30 4511 H 429.381 5.41974 -2.81242 0
M  V30 4512 H 430.795 3.74186 -4.34348 0
M  V30 4513 H 429.192 3.30938 -5.006 0
M  V30 4514 H 430.262 2.03077 -4.40327 0
M  V30 4515 N 431.605 1.3629 0.791371 0
M  V30 4516 C 432.882 1.20962 1.53712 0
M  V30 4517 C 433.262 -0.205021 2.10102 0
M  V30 4518 O 432.61 -1.21042 1.93807 0
M  V30 4519 C 432.82 2.29002 2.63361 0
M  V30 4520 C 434.168 2.65572 3.31295 0
M  V30 4521 O 435.192 2.2803 2.73643 0
M  V30 4522 O 434.051 3.3018 4.35481 0
M  V30 4523 H 431.145 0.47086 0.679867 0
M  V30 4524 H 433.691 1.48016 0.830021 0
M  V30 4525 H 432.463 3.2382 2.19674 0
M  V30 4526 H 432.086 2.03303 3.41692 0
M  V30 4527 N 433.083 -1.0153 1.20538 0
M  V30 4528 C 434.329 -1.75517 1.02787 0
M  V30 4529 C 434.684 -1.87411 -0.435289 0
M  V30 4530 O 433.977 -1.38982 -1.31889 0
M  V30 4531 C 434.171 -3.17213 1.64654 0
M  V30 4532 C 434 -3.19134 3.16834 0
M  V30 4533 C 432.77 -3.26301 3.85818 0
M  V30 4534 C 434.968 -3.05077 4.14044 0
M  V30 4535 N 432.95 -3.17739 5.25276 0
M  V30 4536 C 434.321 -3.04299 5.40187 0
M  V30 4537 C 436.376 -2.89303 4.05226 0
M  V30 4538 C 435.079 -2.89365 6.58529 0
M  V30 4539 C 437.105 -2.75723 5.23193 0
M  V30 4540 C 436.467 -2.75612 6.48242 0
M  V30 4541 H 432.566 -0.652919 0.430373 0
M  V30 4542 H 435.15 -1.20755 1.52729 0
M  V30 4543 H 433.321 -3.70266 1.17294 0
M  V30 4544 H 435.053 -3.79637 1.40208 0
M  V30 4545 H 431.808 -3.33078 3.36684 0
M  V30 4546 H 432.232 -3.16829 5.98288 0
M  V30 4547 H 436.874 -2.88201 3.09354 0
M  V30 4548 H 434.592 -2.89216 7.54573 0
M  V30 4549 H 438.178 -2.64533 5.18183 0
M  V30 4550 H 437.058 -2.65224 7.37988 0
M  V30 4551 N 434.561 -1.01147 -1.20859 0
M  V30 4552 C 435.809 -0.696486 -1.89719 0
M  V30 4553 C 436.13 0.775788 -1.78904 0
M  V30 4554 O 435.4 1.55759 -1.18811 0
M  V30 4555 H 433.98 -0.254628 -0.702263 0
M  V30 4556 H 436.642 -1.28197 -1.46804 0
M  V30 4557 H 435.738 -0.975357 -2.96468 0
M  V30 4558 N 436.039 1.36541 -0.78704 0
M  V30 4559 C 436.969 2.32659 -0.197992 0
M  V30 4560 C 437.95 1.56533 0.665697 0
M  V30 4561 O 439.135 1.84698 0.60001 0
M  V30 4562 C 436.265 3.40778 0.669901 0
M  V30 4563 C 435.219 4.27897 -0.0937039 0
M  V30 4564 C 434.545 5.27163 0.894629 0
M  V30 4565 C 435.845 5.06334 -1.28154 0
M  V30 4566 H 437.539 2.82171 -1.00099 0
M  V30 4567 H 435.085 1.35665 -0.482793 0
M  V30 4568 H 437.038 4.07008 1.09191 0
M  V30 4569 H 435.762 2.89827 1.50558 0
M  V30 4570 H 434.421 3.6322 -0.49666 0
M  V30 4571 H 434.069 4.72486 1.72527 0
M  V30 4572 H 433.769 5.86317 0.388149 0
M  V30 4573 H 435.293 5.96266 1.31525 0
M  V30 4574 H 436.707 5.65617 -0.93541 0
M  V30 4575 H 435.104 5.74888 -1.72115 0
M  V30 4576 H 436.174 4.38114 -2.07807 0
M  V30 4577 N 437.518 0.538854 1.48102 0
M  V30 4578 C 438.45 -0.256278 2.27763 0
M  V30 4579 C 439.463 -0.89633 1.35904 0
M  V30 4580 O 440.652 -0.773275 1.60881 0
M  V30 4581 C 437.752 -1.37896 3.09577 0
M  V30 4582 C 436.925 -0.839159 4.29275 0
M  V30 4583 C 435.984 -1.84405 4.9283 0
M  V30 4584 O 435.01 -1.39746 5.51779 0
M  V30 4585 N 436.212 -3.17666 4.85869 0
M  V30 4586 H 438.977 0.426968 2.96643 0
M  V30 4587 H 436.538 0.373747 1.57527 0
M  V30 4588 H 438.53 -2.04955 3.48963 0
M  V30 4589 H 437.1 -1.96572 2.4306 0
M  V30 4590 H 436.32 0.00769287 3.94199 0
M  V30 4591 H 437.608 -0.457548 5.06739 0
M  V30 4592 H 437.006 -3.56609 4.39143 0
M  V30 4593 H 435.563 -3.80334 5.29329 0
M  V30 4594 N 438.996 -1.55193 0.274407 0
M  V30 4595 C 439.906 -2.26164 -0.623473 0
M  V30 4596 C 440.922 -1.28729 -1.17068 0
M  V30 4597 O 442.098 -1.61663 -1.20112 0
M  V30 4598 C 439.163 -2.96833 -1.7914 0
M  V30 4599 C 438.224 -4.09745 -1.28093 0
M  V30 4600 C 437.457 -4.77034 -2.3932 0
M  V30 4601 O 437.68 -4.4353 -3.5866 0
M  V30 4602 O 436.614 -5.64996 -2.07516 0
M  V30 4603 H 440.44 -3.03661 -0.0485661 0
M  V30 4604 H 438.025 -1.49341 0.0418382 0
M  V30 4605 H 439.907 -3.41248 -2.4724 0
M  V30 4606 H 438.582 -2.22253 -2.35341 0
M  V30 4607 H 437.489 -3.69787 -0.566416 0
M  V30 4608 H 438.822 -4.86224 -0.764683 0
M  V30 4609 N 440.474 -0.00167713 -1.576 0
M  V30 4610 C 441.404 0.988091 -2.11563 0
M  V30 4611 C 442.385 1.35736 -1.02517 0
M  V30 4612 O 443.57 1.44082 -1.30208 0
M  V30 4613 C 440.7 2.27941 -2.62031 0
M  V30 4614 C 439.654 2.0517 -3.75619 0
M  V30 4615 C 438.98 3.4033 -4.12407 0
M  V30 4616 C 440.28 1.41294 -5.02825 0
M  V30 4617 H 441.974 0.538771 -2.94513 0
M  V30 4618 H 439.52 0.257712 -1.41675 0
M  V30 4619 H 441.473 2.97539 -2.9841 0
M  V30 4620 H 440.197 2.74989 -1.76205 0
M  V30 4621 H 438.856 1.37998 -3.39635 0
M  V30 4622 H 438.504 3.85085 -3.23603 0
M  V30 4623 H 438.204 3.25909 -4.88935 0
M  V30 4624 H 439.728 4.1124 -4.51347 0
M  V30 4625 H 441.142 2.00851 -5.36965 0
M  V30 4626 H 439.539 1.37356 -5.84169 0
M  V30 4627 H 440.609 0.382362 -4.8339 0
M  V30 4628 N 441.952 1.55251 0.271103 0
M  V30 4629 C 443.198 1.7713 0.999832 0
M  V30 4630 C 443.553 0.56659 1.83868 0
M  V30 4631 O 442.846 -0.44069 1.86463 0
M  V30 4632 C 443.04 3.01879 1.91321 0
M  V30 4633 C 442.869 4.34368 1.16426 0
M  V30 4634 C 441.639 4.97593 0.879169 0
M  V30 4635 C 443.837 5.1131 0.553749 0
M  V30 4636 N 441.819 6.13813 0.103618 0
M  V30 4637 C 443.19 6.19938 -0.0875442 0
M  V30 4638 C 445.245 4.95754 0.461782 0
M  V30 4639 C 443.948 7.14703 -0.811942 0
M  V30 4640 C 445.974 5.90875 -0.249027 0
M  V30 4641 C 445.336 6.98893 -0.879051 0
M  V30 4642 H 441.435 0.700407 0.347784 0
M  V30 4643 H 444.019 1.92744 0.275314 0
M  V30 4644 H 442.19 2.87637 2.60997 0
M  V30 4645 H 443.922 3.12154 2.57569 0
M  V30 4646 H 440.677 4.58538 1.18491 0
M  V30 4647 H 441.101 6.76455 -0.271543 0
M  V30 4648 H 445.743 4.12342 0.934552 0
M  V30 4649 H 443.461 7.97634 -1.29639 0
M  V30 4650 H 447.047 5.80916 -0.320529 0
M  V30 4651 H 445.927 7.71231 -1.42031 0
M  V30 4652 N 443.43 -0.535701 1.48216 0
M  V30 4653 C 444.846 -0.863701 1.3421 0
M  V30 4654 C 445.046 -1.98458 0.34879 0
M  V30 4655 O 444.102 -2.51432 -0.23204 0
M  V30 4656 C 445.415 -1.23662 2.74095 0
M  V30 4657 C 446.963 -1.34683 2.82541 0
M  V30 4658 C 447.438 -1.75322 4.23115 0
M  V30 4659 N 448.929 -1.82434 4.2576 0
M  V30 4660 C 449.664 -2.15252 5.31464 0
M  V30 4661 N 449.16 -2.46533 6.47452 0
M  V30 4662 N 450.953 -2.16209 5.18855 0
M  V30 4663 H 443.104 0.203965 2.11418 0
M  V30 4664 H 445.367 0.0286033 0.947568 0
M  V30 4665 H 445.073 -0.486674 3.48316 0
M  V30 4666 H 444.947 -2.18805 3.07253 0
M  V30 4667 H 447.334 -2.08756 2.08579 0
M  V30 4668 H 447.415 -0.376756 2.5301 0
M  V30 4669 H 447.059 -1.01812 4.97591 0
M  V30 4670 H 446.989 -2.7337 4.50085 0
M  V30 4671 H 449.48 -1.6056 3.42095 0
M  V30 4672 H 449.793 -2.70662 7.23852 0
M  V30 4673 H 448.138 -2.44065 6.50736 0
M  V30 4674 H 451.329 -1.91224 4.2726 0
M  V30 4675 H 451.502 -2.41453 6.01335 0
M  V30 4676 N 444.908 -1.36708 -0.784132 0
M  V30 4677 C 446.154 -1.31426 -1.54451 0
M  V30 4678 C 446.487 0.10476 -1.93917 0
M  V30 4679 O 445.762 1.05934 -1.6312 0
M  V30 4680 C 446.045 -2.24189 -2.818 0
M  V30 4681 C 445.898 -3.74813 -2.48667 0
M  V30 4682 C 447.217 -2.15626 -3.83658 0
M  V30 4683 H 444.336 -0.478739 -0.560337 0
M  V30 4684 H 446.978 -1.67305 -0.900498 0
M  V30 4685 H 445.128 -1.93722 -3.36755 0
M  V30 4686 H 446.8 -4.15823 -1.99722 0
M  V30 4687 H 445.043 -3.93989 -1.81535 0
M  V30 4688 H 445.714 -4.35138 -3.39646 0
M  V30 4689 H 448.19 -2.42456 -3.38163 0
M  V30 4690 H 447.066 -2.82694 -4.70506 0
M  V30 4691 H 447.327 -1.14522 -4.27009 0
M  V30 4692 N 446.386 1.0089 -1.21074 0
M  V30 4693 C 447.349 2.0775 -0.968129 0
M  V30 4694 C 448.349 1.6069 0.0593445 0
M  V30 4695 O 449.539 1.73293 -0.177525 0
M  V30 4696 C 446.671 3.37794 -0.459108 0
M  V30 4697 H 447.864 2.30707 -1.9161 0
M  V30 4698 H 445.417 1.17807 -1.02719 0
M  V30 4699 H 446.152 3.20516 0.49397 0
M  V30 4700 H 445.937 3.7328 -1.20019 0
M  V30 4701 H 447.427 4.16454 -0.309099 0
M  V30 4702 N 447.864 1.01787 1.20321 0
M  V30 4703 C 448.827 0.593972 2.2137 0
M  V30 4704 C 449.827 -0.336553 1.57239 0
M  V30 4705 O 451.017 -0.125069 1.7375 0
M  V30 4706 C 448.149 -0.132433 3.40643 0
M  V30 4707 H 449.342 1.48791 2.60387 0
M  V30 4708 H 446.895 0.807803 1.33807 0
M  V30 4709 H 447.63 -1.04123 3.0713 0
M  V30 4710 H 447.415 0.53605 3.88418 0
M  V30 4711 H 448.905 -0.416314 4.1552 0
M  V30 4712 N 449.342 -1.36122 0.79427 0
M  V30 4713 C 450.591 -1.98361 0.365464 0
M  V30 4714 C 450.904 -1.6374 -1.06997 0
M  V30 4715 O 452.11 -2.19251 -1.60129 0
M  V30 4716 C 450.566 -3.54821 0.602496 0
M  V30 4717 C 450.174 -3.98362 2.04967 0
M  V30 4718 C 451.918 -4.2383 0.238437 0
M  V30 4719 C 449.825 -5.47619 2.2331 0
M  V30 4720 H 448.755 -0.742193 0.13291 0
M  V30 4721 H 451.406 -1.55354 0.976589 0
M  V30 4722 H 449.788 -3.95922 -0.078409 0
M  V30 4723 H 450.962 -3.68447 2.76737 0
M  V30 4724 H 449.277 -3.42206 2.37243 0
M  V30 4725 H 451.874 -5.33529 0.353705 0
M  V30 4726 H 452.217 -4.08264 -0.814006 0
M  V30 4727 H 452.75 -3.88108 0.872769 0
M  V30 4728 H 449.489 -5.68138 3.26955 0
M  V30 4729 H 449.009 -5.79145 1.5605 0
M  V30 4730 H 450.688 -6.13911 2.0426 0
M  V30 4731 N 450.82 -0.546701 -1.47814 0
M  V30 4732 C 451.768 0.220048 -2.31557 0
M  V30 4733 C 452.762 0.919472 -1.42275 0
M  V30 4734 O 453.968 0.841953 -1.59095 0
M  V30 4735 H 450.343 0.0898334 -0.746615 0
M  V30 4736 H 452.314 -0.505589 -2.94086 0
M  V30 4737 C 451.063 1.24353 -3.24702 0
M  V30 4738 H 450.386 0.714758 -3.93359 0
M  V30 4739 H 451.826 1.75112 -3.8615 0
M  V30 4740 C 450.285 2.28593 -2.47481 0
M  V30 4741 O 450.815 3.35334 -2.21165 0
M  V30 4742 N 449.021 2.02244 -2.08676 0
M  V30 4743 H 448.568 1.15455 -2.30278 0
M  V30 4744 H 448.526 2.72207 -1.57323 0
M  V30 4745 N 452.299 1.55045 -0.282633 0
M  V30 4746 C 453.547 1.99365 0.331334 0
M  V30 4747 C 453.868 1.1725 1.55812 0
M  V30 4748 O 453.138 0.263871 1.94115 0
M  V30 4749 H 451.718 0.736397 0.125414 0
M  V30 4750 H 454.38 1.90964 -0.389711 0
M  V30 4751 H 453.476 3.0596 0.616036 0
M  V30 4752 N 453.777 0.010035 1.57597 0
M  V30 4753 C 454.724 -0.978122 2.09049 0
M  V30 4754 C 455.694 -1.33509 0.988159 0
M  V30 4755 O 456.879 -1.43172 1.26121 0
M  V30 4756 C 454.019 -2.26158 2.60666 0
M  V30 4757 C 453.132 -1.96275 3.84838 0
M  V30 4758 C 452.267 -3.18776 4.24918 0
M  V30 4759 C 451.306 -2.84625 5.41899 0
M  V30 4760 N 450.443 -3.99693 5.77226 0
M  V30 4761 H 455.283 -0.532431 2.93205 0
M  V30 4762 H 452.82 -0.251234 1.44939 0
M  V30 4763 H 454.778 -3.01202 2.88675 0
M  V30 4764 H 453.408 -2.68378 1.79369 0
M  V30 4765 H 452.46 -1.11555 3.63675 0
M  V30 4766 H 453.772 -1.67111 4.69974 0
M  V30 4767 H 452.926 -4.02157 4.54262 0
M  V30 4768 H 451.665 -3.51087 3.38511 0
M  V30 4769 H 450.67 -1.99653 5.12268 0
M  V30 4770 H 451.895 -2.53551 6.29991 0
M  V30 4771 H 449.841 -4.31882 4.93776 0
M  V30 4772 H 449.758 -3.74087 6.56959 0
M  V30 4773 H 451.026 -4.83834 6.11167 0
M  V30 4774 N 455.255 -1.55392 -0.262866 0
M  V30 4775 C 456.503 -1.76127 -0.991147 0
M  V30 4776 C 456.824 -0.571083 -1.8645 0
M  V30 4777 O 456.094 0.413698 -1.91482 0
M  V30 4778 H 454.674 -0.649528 -0.368948 0
M  V30 4779 H 457.336 -1.9281 -0.284655 0
M  V30 4780 H 456.432 -2.6663 -1.62219 0
M  V30 4781 N 456.733 0.527833 -1.48498 0
M  V30 4782 C 457.696 1.61439 -1.62696 0
M  V30 4783 C 458.696 1.52824 -0.500136 0
M  V30 4784 O 459.886 1.56456 -0.765976 0
M  V30 4785 C 457.018 3.01063 -1.59918 0
M  V30 4786 H 458.211 1.50189 -2.59583 0
M  V30 4787 H 455.764 0.750055 -1.37127 0
M  V30 4788 H 456.499 3.17818 -0.645163 0
M  V30 4789 H 456.284 3.08725 -2.41726 0
M  V30 4790 H 457.774 3.80057 -1.73051 0
M  V30 4791 N 458.211 1.37122 0.776871 0
M  V30 4792 C 459.457 1.32243 1.53752 0
M  V30 4793 C 459.79 -0.0944745 1.9397 0
M  V30 4794 O 459.065 -1.05068 1.6368 0
M  V30 4795 C 459.348 2.25681 2.80607 0
M  V30 4796 C 459.201 3.76127 2.46676 0
M  V30 4797 C 460.52 2.17657 3.82509 0
M  V30 4798 H 457.639 0.481704 0.557791 0
M  V30 4799 H 460.281 1.6778 0.891612 0
M  V30 4800 H 458.431 1.95505 3.35723 0
M  V30 4801 H 460.103 4.16877 1.97513 0
M  V30 4802 H 458.346 3.94946 1.79443 0
M  V30 4803 H 459.017 4.36933 3.37333 0
M  V30 4804 H 461.493 2.44245 3.36873 0
M  V30 4805 H 460.369 2.85185 4.69 0
M  V30 4806 H 460.63 1.16785 4.26396 0
M  V30 4807 N 459.689 -1.00246 1.21608 0
M  V30 4808 C 460.621 -2.09244 0.935401 0
M  V30 4809 C 461.634 -1.62592 -0.0823594 0
M  V30 4810 O 462.823 -1.77865 0.150456 0
M  V30 4811 C 459.923 -3.36724 0.383453 0
M  V30 4812 C 459.096 -4.1245 1.45615 0
M  V30 4813 C 458.155 -5.18219 0.912991 0
M  V30 4814 O 457.181 -5.46337 1.59701 0
M  V30 4815 N 458.383 -5.7987 -0.270478 0
M  V30 4816 H 461.148 -2.33905 1.87373 0
M  V30 4817 H 458.709 -1.16748 1.12167 0
M  V30 4818 H 460.701 -4.047 0.00562157 0
M  V30 4819 H 459.271 -3.09201 -0.459758 0
M  V30 4820 H 458.491 -3.39241 2.00772 0
M  V30 4821 H 459.779 -4.59819 2.17817 0
M  V30 4822 H 459.177 -5.59381 -0.843195 0
M  V30 4823 H 457.734 -6.49126 -0.589794 0
M  V30 4824 N 461.167 -1.02423 -1.1978 0
M  V30 4825 C 462.444 -0.632802 -1.85081 0
M  V30 4826 C 462.824 0.888745 -1.9148 0
M  V30 4827 O 462.172 1.78357 -1.42832 0
M  V30 4828 C 462.382 -1.28947 -3.24305 0
M  V30 4829 C 463.73 -1.40976 -4.00513 0
M  V30 4830 O 464.754 -1.24628 -3.33686 0
M  V30 4831 O 463.613 -1.67467 -5.20209 0
M  V30 4832 H 460.707 -0.219348 -0.79738 0
M  V30 4833 H 463.253 -1.12209 -1.27307 0
M  V30 4834 H 462.025 -2.3288 -3.14456 0
M  V30 4835 H 461.648 -0.787748 -3.89718 0
M  V30 4836 N 462.645 1.35699 -0.801477 0
M  V30 4837 C 463.873 2.03157 -0.391768 0
M  V30 4838 C 464.288 1.60412 0.995668 0
M  V30 4839 O 463.645 0.799228 1.64069 0
M  V30 4840 C 463.696 3.58566 -0.459671 0
M  V30 4841 O 463.417 3.99756 -1.7924 0
M  V30 4842 C 464.918 4.4328 -0.0421205 0
M  V30 4843 H 462.138 0.651688 -0.159825 0
M  V30 4844 H 464.682 1.73426 -1.08368 0
M  V30 4845 H 462.837 3.86963 0.183939 0
M  V30 4846 H 463.251 4.94387 -1.75162 0
M  V30 4847 H 464.725 5.51821 -0.140754 0
M  V30 4848 H 465.202 4.27383 1.01196 0
M  V30 4849 H 465.808 4.20168 -0.658687 0
M  V30 4850 N 464.123 0.554532 1.47522 0
M  V30 4851 C 465.053 -0.182974 2.32782 0
M  V30 4852 C 466.034 -0.911377 1.43624 0
M  V30 4853 O 467.219 -0.892366 1.72483 0
M  V30 4854 C 464.349 -1.21513 3.25349 0
M  V30 4855 C 463.303 -0.603355 4.23726 0
M  V30 4856 C 462.629 -1.73995 5.05598 0
M  V30 4857 C 463.929 0.441121 5.20434 0
M  V30 4858 H 465.623 0.52882 2.94693 0
M  V30 4859 H 463.169 0.255759 1.41711 0
M  V30 4860 H 465.122 -1.73922 3.83835 0
M  V30 4861 H 463.846 -1.95683 2.61487 0
M  V30 4862 H 462.505 -0.10059 3.66462 0
M  V30 4863 H 462.153 -2.47063 4.38143 0
M  V30 4864 H 461.853 -1.3364 5.72201 0
M  V30 4865 H 463.377 -2.26735 5.66942 0
M  V30 4866 H 464.791 0.00319931 5.733 0
M  V30 4867 H 463.188 0.763402 5.95224 0
M  V30 4868 H 464.258 1.33799 4.66075 0
M  V30 4869 N 465.601 -1.54893 0.290851 0
M  V30 4870 C 466.829 -2.04343 -0.324288 0
M  V30 4871 C 467.244 -1.16859 -1.48289 0
M  V30 4872 O 466.601 -0.192018 -1.81487 0
M  V30 4873 C 466.652 -3.52756 -0.79026 0
M  V30 4874 O 466.373 -4.36913 0.322213 0
M  V30 4875 C 467.874 -4.18161 -1.4716 0
M  V30 4876 H 465.094 -0.667135 -0.0719173 0
M  V30 4877 H 467.638 -1.99981 0.427529 0
M  V30 4878 H 465.793 -3.57511 -1.49213 0
M  V30 4879 H 466.207 -5.24486 -0.0387372 0
M  V30 4880 H 467.681 -5.23562 -1.7489 0
M  V30 4881 H 468.158 -3.67282 -2.40834 0
M  V30 4882 H 468.764 -4.17454 -0.813178 0
M  V30 4883 N 467.08 -0.0183926 -1.57589 0
M  V30 4884 C 468.491 0.521927 -1.79256 0
M  V30 4885 C 468.842 1.72885 -0.927636 0
M  V30 4886 O 467.967 2.15978 -0.135091 0
M  V30 4887 C 468.562 0.953632 -3.25102 0
M  V30 4888 C 467.121 1.43913 -3.47801 0
M  V30 4889 C 466.268 0.398837 -2.74417 0
M  V30 4890 H 469.219 -0.244485 -1.56805 0
M  V30 4891 H 469.24 1.81863 -3.34224 0
M  V30 4892 H 468.752 0.0750123 -3.88028 0
M  V30 4893 H 466.853 2.33804 -2.90115 0
M  V30 4894 H 466.966 1.45391 -4.56507 0
M  V30 4895 H 465.33 0.864572 -2.39577 0
M  V30 4896 H 466.113 -0.471132 -3.40052 0
M  V30 4897 N 468.558 1.5553 0.254621 0
M  V30 4898 C 469.468 1.92789 1.33677 0
M  V30 4899 C 470.484 0.827356 1.53071 0
M  V30 4900 O 471.66 1.12807 1.66843 0
M  V30 4901 C 468.725 2.20827 2.67275 0
M  V30 4902 C 467.786 3.4427 2.5647 0
M  V30 4903 C 467.019 3.70961 3.83697 0
M  V30 4904 O 467.242 2.99852 4.85227 0
M  V30 4905 O 466.176 4.64491 3.82794 0
M  V30 4906 H 470.002 2.84945 1.05071 0
M  V30 4907 H 467.587 1.42312 0.454723 0
M  V30 4908 H 469.469 2.40204 3.46237 0
M  V30 4909 H 468.144 1.31851 2.9563 0
M  V30 4910 H 467.051 3.30209 1.75821 0
M  V30 4911 H 468.384 4.33524 2.33062 0
M  V30 4912 N 470.036 -0.519951 1.48776 0
M  V30 4913 C 471.282 -1.27711 1.57536 0
M  V30 4914 C 471.615 -1.92547 0.252866 0
M  V30 4915 O 470.89 -1.7979 -0.742021 0
M  V30 4916 C 471.173 -2.35875 2.72094 0
M  V30 4917 C 471.026 -1.75664 4.1408 0
M  V30 4918 C 472.345 -3.37575 2.82367 0
M  V30 4919 H 469.464 -0.462971 0.573434 0
M  V30 4920 H 472.106 -0.578194 1.80989 0
M  V30 4921 H 470.256 -2.95488 2.52228 0
M  V30 4922 H 471.928 -1.20025 4.45412 0
M  V30 4923 H 470.171 -1.06154 4.20611 0
M  V30 4924 H 470.842 -2.54029 4.90075 0
M  V30 4925 H 473.318 -2.87929 3.00393 0
M  V30 4926 H 472.194 -4.1064 3.64233 0
M  V30 4927 H 472.455 -3.98743 1.90936 0
M  V30 4928 N 471.514 -1.37532 -0.769588 0
M  V30 4929 C 472.444 -1.36172 -1.89682 0
M  V30 4930 C 473.425 -0.23001 -1.68538 0
M  V30 4931 O 474.61 -0.43069 -1.89364 0
M  V30 4932 C 471.74 -1.1701 -3.26995 0
M  V30 4933 C 470.694 -2.27216 -3.62708 0
M  V30 4934 C 470.02 -1.93174 -4.98586 0
M  V30 4935 C 471.32 -3.6941 -3.69234 0
M  V30 4936 H 473.014 -2.30499 -1.91078 0
M  V30 4937 H 470.56 -1.10953 -0.917902 0
M  V30 4938 H 472.513 -1.14688 -4.05493 0
M  V30 4939 H 471.237 -0.191395 -3.26039 0
M  V30 4940 H 469.896 -2.28697 -2.86519 0
M  V30 4941 H 469.544 -0.938281 -4.94171 0
M  V30 4942 H 469.244 -2.66973 -5.23449 0
M  V30 4943 H 470.768 -1.92443 -5.79481 0
M  V30 4944 H 472.182 -3.70047 -4.37879 0
M  V30 4945 H 470.579 -4.4228 -4.05597 0
M  V30 4946 H 471.649 -4.0288 -2.69844 0
M  V30 4947 N 472.992 0.995999 -1.22138 0
M  V30 4948 C 473.922 2.10387 -1.01289 0
M  V30 4949 C 474.903 1.69975 0.0651454 0
M  V30 4950 O 476.088 1.9396 -0.0964628 0
M  V30 4951 C 473.218 3.42312 -0.586517 0
M  V30 4952 C 472.172 3.96558 -1.61014 0
M  V30 4953 C 471.498 5.24494 -1.0397 0
M  V30 4954 C 472.798 4.27595 -2.99933 0
M  V30 4955 H 474.492 2.28086 -1.93951 0
M  V30 4956 H 472.038 1.09607 -0.933928 0
M  V30 4957 H 473.991 4.19223 -0.427793 0
M  V30 4958 H 472.715 3.24431 0.375761 0
M  V30 4959 H 471.374 3.21776 -1.75658 0
M  V30 4960 H 471.022 5.02953 -0.0688703 0
M  V30 4961 H 470.722 5.61755 -1.72352 0
M  V30 4962 H 472.246 6.04042 -0.892494 0
M  V30 4963 H 473.66 4.95315 -2.8868 0
M  V30 4964 H 472.057 4.76021 -3.6541 0
M  V30 4965 H 473.127 3.35498 -3.50099 0
M  V30 4966 N 474.47 1.03057 1.19235 0
M  V30 4967 C 475.695 0.74757 1.93458 0
M  V30 4968 C 476.12 -0.687648 1.7508 0
M  V30 4969 O 475.478 -1.47499 1.05422 0
M  V30 4970 C 475.526 1.10604 3.43219 0
M  V30 4971 O 474.63 0.225671 4.11782 0
M  V30 4972 H 473.971 0.276047 0.603899 0
M  V30 4973 H 476.501 1.3777 1.51263 0
M  V30 4974 H 476.511 1.06366 3.93891 0
M  V30 4975 H 475.186 2.15165 3.55917 0
M  V30 4976 H 473.763 0.326795 3.71465 0
M  V30 4977 N 475.948 -1.35272 0.808662 0
M  V30 4978 C 476.911 -2.28082 0.226093 0
M  V30 4979 C 477.911 -1.49673 -0.587762 0
M  V30 4980 O 479.101 -1.69404 -0.405943 0
M  V30 4981 C 476.233 -3.33955 -0.684596 0
M  V30 4982 H 477.426 -2.81116 1.04469 0
M  V30 4983 H 474.979 -1.45162 0.579466 0
M  V30 4984 H 475.714 -2.86111 -1.5268 0
M  V30 4985 H 475.499 -3.91965 -0.102699 0
M  V30 4986 H 476.989 -4.03219 -1.08646 0
M  V30 4987 N 477.426 -0.562348 -1.47226 0
M  V30 4988 C 478.359 0.230405 -2.27034 0
M  V30 4989 C 479.337 0.915609 -1.3437 0
M  V30 4990 O 480.521 0.933573 -1.63758 0
M  V30 4991 C 477.648 1.32874 -3.11548 0
M  V30 4992 C 476.694 0.751552 -4.19826 0
M  V30 4993 S 477.527 -0.405848 -5.3396 0
M  V30 4994 C 478.683 0.694186 -6.22038 0
M  V30 4995 H 478.916 -0.446811 -2.93923 0
M  V30 4996 H 476.449 -0.348781 -1.50409 0
M  V30 4997 H 478.407 1.95773 -3.60809 0
M  V30 4998 H 477.068 1.97782 -2.44011 0
M  V30 4999 H 476.261 1.57651 -4.78709 0
M  V30 5000 H 475.863 0.198645 -3.73472 0
M  V30 5001 H 478.155 1.58501 -6.58698 0
M  V30 5002 H 479.098 0.142592 -7.07956 0
M  V30 5003 H 479.506 0.989169 -5.55766 0
M  V30 5004 N 478.904 1.54736 -0.299062 0
M  V30 5005 C 480.32 1.59507 0.0543849 0
M  V30 5006 C 480.52 1.31606 1.52585 0
M  V30 5007 O 479.576 1.08853 2.27832 0
M  V30 5008 C 480.889 2.98751 -0.34181 0
M  V30 5009 C 482.437 3.1165 -0.290414 0
M  V30 5010 C 482.912 4.53199 -0.661402 0
M  V30 5011 N 484.403 4.59114 -0.613863 0
M  V30 5012 C 485.138 5.66709 -0.873417 0
M  V30 5013 N 484.634 6.82349 -1.19884 0
M  V30 5014 N 486.427 5.56369 -0.800608 0
M  V30 5015 H 478.578 1.71133 -1.25806 0
M  V30 5016 H 480.841 0.799186 -0.509908 0
M  V30 5017 H 480.547 3.24085 -1.36608 0
M  V30 5018 H 480.421 3.75961 0.305508 0
M  V30 5019 H 482.808 2.86066 0.724605 0
M  V30 5020 H 482.889 2.366 -0.972327 0
M  V30 5021 H 482.533 4.79513 -1.67422 0
M  V30 5022 H 482.463 5.26583 0.0425612 0
M  V30 5023 H 484.954 3.76053 -0.3732 0
M  V30 5024 H 485.267 7.60326 -1.38291 0
M  V30 5025 H 483.612 6.83906 -1.23685 0
M  V30 5026 H 486.803 4.64904 -0.546045 0
M  V30 5027 H 486.976 6.40139 -1.00626 0
M  V30 5028 N 480.382 0.0267497 1.57577 0
M  V30 5029 C 481.292 -0.971633 2.13533 0
M  V30 5030 C 482.308 -1.35868 1.08701 0
M  V30 5031 O 483.484 -1.44058 1.40746 0
M  V30 5032 C 480.549 -2.23622 2.64941 0
M  V30 5033 C 479.61 -1.90982 3.8448 0
M  V30 5034 C 478.843 -3.11411 4.33427 0
M  V30 5035 O 479.066 -4.23992 3.81558 0
M  V30 5036 O 478 -2.93848 5.25297 0
M  V30 5037 H 481.826 -0.525853 2.99113 0
M  V30 5038 H 479.411 -0.193712 1.48139 0
M  V30 5039 H 481.293 -2.97864 2.98086 0
M  V30 5040 H 479.968 -2.67386 1.82446 0
M  V30 5041 H 478.875 -1.14132 3.56265 0
M  V30 5042 H 480.208 -1.52036 4.6813 0
M  V30 5043 N 481.861 -1.55662 -0.24637 0
M  V30 5044 C 482.771 -1.93495 -1.32653 0
M  V30 5045 C 483.787 -0.835462 -1.5263 0
M  V30 5046 O 484.963 -1.1369 -1.66242 0
M  V30 5047 C 482.028 -2.22242 -2.66101 0
M  V30 5048 C 481.089 -3.45625 -2.54641 0
M  V30 5049 C 480.322 -3.72991 -3.81724 0
M  V30 5050 O 480.545 -3.02421 -4.8363 0
M  V30 5051 O 479.479 -4.66515 -3.80325 0
M  V30 5052 H 483.305 -2.85498 -1.03559 0
M  V30 5053 H 480.89 -1.42551 -0.44717 0
M  V30 5054 H 482.772 -2.42037 -3.44958 0
M  V30 5055 H 481.447 -1.33417 -2.94926 0
M  V30 5056 H 480.354 -3.31136 -1.74067 0
M  V30 5057 H 481.687 -4.34754 -2.3076 0
M  V30 5058 N 483.339 0.512053 -1.4905 0
M  V30 5059 C 484.269 1.62365 -1.67809 0
M  V30 5060 C 485.25 1.61737 -0.526809 0
M  V30 5061 O 486.435 1.78651 -0.761404 0
M  V30 5062 C 483.565 3.00895 -1.73435 0
M  V30 5063 C 482.519 3.16387 -2.88242 0
M  V30 5064 C 481.845 4.56157 -2.78971 0
M  V30 5065 C 483.145 2.97457 -4.29321 0
M  V30 5066 H 484.839 1.46921 -2.60873 0
M  V30 5067 H 482.385 0.705379 -1.2554 0
M  V30 5068 H 484.338 3.78549 -1.85145 0
M  V30 5069 H 483.062 3.17403 -0.769619 0
M  V30 5070 H 481.721 2.41155 -2.76116 0
M  V30 5071 H 481.369 4.69525 -1.8043 0
M  V30 5072 H 481.069 4.67465 -3.5602 0
M  V30 5073 H 482.593 5.35886 -2.92675 0
M  V30 5074 H 484.007 3.64888 -4.42187 0
M  V30 5075 H 482.404 3.20245 -5.07507 0
M  V30 5076 H 483.474 1.93692 -4.44535 0
M  V30 5077 N 484.817 1.37938 0.762283 0
M  V30 5078 C 486.042 1.37059 1.55659 0
M  V30 5079 C 486.467 -0.0396123 1.88058 0
M  V30 5080 O 485.825 -1.01929 1.49934 0
M  V30 5081 C 485.873 2.22494 2.83776 0
M  V30 5082 O 484.977 1.63607 3.78559 0
M  V30 5083 H 484.318 0.467892 0.47114 0
M  V30 5084 H 486.848 1.81587 0.942725 0
M  V30 5085 H 486.858 2.36045 3.32786 0
M  V30 5086 H 485.533 3.24993 2.59524 0
M  V30 5087 H 484.11 1.5915 3.37233 0
M  V30 5088 N 486.295 -0.989507 1.22664 0
M  V30 5089 C 487.228 -2.07805 0.942985 0
M  V30 5090 C 488.206 -1.6219 -0.115356 0
M  V30 5091 O 489.39 -1.88492 0.0169565 0
M  V30 5092 C 486.517 -3.361 0.418898 0
M  V30 5093 C 485.563 -4.00643 1.46244 0
M  V30 5094 S 486.396 -4.41059 3.03689 0
M  V30 5095 C 487.552 -5.7252 2.52927 0
M  V30 5096 H 487.785 -2.31547 1.86476 0
M  V30 5097 H 485.318 -1.12446 1.05808 0
M  V30 5098 H 487.276 -4.10315 0.123114 0
M  V30 5099 H 485.937 -3.10383 -0.481818 0
M  V30 5100 H 485.13 -4.93033 1.04569 0
M  V30 5101 H 484.732 -3.32767 1.7071 0
M  V30 5102 H 487.024 -6.49017 1.94379 0
M  V30 5103 H 487.967 -6.19026 3.4382 0
M  V30 5104 H 488.375 -5.30083 1.94094 0
M  V30 5105 N 487.773 -1.03688 -1.18687 0
M  V30 5106 C 489.021 -0.736572 -1.88199 0
M  V30 5107 C 489.342 0.737665 -1.80509 0
M  V30 5108 O 488.612 1.53204 -1.22088 0
M  V30 5109 H 487.192 -0.269466 -0.696704 0
M  V30 5110 H 489.854 -1.31282 -1.44052 0
M  V30 5111 H 488.95 -1.03802 -2.94332 0
M  V30 5112 N 489.251 1.34841 -0.815825 0
M  V30 5113 C 490.183 2.28409 -0.190265 0
M  V30 5114 C 491.196 1.50705 0.615771 0
M  V30 5115 O 492.385 1.72822 0.446616 0
M  V30 5116 C 489.485 3.30441 0.752446 0
M  V30 5117 C 488.658 4.37399 -0.00922152 0
M  V30 5118 C 487.717 5.19234 0.853351 0
M  V30 5119 O 486.743 5.68404 0.300919 0
M  V30 5120 N 487.945 5.38248 2.17416 0
M  V30 5121 H 490.71 2.82732 -0.994114 0
M  V30 5122 H 488.271 1.47289 -0.672129 0
M  V30 5123 H 490.263 3.82084 1.33394 0
M  V30 5124 H 488.833 2.76565 1.45707 0
M  V30 5125 H 488.053 3.86567 -0.771979 0
M  V30 5126 H 489.341 5.05992 -0.533807 0
M  V30 5127 H 488.739 4.99961 2.6468 0
M  V30 5128 H 487.296 5.93035 2.70467 0
M  V30 5129 N 490.729 0.570148 1.46925 0
M  V30 5130 C 492.14 0.1402 1.86173 0
M  V30 5131 C 492.491 -1.29347 1.47526 0
M  V30 5132 O 491.616 -1.97508 0.884292 0
M  V30 5133 C 492.211 0.247661 3.37894 0
M  V30 5134 C 490.77 -0.127332 3.76185 0
M  V30 5135 C 489.917 0.589349 2.70965 0
M  V30 5136 H 492.868 0.779117 1.38259 0
M  V30 5137 H 492.889 -0.530341 3.76786 0
M  V30 5138 H 492.401 1.29121 3.65991 0
M  V30 5139 H 490.502 -1.17149 3.53704 0
M  V30 5140 H 490.615 0.240238 4.78497 0
M  V30 5141 H 488.979 0.0309824 2.54681 0
M  V30 5142 H 489.762 1.6343 3.01903 0
M  V30 5143 N 492.207 -1.54576 0.307264 0
M  V30 5144 C 493.618 -1.8579 -0.184121 0
M  V30 5145 C 493.969 -1.22914 -1.52927 0
M  V30 5146 O 493.094 -0.529126 -2.09831 0
M  V30 5147 C 493.689 -3.37081 -0.340862 0
M  V30 5148 C 492.248 -3.68304 -0.776465 0
M  V30 5149 C 491.395 -2.77076 0.111503 0
M  V30 5150 H 494.346 -1.49656 0.528078 0
M  V30 5151 H 494.367 -3.61922 -1.17443 0
M  V30 5152 H 493.879 -3.82815 0.638309 0
M  V30 5153 H 491.98 -3.28092 -1.76596 0
M  V30 5154 H 492.093 -4.75434 -0.591512 0
M  V30 5155 H 490.457 -2.51374 -0.410256 0
M  V30 5156 H 491.24 -3.25632 1.08714 0
M  V30 5157 N 493.685 -0.035106 -1.57561 0
M  V30 5158 C 494.648 0.929819 -2.09492 0
M  V30 5159 C 495.648 1.25026 -1.01119 0
M  V30 5160 O 496.838 1.18961 -1.27255 0
M  V30 5161 C 493.97 2.24457 -2.56577 0
M  V30 5162 H 495.163 0.479935 -2.96035 0
M  V30 5163 H 492.716 0.213033 -1.54841 0
M  V30 5164 H 493.451 2.74061 -1.73382 0
M  V30 5165 H 493.236 2.02508 -3.35757 0
M  V30 5166 H 494.726 2.93607 -2.96959 0
M  V30 5167 N 495.163 1.55791 0.238111 0
M  V30 5168 C 496.388 1.8244 0.986432 0
M  V30 5169 C 496.813 0.613314 1.7782 0
M  V30 5170 O 496.171 -0.437767 1.75935 0
M  V30 5171 C 496.219 3.06917 1.893 0
M  V30 5172 O 495.323 2.84449 2.98601 0
M  V30 5173 H 494.664 0.601975 0.280218 0
M  V30 5174 H 497.194 2.02987 0.256437 0
M  V30 5175 H 497.204 3.36583 2.30598 0
M  V30 5176 H 495.879 3.947 1.31091 0
M  V30 5177 H 494.456 2.65972 2.61368 0
M  V30 5178 N 496.642 -0.504142 1.49319 0
M  V30 5179 C 497.572 -1.61473 1.68667 0
M  V30 5180 C 498.553 -1.61455 0.535378 0
M  V30 5181 O 499.738 -1.78245 0.770868 0
M  V30 5182 C 496.868 -2.99971 1.75028 0
M  V30 5183 C 495.822 -3.14854 2.89916 0
M  V30 5184 C 495.148 -4.54671 2.81387 0
M  V30 5185 C 496.448 -2.95176 4.30893 0
M  V30 5186 H 498.142 -1.45535 2.61648 0
M  V30 5187 H 495.688 -0.698711 1.25913 0
M  V30 5188 H 497.641 -3.77562 1.8715 0
M  V30 5189 H 496.365 -3.1699 0.786441 0
M  V30 5190 H 495.024 -2.39687 2.77391 0
M  V30 5191 H 494.672 -4.68562 1.82917 0
M  V30 5192 H 494.372 -4.6557 3.58494 0
M  V30 5193 H 495.896 -5.34327 2.95512 0
M  V30 5194 H 497.31 -3.62538 4.44116 0
M  V30 5195 H 495.707 -3.17549 5.09198 0
M  V30 5196 H 496.777 -1.91332 4.45556 0
M  V30 5197 N 498.12 -1.38341 -0.754957 0
M  V30 5198 C 499.368 -1.34208 -1.51105 0
M  V30 5199 C 499.689 0.0677634 -1.94882 0
M  V30 5200 O 498.959 1.01517 -1.67544 0
M  V30 5201 H 497.539 -0.493819 -0.560493 0
M  V30 5202 H 500.201 -1.73005 -0.897507 0
M  V30 5203 H 499.297 -1.99203 -2.4026 0
M  V30 5204 N 499.598 0.982988 -1.23187 0
M  V30 5205 C 500.826 1.75921 -1.08901 0
M  V30 5206 C 501.241 1.85341 0.359719 0
M  V30 5207 O 500.598 1.33072 1.24892 0
M  V30 5208 C 500.649 3.18742 -1.70545 0
M  V30 5209 O 500.37 3.09814 -3.09753 0
M  V30 5210 C 501.871 4.1277 -1.61667 0
M  V30 5211 H 499.091 0.552166 -0.381252 0
M  V30 5212 H 501.635 1.23516 -1.62985 0
M  V30 5213 H 499.79 3.68182 -1.20501 0
M  V30 5214 H 500.204 3.99703 -3.39614 0
M  V30 5215 H 501.678 5.10697 -2.09506 0
M  V30 5216 H 502.155 4.3542 -0.575009 0
M  V30 5217 H 502.761 3.69232 -2.11064 0
M  V30 5218 N 501.076 1.04316 1.18135 0
M  V30 5219 C 502.006 0.657299 2.24058 0
M  V30 5220 C 502.987 -0.340678 1.66654 0
M  V30 5221 O 504.172 -0.220223 1.92947 0
M  V30 5222 C 501.302 0.0220715 3.47293 0
M  V30 5223 C 500.256 0.943857 4.17463 0
M  V30 5224 C 499.582 0.172973 5.3442 0
M  V30 5225 C 500.882 2.26409 4.70677 0
M  V30 5226 H 502.576 1.5428 2.56589 0
M  V30 5227 H 500.122 0.743263 1.23335 0
M  V30 5228 H 502.075 -0.259607 4.206 0
M  V30 5229 H 500.799 -0.898323 3.14003 0
M  V30 5230 H 499.458 1.20996 3.46057 0
M  V30 5231 H 499.106 -0.749907 4.97379 0
M  V30 5232 H 498.806 0.787098 5.82304 0
M  V30 5233 H 500.33 -0.101628 6.10515 0
M  V30 5234 H 501.744 2.04294 5.35665 0
M  V30 5235 H 500.141 2.8314 5.29105 0
M  V30 5236 H 501.211 2.90883 3.87962 0
M  V30 5237 N 502.554 -1.34406 0.822964 0
M  V30 5238 C 503.484 -2.32052 0.259608 0
M  V30 5239 C 504.465 -1.58243 -0.623961 0
M  V30 5240 O 505.65 -1.86224 -0.55083 0
M  V30 5241 C 502.78 -3.42434 -0.579314 0
M  V30 5242 C 501.734 -4.27499 0.20712 0
M  V30 5243 C 501.06 -5.29349 -0.754547 0
M  V30 5244 C 502.36 -5.02758 1.41533 0
M  V30 5245 H 504.054 -2.79418 1.07545 0
M  V30 5246 H 501.6 -1.34338 0.518593 0
M  V30 5247 H 503.553 -4.0976 -0.983612 0
M  V30 5248 H 502.277 -2.93717 -1.4282 0
M  V30 5249 H 500.936 -3.61776 0.592787 0
M  V30 5250 H 500.584 -4.76895 -1.59939 0
M  V30 5251 H 500.284 -5.8714 -0.232561 0
M  V30 5252 H 501.808 -5.99544 -1.1567 0
M  V30 5253 H 503.222 -5.62938 1.08504 0
M  V30 5254 H 501.619 -5.70123 1.87296 0
M  V30 5255 H 502.689 -4.32451 2.1935 0
M  V30 5256 N 504.032 -0.577932 -1.46621 0
M  V30 5257 C 505.448 -0.239242 -1.57797 0
M  V30 5258 C 505.648 1.25843 -1.57371 0
M  V30 5259 O 504.704 2.03988 -1.48813 0
M  V30 5260 C 506.017 -0.884227 -2.87405 0
M  V30 5261 C 507.565 -0.857373 -3.01028 0
M  V30 5262 C 508.04 -1.48181 -4.33366 0
M  V30 5263 N 509.531 -1.44593 -4.40053 0
M  V30 5264 C 510.266 -1.89852 -5.41058 0
M  V30 5265 N 509.762 -2.43062 -6.48762 0
M  V30 5266 N 511.555 -1.80797 -5.3223 0
M  V30 5267 H 503.706 -1.55073 -1.45142 0
M  V30 5268 H 505.969 -0.647903 -0.692044 0
M  V30 5269 H 505.675 -1.93759 -2.93514 0
M  V30 5270 H 505.549 -0.389585 -3.75183 0
M  V30 5271 H 507.936 0.187357 -2.94505 0
M  V30 5272 H 508.017 -1.38999 -2.14739 0
M  V30 5273 H 507.661 -2.52572 -4.40647 0
M  V30 5274 H 507.591 -0.924464 -5.18422 0
M  V30 5275 H 510.082 -1.05694 -3.62819 0
M  V30 5276 H 510.395 -2.75466 -7.22038 0
M  V30 5277 H 508.74 -2.47085 -6.49595 0
M  V30 5278 H 511.931 -1.38989 -4.46989 0
M  V30 5279 H 512.104 -2.16385 -6.10804 0
M  V30 5280 N 505.51 1.54411 -0.315457 0
M  V30 5281 C 506.443 2.20265 0.596522 0
M  V30 5282 C 507.421 1.17693 1.12192 0
M  V30 5283 O 508.605 1.46397 1.18744 0
M  V30 5284 C 505.732 2.85794 1.81767 0
M  V30 5285 C 504.778 4.02017 1.42424 0
M  V30 5286 S 505.611 5.33452 0.467836 0
M  V30 5287 C 506.767 6.02471 1.69645 0
M  V30 5288 H 507 2.97277 0.0370896 0
M  V30 5289 H 504.533 1.54079 -0.0995562 0
M  V30 5290 H 506.491 3.24172 2.51839 0
M  V30 5291 H 505.152 2.08601 2.34828 0
M  V30 5292 H 504.345 4.46701 2.33396 0
M  V30 5293 H 503.947 3.65271 0.803311 0
M  V30 5294 H 506.239 6.24157 2.63504 0
M  V30 5295 H 507.182 6.96215 1.29192 0
M  V30 5296 H 507.59 5.32284 1.87974 0
M  V30 5297 N 506.988 0.0434614 1.5754 0
M  V30 5298 C 508.399 -0.493343 1.80064 0
M  V30 5299 C 508.75 -1.71388 0.955023 0
M  V30 5300 O 507.875 -2.15736 0.169434 0
M  V30 5301 C 508.47 -0.90179 3.26578 0
M  V30 5302 C 507.029 -1.38362 3.50047 0
M  V30 5303 C 506.176 -0.355129 2.75017 0
M  V30 5304 H 509.127 0.2694 1.56397 0
M  V30 5305 H 509.148 -1.76523 3.37075 0
M  V30 5306 H 508.66 -0.013271 3.88098 0
M  V30 5307 H 506.761 -2.29159 2.93798 0
M  V30 5308 H 506.874 -1.3811 4.58762 0
M  V30 5309 H 505.238 -0.826348 2.40922 0
M  V30 5310 H 506.021 0.525172 3.39259 0
M  V30 5311 N 508.466 -1.55915 -0.229846 0
M  V30 5312 C 509.714 -1.7819 -0.953565 0
M  V30 5313 C 510.035 -0.610504 -1.85197 0
M  V30 5314 O 509.305 0.372988 -1.92316 0
M  V30 5315 H 507.885 -0.657208 -0.355087 0
M  V30 5316 H 510.547 -1.9337 -0.243693 0
M  V30 5317 H 509.643 -2.70011 -1.56527 0
M  V30 5318 N 509.944 0.496216 -1.49584 0
M  V30 5319 C 510.874 1.60576 -1.69521 0
M  V30 5320 C 511.855 1.61169 -0.543933 0
M  V30 5321 O 513.04 1.77834 -0.78031 0
M  V30 5322 C 510.17 2.99038 -1.76616 0
M  V30 5323 C 509.124 3.13312 -2.91581 0
M  V30 5324 C 508.45 4.53172 -2.83794 0
M  V30 5325 C 509.75 2.92886 -4.32452 0
M  V30 5326 H 511.444 1.44146 -2.62416 0
M  V30 5327 H 508.99 0.692024 -1.26282 0
M  V30 5328 H 510.943 3.76564 -1.8915 0
M  V30 5329 H 509.667 3.16568 -0.80324 0
M  V30 5330 H 508.326 2.38213 -2.78658 0
M  V30 5331 H 507.974 4.67585 -1.854 0
M  V30 5332 H 507.674 4.63662 -3.60958 0
M  V30 5333 H 509.198 5.32752 -2.98342 0
M  V30 5334 H 510.612 3.60178 -4.46032 0
M  V30 5335 H 509.009 3.14844 -5.10875 0
M  V30 5336 H 510.079 1.88966 -4.46565 0
M  V30 5337 N 511.423 1.38739 0.74761 0
M  V30 5338 C 512.839 1.20067 1.05148 0
M  V30 5339 C 513.039 0.0534835 2.01429 0
M  V30 5340 O 512.095 -0.59886 2.45296 0
M  V30 5341 C 513.408 2.52957 1.62584 0
M  V30 5342 C 514.956 2.59692 1.74726 0
M  V30 5343 C 515.431 3.92772 2.35573 0
M  V30 5344 N 516.922 3.94343 2.42997 0
M  V30 5345 C 517.657 4.9408 2.90985 0
M  V30 5346 N 517.153 6.04214 3.38965 0
M  V30 5347 N 518.946 4.81466 2.9008 0
M  V30 5348 H 511.097 2.12121 0.108808 0
M  V30 5349 H 513.36 0.941491 0.110899 0
M  V30 5350 H 513.066 3.37389 0.993051 0
M  V30 5351 H 512.94 2.71779 2.61565 0
M  V30 5352 H 515.327 1.75651 2.3713 0
M  V30 5353 H 515.408 2.44731 0.744326 0
M  V30 5354 H 515.052 4.77238 1.738 0
M  V30 5355 H 514.982 4.05046 3.36519 0
M  V30 5356 H 517.473 3.14799 2.0907 0
M  V30 5357 H 517.786 6.76241 3.74056 0
M  V30 5358 H 516.131 6.07825 3.37007 0
M  V30 5359 H 519.322 3.94535 2.51912 0
M  V30 5360 H 519.495 5.59344 3.27166 0
M  V30 5361 N 512.901 -0.976442 1.23707 0
M  V30 5362 C 514.148 -1.71827 1.07153 0
M  V30 5363 C 514.476 -1.9053 -0.390982 0
M  V30 5364 O 513.731 -1.45779 -1.30564 0
M  V30 5365 C 514.03 -3.11814 1.74662 0
M  V30 5366 C 513.696 -3.12978 3.24585 0
M  V30 5367 C 512.358 -3.13003 3.6549 0
M  V30 5368 C 514.71 -3.07986 4.20469 0
M  V30 5369 C 512.038 -3.05757 5.00729 0
M  V30 5370 C 514.39 -3.02282 5.55705 0
M  V30 5371 C 513.054 -3.00631 5.95968 0
M  V30 5372 H 512.324 -0.628758 0.392102 0
M  V30 5373 H 514.971 -1.14239 1.53693 0
M  V30 5374 H 513.276 -3.72812 1.20492 0
M  V30 5375 H 514.973 -3.67989 1.59328 0
M  V30 5376 H 511.563 -3.13718 2.92026 0
M  V30 5377 H 515.747 -3.07103 3.89874 0
M  V30 5378 H 511.003 -3.02834 5.31132 0
M  V30 5379 H 515.177 -2.97376 6.29714 0
M  V30 5380 H 512.804 -2.94771 7.00724 0
M  V30 5381 N 514.379 -1.04941 -1.1758 0
M  V30 5382 C 515.795 -0.770282 -1.39781 0
M  V30 5383 C 515.995 0.636417 -1.91186 0
M  V30 5384 O 515.051 1.39923 -2.10185 0
M  V30 5385 C 516.364 -1.82376 -2.3908 0
M  V30 5386 C 517.912 -1.84569 -2.52791 0
M  V30 5387 C 518.387 -2.88933 -3.55361 0
M  V30 5388 N 519.878 -2.8788 -3.62877 0
M  V30 5389 C 520.613 -3.65282 -4.41992 0
M  V30 5390 N 520.109 -4.52461 -5.24643 0
M  V30 5391 N 521.902 -3.53732 -4.36841 0
M  V30 5392 H 514.053 -1.95705 -0.825438 0
M  V30 5393 H 516.316 -0.847284 -0.425222 0
M  V30 5394 H 516.022 -2.83323 -2.08376 0
M  V30 5395 H 515.896 -1.66327 -3.38549 0
M  V30 5396 H 518.283 -0.842879 -2.82807 0
M  V30 5397 H 518.364 -2.04696 -1.53406 0
M  V30 5398 H 518.008 -3.89398 -3.26085 0
M  V30 5399 H 517.938 -2.66059 -4.54445 0
M  V30 5400 H 520.429 -2.24666 -3.03864 0
M  V30 5401 H 520.742 -5.08211 -5.82187 0
M  V30 5402 H 519.087 -4.56524 -5.24033 0
M  V30 5403 H 522.278 -2.85021 -3.71323 0
M  V30 5404 H 522.451 -4.14302 -4.98255 0
M  V30 5405 N 515.857 1.33968 -0.830081 0
M  V30 5406 C 517.085 2.0228 -0.434773 0
M  V30 5407 C 517.5 1.62487 0.961419 0
M  V30 5408 O 516.857 0.833849 1.62337 0
M  V30 5409 C 516.908 3.5751 -0.535625 0
M  V30 5410 O 516.629 3.95864 -1.87679 0
M  V30 5411 C 518.13 4.43091 -0.136137 0
M  V30 5412 H 515.35 0.648151 -0.173613 0
M  V30 5413 H 517.894 1.71089 -1.12022 0
M  V30 5414 H 516.049 3.87266 0.101817 0
M  V30 5415 H 516.463 4.9056 -1.85609 0
M  V30 5416 H 517.937 5.51398 -0.257772 0
M  V30 5417 H 518.414 4.29433 0.921076 0
M  V30 5418 H 519.02 4.18677 -0.747662 0
M  V30 5419 N 517.335 0.585699 1.46312 0
M  V30 5420 C 518.575 0.0751432 2.04262 0
M  V30 5421 C 518.939 -1.26201 1.44697 0
M  V30 5422 O 520.14 -1.86198 1.93865 0
M  V30 5423 C 518.411 0.013478 3.57397 0
M  V30 5424 S 519.97 -0.439068 4.36598 0
M  V30 5425 H 516.788 0.0389228 0.709934 0
M  V30 5426 H 519.39 0.778871 1.79315 0
M  V30 5427 H 518.094 0.990558 3.98266 0
M  V30 5428 H 517.625 -0.712927 3.86886 0
M  V30 5429 H 519.64 -1.6932 4.66417 0
M  V30 5430 N 518.813 -1.54241 0.323641 0
M  V30 5431 C 520.062 -1.9975 -0.279806 0
M  V30 5432 C 520.375 -1.2156 -1.5324 0
M  V30 5433 O 521.581 -1.57447 -2.21185 0
M  V30 5434 C 520.037 -3.55686 -0.549115 0
M  V30 5435 C 519.645 -4.4271 0.686432 0
M  V30 5436 C 521.389 -4.09663 -1.11251 0
M  V30 5437 C 519.296 -5.90119 0.389022 0
M  V30 5438 H 518.226 -0.746177 -0.10833 0
M  V30 5439 H 520.877 -1.78248 0.435877 0
M  V30 5440 H 519.259 -3.73176 -1.32499 0
M  V30 5441 H 520.433 -4.36996 1.46188 0
M  V30 5442 H 518.748 -3.99623 1.17005 0
M  V30 5443 H 521.345 -5.17386 -1.34965 0
M  V30 5444 H 521.688 -3.61651 -2.06191 0
M  V30 5445 H 522.221 -3.95806 -0.39782 0
M  V30 5446 H 518.96 -6.42326 1.30759 0
M  V30 5447 H 518.48 -5.98785 -0.348722 0
M  V30 5448 H 520.159 -6.47 -0.0011164 0
M  V30 5449 N 520.291 -0.0518155 -1.57515 0
M  V30 5450 C 521.516 0.634896 -1.97443 0
M  V30 5451 C 521.941 1.63546 -0.929207 0
M  V30 5452 O 521.299 1.80981 0.107484 0
M  V30 5453 C 521.347 1.29765 -3.36442 0
M  V30 5454 O 520.451 2.41333 -3.34413 0
M  V30 5455 H 519.792 0.164994 -0.643174 0
M  V30 5456 H 522.322 -0.120407 -2.04245 0
M  V30 5457 H 522.332 1.64918 -3.73184 0
M  V30 5458 H 521.007 0.564361 -4.12053 0
M  V30 5459 H 519.584 2.08122 -3.09418 0
M  V30 5460 N 521.769 1.56035 0.221574 0
M  V30 5461 C 522.997 1.8313 0.962864 0
M  V30 5462 C 523.412 0.630934 1.77946 0
M  V30 5463 O 522.769 -0.400519 1.78051 0
M  V30 5464 C 522.82 3.08742 1.88045 0
M  V30 5465 O 522.541 4.24147 1.09686 0
M  V30 5466 C 524.042 3.48824 2.73563 0
M  V30 5467 H 521.262 0.608775 0.282194 0
M  V30 5468 H 523.806 2.03124 0.23681 0
M  V30 5469 H 521.961 2.90723 2.56045 0
M  V30 5470 H 522.375 4.95505 1.71974 0
M  V30 5471 H 523.849 4.39752 3.3365 0
M  V30 5472 H 524.326 2.70575 3.45956 0
M  V30 5473 H 524.932 3.69282 2.10976 0
M  V30 5474 N 523.247 -0.488276 1.49845 0
M  V30 5475 C 524.177 -1.59675 1.70371 0
M  V30 5476 C 525.158 -1.60878 0.552473 0
M  V30 5477 O 526.343 -1.77417 0.78973 0
M  V30 5478 C 523.473 -2.98098 1.782 0
M  V30 5479 C 522.427 -3.11761 2.93239 0
M  V30 5480 C 521.753 -4.51661 2.86193 0
M  V30 5481 C 523.053 -2.90589 4.33999 0
M  V30 5482 H 524.747 -1.42752 2.63177 0
M  V30 5483 H 522.293 -0.685317 1.26647 0
M  V30 5484 H 524.246 -3.75555 1.91144 0
M  V30 5485 H 522.97 -3.16138 0.820018 0
M  V30 5486 H 521.629 -2.36732 2.79917 0
M  V30 5487 H 521.277 -4.66595 1.87877 0
M  V30 5488 H 520.977 -4.61742 3.63412 0
M  V30 5489 H 522.501 -5.31162 3.01163 0
M  V30 5490 H 523.915 -3.57807 4.47936 0
M  V30 5491 H 522.312 -3.1213 5.12538 0
M  V30 5492 H 523.382 -1.86595 4.4756 0
M  V30 5493 N 524.725 -1.39134 -0.740242 0
M  V30 5494 C 525.965 -1.37499 -1.51239 0
M  V30 5495 C 526.329 0.0310084 -1.91975 0
M  V30 5496 O 527.53 0.172319 -2.68247 0
M  V30 5497 C 525.801 -2.31566 -2.72235 0
M  V30 5498 S 527.36 -2.48073 -3.61947 0
M  V30 5499 H 524.178 -0.48768 -0.517387 0
M  V30 5500 H 526.78 -1.75183 -0.867826 0
M  V30 5501 H 525.484 -3.32592 -2.40439 0
M  V30 5502 H 525.015 -1.9508 -3.41625 0
M  V30 5503 H 527.03 -1.71473 -4.6563 0
M  V30 5504 N 526.204 0.969867 -1.24223 0
M  V30 5505 C 527.45 1.71582 -1.09231 0
M  V30 5506 C 527.805 1.88898 0.365432 0
M  V30 5507 O 527.098 1.43781 1.2664 0
M  V30 5508 C 527.292 3.10883 -1.76314 0
M  V30 5509 C 527.121 3.07155 -3.2846 0
M  V30 5510 C 525.891 3.11757 -3.97663 0
M  V30 5511 C 528.089 2.895 -4.25082 0
M  V30 5512 N 526.071 2.98025 -5.36707 0
M  V30 5513 C 527.442 2.84041 -5.51109 0
M  V30 5514 C 529.497 2.74064 -4.15684 0
M  V30 5515 C 528.2 2.64725 -6.68815 0
M  V30 5516 C 530.226 2.56115 -5.33066 0
M  V30 5517 C 529.588 2.51363 -6.58024 0
M  V30 5518 H 525.687 0.636496 -0.454309 0
M  V30 5519 H 528.271 1.15004 -1.57106 0
M  V30 5520 H 526.442 3.65657 -1.30955 0
M  V30 5521 H 528.174 3.74171 -1.54201 0
M  V30 5522 H 524.929 3.20352 -3.48814 0
M  V30 5523 H 525.353 2.94405 -6.09635 0
M  V30 5524 H 529.995 2.76521 -3.19837 0
M  V30 5525 H 527.713 2.61011 -7.64787 0
M  V30 5526 H 531.299 2.45119 -5.27644 0
M  V30 5527 H 530.179 2.37651 -7.47323 0
M  V30 5528 N 527.682 1.05563 1.17022 0
M  V30 5529 C 528.929 0.767937 1.87374 0
M  V30 5530 C 529.257 -0.705224 1.81265 0
M  V30 5531 O 528.512 -1.5318 1.21796 0
M  V30 5532 C 528.811 1.19849 3.36706 0
M  V30 5533 C 528.477 2.6745 3.63017 0
M  V30 5534 C 527.139 3.0777 3.69907 0
M  V30 5535 C 529.491 3.62811 3.74189 0
M  V30 5536 C 526.819 4.42307 3.85463 0
M  V30 5537 C 529.171 4.97087 3.91264 0
M  V30 5538 C 527.835 5.37055 3.96394 0
M  V30 5539 H 527.105 0.281008 0.68565 0
M  V30 5540 H 529.752 1.32339 1.38415 0
M  V30 5541 H 528.057 0.562096 3.87747 0
M  V30 5542 H 529.754 0.953038 3.8951 0
M  V30 5543 H 526.344 2.35228 3.58282 0
M  V30 5544 H 530.528 3.32798 3.68183 0
M  V30 5545 H 525.784 4.72769 3.87684 0
M  V30 5546 H 529.958 5.70869 3.9885 0
M  V30 5547 H 527.585 6.41308 4.082 0
M  V30 5548 N 529.16 -1.33526 0.837174 0
M  V30 5549 C 530.123 -2.27551 0.274421 0
M  V30 5550 C 531.123 -1.50886 -0.555881 0
M  V30 5551 O 532.313 -1.70227 -0.369918 0
M  V30 5552 C 529.445 -3.35332 -0.613605 0
M  V30 5553 H 530.638 -2.78837 1.10408 0
M  V30 5554 H 528.191 -1.439 0.610126 0
M  V30 5555 H 528.926 -2.89285 -1.46577 0
M  V30 5556 H 528.711 -3.92095 -0.0195341 0
M  V30 5557 H 530.201 -4.05433 -1.00068 0
M  V30 5558 N 530.638 -0.59345 -1.46 0
M  V30 5559 C 531.885 -0.0831523 -2.02329 0
M  V30 5560 C 532.213 1.28093 -1.46364 0
M  V30 5561 O 531.468 1.85526 -0.622793 0
M  V30 5562 C 531.767 0.021178 -3.57394 0
M  V30 5563 C 531.433 -1.27671 -4.32448 0
M  V30 5564 C 530.095 -1.63227 -4.5267 0
M  V30 5565 C 532.447 -2.13511 -4.7546 0
M  V30 5566 C 529.775 -2.84401 -5.1316 0
M  V30 5567 C 532.127 -3.33922 -5.37289 0
M  V30 5568 C 530.791 -3.69747 -5.55737 0
M  V30 5569 H 530.061 -0.0304276 -0.740375 0
M  V30 5570 H 532.708 -0.772239 -1.75239 0
M  V30 5571 H 531.013 0.793454 -3.83682 0
M  V30 5572 H 532.71 0.431942 -3.98667 0
M  V30 5573 H 529.3 -0.989937 -4.17011 0
M  V30 5574 H 533.484 -1.87344 -4.59582 0
M  V30 5575 H 528.74 -3.12282 -5.25633 0
M  V30 5576 H 532.914 -4.00698 -5.69574 0
M  V30 5577 H 530.541 -4.6373 -6.02377 0
M  V30 5578 N 532.116 1.54067 -0.331816 0
M  V30 5579 C 533.364 2.00319 0.267739 0
M  V30 5580 C 533.685 1.22148 1.52003 0
M  V30 5581 O 532.955 0.325494 1.93177 0
M  V30 5582 H 531.535 0.740014 0.101922 0
M  V30 5583 H 534.197 1.89628 -0.450267 0
M  V30 5584 H 533.293 3.07765 0.518385 0
M  V30 5585 N 533.594 0.0601682 1.57485 0
M  V30 5586 C 534.841 -0.611594 1.93043 0
M  V30 5587 C 535.169 -1.70317 0.939274 0
M  V30 5588 O 534.424 -1.95644 -0.046996 0
M  V30 5589 C 534.723 -1.23831 3.35262 0
M  V30 5590 C 534.389 -0.274037 4.50066 0
M  V30 5591 C 533.051 -0.00872394 4.81199 0
M  V30 5592 C 535.403 0.386308 5.19766 0
M  V30 5593 C 532.731 0.924218 5.79375 0
M  V30 5594 C 535.083 1.3075 6.1894 0
M  V30 5595 C 533.747 1.58139 6.48497 0
M  V30 5596 H 533.017 -0.223798 0.706396 0
M  V30 5597 H 535.664 0.128566 1.91068 0
M  V30 5598 H 533.969 -2.05394 3.33647 0
M  V30 5599 H 535.666 -1.76517 3.60059 0
M  V30 5600 H 532.256 -0.491008 4.25778 0
M  V30 5601 H 536.44 0.194436 4.95919 0
M  V30 5602 H 531.696 1.1438 6.00606 0
M  V30 5603 H 535.87 1.82519 6.72056 0
M  V30 5604 H 533.497 2.30593 7.24383 0
M  V30 5605 N 535.072 -1.5615 -0.213296 0
M  V30 5606 C 536.3 -1.83638 -0.953139 0
M  V30 5607 C 536.715 -0.640362 -1.77609 0
M  V30 5608 O 536.072 0.391071 -1.78261 0
M  V30 5609 C 536.123 -3.09735 -1.86405 0
M  V30 5610 O 535.844 -4.24723 -1.07435 0
M  V30 5611 C 537.345 -3.5027 -2.71709 0
M  V30 5612 H 534.565 -0.610263 -0.278962 0
M  V30 5613 H 537.109 -2.03247 -0.226035 0
M  V30 5614 H 535.264 -2.92077 -2.545 0
M  V30 5615 H 535.678 -4.9641 -1.69343 0
M  V30 5616 H 537.152 -4.41515 -3.31313 0
M  V30 5617 H 537.629 -2.72406 -3.44516 0
M  V30 5618 H 538.235 -3.70396 -2.09015 0
M  V30 5619 N 536.55 0.480323 -1.50102 0
M  V30 5620 C 537.797 1.23307 -1.60629 0
M  V30 5621 C 538.125 1.92135 -0.302375 0
M  V30 5622 O 537.38 1.82321 0.711154 0
M  V30 5623 C 537.679 2.30708 -2.72963 0
M  V30 5624 C 537.345 1.79195 -4.13763 0
M  V30 5625 C 536.007 1.64867 -4.52076 0
M  V30 5626 C 538.359 1.40878 -5.018 0
M  V30 5627 C 535.687 1.10631 -5.76175 0
M  V30 5628 C 538.039 0.880872 -6.26437 0
M  V30 5629 C 536.703 0.724146 -6.6356 0
M  V30 5630 H 535.973 0.451211 -0.587784 0
M  V30 5631 H 538.62 0.53051 -1.84005 0
M  V30 5632 H 536.925 3.06834 -2.43639 0
M  V30 5633 H 538.622 2.88692 -2.78313 0
M  V30 5634 H 535.212 1.91313 -3.83533 0
M  V30 5635 H 539.396 1.50786 -4.7284 0
M  V30 5636 H 534.652 0.972263 -6.0362 0
M  V30 5637 H 538.826 0.575269 -6.9402 0
M  V30 5638 H 536.453 0.301722 -7.59601 0
M  V30 5639 N 538.028 1.39524 0.732853 0
M  V30 5640 C 539.275 1.36865 1.49246 0
M  V30 5641 C 539.603 -0.0347118 1.94469 0
M  V30 5642 O 538.858 -1.01596 1.67262 0
M  V30 5643 C 539.157 2.28916 2.74468 0
M  V30 5644 C 538.823 3.76506 2.481 0
M  V30 5645 C 537.485 4.16721 2.40619 0
M  V30 5646 C 539.837 4.69846 2.25598 0
M  V30 5647 C 537.165 5.48334 2.08679 0
M  V30 5648 C 539.517 6.01739 1.95174 0
M  V30 5649 C 538.181 6.41015 1.86163 0
M  V30 5650 H 537.451 0.500824 0.546129 0
M  V30 5651 H 540.098 1.72047 0.840958 0
M  V30 5652 H 538.403 1.86859 3.4437 0
M  V30 5653 H 540.1 2.2415 3.32502 0
M  V30 5654 H 536.69 3.44635 2.54803 0
M  V30 5655 H 540.874 4.39608 2.30344 0
M  V30 5656 H 536.13 5.77685 2.00226 0
M  V30 5657 H 540.304 6.73591 1.76771 0
M  V30 5658 H 537.931 7.42917 1.61179 0
M  V30 5659 N 539.506 -0.963266 1.24736 0
M  V30 5660 C 540.754 -1.70343 1.08755 0
M  V30 5661 C 541.075 -1.91387 -0.373619 0
M  V30 5662 O 540.345 -1.4948 -1.2662 0
M  V30 5663 H 538.925 -0.631224 0.399456 0
M  V30 5664 H 541.587 -1.15859 1.56725 0
M  V30 5665 H 540.683 -2.68616 1.58909 0
M  V30 5666 N 540.985 -1.06182 -1.16461 0
M  V30 5667 C 541.915 -0.692861 -2.22984 0
M  V30 5668 C 542.896 0.314122 -1.67174 0
M  V30 5669 O 544.081 0.189499 -1.93273 0
M  V30 5670 C 541.211 -0.07732 -3.47214 0
M  V30 5671 C 540.165 -1.01015 -4.15909 0
M  V30 5672 C 539.491 -0.257973 -5.34077 0
M  V30 5673 C 540.791 -2.33868 -4.67015 0
M  V30 5674 H 542.485 -1.58343 -2.54102 0
M  V30 5675 H 540.031 -0.76279 -1.22137 0
M  V30 5676 H 541.984 0.19266 -4.20959 0
M  V30 5677 H 540.708 0.848254 -3.15392 0
M  V30 5678 H 539.367 -1.26486 -3.44088 0
M  V30 5679 H 539.015 0.670684 -4.98509 0
M  V30 5680 H 538.715 -0.879638 -5.80979 0
M  V30 5681 H 540.239 0.00448788 -6.106 0
M  V30 5682 H 541.653 -2.1279 -5.32347 0
M  V30 5683 H 540.05 -2.91522 -5.24533 0
M  V30 5684 H 541.12 -2.97019 -3.83286 0
M  V30 5685 N 542.463 1.3308 -0.844243 0
M  V30 5686 C 543.426 2.27403 -0.286485 0
M  V30 5687 C 544.426 1.51179 0.547872 0
M  V30 5688 O 545.616 1.70421 0.360886 0
M  V30 5689 C 542.748 3.35653 0.595813 0
M  V30 5690 H 543.941 2.78248 -1.11885 0
M  V30 5691 H 541.494 1.43574 -0.617749 0
M  V30 5692 H 542.229 2.90058 1.4504 0
M  V30 5693 H 542.014 3.921 -0.00125994 0
M  V30 5694 H 543.504 4.05958 0.979168 0
M  V30 5695 N 543.941 0.601185 1.45683 0
M  V30 5696 C 544.871 -0.108824 2.33246 0
M  V30 5697 C 545.852 -0.865223 1.46451 0
M  V30 5698 O 547.037 -0.83704 1.75235 0
M  V30 5699 C 544.167 -1.11101 3.2905 0
M  V30 5700 C 543.121 -0.468244 4.25431 0
M  V30 5701 C 542.447 -1.57822 5.10878 0
M  V30 5702 C 543.747 0.606469 5.18767 0
M  V30 5703 H 545.441 0.622306 2.92861 0
M  V30 5704 H 542.987 0.300714 1.40825 0
M  V30 5705 H 544.94 -1.61622 3.89174 0
M  V30 5706 H 543.664 -1.87265 2.67581 0
M  V30 5707 H 542.323 0.0160484 3.66596 0
M  V30 5708 H 541.971 -2.32998 4.45781 0
M  V30 5709 H 541.671 -1.15369 5.76163 0
M  V30 5710 H 543.195 -2.08583 5.73869 0
M  V30 5711 H 544.609 0.185589 5.73 0
M  V30 5712 H 543.006 0.952381 5.92494 0
M  V30 5713 H 544.076 1.48559 4.61582 0
M  V30 5714 N 545.419 -1.53889 0.339982 0
M  V30 5715 C 546.696 -1.93084 -0.312719 0
M  V30 5716 C 547.076 -1.2712 -1.68534 0
M  V30 5717 O 546.424 -0.420835 -2.24591 0
M  V30 5718 C 546.634 -3.4683 -0.388558 0
M  V30 5719 C 547.982 -4.19732 -0.641088 0
M  V30 5720 O 549.006 -3.53075 -0.470818 0
M  V30 5721 O 547.865 -5.3781 -0.970685 0
M  V30 5722 H 544.959 -0.806784 -0.18174 0
M  V30 5723 H 547.505 -1.65137 0.390898 0
M  V30 5724 H 546.277 -3.87055 0.574821 0
M  V30 5725 H 545.9 -3.80933 -1.1391 0
M  V30 5726 N 546.897 -0.0685191 -1.57451 0
M  V30 5727 C 547.827 0.89747 -2.15564 0
M  V30 5728 C 548.808 1.31266 -1.08181 0
M  V30 5729 O 549.993 1.38429 -1.36202 0
M  V30 5730 C 547.123 2.16623 -2.71463 0
M  V30 5731 C 546.077 1.89054 -3.83982 0
M  V30 5732 C 545.403 3.22532 -4.26471 0
M  V30 5733 C 546.703 1.1984 -5.08366 0
M  V30 5734 H 548.397 0.413373 -2.96533 0
M  V30 5735 H 545.943 0.197391 -1.42641 0
M  V30 5736 H 547.896 2.84614 -3.10761 0
M  V30 5737 H 546.62 2.67269 -1.8771 0
M  V30 5738 H 545.279 1.23469 -3.45183 0
M  V30 5739 H 544.927 3.71013 -3.39644 0
M  V30 5740 H 544.627 3.04879 -5.02317 0
M  V30 5741 H 546.151 3.91727 -4.68383 0
M  V30 5742 H 547.565 1.77896 -5.45001 0
M  V30 5743 H 545.962 1.12456 -5.89469 0
M  V30 5744 H 547.032 0.176996 -4.84577 0
M  V30 5745 N 548.375 1.56261 0.205012 0
M  V30 5746 C 549.307 1.90266 1.27795 0
M  V30 5747 C 550.32 0.792397 1.42214 0
M  V30 5748 O 551.509 1.07077 1.42817 0
M  V30 5749 C 548.609 2.11074 2.65143 0
M  V30 5750 C 547.782 3.42176 2.7246 0
M  V30 5751 C 546.841 3.52216 3.90936 0
M  V30 5752 O 545.867 4.25119 3.78501 0
M  V30 5753 N 547.069 2.84573 5.05963 0
M  V30 5754 H 549.834 2.82896 0.989434 0
M  V30 5755 H 547.395 1.57008 0.394981 0
M  V30 5756 H 549.387 2.15089 3.4281 0
M  V30 5757 H 547.957 1.2499 2.86524 0
M  V30 5758 H 547.177 3.50116 1.81142 0
M  V30 5759 H 548.465 4.28509 2.74331 0
M  V30 5760 H 547.863 2.25152 5.18963 0
M  V30 5761 H 546.42 2.94228 5.81613 0
M  V30 5762 N 549.853 -0.472356 1.50355 0
M  V30 5763 C 550.816 -1.5529 1.68576 0
M  V30 5764 C 551.816 -1.50863 0.556511 0
M  V30 5765 O 553.006 -1.53505 0.823516 0
M  V30 5766 C 550.138 -2.94921 1.70981 0
M  V30 5767 H 551.331 -1.40451 2.64978 0
M  V30 5768 H 548.884 -0.698645 1.39816 0
M  V30 5769 H 549.619 -3.15204 0.762675 0
M  V30 5770 H 549.404 -2.99541 2.53017 0
M  V30 5771 H 550.894 -3.73372 1.87037 0
M  V30 5772 N 551.331 -1.39911 -0.725443 0
M  V30 5773 C 552.261 -1.42138 -1.85254 0
M  V30 5774 C 553.242 -0.283513 -1.67721 0
M  V30 5775 O 554.427 -0.490717 -1.87898 0
M  V30 5776 C 551.557 -1.27354 -3.23107 0
M  V30 5777 C 550.511 -2.3864 -3.55296 0
M  V30 5778 C 549.837 -2.08939 -4.92188 0
M  V30 5779 C 551.137 -3.8097 -3.57295 0
M  V30 5780 H 552.831 -2.36461 -1.83648 0
M  V30 5781 H 550.377 -1.13817 -0.882138 0
M  V30 5782 H 552.33 -1.2753 -4.01639 0
M  V30 5783 H 551.054 -0.295025 -3.25265 0
M  V30 5784 H 549.713 -2.37696 -2.79099 0
M  V30 5785 H 549.361 -1.09502 -4.90936 0
M  V30 5786 H 549.061 -2.83491 -5.14691 0
M  V30 5787 H 550.585 -2.10781 -5.73065 0
M  V30 5788 H 551.999 -3.8379 -4.25885 0
M  V30 5789 H 550.396 -4.5496 -3.9132 0
M  V30 5790 H 551.466 -4.11261 -2.5689 0
M  V30 5791 N 552.809 0.956637 -1.25245 0
M  V30 5792 C 554.057 1.69764 -1.09657 0
M  V30 5793 C 554.378 1.91583 0.363464 0
M  V30 5794 O 553.648 1.50149 1.25825 0
M  V30 5795 H 552.228 0.629097 -0.402798 0
M  V30 5796 H 554.89 1.15026 -1.57337 0
M  V30 5797 H 553.986 2.67769 -1.60331 0
M  V30 5798 N 554.287 1.06798 1.15896 0
M  V30 5799 C 555.512 0.808739 1.90982 0
M  V30 5800 C 555.937 -0.6316 1.77179 0
M  V30 5801 O 555.295 -1.4407 1.10061 0
M  V30 5802 C 555.343 1.21468 3.39526 0
M  V30 5803 O 554.447 0.356562 4.10856 0
M  V30 5804 H 553.788 0.29512 0.594811 0
M  V30 5805 H 556.318 1.42513 1.46804 0
M  V30 5806 H 556.328 1.18844 3.90308 0
M  V30 5807 H 555.003 2.26379 3.48891 0
M  V30 5808 H 553.58 0.444808 3.70238 0
M  V30 5809 N 555.766 -1.3263 0.851289 0
M  V30 5810 C 556.714 -2.30882 0.282202 0
M  V30 5811 C 557.708 -1.58697 -0.592589 0
M  V30 5812 O 558.914 -1.73461 -0.480768 0
M  V30 5813 H 555.289 -0.748492 0.0725487 0
M  V30 5814 H 557.26 -2.76374 1.12516 0
M  V30 5815 C 556.009 -3.43828 -0.517449 0
M  V30 5816 H 555.332 -3.99532 0.146392 0
M  V30 5817 H 556.772 -4.1474 -0.88128 0
M  V30 5818 C 555.231 -2.90786 -1.70133 0
M  V30 5819 O 555.761 -2.88 -2.80034 0
M  V30 5820 N 553.967 -2.4723 -1.52728 0
M  V30 5821 H 553.514 -2.49695 -0.633257 0
M  V30 5822 H 553.472 -2.12094 -2.32085 0
M  V30 5823 N 557.244 -0.608902 -1.45362 0
M  V30 5824 C 558.493 -0.10218 -2.01441 0
M  V30 5825 C 558.806 1.27546 -1.48295 0
M  V30 5826 O 560.012 1.87498 -1.96359 0
M  V30 5827 C 558.468 -0.131985 -3.59658 0
M  V30 5828 C 558.076 -1.50956 -4.21801 0
M  V30 5829 C 559.82 0.319427 -4.23296 0
M  V30 5830 C 557.727 -1.49568 -5.72174 0
M  V30 5831 H 556.657 -0.0344314 -0.753213 0
M  V30 5832 H 559.308 -0.764426 -1.6682 0
M  V30 5833 H 557.69 0.596939 -3.91475 0
M  V30 5834 H 558.864 -2.26029 -4.01556 0
M  V30 5835 H 557.179 -1.90318 -3.70362 0
M  V30 5836 H 559.776 0.349013 -5.3356 0
M  V30 5837 H 560.119 1.34237 -3.94064 0
M  V30 5838 H 560.652 -0.356273 -3.96201 0
M  V30 5839 H 557.391 -2.49626 -6.06108 0
M  V30 5840 H 556.911 -0.787542 -5.94607 0
M  V30 5841 H 558.59 -1.21989 -6.35396 0
M  V30 5842 N 558.722 1.53707 -0.348139 0
M  V30 5843 C 559.969 2.00988 0.246966 0
M  V30 5844 C 560.297 1.23586 1.50189 0
M  V30 5845 O 559.552 0.312817 1.93184 0
M  V30 5846 C 559.851 3.52292 0.602061 0
M  V30 5847 C 559.517 4.47453 -0.556509 0
M  V30 5848 C 558.179 4.73188 -0.874446 0
M  V30 5849 C 560.531 5.03851 -1.33354 0
M  V30 5850 C 557.859 5.52577 -1.9717 0
M  V30 5851 C 560.211 5.84437 -2.42108 0
M  V30 5852 C 558.875 6.08465 -2.74456 0
M  V30 5853 H 558.145 0.735469 0.0903712 0
M  V30 5854 H 560.792 1.85464 -0.477001 0
M  V30 5855 H 559.097 3.65672 1.40681 0
M  V30 5856 H 560.794 3.86337 1.07447 0
M  V30 5857 H 557.384 4.27558 -0.298652 0
M  V30 5858 H 561.568 4.8393 -1.10117 0
M  V30 5859 H 556.824 5.69418 -2.22651 0
M  V30 5860 H 560.998 6.27151 -3.02745 0
M  V30 5861 H 558.625 6.69768 -3.59604 0
M  V30 5862 N 560.2 0.0768682 1.57412 0
M  V30 5863 C 561.13 -0.886026 2.16037 0
M  V30 5864 C 562.111 -1.30691 1.08876 0
M  V30 5865 O 563.296 -1.37705 1.36934 0
M  V30 5866 C 560.426 -2.1518 2.72608 0
M  V30 5867 C 559.38 -1.87015 3.8498 0
M  V30 5868 C 558.706 -3.20266 4.28175 0
M  V30 5869 C 560.006 -1.17143 5.08994 0
M  V30 5870 H 561.7 -0.397642 2.96748 0
M  V30 5871 H 559.246 -0.189823 1.42743 0
M  V30 5872 H 561.199 -2.82962 3.12266 0
M  V30 5873 H 559.923 -2.66269 1.89125 0
M  V30 5874 H 558.582 -1.21636 3.45833 0
M  V30 5875 H 558.23 -3.69207 3.41607 0
M  V30 5876 H 557.93 -3.0221 5.03927 0
M  V30 5877 H 559.454 -3.89237 4.70454 0
M  V30 5878 H 560.868 -1.75003 5.45937 0
M  V30 5879 H 559.265 -1.09328 5.90057 0
M  V30 5880 H 560.335 -0.151295 4.84664 0
M  V30 5881 N 561.678 -1.56367 -0.196722 0
M  V30 5882 C 562.608 -1.97442 -1.24655 0
M  V30 5883 C 563.589 -0.846147 -1.47561 0
M  V30 5884 O 564.774 -1.11035 -1.59326 0
M  V30 5885 C 561.904 -2.31253 -2.59112 0
M  V30 5886 C 560.858 -3.46804 -2.50821 0
M  V30 5887 C 560.184 -3.66286 -3.89536 0
M  V30 5888 C 561.484 -4.8104 -2.03465 0
M  V30 5889 H 563.178 -2.85388 -0.905216 0
M  V30 5890 H 560.724 -1.37304 -0.434002 0
M  V30 5891 H 562.677 -2.58583 -3.32736 0
M  V30 5892 H 561.401 -1.40188 -2.94983 0
M  V30 5893 H 560.06 -3.19563 -1.79653 0
M  V30 5894 H 559.708 -2.72555 -4.22756 0
M  V30 5895 H 559.408 -4.4402 -3.84864 0
M  V30 5896 H 560.932 -3.9599 -4.64784 0
M  V30 5897 H 562.346 -5.07411 -2.66846 0
M  V30 5898 H 560.743 -5.62232 -2.09798 0
M  V30 5899 H 561.813 -4.74732 -0.98781 0
M  V30 5900 N 563.156 0.464375 -1.50603 0
M  V30 5901 C 564.088 1.57916 -1.66118 0
M  V30 5902 C 565.101 1.53497 -0.54246 0
M  V30 5903 O 566.29 1.58763 -0.815877 0
M  V30 5904 C 563.39 2.96809 -1.63577 0
M  V30 5905 C 562.563 3.26026 -2.91592 0
M  V30 5906 C 561.622 4.44506 -2.81604 0
M  V30 5907 O 560.648 4.44484 -3.55559 0
M  V30 5908 N 561.85 5.46549 -1.95614 0
M  V30 5909 H 564.615 1.45022 -2.62276 0
M  V30 5910 H 562.176 0.652903 -1.48151 0
M  V30 5911 H 564.168 3.74048 -1.54499 0
M  V30 5912 H 562.738 3.03438 -0.751262 0
M  V30 5913 H 561.958 2.37337 -3.14746 0
M  V30 5914 H 563.246 3.42361 -3.76386 0
M  V30 5915 H 562.644 5.49391 -1.34854 0
M  V30 5916 H 561.201 6.22746 -1.92435 0
M  V30 5917 N 564.634 1.40294 0.718013 0
M  V30 5918 C 565.567 1.34767 1.84155 0
M  V30 5919 C 566.545 0.218455 1.61126 0
M  V30 5920 O 567.729 0.401716 1.8417 0
M  V30 5921 C 564.856 1.09676 3.20451 0
M  V30 5922 C 563.902 2.25016 3.62312 0
M  V30 5923 S 564.735 3.87397 3.69707 0
M  V30 5924 C 565.891 3.64565 5.08766 0
M  V30 5925 H 566.124 2.29851 1.88562 0
M  V30 5926 H 563.657 1.2655 0.884555 0
M  V30 5927 H 565.615 0.95885 3.99144 0
M  V30 5928 H 564.276 0.162502 3.13679 0
M  V30 5929 H 563.469 2.03097 4.61268 0
M  V30 5930 H 563.071 2.35098 2.90869 0
M  V30 5931 H 565.363 3.22882 5.95612 0
M  V30 5932 H 566.306 4.63043 5.35721 0
M  V30 5933 H 566.714 2.98303 4.79245 0
M  V30 5934 N 566.112 -0.949982 1.2575 0
M  V30 5935 C 567.359 -1.69515 1.10774 0
M  V30 5936 C 567.687 -1.91316 -0.350479 0
M  V30 5937 O 566.942 -1.48515 -1.27443 0
M  V30 5938 C 567.241 -3.08039 1.81237 0
M  V30 5939 C 566.907 -3.06023 3.31151 0
M  V30 5940 C 565.569 -3.0518 3.72047 0
M  V30 5941 C 567.921 -2.98998 4.26907 0
M  V30 5942 C 565.249 -2.95067 5.07102 0
M  V30 5943 C 567.601 -2.90426 5.61992 0
M  V30 5944 C 566.265 -2.87922 6.0221 0
M  V30 5945 H 565.535 -0.6203 0.405351 0
M  V30 5946 H 568.182 -1.10953 1.56082 0
M  V30 5947 H 566.487 -3.70172 1.28373 0
M  V30 5948 H 568.184 -3.64526 1.67098 0
M  V30 5949 H 564.774 -3.07453 2.98614 0
M  V30 5950 H 568.958 -2.98764 3.963 0
M  V30 5951 H 564.214 -2.915 5.37436 0
M  V30 5952 H 568.388 -2.83952 6.35881 0
M  V30 5953 H 566.015 -2.79841 7.06819 0
M  V30 5954 N 567.59 -1.07411 -1.15328 0
M  V30 5955 C 568.839 -0.792643 -1.85473 0
M  V30 5956 C 569.152 0.683789 -1.83259 0
M  V30 5957 O 570.358 1.08005 -2.49093 0
M  V30 5958 C 568.814 -1.36787 -3.32892 0
M  V30 5959 C 568.422 -2.87536 -3.43551 0
M  V30 5960 C 570.166 -1.16444 -4.08217 0
M  V30 5961 C 568.073 -3.38247 -4.85122 0
M  V30 5962 H 567.003 -0.292838 -0.694811 0
M  V30 5963 H 569.654 -1.29426 -1.30082 0
M  V30 5964 H 568.036 -0.793993 -3.87958 0
M  V30 5965 H 569.21 -3.50973 -2.98588 0
M  V30 5966 H 567.525 -3.06676 -2.81672 0
M  V30 5967 H 570.122 -1.51808 -5.12697 0
M  V30 5968 H 570.465 -0.10353 -4.16171 0
M  V30 5969 H 570.998 -1.70472 -3.59422 0
M  V30 5970 H 567.737 -4.43866 -4.82351 0
M  V30 5971 H 567.257 -2.79564 -5.30664 0
M  V30 5972 H 568.936 -3.34238 -5.5398 0
M  V30 5973 N 569.068 1.32177 -0.85831 0
M  V30 5974 C 570.316 1.96735 -0.462568 0
M  V30 5975 C 570.637 1.6824 0.985911 0
M  V30 5976 O 569.907 0.991564 1.68952 0
M  V30 5977 H 568.487 0.727849 -0.168064 0
M  V30 5978 H 571.149 1.61195 -1.09554 0
M  V30 5979 H 570.245 3.06068 -0.610647 0
M  V30 5980 N 570.547 0.616602 1.45037 0
M  V30 5981 C 571.793 0.115501 2.02471 0
M  V30 5982 C 572.126 -1.25406 1.4828 0
M  V30 5983 O 571.401 -1.82922 0.661051 0
M  V30 5984 C 571.684 0.0863588 3.59996 0
M  V30 5985 C 571.537 1.48723 4.24501 0
M  V30 5986 C 572.856 -0.596762 4.36035 0
M  V30 5987 H 569.975 0.0434461 0.735718 0
M  V30 5988 H 572.617 0.7903 1.72784 0
M  V30 5989 H 570.767 -0.488277 3.85419 0
M  V30 5990 H 572.439 2.10964 4.10234 0
M  V30 5991 H 570.682 2.04534 3.82555 0
M  V30 5992 H 571.353 1.419 5.3345 0
M  V30 5993 H 573.829 -0.10824 4.15959 0
M  V30 5994 H 572.705 -0.586289 5.4576 0
M  V30 5995 H 572.966 -1.66451 4.09569 0
M  V30 5996 N 572.025 -1.5352 0.356285 0
M  V30 5997 C 573.271 -2.01414 -0.236653 0
M  V30 5998 C 573.604 -1.24339 -1.49176 0
M  V30 5999 O 572.879 -0.334496 -1.91602 0
M  V30 6000 C 573.162 -3.56059 -0.537982 0
M  V30 6001 C 573.015 -4.43835 0.730112 0
M  V30 6002 C 574.334 -4.19127 -1.34239 0
M  V30 6003 H 571.453 -0.732135 -0.0845386 0
M  V30 6004 H 574.095 -1.83854 0.479341 0
M  V30 6005 H 572.245 -3.71153 -1.14795 0
M  V30 6006 H 573.917 -4.40555 1.36782 0
M  V30 6007 H 572.16 -4.1218 1.3524 0
M  V30 6008 H 572.831 -5.49958 0.474358 0
M  V30 6009 H 575.307 -4.07809 -0.826498 0
M  V30 6010 H 574.183 -5.27378 -1.52198 0
M  V30 6011 H 574.444 -3.74581 -2.34822 0
M  V30 6012 N 573.503 -0.0852151 -1.57369 0
M  V30 6013 C 574.78 0.622534 -1.85429 0
M  V30 6014 C 575.16 1.86962 -0.980229 0
M  V30 6015 O 574.508 2.28445 -0.0500219 0
M  V30 6016 C 574.718 0.947374 -3.35896 0
M  V30 6017 C 576.066 1.31509 -4.03721 0
M  V30 6018 O 577.09 1.03869 -3.40719 0
M  V30 6019 O 575.949 1.83231 -5.14868 0
M  V30 6020 H 573.043 0.310513 -0.766492 0
M  V30 6021 H 575.589 -0.117164 -1.69295 0
M  V30 6022 H 574.361 0.0622264 -3.91251 0
M  V30 6023 H 573.984 1.74338 -3.5734 0
M  V30 6024 N 574.981 1.5647 0.188427 0
M  V30 6025 C 576.23 1.80207 0.905995 0
M  V30 6026 C 576.543 0.659579 1.84144 0
M  V30 6027 O 577.749 0.781431 2.60011 0
M  V30 6028 C 576.205 3.19255 1.66145 0
M  V30 6029 C 575.813 4.41324 0.770504 0
M  V30 6030 C 577.557 3.52298 2.36826 0
M  V30 6031 C 575.464 5.71394 1.52521 0
M  V30 6032 H 574.394 0.671953 0.342045 0
M  V30 6033 H 577.045 1.82808 0.159164 0
M  V30 6034 H 575.427 3.10922 2.45242 0
M  V30 6035 H 576.601 4.60797 0.0177261 0
M  V30 6036 H 574.916 4.16035 0.174199 0
M  V30 6037 H 577.513 4.46715 2.93854 0
M  V30 6038 H 577.856 2.76359 3.11338 0
M  V30 6039 H 578.389 3.62108 1.6469 0
M  V30 6040 H 575.128 6.50316 0.82275 0
M  V30 6041 H 574.648 5.55928 2.25175 0
M  V30 6042 H 576.327 6.12747 2.07725 0
M  V30 6043 N 576.459 -0.456382 1.50847 0
M  V30 6044 C 577.87 -1.03685 1.55262 0
M  V30 6045 C 578.221 -1.92779 0.364771 0
M  V30 6046 O 577.346 -2.10043 -0.52068 0
M  V30 6047 C 577.941 -1.88718 2.81374 0
M  V30 6048 C 576.5 -2.41847 2.88422 0
M  V30 6049 C 575.647 -1.20564 2.49719 0
M  V30 6050 H 578.598 -0.238399 1.56899 0
M  V30 6051 H 578.619 -2.73957 2.6406 0
M  V30 6052 H 578.131 -1.23847 3.67809 0
M  V30 6053 H 576.232 -3.10228 2.06372 0
M  V30 6054 H 576.345 -2.75947 3.9165 0
M  V30 6055 H 574.709 -1.54504 2.02486 0
M  V30 6056 H 575.492 -0.573326 3.38479 0
M  V30 6057 N 577.937 -1.40673 -0.710563 0
M  V30 6058 C 578.9 -1.4108 -1.80635 0
M  V30 6059 C 579.9 -0.303783 -1.57904 0
M  V30 6060 O 581.09 -0.562937 -1.64853 0
M  V30 6061 C 578.222 -1.20748 -3.18799 0
M  V30 6062 H 579.415 -2.38612 -1.81671 0
M  V30 6063 H 576.968 -1.26595 -0.916704 0
M  V30 6064 H 577.703 -0.239964 -3.23411 0
M  V30 6065 H 577.488 -2.00941 -3.36698 0
M  V30 6066 H 578.978 -1.23833 -3.98817 0
M  V30 6067 N 579.415 0.9433 -1.26252 0
M  V30 6068 C 580.362 2.0417 -1.07625 0
M  V30 6069 C 581.332 1.6609 0.0180738 0
M  V30 6070 O 582.517 1.90276 -0.141289 0
M  V30 6071 C 579.657 3.37653 -0.713043 0
M  V30 6072 C 578.77 3.88783 -1.8834 0
M  V30 6073 C 577.905 5.10642 -1.4635 0
M  V30 6074 C 576.944 5.54028 -2.60229 0
M  V30 6075 N 576.081 6.67092 -2.18936 0
M  V30 6076 H 580.921 2.19436 -2.01623 0
M  V30 6077 H 578.458 1.07519 -1.00389 0
M  V30 6078 H 580.416 4.14391 -0.483358 0
M  V30 6079 H 579.046 3.22241 0.18996 0
M  V30 6080 H 578.098 3.08464 -2.22608 0
M  V30 6081 H 579.41 4.16922 -2.73821 0
M  V30 6082 H 578.564 5.94832 -1.19414 0
M  V30 6083 H 577.303 4.84244 -0.579568 0
M  V30 6084 H 576.308 4.68396 -2.87898 0
M  V30 6085 H 577.533 5.82429 -3.49219 0
M  V30 6086 H 575.479 6.42381 -1.32974 0
M  V30 6087 H 575.396 6.94806 -2.97961 0
M  V30 6088 H 576.664 7.54662 -1.95206 0
M  V30 6089 N 580.893 1.08022 1.14757 0
M  V30 6090 C 581.826 0.650738 2.18725 0
M  V30 6091 C 582.804 -0.335496 1.59101 0
M  V30 6092 O 583.988 -0.240295 1.86962 0
M  V30 6093 C 581.115 -0.0434377 3.38672 0
M  V30 6094 C 580.161 0.90232 4.16846 0
M  V30 6095 S 580.994 2.40693 4.78359 0
M  V30 6096 C 582.15 1.72475 6.01667 0
M  V30 6097 H 582.383 1.53152 2.54817 0
M  V30 6098 H 579.916 0.894823 1.25826 0
M  V30 6099 H 581.874 -0.437684 4.0816 0
M  V30 6100 H 580.535 -0.900659 3.0091 0
M  V30 6101 H 579.728 0.363445 5.02688 0
M  V30 6102 H 579.33 1.23728 3.52941 0
M  V30 6103 H 581.622 1.0404 6.69464 0
M  V30 6104 H 582.565 2.56175 6.60136 0
M  V30 6105 H 582.973 1.19979 5.51602 0
M  V30 6106 N 582.371 -1.3172 0.865308 0
M  V30 6107 C 583.619 -1.96487 0.472995 0
M  V30 6108 C 583.94 -1.68761 -0.976975 0
M  V30 6109 O 583.21 -1.00051 -1.68424 0
M  V30 6110 H 581.79 -0.726947 0.171922 0
M  V30 6111 H 584.452 -1.60612 1.10407 0
M  V30 6112 H 583.548 -3.0574 0.62687 0
M  V30 6113 N 583.85 -0.624285 -1.44708 0
M  V30 6114 C 584.812 0.0749638 -2.29077 0
M  V30 6115 C 585.812 0.778965 -1.40673 0
M  V30 6116 O 587.003 0.624591 -1.62618 0
M  V30 6117 C 584.135 1.11663 -3.22094 0
M  V30 6118 H 585.327 -0.667013 -2.92388 0
M  V30 6119 H 582.88 -0.384098 -1.51507 0
M  V30 6120 H 583.615 1.88881 -2.63618 0
M  V30 6121 H 583.401 0.61583 -3.87234 0
M  V30 6122 H 584.891 1.60585 -3.8549 0
M  V30 6123 N 585.328 1.53329 -0.364422 0
M  V30 6124 C 586.258 2.28627 0.474543 0
M  V30 6125 C 587.239 1.31009 1.08492 0
M  V30 6126 O 588.424 1.59878 1.10239 0
M  V30 6127 C 585.554 3.07465 1.61501 0
M  V30 6128 C 584.508 4.1276 1.13194 0
M  V30 6129 C 583.834 4.79674 2.36255 0
M  V30 6130 C 585.134 5.21847 0.217507 0
M  V30 6131 H 586.828 2.99005 -0.153656 0
M  V30 6132 H 584.374 1.43803 -0.0753406 0
M  V30 6133 H 586.327 3.58889 2.20855 0
M  V30 6134 H 585.051 2.34775 2.27042 0
M  V30 6135 H 583.71 3.62281 0.56109 0
M  V30 6136 H 583.358 4.03557 3.00251 0
M  V30 6137 H 583.058 5.50827 2.04606 0
M  V30 6138 H 584.582 5.33892 2.96297 0
M  V30 6139 H 585.996 5.6878 0.718493 0
M  V30 6140 H 584.393 6.00099 -0.00806408 0
M  V30 6141 H 585.463 4.7921 -0.740653 0
M  V30 6142 N 586.806 0.0935595 1.57322 0
M  V30 6143 C 587.736 -0.863062 2.16964 0
M  V30 6144 C 588.717 -1.29528 1.10256 0
M  V30 6145 O 589.902 -1.36245 1.38387 0
M  V30 6146 C 587.032 -2.12276 2.74875 0
M  V30 6147 C 585.986 -1.82921 3.86942 0
M  V30 6148 C 585.312 -3.15707 4.31548 0
M  V30 6149 C 586.612 -1.11737 5.10208 0
M  V30 6150 H 588.306 -0.366145 2.97153 0
M  V30 6151 H 585.852 -0.174673 1.42937 0
M  V30 6152 H 587.805 -2.79634 3.1525 0
M  V30 6153 H 586.529 -2.64248 1.91938 0
M  V30 6154 H 585.188 -1.17961 3.47103 0
M  V30 6155 H 584.836 -3.65563 3.45504 0
M  V30 6156 H 584.536 -2.96849 5.07104 0
M  V30 6157 H 586.06 -3.84226 4.74555 0
M  V30 6158 H 587.474 -1.69203 5.47762 0
M  V30 6159 H 585.871 -1.03064 5.91183 0
M  V30 6160 H 586.941 -0.0998818 4.84797 0
M  V30 6161 N 588.284 -1.56567 -0.180126 0
M  V30 6162 C 589.214 -1.98753 -1.22553 0
M  V30 6163 C 590.195 -0.86175 -1.46656 0
M  V30 6164 O 591.38 -1.12719 -1.58139 0
M  V30 6165 C 588.51 -2.33988 -2.56645 0
M  V30 6166 C 587.464 -3.49445 -2.47128 0
M  V30 6167 C 586.79 -3.70397 -3.8563 0
M  V30 6168 C 588.09 -4.83171 -1.98352 0
M  V30 6169 H 589.784 -2.86332 -0.874896 0
M  V30 6170 H 587.33 -1.37757 -0.419414 0
M  V30 6171 H 589.283 -2.62097 -3.29974 0
M  V30 6172 H 588.007 -1.43309 -2.93479 0
M  V30 6173 H 586.666 -3.2145 -1.76254 0
M  V30 6174 H 586.314 -2.77023 -4.19842 0
M  V30 6175 H 586.014 -4.48077 -3.80132 0
M  V30 6176 H 587.538 -4.00897 -4.60558 0
M  V30 6177 H 588.952 -5.10213 -2.61449 0
M  V30 6178 H 587.349 -5.64425 -2.03823 0
M  V30 6179 H 588.419 -4.75753 -0.937402 0
M  V30 6180 N 589.762 0.448376 -1.51087 0
M  V30 6181 C 590.692 1.55102 -1.74544 0
M  V30 6182 C 591.673 1.59357 -0.594932 0
M  V30 6183 O 592.858 1.75261 -0.836491 0
M  V30 6184 C 589.988 2.93268 -1.86041 0
M  V30 6185 C 588.942 3.03877 -3.01402 0
M  V30 6186 C 588.268 4.43914 -2.98068 0
M  V30 6187 C 589.568 2.7898 -4.41551 0
M  V30 6188 H 591.262 1.35724 -2.66869 0
M  V30 6189 H 588.808 0.651498 -1.28419 0
M  V30 6190 H 590.761 3.70356 -2.01034 0
M  V30 6191 H 589.485 3.13853 -0.903548 0
M  V30 6192 H 588.144 2.29227 -2.86096 0
M  V30 6193 H 587.792 4.6145 -2.00182 0
M  V30 6194 H 587.492 4.51944 -3.75527 0
M  V30 6195 H 589.016 5.22991 -3.1514 0
M  V30 6196 H 590.43 3.45805 -4.57265 0
M  V30 6197 H 588.827 2.98431 -5.20633 0
M  V30 6198 H 589.897 1.74663 -4.5235 0
M  V30 6199 N 591.24 1.41047 0.703093 0
M  V30 6200 C 592.465 1.43537 1.49706 0
M  V30 6201 C 592.89 0.0401853 1.88057 0
M  V30 6202 O 592.248 -0.954785 1.54122 0
M  V30 6203 C 592.296 2.3433 2.74084 0
M  V30 6204 O 591.4 1.79515 3.71279 0
M  V30 6205 H 590.741 0.487454 0.450871 0
M  V30 6206 H 593.271 1.85422 0.86486 0
M  V30 6207 H 593.281 2.49947 3.22476 0
M  V30 6208 H 591.956 3.35708 2.45506 0
M  V30 6209 H 590.533 1.7331 3.30179 0
M  V30 6210 N 592.718 -0.936591 1.26751 0
M  V30 6211 C 593.668 -2.0219 1.05371 0
M  V30 6212 C 594.652 -1.60893 -0.0154112 0
M  V30 6213 O 595.844 -1.75843 0.202085 0
M  V30 6214 C 592.973 -3.36222 0.693541 0
M  V30 6215 C 592.059 -3.8399 1.80035 0
M  V30 6216 N 592.45 -4.0436 3.03852 0
M  V30 6217 C 590.748 -4.12945 1.685 0
M  V30 6218 C 591.449 -4.44 3.75818 0
M  V30 6219 N 590.425 -4.50966 3.03531 0
M  V30 6220 H 594.227 -2.15958 1.99347 0
M  V30 6221 H 591.741 -1.12277 1.17335 0
M  V30 6222 H 593.738 -4.13625 0.521513 0
M  V30 6223 H 592.398 -3.23821 -0.238693 0
M  V30 6224 H 593.409 -3.9092 3.39709 0
M  V30 6225 H 590.086 -4.09308 0.822986 0
M  V30 6226 H 591.476 -4.67914 4.82189 0
M  V30 6227 N 594.196 -1.08629 -1.14182 0
M  V30 6228 C 595.126 -0.740003 -2.21464 0
M  V30 6229 C 596.107 0.278591 -1.67803 0
M  V30 6230 O 597.292 0.148461 -1.93632 0
M  V30 6231 C 594.422 -0.150952 -3.46972 0
M  V30 6232 C 593.376 -1.09815 -4.13672 0
M  V30 6233 C 592.702 -0.3712 -5.3341 0
M  V30 6234 C 594.002 -2.43722 -4.61949 0
M  V30 6235 H 595.696 -1.63697 -2.50686 0
M  V30 6236 H 593.242 -0.788526 -1.20492 0
M  V30 6237 H 595.195 0.103325 -4.21273 0
M  V30 6238 H 593.919 0.781164 -3.1712 0
M  V30 6239 H 592.578 -1.33756 -3.41328 0
M  V30 6240 H 592.226 0.564792 -4.99819 0
M  V30 6241 H 591.926 -1.00267 -5.78982 0
M  V30 6242 H 593.45 -0.12503 -6.10472 0
M  V30 6243 H 594.864 -2.24034 -5.27714 0
M  V30 6244 H 593.261 -3.02582 -5.18232 0
M  V30 6245 H 594.331 -3.05082 -3.76899 0
M  V30 6246 N 595.674 1.31259 -0.872281 0
M  V30 6247 C 596.922 1.96233 -0.483409 0
M  V30 6248 C 597.243 1.69276 0.968012 0
M  V30 6249 O 596.513 1.00943 1.67891 0
M  V30 6250 H 595.093 0.726025 -0.175774 0
M  V30 6251 H 597.755 1.60024 -1.11258 0
M  V30 6252 H 596.851 3.05403 -0.643075 0
M  V30 6253 N 597.152 0.631951 1.44375 0
M  V30 6254 C 598.568 0.297642 1.568 0
M  V30 6255 C 598.768 -1.19916 1.61934 0
M  V30 6256 O 597.824 -1.98324 1.56281 0
M  V30 6257 C 599.137 0.990286 2.83926 0
M  V30 6258 C 600.685 0.968507 2.97639 0
M  V30 6259 C 601.16 1.64163 4.27568 0
M  V30 6260 N 602.651 1.60826 4.34384 0
M  V30 6261 C 603.386 2.09802 5.33639 0
M  V30 6262 N 602.882 2.66973 6.39294 0
M  V30 6263 N 604.675 2.00426 5.25153 0
M  V30 6264 H 596.826 1.60353 1.39286 0
M  V30 6265 H 599.089 0.673142 0.667521 0
M  V30 6266 H 598.795 2.04519 2.8612 0
M  V30 6267 H 598.669 0.528563 3.73478 0
M  V30 6268 H 601.056 -0.0779247 2.94997 0
M  V30 6269 H 601.137 1.46873 2.09433 0
M  V30 6270 H 600.781 2.68752 4.3097 0
M  V30 6271 H 600.711 1.11624 5.14634 0
M  V30 6272 H 603.202 1.19087 3.58646 0
M  V30 6273 H 603.515 3.02074 7.11316 0
M  V30 6274 H 601.86 2.71024 6.39977 0
M  V30 6275 H 605.051 1.55483 4.41523 0
M  V30 6276 H 605.224 2.38906 6.02352 0
M  V30 6277 N 598.631 -1.53133 0.372548 0
M  V30 6278 C 600.047 -1.59585 0.02178 0
M  V30 6279 C 600.247 -1.38736 -1.46132 0
M  V30 6280 O 599.303 -1.19599 -2.22379 0
M  V30 6281 C 600.616 -2.9678 0.483959 0
M  V30 6282 C 602.164 -3.09909 0.438775 0
M  V30 6283 C 602.639 -4.49527 0.876876 0
M  V30 6284 N 604.13 -4.55663 0.832214 0
M  V30 6285 C 604.865 -5.61896 1.14281 0
M  V30 6286 N 604.361 -6.75852 1.52303 0
M  V30 6287 N 606.154 -5.51916 1.06515 0
M  V30 6288 H 598.305 -1.64936 1.33827 0
M  V30 6289 H 600.568 -0.773947 0.547458 0
M  V30 6290 H 600.274 -3.17198 1.51915 0
M  V30 6291 H 600.148 -3.7699 -0.125784 0
M  V30 6292 H 602.535 -2.89197 -0.587294 0
M  V30 6293 H 602.616 -2.31691 1.0841 0
M  V30 6294 H 602.26 -4.70979 1.90109 0
M  V30 6295 H 602.19 -5.26186 0.208727 0
M  V30 6296 H 604.681 -3.73844 0.552195 0
M  V30 6297 H 604.994 -7.52862 1.7441 0
M  V30 6298 H 603.339 -6.77226 1.56175 0
M  V30 6299 H 606.53 -4.6177 0.767235 0
M  V30 6300 H 606.703 -6.34609 1.31053 0
M  V30 6301 N 600.109 -0.101901 -1.5727 0
M  V30 6302 C 601.52 0.426173 -1.81771 0
M  V30 6303 C 601.871 1.67725 -1.01797 0
M  V30 6304 O 600.996 2.14958 -0.249386 0
M  V30 6305 C 601.591 0.779962 -3.297 0
M  V30 6306 C 600.15 1.25275 -3.54941 0
M  V30 6307 C 599.297 0.252814 -2.76145 0
M  V30 6308 H 602.248 -0.32726 -1.55289 0
M  V30 6309 H 602.269 1.63891 -3.43395 0
M  V30 6310 H 601.781 -0.130778 -3.8788 0
M  V30 6311 H 599.882 2.18097 -3.021 0
M  V30 6312 H 599.995 1.20988 -4.63572 0
M  V30 6313 H 598.359 0.736362 -2.43823 0
M  V30 6314 H 599.142 -0.650724 -3.37076 0
M  V30 6315 N 601.587 1.56661 0.17182 0
M  V30 6316 C 602.815 1.861 0.904115 0
M  V30 6317 C 603.23 0.687227 1.75848 0
M  V30 6318 O 602.587 -0.343671 1.79235 0
M  V30 6319 C 602.638 3.14568 1.78127 0
M  V30 6320 O 602.359 4.27422 0.961366 0
M  V30 6321 C 603.86 3.5735 2.62327 0
M  V30 6322 H 601.08 0.617445 0.262684 0
M  V30 6323 H 603.624 2.03775 0.172068 0
M  V30 6324 H 601.779 2.98721 2.46666 0
M  V30 6325 H 602.193 5.00725 1.56123 0
M  V30 6326 H 603.667 4.50144 3.1949 0
M  V30 6327 H 604.144 2.81445 3.37173 0
M  V30 6328 H 604.75 3.75807 1.99121 0
M  V30 6329 N 603.065 -0.440357 1.51323 0
M  V30 6330 C 603.995 -1.54174 1.75364 0
M  V30 6331 C 604.976 -1.59039 0.603375 0
M  V30 6332 O 606.161 -1.74815 0.845774 0
M  V30 6333 C 603.291 -2.92277 1.87593 0
M  V30 6334 C 602.245 -3.02274 3.03009 0
M  V30 6335 C 601.571 -4.42327 3.00418 0
M  V30 6336 C 602.871 -2.76634 4.43024 0
M  V30 6337 H 604.565 -1.34307 2.67585 0
M  V30 6338 H 602.111 -0.644678 1.28763 0
M  V30 6339 H 604.064 -3.69284 2.02995 0
M  V30 6340 H 602.788 -3.13369 0.920179 0
M  V30 6341 H 601.447 -2.27706 2.87307 0
M  V30 6342 H 601.095 -4.60382 2.02626 0
M  V30 6343 H 600.795 -4.49946 3.77918 0
M  V30 6344 H 602.319 -5.21312 3.17909 0
M  V30 6345 H 603.733 -3.43376 4.59093 0
M  V30 6346 H 602.13 -2.95666 5.22208 0
M  V30 6347 H 603.2 -1.72262 4.5327 0
M  V30 6348 N 604.543 -1.41418 -0.695603 0
M  V30 6349 C 605.506 -1.42988 -1.79129 0
M  V30 6350 C 606.506 -0.320514 -1.57573 0
M  V30 6351 O 607.696 -0.58039 -1.64247 0
M  V30 6352 C 604.828 -1.24122 -3.175 0
M  V30 6353 H 606.021 -2.40526 -1.7913 0
M  V30 6354 H 603.574 -1.2756 -0.903225 0
M  V30 6355 H 604.309 -0.274253 -3.23138 0
M  V30 6356 H 604.094 -2.045 -3.34547 0
M  V30 6357 H 605.584 -1.28056 -3.97481 0
M  V30 6358 N 606.021 0.929856 -1.27246 0
M  V30 6359 C 606.984 2.01172 -1.09829 0
M  V30 6360 C 607.984 1.60743 -0.0429687 0
M  V30 6361 O 609.174 1.71813 -0.287373 0
M  V30 6362 C 606.306 3.34191 -0.673003 0
M  V30 6363 H 607.499 2.18054 -2.05895 0
M  V30 6364 H 605.052 1.11036 -1.10003 0
M  V30 6365 H 605.787 3.23009 0.289134 0
M  V30 6366 H 605.572 3.64892 -1.43515 0
M  V30 6367 H 607.062 4.13646 -0.573323 0
M  V30 6368 N 607.499 1.09233 1.13605 0
M  V30 6369 C 608.724 0.849067 1.89224 0
M  V30 6370 C 609.149 -0.593875 1.78479 0
M  V30 6371 O 608.507 -1.41703 1.13092 0
M  V30 6372 C 608.555 1.28642 3.36873 0
M  V30 6373 O 607.659 0.44363 4.10007 0
M  V30 6374 H 607 0.30767 0.588417 0
M  V30 6375 H 609.53 1.45595 1.43748 0
M  V30 6376 H 609.54 1.27096 3.87699 0
M  V30 6377 H 608.215 2.33729 3.44011 0
M  V30 6378 H 606.792 0.523241 3.69211 0
M  V30 6379 N 608.977 -1.30795 0.87923 0
M  V30 6380 C 609.907 -2.30742 0.357796 0
M  V30 6381 C 610.888 -1.60747 -0.556283 0
M  V30 6382 O 612.073 -1.88393 -0.47135 0
M  V30 6383 C 609.203 -3.44583 -0.433555 0
M  V30 6384 C 608.157 -4.26235 0.388251 0
M  V30 6385 C 607.483 -5.32073 -0.529352 0
M  V30 6386 C 608.783 -4.96303 1.62729 0
M  V30 6387 H 610.477 -2.74605 1.19299 0
M  V30 6388 H 608.023 -1.32017 0.575104 0
M  V30 6389 H 609.976 -4.13563 -0.808934 0
M  V30 6390 H 608.7 -2.99511 -1.30234 0
M  V30 6391 H 607.359 -3.58936 0.745695 0
M  V30 6392 H 607.007 -4.83249 -1.39569 0
M  V30 6393 H 606.707 -5.87598 0.0166741 0
M  V30 6394 H 608.231 -6.0391 -0.901373 0
M  V30 6395 H 609.645 -5.5783 1.32283 0
M  V30 6396 H 608.042 -5.61666 2.11309 0
M  V30 6397 H 609.112 -4.22758 2.37494 0
M  V30 6398 N 610.455 -0.639598 -1.44038 0
M  V30 6399 C 611.385 0.0469443 -2.33453 0
M  V30 6400 C 612.366 0.82609 -1.48694 0
M  V30 6401 O 613.551 0.790285 -1.77393 0
M  V30 6402 C 610.681 1.02338 -3.3188 0
M  V30 6403 C 609.635 0.355284 -4.26523 0
M  V30 6404 C 608.961 1.44221 -5.14883 0
M  V30 6405 C 610.261 -0.743798 -5.16977 0
M  V30 6406 H 611.955 -0.699735 -2.91108 0
M  V30 6407 H 609.501 -0.337946 -1.39978 0
M  V30 6408 H 611.454 1.51247 -3.93322 0
M  V30 6409 H 610.178 1.80105 -2.72451 0
M  V30 6410 H 608.837 -0.113239 -3.66425 0
M  V30 6411 H 608.485 2.21097 -4.51802 0
M  V30 6412 H 608.185 1.00052 -5.79019 0
M  V30 6413 H 609.709 1.93295 -5.79197 0
M  V30 6414 H 611.123 -0.337444 -5.72306 0
M  V30 6415 H 609.52 -1.10914 -5.89761 0
M  V30 6416 H 610.59 -1.60745 -4.57481 0
M  V30 6417 N 611.933 1.52934 -0.380664 0
M  V30 6418 C 612.863 2.29118 0.450268 0
M  V30 6419 C 613.844 1.32153 1.07096 0
M  V30 6420 O 615.029 1.61038 1.08537 0
M  V30 6421 C 612.159 3.09161 1.58231 0
M  V30 6422 C 611.113 4.13938 1.0881 0
M  V30 6423 C 610.439 4.82153 2.31155 0
M  V30 6424 C 611.739 5.22048 0.162146 0
M  V30 6425 H 613.433 2.98826 -0.185361 0
M  V30 6426 H 610.979 1.43715 -0.0905886 0
M  V30 6427 H 612.932 3.61211 2.17036 0
M  V30 6428 H 611.656 2.3717 2.2454 0
M  V30 6429 H 610.315 3.62855 0.522633 0
M  V30 6430 H 609.963 4.06719 2.95953 0
M  V30 6431 H 609.663 5.52966 1.98752 0
M  V30 6432 H 611.187 5.37004 2.90618 0
M  V30 6433 H 612.601 5.6951 0.658126 0
M  V30 6434 H 610.998 6.00057 -0.0717122 0
M  V30 6435 H 612.068 4.78398 -0.791438 0
M  V30 6436 N 613.412 0.11024 1.57214 0
M  V30 6437 C 614.375 -0.828808 2.1369 0
M  V30 6438 C 615.375 -1.20059 1.06969 0
M  V30 6439 O 616.565 -1.12754 1.32786 0
M  V30 6440 C 613.697 -2.11959 2.66994 0
M  V30 6441 H 614.89 -0.338146 2.97988 0
M  V30 6442 H 612.443 -0.138913 1.55681 0
M  V30 6443 H 613.178 -2.65476 1.8626 0
M  V30 6444 H 612.963 -1.86258 3.45037 0
M  V30 6445 H 614.453 -2.79105 3.10629 0
M  V30 6446 N 614.89 -1.56749 -0.16351 0
M  V30 6447 C 616.138 -1.82074 -0.87713 0
M  V30 6448 C 616.459 -0.688503 -1.82441 0
M  V30 6449 O 615.729 0.291085 -1.93725 0
M  V30 6450 H 614.309 -0.671677 -0.326893 0
M  V30 6451 H 616.971 -1.9423 -0.161459 0
M  V30 6452 H 616.067 -2.76407 -1.44934 0
M  V30 6453 N 616.368 0.432326 -1.51554 0
M  V30 6454 C 617.298 1.53242 -1.76179 0
M  V30 6455 C 618.279 1.58717 -0.611801 0
M  V30 6456 O 619.464 1.74364 -0.855033 0
M  V30 6457 C 616.594 2.91278 -1.89141 0
M  V30 6458 C 615.548 3.00663 -3.04608 0
M  V30 6459 C 614.874 4.40728 -3.02759 0
M  V30 6460 C 616.174 2.74281 -4.44485 0
M  V30 6461 H 617.868 1.32886 -2.68294 0
M  V30 6462 H 615.414 0.637841 -1.29103 0
M  V30 6463 H 617.367 3.68203 -2.04951 0
M  V30 6464 H 616.091 3.12877 -0.936785 0
M  V30 6465 H 614.75 2.26179 -2.88511 0
M  V30 6466 H 614.398 4.59301 -2.05065 0
M  V30 6467 H 614.098 4.47936 -3.80299 0
M  V30 6468 H 615.622 5.19619 -3.20669 0
M  V30 6469 H 617.036 3.40936 -4.60907 0
M  V30 6470 H 615.433 2.92893 -5.23769 0
M  V30 6471 H 616.503 1.69856 -4.54177 0
M  V30 6472 N 617.846 1.41785 0.688094 0
M  V30 6473 C 619.086 1.43018 1.46032 0
M  V30 6474 C 619.45 0.0402632 1.91958 0
M  V30 6475 O 620.651 -0.0726425 2.68702 0
M  V30 6476 C 618.922 2.4151 2.63453 0
M  V30 6477 S 620.481 2.61335 3.5249 0
M  V30 6478 H 617.299 0.506546 0.498931 0
M  V30 6479 H 619.901 1.78283 0.80221 0
M  V30 6480 H 618.605 3.41286 2.27929 0
M  V30 6481 H 618.136 2.07624 3.34149 0
M  V30 6482 H 620.151 1.88637 4.58945 0
M  V30 6483 N 619.324 -0.923095 1.27737 0
M  V30 6484 C 620.573 -1.66581 1.13727 0
M  V30 6485 C 620.886 -1.9304 -0.315433 0
M  V30 6486 O 622.092 -2.65309 -0.57651 0
M  V30 6487 C 620.548 -3.00047 1.98745 0
M  V30 6488 C 620.156 -2.8127 3.48699 0
M  V30 6489 C 621.9 -3.77887 1.93395 0
M  V30 6490 C 619.807 -4.1032 4.25901 0
M  V30 6491 H 618.737 -0.624834 0.422017 0
M  V30 6492 H 621.388 -1.02514 1.52194 0
M  V30 6493 H 619.77 -3.65197 1.53125 0
M  V30 6494 H 620.944 -2.24859 4.02213 0
M  V30 6495 H 619.259 -2.16854 3.55476 0
M  V30 6496 H 621.856 -4.73526 2.48348 0
M  V30 6497 H 622.199 -4.06264 0.908605 0
M  V30 6498 H 622.732 -3.19541 2.36935 0
M  V30 6499 H 619.471 -3.8712 5.28978 0
M  V30 6500 H 618.991 -4.66377 3.77163 0
M  V30 6501 H 620.67 -4.78648 4.35321 0
M  V30 6502 N 620.802 -1.09834 -1.13024 0
M  V30 6503 C 621.732 -0.763451 -2.20666 0
M  V30 6504 C 622.713 0.260778 -1.68089 0
M  V30 6505 O 623.898 0.127915 -1.93778 0
M  V30 6506 C 621.028 -0.187744 -3.46792 0
M  V30 6507 C 619.982 -1.14196 -4.12484 0
M  V30 6508 C 619.308 -0.427755 -5.32986 0
M  V30 6509 C 620.608 -2.48607 -4.59338 0
M  V30 6510 H 622.302 -1.66347 -2.48936 0
M  V30 6511 H 619.848 -0.801261 -1.19649 0
M  V30 6512 H 621.801 0.0586375 -4.21359 0
M  V30 6513 H 620.525 0.747485 -3.17931 0
M  V30 6514 H 619.184 -1.37369 -3.3989 0
M  V30 6515 H 618.832 0.511747 -5.0039 0
M  V30 6516 H 618.532 -1.06403 -5.77886 0
M  V30 6517 H 620.056 -0.189772 -6.10305 0
M  V30 6518 H 621.47 -2.29618 -5.25308 0
M  V30 6519 H 619.867 -3.08062 -5.14993 0
M  V30 6520 H 620.937 -3.09062 -3.73642 0
M  V30 6521 N 622.28 1.30327 -0.886154 0
M  V30 6522 C 623.243 2.26376 -0.358687 0
M  V30 6523 C 624.243 1.52845 0.499498 0
M  V30 6524 O 625.433 1.71483 0.306485 0
M  V30 6525 C 622.565 3.37379 0.488726 0
M  V30 6526 H 623.758 2.74547 -1.20681 0
M  V30 6527 H 621.311 1.41536 -0.663113 0
M  V30 6528 H 622.046 2.94526 1.35739 0
M  V30 6529 H 621.831 3.91897 -0.126003 0
M  V30 6530 H 623.321 4.08868 0.84952 0
M  V30 6531 N 623.758 0.647228 1.43697 0
M  V30 6532 C 624.706 -0.0600105 2.32523 0
M  V30 6533 C 625.7 -0.819277 1.48271 0
M  V30 6534 O 626.906 -0.730356 1.64517 0
M  V30 6535 H 623.281 -0.0381872 0.75103 0
M  V30 6536 H 625.252 0.706978 2.89904 0
M  V30 6537 C 624.001 -1.0169 3.32497 0
M  V30 6538 H 623.324 -0.442083 3.97348 0
M  V30 6539 H 624.764 -1.48095 3.97296 0
M  V30 6540 C 623.223 -2.11002 2.6264 0
M  V30 6541 O 623.753 -3.19302 2.4374 0
M  V30 6542 N 621.959 -1.87388 2.22113 0
M  V30 6543 H 621.506 -0.993174 2.37684 0
M  V30 6544 H 621.464 -2.60723 1.75701 0
M  V30 6545 N 625.236 -1.5273 0.388769 0
M  V30 6546 C 626.464 -2.05992 -0.193677 0
M  V30 6547 C 626.879 -1.26053 -1.40557 0
M  V30 6548 O 626.236 -0.307049 -1.79898 0
M  V30 6549 C 626.287 -3.57068 -0.564321 0
M  V30 6550 O 626.008 -4.3398 0.599422 0
M  V30 6551 C 627.509 -4.26674 -1.20269 0
M  V30 6552 H 624.729 -0.670358 -0.0293445 0
M  V30 6553 H 627.273 -1.96857 0.553844 0
M  V30 6554 H 625.428 -3.66277 -1.26174 0
M  V30 6555 H 625.842 -5.2367 0.294895 0
M  V30 6556 H 627.316 -5.33625 -1.4124 0
M  V30 6557 H 627.793 -3.81854 -2.16989 0
M  V30 6558 H 628.399 -4.2178 -0.546047 0
M  V30 6559 N 626.714 -0.118576 -1.57153 0
M  V30 6560 C 627.644 0.828436 -2.1831 0
M  V30 6561 C 628.625 1.27758 -1.12303 0
M  V30 6562 O 629.81 1.34026 -1.40537 0
M  V30 6563 C 626.94 2.07876 -2.78217 0
M  V30 6564 C 625.894 1.76742 -3.89803 0
M  V30 6565 C 625.22 3.08801 -4.36516 0
M  V30 6566 C 626.52 1.03606 -5.11921 0
M  V30 6567 H 628.214 0.318824 -2.97698 0
M  V30 6568 H 625.76 0.151911 -1.43196 0
M  V30 6569 H 627.713 2.74584 -3.19659 0
M  V30 6570 H 626.437 2.61161 -1.96118 0
M  V30 6571 H 625.096 1.12424 -3.48936 0
M  V30 6572 H 624.744 3.6002 -3.51276 0
M  V30 6573 H 624.444 2.88743 -5.11763 0
M  V30 6574 H 625.968 3.76627 -4.80608 0
M  V30 6575 H 627.382 1.60467 -5.50385 0
M  V30 6576 H 625.779 0.936454 -5.92748 0
M  V30 6577 H 626.849 0.0227421 -4.84895 0
M  V30 6578 N 628.193 1.56834 0.155195 0
M  V30 6579 C 629.439 1.83169 0.870467 0
M  V30 6580 C 629.772 0.698929 1.81187 0
M  V30 6581 O 629.047 -0.298035 1.92203 0
M  V30 6582 C 629.33 3.19965 1.65211 0
M  V30 6583 C 629.183 4.43792 0.732744 0
M  V30 6584 C 630.502 3.53885 2.61636 0
M  V30 6585 H 627.621 0.666288 0.315006 0
M  V30 6586 H 630.263 1.89513 0.135988 0
M  V30 6587 H 628.413 3.14687 2.27825 0
M  V30 6588 H 630.085 4.61148 0.118236 0
M  V30 6589 H 628.328 4.3378 0.0417906 0
M  V30 6590 H 628.999 5.36095 1.31552 0
M  V30 6591 H 631.475 3.5972 2.09143 0
M  V30 6592 H 630.351 4.50648 3.13381 0
M  V30 6593 H 630.612 2.79418 3.42605 0
M  V30 6594 N 629.671 -0.424282 1.51781 0
M  V30 6595 C 631.082 -1.00368 1.57427 0
M  V30 6596 C 631.433 -1.91962 0.40558 0
M  V30 6597 O 630.558 -2.111 -0.47601 0
M  V30 6598 C 631.153 -1.82707 2.85313 0
M  V30 6599 C 629.712 -2.35675 2.93487 0
M  V30 6600 C 628.859 -1.1524 2.5222 0
M  V30 6601 H 631.81 -0.205064 1.5737 0
M  V30 6602 H 631.831 -2.68294 2.69812 0
M  V30 6603 H 631.343 -1.16017 3.70353 0
M  V30 6604 H 629.444 -3.05781 2.12906 0
M  V30 6605 H 629.557 -2.67578 3.97415 0
M  V30 6606 H 627.921 -1.50174 2.05718 0
M  V30 6607 H 628.704 -0.5014 3.39619 0
M  V30 6608 N 631.149 -1.42148 -0.680565 0
M  V30 6609 C 632.099 -1.41634 -1.78672 0
M  V30 6610 C 633.083 -0.288494 -1.58293 0
M  V30 6611 O 634.275 -0.530295 -1.68869 0
M  V30 6612 C 631.404 -1.31558 -3.17092 0
M  V30 6613 C 630.49 -2.49265 -3.43115 0
M  V30 6614 N 630.881 -3.74702 -3.39753 0
M  V30 6615 C 629.179 -2.43401 -3.73727 0
M  V30 6616 C 629.88 -4.52854 -3.651 0
M  V30 6617 N 628.856 -3.83181 -3.85582 0
M  V30 6618 H 632.658 -2.3652 -1.74458 0
M  V30 6619 H 630.172 -1.36415 -0.881171 0
M  V30 6620 H 632.169 -1.29272 -3.96351 0
M  V30 6621 H 630.829 -0.376696 -3.22508 0
M  V30 6622 H 631.84 -4.07378 -3.19787 0
M  V30 6623 H 628.517 -1.58062 -3.86423 0
M  V30 6624 H 629.907 -5.61827 -3.6851 0
M  V30 6625 N 632.627 0.916307 -1.28225 0
M  V30 6626 C 633.537 2.05165 -1.13775 0
M  V30 6627 C 634.553 1.73879 -0.0649418 0
M  V30 6628 O 635.729 1.99531 -0.273722 0
M  V30 6629 C 632.794 3.37385 -0.798267 0
M  V30 6630 C 631.855 3.82296 -1.95316 0
M  V30 6631 C 631.088 5.08206 -1.62978 0
M  V30 6632 O 631.311 5.6781 -0.542948 0
M  V30 6633 O 630.245 5.48768 -2.47261 0
M  V30 6634 H 634.071 2.20273 -2.09078 0
M  V30 6635 H 631.656 1.0373 -1.07519 0
M  V30 6636 H 633.538 4.16773 -0.62278 0
M  V30 6637 H 632.213 3.23458 0.125139 0
M  V30 6638 H 631.12 3.03746 -2.18378 0
M  V30 6639 H 632.453 4.00782 -2.85718 0
M  V30 6640 N 634.105 1.10431 1.1244 0
M  V30 6641 C 635.038 0.696987 2.17296 0
M  V30 6642 C 636.016 -0.301673 1.59777 0
M  V30 6643 O 637.2 -0.200583 1.8743 0
M  V30 6644 C 634.327 0.0284094 3.38688 0
M  V30 6645 C 633.373 0.990536 4.14838 0
M  V30 6646 S 634.206 2.50785 4.73146 0
M  V30 6647 C 635.362 1.85198 5.97873 0
M  V30 6648 H 635.595 1.58523 2.51511 0
M  V30 6649 H 633.128 0.921312 1.239 0
M  V30 6650 H 635.086 -0.351009 4.08997 0
M  V30 6651 H 633.747 -0.836629 3.02753 0
M  V30 6652 H 632.94 0.469991 5.01804 0
M  V30 6653 H 632.542 1.31186 3.50237 0
M  V30 6654 H 634.834 1.18217 6.67106 0
M  V30 6655 H 635.777 2.7012 6.54554 0
M  V30 6656 H 636.185 1.31653 5.48933 0
M  V30 6657 N 635.583 -1.29855 0.893053 0
M  V30 6658 C 636.831 -1.9544 0.514566 0
M  V30 6659 C 637.152 -1.70795 -0.940959 0
M  V30 6660 O 636.422 -1.03601 -1.66264 0
M  V30 6661 H 635.002 -0.723137 0.187302 0
M  V30 6662 H 637.664 -1.58234 1.13789 0
M  V30 6663 H 636.76 -3.04341 0.691581 0
M  V30 6664 N 637.061 -0.65484 -1.43351 0
M  V30 6665 C 638.024 0.0263562 -2.29185 0
M  V30 6666 C 639.024 0.748951 -1.42293 0
M  V30 6667 O 640.214 0.589957 -1.63906 0
M  V30 6668 C 637.346 1.04806 -3.2439 0
M  V30 6669 H 638.539 -0.728883 -2.90908 0
M  V30 6670 H 636.092 -0.416149 -1.50658 0
M  V30 6671 H 636.827 1.83247 -2.67565 0
M  V30 6672 H 636.612 0.533554 -3.88453 0
M  V30 6673 H 638.102 1.52372 -3.88809 0
M  V30 6674 N 638.539 1.52521 -0.396863 0
M  V30 6675 C 639.469 2.29582 0.425941 0
M  V30 6676 C 640.45 1.33281 1.05689 0
M  V30 6677 O 641.635 1.62181 1.06823 0
M  V30 6678 C 638.765 3.10821 1.54943 0
M  V30 6679 C 637.719 4.15069 1.04413 0
M  V30 6680 C 637.045 4.84578 2.26028 0
M  V30 6681 C 638.345 5.22191 0.106767 0
M  V30 6682 H 640.039 2.98612 -0.217045 0
M  V30 6683 H 637.585 1.43611 -0.105826 0
M  V30 6684 H 639.538 3.63492 2.13193 0
M  V30 6685 H 638.262 2.39538 2.22011 0
M  V30 6686 H 636.921 3.63389 0.484118 0
M  V30 6687 H 636.569 4.09835 2.91623 0
M  V30 6688 H 636.269 5.55043 1.92876 0
M  V30 6689 H 637.793 5.40056 2.84906 0
M  V30 6690 H 639.207 5.70176 0.597685 0
M  V30 6691 H 637.604 5.99947 -0.135352 0
M  V30 6692 H 638.674 4.77531 -0.842134 0
M  V30 6693 N 640.017 0.126909 1.57088 0
M  V30 6694 C 641.433 -0.229641 1.57939 0
M  V30 6695 C 641.633 -1.66145 1.1401 0
M  V30 6696 O 640.689 -2.3843 0.831119 0
M  V30 6697 C 642.002 0.0108648 3.00698 0
M  V30 6698 C 643.55 -0.054418 3.12953 0
M  V30 6699 C 644.025 0.158497 4.57726 0
M  V30 6700 N 645.516 0.104735 4.63082 0
M  V30 6701 C 646.251 0.24427 5.72879 0
M  V30 6702 N 645.747 0.440415 6.91399 0
M  V30 6703 N 647.54 0.183286 5.61801 0
M  V30 6704 H 639.691 1.06203 1.83942 0
M  V30 6705 H 641.954 0.418834 0.85046 0
M  V30 6706 H 641.66 1.00102 3.37154 0
M  V30 6707 H 641.534 -0.717512 3.70313 0
M  V30 6708 H 643.921 -1.0351 2.7635 0
M  V30 6709 H 644.002 0.705967 2.45865 0
M  V30 6710 H 643.646 1.13619 4.95028 0
M  V30 6711 H 643.576 -0.62197 5.22914 0
M  V30 6712 H 646.067 -0.0430298 3.77876 0
M  V30 6713 H 646.38 0.537536 7.70928 0
M  V30 6714 H 644.725 0.476488 6.93365 0
M  V30 6715 H 647.916 0.0309561 4.6809 0
M  V30 6716 H 648.089 0.295471 6.47326 0
M  V30 6717 N 641.495 -1.56914 -0.146875 0
M  V30 6718 C 642.72 -1.87881 -0.878386 0
M  V30 6719 C 643.145 -0.715945 -1.73942 0
M  V30 6720 O 642.503 0.334447 -1.78189 0
M  V30 6721 C 642.551 -3.17431 -1.71084 0
M  V30 6722 O 641.655 -3.01374 -2.81509 0
M  V30 6723 H 640.996 -0.617289 -0.244644 0
M  V30 6724 H 643.526 -2.04136 -0.137654 0
M  V30 6725 H 643.536 -3.49455 -2.10582 0
M  V30 6726 H 642.211 -4.01671 -1.07856 0
M  V30 6727 H 640.788 -2.80758 -2.45416 0
M  V30 6728 N 642.974 0.416227 -1.52004 0
M  V30 6729 C 643.937 1.48926 -1.74223 0
M  V30 6730 C 644.937 1.48693 -0.612119 0
M  V30 6731 O 646.127 1.50343 -0.879921 0
M  V30 6732 C 643.259 2.88372 -1.81809 0
M  V30 6733 H 644.452 1.3052 -2.70008 0
M  V30 6734 H 642.005 0.646271 -1.42313 0
M  V30 6735 H 642.74 3.12157 -0.879135 0
M  V30 6736 H 642.525 2.89944 -2.6396 0
M  V30 6737 H 644.015 3.66173 -2.00766 0
M  V30 6738 N 644.452 1.42507 0.673017 0
M  V30 6739 C 645.382 1.48916 1.79851 0
M  V30 6740 C 646.363 0.345566 1.66553 0
M  V30 6741 O 647.548 0.560116 1.85947 0
M  V30 6742 C 644.678 1.39258 3.18158 0
M  V30 6743 C 643.632 2.51662 3.46194 0
M  V30 6744 C 642.958 2.27062 4.84094 0
M  V30 6745 C 644.258 3.93968 3.42909 0
M  V30 6746 H 645.952 2.43114 1.74745 0
M  V30 6747 H 643.498 1.17013 0.839288 0
M  V30 6748 H 645.451 1.42349 3.96629 0
M  V30 6749 H 644.175 0.415542 3.23946 0
M  V30 6750 H 642.834 2.47891 2.70084 0
M  V30 6751 H 642.482 1.27648 4.86534 0
M  V30 6752 H 642.182 3.02398 5.03815 0
M  V30 6753 H 643.706 2.31905 5.64847 0
M  V30 6754 H 645.12 3.99332 4.11347 0
M  V30 6755 H 643.517 4.6917 3.74165 0
M  V30 6756 H 644.587 4.20512 2.41449 0
M  V30 6757 N 645.93 -0.909495 1.28709 0
M  V30 6758 C 646.893 -1.99399 1.13016 0
M  V30 6759 C 647.893 -1.60654 0.068536 0
M  V30 6760 O 649.083 -1.71334 0.314671 0
M  V30 6761 C 646.215 -3.33078 0.726085 0
M  V30 6762 H 647.408 -2.14751 2.09338 0
M  V30 6763 H 644.961 -1.09272 1.11756 0
M  V30 6764 H 645.696 -3.23428 -0.23771 0
M  V30 6765 H 645.481 -3.62562 1.49302 0
M  V30 6766 H 646.971 -4.12681 0.639058 0
M  V30 6767 N 647.408 -1.11026 -1.11852 0
M  V30 6768 C 648.654 -0.857729 -1.83768 0
M  V30 6769 C 648.987 0.615143 -1.842 0
M  V30 6770 O 648.262 1.45391 -1.29196 0
M  V30 6771 C 648.545 -1.41453 -3.31154 0
M  V30 6772 C 648.398 -2.95471 -3.39142 0
M  V30 6773 C 649.717 -1.0619 -4.27097 0
M  V30 6774 H 646.836 -0.313044 -0.667212 0
M  V30 6775 H 649.478 -1.37443 -1.31185 0
M  V30 6776 H 647.628 -0.975052 -3.76065 0
M  V30 6777 H 649.3 -3.4799 -3.02821 0
M  V30 6778 H 647.543 -3.31759 -2.79497 0
M  V30 6779 H 648.214 -3.29515 -4.42859 0
M  V30 6780 H 650.69 -1.44122 -3.90344 0
M  V30 6781 H 649.566 -1.47832 -5.28618 0
M  V30 6782 H 649.827 0.0278912 -4.42091 0
M  V30 6783 N 648.886 1.2938 -0.899927 0
M  V30 6784 C 649.816 2.30144 -0.39446 0
M  V30 6785 C 650.797 1.61611 0.530639 0
M  V30 6786 O 651.982 1.89119 0.441319 0
M  V30 6787 C 649.112 3.45229 0.37868 0
M  V30 6788 C 648.066 4.25564 -0.456012 0
M  V30 6789 C 647.392 5.32848 0.444637 0
M  V30 6790 C 648.692 4.93651 -1.70605 0
M  V30 6791 H 650.386 2.72673 -1.23653 0
M  V30 6792 H 647.932 1.31086 -0.596034 0
M  V30 6793 H 649.885 4.14797 0.743037 0
M  V30 6794 H 648.609 3.01545 1.25453 0
M  V30 6795 H 647.268 3.57704 -0.802704 0
M  V30 6796 H 646.916 4.85408 1.31863 0
M  V30 6797 H 646.616 5.87497 -0.110154 0
M  V30 6798 H 648.14 6.05268 0.805182 0
M  V30 6799 H 649.554 5.55655 -1.41141 0
M  V30 6800 H 647.951 5.58233 -2.20217 0
M  V30 6801 H 649.021 4.18926 -2.4419 0
M  V30 6802 N 650.364 0.662433 1.43002 0
M  V30 6803 C 651.612 0.179237 2.01304 0
M  V30 6804 C 651.933 -1.21428 1.52579 0
M  V30 6805 O 651.203 -1.81294 0.742252 0
M  V30 6806 H 649.783 0.0632725 0.744316 0
M  V30 6807 H 652.445 0.856169 1.75088 0
M  V30 6808 H 651.541 0.170957 3.11631 0
M  V30 6809 N 651.842 -1.52309 0.404946 0
M  V30 6810 C 652.772 -2.29805 -0.41376 0
M  V30 6811 C 653.753 -1.3384 -1.0498 0
M  V30 6812 O 654.938 -1.62745 -1.05961 0
M  V30 6813 C 652.068 -3.11639 -1.53292 0
M  V30 6814 C 651.022 -4.15616 -1.02211 0
M  V30 6815 C 650.348 -4.8577 -2.23455 0
M  V30 6816 C 651.648 -5.2224 -0.0790725 0
M  V30 6817 H 653.342 -2.98493 0.232878 0
M  V30 6818 H 650.888 -1.43552 0.113441 0
M  V30 6819 H 652.841 -3.64618 -2.11262 0
M  V30 6820 H 651.565 -2.40712 -2.20738 0
M  V30 6821 H 650.224 -3.63641 -0.46484 0
M  V30 6822 H 649.872 -4.11376 -2.89445 0
M  V30 6823 H 649.572 -5.56058 -1.89929 0
M  V30 6824 H 651.096 -5.4156 -2.82038 0
M  V30 6825 H 652.51 -5.70485 -0.567438 0
M  V30 6826 H 650.907 -5.99867 0.167167 0
M  V30 6827 H 651.977 -4.77078 0.867447 0
M  V30 6828 N 653.32 -0.135238 -1.57019 0
M  V30 6829 C 654.568 0.51777 -1.95355 0
M  V30 6830 C 654.889 1.6617 -1.02042 0
M  V30 6831 O 654.159 1.95738 -0.0797343 0
M  V30 6832 H 652.739 0.194264 -0.721298 0
M  V30 6833 H 655.401 -0.207983 -1.93787 0
M  V30 6834 H 654.497 0.901675 -2.98791 0
M  V30 6835 N 654.798 1.5699 0.138552 0
M  V30 6836 C 656.046 1.83446 0.848053 0
M  V30 6837 C 656.367 0.71744 1.81322 0
M  V30 6838 O 655.637 -0.260228 1.94164 0
M  V30 6839 H 654.217 0.676792 0.316166 0
M  V30 6840 H 656.879 1.94462 0.130538 0
M  V30 6841 H 655.975 2.78677 1.40518 0
M  V30 6842 N 656.276 -0.40816 1.52223 0
M  V30 6843 C 657.522 -1.15673 1.66576 0
M  V30 6844 C 657.855 -1.90141 0.394996 0
M  V30 6845 O 657.13 -1.84798 -0.606613 0
M  V30 6846 C 657.413 -2.15042 2.88841 0
M  V30 6847 C 657.266 -1.44465 4.25969 0
M  V30 6848 C 658.585 -3.15699 3.0663 0
M  V30 6849 H 655.704 -0.41916 0.606196 0
M  V30 6850 H 658.346 -0.442348 1.84779 0
M  V30 6851 H 656.496 -2.75964 2.73452 0
M  V30 6852 H 658.168 -0.866544 4.53088 0
M  V30 6853 H 656.411 -0.746612 4.27327 0
M  V30 6854 H 657.082 -2.16976 5.07568 0
M  V30 6855 H 659.558 -2.64854 3.20923 0
M  V30 6856 H 658.434 -3.82491 3.9369 0
M  V30 6857 H 658.695 -3.83481 2.19987 0
M  V30 6858 N 657.755 -1.42862 -0.66545 0
M  V30 6859 C 659.003 -1.43546 -1.42264 0
M  V30 6860 C 659.324 -0.0563116 -1.94919 0
M  V30 6861 O 658.594 0.906568 -1.73661 0
M  V30 6862 H 657.174 -0.528464 -0.527953 0
M  V30 6863 H 659.836 -1.78363 -0.785665 0
M  V30 6864 H 658.932 -2.14079 -2.27105 0
M  V30 6865 N 659.233 0.902656 -1.29189 0
M  V30 6866 C 660.196 1.98797 -1.14071 0
M  V30 6867 C 661.196 1.60615 -0.0770549 0
M  V30 6868 O 662.386 1.71165 -0.323753 0
M  V30 6869 C 659.518 3.32688 -0.743739 0
M  V30 6870 H 660.711 2.13637 -2.10473 0
M  V30 6871 H 658.264 1.08678 -1.12334 0
M  V30 6872 H 658.999 3.23549 0.220554 0
M  V30 6873 H 658.784 3.61765 -1.51223 0
M  V30 6874 H 660.274 4.12337 -0.660935 0
M  V30 6875 N 660.711 1.11618 1.11262 0
M  V30 6876 C 661.674 0.779447 2.15539 0
M  V30 6877 C 662.674 -0.202081 1.59525 0
M  V30 6878 O 663.864 0.0226356 1.74185 0
M  V30 6879 C 660.996 0.15674 3.40539 0
M  V30 6880 H 662.189 1.70324 2.4684 0
M  V30 6881 H 659.742 0.918298 1.26479 0
M  V30 6882 H 660.477 -0.777186 3.1485 0
M  V30 6883 H 660.262 0.863308 3.82478 0
M  V30 6884 H 661.752 -0.062661 4.17553 0
M  V30 6885 N 662.189 -1.289 0.906776 0
M  V30 6886 C 663.436 -1.95269 0.536326 0
M  V30 6887 C 663.764 -1.71435 -0.918711 0
M  V30 6888 O 663.019 -1.02431 -1.66752 0
M  V30 6889 C 663.318 -3.48704 0.783617 0
M  V30 6890 C 662.984 -3.92626 2.21711 0
M  V30 6891 C 661.646 -4.04329 2.60906 0
M  V30 6892 C 663.998 -4.15218 3.15029 0
M  V30 6893 C 661.326 -4.35998 3.92584 0
M  V30 6894 C 663.678 -4.48365 4.46264 0
M  V30 6895 C 662.342 -4.58278 4.85322 0
M  V30 6896 H 661.612 -0.714538 0.196256 0
M  V30 6897 H 664.259 -1.53366 1.14678 0
M  V30 6898 H 662.564 -3.91696 0.0903048 0
M  V30 6899 H 664.261 -3.98162 0.476267 0
M  V30 6900 H 660.851 -3.84038 1.90296 0
M  V30 6901 H 665.035 -4.05636 2.8596 0
M  V30 6902 H 660.291 -4.41878 4.22557 0
M  V30 6903 H 664.465 -4.64795 5.18593 0
M  V30 6904 H 662.092 -4.82573 5.87391 0
M  V30 6905 N 663.667 -0.670007 -1.42649 0
M  V30 6906 C 664.895 -0.19854 -2.05945 0
M  V30 6907 C 665.31 1.14243 -1.50313 0
M  V30 6908 O 664.667 1.70872 -0.641027 0
M  V30 6909 C 664.718 -0.11966 -3.61302 0
M  V30 6910 O 664.439 -1.40764 -4.1487 0
M  V30 6911 C 665.94 0.375878 -4.41704 0
M  V30 6912 H 663.16 -0.0976894 -0.663851 0
M  V30 6913 H 665.704 -0.915392 -1.82868 0
M  V30 6914 H 663.859 0.547851 -3.83507 0
M  V30 6915 H 664.273 -1.27784 -5.08696 0
M  V30 6916 H 665.747 0.379988 -5.50691 0
M  V30 6917 H 666.224 1.41028 -4.15942 0
M  V30 6918 H 666.83 -0.259727 -4.24506 0
M  V30 6919 N 665.145 1.52092 -0.413018 0
M  V30 6920 C 666.385 2.03765 0.160975 0
M  V30 6921 C 666.749 1.29174 1.4205 0
M  V30 6922 O 667.95 1.71093 2.07318 0
M  V30 6923 C 666.221 3.55167 0.398871 0
M  V30 6924 S 667.78 4.28619 0.939755 0
M  V30 6925 H 664.598 0.709685 0.0432281 0
M  V30 6926 H 667.2 1.87102 -0.566831 0
M  V30 6927 H 665.904 4.07034 -0.524544 0
M  V30 6928 H 665.435 3.7608 1.15444 0
M  V30 6929 H 667.45 4.43773 2.21991 0
M  V30 6930 N 666.623 0.143563 1.56945 0
M  V30 6931 C 667.872 -0.50835 1.95189 0
M  V30 6932 C 668.185 -1.66239 1.03073 0
M  V30 6933 O 669.391 -2.3787 1.30882 0
M  V30 6934 C 667.847 -0.955735 3.46978 0
M  V30 6935 C 667.455 0.171183 4.47673 0
M  V30 6936 C 669.199 -1.57763 3.94095 0
M  V30 6937 C 667.106 -0.294279 5.90667 0
M  V30 6938 H 666.036 -0.193679 0.728701 0
M  V30 6939 H 668.687 0.227357 1.82086 0
M  V30 6940 H 667.069 -1.7466 3.55401 0
M  V30 6941 H 668.243 0.948049 4.50942 0
M  V30 6942 H 666.558 0.701273 4.10452 0
M  V30 6943 H 669.155 -1.93745 4.98364 0
M  V30 6944 H 669.498 -2.46531 3.35452 0
M  V30 6945 H 670.031 -0.851728 3.88575 0
M  V30 6946 H 666.77 0.557939 6.53121 0
M  V30 6947 H 666.29 -1.0371 5.90766 0
M  V30 6948 H 667.969 -0.747426 6.42668 0
M  V30 6949 N 668.101 -1.57061 -0.130224 0
M  V30 6950 C 669.329 -1.88432 -0.854456 0
M  V30 6951 C 669.744 -0.733608 -1.73964 0
M  V30 6952 O 669.101 0.296029 -1.80083 0
M  V30 6953 C 669.152 -3.1918 -1.69724 0
M  V30 6954 O 668.873 -4.2982 -0.847705 0
M  V30 6955 C 670.374 -3.6418 -2.5276 0
M  V30 6956 H 667.594 -0.624193 -0.246221 0
M  V30 6957 H 670.138 -2.04159 -0.11798 0
M  V30 6958 H 668.293 -3.05156 -2.3866 0
M  V30 6959 H 668.707 -5.04689 -1.42792 0
M  V30 6960 H 670.181 -4.58457 -3.07443 0
M  V30 6961 H 670.658 -2.90285 -3.29592 0
M  V30 6962 H 671.264 -3.80954 -1.89087 0
M  V30 6963 N 669.579 0.400081 -1.52437 0
M  V30 6964 C 670.828 1.14332 -1.66166 0
M  V30 6965 C 671.141 1.91419 -0.402253 0
M  V30 6966 O 672.347 2.6824 -0.419487 0
M  V30 6967 C 670.803 2.08137 -2.9361 0
M  V30 6968 C 670.411 1.36524 -4.26691 0
M  V30 6969 C 672.155 2.82664 -3.16703 0
M  V30 6970 C 670.062 2.29031 -5.45251 0
M  V30 6971 H 668.992 0.430499 -0.61902 0
M  V30 6972 H 671.643 0.407017 -1.78929 0
M  V30 6973 H 670.025 2.85358 -2.74567 0
M  V30 6974 H 671.199 0.646061 -4.56249 0
M  V30 6975 H 669.514 0.74002 -4.09771 0
M  V30 6976 H 672.111 3.52037 -4.0246 0
M  V30 6977 H 672.454 3.46122 -2.31312 0
M  V30 6978 H 672.987 2.12541 -3.36261 0
M  V30 6979 H 669.726 1.70206 -6.33017 0
M  V30 6980 H 669.246 2.98896 -5.2002 0
M  V30 6981 H 670.925 2.89359 -5.78689 0
M  V30 6982 N 671.057 1.43213 0.657864 0
M  V30 6983 C 672.287 1.478 1.44356 0
M  V30 6984 C 672.695 0.0930206 1.88971 0
M  V30 6985 O 672.038 -0.906089 1.59799 0
M  V30 6986 C 672.1 2.35745 2.71412 0
M  V30 6987 C 671.764 3.83359 2.48767 0
M  V30 6988 C 672.761 4.74585 2.12285 0
M  V30 6989 C 670.446 4.27799 2.63235 0
M  V30 6990 C 672.44 6.08247 1.90562 0
M  V30 6991 C 670.127 5.61516 2.41128 0
M  V30 6992 C 671.125 6.51557 2.04847 0
M  V30 6993 O 670.813 7.82802 1.82967 0
M  V30 6994 H 670.545 0.504363 0.450104 0
M  V30 6995 H 673.099 1.88572 0.814241 0
M  V30 6996 H 671.329 1.89852 3.36887 0
M  V30 6997 H 673.018 2.31589 3.33348 0
M  V30 6998 H 673.784 4.41531 2.00687 0
M  V30 6999 H 669.663 3.57993 2.90451 0
M  V30 7000 H 673.207 6.78489 1.62168 0
M  V30 7001 H 669.104 5.94139 2.52327 0
M  V30 7002 H 669.872 7.94332 1.97429 0
M  V30 7003 N 672.536 -0.895792 1.29666 0
M  V30 7004 C 673.761 -1.68528 1.20885 0
M  V30 7005 C 674.186 -1.8673 -0.226595 0
M  V30 7006 O 673.544 -1.39044 -1.16347 0
M  V30 7007 C 673.592 -3.04512 1.93144 0
M  V30 7008 O 672.696 -3.92963 1.25115 0
M  V30 7009 H 672.037 -0.515371 0.418675 0
M  V30 7010 H 674.567 -1.11878 1.71302 0
M  V30 7011 H 674.577 -3.54628 2.0175 0
M  V30 7012 H 673.252 -2.90582 2.97548 0
M  V30 7013 H 671.829 -3.51399 1.24794 0
M  V30 7014 N 674.014 -1.12206 -1.10668 0
M  V30 7015 C 675.239 -0.898938 -1.86906 0
M  V30 7016 C 675.664 0.546346 -1.79991 0
M  V30 7017 O 675.022 1.38655 -1.1681 0
M  V30 7018 C 675.07 -1.37529 -3.33344 0
M  V30 7019 O 674.174 -0.55218 -4.08687 0
M  V30 7020 H 673.515 -0.323163 -0.580053 0
M  V30 7021 H 676.045 -1.49355 -1.39837 0
M  V30 7022 H 676.055 -1.3733 -3.84193 0
M  V30 7023 H 674.73 -2.42767 -3.37693 0
M  V30 7024 H 673.307 -0.620947 -3.67694 0
M  V30 7025 N 675.492 1.28418 -0.913599 0
M  V30 7026 C 676.402 2.31043 -0.406965 0
M  V30 7027 C 677.418 1.66501 0.505298 0
M  V30 7028 O 678.594 1.97558 0.391522 0
M  V30 7029 C 675.659 3.4498 0.344901 0
M  V30 7030 C 674.72 4.25078 -0.600563 0
M  V30 7031 C 673.953 5.33575 0.115516 0
M  V30 7032 O 674.176 5.54503 1.33727 0
M  V30 7033 O 673.11 5.9939 -0.549095 0
M  V30 7034 H 676.936 2.76387 -1.25873 0
M  V30 7035 H 674.521 1.33109 -0.678415 0
M  V30 7036 H 676.403 4.14314 0.769542 0
M  V30 7037 H 675.078 3.01719 1.1725 0
M  V30 7038 H 673.985 3.58334 -1.0746 0
M  V30 7039 H 675.318 4.72018 -1.39497 0
M  V30 7040 N 676.97 0.677563 1.42291 0
M  V30 7041 C 677.9 0.014968 2.33495 0
M  V30 7042 C 678.881 -0.786376 1.50831 0
M  V30 7043 O 680.066 -0.742975 1.79426 0
M  V30 7044 C 677.196 -0.935023 3.34477 0
M  V30 7045 C 676.15 -0.242074 4.27315 0
M  V30 7046 C 675.476 -1.30519 5.18526 0
M  V30 7047 C 676.776 0.880604 5.14823 0
M  V30 7048 H 678.47 0.776671 2.89151 0
M  V30 7049 H 676.016 0.37494 1.39033 0
M  V30 7050 H 677.969 -1.40766 3.97194 0
M  V30 7051 H 676.693 -1.72818 2.77131 0
M  V30 7052 H 675.352 0.210351 3.65996 0
M  V30 7053 H 675 -2.09041 4.57505 0
M  V30 7054 H 674.7 -0.846652 5.81468 0
M  V30 7055 H 676.224 -1.7787 5.84119 0
M  V30 7056 H 677.638 0.489062 5.7121 0
M  V30 7057 H 676.035 1.26511 5.86613 0
M  V30 7058 H 677.105 1.72818 4.53059 0
M  V30 7059 N 678.448 -1.51871 0.421078 0
M  V30 7060 C 679.695 -2.01938 -0.15079 0
M  V30 7061 C 680.023 -1.30611 -1.44121 0
M  V30 7062 O 679.278 -0.404631 -1.91471 0
M  V30 7063 C 679.577 -3.54764 -0.433292 0
M  V30 7064 C 679.243 -4.44288 0.76936 0
M  V30 7065 C 677.905 -4.68477 1.09921 0
M  V30 7066 C 680.257 -4.96915 1.57242 0
M  V30 7067 C 677.585 -5.4254 2.2331 0
M  V30 7068 C 679.937 -5.7222 2.69716 0
M  V30 7069 C 678.601 -5.94678 3.03174 0
M  V30 7070 H 677.871 -0.738943 -0.0551781 0
M  V30 7071 H 680.518 -1.82977 0.564945 0
M  V30 7072 H 678.823 -3.71968 -1.23074 0
M  V30 7073 H 680.52 -3.91023 -0.888922 0
M  V30 7074 H 677.11 -4.25646 0.502305 0
M  V30 7075 H 681.294 -4.78125 1.3308 0
M  V30 7076 H 676.55 -5.58146 2.49565 0
M  V30 7077 H 680.724 -6.11992 3.32323 0
M  V30 7078 H 678.351 -6.51848 3.9115 0
M  V30 7079 N 679.926 -0.151884 -1.56866 0
M  V30 7080 C 681.337 0.368128 -1.83035 0
M  V30 7081 C 681.688 1.64402 -1.07082 0
M  V30 7082 O 680.813 2.14056 -0.317647 0
M  V30 7083 C 681.408 0.674676 -3.32014 0
M  V30 7084 C 679.967 1.13919 -3.58747 0
M  V30 7085 C 679.114 0.164833 -2.7681 0
M  V30 7086 H 682.065 -0.376499 -1.54169 0
M  V30 7087 H 682.086 1.52883 -3.48435 0
M  V30 7088 H 681.598 -0.254113 -3.87267 0
M  V30 7089 H 679.699 2.08375 -3.08886 0
M  V30 7090 H 679.812 1.06179 -4.67186 0
M  V30 7091 H 678.176 0.658419 -2.46043 0
M  V30 7092 H 678.959 -0.757633 -3.34836 0
M  V30 7093 N 681.404 1.57128 0.121893 0
M  V30 7094 C 682.632 1.88883 0.844451 0
M  V30 7095 C 683.047 0.742824 1.73573 0
M  V30 7096 O 682.404 -0.286475 1.80238 0
M  V30 7097 C 682.455 3.20076 1.68029 0
M  V30 7098 O 682.176 4.30264 0.824898 0
M  V30 7099 C 683.677 3.65515 2.50826 0
M  V30 7100 H 680.897 0.62549 0.242907 0
M  V30 7101 H 683.441 2.04219 0.107151 0
M  V30 7102 H 681.596 3.06418 2.37038 0
M  V30 7103 H 682.01 5.05439 1.40113 0
M  V30 7104 H 683.484 4.60081 3.05008 0
M  V30 7105 H 683.961 2.92029 3.28048 0
M  V30 7106 H 684.567 3.81952 1.87064 0
M  V30 7107 N 682.882 -0.391992 1.52647 0
M  V30 7108 C 684.128 -1.139 1.67793 0
M  V30 7109 C 684.461 -1.89711 0.41514 0
M  V30 7110 O 683.736 -1.85431 -0.586979 0
M  V30 7111 C 684.019 -2.11966 2.91105 0
M  V30 7112 C 683.872 -1.39939 4.27478 0
M  V30 7113 C 685.191 -3.1243 3.09961 0
M  V30 7114 H 682.31 -0.412707 0.610608 0
M  V30 7115 H 684.952 -0.422725 1.85238 0
M  V30 7116 H 683.102 -2.73048 2.76364 0
M  V30 7117 H 684.774 -0.818439 4.53982 0
M  V30 7118 H 683.017 -0.701246 4.28095 0
M  V30 7119 H 683.688 -2.1158 5.09841 0
M  V30 7120 H 686.164 -2.61435 3.23714 0
M  V30 7121 H 685.04 -3.78294 3.97725 0
M  V30 7122 H 685.301 -3.81127 2.24042 0
M  V30 7123 N 684.36 -1.4356 -0.65026 0
M  V30 7124 C 685.29 -1.51758 -1.77459 0
M  V30 7125 C 686.271 -0.372019 -1.65982 0
M  V30 7126 O 687.456 -0.589627 -1.85033 0
M  V30 7127 C 684.586 -1.44302 -3.15902 0
M  V30 7128 C 683.54 -2.57138 -3.42146 0
M  V30 7129 C 682.866 -2.34735 -4.8042 0
M  V30 7130 C 684.166 -3.99373 -3.36598 0
M  V30 7131 H 685.86 -2.45863 -1.70855 0
M  V30 7132 H 683.406 -1.18333 -0.820566 0
M  V30 7133 H 685.359 -1.48641 -3.94314 0
M  V30 7134 H 684.083 -0.467026 -3.23244 0
M  V30 7135 H 682.742 -2.52157 -2.66106 0
M  V30 7136 H 682.39 -1.35372 -4.84441 0
M  V30 7137 H 682.09 -3.10375 -4.9894 0
M  V30 7138 H 683.614 -2.40862 -5.61086 0
M  V30 7139 H 685.028 -4.05826 -4.04942 0
M  V30 7140 H 683.425 -4.75063 -3.66654 0
M  V30 7141 H 684.495 -4.243 -2.34729 0
M  V30 7142 N 685.838 0.888903 -1.30139 0
M  V30 7143 C 687.254 1.17153 -1.08385 0
M  V30 7144 C 687.454 2.0088 0.157925 0
M  V30 7145 O 686.51 2.37668 0.852652 0
M  V30 7146 C 687.823 1.882 -2.34523 0
M  V30 7147 C 689.371 2.00981 -2.39949 0
M  V30 7148 C 689.846 2.75441 -3.65918 0
M  V30 7149 N 691.337 2.82989 -3.66704 0
M  V30 7150 C 692.072 3.41167 -4.60861 0
M  V30 7151 N 691.568 4.00425 -5.6536 0
M  V30 7152 N 693.361 3.38944 -4.48412 0
M  V30 7153 H 685.512 0.33053 -2.09812 0
M  V30 7154 H 687.775 0.208964 -0.924683 0
M  V30 7155 H 687.481 1.34119 -3.25123 0
M  V30 7156 H 687.355 2.88609 -2.42868 0
M  V30 7157 H 689.742 2.54234 -1.4983 0
M  V30 7158 H 689.823 0.996725 -2.35582 0
M  V30 7159 H 689.467 2.22861 -4.56394 0
M  V30 7160 H 689.397 3.77118 -3.67546 0
M  V30 7161 H 691.888 2.40912 -2.91153 0
M  V30 7162 H 692.201 4.42871 -6.33313 0
M  V30 7163 H 690.546 3.98856 -5.69157 0
M  V30 7164 H 693.737 2.91875 -3.6596 0
M  V30 7165 H 693.91 3.83989 -5.21974 0
M  V30 7166 N 687.317 1.12792 1.10072 0
M  V30 7167 C 688.25 0.742921 2.15768 0
M  V30 7168 C 689.228 -0.267714 1.60381 0
M  V30 7169 O 690.412 -0.160782 1.87813 0
M  V30 7170 C 687.539 0.100244 3.38552 0
M  V30 7171 C 686.585 1.07831 4.12644 0
M  V30 7172 S 687.418 2.60765 4.6772 0
M  V30 7173 C 688.574 1.97838 5.9381 0
M  V30 7174 H 688.807 1.63822 2.48092 0
M  V30 7175 H 686.34 0.947385 1.21918 0
M  V30 7176 H 688.298 -0.264175 4.09649 0
M  V30 7177 H 686.959 -0.772223 3.04459 0
M  V30 7178 H 686.152 0.576325 5.00694 0
M  V30 7179 H 685.754 1.38586 3.47376 0
M  V30 7180 H 688.046 1.32341 6.64449 0
M  V30 7181 H 688.989 2.83943 6.48677 0
M  V30 7182 H 689.397 1.43267 5.46017 0
M  V30 7183 N 688.795 -1.27931 0.920396 0
M  V30 7184 C 690.023 -1.98805 0.573087 0
M  V30 7185 C 690.438 -1.68724 -0.847201 0
M  V30 7186 O 689.795 -0.943699 -1.56207 0
M  V30 7187 C 689.846 -3.52971 0.780633 0
M  V30 7188 O 689.567 -3.81994 2.14504 0
M  V30 7189 C 691.068 -4.411 0.44105 0
M  V30 7190 H 688.288 -0.634651 0.21785 0
M  V30 7191 H 690.832 -1.62965 1.23542 0
M  V30 7192 H 688.987 -3.87048 0.165204 0
M  V30 7193 H 689.401 -4.76609 2.18962 0
M  V30 7194 H 690.875 -5.48312 0.637006 0
M  V30 7195 H 691.352 -4.34758 -0.62306 0
M  V30 7196 H 691.958 -4.12532 1.0343 0
M  V30 7197 N 690.273 -0.685099 -1.4193 0
M  V30 7198 C 691.236 -0.0222632 -2.29189 0
M  V30 7199 C 692.236 0.7186 -1.4385 0
M  V30 7200 O 693.426 0.555058 -1.6512 0
M  V30 7201 C 690.558 0.979013 -3.2654 0
M  V30 7202 H 691.751 -0.790424 -2.89296 0
M  V30 7203 H 689.304 -0.448012 -1.49742 0
M  V30 7204 H 690.039 1.77531 -2.71392 0
M  V30 7205 H 689.824 0.451037 -3.89497 0
M  V30 7206 H 691.314 1.44091 -3.91954 0
M  V30 7207 N 691.751 1.51645 -0.429126 0
M  V30 7208 C 692.997 2.02314 0.140286 0
M  V30 7209 C 693.33 1.31314 1.43074 0
M  V30 7210 O 692.605 0.425531 1.89788 0
M  V30 7211 C 692.888 3.5822 0.36749 0
M  V30 7212 C 692.741 4.39846 -0.941039 0
M  V30 7213 C 694.06 4.25055 1.14089 0
M  V30 7214 H 691.179 0.735335 0.0495112 0
M  V30 7215 H 693.821 1.81358 -0.566514 0
M  V30 7216 H 691.971 3.76207 0.969556 0
M  V30 7217 H 693.643 4.33527 -1.57646 0
M  V30 7218 H 691.886 4.05259 -1.54751 0
M  V30 7219 H 692.557 5.47069 -0.73621 0
M  V30 7220 H 695.033 4.11288 0.630986 0
M  V30 7221 H 693.909 5.34038 1.26863 0
M  V30 7222 H 694.17 3.85358 2.16683 0
M  V30 7223 N 693.229 0.160201 1.56784 0
M  V30 7224 C 694.477 -0.486625 1.96154 0
M  V30 7225 C 694.798 -1.64525 1.04673 0
M  V30 7226 O 694.068 -1.95586 0.110864 0
M  V30 7227 H 692.648 -0.182764 0.724297 0
M  V30 7228 H 695.31 0.238787 1.93432 0
M  V30 7229 H 694.406 -0.854025 3.00188 0
M  V30 7230 N 694.707 -1.5719 -0.113559 0
M  V30 7231 C 695.637 -2.03772 -1.14013 0
M  V30 7232 C 696.618 -0.923176 -1.42869 0
M  V30 7233 O 697.803 -1.19325 -1.53216 0
M  V30 7234 C 694.933 -2.44663 -2.4649 0
M  V30 7235 C 693.887 -3.59612 -2.32085 0
M  V30 7236 C 693.213 -3.8642 -3.69573 0
M  V30 7237 C 694.513 -4.91149 -1.7768 0
M  V30 7238 H 696.207 -2.89785 -0.752665 0
M  V30 7239 H 693.753 -1.39412 -0.360609 0
M  V30 7240 H 695.706 -2.75857 -3.18561 0
M  V30 7241 H 694.43 -1.55628 -2.87137 0
M  V30 7242 H 693.089 -3.28636 -1.62461 0
M  V30 7243 H 692.737 -2.94581 -4.07715 0
M  V30 7244 H 692.437 -4.63797 -3.60786 0
M  V30 7245 H 693.961 -4.2007 -4.4314 0
M  V30 7246 H 695.375 -5.20843 -2.39574 0
M  V30 7247 H 693.772 -5.72562 -1.79701 0
M  V30 7248 H 694.842 -4.79301 -0.734776 0
M  V30 7249 N 696.185 0.383891 -1.52853 0
M  V30 7250 C 697.433 1.12619 -1.67814 0
M  V30 7251 C 697.754 1.90354 -0.423141 0
M  V30 7252 O 697.024 1.87649 0.562554 0
M  V30 7253 H 695.604 0.418738 -0.618601 0
M  V30 7254 H 698.266 0.43495 -1.89985 0
M  V30 7255 H 697.362 1.82624 -2.5309 0
M  V30 7256 N 697.663 1.43903 0.642637 0
M  V30 7257 C 698.595 1.45857 1.768 0
M  V30 7258 C 699.608 0.353358 1.58919 0
M  V30 7259 O 700.797 0.618426 1.67445 0
M  V30 7260 C 697.897 1.26583 3.14372 0
M  V30 7261 C 697.07 2.50139 3.58817 0
M  V30 7262 C 696.129 2.25933 4.75227 0
M  V30 7263 O 695.155 2.99351 4.84125 0
M  V30 7264 N 696.357 1.28263 5.66153 0
M  V30 7265 H 699.122 2.42869 1.75598 0
M  V30 7266 H 696.683 1.39194 0.826832 0
M  V30 7267 H 698.675 1.08255 3.89953 0
M  V30 7268 H 697.245 0.37978 3.10284 0
M  V30 7269 H 696.465 2.83821 2.73568 0
M  V30 7270 H 697.753 3.32344 3.8526 0
M  V30 7271 H 697.151 0.676041 5.61646 0
M  V30 7272 H 695.708 1.15916 6.4141 0
M  V30 7273 N 699.141 -0.881989 1.30609 0
M  V30 7274 C 700.074 -1.99066 1.11571 0
M  V30 7275 C 701.052 -1.62584 0.022516 0
M  V30 7276 O 702.236 -1.87671 0.176644 0
M  V30 7277 C 699.363 -3.3134 0.702237 0
M  V30 7278 C 698.409 -3.86807 1.79673 0
M  V30 7279 S 699.242 -4.13735 3.39976 0
M  V30 7280 C 700.398 -5.49024 3.00538 0
M  V30 7281 H 700.631 -2.1491 2.05429 0
M  V30 7282 H 698.164 -1.03074 1.14957 0
M  V30 7283 H 700.122 -4.07796 0.470415 0
M  V30 7284 H 698.783 -3.13349 -0.217034 0
M  V30 7285 H 697.976 -4.82397 1.45977 0
M  V30 7286 H 697.578 -3.17102 1.98298 0
M  V30 7287 H 699.87 -6.30208 2.48684 0
M  V30 7288 H 700.813 -5.8766 3.95046 0
M  V30 7289 H 701.221 -5.11726 2.3832 0
M  V30 7290 N 700.619 -1.13374 -1.09472 0
M  V30 7291 C 701.582 -0.813639 -2.14272 0
M  V30 7292 C 702.582 0.176677 -1.59826 0
M  V30 7293 O 703.772 -0.0503441 -1.74127 0
M  V30 7294 C 700.904 -0.210897 -3.40247 0
M  V30 7295 H 702.097 -1.74229 -2.44099 0
M  V30 7296 H 699.65 -0.938304 -1.25002 0
M  V30 7297 H 700.385 0.726998 -3.16046 0
M  V30 7298 H 700.17 -0.924048 -3.81056 0
M  V30 7299 H 701.66 -0.00377603 -4.176 0
M  V30 7300 N 702.098 1.27442 -0.927168 0
M  V30 7301 C 703.061 2.2512 -0.430525 0
M  V30 7302 C 704.061 1.54357 0.450619 0
M  V30 7303 O 705.251 1.72371 0.251774 0
M  V30 7304 C 702.383 3.38763 0.381144 0
M  V30 7305 H 703.576 2.70569 -1.29354 0
M  V30 7306 H 701.129 1.39355 -0.707806 0
M  V30 7307 H 701.864 2.98695 1.263 0
M  V30 7308 H 701.649 3.91298 -0.250618 0
M  V30 7309 H 703.139 4.11364 0.719012 0
M  V30 7310 N 703.576 0.692616 1.41565 0
M  V30 7311 C 704.992 0.363878 1.55397 0
M  V30 7312 C 705.192 -1.1294 1.66874 0
M  V30 7313 O 704.248 -1.91517 1.64552 0
M  V30 7314 C 705.561 1.10982 2.7947 0
M  V30 7315 C 707.109 1.09387 2.93263 0
M  V30 7316 C 707.584 1.8215 4.20221 0
M  V30 7317 N 709.075 1.79105 4.27172 0
M  V30 7318 C 709.81 2.32247 5.2426 0
M  V30 7319 N 709.306 2.93847 6.27396 0
M  V30 7320 N 711.099 2.22519 5.1618 0
M  V30 7321 H 703.25 1.66116 1.3236 0
M  V30 7322 H 705.513 0.700848 0.63837 0
M  V30 7323 H 705.219 2.1647 2.77188 0
M  V30 7324 H 705.093 0.686492 3.709 0
M  V30 7325 H 707.48 0.0472638 2.95062 0
M  V30 7326 H 707.561 1.55623 2.03015 0
M  V30 7327 H 707.205 2.86789 4.19183 0
M  V30 7328 H 707.135 1.33351 5.09436 0
M  V30 7329 H 709.626 1.34191 3.53272 0
M  V30 7330 H 709.939 3.31972 6.97864 0
M  V30 7331 H 708.284 2.97924 6.27906 0
M  V30 7332 H 711.475 1.7407 4.34531 0
M  V30 7333 H 711.648 2.64239 5.91677 0
M  V30 7334 N 705.054 -1.51416 0.437162 0
M  V30 7335 C 706.302 -2.01687 -0.129108 0
M  V30 7336 C 706.623 -1.32329 -1.43227 0
M  V30 7337 O 705.893 -0.457796 -1.90476 0
M  V30 7338 H 704.473 -0.745277 -0.0507023 0
M  V30 7339 H 707.135 -1.86075 0.579828 0
M  V30 7340 H 706.231 -3.10605 -0.305141 0
M  V30 7341 N 706.532 -0.168513 -1.56696 0
M  V30 7342 C 707.78 0.476216 -1.96409 0
M  V30 7343 C 708.101 1.63968 -1.05544 0
M  V30 7344 O 707.371 1.95525 -0.121235 0
M  V30 7345 H 705.951 0.178921 -0.725256 0
M  V30 7346 H 708.613 -0.249042 -1.93302 0
M  V30 7347 H 707.709 0.838094 -3.00637 0
M  V30 7348 N 708.01 1.57248 0.105221 0
M  V30 7349 C 708.973 2.00388 1.11252 0
M  V30 7350 C 709.973 0.89594 1.33527 0
M  V30 7351 O 711.163 1.16166 1.29811 0
M  V30 7352 C 708.295 2.35589 2.46395 0
M  V30 7353 H 709.488 2.90591 0.741424 0
M  V30 7354 H 707.041 1.52332 0.349956 0
M  V30 7355 H 707.776 1.4831 2.884 0
M  V30 7356 H 707.561 3.16408 2.31578 0
M  V30 7357 H 709.051 2.69658 3.18864 0
M  V30 7358 N 709.488 -0.375779 1.53054 0
M  V30 7359 C 710.737 -1.11674 1.67964 0
M  V30 7360 C 711.05 -1.90755 0.432655 0
M  V30 7361 O 712.256 -2.67538 0.462109 0
M  V30 7362 C 710.712 -2.0344 2.96884 0
M  V30 7363 C 710.32 -1.29719 4.28809 0
M  V30 7364 C 712.064 -2.7759 3.2116 0
M  V30 7365 C 709.971 -2.20327 5.48826 0
M  V30 7366 H 708.901 -0.420597 0.625791 0
M  V30 7367 H 711.552 -0.378499 1.79554 0
M  V30 7368 H 709.934 -2.80953 2.79072 0
M  V30 7369 H 711.108 -0.573394 4.57219 0
M  V30 7370 H 709.423 -0.674735 4.10897 0
M  V30 7371 H 712.02 -3.4559 4.0801 0
M  V30 7372 H 712.363 -3.42399 2.36789 0
M  V30 7373 H 712.896 -2.07164 3.396 0
M  V30 7374 H 709.635 -1.60113 6.35645 0
M  V30 7375 H 709.155 -2.90585 5.2471 0
M  V30 7376 H 710.834 -2.80116 5.83219 0
M  V30 7377 N 710.966 -1.44241 -0.634997 0
M  V30 7378 C 711.896 -1.53632 -1.7584 0
M  V30 7379 C 712.877 -0.389603 -1.65578 0
M  V30 7380 O 714.062 -0.609219 -1.84397 0
M  V30 7381 C 711.192 -1.47644 -3.14354 0
M  V30 7382 C 710.146 -2.60752 -3.394 0
M  V30 7383 C 709.472 -2.39817 -4.77904 0
M  V30 7384 C 710.772 -4.02921 -3.32343 0
M  V30 7385 H 712.466 -2.47662 -1.68238 0
M  V30 7386 H 710.012 -1.19197 -0.807969 0
M  V30 7387 H 711.965 -1.52815 -3.92716 0
M  V30 7388 H 710.689 -0.501284 -3.2273 0
M  V30 7389 H 709.348 -2.54965 -2.63417 0
M  V30 7390 H 708.996 -1.40502 -4.82978 0
M  V30 7391 H 708.696 -3.15649 -4.9562 0
M  V30 7392 H 710.22 -2.46799 -5.585 0
M  V30 7393 H 711.634 -4.10098 -4.00615 0
M  V30 7394 H 710.031 -4.78925 -3.61595 0
M  V30 7395 H 711.101 -4.26766 -2.30215 0
M  V30 7396 N 712.444 0.87505 -1.31075 0
M  V30 7397 C 713.692 1.62447 -1.20231 0
M  V30 7398 C 714.013 1.93506 0.240888 0
M  V30 7399 O 713.283 1.57847 1.16022 0
M  V30 7400 H 711.863 0.602207 -0.441991 0
M  V30 7401 H 714.525 1.04788 -1.64334 0
M  V30 7402 H 713.621 2.57031 -1.77036 0
M  V30 7403 N 713.922 1.13953 1.08869 0
M  V30 7404 C 715.333 0.916649 1.62648 0
M  V30 7405 C 715.684 -0.545589 1.88462 0
M  V30 7406 O 714.809 -1.41351 1.63856 0
M  V30 7407 C 715.404 1.65751 2.95486 0
M  V30 7408 C 713.963 1.48034 3.46068 0
M  V30 7409 C 713.11 1.68305 2.20383 0
M  V30 7410 H 716.061 1.292 0.921572 0
M  V30 7411 H 716.082 1.11794 3.63707 0
M  V30 7412 H 715.594 2.72171 2.76667 0
M  V30 7413 H 713.695 0.439416 3.7 0
M  V30 7414 H 713.808 2.24719 4.23129 0
M  V30 7415 H 712.172 1.10833 2.29321 0
M  V30 7416 H 712.955 2.76057 2.04077 0
M  V30 7417 N 715.4 -1.26948 0.933913 0
M  V30 7418 C 716.33 -2.29017 0.45534 0
M  V30 7419 C 717.311 -1.62961 -0.487605 0
M  V30 7420 O 718.496 -1.90223 -0.391022 0
M  V30 7421 C 715.626 -3.46112 -0.287015 0
M  V30 7422 C 714.58 -4.24205 0.568682 0
M  V30 7423 C 713.906 -5.3384 -0.303206 0
M  V30 7424 C 715.206 -4.88954 1.83633 0
M  V30 7425 H 716.9 -2.69298 1.30839 0
M  V30 7426 H 714.446 -1.29459 0.630579 0
M  V30 7427 H 716.399 -4.16622 -0.6328 0
M  V30 7428 H 715.123 -3.04765 -1.17414 0
M  V30 7429 H 713.782 -3.5545 0.897261 0
M  V30 7430 H 713.43 -4.88734 -1.18947 0
M  V30 7431 H 713.13 -5.86998 0.265879 0
M  V30 7432 H 714.654 -6.0719 -0.644423 0
M  V30 7433 H 716.068 -5.51717 1.55823 0
M  V30 7434 H 714.465 -5.52198 2.34941 0
M  V30 7435 H 715.535 -4.12305 2.55211 0
M  V30 7436 N 716.879 -0.700114 -1.41195 0
M  V30 7437 C 718.125 -0.233351 -2.01453 0
M  V30 7438 C 718.458 1.16548 -1.55339 0
M  V30 7439 O 717.733 1.78756 -0.766575 0
M  V30 7440 C 718.016 -0.2961 -3.58881 0
M  V30 7441 C 717.869 -1.7322 -4.15108 0
M  V30 7442 C 719.188 0.341525 -4.38773 0
M  V30 7443 H 716.307 -0.0862667 -0.731934 0
M  V30 7444 H 718.949 -0.889693 -1.67882 0
M  V30 7445 H 717.099 0.262736 -3.87611 0
M  V30 7446 H 718.771 -2.34523 -3.97236 0
M  V30 7447 H 717.014 -2.2649 -3.69979 0
M  V30 7448 H 717.685 -1.7276 -5.24269 0
M  V30 7449 H 720.161 -0.134461 -4.15883 0
M  V30 7450 H 719.037 0.267098 -5.4825 0
M  V30 7451 H 719.298 1.42289 -4.18577 0
M  V30 7452 N 718.357 1.51182 -0.445186 0
M  V30 7453 C 719.773 1.59299 -0.0978954 0
M  V30 7454 C 719.973 1.4555 1.39346 0
M  V30 7455 O 719.029 1.30073 2.16419 0
M  V30 7456 C 720.342 2.94133 -0.625005 0
M  V30 7457 C 721.89 3.07463 -0.586137 0
M  V30 7458 C 722.365 4.44832 -1.09035 0
M  V30 7459 N 723.856 4.51173 -1.04867 0
M  V30 7460 C 724.591 5.55804 -1.40959 0
M  V30 7461 N 724.087 6.67816 -1.84375 0
M  V30 7462 N 725.88 5.46205 -1.32726 0
M  V30 7463 H 718.031 1.58363 -1.41544 0
M  V30 7464 H 720.294 0.746946 -0.58376 0
M  V30 7465 H 720 3.09589 -1.66876 0
M  V30 7466 H 719.874 3.77161 -0.0542262 0
M  V30 7467 H 722.261 2.9167 0.448646 0
M  V30 7468 H 722.342 2.26255 -1.19341 0
M  V30 7469 H 721.986 4.61372 -2.12364 0
M  V30 7470 H 721.916 5.24591 -0.459539 0
M  V30 7471 H 724.407 3.70783 -0.729932 0
M  V30 7472 H 724.72 7.43683 -2.10131 0
M  V30 7473 H 723.065 6.69003 -1.88308 0
M  V30 7474 H 726.256 4.57583 -0.986678 0
M  V30 7475 H 726.429 6.27634 -1.61182 0
M  V30 7476 N 719.835 0.176821 1.56605 0
M  V30 7477 C 720.765 -0.746841 2.21234 0
M  V30 7478 C 721.746 -1.23502 1.16967 0
M  V30 7479 O 722.931 -1.28718 1.45414 0
M  V30 7480 C 720.061 -1.97407 2.8574 0
M  V30 7481 C 719.015 -1.62153 3.96094 0
M  V30 7482 C 718.341 -2.92387 4.47676 0
M  V30 7483 C 719.641 -0.845353 5.15413 0
M  V30 7484 H 721.335 -0.208116 2.98676 0
M  V30 7485 H 718.881 -0.0986594 1.43662 0
M  V30 7486 H 720.834 -2.62531 3.2963 0
M  V30 7487 H 719.558 -2.53703 2.05676 0
M  V30 7488 H 718.217 -0.993964 3.52868 0
M  V30 7489 H 717.865 -3.46734 3.64396 0
M  V30 7490 H 717.565 -2.69551 5.22127 0
M  V30 7491 H 719.089 -3.5853 4.94255 0
M  V30 7492 H 720.503 -1.39929 5.55961 0
M  V30 7493 H 718.9 -0.715814 5.95815 0
M  V30 7494 H 719.97 0.157239 4.84645 0
M  V30 7495 N 721.313 -1.57302 -0.09688 0
M  V30 7496 C 722.243 -2.0497 -1.11846 0
M  V30 7497 C 723.224 -0.938278 -1.41882 0
M  V30 7498 O 724.409 -1.20943 -1.51942 0
M  V30 7499 C 721.539 -2.47264 -2.43881 0
M  V30 7500 C 720.493 -3.62053 -2.28257 0
M  V30 7501 C 719.819 -3.90318 -3.65453 0
M  V30 7502 C 721.119 -4.93005 -1.72461 0
M  V30 7503 H 722.813 -2.90567 -0.721888 0
M  V30 7504 H 720.359 -1.39786 -0.345803 0
M  V30 7505 H 722.312 -2.7922 -3.15617 0
M  V30 7506 H 721.036 -1.58664 -2.8547 0
M  V30 7507 H 719.695 -3.30341 -1.58967 0
M  V30 7508 H 719.343 -2.98889 -4.04567 0
M  V30 7509 H 719.043 -4.67597 -3.55846 0
M  V30 7510 H 720.567 -4.24747 -4.3866 0
M  V30 7511 H 721.981 -5.23354 -2.34036 0
M  V30 7512 H 720.378 -5.74436 -1.73618 0
M  V30 7513 H 721.448 -4.80053 -0.683898 0
M  V30 7514 N 722.791 0.367657 -1.53252 0
M  V30 7515 C 724.039 1.10832 -1.68999 0
M  V30 7516 C 724.36 1.89894 -0.443306 0
M  V30 7517 O 723.63 1.88235 0.54262 0
M  V30 7518 H 722.21 0.412153 -0.623008 0
M  V30 7519 H 724.872 0.414775 -1.90435 0
M  V30 7520 H 723.968 1.7993 -2.55013 0
M  V30 7521 N 724.269 1.44576 0.627338 0
M  V30 7522 C 725.515 1.47777 1.38888 0
M  V30 7523 C 725.848 0.111406 1.9388 0
M  V30 7524 O 725.123 -0.87149 1.73883 0
M  V30 7525 C 725.406 2.54119 2.55138 0
M  V30 7526 C 725.259 4.00128 2.0547 0
M  V30 7527 C 726.578 2.56929 3.57317 0
M  V30 7528 H 723.697 0.538048 0.50366 0
M  V30 7529 H 726.339 1.76277 0.708978 0
M  V30 7530 H 724.489 2.29948 3.13139 0
M  V30 7531 H 726.161 4.35444 1.5227 0
M  V30 7532 H 724.404 4.11724 1.36623 0
M  V30 7533 H 725.075 4.7019 2.89181 0
M  V30 7534 H 727.551 2.78536 3.09122 0
M  V30 7535 H 726.427 3.33234 4.36173 0
M  V30 7536 H 726.688 1.6127 4.11636 0
M  V30 7537 N 725.747 -0.868086 1.31537 0
M  V30 7538 C 726.697 -1.96321 1.1594 0
M  V30 7539 C 727.681 -1.60748 0.0698962 0
M  V30 7540 O 728.873 -1.74524 0.295011 0
M  V30 7541 C 726.002 -3.32073 0.870789 0
M  V30 7542 C 725.088 -3.73907 2.00136 0
M  V30 7543 N 725.479 -3.87685 3.24859 0
M  V30 7544 C 723.777 -4.03433 1.90152 0
M  V30 7545 C 724.478 -4.23454 3.98825 0
M  V30 7546 N 723.454 -4.34242 3.27009 0
M  V30 7547 H 727.256 -2.05088 2.10514 0
M  V30 7548 H 724.77 -1.059 1.23122 0
M  V30 7549 H 726.767 -4.10279 0.740034 0
M  V30 7550 H 725.427 -3.24631 -0.0667068 0
M  V30 7551 H 726.438 -3.72363 3.59953 0
M  V30 7552 H 723.115 -4.0437 1.03879 0
M  V30 7553 H 724.505 -4.41696 5.06314 0
M  V30 7554 N 727.225 -1.14528 -1.08264 0
M  V30 7555 C 728.473 -0.912599 -1.80322 0
M  V30 7556 C 728.794 0.562256 -1.86718 0
M  V30 7557 O 728.064 1.40869 -1.36135 0
M  V30 7558 H 726.644 -0.334645 -0.667849 0
M  V30 7559 H 729.306 -1.44415 -1.30883 0
M  V30 7560 H 728.402 -1.31384 -2.83098 0
M  V30 7561 N 728.703 1.26451 -0.940633 0
M  V30 7562 C 730.114 1.75726 -0.630653 0
M  V30 7563 C 730.465 1.76631 0.854167 0
M  V30 7564 O 729.59 1.37807 1.66848 0
M  V30 7565 C 730.185 3.19114 -1.13805 0
M  V30 7566 C 728.744 3.66005 -0.878497 0
M  V30 7567 C 727.891 2.45505 -1.28928 0
M  V30 7568 H 730.842 1.12535 -1.119 0
M  V30 7569 H 730.863 3.77311 -0.491625 0
M  V30 7570 H 730.375 3.18424 -2.21874 0
M  V30 7571 H 728.476 3.72126 0.187833 0
M  V30 7572 H 728.589 4.54844 -1.50512 0
M  V30 7573 H 726.953 2.4467 -0.707713 0
M  V30 7574 H 727.736 2.47516 -2.37888 0
M  V30 7575 N 730.181 0.707592 1.40822 0
M  V30 7576 C 731.427 0.252828 2.01823 0
M  V30 7577 C 731.782 -1.13876 1.55081 0
M  V30 7578 O 731.075 -1.75993 0.757439 0
M  V30 7579 C 731.269 0.262892 3.56432 0
M  V30 7580 C 731.098 1.65392 4.18181 0
M  V30 7581 C 729.868 2.25966 4.5196 0
M  V30 7582 C 732.066 2.60272 4.4358 0
M  V30 7583 N 730.048 3.57508 4.9906 0
M  V30 7584 C 731.419 3.76509 4.92586 0
M  V30 7585 C 733.474 2.58386 4.25607 0
M  V30 7586 C 732.177 4.91157 5.25507 0
M  V30 7587 C 734.203 3.72155 4.59625 0
M  V30 7588 C 733.565 4.87123 5.08813 0
M  V30 7589 H 729.664 0.138172 0.769696 0
M  V30 7590 H 732.248 0.927667 1.7118 0
M  V30 7591 H 730.419 -0.381479 3.86522 0
M  V30 7592 H 732.151 -0.20783 4.04166 0
M  V30 7593 H 728.906 1.78138 4.38821 0
M  V30 7594 H 729.33 4.24968 5.27002 0
M  V30 7595 H 733.972 1.7071 3.86805 0
M  V30 7596 H 731.69 5.79483 5.63227 0
M  V30 7597 H 735.276 3.71961 4.47366 0
M  V30 7598 H 734.156 5.73698 5.3464 0
M  V30 7599 N 731.66 -1.50943 0.453197 0
M  V30 7600 C 732.59 -2.31005 -0.34044 0
M  V30 7601 C 733.571 -1.37112 -1.00669 0
M  V30 7602 O 734.756 -1.66033 -1.0073 0
M  V30 7603 C 731.886 -3.16358 -1.433 0
M  V30 7604 C 730.84 -4.18658 -0.889363 0
M  V30 7605 C 730.166 -4.92633 -2.07887 0
M  V30 7606 C 731.466 -5.22227 0.0871142 0
M  V30 7607 H 733.16 -2.97601 0.327723 0
M  V30 7608 H 730.706 -1.43119 0.159054 0
M  V30 7609 H 732.659 -3.71155 -1.99555 0
M  V30 7610 H 731.383 -2.47613 -2.12968 0
M  V30 7611 H 730.042 -3.64936 -0.348915 0
M  V30 7612 H 729.69 -4.20376 -2.76211 0
M  V30 7613 H 729.39 -5.61819 -1.72143 0
M  V30 7614 H 730.914 -5.50258 -2.64666 0
M  V30 7615 H 732.328 -5.72001 -0.385656 0
M  V30 7616 H 730.725 -5.99032 0.357926 0
M  V30 7617 H 731.795 -4.74077 1.01879 0
M  V30 7618 N 733.138 -0.185124 -1.56509 0
M  V30 7619 C 734.549 0.329221 -1.83774 0
M  V30 7620 C 734.9 1.62093 -1.10545 0
M  V30 7621 O 734.025 2.13334 -0.36298 0
M  V30 7622 C 734.62 0.604099 -3.33371 0
M  V30 7623 C 733.179 1.06284 -3.61083 0
M  V30 7624 C 732.326 0.10608 -2.77097 0
M  V30 7625 H 735.277 -0.409116 -1.53336 0
M  V30 7626 H 735.298 1.45458 -3.51599 0
M  V30 7627 H 734.81 -0.336201 -3.86641 0
M  V30 7628 H 732.911 2.01777 -3.13236 0
M  V30 7629 H 733.024 0.962453 -4.69333 0
M  V30 7630 H 731.388 0.606082 -2.47384 0
M  V30 7631 H 732.171 -0.828486 -3.33153 0
M  V30 7632 N 734.616 1.57351 0.0885366 0
M  V30 7633 C 735.546 2.05561 1.10757 0
M  V30 7634 C 736.527 0.945789 1.41382 0
M  V30 7635 O 737.712 1.21747 1.51299 0
M  V30 7636 C 734.842 2.48554 2.42566 0
M  V30 7637 C 733.796 3.63259 2.26334 0
M  V30 7638 C 733.122 3.9225 3.63378 0
M  V30 7639 C 734.422 4.93913 1.69844 0
M  V30 7640 H 736.116 2.90946 0.706468 0
M  V30 7641 H 733.662 1.39968 0.338385 0
M  V30 7642 H 735.615 2.8089 3.14132 0
M  V30 7643 H 734.339 1.60176 2.84625 0
M  V30 7644 H 732.998 3.31179 1.57213 0
M  V30 7645 H 732.646 3.0103 4.02976 0
M  V30 7646 H 732.346 4.69478 3.53362 0
M  V30 7647 H 733.87 4.27067 4.36401 0
M  V30 7648 H 735.284 5.24588 2.31258 0
M  V30 7649 H 733.681 5.75349 1.70569 0
M  V30 7650 H 734.751 4.80409 0.65843 0
M  V30 7651 N 736.094 -0.359525 1.53444 0
M  V30 7652 C 737.024 -1.44662 1.8329 0
M  V30 7653 C 738.005 -1.55617 0.68683 0
M  V30 7654 O 739.19 -1.70086 0.93725 0
M  V30 7655 C 736.32 -2.81923 2.02822 0
M  V30 7656 C 735.274 -2.85787 3.18606 0
M  V30 7657 C 734.6 -4.25781 3.23442 0
M  V30 7658 C 735.9 -2.52762 4.57065 0
M  V30 7659 H 737.594 -1.19934 2.74329 0
M  V30 7660 H 735.14 -0.575517 1.31999 0
M  V30 7661 H 737.093 -3.58005 2.22285 0
M  V30 7662 H 735.817 -3.08051 1.085 0
M  V30 7663 H 734.476 -2.12157 2.98973 0
M  V30 7664 H 734.124 -4.48994 2.26745 0
M  V30 7665 H 733.824 -4.29281 4.01238 0
M  V30 7666 H 735.348 -5.03727 3.45096 0
M  V30 7667 H 736.762 -3.18557 4.76649 0
M  V30 7668 H 735.159 -2.67569 5.37147 0
M  V30 7669 H 736.229 -1.47993 4.61764 0
M  V30 7670 N 737.572 -1.44907 -0.619662 0
M  V30 7671 C 738.818 -1.48512 -1.38102 0
M  V30 7672 C 739.151 -0.121686 -1.93818 0
M  V30 7673 O 738.426 0.862256 -1.74343 0
M  V30 7674 C 738.709 -2.55469 -2.53787 0
M  V30 7675 C 738.562 -4.01212 -2.03345 0
M  V30 7676 C 739.881 -2.58821 -3.55949 0
M  V30 7677 H 737 -0.540712 -0.500799 0
M  V30 7678 H 739.642 -1.7665 -0.69962 0
M  V30 7679 H 737.792 -2.31606 -3.11915 0
M  V30 7680 H 739.464 -4.36245 -1.49959 0
M  V30 7681 H 737.707 -4.12443 -1.34438 0
M  V30 7682 H 738.378 -4.71717 -2.86683 0
M  V30 7683 H 740.854 -2.80172 -3.07641 0
M  V30 7684 H 739.73 -3.35542 -4.34399 0
M  V30 7685 H 739.991 -1.63451 -4.10775 0
M  V30 7686 N 739.05 0.861098 -1.31996 0
M  V30 7687 C 740.28 1.64501 -1.24992 0
M  V30 7688 C 740.688 1.88288 0.185576 0
M  V30 7689 O 740.031 1.44756 1.131 0
M  V30 7690 C 740.093 3.03098 -1.93319 0
M  V30 7691 C 739.757 3.02381 -3.42658 0
M  V30 7692 C 740.754 2.79696 -4.38254 0
M  V30 7693 C 738.439 3.23221 -3.84491 0
M  V30 7694 C 740.433 2.77843 -5.73657 0
M  V30 7695 C 738.12 3.20996 -5.20005 0
M  V30 7696 C 739.118 2.98335 -6.14398 0
M  V30 7697 O 738.806 2.95971 -7.47433 0
M  V30 7698 H 738.538 0.519309 -0.432775 0
M  V30 7699 H 741.092 1.08241 -1.74565 0
M  V30 7700 H 739.322 3.61121 -1.38306 0
M  V30 7701 H 741.011 3.63751 -1.8011 0
M  V30 7702 H 741.777 2.63368 -4.07262 0
M  V30 7703 H 737.656 3.39887 -3.11445 0
M  V30 7704 H 741.2 2.60074 -6.47308 0
M  V30 7705 H 737.097 3.36865 -5.50629 0
M  V30 7706 H 737.865 3.1197 -7.56714 0
M  V30 7707 N 740.528 1.15101 1.07655 0
M  V30 7708 C 741.776 0.922149 1.79836 0
M  V30 7709 C 742.097 -0.552346 1.87014 0
M  V30 7710 O 741.367 -1.40145 1.3688 0
M  V30 7711 H 739.947 0.338182 0.666064 0
M  V30 7712 H 742.609 1.45107 1.30115 0
M  V30 7713 H 741.705 1.32883 2.82398 0
M  V30 7714 N 742.006 -1.2595 0.947325 0
M  V30 7715 C 743.234 -1.97544 0.615127 0
M  V30 7716 C 743.649 -1.70484 -0.811221 0
M  V30 7717 O 743.006 -0.97662 -1.5417 0
M  V30 7718 C 743.057 -3.51236 0.855328 0
M  V30 7719 O 742.778 -3.77359 2.22558 0
M  V30 7720 C 744.279 -4.40066 0.534515 0
M  V30 7721 H 741.499 -0.629888 0.231263 0
M  V30 7722 H 744.043 -1.60308 1.26971 0
M  V30 7723 H 742.198 -3.8661 0.247266 0
M  V30 7724 H 742.612 -4.71857 2.29022 0
M  V30 7725 H 744.086 -5.46838 0.753168 0
M  V30 7726 H 744.563 -4.35982 -0.530701 0
M  V30 7727 H 745.169 -4.10245 1.12158 0
M  V30 7728 N 743.484 -0.715051 -1.40445 0
M  V30 7729 C 744.73 -0.254705 -2.01194 0
M  V30 7730 C 745.063 1.14894 -1.56567 0
M  V30 7731 O 744.338 1.77933 -0.785491 0
M  V30 7732 C 744.621 -0.334148 -3.58546 0
M  V30 7733 C 744.474 -1.77613 -4.13248 0
M  V30 7734 C 745.793 0.294968 -4.3911 0
M  V30 7735 H 742.912 -0.094025 -0.730978 0
M  V30 7736 H 745.554 -0.907449 -1.66929 0
M  V30 7737 H 743.704 0.221609 -3.87867 0
M  V30 7738 H 745.376 -2.38723 -3.94727 0
M  V30 7739 H 743.619 -2.30402 -3.67556 0
M  V30 7740 H 744.29 -1.78311 -5.22407 0
M  V30 7741 H 746.766 -0.178563 -4.15717 0
M  V30 7742 H 745.642 0.208934 -5.48502 0
M  V30 7743 H 745.903 1.37841 -4.20062 0
M  V30 7744 N 744.962 1.50701 -0.461195 0
M  V30 7745 C 746.373 1.867 -0.00370227 0
M  V30 7746 C 746.724 1.37673 1.39787 0
M  V30 7747 O 745.849 0.737515 2.03445 0
M  V30 7748 C 746.444 3.388 5.75786e-05 0
M  V30 7749 C 745.003 3.74247 0.402044 0
M  V30 7750 C 744.15 2.74549 -0.389652 0
M  V30 7751 H 747.101 1.43585 -0.675942 0
M  V30 7752 H 747.122 3.719 0.804414 0
M  V30 7753 H 746.634 3.74452 -1.02015 0
M  V30 7754 H 744.735 3.44192 1.42697 0
M  V30 7755 H 744.848 4.78973 0.110265 0
M  V30 7756 H 743.212 2.54226 0.155314 0
M  V30 7757 H 743.995 3.13044 -1.40919 0
M  V30 7758 N 746.441 0.193421 1.56409 0
M  V30 7759 C 747.687 -0.446449 1.97825 0
M  V30 7760 C 748.02 -1.61386 1.08019 0
M  V30 7761 O 747.295 -1.94053 0.131839 0
M  V30 7762 C 747.578 -0.908199 3.48459 0
M  V30 7763 C 747.431 0.260914 4.49043 0
M  V30 7764 C 748.75 -1.77428 4.0275 0
M  V30 7765 H 745.869 -0.160807 0.719243 0
M  V30 7766 H 748.511 0.284006 1.87865 0
M  V30 7767 H 746.661 -1.53062 3.57077 0
M  V30 7768 H 748.333 0.898548 4.52464 0
M  V30 7769 H 746.576 0.912949 4.24085 0
M  V30 7770 H 747.247 -0.104657 5.51901 0
M  V30 7771 H 749.723 -1.24936 3.96901 0
M  V30 7772 H 748.599 -2.06633 5.08521 0
M  V30 7773 H 748.86 -2.72788 3.47907 0
M  V30 7774 N 747.919 -1.57396 -0.0801906 0
M  V30 7775 C 748.849 -2.06145 -1.09665 0
M  V30 7776 C 749.83 -0.953273 -1.40878 0
M  V30 7777 O 751.015 -1.22548 -1.50651 0
M  V30 7778 C 748.145 -2.49836 -2.41245 0
M  V30 7779 C 747.099 -3.64454 -2.24405 0
M  V30 7780 C 746.425 -3.94172 -3.61293 0
M  V30 7781 C 747.725 -4.94807 -1.67223 0
M  V30 7782 H 749.419 -2.91316 -0.691028 0
M  V30 7783 H 746.965 -1.40145 -0.330957 0
M  V30 7784 H 748.918 -2.82552 -3.12638 0
M  V30 7785 H 747.642 -1.61683 -2.83771 0
M  V30 7786 H 746.301 -3.32008 -1.55454 0
M  V30 7787 H 745.949 -3.03163 -4.01374 0
M  V30 7788 H 745.649 -4.71345 -3.50867 0
M  V30 7789 H 747.173 -4.29376 -4.3413 0
M  V30 7790 H 748.587 -5.25807 -2.28472 0
M  V30 7791 H 746.984 -5.76245 -1.67515 0
M  V30 7792 H 748.054 -4.80751 -0.632944 0
M  V30 7793 N 749.397 0.351382 -1.53633 0
M  V30 7794 C 750.622 1.11718 -1.74739 0
M  V30 7795 C 751.047 1.81829 -0.481657 0
M  V30 7796 O 750.405 1.72264 0.565233 0
M  V30 7797 C 750.453 2.11234 -2.92254 0
M  V30 7798 O 749.557 3.186 -2.61855 0
M  V30 7799 H 748.898 0.323482 -0.579875 0
M  V30 7800 H 751.428 0.404167 -2.00568 0
M  V30 7801 H 751.438 2.54591 -3.18822 0
M  V30 7802 H 750.113 1.59599 -3.84058 0
M  V30 7803 H 748.69 2.80115 -2.4615 0
M  V30 7804 N 750.875 1.45233 0.611969 0
M  V30 7805 C 752.123 1.48727 1.36838 0
M  V30 7806 C 752.444 0.128616 1.94575 0
M  V30 7807 O 751.714 -0.84149 1.76906 0
M  V30 7808 H 750.294 0.547695 0.507976 0
M  V30 7809 H 752.956 1.81156 0.718925 0
M  V30 7810 H 752.052 2.2236 2.19003 0
M  V30 7811 N 752.353 -0.854086 1.3245 0
M  V30 7812 C 753.283 -1.97827 1.24044 0
M  V30 7813 C 754.264 -1.69646 0.124166 0
M  V30 7814 O 755.449 -1.91687 0.31143 0
M  V30 7815 C 752.579 -3.33673 0.963324 0
M  V30 7816 C 751.533 -3.76207 2.04089 0
M  V30 7817 C 750.859 -5.0969 1.61618 0
M  V30 7818 C 752.159 -3.91612 3.45597 0
M  V30 7819 H 753.853 -2.05118 2.18099 0
M  V30 7820 H 751.399 -0.985489 1.04996 0
M  V30 7821 H 753.352 -4.11871 0.891061 0
M  V30 7822 H 752.076 -3.26597 -0.0128649 0
M  V30 7823 H 750.735 -3.0026 2.10332 0
M  V30 7824 H 750.383 -4.99072 0.627418 0
M  V30 7825 H 750.083 -5.3912 2.33717 0
M  V30 7826 H 751.607 -5.90381 1.55829 0
M  V30 7827 H 753.021 -4.60163 3.4194 0
M  V30 7828 H 751.418 -4.3246 4.16051 0
M  V30 7829 H 752.488 -2.9451 3.85217 0
M  V30 7830 N 753.831 -1.1567 -1.07043 0
M  V30 7831 C 754.794 -0.858906 -2.12498 0
M  V30 7832 C 755.794 0.142735 -1.60165 0
M  V30 7833 O 756.984 -0.0872678 -1.73981 0
M  V30 7834 C 754.116 -0.283021 -3.39723 0
M  V30 7835 H 755.309 -1.79368 -2.40348 0
M  V30 7836 H 752.862 -0.964608 -1.22984 0
M  V30 7837 H 753.597 0.659796 -3.17517 0
M  V30 7838 H 753.382 -1.00467 -3.7901 0
M  V30 7839 H 754.872 -0.0923543 -4.17498 0
M  V30 7840 N 755.309 1.25446 -0.953992 0
M  V30 7841 C 756.272 2.24156 -0.478179 0
M  V30 7842 C 757.272 1.55278 0.417776 0
M  V30 7843 O 758.462 1.72866 0.215155 0
M  V30 7844 C 755.594 3.39495 0.309202 0
M  V30 7845 H 756.787 2.67764 -1.35064 0
M  V30 7846 H 754.34 1.37822 -0.737206 0
M  V30 7847 H 755.075 3.01307 1.19936 0
M  V30 7848 H 754.86 3.90679 -0.333562 0
M  V30 7849 H 756.35 4.12796 0.631594 0
M  V30 7850 N 756.787 0.722489 1.40064 0
M  V30 7851 C 757.717 0.0892452 2.33329 0
M  V30 7852 C 758.698 -0.737992 1.53257 0
M  V30 7853 O 759.883 -0.685516 1.81698 0
M  V30 7854 C 757.013 -0.828139 3.37282 0
M  V30 7855 C 755.967 -0.106005 4.27869 0
M  V30 7856 C 755.293 -1.13957 5.22415 0
M  V30 7857 C 756.593 1.04395 5.11761 0
M  V30 7858 H 758.287 0.868269 2.86534 0
M  V30 7859 H 755.833 0.418982 1.3777 0
M  V30 7860 H 757.786 -1.28058 4.01471 0
M  V30 7861 H 756.51 -1.63914 2.82489 0
M  V30 7862 H 755.169 0.326683 3.65142 0
M  V30 7863 H 754.817 -1.9438 4.63924 0
M  V30 7864 H 754.517 -0.661233 5.83868 0
M  V30 7865 H 756.041 -1.59197 5.89482 0
M  V30 7866 H 757.455 0.670541 5.69365 0
M  V30 7867 H 755.852 1.4511 5.82291 0
M  V30 7868 H 756.922 1.87144 4.47331 0
M  V30 7869 N 758.265 -1.50454 0.469181 0
M  V30 7870 C 759.195 -2.31353 -0.31592 0
M  V30 7871 C 760.176 -1.38172 -0.992094 0
M  V30 7872 O 761.361 -1.67093 -0.989633 0
M  V30 7873 C 758.491 -3.1786 -1.39937 0
M  V30 7874 C 757.445 -4.19578 -0.844909 0
M  V30 7875 C 756.771 -4.9481 -2.0265 0
M  V30 7876 C 758.071 -5.22106 0.142499 0
M  V30 7877 H 759.765 -2.97237 0.359269 0
M  V30 7878 H 757.311 -1.42942 0.174224 0
M  V30 7879 H 759.264 -3.7325 -1.95607 0
M  V30 7880 H 757.988 -2.49858 -2.1033 0
M  V30 7881 H 756.647 -3.65285 -0.310189 0
M  V30 7882 H 756.295 -4.23282 -2.71737 0
M  V30 7883 H 755.995 -5.63613 -1.66174 0
M  V30 7884 H 757.519 -5.53035 -2.58815 0
M  V30 7885 H 758.933 -5.72378 -0.324966 0
M  V30 7886 H 757.33 -5.98618 0.421441 0
M  V30 7887 H 758.4 -4.7297 1.06901 0
M  V30 7888 N 759.743 -0.201713 -1.56304 0
M  V30 7889 C 760.673 0.71155 -2.22394 0
M  V30 7890 C 761.654 1.21625 -1.18917 0
M  V30 7891 O 762.839 1.26388 -1.47444 0
M  V30 7892 C 759.969 1.92837 -2.88845 0
M  V30 7893 C 758.923 1.55831 -3.98623 0
M  V30 7894 C 758.249 2.85228 -4.52271 0
M  V30 7895 C 759.549 0.763249 -5.16693 0
M  V30 7896 H 761.243 0.160573 -2.98969 0
M  V30 7897 H 758.789 0.0757916 -1.438 0
M  V30 7898 H 760.742 2.57253 -3.33764 0
M  V30 7899 H 759.466 2.50398 -2.09686 0
M  V30 7900 H 758.125 0.9377 -3.54405 0
M  V30 7901 H 757.773 3.40893 -3.69866 0
M  V30 7902 H 757.473 2.6121 -5.26349 0
M  V30 7903 H 758.997 3.50622 -4.99897 0
M  V30 7904 H 760.411 1.31066 -5.58117 0
M  V30 7905 H 758.808 0.620935 -5.96879 0
M  V30 7906 H 759.878 -0.234322 -4.84334 0
M  V30 7907 N 761.222 1.57436 0.0718424 0
M  V30 7908 C 762.633 1.75975 0.623678 0
M  V30 7909 C 762.984 0.827155 1.77912 0
M  V30 7910 O 762.109 0.0112425 2.16397 0
M  V30 7911 C 762.704 3.1911 1.13816 0
M  V30 7912 C 761.263 3.38994 1.63586 0
M  V30 7913 C 760.41 2.71684 0.555261 0
M  V30 7914 H 763.361 1.57948 -0.154328 0
M  V30 7915 H 763.382 3.23267 2.00696 0
M  V30 7916 H 762.894 3.86962 0.296998 0
M  V30 7917 H 760.995 2.76256 2.50027 0
M  V30 7918 H 761.108 4.47436 1.71283 0
M  V30 7919 H 759.472 2.34236 1.00029 0
M  V30 7920 H 760.255 3.42191 -0.275712 0
M  V30 7921 N 762.7 -0.34323 1.53817 0
M  V30 7922 C 763.61 -1.44493 1.84821 0
M  V30 7923 C 764.626 -1.57556 0.738381 0
M  V30 7924 O 765.802 -1.73026 1.03072 0
M  V30 7925 C 762.867 -2.79478 2.05166 0
M  V30 7926 C 761.928 -2.75756 3.29025 0
M  V30 7927 C 761.161 -4.04302 3.4839 0
M  V30 7928 O 761.384 -5.01595 2.71586 0
M  V30 7929 O 760.318 -4.08754 4.41819 0
M  V30 7930 H 764.144 -1.21209 2.78464 0
M  V30 7931 H 761.729 -0.535437 1.39476 0
M  V30 7932 H 763.611 -3.59419 2.19991 0
M  V30 7933 H 762.286 -3.02692 1.14713 0
M  V30 7934 H 761.193 -1.94434 3.19603 0
M  V30 7935 H 762.526 -2.57495 4.19472 0
M  V30 7936 N 764.178 -1.45556 -0.604258 0
M  V30 7937 C 765.406 -1.53278 -1.38973 0
M  V30 7938 C 765.821 -0.166509 -1.88064 0
M  V30 7939 O 765.178 0.832519 -1.62405 0
M  V30 7940 C 765.229 -2.51992 -2.59195 0
M  V30 7941 O 764.95 -3.8331 -2.12143 0
M  V30 7942 C 766.451 -2.69445 -3.52015 0
M  V30 7943 H 763.671 -0.519003 -0.425297 0
M  V30 7944 H 766.215 -1.90773 -0.736621 0
M  V30 7945 H 764.37 -2.17561 -3.2054 0
M  V30 7946 H 764.784 -4.3685 -2.90279 0
M  V30 7947 H 766.258 -3.42485 -4.32907 0
M  V30 7948 H 766.735 -1.75596 -4.0257 0
M  V30 7949 H 767.341 -3.04886 -2.9652 0
M  V30 7950 N 765.656 0.84705 -1.32902 0
M  V30 7951 C 766.588 1.96308 -1.18304 0
M  V30 7952 C 767.601 1.62386 -0.116082 0
M  V30 7953 O 768.79 1.74713 -0.365751 0
M  V30 7954 C 765.89 3.29556 -0.790305 0
M  V30 7955 C 765.063 3.91668 -1.94717 0
M  V30 7956 C 764.122 5.0326 -1.53674 0
M  V30 7957 O 763.148 5.22847 -2.24989 0
M  V30 7958 N 764.35 5.78852 -0.437075 0
M  V30 7959 H 767.115 2.09369 -2.14441 0
M  V30 7960 H 764.676 1.02233 -1.25539 0
M  V30 7961 H 766.668 4.01624 -0.49799 0
M  V30 7962 H 765.238 3.12497 0.0801286 0
M  V30 7963 H 764.458 3.12292 -2.40557 0
M  V30 7964 H 765.746 4.299 -2.72146 0
M  V30 7965 H 765.144 5.65484 0.156316 0
M  V30 7966 H 763.701 6.51479 -0.204399 0
M  V30 7967 N 767.134 1.16236 1.06428 0
M  V30 7968 C 768.359 0.967688 1.83441 0
M  V30 7969 C 768.784 -0.479167 1.81894 0
M  V30 7970 O 768.142 -1.34224 1.21875 0
M  V30 7971 C 768.19 1.49806 3.2801 0
M  V30 7972 O 767.294 0.703481 4.06356 0
M  V30 7973 H 766.635 0.344468 0.56766 0
M  V30 7974 H 769.165 1.54442 1.34197 0
M  V30 7975 H 769.175 1.51495 3.78831 0
M  V30 7976 H 767.85 2.55133 3.2845 0
M  V30 7977 H 766.427 0.756986 3.65136 0
M  V30 7978 N 768.612 -1.24939 0.960631 0
M  V30 7979 C 769.542 -2.28 0.503815 0
M  V30 7980 C 770.523 -1.63959 -0.452928 0
M  V30 7981 O 771.708 -1.91009 -0.350585 0
M  V30 7982 C 768.838 -3.46643 -0.213535 0
M  V30 7983 C 767.792 -4.22903 0.658535 0
M  V30 7984 C 767.118 -5.34363 -0.189902 0
M  V30 7985 C 768.418 -4.84949 1.93963 0
M  V30 7986 H 770.112 -2.66462 1.36521 0
M  V30 7987 H 767.658 -1.28093 0.657897 0
M  V30 7988 H 769.611 -4.1787 -0.544286 0
M  V30 7989 H 768.335 -3.07187 -1.10923 0
M  V30 7990 H 766.994 -3.53467 0.972455 0
M  V30 7991 H 766.642 -4.91147 -1.08553 0
M  V30 7992 H 766.342 -5.86302 0.390331 0
M  V30 7993 H 767.866 -6.0842 -0.515484 0
M  V30 7994 H 769.28 -5.48288 1.67491 0
M  V30 7995 H 767.677 -5.47091 2.46601 0
M  V30 7996 H 768.747 -4.06799 2.639 0
M  V30 7997 N 770.09 -0.729906 -1.39679 0
M  V30 7998 C 771.501 -0.346241 -1.83461 0
M  V30 7999 C 771.852 1.1215 -1.60987 0
M  V30 8000 O 770.977 1.86456 -1.09832 0
M  V30 8001 C 771.572 -0.621656 -3.33048 0
M  V30 8002 C 770.131 -0.291543 -3.75269 0
M  V30 8003 C 769.278 -0.886844 -2.62736 0
M  V30 8004 H 772.229 -0.927949 -1.28743 0
M  V30 8005 H 772.25 0.108301 -3.80346 0
M  V30 8006 H 771.762 -1.68996 -3.49373 0
M  V30 8007 H 769.863 0.771133 -3.64533 0
M  V30 8008 H 769.976 -0.770544 -4.72863 0
M  V30 8009 H 768.34 -0.313839 -2.52759 0
M  V30 8010 H 769.123 -1.95971 -2.81869 0
M  V30 8011 N 771.568 1.50203 -0.477153 0
M  V30 8012 C 772.498 2.31517 0.303646 0
M  V30 8013 C 773.479 1.38696 0.984753 0
M  V30 8014 O 774.664 1.67615 0.980758 0
M  V30 8015 C 771.794 3.18598 1.38249 0
M  V30 8016 C 770.748 4.2002 0.822645 0
M  V30 8017 C 770.074 4.95878 2.00024 0
M  V30 8018 C 771.374 5.22023 -0.170185 0
M  V30 8019 H 773.068 2.97042 -0.375027 0
M  V30 8020 H 770.614 1.42848 -0.181802 0
M  V30 8021 H 772.567 3.74282 1.93625 0
M  V30 8022 H 771.291 2.5097 2.09002 0
M  V30 8023 H 769.95 3.65445 0.290813 0
M  V30 8024 H 769.598 4.24717 2.69489 0
M  V30 8025 H 769.298 5.64487 1.63183 0
M  V30 8026 H 770.822 5.54399 2.55878 0
M  V30 8027 H 772.236 5.72543 0.294606 0
M  V30 8028 H 770.633 5.98386 -0.453181 0
M  V30 8029 H 771.703 4.72396 -1.09408 0
M  V30 8030 N 773.046 0.209999 1.56195 0
M  V30 8031 C 774.457 -0.299943 1.84275 0
M  V30 8032 C 774.808 -1.60314 1.1311 0
M  V30 8033 O 773.933 -2.1273 0.396874 0
M  V30 8034 C 774.528 -0.550986 3.3429 0
M  V30 8035 C 773.087 -1.00526 3.62728 0
M  V30 8036 C 772.234 -0.0619828 2.77231 0
M  V30 8037 H 775.185 0.433458 1.52666 0
M  V30 8038 H 775.206 -1.39846 3.53869 0
M  V30 8039 H 774.718 0.397669 3.86057 0
M  V30 8040 H 772.819 -1.96768 3.16407 0
M  V30 8041 H 772.932 -0.887664 4.70805 0
M  V30 8042 H 771.296 -0.566648 2.48317 0
M  V30 8043 H 772.079 0.881383 3.31793 0
M  V30 8044 N 774.524 -1.57472 -0.0634922 0
M  V30 8045 C 775.801 -1.78736 -0.794538 0
M  V30 8046 C 776.181 -0.799645 -1.95369 0
M  V30 8047 O 775.529 0.165521 -2.279 0
M  V30 8048 C 775.739 -3.25471 -1.25975 0
M  V30 8049 C 777.087 -3.89528 -1.68976 0
M  V30 8050 O 778.111 -3.29412 -1.35521 0
M  V30 8051 O 776.97 -4.95305 -2.30944 0
M  V30 8052 H 774.064 -0.733813 -0.381376 0
M  V30 8053 H 776.61 -1.69646 -0.0429258 0
M  V30 8054 H 775.382 -3.88922 -0.430721 0
M  V30 8055 H 775.005 -3.39317 -2.07243 0
M  V30 8056 N 776.003 0.335068 -1.53997 0
M  V30 8057 C 777.231 1.09418 -1.756 0
M  V30 8058 C 777.646 1.82083 -0.499138 0
M  V30 8059 O 777.003 1.74646 0.529631 0
M  V30 8060 C 777.054 2.10115 -2.94166 0
M  V30 8061 O 776.775 1.40404 -4.14992 0
M  V30 8062 C 778.276 2.98336 -3.27888 0
M  V30 8063 H 775.496 0.32595 -0.586513 0
M  V30 8064 H 778.04 0.384693 -2.00849 0
M  V30 8065 H 776.195 2.76616 -2.71224 0
M  V30 8066 H 776.609 2.07743 -4.81605 0
M  V30 8067 H 778.083 3.6491 -4.1418 0
M  V30 8068 H 778.56 3.64814 -2.44556 0
M  V30 8069 H 779.166 2.37412 -3.52868 0
M  V30 8070 N 777.481 1.45874 0.596531 0
M  V30 8071 C 778.73 1.49737 1.35135 0
M  V30 8072 C 779.043 0.147755 1.95041 0
M  V30 8073 O 780.249 0.0640984 2.71424 0
M  V30 8074 C 778.705 2.6378 2.44843 0
M  V30 8075 C 778.313 4.05102 1.91301 0
M  V30 8076 C 780.057 2.769 3.21755 0
M  V30 8077 C 777.964 5.10508 2.98557 0
M  V30 8078 H 776.894 0.557219 0.507959 0
M  V30 8079 H 779.545 1.72046 0.638147 0
M  V30 8080 H 777.927 2.34774 3.189 0
M  V30 8081 H 779.101 4.43836 1.2388 0
M  V30 8082 H 777.416 3.96528 1.271 0
M  V30 8083 H 780.013 3.52819 4.01775 0
M  V30 8084 H 780.356 1.83924 3.73467 0
M  V30 8085 H 780.889 3.05485 2.54802 0
M  V30 8086 H 777.628 6.0523 2.51749 0
M  V30 8087 H 777.148 4.76332 3.6451 0
M  V30 8088 H 778.827 5.35745 3.62748 0
M  V30 8089 N 778.959 -0.83999 1.33349 0
M  V30 8090 C 779.891 -1.95678 1.19344 0
M  V30 8091 C 780.904 -1.62322 0.124692 0
M  V30 8092 O 782.093 -1.74516 0.375012 0
M  V30 8093 C 779.193 -3.29133 0.807771 0
M  V30 8094 C 778.366 -3.9063 1.96792 0
M  V30 8095 C 777.425 -5.02438 1.56341 0
M  V30 8096 O 776.451 -5.21646 2.27759 0
M  V30 8097 N 777.653 -5.78612 0.467767 0
M  V30 8098 H 780.418 -2.08229 2.15548 0
M  V30 8099 H 777.979 -1.01566 1.26079 0
M  V30 8100 H 779.971 -4.01355 0.519282 0
M  V30 8101 H 778.541 -3.12535 -0.063555 0
M  V30 8102 H 777.761 -3.11011 2.4221 0
M  V30 8103 H 779.049 -4.2845 2.74422 0
M  V30 8104 H 778.447 -5.65559 -0.126324 0
M  V30 8105 H 777.004 -6.51362 0.238945 0
M  V30 8106 N 780.437 -1.16799 -1.0581 0
M  V30 8107 C 781.714 -0.862616 -1.75551 0
M  V30 8108 C 782.094 0.6385 -2.01212 0
M  V30 8109 O 781.442 1.58784 -1.64317 0
M  V30 8110 C 781.652 -1.6907 -3.05314 0
M  V30 8111 C 783 -1.90675 -3.79379 0
M  V30 8112 O 784.024 -1.65976 -3.15167 0
M  V30 8113 O 782.883 -2.32145 -4.94743 0
M  V30 8114 H 779.977 -0.318789 -0.763088 0
M  V30 8115 H 782.523 -1.27461 -1.12034 0
M  V30 8116 H 781.295 -2.70912 -2.82352 0
M  V30 8117 H 780.918 -1.27606 -3.76567 0
M  V30 8118 N 781.915 1.24427 -0.967243 0
M  V30 8119 C 783.161 1.92772 -0.629812 0
M  V30 8120 C 783.494 1.75436 0.832827 0
M  V30 8121 O 782.769 1.10716 1.59913 0
M  V30 8122 C 783.052 3.45798 -1.00477 0
M  V30 8123 C 782.905 3.72304 -2.52407 0
M  V30 8124 C 784.224 4.36787 -0.538999 0
M  V30 8125 H 781.343 0.700099 -0.230282 0
M  V30 8126 H 783.985 1.46805 -1.20616 0
M  V30 8127 H 782.135 3.8508 -0.514336 0
M  V30 8128 H 783.807 3.42584 -3.08924 0
M  V30 8129 H 782.05 3.17472 -2.95625 0
M  V30 8130 H 782.721 4.7937 -2.73693 0
M  V30 8131 H 785.197 4.04877 -0.959874 0
M  V30 8132 H 784.073 5.4259 -0.829926 0
M  V30 8133 H 784.334 4.38527 0.560923 0
M  V30 8134 N 783.393 0.737304 1.3929 0
M  V30 8135 C 784.325 0.0592106 2.29124 0
M  V30 8136 C 785.338 -0.701026 1.46934 0
M  V30 8137 O 786.527 -0.544808 1.69983 0
M  V30 8138 C 783.627 -0.940358 3.25592 0
M  V30 8139 C 782.8 -0.241163 4.36735 0
M  V30 8140 C 781.859 -1.14916 5.13498 0
M  V30 8141 O 780.885 -0.625783 5.6575 0
M  V30 8142 N 782.087 -2.47869 5.2492 0
M  V30 8143 H 784.852 0.830647 2.87959 0
M  V30 8144 H 782.413 0.586718 1.50895 0
M  V30 8145 H 784.405 -1.55046 3.73822 0
M  V30 8146 H 782.975 -1.61299 2.67771 0
M  V30 8147 H 782.195 0.549441 3.90352 0
M  V30 8148 H 783.483 0.243299 5.08218 0
M  V30 8149 H 782.881 -2.92864 4.83991 0
M  V30 8150 H 781.438 -3.03969 5.76581 0
M  V30 8151 N 784.871 -1.49948 0.485112 0
M  V30 8152 C 785.819 -2.30449 -0.315609 0
M  V30 8153 C 786.813 -1.38351 -0.977516 0
M  V30 8154 O 788.019 -1.55477 -0.907019 0
M  V30 8155 H 784.394 -0.742262 -0.120629 0
M  V30 8156 H 786.365 -2.95925 0.383552 0
M  V30 8157 C 785.114 -3.19283 -1.37673 0
M  V30 8158 H 784.437 -3.90067 -0.876801 0
M  V30 8159 H 785.877 -3.78579 -1.90929 0
M  V30 8160 C 784.336 -2.37817 -2.38631 0
M  V30 8161 O 784.866 -2.0711 -3.44192 0
M  V30 8162 N 783.072 -2.00135 -2.107 0
M  V30 8163 H 782.619 -2.25307 -1.24878 0
M  V30 8164 H 782.577 -1.45933 -2.7848 0
M  V30 8165 N 786.349 -0.21828 -1.56081 0
M  V30 8166 C 787.281 0.725447 -2.17416 0
M  V30 8167 C 788.294 1.15995 -1.14233 0
M  V30 8168 O 789.483 1.09166 -1.41227 0
M  V30 8169 C 786.583 1.99401 -2.7403 0
M  V30 8170 C 785.756 1.7156 -4.02351 0
M  V30 8171 C 784.815 2.8309 -4.43561 0
M  V30 8172 O 783.841 2.51701 -5.10525 0
M  V30 8173 N 785.043 4.11972 -4.08973 0
M  V30 8174 H 787.808 0.200801 -2.99027 0
M  V30 8175 H 785.369 -0.0371514 -1.61857 0
M  V30 8176 H 787.361 2.73198 -2.98571 0
M  V30 8177 H 785.931 2.42923 -1.96742 0
M  V30 8178 H 785.151 0.814233 -3.85699 0
M  V30 8179 H 786.439 1.50385 -4.86068 0
M  V30 8180 H 785.837 4.40319 -3.55156 0
M  V30 8181 H 784.394 4.82323 -4.38415 0
M  V30 8182 N 787.827 1.57504 0.0551401 0
M  V30 8183 C 788.79 2.03826 1.04821 0
M  V30 8184 C 789.79 0.937968 1.30609 0
M  V30 8185 O 790.98 1.20237 1.2605 0
M  V30 8186 C 788.112 2.43309 2.38775 0
M  V30 8187 H 789.305 2.92802 0.6486 0
M  V30 8188 H 786.858 1.53368 0.301315 0
M  V30 8189 H 787.593 1.5741 2.83536 0
M  V30 8190 H 787.378 3.23615 2.21395 0
M  V30 8191 H 788.868 2.79666 3.10124 0
M  V30 8192 N 789.305 -0.326896 1.54172 0
M  V30 8193 C 790.551 -1.06681 1.72473 0
M  V30 8194 C 790.884 -1.87779 0.49523 0
M  V30 8195 O 790.159 -1.87754 -0.507803 0
M  V30 8196 C 790.442 -1.99429 2.99834 0
M  V30 8197 C 790.295 -1.21682 4.33028 0
M  V30 8198 C 791.614 -2.99002 3.22933 0
M  V30 8199 H 788.733 -0.386438 0.627563 0
M  V30 8200 H 791.375 -0.343779 1.86864 0
M  V30 8201 H 789.525 -2.61081 2.87696 0
M  V30 8202 H 791.197 -0.625153 4.57044 0
M  V30 8203 H 789.44 -0.519045 4.30684 0
M  V30 8204 H 790.111 -1.89766 5.18356 0
M  V30 8205 H 792.587 -2.4747 3.34511 0
M  V30 8206 H 791.463 -3.61085 4.13412 0
M  V30 8207 H 791.724 -3.71281 2.40006 0
M  V30 8208 N 790.784 -1.46188 -0.588786 0
M  V30 8209 C 791.731 -1.56292 -1.69828 0
M  V30 8210 C 792.701 -0.407581 -1.61022 0
M  V30 8211 O 793.886 -0.623532 -1.80324 0
M  V30 8212 C 791.026 -1.55341 -3.08161 0
M  V30 8213 C 790.139 -2.81564 -3.27636 0
M  V30 8214 C 789.274 -2.72158 -4.56183 0
M  V30 8215 C 788.313 -3.93348 -4.68981 0
M  V30 8216 N 787.45 -3.82365 -5.88848 0
M  V30 8217 H 792.29 -2.51066 -1.6053 0
M  V30 8218 H 789.827 -1.24562 -0.782474 0
M  V30 8219 H 791.785 -1.52776 -3.88221 0
M  V30 8220 H 790.415 -0.641034 -3.16371 0
M  V30 8221 H 789.467 -2.94136 -2.41223 0
M  V30 8222 H 790.779 -3.714 -3.32962 0
M  V30 8223 H 789.933 -2.67665 -5.44464 0
M  V30 8224 H 788.672 -1.79953 -4.53286 0
M  V30 8225 H 787.677 -3.98181 -3.7912 0
M  V30 8226 H 788.902 -4.86643 -4.73662 0
M  V30 8227 H 786.848 -2.92942 -5.86959 0
M  V30 8228 H 786.765 -4.65851 -5.95415 0
M  V30 8229 H 788.033 -3.81836 -6.79575 0
M  V30 8230 N 792.262 0.832906 -1.33792 0
M  V30 8231 C 793.209 1.94314 -1.24541 0
M  V30 8232 C 794.179 1.65646 -0.122753 0
M  V30 8233 O 795.364 1.88394 -0.30204 0
M  V30 8234 C 792.504 3.30395 -0.996641 0
M  V30 8235 C 791.617 3.71422 -2.20612 0
M  V30 8236 C 790.752 4.96401 -1.89101 0
M  V30 8237 C 789.791 5.2998 -3.06247 0
M  V30 8238 N 788.928 6.46137 -2.74685 0
M  V30 8239 H 793.768 2.01559 -2.19495 0
M  V30 8240 H 791.305 0.986243 -1.09141 0
M  V30 8241 H 793.263 4.08803 -0.832817 0
M  V30 8242 H 791.893 3.22691 -0.0838242 0
M  V30 8243 H 790.945 2.88488 -2.47949 0
M  V30 8244 H 792.257 3.92215 -3.0817 0
M  V30 8245 H 791.411 5.82572 -1.69396 0
M  V30 8246 H 790.15 4.7759 -0.987882 0
M  V30 8247 H 789.155 4.42312 -3.26559 0
M  V30 8248 H 790.38 5.50737 -3.97323 0
M  V30 8249 H 788.326 6.28801 -1.86938 0
M  V30 8250 H 788.243 6.67054 -3.55774 0
M  V30 8251 H 789.511 7.35403 -2.58461 0
M  V30 8252 N 793.74 1.17359 1.05189 0
M  V30 8253 C 794.703 0.892604 2.11105 0
M  V30 8254 C 795.703 -0.117236 1.60372 0
M  V30 8255 O 796.893 0.114936 1.7382 0
M  V30 8256 C 794.025 0.337032 3.3923 0
M  V30 8257 H 795.218 1.83169 2.37464 0
M  V30 8258 H 792.771 0.984051 1.21434 0
M  V30 8259 H 793.506 -0.609198 3.18527 0
M  V30 8260 H 793.291 1.06484 3.77364 0
M  V30 8261 H 794.781 0.158763 4.17298 0
M  V30 8262 N 795.218 -1.23913 0.973828 0
M  V30 8263 C 796.446 -1.96195 0.656891 0
M  V30 8264 C 796.861 -1.72166 -0.774876 0
M  V30 8265 O 796.218 -1.0091 -1.52064 0
M  V30 8266 C 796.269 -3.49342 0.929638 0
M  V30 8267 O 795.99 -3.72553 2.30512 0
M  V30 8268 C 797.491 -4.38833 0.627739 0
M  V30 8269 H 794.711 -0.624841 0.244572 0
M  V30 8270 H 797.255 -1.57579 1.30343 0
M  V30 8271 H 795.41 -3.85999 0.329216 0
M  V30 8272 H 795.824 -4.66893 2.3898 0
M  V30 8273 H 797.298 -5.45117 0.868991 0
M  V30 8274 H 797.775 -4.37009 -0.438104 0
M  V30 8275 H 798.381 -4.07773 1.20834 0
M  V30 8276 N 796.696 -0.74468 -1.38897 0
M  V30 8277 C 797.646 -0.0869375 -2.27834 0
M  V30 8278 C 798.63 0.702553 -1.44751 0
M  V30 8279 O 799.822 0.569972 -1.67572 0
M  V30 8280 C 796.951 0.812232 -3.33553 0
M  V30 8281 C 796.037 0.0163713 -4.24097 0
M  V30 8282 N 796.428 -1.01547 -4.95502 0
M  V30 8283 C 794.726 0.244554 -4.45329 0
M  V30 8284 C 795.427 -1.49622 -5.62128 0
M  V30 8285 N 794.403 -0.813097 -5.37485 0
M  V30 8286 H 798.205 -0.877345 -2.80499 0
M  V30 8287 H 795.719 -0.579898 -1.51694 0
M  V30 8288 H 797.716 1.299 -3.96146 0
M  V30 8289 H 796.376 1.60169 -2.82446 0
M  V30 8290 H 797.387 -1.39707 -4.98701 0
M  V30 8291 H 794.064 1.00806 -4.05147 0
M  V30 8292 H 795.454 -2.35523 -6.29268 0
M  V30 8293 N 798.174 1.49689 -0.493057 0
M  V30 8294 C 799.422 2.02027 0.0541642 0
M  V30 8295 C 799.743 1.37554 1.38217 0
M  V30 8296 O 799.013 0.528174 1.88646 0
M  V30 8297 H 797.593 0.746646 0.0230069 0
M  V30 8298 H 800.255 1.83795 -0.648489 0
M  V30 8299 H 799.351 3.11523 0.189652 0
M  V30 8300 N 799.652 0.226554 1.55963 0
M  V30 8301 C 800.88 -0.408507 2.02827 0
M  V30 8302 C 801.295 -1.52994 1.10627 0
M  V30 8303 O 800.652 -1.82126 0.116809 0
M  V30 8304 C 800.703 -0.93545 3.49187 0
M  V30 8305 O 800.424 0.141273 4.37872 0
M  V30 8306 C 801.925 -1.64325 4.11719 0
M  V30 8307 H 799.145 -0.099442 0.66359 0
M  V30 8308 H 801.689 0.344471 2.01578 0
M  V30 8309 H 799.844 -1.63868 3.51036 0
M  V30 8310 H 800.258 -0.25558 5.23877 0
M  V30 8311 H 801.732 -1.9639 5.15883 0
M  V30 8312 H 802.209 -2.55815 3.57009 0
M  V30 8313 H 802.815 -0.9851 4.13734 0
M  V30 8314 N 801.13 -1.57531 -0.0467866 0
M  V30 8315 C 802.06 -2.08425 -1.05268 0
M  V30 8316 C 803.041 -0.982941 -1.38825 0
M  V30 8317 O 804.226 -1.25716 -1.48018 0
M  V30 8318 C 801.356 -2.54897 -2.35891 0
M  V30 8319 C 800.31 -3.69132 -2.16623 0
M  V30 8320 C 799.636 -4.01747 -3.52851 0
M  V30 8321 C 800.936 -4.98243 -1.56689 0
M  V30 8322 H 802.63 -2.92716 -0.62908 0
M  V30 8323 H 800.176 -1.40816 -0.301156 0
M  V30 8324 H 802.129 -2.8912 -3.06574 0
M  V30 8325 H 800.853 -1.67666 -2.80278 0
M  V30 8326 H 799.512 -3.35231 -1.48377 0
M  V30 8327 H 799.16 -3.11608 -3.94853 0
M  V30 8328 H 798.86 -4.78681 -3.4079 0
M  V30 8329 H 800.384 -4.38487 -4.24925 0
M  V30 8330 H 801.798 -5.30535 -2.17268 0
M  V30 8331 H 800.195 -5.79669 -1.55255 0
M  V30 8332 H 801.265 -4.81986 -0.530827 0
M  V30 8333 N 802.608 0.318715 -1.54344 0
M  V30 8334 C 803.856 1.054 -1.72439 0
M  V30 8335 C 804.177 1.88388 -0.503495 0
M  V30 8336 O 803.447 1.89866 0.48246 0
M  V30 8337 H 802.027 0.392124 -0.635805 0
M  V30 8338 H 804.689 0.35398 -1.91659 0
M  V30 8339 H 803.785 1.71726 -2.60608 0
M  V30 8340 N 804.086 1.46499 0.581025 0
M  V30 8341 C 805.034 1.57562 1.71105 0
M  V30 8342 C 806.028 0.44403 1.63477 0
M  V30 8343 O 807.234 0.620964 1.6895 0
M  V30 8344 H 803.609 0.495415 0.565746 0
M  V30 8345 H 805.58 2.5257 1.58905 0
M  V30 8346 C 804.329 1.58465 3.0949 0
M  V30 8347 H 803.652 2.44877 3.16031 0
M  V30 8348 H 805.092 1.70261 3.88313 0
M  V30 8349 C 803.551 0.313596 3.35437 0
M  V30 8350 O 804.081 -0.595456 3.97262 0
M  V30 8351 N 802.287 0.200986 2.89904 0
M  V30 8352 H 801.834 0.941643 2.39773 0
M  V30 8353 H 801.792 -0.648577 3.07638 0
M  V30 8354 N 805.565 -0.825799 1.34232 0
M  V30 8355 C 806.79 -1.61883 1.29648 0
M  V30 8356 C 807.215 -1.87669 -0.127295 0
M  V30 8357 O 806.573 -1.45016 -1.08813 0
M  V30 8358 C 806.621 -2.93846 2.09014 0
M  V30 8359 O 805.725 -3.85778 1.4577 0
M  V30 8360 H 805.066 -0.492454 0.445405 0
M  V30 8361 H 807.596 -1.02641 1.76992 0
M  V30 8362 H 807.606 -3.43435 2.20264 0
M  V30 8363 H 806.281 -2.74401 3.12533 0
M  V30 8364 H 804.858 -3.4429 1.43245 0
M  V30 8365 N 807.043 -1.17915 -1.04565 0
M  V30 8366 C 808.289 -0.972863 -1.77942 0
M  V30 8367 C 808.622 0.496753 -1.87739 0
M  V30 8368 O 807.897 1.3688 -1.38181 0
M  V30 8369 C 808.18 -1.62227 -3.21488 0
M  V30 8370 C 808.033 -3.16441 -3.19664 0
M  V30 8371 C 809.352 -1.33137 -4.19479 0
M  V30 8372 H 806.471 -0.354843 -0.645953 0
M  V30 8373 H 809.113 -1.45508 -1.22178 0
M  V30 8374 H 807.263 -1.21224 -3.69103 0
M  V30 8375 H 808.935 -3.66544 -2.80077 0
M  V30 8376 H 807.178 -3.48863 -2.57832 0
M  V30 8377 H 807.849 -3.57012 -4.21006 0
M  V30 8378 H 810.325 -1.68654 -3.80388 0
M  V30 8379 H 809.201 -1.81151 -5.18146 0
M  V30 8380 H 809.462 -0.253319 -4.41374 0
M  V30 8381 N 808.521 1.23394 -0.980386 0
M  V30 8382 C 809.451 2.2717 -0.540024 0
M  V30 8383 C 810.432 1.64659 0.426787 0
M  V30 8384 O 811.617 1.91543 0.320153 0
M  V30 8385 C 808.747 3.46939 0.15836 0
M  V30 8386 C 807.701 4.21802 -0.725732 0
M  V30 8387 C 807.027 5.34597 0.104866 0
M  V30 8388 C 808.327 4.81802 -2.01654 0
M  V30 8389 H 810.021 2.64257 -1.40743 0
M  V30 8390 H 807.567 1.2703 -0.678193 0
M  V30 8391 H 809.52 4.18683 0.477737 0
M  V30 8392 H 808.244 3.08912 1.06022 0
M  V30 8393 H 806.903 3.51875 -1.02857 0
M  V30 8394 H 806.551 4.92812 1.00726 0
M  V30 8395 H 806.251 5.85607 -0.483557 0
M  V30 8396 H 807.775 6.09163 0.418624 0
M  V30 8397 H 809.189 5.45554 -1.76193 0
M  V30 8398 H 807.586 5.43098 -2.55273 0
M  V30 8399 H 808.656 4.02549 -2.70338 0
M  V30 8400 N 809.999 0.752036 1.385 0
M  V30 8401 C 810.946 0.123288 2.3047 0
M  V30 8402 C 811.916 -0.711326 1.50098 0
M  V30 8403 O 813.101 -0.667775 1.78733 0
M  V30 8404 C 810.241 -0.765085 3.36512 0
M  V30 8405 C 809.354 0.0839885 4.31918 0
M  V30 8406 C 808.489 -0.807243 5.25031 0
M  V30 8407 C 807.528 0.0455583 6.12083 0
M  V30 8408 N 806.665 -0.802547 6.97498 0
M  V30 8409 H 811.505 0.913169 2.83664 0
M  V30 8410 H 809.042 0.46195 1.39658 0
M  V30 8411 H 811 -1.29476 3.966 0
M  V30 8412 H 809.63 -1.52077 2.84732 0
M  V30 8413 H 808.682 0.731276 3.73305 0
M  V30 8414 H 809.994 0.74265 4.9324 0
M  V30 8415 H 809.148 -1.40414 5.90228 0
M  V30 8416 H 807.887 -1.49964 4.64071 0
M  V30 8417 H 806.892 0.655137 5.45883 0
M  V30 8418 H 808.117 0.734994 6.75111 0
M  V30 8419 H 806.063 -1.47992 6.39089 0
M  V30 8420 H 805.98 -0.200747 7.55733 0
M  V30 8421 H 807.248 -1.38447 7.67107 0
M  V30 8422 N 811.477 -1.49425 0.500989 0
M  V30 8423 C 812.702 -2.07356 -0.0425154 0
M  V30 8424 C 813.127 -1.35887 -1.30063 0
M  V30 8425 O 812.485 -0.41561 -1.76472 0
M  V30 8426 C 812.533 -3.59518 -0.279188 0
M  V30 8427 O 811.637 -3.89542 -1.3539 0
M  V30 8428 H 810.978 -0.663482 0.0262207 0
M  V30 8429 H 813.508 -1.92231 0.700607 0
M  V30 8430 H 813.518 -4.04791 -0.5107 0
M  V30 8431 H 812.193 -4.10946 0.640009 0
M  V30 8432 H 810.77 -3.56079 -1.10734 0
M  V30 8433 N 812.955 -0.234822 -1.55841 0
M  V30 8434 C 814.183 0.397745 -2.03041 0
M  V30 8435 C 814.598 1.52405 -1.11437 0
M  V30 8436 O 813.955 1.82061 -0.126466 0
M  V30 8437 C 814.006 0.916919 -3.49678 0
M  V30 8438 O 813.727 -0.164493 -4.37791 0
M  V30 8439 C 815.228 1.62139 -4.12584 0
M  V30 8440 H 812.448 0.0959214 -0.664108 0
M  V30 8441 H 814.992 -0.355156 -2.01392 0
M  V30 8442 H 813.147 1.62004 -3.519 0
M  V30 8443 H 813.561 0.227794 -5.24005 0
M  V30 8444 H 815.035 1.93651 -5.16917 0
M  V30 8445 H 815.512 2.53918 -3.58361 0
M  V30 8446 H 816.118 0.963145 -4.14251 0
M  V30 8447 N 814.433 1.57553 0.0384317 0
M  V30 8448 C 815.365 2.02726 1.06934 0
M  V30 8449 C 816.378 0.938502 1.33026 0
M  V30 8450 O 817.567 1.21595 1.30678 0
M  V30 8451 C 814.667 2.37958 2.41308 0
M  V30 8452 C 813.84 3.69098 2.34703 0
M  V30 8453 C 812.899 3.91623 3.51451 0
M  V30 8454 O 811.925 4.628 3.31368 0
M  V30 8455 N 813.127 3.36538 4.72993 0
M  V30 8456 H 815.892 2.91781 0.684381 0
M  V30 8457 H 813.453 1.60307 0.226542 0
M  V30 8458 H 815.445 2.50172 3.18113 0
M  V30 8459 H 814.015 1.54621 2.71682 0
M  V30 8460 H 813.235 3.67325 1.43059 0
M  V30 8461 H 814.523 4.55144 2.27424 0
M  V30 8462 H 813.921 2.78828 4.92211 0
M  V30 8463 H 812.478 3.54148 5.47195 0
M  V30 8464 N 815.911 -0.310526 1.54511 0
M  V30 8465 C 817.158 -1.04691 1.73338 0
M  V30 8466 C 817.486 -1.87584 0.514038 0
M  V30 8467 O 816.741 -1.89096 -0.504119 0
M  V30 8468 C 817.04 -1.98942 2.96912 0
M  V30 8469 C 816.706 -1.321 4.31115 0
M  V30 8470 C 815.368 -1.13603 4.67598 0
M  V30 8471 C 817.72 -0.842362 5.14348 0
M  V30 8472 C 815.048 -0.459102 5.84901 0
M  V30 8473 C 817.4 -0.179202 6.32346 0
M  V30 8474 C 816.064 0.0178111 6.67498 0
M  V30 8475 H 815.334 -0.38309 0.634289 0
M  V30 8476 H 817.981 -0.322723 1.88761 0
M  V30 8477 H 816.286 -2.77856 2.76231 0
M  V30 8478 H 817.983 -2.55972 3.08674 0
M  V30 8479 H 814.573 -1.47502 4.02419 0
M  V30 8480 H 818.757 -0.973013 4.86668 0
M  V30 8481 H 814.013 -0.295385 6.10686 0
M  V30 8482 H 818.187 0.199619 6.96114 0
M  V30 8483 H 815.814 0.544356 7.58249 0
M  V30 8484 O 817.428 -1.54915 -0.456448 0
M  V30 8485 H 818.119 -1.58706 -1.11049 0
M  V30 END ATOM
M  V30 BEGIN BOND
M  V30 END BOND
M  V30 END CTAB
M  END
$$$$
