drugbank_target|P25052 Aminopyrimidine aminohydrolase (DB02022)
 OpenBabel12092119563D

  0  0  0     0  0            999 V3000
M  V30 BEGIN CTAB
M  V30 COUNTS 3741 3801 0 0 0
M  V30 BEGIN ATOM
M  V30 1 H -0.908 1.98254 -0.117106 0
M  V30 2 N 0 1.576 0 0
M  V30 3 C 0.933 2.03868 1.02534 0
M  V30 4 C 1.911 0.928543 1.3348 0
M  V30 5 O 3.095 1.19667 1.45644 0
M  V30 6 C 0.222 2.43627 2.35294 0
M  V30 7 C -0.732 3.65373 2.2001 0
M  V30 8 S 0.101 5.13292 1.52614 0
M  V30 9 C 1.257 5.56322 2.86805 0
M  V30 10 H 1.49 2.90518 0.631377 0
M  V30 11 H -0.977 1.52953 0.210867 0
M  V30 12 H 0.981 2.67203 3.11629 0
M  V30 13 H -0.358 1.57376 2.7183 0
M  V30 14 H -1.165 3.90944 3.18086 0
M  V30 15 H -1.563 3.418 1.51819 0
M  V30 16 H 0.729 5.58782 3.83104 0
M  V30 17 H 1.672 6.56266 2.65933 0
M  V30 18 H 2.08 4.83886 2.90714 0
M  V30 19 N 1.4781 -0.272755 1.55222 0
M  V30 20 C 2.4251 -1.33716 1.88119 0
M  V30 21 C 3.3951 -1.49066 0.73271 0
M  V30 22 O 4.5801 -1.63469 0.984002 0
M  V30 23 C 1.7201 -2.69238 2.15882 0
M  V30 24 C 0.8331 -2.62108 3.43399 0
M  V30 25 C -0.0319 -3.89811 3.60861 0
M  V30 26 C -0.9929 -3.77193 4.8207 0
M  V30 27 N -1.8559 -4.9673 4.96189 0
M  V30 28 H 2.9841 -1.04962 2.78903 0
M  V30 29 H 0.5211 -0.507088 1.38083 0
M  V30 30 H 2.4791 -3.48089 2.29978 0
M  V30 31 H 1.1091 -2.96194 1.28331 0
M  V30 32 H 0.1611 -1.74967 3.37773 0
M  V30 33 H 1.4731 -2.48685 4.32386 0
M  V30 34 H 0.6271 -4.77103 3.74777 0
M  V30 35 H -0.6339 -4.06102 2.7006 0
M  V30 36 H -1.6289 -2.88284 4.68159 0
M  V30 37 H -0.4039 -3.62421 5.74307 0
M  V30 38 H -2.4579 -5.13431 4.08319 0
M  V30 39 H -2.5409 -4.85839 5.79221 0
M  V30 40 H -1.2729 -5.85594 5.1449 0
M  V30 41 N 2.9562 -1.48159 -0.537278 0
M  V30 42 C 4.2032 -1.55804 -1.29349 0
M  V30 43 C 4.5312 -0.228802 -1.9315 0
M  V30 44 O 3.7862 0.780242 -1.79473 0
M  V30 45 C 4.0852 -2.63956 -2.40961 0
M  V30 46 C 3.7512 -4.0662 -1.94861 0
M  V30 47 C 2.4132 -4.45452 -1.82006 0
M  V30 48 C 4.7652 -4.96055 -1.59933 0
M  V30 49 C 2.0932 -5.71531 -1.32547 0
M  V30 50 C 4.4452 -6.22617 -1.11939 0
M  V30 51 C 3.1092 -6.60312 -0.976951 0
M  V30 52 H 2.3792 -0.570129 -0.473322 0
M  V30 53 H 5.0262 -1.81845 -0.600372 0
M  V30 54 H 3.3312 -2.31747 -3.15912 0
M  V30 55 H 5.0282 -2.67089 -2.99107 0
M  V30 56 H 1.6182 -3.75949 -2.05815 0
M  V30 57 H 5.8022 -4.66738 -1.68728 0
M  V30 58 H 1.0582 -5.99468 -1.202 0
M  V30 59 H 5.2322 -6.91318 -0.839811 0
M  V30 60 H 2.8592 -7.57895 -0.591501 0
M  V30 61 N 4.4343 0.785586 -1.36625 0
M  V30 62 C 5.6593 1.57963 -1.34397 0
M  V30 63 C 6.0843 1.87964 0.071526 0
M  V30 64 O 5.4423 1.48182 1.0446 0
M  V30 65 C 5.4903 2.87511 -2.17646 0
M  V30 66 O 4.5943 3.81281 -1.57158 0
M  V30 67 H 3.9353 0.479014 -0.459828 0
M  V30 68 H 6.4653 0.973411 -1.79961 0
M  V30 69 H 6.4753 3.36745 -2.30362 0
M  V30 70 H 5.1503 2.65002 -3.20541 0
M  V30 71 H 3.7273 3.39885 -1.53403 0
M  V30 72 N 5.9124 1.20967 1.01018 0
M  V30 73 C 6.8224 0.980157 2.13143 0
M  V30 74 C 7.8384 -0.0660665 1.73875 0
M  V30 75 O 9.0144 0.122821 2.01025 0
M  V30 76 C 6.0794 0.54216 3.42435 0
M  V30 77 C 5.1404 1.65999 3.95908 0
M  V30 78 C 4.3734 1.2428 5.19028 0
M  V30 79 O 4.5964 0.114196 5.70286 0
M  V30 80 O 3.5304 2.05271 5.65816 0
M  V30 81 H 7.3564 1.91913 2.35379 0
M  V30 82 H 4.9414 0.994099 1.11526 0
M  V30 83 H 6.8234 0.30744 4.20277 0
M  V30 84 H 5.4984 -0.36815 3.216 0
M  V30 85 H 4.4054 1.94906 3.19316 0
M  V30 86 H 5.7384 2.54753 4.21143 0
M  V30 87 N 7.3905 -1.2043 1.01659 0
M  V30 88 C 8.3005 -2.2689 0.596484 0
M  V30 89 C 9.3165 -1.70107 -0.36599 0
M  V30 90 O 10.4925 -2.00117 -0.226942 0
M  V30 91 C 7.5575 -3.4665 -0.0586659 0
M  V30 92 C 6.6185 -4.18662 0.949751 0
M  V30 93 C 5.8515 -5.32705 0.32577 0
M  V30 94 O 6.0745 -5.63656 -0.874509 0
M  V30 95 O 5.0085 -5.92803 1.04249 0
M  V30 96 H 8.8345 -2.65041 1.4828 0
M  V30 97 H 6.4195 -1.27048 0.786082 0
M  V30 98 H 8.3015 -4.19256 -0.424564 0
M  V30 99 H 6.9765 -3.10375 -0.91918 0
M  V30 100 H 5.8835 -3.48229 1.36702 0
M  V30 101 H 7.2165 -4.58878 1.78023 0
M  V30 102 N 8.8686 -0.792821 -1.36206 0
M  V30 103 C 10.1086 -0.372238 -2.00982 0
M  V30 104 C 10.4726 1.03749 -1.61555 0
M  V30 105 O 11.6736 1.55934 -2.18948 0
M  V30 106 C 9.9446 -0.534566 -3.5338 0
M  V30 107 S 11.5036 -0.202365 -4.38333 0
M  V30 108 H 8.3216 -0.142044 -0.696667 0
M  V30 109 H 10.9236 -1.03206 -1.66039 0
M  V30 110 H 9.6276 -1.5608 -3.79562 0
M  V30 111 H 9.1586 0.141065 -3.93147 0
M  V30 112 H 11.1736 0.994869 -4.86124 0
M  V30 113 N 10.3467 1.47872 -0.545128 0
M  V30 114 C 11.7627 1.5829 -0.204032 0
M  V30 115 C 11.9627 1.54529 1.29317 0
M  V30 116 O 11.0187 1.44232 2.07252 0
M  V30 117 C 12.3317 2.89304 -0.819987 0
M  V30 118 C 13.8797 3.02864 -0.790105 0
M  V30 119 C 14.3547 4.3656 -1.38491 0
M  V30 120 N 15.8457 4.43165 -1.34755 0
M  V30 121 C 16.5807 5.45153 -1.77753 0
M  V30 122 N 16.0767 6.54016 -2.2855 0
M  V30 123 N 17.8697 5.36125 -1.68897 0
M  V30 124 H 10.0207 1.4856 -1.51802 0
M  V30 125 H 12.2837 0.706305 -0.632327 0
M  V30 126 H 11.9897 2.97757 -1.87173 0
M  V30 127 H 11.8637 3.75957 -0.305915 0
M  V30 128 H 14.2507 2.94014 0.252913 0
M  V30 129 H 14.3317 2.17782 -1.34181 0
M  V30 130 H 13.9757 4.46164 -2.42693 0
M  V30 131 H 13.9057 5.20353 -0.808754 0
M  V30 132 H 16.3967 3.65083 -0.975855 0
M  V30 133 H 16.7097 7.27994 -2.59314 0
M  V30 134 H 15.0547 6.54938 -2.32553 0
M  V30 135 H 18.2457 4.49975 -1.28998 0
M  V30 136 H 18.4187 6.15472 -2.02726 0
M  V30 137 N 11.8248 0.280983 1.55075 0
M  V30 138 C 13.0498 -0.340154 2.04592 0
M  V30 139 C 13.4748 -1.48246 1.15779 0
M  V30 140 O 12.8328 -1.80614 0.15761 0
M  V30 141 C 12.8808 -0.793104 3.5177 0
M  V30 142 O 11.9848 -1.89981 3.66034 0
M  V30 143 H 11.3258 -0.0694289 0.66036 0
M  V30 144 H 13.8558 0.416993 2.00306 0
M  V30 145 H 13.8658 -1.08729 3.93245 0
M  V30 146 H 12.5408 0.0426163 4.15878 0
M  V30 147 H 11.1178 -1.60771 3.36463 0
M  V30 148 N 13.3029 -1.57598 0.00835791 0
M  V30 149 C 14.2659 -2.07884 -0.965242 0
M  V30 150 C 15.2659 -0.989825 -1.26725 0
M  V30 151 O 16.4559 -1.25218 -1.21104 0
M  V30 152 C 13.5879 -2.52731 -2.28779 0
M  V30 153 H 14.7809 -2.95178 -0.530112 0
M  V30 154 H 12.3339 -1.54458 -0.239283 0
M  V30 155 H 13.0689 -1.68705 -2.76964 0
M  V30 156 H 12.8539 -3.32272 -2.08177 0
M  V30 157 H 14.3439 -2.91933 -2.98605 0
M  V30 158 N 14.781 0.264519 -1.55364 0
M  V30 159 C 15.744 1.31046 -1.88042 0
M  V30 160 C 16.744 1.41943 -0.755569 0
M  V30 161 O 17.934 1.40947 -1.02369 0
M  V30 162 C 15.066 2.69067 -2.09323 0
M  V30 163 H 16.259 1.03297 -2.81549 0
M  V30 164 H 13.812 0.502989 -1.47986 0
M  V30 165 H 14.547 3.01982 -1.18226 0
M  V30 166 H 14.332 2.62542 -2.91229 0
M  V30 167 H 15.822 3.44623 -2.35848 0
M  V30 168 N 16.2591 1.48442 0.529413 0
M  V30 169 C 17.2221 1.62524 1.61612 0
M  V30 170 C 18.2221 0.498509 1.52877 0
M  V30 171 O 19.4121 0.76431 1.56537 0
M  V30 172 C 16.5441 1.59597 3.01233 0
M  V30 173 H 17.7371 2.59423 1.50465 0
M  V30 174 H 15.2901 1.37047 0.751514 0
M  V30 175 H 16.0251 0.641781 3.17886 0
M  V30 176 H 15.8101 2.41397 3.08982 0
M  V30 177 H 17.3001 1.72646 3.80241 0
M  V30 178 N 17.7372 -0.778329 1.37039 0
M  V30 179 C 18.6472 -1.92253 1.34446 0
M  V30 180 C 19.6632 -1.72267 0.244991 0
M  V30 181 O 20.8392 -1.95615 0.479258 0
M  V30 182 C 17.9042 -3.27282 1.144 0
M  V30 183 C 16.9652 -3.59969 2.33925 0
M  V30 184 C 16.1982 -4.88555 2.14825 0
M  V30 185 O 16.4212 -5.59113 1.12912 0
M  V30 186 O 15.3552 -5.20153 3.02861 0
M  V30 187 H 19.1812 -1.97392 2.30803 0
M  V30 188 H 16.7662 -0.920154 1.17701 0
M  V30 189 H 18.6482 -4.08062 1.05182 0
M  V30 190 H 17.3232 -3.23011 0.211124 0
M  V30 191 H 16.2302 -2.7945 2.48714 0
M  V30 192 H 17.5632 -3.68976 3.25757 0
M  V30 193 N 19.2153 -1.21501 -1.00376 0
M  V30 194 C 20.4613 -1.04457 -1.74529 0
M  V30 195 C 20.8163 0.417386 -1.87818 0
M  V30 196 O 20.1093 1.30556 -1.40234 0
M  V30 197 C 20.3033 -1.67673 -3.15627 0
M  V30 198 C 20.1323 -3.19865 -3.16096 0
M  V30 199 C 18.9023 -3.88915 -3.22604 0
M  V30 200 C 21.1003 -4.16936 -3.01112 0
M  V30 201 N 19.0823 -5.28284 -3.12712 0
M  V30 202 C 20.4533 -5.43066 -2.99131 0
M  V30 203 C 22.5083 -4.07968 -2.85423 0
M  V30 204 C 21.2113 -6.6126 -2.83068 0
M  V30 205 C 23.2373 -5.258 -2.70718 0
M  V30 206 C 22.5993 -6.50842 -2.69414 0
M  V30 207 H 18.6983 -0.436584 -0.648782 0
M  V30 208 H 21.2823 -1.53875 -1.19293 0
M  V30 209 H 19.4533 -1.20822 -3.6913 0
M  V30 210 H 21.1853 -1.43824 -3.78281 0
M  V30 211 H 17.9403 -3.39847 -3.2985 0
M  V30 212 H 18.3643 -6.01284 -3.11105 0
M  V30 213 H 23.0063 -3.1209 -2.85236 0
M  V30 214 H 20.7243 -7.57298 -2.82002 0
M  V30 215 H 24.3103 -5.20683 -2.59577 0
M  V30 216 H 23.1903 -7.40485 -2.5817 0
M  V30 217 N 20.6934 1.19889 -1.02296 0
M  V30 218 C 21.9394 1.89973 -0.726759 0
M  V30 219 C 22.2944 1.7776 0.73614 0
M  V30 220 O 21.5874 1.15523 1.52856 0
M  V30 221 C 21.7814 3.39883 -1.10518 0
M  V30 222 C 21.6104 3.66684 -2.60332 0
M  V30 223 C 20.3804 3.85045 -3.27213 0
M  V30 224 C 22.5784 3.68727 -3.58532 0
M  V30 225 N 20.5604 3.99422 -4.66192 0
M  V30 226 C 21.9314 3.88604 -4.83101 0
M  V30 227 C 23.9864 3.51722 -3.52414 0
M  V30 228 C 22.6894 3.9324 -6.02292 0
M  V30 229 C 24.7154 3.57632 -4.71013 0
M  V30 230 C 24.0774 3.77988 -5.94394 0
M  V30 231 H 20.1764 0.714551 -0.317712 0
M  V30 232 H 22.7604 1.44123 -1.30907 0
M  V30 233 H 20.9314 3.8447 -0.551142 0
M  V30 234 H 22.6634 3.97464 -0.761853 0
M  V30 235 H 19.4184 3.83689 -2.77632 0
M  V30 236 H 19.8424 4.10473 -5.38368 0
M  V30 237 H 24.4844 3.34945 -2.58015 0
M  V30 238 H 22.2024 4.08811 -6.97065 0
M  V30 239 H 25.7884 3.45773 -4.67902 0
M  V30 240 H 24.6684 3.82428 -6.8463 0
M  V30 241 N 22.1715 0.800033 1.35784 0
M  V30 242 C 23.0815 0.207204 2.33683 0
M  V30 243 C 24.0975 -0.64631 1.61551 0
M  V30 244 O 25.2735 -0.559604 1.93469 0
M  V30 245 C 22.3385 -0.639659 3.40748 0
M  V30 246 C 21.3995 0.233585 4.28664 0
M  V30 247 C 20.6325 -0.572954 5.30616 0
M  V30 248 O 20.8555 -1.80816 5.40982 0
M  V30 249 O 19.7895 0.0327285 6.01891 0
M  V30 250 H 23.6155 1.01692 2.86169 0
M  V30 251 H 21.2005 0.561691 1.38439 0
M  V30 252 H 23.0825 -1.12223 4.06182 0
M  V30 253 H 21.7575 -1.42708 2.90544 0
M  V30 254 H 20.6645 0.763147 3.66233 0
M  V30 255 H 21.9975 0.984784 4.82248 0
M  V30 256 N 23.6496 -1.47581 0.552962 0
M  V30 257 C 24.8976 -2.02082 0.0272703 0
M  V30 258 C 25.2186 -1.4301 -1.32563 0
M  V30 259 O 24.4886 -0.603745 -1.86365 0
M  V30 260 H 23.0686 -0.746966 0.00709182 0
M  V30 261 H 25.7306 -1.81033 0.722008 0
M  V30 262 H 24.8266 -3.12034 -0.0639951 0
M  V30 263 N 25.1277 -0.289203 -1.54924 0
M  V30 264 C 26.3527 0.329299 -2.04769 0
M  V30 265 C 26.7777 1.4763 -1.16564 0
M  V30 266 O 26.1357 1.80527 -0.167186 0
M  V30 267 C 26.1837 0.774438 -3.52186 0
M  V30 268 O 25.2877 1.88038 -3.67036 0
M  V30 269 H 24.6287 0.0659259 -0.660719 0
M  V30 270 H 27.1587 -0.42761 -2.00082 0
M  V30 271 H 27.1687 1.06642 -3.93816 0
M  V30 272 H 25.8437 -0.0646707 -4.1585 0
M  V30 273 H 24.4207 1.58985 -3.3731 0
M  V30 274 N 26.6058 1.57591 -0.0167156 0
M  V30 275 C 27.8528 1.91283 0.664597 0
M  V30 276 C 28.1808 0.891949 1.72842 0
M  V30 277 O 27.4358 -0.100931 1.9544 0
M  V30 278 C 27.7348 3.3172 1.33029 0
M  V30 279 C 27.4008 4.4914 0.398047 0
M  V30 280 C 26.0628 4.80992 0.141421 0
M  V30 281 C 28.4148 5.20634 -0.242825 0
M  V30 282 C 25.7428 5.81703 -0.764092 0
M  V30 283 C 28.0948 6.22311 -1.13632 0
M  V30 284 C 26.7588 6.52611 -1.40196 0
M  V30 285 H 26.0288 0.699956 0.243193 0
M  V30 286 H 28.6758 1.9135 -0.0758267 0
M  V30 287 H 26.9808 3.27856 2.14517 0
M  V30 288 H 28.6778 3.55055 1.86379 0
M  V30 289 H 25.2678 4.24262 0.608238 0
M  V30 290 H 29.4518 4.96267 -0.0576019 0
M  V30 291 H 24.7078 6.03532 -0.977732 0
M  V30 292 H 28.8818 6.76834 -1.63917 0
M  V30 293 H 26.5088 7.30467 -2.10529 0
M  V30 294 N 28.0839 -0.256276 1.55502 0
M  V30 295 C 29.3299 -0.987079 1.77157 0
M  V30 296 C 29.6629 -1.85327 0.580315 0
M  V30 297 O 28.9379 -1.89874 -0.421686 0
M  V30 298 C 29.2209 -1.85553 3.08613 0
M  V30 299 C 29.0739 -1.01816 4.38125 0
M  V30 300 C 30.3929 -2.8397 3.36228 0
M  V30 301 H 27.5119 -0.357428 0.644526 0
M  V30 302 H 30.1539 -0.258239 1.88237 0
M  V30 303 H 28.3039 -2.47695 2.99298 0
M  V30 304 H 29.9759 -0.416159 4.59419 0
M  V30 305 H 28.2189 -0.322178 4.32602 0
M  V30 306 H 28.8899 -1.65939 5.26468 0
M  V30 307 H 31.3659 -2.31964 3.45445 0
M  V30 308 H 30.2419 -3.41864 4.29442 0
M  V30 309 H 30.5029 -3.59955 2.56681 0
M  V30 310 N 29.562 -1.4872 -0.521534 0
M  V30 311 C 30.512 -1.60269 -1.62166 0
M  V30 312 C 31.496 -0.45935 -1.54204 0
M  V30 313 O 32.688 -0.711241 -1.62081 0
M  V30 314 C 29.817 -1.65344 -3.00859 0
M  V30 315 C 28.903 -2.85187 -3.13894 0
M  V30 316 N 29.294 -4.09509 -2.96877 0
M  V30 317 C 27.592 -2.82695 -3.44963 0
M  V30 318 C 28.293 -4.89959 -3.13552 0
M  V30 319 N 27.269 -4.22934 -3.41508 0
M  V30 320 H 31.071 -2.5413 -1.47632 0
M  V30 321 H 28.585 -1.45209 -0.727194 0
M  V30 322 H 30.582 -1.71713 -3.79895 0
M  V30 323 H 29.242 -0.726058 -3.16478 0
M  V30 324 H 30.253 -4.39814 -2.73467 0
M  V30 325 H 26.93 -1.99249 -3.66887 0
M  V30 326 H 28.32 -5.98654 -3.05061 0
M  V30 327 N 31.0401 0.771051 -1.3745 0
M  V30 328 C 32.4511 1.34737 -1.29239 0
M  V30 329 C 32.8021 1.96109 0.0596908 0
M  V30 330 O 31.9271 1.93865 0.961534 0
M  V30 331 C 32.5221 2.44973 -2.34037 0
M  V30 332 C 31.0811 2.98372 -2.29458 0
M  V30 333 C 30.2281 1.71595 -2.17831 0
M  V30 334 H 33.1791 0.571256 -1.48062 0
M  V30 335 H 33.2001 3.24471 -1.98744 0
M  V30 336 H 32.7121 2.00276 -3.32432 0
M  V30 337 H 30.8131 3.47443 -1.34589 0
M  V30 338 H 30.9261 3.53939 -3.229 0
M  V30 339 H 29.2901 1.94547 -1.64388 0
M  V30 340 H 30.0731 1.29001 -3.18141 0
M  V30 341 N 32.5182 1.22032 0.997298 0
M  V30 342 C 33.7652 1.04222 1.73621 0
M  V30 343 C 34.0932 -0.423264 1.89839 0
M  V30 344 O 33.3482 -1.3302 1.43542 0
M  V30 345 C 33.6472 1.69345 3.14733 0
M  V30 346 C 33.3132 3.19226 3.18442 0
M  V30 347 C 31.9752 3.60124 3.19161 0
M  V30 348 C 34.3272 4.15181 3.15078 0
M  V30 349 C 31.6552 4.95467 3.14212 0
M  V30 350 C 34.0072 5.50495 3.1167 0
M  V30 351 C 32.6712 5.90779 3.10703 0
M  V30 352 H 31.9412 0.381374 0.635323 0
M  V30 353 H 34.5882 1.51732 1.16831 0
M  V30 354 H 32.8932 1.14147 3.74803 0
M  V30 355 H 34.5902 1.53059 3.7064 0
M  V30 356 H 31.1802 2.86659 3.18629 0
M  V30 357 H 35.3642 3.84605 3.13676 0
M  V30 358 H 30.6202 5.25916 3.11805 0
M  V30 359 H 34.7942 6.24576 3.08022 0
M  V30 360 H 32.4212 6.9562 3.06622 0
M  V30 361 N 33.9963 -1.19345 1.0293 0
M  V30 362 C 35.2423 -1.89318 0.727083 0
M  V30 363 C 35.5753 -1.79446 -0.742483 0
M  V30 364 O 34.8503 -1.1871 -1.54072 0
M  V30 365 C 35.1333 -3.40238 1.17942 0
M  V30 366 C 34.9863 -3.58979 2.71024 0
M  V30 367 C 36.3053 -4.33479 0.760548 0
M  V30 368 H 33.4243 -0.687475 0.265606 0
M  V30 369 H 36.0663 -1.40477 1.2793 0
M  V30 370 H 34.2163 -3.81964 0.709608 0
M  V30 371 H 35.8883 -3.26421 3.25955 0
M  V30 372 H 34.1313 -3.02018 3.11396 0
M  V30 373 H 34.8023 -4.64823 2.9773 0
M  V30 374 H 37.2783 -3.99469 1.16464 0
M  V30 375 H 36.1543 -5.37664 1.10493 0
M  V30 376 H 36.4153 -4.40813 -0.337063 0
M  V30 377 N 35.4744 -0.807222 -1.35358 0
M  V30 378 C 36.4064 -0.175717 -2.28525 0
M  V30 379 C 37.4194 0.625354 -1.5031 0
M  V30 380 O 38.6084 0.457611 -1.72535 0
M  V30 381 C 35.7084 0.773471 -3.29956 0
M  V30 382 C 34.8814 0.0186296 -4.37396 0
M  V30 383 C 33.9404 0.886395 -5.18681 0
M  V30 384 O 32.9664 0.337106 -5.68201 0
M  V30 385 N 34.1684 2.20839 -5.36852 0
M  V30 386 H 36.9334 -0.976091 -2.83359 0
M  V30 387 H 34.4944 -0.662737 -1.47714 0
M  V30 388 H 36.4864 1.35824 -3.81227 0
M  V30 389 H 35.0564 1.47465 -2.75632 0
M  V30 390 H 34.2764 -0.747349 -3.87051 0
M  V30 391 H 35.5644 -0.501577 -5.06322 0
M  V30 392 H 34.9624 2.67858 -4.98265 0
M  V30 393 H 33.5194 2.74237 -5.91301 0
M  V30 394 N 36.9525 1.47285 -0.560781 0
M  V30 395 C 38.2005 2.02064 -0.0379868 0
M  V30 396 C 38.5215 1.43711 1.31803 0
M  V30 397 O 37.7915 0.61362 1.86042 0
M  V30 398 H 36.3715 0.746918 -0.0110531 0
M  V30 399 H 39.0335 1.80648 -0.731598 0
M  V30 400 H 38.1295 3.12064 0.0474463 0
M  V30 401 N 38.4306 0.297415 1.54768 0
M  V30 402 C 39.6796 -0.313669 1.99246 0
M  V30 403 C 39.9926 -1.55281 1.18942 0
M  V30 404 O 41.1986 -2.23825 1.5367 0
M  V30 405 C 39.6546 -0.609407 3.54703 0
M  V30 406 C 39.2626 0.611192 4.43811 0
M  V30 407 C 41.0066 -1.18188 4.07715 0
M  V30 408 C 38.9136 0.288805 5.90694 0
M  V30 409 H 37.8436 -0.120979 0.744231 0
M  V30 410 H 40.4946 0.40556 1.78962 0
M  V30 411 H 38.8766 -1.38813 3.70873 0
M  V30 412 H 40.0506 1.3875 4.39414 0
M  V30 413 H 38.3656 1.10205 4.01552 0
M  V30 414 H 40.9626 -1.43727 5.15021 0
M  V30 415 H 41.3056 -2.12299 3.58099 0
M  V30 416 H 41.8386 -0.464944 3.95074 0
M  V30 417 H 38.5776 1.19838 6.44453 0
M  V30 418 H 38.0976 -0.450305 5.98107 0
M  V30 419 H 39.7766 -0.110933 6.46905 0
M  V30 420 N 39.9087 -1.5758 0.0250728 0
M  V30 421 C 41.1567 -1.91255 -0.653151 0
M  V30 422 C 41.4777 -0.901691 -1.729 0
M  V30 423 O 40.7477 0.0573785 -1.95816 0
M  V30 424 H 39.3277 -0.705942 -0.244243 0
M  V30 425 H 41.9897 -1.94767 0.0719209 0
M  V30 426 H 41.0857 -2.91752 -1.10847 0
M  V30 427 N 41.3868 0.248026 -1.55636 0
M  V30 428 C 42.6638 0.998988 -1.68165 0
M  V30 429 C 43.0438 2.03409 -0.564621 0
M  V30 430 O 42.3918 2.24378 0.432076 0
M  V30 431 C 42.6018 1.63334 -3.0842 0
M  V30 432 C 43.9498 2.13562 -3.66983 0
M  V30 433 O 44.9738 1.73277 -3.11213 0
M  V30 434 O 43.8328 2.87526 -4.64749 0
M  V30 435 H 40.9268 0.464933 -0.683935 0
M  V30 436 H 43.4728 0.241902 -1.67967 0
M  V30 437 H 42.2448 0.884583 -3.8117 0
M  V30 438 H 41.8678 2.45666 -3.12624 0
M  V30 439 N 42.8649 1.48995 0.513639 0
M  V30 440 C 44.1129 1.57531 1.26604 0
M  V30 441 C 44.4339 0.258236 1.93283 0
M  V30 442 O 43.7039 -0.721502 1.8213 0
M  V30 443 H 42.2839 0.580387 0.470276 0
M  V30 444 H 44.9459 1.85552 0.596373 0
M  V30 445 H 44.0419 2.36486 2.03669 0
M  V30 446 N 44.343 -0.763751 1.37857 0
M  V30 447 C 45.571 -1.55293 1.36718 0
M  V30 448 C 45.986 -1.88745 -0.0455434 0
M  V30 449 O 45.343 -1.52039 -1.00947 0
M  V30 450 C 45.394 -2.85831 2.2132 0
M  V30 451 O 45.115 -2.5381 3.57089 0
M  V30 452 C 46.616 -3.80023 2.28249 0
M  V30 453 H 43.836 -0.480841 0.468009 0
M  V30 454 H 46.38 -0.946009 1.81303 0
M  V30 455 H 44.535 -3.42926 1.80223 0
M  V30 456 H 44.949 -3.37459 4.01524 0
M  V30 457 H 46.423 -4.68599 2.91752 0
M  V30 458 H 46.9 -4.1973 1.2932 0
M  V30 459 H 47.506 -3.28855 2.69693 0
M  V30 460 N 45.8211 -1.22559 -0.990812 0
M  V30 461 C 46.7511 -1.0218 -2.09956 0
M  V30 462 C 47.7321 0.0579394 -1.70001 0
M  V30 463 O 48.9171 -0.104684 -1.93918 0
M  V30 464 C 46.0471 -0.601023 -3.4206 0
M  V30 465 C 45.0011 -1.62694 -3.95872 0
M  V30 466 C 44.3271 -1.06193 -5.24049 0
M  V30 467 C 45.6271 -3.01743 -4.2632 0
M  V30 468 H 47.3211 -1.94916 -2.27262 0
M  V30 469 H 44.8671 -0.938566 -1.09211 0
M  V30 470 H 46.8201 -0.445561 -4.19038 0
M  V30 471 H 45.5441 0.362005 -3.24588 0
M  V30 472 H 44.2031 -1.77021 -3.21028 0
M  V30 473 H 43.8511 -0.0901903 -5.02919 0
M  V30 474 H 43.5511 -1.74732 -5.61019 0
M  V30 475 H 45.0751 -0.918092 -6.03658 0
M  V30 476 H 46.4891 -2.90777 -4.94087 0
M  V30 477 H 44.8861 -3.67425 -4.74467 0
M  V30 478 H 45.9561 -3.51518 -3.34011 0
M  V30 479 N 47.2992 1.18797 -1.03562 0
M  V30 480 C 48.7102 1.70322 -0.764676 0
M  V30 481 C 49.0612 1.82708 0.714996 0
M  V30 482 O 48.1862 1.50299 1.55689 0
M  V30 483 C 48.7812 3.09356 -1.38145 0
M  V30 484 C 47.3402 3.58114 -1.15895 0
M  V30 485 C 46.4872 2.34798 -1.4753 0
M  V30 486 H 49.4382 1.03543 -1.20268 0
M  V30 487 H 49.4592 3.72378 -0.781977 0
M  V30 488 H 48.9712 3.00309 -2.45837 0
M  V30 489 H 47.0722 3.72464 -0.100544 0
M  V30 490 H 47.1852 4.4184 -1.8524 0
M  V30 491 H 45.5492 2.38464 -0.894829 0
M  V30 492 H 46.3322 2.28375 -2.56319 0
M  V30 493 N 48.7773 0.814389 1.34928 0
M  V30 494 C 50.0263 0.394871 1.97797 0
M  V30 495 C 50.3393 -1.04555 1.65311 0
M  V30 496 O 51.5453 -1.56856 2.21604 0
M  V30 497 C 50.0013 0.655103 3.53888 0
M  V30 498 C 49.6093 2.10858 3.95276 0
M  V30 499 C 51.3533 0.301329 4.23429 0
M  V30 500 C 49.2603 2.31415 5.44244 0
M  V30 501 H 48.1903 0.143913 0.740139 0
M  V30 502 H 50.8413 0.999544 1.53888 0
M  V30 503 H 49.2233 -0.0196253 3.95995 0
M  V30 504 H 50.3973 2.82176 3.64298 0
M  V30 505 H 48.7123 2.42297 3.38646 0
M  V30 506 H 51.3093 0.432869 5.32945 0
M  V30 507 H 51.6523 -0.75331 4.09428 0
M  V30 508 H 52.1853 0.930288 3.86769 0
M  V30 509 H 48.9243 3.35353 5.63222 0
M  V30 510 H 48.4443 1.6463 5.76764 0
M  V30 511 H 50.1233 2.13352 6.10811 0
M  V30 512 N 50.2554 -1.46986 0.568584 0
M  V30 513 C 51.5324 -1.95592 -0.0174074 0
M  V30 514 C 51.9124 -1.51124 -1.47393 0
M  V30 515 O 51.2604 -0.755329 -2.15655 0
M  V30 516 C 51.4704 -3.48719 0.139913 0
M  V30 517 C 52.8184 -4.246 0.000426376 0
M  V30 518 O 53.8424 -3.56135 0.0680316 0
M  V30 519 O 52.7014 -5.46302 -0.146988 0
M  V30 520 H 49.7954 -0.82498 -0.0577599 0
M  V30 521 H 52.3414 -1.57335 0.635909 0
M  V30 522 H 51.1134 -3.73927 1.15301 0
M  V30 523 H 50.7364 -3.93771 -0.550491 0
M  V30 524 N 51.7335 -0.305618 -1.54608 0
M  V30 525 C 53.1495 0.0476228 -1.59529 0
M  V30 526 C 53.3495 1.52025 -1.32252 0
M  V30 527 O 52.4055 2.27368 -1.09818 0
M  V30 528 C 53.7185 -0.354471 -2.98603 0
M  V30 529 C 55.2665 -0.303622 -3.11524 0
M  V30 530 C 55.7415 -0.680608 -4.52915 0
M  V30 531 N 57.2325 -0.63332 -4.5885 0
M  V30 532 C 57.9675 -0.897432 -5.66334 0
M  V30 533 N 57.4635 -1.22775 -6.81834 0
M  V30 534 N 59.2565 -0.824186 -5.56025 0
M  V30 535 H 51.4075 -1.2653 -1.70599 0
M  V30 536 H 53.6705 -0.513291 -0.797017 0
M  V30 537 H 53.3765 -1.3798 -3.23503 0
M  V30 538 H 53.2505 0.289568 -3.76087 0
M  V30 539 H 55.6375 0.712472 -2.8637 0
M  V30 540 H 55.7185 -0.982348 -2.36185 0
M  V30 541 H 55.3625 -1.69453 -4.78799 0
M  V30 542 H 55.2925 0.0202385 -5.26596 0
M  V30 543 H 57.7835 -0.389138 -3.75891 0
M  V30 544 H 58.0965 -1.41513 -7.59733 0
M  V30 545 H 56.4415 -1.26583 -6.83375 0
M  V30 546 H 59.6325 -0.565748 -4.64669 0
M  V30 547 H 59.8055 -1.03338 -6.39707 0
M  V30 548 N 53.2116 1.57565 -0.0334293 0
M  V30 549 C 54.4586 1.91978 0.644272 0
M  V30 550 C 54.7866 0.910231 1.71887 0
M  V30 551 O 54.0416 -0.0801961 1.95536 0
M  V30 552 C 54.3406 3.33112 1.29504 0
M  V30 553 C 54.0066 4.49537 0.350388 0
M  V30 554 C 52.6686 4.81115 0.0903974 0
M  V30 555 C 55.0206 5.20347 -0.298032 0
M  V30 556 C 52.3486 5.8086 -0.825746 0
M  V30 557 C 54.7006 6.2107 -1.20226 0
M  V30 558 C 53.3646 6.51088 -1.4711 0
M  V30 559 H 52.6346 0.702496 0.235756 0
M  V30 560 H 55.2816 1.91259 -0.0961176 0
M  V30 561 H 53.5866 3.30113 2.11028 0
M  V30 562 H 55.2836 3.57011 1.82603 0
M  V30 563 H 51.8736 4.24883 0.563205 0
M  V30 564 H 56.0576 4.96178 -0.110234 0
M  V30 565 H 51.3136 6.02461 -1.04169 0
M  V30 566 H 55.4876 6.75057 -1.71086 0
M  V30 567 H 53.1146 7.28193 -2.18264 0
M  V30 568 N 54.6897 -0.239769 1.55765 0
M  V30 569 C 55.6367 -1.29696 1.90913 0
M  V30 570 C 56.6067 -1.47478 0.764164 0
M  V30 571 O 57.7917 -1.61345 1.01845 0
M  V30 572 C 54.9317 -2.64598 2.21544 0
M  V30 573 C 54.0447 -2.54765 3.48882 0
M  V30 574 C 53.1797 -3.82069 3.69049 0
M  V30 575 C 52.2187 -3.66883 4.89963 0
M  V30 576 N 51.3557 -4.86094 5.06614 0
M  V30 577 H 56.1957 -0.990224 2.81067 0
M  V30 578 H 53.7327 -0.477684 1.39128 0
M  V30 579 H 55.6907 -3.43132 2.3731 0
M  V30 580 H 54.3207 -2.93405 1.34585 0
M  V30 581 H 53.3727 -1.67763 3.41409 0
M  V30 582 H 54.6847 -2.39457 4.37563 0
M  V30 583 H 53.8387 -4.69046 3.84812 0
M  V30 584 H 52.5777 -4.00282 2.78614 0
M  V30 585 H 51.5827 -2.78289 4.74168 0
M  V30 586 H 52.8077 -3.50157 5.81865 0
M  V30 587 H 50.7537 -5.04655 4.19117 0
M  V30 588 H 50.6707 -4.73443 5.89396 0
M  V30 589 H 51.9387 -5.74549 5.26795 0
M  V30 590 N 56.1678 -1.49265 -0.50573 0
M  V30 591 C 57.3978 -1.61979 -1.28243 0
M  V30 592 C 57.8058 -0.288576 -1.86986 0
M  V30 593 O 57.1488 0.735408 -1.68337 0
M  V30 594 C 57.2108 -2.62632 -2.45489 0
M  V30 595 C 56.8748 -4.071 -2.07651 0
M  V30 596 C 57.8718 -4.94049 -1.61901 0
M  V30 597 C 55.5568 -4.52801 -2.17431 0
M  V30 598 C 57.5508 -6.24736 -1.26428 0
M  V30 599 C 55.2378 -5.83503 -1.8157 0
M  V30 600 C 56.2358 -6.69294 -1.36142 0
M  V30 601 O 55.9238 -7.9756 -1.00764 0
M  V30 602 H 55.6558 -0.54834 -0.395347 0
M  V30 603 H 58.2098 -1.96002 -0.614204 0
M  V30 604 H 56.4398 -2.2378 -3.15372 0
M  V30 605 H 58.1288 -2.64925 -3.07522 0
M  V30 606 H 58.8948 -4.5997 -1.53795 0
M  V30 607 H 54.7738 -3.86196 -2.51742 0
M  V30 608 H 58.3178 -6.91652 -0.908992 0
M  V30 609 H 54.2148 -6.17112 -1.89324 0
M  V30 610 H 54.9828 -8.10529 -1.13952 0
M  V30 611 N 57.6459 0.756429 -1.3826 0
M  V30 612 C 58.8759 1.54341 -1.3734 0
M  V30 613 C 59.2839 1.89159 0.0393917 0
M  V30 614 O 58.6269 1.5307 1.01565 0
M  V30 615 C 58.6889 2.87238 -2.16182 0
M  V30 616 C 58.3529 2.74973 -3.65019 0
M  V30 617 C 59.3499 2.44962 -4.58574 0
M  V30 618 C 57.0349 2.92515 -4.08338 0
M  V30 619 C 59.0289 2.32642 -5.93428 0
M  V30 620 C 56.7159 2.79815 -5.43274 0
M  V30 621 C 57.7139 2.49921 -6.35632 0
M  V30 622 O 57.4019 2.37275 -7.68086 0
M  V30 623 H 57.1339 0.484281 -0.471643 0
M  V30 624 H 59.6879 0.944152 -1.82414 0
M  V30 625 H 57.9179 3.49342 -1.65822 0
M  V30 626 H 59.6069 3.48731 -2.07705 0
M  V30 627 H 60.3729 2.31081 -4.26412 0
M  V30 628 H 56.2519 3.14781 -3.368 0
M  V30 629 H 59.7959 2.0923 -6.65484 0
M  V30 630 H 55.6929 2.93269 -5.75034 0
M  V30 631 H 56.4609 2.52509 -7.78577 0
M  V30 632 N 59.124 1.23083 0.984299 0
M  V30 633 C 60.37 1.06214 1.72761 0
M  V30 634 C 60.703 -0.400584 1.90024 0
M  V30 635 O 59.978 -1.29672 1.44967 0
M  V30 636 C 60.261 1.78375 3.12817 0
M  V30 637 C 60.114 3.32296 3.03149 0
M  V30 638 C 61.433 1.54309 4.12161 0
M  V30 639 H 58.552 0.387251 0.627061 0
M  V30 640 H 61.194 1.51536 1.14616 0
M  V30 641 H 59.344 1.39848 3.62457 0
M  V30 642 H 61.016 3.8032 2.61064 0
M  V30 643 H 59.259 3.6153 2.39747 0
M  V30 644 H 59.93 3.77972 4.02295 0
M  V30 645 H 62.406 1.87791 3.71314 0
M  V30 646 H 61.282 2.07281 5.08258 0
M  V30 647 H 61.543 0.477572 4.39513 0
M  V30 648 N 60.6021 -1.18246 1.0419 0
M  V30 649 C 61.5321 -2.24127 0.654914 0
M  V30 650 C 62.5131 -1.66617 -0.342451 0
M  V30 651 O 63.6981 -1.92924 -0.222277 0
M  V30 652 C 60.8281 -3.47295 0.0183757 0
M  V30 653 C 59.7821 -4.17563 0.939414 0
M  V30 654 C 59.1081 -5.34438 0.167286 0
M  V30 655 C 60.4081 -4.70917 2.25908 0
M  V30 656 H 62.1021 -2.56753 1.54007 0
M  V30 657 H 59.6481 -1.23414 0.74195 0
M  V30 658 H 61.6011 -4.20572 -0.264082 0
M  V30 659 H 60.3251 -3.13907 -0.901664 0
M  V30 660 H 58.9841 -3.46186 1.20628 0
M  V30 661 H 58.6321 -4.97298 -0.7552 0
M  V30 662 H 58.3321 -5.82388 0.780901 0
M  V30 663 H 59.8561 -6.10504 -0.108125 0
M  V30 664 H 61.2701 -5.35882 2.03724 0
M  V30 665 H 59.6671 -5.29406 2.82577 0
M  V30 666 H 60.7371 -3.88272 2.9047 0
M  V30 667 N 62.0802 -0.821533 -1.34494 0
M  V30 668 C 63.0122 -0.199946 -2.28326 0
M  V30 669 C 64.0252 0.609377 -1.50965 0
M  V30 670 O 65.2142 0.439285 -1.7301 0
M  V30 671 C 62.3142 0.738431 -3.30757 0
M  V30 672 C 61.4872 -0.0277632 -4.37391 0
M  V30 673 C 60.5462 0.831332 -5.19591 0
M  V30 674 O 59.5722 0.276822 -5.68526 0
M  V30 675 N 60.7742 2.15132 -5.39165 0
M  V30 676 H 63.5392 -1.00609 -2.82308 0
M  V30 677 H 61.1002 -0.678366 -1.47003 0
M  V30 678 H 63.0922 1.31773 -3.82646 0
M  V30 679 H 61.6622 1.44533 -2.7718 0
M  V30 680 H 60.8822 -0.788359 -3.86236 0
M  V30 681 H 62.1702 -0.555251 -5.05761 0
M  V30 682 H 61.5682 2.62559 -5.01078 0
M  V30 683 H 60.1252 2.6795 -5.94177 0
M  V30 684 N 63.5583 1.46682 -0.576371 0
M  V30 685 C 64.8353 1.95599 0.00703437 0
M  V30 686 C 65.2153 1.51904 1.46589 0
M  V30 687 O 64.5633 0.766755 2.15251 0
M  V30 688 C 64.7733 3.4864 -0.158404 0
M  V30 689 C 66.1213 4.24594 -0.0229439 0
M  V30 690 O 67.1453 3.56094 -0.0869173 0
M  V30 691 O 66.0043 5.46373 0.118015 0
M  V30 692 H 63.0983 0.825275 0.053384 0
M  V30 693 H 65.6443 1.56996 -0.644244 0
M  V30 694 H 64.4163 3.7331 -1.17282 0
M  V30 695 H 64.0393 3.94057 0.5296 0
M  V30 696 N 65.0364 0.313813 1.54444 0
M  V30 697 C 66.2614 -0.296681 2.05267 0
M  V30 698 C 66.6864 -1.45757 1.18897 0
M  V30 699 O 66.0444 -1.80239 0.195886 0
M  V30 700 C 66.0924 -0.71831 3.53373 0
M  V30 701 O 65.1964 -1.82175 3.69981 0
M  V30 702 H 64.5374 -0.0554061 0.661684 0
M  V30 703 H 67.0674 0.459387 1.99376 0
M  V30 704 H 67.0774 -1.00364 3.95463 0
M  V30 705 H 65.7524 0.130821 4.15694 0
M  V30 706 H 64.3294 -1.53598 3.39797 0
M  V30 707 N 66.5145 -1.57545 0.0417849 0
M  V30 708 C 67.7445 -1.96339 -0.642995 0
M  V30 709 C 68.1525 -0.917536 -1.65463 0
M  V30 710 O 67.4955 0.107747 -1.83384 0
M  V30 711 C 67.5575 -3.31333 -1.39494 0
M  V30 712 C 67.2215 -4.53796 -0.540204 0
M  V30 713 C 68.2185 -5.19553 0.189806 0
M  V30 714 C 65.9035 -5.0006 -0.473886 0
M  V30 715 C 67.8975 -6.29904 0.974674 0
M  V30 716 C 65.5845 -6.10289 0.314677 0
M  V30 717 C 66.5825 -6.75072 1.03765 0
M  V30 718 O 66.2705 -7.83183 1.81327 0
M  V30 719 H 66.0025 -0.651241 -0.181277 0
M  V30 720 H 68.5565 -2.05148 0.101665 0
M  V30 721 H 66.7865 -3.19052 -2.18502 0
M  V30 722 H 68.4755 -3.54942 -1.96904 0
M  V30 723 H 69.2415 -4.84774 0.147981 0
M  V30 724 H 65.1205 -4.49433 -1.0262 0
M  V30 725 H 68.6645 -6.80401 1.5395 0
M  V30 726 H 64.5615 -6.44506 0.358174 0
M  V30 727 H 65.3295 -7.99913 1.73438 0
M  V30 728 N 67.9926 0.231505 -1.5589 0
M  V30 729 C 69.2226 0.973092 -1.82248 0
M  V30 730 C 69.6306 1.78845 -0.617328 0
M  V30 731 O 68.9736 1.78752 0.423499 0
M  V30 732 C 69.0356 1.94732 -3.02192 0
M  V30 733 C 68.6996 1.31743 -4.37599 0
M  V30 734 C 69.6966 0.712238 -5.14998 0
M  V30 735 C 67.3816 1.33218 -4.84312 0
M  V30 736 C 69.3756 0.130195 -6.37267 0
M  V30 737 C 67.0626 0.746286 -6.06526 0
M  V30 738 C 68.0606 0.146337 -6.82843 0
M  V30 739 O 67.7486 -0.430465 -8.02747 0
M  V30 740 H 67.4806 0.29125 -0.61004 0
M  V30 741 H 70.0346 0.254915 -2.03812 0
M  V30 742 H 68.2646 2.70422 -2.76422 0
M  V30 743 H 69.9536 2.55362 -3.15508 0
M  V30 744 H 70.7196 0.69324 -4.8002 0
M  V30 745 H 66.5986 1.78854 -4.24891 0
M  V30 746 H 70.1426 -0.33871 -6.96777 0
M  V30 747 H 66.0396 0.762663 -6.40979 0
M  V30 748 H 66.8076 -0.323818 -8.17859 0
M  V30 749 N 69.4707 1.49531 0.497807 0
M  V30 750 C 70.4007 1.6935 1.60757 0
M  V30 751 C 71.3817 0.542218 1.61227 0
M  V30 752 O 72.5667 0.778417 1.77917 0
M  V30 753 C 69.6967 1.76298 2.99226 0
M  V30 754 C 68.6507 2.91248 3.13622 0
M  V30 755 C 67.9767 2.83312 4.53474 0
M  V30 756 C 69.2767 4.3214 2.93346 0
M  V30 757 H 70.9707 2.62263 1.44425 0
M  V30 758 H 68.5167 1.26208 0.693367 0
M  V30 759 H 70.4697 1.88749 3.76765 0
M  V30 760 H 69.1937 0.799871 3.16654 0
M  V30 761 H 67.8527 2.78404 2.38509 0
M  V30 762 H 67.5007 1.84902 4.67782 0
M  V30 763 H 67.2007 3.60465 4.64046 0
M  V30 764 H 68.7247 2.97775 5.33069 0
M  V30 765 H 70.1387 4.45649 3.60652 0
M  V30 766 H 68.5357 5.1054 3.15387 0
M  V30 767 H 69.6057 4.46363 1.89441 0
M  V30 768 N 70.9488 -0.749086 1.3866 0
M  V30 769 C 72.1768 -1.53834 1.38358 0
M  V30 770 C 72.5918 -1.88783 -0.0255219 0
M  V30 771 O 71.9488 -1.53101 -0.993292 0
M  V30 772 C 71.9998 -2.83468 2.2434 0
M  V30 773 O 71.7208 -2.50008 3.5976 0
M  V30 774 C 73.2218 -3.7758 2.32267 0
M  V30 775 H 70.4418 -0.47585 0.473083 0
M  V30 776 H 72.9858 -0.926726 1.82297 0
M  V30 777 H 71.1408 -3.40995 1.83851 0
M  V30 778 H 71.5548 -3.33182 4.05081 0
M  V30 779 H 73.0288 -4.65478 2.96706 0
M  V30 780 H 73.5058 -4.18334 1.33765 0
M  V30 781 H 74.1118 -3.25976 2.73166 0
M  V30 782 N 72.4269 -1.23603 -0.977757 0
M  V30 783 C 73.3769 -0.986664 -2.05545 0
M  V30 784 C 74.3609 0.0683009 -1.60755 0
M  V30 785 O 75.5529 -0.144162 -1.76412 0
M  V30 786 C 72.6819 -0.582623 -3.3832 0
M  V30 787 C 71.7679 -1.67313 -3.89701 0
M  V30 788 N 72.1589 -2.90394 -4.14132 0
M  V30 789 C 70.4569 -1.54832 -4.18262 0
M  V30 790 C 71.1579 -3.61017 -4.56116 0
M  V30 791 N 70.1339 -2.8854 -4.60701 0
M  V30 792 H 73.9359 -1.92139 -2.22396 0
M  V30 793 H 71.4499 -1.1358 -1.16074 0
M  V30 794 H 73.4469 -0.38524 -4.15116 0
M  V30 795 H 72.1069 0.34503 -3.22862 0
M  V30 796 H 73.1179 -3.26673 -4.01877 0
M  V30 797 H 69.7949 -0.687969 -4.11793 0
M  V30 798 H 71.1849 -4.66544 -4.83514 0
M  V30 799 N 73.905 1.17692 -1.04816 0
M  V30 800 C 75.152 1.87859 -0.75599 0
M  V30 801 C 75.48 1.80812 0.716752 0
M  V30 802 O 74.735 1.20819 1.53952 0
M  V30 803 C 75.034 3.37462 -1.17703 0
M  V30 804 C 74.7 3.64713 -2.65133 0
M  V30 805 C 73.362 3.71859 -3.05408 0
M  V30 806 C 75.714 3.76492 -3.60421 0
M  V30 807 C 73.042 3.88271 -4.39843 0
M  V30 808 C 75.394 3.94421 -4.94585 0
M  V30 809 C 74.058 3.99806 -5.3452 0
M  V30 810 H 73.328 0.687425 -0.276636 0
M  V30 811 H 75.975 1.39255 -1.31455 0
M  V30 812 H 74.28 3.88097 -0.537395 0
M  V30 813 H 75.977 3.90109 -0.928218 0
M  V30 814 H 72.567 3.59772 -2.32942 0
M  V30 815 H 76.751 3.70295 -3.30447 0
M  V30 816 H 72.007 3.90687 -4.70291 0
M  V30 817 H 76.181 4.02477 -5.68318 0
M  V30 818 H 73.808 4.12276 -6.38696 0
M  V30 819 N 75.3831 0.828654 1.34056 0
M  V30 820 C 76.3461 0.259927 2.27721 0
M  V30 821 C 77.3461 -0.565478 1.50529 0
M  V30 822 O 78.5361 -0.38075 1.69988 0
M  V30 823 C 75.6681 -0.634944 3.34935 0
M  V30 824 H 76.8611 1.0863 2.79534 0
M  V30 825 H 74.4141 0.600951 1.44285 0
M  V30 826 H 75.1491 -1.48416 2.88346 0
M  V30 827 H 74.9341 -0.0444999 3.92075 0
M  V30 828 H 76.4241 -1.02648 4.04788 0
M  V30 829 N 76.8612 -1.46375 0.584142 0
M  V30 830 C 77.8082 -2.30323 -0.148286 0
M  V30 831 C 78.7782 -1.40703 -0.882713 0
M  V30 832 O 79.9632 -1.69651 -0.873099 0
M  V30 833 C 77.1032 -3.25196 -1.15507 0
M  V30 834 C 76.2162 -4.29915 -0.423943 0
M  V30 835 C 75.3512 -5.11914 -1.41838 0
M  V30 836 C 74.3902 -6.08381 -0.673736 0
M  V30 837 N 73.5272 -6.83242 -1.6163 0
M  V30 838 H 78.3672 -2.92427 0.573644 0
M  V30 839 H 75.9042 -1.44118 0.294703 0
M  V30 840 H 77.8622 -3.78646 -1.75166 0
M  V30 841 H 76.4922 -2.64898 -1.8447 0
M  V30 842 H 75.5442 -3.7931 0.287714 0
M  V30 843 H 76.8562 -4.98549 0.158128 0
M  V30 844 H 76.0102 -5.69648 -2.08773 0
M  V30 845 H 74.7492 -4.43243 -2.03438 0
M  V30 846 H 73.7542 -5.49799 0.00938483 0
M  V30 847 H 74.9792 -6.79071 -0.0631082 0
M  V30 848 H 72.9252 -6.1728 -2.22038 0
M  V30 849 H 72.8422 -7.48144 -1.08707 0
M  V30 850 H 74.1102 -7.45534 -2.27596 0
M  V30 851 N 78.3393 -0.321999 -1.54275 0
M  V30 852 C 79.5853 0.281461 -2.00837 0
M  V30 853 C 79.9183 1.51909 -1.20985 0
M  V30 854 O 79.1933 1.923 -0.291733 0
M  V30 855 C 79.4763 0.617162 -3.54772 0
M  V30 856 C 79.3293 -0.631064 -4.45351 0
M  V30 857 C 80.6483 1.43542 -4.16033 0
M  V30 858 H 77.7673 0.100826 -0.730071 0
M  V30 859 H 80.4093 -0.438268 -1.84876 0
M  V30 860 H 78.5593 1.23034 -3.68504 0
M  V30 861 H 80.2313 -1.26934 -4.43492 0
M  V30 862 H 78.4743 -1.26025 -4.15091 0
M  V30 863 H 79.1453 -0.351735 -5.50878 0
M  V30 864 H 81.6213 0.917134 -4.05867 0
M  V30 865 H 80.4973 1.63907 -5.23856 0
M  V30 866 H 80.7583 2.43108 -3.69257 0
M  V30 867 N 79.8174 1.5752 -0.0501392 0
M  V30 868 C 80.7494 2.08413 0.95376 0
M  V30 869 C 81.7624 1.01175 1.27544 0
M  V30 870 O 82.9514 1.28744 1.23641 0
M  V30 871 C 80.0514 2.51138 2.27559 0
M  V30 872 C 79.2244 3.817 2.13598 0
M  V30 873 C 78.2834 4.10749 3.28895 0
M  V30 874 O 77.3094 4.80685 3.04845 0
M  V30 875 N 78.5114 3.62579 4.5334 0
M  V30 876 H 81.2764 2.95165 0.519383 0
M  V30 877 H 78.8374 1.61327 0.136127 0
M  V30 878 H 80.8294 2.67648 3.03557 0
M  V30 879 H 79.3994 1.6964 2.62567 0
M  V30 880 H 78.6194 3.74782 1.22197 0
M  V30 881 H 79.9074 4.67201 2.01496 0
M  V30 882 H 79.3054 3.06039 4.75769 0
M  V30 883 H 77.8624 3.84329 5.26436 0
M  V30 884 N 81.2955 -0.223234 1.56011 0
M  V30 885 C 82.5205 -0.968978 1.83373 0
M  V30 886 C 82.9455 -1.77227 0.630254 0
M  V30 887 O 82.3035 -1.76345 -0.420959 0
M  V30 888 C 82.3515 -1.86363 3.08709 0
M  V30 889 O 81.4555 -2.95873 2.87285 0
M  V30 890 H 80.7965 -0.274461 0.604622 0
M  V30 891 H 83.3265 -0.237056 2.03222 0
M  V30 892 H 83.3365 -2.27376 3.38768 0
M  V30 893 H 82.0115 -1.27319 3.95933 0
M  V30 894 H 80.5885 -2.58818 2.68454 0
M  V30 895 N 82.7736 -1.49793 -0.48987 0
M  V30 896 C 84.0206 -1.59841 -1.24327 0
M  V30 897 C 84.3486 -0.290135 -1.92324 0
M  V30 898 O 83.6036 0.722749 -1.81865 0
M  V30 899 C 83.9026 -2.71488 -2.32441 0
M  V30 900 C 83.5686 -4.12614 -1.81826 0
M  V30 901 C 82.2306 -4.51017 -1.67742 0
M  V30 902 C 84.5826 -5.00892 -1.4407 0
M  V30 903 C 81.9106 -5.75459 -1.14297 0
M  V30 904 C 84.2626 -6.25863 -0.920742 0
M  V30 905 C 82.9266 -6.63086 -0.766383 0
M  V30 906 H 82.1966 -0.584899 -0.454944 0
M  V30 907 H 84.8436 -1.83663 -0.542215 0
M  V30 908 H 83.1486 -2.4168 -3.0838 0
M  V30 909 H 84.8456 -2.76469 -2.90458 0
M  V30 910 H 81.4356 -3.82307 -1.93751 0
M  V30 911 H 85.6196 -4.7187 -1.53794 0
M  V30 912 H 80.8756 -6.02989 -1.01068 0
M  V30 913 H 85.0496 -6.9364 -0.619448 0
M  V30 914 H 82.6766 -7.59393 -0.350083 0
M  V30 915 N 84.2517 0.741722 -1.39055 0
M  V30 916 C 85.4997 1.49818 -1.35643 0
M  V30 917 C 85.8207 1.94938 0.0491642 0
M  V30 918 O 85.0907 1.68505 0.999141 0
M  V30 919 H 83.6707 0.555755 -0.499144 0
M  V30 920 H 86.3327 0.880957 -1.73854 0
M  V30 921 H 85.4287 2.38348 -2.01486 0
M  V30 922 N 85.7298 1.2412 0.971189 0
M  V30 923 C 86.6928 1.03156 2.04674 0
M  V30 924 C 87.6928 -0.00990322 1.60797 0
M  V30 925 O 88.8828 0.230729 1.72665 0
M  V30 926 C 86.0148 0.562765 3.36223 0
M  V30 927 H 87.2078 1.98614 2.24705 0
M  V30 928 H 84.7608 1.06293 1.14593 0
M  V30 929 H 85.4958 -0.395176 3.21883 0
M  V30 930 H 85.2808 1.31441 3.69413 0
M  V30 931 H 86.7708 0.437015 4.15307 0
M  V30 932 N 87.2079 -1.17134 1.05439 0
M  V30 933 C 88.1709 -2.19439 0.661764 0
M  V30 934 C 89.1709 -1.58199 -0.288042 0
M  V30 935 O 90.3609 -1.74053 -0.0715803 0
M  V30 936 C 87.4929 -3.40889 -0.0276209 0
M  V30 937 H 88.6859 -2.55688 1.56728 0
M  V30 938 H 86.2389 -1.31259 0.848567 0
M  V30 939 H 86.9739 -3.10187 -0.94629 0
M  V30 940 H 86.7589 -3.86586 0.655238 0
M  V30 941 H 88.2489 -4.16603 -0.288342 0
M  V30 942 N 88.686 -0.835752 -1.33615 0
M  V30 943 C 89.916 -0.442701 -2.01801 0
M  V30 944 C 90.324 0.959807 -1.63047 0
M  V30 945 O 89.667 1.63468 -0.838088 0
M  V30 946 C 89.729 -0.480125 -3.56279 0
M  V30 947 C 89.393 -1.8382 -4.18401 0
M  V30 948 C 90.39 -2.80097 -4.37998 0
M  V30 949 C 88.075 -2.13019 -4.54894 0
M  V30 950 C 90.069 -4.03736 -4.9323 0
M  V30 951 C 87.756 -3.36916 -5.09834 0
M  V30 952 C 88.754 -4.32091 -5.28948 0
M  V30 953 O 88.442 -5.53797 -5.82721 0
M  V30 954 H 88.174 -0.17441 -0.653114 0
M  V30 955 H 90.728 -1.129 -1.71589 0
M  V30 956 H 88.958 0.262931 -3.85805 0
M  V30 957 H 90.647 -0.105335 -4.05763 0
M  V30 958 H 91.413 -2.58838 -4.10156 0
M  V30 959 H 87.292 -1.39733 -4.39313 0
M  V30 960 H 90.836 -4.78034 -5.08064 0
M  V30 961 H 86.733 -3.58033 -5.37106 0
M  V30 962 H 87.501 -5.55494 -6.0114 0
M  V30 963 N 90.1641 1.46063 -0.591896 0
M  V30 964 C 91.1271 2.28854 0.125973 0
M  V30 965 C 92.1271 1.38903 0.810107 0
M  V30 966 O 93.3171 1.61186 0.66066 0
M  V30 967 C 90.4491 3.19526 1.1881 0
M  V30 968 H 91.6421 2.93802 -0.601717 0
M  V30 969 H 89.1951 1.52325 -0.350254 0
M  V30 970 H 89.9301 2.59345 1.94707 0
M  V30 971 H 89.7151 3.85766 0.701936 0
M  V30 972 H 91.2051 3.81817 1.69132 0
M  V30 973 N 91.6422 0.330177 1.54103 0
M  V30 974 C 92.5892 -0.532762 2.24567 0
M  V30 975 C 93.5592 -1.10635 1.23892 0
M  V30 976 O 94.7442 -1.14546 1.5259 0
M  V30 977 C 91.8842 -1.6845 3.01195 0
M  V30 978 C 90.9972 -1.13951 4.167 0
M  V30 979 C 90.1322 -2.25746 4.80845 0
M  V30 980 C 89.1712 -1.6853 5.88442 0
M  V30 981 N 88.3082 -2.74014 6.46421 0
M  V30 982 H 93.1482 0.0746905 2.97906 0
M  V30 983 H 90.6852 0.048632 1.4702 0
M  V30 984 H 92.6432 -2.36234 3.43874 0
M  V30 985 H 91.2732 -2.26314 2.30178 0
M  V30 986 H 90.3252 -0.35301 3.78758 0
M  V30 987 H 91.6372 -0.680892 4.94131 0
M  V30 988 H 90.7912 -3.01422 5.26526 0
M  V30 989 H 89.5302 -2.74947 4.0281 0
M  V30 990 H 88.5352 -0.913543 5.42157 0
M  V30 991 H 89.7602 -1.20198 6.68378 0
M  V30 992 H 87.7062 -3.22494 5.71256 0
M  V30 993 H 87.6232 -2.32735 7.19285 0
M  V30 994 H 88.8912 -3.49499 6.96757 0
M  V30 995 N 93.1203 -1.57491 0.0584922 0
M  V30 996 C 94.3973 -1.84346 -0.653918 0
M  V30 997 C 94.7773 -0.948355 -1.88599 0
M  V30 998 O 94.1253 -0.0112403 -2.28497 0
M  V30 999 C 94.3353 -3.34239 -1.00425 0
M  V30 1000 C 95.6833 -4.01431 -1.38342 0
M  V30 1001 O 96.7073 -3.38907 -1.09637 0
M  V30 1002 O 95.5663 -5.11683 -1.91943 0
M  V30 1003 H 92.6603 -0.761112 -0.323478 0
M  V30 1004 H 95.2063 -1.6947 0.0884125 0
M  V30 1005 H 93.9783 -3.91089 -0.128625 0
M  V30 1006 H 93.6013 -3.54329 -1.80378 0
M  V30 1007 N 94.5984 0.214957 -1.56127 0
M  V30 1008 C 95.5284 1.2695 -1.95974 0
M  V30 1009 C 96.5094 1.48539 -0.828868 0
M  V30 1010 O 97.6944 1.60611 -1.09168 0
M  V30 1011 C 94.8244 2.61794 -2.28214 0
M  V30 1012 C 93.7784 2.54851 -3.43853 0
M  V30 1013 C 93.1044 3.93785 -3.61715 0
M  V30 1014 C 94.4044 2.09065 -4.78632 0
M  V30 1015 H 96.0984 0.93846 -2.84312 0
M  V30 1016 H 93.6444 0.449996 -1.36788 0
M  V30 1017 H 95.5974 3.35731 -2.54682 0
M  V30 1018 H 94.3214 2.96599 -1.36736 0
M  V30 1019 H 92.9804 1.8337 -3.17444 0
M  V30 1020 H 92.6284 4.25908 -2.67602 0
M  V30 1021 H 92.3284 3.90019 -4.39498 0
M  V30 1022 H 93.8524 4.69374 -3.90539 0
M  V30 1023 H 95.2664 2.7275 -5.04262 0
M  V30 1024 H 93.6634 2.16346 -5.59745 0
M  V30 1025 H 94.7334 1.04315 -4.73547 0
M  V30 1026 N 96.0765 1.50051 0.48192 0
M  V30 1027 C 97.3065 1.63999 1.2565 0
M  V30 1028 C 97.7145 0.318288 1.86504 0
M  V30 1029 O 97.0575 -0.708534 1.69486 0
M  V30 1030 C 97.1195 2.66504 2.4128 0
M  V30 1031 C 96.7835 4.10352 2.01148 0
M  V30 1032 C 97.7805 4.96562 1.54021 0
M  V30 1033 C 95.4655 4.56203 2.10199 0
M  V30 1034 C 97.4595 6.26668 1.16473 0
M  V30 1035 C 95.1465 5.86318 1.72264 0
M  V30 1036 C 96.1445 6.71375 1.25477 0
M  V30 1037 O 95.8325 7.99062 0.880626 0
M  V30 1038 H 95.5645 0.55456 0.386574 0
M  V30 1039 H 98.1185 1.96954 0.582944 0
M  V30 1040 H 96.3485 2.28769 3.11772 0
M  V30 1041 H 98.0375 2.69783 3.03268 0
M  V30 1042 H 98.8035 4.62358 1.46458 0
M  V30 1043 H 94.6825 3.90152 2.45566 0
M  V30 1044 H 98.2265 6.93011 0.798841 0
M  V30 1045 H 94.1235 6.20046 1.79482 0
M  V30 1046 H 94.8915 8.12239 1.01043 0
M  V30 1047 N 97.5546 -0.734337 1.39446 0
M  V30 1048 C 98.7826 -1.52358 1.39981 0
M  V30 1049 C 99.1976 -1.88799 -0.0054975 0
M  V30 1050 O 98.5546 -1.54146 -0.976998 0
M  V30 1051 C 98.6056 -2.81072 2.27333 0
M  V30 1052 O 98.3266 -2.46178 3.62392 0
M  V30 1053 C 99.8276 -3.75096 2.36259 0
M  V30 1054 H 97.0476 -0.470806 0.478103 0
M  V30 1055 H 99.5916 -0.907339 1.83269 0
M  V30 1056 H 97.7466 -3.39026 1.87457 0
M  V30 1057 H 98.1606 -3.28866 4.08592 0
M  V30 1058 H 99.6346 -4.62305 3.01626 0
M  V30 1059 H 100.112 -4.16892 1.38194 0
M  V30 1060 H 100.718 -3.23061 2.76608 0
M  V30 1061 N 99.0327 -1.24633 -0.964593 0
M  V30 1062 C 100.261 -1.11501 -1.74285 0
M  V30 1063 C 100.676 0.332165 -1.85855 0
M  V30 1064 O 100.033 1.22903 -1.34911 0
M  V30 1065 C 100.084 -1.75258 -3.16175 0
M  V30 1066 O 99.8047 -3.14318 -3.05182 0
M  V30 1067 C 101.306 -1.67776 -4.10324 0
M  V30 1068 H 98.5257 -0.389407 -0.546446 0
M  V30 1069 H 101.07 -1.64801 -1.21083 0
M  V30 1070 H 99.2247 -1.25954 -3.66353 0
M  V30 1071 H 99.6387 -3.4551 -3.94618 0
M  V30 1072 H 101.113 -2.17064 -5.0753 0
M  V30 1073 H 101.59 -0.639584 -4.34518 0
M  V30 1074 H 102.196 -2.16522 -3.66058 0
M  V30 1075 N 100.511 1.16574 -1.06058 0
M  V30 1076 C 101.759 1.86677 -0.77434 0
M  V30 1077 C 102.08 1.81959 0.701147 0
M  V30 1078 O 101.35 1.2515 1.50713 0
M  V30 1079 H 99.9298 0.691134 -0.283449 0
M  V30 1080 H 102.592 1.41378 -1.34158 0
M  V30 1081 H 101.688 2.92181 -1.09711 0
M  V30 1082 N 101.989 0.842826 1.3317 0
M  V30 1083 C 103.405 0.531128 1.50503 0
M  V30 1084 C 103.605 -0.940734 1.78192 0
M  V30 1085 O 102.661 -1.72436 1.84451 0
M  V30 1086 C 103.974 1.40789 2.65705 0
M  V30 1087 C 105.522 1.40708 2.79589 0
M  V30 1088 C 105.997 2.26878 3.97857 0
M  V30 1089 N 107.488 2.24609 4.05099 0
M  V30 1090 C 108.223 2.88019 4.95815 0
M  V30 1091 N 107.719 3.60496 5.9162 0
M  V30 1092 N 109.512 2.77469 4.88843 0
M  V30 1093 H 101.663 1.79557 1.1346 0
M  V30 1094 H 103.926 0.766267 0.558156 0
M  V30 1095 H 103.632 2.454 2.51936 0
M  V30 1096 H 103.506 1.08677 3.61205 0
M  V30 1097 H 105.893 0.368668 2.92788 0
M  V30 1098 H 105.974 1.76829 1.84838 0
M  V30 1099 H 105.618 3.3078 3.85418 0
M  V30 1100 H 105.548 1.88096 4.91861 0
M  V30 1101 H 108.039 1.71906 3.36536 0
M  V30 1102 H 108.352 4.06076 6.57512 0
M  V30 1103 H 106.697 3.64604 5.91683 0
M  V30 1104 H 109.888 2.20406 4.12963 0
M  V30 1105 H 110.061 3.2717 5.59342 0
M  V30 1106 N 103.467 -1.45747 0.599634 0
M  V30 1107 C 104.4 -2.27547 -0.172552 0
M  V30 1108 C 105.378 -1.36657 -0.881116 0
M  V30 1109 O 106.562 -1.66081 -0.891595 0
M  V30 1110 C 103.689 -3.14829 -1.24903 0
M  V30 1111 C 102.735 -4.21603 -0.644465 0
M  V30 1112 S 103.568 -5.32754 0.541606 0
M  V30 1113 C 104.724 -6.23604 -0.535656 0
M  V30 1114 H 104.957 -2.92691 0.521468 0
M  V30 1115 H 102.49 -1.49473 0.386947 0
M  V30 1116 H 104.448 -3.65675 -1.86527 0
M  V30 1117 H 103.109 -2.48965 -1.91508 0
M  V30 1118 H 102.302 -4.82566 -1.45417 0
M  V30 1119 H 101.904 -3.73857 -0.103534 0
M  V30 1120 H 104.196 -6.62519 -1.41686 0
M  V30 1121 H 105.139 -7.0809 0.0376246 0
M  V30 1122 H 105.547 -5.58103 -0.84741 0
M  V30 1123 N 104.945 -0.338344 -1.53925 0
M  V30 1124 C 105.908 0.508299 -2.23493 0
M  V30 1125 C 106.908 1.03175 -1.23335 0
M  V30 1126 O 108.098 0.921826 -1.47811 0
M  V30 1127 C 105.23 1.70754 -2.95052 0
M  V30 1128 H 106.423 -0.100058 -2.99733 0
M  V30 1129 H 103.976 -0.0896198 -1.56043 0
M  V30 1130 H 104.711 2.35474 -2.22986 0
M  V30 1131 H 104.496 1.33946 -3.68512 0
M  V30 1132 H 105.986 2.30818 -3.48013 0
M  V30 1133 N 106.423 1.57458 -0.0668435 0
M  V30 1134 C 107.648 1.9804 0.616027 0
M  V30 1135 C 108.073 0.944771 1.62652 0
M  V30 1136 O 107.431 -0.0902094 1.81075 0
M  V30 1137 C 107.479 3.37665 1.26549 0
M  V30 1138 O 106.583 3.36701 2.38131 0
M  V30 1139 H 105.924 0.644719 0.158849 0
M  V30 1140 H 108.454 2.04121 -0.139891 0
M  V30 1141 H 108.464 3.7474 1.6135 0
M  V30 1142 H 107.139 4.12573 0.525016 0
M  V30 1143 H 105.716 3.1139 2.0516 0
M  V30 1144 N 107.901 -0.206675 1.56239 0
M  V30 1145 C 108.851 -1.26 1.90021 0
M  V30 1146 C 109.835 -1.41566 0.764721 0
M  V30 1147 O 111.027 -1.44131 1.02739 0
M  V30 1148 C 108.156 -2.6073 2.23326 0
M  V30 1149 C 107.242 -2.49005 3.43304 0
M  V30 1150 N 107.633 -2.06946 4.61527 0
M  V30 1151 C 105.931 -2.79927 3.47213 0
M  V30 1152 C 106.632 -2.06832 5.43687 0
M  V30 1153 N 105.608 -2.47892 4.83788 0
M  V30 1154 H 109.41 -0.925955 2.78932 0
M  V30 1155 H 106.924 -0.415172 1.57003 0
M  V30 1156 H 108.921 -3.36798 2.45708 0
M  V30 1157 H 107.581 -2.94968 1.35735 0
M  V30 1158 H 108.592 -1.77839 4.86409 0
M  V30 1159 H 105.269 -3.18438 2.70006 0
M  V30 1160 H 106.659 -1.76312 6.48354 0
M  V30 1161 N 109.379 -1.50304 -0.473955 0
M  V30 1162 C 110.342 -1.6841 -1.55469 0
M  V30 1163 C 111.342 -0.554905 -1.50922 0
M  V30 1164 O 112.532 -0.821882 -1.53593 0
M  V30 1165 C 109.664 -1.70667 -2.95102 0
M  V30 1166 H 110.857 -2.64828 -1.40733 0
M  V30 1167 H 108.41 -1.39742 -0.700132 0
M  V30 1168 H 109.145 -0.75932 -3.15285 0
M  V30 1169 H 108.93 -2.52698 -2.9981 0
M  V30 1170 H 110.42 -1.8664 -3.73571 0
M  V30 1171 N 110.857 0.726932 -1.39834 0
M  V30 1172 C 111.789 1.85147 -1.35104 0
M  V30 1173 C 112.802 1.60736 -0.258392 0
M  V30 1174 O 113.991 1.70821 -0.517931 0
M  V30 1175 C 111.091 3.21332 -1.07697 0
M  V30 1176 C 110.264 3.73033 -2.28396 0
M  V30 1177 C 109.323 4.87802 -1.97322 0
M  V30 1178 O 108.349 5.01043 -2.70083 0
M  V30 1179 N 109.551 5.72768 -0.944273 0
M  V30 1180 H 112.316 1.89706 -2.32017 0
M  V30 1181 H 109.877 0.908006 -1.3404 0
M  V30 1182 H 111.869 3.95691 -0.849144 0
M  V30 1183 H 110.439 3.11992 -0.194909 0
M  V30 1184 H 109.659 2.89934 -2.6708 0
M  V30 1185 H 110.947 4.0431 -3.08887 0
M  V30 1186 H 110.345 5.64669 -0.341427 0
M  V30 1187 H 108.902 6.4716 -0.776346 0
M  V30 1188 N 112.336 1.25143 0.95797 0
M  V30 1189 C 113.584 1.09476 1.69881 0
M  V30 1190 C 113.905 -0.365502 1.91544 0
M  V30 1191 O 113.175 -1.25985 1.50015 0
M  V30 1192 H 111.755 0.402128 0.629525 0
M  V30 1193 H 114.417 1.57214 1.15194 0
M  V30 1194 H 113.513 1.60046 2.6794 0
M  V30 1195 N 113.814 -1.1601 1.06675 0
M  V30 1196 C 115.042 -1.90527 0.806667 0
M  V30 1197 C 115.457 -1.77643 -0.639396 0
M  V30 1198 O 114.814 -1.12369 -1.43803 0
M  V30 1199 C 114.865 -3.41106 1.19705 0
M  V30 1200 O 114.586 -3.53608 2.58636 0
M  V30 1201 C 116.087 -4.32663 0.965266 0
M  V30 1202 H 113.307 -0.604053 0.292166 0
M  V30 1203 H 115.851 -1.47026 1.4214 0
M  V30 1204 H 114.006 -3.82296 0.626774 0
M  V30 1205 H 114.42 -4.47011 2.74375 0
M  V30 1206 H 115.894 -5.36763 1.288 0
M  V30 1207 H 116.371 -4.39089 -0.0987936 0
M  V30 1208 H 116.977 -3.97206 1.52011 0
M  V30 1209 N 115.292 -0.849877 -1.32721 0
M  V30 1210 C 116.522 -0.46408 -2.0132 0
M  V30 1211 C 116.93 0.94246 -1.64056 0
M  V30 1212 O 116.273 1.6257 -0.855379 0
M  V30 1213 C 116.335 -0.517887 -3.5575 0
M  V30 1214 C 115.999 -1.88248 -4.16427 0
M  V30 1215 C 116.996 -2.84726 -4.35002 0
M  V30 1216 C 114.681 -2.17832 -4.52609 0
M  V30 1217 C 116.675 -4.08945 -4.8892 0
M  V30 1218 C 114.362 -3.42304 -5.06232 0
M  V30 1219 C 115.36 -4.37677 -5.24335 0
M  V30 1220 O 115.048 -5.59946 -5.76815 0
M  V30 1221 H 114.78 -0.181327 -0.651227 0
M  V30 1222 H 117.334 -1.14713 -1.70382 0
M  V30 1223 H 115.564 0.221997 -3.86062 0
M  V30 1224 H 117.253 -0.148366 -4.05629 0
M  V30 1225 H 118.019 -2.63174 -4.07388 0
M  V30 1226 H 113.898 -1.44385 -4.37806 0
M  V30 1227 H 117.442 -4.83396 -5.02966 0
M  V30 1228 H 113.339 -3.63709 -5.33278 0
M  V30 1229 H 114.107 -5.61838 -5.95214 0
M  V30 1230 N 116.77 1.45427 -0.607355 0
M  V30 1231 C 117.68 2.34325 0.113463 0
M  V30 1232 C 118.696 1.51226 0.860617 0
M  V30 1233 O 119.872 1.84029 0.818255 0
M  V30 1234 C 116.937 3.28839 1.09844 0
M  V30 1235 C 115.998 4.27844 0.353271 0
M  V30 1236 C 115.231 5.17842 1.29133 0
M  V30 1237 O 115.454 5.11264 2.52913 0
M  V30 1238 O 114.388 5.96713 0.788523 0
M  V30 1239 H 118.214 2.97364 -0.617094 0
M  V30 1240 H 115.799 1.44807 -0.367619 0
M  V30 1241 H 117.681 3.8708 1.66575 0
M  V30 1242 H 116.356 2.68365 1.81003 0
M  V30 1243 H 115.263 3.7322 -0.256494 0
M  V30 1244 H 116.596 4.91173 -0.317822 0
M  V30 1245 N 118.248 0.346503 1.53744 0
M  V30 1246 C 119.211 -0.496439 2.23759 0
M  V30 1247 C 120.211 -1.0252 1.2388 0
M  V30 1248 O 121.401 -0.913974 1.48297 0
M  V30 1249 C 118.533 -1.69187 2.95954 0
M  V30 1250 H 119.726 0.115952 2.99676 0
M  V30 1251 H 117.279 0.0978939 1.55993 0
M  V30 1252 H 118.014 -2.34288 2.24231 0
M  V30 1253 H 117.799 -1.31989 3.69217 0
M  V30 1254 H 119.289 -2.28969 3.49232 0
M  V30 1255 N 119.726 -1.57421 0.075193 0
M  V30 1256 C 120.636 -2.1642 -0.905511 0
M  V30 1257 C 121.652 -1.12828 -1.32461 0
M  V30 1258 O 122.828 -1.45109 -1.39661 0
M  V30 1259 C 119.893 -2.71693 -2.15369 0
M  V30 1260 C 118.954 -3.90171 -1.79068 0
M  V30 1261 C 118.187 -4.42798 -2.97936 0
M  V30 1262 O 118.41 -3.94416 -4.12058 0
M  V30 1263 O 117.344 -5.34085 -2.77555 0
M  V30 1264 H 121.17 -3.00588 -0.433626 0
M  V30 1265 H 118.755 -1.48664 -0.148067 0
M  V30 1266 H 120.637 -3.07104 -2.88557 0
M  V30 1267 H 119.312 -1.90582 -2.61649 0
M  V30 1268 H 118.219 -3.59606 -1.03122 0
M  V30 1269 H 119.552 -4.72584 -1.37569 0
M  V30 1270 N 121.204 0.198386 -1.56346 0
M  V30 1271 C 122.137 1.27381 -1.89339 0
M  V30 1272 C 123.115 1.44106 -0.753134 0
M  V30 1273 O 124.299 1.59549 -1.00381 0
M  V30 1274 C 121.426 2.6409 -2.12071 0
M  V30 1275 C 120.472 2.64253 -3.34772 0
M  V30 1276 S 121.305 2.16013 -4.89999 0
M  V30 1277 C 122.461 3.54553 -5.15794 0
M  V30 1278 H 122.694 0.992058 -2.8026 0
M  V30 1279 H 120.227 0.401726 -1.49082 0
M  V30 1280 H 122.185 3.42786 -2.2585 0
M  V30 1281 H 120.846 2.89478 -1.21906 0
M  V30 1282 H 120.039 3.64768 -3.47794 0
M  V30 1283 H 119.641 1.93637 -3.1997 0
M  V30 1284 H 121.933 4.50396 -5.06112 0
M  V30 1285 H 122.876 3.46428 -6.1757 0
M  V30 1286 H 123.284 3.49313 -4.43442 0
M  V30 1287 N 122.682 1.50554 0.465978 0
M  V30 1288 C 123.645 1.69233 1.54574 0
M  V30 1289 C 124.645 0.562901 1.50626 0
M  V30 1290 O 125.835 0.830016 1.53155 0
M  V30 1291 C 122.967 1.7223 2.94193 0
M  V30 1292 H 124.16 2.65571 1.39327 0
M  V30 1293 H 121.713 1.40111 0.692711 0
M  V30 1294 H 122.448 0.77603 3.14878 0
M  V30 1295 H 122.233 2.54285 2.98466 0
M  V30 1296 H 123.723 1.88618 3.72576 0
M  V30 1297 N 124.16 -0.719506 1.40217 0
M  V30 1298 C 125.09 -1.8465 1.42922 0
M  V30 1299 C 126.071 -1.67599 0.29062 0
M  V30 1300 O 127.256 -1.87688 0.498677 0
M  V30 1301 C 124.386 -3.22565 1.28722 0
M  V30 1302 C 123.34 -3.54281 2.40144 0
M  V30 1303 C 122.666 -4.91298 2.11023 0
M  V30 1304 C 123.966 -3.55676 3.82481 0
M  V30 1305 H 125.66 -1.82644 2.37237 0
M  V30 1306 H 123.206 -0.877305 1.1419 0
M  V30 1307 H 125.159 -4.01095 1.29232 0
M  V30 1308 H 123.883 -3.25137 0.308811 0
M  V30 1309 H 122.542 -2.78088 2.38877 0
M  V30 1310 H 122.19 -4.90468 1.11582 0
M  V30 1311 H 121.89 -5.13485 2.8567 0
M  V30 1312 H 123.414 -5.72166 2.13209 0
M  V30 1313 H 124.828 -4.24254 3.85592 0
M  V30 1314 H 123.225 -3.89388 4.56614 0
M  V30 1315 H 124.295 -2.55144 4.12346 0
M  V30 1316 N 125.638 -1.25649 -0.95132 0
M  V30 1317 C 126.588 -1.03004 -2.03406 0
M  V30 1318 C 127.572 0.034187 -1.60864 0
M  V30 1319 O 128.764 -0.181549 -1.76066 0
M  V30 1320 C 125.893 -0.654255 -3.37008 0
M  V30 1321 C 124.979 -1.75542 -3.86065 0
M  V30 1322 N 125.37 -2.99113 -4.07879 0
M  V30 1323 C 123.668 -1.63669 -4.14884 0
M  V30 1324 C 124.369 -3.70611 -4.48356 0
M  V30 1325 N 123.345 -2.98247 -4.54477 0
M  V30 1326 H 127.147 -1.96813 -2.1827 0
M  V30 1327 H 124.661 -1.16017 -1.13639 0
M  V30 1328 H 126.658 -0.473206 -4.14206 0
M  V30 1329 H 125.318 0.276468 -3.23521 0
M  V30 1330 H 126.329 -3.35124 -3.94857 0
M  V30 1331 H 123.006 -0.775161 -4.10241 0
M  V30 1332 H 124.396 -4.76695 -4.73509 0
M  V30 1333 N 127.117 1.15442 -1.07289 0
M  V30 1334 C 128.533 1.38201 -0.798288 0
M  V30 1335 C 128.733 1.92429 0.597769 0
M  V30 1336 O 127.789 2.12962 1.3566 0
M  V30 1337 C 129.102 2.35357 -1.87156 0
M  V30 1338 C 130.65 2.49021 -1.89624 0
M  V30 1339 C 131.125 3.49468 -2.96034 0
M  V30 1340 N 132.616 3.57003 -2.95132 0
M  V30 1341 C 133.351 4.34543 -3.74112 0
M  V30 1342 N 132.847 5.15421 -4.6294 0
M  V30 1343 N 134.64 4.29625 -3.62462 0
M  V30 1344 H 126.791 0.78584 -1.97328 0
M  V30 1345 H 129.054 0.408065 -0.855679 0
M  V30 1346 H 128.76 2.02626 -2.87464 0
M  V30 1347 H 128.634 3.35129 -1.73114 0
M  V30 1348 H 131.021 2.81051 -0.899687 0
M  V30 1349 H 131.102 1.4925 -2.07745 0
M  V30 1350 H 130.746 3.18173 -3.95889 0
M  V30 1351 H 130.676 4.48992 -2.75161 0
M  V30 1352 H 133.167 2.99276 -2.30743 0
M  V30 1353 H 133.48 5.7183 -5.19837 0
M  V30 1354 H 131.825 5.14729 -4.66989 0
M  V30 1355 H 135.016 3.65505 -2.92444 0
M  V30 1356 H 135.189 4.89807 -4.24256 0
M  V30 1357 N 128.595 0.856903 1.32268 0
M  V30 1358 C 129.505 0.306131 2.32594 0
M  V30 1359 C 130.521 -0.577209 1.64147 0
M  V30 1360 O 131.697 -0.477043 1.95669 0
M  V30 1361 C 128.762 -0.494561 3.43154 0
M  V30 1362 C 127.823 0.415186 4.27288 0
M  V30 1363 C 127.056 -0.347387 5.32568 0
M  V30 1364 O 127.279 -1.57708 5.48165 0
M  V30 1365 O 126.213 0.287982 6.01211 0
M  V30 1366 H 130.039 1.13737 2.81598 0
M  V30 1367 H 127.624 0.619902 1.35932 0
M  V30 1368 H 129.506 -0.948944 4.10576 0
M  V30 1369 H 128.181 -1.30257 2.96336 0
M  V30 1370 H 127.088 0.917793 3.62667 0
M  V30 1371 H 128.421 1.18844 4.77637 0
M  V30 1372 N 130.073 -1.45103 0.615059 0
M  V30 1373 C 131.32 -2.02183 0.113179 0
M  V30 1374 C 131.648 -1.48249 -1.25906 0
M  V30 1375 O 130.903 -0.650265 -1.84581 0
M  V30 1376 C 131.202 -3.57386 0.0318797 0
M  V30 1377 C 130.868 -4.30505 1.34077 0
M  V30 1378 C 129.53 -4.50197 1.69929 0
M  V30 1379 C 131.882 -4.72238 2.20546 0
M  V30 1380 C 129.21 -5.08881 2.91988 0
M  V30 1381 C 131.562 -5.32272 3.41861 0
M  V30 1382 C 130.226 -5.50187 3.77956 0
M  V30 1383 H 129.496 -0.739842 0.0414151 0
M  V30 1384 H 132.143 -1.74073 0.798168 0
M  V30 1385 H 130.448 -3.84817 -0.736409 0
M  V30 1386 H 132.145 -3.99264 -0.372712 0
M  V30 1387 H 128.735 -4.15496 1.05173 0
M  V30 1388 H 132.919 -4.56751 1.94146 0
M  V30 1389 H 128.175 -5.20939 3.2005 0
M  V30 1390 H 132.349 -5.63563 4.09109 0
M  V30 1391 H 129.976 -5.95427 4.72622 0
M  V30 1392 N 131.551 -0.354651 -1.53558 0
M  V30 1393 C 132.514 0.484566 -2.24019 0
M  V30 1394 C 133.514 1.01861 -1.24422 0
M  V30 1395 O 134.704 0.906097 -1.4878 0
M  V30 1396 C 131.836 1.67615 -2.96847 0
M  V30 1397 H 133.029 -0.131843 -2.9961 0
M  V30 1398 H 130.582 -0.106165 -1.55939 0
M  V30 1399 H 131.317 2.33095 -2.25471 0
M  V30 1400 H 131.102 1.30029 -3.69912 0
M  V30 1401 H 132.592 2.27114 -3.50441 0
M  V30 1402 N 133.029 1.57378 -0.0835403 0
M  V30 1403 C 133.939 2.16897 0.894021 0
M  V30 1404 C 134.955 1.13528 1.31861 0
M  V30 1405 O 136.131 1.45848 1.3889 0
M  V30 1406 C 133.196 2.72831 2.13925 0
M  V30 1407 C 132.257 3.91115 1.76997 0
M  V30 1408 C 131.49 4.44371 2.95584 0
M  V30 1409 O 131.713 3.96596 4.09961 0
M  V30 1410 O 130.647 5.35549 2.74719 0
M  V30 1411 H 134.473 3.00814 0.417679 0
M  V30 1412 H 132.058 1.48741 0.140181 0
M  V30 1413 H 133.94 3.0863 2.86924 0
M  V30 1414 H 132.615 1.91967 2.60635 0
M  V30 1415 H 131.522 3.60148 1.01214 0
M  V30 1416 H 132.855 4.73307 1.3506 0
M  V30 1417 N 134.507 -0.190092 1.56449 0
M  V30 1418 C 135.437 -1.23816 1.97969 0
M  V30 1419 C 136.418 -1.47201 0.852395 0
M  V30 1420 O 137.603 -1.58854 1.1171 0
M  V30 1421 C 134.733 -2.5813 2.3235 0
M  V30 1422 C 133.687 -2.49348 3.47864 0
M  V30 1423 C 133.013 -3.8798 3.67934 0
M  V30 1424 C 134.313 -2.01424 4.81898 0
M  V30 1425 H 136.007 -0.89311 2.85769 0
M  V30 1426 H 133.553 -0.428177 1.37487 0
M  V30 1427 H 135.506 -3.31637 2.59991 0
M  V30 1428 H 134.23 -2.94386 1.41438 0
M  V30 1429 H 132.889 -1.78297 3.20321 0
M  V30 1430 H 132.537 -4.21597 2.74344 0
M  V30 1431 H 132.237 -3.82978 4.45648 0
M  V30 1432 H 133.761 -4.63101 3.97957 0
M  V30 1433 H 135.175 -2.64693 5.08538 0
M  V30 1434 H 133.572 -2.07413 5.63116 0
M  V30 1435 H 134.642 -0.967677 4.75146 0
M  V30 1436 N 135.985 -1.50799 -0.457987 0
M  V30 1437 C 136.915 -1.73553 -1.5621 0
M  V30 1438 C 137.896 -0.584774 -1.59732 0
M  V30 1439 O 139.081 -0.825314 -1.7579 0
M  V30 1440 C 136.211 -1.84169 -2.94447 0
M  V30 1441 C 135.165 -2.99461 -3.0579 0
M  V30 1442 C 134.491 -2.95235 -4.45803 0
M  V30 1443 C 135.791 -4.39766 -2.81786 0
M  V30 1444 H 137.485 -2.66 -1.37421 0
M  V30 1445 H 135.031 -1.28002 -0.659662 0
M  V30 1446 H 136.984 -1.98672 -3.71628 0
M  V30 1447 H 135.708 -0.883545 -3.14422 0
M  V30 1448 H 134.367 -2.8463 -2.31044 0
M  V30 1449 H 134.015 -1.97239 -4.62715 0
M  V30 1450 H 133.715 -3.72642 -4.54326 0
M  V30 1451 H 135.239 -3.11803 -5.24987 0
M  V30 1452 H 136.653 -4.55054 -3.4871 0
M  V30 1453 H 135.05 -5.18722 -3.0174 0
M  V30 1454 H 136.12 -4.51229 -1.7754 0
M  V30 1455 N 137.463 0.71206 -1.40597 0
M  V30 1456 C 138.373 1.8562 -1.43466 0
M  V30 1457 C 139.389 1.70902 -0.326902 0
M  V30 1458 O 140.565 1.93105 -0.572043 0
M  V30 1459 C 137.63 3.21451 -1.29884 0
M  V30 1460 C 136.691 3.48398 -2.50833 0
M  V30 1461 C 135.924 4.77749 -2.3789 0
M  V30 1462 O 136.147 5.53089 -1.39459 0
M  V30 1463 O 135.081 5.05111 -3.27333 0
M  V30 1464 H 138.907 1.86155 -2.39958 0
M  V30 1465 H 136.492 0.86295 -1.21957 0
M  V30 1466 H 138.374 4.02579 -1.24531 0
M  V30 1467 H 137.049 3.21636 -0.364997 0
M  V30 1468 H 135.956 2.67265 -2.61763 0
M  V30 1469 H 137.289 3.53014 -3.4299 0
M  V30 1470 N 138.941 1.26152 0.944643 0
M  V30 1471 C 140.19 1.10883 1.68487 0
M  V30 1472 C 140.503 -0.348153 1.92477 0
M  V30 1473 O 141.709 -0.621459 2.64292 0
M  V30 1474 C 140.165 1.93624 3.03377 0
M  V30 1475 C 139.773 3.43875 2.87148 0
M  V30 1476 C 141.517 1.86954 3.81115 0
M  V30 1477 C 139.424 4.18875 4.1749 0
M  V30 1478 H 138.354 0.41135 0.631907 0
M  V30 1479 H 141.005 1.50433 1.05082 0
M  V30 1480 H 139.387 1.46904 3.67743 0
M  V30 1481 H 140.561 3.98338 2.31653 0
M  V30 1482 H 138.876 3.51744 2.22856 0
M  V30 1483 H 141.473 2.40275 4.77673 0
M  V30 1484 H 141.816 0.839518 4.07747 0
M  V30 1485 H 142.349 2.31477 3.23517 0
M  V30 1486 H 139.088 5.22332 3.96043 0
M  V30 1487 H 138.608 3.69193 4.72712 0
M  V30 1488 H 140.287 4.27134 4.85968 0
M  V30 1489 N 140.419 -1.14872 1.07899 0
M  V30 1490 C 141.644 -1.90202 0.826926 0
M  V30 1491 C 142.069 -1.77774 -0.614664 0
M  V30 1492 O 141.427 -1.11431 -1.43013 0
M  V30 1493 C 141.475 -3.38352 1.24702 0
M  V30 1494 O 140.579 -4.10497 0.39575 0
M  V30 1495 H 139.92 -0.591968 0.300782 0
M  V30 1496 H 142.45 -1.45437 1.43907 0
M  V30 1497 H 142.46 -3.89156 1.22563 0
M  V30 1498 H 141.135 -3.46715 2.29698 0
M  V30 1499 H 139.712 -3.69796 0.480117 0
M  V30 1500 N 141.898 -0.863906 -1.31812 0
M  V30 1501 C 142.808 -0.318461 -2.32428 0
M  V30 1502 C 143.824 0.568496 -1.64451 0
M  V30 1503 O 145 0.46666 -1.95919 0
M  V30 1504 C 142.065 0.476355 -3.43412 0
M  V30 1505 C 141.126 -0.43784 -4.27061 0
M  V30 1506 C 140.359 0.319138 -5.32745 0
M  V30 1507 O 140.582 1.54799 -5.48993 0
M  V30 1508 O 139.516 -0.319861 -6.01049 0
M  V30 1509 H 143.342 -1.15229 -2.80991 0
M  V30 1510 H 140.927 -0.627103 -1.35602 0
M  V30 1511 H 142.809 0.927156 -4.11074 0
M  V30 1512 H 141.484 1.28683 -2.97022 0
M  V30 1513 H 140.391 -0.937013 -3.62175 0
M  V30 1514 H 141.724 -1.21375 -4.77 0
M  V30 1515 N 143.376 1.44774 -0.622745 0
M  V30 1516 C 144.286 2.34433 0.0886031 0
M  V30 1517 C 145.302 1.52131 0.844529 0
M  V30 1518 O 146.478 1.84886 0.798691 0
M  V30 1519 C 143.543 3.29986 1.0635 0
M  V30 1520 C 142.604 4.28195 0.307873 0
M  V30 1521 C 141.837 5.19183 1.23633 0
M  V30 1522 O 142.06 5.13918 2.47476 0
M  V30 1523 O 140.994 5.97515 0.725189 0
M  V30 1524 H 144.82 2.96693 -0.648599 0
M  V30 1525 H 142.405 1.44408 -0.382957 0
M  V30 1526 H 144.287 3.88825 1.6246 0
M  V30 1527 H 142.962 2.70269 1.78146 0
M  V30 1528 H 141.869 3.72927 -0.296064 0
M  V30 1529 H 143.202 4.90808 -0.3699 0
M  V30 1530 N 144.854 0.36279 1.53368 0
M  V30 1531 C 145.764 -0.492994 2.29362 0
M  V30 1532 C 146.78 -1.09507 1.35219 0
M  V30 1533 O 147.956 -1.10662 1.68273 0
M  V30 1534 C 145.021 -1.61855 3.066 0
M  V30 1535 C 144.082 -1.04429 4.16405 0
M  V30 1536 C 143.315 -2.11621 4.89951 0
M  V30 1537 O 143.538 -3.32684 4.63333 0
M  V30 1538 O 142.472 -1.74835 5.75948 0
M  V30 1539 H 146.298 0.125331 3.03441 0
M  V30 1540 H 143.883 0.127253 1.48857 0
M  V30 1541 H 145.765 -2.27302 3.54841 0
M  V30 1542 H 144.44 -2.22233 2.3536 0
M  V30 1543 H 143.347 -0.353819 3.72423 0
M  V30 1544 H 144.68 -0.485113 4.89804 0
M  V30 1545 N 146.332 -1.57332 0.0918853 0
M  V30 1546 C 147.748 -1.57389 -0.264766 0
M  V30 1547 C 147.948 -1.10281 -1.68643 0
M  V30 1548 O 147.004 -0.777801 -2.40222 0
M  V30 1549 C 148.317 -3.00648 -0.0561195 0
M  V30 1550 C 149.865 -3.12754 -0.124116 0
M  V30 1551 C 150.34 -4.57965 0.0564972 0
M  V30 1552 N 151.831 -4.632 0.00155611 0
M  V30 1553 C 152.566 -5.73281 0.116598 0
M  V30 1554 N 152.062 -6.92208 0.286294 0
M  V30 1555 N 153.855 -5.6207 0.0580973 0
M  V30 1556 H 146.006 -1.86262 1.02079 0
M  V30 1557 H 148.269 -0.859579 0.399786 0
M  V30 1558 H 147.975 -3.393 0.925669 0
M  V30 1559 H 147.849 -3.68623 -0.799823 0
M  V30 1560 H 150.236 -2.73976 -1.09641 0
M  V30 1561 H 150.317 -2.47377 0.651024 0
M  V30 1562 H 149.961 -4.97436 1.02564 0
M  V30 1563 H 149.891 -5.21399 -0.738297 0
M  V30 1564 H 152.382 -3.77686 -0.127192 0
M  V30 1565 H 152.695 -7.71934 0.365676 0
M  V30 1566 H 151.04 -6.94254 0.32192 0
M  V30 1567 H 154.231 -4.68043 -0.0733204 0
M  V30 1568 H 154.404 -6.47824 0.151203 0
M  V30 1569 N 147.81 0.181792 -1.56548 0
M  V30 1570 C 148.757 1.22521 -1.95595 0
M  V30 1571 C 149.727 1.4454 -0.818373 0
M  V30 1572 O 150.912 1.57454 -1.07763 0
M  V30 1573 C 148.052 2.56193 -2.31212 0
M  V30 1574 C 147.165 2.41641 -3.58097 0
M  V30 1575 C 146.3 3.68108 -3.82975 0
M  V30 1576 C 145.339 3.48445 -5.03242 0
M  V30 1577 N 144.476 4.66956 -5.24306 0
M  V30 1578 H 149.316 0.885226 -2.84548 0
M  V30 1579 H 146.853 0.425718 -1.40805 0
M  V30 1580 H 148.811 3.34088 -2.49882 0
M  V30 1581 H 147.441 2.88208 -1.45382 0
M  V30 1582 H 146.493 1.54976 -3.474 0
M  V30 1583 H 147.805 2.23052 -4.46149 0
M  V30 1584 H 146.959 4.54441 -4.01956 0
M  V30 1585 H 145.698 3.89666 -2.93278 0
M  V30 1586 H 144.703 2.60499 -4.8417 0
M  V30 1587 H 145.928 3.2832 -5.9446 0
M  V30 1588 H 143.874 4.88752 -4.37559 0
M  V30 1589 H 143.791 4.51242 -6.06561 0
M  V30 1590 H 145.059 5.54602 -5.47756 0
M  V30 1591 N 149.288 1.51039 0.449983 0
M  V30 1592 C 150.251 1.70863 1.5277 0
M  V30 1593 C 151.251 0.578846 1.5002 0
M  V30 1594 O 152.441 0.846213 1.52266 0
M  V30 1595 C 149.573 1.75341 2.9235 0
M  V30 1596 H 150.766 2.67034 1.36502 0
M  V30 1597 H 148.319 1.40838 0.677812 0
M  V30 1598 H 149.054 0.809383 3.14037 0
M  V30 1599 H 148.839 2.57436 2.95752 0
M  V30 1600 H 150.329 1.92559 3.70555 0
M  V30 1601 N 150.766 -0.704594 1.40972 0
M  V30 1602 C 152.013 -1.46458 1.39844 0
M  V30 1603 C 152.341 -1.94499 0.00447594 0
M  V30 1604 O 151.596 -1.69275 -0.982057 0
M  V30 1605 C 151.895 -2.698 2.34399 0
M  V30 1606 C 151.561 -2.40464 3.81429 0
M  V30 1607 C 150.223 -2.32174 4.21484 0
M  V30 1608 C 152.575 -2.16086 4.74296 0
M  V30 1609 C 149.903 -1.97589 5.52427 0
M  V30 1610 C 152.255 -1.83011 6.05549 0
M  V30 1611 C 150.919 -1.7321 6.44635 0
M  V30 1612 H 150.189 -0.535927 0.511725 0
M  V30 1613 H 152.836 -0.806124 1.73706 0
M  V30 1614 H 151.141 -3.40536 1.93759 0
M  V30 1615 H 152.838 -3.27919 2.30804 0
M  V30 1616 H 149.428 -2.47808 3.49699 0
M  V30 1617 H 153.612 -2.2144 4.4416 0
M  V30 1618 H 148.868 -1.88547 5.81601 0
M  V30 1619 H 153.042 -1.63164 6.77016 0
M  V30 1620 H 150.669 -1.46179 7.46013 0
M  V30 1621 N 152.244 -1.26651 -0.937939 0
M  V30 1622 C 153.191 -1.0849 -2.03712 0
M  V30 1623 C 154.161 0.011033 -1.66096 0
M  V30 1624 O 155.346 -0.149353 -1.90215 0
M  V30 1625 C 152.486 -0.72735 -3.37348 0
M  V30 1626 C 151.599 -1.89986 -3.87981 0
M  V30 1627 C 150.734 -1.48513 -5.10017 0
M  V30 1628 C 149.773 -2.62575 -5.5292 0
M  V30 1629 N 148.91 -2.21762 -6.66158 0
M  V30 1630 H 153.75 -2.02551 -2.18579 0
M  V30 1631 H 151.287 -1.00844 -1.07093 0
M  V30 1632 H 153.245 -0.50092 -4.14182 0
M  V30 1633 H 151.875 0.176298 -3.22318 0
M  V30 1634 H 150.927 -2.23913 -3.07518 0
M  V30 1635 H 152.239 -2.75586 -4.15757 0
M  V30 1636 H 151.393 -1.21934 -5.94321 0
M  V30 1637 H 150.132 -0.60009 -4.83994 0
M  V30 1638 H 149.137 -2.8988 -4.67172 0
M  V30 1639 H 150.362 -3.51685 -5.80943 0
M  V30 1640 H 148.308 -1.35696 -6.41812 0
M  V30 1641 H 148.225 -3.00903 -6.93537 0
M  V30 1642 H 149.493 -1.98403 -7.53828 0
M  V30 1643 N 153.722 1.14298 -1.08507 0
M  V30 1644 C 155.133 1.66926 -0.836227 0
M  V30 1645 C 155.484 1.85576 0.63686 0
M  V30 1646 O 154.609 1.56767 1.49175 0
M  V30 1647 C 155.204 3.03219 -1.51142 0
M  V30 1648 C 153.763 3.52876 -1.30979 0
M  V30 1649 C 152.91 2.2833 -1.57356 0
M  V30 1650 H 155.861 0.983491 -1.24552 0
M  V30 1651 H 155.882 3.68726 -0.939211 0
M  V30 1652 H 155.394 2.89612 -2.58353 0
M  V30 1653 H 153.495 3.71703 -0.258429 0
M  V30 1654 H 153.608 4.33586 -2.03814 0
M  V30 1655 H 151.972 2.34454 -0.995164 0
M  V30 1656 H 152.755 2.17298 -2.65775 0
M  V30 1657 N 155.201 0.870884 1.31352 0
M  V30 1658 C 156.426 0.495957 2.01383 0
M  V30 1659 C 156.851 -0.904324 1.64935 0
M  V30 1660 O 156.209 -1.59687 0.858466 0
M  V30 1661 C 156.257 0.661433 3.54482 0
M  V30 1662 O 155.361 -0.298851 4.11316 0
M  V30 1663 H 154.702 0.197158 0.634054 0
M  V30 1664 H 157.232 1.17455 1.67527 0
M  V30 1665 H 157.242 0.555072 4.04207 0
M  V30 1666 H 155.917 1.68246 3.8035 0
M  V30 1667 H 154.494 -0.147368 3.72609 0
M  V30 1668 N 156.679 -1.44442 0.630414 0
M  V30 1669 C 158.09 -1.85434 0.217063 0
M  V30 1670 C 158.441 -1.52748 -1.23136 0
M  V30 1671 O 157.566 -0.965205 -1.93682 0
M  V30 1672 C 158.161 -3.36581 0.387168 0
M  V30 1673 C 156.72 -3.76389 0.0283297 0
M  V30 1674 C 155.867 -2.68296 0.700889 0
M  V30 1675 H 158.818 -1.34919 0.83562 0
M  V30 1676 H 158.839 -3.78657 -0.374086 0
M  V30 1677 H 158.351 -3.60339 1.44144 0
M  V30 1678 H 156.452 -3.58246 -1.02423 0
M  V30 1679 H 156.565 -4.77095 0.437892 0
M  V30 1680 H 154.929 -2.54335 0.136267 0
M  V30 1681 H 155.712 -2.94887 1.75774 0
M  V30 1682 N 158.157 -0.370918 -1.53173 0
M  V30 1683 C 159.385 0.217704 -2.05751 0
M  V30 1684 C 159.8 1.42018 -1.24404 0
M  V30 1685 O 159.157 1.80245 -0.286033 0
M  V30 1686 C 159.208 0.605954 -3.56385 0
M  V30 1687 O 158.929 -0.548734 -4.3465 0
M  V30 1688 C 160.43 1.2524 -4.25241 0
M  V30 1689 H 157.65 0.0371659 -0.66997 0
M  V30 1690 H 160.194 -0.530832 -1.9749 0
M  V30 1691 H 158.349 1.3044 -3.6478 0
M  V30 1692 H 158.763 -0.23376 -5.23979 0
M  V30 1693 H 160.237 1.47458 -5.3194 0
M  V30 1694 H 160.714 2.2143 -3.79296 0
M  V30 1695 H 161.32 0.595233 -4.21114 0
M  V30 1696 N 159.635 1.57281 -0.100228 0
M  V30 1697 C 160.598 2.13158 0.842398 0
M  V30 1698 C 161.598 1.06202 1.20738 0
M  V30 1699 O 162.788 1.32066 1.13597 0
M  V30 1700 C 159.92 2.65639 2.13655 0
M  V30 1701 H 161.113 2.97766 0.357114 0
M  V30 1702 H 158.666 1.5559 0.148823 0
M  V30 1703 H 159.401 1.84566 2.66657 0
M  V30 1704 H 159.186 3.43844 1.88451 0
M  V30 1705 H 160.676 3.08846 2.81077 0
M  V30 1706 N 161.113 -0.173488 1.56642 0
M  V30 1707 C 162.343 -0.904781 1.85734 0
M  V30 1708 C 162.751 -1.76431 0.68328 0
M  V30 1709 O 162.094 -1.802 -0.356865 0
M  V30 1710 C 162.156 -1.83382 3.09211 0
M  V30 1711 C 161.82 -1.15411 4.42187 0
M  V30 1712 C 162.817 -0.520609 5.17287 0
M  V30 1713 C 160.502 -1.15151 4.88923 0
M  V30 1714 C 162.496 0.106412 6.37311 0
M  V30 1715 C 160.183 -0.520664 6.08878 0
M  V30 1716 C 161.181 0.107196 6.82916 0
M  V30 1717 O 160.869 0.728102 8.00596 0
M  V30 1718 H 160.601 -0.268408 0.62043 0
M  V30 1719 H 163.155 -0.179096 2.04618 0
M  V30 1720 H 161.385 -2.59976 2.86268 0
M  V30 1721 H 163.074 -2.43476 3.24768 0
M  V30 1722 H 163.84 -0.514606 4.82262 0
M  V30 1723 H 159.719 -1.62961 4.31236 0
M  V30 1724 H 163.263 0.597081 6.9504 0
M  V30 1725 H 159.16 -0.524242 6.43368 0
M  V30 1726 H 159.928 0.627138 8.16094 0
M  V30 1727 N 162.591 -1.51276 -0.441967 0
M  V30 1728 C 163.816 -1.67799 -1.21895 0
M  V30 1729 C 164.241 -0.372864 -1.84367 0
M  V30 1730 O 163.599 0.666501 -1.68604 0
M  V30 1731 C 163.647 -2.79199 -2.28211 0
M  V30 1732 O 162.751 -2.42479 -3.33583 0
M  V30 1733 H 162.092 -0.559649 -0.357336 0
M  V30 1734 H 164.622 -1.97815 -0.522522 0
M  V30 1735 H 164.632 -3.03146 -2.73069 0
M  V30 1736 H 163.307 -3.73906 -1.82118 0
M  V30 1737 H 161.884 -2.29087 -2.94234 0
M  V30 1738 N 164.069 0.697108 -1.41344 0
M  V30 1739 C 165.299 1.48377 -1.43763 0
M  V30 1740 C 165.707 1.89156 -0.0408726 0
M  V30 1741 O 165.05 1.57239 0.949812 0
M  V30 1742 C 165.112 2.7781 -2.2817 0
M  V30 1743 C 164.776 2.59244 -3.76353 0
M  V30 1744 C 165.773 2.25292 -4.68551 0
M  V30 1745 C 163.458 2.74933 -4.20378 0
M  V30 1746 C 165.452 2.07264 -6.02761 0
M  V30 1747 C 163.139 2.56521 -5.54653 0
M  V30 1748 C 164.137 2.22737 -6.4566 0
M  V30 1749 O 163.825 2.04485 -7.77458 0
M  V30 1750 H 163.557 0.463842 -0.491759 0
M  V30 1751 H 166.111 0.865934 -1.86255 0
M  V30 1752 H 164.341 3.41995 -1.8049 0
M  V30 1753 H 166.03 3.39608 -2.22309 0
M  V30 1754 H 166.796 2.12787 -4.35829 0
M  V30 1755 H 162.675 3.00213 -3.49848 0
M  V30 1756 H 166.219 1.80817 -6.73759 0
M  V30 1757 H 162.116 2.68616 -5.86955 0
M  V30 1758 H 162.884 2.1926 -7.88586 0
M  V30 1759 N 165.547 1.27147 0.931209 0
M  V30 1760 C 166.775 1.16082 1.71267 0
M  V30 1761 C 167.19 -0.282772 1.8667 0
M  V30 1762 O 166.547 -1.19283 1.38122 0
M  V30 1763 C 166.598 1.8358 3.11417 0
M  V30 1764 O 166.319 3.22299 2.96741 0
M  V30 1765 C 167.82 1.78597 4.05732 0
M  V30 1766 H 165.04 0.403758 0.535929 0
M  V30 1767 H 167.584 1.67953 1.16671 0
M  V30 1768 H 165.739 1.35623 3.62885 0
M  V30 1769 H 166.153 3.55851 3.85319 0
M  V30 1770 H 167.627 2.30444 5.01597 0
M  V30 1771 H 168.104 0.754564 4.3267 0
M  V30 1772 H 168.71 2.26152 3.60188 0
M  V30 1773 N 167.025 -1.13721 1.09112 0
M  V30 1774 C 168.25 -1.89314 0.847053 0
M  V30 1775 C 168.675 -1.78416 -0.595774 0
M  V30 1776 O 168.033 -1.12942 -1.41823 0
M  V30 1777 C 168.081 -3.3701 1.28284 0
M  V30 1778 O 167.185 -4.10054 0.439267 0
M  V30 1779 H 166.526 -0.588745 0.307044 0
M  V30 1780 H 169.056 -1.43902 1.45442 0
M  V30 1781 H 169.066 -3.87834 1.26683 0
M  V30 1782 H 167.741 -3.4426 2.33363 0
M  V30 1783 H 166.318 -3.69266 0.519312 0
M  V30 1784 N 168.503 -0.877838 -1.30888 0
M  V30 1785 C 169.453 -0.310872 -2.25871 0
M  V30 1786 C 170.437 0.556596 -1.50966 0
M  V30 1787 O 171.629 0.402187 -1.7237 0
M  V30 1788 C 168.758 0.479821 -3.3993 0
M  V30 1789 C 167.844 -0.401333 -4.22197 0
M  V30 1790 N 168.235 -1.49848 -4.83093 0
M  V30 1791 C 166.533 -0.195167 -4.45573 0
M  V30 1792 C 167.234 -2.0425 -5.44662 0
M  V30 1793 N 166.21 -1.33843 -5.26865 0
M  V30 1794 H 170.012 -1.1493 -2.70496 0
M  V30 1795 H 167.526 -0.726458 -1.45246 0
M  V30 1796 H 169.523 0.902582 -4.07012 0
M  V30 1797 H 168.183 1.31577 -2.96846 0
M  V30 1798 H 169.194 -1.88137 -4.82519 0
M  V30 1799 H 165.871 0.604192 -4.13105 0
M  V30 1800 H 167.261 -2.96345 -6.03017 0
M  V30 1801 N 169.982 1.44106 -0.638065 0
M  V30 1802 C 170.915 2.27924 0.112161 0
M  V30 1803 C 171.893 1.38945 0.844574 0
M  V30 1804 O 173.077 1.68386 0.847248 0
M  V30 1805 C 170.204 3.18029 1.16512 0
M  V30 1806 C 169.25 4.23163 0.532458 0
M  V30 1807 S 170.083 5.31131 -0.682666 0
M  V30 1808 C 171.239 6.24805 0.37013 0
M  V30 1809 H 171.472 2.91205 -0.598887 0
M  V30 1810 H 169.005 1.48394 -0.426441 0
M  V30 1811 H 170.963 3.70492 1.76766 0
M  V30 1812 H 169.624 2.53955 1.8484 0
M  V30 1813 H 168.817 4.86252 1.32571 0
M  V30 1814 H 168.419 3.74 0.00437644 0
M  V30 1815 H 170.711 6.66042 1.24071 0
M  V30 1816 H 171.654 7.07741 -0.225349 0
M  V30 1817 H 172.062 5.60154 0.699141 0
M  V30 1818 N 171.46 0.379036 1.52974 0
M  V30 1819 C 172.69 -0.20649 2.05566 0
M  V30 1820 C 173.098 -1.41906 1.25137 0
M  V30 1821 O 172.441 -1.81421 0.288464 0
M  V30 1822 C 172.503 -0.651086 3.53555 0
M  V30 1823 C 172.167 0.446626 4.54812 0
M  V30 1824 C 173.164 1.30079 5.03364 0
M  V30 1825 C 170.849 0.610719 4.98573 0
M  V30 1826 C 172.843 2.30426 5.94292 0
M  V30 1827 C 170.53 1.61754 5.89304 0
M  V30 1828 C 171.528 2.46274 6.37054 0
M  V30 1829 O 171.216 3.45237 7.25994 0
M  V30 1830 H 170.948 -0.0372381 0.674974 0
M  V30 1831 H 173.502 0.539718 1.98182 0
M  V30 1832 H 171.732 -1.44911 3.58522 0
M  V30 1833 H 173.421 -1.16112 3.88938 0
M  V30 1834 H 174.187 1.18527 4.70294 0
M  V30 1835 H 170.066 -0.0374044 4.60985 0
M  V30 1836 H 173.61 2.96432 6.31485 0
M  V30 1837 H 169.507 1.73348 6.21788 0
M  V30 1838 H 170.275 3.41124 7.44027 0
M  V30 1839 N 172.938 -1.57226 0.108567 0
M  V30 1840 C 174.354 -1.5766 -0.248058 0
M  V30 1841 C 174.554 -1.12063 -1.67464 0
M  V30 1842 O 173.61 -0.803236 -2.39383 0
M  V30 1843 C 174.923 -3.0069 -0.0242287 0
M  V30 1844 C 176.471 -3.12868 -0.0909372 0
M  V30 1845 C 176.946 -4.57879 0.105067 0
M  V30 1846 N 178.437 -4.63172 0.0506846 0
M  V30 1847 C 179.172 -5.73126 0.177396 0
M  V30 1848 N 178.668 -6.91866 0.359696 0
M  V30 1849 N 180.461 -5.61977 0.117709 0
M  V30 1850 H 172.612 -1.85169 1.04049 0
M  V30 1851 H 174.875 -0.85529 0.40888 0
M  V30 1852 H 174.581 -3.38299 0.961604 0
M  V30 1853 H 174.455 -3.6945 -0.76068 0
M  V30 1854 H 176.842 -2.75124 -1.06729 0
M  V30 1855 H 176.923 -2.46672 0.677225 0
M  V30 1856 H 176.567 -4.96321 1.07834 0
M  V30 1857 H 176.497 -5.22153 -0.682954 0
M  V30 1858 H 178.988 -3.778 -0.0871266 0
M  V30 1859 H 179.301 -7.71503 0.447529 0
M  V30 1860 H 177.646 -6.93874 0.395536 0
M  V30 1861 H 180.837 -4.68094 -0.0236741 0
M  V30 1862 H 181.01 -6.47627 0.219905 0
M  V30 1863 N 174.416 0.165178 -1.56732 0
M  V30 1864 C 175.641 0.900253 -1.86843 0
M  V30 1865 C 176.066 1.74766 -0.695596 0
M  V30 1866 O 175.424 1.77786 0.35522 0
M  V30 1867 C 175.472 1.74777 -3.15413 0
M  V30 1868 O 174.576 2.85007 -2.98068 0
M  V30 1869 H 173.917 0.251832 -0.614391 0
M  V30 1870 H 176.447 0.161468 -2.03962 0
M  V30 1871 H 176.457 2.14646 -3.46974 0
M  V30 1872 H 175.132 1.12537 -4.00385 0
M  V30 1873 H 173.709 2.48676 -2.77875 0
M  V30 1874 N 175.894 1.51508 0.433938 0
M  V30 1875 C 177.14 1.64588 1.18484 0
M  V30 1876 C 177.473 0.362666 1.90784 0
M  V30 1877 O 176.748 -0.637892 1.83742 0
M  V30 1878 C 177.031 2.85149 2.19913 0
M  V30 1879 C 176.884 4.23456 1.51674 0
M  V30 1880 C 178.203 3.01227 3.20858 0
M  V30 1881 H 175.322 0.598994 0.429389 0
M  V30 1882 H 177.964 1.84002 0.473647 0
M  V30 1883 H 176.114 2.68729 2.80566 0
M  V30 1884 H 177.786 4.51552 0.943322 0
M  V30 1885 H 176.029 4.25998 0.819035 0
M  V30 1886 H 176.7 5.03812 2.2556 0
M  V30 1887 H 179.176 3.16382 2.70263 0
M  V30 1888 H 178.052 3.87141 3.89118 0
M  V30 1889 H 178.313 2.13447 3.8716 0
M  V30 1890 N 177.372 -0.689602 1.41712 0
M  V30 1891 C 178.302 -1.81577 1.46806 0
M  V30 1892 C 179.283 -1.66945 0.326105 0
M  V30 1893 O 180.468 -1.86588 0.538377 0
M  V30 1894 C 177.598 -3.19762 1.35535 0
M  V30 1895 C 176.552 -3.49107 2.47605 0
M  V30 1896 C 175.878 -4.86711 2.21397 0
M  V30 1897 C 177.178 -3.47483 3.89939 0
M  V30 1898 H 178.872 -1.7757 2.41058 0
M  V30 1899 H 176.418 -0.852887 1.16025 0
M  V30 1900 H 178.371 -3.98263 1.3771 0
M  V30 1901 H 177.095 -3.24409 0.377708 0
M  V30 1902 H 175.754 -2.72959 2.44722 0
M  V30 1903 H 175.402 -4.8799 1.21961 0
M  V30 1904 H 175.102 -5.0731 2.96497 0
M  V30 1905 H 176.626 -5.67515 2.25297 0
M  V30 1906 H 178.04 -4.1598 3.94505 0
M  V30 1907 H 176.437 -3.79615 4.64771 0
M  V30 1908 H 177.507 -2.46341 4.17665 0
M  V30 1909 N 178.85 -1.27639 -0.924453 0
M  V30 1910 C 180.075 -1.17101 -1.71179 0
M  V30 1911 C 180.5 0.268134 -1.86179 0
M  V30 1912 O 179.858 1.19415 -1.36418 0
M  V30 1913 C 179.906 -1.86313 -3.08739 0
M  V30 1914 O 179.01 -1.16331 -3.95652 0
M  V30 1915 H 178.351 -0.407091 -0.524569 0
M  V30 1916 H 180.881 -1.68767 -1.15666 0
M  V30 1917 H 180.891 -1.938 -3.59034 0
M  V30 1918 H 179.566 -2.91001 -2.97138 0
M  V30 1919 H 178.143 -1.16935 -3.54091 0
M  V30 1920 N 180.328 1.1314 -1.09713 0
M  V30 1921 C 181.576 1.84119 -0.833338 0
M  V30 1922 C 181.897 1.84097 0.642904 0
M  V30 1923 O 181.167 1.29881 1.46655 0
M  V30 1924 H 179.747 0.681766 -0.305293 0
M  V30 1925 H 182.409 1.37038 -1.38588 0
M  V30 1926 H 181.505 2.88543 -1.18951 0
M  V30 1927 N 181.806 0.884767 1.30421 0
M  V30 1928 C 182.754 0.340869 2.30089 0
M  V30 1929 C 183.748 -0.55201 1.60154 0
M  V30 1930 O 184.954 -0.436467 1.74628 0
M  V30 1931 H 181.329 0.0915739 0.746404 0
M  V30 1932 H 183.3 1.19513 2.73421 0
M  V30 1933 C 182.049 -0.429779 3.45034 0
M  V30 1934 H 181.372 0.248024 3.9903 0
M  V30 1935 H 182.812 -0.775445 4.16849 0
M  V30 1936 C 181.271 -1.62677 2.95022 0
M  V30 1937 O 181.801 -2.72614 2.95033 0
M  V30 1938 N 180.007 -1.46387 2.51036 0
M  V30 1939 H 179.554 -0.569506 2.51226 0
M  V30 1940 H 179.512 -2.26612 2.17932 0
M  V30 1941 N 183.284 -1.43765 0.645699 0
M  V30 1942 C 184.531 -2.01898 0.15604 0
M  V30 1943 C 184.859 -1.50887 -1.22733 0
M  V30 1944 O 184.114 -0.689271 -1.8316 0
M  V30 1945 C 184.413 -3.57238 0.107679 0
M  V30 1946 C 184.079 -4.27564 1.43178 0
M  V30 1947 C 182.741 -4.46492 1.7944 0
M  V30 1948 C 185.093 -4.67454 2.30513 0
M  V30 1949 C 182.421 -5.02573 3.02716 0
M  V30 1950 C 184.773 -5.24901 3.53074 0
M  V30 1951 C 183.437 -5.42046 3.89541 0
M  V30 1952 H 182.707 -0.738797 0.057099 0
M  V30 1953 H 185.354 -1.72341 0.834912 0
M  V30 1954 H 183.659 -3.86293 -0.654618 0
M  V30 1955 H 185.356 -3.99965 -0.287938 0
M  V30 1956 H 181.946 -4.13171 1.13963 0
M  V30 1957 H 186.13 -4.5253 2.0379 0
M  V30 1958 H 181.386 -5.14033 3.31028 0
M  V30 1959 H 185.56 -5.54758 4.20971 0
M  V30 1960 H 183.187 -5.85268 4.85145 0
M  V30 1961 N 184.763 -0.387143 -1.52771 0
M  V30 1962 C 185.726 0.436939 -2.24997 0
M  V30 1963 C 186.726 0.991991 -1.26555 0
M  V30 1964 O 187.916 0.874335 -1.50669 0
M  V30 1965 C 185.048 1.61281 -3.00335 0
M  V30 1966 H 186.241 -0.195365 -2.99263 0
M  V30 1967 H 183.794 -0.139218 -1.55679 0
M  V30 1968 H 184.529 2.2826 -2.30364 0
M  V30 1969 H 184.314 1.22154 -3.72587 0
M  V30 1970 H 185.804 2.19629 -3.5518 0
M  V30 1971 N 186.241 1.57166 -0.116904 0
M  V30 1972 C 187.151 2.18745 0.847812 0
M  V30 1973 C 188.167 1.163 1.29423 0
M  V30 1974 O 189.343 1.48761 1.35765 0
M  V30 1975 C 186.408 2.77307 2.0809 0
M  V30 1976 C 185.469 3.94781 1.68661 0
M  V30 1977 C 184.702 4.50541 2.86091 0
M  V30 1978 O 184.925 4.05202 4.01456 0
M  V30 1979 O 183.859 5.41256 2.63298 0
M  V30 1980 H 187.685 3.01632 0.353778 0
M  V30 1981 H 185.27 1.49005 0.108599 0
M  V30 1982 H 187.152 3.14647 2.80313 0
M  V30 1983 H 185.827 1.97452 2.56504 0
M  V30 1984 H 184.734 3.62214 0.935518 0
M  V30 1985 H 186.067 4.76065 1.24991 0
M  V30 1986 N 187.719 -0.156864 1.56817 0
M  V30 1987 C 188.968 -0.869504 1.81996 0
M  V30 1988 C 189.281 -1.82777 0.696545 0
M  V30 1989 O 190.487 -2.58384 0.833658 0
M  V30 1990 C 188.943 -1.59679 3.22538 0
M  V30 1991 C 188.551 -0.681431 4.42787 0
M  V30 1992 C 190.295 -2.2968 3.56997 0
M  V30 1993 C 188.202 -1.40978 5.74351 0
M  V30 1994 H 187.132 -0.328438 0.678708 0
M  V30 1995 H 189.783 -0.1223 1.83092 0
M  V30 1996 H 188.165 -2.38927 3.158 0
M  V30 1997 H 189.339 0.0751166 4.60739 0
M  V30 1998 H 187.654 -0.0903431 4.16302 0
M  V30 1999 H 190.251 -2.84794 4.52544 0
M  V30 2000 H 190.594 -3.05707 2.82576 0
M  V30 2001 H 191.127 -1.57361 3.65352 0
M  V30 2002 H 187.866 -0.691561 6.51842 0
M  V30 2003 H 187.386 -2.13929 5.60352 0
M  V30 2004 H 189.065 -1.95337 6.16808 0
M  V30 2005 N 189.197 -1.51736 -0.425897 0
M  V30 2006 C 190.127 -1.76827 -1.52494 0
M  V30 2007 C 191.108 -0.618524 -1.58456 0
M  V30 2008 O 192.293 -0.862416 -1.74 0
M  V30 2009 C 189.423 -1.90374 -2.90474 0
M  V30 2010 C 188.377 -3.0588 -2.99369 0
M  V30 2011 C 187.703 -3.04625 -4.3944 0
M  V30 2012 C 189.003 -4.45644 -2.72394 0
M  V30 2013 H 190.697 -2.68855 -1.31748 0
M  V30 2014 H 188.243 -1.29372 -0.632362 0
M  V30 2015 H 190.196 -2.0651 -3.6733 0
M  V30 2016 H 188.92 -0.95004 -3.12477 0
M  V30 2017 H 187.579 -2.89467 -2.24954 0
M  V30 2018 H 187.227 -2.0701 -4.58428 0
M  V30 2019 H 186.927 -3.82195 -4.46319 0
M  V30 2020 H 188.451 -3.22869 -5.18255 0
M  V30 2021 H 189.865 -4.62348 -3.38979 0
M  V30 2022 H 188.262 -5.25006 -2.9067 0
M  V30 2023 H 189.332 -4.54893 -1.67929 0
M  V30 2024 N 190.675 0.682077 -1.42076 0
M  V30 2025 C 191.638 1.77756 -1.44691 0
M  V30 2026 C 192.638 1.5726 -0.335535 0
M  V30 2027 O 193.828 1.63686 -0.596037 0
M  V30 2028 C 190.96 3.16301 -1.27146 0
M  V30 2029 H 192.153 1.76826 -2.42224 0
M  V30 2030 H 189.706 0.891012 -1.28416 0
M  V30 2031 H 190.441 3.22862 -0.305075 0
M  V30 2032 H 190.226 3.32581 -2.07683 0
M  V30 2033 H 191.716 3.96241 -1.31843 0
M  V30 2034 N 192.153 1.28127 0.917671 0
M  V30 2035 C 193.116 1.11744 2.00115 0
M  V30 2036 C 194.116 0.0583052 1.60694 0
M  V30 2037 O 195.306 0.303755 1.71531 0
M  V30 2038 C 192.438 0.704862 3.33533 0
M  V30 2039 H 193.631 2.07966 2.16079 0
M  V30 2040 H 191.184 1.11058 1.09981 0
M  V30 2041 H 191.919 -0.258299 3.2327 0
M  V30 2042 H 191.704 1.4699 3.63505 0
M  V30 2043 H 193.194 0.612768 4.1308 0
M  V30 2044 N 193.631 -1.12557 1.10312 0
M  V30 2045 C 194.561 -2.20341 0.772798 0
M  V30 2046 C 195.542 -1.68198 -0.25365 0
M  V30 2047 O 196.727 -1.93831 -0.119699 0
M  V30 2048 C 193.857 -3.46709 0.202443 0
M  V30 2049 C 192.811 -4.11996 1.15943 0
M  V30 2050 C 192.137 -5.328 0.450345 0
M  V30 2051 C 193.437 -4.5828 2.50552 0
M  V30 2052 H 195.131 -2.48229 1.674 0
M  V30 2053 H 192.677 -1.19308 0.806326 0
M  V30 2054 H 194.63 -4.2138 -0.0407752 0
M  V30 2055 H 193.354 -3.18245 -0.734001 0
M  V30 2056 H 192.013 -3.39305 1.38808 0
M  V30 2057 H 191.661 -5.00602 -0.490531 0
M  V30 2058 H 191.361 -5.7743 1.08851 0
M  V30 2059 H 192.885 -6.10219 0.215642 0
M  V30 2060 H 194.299 -5.2433 2.31843 0
M  V30 2061 H 192.696 -5.13683 3.10242 0
M  V30 2062 H 193.766 -3.72329 3.10643 0
M  V30 2063 N 195.109 -0.891671 -1.2995 0
M  V30 2064 C 196.039 -0.379797 -2.30391 0
M  V30 2065 C 197.02 0.540919 -1.6127 0
M  V30 2066 O 198.205 0.453352 -1.88834 0
M  V30 2067 C 195.335 0.400654 -3.44981 0
M  V30 2068 C 194.289 -0.428905 -4.25846 0
M  V30 2069 C 193.615 0.478557 -5.32554 0
M  V30 2070 C 194.915 -1.67458 -4.94727 0
M  V30 2071 H 196.609 -1.21914 -2.73454 0
M  V30 2072 H 194.155 -0.587675 -1.31462 0
M  V30 2073 H 196.108 0.769434 -4.14316 0
M  V30 2074 H 194.832 1.27371 -3.0074 0
M  V30 2075 H 193.491 -0.779911 -3.58208 0
M  V30 2076 H 193.139 1.34951 -4.84559 0
M  V30 2077 H 192.839 -0.0727433 -5.87555 0
M  V30 2078 H 194.363 0.843705 -6.04743 0
M  V30 2079 H 195.777 -1.376 -5.56542 0
M  V30 2080 H 194.174 -2.16659 -5.59624 0
M  V30 2081 H 195.244 -2.41518 -4.20473 0
M  V30 2082 N 196.587 1.43421 -0.653314 0
M  V30 2083 C 197.998 1.85065 -0.246537 0
M  V30 2084 C 198.349 1.54688 1.2069 0
M  V30 2085 O 197.474 0.995896 1.92122 0
M  V30 2086 C 198.069 3.35922 -0.440666 0
M  V30 2087 C 196.628 3.76297 -0.0882064 0
M  V30 2088 C 195.775 2.67147 -0.743484 0
M  V30 2089 H 198.726 1.33572 -0.856979 0
M  V30 2090 H 198.747 3.79204 0.313798 0
M  V30 2091 H 198.259 3.58 -1.49858 0
M  V30 2092 H 196.36 3.5983 0.96711 0
M  V30 2093 H 196.473 4.76338 -0.513738 0
M  V30 2094 H 194.837 2.54086 -0.176712 0
M  V30 2095 H 195.62 2.92053 -1.80443 0
M  V30 2096 N 198.065 0.39524 1.52563 0
M  V30 2097 C 199.305 -0.184744 2.03563 0
M  V30 2098 C 199.669 -1.43548 1.27507 0
M  V30 2099 O 200.87 -2.093 1.68662 0
M  V30 2100 C 199.141 -0.440294 3.54678 0
M  V30 2101 S 200.7 -0.989712 4.27493 0
M  V30 2102 H 197.518 -0.0515075 0.709132 0
M  V30 2103 H 200.12 0.544957 1.87751 0
M  V30 2104 H 198.824 0.477005 4.07618 0
M  V30 2105 H 198.355 -1.19825 3.74707 0
M  V30 2106 H 200.37 -2.27155 4.41152 0
M  V30 2107 N 199.544 -1.57102 0.125237 0
M  V30 2108 C 200.774 -1.99472 -0.538015 0
M  V30 2109 C 201.182 -1.00395 -1.60366 0
M  V30 2110 O 200.525 0.0103875 -1.83697 0
M  V30 2111 C 200.587 -3.38262 -1.21734 0
M  V30 2112 C 200.251 -4.56021 -0.298897 0
M  V30 2113 C 201.248 -5.17817 0.464943 0
M  V30 2114 C 198.933 -5.01869 -0.208149 0
M  V30 2115 C 200.927 -6.23852 1.3072 0
M  V30 2116 C 198.614 -6.07763 0.637736 0
M  V30 2117 C 199.612 -6.68622 1.39403 0
M  V30 2118 O 199.3 -7.7247 2.22586 0
M  V30 2119 H 199.032 -0.659934 -0.146501 0
M  V30 2120 H 201.586 -2.04321 0.210267 0
M  V30 2121 H 199.816 -3.30185 -2.01282 0
M  V30 2122 H 201.505 -3.6488 -1.77813 0
M  V30 2123 H 202.271 -4.83308 0.404741 0
M  V30 2124 H 198.15 -4.54241 -0.786522 0
M  V30 2125 H 201.694 -6.71284 1.898 0
M  V30 2126 H 197.591 -6.41701 0.699309 0
M  V30 2127 H 198.359 -7.89595 2.15596 0
M  V30 2128 N 201.022 0.148545 -1.56898 0
M  V30 2129 C 202.268 0.857877 -1.84424 0
M  V30 2130 C 202.623 1.7886 -0.709006 0
M  V30 2131 O 201.916 1.89344 0.293139 0
M  V30 2132 C 202.11 1.67064 -3.1595 0
M  V30 2133 C 201.939 0.82011 -4.42159 0
M  V30 2134 C 200.709 0.486328 -5.02954 0
M  V30 2135 C 202.907 0.151155 -5.14078 0
M  V30 2136 N 200.889 -0.377956 -6.12735 0
M  V30 2137 C 202.26 -0.573333 -6.17343 0
M  V30 2138 C 204.315 0.0716685 -4.97848 0
M  V30 2139 C 203.018 -1.3698 -7.06137 0
M  V30 2140 C 205.044 -0.711532 -5.87104 0
M  V30 2141 C 204.406 -1.42431 -6.8985 0
M  V30 2142 H 200.505 0.291798 -0.725519 0
M  V30 2143 H 203.089 0.123347 -1.94309 0
M  V30 2144 H 201.26 2.37642 -3.07215 0
M  V30 2145 H 202.992 2.32302 -3.31388 0
M  V30 2146 H 199.747 0.821753 -4.66416 0
M  V30 2147 H 200.171 -0.801077 -6.72244 0
M  V30 2148 H 204.813 0.608381 -4.184 0
M  V30 2149 H 202.531 -1.91778 -7.85014 0
M  V30 2150 H 206.117 -0.775005 -5.76615 0
M  V30 2151 H 204.997 -2.02061 -7.57721 0
M  V30 2152 N 202.5 1.5196 0.417844 0
M  V30 2153 C 203.43 1.77634 1.51554 0
M  V30 2154 C 204.411 0.626918 1.58126 0
M  V30 2155 O 205.596 0.871632 1.7354 0
M  V30 2156 C 202.726 1.91911 2.8946 0
M  V30 2157 C 201.68 3.07463 2.97743 0
M  V30 2158 C 201.006 3.06951 4.37819 0
M  V30 2159 C 202.306 4.47082 2.70027 0
M  V30 2160 H 204 2.6955 1.3032 0
M  V30 2161 H 201.546 1.29706 0.625492 0
M  V30 2162 H 203.499 2.08455 3.6623 0
M  V30 2163 H 202.223 0.966598 3.11969 0
M  V30 2164 H 200.882 2.90656 2.23416 0
M  V30 2165 H 200.53 2.09438 4.57323 0
M  V30 2166 H 200.23 3.84556 4.44286 0
M  V30 2167 H 201.754 3.25613 5.16535 0
M  V30 2168 H 203.168 4.6414 3.36522 0
M  V30 2169 H 201.565 5.2654 2.87881 0
M  V30 2170 H 202.635 4.55777 1.65514 0
M  V30 2171 N 203.978 -0.674533 1.42435 0
M  V30 2172 C 205.208 -1.46071 1.46105 0
M  V30 2173 C 205.616 -1.89067 0.0709605 0
M  V30 2174 O 204.959 -1.58731 -0.924677 0
M  V30 2175 C 205.021 -2.74145 2.32561 0
M  V30 2176 C 204.685 -2.53224 3.8043 0
M  V30 2177 C 205.682 -2.17809 4.72075 0
M  V30 2178 C 203.367 -2.6821 4.24698 0
M  V30 2179 C 205.361 -1.97648 6.05982 0
M  V30 2180 C 203.048 -2.47665 5.58664 0
M  V30 2181 C 204.046 -2.12437 6.49122 0
M  V30 2182 O 203.734 -1.9209 7.80613 0
M  V30 2183 H 203.466 -0.455959 0.499076 0
M  V30 2184 H 206.02 -0.836193 1.87609 0
M  V30 2185 H 204.25 -3.3908 1.85908 0
M  V30 2186 H 205.939 -3.36028 2.27683 0
M  V30 2187 H 206.705 -2.05826 4.39159 0
M  V30 2188 H 202.584 -2.94609 3.54579 0
M  V30 2189 H 206.128 -1.70075 6.7655 0
M  V30 2190 H 202.025 -2.59244 5.91154 0
M  V30 2191 H 202.793 -2.06686 7.91974 0
M  V30 2192 N 205.456 -1.28612 -0.910864 0
M  V30 2193 C 206.686 -1.1862 -1.69153 0
M  V30 2194 C 207.094 0.257324 -1.87442 0
M  V30 2195 O 206.437 1.18543 -1.40332 0
M  V30 2196 C 206.499 -1.81606 -3.10257 0
M  V30 2197 C 206.163 -3.30864 -3.15243 0
M  V30 2198 C 207.16 -4.27256 -2.96223 0
M  V30 2199 C 204.845 -3.71871 -3.37664 0
M  V30 2200 C 206.839 -5.62631 -2.99541 0
M  V30 2201 C 204.526 -5.07371 -3.40614 0
M  V30 2202 C 205.524 -6.02561 -3.21573 0
M  V30 2203 O 205.212 -7.35589 -3.2429 0
M  V30 2204 H 204.944 -0.412633 -0.535453 0
M  V30 2205 H 207.498 -1.70306 -1.14827 0
M  V30 2206 H 205.728 -1.24418 -3.66138 0
M  V30 2207 H 207.417 -1.66092 -3.70362 0
M  V30 2208 H 208.183 -3.9691 -2.78725 0
M  V30 2209 H 204.062 -2.98241 -3.5153 0
M  V30 2210 H 207.606 -6.36907 -2.84597 0
M  V30 2211 H 203.503 -5.37366 -3.57642 0
M  V30 2212 H 204.271 -7.44252 -3.40633 0
M  V30 2213 N 206.934 1.1197 -1.10907 0
M  V30 2214 C 207.844 2.21433 -0.774896 0
M  V30 2215 C 208.86 1.72478 0.229657 0
M  V30 2216 O 210.036 2.01288 0.0672008 0
M  V30 2217 C 207.101 3.4602 -0.216986 0
M  V30 2218 C 206.162 4.09791 -1.27944 0
M  V30 2219 C 205.395 5.28431 -0.748055 0
M  V30 2220 O 205.618 5.68823 0.423833 0
M  V30 2221 O 204.552 5.82644 -1.51027 0
M  V30 2222 H 208.378 2.5242 -1.68873 0
M  V30 2223 H 205.963 1.20399 -0.884555 0
M  V30 2224 H 207.845 4.21304 0.090059 0
M  V30 2225 H 206.52 3.16698 0.669633 0
M  V30 2226 H 205.427 3.36265 -1.63941 0
M  V30 2227 H 206.76 4.4328 -2.13925 0
M  V30 2228 N 208.412 0.89855 1.29475 0
M  V30 2229 C 209.658 0.524658 1.95896 0
M  V30 2230 C 209.991 -0.926468 1.70676 0
M  V30 2231 O 209.266 -1.65665 1.01908 0
M  V30 2232 C 209.549 0.81633 3.50725 0
M  V30 2233 C 209.402 2.31907 3.85408 0
M  V30 2234 C 210.721 0.302038 4.39062 0
M  V30 2235 H 207.84 0.19209 0.711527 0
M  V30 2236 H 210.482 1.12502 1.53112 0
M  V30 2237 H 208.632 0.305369 3.87298 0
M  V30 2238 H 210.304 2.89949 3.58786 0
M  V30 2239 H 208.547 2.78027 3.32992 0
M  V30 2240 H 209.218 2.47373 4.93468 0
M  V30 2241 H 211.694 0.739551 4.09475 0
M  V30 2242 H 210.57 0.535331 5.46283 0
M  V30 2243 H 210.831 -0.797216 4.34853 0
M  V30 2244 N 209.89 -1.43072 0.660911 0
M  V30 2245 C 211.138 -2.01323 0.177094 0
M  V30 2246 C 211.459 -1.5245 -1.2159 0
M  V30 2247 O 210.729 -0.740322 -1.81373 0
M  V30 2248 H 209.309 -0.744382 0.0624804 0
M  V30 2249 H 211.971 -1.75179 0.854305 0
M  V30 2250 H 211.067 -3.11649 0.167641 0
M  V30 2251 N 211.368 -0.403325 -1.52352 0
M  V30 2252 C 212.278 0.432009 -2.30588 0
M  V30 2253 C 213.294 1.05884 -1.38075 0
M  V30 2254 O 214.47 1.06161 -1.71148 0
M  V30 2255 C 211.535 1.53669 -3.10784 0
M  V30 2256 C 210.596 0.933525 -4.19027 0
M  V30 2257 C 209.829 1.98557 -4.9539 0
M  V30 2258 O 210.052 3.20283 -4.71991 0
M  V30 2259 O 208.986 1.59504 -5.80381 0
M  V30 2260 H 212.812 -0.205739 -3.03002 0
M  V30 2261 H 210.397 -0.166675 -1.48467 0
M  V30 2262 H 212.279 2.17814 -3.60742 0
M  V30 2263 H 210.954 2.15915 -2.41169 0
M  V30 2264 H 209.861 0.254954 -3.7323 0
M  V30 2265 H 211.194 0.35508 -4.90918 0
M  V30 2266 N 212.846 1.57033 -0.133567 0
M  V30 2267 C 213.793 2.16074 0.811208 0
M  V30 2268 C 214.763 1.08979 1.2535 0
M  V30 2269 O 215.948 1.36958 1.32843 0
M  V30 2270 C 213.088 2.77595 2.05024 0
M  V30 2271 C 212.201 3.99042 1.65498 0
M  V30 2272 C 211.336 4.48603 2.84479 0
M  V30 2273 C 210.375 5.62547 2.41262 0
M  V30 2274 N 209.512 6.06787 3.53206 0
M  V30 2275 H 214.352 2.96477 0.300906 0
M  V30 2276 H 211.889 1.46462 0.136822 0
M  V30 2277 H 213.847 3.11402 2.77642 0
M  V30 2278 H 212.477 1.99859 2.53488 0
M  V30 2279 H 211.529 3.71302 0.826981 0
M  V30 2280 H 212.841 4.81629 1.29748 0
M  V30 2281 H 211.995 4.84395 3.65303 0
M  V30 2282 H 210.734 3.64995 3.23465 0
M  V30 2283 H 209.739 5.26345 1.58874 0
M  V30 2284 H 210.964 6.47931 2.03377 0
M  V30 2285 H 208.91 5.26117 3.91838 0
M  V30 2286 H 208.827 6.84266 3.21427 0
M  V30 2287 H 210.095 6.4722 4.34427 0
M  V30 2288 N 214.325 -0.140222 1.56975 0
M  V30 2289 C 215.255 -1.17456 2.01808 0
M  V30 2290 C 216.236 -1.44415 0.898794 0
M  V30 2291 O 217.421 -1.5522 1.16707 0
M  V30 2292 C 214.551 -2.50607 2.40444 0
M  V30 2293 C 213.505 -2.38155 3.55621 0
M  V30 2294 C 212.831 -3.76078 3.80091 0
M  V30 2295 C 214.131 -1.85991 4.88062 0
M  V30 2296 H 215.825 -0.801743 2.88466 0
M  V30 2297 H 213.371 -0.38422 1.38779 0
M  V30 2298 H 215.324 -3.23197 2.7041 0
M  V30 2299 H 214.048 -2.89737 1.50732 0
M  V30 2300 H 212.707 -1.68016 3.25832 0
M  V30 2301 H 212.355 -4.12656 2.87618 0
M  V30 2302 H 212.055 -3.68606 4.57606 0
M  V30 2303 H 213.579 -4.50206 4.12488 0
M  V30 2304 H 214.993 -2.4838 5.16701 0
M  V30 2305 H 213.39 -1.89393 5.6943 0
M  V30 2306 H 214.46 -0.816023 4.77984 0
M  V30 2307 N 215.803 -1.52179 -0.40978 0
M  V30 2308 C 216.733 -1.78435 -1.5061 0
M  V30 2309 C 217.714 -0.635295 -1.57791 0
M  V30 2310 O 218.899 -0.880823 -1.73076 0
M  V30 2311 C 216.029 -1.93444 -2.88439 0
M  V30 2312 C 214.983 -3.09038 -2.96108 0
M  V30 2313 C 214.309 -3.09268 -4.36185 0
M  V30 2314 C 215.609 -4.48508 -2.67652 0
M  V30 2315 H 217.303 -2.70237 -1.28889 0
M  V30 2316 H 214.849 -1.30036 -0.618605 0
M  V30 2317 H 216.802 -2.10394 -3.65119 0
M  V30 2318 H 215.526 -0.983129 -3.11452 0
M  V30 2319 H 214.185 -2.91837 -2.21872 0
M  V30 2320 H 213.833 -2.11861 -4.56206 0
M  V30 2321 H 213.533 -3.86907 -4.42241 0
M  V30 2322 H 215.057 -3.28348 -5.14801 0
M  V30 2323 H 216.471 -4.65918 -3.34056 0
M  V30 2324 H 214.868 -5.28059 -2.85085 0
M  V30 2325 H 215.938 -4.56649 -1.63095 0
M  V30 2326 N 217.281 0.66697 -1.42791 0
M  V30 2327 C 218.231 1.77313 -1.43332 0
M  V30 2328 C 219.215 1.5801 -0.303586 0
M  V30 2329 O 220.407 1.68356 -0.546385 0
M  V30 2330 C 217.536 3.15822 -1.34578 0
M  V30 2331 C 216.622 3.40721 -2.52528 0
M  V30 2332 N 217.013 3.36162 -3.77927 0
M  V30 2333 C 215.311 3.71387 -2.46956 0
M  V30 2334 C 216.012 3.60762 -4.56318 0
M  V30 2335 N 214.988 3.81908 -3.86843 0
M  V30 2336 H 218.79 1.72193 -2.38174 0
M  V30 2337 H 216.304 0.868114 -1.3725 0
M  V30 2338 H 218.301 3.951 -1.33048 0
M  V30 2339 H 216.961 3.22133 -0.407453 0
M  V30 2340 H 217.972 3.15885 -4.10411 0
M  V30 2341 H 214.649 3.84897 -1.61743 0
M  V30 2342 H 216.039 3.63132 -5.65318 0
M  V30 2343 N 218.759 1.29093 0.90403 0
M  V30 2344 C 219.999 1.18076 1.66845 0
M  V30 2345 C 220.363 -0.26436 1.90171 0
M  V30 2346 O 221.564 -0.497423 2.64157 0
M  V30 2347 C 219.835 1.96722 2.98388 0
M  V30 2348 S 221.394 2.0219 3.89441 0
M  V30 2349 H 218.212 0.421104 0.572881 0
M  V30 2350 H 220.814 1.63322 1.07453 0
M  V30 2351 H 219.518 3.00866 2.7912 0
M  V30 2352 H 219.049 1.52064 3.62823 0
M  V30 2353 H 221.064 1.13545 4.83034 0
M  V30 2354 N 220.237 -1.11381 1.11499 0
M  V30 2355 C 221.514 -1.7955 0.775965 0
M  V30 2356 C 221.894 -1.97859 -0.73588 0
M  V30 2357 O 221.242 -1.56376 -1.66609 0
M  V30 2358 C 221.452 -3.13196 1.53977 0
M  V30 2359 C 222.8 -3.88227 1.71944 0
M  V30 2360 O 223.824 -3.22887 1.50407 0
M  V30 2361 O 222.683 -5.05477 2.07738 0
M  V30 2362 H 219.777 -0.777728 0.28119 0
M  V30 2363 H 222.323 -1.18118 1.21845 0
M  V30 2364 H 221.095 -2.95229 2.56818 0
M  V30 2365 H 220.718 -3.82342 1.09088 0
M  V30 2366 N 221.715 -0.905404 -1.28997 0
M  V30 2367 C 223.126 -0.581953 -1.77398 0
M  V30 2368 C 223.477 0.902552 -1.74208 0
M  V30 2369 O 222.602 1.70584 -1.33154 0
M  V30 2370 C 223.197 -1.04961 -3.22131 0
M  V30 2371 C 221.756 -0.777229 -3.68288 0
M  V30 2372 C 220.903 -1.22109 -2.48967 0
M  V30 2373 H 223.854 -1.08754 -1.15578 0
M  V30 2374 H 223.875 -0.387387 -3.78523 0
M  V30 2375 H 223.387 -2.13008 -3.24421 0
M  V30 2376 H 221.488 0.290383 -3.71467 0
M  V30 2377 H 221.601 -1.37911 -4.58822 0
M  V30 2378 H 219.965 -0.639971 -2.46529 0
M  V30 2379 H 220.748 -2.30972 -2.53982 0
M  V30 2380 N 223.193 1.4272 -0.668489 0
M  V30 2381 C 224.441 2.01226 -0.187769 0
M  V30 2382 C 224.762 1.53092 1.2078 0
M  V30 2383 O 224.032 0.74993 1.80977 0
M  V30 2384 H 222.612 0.744041 -0.0664272 0
M  V30 2385 H 225.274 1.74723 -0.863583 0
M  V30 2386 H 224.37 3.11556 -0.184166 0
M  V30 2387 N 224.671 0.411399 1.52136 0
M  V30 2388 C 225.621 -0.430376 2.23901 0
M  V30 2389 C 226.605 -1.0116 1.25121 0
M  V30 2390 O 227.797 -0.934044 1.50348 0
M  V30 2391 C 224.926 -1.54527 3.06556 0
M  V30 2392 C 224.012 -0.9747 4.12747 0
M  V30 2393 N 224.403 -0.130991 5.0563 0
M  V30 2394 C 222.701 -1.24497 4.28271 0
M  V30 2395 C 223.402 0.186689 5.814 0
M  V30 2396 N 222.378 -0.42304 5.41951 0
M  V30 2397 H 226.18 0.220509 2.93072 0
M  V30 2398 H 223.694 0.221952 1.60876 0
M  V30 2399 H 225.691 -2.16093 3.56524 0
M  V30 2400 H 224.351 -2.19875 2.38925 0
M  V30 2401 H 225.362 0.23349 5.17373 0
M  V30 2402 H 222.039 -1.89787 3.7187 0
M  V30 2403 H 223.429 0.871673 6.66222 0
M  V30 2404 N 226.149 -1.5696 0.141893 0
M  V30 2405 C 227.56 -1.82797 -0.379776 0
M  V30 2406 C 227.911 -1.06033 -1.6508 0
M  V30 2407 O 227.036 -0.304011 -2.14254 0
M  V30 2408 C 227.631 -3.31578 -0.695802 0
M  V30 2409 C 226.19 -3.58014 -1.16201 0
M  V30 2410 C 225.337 -2.76699 -0.182455 0
M  V30 2411 H 228.288 -1.54406 0.366675 0
M  V30 2412 H 228.309 -3.47454 -1.55099 0
M  V30 2413 H 227.821 -3.87421 0.229449 0
M  V30 2414 H 225.922 -3.07553 -2.10338 0
M  V30 2415 H 226.035 -4.66501 -1.09151 0
M  V30 2416 H 224.399 -2.45618 -0.674072 0
M  V30 2417 H 225.182 -3.35311 0.736297 0
M  V30 2418 N 227.627 0.131896 -1.57047 0
M  V30 2419 C 228.876 0.84044 -1.83356 0
M  V30 2420 C 229.189 1.81646 -0.725535 0
M  V30 2421 O 230.395 2.57025 -0.874659 0
M  V30 2422 C 228.851 1.54528 -3.25037 0
M  V30 2423 C 228.459 0.610902 -4.43815 0
M  V30 2424 C 230.203 2.23972 -3.60606 0
M  V30 2425 C 228.11 1.31823 -5.76521 0
M  V30 2426 H 227.04 0.317599 -0.683847 0
M  V30 2427 H 229.691 0.0931561 -1.83263 0
M  V30 2428 H 228.073 2.33873 -3.19561 0
M  V30 2429 H 229.247 -0.148407 -4.60561 0
M  V30 2430 H 227.562 0.0241016 -4.16393 0
M  V30 2431 H 230.159 2.77558 -4.57018 0
M  V30 2432 H 230.502 3.01173 -2.87403 0
M  V30 2433 H 231.035 1.51529 -3.6781 0
M  V30 2434 H 227.774 0.587771 -6.52859 0
M  V30 2435 H 227.294 2.04987 -5.63685 0
M  V30 2436 H 228.973 1.855 -6.19838 0
M  V30 2437 N 229.106 1.52395 0.401703 0
M  V30 2438 C 230.336 1.70429 1.1678 0
M  V30 2439 C 230.744 0.416702 1.84554 0
M  V30 2440 O 230.087 -0.617697 1.73003 0
M  V30 2441 C 230.149 2.78919 2.26814 0
M  V30 2442 C 229.813 4.20437 1.79113 0
M  V30 2443 C 230.81 5.04028 1.27482 0
M  V30 2444 C 228.495 4.66704 1.85722 0
M  V30 2445 C 230.489 6.31961 0.830913 0
M  V30 2446 C 228.176 5.94625 1.40942 0
M  V30 2447 C 229.174 6.77082 0.897128 0
M  V30 2448 O 228.862 8.02607 0.455822 0
M  V30 2449 H 228.594 0.574272 0.356634 0
M  V30 2450 H 231.148 1.99767 0.477724 0
M  V30 2451 H 229.378 2.44973 2.99207 0
M  V30 2452 H 231.067 2.8548 2.88541 0
M  V30 2453 H 231.833 4.69471 1.21744 0
M  V30 2454 H 227.712 4.0262 2.24539 0
M  V30 2455 H 231.256 6.96271 0.430368 0
M  V30 2456 H 227.153 6.28688 1.46362 0
M  V30 2457 H 227.921 8.16453 0.578457 0
M  V30 2458 N 230.584 -0.659388 1.43143 0
M  V30 2459 C 231.516 -1.7849 1.43784 0
M  V30 2460 C 232.529 -1.5932 0.334787 0
M  V30 2461 O 233.718 -1.68155 0.598842 0
M  V30 2462 C 230.818 -3.15828 1.22906 0
M  V30 2463 C 229.991 -3.61711 2.45934 0
M  V30 2464 C 229.05 -4.77831 2.20371 0
M  V30 2465 O 228.076 -4.87586 2.93681 0
M  V30 2466 N 229.278 -5.67611 1.21647 0
M  V30 2467 H 232.043 -1.7842 2.40803 0
M  V30 2468 H 229.604 -0.84302 1.3822 0
M  V30 2469 H 231.596 -3.91189 1.03697 0
M  V30 2470 H 230.166 -3.10707 0.343542 0
M  V30 2471 H 229.386 -2.76861 2.80609 0
M  V30 2472 H 230.674 -3.89112 3.27825 0
M  V30 2473 H 230.072 -5.62397 0.610449 0
M  V30 2474 H 228.629 -6.42719 1.08423 0
M  V30 2475 N 232.062 -1.29571 -0.897171 0
M  V30 2476 C 233.009 -1.14916 -2.00158 0
M  V30 2477 C 233.979 -0.0418149 -1.66047 0
M  V30 2478 O 235.164 -0.209793 -1.89643 0
M  V30 2479 C 232.304 -0.834307 -3.34863 0
M  V30 2480 C 231.417 -2.02234 -3.8174 0
M  V30 2481 C 230.552 -1.64664 -5.05034 0
M  V30 2482 C 229.591 -2.80033 -5.44286 0
M  V30 2483 N 228.728 -2.42843 -6.58765 0
M  V30 2484 H 233.568 -2.09403 -2.12025 0
M  V30 2485 H 231.105 -1.042 -1.0383 0
M  V30 2486 H 233.063 -0.632436 -4.12379 0
M  V30 2487 H 231.693 0.0736656 -3.22716 0
M  V30 2488 H 230.745 -2.33583 -3.00238 0
M  V30 2489 H 232.057 -2.88673 -4.06779 0
M  V30 2490 H 231.211 -1.4078 -5.9014 0
M  V30 2491 H 229.95 -0.753766 -4.8184 0
M  V30 2492 H 228.955 -3.04596 -4.57713 0
M  V30 2493 H 230.18 -3.69989 -5.6946 0
M  V30 2494 H 228.126 -1.56046 -6.3717 0
M  V30 2495 H 228.043 -3.22815 -6.83613 0
M  V30 2496 H 229.311 -2.22285 -7.47134 0
M  V30 2497 N 233.54 1.10788 -1.12088 0
M  V30 2498 C 234.786 1.8313 -0.885148 0
M  V30 2499 C 235.141 1.8336 0.582839 0
M  V30 2500 O 234.434 1.28062 1.42516 0
M  V30 2501 C 234.628 3.29294 -1.38926 0
M  V30 2502 C 234.457 3.43302 -2.90472 0
M  V30 2503 C 233.227 3.55928 -3.58669 0
M  V30 2504 C 235.425 3.37014 -3.88492 0
M  V30 2505 N 233.407 3.58475 -4.98366 0
M  V30 2506 C 234.778 3.46263 -5.14298 0
M  V30 2507 C 236.833 3.20589 -3.80955 0
M  V30 2508 C 235.536 3.4078 -6.33452 0
M  V30 2509 C 237.562 3.16427 -4.99628 0
M  V30 2510 C 236.924 3.26253 -6.2429 0
M  V30 2511 H 233.023 0.685054 -0.377128 0
M  V30 2512 H 235.607 1.3251 -1.4265 0
M  V30 2513 H 233.778 3.78416 -0.874999 0
M  V30 2514 H 235.51 3.89578 -1.09596 0
M  V30 2515 H 232.265 3.58779 -3.09151 0
M  V30 2516 H 232.689 3.6337 -5.71219 0
M  V30 2517 H 237.331 3.11873 -2.85474 0
M  V30 2518 H 235.049 3.48263 -7.29204 0
M  V30 2519 H 238.635 3.04874 -4.95523 0
M  V30 2520 H 237.515 3.2303 -7.14578 0
M  V30 2521 N 235.018 0.912232 1.28515 0
M  V30 2522 C 236.267 0.540504 1.94323 0
M  V30 2523 C 236.58 -0.920044 1.72611 0
M  V30 2524 O 237.786 -1.39986 2.32629 0
M  V30 2525 C 236.242 0.915803 3.48053 0
M  V30 2526 C 235.85 2.39598 3.78546 0
M  V30 2527 C 237.594 0.614588 4.20027 0
M  V30 2528 C 235.501 2.71148 5.25578 0
M  V30 2529 H 234.431 0.198418 0.727424 0
M  V30 2530 H 237.082 1.11094 1.46049 0
M  V30 2531 H 235.464 0.274168 3.9505 0
M  V30 2532 H 236.638 3.08422 3.42364 0
M  V30 2533 H 234.953 2.66749 3.1974 0
M  V30 2534 H 237.55 0.827002 5.28266 0
M  V30 2535 H 237.893 -0.447531 4.13887 0
M  V30 2536 H 238.426 1.21462 3.78803 0
M  V30 2537 H 235.165 3.76207 5.36794 0
M  V30 2538 H 234.685 2.0696 5.62963 0
M  V30 2539 H 236.364 2.58072 5.93302 0
M  V30 2540 N 236.496 -1.42363 0.676048 0
M  V30 2541 C 237.744 -2.01123 0.198437 0
M  V30 2542 C 238.065 -1.53731 -1.19966 0
M  V30 2543 O 237.335 -0.759518 -1.80577 0
M  V30 2544 H 235.915 -0.743678 0.0703721 0
M  V30 2545 H 238.577 -1.74263 0.872837 0
M  V30 2546 H 237.673 -3.11454 0.200686 0
M  V30 2547 N 237.974 -0.419461 -1.51915 0
M  V30 2548 C 239.202 0.152136 -2.0634 0
M  V30 2549 C 239.617 1.37988 -1.28859 0
M  V30 2550 O 238.974 1.79243 -0.343232 0
M  V30 2551 C 239.025 0.492266 -3.58133 0
M  V30 2552 O 238.746 -0.686736 -4.32684 0
M  V30 2553 C 240.247 1.11648 -4.2901 0
M  V30 2554 H 237.467 0.0158325 -0.670813 0
M  V30 2555 H 240.011 -0.593394 -1.95702 0
M  V30 2556 H 238.166 1.18769 -3.68745 0
M  V30 2557 H 238.58 -0.400341 -5.2297 0
M  V30 2558 H 240.054 1.3046 -5.36362 0
M  V30 2559 H 240.531 2.09251 -3.86148 0
M  V30 2560 H 241.137 0.460958 -4.22795 0
M  V30 2561 N 239.452 1.56882 -0.150215 0
M  V30 2562 C 240.682 2.00302 0.506213 0
M  V30 2563 C 241.09 1.02934 1.58749 0
M  V30 2564 O 240.433 0.0188384 1.8369 0
M  V30 2565 C 240.495 3.40156 1.16337 0
M  V30 2566 C 240.159 4.56439 0.226311 0
M  V30 2567 C 241.156 5.17012 -0.547265 0
M  V30 2568 C 238.841 5.02136 0.128279 0
M  V30 2569 C 240.835 6.21693 -1.40629 0
M  V30 2570 C 238.522 6.06672 -0.734345 0
M  V30 2571 C 239.52 6.6632 -1.50023 0
M  V30 2572 O 239.208 7.68831 -2.34848 0
M  V30 2573 H 238.94 0.662182 0.135984 0
M  V30 2574 H 241.494 2.03961 -0.242746 0
M  V30 2575 H 239.724 3.33346 1.96004 0
M  V30 2576 H 241.413 3.67663 1.71985 0
M  V30 2577 H 242.179 4.82603 -0.48158 0
M  V30 2578 H 238.058 4.55435 0.714157 0
M  V30 2579 H 241.602 6.68179 -2.00455 0
M  V30 2580 H 237.499 6.40507 -0.801309 0
M  V30 2581 H 238.267 7.86065 -2.28131 0
M  V30 2582 N 240.93 -0.123565 1.57115 0
M  V30 2583 C 242.178 -0.83051 1.84247 0
M  V30 2584 C 242.499 -1.80629 0.73471 0
M  V30 2585 O 241.769 -1.94403 -0.241688 0
M  V30 2586 H 240.349 -0.309694 0.679778 0
M  V30 2587 H 243.011 -0.111976 1.94578 0
M  V30 2588 H 242.107 -1.37852 2.80006 0
M  V30 2589 N 242.408 -1.52605 -0.393616 0
M  V30 2590 C 243.656 -1.67093 -1.13685 0
M  V30 2591 C 243.977 -0.411011 -1.90619 0
M  V30 2592 O 243.247 0.574491 -1.87287 0
M  V30 2593 H 241.827 -0.615923 -0.422668 0
M  V30 2594 H 244.489 -1.89704 -0.447039 0
M  V30 2595 H 243.585 -2.51922 -1.84232 0
M  V30 2596 N 243.887 0.651787 -1.4349 0
M  V30 2597 C 245.164 1.40909 -1.35661 0
M  V30 2598 C 245.544 2.11099 -0.00511733 0
M  V30 2599 O 244.892 2.04892 1.0115 0
M  V30 2600 C 245.102 2.3926 -2.54078 0
M  V30 2601 C 246.45 3.03217 -2.97228 0
M  V30 2602 O 247.474 2.49588 -2.54135 0
M  V30 2603 O 246.333 4.00455 -3.71885 0
M  V30 2604 H 243.427 0.629625 -0.536191 0
M  V30 2605 H 245.973 0.678575 -1.55542 0
M  V30 2606 H 244.745 1.86352 -3.44076 0
M  V30 2607 H 244.368 3.1976 -2.36303 0
M  V30 2608 N 245.365 1.30045 0.890287 0
M  V30 2609 C 246.611 1.19747 1.64415 0
M  V30 2610 C 246.966 -0.246591 1.90813 0
M  V30 2611 O 246.259 -1.174 1.51419 0
M  V30 2612 C 246.453 1.95409 2.99249 0
M  V30 2613 C 246.282 3.47025 2.86013 0
M  V30 2614 C 245.052 4.1638 2.86279 0
M  V30 2615 C 247.25 4.42353 2.62351 0
M  V30 2616 N 245.232 5.54293 2.63879 0
M  V30 2617 C 246.603 5.67792 2.49022 0
M  V30 2618 C 248.658 4.32009 2.47533 0
M  V30 2619 C 247.361 6.8406 2.22383 0
M  V30 2620 C 249.387 5.48038 2.22279 0
M  V30 2621 C 248.749 6.72455 2.09722 0
M  V30 2622 H 244.848 0.493223 0.60684 0
M  V30 2623 H 247.432 1.6399 1.04954 0
M  V30 2624 H 245.603 1.53565 3.56752 0
M  V30 2625 H 247.335 1.77298 3.63796 0
M  V30 2626 H 244.09 3.68164 2.97913 0
M  V30 2627 H 244.514 6.26852 2.55706 0
M  V30 2628 H 249.156 3.36503 2.55979 0
M  V30 2629 H 246.874 7.79612 2.12675 0
M  V30 2630 H 250.46 5.41939 2.11643 0
M  V30 2631 H 249.34 7.60722 1.90453 0
M  V30 2632 N 246.843 -1.10192 1.12674 0
M  V30 2633 C 248.09 -1.82205 0.883606 0
M  V30 2634 C 248.418 -1.8532 -0.590492 0
M  V30 2635 O 247.673 -1.31137 -1.45264 0
M  V30 2636 C 247.972 -3.28552 1.4067 0
M  V30 2637 C 247.638 -3.45582 2.89627 0
M  V30 2638 C 246.3 -3.49937 3.30299 0
M  V30 2639 C 248.652 -3.50768 3.85501 0
M  V30 2640 C 245.98 -3.57049 4.65546 0
M  V30 2641 C 248.332 -3.59414 5.20581 0
M  V30 2642 C 246.996 -3.62034 5.60792 0
M  V30 2643 H 246.266 -0.666735 0.323334 0
M  V30 2644 H 248.913 -1.29868 1.40736 0
M  V30 2645 H 247.218 -3.83473 0.80347 0
M  V30 2646 H 248.915 -3.82788 1.19475 0
M  V30 2647 H 245.505 -3.42871 2.57172 0
M  V30 2648 H 249.689 -3.46651 3.55171 0
M  V30 2649 H 244.945 -3.57361 4.96088 0
M  V30 2650 H 249.119 -3.62371 5.94693 0
M  V30 2651 H 246.746 -3.67298 6.6558 0
M  V30 2652 N 248.321 -0.919034 -1.28029 0
M  V30 2653 C 249.737 -0.617972 -1.4715 0
M  V30 2654 C 249.937 0.835242 -1.83374 0
M  V30 2655 O 248.993 1.61388 -1.94191 0
M  V30 2656 C 250.306 -1.56041 -2.57044 0
M  V30 2657 C 251.854 -1.56769 -2.7091 0
M  V30 2658 C 252.329 -2.49688 -3.83953 0
M  V30 2659 N 253.82 -2.47845 -3.91314 0
M  V30 2660 C 254.555 -3.16437 -4.78179 0
M  V30 2661 N 254.051 -3.94376 -5.69596 0
M  V30 2662 N 255.844 -3.05498 -4.71834 0
M  V30 2663 H 247.995 -1.85866 -1.02798 0
M  V30 2664 H 250.258 -0.797506 -0.512531 0
M  V30 2665 H 249.964 -2.59671 -2.372 0
M  V30 2666 H 249.838 -1.29551 -3.54255 0
M  V30 2667 H 252.225 -0.538745 -2.90141 0
M  V30 2668 H 252.306 -1.87305 -1.74214 0
M  V30 2669 H 251.95 -3.52688 -3.65477 0
M  V30 2670 H 251.88 -2.16453 -4.80058 0
M  V30 2671 H 254.371 -1.91234 -3.25941 0
M  V30 2672 H 254.684 -4.43721 -6.32718 0
M  V30 2673 H 253.029 -3.98481 -5.69419 0
M  V30 2674 H 256.22 -2.44108 -3.99411 0
M  V30 2675 H 256.393 -3.59225 -5.39316 0
M  V30 2676 N 249.799 1.42003 -0.683588 0
M  V30 2677 C 250.731 2.29183 0.0283068 0
M  V30 2678 C 251.744 1.4415 0.756611 0
M  V30 2679 O 252.933 1.67779 0.609306 0
M  V30 2680 C 250.033 3.21765 1.06398 0
M  V30 2681 C 249.206 4.35496 0.407723 0
M  V30 2682 C 248.265 5.08737 1.34437 0
M  V30 2683 O 247.291 5.62948 0.841318 0
M  V30 2684 N 248.493 5.15075 2.67728 0
M  V30 2685 H 251.258 2.9092 -0.720105 0
M  V30 2686 H 248.819 1.53025 -0.528682 0
M  V30 2687 H 250.811 3.6763 1.69204 0
M  V30 2688 H 249.381 2.61418 1.71404 0
M  V30 2689 H 248.601 3.92165 -0.400012 0
M  V30 2690 H 249.889 5.08776 -0.0490956 0
M  V30 2691 H 249.287 4.72457 3.11129 0
M  V30 2692 H 247.844 5.64556 3.2576 0
M  V30 2693 N 251.277 0.427512 1.51691 0
M  V30 2694 C 252.209 -0.424521 2.25234 0
M  V30 2695 C 253.222 -0.994671 1.2888 0
M  V30 2696 O 254.411 -0.890483 1.54702 0
M  V30 2697 C 251.511 -1.60479 2.98496 0
M  V30 2698 C 250.684 -1.15527 4.21868 0
M  V30 2699 C 249.743 -2.20454 4.77793 0
M  V30 2700 O 248.769 -1.8029 5.39893 0
M  V30 2701 N 249.971 -3.52831 4.60967 0
M  V30 2702 H 252.736 0.205749 2.98993 0
M  V30 2703 H 250.297 0.255867 1.59865 0
M  V30 2704 H 252.289 -2.30276 3.32799 0
M  V30 2705 H 250.859 -2.14061 2.27809 0
M  V30 2706 H 250.079 -0.284736 3.9317 0
M  V30 2707 H 251.367 -0.832173 5.01949 0
M  V30 2708 H 250.765 -3.88201 4.11481 0
M  V30 2709 H 249.322 -4.18551 4.99658 0
M  V30 2710 N 252.755 -1.56801 0.158532 0
M  V30 2711 C 254.001 -1.96781 -0.490405 0
M  V30 2712 C 254.334 -1.04397 -1.63753 0
M  V30 2713 O 253.609 -0.0885805 -1.94298 0
M  V30 2714 C 253.892 -3.4635 -0.985594 0
M  V30 2715 C 253.745 -4.49512 0.160824 0
M  V30 2716 C 255.064 -3.98697 -1.86355 0
M  V30 2717 H 252.183 -0.715482 -0.176788 0
M  V30 2718 H 254.825 -1.88451 0.242088 0
M  V30 2719 H 252.975 -3.53579 -1.60978 0
M  V30 2720 H 254.647 -4.54353 0.797537 0
M  V30 2721 H 252.89 -4.26013 0.818256 0
M  V30 2722 H 253.561 -5.51531 -0.227569 0
M  V30 2723 H 256.037 -3.94019 -1.33746 0
M  V30 2724 H 254.913 -5.03792 -2.17909 0
M  V30 2725 H 255.174 -3.41744 -2.8047 0
M  V30 2726 N 254.233 0.115231 -1.57178 0
M  V30 2727 C 255.143 1.15994 -2.03918 0
M  V30 2728 C 256.159 1.45103 -0.960268 0
M  V30 2729 O 257.335 1.56144 -1.27204 0
M  V30 2730 C 254.4 2.46568 -2.43732 0
M  V30 2731 C 253.461 2.24822 -3.65723 0
M  V30 2732 C 252.694 3.4917 -4.03629 0
M  V30 2733 O 252.917 4.56623 -3.41835 0
M  V30 2734 O 251.851 3.39949 -4.96708 0
M  V30 2735 H 255.677 0.793019 -2.93164 0
M  V30 2736 H 253.262 0.3263 -1.45793 0
M  V30 2737 H 255.144 3.23492 -2.70057 0
M  V30 2738 H 253.819 2.82726 -1.57631 0
M  V30 2739 H 252.726 1.45744 -3.44542 0
M  V30 2740 H 254.059 1.93566 -4.52541 0
M  V30 2741 N 255.711 1.52812 0.385517 0
M  V30 2742 C 256.621 1.80766 1.49535 0
M  V30 2743 C 257.637 0.694651 1.59532 0
M  V30 2744 O 258.813 0.982611 1.75803 0
M  V30 2745 C 255.878 1.97381 2.85029 0
M  V30 2746 C 254.939 3.21295 2.84724 0
M  V30 2747 C 254.172 3.37108 4.13756 0
M  V30 2748 O 254.395 2.5765 5.08893 0
M  V30 2749 O 253.329 4.30378 4.20783 0
M  V30 2750 H 257.155 2.75015 1.28842 0
M  V30 2751 H 254.74 1.37946 0.573697 0
M  V30 2752 H 256.622 2.09996 3.65349 0
M  V30 2753 H 255.297 1.06322 3.05741 0
M  V30 2754 H 254.204 3.1412 2.03174 0
M  V30 2755 H 255.537 4.12212 2.68965 0
M  V30 2756 N 257.189 -0.644168 1.43834 0
M  V30 2757 C 258.121 -1.76955 1.45669 0
M  V30 2758 C 259.134 -1.58956 0.351666 0
M  V30 2759 O 260.323 -1.6751 0.616644 0
M  V30 2760 C 257.423 -3.14507 1.26248 0
M  V30 2761 C 256.596 -3.59083 2.49757 0
M  V30 2762 C 255.655 -4.75467 2.25427 0
M  V30 2763 O 254.681 -4.84444 2.98836 0
M  V30 2764 N 255.883 -5.66289 1.27661 0
M  V30 2765 H 258.648 -1.75856 2.42682 0
M  V30 2766 H 256.209 -0.828312 1.39106 0
M  V30 2767 H 258.201 -3.90067 1.0784 0
M  V30 2768 H 256.771 -3.10325 0.376478 0
M  V30 2769 H 255.991 -2.7387 2.8353 0
M  V30 2770 H 257.279 -3.85613 3.31934 0
M  V30 2771 H 256.677 -5.61718 0.670064 0
M  V30 2772 H 255.234 -6.41533 1.15234 0
M  V30 2773 N 258.668 -1.30515 -0.883378 0
M  V30 2774 C 259.917 -1.18795 -1.63005 0
M  V30 2775 C 260.23 0.255923 -1.93919 0
M  V30 2776 O 261.436 0.494654 -2.66956 0
M  V30 2777 C 259.892 -2.07878 -2.93794 0
M  V30 2778 C 259.5 -3.57184 -2.70414 0
M  V30 2779 C 261.244 -2.04924 -3.71761 0
M  V30 2780 C 259.151 -4.38317 -3.97029 0
M  V30 2781 H 258.081 -0.441031 -0.611562 0
M  V30 2782 H 260.732 -1.55275 -0.977854 0
M  V30 2783 H 259.114 -1.64283 -3.60315 0
M  V30 2784 H 260.288 -4.08937 -2.12384 0
M  V30 2785 H 258.603 -3.61976 -2.0582 0
M  V30 2786 H 261.2 -2.62792 -4.65665 0
M  V30 2787 H 261.543 -1.0331 -4.03277 0
M  V30 2788 H 262.076 -2.46649 -3.12104 0
M  V30 2789 H 258.815 -5.40632 -3.70671 0
M  V30 2790 H 258.335 -3.91326 -4.54559 0
M  V30 2791 H 260.014 -4.49834 -4.65036 0
M  V30 2792 N 260.146 1.09593 -1.13257 0
M  V30 2793 C 261.094 2.18271 -0.803783 0
M  V30 2794 C 262.088 1.68054 0.213148 0
M  V30 2795 O 263.294 1.79862 0.0704699 0
M  V30 2796 H 259.669 0.711949 -0.242143 0
M  V30 2797 H 261.64 2.43235 -1.72856 0
M  V30 2798 C 260.389 3.46536 -0.28424 0
M  V30 2799 H 259.712 3.85545 -1.05807 0
M  V30 2800 H 261.152 4.23899 -0.0925945 0
M  V30 2801 C 259.611 3.22036 0.989684 0
M  V30 2802 O 260.141 3.44509 2.06584 0
M  V30 2803 N 258.347 2.7565 0.920086 0
M  V30 2804 H 257.894 2.57562 0.0442019 0
M  V30 2805 H 257.852 2.59635 1.77306 0
M  V30 2806 N 261.624 0.925811 1.2754 0
M  V30 2807 C 263.04 0.625767 1.46821 0
M  V30 2808 C 263.24 -0.825506 1.83814 0
M  V30 2809 O 262.296 -1.60356 1.95044 0
M  V30 2810 C 263.609 1.57402 2.56213 0
M  V30 2811 C 265.157 1.58204 2.70075 0
M  V30 2812 C 265.632 2.51721 3.82623 0
M  V30 2813 N 267.123 2.49917 3.89994 0
M  V30 2814 C 267.858 3.18968 4.76494 0
M  V30 2815 N 267.354 3.97391 5.67496 0
M  V30 2816 N 269.147 3.07996 4.70208 0
M  V30 2817 H 261.298 1.86409 1.01811 0
M  V30 2818 H 263.561 0.800213 0.508295 0
M  V30 2819 H 263.267 2.60925 2.35819 0
M  V30 2820 H 263.141 1.31428 3.53563 0
M  V30 2821 H 265.528 0.554124 2.89851 0
M  V30 2822 H 265.609 1.88226 1.73218 0
M  V30 2823 H 265.253 3.54622 3.63601 0
M  V30 2824 H 265.183 2.18996 4.78903 0
M  V30 2825 H 267.674 1.9296 3.24923 0
M  V30 2826 H 267.987 4.4707 6.30356 0
M  V30 2827 H 266.332 4.01495 5.67298 0
M  V30 2828 H 269.523 2.46223 3.9811 0
M  V30 2829 H 269.696 3.6208 5.37403 0
M  V30 2830 N 263.102 -1.41638 0.69111 0
M  V30 2831 C 264.349 -2.01299 0.220193 0
M  V30 2832 C 264.677 -1.54715 -1.17871 0
M  V30 2833 O 263.932 -0.747193 -1.80874 0
M  V30 2834 C 264.231 -3.56714 0.221277 0
M  V30 2835 C 263.897 -4.22792 1.56709 0
M  V30 2836 C 262.559 -4.40557 1.93554 0
M  V30 2837 C 264.911 -4.59883 2.45268 0
M  V30 2838 C 262.239 -4.92688 3.18552 0
M  V30 2839 C 264.591 -5.13403 3.69595 0
M  V30 2840 C 263.255 -5.29379 4.06589 0
M  V30 2841 H 262.525 -0.736606 0.0805743 0
M  V30 2842 H 265.172 -1.69598 0.889319 0
M  V30 2843 H 263.477 -3.8818 -0.531391 0
M  V30 2844 H 265.174 -4.00678 -0.160547 0
M  V30 2845 H 261.764 -4.09336 1.2705 0
M  V30 2846 H 265.948 -4.45817 2.18084 0
M  V30 2847 H 261.204 -5.03242 3.47214 0
M  V30 2848 H 265.378 -5.41084 4.38407 0
M  V30 2849 H 263.005 -5.69537 5.03519 0
M  V30 2850 N 264.58 -0.43555 -1.51462 0
M  V30 2851 C 265.857 0.191364 -1.94662 0
M  V30 2852 C 266.237 1.60254 -1.37411 0
M  V30 2853 O 265.585 2.2152 -0.560458 0
M  V30 2854 C 265.795 0.17091 -3.48581 0
M  V30 2855 C 267.143 0.377357 -4.2292 0
M  V30 2856 O 268.167 0.249104 -3.55328 0
M  V30 2857 O 267.026 0.63247 -5.42828 0
M  V30 2858 H 264.12 0.130932 -0.816569 0
M  V30 2859 H 266.666 -0.4934 -1.62369 0
M  V30 2860 H 265.438 -0.815738 -3.82703 0
M  V30 2861 H 265.061 0.898659 -3.87311 0
M  V30 2862 N 266.058 1.56714 -0.166846 0
M  V30 2863 C 266.968 2.21331 0.777791 0
M  V30 2864 C 267.984 1.20358 1.25658 0
M  V30 2865 O 269.16 1.53005 1.30964 0
M  V30 2866 C 266.225 2.83787 1.99163 0
M  V30 2867 C 265.286 3.99947 1.56016 0
M  V30 2868 C 264.519 4.59415 2.71613 0
M  V30 2869 O 264.742 4.17769 3.88362 0
M  V30 2870 O 263.676 5.49359 2.45945 0
M  V30 2871 H 267.502 3.02605 0.257636 0
M  V30 2872 H 265.087 1.49275 0.0611393 0
M  V30 2873 H 266.969 3.23405 2.70161 0
M  V30 2874 H 265.644 2.05513 2.50092 0
M  V30 2875 H 264.551 3.65007 0.819809 0
M  V30 2876 H 265.884 4.79801 1.09782 0
M  V30 2877 N 267.536 -0.106894 1.57237 0
M  V30 2878 C 268.466 -1.13148 2.04254 0
M  V30 2879 C 269.447 -1.42476 0.929224 0
M  V30 2880 O 270.632 -1.52709 1.19973 0
M  V30 2881 C 267.762 -2.4545 2.45706 0
M  V30 2882 C 266.716 -2.30558 3.60592 0
M  V30 2883 C 266.042 -3.67931 3.87983 0
M  V30 2884 C 267.342 -1.75597 4.91897 0
M  V30 2885 H 269.036 -0.740374 2.90101 0
M  V30 2886 H 266.582 -0.354696 1.39563 0
M  V30 2887 H 268.535 -3.17389 2.77205 0
M  V30 2888 H 267.259 -2.86475 1.56843 0
M  V30 2889 H 265.918 -1.61067 3.29322 0
M  V30 2890 H 265.566 -4.06462 2.96306 0
M  V30 2891 H 265.266 -3.58817 4.65322 0
M  V30 2892 H 266.79 -4.41356 4.21945 0
M  V30 2893 H 268.204 -2.37364 5.21854 0
M  V30 2894 H 266.601 -1.77272 5.73319 0
M  V30 2895 H 267.671 -0.714451 4.79608 0
M  V30 2896 N 269.014 -1.53014 -0.377408 0
M  V30 2897 C 269.977 -1.77957 -1.44444 0
M  V30 2898 C 270.977 -0.649763 -1.47087 0
M  V30 2899 O 272.167 -0.917897 -1.48055 0
M  V30 2900 C 269.299 -1.89089 -2.83651 0
M  V30 2901 H 270.492 -2.73243 -1.23606 0
M  V30 2902 H 268.045 -1.43912 -0.609844 0
M  V30 2903 H 268.78 -0.958293 -3.09818 0
M  V30 2904 H 268.565 -2.71254 -2.83132 0
M  V30 2905 H 270.055 -2.1002 -3.60945 0
M  V30 2906 N 270.492 0.636531 -1.44174 0
M  V30 2907 C 271.402 1.77754 -1.53103 0
M  V30 2908 C 272.418 1.68928 -0.417034 0
M  V30 2909 O 273.594 1.89801 -0.6736 0
M  V30 2910 C 270.659 3.14115 -1.46741 0
M  V30 2911 C 269.72 3.34612 -2.68948 0
M  V30 2912 C 268.953 4.64467 -2.6288 0
M  V30 2913 O 269.176 5.44919 -1.68581 0
M  V30 2914 O 268.11 4.87049 -3.53648 0
M  V30 2915 H 271.936 1.73174 -2.49489 0
M  V30 2916 H 269.521 0.79709 -1.2636 0
M  V30 2917 H 271.403 3.95412 -1.45696 0
M  V30 2918 H 270.078 3.19249 -0.534975 0
M  V30 2919 H 268.985 2.53014 -2.75562 0
M  V30 2920 H 270.318 3.34336 -3.61221 0
M  V30 2921 N 271.97 1.30982 0.876444 0
M  V30 2922 C 272.918 1.18006 2.00443 0
M  V30 2923 C 273.912 0.0898871 1.69161 0
M  V30 2924 O 275.118 0.251333 1.78237 0
M  V30 2925 H 271.493 0.365196 0.65737 0
M  V30 2926 H 273.464 2.13453 2.0852 0
M  V30 2927 C 272.213 0.897521 3.35916 0
M  V30 2928 H 271.536 1.7285 3.60504 0
M  V30 2929 H 272.976 0.846874 4.15456 0
M  V30 2930 C 271.435 -0.399674 3.34521 0
M  V30 2931 O 271.965 -1.41852 3.7582 0
M  V30 2932 N 270.171 -0.413893 2.87637 0
M  V30 2933 H 269.718 0.41571 2.54224 0
M  V30 2934 H 269.676 -1.28175 2.87086 0
M  V30 2935 N 273.449 -1.08991 1.13837 0
M  V30 2936 C 274.674 -1.85551 0.926585 0
M  V30 2937 C 275.099 -1.80782 -0.519566 0
M  V30 2938 O 274.457 -1.18855 -1.36906 0
M  V30 2939 C 274.505 -3.31266 1.42462 0
M  V30 2940 O 273.609 -4.07822 0.612789 0
M  V30 2941 H 272.95 -0.575192 0.331738 0
M  V30 2942 H 275.48 -1.37604 1.51414 0
M  V30 2943 H 275.49 -3.82112 1.43019 0
M  V30 2944 H 274.165 -3.34052 2.47754 0
M  V30 2945 H 272.742 -3.66731 0.675463 0
M  V30 2946 N 274.927 -0.932562 -1.27047 0
M  V30 2947 C 276.155 -0.592031 -1.98249 0
M  V30 2948 C 276.57 0.831062 -1.69525 0
M  V30 2949 O 275.927 1.55299 -0.958561 0
M  V30 2950 C 275.978 -0.814279 -3.5221 0
M  V30 2951 O 275.699 -2.18139 -3.7993 0
M  V30 2952 C 277.2 -0.483121 -4.4066 0
M  V30 2953 H 274.42 -0.223896 -0.632544 0
M  V30 2954 H 276.964 -1.25091 -1.61779 0
M  V30 2955 H 275.119 -0.20213 -3.86872 0
M  V30 2956 H 275.533 -2.235 -4.74498 0
M  V30 2957 H 277.007 -0.689298 -5.47679 0
M  V30 2958 H 277.484 0.581546 -4.35333 0
M  V30 2959 H 278.09 -1.07362 -4.11526 0
M  V30 2960 N 276.405 1.4127 -0.698611 0
M  V30 2961 C 277.315 2.34573 -0.0357891 0
M  V30 2962 C 278.331 1.56393 0.762701 0
M  V30 2963 O 279.507 1.8886 0.699564 0
M  V30 2964 C 276.572 3.35159 0.887089 0
M  V30 2965 C 275.633 4.29225 0.0804634 0
M  V30 2966 C 274.866 5.25006 0.959387 0
M  V30 2967 O 275.089 5.26314 2.19886 0
M  V30 2968 O 274.023 6.00519 0.407439 0
M  V30 2969 H 277.849 2.92838 -0.804957 0
M  V30 2970 H 275.434 1.42175 -0.458966 0
M  V30 2971 H 277.316 3.9689 1.41621 0
M  V30 2972 H 275.991 2.79333 1.6357 0
M  V30 2973 H 274.898 3.70833 -0.493328 0
M  V30 2974 H 276.231 4.88157 -0.629547 0
M  V30 2975 N 277.883 0.443576 1.51229 0
M  V30 2976 C 278.793 -0.370721 2.31652 0
M  V30 2977 C 279.809 -1.02186 1.40833 0
M  V30 2978 O 280.985 -1.01586 1.73903 0
M  V30 2979 C 278.05 -1.45376 3.14749 0
M  V30 2980 C 277.111 -0.822099 4.21355 0
M  V30 2981 C 276.344 -1.85353 5.0048 0
M  V30 2982 O 276.567 -3.07656 4.80316 0
M  V30 2983 O 275.501 -1.4406 5.84406 0
M  V30 2984 H 279.327 0.286002 3.0235 0
M  V30 2985 H 276.912 0.20598 1.47973 0
M  V30 2986 H 278.794 -2.08173 3.66391 0
M  V30 2987 H 277.469 -2.09445 2.46809 0
M  V30 2988 H 276.376 -0.155909 3.73775 0
M  V30 2989 H 277.709 -0.224797 4.91686 0
M  V30 2990 N 279.361 -1.56624 0.175154 0
M  V30 2991 C 280.607 -1.9729 -0.469506 0
M  V30 2992 C 280.94 -1.06128 -1.62636 0
M  V30 2993 O 280.215 -0.109183 -1.94193 0
M  V30 2994 C 280.498 -3.47375 -0.948804 0
M  V30 2995 C 280.351 -4.49317 0.208491 0
M  V30 2996 C 281.67 -4.00652 -1.82116 0
M  V30 2997 H 278.789 -0.717317 -0.16919 0
M  V30 2998 H 281.431 -1.88184 0.262062 0
M  V30 2999 H 279.581 -3.55267 -1.57219 0
M  V30 3000 H 281.253 -4.53482 0.845682 0
M  V30 3001 H 279.496 -4.25121 0.863395 0
M  V30 3002 H 280.167 -5.51741 -0.169059 0
M  V30 3003 H 282.643 -3.95416 -1.2956 0
M  V30 3004 H 281.519 -5.06075 -2.12554 0
M  V30 3005 H 281.78 -3.44699 -2.7683 0
M  V30 3006 N 280.839 0.0985539 -1.57292 0
M  V30 3007 C 282.255 0.45267 -1.53046 0
M  V30 3008 C 282.455 1.80713 -0.891342 0
M  V30 3009 O 281.511 2.4785 -0.482375 0
M  V30 3010 C 282.824 0.418341 -2.97776 0
M  V30 3011 C 284.372 0.500443 -3.08973 0
M  V30 3012 C 284.847 0.496297 -4.55303 0
M  V30 3013 N 286.338 0.557151 -4.59837 0
M  V30 3014 C 287.073 0.575726 -5.70502 0
M  V30 3015 N 286.569 0.550714 -6.90608 0
M  V30 3016 N 288.362 0.620277 -5.58667 0
M  V30 3017 H 280.513 -0.788673 -1.97215 0
M  V30 3018 H 282.776 -0.293188 -0.901524 0
M  V30 3019 H 282.482 -0.509659 -3.47988 0
M  V30 3020 H 282.356 1.2386 -3.56284 0
M  V30 3021 H 284.743 1.41886 -2.58751 0
M  V30 3022 H 284.824 -0.347894 -2.53423 0
M  V30 3023 H 284.468 -0.418162 -5.06176 0
M  V30 3024 H 284.398 1.3618 -5.08687 0
M  V30 3025 H 286.889 0.581816 -3.73394 0
M  V30 3026 H 287.202 0.568075 -7.70709 0
M  V30 3027 H 285.547 0.517816 -6.93068 0
M  V30 3028 H 288.738 0.637322 -4.63741 0
M  V30 3029 H 288.911 0.631283 -6.44918 0
M  V30 3030 N 282.317 1.53212 0.369288 0
M  V30 3031 C 283.28 1.7872 1.43498 0
M  V30 3032 C 284.28 0.657554 1.46741 0
M  V30 3033 O 285.47 0.925736 1.47566 0
M  V30 3034 C 282.602 1.90591 2.82645 0
M  V30 3035 H 283.795 2.73894 1.22156 0
M  V30 3036 H 281.348 1.44233 0.602203 0
M  V30 3037 H 282.083 0.974709 3.09306 0
M  V30 3038 H 281.868 2.72751 2.8169 0
M  V30 3039 H 283.358 2.11931 3.59826 0
M  V30 3040 N 283.795 -0.628877 1.44509 0
M  V30 3041 C 284.742 -1.74074 1.51549 0
M  V30 3042 C 285.712 -1.62084 0.363021 0
M  V30 3043 O 286.897 -1.81975 0.573567 0
M  V30 3044 C 284.037 -3.12328 1.46784 0
M  V30 3045 C 283.15 -3.35277 2.72422 0
M  V30 3046 C 282.285 -4.63515 2.59475 0
M  V30 3047 C 281.324 -4.7965 3.80266 0
M  V30 3048 N 280.461 -5.99168 3.65981 0
M  V30 3049 H 285.301 -1.67392 2.46544 0
M  V30 3050 H 282.838 -0.816527 1.22357 0
M  V30 3051 H 284.796 -3.92286 1.42012 0
M  V30 3052 H 283.426 -3.18018 0.553544 0
M  V30 3053 H 282.478 -2.49242 2.87372 0
M  V30 3054 H 283.79 -3.43078 3.62076 0
M  V30 3055 H 282.944 -5.51638 2.52548 0
M  V30 3056 H 281.683 -4.58076 1.67384 0
M  V30 3057 H 280.688 -3.89957 3.87574 0
M  V30 3058 H 281.913 -4.86902 4.73395 0
M  V30 3059 H 279.859 -5.94814 2.76644 0
M  V30 3060 H 279.776 -6.08035 4.49254 0
M  V30 3061 H 281.044 -6.89846 3.6295 0
M  V30 3062 N 285.273 -1.31445 -0.869486 0
M  V30 3063 C 286.206 -1.13465 -1.97992 0
M  V30 3064 C 287.184 -0.0380291 -1.62556 0
M  V30 3065 O 288.368 -0.194544 -1.87493 0
M  V30 3066 C 285.495 -0.733822 -3.30655 0
M  V30 3067 C 284.541 -1.83356 -3.85075 0
M  V30 3068 S 285.374 -3.43909 -4.10472 0
M  V30 3069 C 286.53 -3.05763 -5.46132 0
M  V30 3070 H 286.763 -2.07471 -2.1294 0
M  V30 3071 H 284.296 -1.15936 -1.01972 0
M  V30 3072 H 286.254 -0.509306 -4.07328 0
M  V30 3073 H 284.915 0.187123 -3.13542 0
M  V30 3074 H 284.108 -1.50574 -4.80982 0
M  V30 3075 H 283.71 -2.01315 -3.15195 0
M  V30 3076 H 286.002 -2.54686 -6.27807 0
M  V30 3077 H 286.945 -4.00635 -5.83864 0
M  V30 3078 H 287.353 -2.43192 -5.09429 0
M  V30 3079 N 286.751 1.08385 -1.14413 0
M  V30 3080 C 287.698 2.15311 -0.831265 0
M  V30 3081 C 288.668 1.64751 0.211292 0
M  V30 3082 O 289.853 1.90627 0.0811674 0
M  V30 3083 C 286.993 3.43658 -0.315143 0
M  V30 3084 C 286.106 4.08064 -1.41802 0
M  V30 3085 C 285.241 5.24207 -0.859126 0
M  V30 3086 C 284.28 5.80554 -1.93967 0
M  V30 3087 N 283.417 6.88042 -1.39793 0
M  V30 3088 H 288.257 2.41415 -1.74708 0
M  V30 3089 H 285.794 1.18474 -0.871909 0
M  V30 3090 H 287.752 4.172 0.00230884 0
M  V30 3091 H 286.382 3.17839 0.56378 0
M  V30 3092 H 285.434 3.3228 -1.85187 0
M  V30 3093 H 286.746 4.45962 -2.23427 0
M  V30 3094 H 285.9 6.04689 -0.49359 0
M  V30 3095 H 284.639 4.87699 -0.011932 0
M  V30 3096 H 283.644 4.98725 -2.31415 0
M  V30 3097 H 284.869 6.19121 -2.79046 0
M  V30 3098 H 282.815 6.53493 -0.572919 0
M  V30 3099 H 282.732 7.24767 -2.15054 0
M  V30 3100 H 284 7.72255 -1.0603 0
M  V30 3101 N 288.23 0.939286 1.26551 0
M  V30 3102 C 289.14 0.453432 2.30176 0
M  V30 3103 C 290.156 -0.471649 1.67486 0
M  V30 3104 O 291.332 -0.35164 1.98306 0
M  V30 3105 C 288.397 -0.275326 3.45605 0
M  V30 3106 C 287.458 0.686084 4.23782 0
M  V30 3107 C 286.691 -0.00798994 5.33699 0
M  V30 3108 O 286.914 -1.22528 5.57085 0
M  V30 3109 O 285.848 0.669746 5.98162 0
M  V30 3110 H 289.674 1.31416 2.73795 0
M  V30 3111 H 287.259 0.705095 1.31715 0
M  V30 3112 H 289.141 -0.685911 4.1578 0
M  V30 3113 H 287.816 -1.11147 3.0402 0
M  V30 3114 H 286.723 1.14658 3.56096 0
M  V30 3115 H 288.056 1.48979 4.69112 0
M  V30 3116 N 289.708 -1.40897 0.706093 0
M  V30 3117 C 290.656 -2.32572 0.0361893 0
M  V30 3118 C 291.65 -1.51532 -0.757266 0
M  V30 3119 O 292.856 -1.67396 -0.661703 0
M  V30 3120 H 289.231 -0.751966 -0.00709935 0
M  V30 3121 H 291.202 -2.86733 0.826249 0
M  V30 3122 C 289.951 -3.36418 -0.87854 0
M  V30 3123 H 289.274 -3.98836 -0.277401 0
M  V30 3124 H 290.714 -4.0308 -1.3154 0
M  V30 3125 C 289.173 -2.71141 -1.99961 0
M  V30 3126 O 289.703 -2.56735 -3.0895 0
M  V30 3127 N 287.909 -2.29671 -1.78043 0
M  V30 3128 H 287.456 -2.41588 -0.894042 0
M  V30 3129 H 287.414 -1.86332 -2.53235 0
M  V30 3130 N 291.186 -0.45159 -1.50991 0
M  V30 3131 C 292.433 0.110074 -2.02201 0
M  V30 3132 C 292.761 1.4146 -1.33489 0
M  V30 3133 O 292.016 1.90617 -0.443125 0
M  V30 3134 C 292.315 0.361728 -3.55565 0
M  V30 3135 C 291.981 -0.858717 -4.42648 0
M  V30 3136 C 290.643 -1.19338 -4.66167 0
M  V30 3137 C 292.995 -1.67221 -4.93646 0
M  V30 3138 C 290.323 -2.34195 -5.37931 0
M  V30 3139 C 292.675 -2.8119 -5.6667 0
M  V30 3140 C 291.339 -3.15094 -5.88449 0
M  V30 3141 H 290.609 0.040279 -0.739904 0
M  V30 3142 H 293.256 -0.601696 -1.81802 0
M  V30 3143 H 291.561 1.15554 -3.74372 0
M  V30 3144 H 293.258 0.80996 -3.92735 0
M  V30 3145 H 289.848 -0.58796 -4.24548 0
M  V30 3146 H 294.032 -1.42686 -4.75347 0
M  V30 3147 H 289.288 -2.6076 -5.53005 0
M  V30 3148 H 293.462 -3.44585 -6.05173 0
M  V30 3149 H 291.089 -4.04204 -6.43835 0
M  V30 3150 N 292.664 1.56529 -0.183458 0
M  V30 3151 C 293.91 1.97537 0.459036 0
M  V30 3152 C 294.243 1.06989 1.62071 0
M  V30 3153 O 293.518 0.11948 1.94133 0
M  V30 3154 C 293.801 3.47874 0.930368 0
M  V30 3155 C 293.654 4.492 -0.232317 0
M  V30 3156 C 294.973 4.01612 1.79989 0
M  V30 3157 H 292.092 0.718204 0.165383 0
M  V30 3158 H 294.734 1.88042 -0.272038 0
M  V30 3159 H 292.884 3.56095 1.55333 0
M  V30 3160 H 294.556 4.53027 -0.86972 0
M  V30 3161 H 292.799 4.24657 -0.885928 0
M  V30 3162 H 293.47 5.51823 0.139796 0
M  V30 3163 H 295.946 3.96097 1.27461 0
M  V30 3164 H 294.822 5.07195 2.09867 0
M  V30 3165 H 295.083 3.46163 2.74998 0
M  V30 3166 N 294.142 -0.090211 1.57342 0
M  V30 3167 C 295.391 -0.791531 1.8552 0
M  V30 3168 C 295.704 -1.79659 0.773441 0
M  V30 3169 O 296.91 -2.54616 0.942497 0
M  V30 3170 C 295.366 -1.45856 3.2902 0
M  V30 3171 C 294.974 -0.493017 4.45279 0
M  V30 3172 C 296.718 -2.14332 3.66418 0
M  V30 3173 C 294.625 -1.16491 5.79814 0
M  V30 3174 H 293.555 -0.299356 0.692027 0
M  V30 3175 H 296.206 -0.0445343 1.83446 0
M  V30 3176 H 294.588 -2.25318 3.2565 0
M  V30 3177 H 295.762 0.270464 4.60006 0
M  V30 3178 H 294.077 0.0863061 4.16311 0
M  V30 3179 H 296.674 -2.65344 4.64216 0
M  V30 3180 H 297.017 -2.93447 2.95287 0
M  V30 3181 H 297.55 -1.41724 3.71698 0
M  V30 3182 H 294.289 -0.41447 6.54188 0
M  V30 3183 H 293.809 -1.8997 5.68921 0
M  V30 3184 H 295.488 -1.69001 6.24538 0
M  V30 3185 N 295.62 -1.53406 -0.361157 0
M  V30 3186 C 296.845 -1.74024 -1.12829 0
M  V30 3187 C 297.27 -0.470069 -1.82132 0
M  V30 3188 O 296.628 0.57619 -1.719 0
M  V30 3189 C 296.676 -2.90903 -2.13091 0
M  V30 3190 O 295.78 -2.59821 -3.20261 0
M  V30 3191 H 295.121 -0.577804 -0.327168 0
M  V30 3192 H 297.651 -2.00307 -0.41693 0
M  V30 3193 H 297.661 -3.17194 -2.56616 0
M  V30 3194 H 296.336 -3.83034 -1.62042 0
M  V30 3195 H 294.913 -2.44362 -2.81677 0
M  V30 3196 N 297.098 0.621204 -1.44841 0
M  V30 3197 C 298.323 1.41244 -1.51871 0
M  V30 3198 C 298.748 1.87519 -0.147764 0
M  V30 3199 O 298.106 1.59334 0.865 0
M  V30 3200 C 298.154 2.60221 -2.49634 0
M  V30 3201 O 297.258 3.60395 -2.00473 0
M  V30 3202 H 296.599 0.42223 -0.512463 0
M  V30 3203 H 299.129 0.757305 -1.90069 0
M  V30 3204 H 299.139 3.0764 -2.67996 0
M  V30 3205 H 297.814 2.25887 -3.4921 0
M  V30 3206 H 296.391 3.19717 -1.91925 0
M  V30 3207 N 298.576 1.31904 0.862503 0
M  V30 3208 C 299.806 1.24817 1.64634 0
M  V30 3209 C 300.214 -0.187579 1.88268 0
M  V30 3210 O 299.557 -1.13253 1.44635 0
M  V30 3211 C 299.619 1.92996 3.03303 0
M  V30 3212 C 299.283 3.42336 3.02746 0
M  V30 3213 C 300.28 4.37956 2.80162 0
M  V30 3214 C 297.965 3.84147 3.2363 0
M  V30 3215 C 299.959 5.73361 2.78453 0
M  V30 3216 C 297.646 5.19663 3.21549 0
M  V30 3217 C 298.644 6.14081 2.98988 0
M  V30 3218 O 298.332 7.47118 2.96766 0
M  V30 3219 H 298.064 0.432222 0.519769 0
M  V30 3220 H 300.618 1.7445 1.08427 0
M  V30 3221 H 298.848 1.37922 3.61268 0
M  V30 3222 H 300.537 1.79723 3.63943 0
M  V30 3223 H 301.303 4.06981 2.63802 0
M  V30 3224 H 297.182 3.11083 3.40218 0
M  V30 3225 H 300.726 6.4703 2.60763 0
M  V30 3226 H 296.623 5.5027 3.37451 0
M  V30 3227 H 297.391 7.56382 3.12775 0
M  V30 3228 N 300.054 -1.07777 1.14986 0
M  V30 3229 C 301.284 -1.83752 0.944402 0
M  V30 3230 C 301.692 -1.8218 -0.51058 0
M  V30 3231 O 301.035 -1.22852 -1.36576 0
M  V30 3232 C 301.097 -3.32128 1.37592 0
M  V30 3233 C 300.761 -3.57425 2.84775 0
M  V30 3234 C 301.758 -3.5173 3.8286 0
M  V30 3235 C 299.443 -3.8523 3.2234 0
M  V30 3236 C 301.437 -3.73482 5.16517 0
M  V30 3237 C 299.124 -4.06634 4.56171 0
M  V30 3238 C 300.122 -4.00754 5.53069 0
M  V30 3239 O 299.81 -4.2159 6.84483 0
M  V30 3240 H 299.542 -0.58673 0.335744 0
M  V30 3241 H 302.096 -1.36982 1.53052 0
M  V30 3242 H 300.326 -3.79686 0.733165 0
M  V30 3243 H 302.015 -3.89555 1.14024 0
M  V30 3244 H 302.781 -3.30256 3.55184 0
M  V30 3245 H 298.66 -3.88923 2.47508 0
M  V30 3246 H 302.204 -3.68808 5.92137 0
M  V30 3247 H 298.101 -4.27593 4.83564 0
M  V30 3248 H 298.869 -4.38961 6.90837 0
M  V30 3249 N 301.532 -0.945985 -1.26051 0
M  V30 3250 C 302.442 -0.465633 -2.29933 0
M  V30 3251 C 303.458 0.462761 -1.67733 0
M  V30 3252 O 304.634 0.341118 -1.9849 0
M  V30 3253 C 301.699 0.256994 -3.45746 0
M  V30 3254 C 300.76 -0.708549 -4.23412 0
M  V30 3255 C 299.993 -0.0203135 -5.33696 0
M  V30 3256 O 300.216 1.19571 -5.57726 0
M  V30 3257 O 299.15 -0.701459 -5.97799 0
M  V30 3258 H 302.976 -1.32866 -2.73094 0
M  V30 3259 H 300.561 -0.712071 -1.31339 0
M  V30 3260 H 302.443 0.663852 -4.16138 0
M  V30 3261 H 301.118 1.09533 -3.04605 0
M  V30 3262 H 300.025 -1.16545 -3.55483 0
M  V30 3263 H 301.358 -1.51465 -4.68315 0
M  V30 3264 N 303.011 1.40521 -0.713556 0
M  V30 3265 C 304.241 2.0494 -0.261395 0
M  V30 3266 C 304.649 1.53861 1.10107 0
M  V30 3267 O 303.992 0.689321 1.70276 0
M  V30 3268 C 304.054 3.59138 -0.161227 0
M  V30 3269 C 303.718 4.33096 -1.45865 0
M  V30 3270 C 304.715 4.61182 -2.40016 0
M  V30 3271 C 302.4 4.72043 -1.71701 0
M  V30 3272 C 304.394 5.27196 -3.58251 0
M  V30 3273 C 302.081 5.37789 -2.90218 0
M  V30 3274 C 303.079 5.65295 -3.83315 0
M  V30 3275 O 302.767 6.29683 -4.99754 0
M  V30 3276 H 302.499 0.666041 -0.115608 0
M  V30 3277 H 305.053 1.80954 -0.971849 0
M  V30 3278 H 303.283 3.81936 0.605153 0
M  V30 3279 H 304.972 4.05091 0.256105 0
M  V30 3280 H 305.738 4.31559 -2.21318 0
M  V30 3281 H 301.617 4.50003 -1.00092 0
M  V30 3282 H 305.161 5.48582 -4.30934 0
M  V30 3283 H 301.058 5.66831 -3.08825 0
M  V30 3284 H 301.826 6.4818 -4.99805 0
M  V30 3285 N 304.489 0.459591 1.5075 0
M  V30 3286 C 305.421 -0.37665 2.26084 0
M  V30 3287 C 306.434 -0.967109 1.30961 0
M  V30 3288 O 307.623 -0.857468 1.56556 0
M  V30 3289 C 304.723 -1.54112 3.01832 0
M  V30 3290 C 303.896 -1.06553 4.24223 0
M  V30 3291 C 302.955 -2.1027 4.82362 0
M  V30 3292 O 301.981 -1.68798 5.43595 0
M  V30 3293 N 303.183 -3.42974 4.68347 0
M  V30 3294 H 305.948 0.269124 2.98489 0
M  V30 3295 H 303.509 0.28972 1.59287 0
M  V30 3296 H 305.501 -2.23165 3.37608 0
M  V30 3297 H 304.071 -2.0918 2.32298 0
M  V30 3298 H 303.291 -0.201274 3.93686 0
M  V30 3299 H 304.579 -0.725516 5.03601 0
M  V30 3300 H 303.977 -3.79385 4.19623 0
M  V30 3301 H 302.534 -4.07858 5.08424 0
M  V30 3302 N 305.967 -1.56429 0.191757 0
M  V30 3303 C 307.214 -1.97485 -0.447891 0
M  V30 3304 C 307.542 -1.07852 -1.61859 0
M  V30 3305 O 306.797 -0.116903 -1.95351 0
M  V30 3306 C 307.096 -3.44449 -0.953384 0
M  V30 3307 C 306.762 -4.50781 0.103586 0
M  V30 3308 C 305.424 -4.79584 0.394023 0
M  V30 3309 C 307.776 -5.1471 0.819946 0
M  V30 3310 C 305.104 -5.69607 1.40585 0
M  V30 3311 C 307.456 -6.05827 1.8209 0
M  V30 3312 C 306.12 -6.32987 2.11857 0
M  V30 3313 H 305.39 -0.722648 -0.163895 0
M  V30 3314 H 308.037 -1.89322 0.28802 0
M  V30 3315 H 306.342 -3.49666 -1.76751 0
M  V30 3316 H 308.039 -3.73569 -1.45765 0
M  V30 3317 H 304.629 -4.28394 -0.132951 0
M  V30 3318 H 308.813 -4.92552 0.608789 0
M  V30 3319 H 304.069 -5.88926 1.64243 0
M  V30 3320 H 308.243 -6.54424 2.38123 0
M  V30 3321 H 305.87 -7.02544 2.90407 0
M  V30 3322 N 307.445 0.0818655 -1.57387 0
M  V30 3323 C 308.691 0.778884 -1.87896 0
M  V30 3324 C 309.046 1.75692 -0.784229 0
M  V30 3325 O 308.339 1.90417 0.212567 0
M  V30 3326 C 308.533 1.53513 -3.22752 0
M  V30 3327 C 308.362 0.631838 -4.45239 0
M  V30 3328 C 307.132 0.272571 -5.04564 0
M  V30 3329 C 309.33 -0.0670191 -5.14256 0
M  V30 3330 N 307.312 -0.637498 -6.10581 0
M  V30 3331 C 308.683 -0.834653 -6.14356 0
M  V30 3332 C 310.738 -0.139551 -4.97704 0
M  V30 3333 C 309.441 -1.66806 -6.99691 0
M  V30 3334 C 311.467 -0.959903 -5.83558 0
M  V30 3335 C 310.829 -1.71561 -6.83188 0
M  V30 3336 H 306.928 0.260764 -0.737242 0
M  V30 3337 H 309.512 0.0408227 -1.94657 0
M  V30 3338 H 307.683 2.24398 -3.17018 0
M  V30 3339 H 309.415 2.18038 -3.40942 0
M  V30 3340 H 306.17 0.62319 -4.69482 0
M  V30 3341 H 306.594 -1.08548 -6.68241 0
M  V30 3342 H 311.236 0.430376 -4.20604 0
M  V30 3343 H 308.954 -2.249 -7.76174 0
M  V30 3344 H 312.54 -1.01887 -5.72809 0
M  V30 3345 H 311.42 -2.34017 -7.48469 0
M  V30 3346 N 308.923 1.53595 0.353017 0
M  V30 3347 C 310.171 1.70049 1.09215 0
M  V30 3348 C 310.492 0.461406 1.89463 0
M  V30 3349 O 309.762 -0.524633 1.88744 0
M  V30 3350 H 308.342 0.626912 0.40619 0
M  V30 3351 H 311.004 1.90822 0.396585 0
M  V30 3352 H 310.1 2.56718 1.77488 0
M  V30 3353 N 310.401 -0.613514 1.45168 0
M  V30 3354 C 311.334 -1.73809 1.47871 0
M  V30 3355 C 312.312 -1.59097 0.33568 0
M  V30 3356 O 313.496 -1.8074 0.535299 0
M  V30 3357 C 310.623 -3.11574 1.32813 0
M  V30 3358 C 309.669 -3.4489 2.50905 0
M  V30 3359 S 310.502 -3.40393 4.13392 0
M  V30 3360 C 311.658 -4.80749 4.00789 0
M  V30 3361 H 311.891 -1.71252 2.43023 0
M  V30 3362 H 309.424 -0.789658 1.32679 0
M  V30 3363 H 311.382 -3.91065 1.24812 0
M  V30 3364 H 310.043 -3.11652 0.391418 0
M  V30 3365 H 309.236 -4.45183 2.36279 0
M  V30 3366 H 308.838 -2.72901 2.55736 0
M  V30 3367 H 311.13 -5.7041 3.65567 0
M  V30 3368 H 312.073 -5.00431 5.00974 0
M  V30 3369 H 312.481 -4.56151 3.32545 0
M  V30 3370 N 311.879 -1.3236 -0.855495 0
M  V30 3371 C 312.842 -1.21164 -1.94556 0
M  V30 3372 C 313.842 -0.134908 -1.60233 0
M  V30 3373 O 315.032 -0.385249 -1.69887 0
M  V30 3374 C 312.164 -0.863192 -3.29791 0
M  V30 3375 H 313.357 -2.18038 -2.05911 0
M  V30 3376 H 310.91 -1.16179 -1.04557 0
M  V30 3377 H 311.645 0.103769 -3.24134 0
M  V30 3378 H 311.43 -1.64166 -3.56078 0
M  V30 3379 H 312.92 -0.809156 -4.09686 0
M  V30 3380 N 313.357 1.07166 -1.15556 0
M  V30 3381 C 314.587 1.83248 -0.954133 0
M  V30 3382 C 314.995 1.82449 0.500911 0
M  V30 3383 O 314.338 1.23575 1.35923 0
M  V30 3384 C 314.4 3.31393 -1.39351 0
M  V30 3385 C 314.064 3.5591 -2.86666 0
M  V30 3386 C 315.061 3.49695 -3.8472 0
M  V30 3387 C 312.746 3.83515 -3.24379 0
M  V30 3388 C 314.74 3.70737 -5.18491 0
M  V30 3389 C 312.427 4.04209 -4.58321 0
M  V30 3390 C 313.425 3.97815 -5.55186 0
M  V30 3391 O 313.113 4.17954 -6.86709 0
M  V30 3392 H 312.845 0.584941 -0.338851 0
M  V30 3393 H 315.399 1.36169 -1.53777 0
M  V30 3394 H 313.629 3.79292 -0.75329 0
M  V30 3395 H 315.318 3.88945 -1.16089 0
M  V30 3396 H 316.084 3.28368 -3.56931 0
M  V30 3397 H 311.963 3.87605 -2.49567 0
M  V30 3398 H 315.507 3.65663 -5.94085 0
M  V30 3399 H 311.404 4.25023 -4.85825 0
M  V30 3400 H 312.172 4.35291 -6.93155 0
M  V30 3401 N 314.835 0.952656 1.25548 0
M  V30 3402 C 316.251 0.656769 1.4546 0
M  V30 3403 C 316.451 -0.78633 1.85524 0
M  V30 3404 O 315.507 -1.56183 1.98402 0
M  V30 3405 C 316.82 1.62801 2.52817 0
M  V30 3406 C 318.368 1.63897 2.66659 0
M  V30 3407 C 318.843 2.5978 3.77198 0
M  V30 3408 N 320.334 2.58133 3.84606 0
M  V30 3409 C 321.069 3.29003 4.69621 0
M  V30 3410 N 320.565 4.09339 5.58939 0
M  V30 3411 N 322.358 3.179 4.63569 0
M  V30 3412 H 314.509 1.88526 0.978344 0
M  V30 3413 H 316.772 0.810815 0.491206 0
M  V30 3414 H 316.478 2.65869 2.30232 0
M  V30 3415 H 316.352 1.38898 3.50695 0
M  V30 3416 H 318.739 0.615481 2.8861 0
M  V30 3417 H 318.82 1.91858 1.69187 0
M  V30 3418 H 318.464 3.62254 3.55997 0
M  V30 3419 H 318.394 2.29105 4.7415 0
M  V30 3420 H 320.885 1.99809 3.20757 0
M  V30 3421 H 321.198 4.6034 6.20731 0
M  V30 3422 H 319.543 4.13438 5.58654 0
M  V30 3423 H 322.734 2.54612 3.92798 0
M  V30 3424 H 322.907 3.73398 5.29602 0
M  V30 3425 N 316.313 -1.40141 0.720998 0
M  V30 3426 C 317.26 -2.30688 0.071919 0
M  V30 3427 C 318.23 -1.48476 -0.744584 0
M  V30 3428 O 319.415 -1.77201 -0.707423 0
M  V30 3429 C 316.555 -3.34724 -0.839855 0
M  V30 3430 C 315.668 -4.31998 -0.0122438 0
M  V30 3431 C 314.803 -5.23102 -0.923995 0
M  V30 3432 C 313.842 -6.12033 -0.0907969 0
M  V30 3433 N 312.979 -6.95537 -0.957718 0
M  V30 3434 H 317.819 -2.85628 0.849755 0
M  V30 3435 H 315.356 -1.40653 0.430726 0
M  V30 3436 H 317.314 -3.93618 -1.38279 0
M  V30 3437 H 315.944 -2.81274 -1.58381 0
M  V30 3438 H 314.996 -3.74841 0.64794 0
M  V30 3439 H 316.308 -4.94772 0.632595 0
M  V30 3440 H 315.462 -5.86953 -1.53527 0
M  V30 3441 H 314.201 -4.60615 -1.60264 0
M  V30 3442 H 313.206 -5.47207 0.533377 0
M  V30 3443 H 314.431 -6.76581 0.584428 0
M  V30 3444 H 312.377 -6.35633 -1.62192 0
M  V30 3445 H 312.294 -7.55099 -0.36904 0
M  V30 3446 H 313.562 -7.63832 -1.555 0
M  V30 3447 N 317.792 -0.46758 -1.50504 0
M  V30 3448 C 318.702 0.33382 -2.32213 0
M  V30 3449 C 319.718 0.999323 -1.42441 0
M  V30 3450 O 320.894 0.988068 -1.75497 0
M  V30 3451 C 317.959 1.4035 -3.17022 0
M  V30 3452 C 317.02 0.754961 -4.2261 0
M  V30 3453 C 316.253 1.77367 -5.03365 0
M  V30 3454 O 316.476 2.99976 -4.8515 0
M  V30 3455 O 315.41 1.34744 -5.86624 0
M  V30 3456 H 319.236 -0.334067 -3.01857 0
M  V30 3457 H 316.821 -0.229496 -1.47627 0
M  V30 3458 H 318.703 2.02318 -3.69656 0
M  V30 3459 H 317.378 2.05492 -2.5011 0
M  V30 3460 H 316.285 0.0964244 -3.73976 0
M  V30 3461 H 317.618 0.146545 -4.91982 0
M  V30 3462 N 319.27 1.56325 -0.20005 0
M  V30 3463 C 320.518 1.97329 0.436547 0
M  V30 3464 C 320.839 1.08826 1.61808 0
M  V30 3465 O 320.109 0.160604 1.95241 0
M  V30 3466 H 318.689 0.728714 0.164272 0
M  V30 3467 H 321.351 1.92761 -0.287937 0
M  V30 3468 H 320.447 3.02264 0.777353 0
M  V30 3469 N 320.748 -0.0735177 1.57428 0
M  V30 3470 C 321.994 -0.768909 1.88307 0
M  V30 3471 C 322.349 -1.75273 0.793535 0
M  V30 3472 O 321.642 -1.90527 -0.202466 0
M  V30 3473 C 321.836 -1.51799 3.23561 0
M  V30 3474 C 321.665 -0.608217 4.45568 0
M  V30 3475 C 320.435 -0.245808 5.04702 0
M  V30 3476 C 322.633 0.0942904 5.14214 0
M  V30 3477 N 320.615 0.66987 6.10234 0
M  V30 3478 C 321.986 0.867222 6.13905 0
M  V30 3479 C 324.041 0.165943 4.97623 0
M  V30 3480 C 322.744 1.70515 6.98797 0
M  V30 3481 C 324.77 0.990837 5.83041 0
M  V30 3482 C 324.132 1.75182 6.82269 0
M  V30 3483 H 320.231 -0.25685 0.738615 0
M  V30 3484 H 322.815 -0.030499 1.94676 0
M  V30 3485 H 320.986 -2.22713 3.18203 0
M  V30 3486 H 322.718 -2.16226 3.42094 0
M  V30 3487 H 319.473 -0.598284 4.69806 0
M  V30 3488 H 319.897 1.1209 6.67656 0
M  V30 3489 H 324.539 -0.408064 4.20826 0
M  V30 3490 H 322.257 2.29013 7.7497 0
M  V30 3491 H 325.843 1.04923 5.72261 0
M  V30 3492 H 324.723 2.37983 7.47217 0
M  V30 3493 N 322.226 -1.5378 -0.344866 0
M  V30 3494 C 323.451 -1.75211 -1.10977 0
M  V30 3495 C 323.876 -0.48936 -1.81623 0
M  V30 3496 O 323.234 0.557925 -1.72502 0
M  V30 3497 C 323.282 -2.93147 -2.09993 0
M  V30 3498 O 322.386 -2.63203 -3.17487 0
M  V30 3499 H 321.727 -0.581241 -0.321021 0
M  V30 3500 H 324.257 -2.00738 -0.395661 0
M  V30 3501 H 324.267 -3.19898 -2.53237 0
M  V30 3502 H 322.942 -3.84731 -1.5797 0
M  V30 3503 H 321.519 -2.47336 -2.79069 0
M  V30 3504 N 323.704 0.605807 -1.45491 0
M  V30 3505 C 324.981 1.36522 -1.40075 0
M  V30 3506 C 325.361 2.10976 -0.0722744 0
M  V30 3507 O 324.709 2.08007 0.945808 0
M  V30 3508 C 324.919 2.31056 -2.61561 0
M  V30 3509 C 326.267 2.93608 -3.06724 0
M  V30 3510 O 327.291 2.41376 -2.61946 0
M  V30 3511 O 326.15 3.88421 -3.84437 0
M  V30 3512 H 323.244 0.612248 -0.555951 0
M  V30 3513 H 325.79 0.628747 -1.57623 0
M  V30 3514 H 324.562 1.75311 -3.49831 0
M  V30 3515 H 324.185 3.12081 -2.46356 0
M  V30 3516 N 325.182 1.32811 0.848464 0
M  V30 3517 C 326.407 1.26882 1.6406 0
M  V30 3518 C 326.832 -0.15913 1.87426 0
M  V30 3519 O 326.19 -1.11258 1.43148 0
M  V30 3520 C 326.238 2.03997 2.97351 0
M  V30 3521 O 325.342 1.39201 3.88197 0
M  V30 3522 H 324.683 0.436982 0.499943 0
M  V30 3523 H 327.213 1.75224 1.0563 0
M  V30 3524 H 327.223 2.14403 3.47124 0
M  V30 3525 H 325.898 3.0783 2.79666 0
M  V30 3526 H 324.475 1.37381 3.46671 0
M  V30 3527 N 326.66 -1.06551 1.16123 0
M  V30 3528 C 327.623 -2.12132 0.867906 0
M  V30 3529 C 328.623 -1.60224 -0.135944 0
M  V30 3530 O 329.813 -1.73943 0.0946422 0
M  V30 3531 C 326.945 -3.396 0.297419 0
M  V30 3532 H 328.138 -2.39586 1.80385 0
M  V30 3533 H 325.691 -1.22574 0.969812 0
M  V30 3534 H 326.426 -3.17794 -0.64633 0
M  V30 3535 H 326.211 -3.78581 1.02073 0
M  V30 3536 H 327.701 -4.17455 0.110052 0
M  V30 3537 N 328.138 -0.959301 -1.25041 0
M  V30 3538 C 329.387 -0.612254 -1.92183 0
M  V30 3539 C 329.7 0.855347 -1.75907 0
M  V30 3540 O 330.906 1.31256 -2.37664 0
M  V30 3541 C 329.362 -1.04435 -3.44414 0
M  V30 3542 C 328.97 -2.53482 -3.69393 0
M  V30 3543 C 330.714 -0.770055 -4.17457 0
M  V30 3544 C 328.621 -2.90468 -5.15153 0
M  V30 3545 H 327.551 -0.225279 -0.719559 0
M  V30 3546 H 330.202 -1.16438 -1.41825 0
M  V30 3547 H 328.584 -0.4206 -3.9376 0
M  V30 3548 H 329.758 -3.20916 -3.30681 0
M  V30 3549 H 328.073 -2.78432 -3.0962 0
M  V30 3550 H 330.67 -1.02249 -5.24832 0
M  V30 3551 H 331.013 0.293611 -4.15263 0
M  V30 3552 H 331.546 -1.35437 -3.74034 0
M  V30 3553 H 328.285 -3.95871 -5.22462 0
M  V30 3554 H 327.805 -2.27711 -5.54894 0
M  V30 3555 H 329.484 -2.79914 -5.83315 0
M  V30 3556 N 329.616 1.39756 -0.72842 0
M  V30 3557 C 330.563 2.30647 -0.0841519 0
M  V30 3558 C 331.533 1.48869 0.7367 0
M  V30 3559 O 332.718 1.77574 0.698015 0
M  V30 3560 C 329.858 3.35165 0.822091 0
M  V30 3561 C 328.971 4.31999 -0.0106663 0
M  V30 3562 C 328.106 5.23585 0.896241 0
M  V30 3563 C 327.145 6.12072 0.0583381 0
M  V30 3564 N 326.282 6.96035 0.920818 0
M  V30 3565 H 331.122 2.85173 -0.864891 0
M  V30 3566 H 328.659 1.40422 -0.438179 0
M  V30 3567 H 330.617 3.94345 1.36189 0
M  V30 3568 H 329.247 2.8211 1.56888 0
M  V30 3569 H 328.299 3.74492 -0.66781 0
M  V30 3570 H 329.611 4.9443 -0.658825 0
M  V30 3571 H 328.765 5.87759 1.50412 0
M  V30 3572 H 327.504 4.61459 1.57819 0
M  V30 3573 H 326.509 5.46916 -0.562389 0
M  V30 3574 H 327.734 6.76261 -0.6203 0
M  V30 3575 H 325.68 6.36485 1.58818 0
M  V30 3576 H 325.597 7.55284 0.32899 0
M  V30 3577 H 326.865 7.64646 1.51447 0
M  V30 3578 N 331.094 0.475555 1.50254 0
M  V30 3579 C 332.004 -0.321501 2.32387 0
M  V30 3580 C 333.02 -0.991755 1.42969 0
M  V30 3581 O 334.196 -0.978747 1.76018 0
M  V30 3582 C 331.261 -1.38667 3.17762 0
M  V30 3583 C 330.322 -0.732538 4.23004 0
M  V30 3584 C 329.555 -1.74695 5.04299 0
M  V30 3585 O 329.778 -2.97399 4.86734 0
M  V30 3586 O 328.712 -1.31631 5.8733 0
M  V30 3587 H 332.538 0.350071 3.01676 0
M  V30 3588 H 330.123 0.237321 1.47503 0
M  V30 3589 H 332.005 -2.00354 3.70724 0
M  V30 3590 H 330.68 -2.04163 2.51196 0
M  V30 3591 H 329.587 -0.0765902 3.74022 0
M  V30 3592 H 330.92 -0.120452 4.92053 0
M  V30 3593 N 332.573 -1.56217 0.208337 0
M  V30 3594 C 333.819 -1.98242 -0.427552 0
M  V30 3595 C 334.152 -1.09554 -1.60348 0
M  V30 3596 O 333.427 -0.15035 -1.93918 0
M  V30 3597 C 333.71 -3.4931 -0.874907 0
M  V30 3598 C 333.563 -4.48773 0.303751 0
M  V30 3599 C 334.882 -4.04424 -1.73577 0
M  V30 3600 H 332.001 -0.720744 -0.153936 0
M  V30 3601 H 334.643 -1.87586 0.30192 0
M  V30 3602 H 332.793 -3.58522 -1.49648 0
M  V30 3603 H 334.465 -4.51586 0.941682 0
M  V30 3604 H 332.708 -4.23194 0.953375 0
M  V30 3605 H 333.379 -5.51976 -0.0519883 0
M  V30 3606 H 335.855 -3.98075 -1.21143 0
M  V30 3607 H 334.731 -5.1047 -2.01771 0
M  V30 3608 H 334.992 -3.50494 -2.69456 0
M  V30 3609 N 334.051 0.0651679 -1.57465 0
M  V30 3610 C 334.961 1.09448 -2.07505 0
M  V30 3611 C 335.977 1.41974 -1.00595 0
M  V30 3612 O 337.153 1.52018 -1.32107 0
M  V30 3613 C 334.218 2.38689 -2.51453 0
M  V30 3614 C 333.279 2.13073 -3.72691 0
M  V30 3615 C 332.512 3.36152 -4.14533 0
M  V30 3616 O 332.735 4.45517 -3.56189 0
M  V30 3617 O 331.669 3.23974 -5.07272 0
M  V30 3618 H 335.495 0.69935 -2.95538 0
M  V30 3619 H 333.08 0.279752 -1.46757 0
M  V30 3620 H 334.962 3.14736 -2.80212 0
M  V30 3621 H 333.637 2.77568 -1.66546 0
M  V30 3622 H 332.544 1.34709 -3.49005 0
M  V30 3623 H 333.877 1.79071 -4.5847 0
M  V30 3624 N 335.529 1.53961 0.336706 0
M  V30 3625 C 336.439 1.85432 1.43708 0
M  V30 3626 C 337.455 0.745053 1.57242 0
M  V30 3627 O 338.631 1.03804 1.72588 0
M  V30 3628 C 335.696 2.06349 2.78605 0
M  V30 3629 C 334.757 3.30191 2.74358 0
M  V30 3630 C 333.99 3.50101 4.02822 0
M  V30 3631 O 334.213 2.7371 5.00439 0
M  V30 3632 O 333.147 4.43547 4.06878 0
M  V30 3633 H 336.973 2.78975 1.20028 0
M  V30 3634 H 334.558 1.39701 0.52952 0
M  V30 3635 H 336.44 2.21513 3.58483 0
M  V30 3636 H 335.115 1.15995 3.02203 0
M  V30 3637 H 334.022 3.20425 1.93078 0
M  V30 3638 H 335.355 4.2056 2.55715 0
M  V30 3639 N 337.007 -0.598083 1.45811 0
M  V30 3640 C 338.247 -1.36802 1.5187 0
M  V30 3641 C 338.611 -1.9133 0.160224 0
M  V30 3642 O 339.812 -2.6863 0.0955302 0
M  V30 3643 C 338.083 -2.47835 2.57513 0
M  V30 3644 S 339.642 -3.35458 2.82866 0
M  V30 3645 H 336.46 -0.466278 0.536755 0
M  V30 3646 H 339.062 -0.689152 1.82951 0
M  V30 3647 H 337.766 -2.06141 3.54872 0
M  V30 3648 H 337.297 -3.20512 2.28114 0
M  V30 3649 H 339.312 -4.46251 2.16967 0
M  V30 3650 N 338.485 -1.33259 -0.841409 0
M  V30 3651 C 339.733 -1.24326 -1.59334 0
M  V30 3652 C 340.054 0.191564 -1.94057 0
M  V30 3653 O 339.324 1.11967 -1.60749 0
M  V30 3654 H 337.904 -0.457174 -0.590763 0
M  V30 3655 H 340.566 -1.66947 -1.00571 0
M  V30 3656 H 339.662 -1.8352 -2.52442 0
M  V30 3657 N 339.963 1.05934 -1.16686 0
M  V30 3658 C 340.926 2.11669 -0.879144 0
M  V30 3659 C 341.926 1.60294 0.127445 0
M  V30 3660 O 343.116 1.7389 -0.103865 0
M  V30 3661 C 340.248 3.39438 -0.315425 0
M  V30 3662 H 341.441 2.38626 -1.81653 0
M  V30 3663 H 338.994 1.22058 -0.976299 0
M  V30 3664 H 339.729 3.18132 0.629468 0
M  V30 3665 H 339.514 3.78034 -1.04079 0
M  V30 3666 H 341.004 4.17391 -0.132189 0
M  V30 3667 N 341.441 0.965919 1.2453 0
M  V30 3668 C 342.666 0.643971 1.97149 0
M  V30 3669 C 343.091 -0.779487 1.71189 0
M  V30 3670 O 342.449 -1.5288 0.974553 0
M  V30 3671 C 342.497 0.922557 3.48599 0
M  V30 3672 O 341.601 0.00707672 4.12399 0
M  V30 3673 H 340.942 0.243647 0.617683 0
M  V30 3674 H 343.472 1.29558 1.58353 0
M  V30 3675 H 343.482 0.853373 3.98976 0
M  V30 3676 H 342.157 1.95996 3.66822 0
M  V30 3677 H 340.734 0.12943 3.72675 0
M  V30 3678 N 342.919 -1.39368 0.735821 0
M  V30 3679 C 344.335 -1.54204 0.411492 0
M  V30 3680 C 344.535 -1.70268 -1.07755 0
M  V30 3681 O 343.591 -1.70364 -1.86366 0
M  V30 3682 C 344.904 -2.75925 1.19523 0
M  V30 3683 C 346.452 -2.89761 1.18354 0
M  V30 3684 C 346.927 -4.14421 1.94986 0
M  V30 3685 N 348.418 -4.21462 1.92156 0
M  V30 3686 C 349.153 -5.16871 2.48258 0
M  V30 3687 N 348.649 -6.18063 3.13001 0
M  V30 3688 N 350.442 -5.09093 2.38287 0
M  V30 3689 H 342.593 -1.27189 1.70108 0
M  V30 3690 H 344.856 -0.616517 0.720147 0
M  V30 3691 H 344.562 -2.70401 2.24892 0
M  V30 3692 H 344.436 -3.68614 0.800222 0
M  V30 3693 H 346.823 -2.94777 0.137975 0
M  V30 3694 H 346.904 -1.98133 1.61793 0
M  V30 3695 H 346.548 -4.10166 2.99543 0
M  V30 3696 H 346.478 -5.05095 1.48953 0
M  V30 3697 H 348.969 -3.48979 1.44991 0
M  V30 3698 H 349.282 -6.87326 3.53275 0
M  V30 3699 H 347.627 -6.18448 3.17091 0
M  V30 3700 H 350.818 -4.28973 1.8735 0
M  V30 3701 H 350.991 -5.83272 2.82308 0
M  V30 3702 N 344.397 -0.483516 -1.5 0
M  V30 3703 C 345.347 0.32306 -2.257 0
M  V30 3704 C 346.331 0.950755 -1.29805 0
M  V30 3705 O 347.523 0.861247 -1.54634 0
M  V30 3706 C 344.652 1.39724 -3.13579 0
M  V30 3707 C 343.738 0.776663 -4.16928 0
M  V30 3708 N 344.129 -0.1104 -5.0568 0
M  V30 3709 C 342.427 1.03922 -4.33724 0
M  V30 3710 C 343.128 -0.46387 -5.79848 0
M  V30 3711 N 342.104 0.163987 -5.43353 0
M  V30 3712 H 345.906 -0.360086 -2.91686 0
M  V30 3713 H 343.42 -0.298456 -1.59634 0
M  V30 3714 H 345.417 1.98837 -3.66428 0
M  V30 3715 H 344.077 2.08225 -2.49143 0
M  V30 3716 H 345.088 -0.480069 -5.1567 0
M  V30 3717 H 341.765 1.71829 -3.80501 0
M  V30 3718 H 343.155 -1.18854 -6.61304 0
M  V30 3719 N 345.875 1.56104 -0.216619 0
M  V30 3720 C 346.823 2.21434 0.712036 0
M  V30 3721 C 347.817 1.19218 1.20348 0
M  V30 3722 O 349.023 1.3731 1.16387 0
M  V30 3723 H 345.398 0.70992 0.248026 0
M  V30 3724 H 347.369 2.98083 0.137558 0
M  V30 3725 C 346.118 2.90434 1.91163 0
M  V30 3726 H 345.441 3.68842 1.54258 0
M  V30 3727 H 346.881 3.39552 2.5393 0
M  V30 3728 C 345.34 1.92635 2.76394 0
M  V30 3729 O 345.87 1.44017 3.74996 0
M  V30 3730 N 344.076 1.60392 2.42328 0
M  V30 3731 H 343.623 2.00122 1.622 0
M  V30 3732 H 343.581 0.952159 2.99635 0
M  V30 3733 N 347.353 -0.0568162 1.57498 0
M  V30 3734 C 348.601 -0.751617 1.87604 0
M  V30 3735 C 348.922 -1.77351 0.81066 0
M  V30 3736 O 348.192 -1.95254 -0.159018 0
M  V30 3737 H 346.772 -0.280583 0.692302 0
M  V30 3738 H 349.434 -0.0293483 1.94878 0
M  V30 3739 H 348.53 -1.25852 2.856 0
M  V30 3740 O 348.87 -1.60255 -0.200168 0
M  V30 3741 H 349.561 -1.74563 -0.839496 0
M  V30 END ATOM
M  V30 BEGIN BOND
M  V30 END BOND
M  V30 END CTAB
M  END
$$$$
