drugbank_target|Q969S8 Histone deacetylase 10 (DB05015; DB06603)
 OpenBabel12092121043D

  0  0  0     0  0            999 V3000
M  V30 BEGIN CTAB
M  V30 COUNTS 10014 10137 0 0 0
M  V30 BEGIN ATOM
M  V30 1 H -0.908 1.98254 -0.117106 0
M  V30 2 N 0 1.576 0 0
M  V30 3 C 0.933 2.03868 1.02534 0
M  V30 4 C 1.911 0.928543 1.3348 0
M  V30 5 O 3.095 1.19667 1.45644 0
M  V30 6 C 0.222 2.43627 2.35294 0
M  V30 7 C -0.732 3.65373 2.2001 0
M  V30 8 S 0.101 5.13292 1.52614 0
M  V30 9 C 1.257 5.56322 2.86805 0
M  V30 10 H 1.49 2.90518 0.631377 0
M  V30 11 H -0.977 1.52953 0.210867 0
M  V30 12 H 0.981 2.67203 3.11629 0
M  V30 13 H -0.358 1.57376 2.7183 0
M  V30 14 H -1.165 3.90944 3.18086 0
M  V30 15 H -1.563 3.418 1.51819 0
M  V30 16 H 0.729 5.58782 3.83104 0
M  V30 17 H 1.672 6.56266 2.65933 0
M  V30 18 H 2.08 4.83886 2.90714 0
M  V30 19 N 1.4781 -0.272755 1.55222 0
M  V30 20 C 2.7261 -1.00234 1.75492 0
M  V30 21 C 3.0471 -1.8681 0.5592 0
M  V30 22 O 2.3171 -1.91215 -0.425882 0
M  V30 23 H 0.8971 -0.373076 0.647166 0
M  V30 24 H 3.5591 -0.296926 1.92625 0
M  V30 25 H 2.6551 -1.63913 2.65592 0
M  V30 26 N 2.9562 -1.48159 -0.537278 0
M  V30 27 C 4.1842 -1.59454 -1.31841 0
M  V30 28 C 4.5992 -0.252065 -1.8711 0
M  V30 29 O 3.9562 0.757621 -1.66031 0
M  V30 30 C 4.0072 -2.63546 -2.47439 0
M  V30 31 O 3.7282 -3.92583 -1.94449 0
M  V30 32 C 5.2292 -2.85212 -3.39366 0
M  V30 33 H 2.4492 -0.53785 -0.401196 0
M  V30 34 H 4.9932 -1.93932 -0.648891 0
M  V30 35 H 3.1482 -2.31946 -3.1029 0
M  V30 36 H 3.5622 -4.49629 -2.70063 0
M  V30 37 H 5.0362 -3.61863 -4.16844 0
M  V30 38 H 5.5132 -1.93765 -3.94147 0
M  V30 39 H 6.1192 -3.18086 -2.82314 0
M  V30 40 N 4.4343 0.785586 -1.36625 0
M  V30 41 C 5.3973 1.87999 -1.31107 0
M  V30 42 C 6.3973 1.59316 -0.217959 0
M  V30 43 O 7.5873 1.67656 -0.472977 0
M  V30 44 C 4.7193 3.24861 -1.03334 0
M  V30 45 H 5.9123 1.94307 -2.2844 0
M  V30 46 H 3.4653 0.983813 -1.21453 0
M  V30 47 H 4.2003 3.24235 -0.0647432 0
M  V30 48 H 3.9853 3.4707 -1.82441 0
M  V30 49 H 5.4753 4.04929 -1.02088 0
M  V30 50 N 5.9124 1.20967 1.01018 0
M  V30 51 C 6.8424 0.988272 2.11555 0
M  V30 52 C 7.8234 -0.0849778 1.69888 0
M  V30 53 O 9.0084 0.0738202 1.9406 0
M  V30 54 C 6.1384 0.546528 3.42973 0
M  V30 55 C 5.0924 1.56375 3.9841 0
M  V30 56 C 4.4184 0.97842 5.25672 0
M  V30 57 C 5.7184 2.94922 4.31066 0
M  V30 58 H 7.4124 1.91276 2.30334 0
M  V30 59 H 4.9584 0.921073 1.1069 0
M  V30 60 H 6.9114 0.378839 4.19694 0
M  V30 61 H 5.6354 -0.413598 3.23971 0
M  V30 62 H 4.2944 1.71891 3.23804 0
M  V30 63 H 3.9424 0.0101688 5.02999 0
M  V30 64 H 3.6424 1.65784 5.63728 0
M  V30 65 H 5.1664 0.821939 6.05043 0
M  V30 66 H 6.5804 2.8288 4.9865 0
M  V30 67 H 4.9774 3.5983 4.80253 0
M  V30 68 H 6.0474 3.4616 3.39561 0
M  V30 69 N 7.3905 -1.2043 1.01659 0
M  V30 70 C 8.6365 -1.90079 0.706963 0
M  V30 71 C 8.9695 -1.78648 -0.761474 0
M  V30 72 O 8.2445 -1.17069 -1.55323 0
M  V30 73 C 8.5275 -3.41469 1.14327 0
M  V30 74 C 8.3805 -3.61833 2.67201 0
M  V30 75 C 9.6995 -4.34261 0.714529 0
M  V30 76 H 6.8185 -0.690254 0.2583 0
M  V30 77 H 9.4605 -1.41826 1.26433 0
M  V30 78 H 7.6105 -3.82696 0.669056 0
M  V30 79 H 9.2825 -3.2986 3.22475 0
M  V30 80 H 7.5255 -3.05304 3.08175 0
M  V30 81 H 8.1965 -4.67955 2.92783 0
M  V30 82 H 10.6725 -4.00682 1.12221 0
M  V30 83 H 9.5485 -5.38806 1.04784 0
M  V30 84 H 9.8095 -4.40431 -0.383799 0
M  V30 85 N 8.8686 -0.792821 -1.36206 0
M  V30 86 C 10.0986 -0.378275 -2.03107 0
M  V30 87 C 10.5066 1.01119 -1.59911 0
M  V30 88 O 9.8496 1.66052 -0.785658 0
M  V30 89 C 9.9116 -0.366535 -3.57627 0
M  V30 90 C 9.5756 -1.70416 -4.24037 0
M  V30 91 C 10.5726 -2.6602 -4.46687 0
M  V30 92 C 8.2576 -1.98439 -4.6144 0
M  V30 93 C 10.2516 -3.8784 -5.05825 0
M  V30 94 C 7.9386 -3.20525 -5.20295 0
M  V30 95 C 8.9366 -4.15044 -5.42427 0
M  V30 96 O 8.6246 -5.34978 -6.00045 0
M  V30 97 H 8.3566 -0.153543 -0.658332 0
M  V30 98 H 10.9106 -1.07383 -1.75094 0
M  V30 99 H 9.1406 0.385539 -3.84773 0
M  V30 100 H 10.8296 0.0238088 -4.05893 0
M  V30 101 H 11.5956 -2.45658 -4.18183 0
M  V30 102 H 7.4746 -1.25686 -4.43536 0
M  V30 103 H 11.0186 -4.61628 -5.23015 0
M  V30 104 H 6.9156 -3.40764 -5.48225 0
M  V30 105 H 7.6836 -5.36088 -6.18508 0
M  V30 106 N 10.3467 1.47872 -0.545128 0
M  V30 107 C 11.2967 2.26842 0.229456 0
M  V30 108 C 12.2807 1.33626 0.896267 0
M  V30 109 O 13.4727 1.58063 0.79657 0
M  V30 110 C 10.6017 3.19089 1.26638 0
M  V30 111 C 9.6877 4.19783 0.603598 0
M  V30 112 N 10.0787 5.0479 -0.319405 0
M  V30 113 C 8.3767 4.3765 0.858989 0
M  V30 114 C 9.0777 5.77433 -0.703241 0
M  V30 115 N 8.0537 5.43566 -0.0608309 0
M  V30 116 H 11.8557 2.89947 -0.480391 0
M  V30 117 H 9.3697 1.58263 -0.364209 0
M  V30 118 H 11.3667 3.74337 1.83515 0
M  V30 119 H 10.0267 2.5754 1.97745 0
M  V30 120 H 11.0377 5.13244 -0.692889 0
M  V30 121 H 7.7147 3.87281 1.55948 0
M  V30 122 H 9.1047 6.55824 -1.46098 0
M  V30 123 N 11.8248 0.280983 1.55075 0
M  V30 124 C 12.7348 -0.61388 2.26426 0
M  V30 125 C 13.7508 -1.16521 1.29224 0
M  V30 126 O 14.9268 -1.19426 1.62171 0
M  V30 127 C 11.9918 -1.7788 2.9759 0
M  V30 128 C 11.0528 -1.26355 4.10284 0
M  V30 129 C 10.2858 -2.37295 4.78045 0
M  V30 130 O 10.5088 -3.56777 4.45047 0
M  V30 131 O 9.4428 -2.05119 5.65871 0
M  V30 132 H 13.2688 -0.0356932 3.03679 0
M  V30 133 H 10.8538 0.0481686 1.49322 0
M  V30 134 H 12.7358 -2.45791 3.42293 0
M  V30 135 H 11.4108 -2.34397 2.23249 0
M  V30 136 H 10.3178 -0.550735 3.70024 0
M  V30 137 H 11.6508 -0.744065 4.86543 0
M  V30 138 N 13.3029 -1.57598 0.00835791 0
M  V30 139 C 14.5799 -1.82172 -0.712235 0
M  V30 140 C 14.9599 -0.887873 -1.9152 0
M  V30 141 O 14.3079 0.06146 -2.28417 0
M  V30 142 C 14.5179 -3.30875 -1.11008 0
M  V30 143 C 15.8659 -3.96826 -1.51044 0
M  V30 144 O 16.8899 -3.35248 -1.20364 0
M  V30 145 O 15.7489 -5.05318 -2.08125 0
M  V30 146 H 12.8429 -0.750435 -0.347529 0
M  V30 147 H 15.3889 -1.69665 0.0344523 0
M  V30 148 H 14.1609 -3.90481 -0.252982 0
M  V30 149 H 13.7839 -3.48412 -1.9156 0
M  V30 150 N 14.781 0.264519 -1.55364 0
M  V30 151 C 15.714 1.35297 -1.83766 0
M  V30 152 C 16.692 1.47171 -0.691336 0
M  V30 153 O 17.876 1.63663 -0.935238 0
M  V30 154 C 15.003 2.72847 -2.00679 0
M  V30 155 C 14.049 2.78214 -3.23263 0
M  V30 156 S 14.882 2.36601 -4.80396 0
M  V30 157 C 16.038 3.7611 -5.00292 0
M  V30 158 H 16.271 1.11003 -2.758 0
M  V30 159 H 13.804 0.464596 -1.47244 0
M  V30 160 H 15.762 3.52057 -2.11108 0
M  V30 161 H 14.423 2.94388 -1.09518 0
M  V30 162 H 13.616 3.7919 -3.3201 0
M  V30 163 H 13.218 2.07034 -3.11469 0
M  V30 164 H 15.51 4.71457 -4.86554 0
M  V30 165 H 16.453 3.7231 -6.02321 0
M  V30 166 H 16.861 3.67806 -4.28228 0
M  V30 167 N 16.2591 1.48442 0.529413 0
M  V30 168 C 17.4871 1.60151 1.30994 0
M  V30 169 C 17.9021 0.261985 1.86973 0
M  V30 170 O 17.2591 -0.748805 1.66431 0
M  V30 171 C 17.3101 2.64854 2.46038 0
M  V30 172 O 17.0311 3.93608 1.92365 0
M  V30 173 C 18.5321 2.87007 3.37849 0
M  V30 174 H 15.7521 0.539971 0.398338 0
M  V30 175 H 18.2961 1.94273 0.638597 0
M  V30 176 H 16.4511 2.33589 3.09055 0
M  V30 177 H 16.8651 4.51055 2.67675 0
M  V30 178 H 18.3391 3.64068 4.14919 0
M  V30 179 H 18.8161 1.95852 3.93114 0
M  V30 180 H 19.4221 3.19579 2.80623 0
M  V30 181 N 17.7372 -0.778329 1.37039 0
M  V30 182 C 18.7002 -1.87301 1.32102 0
M  V30 183 C 19.7002 -1.59198 0.226405 0
M  V30 184 O 20.8902 -1.67403 0.481861 0
M  V30 185 C 18.0222 -3.24309 1.05055 0
M  V30 186 H 19.2152 -1.93093 2.29467 0
M  V30 187 H 16.7682 -0.977358 1.21973 0
M  V30 188 H 17.5032 -3.24196 0.0819373 0
M  V30 189 H 17.2882 -3.46098 1.84279 0
M  V30 190 H 18.7782 -4.04382 1.04234 0
M  V30 191 N 19.2153 -1.21501 -1.00376 0
M  V30 192 C 20.4433 -1.059 -1.77744 0
M  V30 193 C 20.8583 0.391125 -1.84704 0
M  V30 194 O 20.2153 1.27133 -1.30933 0
M  V30 195 C 20.2663 -1.65111 -3.21591 0
M  V30 196 O 19.9873 -3.0445 -3.15027 0
M  V30 197 C 21.4883 -1.54637 -4.15454 0
M  V30 198 H 18.7083 -0.371825 -0.558558 0
M  V30 199 H 21.2523 -1.60865 -1.26264 0
M  V30 200 H 19.4073 -1.14235 -3.70175 0
M  V30 201 H 19.8213 -3.3278 -4.0541 0
M  V30 202 H 21.2953 -2.00808 -5.14179 0
M  V30 203 H 21.7723 -0.501022 -4.36333 0
M  V30 204 H 22.3783 -2.04767 -3.72761 0
M  V30 205 N 20.6934 1.19889 -1.02296 0
M  V30 206 C 22.1094 1.41462 -0.738954 0
M  V30 207 C 22.3094 1.89721 0.678846 0
M  V30 208 O 21.3654 2.07016 1.4457 0
M  V30 209 C 22.6784 2.43083 -1.77005 0
M  V30 210 C 24.2264 2.5684 -1.78892 0
M  V30 211 C 24.7014 3.61709 -2.80945 0
M  V30 212 N 26.1924 3.69199 -2.79725 0
M  V30 213 C 26.9274 4.50019 -3.55345 0
M  V30 214 N 26.4234 5.34592 -4.40662 0
M  V30 215 N 28.2164 4.44612 -3.43914 0
M  V30 216 H 20.3674 0.868827 -1.93817 0
M  V30 217 H 22.6304 0.44399 -0.837602 0
M  V30 218 H 22.3364 2.14636 -2.78612 0
M  V30 219 H 22.2104 3.4217 -1.58744 0
M  V30 220 H 24.5974 2.84614 -0.779674 0
M  V30 221 H 24.6784 1.57927 -2.01228 0
M  V30 222 H 24.3224 3.34678 -3.82038 0
M  V30 223 H 24.2524 4.60259 -2.5587 0
M  V30 224 H 26.7434 3.08794 -2.17842 0
M  V30 225 H 27.0564 5.93363 -4.95116 0
M  V30 226 H 25.4014 5.34073 -4.44737 0
M  V30 227 H 28.5924 3.7758 -2.76679 0
M  V30 228 H 28.7654 5.0736 -4.031 0
M  V30 229 N 22.1715 0.800033 1.35784 0
M  V30 230 C 23.1015 0.220184 2.3246 0
M  V30 231 C 24.0825 -0.65073 1.57161 0
M  V30 232 O 25.2675 -0.582359 1.85263 0
M  V30 233 C 22.3975 -0.637353 3.41402 0
M  V30 234 C 21.3515 0.134531 4.27789 0
M  V30 235 C 20.6775 -0.844285 5.27992 0
M  V30 236 C 21.9775 1.32979 5.05088 0
M  V30 237 H 23.6715 1.02787 2.81203 0
M  V30 238 H 21.2175 0.495717 1.35199 0
M  V30 239 H 23.1705 -1.05302 4.08031 0
M  V30 240 H 21.8945 -1.47785 2.91251 0
M  V30 241 H 20.5535 0.531296 3.6273 0
M  V30 242 H 20.2015 -1.68011 4.74111 0
M  V30 243 H 19.9015 -0.332184 5.8666 0
M  V30 244 H 21.4255 -1.2583 5.97494 0
M  V30 245 H 22.8395 0.98934 5.64699 0
M  V30 246 H 21.2365 1.77593 5.7322 0
M  V30 247 H 22.3065 2.11978 4.36111 0
M  V30 248 N 23.6496 -1.47581 0.552962 0
M  V30 249 C 24.5796 -2.32762 -0.185451 0
M  V30 250 C 25.5606 -1.43527 -0.912905 0
M  V30 251 O 26.7456 -1.72388 -0.894201 0
M  V30 252 C 23.8756 -3.25219 -1.21859 0
M  V30 253 C 22.8296 -4.23661 -0.607864 0
M  V30 254 C 22.1556 -5.05413 -1.74533 0
M  V30 255 C 23.4556 -5.20481 0.435582 0
M  V30 256 H 25.1496 -2.94749 0.525684 0
M  V30 257 H 22.6956 -1.41738 0.254251 0
M  V30 258 H 24.6486 -3.8365 -1.7433 0
M  V30 259 H 23.3726 -2.61279 -1.95961 0
M  V30 260 H 22.0316 -3.66451 -0.104489 0
M  V30 261 H 21.6796 -4.3788 -2.47529 0
M  V30 262 H 21.3796 -5.72059 -1.34249 0
M  V30 263 H 22.9036 -5.66701 -2.27338 0
M  V30 264 H 24.3176 -5.733 -0.00290157 0
M  V30 265 H 22.7146 -5.95305 0.757067 0
M  V30 266 H 23.7846 -4.66217 1.33303 0
M  V30 267 N 25.1277 -0.289203 -1.54924 0
M  V30 268 C 26.3737 0.316922 -2.00916 0
M  V30 269 C 26.7287 1.52424 -1.17408 0
M  V30 270 O 26.0217 1.90097 -0.239536 0
M  V30 271 C 26.2157 0.736119 -3.49737 0
M  V30 272 C 26.0447 -0.429036 -4.47649 0
M  V30 273 C 24.8147 -0.917311 -4.96904 0
M  V30 274 C 27.0127 -1.27016 -4.98369 0
M  V30 275 N 24.9947 -2.05046 -5.78644 0
M  V30 276 C 26.3657 -2.25097 -5.77695 0
M  V30 277 C 28.4207 -1.30188 -4.80578 0
M  V30 278 C 27.1237 -3.26114 -6.41126 0
M  V30 279 C 29.1497 -2.30057 -5.44819 0
M  V30 280 C 28.5117 -3.2687 -6.23968 0
M  V30 281 H 24.6107 0.0807535 -0.777819 0
M  V30 282 H 27.1947 -0.416434 -1.90194 0
M  V30 283 H 25.3657 1.43867 -3.60773 0
M  V30 284 H 27.0977 1.32078 -3.82541 0
M  V30 285 H 23.8527 -0.494248 -4.71014 0
M  V30 286 H 24.2767 -2.62108 -6.24202 0
M  V30 287 H 28.9187 -0.567163 -4.18979 0
M  V30 288 H 26.6367 -4.00512 -7.01866 0
M  V30 289 H 30.2227 -2.33271 -5.32988 0
M  V30 290 H 29.1027 -4.02883 -6.72796 0
M  V30 291 N 26.6058 1.57591 -0.0167156 0
M  V30 292 C 27.8828 1.82547 0.702564 0
M  V30 293 C 28.2628 0.898018 1.91047 0
M  V30 294 O 27.6108 -0.0493456 2.28447 0
M  V30 295 C 27.8208 3.31459 1.09251 0
M  V30 296 C 29.1688 3.97622 1.48937 0
M  V30 297 O 30.1928 3.35881 1.18584 0
M  V30 298 O 29.0518 5.06415 2.05442 0
M  V30 299 H 26.1458 0.752268 0.343544 0
M  V30 300 H 28.6918 1.69644 -0.0434495 0
M  V30 301 H 27.4638 3.9061 0.23227 0
M  V30 302 H 27.0868 3.49422 1.89709 0
M  V30 303 N 28.0839 -0.256276 1.55502 0
M  V30 304 C 29.3609 -1.00789 1.67633 0
M  V30 305 C 29.7409 -2.03706 0.553826 0
M  V30 306 O 29.0889 -2.24145 -0.443969 0
M  V30 307 C 29.2989 -1.64968 3.07549 0
M  V30 308 C 30.6469 -2.15505 3.65845 0
M  V30 309 O 31.6709 -1.74925 3.1029 0
M  V30 310 O 30.5299 -2.89986 4.63217 0
M  V30 311 H 27.6239 -0.468553 0.681459 0
M  V30 312 H 30.1699 -0.250806 1.67836 0
M  V30 313 H 28.9419 -0.904785 3.80696 0
M  V30 314 H 28.5649 -2.47321 3.11317 0
M  V30 315 N 29.562 -1.4872 -0.521534 0
M  V30 316 C 30.973 -1.50607 -1.10337 0
M  V30 317 C 31.324 -0.280612 -1.94183 0
M  V30 318 O 30.449 0.611507 -2.0758 0
M  V30 319 C 31.044 -2.72903 -2.00772 0
M  V30 320 C 29.603 -2.77634 -2.54158 0
M  V30 321 C 28.75 -2.44241 -1.31307 0
M  V30 322 H 31.701 -1.55714 -0.306388 0
M  V30 323 H 31.722 -2.519 -2.85178 0
M  V30 324 H 31.234 -3.62077 -1.39721 0
M  V30 325 H 29.335 -1.92689 -3.18907 0
M  V30 326 H 29.448 -3.79283 -2.92714 0
M  V30 327 H 27.812 -1.95577 -1.63161 0
M  V30 328 H 28.595 -3.35666 -0.719943 0
M  V30 329 N 31.0401 0.771051 -1.3745 0
M  V30 330 C 31.9501 1.91538 -1.35464 0
M  V30 331 C 32.9661 1.72134 -0.254123 0
M  V30 332 O 34.1421 1.95358 -0.489626 0
M  V30 333 C 31.2071 3.26671 -1.16134 0
M  V30 334 C 30.2681 3.58723 -2.35831 0
M  V30 335 C 29.5011 4.87409 -2.17413 0
M  V30 336 O 29.7241 5.58506 -1.15876 0
M  V30 337 O 28.6581 5.18539 -3.05615 0
M  V30 338 H 32.4841 1.96165 -2.31847 0
M  V30 339 H 30.0691 0.9139 -1.18187 0
M  V30 340 H 31.9511 4.07499 -1.07345 0
M  V30 341 H 30.6261 3.22894 -0.228251 0
M  V30 342 H 29.5331 2.78127 -2.50192 0
M  V30 343 H 30.8661 3.67243 -3.27709 0
M  V30 344 N 32.5182 1.22032 0.997298 0
M  V30 345 C 33.7582 1.05375 1.75144 0
M  V30 346 C 34.1222 -0.404696 1.87686 0
M  V30 347 O 35.3232 -0.691998 2.5974 0
M  V30 348 C 33.5942 1.74046 3.12158 0
M  V30 349 S 35.1532 1.72745 4.03366 0
M  V30 350 H 31.9712 0.377449 0.602539 0
M  V30 351 H 34.5732 1.54902 1.19272 0
M  V30 352 H 33.2772 2.79332 3.00669 0
M  V30 353 H 32.8082 1.24731 3.73103 0
M  V30 354 H 34.8232 0.774015 4.90126 0
M  V30 355 N 33.9963 -1.19345 1.0293 0
M  V30 356 C 34.9063 -2.26245 0.620515 0
M  V30 357 C 35.9223 -1.70486 -0.347928 0
M  V30 358 O 37.0983 -2.00347 -0.205704 0
M  V30 359 C 34.1633 -3.46693 -0.0218957 0
M  V30 360 C 33.2243 -4.17632 0.994102 0
M  V30 361 C 32.4573 -5.32329 0.382253 0
M  V30 362 O 32.6803 -5.64552 -0.814676 0
M  V30 363 O 31.6143 -5.91664 1.10531 0
M  V30 364 H 35.4403 -2.63453 1.51083 0
M  V30 365 H 33.0253 -1.26207 0.799513 0
M  V30 366 H 34.9073 -4.19683 -0.380072 0
M  V30 367 H 33.5823 -3.11333 -0.886209 0
M  V30 368 H 32.4893 -3.4676 1.40387 0
M  V30 369 H 33.8223 -4.56964 1.8288 0
M  V30 370 N 35.4744 -0.807222 -1.35358 0
M  V30 371 C 36.7234 -0.384376 -1.98004 0
M  V30 372 C 37.0364 1.0543 -1.64754 0
M  V30 373 O 38.2424 1.58029 -2.20769 0
M  V30 374 C 36.6984 -0.636326 -3.5423 0
M  V30 375 C 36.3064 -2.08759 -3.96388 0
M  V30 376 C 38.0504 -0.278869 -4.23583 0
M  V30 377 C 35.9574 -2.28525 -5.45463 0
M  V30 378 H 34.8874 -0.139986 -0.740891 0
M  V30 379 H 37.5384 -0.991369 -1.54415 0
M  V30 380 H 35.9204 0.0406256 -3.95979 0
M  V30 381 H 37.0944 -2.8024 -3.6579 0
M  V30 382 H 35.4094 -2.40497 -3.39926 0
M  V30 383 H 38.0064 -0.404599 -5.33167 0
M  V30 384 H 38.3494 0.775012 -4.09022 0
M  V30 385 H 38.8824 -0.909764 -3.87257 0
M  V30 386 H 35.6214 -3.32361 -5.64992 0
M  V30 387 H 35.1414 -1.61569 -5.77629 0
M  V30 388 H 36.8204 -2.10109 -6.11934 0
M  V30 389 N 36.9525 1.47285 -0.560781 0
M  V30 390 C 37.8625 2.33846 0.187954 0
M  V30 391 C 38.8785 1.48412 0.908293 0
M  V30 392 O 40.0545 1.81332 0.876388 0
M  V30 393 C 37.1195 3.25178 1.2025 0
M  V30 394 C 36.1805 4.26504 0.489208 0
M  V30 395 C 35.4135 5.13472 1.45542 0
M  V30 396 O 35.6365 5.02959 2.6905 0
M  V30 397 O 34.5705 5.93902 0.977963 0
M  V30 398 H 38.3965 2.99177 -0.522177 0
M  V30 399 H 35.9815 1.45903 -0.321364 0
M  V30 400 H 37.8635 3.81584 1.78805 0
M  V30 401 H 36.5385 2.6247 1.89449 0
M  V30 402 H 35.4455 3.73847 -0.137627 0
M  V30 403 H 36.7785 4.91935 -0.161399 0
M  V30 404 N 38.4306 0.297415 1.54768 0
M  V30 405 C 39.8466 -0.0560823 1.59501 0
M  V30 406 C 40.0466 -1.52725 1.31444 0
M  V30 407 O 39.1026 -2.27947 1.08611 0
M  V30 408 C 40.4156 0.338631 2.98787 0
M  V30 409 C 41.9636 0.287097 3.11681 0
M  V30 410 C 42.4386 0.656579 4.53269 0
M  V30 411 N 43.9296 0.608977 4.59179 0
M  V30 412 C 44.6646 0.867385 5.66802 0
M  V30 413 N 44.1606 1.19157 6.82476 0
M  V30 414 N 45.9536 0.794687 5.56454 0
M  V30 415 H 38.1046 1.25624 1.71267 0
M  V30 416 H 40.3676 0.509057 0.799728 0
M  V30 417 H 40.0736 1.36263 3.2423 0
M  V30 418 H 39.9476 -0.309508 3.75928 0
M  V30 419 H 42.3346 -0.727649 2.85988 0
M  V30 420 H 42.4156 0.969809 2.36703 0
M  V30 421 H 42.0596 1.66912 4.7969 0
M  V30 422 H 41.9896 -0.0481649 5.26578 0
M  V30 423 H 44.4806 0.369198 3.76092 0
M  V30 424 H 44.7936 1.37482 7.60473 0
M  V30 425 H 43.1386 1.22958 6.84037 0
M  V30 426 H 46.3296 0.541098 4.64962 0
M  V30 427 H 46.5026 0.999445 6.40246 0
M  V30 428 N 39.9087 -1.5758 0.0250728 0
M  V30 429 C 41.3197 -1.79476 -0.514323 0
M  V30 430 C 41.6707 -0.934956 -1.72491 0
M  V30 431 O 40.7957 -0.144245 -2.15919 0
M  V30 432 C 41.3907 -3.25503 -0.939842 0
M  V30 433 C 39.9497 -3.48408 -1.42438 0
M  V30 434 C 39.0967 -2.74583 -0.387201 0
M  V30 435 H 42.0477 -1.567 0.25113 0
M  V30 436 H 42.0687 -3.34992 -1.80445 0
M  V30 437 H 41.5807 -3.88056 -0.0585628 0
M  V30 438 H 39.6817 -2.91103 -2.32572 0
M  V30 439 H 39.7947 -4.57119 -1.43455 0
M  V30 440 H 38.1587 -2.39942 -0.854409 0
M  V30 441 H 38.9417 -3.39849 0.485543 0
M  V30 442 N 41.3868 0.248026 -1.55636 0
M  V30 443 C 42.2968 1.32859 -1.93354 0
M  V30 444 C 43.3128 1.52719 -0.833838 0
M  V30 445 O 44.4888 1.66363 -1.13513 0
M  V30 446 C 41.5538 2.66337 -2.21958 0
M  V30 447 C 40.6148 2.55008 -3.45354 0
M  V30 448 C 39.8478 3.82121 -3.72584 0
M  V30 449 O 40.0708 4.83951 -3.01907 0
M  V30 450 O 39.0048 3.80822 -4.6611 0
M  V30 451 H 42.8308 1.03862 -2.85388 0
M  V30 452 H 40.4158 0.448686 -1.42503 0
M  V30 453 H 42.2978 3.45216 -2.4167 0
M  V30 454 H 40.9728 2.95068 -1.33103 0
M  V30 455 H 39.8798 1.7442 -3.30951 0
M  V30 456 H 41.2128 2.31222 -4.34508 0
M  V30 457 N 42.8649 1.48995 0.513639 0
M  V30 458 C 44.2809 1.35478 0.843682 0
M  V30 459 C 44.4809 0.378213 1.97919 0
M  V30 460 O 43.5369 -0.194689 2.51748 0
M  V30 461 C 44.8499 2.75901 1.1958 0
M  V30 462 C 46.3979 2.84509 1.30474 0
M  V30 463 C 46.8729 4.25671 1.69021 0
M  V30 464 N 48.3639 4.28422 1.76094 0
M  V30 465 C 49.0989 5.34601 2.07338 0
M  V30 466 N 48.5949 6.5104 2.36894 0
M  V30 467 N 50.3879 5.22007 2.08483 0
M  V30 468 H 42.5389 2.11092 -0.235328 0
M  V30 469 H 44.8019 0.947039 -0.0426669 0
M  V30 470 H 44.5079 3.49001 0.434913 0
M  V30 471 H 44.3819 3.10467 2.1422 0
M  V30 472 H 46.7689 2.11655 2.05637 0
M  V30 473 H 46.8499 2.53542 0.339155 0
M  V30 474 H 46.4939 4.99048 0.944135 0
M  V30 475 H 46.4239 4.54094 2.66658 0
M  V30 476 H 48.9149 3.44441 1.55464 0
M  V30 477 H 49.2279 7.2779 2.59887 0
M  V30 478 H 47.5729 6.54287 2.34378 0
M  V30 479 H 50.7639 4.30051 1.84861 0
M  V30 480 H 50.9369 6.04854 2.325 0
M  V30 481 N 44.343 -0.763751 1.37857 0
M  V30 482 C 45.273 -1.89103 1.36975 0
M  V30 483 C 46.254 -1.68439 0.237152 0
M  V30 484 O 47.439 -1.8918 0.438713 0
M  V30 485 C 44.569 -3.26496 1.18395 0
M  V30 486 C 43.523 -3.61741 2.28751 0
M  V30 487 C 42.849 -4.97762 1.95286 0
M  V30 488 C 44.149 -3.67665 3.70972 0
M  V30 489 H 45.843 -1.90099 2.31307 0
M  V30 490 H 43.389 -0.91319 1.11341 0
M  V30 491 H 45.342 -4.05003 1.16406 0
M  V30 492 H 44.066 -3.25955 0.205215 0
M  V30 493 H 42.725 -2.85547 2.29909 0
M  V30 494 H 42.373 -4.93769 0.959221 0
M  V30 495 H 42.073 -5.22313 2.69189 0
M  V30 496 H 43.597 -5.7866 1.94898 0
M  V30 497 H 45.011 -4.36307 3.719 0
M  V30 498 H 43.408 -4.03718 4.43995 0
M  V30 499 H 44.478 -2.68134 4.0402 0
M  V30 500 N 45.8211 -1.22559 -0.990812 0
M  V30 501 C 47.0491 -1.07779 -1.76611 0
M  V30 502 C 47.4641 0.371513 -1.85109 0
M  V30 503 O 46.8211 1.25737 -1.32274 0
M  V30 504 C 46.8721 -1.68512 -3.19822 0
M  V30 505 O 46.5931 -3.07774 -3.1178 0
M  V30 506 C 48.0941 -1.59035 -4.13791 0
M  V30 507 H 45.3141 -0.377729 -0.554583 0
M  V30 508 H 47.8581 -1.62195 -1.24551 0
M  V30 509 H 46.0131 -1.18154 -3.68942 0
M  V30 510 H 46.4271 -3.37062 -4.01858 0
M  V30 511 H 47.9011 -2.0625 -5.1202 0
M  V30 512 H 48.3781 -0.547273 -4.35777 0
M  V30 513 H 48.9841 -2.08709 -3.70568 0
M  V30 514 N 47.2992 1.18797 -1.03562 0
M  V30 515 C 48.2622 2.20464 -0.626769 0
M  V30 516 C 49.2622 1.57721 0.313173 0
M  V30 517 O 50.4522 1.73917 0.0992615 0
M  V30 518 C 47.5842 3.40802 0.0818498 0
M  V30 519 H 48.7772 2.58149 -1.5264 0
M  V30 520 H 46.3302 1.32593 -0.827578 0
M  V30 521 H 47.0652 3.08642 0.995518 0
M  V30 522 H 46.8502 3.8758 -0.593652 0
M  V30 523 H 48.3402 4.16092 0.354584 0
M  V30 524 N 48.7773 0.814389 1.34928 0
M  V30 525 C 49.7403 0.235759 2.27984 0
M  V30 526 C 50.7403 -0.581412 1.49921 0
M  V30 527 O 51.9303 -0.398758 1.69575 0
M  V30 528 C 49.0623 -0.670433 3.34242 0
M  V30 529 H 50.2553 1.05659 2.80671 0
M  V30 530 H 47.8083 0.585614 1.44915 0
M  V30 531 H 48.5433 -1.51466 2.86755 0
M  V30 532 H 48.3283 -0.0860822 3.92005 0
M  V30 533 H 49.8183 -1.06935 4.03676 0
M  V30 534 N 50.2554 -1.46986 0.568584 0
M  V30 535 C 51.1854 -2.32946 -0.160753 0
M  V30 536 C 52.1664 -1.44487 -0.897631 0
M  V30 537 O 53.3514 -1.73327 -0.875867 0
M  V30 538 C 50.4814 -3.26494 -1.18403 0
M  V30 539 C 49.4354 -4.24282 -0.562895 0
M  V30 540 C 48.7614 -5.07236 -1.69163 0
M  V30 541 C 50.0614 -5.19989 0.490761 0
M  V30 542 H 51.7554 -2.94175 0.556916 0
M  V30 543 H 49.3014 -1.4146 0.26927 0
M  V30 544 H 51.2544 -3.85477 -1.70251 0
M  V30 545 H 49.9784 -2.63343 -1.93179 0
M  V30 546 H 48.6374 -3.66541 -0.0656164 0
M  V30 547 H 48.2854 -4.4048 -2.42871 0
M  V30 548 H 47.9854 -5.7345 -1.28174 0
M  V30 549 H 49.5094 -5.6908 -2.21314 0
M  V30 550 H 50.9234 -5.73271 0.0579047 0
M  V30 551 H 49.3204 -5.94469 0.820165 0
M  V30 552 H 50.3904 -4.64777 1.3824 0
M  V30 553 N 51.7335 -0.305618 -1.54608 0
M  V30 554 C 53.0105 0.355652 -1.92339 0
M  V30 555 C 53.3905 1.71324 -1.23335 0
M  V30 556 O 52.7385 2.25473 -0.370702 0
M  V30 557 C 52.9485 0.46572 -3.45879 0
M  V30 558 C 54.2965 0.734426 -4.182 0
M  V30 559 O 55.3205 0.54935 -3.51938 0
M  V30 560 O 54.1795 1.09024 -5.35515 0
M  V30 561 H 51.2735 0.199666 -0.802535 0
M  V30 562 H 53.8195 -0.354017 -1.65966 0
M  V30 563 H 52.5915 -0.488461 -3.88239 0
M  V30 564 H 52.2145 1.22367 -3.78301 0
M  V30 565 N 53.2116 1.57565 -0.0334293 0
M  V30 566 C 54.6276 1.56297 0.322997 0
M  V30 567 C 54.8276 1.03945 1.7262 0
M  V30 568 O 53.8836 0.688109 2.42943 0
M  V30 569 C 55.1966 3.00232 0.167664 0
M  V30 570 C 56.7446 3.12078 0.240107 0
M  V30 571 C 57.2196 4.57859 0.113513 0
M  V30 572 N 58.7106 4.62887 0.170359 0
M  V30 573 C 59.4456 5.73319 0.0962517 0
M  V30 574 N 58.9416 6.92794 -0.0291881 0
M  V30 575 N 60.7346 5.61898 0.150551 0
M  V30 576 H 52.8856 1.89923 -0.950956 0
M  V30 577 H 55.1486 0.873824 -0.367608 0
M  V30 578 H 54.8546 3.42501 -0.799102 0
M  V30 579 H 54.7286 3.654 0.936083 0
M  V30 580 H 57.1156 2.69718 1.19733 0
M  V30 581 H 57.1966 2.49623 -0.558763 0
M  V30 582 H 56.8406 5.009 -0.840314 0
M  V30 583 H 56.7706 5.18299 0.931302 0
M  V30 584 H 59.2616 3.76954 0.26728 0
M  V30 585 H 59.5746 7.7276 -0.0789252 0
M  V30 586 H 57.9196 6.94971 -0.0640299 0
M  V30 587 H 61.1106 4.67448 0.246981 0
M  V30 588 H 61.2836 6.47938 0.0893365 0
M  V30 589 N 54.6897 -0.239769 1.55765 0
M  V30 590 C 55.6197 -1.30052 1.9393 0
M  V30 591 C 56.6007 -1.49839 0.805132 0
M  V30 592 O 57.7857 -1.62328 1.06599 0
M  V30 593 C 54.9157 -2.65391 2.2402 0
M  V30 594 C 53.8697 -2.60289 3.39755 0
M  V30 595 C 53.1957 -3.99489 3.55405 0
M  V30 596 C 54.4957 -2.16654 4.75246 0
M  V30 597 H 56.1897 -0.983573 2.82783 0
M  V30 598 H 53.7357 -0.471701 1.36055 0
M  V30 599 H 55.6887 -3.3974 2.49308 0
M  V30 600 H 54.4127 -2.98736 1.32 0
M  V30 601 H 53.0717 -1.88398 3.14487 0
M  V30 602 H 52.7197 -4.30112 2.60793 0
M  V30 603 H 52.4197 -3.96962 4.33238 0
M  V30 604 H 53.9437 -4.75528 3.83022 0
M  V30 605 H 55.3577 -2.80737 4.99859 0
M  V30 606 H 53.7547 -2.25223 5.56232 0
M  V30 607 H 54.8247 -1.11835 4.71827 0
M  V30 608 N 56.1678 -1.49265 -0.50573 0
M  V30 609 C 57.5838 -1.35923 -0.836486 0
M  V30 610 C 57.7838 -0.388704 -1.97715 0
M  V30 611 O 56.8398 0.181336 -2.51848 0
M  V30 612 C 58.1528 -2.76531 -1.18115 0
M  V30 613 C 59.7008 -2.85197 -1.28964 0
M  V30 614 C 60.1758 -4.26561 -1.66761 0
M  V30 615 N 61.6668 -4.2935 -1.73819 0
M  V30 616 C 62.4018 -5.35693 -2.045 0
M  V30 617 N 61.8978 -6.52287 -2.33438 0
M  V30 618 N 63.6908 -5.23105 -2.05711 0
M  V30 619 H 55.8418 -2.10965 0.246519 0
M  V30 620 H 58.1048 -0.9468 0.0476887 0
M  V30 621 H 57.8108 -3.49226 -0.416398 0
M  V30 622 H 57.6848 -3.11599 -2.1257 0
M  V30 623 H 60.0718 -2.12742 -2.04511 0
M  V30 624 H 60.1528 -2.53718 -0.325704 0
M  V30 625 H 59.7968 -4.99541 -0.917656 0
M  V30 626 H 59.7268 -4.55502 -2.64246 0
M  V30 627 H 62.2178 -3.4526 -1.53635 0
M  V30 628 H 62.5308 -7.29158 -2.56024 0
M  V30 629 H 60.8758 -6.55521 -2.30905 0
M  V30 630 H 64.0668 -4.31026 -1.82577 0
M  V30 631 H 64.2398 -6.06078 -2.29289 0
M  V30 632 N 57.6459 0.756429 -1.3826 0
M  V30 633 C 58.5779 1.87971 -1.31147 0
M  V30 634 C 59.5909 1.61248 -0.224239 0
M  V30 635 O 60.7799 1.71881 -0.481581 0
M  V30 636 C 57.8799 3.23545 -1.00857 0
M  V30 637 C 57.0529 3.77794 -2.20432 0
M  V30 638 C 56.1119 4.91877 -1.86931 0
M  V30 639 O 55.1379 5.06659 -2.59395 0
M  V30 640 N 56.3399 5.74643 -0.822568 0
M  V30 641 H 59.1049 1.94585 -2.2794 0
M  V30 642 H 56.6659 0.936234 -1.32084 0
M  V30 643 H 58.6579 3.97403 -0.765021 0
M  V30 644 H 57.2279 3.12335 -0.128687 0
M  V30 645 H 56.4479 2.95534 -2.6087 0
M  V30 646 H 57.7359 4.10771 -3.00241 0
M  V30 647 H 57.1339 5.65266 -0.221575 0
M  V30 648 H 55.6909 6.48661 -0.638899 0
M  V30 649 N 59.124 1.23083 0.984299 0
M  V30 650 C 60.54 0.992637 1.24975 0
M  V30 651 C 60.74 -0.308618 1.99123 0
M  V30 652 O 59.796 -1.02905 2.30579 0
M  V30 653 C 61.109 2.19698 2.05312 0
M  V30 654 C 62.657 2.24147 2.18465 0
M  V30 655 C 63.132 3.44157 3.02192 0
M  V30 656 N 64.623 3.44372 3.09777 0
M  V30 657 C 65.358 4.33886 3.74874 0
M  V30 658 N 64.854 5.3363 4.41827 0
M  V30 659 N 66.647 4.21639 3.71721 0
M  V30 660 H 58.798 2.06731 0.487453 0
M  V30 661 H 61.061 0.906339 0.277944 0
M  V30 662 H 60.767 3.1411 1.58201 0
M  V30 663 H 60.641 2.20465 3.06064 0
M  V30 664 H 63.028 1.30277 2.64786 0
M  V30 665 H 63.109 2.27415 1.17115 0
M  V30 666 H 62.753 4.38332 2.56568 0
M  V30 667 H 62.683 3.3813 4.03702 0
M  V30 668 H 65.174 2.72201 2.62135 0
M  V30 669 H 65.487 5.98196 4.89266 0
M  V30 670 H 63.832 5.37534 4.40548 0
M  V30 671 H 67.023 3.42962 3.18582 0
M  V30 672 H 67.196 4.91604 4.22173 0
M  V30 673 N 60.6021 -1.18246 1.0419 0
M  V30 674 C 61.8501 -1.87886 0.744543 0
M  V30 675 C 62.1711 -1.8082 -0.730006 0
M  V30 676 O 61.4411 -1.22736 -1.52685 0
M  V30 677 H 60.0211 -0.695556 0.272417 0
M  V30 678 H 62.6831 -1.43494 1.31892 0
M  V30 679 H 61.7791 -2.9389 1.05049 0
M  V30 680 N 62.0802 -0.821533 -1.34494 0
M  V30 681 C 63.0102 -0.257138 -2.3208 0
M  V30 682 C 63.9912 0.625645 -1.58176 0
M  V30 683 O 65.1762 0.552811 -1.86166 0
M  V30 684 C 62.3062 0.582958 -3.42372 0
M  V30 685 C 61.2602 -0.202571 -4.2752 0
M  V30 686 C 60.5862 0.760179 -5.29269 0
M  V30 687 C 61.8862 -1.40998 -5.02908 0
M  V30 688 H 63.5802 -1.07247 -2.79532 0
M  V30 689 H 61.1262 -0.517163 -1.34393 0
M  V30 690 H 63.0792 0.987972 -4.09655 0
M  V30 691 H 61.8032 1.43133 -2.93565 0
M  V30 692 H 60.4622 -0.588936 -3.61838 0
M  V30 693 H 60.1102 1.60447 -4.76724 0
M  V30 694 H 59.8102 0.238809 -5.87115 0
M  V30 695 H 61.3342 1.16308 -5.9942 0
M  V30 696 H 62.7482 -1.07905 -5.63054 0
M  V30 697 H 61.1452 -1.86689 -5.70322 0
M  V30 698 H 62.2152 -2.1889 -4.32684 0
M  V30 699 N 63.5583 1.46682 -0.576371 0
M  V30 700 C 64.4683 2.34032 0.163141 0
M  V30 701 C 65.4843 1.49367 0.892501 0
M  V30 702 O 66.6603 1.82252 0.857106 0
M  V30 703 C 63.7253 3.26435 1.16795 0
M  V30 704 C 62.7863 4.26998 0.443944 0
M  V30 705 C 62.0193 5.14986 1.40088 0
M  V30 706 O 62.2423 5.05785 2.637 0
M  V30 707 O 61.1763 5.94906 0.914917 0
M  V30 708 H 65.0023 2.98607 -0.55388 0
M  V30 709 H 62.5873 1.45554 -0.336821 0
M  V30 710 H 64.4693 3.83459 1.74748 0
M  V30 711 H 63.1443 2.64465 1.86655 0
M  V30 712 H 62.0513 3.7368 -0.177271 0
M  V30 713 H 63.3843 4.91736 -0.213566 0
M  V30 714 N 65.0364 0.313813 1.54444 0
M  V30 715 C 65.9684 -0.590425 2.21465 0
M  V30 716 C 66.9814 -1.08753 1.21147 0
M  V30 717 O 68.1704 -1.00278 1.4767 0
M  V30 718 C 65.2704 -1.82179 2.85769 0
M  V30 719 C 64.4434 -1.46502 4.12136 0
M  V30 720 C 63.5024 -2.55288 4.60124 0
M  V30 721 O 62.5284 -2.19842 5.25032 0
M  V30 722 N 63.7304 -3.86053 4.33525 0
M  V30 723 H 66.4954 -0.0166033 2.99695 0
M  V30 724 H 64.0564 0.136578 1.61323 0
M  V30 725 H 66.0484 -2.54328 3.14801 0
M  V30 726 H 64.6184 -2.30369 2.11303 0
M  V30 727 H 63.8384 -0.575595 3.89975 0
M  V30 728 H 65.1264 -1.20221 4.94393 0
M  V30 729 H 64.5244 -4.17654 3.81552 0
M  V30 730 H 63.0814 -4.54461 4.67235 0
M  V30 731 N 66.5145 -1.57545 0.0417849 0
M  V30 732 C 67.9305 -1.56467 -0.314704 0
M  V30 733 C 68.1305 -1.04859 -1.72066 0
M  V30 734 O 67.1865 -0.700983 -2.42575 0
M  V30 735 C 68.4995 -3.00317 -0.15174 0
M  V30 736 C 70.0475 -3.12201 -0.223553 0
M  V30 737 C 70.5225 -4.57913 -0.0892295 0
M  V30 738 N 72.0135 -4.6297 -0.145808 0
M  V30 739 C 72.7485 -5.73362 -0.0658459 0
M  V30 740 N 72.2445 -6.92769 0.0659282 0
M  V30 741 N 74.0375 -5.6197 -0.12075 0
M  V30 742 H 66.1885 -1.89416 0.961014 0
M  V30 743 H 68.4515 -0.871862 0.372237 0
M  V30 744 H 68.1575 -3.42073 0.817254 0
M  V30 745 H 68.0315 -3.65892 -0.916692 0
M  V30 746 H 70.4185 -2.70349 -1.18301 0
M  V30 747 H 70.4995 -2.49323 0.571994 0
M  V30 748 H 70.1435 -5.00448 0.866867 0
M  V30 749 H 70.0735 -5.18786 -0.903802 0
M  V30 750 H 72.5645 -3.7709 -0.247286 0
M  V30 751 H 72.8775 -7.72707 0.119905 0
M  V30 752 H 71.2225 -6.94927 0.100885 0
M  V30 753 H 74.4135 -4.67572 -0.222187 0
M  V30 754 H 74.5865 -6.47977 -0.0549735 0
M  V30 755 N 67.9926 0.231505 -1.5589 0
M  V30 756 C 69.2326 0.964533 -1.80211 0
M  V30 757 C 69.5966 1.81926 -0.613744 0
M  V30 758 O 70.7976 2.58526 -0.736045 0
M  V30 759 C 69.0686 1.78956 -3.09369 0
M  V30 760 S 70.6276 2.57959 -3.54969 0
M  V30 761 H 67.4456 0.324173 -0.632798 0
M  V30 762 H 70.0476 0.230985 -1.94131 0
M  V30 763 H 68.7516 1.15161 -3.93911 0
M  V30 764 H 68.2826 2.56559 -2.9823 0
M  V30 765 H 70.2976 3.81309 -3.17519 0
M  V30 766 N 69.4707 1.49531 0.497807 0
M  V30 767 C 70.4007 1.6935 1.60757 0
M  V30 768 C 71.3817 0.542218 1.61227 0
M  V30 769 O 72.5667 0.778417 1.77917 0
M  V30 770 C 69.6967 1.76298 2.99226 0
M  V30 771 C 68.6507 2.91248 3.13622 0
M  V30 772 C 67.9767 2.83312 4.53474 0
M  V30 773 C 69.2767 4.3214 2.93346 0
M  V30 774 H 70.9707 2.62263 1.44425 0
M  V30 775 H 68.5167 1.26208 0.693367 0
M  V30 776 H 70.4697 1.88749 3.76765 0
M  V30 777 H 69.1937 0.799871 3.16654 0
M  V30 778 H 67.8527 2.78404 2.38509 0
M  V30 779 H 67.5007 1.84902 4.67782 0
M  V30 780 H 67.2007 3.60465 4.64046 0
M  V30 781 H 68.7247 2.97775 5.33069 0
M  V30 782 H 70.1387 4.45649 3.60652 0
M  V30 783 H 68.5357 5.1054 3.15387 0
M  V30 784 H 69.6057 4.46363 1.89441 0
M  V30 785 N 70.9488 -0.749086 1.3866 0
M  V30 786 C 72.3648 -1.05276 1.19955 0
M  V30 787 C 72.5648 -2.01435 0.05134 0
M  V30 788 O 71.6208 -2.45232 -0.60147 0
M  V30 789 C 72.9338 -1.62853 2.52783 0
M  V30 790 C 74.4818 -1.75002 2.59506 0
M  V30 791 C 74.9568 -2.35991 3.92521 0
M  V30 792 N 76.4478 -2.43416 3.94085 0
M  V30 793 C 77.1828 -2.91511 4.9377 0
M  V30 794 N 76.6788 -3.39608 6.03853 0
M  V30 795 N 78.4718 -2.90592 4.81157 0
M  V30 796 H 70.6228 -0.111066 2.12109 0
M  V30 797 H 72.8858 -0.111901 0.941373 0
M  V30 798 H 72.5918 -0.99664 3.37283 0
M  V30 799 H 72.4658 -2.61854 2.715 0
M  V30 800 H 74.8528 -2.37317 1.75398 0
M  V30 801 H 74.9338 -0.74693 2.44652 0
M  V30 802 H 74.5778 -1.74308 4.77053 0
M  V30 803 H 74.5078 -3.3695 4.04688 0
M  V30 804 H 76.9988 -2.09405 3.14576 0
M  V30 805 H 77.3118 -3.74775 6.75843 0
M  V30 806 H 75.6568 -3.37653 6.07466 0
M  V30 807 H 78.8478 -2.52332 3.94267 0
M  V30 808 H 79.0208 -3.27762 5.58996 0
M  V30 809 N 72.4269 -1.23603 -0.977757 0
M  V30 810 C 73.3569 -1.04401 -2.0886 0
M  V30 811 C 74.3379 0.0399052 -1.70053 0
M  V30 812 O 75.5229 -0.125246 -1.93796 0
M  V30 813 C 72.6529 -0.637269 -3.41403 0
M  V30 814 C 71.6069 -1.66883 -3.94124 0
M  V30 815 C 70.9329 -1.11745 -5.22893 0
M  V30 816 C 72.2329 -3.06247 -4.23096 0
M  V30 817 H 73.9269 -1.97316 -2.25182 0
M  V30 818 H 71.4729 -0.950096 -1.08209 0
M  V30 819 H 73.4259 -0.48998 -4.18542 0
M  V30 820 H 72.1499 0.327557 -3.24953 0
M  V30 821 H 70.8089 -1.80416 -3.19133 0
M  V30 822 H 70.4569 -0.143527 -5.02795 0
M  V30 823 H 70.1569 -1.80672 -5.59134 0
M  V30 824 H 71.6809 -0.982067 -6.02651 0
M  V30 825 H 73.0949 -2.96001 -4.90975 0
M  V30 826 H 71.4919 -3.72436 -4.70544 0
M  V30 827 H 72.5619 -3.55041 -3.30263 0
M  V30 828 N 73.905 1.17692 -1.04816 0
M  V30 829 C 75.13 1.92327 -0.776207 0
M  V30 830 C 75.555 1.76082 0.661581 0
M  V30 831 O 74.913 1.076 1.45917 0
M  V30 832 C 74.961 3.41539 -1.15687 0
M  V30 833 O 74.065 4.11402 -0.286775 0
M  V30 834 H 73.406 0.599735 -0.284981 0
M  V30 835 H 75.936 1.49201 -1.4 0
M  V30 836 H 75.946 3.92269 -1.12202 0
M  V30 837 H 74.621 3.52684 -2.20425 0
M  V30 838 H 73.198 3.70939 -0.381903 0
M  V30 839 N 75.3831 0.828654 1.34056 0
M  V30 840 C 76.3461 0.259927 2.27721 0
M  V30 841 C 77.3461 -0.565478 1.50529 0
M  V30 842 O 78.5361 -0.38075 1.69988 0
M  V30 843 C 75.6681 -0.634944 3.34935 0
M  V30 844 H 76.8611 1.0863 2.79534 0
M  V30 845 H 74.4141 0.600951 1.44285 0
M  V30 846 H 75.1491 -1.48416 2.88346 0
M  V30 847 H 74.9341 -0.0444999 3.92075 0
M  V30 848 H 76.4241 -1.02648 4.04788 0
M  V30 849 N 76.8612 -1.46375 0.584142 0
M  V30 850 C 78.2772 -1.57694 0.245929 0
M  V30 851 C 78.4772 -1.57903 -1.25175 0
M  V30 852 O 77.5332 -1.49676 -2.03355 0
M  V30 853 C 78.8462 -2.87028 0.896402 0
M  V30 854 C 80.3942 -3.00662 0.870127 0
M  V30 855 C 80.8692 -4.32734 1.50017 0
M  V30 856 N 82.3602 -4.39436 1.46458 0
M  V30 857 C 83.0952 -5.40248 1.92144 0
M  V30 858 N 82.5912 -6.47726 2.4581 0
M  V30 859 N 84.3842 -5.31459 1.83052 0
M  V30 860 H 76.5352 -1.44483 1.55687 0
M  V30 861 H 78.7982 -0.689291 0.650831 0
M  V30 862 H 78.5042 -2.9269 1.95002 0
M  V30 863 H 78.3782 -3.75014 0.405486 0
M  V30 864 H 80.7652 -2.94581 -0.174871 0
M  V30 865 H 80.8462 -2.14148 1.39908 0
M  V30 866 H 80.4902 -4.39573 2.54437 0
M  V30 867 H 80.4202 -5.18025 0.946432 0
M  V30 868 H 82.9112 -3.62367 1.07231 0
M  V30 869 H 83.2242 -7.20863 2.78525 0
M  V30 870 H 81.5692 -6.48542 2.49836 0
M  V30 871 H 84.7602 -4.46396 1.40883 0
M  V30 872 H 84.9332 -6.09881 2.18973 0
M  V30 873 N 78.3393 -0.321999 -1.54275 0
M  V30 874 C 79.2493 0.553631 -2.27974 0
M  V30 875 C 80.2653 1.13054 -1.32268 0
M  V30 876 O 81.4413 1.15084 -1.6528 0
M  V30 877 C 78.5063 1.69927 -3.02201 0
M  V30 878 C 77.5673 1.15433 -4.1349 0
M  V30 879 C 76.8003 2.24537 -4.84168 0
M  V30 880 O 77.0233 3.44852 -4.5435 0
M  V30 881 O 75.9573 1.90044 -5.7111 0
M  V30 882 H 79.7833 -0.0448345 -3.03667 0
M  V30 883 H 77.3683 -0.0877418 -1.49142 0
M  V30 884 H 79.2503 2.3663 -3.48689 0
M  V30 885 H 77.9253 2.28395 -2.29385 0
M  V30 886 H 76.8323 0.452436 -3.71354 0
M  V30 887 H 78.1653 0.614805 -4.88345 0
M  V30 888 N 79.8174 1.5752 -0.0501392 0
M  V30 889 C 80.7804 2.1037 0.909786 0
M  V30 890 C 81.7804 1.02308 1.24056 0
M  V30 891 O 82.9704 1.28385 1.17741 0
M  V30 892 C 80.1024 2.58708 2.21998 0
M  V30 893 H 81.2954 2.96479 0.451665 0
M  V30 894 H 78.8484 1.55038 0.198248 0
M  V30 895 H 79.5834 1.75989 2.72394 0
M  V30 896 H 79.3684 3.37675 1.99295 0
M  V30 897 H 80.8584 2.99747 2.9076 0
M  V30 898 N 81.2955 -0.223234 1.56011 0
M  V30 899 C 82.5205 -0.968978 1.83373 0
M  V30 900 C 82.9455 -1.77227 0.630254 0
M  V30 901 O 82.3035 -1.76345 -0.420959 0
M  V30 902 C 82.3515 -1.86363 3.08709 0
M  V30 903 O 81.4555 -2.95873 2.87285 0
M  V30 904 H 80.7965 -0.274461 0.604622 0
M  V30 905 H 83.3265 -0.237056 2.03222 0
M  V30 906 H 83.3365 -2.27376 3.38768 0
M  V30 907 H 82.0115 -1.27319 3.95933 0
M  V30 908 H 80.5885 -2.58818 2.68454 0
M  V30 909 N 82.7736 -1.49793 -0.48987 0
M  V30 910 C 83.6836 -1.70036 -1.61632 0
M  V30 911 C 84.6996 -0.583102 -1.63939 0
M  V30 912 O 85.8756 -0.859169 -1.82154 0
M  V30 913 C 82.9406 -1.77277 -2.97949 0
M  V30 914 C 82.0016 -3.00918 -3.06181 0
M  V30 915 C 81.2346 -3.07804 -4.35996 0
M  V30 916 O 81.4576 -2.21982 -5.25433 0
M  V30 917 O 80.3916 -4.00369 -4.49431 0
M  V30 918 H 84.2176 -2.65486 -1.47482 0
M  V30 919 H 81.8026 -1.33666 -0.667362 0
M  V30 920 H 83.6846 -1.84329 -3.78947 0
M  V30 921 H 82.3596 -0.850076 -3.12339 0
M  V30 922 H 81.2666 -2.99377 -2.2433 0
M  V30 923 H 82.5996 -3.92704 -2.96723 0
M  V30 924 N 84.2517 0.741722 -1.39055 0
M  V30 925 C 85.1617 1.88621 -1.39496 0
M  V30 926 C 86.1777 1.71557 -0.290578 0
M  V30 927 O 87.3537 1.94275 -0.530954 0
M  V30 928 C 84.4187 3.24134 -1.23037 0
M  V30 929 C 83.4797 3.5364 -2.43387 0
M  V30 930 C 82.7127 4.82687 -2.27703 0
M  V30 931 O 82.9357 5.55922 -1.27696 0
M  V30 932 O 81.8697 5.1194 -3.16545 0
M  V30 933 H 85.6957 1.91203 -2.35956 0
M  V30 934 H 83.2807 0.888625 -1.20099 0
M  V30 935 H 85.1627 4.0513 -1.15964 0
M  V30 936 H 83.8377 3.22337 -0.296691 0
M  V30 937 H 82.7447 2.72758 -2.56035 0
M  V30 938 H 84.0777 3.60209 -3.35425 0
M  V30 939 N 85.7298 1.2412 0.971189 0
M  V30 940 C 86.6398 1.04747 2.09917 0
M  V30 941 C 87.6558 -0.0107162 1.73997 0
M  V30 942 O 88.8318 0.186714 2.00533 0
M  V30 943 C 85.8968 0.650828 3.40537 0
M  V30 944 C 84.9578 1.7851 3.90426 0
M  V30 945 C 84.1908 1.40729 5.14812 0
M  V30 946 O 84.4138 0.29557 5.69634 0
M  V30 947 O 83.3478 2.23168 5.58999 0
M  V30 948 H 87.1738 1.99304 2.29154 0
M  V30 949 H 84.7588 1.02908 1.08307 0
M  V30 950 H 86.6408 0.440992 4.19086 0
M  V30 951 H 85.3158 -0.265649 3.22608 0
M  V30 952 H 84.2228 2.04966 3.12953 0
M  V30 953 H 85.5558 2.68023 4.12825 0
M  V30 954 N 87.2079 -1.17134 1.05439 0
M  V30 955 C 88.1379 -2.2342 0.678649 0
M  V30 956 C 89.1189 -1.66971 -0.32476 0
M  V30 957 O 90.3039 -1.93149 -0.201802 0
M  V30 958 C 87.4339 -3.47256 0.0552099 0
M  V30 959 C 86.3879 -4.16543 0.98365 0
M  V30 960 C 85.7139 -5.34231 0.223961 0
M  V30 961 C 87.0139 -4.68495 2.3089 0
M  V30 962 H 88.7079 -2.55105 1.56722 0
M  V30 963 H 86.2539 -1.2262 0.754998 0
M  V30 964 H 88.2069 -4.20828 -0.21946 0
M  V30 965 H 86.9309 -3.14846 -0.868319 0
M  V30 966 H 85.5899 -3.44887 1.24293 0
M  V30 967 H 85.2379 -4.98071 -0.702412 0
M  V30 968 H 84.9379 -5.81527 0.842627 0
M  V30 969 H 86.4619 -6.10585 -0.0433671 0
M  V30 970 H 87.8759 -5.33691 2.09396 0
M  V30 971 H 86.2729 -5.26379 2.88176 0
M  V30 972 H 87.3429 -3.85169 2.94572 0
M  V30 973 N 88.686 -0.835752 -1.33615 0
M  V30 974 C 89.934 -0.429109 -1.97492 0
M  V30 975 C 90.255 1.01433 -1.66543 0
M  V30 976 O 89.525 1.70611 -0.962744 0
M  V30 977 H 88.105 -0.155686 -0.730596 0
M  V30 978 H 90.767 -1.06802 -1.63031 0
M  V30 979 H 89.863 -0.55861 -3.0706 0
M  V30 980 N 90.1641 1.46063 -0.591896 0
M  V30 981 C 91.0941 2.33172 0.123673 0
M  V30 982 C 92.0751 1.45897 0.87453 0
M  V30 983 O 93.2601 1.74698 0.848181 0
M  V30 984 C 90.3901 3.28336 1.13194 0
M  V30 985 C 89.3441 4.25124 0.495324 0
M  V30 986 C 88.6701 5.09863 1.61071 0
M  V30 987 C 89.9701 5.19143 -0.573425 0
M  V30 988 H 91.6641 2.93252 -0.603646 0
M  V30 989 H 89.2101 1.41014 -0.291741 0
M  V30 990 H 91.1631 3.88137 1.64097 0
M  V30 991 H 89.8871 2.66383 1.88965 0
M  V30 992 H 88.5461 3.66599 0.00729452 0
M  V30 993 H 88.1941 4.44288 2.35832 0
M  V30 994 H 87.8941 5.75417 1.19035 0
M  V30 995 H 89.4181 5.72529 2.12233 0
M  V30 996 H 90.8321 5.73106 -0.1491 0
M  V30 997 H 89.2291 5.93089 -0.914636 0
M  V30 998 H 90.2991 4.62519 -1.45617 0
M  V30 999 N 91.6422 0.330177 1.54103 0
M  V30 1000 C 92.8882 -0.270806 2.00984 0
M  V30 1001 C 93.2212 -1.51265 1.21789 0
M  V30 1002 O 92.4962 -1.92142 0.301927 0
M  V30 1003 C 92.7792 -0.598339 3.55094 0
M  V30 1004 C 92.6322 0.654674 4.4501 0
M  V30 1005 C 93.9512 -1.41334 4.16789 0
M  V30 1006 H 91.0702 -0.0969531 0.730595 0
M  V30 1007 H 93.7122 0.448066 1.84641 0
M  V30 1008 H 91.8622 -1.21078 3.69151 0
M  V30 1009 H 93.5342 1.29285 4.42813 0
M  V30 1010 H 91.7772 1.28224 4.14416 0
M  V30 1011 H 92.4482 0.380944 5.50684 0
M  V30 1012 H 94.9242 -0.895597 4.06347 0
M  V30 1013 H 93.8002 -1.61127 5.24718 0
M  V30 1014 H 94.0612 -2.41146 3.70541 0
M  V30 1015 N 93.1203 -1.57491 0.0584922 0
M  V30 1016 C 94.0703 -2.08474 -0.923188 0
M  V30 1017 C 95.0543 -0.991479 -1.26722 0
M  V30 1018 O 96.2463 -1.25473 -1.24842 0
M  V30 1019 C 93.3753 -2.6392 -2.19548 0
M  V30 1020 C 92.4613 -3.80227 -1.87852 0
M  V30 1021 N 92.8523 -4.89714 -1.26546 0
M  V30 1022 C 91.1503 -3.89271 -2.17679 0
M  V30 1023 C 91.8513 -5.70689 -1.12644 0
M  V30 1024 N 90.8273 -5.18531 -1.63176 0
M  V30 1025 H 94.6293 -2.90517 -0.444653 0
M  V30 1026 H 92.1433 -1.61745 -0.145764 0
M  V30 1027 H 94.1403 -2.98752 -2.9078 0
M  V30 1028 H 92.8003 -1.83318 -2.68001 0
M  V30 1029 H 93.8113 -5.09358 -0.936757 0
M  V30 1030 H 90.4883 -3.19623 -2.68602 0
M  V30 1031 H 91.8783 -6.6875 -0.6499 0
M  V30 1032 N 94.5984 0.214957 -1.56127 0
M  V30 1033 C 95.8234 0.95924 -1.83884 0
M  V30 1034 C 96.2484 1.7689 -0.639644 0
M  V30 1035 O 95.6064 1.76566 0.411601 0
M  V30 1036 C 95.6544 1.84723 -3.09693 0
M  V30 1037 O 94.7584 2.94346 -2.8885 0
M  V30 1038 H 94.0994 0.27125 -0.606069 0
M  V30 1039 H 96.6294 0.226276 -2.03345 0
M  V30 1040 H 96.6394 2.25576 -3.39969 0
M  V30 1041 H 95.3144 1.25218 -3.96602 0
M  V30 1042 H 93.8914 2.57391 -2.69823 0
M  V30 1043 N 96.0765 1.50051 0.48192 0
M  V30 1044 C 97.4875 1.5348 1.06305 0
M  V30 1045 C 97.8385 0.331997 1.93371 0
M  V30 1046 O 96.9635 -0.556256 2.09129 0
M  V30 1047 C 97.5585 2.7813 1.93466 0
M  V30 1048 C 96.1175 2.84275 2.46707 0
M  V30 1049 C 95.2645 2.47637 1.24785 0
M  V30 1050 H 98.2155 1.56472 0.264995 0
M  V30 1051 H 98.2365 2.59372 2.78399 0
M  V30 1052 H 97.7485 3.65654 1.30072 0
M  V30 1053 H 95.8495 2.01077 3.13686 0
M  V30 1054 H 95.9625 3.8691 2.82555 0
M  V30 1055 H 94.3265 1.99835 1.57918 0
M  V30 1056 H 95.1095 3.37457 0.630694 0
M  V30 1057 N 97.5546 -0.734337 1.39446 0
M  V30 1058 C 98.4646 -1.87879 1.40495 0
M  V30 1059 C 99.4806 -1.714 0.299672 0
M  V30 1060 O 100.657 -1.93991 0.541249 0
M  V30 1061 C 97.7216 -3.23477 1.24754 0
M  V30 1062 C 96.7826 -3.52344 2.45259 0
M  V30 1063 C 96.0156 -4.81473 2.30259 0
M  V30 1064 O 96.2386 -5.55237 1.30643 0
M  V30 1065 O 95.1726 -5.10254 3.19256 0
M  V30 1066 H 98.9986 -1.89949 2.36966 0
M  V30 1067 H 96.5836 -0.882243 1.20569 0
M  V30 1068 H 98.4656 -4.04509 1.18111 0
M  V30 1069 H 97.1406 -3.22176 0.313781 0
M  V30 1070 H 96.0476 -2.71396 2.57478 0
M  V30 1071 H 97.3806 -3.58426 3.37331 0
M  V30 1072 N 99.0327 -1.24633 -0.964593 0
M  V30 1073 C 100.263 -1.11339 -1.74032 0
M  V30 1074 C 100.671 0.336593 -1.86182 0
M  V30 1075 O 100.014 1.24389 -1.35178 0
M  V30 1076 C 100.076 -1.68284 -3.1768 0
M  V30 1077 C 99.7397 -3.17196 -3.28992 0
M  V30 1078 C 100.737 -4.14308 -3.14078 0
M  V30 1079 C 98.4217 -3.57215 -3.53133 0
M  V30 1080 C 100.416 -5.4942 -3.23135 0
M  V30 1081 C 98.1027 -4.92468 -3.61827 0
M  V30 1082 C 99.1007 -5.8838 -3.46841 0
M  V30 1083 O 98.7887 -7.21173 -3.55197 0
M  V30 1084 H 98.5207 -0.389551 -0.552472 0
M  V30 1085 H 101.075 -1.65282 -1.21946 0
M  V30 1086 H 99.3047 -1.08777 -3.71085 0
M  V30 1087 H 100.994 -1.50234 -3.77074 0
M  V30 1088 H 101.76 -3.84731 -2.95308 0
M  V30 1089 H 97.6387 -2.83063 -3.63863 0
M  V30 1090 H 101.183 -6.24263 -3.11355 0
M  V30 1091 H 97.0797 -5.21714 -3.80111 0
M  V30 1092 H 97.8477 -7.29135 -3.71892 0
M  V30 1093 N 100.511 1.16574 -1.06058 0
M  V30 1094 C 101.757 1.87324 -0.777022 0
M  V30 1095 C 102.09 1.81351 0.694645 0
M  V30 1096 O 101.365 1.22753 1.50871 0
M  V30 1097 C 101.648 3.36991 -1.26922 0
M  V30 1098 C 101.501 3.51667 -2.80447 0
M  V30 1099 C 102.82 4.3131 -0.87521 0
M  V30 1100 H 99.9388 0.680191 -0.28374 0
M  V30 1101 H 102.581 1.37036 -1.3161 0
M  V30 1102 H 100.731 3.79949 -0.81063 0
M  V30 1103 H 102.403 3.17664 -3.34495 0
M  V30 1104 H 100.646 2.93656 -3.19294 0
M  V30 1105 H 101.317 4.56766 -3.0995 0
M  V30 1106 H 103.793 3.9624 -1.27014 0
M  V30 1107 H 102.669 5.34545 -1.2471 0
M  V30 1108 H 102.93 4.41552 0.220071 0
M  V30 1109 N 101.989 0.842826 1.3317 0
M  V30 1110 C 103.214 0.453129 2.02389 0
M  V30 1111 C 103.639 -0.939105 1.6298 0
M  V30 1112 O 102.997 -1.61472 0.8244 0
M  V30 1113 C 103.045 0.586094 3.55805 0
M  V30 1114 O 102.149 -0.386029 4.10589 0
M  V30 1115 H 101.49 0.183664 0.638094 0
M  V30 1116 H 104.02 1.13875 1.69981 0
M  V30 1117 H 104.03 0.469209 4.05293 0
M  V30 1118 H 102.705 1.6014 3.83833 0
M  V30 1119 H 101.282 -0.226371 3.72212 0
M  V30 1120 N 103.467 -1.45747 0.599634 0
M  V30 1121 C 104.397 -2.33235 -0.111306 0
M  V30 1122 C 105.378 -1.46359 -0.866781 0
M  V30 1123 O 106.563 -1.75146 -0.838904 0
M  V30 1124 C 103.693 -3.28932 -1.11451 0
M  V30 1125 C 102.647 -4.25381 -0.472772 0
M  V30 1126 C 101.973 -5.1071 -1.58365 0
M  V30 1127 C 103.273 -5.18831 0.600948 0
M  V30 1128 H 104.967 -2.92927 0.61919 0
M  V30 1129 H 102.513 -1.40857 0.299215 0
M  V30 1130 H 104.466 -3.89002 -1.62036 0
M  V30 1131 H 103.19 -2.67381 -1.8755 0
M  V30 1132 H 101.849 -3.66598 0.0121472 0
M  V30 1133 H 101.497 -4.45533 -2.33473 0
M  V30 1134 H 101.197 -5.7604 -1.15982 0
M  V30 1135 H 102.721 -5.73647 -2.09194 0
M  V30 1136 H 104.135 -5.73019 0.179491 0
M  V30 1137 H 102.532 -5.92595 0.946076 0
M  V30 1138 H 103.602 -4.6174 1.48068 0
M  V30 1139 N 104.945 -0.338344 -1.53925 0
M  V30 1140 C 106.191 0.260143 -2.01125 0
M  V30 1141 C 106.524 1.50617 -1.22589 0
M  V30 1142 O 105.799 1.91979 -0.312113 0
M  V30 1143 C 106.082 0.579499 -3.55407 0
M  V30 1144 C 105.935 -0.678264 -4.44657 0
M  V30 1145 C 107.254 1.39122 -4.17532 0
M  V30 1146 H 104.373 0.0930772 -0.731099 0
M  V30 1147 H 107.015 -0.457852 -1.84401 0
M  V30 1148 H 105.165 1.19118 -3.69788 0
M  V30 1149 H 106.837 -1.31631 -4.42121 0
M  V30 1150 H 105.08 -1.3042 -4.13731 0
M  V30 1151 H 105.751 -0.410143 -5.50474 0
M  V30 1152 H 108.227 0.874035 -4.06817 0
M  V30 1153 H 107.103 1.58342 -5.25565 0
M  V30 1154 H 107.364 2.39178 -3.71815 0
M  V30 1155 N 106.423 1.57458 -0.0668435 0
M  V30 1156 C 107.839 1.56947 0.289772 0
M  V30 1157 C 108.039 1.07584 1.70376 0
M  V30 1158 O 107.095 0.739486 2.41429 0
M  V30 1159 C 108.408 3.0052 0.103943 0
M  V30 1160 C 109.956 3.12517 0.173857 0
M  V30 1161 C 110.431 4.57997 0.0163682 0
M  V30 1162 N 111.922 4.63144 0.0721352 0
M  V30 1163 C 112.657 5.73394 -0.0253794 0
M  V30 1164 N 112.153 6.92576 -0.176133 0
M  V30 1165 N 113.946 5.62091 0.0313305 0
M  V30 1166 H 106.097 1.87863 -0.991027 0
M  V30 1167 H 108.36 0.86583 -0.38606 0
M  V30 1168 H 108.066 3.40729 -0.871572 0
M  V30 1169 H 107.94 3.67304 0.858366 0
M  V30 1170 H 110.327 2.72197 1.13985 0
M  V30 1171 H 110.408 2.48381 -0.611586 0
M  V30 1172 H 110.052 4.99005 -0.946374 0
M  V30 1173 H 109.982 5.20158 0.821153 0
M  V30 1174 H 112.473 3.77436 0.187263 0
M  V30 1175 H 112.786 7.72418 -0.242821 0
M  V30 1176 H 111.131 6.94678 -0.211429 0
M  V30 1177 H 114.322 4.67867 0.147773 0
M  V30 1178 H 114.495 6.47982 -0.048121 0
M  V30 1179 N 107.901 -0.206675 1.56239 0
M  V30 1180 C 108.811 -1.27686 1.96808 0
M  V30 1181 C 109.827 -1.50455 0.874035 0
M  V30 1182 O 111.003 -1.63295 1.17884 0
M  V30 1183 C 108.068 -2.60358 2.28942 0
M  V30 1184 C 107.129 -2.45762 3.51994 0
M  V30 1185 C 106.362 -3.72108 3.82585 0
M  V30 1186 O 106.585 -4.75776 3.14631 0
M  V30 1187 O 105.519 -3.6833 4.76043 0
M  V30 1188 H 109.345 -0.962593 2.88041 0
M  V30 1189 H 106.93 -0.410746 1.43643 0
M  V30 1190 H 108.812 -3.38687 2.50737 0
M  V30 1191 H 107.487 -2.91435 1.4088 0
M  V30 1192 H 106.394 -1.65584 3.35459 0
M  V30 1193 H 107.727 -2.19621 4.40486 0
M  V30 1194 N 109.379 -1.50304 -0.473955 0
M  V30 1195 C 110.607 -1.64902 -1.24959 0
M  V30 1196 C 111.022 -0.331198 -1.85872 0
M  V30 1197 O 110.379 0.68652 -1.69095 0
M  V30 1198 C 110.43 -2.73803 -2.36038 0
M  V30 1199 O 110.151 -4.00477 -1.77624 0
M  V30 1200 C 111.652 -2.99349 -3.26964 0
M  V30 1201 H 108.872 -0.554383 -0.378022 0
M  V30 1202 H 111.416 -1.9651 -0.566054 0
M  V30 1203 H 109.571 -2.44898 -3.00173 0
M  V30 1204 H 109.985 -4.60678 -2.5075 0
M  V30 1205 H 111.459 -3.79217 -4.01121 0
M  V30 1206 H 111.936 -2.10307 -3.85574 0
M  V30 1207 H 112.542 -3.29774 -2.68569 0
M  V30 1208 N 110.857 0.726932 -1.39834 0
M  V30 1209 C 111.789 1.85147 -1.35104 0
M  V30 1210 C 112.802 1.60736 -0.258392 0
M  V30 1211 O 113.991 1.70821 -0.517931 0
M  V30 1212 C 111.091 3.21332 -1.07697 0
M  V30 1213 C 110.264 3.73033 -2.28396 0
M  V30 1214 C 109.323 4.87802 -1.97322 0
M  V30 1215 O 108.349 5.01043 -2.70083 0
M  V30 1216 N 109.551 5.72768 -0.944273 0
M  V30 1217 H 112.316 1.89706 -2.32017 0
M  V30 1218 H 109.877 0.908006 -1.3404 0
M  V30 1219 H 111.869 3.95691 -0.849144 0
M  V30 1220 H 110.439 3.11992 -0.194909 0
M  V30 1221 H 109.659 2.89934 -2.6708 0
M  V30 1222 H 110.947 4.0431 -3.08887 0
M  V30 1223 H 110.345 5.64669 -0.341427 0
M  V30 1224 H 108.902 6.4716 -0.776346 0
M  V30 1225 N 112.336 1.25143 0.95797 0
M  V30 1226 C 113.582 1.09855 1.70469 0
M  V30 1227 C 113.915 -0.360187 1.90831 0
M  V30 1228 O 113.19 -1.26568 1.47685 0
M  V30 1229 C 113.473 1.8497 3.08963 0
M  V30 1230 C 113.326 3.38652 2.96032 0
M  V30 1231 C 114.645 1.63016 4.08795 0
M  V30 1232 H 111.764 0.400465 0.618706 0
M  V30 1233 H 114.406 1.53933 1.11376 0
M  V30 1234 H 112.556 1.47505 3.59409 0
M  V30 1235 H 114.228 3.85772 2.52938 0
M  V30 1236 H 112.471 3.66534 2.32025 0
M  V30 1237 H 113.142 3.8642 3.94187 0
M  V30 1238 H 115.618 1.95625 3.67247 0
M  V30 1239 H 114.494 2.18015 5.03747 0
M  V30 1240 H 114.755 0.570692 4.38401 0
M  V30 1241 N 113.814 -1.1601 1.06675 0
M  V30 1242 C 114.744 -2.22688 0.702307 0
M  V30 1243 C 115.725 -1.67306 -0.307032 0
M  V30 1244 O 116.91 -1.93352 -0.181305 0
M  V30 1245 C 114.04 -3.47178 0.092038 0
M  V30 1246 C 112.994 -4.15477 1.02777 0
M  V30 1247 C 112.32 -5.33963 0.28061 0
M  V30 1248 C 113.62 -4.66019 2.35846 0
M  V30 1249 H 115.314 -2.53429 1.59419 0
M  V30 1250 H 112.86 -1.21813 0.767961 0
M  V30 1251 H 114.813 -4.21037 -0.174814 0
M  V30 1252 H 113.537 -3.15749 -0.834877 0
M  V30 1253 H 112.196 -3.43549 1.27944 0
M  V30 1254 H 111.844 -4.98788 -0.649545 0
M  V30 1255 H 111.544 -5.806 0.904258 0
M  V30 1256 H 113.068 -6.10596 0.021396 0
M  V30 1257 H 114.482 -5.3144 2.15045 0
M  V30 1258 H 112.879 -5.23293 2.93743 0
M  V30 1259 H 113.949 -3.82023 2.98641 0
M  V30 1260 N 115.292 -0.849877 -1.32721 0
M  V30 1261 C 116.54 -0.450032 -1.97026 0
M  V30 1262 C 116.861 0.996604 -1.67609 0
M  V30 1263 O 116.131 1.6958 -0.980786 0
M  V30 1264 H 114.711 -0.163426 -0.728904 0
M  V30 1265 H 117.373 -1.08526 -1.6189 0
M  V30 1266 H 116.469 -0.591146 -3.0645 0
M  V30 1267 N 116.77 1.45427 -0.607355 0
M  V30 1268 C 117.717 2.3053 0.111625 0
M  V30 1269 C 118.687 1.4209 0.860216 0
M  V30 1270 O 119.872 1.71019 0.845998 0
M  V30 1271 C 117.012 3.26992 1.10319 0
M  V30 1272 C 116.125 4.30535 0.355493 0
M  V30 1273 C 115.26 5.14105 1.33676 0
M  V30 1274 C 114.299 6.09376 0.576862 0
M  V30 1275 N 113.436 6.85727 1.5074 0
M  V30 1276 H 118.276 2.91477 -0.620093 0
M  V30 1277 H 115.813 1.43631 -0.317594 0
M  V30 1278 H 117.771 3.81385 1.6912 0
M  V30 1279 H 116.401 2.67799 1.80232 0
M  V30 1280 H 115.453 3.78805 -0.348023 0
M  V30 1281 H 116.765 4.98235 -0.237423 0
M  V30 1282 H 115.919 5.72897 1.99684 0
M  V30 1283 H 114.658 4.46423 1.9636 0
M  V30 1284 H 113.663 5.49715 -0.0968519 0
M  V30 1285 H 114.888 6.79085 -0.0449341 0
M  V30 1286 H 112.834 6.20735 2.12189 0
M  V30 1287 H 112.751 7.49778 0.967913 0
M  V30 1288 H 114.019 7.4906 2.15706 0
M  V30 1289 N 118.248 0.346503 1.53744 0
M  V30 1290 C 119.158 -0.517293 2.28826 0
M  V30 1291 C 120.174 -1.10935 1.3405 0
M  V30 1292 O 121.35 -1.1244 1.6709 0
M  V30 1293 C 118.415 -1.65098 3.04866 0
M  V30 1294 C 117.476 -1.0884 4.15274 0
M  V30 1295 C 116.709 -2.16806 4.87679 0
M  V30 1296 O 116.932 -3.3758 4.59778 0
M  V30 1297 O 115.866 -1.80934 5.74061 0
M  V30 1298 H 119.692 0.0931396 3.03557 0
M  V30 1299 H 117.277 0.111458 1.48984 0
M  V30 1300 H 119.159 -2.31053 3.5241 0
M  V30 1301 H 117.834 -2.24717 2.32989 0
M  V30 1302 H 116.741 -0.3933 3.72027 0
M  V30 1303 H 118.074 -0.537036 4.89261 0
M  V30 1304 N 119.726 -1.57421 0.075193 0
M  V30 1305 C 120.636 -2.1642 -0.905511 0
M  V30 1306 C 121.652 -1.12828 -1.32461 0
M  V30 1307 O 122.828 -1.45109 -1.39661 0
M  V30 1308 C 119.893 -2.71693 -2.15369 0
M  V30 1309 C 118.954 -3.90171 -1.79068 0
M  V30 1310 C 118.187 -4.42798 -2.97936 0
M  V30 1311 O 118.41 -3.94416 -4.12058 0
M  V30 1312 O 117.344 -5.34085 -2.77555 0
M  V30 1313 H 121.17 -3.00588 -0.433626 0
M  V30 1314 H 118.755 -1.48664 -0.148067 0
M  V30 1315 H 120.637 -3.07104 -2.88557 0
M  V30 1316 H 119.312 -1.90582 -2.61649 0
M  V30 1317 H 118.219 -3.59606 -1.03122 0
M  V30 1318 H 119.552 -4.72584 -1.37569 0
M  V30 1319 N 121.204 0.198386 -1.56346 0
M  V30 1320 C 122.134 1.24865 -1.9731 0
M  V30 1321 C 123.115 1.47651 -0.844576 0
M  V30 1322 O 124.3 1.59444 -1.10866 0
M  V30 1323 C 121.43 2.59358 -2.30977 0
M  V30 1324 C 120.384 2.5119 -3.46537 0
M  V30 1325 C 119.71 3.89926 -3.65871 0
M  V30 1326 C 121.01 2.03977 -4.80823 0
M  V30 1327 H 122.704 0.908252 -2.85291 0
M  V30 1328 H 120.25 0.435462 -1.37258 0
M  V30 1329 H 122.203 3.33011 -2.58228 0
M  V30 1330 H 120.927 2.95132 -1.39874 0
M  V30 1331 H 119.586 1.79993 -3.19371 0
M  V30 1332 H 119.234 4.23046 -2.72105 0
M  V30 1333 H 118.934 3.85336 -4.4361 0
M  V30 1334 H 120.458 4.65205 -3.95495 0
M  V30 1335 H 121.872 2.67386 -5.07127 0
M  V30 1336 H 120.269 2.10397 -5.62008 0
M  V30 1337 H 121.339 0.992861 -4.74626 0
M  V30 1338 N 122.682 1.50554 0.465978 0
M  V30 1339 C 123.614 1.65949 1.58093 0
M  V30 1340 C 124.627 0.540827 1.53554 0
M  V30 1341 O 125.816 0.814187 1.5885 0
M  V30 1342 C 122.916 1.63261 2.96983 0
M  V30 1343 C 122.089 2.91245 3.26336 0
M  V30 1344 C 121.148 2.8113 4.44806 0
M  V30 1345 O 120.174 3.55086 4.44862 0
M  V30 1346 N 121.376 1.95032 5.46756 0
M  V30 1347 H 124.141 2.62122 1.45301 0
M  V30 1348 H 121.702 1.48082 0.65448 0
M  V30 1349 H 123.694 1.54101 3.74212 0
M  V30 1350 H 122.264 0.748032 3.03518 0
M  V30 1351 H 121.484 3.14493 2.37672 0
M  V30 1352 H 122.772 3.76022 3.42761 0
M  V30 1353 H 122.17 1.3427 5.49534 0
M  V30 1354 H 120.727 1.91772 6.2295 0
M  V30 1355 N 124.16 -0.719506 1.40217 0
M  V30 1356 C 125.123 -1.8153 1.39927 0
M  V30 1357 C 126.123 -1.58095 0.293723 0
M  V30 1358 O 127.313 -1.65209 0.552429 0
M  V30 1359 C 124.445 -3.19561 1.18716 0
M  V30 1360 H 125.638 -1.83186 2.37451 0
M  V30 1361 H 123.191 -0.924746 1.26008 0
M  V30 1362 H 123.926 -3.23557 0.219366 0
M  V30 1363 H 123.711 -3.3797 1.98793 0
M  V30 1364 H 125.201 -3.99598 1.21291 0
M  V30 1365 N 125.638 -1.25649 -0.95132 0
M  V30 1366 C 126.568 -1.08808 -2.06599 0
M  V30 1367 C 127.549 0.00382547 -1.701 0
M  V30 1368 O 128.734 -0.166325 -1.93486 0
M  V30 1369 C 125.864 -0.709542 -3.39975 0
M  V30 1370 C 124.818 -1.75206 -3.90496 0
M  V30 1371 C 124.144 -1.22811 -5.20405 0
M  V30 1372 C 125.444 -3.15153 -4.16504 0
M  V30 1373 H 127.138 -2.02048 -2.20946 0
M  V30 1374 H 124.684 -0.972835 -1.06169 0
M  V30 1375 H 126.637 -0.578649 -4.17408 0
M  V30 1376 H 125.361 0.258556 -3.25575 0
M  V30 1377 H 124.02 -1.87145 -3.15234 0
M  V30 1378 H 123.668 -0.250145 -5.02378 0
M  V30 1379 H 123.368 -1.92492 -5.55176 0
M  V30 1380 H 124.892 -1.10968 -6.00432 0
M  V30 1381 H 126.306 -3.06349 -4.84586 0
M  V30 1382 H 124.703 -3.82333 -4.62538 0
M  V30 1383 H 125.773 -3.61966 -3.22658 0
M  V30 1384 N 127.117 1.15442 -1.07289 0
M  V30 1385 C 128.342 1.90638 -0.816828 0
M  V30 1386 C 128.767 1.77445 0.624083 0
M  V30 1387 O 128.125 1.10671 1.43602 0
M  V30 1388 C 128.173 3.39008 -1.22906 0
M  V30 1389 O 127.277 4.10701 -0.373975 0
M  V30 1390 H 126.618 0.593555 -0.297638 0
M  V30 1391 H 129.148 1.46198 -1.43134 0
M  V30 1392 H 129.158 3.89801 -1.20497 0
M  V30 1393 H 127.833 3.47929 -2.27856 0
M  V30 1394 H 126.41 3.70046 -0.460499 0
M  V30 1395 N 128.595 0.856903 1.32268 0
M  V30 1396 C 129.843 0.460474 1.96784 0
M  V30 1397 C 130.164 -0.987701 1.68135 0
M  V30 1398 O 129.434 -1.69058 0.989765 0
M  V30 1399 H 128.014 0.167289 0.728027 0
M  V30 1400 H 130.676 1.09383 1.61312 0
M  V30 1401 H 129.772 0.60739 3.06133 0
M  V30 1402 N 130.073 -1.45103 0.615059 0
M  V30 1403 C 131.005 -2.28786 -0.13762 0
M  V30 1404 C 132.018 -1.40376 -0.824525 0
M  V30 1405 O 133.207 -1.64681 -0.688662 0
M  V30 1406 C 130.307 -3.16322 -1.21628 0
M  V30 1407 C 129.48 -4.33054 -0.615039 0
M  V30 1408 C 128.539 -5.01743 -1.58556 0
M  V30 1409 O 127.565 -5.58293 -1.10895 0
M  V30 1410 N 128.767 -5.01714 -2.91998 0
M  V30 1411 H 131.532 -2.94025 0.580483 0
M  V30 1412 H 129.093 -1.55373 0.45507 0
M  V30 1413 H 131.085 -3.59139 -1.86552 0
M  V30 1414 H 129.655 -2.52943 -1.83681 0
M  V30 1415 H 128.875 -3.93627 0.21245 0
M  V30 1416 H 130.163 -5.08431 -0.193704 0
M  V30 1417 H 129.561 -4.57075 -3.33316 0
M  V30 1418 H 128.118 -5.48371 -3.52325 0
M  V30 1419 N 131.551 -0.354651 -1.53558 0
M  V30 1420 C 132.798 0.238443 -2.01091 0
M  V30 1421 C 133.126 1.49663 -1.24222 0
M  V30 1422 O 132.381 1.93049 -0.321003 0
M  V30 1423 C 132.68 0.587121 -3.52545 0
M  V30 1424 C 132.346 -0.575472 -4.47213 0
M  V30 1425 C 131.008 -0.894497 -4.72813 0
M  V30 1426 C 133.36 -1.35489 -5.03281 0
M  V30 1427 C 130.688 -1.99511 -5.51736 0
M  V30 1428 C 133.04 -2.44583 -5.83405 0
M  V30 1429 C 131.704 -2.77033 -6.07296 0
M  V30 1430 H 130.974 0.0872526 -0.735845 0
M  V30 1431 H 133.621 -0.484859 -1.8526 0
M  V30 1432 H 131.926 1.39129 -3.66265 0
M  V30 1433 H 133.623 1.05809 -3.86789 0
M  V30 1434 H 130.213 -0.316774 -4.27428 0
M  V30 1435 H 134.397 -1.12167 -4.83459 0
M  V30 1436 H 129.653 -2.25063 -5.68469 0
M  V30 1437 H 133.827 -3.05401 -6.25862 0
M  V30 1438 H 131.454 -3.6244 -6.68237 0
M  V30 1439 N 133.029 1.57378 -0.0835403 0
M  V30 1440 C 134.306 1.85363 0.624507 0
M  V30 1441 C 134.686 0.978239 1.87066 0
M  V30 1442 O 134.034 0.0475908 2.2845 0
M  V30 1443 C 134.244 3.35795 0.950947 0
M  V30 1444 C 135.592 4.03581 1.31939 0
M  V30 1445 O 136.616 3.40609 1.04232 0
M  V30 1446 O 135.475 5.14672 1.83779 0
M  V30 1447 H 132.569 0.766162 0.311329 0
M  V30 1448 H 135.115 1.69307 -0.115362 0
M  V30 1449 H 133.887 3.91244 0.0663899 0
M  V30 1450 H 133.51 3.57154 1.74719 0
M  V30 1451 N 134.507 -0.190092 1.56449 0
M  V30 1452 C 135.47 -1.21925 1.9408 0
M  V30 1453 C 136.47 -1.38176 0.822431 0
M  V30 1454 O 137.66 -1.35903 1.08977 0
M  V30 1455 C 134.792 -2.58773 2.21922 0
M  V30 1456 H 135.985 -0.897464 2.86157 0
M  V30 1457 H 133.538 -0.43181 1.50217 0
M  V30 1458 H 134.273 -2.95998 1.32499 0
M  V30 1459 H 134.058 -2.48348 3.03424 0
M  V30 1460 H 135.548 -3.32978 2.52022 0
M  V30 1461 N 135.985 -1.50799 -0.457987 0
M  V30 1462 C 137.234 -1.6168 -1.20593 0
M  V30 1463 C 137.547 -0.32888 -1.92815 0
M  V30 1464 O 138.753 -0.316773 -2.69646 0
M  V30 1465 C 137.209 -2.8545 -2.19195 0
M  V30 1466 C 136.817 -4.21168 -1.52715 0
M  V30 1467 C 138.561 -3.05681 -2.94549 0
M  V30 1468 C 136.468 -5.3611 -2.4968 0
M  V30 1469 H 135.398 -0.602134 -0.453818 0
M  V30 1470 H 138.049 -1.77245 -0.475031 0
M  V30 1471 H 136.431 -2.63472 -2.95632 0
M  V30 1472 H 137.605 -4.53449 -0.819775 0
M  V30 1473 H 135.92 -4.06648 -0.895922 0
M  V30 1474 H 138.517 -3.88727 -3.67145 0
M  V30 1475 H 138.86 -2.17929 -3.54701 0
M  V30 1476 H 139.393 -3.27901 -2.25223 0
M  V30 1477 H 136.132 -6.26057 -1.94249 0
M  V30 1478 H 135.652 -5.0823 -3.18532 0
M  V30 1479 H 137.331 -5.6722 -3.11241 0
M  V30 1480 N 137.463 0.71206 -1.40597 0
M  V30 1481 C 138.693 1.49894 -1.42181 0
M  V30 1482 C 139.101 1.89189 -0.0208078 0
M  V30 1483 O 138.444 1.56223 0.966436 0
M  V30 1484 C 138.506 2.80215 -2.25211 0
M  V30 1485 C 138.17 2.63221 -3.73582 0
M  V30 1486 C 139.167 2.30249 -4.66135 0
M  V30 1487 C 136.852 2.79376 -4.17438 0
M  V30 1488 C 138.846 2.13645 -6.00529 0
M  V30 1489 C 136.533 2.6239 -5.51901 0
M  V30 1490 C 137.531 2.29573 -6.43262 0
M  V30 1491 O 137.219 2.12719 -7.75246 0
M  V30 1492 H 136.951 0.469031 -0.486812 0
M  V30 1493 H 139.505 0.88564 -1.85326 0
M  V30 1494 H 137.735 3.4389 -1.76852 0
M  V30 1495 H 139.424 3.41947 -2.18694 0
M  V30 1496 H 140.19 2.17398 -4.33547 0
M  V30 1497 H 136.069 3.03906 -3.46644 0
M  V30 1498 H 139.613 1.87953 -6.71803 0
M  V30 1499 H 135.51 2.74826 -5.84073 0
M  V30 1500 H 136.278 2.27611 -7.86216 0
M  V30 1501 N 138.941 1.26152 0.944643 0
M  V30 1502 C 140.188 1.11492 1.69044 0
M  V30 1503 C 140.516 -0.342366 1.91463 0
M  V30 1504 O 139.771 -1.26812 1.49054 0
M  V30 1505 C 140.07 1.82541 3.07268 0
M  V30 1506 C 139.736 3.32445 3.04616 0
M  V30 1507 C 138.398 3.73337 3.036 0
M  V30 1508 C 140.75 4.28171 2.97185 0
M  V30 1509 C 138.078 5.08348 2.92915 0
M  V30 1510 C 140.43 5.63218 2.88041 0
M  V30 1511 C 139.094 6.03426 2.85366 0
M  V30 1512 H 138.364 0.407977 0.618576 0
M  V30 1513 H 141.011 1.56551 1.10291 0
M  V30 1514 H 139.316 1.29941 3.69625 0
M  V30 1515 H 141.013 1.68642 3.63815 0
M  V30 1516 H 137.603 2.99915 3.06185 0
M  V30 1517 H 141.787 3.97563 2.97081 0
M  V30 1518 H 137.043 5.38667 2.89219 0
M  V30 1519 H 141.217 6.37078 2.81254 0
M  V30 1520 H 138.844 7.07999 2.76842 0
M  V30 1521 N 140.419 -1.14872 1.07899 0
M  V30 1522 C 141.369 -2.17809 0.674027 0
M  V30 1523 C 142.353 -1.58008 -0.303699 0
M  V30 1524 O 143.545 -1.76616 -0.11654 0
M  V30 1525 C 140.674 -3.43208 0.0793318 0
M  V30 1526 C 139.76 -4.10051 1.08253 0
M  V30 1527 N 140.151 -4.52296 2.2641 0
M  V30 1528 C 138.449 -4.36469 0.917124 0
M  V30 1529 C 139.15 -5.04199 2.901 0
M  V30 1530 N 138.126 -4.98088 2.17736 0
M  V30 1531 H 141.928 -2.48207 1.57386 0
M  V30 1532 H 139.442 -1.315 0.952976 0
M  V30 1533 H 141.439 -4.16272 -0.228719 0
M  V30 1534 H 140.099 -3.14291 -0.815551 0
M  V30 1535 H 141.11 -4.45504 2.64096 0
M  V30 1536 H 137.787 -4.17432 0.0756078 0
M  V30 1537 H 139.177 -5.46802 3.90458 0
M  V30 1538 N 141.898 -0.863906 -1.31812 0
M  V30 1539 C 143.309 -0.52522 -1.7916 0
M  V30 1540 C 143.66 0.957518 -1.71248 0
M  V30 1541 O 142.785 1.74734 -1.27659 0
M  V30 1542 C 143.38 -0.9466 -3.25307 0
M  V30 1543 C 141.939 -0.659668 -3.70574 0
M  V30 1544 C 141.086 -1.14126 -2.52726 0
M  V30 1545 H 144.037 -1.05022 -1.1898 0
M  V30 1546 H 144.058 -0.266766 -3.79564 0
M  V30 1547 H 143.57 -2.02579 -3.31034 0
M  V30 1548 H 141.671 0.408416 -3.70355 0
M  V30 1549 H 141.784 -1.23245 -4.62977 0
M  V30 1550 H 140.148 -0.561216 -2.4844 0
M  V30 1551 H 140.931 -2.22775 -2.61201 0
M  V30 1552 N 143.376 1.44774 -0.622745 0
M  V30 1553 C 144.601 2.06999 -0.128968 0
M  V30 1554 C 145.026 1.4617 1.1839 0
M  V30 1555 O 144.384 0.560007 1.72434 0
M  V30 1556 C 144.432 3.60595 -0.0188351 0
M  V30 1557 O 143.536 3.99398 1.02739 0
M  V30 1558 H 142.877 0.659047 -0.0809544 0
M  V30 1559 H 145.407 1.85784 -0.85705 0
M  V30 1560 H 145.417 4.07627 0.174476 0
M  V30 1561 H 144.092 4.04252 -0.977384 0
M  V30 1562 H 142.669 3.64011 0.809326 0
M  V30 1563 N 144.854 0.36279 1.53368 0
M  V30 1564 C 146.082 -0.228613 2.05633 0
M  V30 1565 C 146.497 -1.42676 1.23649 0
M  V30 1566 O 145.854 -1.80394 0.27647 0
M  V30 1567 C 145.905 -0.624845 3.56059 0
M  V30 1568 O 145.626 0.525675 4.34935 0
M  V30 1569 C 147.127 -1.27493 4.24571 0
M  V30 1570 H 144.347 -0.0407183 0.669763 0
M  V30 1571 H 146.891 0.520352 1.97769 0
M  V30 1572 H 145.046 -1.32373 3.64083 0
M  V30 1573 H 145.46 0.205969 5.24095 0
M  V30 1574 H 146.934 -1.50277 5.31151 0
M  V30 1575 H 147.411 -2.23439 3.78116 0
M  V30 1576 H 148.017 -0.617558 4.20792 0
M  V30 1577 N 146.332 -1.57332 0.0918853 0
M  V30 1578 C 147.579 -1.94236 -0.572577 0
M  V30 1579 C 147.907 -0.973398 -1.6839 0
M  V30 1580 O 147.162 0.00756912 -1.95699 0
M  V30 1581 C 147.461 -3.37689 -1.17051 0
M  V30 1582 C 147.127 -4.50527 -0.183304 0
M  V30 1583 C 145.789 -4.81119 0.0882276 0
M  V30 1584 C 148.141 -5.18883 0.49095 0
M  V30 1585 C 145.469 -5.77395 1.04076 0
M  V30 1586 C 147.821 -6.1618 1.43193 0
M  V30 1587 C 146.485 -6.45179 1.71173 0
M  V30 1588 H 145.755 -0.710762 -0.209521 0
M  V30 1589 H 148.402 -1.9077 0.167036 0
M  V30 1590 H 146.707 -3.37718 -1.9863 0
M  V30 1591 H 148.404 -3.63543 -1.69227 0
M  V30 1592 H 144.994 -4.26681 -0.405124 0
M  V30 1593 H 149.178 -4.95427 0.294312 0
M  V30 1594 H 144.434 -5.98179 1.26457 0
M  V30 1595 H 148.608 -6.68243 1.96023 0
M  V30 1596 H 146.235 -7.1959 2.4514 0
M  V30 1597 N 147.81 0.181792 -1.56548 0
M  V30 1598 C 148.76 1.22961 -1.92002 0
M  V30 1599 C 149.744 1.40331 -0.787146 0
M  V30 1600 O 150.936 1.42478 -1.05019 0
M  V30 1601 C 148.065 2.57144 -2.27446 0
M  V30 1602 C 147.151 2.43512 -3.47222 0
M  V30 1603 N 147.542 1.99577 -4.64761 0
M  V30 1604 C 145.84 2.74368 -3.51622 0
M  V30 1605 C 146.541 1.98156 -5.46909 0
M  V30 1606 N 145.517 2.40164 -4.8767 0
M  V30 1607 H 149.319 0.881462 -2.8037 0
M  V30 1608 H 146.833 0.390141 -1.57644 0
M  V30 1609 H 148.83 3.32847 -2.51035 0
M  V30 1610 H 147.49 2.92771 -1.40411 0
M  V30 1611 H 148.501 1.70078 -4.89177 0
M  V30 1612 H 145.178 3.14102 -2.75038 0
M  V30 1613 H 146.568 1.65975 -6.51077 0
M  V30 1614 N 149.288 1.51039 0.449983 0
M  V30 1615 C 150.528 1.64732 1.21007 0
M  V30 1616 C 150.892 0.349865 1.88785 0
M  V30 1617 O 152.093 0.362431 2.66345 0
M  V30 1618 C 150.364 2.80902 2.20973 0
M  V30 1619 S 151.923 3.14851 3.05638 0
M  V30 1620 H 148.741 0.5805 0.410538 0
M  V30 1621 H 151.343 1.88901 0.503634 0
M  V30 1622 H 150.047 3.73627 1.69796 0
M  V30 1623 H 149.578 2.58882 2.96215 0
M  V30 1624 H 151.593 2.60306 4.22439 0
M  V30 1625 N 150.766 -0.704594 1.40972 0
M  V30 1626 C 151.729 -1.80035 1.41845 0
M  V30 1627 C 152.729 -1.57774 0.310474 0
M  V30 1628 O 153.919 -1.64613 0.56992 0
M  V30 1629 C 151.051 -3.18284 1.22098 0
M  V30 1630 H 152.244 -1.80658 2.3938 0
M  V30 1631 H 149.797 -0.911329 1.26982 0
M  V30 1632 H 150.532 -3.23306 0.253672 0
M  V30 1633 H 150.317 -3.35843 2.02366 0
M  V30 1634 H 151.807 -3.98289 1.25522 0
M  V30 1635 N 152.244 -1.26651 -0.937939 0
M  V30 1636 C 153.66 -1.03834 -1.21205 0
M  V30 1637 C 153.86 0.234502 -2.00131 0
M  V30 1638 O 152.916 0.942767 -2.3424 0
M  V30 1639 C 154.229 -2.27167 -1.97017 0
M  V30 1640 C 155.777 -2.32101 -2.09996 0
M  V30 1641 C 156.252 -3.55136 -2.8921 0
M  V30 1642 N 157.743 -3.55632 -2.96783 0
M  V30 1643 C 158.478 -4.475 -3.58512 0
M  V30 1644 N 157.974 -5.4966 -4.21717 0
M  V30 1645 N 159.767 -4.35145 -3.55816 0
M  V30 1646 H 151.918 -2.08398 -0.410391 0
M  V30 1647 H 154.181 -0.916031 -0.244114 0
M  V30 1648 H 153.887 -3.19765 -1.46434 0
M  V30 1649 H 153.761 -2.31672 -2.97671 0
M  V30 1650 H 156.148 -1.40015 -2.59769 0
M  V30 1651 H 156.229 -2.31605 -1.08594 0
M  V30 1652 H 155.873 -4.47553 -2.40123 0
M  V30 1653 H 155.803 -3.5288 -3.90875 0
M  V30 1654 H 158.294 -2.81743 -2.51852 0
M  V30 1655 H 158.607 -6.15943 -4.66727 0
M  V30 1656 H 156.952 -5.53514 -4.20294 0
M  V30 1657 H 160.143 -3.5455 -3.05634 0
M  V30 1658 H 160.316 -5.06934 -4.03636 0
M  V30 1659 N 153.722 1.14298 -1.08507 0
M  V30 1660 C 154.652 2.21542 -0.737646 0
M  V30 1661 C 155.633 1.67773 0.280377 0
M  V30 1662 O 156.818 1.93616 0.150521 0
M  V30 1663 C 153.948 3.46988 -0.147259 0
M  V30 1664 C 152.902 4.13789 -1.09374 0
M  V30 1665 C 152.228 5.33449 -0.365524 0
M  V30 1666 C 153.528 4.62208 -2.4323 0
M  V30 1667 H 155.222 2.5086 -1.6343 0
M  V30 1668 H 152.768 1.20576 -0.787243 0
M  V30 1669 H 154.721 4.21262 0.107808 0
M  V30 1670 H 153.445 3.17037 0.784538 0
M  V30 1671 H 152.104 3.4147 -1.33393 0
M  V30 1672 H 151.752 4.99759 0.57011 0
M  V30 1673 H 151.452 5.79088 -0.996512 0
M  V30 1674 H 152.976 6.10485 -0.118534 0
M  V30 1675 H 154.39 5.27952 -2.23472 0
M  V30 1676 H 152.787 5.18553 -3.02031 0
M  V30 1677 H 153.857 3.77224 -3.04681 0
M  V30 1678 N 155.201 0.870884 1.31352 0
M  V30 1679 C 156.164 0.332243 2.26779 0
M  V30 1680 C 157.164 -0.517302 1.52252 0
M  V30 1681 O 158.354 -0.326477 1.71113 0
M  V30 1682 C 155.486 -0.528066 3.36785 0
M  V30 1683 H 156.679 1.17469 2.75937 0
M  V30 1684 H 154.232 0.64655 1.423 0
M  V30 1685 H 154.967 -1.39167 2.92922 0
M  V30 1686 H 154.752 0.0802582 3.92018 0
M  V30 1687 H 156.242 -0.897179 4.07849 0
M  V30 1688 N 156.679 -1.44442 0.630414 0
M  V30 1689 C 157.642 -2.29107 -0.0652523 0
M  V30 1690 C 158.642 -1.41002 -0.772995 0
M  V30 1691 O 159.832 -1.62881 -0.617692 0
M  V30 1692 C 156.964 -3.22564 -1.10296 0
M  V30 1693 H 158.157 -2.92103 0.679401 0
M  V30 1694 H 155.71 -1.51343 0.390517 0
M  V30 1695 H 156.445 -2.64416 -1.87762 0
M  V30 1696 H 156.23 -3.87491 -0.59941 0
M  V30 1697 H 157.72 -3.86167 -1.5895 0
M  V30 1698 N 158.157 -0.370918 -1.53173 0
M  V30 1699 C 159.405 0.216673 -2.00935 0
M  V30 1700 C 159.726 1.48845 -1.25977 0
M  V30 1701 O 158.996 1.92286 -0.374551 0
M  V30 1702 H 157.576 0.0830565 -0.742368 0
M  V30 1703 H 160.238 -0.49838 -1.8842 0
M  V30 1704 H 159.334 0.439893 -3.08984 0
M  V30 1705 N 159.635 1.57281 -0.100228 0
M  V30 1706 C 160.598 2.13158 0.842398 0
M  V30 1707 C 161.598 1.06202 1.20738 0
M  V30 1708 O 162.788 1.32066 1.13597 0
M  V30 1709 C 159.92 2.65639 2.13655 0
M  V30 1710 H 161.113 2.97766 0.357114 0
M  V30 1711 H 158.666 1.5559 0.148823 0
M  V30 1712 H 159.401 1.84566 2.66657 0
M  V30 1713 H 159.186 3.43844 1.88451 0
M  V30 1714 H 160.676 3.08846 2.81077 0
M  V30 1715 N 161.113 -0.173488 1.56642 0
M  V30 1716 C 162.361 -0.888706 1.81512 0
M  V30 1717 C 162.682 -1.82875 0.676872 0
M  V30 1718 O 161.952 -1.93536 -0.303414 0
M  V30 1719 H 160.532 -0.331164 0.669582 0
M  V30 1720 H 163.194 -0.173823 1.94123 0
M  V30 1721 H 162.29 -1.46691 2.75478 0
M  V30 1722 N 162.591 -1.51276 -0.441967 0
M  V30 1723 C 163.521 -1.752 -1.54361 0
M  V30 1724 C 164.502 -0.601682 -1.59103 0
M  V30 1725 O 165.687 -0.843913 -1.74905 0
M  V30 1726 C 162.817 -1.87282 -2.92477 0
M  V30 1727 C 161.771 -3.02687 -3.02596 0
M  V30 1728 C 161.097 -2.99947 -4.42647 0
M  V30 1729 C 162.397 -4.4273 -2.77106 0
M  V30 1730 H 164.091 -2.67442 -1.34592 0
M  V30 1731 H 161.637 -1.28694 -0.646048 0
M  V30 1732 H 163.59 -2.02602 -3.695 0
M  V30 1733 H 162.314 -0.916844 -3.13467 0
M  V30 1734 H 160.973 -2.87065 -2.28012 0
M  V30 1735 H 160.621 -2.02136 -4.60597 0
M  V30 1736 H 160.321 -3.77439 -4.50348 0
M  V30 1737 H 161.845 -3.17354 -5.2165 0
M  V30 1738 H 163.259 -4.58727 -3.43864 0
M  V30 1739 H 161.656 -5.21893 -2.96222 0
M  V30 1740 H 162.726 -4.53087 -1.72744 0
M  V30 1741 N 164.069 0.697108 -1.41344 0
M  V30 1742 C 165.001 1.8224 -1.39001 0
M  V30 1743 C 166.014 1.60152 -0.292428 0
M  V30 1744 O 167.203 1.69684 -0.554048 0
M  V30 1745 C 164.303 3.18976 -1.14489 0
M  V30 1746 C 163.476 3.68105 -2.36258 0
M  V30 1747 C 162.535 4.83506 -2.07625 0
M  V30 1748 O 161.561 4.95201 -2.8065 0
M  V30 1749 N 162.763 5.70637 -1.06555 0
M  V30 1750 H 165.528 1.84742 -2.35988 0
M  V30 1751 H 163.089 0.87937 -1.35936 0
M  V30 1752 H 165.081 3.93801 -0.932885 0
M  V30 1753 H 163.651 3.11508 -0.261043 0
M  V30 1754 H 162.871 2.84204 -2.7317 0
M  V30 1755 H 164.159 3.97667 -3.17393 0
M  V30 1756 H 163.557 5.63817 -0.461125 0
M  V30 1757 H 162.114 6.45368 -0.913444 0
M  V30 1758 N 165.547 1.27147 0.931209 0
M  V30 1759 C 166.477 1.12081 2.04842 0
M  V30 1760 C 167.458 0.0232364 1.70084 0
M  V30 1761 O 168.643 0.197085 1.93197 0
M  V30 1762 C 165.773 0.76354 3.38803 0
M  V30 1763 C 164.727 1.81396 3.87659 0
M  V30 1764 C 164.053 1.31075 5.18385 0
M  V30 1765 C 165.353 3.21739 4.11438 0
M  V30 1766 H 167.047 2.05537 2.17703 0
M  V30 1767 H 164.593 0.989603 1.04608 0
M  V30 1768 H 166.546 0.644982 4.16435 0
M  V30 1769 H 165.27 -0.206727 3.25945 0
M  V30 1770 H 163.929 1.92136 3.12217 0
M  V30 1771 H 163.577 0.330037 5.01916 0
M  V30 1772 H 163.277 2.013 5.52044 0
M  V30 1773 H 164.801 1.20506 5.98591 0
M  V30 1774 H 166.215 3.14019 4.79651 0
M  V30 1775 H 164.612 3.89644 4.56397 0
M  V30 1776 H 165.682 3.67054 3.16859 0
M  V30 1777 N 167.025 -1.13721 1.09112 0
M  V30 1778 C 168.271 -1.85198 0.826414 0
M  V30 1779 C 168.604 -1.83129 -0.646319 0
M  V30 1780 O 167.879 -1.2671 -1.47563 0
M  V30 1781 C 168.162 -3.33507 1.35812 0
M  V30 1782 C 168.015 -3.44108 2.89672 0
M  V30 1783 C 169.334 -4.28838 0.989256 0
M  V30 1784 H 166.453 -0.67243 0.301675 0
M  V30 1785 H 169.095 -1.33499 1.35197 0
M  V30 1786 H 167.245 -3.77666 0.911082 0
M  V30 1787 H 168.917 -3.08684 3.428 0
M  V30 1788 H 167.16 -2.85087 3.26967 0
M  V30 1789 H 167.831 -4.48388 3.21951 0
M  V30 1790 H 170.307 -3.92734 1.37475 0
M  V30 1791 H 169.183 -5.31051 1.38838 0
M  V30 1792 H 169.444 -4.4198 -0.102924 0
M  V30 1793 N 168.503 -0.877838 -1.30888 0
M  V30 1794 C 169.78 -0.413052 -1.91189 0
M  V30 1795 C 170.16 1.1056 -1.79832 0
M  V30 1796 O 169.508 1.93771 -1.21099 0
M  V30 1797 C 169.718 -0.903191 -3.3711 0
M  V30 1798 C 171.066 -0.93395 -4.14201 0
M  V30 1799 O 172.09 -0.849373 -3.45925 0
M  V30 1800 O 170.949 -1.05772 -5.36167 0
M  V30 1801 H 168.043 -0.125035 -0.817493 0
M  V30 1802 H 170.589 -0.966269 -1.39504 0
M  V30 1803 H 169.361 -1.94692 -3.39427 0
M  V30 1804 H 168.984 -0.328732 -3.96239 0
M  V30 1805 N 169.982 1.44106 -0.638065 0
M  V30 1806 C 170.945 2.29138 0.0531013 0
M  V30 1807 C 171.945 1.41409 0.765506 0
M  V30 1808 O 173.135 1.63206 0.609046 0
M  V30 1809 C 170.267 3.23144 1.08584 0
M  V30 1810 H 171.46 2.91739 -0.694883 0
M  V30 1811 H 169.013 1.51134 -0.398538 0
M  V30 1812 H 169.748 2.65408 1.86357 0
M  V30 1813 H 169.533 3.87804 0.578852 0
M  V30 1814 H 171.023 3.87004 1.56899 0
M  V30 1815 N 171.46 0.379036 1.52974 0
M  V30 1816 C 172.706 -0.206727 2.01744 0
M  V30 1817 C 173.039 -1.47314 1.26539 0
M  V30 1818 O 172.314 -1.91084 0.362903 0
M  V30 1819 C 172.597 -0.485066 3.56818 0
M  V30 1820 C 172.45 0.795919 4.42702 0
M  V30 1821 C 173.769 -1.28003 4.21074 0
M  V30 1822 H 170.888 -0.0736607 0.73331 0
M  V30 1823 H 173.53 0.506581 1.83122 0
M  V30 1824 H 171.68 -1.09272 3.72816 0
M  V30 1825 H 173.352 1.43307 4.38476 0
M  V30 1826 H 171.595 1.41344 4.10127 0
M  V30 1827 H 172.266 0.555947 5.49193 0
M  V30 1828 H 174.742 -0.765867 4.08991 0
M  V30 1829 H 173.618 -1.44352 5.29579 0
M  V30 1830 H 173.879 -2.29236 3.78026 0
M  V30 1831 N 172.938 -1.57226 0.108567 0
M  V30 1832 C 173.868 -2.17778 -0.84232 0
M  V30 1833 C 174.849 -1.11487 -1.2847 0
M  V30 1834 O 176.034 -1.39681 -1.34918 0
M  V30 1835 C 173.164 -2.76888 -2.09644 0
M  V30 1836 C 172.118 -3.88669 -1.79221 0
M  V30 1837 C 171.444 -4.34541 -3.11574 0
M  V30 1838 C 172.744 -5.11251 -1.06864 0
M  V30 1839 H 174.438 -2.97489 -0.337774 0
M  V30 1840 H 171.984 -1.43097 -0.161025 0
M  V30 1841 H 173.937 -3.17904 -2.76614 0
M  V30 1842 H 172.661 -1.94451 -2.62405 0
M  V30 1843 H 171.32 -3.48213 -1.14644 0
M  V30 1844 H 170.968 -3.48977 -3.62249 0
M  V30 1845 H 170.668 -5.09914 -2.91996 0
M  V30 1846 H 172.192 -4.782 -3.7968 0
M  V30 1847 H 173.606 -5.49352 -1.63968 0
M  V30 1848 H 172.003 -5.9214 -0.974178 0
M  V30 1849 H 173.073 -4.8487 -0.0536168 0
M  V30 1850 N 174.416 0.165178 -1.56732 0
M  V30 1851 C 175.644 0.896218 -1.86482 0
M  V30 1852 C 176.059 1.75555 -0.694675 0
M  V30 1853 O 175.416 1.79379 0.33607 0
M  V30 1854 C 175.467 1.76792 -3.1532 0
M  V30 1855 O 175.188 0.943239 -4.27825 0
M  V30 1856 C 176.689 2.6081 -3.58459 0
M  V30 1857 H 173.909 0.260064 -0.618553 0
M  V30 1858 H 176.453 0.163428 -2.03846 0
M  V30 1859 H 174.608 2.45398 -2.99764 0
M  V30 1860 H 175.022 1.53998 -5.01383 0
M  V30 1861 H 176.496 3.17579 -4.51495 0
M  V30 1862 H 176.973 3.35977 -2.82872 0
M  V30 1863 H 177.579 1.97526 -3.76648 0
M  V30 1864 N 175.894 1.51508 0.433938 0
M  V30 1865 C 177.142 1.6402 1.18075 0
M  V30 1866 C 177.463 0.360328 1.91642 0
M  V30 1867 O 176.733 -0.623945 1.85698 0
M  V30 1868 H 175.313 0.6045 0.43885 0
M  V30 1869 H 177.975 1.88452 0.497178 0
M  V30 1870 H 177.071 2.46949 1.90847 0
M  V30 1871 N 177.372 -0.689602 1.41712 0
M  V30 1872 C 178.335 -1.78521 1.43746 0
M  V30 1873 C 179.335 -1.57436 0.327191 0
M  V30 1874 O 180.525 -1.64 0.587348 0
M  V30 1875 C 177.657 -3.16971 1.25467 0
M  V30 1876 H 178.85 -1.78108 2.41283 0
M  V30 1877 H 176.403 -0.89781 1.27942 0
M  V30 1878 H 177.138 -3.23019 0.287948 0
M  V30 1879 H 176.923 -3.33678 2.05917 0
M  V30 1880 H 178.413 -3.96935 1.2974 0
M  V30 1881 N 178.85 -1.27639 -0.924453 0
M  V30 1882 C 180.096 -1.14336 -1.67497 0
M  V30 1883 C 180.429 0.309465 -1.91718 0
M  V30 1884 O 179.704 1.22608 -1.50989 0
M  V30 1885 C 179.987 -1.93096 -3.0395 0
M  V30 1886 C 179.84 -3.46381 -2.8695 0
M  V30 1887 C 181.159 -1.73798 -4.0433 0
M  V30 1888 H 178.278 -0.416728 -0.607871 0
M  V30 1889 H 180.92 -1.56832 -1.07256 0
M  V30 1890 H 179.07 -1.56982 -3.55372 0
M  V30 1891 H 180.742 -3.92343 -2.42621 0
M  V30 1892 H 178.985 -3.72557 -2.22225 0
M  V30 1893 H 179.656 -3.96735 -3.83804 0
M  V30 1894 H 182.132 -2.05293 -3.61931 0
M  V30 1895 H 181.008 -2.31294 -4.97789 0
M  V30 1896 H 181.269 -0.686725 -4.36734 0
M  V30 1897 N 180.328 1.1314 -1.09713 0
M  V30 1898 C 181.26 2.18343 -0.697056 0
M  V30 1899 C 182.273 1.60669 0.262551 0
M  V30 1900 O 183.462 1.78435 0.0481527 0
M  V30 1901 C 180.562 3.38899 -0.00684728 0
M  V30 1902 C 179.735 4.26078 -0.988741 0
M  V30 1903 C 178.794 5.25155 -0.331394 0
M  V30 1904 O 177.82 5.60701 -0.979926 0
M  V30 1905 N 179.022 5.73271 0.913261 0
M  V30 1906 H 181.787 2.5328 -1.60216 0
M  V30 1907 H 179.348 1.28491 -0.984971 0
M  V30 1908 H 181.34 4.02255 0.444191 0
M  V30 1909 H 179.91 3.02175 0.800551 0
M  V30 1910 H 179.13 3.59453 -1.61826 0
M  V30 1911 H 180.418 4.81178 -1.65364 0
M  V30 1912 H 179.816 5.46544 1.45966 0
M  V30 1913 H 178.373 6.3855 1.30757 0
M  V30 1914 N 181.806 0.884767 1.30421 0
M  V30 1915 C 182.754 0.340869 2.30089 0
M  V30 1916 C 183.748 -0.55201 1.60154 0
M  V30 1917 O 184.954 -0.436467 1.74628 0
M  V30 1918 H 181.329 0.0915739 0.746404 0
M  V30 1919 H 183.3 1.19513 2.73421 0
M  V30 1920 C 182.049 -0.429779 3.45034 0
M  V30 1921 H 181.372 0.248024 3.9903 0
M  V30 1922 H 182.812 -0.775445 4.16849 0
M  V30 1923 C 181.271 -1.62677 2.95022 0
M  V30 1924 O 181.801 -2.72614 2.95033 0
M  V30 1925 N 180.007 -1.46387 2.51036 0
M  V30 1926 H 179.554 -0.569506 2.51226 0
M  V30 1927 H 179.512 -2.26612 2.17932 0
M  V30 1928 N 183.284 -1.43765 0.645699 0
M  V30 1929 C 184.532 -2.01499 0.155731 0
M  V30 1930 C 184.853 -1.51151 -1.232 0
M  V30 1931 O 184.123 -0.721044 -1.82148 0
M  V30 1932 H 182.703 -0.745003 0.0545817 0
M  V30 1933 H 185.365 -1.76075 0.835677 0
M  V30 1934 H 184.461 -3.1181 0.134577 0
M  V30 1935 N 184.763 -0.387143 -1.52771 0
M  V30 1936 C 185.693 0.440551 -2.29306 0
M  V30 1937 C 186.674 1.06535 -1.32606 0
M  V30 1938 O 187.859 1.07853 -1.61497 0
M  V30 1939 C 184.989 1.56919 -3.09829 0
M  V30 1940 C 183.943 1.07054 -4.14395 0
M  V30 1941 C 183.269 2.29109 -4.83129 0
M  V30 1942 C 184.569 0.140015 -5.22112 0
M  V30 1943 H 186.263 -0.198026 -2.98744 0
M  V30 1944 H 183.809 -0.09668 -1.43675 0
M  V30 1945 H 185.762 2.15503 -3.62128 0
M  V30 1946 H 184.486 2.23532 -2.3812 0
M  V30 1947 H 183.145 0.507247 -3.63074 0
M  V30 1948 H 182.793 2.94227 -4.0797 0
M  V30 1949 H 182.493 1.96406 -5.53804 0
M  V30 1950 H 184.017 2.88339 -5.38231 0
M  V30 1951 H 185.431 0.633978 -5.69784 0
M  V30 1952 H 183.828 -0.0971485 -6.00021 0
M  V30 1953 H 184.898 -0.811711 -4.78058 0
M  V30 1954 N 186.241 1.57166 -0.116904 0
M  V30 1955 C 187.204 2.14039 0.819742 0
M  V30 1956 C 188.204 1.07477 1.19605 0
M  V30 1957 O 189.394 1.33263 1.1219 0
M  V30 1958 C 186.526 2.67891 2.10826 0
M  V30 1959 H 187.719 2.98128 0.325511 0
M  V30 1960 H 185.272 1.55739 0.132312 0
M  V30 1961 H 186.007 1.87384 2.64685 0
M  V30 1962 H 185.792 3.45823 1.84793 0
M  V30 1963 H 187.282 3.11809 2.77785 0
M  V30 1964 N 187.719 -0.156864 1.56817 0
M  V30 1965 C 188.649 -1.19589 2.00551 0
M  V30 1966 C 189.63 -1.4536 0.883426 0
M  V30 1967 O 190.815 -1.56449 1.15054 0
M  V30 1968 C 187.945 -2.53143 2.37773 0
M  V30 1969 C 186.899 -2.41913 3.53075 0
M  V30 1970 C 186.225 -3.80088 3.76081 0
M  V30 1971 C 187.525 -1.91157 4.86062 0
M  V30 1972 H 189.219 -0.832293 2.87599 0
M  V30 1973 H 186.765 -0.398918 1.38364 0
M  V30 1974 H 188.718 -3.26047 2.66967 0
M  V30 1975 H 187.442 -2.91319 1.4765 0
M  V30 1976 H 186.101 -1.71462 3.24031 0
M  V30 1977 H 185.749 -4.15683 2.83225 0
M  V30 1978 H 185.449 -3.73439 4.53671 0
M  V30 1979 H 186.973 -4.54556 4.0769 0
M  V30 1980 H 188.387 -2.53846 5.14038 0
M  V30 1981 H 186.784 -1.95422 5.67389 0
M  V30 1982 H 187.854 -0.866673 4.77092 0
M  V30 1983 N 189.197 -1.51736 -0.425897 0
M  V30 1984 C 190.443 -1.65214 -1.1761 0
M  V30 1985 C 190.776 -0.372778 -1.90589 0
M  V30 1986 O 190.051 0.628139 -1.84078 0
M  V30 1987 C 190.334 -2.86312 -2.18398 0
M  V30 1988 C 190.187 -4.24254 -1.49426 0
M  V30 1989 C 191.506 -3.02925 -3.19256 0
M  V30 1990 H 188.625 -0.601263 -0.426206 0
M  V30 1991 H 191.267 -1.8425 -0.463882 0
M  V30 1992 H 189.417 -2.70213 -2.79137 0
M  V30 1993 H 191.089 -4.52046 -0.919362 0
M  V30 1994 H 189.332 -4.26426 -0.796432 0
M  V30 1995 H 190.003 -5.05001 -2.22885 0
M  V30 1996 H 192.479 -3.1781 -2.68581 0
M  V30 1997 H 191.355 -3.89199 -3.8706 0
M  V30 1998 H 191.616 -2.15497 -3.86023 0
M  V30 1999 N 190.675 0.682077 -1.42076 0
M  V30 2000 C 192.091 0.994324 -1.24841 0
M  V30 2001 C 192.291 2.0096 -0.147389 0
M  V30 2002 O 191.347 2.47822 0.483782 0
M  V30 2003 C 192.66 1.50607 -2.60265 0
M  V30 2004 C 194.208 1.62421 -2.6756 0
M  V30 2005 C 194.683 2.16994 -4.03333 0
M  V30 2006 N 196.174 2.24337 -4.0525 0
M  V30 2007 C 196.909 2.67621 -5.07116 0
M  V30 2008 N 196.405 3.1041 -6.19368 0
M  V30 2009 N 198.198 2.67305 -4.94474 0
M  V30 2010 H 190.349 0.00973908 -2.12398 0
M  V30 2011 H 192.612 0.0668593 -0.945639 0
M  V30 2012 H 192.318 0.834583 -3.41654 0
M  V30 2013 H 192.192 2.48602 -2.83684 0
M  V30 2014 H 194.579 2.28678 -1.86521 0
M  V30 2015 H 194.66 0.629352 -2.47937 0
M  V30 2016 H 194.304 1.51349 -4.84826 0
M  V30 2017 H 194.234 3.17258 -4.20304 0
M  V30 2018 H 196.725 1.94158 -3.24209 0
M  V30 2019 H 197.038 3.42103 -6.92954 0
M  V30 2020 H 195.383 3.08286 -6.22884 0
M  V30 2021 H 198.574 2.33233 -4.05857 0
M  V30 2022 H 198.747 3.00718 -5.73997 0
M  V30 2023 N 192.153 1.28127 0.917671 0
M  V30 2024 C 193.564 1.13622 1.48145 0
M  V30 2025 C 193.915 -0.275207 1.9426 0
M  V30 2026 O 193.04 -1.1691 1.82102 0
M  V30 2027 C 193.635 2.05648 2.69248 0
M  V30 2028 C 192.194 1.95219 3.21818 0
M  V30 2029 C 191.341 1.97618 1.94532 0
M  V30 2030 H 194.292 1.40874 0.730772 0
M  V30 2031 H 194.313 1.61818 3.44377 0
M  V30 2032 H 193.825 3.08365 2.35653 0
M  V30 2033 H 191.926 0.955244 3.60147 0
M  V30 2034 H 192.039 2.81976 3.87333 0
M  V30 2035 H 190.403 1.41973 2.11461 0
M  V30 2036 H 191.186 3.02007 1.63238 0
M  V30 2037 N 193.631 -1.12557 1.10312 0
M  V30 2038 C 195.042 -1.65574 0.862678 0
M  V30 2039 C 195.393 -1.86566 -0.607256 0
M  V30 2040 O 194.518 -1.59121 -1.46662 0
M  V30 2041 C 195.113 -3.00776 1.55947 0
M  V30 2042 C 193.672 -3.50748 1.36576 0
M  V30 2043 C 192.819 -2.25797 1.60968 0
M  V30 2044 H 195.77 -0.963552 1.26101 0
M  V30 2045 H 195.791 -3.67185 0.997753 0
M  V30 2046 H 195.303 -2.85465 2.62928 0
M  V30 2047 H 193.404 -3.71245 0.317531 0
M  V30 2048 H 193.517 -4.30289 2.10686 0
M  V30 2049 H 191.881 -2.32841 1.03234 0
M  V30 2050 H 192.664 -2.13043 2.69198 0
M  V30 2051 N 195.109 -0.891671 -1.2995 0
M  V30 2052 C 196.357 -0.512486 -1.95494 0
M  V30 2053 C 196.678 0.942776 -1.70695 0
M  V30 2054 O 195.948 1.66374 -1.03424 0
M  V30 2055 H 194.528 -0.186533 -0.723336 0
M  V30 2056 H 197.19 -1.13621 -1.58355 0
M  V30 2057 H 196.286 -0.688342 -3.04415 0
M  V30 2058 N 196.587 1.43421 -0.653314 0
M  V30 2059 C 197.537 2.2792 0.060558 0
M  V30 2060 C 198.521 1.39906 0.794677 0
M  V30 2061 O 199.713 1.63536 0.677128 0
M  V30 2062 C 196.842 3.27603 1.0262 0
M  V30 2063 C 195.928 4.23104 0.290551 0
M  V30 2064 N 196.319 5.01031 -0.692967 0
M  V30 2065 C 194.617 4.42816 0.531984 0
M  V30 2066 C 195.318 5.70626 -1.12963 0
M  V30 2067 N 194.294 5.41617 -0.463867 0
M  V30 2068 H 198.096 2.85585 -0.694143 0
M  V30 2069 H 195.61 1.55126 -0.480602 0
M  V30 2070 H 197.607 3.86918 1.55242 0
M  V30 2071 H 196.267 2.71499 1.78096 0
M  V30 2072 H 197.278 5.0669 -1.07169 0
M  V30 2073 H 193.955 3.97782 1.26791 0
M  V30 2074 H 195.345 6.4318 -1.94343 0
M  V30 2075 N 198.065 0.39524 1.52563 0
M  V30 2076 C 199.015 -0.4541 2.23432 0
M  V30 2077 C 199.999 -1.02482 1.24042 0
M  V30 2078 O 201.191 -0.949938 1.49349 0
M  V30 2079 C 198.32 -1.57769 3.049 0
M  V30 2080 C 197.406 -1.01842 4.1169 0
M  V30 2081 N 197.797 -0.184613 5.05463 0
M  V30 2082 C 196.095 -1.29033 4.26927 0
M  V30 2083 C 196.796 0.125013 5.81566 0
M  V30 2084 N 195.772 -0.480498 5.41472 0
M  V30 2085 H 199.574 0.189413 2.93289 0
M  V30 2086 H 197.088 0.204877 1.61102 0
M  V30 2087 H 199.085 -2.19862 3.54212 0
M  V30 2088 H 197.745 -2.22397 2.36579 0
M  V30 2089 H 198.756 0.178602 5.17592 0
M  V30 2090 H 195.433 -1.93721 3.69836 0
M  V30 2091 H 196.823 0.800962 6.67109 0
M  V30 2092 N 199.544 -1.57102 0.125237 0
M  V30 2093 C 200.792 -1.95021 -0.530198 0
M  V30 2094 C 201.113 -1.00982 -1.66816 0
M  V30 2095 O 200.383 -0.0672693 -1.95784 0
M  V30 2096 H 198.963 -0.720046 -0.198853 0
M  V30 2097 H 201.625 -1.93916 0.19564 0
M  V30 2098 H 200.721 -2.98211 -0.920681 0
M  V30 2099 N 201.022 0.148545 -1.56898 0
M  V30 2100 C 201.954 1.20852 -1.9475 0
M  V30 2101 C 202.967 1.39265 -0.843152 0
M  V30 2102 O 204.156 1.38864 -1.12156 0
M  V30 2103 C 201.256 2.57362 -2.20495 0
M  V30 2104 C 200.429 2.59947 -3.51776 0
M  V30 2105 C 199.488 3.77984 -3.6608 0
M  V30 2106 O 198.514 3.62929 -4.38487 0
M  V30 2107 N 199.716 4.95375 -3.02629 0
M  V30 2108 H 202.481 0.886804 -2.86279 0
M  V30 2109 H 200.042 0.338121 -1.5833 0
M  V30 2110 H 202.034 3.34833 -2.27307 0
M  V30 2111 H 200.604 2.81832 -1.35238 0
M  V30 2112 H 199.824 1.68403 -3.56419 0
M  V30 2113 H 201.112 2.58704 -4.38121 0
M  V30 2114 H 200.51 5.10509 -2.43715 0
M  V30 2115 H 199.067 5.70627 -3.15004 0
M  V30 2116 N 202.5 1.5196 0.417844 0
M  V30 2117 C 203.916 1.40569 0.755816 0
M  V30 2118 C 204.116 0.503316 1.95113 0
M  V30 2119 O 203.172 -0.0341925 2.52477 0
M  V30 2120 C 204.485 2.82947 1.01791 0
M  V30 2121 C 206.033 2.92231 1.12116 0
M  V30 2122 C 206.508 4.35559 1.41608 0
M  V30 2123 N 207.999 4.38753 1.48491 0
M  V30 2124 C 208.734 5.46705 1.7292 0
M  V30 2125 N 208.23 6.64788 1.95011 0
M  V30 2126 N 210.023 5.34209 1.74863 0
M  V30 2127 H 202.174 2.09168 -0.369098 0
M  V30 2128 H 204.437 0.942409 -0.102809 0
M  V30 2129 H 204.143 3.5106 0.212081 0
M  V30 2130 H 204.017 3.23462 1.94042 0
M  V30 2131 H 206.404 2.24304 1.9176 0
M  V30 2132 H 206.485 2.55185 0.177225 0
M  V30 2133 H 206.129 5.04042 0.624848 0
M  V30 2134 H 206.059 4.70133 2.37239 0
M  V30 2135 H 208.55 3.5363 1.33244 0
M  V30 2136 H 208.863 7.42845 2.13076 0
M  V30 2137 H 207.208 6.67869 1.92293 0
M  V30 2138 H 210.399 4.40937 1.57137 0
M  V30 2139 H 210.572 6.18415 1.93563 0
M  V30 2140 N 203.978 -0.674533 1.42435 0
M  V30 2141 C 204.941 -1.76986 1.45632 0
M  V30 2142 C 205.941 -1.5708 0.343871 0
M  V30 2143 O 207.131 -1.63367 0.604709 0
M  V30 2144 C 204.263 -3.15623 1.28822 0
M  V30 2145 H 205.456 -1.75539 2.43158 0
M  V30 2146 H 203.009 -0.884189 1.28887 0
M  V30 2147 H 203.744 -3.22696 0.322193 0
M  V30 2148 H 203.529 -3.31475 2.09444 0
M  V30 2149 H 205.019 -3.95537 1.33942 0
M  V30 2150 N 205.456 -1.28612 -0.910864 0
M  V30 2151 C 206.419 -1.12803 -1.9952 0
M  V30 2152 C 207.419 -0.0668264 -1.60661 0
M  V30 2153 O 208.609 -0.312847 -1.71368 0
M  V30 2154 C 205.741 -0.72254 -3.33155 0
M  V30 2155 H 206.934 -2.09109 -2.14973 0
M  V30 2156 H 204.487 -1.11639 -1.09391 0
M  V30 2157 H 205.222 0.241152 -3.23402 0
M  V30 2158 H 205.007 -1.48916 -3.62721 0
M  V30 2159 H 206.497 -0.634666 -4.12749 0
M  V30 2160 N 206.934 1.1197 -1.10907 0
M  V30 2161 C 207.897 2.16031 -0.765707 0
M  V30 2162 C 208.897 1.59393 0.212235 0
M  V30 2163 O 210.087 1.74196 -0.0115441 0
M  V30 2164 C 207.219 3.40632 -0.135053 0
M  V30 2165 H 208.412 2.47919 -1.68748 0
M  V30 2166 H 205.965 1.27061 -0.910226 0
M  V30 2167 H 206.7 3.14348 0.797218 0
M  V30 2168 H 206.485 3.8302 -0.838937 0
M  V30 2169 H 207.975 4.17505 0.0892469 0
M  V30 2170 N 208.412 0.89855 1.29475 0
M  V30 2171 C 209.36 0.365253 2.29714 0
M  V30 2172 C 210.354 -0.534993 1.6073 0
M  V30 2173 O 211.56 -0.417921 1.75081 0
M  V30 2174 H 207.935 0.0994853 0.74539 0
M  V30 2175 H 209.906 1.22406 2.72138 0
M  V30 2176 C 208.655 -0.393159 3.4547 0
M  V30 2177 H 207.978 0.290332 3.98744 0
M  V30 2178 H 209.418 -0.731189 4.17648 0
M  V30 2179 C 207.877 -1.59539 2.9673 0
M  V30 2180 O 208.407 -2.69469 2.97908 0
M  V30 2181 N 206.613 -1.43716 2.52575 0
M  V30 2182 H 206.16 -0.542828 2.51816 0
M  V30 2183 H 206.118 -2.24288 2.20323 0
M  V30 2184 N 209.89 -1.43072 0.660911 0
M  V30 2185 C 211.138 -2.01323 0.177094 0
M  V30 2186 C 211.459 -1.5245 -1.2159 0
M  V30 2187 O 210.729 -0.740322 -1.81373 0
M  V30 2188 H 209.309 -0.744382 0.0624804 0
M  V30 2189 H 211.971 -1.75179 0.854305 0
M  V30 2190 H 211.067 -3.11649 0.167641 0
M  V30 2191 N 211.368 -0.403325 -1.52352 0
M  V30 2192 C 212.615 0.174347 -2.01748 0
M  V30 2193 C 212.943 1.45636 -1.2892 0
M  V30 2194 O 212.198 1.9193 -0.382258 0
M  V30 2195 C 212.497 0.474665 -3.54234 0
M  V30 2196 C 212.163 -0.717458 -4.45155 0
M  V30 2197 C 210.825 -1.04447 -4.69728 0
M  V30 2198 C 213.177 -1.51432 -4.98716 0
M  V30 2199 C 210.505 -2.16963 -5.45109 0
M  V30 2200 C 212.857 -2.6302 -5.75329 0
M  V30 2201 C 211.521 -2.96213 -5.98175 0
M  V30 2202 H 210.791 0.0637981 -0.738248 0
M  V30 2203 H 213.438 -0.543553 -1.83624 0
M  V30 2204 H 211.743 1.27406 -3.70506 0
M  V30 2205 H 213.44 0.934496 -3.89959 0
M  V30 2206 H 210.03 -0.452596 -4.26204 0
M  V30 2207 H 214.214 -1.27491 -4.79645 0
M  V30 2208 H 209.47 -2.43034 -5.61021 0
M  V30 2209 H 213.644 -3.25158 -6.15829 0
M  V30 2210 H 211.271 -3.83516 -6.56368 0
M  V30 2211 N 212.846 1.57033 -0.133567 0
M  V30 2212 C 214.086 1.97575 0.523789 0
M  V30 2213 C 214.45 1.01605 1.62912 0
M  V30 2214 O 215.651 1.3114 2.3464 0
M  V30 2215 C 213.922 3.42256 1.02935 0
M  V30 2216 S 215.481 4.04817 1.69319 0
M  V30 2217 H 212.299 0.690427 0.169799 0
M  V30 2218 H 214.901 1.94234 -0.222101 0
M  V30 2219 H 213.605 4.09842 0.213917 0
M  V30 2220 H 213.136 3.4928 1.81017 0
M  V30 2221 H 215.151 3.96767 2.97977 0
M  V30 2222 N 214.325 -0.140222 1.56975 0
M  V30 2223 C 215.571 -0.852949 1.83991 0
M  V30 2224 C 215.904 -1.80512 0.716187 0
M  V30 2225 O 215.179 -1.92479 -0.279681 0
M  V30 2226 C 215.462 -1.6215 3.21527 0
M  V30 2227 C 215.315 -0.690363 4.4447 0
M  V30 2228 C 216.634 -2.58247 3.56366 0
M  V30 2229 H 213.753 -0.308634 0.669264 0
M  V30 2230 H 216.395 -0.117898 1.89634 0
M  V30 2231 H 214.545 -2.24812 3.16847 0
M  V30 2232 H 216.217 -0.0742264 4.6124 0
M  V30 2233 H 214.46 -0.000396433 4.338 0
M  V30 2234 H 215.131 -1.2643 5.37326 0
M  V30 2235 H 217.607 -2.05701 3.61699 0
M  V30 2236 H 216.483 -3.09067 4.53617 0
M  V30 2237 H 216.744 -3.39923 2.82674 0
M  V30 2238 N 215.803 -1.52179 -0.40978 0
M  V30 2239 C 217.05 -1.66206 -1.15679 0
M  V30 2240 C 217.378 -0.391674 -1.90516 0
M  V30 2241 O 216.633 0.62533 -1.8544 0
M  V30 2242 C 216.932 -2.83428 -2.17723 0
M  V30 2243 C 216.598 -4.21672 -1.59699 0
M  V30 2244 C 215.26 -4.59274 -1.43599 0
M  V30 2245 C 217.612 -5.07825 -1.17317 0
M  V30 2246 C 214.94 -5.80709 -0.836328 0
M  V30 2247 C 217.292 -6.29864 -0.587691 0
M  V30 2248 C 215.956 -6.66216 -0.413818 0
M  V30 2249 H 215.226 -0.608192 -0.423301 0
M  V30 2250 H 217.873 -1.86279 -0.444097 0
M  V30 2251 H 216.178 -2.57687 -2.95135 0
M  V30 2252 H 217.875 -2.91477 -2.75394 0
M  V30 2253 H 214.465 -3.9204 -1.73213 0
M  V30 2254 H 218.649 -4.79359 -1.28565 0
M  V30 2255 H 213.905 -6.07498 -0.689626 0
M  V30 2256 H 218.079 -6.95948 -0.250894 0
M  V30 2257 H 215.706 -7.60182 0.0529471 0
M  V30 2258 N 217.281 0.66697 -1.42791 0
M  V30 2259 C 218.229 1.80157 -1.47127 0
M  V30 2260 C 219.223 1.65825 -0.346199 0
M  V30 2261 O 220.429 1.72338 -0.519572 0
M  V30 2262 H 216.804 0.594158 -0.460956 0
M  V30 2263 H 218.775 1.73619 -2.42692 0
M  V30 2264 C 217.524 3.18351 -1.39813 0
M  V30 2265 H 216.847 3.3001 -2.25684 0
M  V30 2266 H 218.287 3.97736 -1.46908 0
M  V30 2267 C 216.746 3.36707 -0.11391 0
M  V30 2268 O 217.276 3.93027 0.830241 0
M  V30 2269 N 215.482 2.90586 -0.0285295 0
M  V30 2270 H 215.029 2.4494 -0.79764 0
M  V30 2271 H 214.987 3.03245 0.830063 0
M  V30 2272 N 218.759 1.29093 0.90403 0
M  V30 2273 C 219.707 1.13727 2.02901 0
M  V30 2274 C 220.701 0.0539853 1.69314 0
M  V30 2275 O 221.907 0.213469 1.7873 0
M  V30 2276 H 218.282 0.35117 0.664969 0
M  V30 2277 H 220.253 2.08982 2.13001 0
M  V30 2278 C 219.002 0.826066 3.37745 0
M  V30 2279 H 218.325 1.65164 3.64089 0
M  V30 2280 H 219.765 0.758559 4.17159 0
M  V30 2281 C 218.224 -0.470541 3.33598 0
M  V30 2282 O 218.754 -1.49792 3.72727 0
M  V30 2283 N 216.96 -0.474812 2.86695 0
M  V30 2284 H 216.507 0.361692 2.55048 0
M  V30 2285 H 216.465 -1.34236 2.84303 0
M  V30 2286 N 220.237 -1.11381 1.11499 0
M  V30 2287 C 221.483 -1.83403 0.865512 0
M  V30 2288 C 221.816 -1.84459 -0.607329 0
M  V30 2289 O 221.091 -1.29811 -1.44842 0
M  V30 2290 C 221.374 -3.30552 1.42855 0
M  V30 2291 C 221.227 -3.37886 2.96906 0
M  V30 2292 C 222.546 -4.26643 1.08 0
M  V30 2293 H 219.665 -0.665879 0.31587 0
M  V30 2294 H 222.307 -1.30601 1.37998 0
M  V30 2295 H 220.457 -3.75648 0.990985 0
M  V30 2296 H 222.129 -3.01343 3.49271 0
M  V30 2297 H 220.372 -2.78088 3.32941 0
M  V30 2298 H 221.043 -4.41458 3.31389 0
M  V30 2299 H 223.519 -3.89729 1.45775 0
M  V30 2300 H 222.395 -5.27986 1.50072 0
M  V30 2301 H 222.656 -4.42099 -0.00915037 0
M  V30 2302 N 221.715 -0.905404 -1.28997 0
M  V30 2303 C 222.678 -0.392253 -2.25819 0
M  V30 2304 C 223.678 0.476753 -1.5357 0
M  V30 2305 O 224.868 0.280994 -1.71919 0
M  V30 2306 C 222 0.438588 -3.38067 0
M  V30 2307 H 223.193 -1.24743 -2.72725 0
M  V30 2308 H 220.746 -0.684051 -1.40536 0
M  V30 2309 H 221.481 1.31352 -2.96508 0
M  V30 2310 H 221.266 -0.184167 -3.91667 0
M  V30 2311 H 222.756 0.78873 -4.10084 0
M  V30 2312 N 223.193 1.4272 -0.668489 0
M  V30 2313 C 224.442 2.00846 -0.185389 0
M  V30 2314 C 224.755 1.53442 1.21305 0
M  V30 2315 O 225.961 2.03944 1.79218 0
M  V30 2316 C 224.417 3.58805 -0.280591 0
M  V30 2317 C 224.025 4.15198 -1.68268 0
M  V30 2318 C 225.769 4.24255 0.14412 0
M  V30 2319 C 223.676 5.655 -1.73099 0
M  V30 2320 H 222.606 0.751145 -0.0655475 0
M  V30 2321 H 225.257 1.63516 -0.832752 0
M  V30 2322 H 223.639 3.93608 0.434553 0
M  V30 2323 H 224.813 3.91866 -2.42441 0
M  V30 2324 H 223.128 3.62176 -2.05469 0
M  V30 2325 H 225.725 5.34547 0.128086 0
M  V30 2326 H 226.068 3.99277 1.17827 0
M  V30 2327 H 226.601 3.94389 -0.519798 0
M  V30 2328 H 223.34 5.95268 -2.74475 0
M  V30 2329 H 222.86 5.90842 -1.03274 0
M  V30 2330 H 224.539 6.29808 -1.48158 0
M  V30 2331 N 224.671 0.411399 1.52136 0
M  V30 2332 C 225.634 -0.401089 2.25663 0
M  V30 2333 C 226.634 -0.971732 1.28117 0
M  V30 2334 O 227.824 -0.850254 1.52041 0
M  V30 2335 C 224.956 -1.56483 3.02863 0
M  V30 2336 H 226.149 0.24295 2.98914 0
M  V30 2337 H 223.702 0.163968 1.55438 0
M  V30 2338 H 224.437 -2.24567 2.33967 0
M  V30 2339 H 224.222 -1.16211 3.74483 0
M  V30 2340 H 225.712 -2.13951 3.58629 0
M  V30 2341 N 226.149 -1.5696 0.141893 0
M  V30 2342 C 227.112 -2.15316 -0.785587 0
M  V30 2343 C 228.112 -1.09366 -1.1788 0
M  V30 2344 O 229.302 -1.35031 -1.10056 0
M  V30 2345 C 226.434 -2.71211 -2.06537 0
M  V30 2346 H 227.627 -2.98608 -0.278041 0
M  V30 2347 H 225.18 -1.5593 -0.107519 0
M  V30 2348 H 225.915 -1.91571 -2.6167 0
M  V30 2349 H 225.7 -3.4872 -1.79268 0
M  V30 2350 H 227.19 -3.16189 -2.72789 0
M  V30 2351 N 227.627 0.131896 -1.57047 0
M  V30 2352 C 228.59 1.14638 -1.98471 0
M  V30 2353 C 229.59 1.35029 -0.873148 0
M  V30 2354 O 230.78 1.31764 -1.13946 0
M  V30 2355 C 227.912 2.50358 -2.31373 0
M  V30 2356 H 229.105 0.79064 -2.8929 0
M  V30 2357 H 226.658 0.375761 -1.51716 0
M  V30 2358 H 227.393 2.90876 -1.43393 0
M  V30 2359 H 227.178 2.36915 -3.12432 0
M  V30 2360 H 228.668 3.23395 -2.64207 0
M  V30 2361 N 229.106 1.52395 0.401703 0
M  V30 2362 C 230.056 1.72649 1.48917 0
M  V30 2363 C 231.04 0.580436 1.50066 0
M  V30 2364 O 232.232 0.83779 1.55917 0
M  V30 2365 C 229.361 1.88729 2.86769 0
M  V30 2366 C 228.447 3.09228 2.90239 0
M  V30 2367 N 228.838 4.31805 2.63396 0
M  V30 2368 C 227.136 3.09214 3.21408 0
M  V30 2369 C 227.837 5.13326 2.73625 0
M  V30 2370 N 226.813 4.48735 3.06819 0
M  V30 2371 H 230.615 2.65058 1.26971 0
M  V30 2372 H 228.129 1.50528 0.609504 0
M  V30 2373 H 230.126 2.01358 3.65049 0
M  V30 2374 H 228.786 0.975252 3.09708 0
M  V30 2375 H 229.797 4.60154 2.37653 0
M  V30 2376 H 226.474 2.27774 3.49893 0
M  V30 2377 H 227.864 6.21003 2.56524 0
M  V30 2378 N 230.584 -0.659388 1.43143 0
M  V30 2379 C 231.547 -1.75432 1.47501 0
M  V30 2380 C 232.547 -1.56707 0.360512 0
M  V30 2381 O 233.737 -1.62717 0.622002 0
M  V30 2382 C 230.869 -3.14239 1.32162 0
M  V30 2383 H 232.062 -1.7295 2.45006 0
M  V30 2384 H 229.615 -0.870469 1.29817 0
M  V30 2385 H 230.35 -3.22336 0.356401 0
M  V30 2386 H 230.135 -3.29235 2.12948 0
M  V30 2387 H 231.625 -3.94094 1.3813 0
M  V30 2388 N 232.062 -1.29571 -0.897171 0
M  V30 2389 C 233.009 -1.14916 -2.00158 0
M  V30 2390 C 233.979 -0.0418149 -1.66047 0
M  V30 2391 O 235.164 -0.209793 -1.89643 0
M  V30 2392 C 232.304 -0.834307 -3.34863 0
M  V30 2393 C 231.417 -2.02234 -3.8174 0
M  V30 2394 C 230.552 -1.64664 -5.05034 0
M  V30 2395 C 229.591 -2.80033 -5.44286 0
M  V30 2396 N 228.728 -2.42843 -6.58765 0
M  V30 2397 H 233.568 -2.09403 -2.12025 0
M  V30 2398 H 231.105 -1.042 -1.0383 0
M  V30 2399 H 233.063 -0.632436 -4.12379 0
M  V30 2400 H 231.693 0.0736656 -3.22716 0
M  V30 2401 H 230.745 -2.33583 -3.00238 0
M  V30 2402 H 232.057 -2.88673 -4.06779 0
M  V30 2403 H 231.211 -1.4078 -5.9014 0
M  V30 2404 H 229.95 -0.753766 -4.8184 0
M  V30 2405 H 228.955 -3.04596 -4.57713 0
M  V30 2406 H 230.18 -3.69989 -5.6946 0
M  V30 2407 H 228.126 -1.56046 -6.3717 0
M  V30 2408 H 228.043 -3.22815 -6.83613 0
M  V30 2409 H 229.311 -2.22285 -7.47134 0
M  V30 2410 N 233.54 1.10788 -1.12088 0
M  V30 2411 C 234.472 2.16816 -0.743213 0
M  V30 2412 C 235.485 1.6119 0.228412 0
M  V30 2413 O 236.674 1.78497 0.0102931 0
M  V30 2414 C 233.774 3.38809 -0.0787313 0
M  V30 2415 C 232.947 4.23885 -1.0789 0
M  V30 2416 C 232.006 5.24334 -0.442713 0
M  V30 2417 O 231.032 5.58497 -1.09864 0
M  V30 2418 N 232.234 5.75079 0.791457 0
M  V30 2419 H 234.999 2.49825 -1.65552 0
M  V30 2420 H 232.56 1.26373 -1.012 0
M  V30 2421 H 234.552 4.03107 0.358766 0
M  V30 2422 H 233.122 3.03805 0.736275 0
M  V30 2423 H 232.342 3.55939 -1.69414 0
M  V30 2424 H 233.63 4.77562 -1.75533 0
M  V30 2425 H 233.028 5.49517 1.3434 0
M  V30 2426 H 231.585 6.4118 1.17183 0
M  V30 2427 N 235.018 0.912232 1.28515 0
M  V30 2428 C 235.965 0.397954 2.27343 0
M  V30 2429 C 236.935 -0.526766 1.57526 0
M  V30 2430 O 238.12 -0.449292 1.85435 0
M  V30 2431 C 235.26 -0.357263 3.43246 0
M  V30 2432 C 234.373 0.599788 4.27816 0
M  V30 2433 C 233.508 -0.173725 5.30916 0
M  V30 2434 C 232.547 0.777039 6.07148 0
M  V30 2435 N 231.684 0.0371398 7.0209 0
M  V30 2436 H 236.524 1.24577 2.70711 0
M  V30 2437 H 234.061 0.625612 1.33133 0
M  V30 2438 H 236.019 -0.8113 4.09236 0
M  V30 2439 H 234.649 -1.16943 3.00872 0
M  V30 2440 H 233.701 1.17235 3.61884 0
M  V30 2441 H 235.013 1.32704 4.80823 0
M  V30 2442 H 234.167 -0.688394 6.02782 0
M  V30 2443 H 232.906 -0.934041 4.78672 0
M  V30 2444 H 231.911 1.3031 5.34134 0
M  V30 2445 H 233.136 1.53689 6.61481 0
M  V30 2446 H 231.082 -0.705213 6.52198 0
M  V30 2447 H 230.999 0.704249 7.52713 0
M  V30 2448 H 232.267 -0.457383 7.78157 0
M  V30 2449 N 236.496 -1.42363 0.676048 0
M  V30 2450 C 237.446 -2.27987 -0.0242903 0
M  V30 2451 C 238.43 -1.41153 -0.772319 0
M  V30 2452 O 239.622 -1.64592 -0.651025 0
M  V30 2453 C 236.751 -3.29195 -0.973953 0
M  V30 2454 C 235.837 -4.23512 -0.223202 0
M  V30 2455 N 236.228 -4.99865 0.772589 0
M  V30 2456 C 234.526 -4.43606 -0.461469 0
M  V30 2457 C 235.227 -5.68757 1.22027 0
M  V30 2458 N 234.203 -5.40811 0.549975 0
M  V30 2459 H 238.005 -2.84445 0.73949 0
M  V30 2460 H 235.519 -1.54341 0.50522 0
M  V30 2461 H 237.516 -3.89339 -1.49067 0
M  V30 2462 H 236.176 -2.74298 -1.73755 0
M  V30 2463 H 237.187 -5.04921 1.15217 0
M  V30 2464 H 233.864 -3.99749 -1.20446 0
M  V30 2465 H 235.254 -6.40007 2.0455 0
M  V30 2466 N 237.974 -0.419461 -1.51915 0
M  V30 2467 C 239.222 0.152637 -2.01523 0
M  V30 2468 C 239.543 1.44762 -1.30649 0
M  V30 2469 O 238.813 1.90997 -0.435535 0
M  V30 2470 H 237.393 0.0593966 -0.744635 0
M  V30 2471 H 240.055 -0.558073 -1.86739 0
M  V30 2472 H 239.151 0.341369 -3.10227 0
M  V30 2473 N 239.452 1.56882 -0.150215 0
M  V30 2474 C 240.382 2.19935 0.784284 0
M  V30 2475 C 241.363 1.14854 1.25469 0
M  V30 2476 O 242.548 1.43209 1.31168 0
M  V30 2477 C 239.678 2.82349 2.02229 0
M  V30 2478 C 238.632 3.93285 1.68853 0
M  V30 2479 C 237.958 4.42649 2.99944 0
M  V30 2480 C 239.258 5.13904 0.932714 0
M  V30 2481 H 240.952 2.9828 0.258781 0
M  V30 2482 H 238.498 1.43473 0.123029 0
M  V30 2483 H 240.451 3.25126 2.68088 0
M  V30 2484 H 239.175 2.0134 2.57157 0
M  V30 2485 H 237.834 3.5113 1.05371 0
M  V30 2486 H 237.482 3.58458 3.52869 0
M  V30 2487 H 237.182 5.17476 2.78374 0
M  V30 2488 H 238.706 4.88099 3.66868 0
M  V30 2489 H 240.12 5.53506 1.49345 0
M  V30 2490 H 238.517 5.94515 0.81684 0
M  V30 2491 H 239.587 4.84842 -0.0749568 0
M  V30 2492 N 240.93 -0.123565 1.57115 0
M  V30 2493 C 241.88 -1.1575 1.96433 0
M  V30 2494 C 242.864 -1.37313 0.838686 0
M  V30 2495 O 244.056 -1.38482 1.10235 0
M  V30 2496 C 241.185 -2.48526 2.36833 0
M  V30 2497 C 240.271 -2.30457 3.5602 0
M  V30 2498 N 240.662 -1.8219 4.71848 0
M  V30 2499 C 238.96 -2.61129 3.61563 0
M  V30 2500 C 239.661 -1.77721 5.53886 0
M  V30 2501 N 238.637 -2.21899 4.96248 0
M  V30 2502 H 242.439 -0.776797 2.83449 0
M  V30 2503 H 239.953 -0.331364 1.58983 0
M  V30 2504 H 241.95 -3.233 2.63216 0
M  V30 2505 H 240.61 -2.87358 1.5118 0
M  V30 2506 H 241.621 -1.51805 4.95152 0
M  V30 2507 H 238.298 -3.03678 2.86507 0
M  V30 2508 H 239.688 -1.41697 6.56789 0
M  V30 2509 N 242.408 -1.52605 -0.393616 0
M  V30 2510 C 243.824 -1.41753 -0.733357 0
M  V30 2511 C 244.024 -0.534293 -1.94287 0
M  V30 2512 O 243.08 -0.0059787 -2.52499 0
M  V30 2513 C 244.393 -2.84531 -0.972772 0
M  V30 2514 C 245.941 -2.93978 -1.07453 0
M  V30 2515 C 246.416 -4.37756 -1.3466 0
M  V30 2516 N 247.907 -4.4106 -1.41492 0
M  V30 2517 C 248.642 -5.49387 -1.642 0
M  V30 2518 N 248.138 -6.67806 -1.8441 0
M  V30 2519 N 249.931 -5.36923 -1.66342 0
M  V30 2520 H 242.082 -2.08555 0.402328 0
M  V30 2521 H 244.345 -0.940654 0.117789 0
M  V30 2522 H 244.051 -3.51353 -0.156204 0
M  V30 2523 H 243.925 -3.26508 -1.88871 0
M  V30 2524 H 246.312 -2.27326 -1.88167 0
M  V30 2525 H 246.393 -2.55435 -0.136605 0
M  V30 2526 H 246.037 -5.04972 -0.544581 0
M  V30 2527 H 245.967 -4.73848 -2.2973 0
M  V30 2528 H 248.458 -3.55705 -1.27601 0
M  V30 2529 H 248.771 -7.46141 -2.01231 0
M  V30 2530 H 247.116 -6.70843 -1.81644 0
M  V30 2531 H 250.307 -4.43381 -1.50102 0
M  V30 2532 H 250.48 -6.21416 -1.837 0
M  V30 2533 N 243.887 0.651787 -1.4349 0
M  V30 2534 C 245.136 1.40754 -1.44469 0
M  V30 2535 C 245.449 1.95463 -0.0731845 0
M  V30 2536 O 246.655 2.71471 0.0395721 0
M  V30 2537 C 245.111 2.54735 -2.5424 0
M  V30 2538 C 244.719 2.06628 -3.97504 0
M  V30 2539 C 246.463 3.32092 -2.64414 0
M  V30 2540 C 244.37 3.17829 -4.98737 0
M  V30 2541 H 243.3 0.528862 -0.53742 0
M  V30 2542 H 245.951 0.703365 -1.69485 0
M  V30 2543 H 244.333 3.2763 -2.22428 0
M  V30 2544 H 245.507 1.40734 -4.38783 0
M  V30 2545 H 243.822 1.42146 -3.91387 0
M  V30 2546 H 246.419 4.14952 -3.37223 0
M  V30 2547 H 246.762 3.80217 -1.69532 0
M  V30 2548 H 247.295 2.66279 -2.95534 0
M  V30 2549 H 244.034 2.74671 -5.95177 0
M  V30 2550 H 243.554 3.82429 -4.62069 0
M  V30 2551 H 245.233 3.82937 -5.21505 0
M  V30 2552 N 245.365 1.30045 0.890287 0
M  V30 2553 C 246.295 1.18541 2.01172 0
M  V30 2554 C 247.276 0.0773356 1.69924 0
M  V30 2555 O 248.461 0.25845 1.92473 0
M  V30 2556 C 245.591 0.870941 3.36202 0
M  V30 2557 C 244.545 1.93637 3.81692 0
M  V30 2558 C 243.871 1.475 5.13953 0
M  V30 2559 C 245.171 3.34666 4.00994 0
M  V30 2560 H 246.865 2.12359 2.11054 0
M  V30 2561 H 244.411 1.02238 1.01407 0
M  V30 2562 H 246.364 0.777141 4.14172 0
M  V30 2563 H 245.088 -0.102926 3.26438 0
M  V30 2564 H 243.747 2.01972 3.05946 0
M  V30 2565 H 243.395 0.489551 5.00612 0
M  V30 2566 H 243.095 2.1876 5.4536 0
M  V30 2567 H 244.619 1.39489 5.94454 0
M  V30 2568 H 246.033 3.2912 4.69417 0
M  V30 2569 H 244.43 4.03966 4.43769 0
M  V30 2570 H 245.5 3.76949 3.05021 0
M  V30 2571 N 246.843 -1.10192 1.12674 0
M  V30 2572 C 248.089 -1.82475 0.884915 0
M  V30 2573 C 248.422 -1.85093 -0.58773 0
M  V30 2574 O 247.697 -1.3134 -1.43457 0
M  V30 2575 C 247.98 -3.29018 1.46353 0
M  V30 2576 C 247.833 -3.34718 3.00473 0
M  V30 2577 C 249.152 -4.25473 1.12519 0
M  V30 2578 H 246.271 -0.662492 0.322915 0
M  V30 2579 H 248.913 -1.2913 1.39375 0
M  V30 2580 H 247.063 -3.74576 1.03077 0
M  V30 2581 H 248.735 -2.97622 3.52447 0
M  V30 2582 H 246.978 -2.74541 3.35872 0
M  V30 2583 H 247.649 -4.37918 3.36053 0
M  V30 2584 H 250.125 -3.88161 1.499 0
M  V30 2585 H 249.001 -5.26365 1.55663 0
M  V30 2586 H 249.262 -4.42084 0.0377407 0
M  V30 2587 N 248.321 -0.919034 -1.28029 0
M  V30 2588 C 249.567 -0.555757 -1.95036 0
M  V30 2589 C 249.9 0.899198 -1.72128 0
M  V30 2590 O 249.175 1.64023 -1.04531 0
M  V30 2591 C 249.458 -0.872024 -3.49382 0
M  V30 2592 C 249.311 -2.3801 -3.81669 0
M  V30 2593 C 250.63 -0.37185 -4.38526 0
M  V30 2594 H 247.749 -0.203386 -0.708381 0
M  V30 2595 H 250.391 -1.14924 -1.51303 0
M  V30 2596 H 248.541 -0.366946 -3.86763 0
M  V30 2597 H 250.213 -2.9562 -3.54128 0
M  V30 2598 H 248.456 -2.83289 -3.28526 0
M  V30 2599 H 249.127 -2.55192 -4.8947 0
M  V30 2600 H 251.603 -0.804602 -4.08247 0
M  V30 2601 H 250.479 -0.622173 -5.45362 0
M  V30 2602 H 250.74 0.727934 -4.36066 0
M  V30 2603 N 249.799 1.42003 -0.683588 0
M  V30 2604 C 251.076 1.95112 -0.138075 0
M  V30 2605 C 251.456 1.62359 1.34918 0
M  V30 2606 O 250.804 0.924311 2.08971 0
M  V30 2607 C 251.014 3.46505 -0.416581 0
M  V30 2608 C 252.362 4.23254 -0.337834 0
M  V30 2609 O 253.386 3.54468 -0.35082 0
M  V30 2610 O 252.245 5.45743 -0.287596 0
M  V30 2611 H 249.339 0.826961 -0.00797996 0
M  V30 2612 H 251.885 1.51784 -0.758924 0
M  V30 2613 H 250.657 3.63582 -1.4465 0
M  V30 2614 H 250.28 3.969 0.235839 0
M  V30 2615 N 251.277 0.427512 1.51691 0
M  V30 2616 C 252.523 -0.134744 2.02953 0
M  V30 2617 C 252.878 -1.41235 1.30654 0
M  V30 2618 O 252.171 -1.87168 0.409713 0
M  V30 2619 C 252.365 -0.418249 3.54944 0
M  V30 2620 C 252.194 0.830327 4.41968 0
M  V30 2621 C 250.964 1.36097 4.86627 0
M  V30 2622 C 253.162 1.7137 4.84909 0
M  V30 2623 N 251.144 2.56311 5.57833 0
M  V30 2624 C 252.515 2.76195 5.55082 0
M  V30 2625 C 254.57 1.72928 4.66905 0
M  V30 2626 C 253.273 3.82512 6.09161 0
M  V30 2627 C 255.299 2.78175 5.21894 0
M  V30 2628 C 254.661 3.8172 5.92004 0
M  V30 2629 H 250.76 -0.0103958 0.781931 0
M  V30 2630 H 253.344 0.585981 1.85673 0
M  V30 2631 H 251.515 -1.10801 3.7226 0
M  V30 2632 H 253.247 -0.970999 3.92879 0
M  V30 2633 H 250.002 0.916311 4.64651 0
M  V30 2634 H 250.426 3.17242 5.98069 0
M  V30 2635 H 255.068 0.942081 4.12171 0
M  V30 2636 H 252.786 4.62077 6.62956 0
M  V30 2637 H 256.372 2.8031 5.09821 0
M  V30 2638 H 255.252 4.61821 6.33791 0
M  V30 2639 N 252.755 -1.56801 0.158532 0
M  V30 2640 C 254.032 -1.88131 -0.535357 0
M  V30 2641 C 254.412 -1.06638 -1.82186 0
M  V30 2642 O 253.76 -0.156533 -2.27963 0
M  V30 2643 C 253.97 -3.39949 -0.789653 0
M  V30 2644 C 255.318 -4.09416 -1.12533 0
M  V30 2645 O 256.342 -3.45194 -0.878622 0
M  V30 2646 O 255.201 -5.22855 -1.59014 0
M  V30 2647 H 252.295 -0.780143 -0.27442 0
M  V30 2648 H 254.841 -1.68564 0.19601 0
M  V30 2649 H 253.613 -3.91115 0.120353 0
M  V30 2650 H 253.236 -3.65084 -1.57479 0
M  V30 2651 N 254.233 0.115231 -1.57178 0
M  V30 2652 C 255.479 0.82357 -1.85325 0
M  V30 2653 C 255.812 1.79349 -0.744814 0
M  V30 2654 O 255.087 1.92899 0.249024 0
M  V30 2655 C 255.37 1.57014 -3.24066 0
M  V30 2656 C 255.223 0.619565 -4.45513 0
M  V30 2657 C 256.542 2.52545 -3.60429 0
M  V30 2658 H 253.661 0.297948 -0.674089 0
M  V30 2659 H 256.303 0.0877138 -1.89797 0
M  V30 2660 H 254.453 2.19742 -3.20383 0
M  V30 2661 H 256.125 0.000837639 -4.613 0
M  V30 2662 H 254.368 -0.0686174 -4.33746 0
M  V30 2663 H 255.039 1.17866 -5.3927 0
M  V30 2664 H 257.515 1.9992 -3.64926 0
M  V30 2665 H 256.391 3.01811 -4.58477 0
M  V30 2666 H 256.652 3.35383 -2.88047 0
M  V30 2667 N 255.711 1.52812 0.385517 0
M  V30 2668 C 256.661 1.74219 1.47078 0
M  V30 2669 C 257.645 0.59632 1.49442 0
M  V30 2670 O 258.837 0.85428 1.5502 0
M  V30 2671 C 255.966 1.9176 2.84751 0
M  V30 2672 C 255.052 3.12289 2.86943 0
M  V30 2673 N 255.443 4.34575 2.58802 0
M  V30 2674 C 253.741 3.12605 3.1811 0
M  V30 2675 C 254.442 5.162 2.68166 0
M  V30 2676 N 253.418 4.51964 3.02043 0
M  V30 2677 H 257.22 2.6639 1.24152 0
M  V30 2678 H 254.734 1.51166 0.593504 0
M  V30 2679 H 256.731 2.05218 3.62893 0
M  V30 2680 H 255.391 1.00805 3.08656 0
M  V30 2681 H 256.402 4.62649 2.32759 0
M  V30 2682 H 253.079 2.31472 3.47458 0
M  V30 2683 H 254.469 6.23689 2.49923 0
M  V30 2684 N 257.189 -0.644168 1.43834 0
M  V30 2685 C 258.139 -1.7501 1.46135 0
M  V30 2686 C 259.123 -1.57507 0.328685 0
M  V30 2687 O 260.315 -1.67465 0.5731 0
M  V30 2688 C 257.444 -3.13641 1.39585 0
M  V30 2689 C 256.53 -3.3666 2.57916 0
M  V30 2690 N 256.921 -3.30107 3.83227 0
M  V30 2691 C 255.219 -3.67411 2.52834 0
M  V30 2692 C 255.92 -3.53456 4.61999 0
M  V30 2693 N 254.896 -3.75705 3.9287 0
M  V30 2694 H 258.698 -1.68382 2.40883 0
M  V30 2695 H 256.212 -0.846169 1.38614 0
M  V30 2696 H 258.209 -3.92933 1.39317 0
M  V30 2697 H 256.869 -3.21444 0.45865 0
M  V30 2698 H 257.88 -3.09316 4.15384 0
M  V30 2699 H 254.557 -3.82275 1.67845 0
M  V30 2700 H 255.947 -3.54093 5.71024 0
M  V30 2701 N 258.668 -1.30515 -0.883378 0
M  V30 2702 C 259.916 -1.19194 -1.63209 0
M  V30 2703 C 260.237 0.253205 -1.93349 0
M  V30 2704 O 259.507 1.17025 -1.57105 0
M  V30 2705 H 258.087 -0.438148 -0.605009 0
M  V30 2706 H 260.749 -1.63663 -1.05832 0
M  V30 2707 H 259.845 -1.75396 -2.58153 0
M  V30 2708 N 260.146 1.09593 -1.13257 0
M  V30 2709 C 261.078 2.16015 -0.766167 0
M  V30 2710 C 262.091 1.61423 0.211303 0
M  V30 2711 O 263.28 1.78498 -0.00863946 0
M  V30 2712 C 260.38 3.38706 -0.114662 0
M  V30 2713 C 259.553 4.22717 -1.12379 0
M  V30 2714 C 258.612 5.23835 -0.498301 0
M  V30 2715 O 257.638 5.573 -1.15781 0
M  V30 2716 N 258.84 5.75886 0.730417 0
M  V30 2717 H 261.605 2.48055 -1.68193 0
M  V30 2718 H 259.166 1.25292 -1.02535 0
M  V30 2719 H 261.158 4.03464 0.315991 0
M  V30 2720 H 259.728 3.04569 0.704011 0
M  V30 2721 H 258.948 3.54122 -1.73179 0
M  V30 2722 H 260.236 4.75673 -1.80589 0
M  V30 2723 H 259.634 5.50911 1.28504 0
M  V30 2724 H 258.191 6.42387 1.10376 0
M  V30 2725 N 261.624 0.925811 1.2754 0
M  V30 2726 C 262.872 0.564138 1.94067 0
M  V30 2727 C 263.193 -0.897188 1.73134 0
M  V30 2728 O 262.463 -1.63573 1.07799 0
M  V30 2729 H 261.043 0.205645 0.718136 0
M  V30 2730 H 263.705 1.1778 1.55287 0
M  V30 2731 H 262.801 0.76881 3.02483 0
M  V30 2732 N 263.102 -1.41638 0.69111 0
M  V30 2733 C 264.351 -2.00526 0.217318 0
M  V30 2734 C 264.664 -1.55353 -1.18848 0
M  V30 2735 O 265.87 -2.06769 -1.75951 0
M  V30 2736 C 264.326 -3.58313 0.337639 0
M  V30 2737 C 263.934 -4.12469 1.74852 0
M  V30 2738 C 265.678 -4.24431 -0.0766066 0
M  V30 2739 C 263.585 -5.62675 1.82074 0
M  V30 2740 H 262.515 -0.750008 0.0774893 0
M  V30 2741 H 265.166 -1.6217 0.858661 0
M  V30 2742 H 263.548 -3.9425 -0.371879 0
M  V30 2743 H 264.722 -3.8796 2.48644 0
M  V30 2744 H 263.037 -3.58861 2.11205 0
M  V30 2745 H 265.634 -5.34683 -0.0430284 0
M  V30 2746 H 265.977 -4.01101 -1.1146 0
M  V30 2747 H 266.51 -3.93512 0.582476 0
M  V30 2748 H 263.249 -5.90826 2.83911 0
M  V30 2749 H 262.769 -5.89124 1.12661 0
M  V30 2750 H 264.448 -6.27371 1.58159 0
M  V30 2751 N 264.58 -0.43555 -1.51462 0
M  V30 2752 C 265.512 0.41257 -2.25456 0
M  V30 2753 C 266.525 0.987822 -1.29406 0
M  V30 2754 O 267.714 0.882266 -1.55172 0
M  V30 2755 C 264.814 1.58894 -2.99342 0
M  V30 2756 C 263.987 1.13288 -4.22474 0
M  V30 2757 C 263.046 2.17917 -4.78956 0
M  V30 2758 O 262.072 1.77425 -5.40841 0
M  V30 2759 N 263.274 3.50382 -4.62832 0
M  V30 2760 H 266.039 -0.221603 -2.9888 0
M  V30 2761 H 263.6 -0.264342 -1.59727 0
M  V30 2762 H 265.592 2.28508 -3.34015 0
M  V30 2763 H 264.162 2.12849 -2.28941 0
M  V30 2764 H 263.382 0.263881 -3.93316 0
M  V30 2765 H 264.67 0.805542 -5.02383 0
M  V30 2766 H 264.068 3.86013 -4.13534 0
M  V30 2767 H 262.625 4.15895 -5.01871 0
M  V30 2768 N 266.058 1.56714 -0.166846 0
M  V30 2769 C 267.288 2.00828 0.48494 0
M  V30 2770 C 267.696 1.04612 1.57648 0
M  V30 2771 O 267.039 0.0383201 1.8366 0
M  V30 2772 C 267.101 3.4137 1.12723 0
M  V30 2773 C 266.765 4.56654 0.177886 0
M  V30 2774 C 267.762 5.16402 -0.60207 0
M  V30 2775 C 265.447 5.02244 0.0750139 0
M  V30 2776 C 267.441 6.20167 -1.47215 0
M  V30 2777 C 265.128 6.05859 -0.798649 0
M  V30 2778 C 266.126 6.64691 -1.57082 0
M  V30 2779 O 265.814 7.66297 -2.42989 0
M  V30 2780 H 265.546 0.663587 0.128953 0
M  V30 2781 H 268.1 2.03692 -0.264365 0
M  V30 2782 H 266.33 3.35406 1.92457 0
M  V30 2783 H 268.019 3.69466 1.68076 0
M  V30 2784 H 268.785 4.82065 -0.53274 0
M  V30 2785 H 264.664 4.56167 0.665812 0
M  V30 2786 H 268.208 6.66016 -2.07531 0
M  V30 2787 H 264.105 6.39621 -0.869199 0
M  V30 2788 H 264.873 7.83601 -2.36455 0
M  V30 2789 N 267.536 -0.106894 1.57237 0
M  V30 2790 C 268.466 -1.13148 2.04254 0
M  V30 2791 C 269.447 -1.42476 0.929224 0
M  V30 2792 O 270.632 -1.52709 1.19973 0
M  V30 2793 C 267.762 -2.4545 2.45706 0
M  V30 2794 C 266.716 -2.30558 3.60592 0
M  V30 2795 C 266.042 -3.67931 3.87983 0
M  V30 2796 C 267.342 -1.75597 4.91897 0
M  V30 2797 H 269.036 -0.740374 2.90101 0
M  V30 2798 H 266.582 -0.354696 1.39563 0
M  V30 2799 H 268.535 -3.17389 2.77205 0
M  V30 2800 H 267.259 -2.86475 1.56843 0
M  V30 2801 H 265.918 -1.61067 3.29322 0
M  V30 2802 H 265.566 -4.06462 2.96306 0
M  V30 2803 H 265.266 -3.58817 4.65322 0
M  V30 2804 H 266.79 -4.41356 4.21945 0
M  V30 2805 H 268.204 -2.37364 5.21854 0
M  V30 2806 H 266.601 -1.77272 5.73319 0
M  V30 2807 H 267.671 -0.714451 4.79608 0
M  V30 2808 N 269.014 -1.53014 -0.377408 0
M  V30 2809 C 270.261 -1.68623 -1.12128 0
M  V30 2810 C 270.589 -0.431997 -1.89642 0
M  V30 2811 O 269.844 0.585855 -1.86725 0
M  V30 2812 C 270.143 -2.87982 -2.11663 0
M  V30 2813 C 269.809 -4.24964 -1.50719 0
M  V30 2814 C 268.471 -4.62217 -1.33825 0
M  V30 2815 C 270.823 -5.10199 -1.06519 0
M  V30 2816 C 268.151 -5.82352 -0.712963 0
M  V30 2817 C 270.503 -6.30969 -0.453955 0
M  V30 2818 C 269.167 -6.66944 -0.272411 0
M  V30 2819 H 268.437 -0.617034 -0.410305 0
M  V30 2820 H 271.084 -1.8718 -0.404484 0
M  V30 2821 H 269.389 -2.63889 -2.89603 0
M  V30 2822 H 271.086 -2.97253 -2.6915 0
M  V30 2823 H 267.676 -3.95626 -1.64858 0
M  V30 2824 H 271.86 -4.81978 -1.18368 0
M  V30 2825 H 267.116 -6.08824 -0.560611 0
M  V30 2826 H 271.29 -6.96324 -0.103217 0
M  V30 2827 H 268.917 -7.59898 0.214181 0
M  V30 2828 N 270.492 0.636531 -1.44174 0
M  V30 2829 C 271.402 1.77754 -1.53103 0
M  V30 2830 C 272.418 1.68928 -0.417034 0
M  V30 2831 O 273.594 1.89801 -0.6736 0
M  V30 2832 C 270.659 3.14115 -1.46741 0
M  V30 2833 C 269.72 3.34612 -2.68948 0
M  V30 2834 C 268.953 4.64467 -2.6288 0
M  V30 2835 O 269.176 5.44919 -1.68581 0
M  V30 2836 O 268.11 4.87049 -3.53648 0
M  V30 2837 H 271.936 1.73174 -2.49489 0
M  V30 2838 H 269.521 0.79709 -1.2636 0
M  V30 2839 H 271.403 3.95412 -1.45696 0
M  V30 2840 H 270.078 3.19249 -0.534975 0
M  V30 2841 H 268.985 2.53014 -2.75562 0
M  V30 2842 H 270.318 3.34336 -3.61221 0
M  V30 2843 N 271.97 1.30982 0.876444 0
M  V30 2844 C 273.247 1.10942 1.61094 0
M  V30 2845 C 273.627 -0.338223 2.08373 0
M  V30 2846 O 272.975 -1.33122 1.85717 0
M  V30 2847 C 273.185 2.11789 2.77392 0
M  V30 2848 C 274.533 2.43965 3.47514 0
M  V30 2849 O 275.557 2.10166 2.87591 0
M  V30 2850 O 274.416 3.01817 4.55597 0
M  V30 2851 H 271.51 0.42667 0.708436 0
M  V30 2852 H 274.056 1.42438 0.922474 0
M  V30 2853 H 272.828 3.09194 2.39823 0
M  V30 2854 H 272.451 1.81161 3.5393 0
M  V30 2855 N 273.449 -1.08991 1.13837 0
M  V30 2856 C 274.726 -1.77863 0.813876 0
M  V30 2857 C 275.106 -1.99375 -0.693746 0
M  V30 2858 O 274.454 -1.59875 -1.63255 0
M  V30 2859 C 274.664 -3.0986 1.60586 0
M  V30 2860 C 276.012 -3.84493 1.8014 0
M  V30 2861 O 277.036 -3.19624 1.57222 0
M  V30 2862 O 275.895 -5.00957 2.18413 0
M  V30 2863 H 272.989 -0.771589 0.297624 0
M  V30 2864 H 275.535 -1.15507 1.24323 0
M  V30 2865 H 274.307 -2.89715 2.63022 0
M  V30 2866 H 273.93 -3.79942 1.17173 0
M  V30 2867 N 274.927 -0.932562 -1.27047 0
M  V30 2868 C 276.338 -0.619451 -1.76124 0
M  V30 2869 C 276.689 0.865397 -1.76083 0
M  V30 2870 O 275.814 1.67722 -1.36742 0
M  V30 2871 C 276.409 -1.11771 -3.19832 0
M  V30 2872 C 274.968 -0.855174 -3.66557 0
M  V30 2873 C 274.115 -1.27362 -2.46321 0
M  V30 2874 H 277.066 -1.11181 -1.13245 0
M  V30 2875 H 277.087 -0.46759 -3.77616 0
M  V30 2876 H 276.599 -2.19842 -3.1983 0
M  V30 2877 H 274.7 0.211524 -3.71999 0
M  V30 2878 H 274.813 -1.47613 -4.55793 0
M  V30 2879 H 273.177 -0.692119 -2.45116 0
M  V30 2880 H 273.96 -2.36307 -2.49025 0
M  V30 2881 N 276.405 1.4127 -0.698611 0
M  V30 2882 C 277.63 2.06024 -0.238512 0
M  V30 2883 C 278.055 1.5224 1.10475 0
M  V30 2884 O 277.413 0.650623 1.69223 0
M  V30 2885 C 277.461 3.59988 -0.209952 0
M  V30 2886 O 276.565 4.04282 0.814235 0
M  V30 2887 H 275.906 0.653829 -0.115775 0
M  V30 2888 H 278.436 1.8098 -0.954326 0
M  V30 2889 H 278.446 4.07979 -0.0418436 0
M  V30 2890 H 277.121 3.98503 -1.1903 0
M  V30 2891 H 275.698 3.6779 0.615234 0
M  V30 2892 N 277.883 0.443576 1.51229 0
M  V30 2893 C 279.129 -0.120975 2.02439 0
M  V30 2894 C 279.462 -1.41815 1.32674 0
M  V30 2895 O 278.737 -1.89373 0.443622 0
M  V30 2896 C 279.02 -0.333291 3.58554 0
M  V30 2897 C 278.873 0.982968 4.38928 0
M  V30 2898 C 280.192 -1.10028 4.26124 0
M  V30 2899 H 277.311 -0.0424923 0.735774 0
M  V30 2900 H 279.953 0.583794 1.80809 0
M  V30 2901 H 278.103 -0.933614 3.77115 0
M  V30 2902 H 279.775 1.61775 4.32003 0
M  V30 2903 H 278.018 1.58611 4.03763 0
M  V30 2904 H 278.689 0.788379 5.46341 0
M  V30 2905 H 281.165 -0.591711 4.11871 0
M  V30 2906 H 280.041 -1.21761 5.35225 0
M  V30 2907 H 280.302 -2.12996 3.87408 0
M  V30 2908 N 279.361 -1.56624 0.175154 0
M  V30 2909 C 280.291 -2.21155 -0.749195 0
M  V30 2910 C 281.272 -1.16836 -1.23626 0
M  V30 2911 O 282.457 -1.45277 -1.28873 0
M  V30 2912 C 279.587 -2.8553 -1.97711 0
M  V30 2913 C 278.541 -3.95921 -1.62575 0
M  V30 2914 C 277.867 -4.47365 -2.92864 0
M  V30 2915 C 279.167 -5.15323 -0.850838 0
M  V30 2916 H 280.861 -2.98653 -0.211295 0
M  V30 2917 H 278.407 -1.43651 -0.100188 0
M  V30 2918 H 280.36 -3.2935 -2.62881 0
M  V30 2919 H 279.084 -2.05406 -2.53921 0
M  V30 2920 H 277.743 -3.52762 -0.997719 0
M  V30 2921 H 277.391 -3.64027 -3.47122 0
M  V30 2922 H 277.091 -5.21839 -2.70106 0
M  V30 2923 H 278.615 -4.93873 -3.59056 0
M  V30 2924 H 280.029 -5.55812 -1.40521 0
M  V30 2925 H 278.426 -5.95739 -0.722154 0
M  V30 2926 H 279.496 -4.84661 0.152082 0
M  V30 2927 N 280.839 0.0985539 -1.57292 0
M  V30 2928 C 282.069 0.815135 -1.8984 0
M  V30 2929 C 282.477 1.7297 -0.766679 0
M  V30 2930 O 281.82 1.81698 0.270483 0
M  V30 2931 C 281.882 1.6842 -3.17608 0
M  V30 2932 C 281.546 0.94182 -4.4719 0
M  V30 2933 C 282.543 0.273212 -5.19182 0
M  V30 2934 C 280.228 0.916927 -4.9386 0
M  V30 2935 C 282.222 -0.410361 -6.36078 0
M  V30 2936 C 279.909 0.229567 -6.10669 0
M  V30 2937 C 280.907 -0.432902 -6.81627 0
M  V30 2938 O 280.595 -1.10925 -7.9621 0
M  V30 2939 H 280.327 0.238501 -0.632529 0
M  V30 2940 H 282.881 0.0812659 -2.05239 0
M  V30 2941 H 281.111 2.46022 -2.98345 0
M  V30 2942 H 282.8 2.27704 -3.36015 0
M  V30 2943 H 283.566 0.283927 -4.84168 0
M  V30 2944 H 279.445 1.42201 -4.3852 0
M  V30 2945 H 282.989 -0.928013 -6.914 0
M  V30 2946 H 278.886 0.216686 -6.45136 0
M  V30 2947 H 279.654 -1.01579 -8.12172 0
M  V30 2948 N 282.317 1.53212 0.369288 0
M  V30 2949 C 283.564 1.69215 1.11232 0
M  V30 2950 C 283.892 0.442048 1.8941 0
M  V30 2951 O 283.147 -0.575944 1.87033 0
M  V30 2952 C 283.446 2.89101 2.10132 0
M  V30 2953 C 283.112 4.25758 1.48463 0
M  V30 2954 C 281.774 4.6292 1.31372 0
M  V30 2955 C 284.126 5.10757 1.03811 0
M  V30 2956 C 281.454 5.82722 0.68207 0
M  V30 2957 C 283.806 6.31201 0.420487 0
M  V30 2958 C 282.47 6.67079 0.237038 0
M  V30 2959 H 281.74 0.619201 0.407027 0
M  V30 2960 H 284.387 1.87391 0.394552 0
M  V30 2961 H 282.692 2.65421 2.88199 0
M  V30 2962 H 284.389 2.98676 2.6757 0
M  V30 2963 H 280.979 3.96494 1.62758 0
M  V30 2964 H 285.163 4.82599 1.1581 0
M  V30 2965 H 280.419 6.09113 0.528316 0
M  V30 2966 H 284.593 6.96368 0.0662874 0
M  V30 2967 H 282.22 7.59774 -0.254477 0
M  V30 2968 N 283.795 -0.628877 1.44509 0
M  V30 2969 C 285.02 -1.42048 1.5112 0
M  V30 2970 C 285.445 -1.87594 0.137818 0
M  V30 2971 O 284.803 -1.58873 -0.873437 0
M  V30 2972 C 284.851 -2.61541 2.48251 0
M  V30 2973 O 283.955 -3.61453 1.98559 0
M  V30 2974 H 283.296 -0.424942 0.510216 0
M  V30 2975 H 285.826 -0.767374 1.89664 0
M  V30 2976 H 285.836 -3.09057 2.66361 0
M  V30 2977 H 284.511 -2.27736 3.48007 0
M  V30 2978 H 283.088 -3.20731 1.90227 0
M  V30 2979 N 285.273 -1.31445 -0.869486 0
M  V30 2980 C 286.519 -1.22347 -1.62489 0
M  V30 2981 C 286.874 0.216204 -1.91181 0
M  V30 2982 O 286.167 1.14977 -1.53268 0
M  V30 2983 C 286.361 -2.00145 -2.96102 0
M  V30 2984 C 286.19 -3.51531 -2.80456 0
M  V30 2985 C 284.96 -4.20882 -2.79618 0
M  V30 2986 C 287.158 -4.46471 -2.5528 0
M  V30 2987 N 285.14 -5.58421 -2.55027 0
M  V30 2988 C 286.511 -5.71682 -2.39957 0
M  V30 2989 C 288.566 -4.35892 -2.40629 0
M  V30 2990 C 287.269 -6.87511 -2.11472 0
M  V30 2991 C 289.295 -5.51505 -2.13532 0
M  V30 2992 C 288.657 -6.75707 -1.98998 0
M  V30 2993 H 284.756 -0.502815 -0.598917 0
M  V30 2994 H 287.34 -1.65639 -1.02332 0
M  V30 2995 H 285.511 -1.59221 -3.54264 0
M  V30 2996 H 287.243 -1.83063 -3.60929 0
M  V30 2997 H 283.998 -3.72857 -2.92018 0
M  V30 2998 H 284.422 -6.30841 -2.45701 0
M  V30 2999 H 289.064 -3.40533 -2.50593 0
M  V30 3000 H 286.782 -7.82897 -2.00245 0
M  V30 3001 H 290.368 -5.45238 -2.02995 0
M  V30 3002 H 289.248 -7.63655 -1.78326 0
M  V30 3003 N 286.751 1.08385 -1.14413 0
M  V30 3004 C 287.701 2.13509 -0.79987 0
M  V30 3005 C 288.685 1.5951 0.211059 0
M  V30 3006 O 289.877 1.76995 0.0133694 0
M  V30 3007 C 287.006 3.42162 -0.279297 0
M  V30 3008 C 286.092 4.03042 -1.31976 0
M  V30 3009 N 286.483 4.38327 -2.52395 0
M  V30 3010 C 284.781 4.30379 -1.17004 0
M  V30 3011 C 285.482 4.86428 -3.19003 0
M  V30 3012 N 284.458 4.84547 -2.46405 0
M  V30 3013 H 288.26 2.38609 -1.7159 0
M  V30 3014 H 285.774 1.2572 -1.02802 0
M  V30 3015 H 287.771 4.16898 -0.0143688 0
M  V30 3016 H 286.431 3.18511 0.630923 0
M  V30 3017 H 287.442 4.29349 -2.89621 0
M  V30 3018 H 284.119 4.16281 -0.318854 0
M  V30 3019 H 285.509 5.23107 -4.21674 0
M  V30 3020 N 288.23 0.939286 1.26551 0
M  V30 3021 C 289.646 0.641304 1.46149 0
M  V30 3022 C 289.846 -0.805964 1.84679 0
M  V30 3023 O 288.902 -1.58278 1.96734 0
M  V30 3024 C 290.215 1.6011 2.54529 0
M  V30 3025 C 291.763 1.6106 2.68382 0
M  V30 3026 C 292.238 2.55765 3.79932 0
M  V30 3027 N 293.729 2.5404 3.87322 0
M  V30 3028 C 294.464 3.24004 4.73085 0
M  V30 3029 N 293.96 4.03388 5.63249 0
M  V30 3030 N 295.753 3.12965 4.66914 0
M  V30 3031 H 287.904 1.87478 0.998285 0
M  V30 3032 H 290.167 0.805559 0.499779 0
M  V30 3033 H 289.873 2.63412 2.33039 0
M  V30 3034 H 289.747 1.35171 3.52149 0
M  V30 3035 H 292.134 0.584835 2.89247 0
M  V30 3036 H 292.215 1.90053 1.71212 0
M  V30 3037 H 291.859 3.58458 3.5982 0
M  V30 3038 H 291.789 2.24063 4.76554 0
M  V30 3039 H 294.28 1.96396 3.22858 0
M  V30 3040 H 294.593 4.5373 6.25579 0
M  V30 3041 H 292.938 4.07489 5.63008 0
M  V30 3042 H 296.129 2.50432 3.95476 0
M  V30 3043 H 296.302 3.67759 5.33533 0
M  V30 3044 N 289.708 -1.40897 0.706093 0
M  V30 3045 C 290.938 -2.05075 0.250523 0
M  V30 3046 C 291.346 -1.53275 -1.10921 0
M  V30 3047 O 290.689 -0.680281 -1.7064 0
M  V30 3048 C 290.751 -3.59219 0.142178 0
M  V30 3049 C 290.415 -4.33864 1.43566 0
M  V30 3050 C 291.412 -4.62448 2.37566 0
M  V30 3051 C 289.097 -4.72946 1.69195 0
M  V30 3052 C 291.091 -5.29088 3.5545 0
M  V30 3053 C 288.778 -5.3932 2.87362 0
M  V30 3054 C 289.776 -5.6732 3.80312 0
M  V30 3055 O 289.464 -6.32325 4.96408 0
M  V30 3056 H 289.196 -0.666645 0.112074 0
M  V30 3057 H 291.75 -1.81467 0.962239 0
M  V30 3058 H 289.98 -3.81609 -0.6254 0
M  V30 3059 H 291.669 -4.0495 -0.277584 0
M  V30 3060 H 292.435 -4.32727 2.19027 0
M  V30 3061 H 288.314 -4.50527 0.977042 0
M  V30 3062 H 291.858 -5.50859 4.28018 0
M  V30 3063 H 287.755 -5.68461 3.05814 0
M  V30 3064 H 288.523 -6.50821 4.9636 0
M  V30 3065 N 291.186 -0.45159 -1.50991 0
M  V30 3066 C 292.096 0.358431 -2.31846 0
M  V30 3067 C 293.112 1.01438 -1.41373 0
M  V30 3068 O 294.288 1.00663 -1.74439 0
M  V30 3069 C 291.353 1.43704 -3.15515 0
M  V30 3070 C 290.414 0.799742 -4.21785 0
M  V30 3071 C 289.647 1.82696 -5.01456 0
M  V30 3072 O 289.87 3.05105 -4.81941 0
M  V30 3073 O 288.804 1.40958 -5.85162 0
M  V30 3074 H 292.63 -0.302032 -3.02194 0
M  V30 3075 H 290.215 -0.213825 -1.47862 0
M  V30 3076 H 292.097 2.06227 -3.67489 0
M  V30 3077 H 290.772 2.08133 -2.47916 0
M  V30 3078 H 289.679 0.136084 -3.73852 0
M  V30 3079 H 291.012 0.198718 -4.91799 0
M  V30 3080 N 292.664 1.56529 -0.183458 0
M  V30 3081 C 293.614 2.1515 0.754605 0
M  V30 3082 C 294.598 1.08904 1.18443 0
M  V30 3083 O 295.79 1.34997 1.14476 0
M  V30 3084 C 292.919 2.80531 1.97881 0
M  V30 3085 C 292.005 3.93952 1.57043 0
M  V30 3086 N 292.396 4.98221 0.87231 0
M  V30 3087 C 290.694 4.05338 1.86057 0
M  V30 3088 C 291.395 5.77836 0.669377 0
M  V30 3089 N 290.371 5.29858 1.21454 0
M  V30 3090 H 294.173 2.93132 0.212387 0
M  V30 3091 H 291.687 1.62391 0.0167725 0
M  V30 3092 H 293.684 3.20914 2.6612 0
M  V30 3093 H 292.344 2.04035 2.52586 0
M  V30 3094 H 293.355 5.15191 0.529033 0
M  V30 3095 H 290.032 3.39957 2.42354 0
M  V30 3096 H 291.422 6.71799 0.116422 0
M  V30 3097 N 294.142 -0.090211 1.57342 0
M  V30 3098 C 295.39 -0.791241 1.85967 0
M  V30 3099 C 295.711 -1.7903 0.772859 0
M  V30 3100 O 294.981 -1.94872 -0.200398 0
M  V30 3101 H 293.561 -0.295205 0.686195 0
M  V30 3102 H 296.223 -0.0706782 1.94772 0
M  V30 3103 H 295.319 -1.31882 2.82867 0
M  V30 3104 N 295.62 -1.53406 -0.361157 0
M  V30 3105 C 297.036 -1.43277 -0.703124 0
M  V30 3106 C 297.236 -0.575384 -1.9311 0
M  V30 3107 O 296.292 -0.0595362 -2.5243 0
M  V30 3108 C 297.605 -2.8653 -0.9122 0
M  V30 3109 C 299.153 -2.96191 -1.01193 0
M  V30 3110 C 299.628 -4.40514 -1.25345 0
M  V30 3111 N 301.119 -4.43962 -1.32105 0
M  V30 3112 C 301.854 -5.52746 -1.5251 0
M  V30 3113 N 301.35 -6.71567 -1.70203 0
M  V30 3114 N 303.143 -5.40331 -1.54916 0
M  V30 3115 H 295.294 -2.07654 0.446475 0
M  V30 3116 H 297.557 -0.937944 0.137715 0
M  V30 3117 H 297.263 -3.51605 -0.0816414 0
M  V30 3118 H 297.137 -3.30441 -1.81903 0
M  V30 3119 H 299.524 -2.31266 -1.83303 0
M  V30 3120 H 299.605 -2.55667 -0.0823929 0
M  V30 3121 H 299.249 -5.06014 -0.437346 0
M  V30 3122 H 299.179 -4.78614 -2.19627 0
M  V30 3123 H 301.67 -3.58332 -1.20028 0
M  V30 3124 H 301.983 -7.50241 -1.85359 0
M  V30 3125 H 300.328 -6.74545 -1.67373 0
M  V30 3126 H 303.519 -4.46465 -1.40663 0
M  V30 3127 H 303.692 -6.25173 -1.70477 0
M  V30 3128 N 297.098 0.621204 -1.44841 0
M  V30 3129 C 298.345 1.38055 -1.48145 0
M  V30 3130 C 298.673 1.94143 -0.117867 0
M  V30 3131 O 297.928 1.74713 0.881694 0
M  V30 3132 C 298.227 2.55675 -2.4973 0
M  V30 3133 C 297.893 2.17817 -3.94799 0
M  V30 3134 C 296.555 2.07205 -4.34303 0
M  V30 3135 C 298.907 1.88065 -4.86087 0
M  V30 3136 C 296.235 1.65045 -5.63007 0
M  V30 3137 C 298.587 1.47394 -6.15189 0
M  V30 3138 C 297.251 1.35331 -6.53637 0
M  V30 3139 H 296.521 0.505181 -0.542101 0
M  V30 3140 H 299.168 0.703477 -1.78111 0
M  V30 3141 H 297.473 3.2866 -2.13284 0
M  V30 3142 H 299.17 3.13904 -2.4953 0
M  V30 3143 H 295.76 2.26998 -3.63552 0
M  V30 3144 H 299.944 1.95168 -4.56315 0
M  V30 3145 H 295.2 1.54317 -5.91605 0
M  V30 3146 H 299.374 1.23415 -6.85377 0
M  V30 3147 H 297.001 1.02435 -7.53267 0
M  V30 3148 N 298.576 1.31904 0.862503 0
M  V30 3149 C 299.822 1.23207 1.61838 0
M  V30 3150 C 300.177 -0.206062 1.91293 0
M  V30 3151 O 299.47 -1.14162 1.53875 0
M  V30 3152 C 299.664 2.01713 2.95037 0
M  V30 3153 C 299.493 3.53014 2.78588 0
M  V30 3154 C 298.263 4.22359 2.77382 0
M  V30 3155 C 300.461 4.47819 2.52909 0
M  V30 3156 N 298.443 5.59766 2.52062 0
M  V30 3157 C 299.814 5.72947 2.36922 0
M  V30 3158 C 301.869 4.37162 2.38314 0
M  V30 3159 C 300.572 6.88623 2.07823 0
M  V30 3160 C 302.598 5.5263 2.10604 0
M  V30 3161 C 301.96 6.76752 1.95411 0
M  V30 3162 H 298.059 0.505984 0.596242 0
M  V30 3163 H 300.643 1.66179 1.01452 0
M  V30 3164 H 298.814 1.61098 3.53415 0
M  V30 3165 H 300.546 1.84975 3.59953 0
M  V30 3166 H 297.301 3.74401 2.90036 0
M  V30 3167 H 297.725 6.32135 2.42352 0
M  V30 3168 H 302.367 3.41857 2.48784 0
M  V30 3169 H 300.085 7.83948 1.9609 0
M  V30 3170 H 303.671 5.46307 2.00101 0
M  V30 3171 H 302.551 7.6459 1.74274 0
M  V30 3172 N 300.054 -1.07777 1.14986 0
M  V30 3173 C 301.465 -1.61766 0.932127 0
M  V30 3174 C 301.816 -1.88974 -0.527581 0
M  V30 3175 O 300.941 -1.65198 -1.39781 0
M  V30 3176 C 301.536 -2.93891 1.68563 0
M  V30 3177 C 300.095 -3.44639 1.5133 0
M  V30 3178 C 299.242 -2.18767 1.704 0
M  V30 3179 H 302.193 -0.909201 1.30074 0
M  V30 3180 H 302.214 -3.62623 1.15259 0
M  V30 3181 H 301.726 -2.74057 2.74799 0
M  V30 3182 H 299.827 -3.69564 0.474702 0
M  V30 3183 H 299.94 -4.20966 2.28746 0
M  V30 3184 H 298.304 -2.28253 1.13016 0
M  V30 3185 H 299.087 -2.01433 2.77992 0
M  V30 3186 N 301.532 -0.945985 -1.26051 0
M  V30 3187 C 302.779 -0.596118 -1.93527 0
M  V30 3188 C 303.107 0.865559 -1.74179 0
M  V30 3189 O 302.362 1.63524 -1.0751 0
M  V30 3190 C 302.661 -0.890475 -3.46129 0
M  V30 3191 C 302.327 -2.3368 -3.85622 0
M  V30 3192 C 300.989 -2.73216 -3.96114 0
M  V30 3193 C 303.341 -3.27648 -4.05334 0
M  V30 3194 C 300.669 -4.05806 -4.2372 0
M  V30 3195 C 303.021 -4.59841 -4.3443 0
M  V30 3196 C 301.685 -4.99185 -4.43137 0
M  V30 3197 H 300.955 -0.218135 -0.708165 0
M  V30 3198 H 303.602 -1.1934 -1.49768 0
M  V30 3199 H 301.907 -0.210711 -3.91233 0
M  V30 3200 H 303.604 -0.598478 -3.96509 0
M  V30 3201 H 300.194 -2.02015 -3.78005 0
M  V30 3202 H 304.378 -2.98298 -3.96651 0
M  V30 3203 H 299.634 -4.35945 -4.28675 0
M  V30 3204 H 303.808 -5.32641 -4.48628 0
M  V30 3205 H 301.435 -6.01952 -4.64282 0
M  V30 3206 N 303.011 1.40521 -0.713556 0
M  V30 3207 C 303.941 2.33381 -0.0743864 0
M  V30 3208 C 304.922 1.52784 0.747735 0
M  V30 3209 O 306.107 1.81258 0.697071 0
M  V30 3210 C 303.237 3.36748 0.849598 0
M  V30 3211 C 302.191 4.27793 0.133247 0
M  V30 3212 C 301.517 5.21679 1.17281 0
M  V30 3213 C 302.817 5.12415 -1.01134 0
M  V30 3214 H 304.511 2.87081 -0.850007 0
M  V30 3215 H 302.057 1.38034 -0.410201 0
M  V30 3216 H 304.01 4.00648 1.30612 0
M  V30 3217 H 302.734 2.81439 1.65709 0
M  V30 3218 H 301.393 3.65342 -0.303426 0
M  V30 3219 H 301.041 4.62677 1.9733 0
M  V30 3220 H 300.741 5.83435 0.698397 0
M  V30 3221 H 302.265 5.88456 1.62947 0
M  V30 3222 H 303.679 5.69781 -0.634274 0
M  V30 3223 H 302.076 5.83203 -1.41399 0
M  V30 3224 H 303.146 4.48514 -1.84292 0
M  V30 3225 N 304.489 0.459591 1.5075 0
M  V30 3226 C 305.905 0.113092 1.59199 0
M  V30 3227 C 306.105 -1.37951 1.46874 0
M  V30 3228 O 305.161 -2.15168 1.32132 0
M  V30 3229 C 306.474 0.653043 2.93523 0
M  V30 3230 C 308.022 0.615449 3.0689 0
M  V30 3231 C 308.497 1.13275 4.43771 0
M  V30 3232 N 309.988 1.09167 4.50152 0
M  V30 3233 C 310.723 1.46256 5.54434 0
M  V30 3234 N 310.219 1.90739 6.66026 0
M  V30 3235 N 312.012 1.37932 5.44914 0
M  V30 3236 H 304.163 1.43049 1.57005 0
M  V30 3237 H 306.426 0.590861 0.741341 0
M  V30 3238 H 306.132 1.69822 3.07983 0
M  V30 3239 H 306.006 0.0902132 3.77092 0
M  V30 3240 H 308.393 -0.420793 2.92084 0
M  V30 3241 H 308.474 1.21495 2.25106 0
M  V30 3242 H 308.118 2.16757 4.59324 0
M  V30 3243 H 308.048 0.509576 5.24129 0
M  V30 3244 H 310.539 0.76528 3.7007 0
M  V30 3245 H 310.852 2.17218 7.41644 0
M  V30 3246 H 309.197 1.94683 6.67176 0
M  V30 3247 H 312.388 1.0303 4.56621 0
M  V30 3248 H 312.561 1.67164 6.26067 0
M  V30 3249 N 305.967 -1.56429 0.191757 0
M  V30 3250 C 306.877 -2.22541 -0.742481 0
M  V30 3251 C 307.893 -1.22342 -1.23727 0
M  V30 3252 O 309.069 -1.55069 -1.28513 0
M  V30 3253 C 306.134 -2.8692 -1.94623 0
M  V30 3254 C 305.195 -4.02378 -1.49633 0
M  V30 3255 C 304.428 -4.63678 -2.6427 0
M  V30 3256 O 304.651 -4.23895 -3.81666 0
M  V30 3257 O 303.585 -5.53202 -2.37174 0
M  V30 3258 H 307.411 -3.02977 -0.209462 0
M  V30 3259 H 304.996 -1.49353 -0.0373832 0
M  V30 3260 H 306.878 -3.27663 -2.64982 0
M  V30 3261 H 305.553 -2.09466 -2.46791 0
M  V30 3262 H 304.46 -3.66265 -0.761636 0
M  V30 3263 H 305.793 -4.81487 -1.02134 0
M  V30 3264 N 307.445 0.0818655 -1.57387 0
M  V30 3265 C 308.67 0.799946 -1.91352 0
M  V30 3266 C 309.095 1.70833 -0.787258 0
M  V30 3267 O 308.453 1.79419 0.26048 0
M  V30 3268 C 308.501 1.57812 -3.24234 0
M  V30 3269 O 307.605 2.68806 -3.12757 0
M  V30 3270 H 306.946 0.21891 -0.626877 0
M  V30 3271 H 309.476 0.0531256 -2.04531 0
M  V30 3272 H 309.486 1.95952 -3.57864 0
M  V30 3273 H 308.161 0.911548 -4.05788 0
M  V30 3274 H 306.738 2.33597 -2.90666 0
M  V30 3275 N 308.923 1.53595 0.353017 0
M  V30 3276 C 310.2 1.61002 1.11075 0
M  V30 3277 C 310.58 0.425356 2.0677 0
M  V30 3278 O 309.928 -0.583267 2.2093 0
M  V30 3279 C 310.138 2.96631 1.83877 0
M  V30 3280 C 311.486 3.51653 2.37961 0
M  V30 3281 O 312.51 2.98743 1.93987 0
M  V30 3282 O 311.369 4.44177 3.18386 0
M  V30 3283 H 308.463 0.650825 0.510251 0
M  V30 3284 H 311.009 1.6594 0.35527 0
M  V30 3285 H 309.781 3.74293 1.14108 0
M  V30 3286 H 309.404 2.95242 2.66304 0
M  V30 3287 N 310.401 -0.613514 1.45168 0
M  V30 3288 C 311.364 -1.7065 1.53007 0
M  V30 3289 C 312.364 -1.5548 0.410184 0
M  V30 3290 O 313.554 -1.60656 0.673455 0
M  V30 3291 C 310.686 -3.09875 1.42093 0
M  V30 3292 H 311.879 -1.65068 2.50385 0
M  V30 3293 H 309.432 -0.828728 1.32521 0
M  V30 3294 H 310.167 -3.21039 0.458769 0
M  V30 3295 H 309.952 -3.22293 2.23315 0
M  V30 3296 H 311.442 -3.895 1.50598 0
M  V30 3297 N 311.879 -1.3236 -0.855495 0
M  V30 3298 C 313.156 -1.13491 -1.59309 0
M  V30 3299 C 313.536 0.30503 -2.08885 0
M  V30 3300 O 312.884 1.30151 -1.87811 0
M  V30 3301 C 313.094 -2.16176 -2.73987 0
M  V30 3302 C 314.442 -2.49463 -3.43589 0
M  V30 3303 O 315.466 -2.14715 -2.84211 0
M  V30 3304 O 314.325 -3.09027 -4.50738 0
M  V30 3305 H 311.419 -0.437887 -0.701559 0
M  V30 3306 H 313.965 -1.43887 -0.899696 0
M  V30 3307 H 312.737 -3.1297 -2.34873 0
M  V30 3308 H 312.36 -1.86769 -3.51003 0
M  V30 3309 N 313.357 1.07166 -1.15556 0
M  V30 3310 C 314.32 2.12589 -0.856644 0
M  V30 3311 C 315.32 1.6015 0.14444 0
M  V30 3312 O 316.51 1.7399 -0.0854163 0
M  V30 3313 C 313.642 3.39753 -0.279405 0
M  V30 3314 H 314.835 2.40539 -1.79112 0
M  V30 3315 H 312.388 1.23086 -0.963298 0
M  V30 3316 H 313.123 3.17447 0.663174 0
M  V30 3317 H 312.908 3.79117 -1.00063 0
M  V30 3318 H 314.398 4.17507 -0.0879113 0
M  V30 3319 N 314.835 0.952656 1.25548 0
M  V30 3320 C 316.081 0.607272 1.93494 0
M  V30 3321 C 316.414 -0.853245 1.74452 0
M  V30 3322 O 315.689 -1.61194 1.08843 0
M  V30 3323 C 315.972 0.96435 3.46947 0
M  V30 3324 C 315.825 2.48045 3.75225 0
M  V30 3325 C 317.144 0.487987 4.37386 0
M  V30 3326 H 314.263 0.222096 0.702739 0
M  V30 3327 H 316.905 1.18895 1.48203 0
M  V30 3328 H 315.055 0.469361 3.85654 0
M  V30 3329 H 316.727 3.04905 3.46166 0
M  V30 3330 H 314.97 2.919 3.209 0
M  V30 3331 H 315.641 2.6808 4.82532 0
M  V30 3332 H 318.117 0.912558 4.0597 0
M  V30 3333 H 316.993 0.766547 5.43521 0
M  V30 3334 H 317.254 -0.612063 4.37843 0
M  V30 3335 N 316.313 -1.40141 0.720998 0
M  V30 3336 C 317.561 -2.0039 0.262323 0
M  V30 3337 C 317.882 -1.57469 -1.15015 0
M  V30 3338 O 317.152 -0.816582 -1.78069 0
M  V30 3339 H 315.732 -0.741063 0.093996 0
M  V30 3340 H 318.394 -1.71398 0.927835 0
M  V30 3341 H 317.49 -3.10658 0.299671 0
M  V30 3342 N 317.792 -0.46758 -1.50504 0
M  V30 3343 C 319.208 -0.121533 -1.59137 0
M  V30 3344 C 319.408 1.3717 -1.47603 0
M  V30 3345 O 318.464 2.14464 -1.33272 0
M  V30 3346 C 319.777 -0.6686 -2.93173 0
M  V30 3347 C 321.325 -0.631716 -3.06559 0
M  V30 3348 C 321.8 -1.15627 -4.43164 0
M  V30 3349 N 323.291 -1.11553 -4.49567 0
M  V30 3350 C 324.026 -1.49195 -5.5365 0
M  V30 3351 N 323.522 -1.94269 -6.65005 0
M  V30 3352 N 325.315 -1.4082 -5.44175 0
M  V30 3353 H 317.466 -1.4388 -1.56245 0
M  V30 3354 H 319.729 -0.594784 -0.738198 0
M  V30 3355 H 319.435 -1.71453 -3.07078 0
M  V30 3356 H 319.309 -0.11021 -3.77039 0
M  V30 3357 H 321.696 0.405297 -2.92304 0
M  V30 3358 H 321.777 -1.22687 -2.24458 0
M  V30 3359 H 321.421 -2.1919 -4.58168 0
M  V30 3360 H 321.351 -0.537365 -5.23851 0
M  V30 3361 H 323.842 -0.784895 -3.69659 0
M  V30 3362 H 324.155 -2.21148 -7.40482 0
M  V30 3363 H 322.5 -1.98219 -6.66134 0
M  V30 3364 H 325.691 -1.0545 -4.56068 0
M  V30 3365 H 325.864 -1.70481 -6.25172 0
M  V30 3366 N 319.27 1.56325 -0.20005 0
M  V30 3367 C 320.518 1.97329 0.436547 0
M  V30 3368 C 320.839 1.08826 1.61808 0
M  V30 3369 O 320.109 0.160604 1.95241 0
M  V30 3370 H 318.689 0.728714 0.164272 0
M  V30 3371 H 321.351 1.92761 -0.287937 0
M  V30 3372 H 320.447 3.02264 0.777353 0
M  V30 3373 N 320.748 -0.0735177 1.57428 0
M  V30 3374 C 321.68 -1.11423 2.00294 0
M  V30 3375 C 322.693 -1.35084 0.908637 0
M  V30 3376 O 323.882 -1.33355 1.18654 0
M  V30 3377 C 320.982 -2.46548 2.32523 0
M  V30 3378 C 320.155 -2.42867 3.63778 0
M  V30 3379 C 319.214 -3.60087 3.83697 0
M  V30 3380 O 318.24 -3.41595 4.55304 0
M  V30 3381 N 319.442 -4.80372 3.25919 0
M  V30 3382 H 322.207 -0.749206 2.90184 0
M  V30 3383 H 319.768 -0.262195 1.59763 0
M  V30 3384 H 321.76 -3.23607 2.43024 0
M  V30 3385 H 320.33 -2.75059 1.48531 0
M  V30 3386 H 319.55 -1.51206 3.64047 0
M  V30 3387 H 320.838 -2.37506 4.49965 0
M  V30 3388 H 320.236 -4.983 2.67795 0
M  V30 3389 H 318.793 -5.54948 3.41871 0
M  V30 3390 N 322.226 -1.5378 -0.344866 0
M  V30 3391 C 323.474 -1.70625 -1.08311 0
M  V30 3392 C 323.795 -0.471447 -1.89215 0
M  V30 3393 O 323.065 0.514616 -1.8902 0
M  V30 3394 H 321.645 -0.629058 -0.402859 0
M  V30 3395 H 324.307 -1.9103 -0.386459 0
M  V30 3396 H 323.403 -2.57656 -1.76124 0
M  V30 3397 N 323.704 0.605807 -1.45491 0
M  V30 3398 C 324.634 1.72709 -1.57143 0
M  V30 3399 C 325.615 1.6476 -0.422884 0
M  V30 3400 O 326.8 1.83132 -0.646247 0
M  V30 3401 C 323.93 3.11316 -1.53948 0
M  V30 3402 C 322.884 3.34077 -2.67537 0
M  V30 3403 C 322.21 4.72975 -2.49397 0
M  V30 3404 C 323.51 3.24158 -4.09535 0
M  V30 3405 H 325.204 1.63214 -2.51001 0
M  V30 3406 H 322.75 0.78379 -1.208 0
M  V30 3407 H 324.703 3.89557 -1.60696 0
M  V30 3408 H 323.427 3.21655 -0.566205 0
M  V30 3409 H 322.086 2.58227 -2.6022 0
M  V30 3410 H 321.734 4.8005 -1.50205 0
M  V30 3411 H 321.434 4.8916 -3.25571 0
M  V30 3412 H 322.958 5.53414 -2.58002 0
M  V30 3413 H 324.372 3.92271 -4.18086 0
M  V30 3414 H 322.769 3.51872 -4.86113 0
M  V30 3415 H 323.839 2.2157 -4.31317 0
M  V30 3416 N 325.182 1.32811 0.848464 0
M  V30 3417 C 326.43 1.23479 1.59991 0
M  V30 3418 C 326.751 -0.201853 1.93952 0
M  V30 3419 O 326.021 -1.12818 1.60153 0
M  V30 3420 H 324.601 0.454034 0.593179 0
M  V30 3421 H 327.263 1.66412 1.01455 0
M  V30 3422 H 326.359 1.82178 2.53412 0
M  V30 3423 N 326.66 -1.06551 1.16123 0
M  V30 3424 C 327.907 -1.79302 0.941126 0
M  V30 3425 C 328.235 -1.87105 -0.531235 0
M  V30 3426 O 327.49 -1.35692 -1.41018 0
M  V30 3427 C 327.789 -3.23911 1.51052 0
M  V30 3428 C 327.455 -3.36193 3.00475 0
M  V30 3429 C 326.117 -3.39252 3.41265 0
M  V30 3430 C 328.469 -3.38326 3.96465 0
M  V30 3431 C 325.797 -3.42057 4.76669 0
M  V30 3432 C 328.149 -3.4267 5.31752 0
M  V30 3433 C 326.813 -3.4401 5.72026 0
M  V30 3434 H 326.083 -0.656111 0.344382 0
M  V30 3435 H 328.73 -1.25325 1.44796 0
M  V30 3436 H 327.035 -3.80723 0.925063 0
M  V30 3437 H 328.732 -3.78793 1.31593 0
M  V30 3438 H 325.322 -3.34516 2.6795 0
M  V30 3439 H 329.506 -3.35176 3.6602 0
M  V30 3440 H 324.762 -3.41398 5.07206 0
M  V30 3441 H 328.936 -3.43268 6.05921 0
M  V30 3442 H 326.563 -3.45937 6.76928 0
M  V30 3443 N 328.138 -0.959301 -1.25041 0
M  V30 3444 C 329.366 -0.633949 -1.96948 0
M  V30 3445 C 329.781 0.794916 -1.7125 0
M  V30 3446 O 329.138 1.53231 -0.991287 0
M  V30 3447 C 329.189 -0.888805 -3.50403 0
M  V30 3448 O 328.91 -2.26149 -3.75218 0
M  V30 3449 C 330.411 -0.576482 -4.39536 0
M  V30 3450 H 327.631 -0.237263 -0.627652 0
M  V30 3451 H 330.175 -1.28495 -1.59089 0
M  V30 3452 H 328.33 -0.284145 -3.86357 0
M  V30 3453 H 328.744 -2.33514 -4.6965 0
M  V30 3454 H 330.218 -0.805314 -5.46094 0
M  V30 3455 H 330.695 0.489075 -4.36468 0
M  V30 3456 H 331.301 -1.16067 -4.09156 0
M  V30 3457 N 329.616 1.39756 -0.72842 0
M  V30 3458 C 330.862 2.00942 -0.273892 0
M  V30 3459 C 331.195 1.57656 1.13394 0
M  V30 3460 O 330.47 0.802434 1.77176 0
M  V30 3461 C 330.753 3.58211 -0.368346 0
M  V30 3462 C 330.606 4.11534 -1.81548 0
M  V30 3463 C 331.925 4.39372 0.253054 0
M  V30 3464 H 329.044 0.730047 -0.100996 0
M  V30 3465 H 331.686 1.66056 -0.923337 0
M  V30 3466 H 329.836 3.88061 0.184588 0
M  V30 3467 H 331.508 3.92431 -2.42478 0
M  V30 3468 H 329.751 3.65341 -2.33898 0
M  V30 3469 H 330.422 5.20682 -1.83288 0
M  V30 3470 H 332.898 4.15527 -0.218224 0
M  V30 3471 H 331.774 5.48677 0.156585 0
M  V30 3472 H 332.035 4.21358 1.33826 0
M  V30 3473 N 331.094 0.475555 1.50254 0
M  V30 3474 C 332.042 -0.330276 2.30243 0
M  V30 3475 C 333.036 -0.986306 1.37726 0
M  V30 3476 O 334.242 -0.9169 1.54897 0
M  V30 3477 H 330.617 -0.125353 0.741479 0
M  V30 3478 H 332.588 0.364702 2.96163 0
M  V30 3479 C 331.337 -1.39704 3.18399 0
M  V30 3480 H 330.66 -0.901621 3.89501 0
M  V30 3481 H 332.1 -1.93336 3.77355 0
M  V30 3482 C 330.559 -2.4014 2.36293 0
M  V30 3483 O 331.089 -3.45504 2.04914 0
M  V30 3484 N 329.295 -2.1197 1.98789 0
M  V30 3485 H 328.842 -1.2631 2.24507 0
M  V30 3486 H 328.8 -2.79403 1.44157 0
M  V30 3487 N 332.573 -1.56217 0.208337 0
M  V30 3488 C 333.503 -2.22694 -0.702116 0
M  V30 3489 C 334.484 -1.19432 -1.2112 0
M  V30 3490 O 335.669 -1.47978 -1.25762 0
M  V30 3491 C 332.799 -2.8966 -1.9161 0
M  V30 3492 C 331.753 -3.9928 -1.5414 0
M  V30 3493 C 331.079 -4.53476 -2.83308 0
M  V30 3494 C 332.379 -5.17012 -0.741339 0
M  V30 3495 H 334.073 -2.99034 -0.147898 0
M  V30 3496 H 331.619 -1.43831 -0.0696951 0
M  V30 3497 H 333.572 -3.34852 -2.55836 0
M  V30 3498 H 332.296 -2.10746 -2.49507 0
M  V30 3499 H 330.955 -3.54799 -0.922668 0
M  V30 3500 H 330.603 -3.71308 -3.39322 0
M  V30 3501 H 330.303 -5.27451 -2.58976 0
M  V30 3502 H 331.827 -5.01378 -3.485 0
M  V30 3503 H 333.241 -5.58667 -1.28699 0
M  V30 3504 H 331.638 -5.97137 -0.595627 0
M  V30 3505 H 332.708 -4.8423 0.254851 0
M  V30 3506 N 334.051 0.0651679 -1.57465 0
M  V30 3507 C 335.462 0.616213 -1.76238 0
M  V30 3508 C 335.813 1.7756 -0.834689 0
M  V30 3509 O 334.938 2.1639 -0.0204156 0
M  V30 3510 C 335.533 1.12462 -3.1959 0
M  V30 3511 C 334.092 1.62147 -3.39684 0
M  V30 3512 C 333.239 0.543739 -2.71917 0
M  V30 3513 H 336.19 -0.161022 -1.57881 0
M  V30 3514 H 336.211 1.99324 -3.24114 0
M  V30 3515 H 335.723 0.280592 -3.87084 0
M  V30 3516 H 333.824 2.48854 -2.77313 0
M  V30 3517 H 333.937 1.69385 -4.48158 0
M  V30 3518 H 332.301 0.990352 -2.34657 0
M  V30 3519 H 333.084 -0.290216 -3.42071 0
M  V30 3520 N 335.529 1.53961 0.336706 0
M  V30 3521 C 336.775 1.7273 1.07406 0
M  V30 3522 C 337.13 0.488095 1.86106 0
M  V30 3523 O 336.423 -0.519379 1.84426 0
M  V30 3524 C 336.617 2.93493 2.03953 0
M  V30 3525 C 336.446 4.29039 1.34744 0
M  V30 3526 C 335.216 4.93416 1.08942 0
M  V30 3527 C 337.414 5.08501 0.770115 0
M  V30 3528 N 335.396 6.12821 0.363864 0
M  V30 3529 C 336.767 6.19752 0.175472 0
M  V30 3530 C 338.822 4.93349 0.671633 0
M  V30 3531 C 337.525 7.17503 -0.508081 0
M  V30 3532 C 339.551 5.914 0.0018076 0
M  V30 3533 C 338.913 7.01993 -0.581835 0
M  V30 3534 H 335.012 0.685026 0.377177 0
M  V30 3535 H 337.596 1.91403 0.356815 0
M  V30 3536 H 335.767 2.76308 2.72962 0
M  V30 3537 H 337.499 3.00949 2.70577 0
M  V30 3538 H 334.254 4.53099 1.37833 0
M  V30 3539 H 334.678 6.76998 0.0156092 0
M  V30 3540 H 339.32 4.08007 1.1086 0
M  V30 3541 H 337.038 8.02414 -0.956918 0
M  V30 3542 H 340.624 5.81753 -0.0738538 0
M  V30 3543 H 339.504 7.76561 -1.09192 0
M  V30 3544 N 337.007 -0.598083 1.45811 0
M  V30 3545 C 337.955 -1.72932 1.55555 0
M  V30 3546 C 338.949 -1.63984 0.424921 0
M  V30 3547 O 340.155 -1.69663 0.601205 0
M  V30 3548 H 336.53 -0.571489 0.488779 0
M  V30 3549 H 338.501 -1.61842 2.50699 0
M  V30 3550 C 337.25 -3.11318 1.54843 0
M  V30 3551 H 336.573 -3.18867 2.41172 0
M  V30 3552 H 338.013 -3.90274 1.65717 0
M  V30 3553 C 336.472 -3.3578 0.274427 0
M  V30 3554 O 337.002 -3.9654 -0.641778 0
M  V30 3555 N 335.208 -2.90119 0.167139 0
M  V30 3556 H 334.755 -2.40855 0.913596 0
M  V30 3557 H 334.713 -3.0686 -0.684435 0
M  V30 3558 N 338.485 -1.33259 -0.841409 0
M  V30 3559 C 339.417 -1.19136 -1.95804 0
M  V30 3560 C 340.43 -0.122965 -1.62335 0
M  V30 3561 O 341.619 -0.373154 -1.74556 0
M  V30 3562 C 338.719 -0.804268 -3.29218 0
M  V30 3563 C 337.892 -1.96376 -3.90839 0
M  V30 3564 C 336.951 -1.55806 -5.02604 0
M  V30 3565 O 335.977 -2.27203 -5.21888 0
M  V30 3566 N 337.179 -0.461609 -5.78662 0
M  V30 3567 H 339.944 -2.15326 -2.08458 0
M  V30 3568 H 337.505 -1.25971 -1.017 0
M  V30 3569 H 339.497 -0.51501 -4.0141 0
M  V30 3570 H 338.067 0.0668809 -3.12528 0
M  V30 3571 H 337.287 -2.41879 -3.11269 0
M  V30 3572 H 338.575 -2.73966 -4.28742 0
M  V30 3573 H 337.973 0.132343 -5.65545 0
M  V30 3574 H 336.53 -0.232013 -6.51387 0
M  V30 3575 N 339.963 1.05934 -1.16686 0
M  V30 3576 C 341.209 1.79065 -0.95203 0
M  V30 3577 C 341.542 1.87147 0.518629 0
M  V30 3578 O 340.817 1.36574 1.38484 0
M  V30 3579 C 341.1 3.23359 -1.58464 0
M  V30 3580 C 340.953 3.23336 -3.12689 0
M  V30 3581 C 342.272 4.21004 -1.28232 0
M  V30 3582 H 339.391 0.65005 -0.34728 0
M  V30 3583 H 342.033 1.23868 -1.44072 0
M  V30 3584 H 340.183 3.70493 -1.16908 0
M  V30 3585 H 341.855 2.84336 -3.6325 0
M  V30 3586 H 340.098 2.61886 -3.4583 0
M  V30 3587 H 340.769 4.25144 -3.52075 0
M  V30 3588 H 343.245 3.8233 -1.64203 0
M  V30 3589 H 342.121 5.20225 -1.75092 0
M  V30 3590 H 342.382 4.41639 -0.201791 0
M  V30 3591 N 341.441 0.965919 1.2453 0
M  V30 3592 C 342.689 0.625593 1.92174 0
M  V30 3593 C 343.01 -0.841652 1.75901 0
M  V30 3594 O 342.28 -1.60061 1.12948 0
M  V30 3595 H 340.86 0.228388 0.71123 0
M  V30 3596 H 343.522 1.2266 1.51461 0
M  V30 3597 H 342.618 0.864653 2.99884 0
M  V30 3598 N 342.919 -1.39368 0.735821 0
M  V30 3599 C 343.852 -2.28155 0.0451175 0
M  V30 3600 C 344.83 -1.44433 -0.746852 0
M  V30 3601 O 346.014 -1.73823 -0.729237 0
M  V30 3602 C 343.141 -3.253 -0.943266 0
M  V30 3603 C 342.187 -4.25826 -0.239685 0
M  V30 3604 S 343.02 -5.25166 1.04693 0
M  V30 3605 C 344.176 -6.2587 0.0611639 0
M  V30 3606 H 344.409 -2.86388 0.79807 0
M  V30 3607 H 341.942 -1.45104 0.527653 0
M  V30 3608 H 343.9 -3.81789 -1.50824 0
M  V30 3609 H 342.561 -2.66085 -1.66906 0
M  V30 3610 H 341.754 -4.94229 -0.987596 0
M  V30 3611 H 341.356 -3.73141 0.253274 0
M  V30 3612 H 343.648 -6.73007 -0.778941 0
M  V30 3613 H 344.591 -7.04508 0.712362 0
M  V30 3614 H 344.999 -5.63639 -0.311602 0
M  V30 3615 N 344.397 -0.483516 -1.5 0
M  V30 3616 C 345.645 0.067027 -2.01989 0
M  V30 3617 C 345.966 1.3909 -1.36671 0
M  V30 3618 O 345.236 1.88978 -0.516152 0
M  V30 3619 H 343.816 0.0277606 -0.746484 0
M  V30 3620 H 346.478 -0.636773 -1.84204 0
M  V30 3621 H 345.574 0.209484 -3.11396 0
M  V30 3622 N 345.875 1.56104 -0.216619 0
M  V30 3623 C 346.823 2.21434 0.712036 0
M  V30 3624 C 347.817 1.19218 1.20348 0
M  V30 3625 O 349.023 1.3731 1.16387 0
M  V30 3626 H 345.398 0.70992 0.248026 0
M  V30 3627 H 347.369 2.98083 0.137558 0
M  V30 3628 C 346.118 2.90434 1.91163 0
M  V30 3629 H 345.441 3.68842 1.54258 0
M  V30 3630 H 346.881 3.39552 2.5393 0
M  V30 3631 C 345.34 1.92635 2.76394 0
M  V30 3632 O 345.87 1.44017 3.74996 0
M  V30 3633 N 344.076 1.60392 2.42328 0
M  V30 3634 H 343.623 2.00122 1.622 0
M  V30 3635 H 343.581 0.952159 2.99635 0
M  V30 3636 N 347.353 -0.0568162 1.57498 0
M  V30 3637 C 348.316 -1.05038 2.03715 0
M  V30 3638 C 349.316 -1.30709 0.936577 0
M  V30 3639 O 350.506 -1.26178 1.20103 0
M  V30 3640 C 347.638 -2.39034 2.43055 0
M  V30 3641 H 348.831 -0.651715 2.92733 0
M  V30 3642 H 346.384 -0.302947 1.53336 0
M  V30 3643 H 347.119 -2.83703 1.57108 0
M  V30 3644 H 346.904 -2.21739 3.2338 0
M  V30 3645 H 348.394 -3.10421 2.79336 0
M  V30 3646 N 348.832 -1.54138 -0.328536 0
M  V30 3647 C 350.109 -1.62749 -1.08499 0
M  V30 3648 C 350.489 -0.458198 -2.06067 0
M  V30 3649 O 349.837 0.548046 -2.2183 0
M  V30 3650 C 350.047 -2.99519 -1.79135 0
M  V30 3651 C 351.395 -3.55394 -2.32337 0
M  V30 3652 O 352.419 -3.01792 -1.89209 0
M  V30 3653 O 351.278 -4.49186 -3.11279 0
M  V30 3654 H 348.372 -0.65886 -0.499832 0
M  V30 3655 H 350.918 -1.66484 -0.328826 0
M  V30 3656 H 349.69 -3.76061 -1.08139 0
M  V30 3657 H 349.313 -2.99441 -2.61574 0
M  V30 3658 N 350.31 0.590341 -1.46126 0
M  V30 3659 C 351.54 1.37304 -1.54373 0
M  V30 3660 C 351.948 1.88332 -0.181071 0
M  V30 3661 O 351.291 1.63852 0.830559 0
M  V30 3662 C 351.353 2.6012 -2.48149 0
M  V30 3663 C 351.017 2.30613 -3.94546 0
M  V30 3664 C 352.014 1.89915 -4.83971 0
M  V30 3665 C 349.699 2.42993 -4.39613 0
M  V30 3666 C 351.693 1.61981 -6.16475 0
M  V30 3667 C 349.38 2.14672 -5.72153 0
M  V30 3668 C 350.378 1.7423 -6.60404 0
M  V30 3669 O 350.066 1.46251 -7.90485 0
M  V30 3670 H 349.798 0.426086 -0.524811 0
M  V30 3671 H 352.352 0.72539 -1.92165 0
M  V30 3672 H 350.582 3.27664 -2.05361 0
M  V30 3673 H 352.271 3.22182 -2.46887 0
M  V30 3674 H 353.037 1.79872 -4.50412 0
M  V30 3675 H 348.916 2.73435 -3.71153 0
M  V30 3676 H 352.46 1.30341 -6.85315 0
M  V30 3677 H 348.357 2.24337 -6.05263 0
M  V30 3678 H 349.125 1.6016 -8.02677 0
M  V30 3679 N 351.788 1.33704 0.83433 0
M  V30 3680 C 353.034 1.25603 1.59222 0
M  V30 3681 C 353.367 -0.176659 1.93395 0
M  V30 3682 O 352.642 -1.11915 1.59076 0
M  V30 3683 C 352.925 2.13576 2.89926 0
M  V30 3684 C 352.778 3.65326 2.62406 0
M  V30 3685 C 354.097 2.01238 3.91397 0
M  V30 3686 H 351.216 0.457613 0.577719 0
M  V30 3687 H 353.858 1.63848 0.961972 0
M  V30 3688 H 352.008 1.8109 3.43713 0
M  V30 3689 H 353.68 4.08124 2.15017 0
M  V30 3690 H 351.923 3.8698 1.96033 0
M  V30 3691 H 352.594 4.22232 3.55562 0
M  V30 3692 H 355.07 2.29738 3.46929 0
M  V30 3693 H 353.946 2.65036 4.80673 0
M  V30 3694 H 354.207 0.985951 4.30966 0
M  V30 3695 N 353.266 -1.05314 1.17247 0
M  V30 3696 C 354.229 -2.112 0.890357 0
M  V30 3697 C 355.229 -1.60359 -0.118943 0
M  V30 3698 O 356.419 -1.73833 0.113086 0
M  V30 3699 C 353.551 -3.39266 0.333422 0
M  V30 3700 H 354.744 -2.37659 1.82916 0
M  V30 3701 H 352.297 -1.21538 0.982758 0
M  V30 3702 H 353.032 -3.18462 -0.612587 0
M  V30 3703 H 352.817 -3.77477 1.06082 0
M  V30 3704 H 354.307 -4.17315 0.154322 0
M  V30 3705 N 354.744 -0.972509 -1.24016 0
M  V30 3706 C 355.707 -0.511403 -2.23422 0
M  V30 3707 C 356.707 0.394679 -1.55881 0
M  V30 3708 O 357.897 0.189469 -1.73167 0
M  V30 3709 C 355.029 0.258769 -3.39916 0
M  V30 3710 H 356.222 -1.39024 -2.6573 0
M  V30 3711 H 353.775 -0.757585 -1.36713 0
M  V30 3712 H 354.51 1.1545 -3.03054 0
M  V30 3713 H 354.295 -0.391522 -3.9014 0
M  V30 3714 H 355.785 0.570244 -4.13688 0
M  V30 3715 N 356.222 1.38976 -0.743202 0
M  V30 3716 C 357.469 2.00343 -0.294752 0
M  V30 3717 C 357.797 1.58983 1.12047 0
M  V30 3718 O 357.052 0.813809 1.77977 0
M  V30 3719 C 357.351 3.55647 -0.353517 0
M  V30 3720 C 357.017 4.16685 -1.72292 0
M  V30 3721 C 355.679 4.3307 -2.09771 0
M  V30 3722 C 358.031 4.50464 -2.62168 0
M  V30 3723 C 355.359 4.80526 -3.36618 0
M  V30 3724 C 357.711 4.99332 -3.88395 0
M  V30 3725 C 356.375 5.13924 -4.25956 0
M  V30 3726 H 355.645 0.733108 -0.107857 0
M  V30 3727 H 358.292 1.6618 -0.951651 0
M  V30 3728 H 356.597 3.89884 0.386954 0
M  V30 3729 H 358.294 4.00998 0.0117269 0
M  V30 3730 H 354.884 4.04339 -1.42155 0
M  V30 3731 H 359.068 4.37416 -2.3448 0
M  V30 3732 H 354.324 4.90008 -3.65653 0
M  V30 3733 H 358.498 5.2444 -4.58187 0
M  V30 3734 H 356.125 5.50457 -5.2431 0
M  V30 3735 N 357.7 0.491464 1.49741 0
M  V30 3736 C 358.63 -0.28154 2.31796 0
M  V30 3737 C 359.611 -0.971473 1.3963 0
M  V30 3738 O 360.796 -0.964719 1.68543 0
M  V30 3739 C 357.926 -1.35203 3.19902 0
M  V30 3740 C 356.88 -0.782529 4.20786 0
M  V30 3741 C 356.206 -1.95283 4.97764 0
M  V30 3742 C 357.506 0.21999 5.21837 0
M  V30 3743 H 359.2 0.403355 2.96671 0
M  V30 3744 H 356.746 0.195425 1.42668 0
M  V30 3745 H 358.699 -1.90045 3.76113 0
M  V30 3746 H 357.423 -2.06598 2.52953 0
M  V30 3747 H 356.082 -0.255928 3.65706 0
M  V30 3748 H 355.73 -2.65423 4.2727 0
M  V30 3749 H 355.43 -1.57789 5.66018 0
M  V30 3750 H 356.954 -2.50577 5.56816 0
M  V30 3751 H 358.368 -0.23996 5.72798 0
M  V30 3752 H 356.765 0.51026 5.97927 0
M  V30 3753 H 357.835 1.13911 4.7133 0
M  V30 3754 N 359.178 -1.55987 0.224894 0
M  V30 3755 C 360.128 -2.17076 -0.697296 0
M  V30 3756 C 361.112 -1.12006 -1.15514 0
M  V30 3757 O 362.304 -1.37985 -1.10857 0
M  V30 3758 C 359.433 -2.85679 -1.90374 0
M  V30 3759 C 358.519 -3.97977 -1.46543 0
M  V30 3760 N 358.91 -5.00359 -0.739909 0
M  V30 3761 C 357.208 -4.10128 -1.75245 0
M  V30 3762 C 357.909 -5.79407 -0.515939 0
M  V30 3763 N 356.885 -5.32892 -1.07364 0
M  V30 3764 H 360.687 -2.93592 -0.134594 0
M  V30 3765 H 358.201 -1.62379 0.0262885 0
M  V30 3766 H 360.198 -3.27857 -2.57518 0
M  V30 3767 H 358.858 -2.1066 -2.47088 0
M  V30 3768 H 359.869 -5.16412 -0.392253 0
M  V30 3769 H 356.546 -3.46263 -2.33255 0
M  V30 3770 H 357.936 -6.71872 0.0617349 0
M  V30 3771 N 360.656 0.0484629 -1.57525 0
M  V30 3772 C 361.586 1.0549 -2.08313 0
M  V30 3773 C 362.567 1.38929 -0.981463 0
M  V30 3774 O 363.752 1.48151 -1.25558 0
M  V30 3775 C 360.882 2.36162 -2.54646 0
M  V30 3776 C 359.836 2.17016 -3.68901 0
M  V30 3777 C 359.162 3.53278 -4.01371 0
M  V30 3778 C 360.462 1.57219 -4.98076 0
M  V30 3779 H 362.156 0.632195 -2.92649 0
M  V30 3780 H 359.702 0.302654 -1.40784 0
M  V30 3781 H 361.655 3.06882 -2.88793 0
M  V30 3782 H 360.379 2.80456 -1.67368 0
M  V30 3783 H 359.038 1.48733 -3.35073 0
M  V30 3784 H 358.686 3.95185 -3.11188 0
M  V30 3785 H 358.386 3.41299 -4.78318 0
M  V30 3786 H 359.91 4.25391 -4.38035 0
M  V30 3787 H 361.324 2.17832 -5.30304 0
M  V30 3788 H 359.721 1.55871 -5.79503 0
M  V30 3789 H 360.791 0.535956 -4.81929 0
M  V30 3790 N 362.134 1.5431 0.320358 0
M  V30 3791 C 363.064 1.86912 1.3995 0
M  V30 3792 C 364.045 0.726211 1.53819 0
M  V30 3793 O 365.23 0.980233 1.67646 0
M  V30 3794 C 362.36 2.09932 2.7667 0
M  V30 3795 C 361.314 3.25776 2.77586 0
M  V30 3796 C 360.64 3.34173 4.17412 0
M  V30 3797 C 361.94 4.6335 2.41048 0
M  V30 3798 H 363.634 2.77292 1.12914 0
M  V30 3799 H 361.18 1.33421 0.541738 0
M  V30 3800 H 363.133 2.31324 3.52232 0
M  V30 3801 H 361.857 1.16304 3.0519 0
M  V30 3802 H 360.516 3.04276 2.04479 0
M  V30 3803 H 360.164 2.38098 4.43078 0
M  V30 3804 H 359.864 4.12033 4.18931 0
M  V30 3805 H 361.388 3.57803 4.94782 0
M  V30 3806 H 362.802 4.84602 3.06324 0
M  V30 3807 H 361.199 5.43782 2.53813 0
M  V30 3808 H 362.269 4.65381 1.36193 0
M  V30 3809 N 363.613 -0.582584 1.46437 0
M  V30 3810 C 364.543 -1.70187 1.59871 0
M  V30 3811 C 365.524 -1.64066 0.449042 0
M  V30 3812 O 366.709 -1.82081 0.6753 0
M  V30 3813 C 363.839 -3.08827 1.58881 0
M  V30 3814 C 362.793 -3.29779 2.72819 0
M  V30 3815 C 362.119 -4.68947 2.5689 0
M  V30 3816 C 363.419 -3.17601 4.1464 0
M  V30 3817 H 365.113 -1.592 2.53566 0
M  V30 3818 H 362.659 -0.764472 1.22032 0
M  V30 3819 H 364.612 -3.86951 1.66873 0
M  V30 3820 H 363.336 -3.20713 0.617306 0
M  V30 3821 H 361.995 -2.54054 2.64296 0
M  V30 3822 H 361.643 -4.77599 1.57823 0
M  V30 3823 H 361.343 -4.83919 3.33312 0
M  V30 3824 H 362.867 -5.4924 2.66773 0
M  V30 3825 H 364.281 -3.8557 4.24274 0
M  V30 3826 H 362.678 -3.44094 4.9165 0
M  V30 3827 H 363.748 -2.14681 4.34788 0
M  V30 3828 N 365.091 -1.34144 -0.827227 0
M  V30 3829 C 366.502 -1.23557 -1.39966 0
M  V30 3830 C 366.853 0.140731 -1.95695 0
M  V30 3831 O 365.978 1.04087 -1.89723 0
M  V30 3832 C 366.573 -2.23708 -2.54441 0
M  V30 3833 C 365.132 -2.16924 -3.07605 0
M  V30 3834 C 364.279 -2.10549 -1.80456 0
M  V30 3835 H 367.23 -1.45573 -0.631991 0
M  V30 3836 H 367.251 -1.85157 -3.32411 0
M  V30 3837 H 366.763 -3.23866 -2.13851 0
M  V30 3838 H 364.864 -1.20107 -3.52711 0
M  V30 3839 H 364.977 -3.07988 -3.66988 0
M  V30 3840 H 363.341 -1.56203 -2.01178 0
M  V30 3841 H 364.124 -3.12535 -1.42046 0
M  V30 3842 N 366.569 1.04691 -1.17803 0
M  V30 3843 C 367.499 2.14494 -0.92275 0
M  V30 3844 C 368.48 1.69546 0.137179 0
M  V30 3845 O 369.665 1.94195 -0.0141108 0
M  V30 3846 C 366.795 3.44491 -0.440803 0
M  V30 3847 C 365.749 4.03031 -1.4405 0
M  V30 3848 C 365.075 5.28432 -0.81631 0
M  V30 3849 C 366.375 4.39932 -2.81527 0
M  V30 3850 H 368.069 2.36107 -1.84103 0
M  V30 3851 H 365.615 1.1347 -0.886599 0
M  V30 3852 H 367.568 4.2066 -0.249602 0
M  V30 3853 H 366.292 3.22546 0.513025 0
M  V30 3854 H 364.951 3.28937 -1.61853 0
M  V30 3855 H 364.599 5.02792 0.144511 0
M  V30 3856 H 364.299 5.68559 -1.48371 0
M  V30 3857 H 365.823 6.07284 -0.635496 0
M  V30 3858 H 367.237 5.07113 -2.67412 0
M  V30 3859 H 365.634 4.9109 -3.44892 0
M  V30 3860 H 366.704 3.50045 -3.35554 0
M  V30 3861 N 368.047 0.979072 1.23499 0
M  V30 3862 C 369.01 0.523244 2.23147 0
M  V30 3863 C 370.01 -0.386406 1.56088 0
M  V30 3864 O 371.2 -0.180283 1.73265 0
M  V30 3865 C 368.332 -0.240739 3.40049 0
M  V30 3866 H 369.525 1.40432 2.64989 0
M  V30 3867 H 367.078 0.764824 1.36309 0
M  V30 3868 H 367.813 -1.13841 3.03662 0
M  V30 3869 H 367.598 0.412207 3.89927 0
M  V30 3870 H 369.088 -0.548297 4.13985 0
M  V30 3871 N 369.525 -1.3858 0.750561 0
M  V30 3872 C 370.772 -2.00184 0.305373 0
M  V30 3873 C 371.1 -1.59575 -1.11203 0
M  V30 3874 O 370.355 -0.823236 -1.77542 0
M  V30 3875 C 370.654 -3.55455 0.372373 0
M  V30 3876 C 370.32 -4.15765 1.745 0
M  V30 3877 C 368.982 -4.31951 2.12065 0
M  V30 3878 C 371.334 -4.49067 2.64553 0
M  V30 3879 C 368.662 -4.78734 3.39162 0
M  V30 3880 C 371.014 -4.97265 3.91038 0
M  V30 3881 C 369.678 -5.11658 4.28676 0
M  V30 3882 H 368.948 -0.732526 0.111744 0
M  V30 3883 H 371.595 -1.65673 0.960451 0
M  V30 3884 H 369.9 -3.90084 -0.366272 0
M  V30 3885 H 371.597 -4.00999 0.00953918 0
M  V30 3886 H 368.187 -4.03579 1.44297 0
M  V30 3887 H 372.371 -4.36166 2.36796 0
M  V30 3888 H 367.627 -4.88062 3.68246 0
M  V30 3889 H 371.801 -5.22003 4.60962 0
M  V30 3890 H 369.428 -5.47668 5.27222 0
M  V30 3891 N 371.003 -0.499398 -1.49478 0
M  V30 3892 C 371.913 0.284489 -2.32869 0
M  V30 3893 C 372.929 0.968885 -1.44529 0
M  V30 3894 O 374.105 0.95062 -1.77553 0
M  V30 3895 C 371.17 1.33594 -3.19928 0
M  V30 3896 C 370.231 0.665149 -4.24116 0
M  V30 3897 C 369.464 1.6665 -5.07014 0
M  V30 3898 O 369.687 2.89618 -4.91404 0
M  V30 3899 O 368.621 1.22271 -5.8935 0
M  V30 3900 H 372.447 -0.39802 -3.01081 0
M  V30 3901 H 370.032 -0.260758 -1.47107 0
M  V30 3902 H 371.914 1.94431 -3.73864 0
M  V30 3903 H 370.589 2.0014 -2.54412 0
M  V30 3904 H 369.496 0.0170769 -3.74096 0
M  V30 3905 H 370.829 0.0421555 -4.92182 0
M  V30 3906 N 372.481 1.55866 -0.233164 0
M  V30 3907 C 373.728 1.98603 0.395374 0
M  V30 3908 C 374.056 1.12105 1.58942 0
M  V30 3909 O 373.311 0.168656 1.94972 0
M  V30 3910 C 373.61 3.46856 0.861724 0
M  V30 3911 C 373.276 4.50348 -0.223066 0
M  V30 3912 C 371.938 4.78371 -0.521038 0
M  V30 3913 C 374.29 5.12355 -0.956124 0
M  V30 3914 C 371.618 5.6568 -1.55638 0
M  V30 3915 C 373.97 6.00786 -1.98089 0
M  V30 3916 C 372.634 6.27148 -2.28565 0
M  V30 3917 H 371.904 0.726739 0.144677 0
M  V30 3918 H 374.551 1.88491 -0.338114 0
M  V30 3919 H 372.856 3.5423 1.67418 0
M  V30 3920 H 374.553 3.77302 1.35809 0
M  V30 3921 H 371.143 4.28596 0.0193234 0
M  V30 3922 H 375.327 4.90765 -0.739166 0
M  V30 3923 H 370.583 5.84365 -1.798 0
M  V30 3924 H 374.757 6.4788 -2.55391 0
M  V30 3925 H 372.384 6.94597 -3.08932 0
M  V30 3926 N 373.959 -0.0401083 1.57549 0
M  V30 3927 C 375.236 -0.767917 1.79896 0
M  V30 3928 C 375.616 -1.9416 0.82856 0
M  V30 3929 O 374.964 -2.2812 -0.131671 0
M  V30 3930 C 375.174 -1.2113 3.27305 0
M  V30 3931 C 376.522 -1.63175 3.91994 0
M  V30 3932 O 377.546 -1.30616 3.31388 0
M  V30 3933 O 376.405 -2.23565 4.98679 0
M  V30 3934 H 373.499 -0.370441 0.739393 0
M  V30 3935 H 376.045 -0.017737 1.69691 0
M  V30 3936 H 374.817 -0.372937 3.89519 0
M  V30 3937 H 374.44 -2.02183 3.42356 0
M  V30 3938 N 375.437 -1.54477 -0.31217 0
M  V30 3939 C 376.848 -1.64344 -0.885891 0
M  V30 3940 C 377.199 -0.54485 -1.88483 0
M  V30 3941 O 376.324 0.320387 -2.14015 0
M  V30 3942 C 376.919 -2.97908 -1.61357 0
M  V30 3943 C 375.478 -3.09933 -2.13585 0
M  V30 3944 C 374.625 -2.59971 -0.964897 0
M  V30 3945 H 377.576 -1.58448 -0.0894528 0
M  V30 3946 H 377.597 -2.88706 -2.47848 0
M  V30 3947 H 377.109 -3.77845 -0.886277 0
M  V30 3948 H 375.21 -2.34694 -2.89395 0
M  V30 3949 H 375.323 -4.15916 -2.37804 0
M  V30 3950 H 373.687 -2.16147 -1.34731 0
M  V30 3951 H 374.47 -3.42376 -0.251742 0
M  V30 3952 N 376.915 0.57481 -1.46744 0
M  V30 3953 C 377.825 1.711 -1.60505 0
M  V30 3954 C 378.841 1.67008 -0.488307 0
M  V30 3955 O 380.017 1.86774 -0.753495 0
M  V30 3956 C 377.082 3.07608 -1.59932 0
M  V30 3957 C 376.143 3.22904 -2.82898 0
M  V30 3958 C 375.376 4.529 -2.82343 0
M  V30 3959 O 375.599 5.37278 -1.91542 0
M  V30 3960 O 374.533 4.71611 -3.73987 0
M  V30 3961 H 378.359 1.62436 -2.56609 0
M  V30 3962 H 375.944 0.742779 -1.29627 0
M  V30 3963 H 377.826 3.88877 -1.62336 0
M  V30 3964 H 376.501 3.16692 -0.669898 0
M  V30 3965 H 375.408 2.41099 -2.86046 0
M  V30 3966 H 376.741 3.18715 -3.75076 0
M  V30 3967 N 378.394 1.34581 0.820102 0
M  V30 3968 C 379.324 1.29038 1.94606 0
M  V30 3969 C 380.305 0.1673 1.69275 0
M  V30 3970 O 381.49 0.360112 1.90832 0
M  V30 3971 C 378.62 1.04793 3.31113 0
M  V30 3972 C 377.574 2.13597 3.70891 0
M  V30 3973 C 376.9 1.74537 5.05412 0
M  V30 3974 C 378.2 3.55451 3.8269 0
M  V30 3975 H 379.894 2.23248 1.99501 0
M  V30 3976 H 377.44 1.0747 0.958449 0
M  V30 3977 H 379.393 0.995592 4.0947 0
M  V30 3978 H 378.117 0.0702565 3.26524 0
M  V30 3979 H 376.776 2.17905 2.9481 0
M  V30 3980 H 376.424 0.754226 4.97313 0
M  V30 3981 H 376.124 2.47361 5.32997 0
M  V30 3982 H 377.648 1.70803 5.86224 0
M  V30 3983 H 379.062 3.5354 4.51312 0
M  V30 3984 H 377.459 4.26922 4.21732 0
M  V30 3985 H 378.529 3.92587 2.84611 0
M  V30 3986 N 379.872 -1.04064 1.18357 0
M  V30 3987 C 381.118 -1.77528 0.980397 0
M  V30 3988 C 381.451 -1.87948 -0.48879 0
M  V30 3989 O 380.726 -1.3876 -1.36293 0
M  V30 3990 C 381.009 -3.20797 1.63588 0
M  V30 3991 C 380.862 -3.1832 3.17793 0
M  V30 3992 C 382.181 -4.18911 1.34914 0
M  V30 3993 H 379.3 -0.644443 0.357578 0
M  V30 3994 H 381.942 -1.2156 1.46024 0
M  V30 3995 H 380.092 -3.68586 1.22788 0
M  V30 3996 H 381.764 -2.78521 3.67728 0
M  V30 3997 H 380.007 -2.56351 3.49952 0
M  V30 3998 H 380.678 -4.19489 3.58794 0
M  V30 3999 H 383.154 -3.7967 1.70265 0
M  V30 4000 H 382.03 -5.17374 1.83346 0
M  V30 4001 H 382.291 -4.41262 0.272027 0
M  V30 4002 N 381.35 -0.985608 -1.22978 0
M  V30 4003 C 382.28 -0.549649 -2.26939 0
M  V30 4004 C 383.261 0.419803 -1.64838 0
M  V30 4005 O 384.446 0.31203 -1.91677 0
M  V30 4006 C 381.576 0.143652 -3.47003 0
M  V30 4007 C 380.53 -0.743606 -4.21491 0
M  V30 4008 C 379.856 0.0822027 -5.34637 0
M  V30 4009 C 381.156 -2.03694 -4.80943 0
M  V30 4010 H 382.85 -1.41862 -2.63658 0
M  V30 4011 H 380.396 -0.683571 -1.26741 0
M  V30 4012 H 382.349 0.459985 -4.18882 0
M  V30 4013 H 381.073 1.04711 -3.09359 0
M  V30 4014 H 379.732 -1.04347 -3.51436 0
M  V30 4015 H 379.38 0.986359 -4.93234 0
M  V30 4016 H 379.08 -0.508377 -5.85397 0
M  V30 4017 H 380.604 0.392797 -6.09335 0
M  V30 4018 H 382.018 -1.78504 -5.44802 0
M  V30 4019 H 380.415 -2.57573 -5.42011 0
M  V30 4020 H 381.485 -2.72042 -4.01399 0
M  V30 4021 N 382.828 1.3818 -0.7579 0
M  V30 4022 C 384.074 2.00316 -0.316453 0
M  V30 4023 C 384.407 1.60026 1.10025 0
M  V30 4024 O 383.682 0.839835 1.75434 0
M  V30 4025 C 383.965 3.57349 -0.444245 0
M  V30 4026 C 383.818 4.07591 -1.90236 0
M  V30 4027 C 385.137 4.3981 0.1598 0
M  V30 4028 H 382.256 0.727741 -0.116459 0
M  V30 4029 H 384.898 1.6406 -0.958352 0
M  V30 4030 H 383.048 3.88365 0.102233 0
M  V30 4031 H 384.72 3.87199 -2.50748 0
M  V30 4032 H 382.963 3.60297 -2.41595 0
M  V30 4033 H 383.634 5.16677 -1.94291 0
M  V30 4034 H 386.11 4.14971 -0.306314 0
M  V30 4035 H 384.986 5.48885 0.0401675 0
M  V30 4036 H 385.247 4.24102 1.24859 0
M  V30 4037 N 384.306 0.507319 1.49211 0
M  V30 4038 C 385.531 -0.033725 2.07373 0
M  V30 4039 C 385.956 -1.29485 1.36437 0
M  V30 4040 O 385.314 -1.76294 0.423087 0
M  V30 4041 C 385.362 -0.263945 3.59633 0
M  V30 4042 O 384.466 -1.33737 3.90113 0
M  V30 4043 H 383.807 0.0290331 0.663365 0
M  V30 4044 H 386.337 0.708749 1.91932 0
M  V30 4045 H 386.347 -0.493536 4.05004 0
M  V30 4046 H 385.022 0.657424 4.10671 0
M  V30 4047 H 383.599 -1.09224 3.56545 0
M  V30 4048 N 385.784 -1.5574 0.241426 0
M  V30 4049 C 386.747 -2.19877 -0.647063 0
M  V30 4050 C 387.747 -1.16642 -1.10686 0
M  V30 4051 O 388.937 -1.41757 -1.01245 0
M  V30 4052 C 386.069 -2.83797 -1.88871 0
M  V30 4053 H 387.262 -2.99772 -0.087574 0
M  V30 4054 H 384.815 -1.56298 -0.00813574 0
M  V30 4055 H 385.55 -2.07824 -2.48957 0
M  V30 4056 H 385.335 -3.59414 -1.56728 0
M  V30 4057 H 386.825 -3.32898 -2.52129 0
M  V30 4058 N 387.262 0.0317525 -1.57568 0
M  V30 4059 C 388.51 0.721676 -1.88776 0
M  V30 4060 C 388.831 1.76039 -0.838772 0
M  V30 4061 O 388.101 1.95482 0.127935 0
M  V30 4062 H 386.681 0.269534 -0.696678 0
M  V30 4063 H 389.343 -0.00165879 -1.949 0
M  V30 4064 H 388.439 1.21293 -2.87566 0
M  V30 4065 N 388.74 1.54641 0.303973 0
M  V30 4066 C 389.987 1.7378 1.03955 0
M  V30 4067 C 390.315 0.521986 1.87365 0
M  V30 4068 O 389.57 -0.496099 1.89308 0
M  V30 4069 C 389.869 2.97753 1.97681 0
M  V30 4070 C 389.535 4.31671 1.30271 0
M  V30 4071 C 388.197 4.68075 1.11619 0
M  V30 4072 C 390.549 5.147 0.82055 0
M  V30 4073 C 387.877 5.8509 0.434304 0
M  V30 4074 C 390.229 6.32416 0.152395 0
M  V30 4075 C 388.893 6.67484 -0.0461067 0
M  V30 4076 H 388.163 0.635908 0.380398 0
M  V30 4077 H 390.81 1.88896 0.314718 0
M  V30 4078 H 389.115 2.77406 2.76682 0
M  V30 4079 H 390.812 3.09756 2.54661 0
M  V30 4080 H 387.402 4.03041 1.45795 0
M  V30 4081 H 391.586 4.87077 0.952374 0
M  V30 4082 H 386.842 6.10806 0.269495 0
M  V30 4083 H 391.016 6.96023 -0.229126 0
M  V30 4084 H 388.643 7.58011 -0.576494 0
M  V30 4085 N 390.218 -0.567019 1.47046 0
M  V30 4086 C 391.495 -1.3276 1.43646 0
M  V30 4087 C 391.875 -2.1071 0.128186 0
M  V30 4088 O 391.223 -2.10441 -0.890326 0
M  V30 4089 C 391.433 -2.2404 2.67595 0
M  V30 4090 C 392.781 -2.85372 3.14401 0
M  V30 4091 O 393.805 -2.34346 2.68254 0
M  V30 4092 O 392.664 -3.78091 3.946 0
M  V30 4093 H 389.758 -0.597293 0.571988 0
M  V30 4094 H 392.304 -0.586735 1.59234 0
M  V30 4095 H 391.076 -1.65975 3.54356 0
M  V30 4096 H 390.699 -3.05439 2.54544 0
M  V30 4097 N 391.696 -1.35014 -0.812953 0
M  V30 4098 C 392.921 -1.31187 -1.60639 0
M  V30 4099 C 393.346 0.109382 -1.87782 0
M  V30 4100 O 392.704 1.07424 -1.46047 0
M  V30 4101 C 392.752 -2.11809 -2.91838 0
M  V30 4102 O 391.856 -1.49444 -3.8437 0
M  V30 4103 H 391.197 -0.450084 -0.488181 0
M  V30 4104 H 393.727 -1.77963 -1.00947 0
M  V30 4105 H 393.737 -2.23531 -3.41318 0
M  V30 4106 H 392.412 -3.15137 -2.71407 0
M  V30 4107 H 390.989 -1.46524 -3.42907 0
M  V30 4108 N 393.175 1.03435 -1.18907 0
M  V30 4109 C 394.138 2.09756 -0.923844 0
M  V30 4110 C 395.138 1.60528 0.093416 0
M  V30 4111 O 396.328 1.73631 -0.140727 0
M  V30 4112 C 393.46 3.38692 -0.387354 0
M  V30 4113 H 394.653 2.34719 -1.86674 0
M  V30 4114 H 392.206 1.19959 -1.00197 0
M  V30 4115 H 392.941 3.19396 0.561845 0
M  V30 4116 H 392.726 3.75742 -1.12074 0
M  V30 4117 H 394.216 4.17016 -0.220694 0
M  V30 4118 N 394.653 0.992116 1.22453 0
M  V30 4119 C 395.902 0.662992 1.90492 0
M  V30 4120 C 396.215 -0.808407 1.78113 0
M  V30 4121 O 397.421 -1.24908 2.41061 0
M  V30 4122 C 395.877 1.1353 3.41524 0
M  V30 4123 C 395.485 2.63187 3.62542 0
M  V30 4124 C 397.229 0.880465 4.15269 0
M  V30 4125 C 395.136 3.04024 5.0727 0
M  V30 4126 H 394.066 0.244278 0.713333 0
M  V30 4127 H 396.717 1.20157 1.38688 0
M  V30 4128 H 395.099 0.52485 3.92506 0
M  V30 4129 H 396.273 3.2957 3.22056 0
M  V30 4130 H 394.588 2.86543 3.02129 0
M  V30 4131 H 397.185 1.16128 5.21937 0
M  V30 4132 H 397.528 -0.183408 4.15896 0
M  V30 4133 H 398.061 1.45307 3.70312 0
M  V30 4134 H 394.8 4.09584 5.11782 0
M  V30 4135 H 394.32 2.42343 5.48662 0
M  V30 4136 H 395.999 2.95282 5.75689 0
M  V30 4137 N 396.131 -1.37776 0.765217 0
M  V30 4138 C 397.379 -1.99454 0.325943 0
M  V30 4139 C 397.7 -1.61049 -1.09947 0
M  V30 4140 O 396.97 -0.872821 -1.75381 0
M  V30 4141 H 395.55 -0.737697 0.117525 0
M  V30 4142 H 398.212 -1.68359 0.981895 0
M  V30 4143 H 397.308 -3.09547 0.398353 0
M  V30 4144 N 397.609 -0.515225 -1.4894 0
M  V30 4145 C 398.886 0.0879088 -1.95402 0
M  V30 4146 C 399.266 1.52745 -1.45712 0
M  V30 4147 O 398.614 2.18238 -0.677093 0
M  V30 4148 C 398.824 -0.0141055 -3.48997 0
M  V30 4149 C 400.172 0.152646 -4.24326 0
M  V30 4150 O 401.196 0.0604025 -3.56149 0
M  V30 4151 O 400.055 0.34384 -5.45417 0
M  V30 4152 H 397.149 0.0874636 -0.822362 0
M  V30 4153 H 399.695 -0.578775 -1.59525 0
M  V30 4154 H 398.467 -1.01745 -3.77841 0
M  V30 4155 H 398.09 0.692091 -3.9153 0
M  V30 4156 N 399.087 1.5561 -0.249682 0
M  V30 4157 C 400.498 1.84979 0.252949 0
M  V30 4158 C 400.849 1.17153 1.57384 0
M  V30 4159 O 399.974 0.450884 2.11651 0
M  V30 4160 C 400.569 3.35584 0.465732 0
M  V30 4161 C 399.128 3.65169 0.912624 0
M  V30 4162 C 398.275 2.77299 -0.00859085 0
M  V30 4163 H 401.226 1.51513 -0.47217 0
M  V30 4164 H 401.247 3.57313 1.30795 0
M  V30 4165 H 400.759 3.8492 -0.49579 0
M  V30 4166 H 398.86 3.21312 1.88652 0
M  V30 4167 H 398.973 4.72912 0.767559 0
M  V30 4168 H 397.337 2.49678 0.50327 0
M  V30 4169 H 398.12 3.29442 -0.965537 0
M  V30 4170 N 400.565 -0.0233959 1.57583 0
M  V30 4171 C 401.475 -1.03907 2.10334 0
M  V30 4172 C 402.491 -1.39257 1.04323 0
M  V30 4173 O 403.667 -1.48462 1.36091 0
M  V30 4174 C 400.732 -2.31938 2.57693 0
M  V30 4175 C 399.793 -2.03117 3.78209 0
M  V30 4176 C 399.026 -3.25043 4.233 0
M  V30 4177 O 399.249 -4.35916 3.67876 0
M  V30 4178 O 398.183 -3.10411 5.15683 0
M  V30 4179 H 402.009 -0.620748 2.97288 0
M  V30 4180 H 399.594 -0.240743 1.47448 0
M  V30 4181 H 401.476 -3.07196 2.88458 0
M  V30 4182 H 400.151 -2.73055 1.73847 0
M  V30 4183 H 399.058 -1.25408 3.52454 0
M  V30 4184 H 400.391 -1.66852 4.63056 0
M  V30 4185 N 402.043 -1.548 -0.295768 0
M  V30 4186 C 403.291 -1.73985 -1.02828 0
M  V30 4187 C 403.612 -0.531406 -1.87619 0
M  V30 4188 O 402.882 0.454221 -1.90561 0
M  V30 4189 H 401.462 -0.641556 -0.382642 0
M  V30 4190 H 404.124 -1.92163 -0.325489 0
M  V30 4191 H 403.22 -2.63129 -1.67838 0
M  V30 4192 N 403.521 0.559213 -1.47345 0
M  V30 4193 C 404.453 1.68161 -1.55738 0
M  V30 4194 C 405.466 1.56636 -0.443744 0
M  V30 4195 O 406.655 1.6363 -0.713258 0
M  V30 4196 C 403.755 3.06611 -1.4437 0
M  V30 4197 C 402.928 3.4391 -2.70268 0
M  V30 4198 C 401.987 4.61515 -2.52765 0
M  V30 4199 O 401.013 4.66197 -3.26572 0
M  V30 4200 N 402.215 5.57883 -1.6046 0
M  V30 4201 H 404.98 1.61408 -2.52522 0
M  V30 4202 H 402.541 0.7458 -1.43699 0
M  V30 4203 H 404.533 3.83117 -1.30398 0
M  V30 4204 H 403.103 3.07602 -0.556766 0
M  V30 4205 H 402.323 2.56873 -2.99015 0
M  V30 4206 H 403.611 3.65605 -3.53851 0
M  V30 4207 H 403.009 5.56855 -0.996422 0
M  V30 4208 H 401.566 6.33723 -1.52441 0
M  V30 4209 N 404.999 1.35443 0.805782 0
M  V30 4210 C 405.932 1.22783 1.92353 0
M  V30 4211 C 406.91 0.115543 1.62189 0
M  V30 4212 O 408.094 0.283778 1.86352 0
M  V30 4213 C 405.221 0.890746 3.26777 0
M  V30 4214 C 404.267 2.01519 3.75889 0
M  V30 4215 S 405.1 3.63101 3.93596 0
M  V30 4216 C 406.256 3.31472 5.30921 0
M  V30 4217 H 406.489 2.17394 2.02798 0
M  V30 4218 H 404.022 1.20669 0.963245 0
M  V30 4219 H 405.98 0.703068 4.04434 0
M  V30 4220 H 404.641 -0.0373152 3.14078 0
M  V30 4221 H 403.834 1.7335 4.7325 0
M  V30 4222 H 403.436 2.16124 3.05231 0
M  V30 4223 H 405.728 2.8435 6.1494 0
M  V30 4224 H 406.671 4.28036 5.64084 0
M  V30 4225 H 407.079 2.67221 4.97246 0
M  V30 4226 N 406.477 -1.02803 1.19454 0
M  V30 4227 C 407.409 -2.11181 0.890807 0
M  V30 4228 C 408.422 -1.6238 -0.116829 0
M  V30 4229 O 409.611 -1.78144 0.112694 0
M  V30 4230 C 406.711 -3.37461 0.311942 0
M  V30 4231 C 405.884 -4.15446 1.36834 0
M  V30 4232 C 404.943 -5.20039 0.802864 0
M  V30 4233 O 403.969 -5.49602 1.48077 0
M  V30 4234 N 405.171 -5.79165 -0.393417 0
M  V30 4235 H 407.936 -2.37827 1.82369 0
M  V30 4236 H 405.497 -1.19101 1.09666 0
M  V30 4237 H 407.489 -4.0462 -0.0802225 0
M  V30 4238 H 406.059 -3.08156 -0.52524 0
M  V30 4239 H 405.279 -3.43423 1.93531 0
M  V30 4240 H 406.567 -4.64335 2.08015 0
M  V30 4241 H 405.965 -5.57466 -0.961658 0
M  V30 4242 H 404.522 -6.47729 -0.727351 0
M  V30 4243 N 407.956 -0.998596 -1.21925 0
M  V30 4244 C 408.919 -0.558679 -2.22287 0
M  V30 4245 C 409.919 0.361525 -1.56683 0
M  V30 4246 O 411.109 0.152695 -1.73529 0
M  V30 4247 C 408.241 0.18661 -3.40389 0
M  V30 4248 H 409.434 -1.4463 -2.62721 0
M  V30 4249 H 406.987 -0.786413 -1.35075 0
M  V30 4250 H 407.722 1.08996 -3.05435 0
M  V30 4251 H 407.507 -0.474188 -3.89222 0
M  V30 4252 H 408.997 0.482367 -4.14805 0
M  V30 4253 N 409.434 1.37368 -0.772513 0
M  V30 4254 C 410.662 2.03942 -0.348588 0
M  V30 4255 C 411.077 1.58264 1.02947 0
M  V30 4256 O 410.434 0.764246 1.65727 0
M  V30 4257 C 410.485 3.5946 -0.38351 0
M  V30 4258 O 410.206 4.03468 -1.70721 0
M  V30 4259 C 411.707 4.4327 0.0519152 0
M  V30 4260 H 408.927 0.654931 -0.145966 0
M  V30 4261 H 411.471 1.75686 -1.04665 0
M  V30 4262 H 409.626 3.86486 0.265978 0
M  V30 4263 H 410.04 4.97991 -1.64636 0
M  V30 4264 H 411.514 5.51995 -0.0236733 0
M  V30 4265 H 411.991 4.2514 1.10238 0
M  V30 4266 H 412.597 4.21471 -0.569415 0
M  V30 4267 N 410.912 0.523116 1.48665 0
M  V30 4268 C 412.323 0.0808997 1.86525 0
M  V30 4269 C 412.674 -1.33975 1.43336 0
M  V30 4270 O 411.799 -2.00221 0.821009 0
M  V30 4271 C 412.394 0.140037 3.3851 0
M  V30 4272 C 410.953 -0.246948 3.75589 0
M  V30 4273 C 410.1 0.502845 2.72703 0
M  V30 4274 H 413.051 0.734736 1.40667 0
M  V30 4275 H 413.072 -0.649945 3.74908 0
M  V30 4276 H 412.584 1.17412 3.69914 0
M  V30 4277 H 410.685 -1.28343 3.49798 0
M  V30 4278 H 410.798 0.0878859 4.79019 0
M  V30 4279 H 409.162 -0.0500581 2.54651 0
M  V30 4280 H 409.945 1.53743 3.0695 0
M  V30 4281 N 412.39 -1.55475 0.257931 0
M  V30 4282 C 413.3 -2.2549 -0.647425 0
M  V30 4283 C 414.316 -1.2748 -1.18427 0
M  V30 4284 O 415.492 -1.6038 -1.2182 0
M  V30 4285 C 412.557 -2.94916 -1.82278 0
M  V30 4286 C 411.618 -4.08363 -1.32432 0
M  V30 4287 C 410.851 -4.74469 -2.44366 0
M  V30 4288 O 411.074 -4.39701 -3.63344 0
M  V30 4289 O 410.008 -5.62763 -2.13497 0
M  V30 4290 H 413.834 -3.03593 -0.0807707 0
M  V30 4291 H 411.419 -1.49377 0.0259962 0
M  V30 4292 H 413.301 -3.38606 -2.50846 0
M  V30 4293 H 411.976 -2.19744 -2.37685 0
M  V30 4294 H 410.883 -3.69166 -0.605605 0
M  V30 4295 H 412.216 -4.85385 -0.816211 0
M  V30 4296 N 413.868 0.0150385 -1.57593 0
M  V30 4297 C 415.108 0.70768 -1.91758 0
M  V30 4298 C 415.472 1.71764 -0.857974 0
M  V30 4299 O 416.673 2.45956 -1.0844 0
M  V30 4300 C 414.944 1.34736 -3.3103 0
M  V30 4301 S 416.503 2.06721 -3.87056 0
M  V30 4302 H 413.321 0.234119 -0.671349 0
M  V30 4303 H 415.923 -0.0380373 -1.95463 0
M  V30 4304 H 414.627 0.59926 -4.06001 0
M  V30 4305 H 414.158 2.13133 -3.30663 0
M  V30 4306 H 416.173 3.34047 -3.66915 0
M  V30 4307 N 415.346 1.54954 0.287554 0
M  V30 4308 C 416.593 1.74873 1.02106 0
M  V30 4309 C 416.921 0.541829 1.86801 0
M  V30 4310 O 416.176 -0.475992 1.89823 0
M  V30 4311 C 416.475 2.99833 1.94512 0
M  V30 4312 C 416.141 4.33029 1.25686 0
M  V30 4313 C 414.803 4.69233 1.06649 0
M  V30 4314 C 417.155 5.15542 0.765913 0
M  V30 4315 C 414.483 5.85518 0.372222 0
M  V30 4316 C 416.835 6.32542 0.0853101 0
M  V30 4317 C 415.499 6.67398 -0.1169 0
M  V30 4318 H 414.769 0.639906 0.373632 0
M  V30 4319 H 417.416 1.89219 0.294665 0
M  V30 4320 H 415.721 2.80325 2.73725 0
M  V30 4321 H 417.418 3.1244 2.51361 0
M  V30 4322 H 414.008 4.04564 1.41512 0
M  V30 4323 H 418.192 4.88059 0.90066 0
M  V30 4324 H 413.448 6.11057 0.204695 0
M  V30 4325 H 417.622 6.95741 -0.302936 0
M  V30 4326 H 415.249 7.57357 -0.656859 0
M  V30 4327 N 416.824 -0.551391 1.4764 0
M  V30 4328 C 417.787 -1.64007 1.60107 0
M  V30 4329 C 418.787 -1.53601 0.47576 0
M  V30 4330 O 419.977 -1.57655 0.740988 0
M  V30 4331 C 417.109 -3.03569 1.55108 0
M  V30 4332 H 418.302 -1.543 2.57161 0
M  V30 4333 H 415.855 -0.771776 1.35917 0
M  V30 4334 H 416.59 -3.18804 0.594519 0
M  V30 4335 H 416.375 -3.12532 2.36783 0
M  V30 4336 H 417.865 -3.82762 1.66982 0
M  V30 4337 N 418.302 -1.35869 -0.798587 0
M  V30 4338 C 419.252 -1.25982 -1.90033 0
M  V30 4339 C 420.236 -0.153303 -1.60168 0
M  V30 4340 O 421.428 -0.38527 -1.72756 0
M  V30 4341 C 418.557 -1.04211 -3.27101 0
M  V30 4342 C 417.643 -2.19289 -3.63006 0
M  V30 4343 N 418.034 -3.44559 -3.70287 0
M  V30 4344 C 416.332 -2.10852 -3.93011 0
M  V30 4345 C 417.033 -4.20283 -4.02166 0
M  V30 4346 N 416.009 -3.49124 -4.16669 0
M  V30 4347 H 419.811 -2.20883 -1.93876 0
M  V30 4348 H 417.325 -1.28457 -0.993614 0
M  V30 4349 H 419.322 -0.952155 -4.05881 0
M  V30 4350 H 417.982 -0.102013 -3.2454 0
M  V30 4351 H 418.993 -3.7881 -3.53162 0
M  V30 4352 H 415.67 -1.24744 -3.98428 0
M  V30 4353 H 417.06 -5.28575 -4.14799 0
M  V30 4354 N 419.78 1.02168 -1.19998 0
M  V30 4355 C 420.71 2.12488 -0.96804 0
M  V30 4356 C 421.691 1.69799 0.101185 0
M  V30 4357 O 422.876 1.94121 -0.0552993 0
M  V30 4358 C 420.006 3.43479 -0.513776 0
M  V30 4359 C 418.96 3.99884 -1.52566 0
M  V30 4360 C 418.286 5.26582 -0.928214 0
M  V30 4361 C 419.586 4.33861 -2.90795 0
M  V30 4362 H 421.28 2.32149 -1.89069 0
M  V30 4363 H 418.826 1.11564 -0.910468 0
M  V30 4364 H 420.779 4.20036 -0.338774 0
M  V30 4365 H 419.503 3.23561 0.444493 0
M  V30 4366 H 418.162 3.25429 -1.68794 0
M  V30 4367 H 417.81 5.02986 0.0378289 0
M  V30 4368 H 417.51 5.65284 -1.60397 0
M  V30 4369 H 419.034 6.05799 -0.764167 0
M  V30 4370 H 420.448 5.01327 -2.78109 0
M  V30 4371 H 418.845 4.83664 -3.55231 0
M  V30 4372 H 419.915 3.42848 -3.42904 0
M  V30 4373 N 421.258 1.00505 1.21394 0
M  V30 4374 C 422.486 0.706609 1.9446 0
M  V30 4375 C 422.901 -0.73081 1.74082 0
M  V30 4376 O 422.258 -1.49446 1.04747 0
M  V30 4377 C 422.309 1.01824 3.46863 0
M  V30 4378 O 422.03 2.39919 3.66566 0
M  V30 4379 C 423.531 0.739216 4.37093 0
M  V30 4380 H 420.751 0.260394 0.618414 0
M  V30 4381 H 423.295 1.34311 1.54211 0
M  V30 4382 H 421.45 0.427343 3.85036 0
M  V30 4383 H 421.864 2.50784 4.6066 0
M  V30 4384 H 423.338 1.00744 5.42729 0
M  V30 4385 H 423.815 -0.326746 4.37983 0
M  V30 4386 H 424.421 1.31173 4.04566 0
M  V30 4387 N 422.737 -1.36956 0.779787 0
M  V30 4388 C 423.669 -2.28833 0.129639 0
M  V30 4389 C 424.682 -1.4902 -0.655511 0
M  V30 4390 O 425.871 -1.71578 -0.492279 0
M  V30 4391 C 422.971 -3.2833 -0.839792 0
M  V30 4392 C 422.144 -4.3727 -0.10675 0
M  V30 4393 C 421.203 -5.16789 -0.990717 0
M  V30 4394 O 420.229 -5.67406 -0.451516 0
M  V30 4395 N 421.431 -5.32294 -2.3161 0
M  V30 4396 H 424.196 -2.85268 0.918803 0
M  V30 4397 H 421.757 -1.49019 0.632841 0
M  V30 4398 H 423.749 -3.78413 -1.43477 0
M  V30 4399 H 422.319 -2.72605 -1.52988 0
M  V30 4400 H 421.539 -3.88478 0.669216 0
M  V30 4401 H 422.827 -5.07229 0.399464 0
M  V30 4402 H 422.225 -4.92768 -2.77843 0
M  V30 4403 H 420.782 -5.85656 -2.86095 0
M  V30 4404 N 424.215 -0.530993 -1.48385 0
M  V30 4405 C 425.145 0.219985 -2.32461 0
M  V30 4406 C 426.126 0.934111 -1.42156 0
M  V30 4407 O 427.311 0.919694 -1.71042 0
M  V30 4408 C 424.441 1.26674 -3.23375 0
M  V30 4409 C 423.395 0.67069 -4.22712 0
M  V30 4410 C 422.721 1.82017 -5.02766 0
M  V30 4411 C 424.021 -0.358268 -5.2107 0
M  V30 4412 H 425.715 -0.48187 -2.95497 0
M  V30 4413 H 423.261 -0.233182 -1.42099 0
M  V30 4414 H 425.214 1.80006 -3.81019 0
M  V30 4415 H 423.938 1.99818 -2.58341 0
M  V30 4416 H 422.597 0.158878 -3.66256 0
M  V30 4417 H 422.245 2.54002 -4.34157 0
M  V30 4418 H 421.945 1.42727 -5.70003 0
M  V30 4419 H 423.469 2.35725 -5.63264 0
M  V30 4420 H 424.883 0.0880081 -5.73232 0
M  V30 4421 H 423.28 -0.66861 -5.96364 0
M  V30 4422 H 424.35 -1.26367 -4.68145 0
M  V30 4423 N 425.693 1.55336 -0.266172 0
M  V30 4424 C 426.623 2.25146 0.618981 0
M  V30 4425 C 427.604 1.23845 1.16604 0
M  V30 4426 O 428.789 1.52544 1.20183 0
M  V30 4427 C 425.919 2.96572 1.80728 0
M  V30 4428 C 424.873 4.04726 1.39215 0
M  V30 4429 C 424.199 4.63678 2.66283 0
M  V30 4430 C 425.499 5.19407 0.548942 0
M  V30 4431 H 427.193 2.99377 0.0368116 0
M  V30 4432 H 424.739 1.43991 0.0162651 0
M  V30 4433 H 426.692 3.44116 2.43232 0
M  V30 4434 H 425.416 2.19861 2.41514 0
M  V30 4435 H 424.075 3.57979 0.790351 0
M  V30 4436 H 423.723 3.83646 3.25308 0
M  V30 4437 H 423.423 5.367 2.39222 0
M  V30 4438 H 424.947 5.13967 3.29651 0
M  V30 4439 H 426.361 5.63059 1.07876 0
M  V30 4440 H 424.758 5.98936 0.373593 0
M  V30 4441 H 425.828 4.8295 -0.434394 0
M  V30 4442 N 427.171 -0.0066808 1.57599 0
M  V30 4443 C 428.103 -1.02827 2.04839 0
M  V30 4444 C 429.116 -1.31108 0.965113 0
M  V30 4445 O 430.305 -1.28202 1.24203 0
M  V30 4446 C 427.405 -2.36464 2.42771 0
M  V30 4447 C 426.578 -2.27219 3.73751 0
M  V30 4448 C 425.637 -3.43489 3.98625 0
M  V30 4449 O 424.663 -3.21976 4.69382 0
M  V30 4450 N 425.865 -4.66116 3.46 0
M  V30 4451 H 428.63 -0.625455 2.93101 0
M  V30 4452 H 426.191 -0.194198 1.60731 0
M  V30 4453 H 428.183 -3.13008 2.56531 0
M  V30 4454 H 426.753 -2.68512 1.60063 0
M  V30 4455 H 425.973 -1.35629 3.70133 0
M  V30 4456 H 427.261 -2.18208 4.59633 0
M  V30 4457 H 426.659 -4.86493 2.88688 0
M  V30 4458 H 425.216 -5.39949 3.65101 0
M  V30 4459 N 428.649 -1.55105 -0.279332 0
M  V30 4460 C 429.895 -1.75672 -1.01327 0
M  V30 4461 C 430.228 -0.552739 -1.86168 0
M  V30 4462 O 429.503 0.449827 -1.89227 0
M  V30 4463 C 429.786 -3.05825 -1.90114 0
M  V30 4464 C 429.639 -4.36565 -1.08309 0
M  V30 4465 C 430.958 -3.31975 -2.8893 0
M  V30 4466 H 428.077 -0.639149 -0.366957 0
M  V30 4467 H 430.719 -1.87833 -0.286154 0
M  V30 4468 H 428.869 -2.95588 -2.52111 0
M  V30 4469 H 430.541 -4.58751 -0.484314 0
M  V30 4470 H 428.784 -4.32076 -0.386362 0
M  V30 4471 H 429.455 -5.23946 -1.73737 0
M  V30 4472 H 431.931 -3.41963 -2.37067 0
M  V30 4473 H 430.807 -4.2432 -3.48201 0
M  V30 4474 H 431.068 -2.51309 -3.63725 0
M  V30 4475 N 430.127 0.543554 -1.4793 0
M  V30 4476 C 431.057 1.65888 -1.64327 0
M  V30 4477 C 432.038 1.62818 -0.492383 0
M  V30 4478 O 433.223 1.80226 -0.723338 0
M  V30 4479 C 430.353 3.04506 -1.67013 0
M  V30 4480 C 429.307 3.2243 -2.81466 0
M  V30 4481 C 428.633 4.61972 -2.69233 0
M  V30 4482 C 429.933 3.06496 -4.22915 0
M  V30 4483 H 431.627 1.52421 -2.57698 0
M  V30 4484 H 429.173 0.731849 -1.24016 0
M  V30 4485 H 431.126 3.82391 -1.77074 0
M  V30 4486 H 429.85 3.18964 -0.70212 0
M  V30 4487 H 428.509 2.46957 -2.70938 0
M  V30 4488 H 428.157 4.73247 -1.7043 0
M  V30 4489 H 427.857 4.74911 -3.46025 0
M  V30 4490 H 429.381 5.41974 -2.81242 0
M  V30 4491 H 430.795 3.74186 -4.34348 0
M  V30 4492 H 429.192 3.30938 -5.006 0
M  V30 4493 H 430.262 2.03077 -4.40327 0
M  V30 4494 N 431.605 1.3629 0.791371 0
M  V30 4495 C 432.568 1.30309 1.88553 0
M  V30 4496 C 433.568 0.211204 1.59407 0
M  V30 4497 O 434.758 0.465865 1.67855 0
M  V30 4498 C 431.89 1.01956 3.25297 0
M  V30 4499 H 433.083 2.27614 1.95273 0
M  V30 4500 H 430.636 1.21035 0.988953 0
M  V30 4501 H 431.371 0.050998 3.2426 0
M  V30 4502 H 431.156 1.80968 3.4784 0
M  V30 4503 H 432.646 1.0037 4.05359 0
M  V30 4504 N 433.083 -1.0153 1.20538 0
M  V30 4505 C 434.331 -1.74803 1.01432 0
M  V30 4506 C 434.652 -1.8963 -0.454456 0
M  V30 4507 O 433.922 -1.43975 -1.32846 0
M  V30 4508 H 432.502 -0.647598 0.372324 0
M  V30 4509 H 435.164 -1.22402 1.5167 0
M  V30 4510 H 434.26 -2.75114 1.47373 0
M  V30 4511 N 434.561 -1.01147 -1.20859 0
M  V30 4512 C 435.809 -0.696486 -1.89719 0
M  V30 4513 C 436.13 0.775788 -1.78904 0
M  V30 4514 O 435.4 1.55759 -1.18811 0
M  V30 4515 H 433.98 -0.254628 -0.702263 0
M  V30 4516 H 436.642 -1.28197 -1.46804 0
M  V30 4517 H 435.738 -0.975357 -2.96468 0
M  V30 4518 N 436.039 1.36541 -0.78704 0
M  V30 4519 C 437.455 1.52571 -0.46844 0
M  V30 4520 C 437.655 1.7415 1.01361 0
M  V30 4521 O 436.711 1.77163 1.79915 0
M  V30 4522 C 438.024 2.71299 -1.29682 0
M  V30 4523 C 439.572 2.85169 -1.29027 0
M  V30 4524 C 440.047 4.06898 -2.10233 0
M  V30 4525 N 441.538 4.1404 -2.07666 0
M  V30 4526 C 442.273 5.07301 -2.67271 0
M  V30 4527 N 441.769 6.06021 -3.35724 0
M  V30 4528 N 443.562 4.99898 -2.57018 0
M  V30 4529 H 435.713 1.20788 -1.74711 0
M  V30 4530 H 437.976 0.589364 -0.742532 0
M  V30 4531 H 437.682 2.61868 -2.34773 0
M  V30 4532 H 437.556 3.6539 -0.936479 0
M  V30 4533 H 439.943 2.94062 -0.247284 0
M  V30 4534 H 440.024 1.91992 -1.69035 0
M  V30 4535 H 439.668 3.98766 -3.1456 0
M  V30 4536 H 439.598 4.99218 -1.67597 0
M  V30 4537 H 442.089 3.43357 -1.57843 0
M  V30 4538 H 442.402 6.73741 -3.78541 0
M  V30 4539 H 440.747 6.06253 -3.39826 0
M  V30 4540 H 443.938 4.21724 -2.03142 0
M  V30 4541 H 444.111 5.72392 -3.03761 0
M  V30 4542 N 437.518 0.538854 1.48102 0
M  V30 4543 C 438.764 0.00801365 2.02798 0
M  V30 4544 C 439.097 -1.3309 1.41424 0
M  V30 4545 O 438.372 -1.86169 0.563158 0
M  V30 4546 C 438.655 -0.104589 3.59948 0
M  V30 4547 C 438.508 1.26012 4.31788 0
M  V30 4548 C 439.827 -0.827055 4.32259 0
M  V30 4549 H 436.946 0.00438624 0.736987 0
M  V30 4550 H 439.588 0.6976 1.7673 0
M  V30 4551 H 437.738 -0.691893 3.82289 0
M  V30 4552 H 439.41 1.88922 4.2084 0
M  V30 4553 H 437.653 1.83968 3.92859 0
M  V30 4554 H 438.324 1.13424 5.40221 0
M  V30 4555 H 440.8 -0.328578 4.14801 0
M  V30 4556 H 439.676 -0.87476 5.41885 0
M  V30 4557 H 439.937 -1.87927 4.0017 0
M  V30 4558 N 438.996 -1.55193 0.274407 0
M  V30 4559 C 440.236 -2.01488 -0.343778 0
M  V30 4560 C 440.6 -1.1586 -1.53103 0
M  V30 4561 O 441.801 -1.51732 -2.2188 0
M  V30 4562 C 440.072 -3.50134 -0.717021 0
M  V30 4563 S 441.631 -4.18417 -1.32184 0
M  V30 4564 H 438.449 -0.70291 -0.106948 0
M  V30 4565 H 441.051 -1.91446 0.396075 0
M  V30 4566 H 439.755 -4.10104 0.155947 0
M  V30 4567 H 439.286 -3.64159 -1.48835 0
M  V30 4568 H 441.301 -4.21984 -2.61044 0
M  V30 4569 N 440.474 -0.00167713 -1.576 0
M  V30 4570 C 441.437 0.974046 -2.07473 0
M  V30 4571 C 442.437 1.27143 -0.984444 0
M  V30 4572 O 443.627 1.21633 -1.24703 0
M  V30 4573 C 440.759 2.29849 -2.51759 0
M  V30 4574 H 441.952 0.54262 -2.9495 0
M  V30 4575 H 439.505 0.245829 -1.54355 0
M  V30 4576 H 440.24 2.77677 -1.67529 0
M  V30 4577 H 440.025 2.09584 -3.31386 0
M  V30 4578 H 441.515 2.9984 -2.90664 0
M  V30 4579 N 441.952 1.55251 0.271103 0
M  V30 4580 C 443.198 1.76207 1.00394 0
M  V30 4581 C 443.531 0.562604 1.85872 0
M  V30 4582 O 442.806 -0.439785 1.89463 0
M  V30 4583 C 443.089 3.06828 1.8849 0
M  V30 4584 C 442.942 4.37134 1.05992 0
M  V30 4585 C 444.261 3.33503 2.87165 0
M  V30 4586 H 441.38 0.641086 0.363562 0
M  V30 4587 H 444.022 1.87982 0.276189 0
M  V30 4588 H 442.172 2.96921 2.5054 0
M  V30 4589 H 443.844 4.59001 0.459978 0
M  V30 4590 H 442.087 4.32275 0.363443 0
M  V30 4591 H 442.758 5.2486 1.70955 0
M  V30 4592 H 445.234 3.43215 2.3525 0
M  V30 4593 H 444.11 4.2616 3.45946 0
M  V30 4594 H 444.371 2.53235 3.62387 0
M  V30 4595 N 443.43 -0.535701 1.48216 0
M  V30 4596 C 444.36 -1.65014 1.65204 0
M  V30 4597 C 445.341 -1.62554 0.501011 0
M  V30 4598 O 446.526 -1.7984 0.732886 0
M  V30 4599 C 443.656 -3.03616 1.68626 0
M  V30 4600 C 442.61 -3.20932 2.83172 0
M  V30 4601 C 441.936 -4.60537 2.71679 0
M  V30 4602 C 443.236 -3.04249 4.24535 0
M  V30 4603 H 444.93 -1.51053 2.58502 0
M  V30 4604 H 442.476 -0.725262 1.24402 0
M  V30 4605 H 444.429 -3.81446 1.79099 0
M  V30 4606 H 443.153 -3.18587 0.719026 0
M  V30 4607 H 441.812 -2.45517 2.72244 0
M  V30 4608 H 441.46 -4.72336 1.72937 0
M  V30 4609 H 441.16 -4.73069 3.48538 0
M  V30 4610 H 442.684 -5.40475 2.84112 0
M  V30 4611 H 444.098 -3.71877 4.36326 0
M  V30 4612 H 442.495 -3.28278 5.02348 0
M  V30 4613 H 443.565 -2.00739 4.41397 0
M  V30 4614 N 444.908 -1.36708 -0.784132 0
M  V30 4615 C 445.818 -1.3363 -1.92822 0
M  V30 4616 C 446.834 -0.237686 -1.72369 0
M  V30 4617 O 448.01 -0.470962 -1.95816 0
M  V30 4618 C 445.075 -1.13011 -3.27764 0
M  V30 4619 C 444.136 -2.32397 -3.60957 0
M  V30 4620 C 443.369 -2.12752 -4.89461 0
M  V30 4621 O 443.592 -1.10541 -5.59586 0
M  V30 4622 O 442.526 -3.00653 -5.21432 0
M  V30 4623 H 446.352 -2.29964 -1.98369 0
M  V30 4624 H 443.937 -1.1731 -0.925136 0
M  V30 4625 H 445.819 -1.03451 -4.08504 0
M  V30 4626 H 444.494 -0.19743 -3.23097 0
M  V30 4627 H 443.401 -2.47527 -2.80502 0
M  V30 4628 H 444.734 -3.2419 -3.70354 0
M  V30 4629 N 446.386 1.0089 -1.21074 0
M  V30 4630 C 447.634 1.74262 -1.02358 0
M  V30 4631 C 447.955 1.89869 0.444393 0
M  V30 4632 O 447.225 1.44677 1.32081 0
M  V30 4633 H 445.805 0.645615 -0.375754 0
M  V30 4634 H 448.467 1.21596 -1.52317 0
M  V30 4635 H 447.563 2.74328 -1.4883 0
M  V30 4636 N 447.864 1.01787 1.20321 0
M  V30 4637 C 449.112 0.706538 1.89347 0
M  V30 4638 C 449.433 -0.766289 1.79313 0
M  V30 4639 O 448.703 -1.55126 1.19635 0
M  V30 4640 H 447.283 0.258348 0.700903 0
M  V30 4641 H 449.945 1.28974 1.46122 0
M  V30 4642 H 449.041 0.991066 2.95946 0
M  V30 4643 N 449.342 -1.36122 0.79427 0
M  V30 4644 C 450.572 -2.03067 0.380437 0
M  V30 4645 C 450.98 -1.60018 -1.00949 0
M  V30 4646 O 450.323 -0.787425 -1.65968 0
M  V30 4647 C 450.385 -3.57587 0.37034 0
M  V30 4648 C 450.049 -4.23855 1.70867 0
M  V30 4649 C 451.046 -4.46404 2.66496 0
M  V30 4650 C 448.731 -4.61229 1.9893 0
M  V30 4651 C 450.725 -5.05412 3.88378 0
M  V30 4652 C 448.412 -5.19953 3.21079 0
M  V30 4653 C 449.41 -5.41985 4.15621 0
M  V30 4654 O 449.098 -5.99475 5.35616 0
M  V30 4655 H 448.83 -0.658168 0.154243 0
M  V30 4656 H 451.384 -1.7498 1.0757 0
M  V30 4657 H 449.614 -3.84814 -0.381444 0
M  V30 4658 H 451.303 -4.05895 -0.0194894 0
M  V30 4659 H 452.069 -4.17921 2.46103 0
M  V30 4660 H 447.948 -4.43402 1.26158 0
M  V30 4661 H 451.492 -5.22524 4.62185 0
M  V30 4662 H 447.389 -5.47862 3.41347 0
M  V30 4663 H 448.157 -6.17937 5.36745 0
M  V30 4664 N 450.82 -0.546701 -1.47814 0
M  V30 4665 C 451.77 0.227042 -2.26867 0
M  V30 4666 C 452.754 0.894844 -1.33721 0
M  V30 4667 O 453.946 0.794887 -1.58147 0
M  V30 4668 C 451.075 1.26299 -3.19223 0
M  V30 4669 C 450.161 0.59913 -4.19847 0
M  V30 4670 N 450.552 -0.324777 -5.04756 0
M  V30 4671 C 448.85 0.854331 -4.37741 0
M  V30 4672 C 449.551 -0.709386 -5.77358 0
M  V30 4673 N 448.527 -0.0666153 -5.43559 0
M  V30 4674 H 452.329 -0.483476 -2.89896 0
M  V30 4675 H 449.843 -0.365893 -1.58224 0
M  V30 4676 H 451.84 1.83116 -3.74532 0
M  V30 4677 H 450.5 1.97471 -2.57751 0
M  V30 4678 H 451.511 -0.698351 -5.1317 0
M  V30 4679 H 448.188 1.55536 -3.87447 0
M  V30 4680 H 449.578 -1.46796 -6.55668 0
M  V30 4681 N 452.299 1.55045 -0.282633 0
M  V30 4682 C 453.229 2.2579 0.595066 0
M  V30 4683 C 454.21 1.25074 1.15284 0
M  V30 4684 O 455.395 1.5381 1.18559 0
M  V30 4685 C 452.525 2.98472 1.77572 0
M  V30 4686 C 451.479 4.0618 1.34914 0
M  V30 4687 C 450.805 4.66477 2.6135 0
M  V30 4688 C 452.105 5.1996 0.493821 0
M  V30 4689 H 453.799 2.994 0.00505653 0
M  V30 4690 H 451.345 1.44 0.000992001 0
M  V30 4691 H 453.298 3.46677 2.39568 0
M  V30 4692 H 452.022 2.2241 2.39168 0
M  V30 4693 H 450.681 3.58797 0.752338 0
M  V30 4694 H 450.329 3.87074 3.2122 0
M  V30 4695 H 450.029 5.39207 2.33516 0
M  V30 4696 H 451.553 5.17435 3.24181 0
M  V30 4697 H 452.967 5.64172 1.01898 0
M  V30 4698 H 451.364 5.99299 0.310047 0
M  V30 4699 H 452.434 4.82462 -0.485593 0
M  V30 4700 N 453.777 0.010035 1.57597 0
M  V30 4701 C 454.687 -0.994226 2.12491 0
M  V30 4702 C 455.703 -1.37013 1.07254 0
M  V30 4703 O 456.879 -1.45542 1.3921 0
M  V30 4704 C 453.944 -2.2642 2.62555 0
M  V30 4705 C 453.005 -1.95049 3.82432 0
M  V30 4706 C 452.238 -3.15991 4.30099 0
M  V30 4707 O 452.461 -4.28015 3.7704 0
M  V30 4708 O 451.395 -2.99403 5.22151 0
M  V30 4709 H 455.221 -0.557549 2.98538 0
M  V30 4710 H 452.806 -0.209413 1.47925 0
M  V30 4711 H 454.688 -3.01009 2.9491 0
M  V30 4712 H 453.363 -2.69306 1.796 0
M  V30 4713 H 452.27 -1.17904 3.55034 0
M  V30 4714 H 453.603 -1.56992 4.66491 0
M  V30 4715 N 455.255 -1.55392 -0.262866 0
M  V30 4716 C 456.48 -1.80847 -1.01533 0
M  V30 4717 C 456.905 -0.584946 -1.78774 0
M  V30 4718 O 456.263 0.465701 -1.75217 0
M  V30 4719 C 456.311 -3.03866 -1.94159 0
M  V30 4720 O 455.415 -2.79662 -3.03089 0
M  V30 4721 H 454.756 -0.597441 -0.289759 0
M  V30 4722 H 457.286 -2.02553 -0.288698 0
M  V30 4723 H 457.296 -3.32872 -2.35924 0
M  V30 4724 H 455.971 -3.92564 -1.37354 0
M  V30 4725 H 454.548 -2.61781 -2.65566 0
M  V30 4726 N 456.733 0.527833 -1.48498 0
M  V30 4727 C 457.663 1.64136 -1.66077 0
M  V30 4728 C 458.644 1.62286 -0.509625 0
M  V30 4729 O 459.829 1.79449 -0.742413 0
M  V30 4730 C 456.959 3.02717 -1.70234 0
M  V30 4731 C 455.913 3.19426 -2.8487 0
M  V30 4732 C 455.239 4.5909 -2.74118 0
M  V30 4733 C 456.539 3.01993 -4.26142 0
M  V30 4734 H 458.233 1.4968 -2.593 0
M  V30 4735 H 455.779 0.718654 -1.24785 0
M  V30 4736 H 457.732 3.80491 -1.8112 0
M  V30 4737 H 456.456 3.18201 -0.735911 0
M  V30 4738 H 455.115 2.4407 -2.73542 0
M  V30 4739 H 454.763 4.71413 -1.7544 0
M  V30 4740 H 454.463 4.71214 -3.51042 0
M  V30 4741 H 455.987 5.3896 -2.86974 0
M  V30 4742 H 457.401 3.69558 -4.38292 0
M  V30 4743 H 455.798 3.2561 -5.04082 0
M  V30 4744 H 456.868 1.98396 -4.42456 0
M  V30 4745 N 458.211 1.37122 0.776871 0
M  V30 4746 C 459.174 1.32301 1.8716 0
M  V30 4747 C 460.174 0.228099 1.59174 0
M  V30 4748 O 461.364 0.483642 1.67352 0
M  V30 4749 C 458.496 1.054 3.24197 0
M  V30 4750 H 459.689 2.29673 1.92848 0
M  V30 4751 H 457.242 1.22077 0.97606 0
M  V30 4752 H 457.977 0.0853872 3.24188 0
M  V30 4753 H 457.762 1.84648 3.45901 0
M  V30 4754 H 459.252 1.04664 4.04271 0
M  V30 4755 N 459.689 -1.00246 1.21608 0
M  V30 4756 C 460.599 -2.12515 0.993709 0
M  V30 4757 C 461.615 -1.73913 -0.0549939 0
M  V30 4758 O 462.791 -2.00943 0.135619 0
M  V30 4759 C 459.856 -3.42083 0.563953 0
M  V30 4760 C 458.917 -3.94843 1.68516 0
M  V30 4761 C 458.15 -5.18226 1.27582 0
M  V30 4762 O 458.373 -5.70201 0.150506 0
M  V30 4763 O 457.307 -5.64497 2.0887 0
M  V30 4764 H 461.133 -2.34152 1.93407 0
M  V30 4765 H 458.718 -1.10891 1.00118 0
M  V30 4766 H 460.6 -4.20073 0.334194 0
M  V30 4767 H 459.275 -3.21828 -0.347665 0
M  V30 4768 H 458.182 -3.18068 1.96935 0
M  V30 4769 H 459.515 -4.19512 2.5743 0
M  V30 4770 N 461.167 -1.02423 -1.1978 0
M  V30 4771 C 462.392 -0.7373 -1.93852 0
M  V30 4772 C 462.817 0.696923 -1.74713 0
M  V30 4773 O 462.175 1.48056 -1.04638 0
M  V30 4774 C 462.223 -1.08783 -3.438 0
M  V30 4775 O 461.327 -0.20383 -4.11896 0
M  V30 4776 H 460.668 -0.27284 -0.605355 0
M  V30 4777 H 463.198 -1.36966 -1.51992 0
M  V30 4778 H 463.208 -1.04276 -3.9445 0
M  V30 4779 H 461.883 -2.13274 -3.57053 0
M  V30 4780 H 460.46 -0.307091 -3.71633 0
M  V30 4781 N 462.645 1.35699 -0.801477 0
M  V30 4782 C 463.891 1.99208 -0.380022 0
M  V30 4783 C 464.224 1.63445 1.04878 0
M  V30 4784 O 463.499 0.895223 1.72673 0
M  V30 4785 C 463.782 3.55755 -0.557708 0
M  V30 4786 C 463.635 4.01332 -2.03107 0
M  V30 4787 C 464.954 4.40096 0.0197968 0
M  V30 4788 H 462.073 0.723667 -0.139552 0
M  V30 4789 H 464.715 1.60928 -1.01006 0
M  V30 4790 H 462.865 3.88494 -0.0213741 0
M  V30 4791 H 464.537 3.79026 -2.62939 0
M  V30 4792 H 462.78 3.52429 -2.52936 0
M  V30 4793 H 463.451 5.10234 -2.1063 0
M  V30 4794 H 465.927 4.13786 -0.438179 0
M  V30 4795 H 464.803 5.48735 -0.134477 0
M  V30 4796 H 465.064 4.2786 1.11303 0
M  V30 4797 N 464.123 0.554532 1.47522 0
M  V30 4798 C 465.363 0.0317994 2.04375 0
M  V30 4799 C 465.727 -1.29242 1.41988 0
M  V30 4800 O 466.928 -1.90269 1.89872 0
M  V30 4801 C 465.199 -0.0623344 3.57346 0
M  V30 4802 S 466.758 -0.531578 4.35568 0
M  V30 4803 H 463.576 0.0238553 0.7106 0
M  V30 4804 H 466.178 0.74066 1.80927 0
M  V30 4805 H 464.882 0.905857 4.00278 0
M  V30 4806 H 464.413 -0.794831 3.85287 0
M  V30 4807 H 466.428 -1.79175 4.62721 0
M  V30 4808 N 465.601 -1.54893 0.290851 0
M  V30 4809 C 466.534 -2.19289 -0.631489 0
M  V30 4810 C 467.512 -1.15893 -1.14051 0
M  V30 4811 O 468.696 -1.4449 -1.21058 0
M  V30 4812 C 465.823 -2.82866 -1.86291 0
M  V30 4813 C 464.869 -3.997 -1.48801 0
M  V30 4814 S 465.702 -5.32641 -0.552644 0
M  V30 4815 C 466.858 -5.99696 -1.79209 0
M  V30 4816 H 467.091 -2.9718 -0.0843791 0
M  V30 4817 H 464.624 -1.54218 0.075031 0
M  V30 4818 H 466.582 -3.20124 -2.56964 0
M  V30 4819 H 465.243 -2.04839 -2.38117 0
M  V30 4820 H 464.436 -4.42932 -2.40473 0
M  V30 4821 H 464.038 -3.63947 -0.861321 0
M  V30 4822 H 466.33 -6.19886 -2.734 0
M  V30 4823 H 467.273 -6.94071 -1.40251 0
M  V30 4824 H 467.681 -5.29226 -1.96419 0
M  V30 4825 N 467.08 -0.0183926 -1.57589 0
M  V30 4826 C 468.308 0.673046 -1.95647 0
M  V30 4827 C 468.723 1.66275 -0.894312 0
M  V30 4828 O 468.08 1.82072 0.124975 0
M  V30 4829 C 468.131 1.38884 -3.33756 0
M  V30 4830 O 467.852 0.438806 -4.35897 0
M  V30 4831 C 469.353 2.1731 -3.86383 0
M  V30 4832 H 466.573 0.186292 -0.644621 0
M  V30 4833 H 469.117 -0.0749748 -2.04363 0
M  V30 4834 H 467.272 2.08835 -3.26293 0
M  V30 4835 H 467.686 0.945869 -5.15901 0
M  V30 4836 H 469.16 2.62863 -4.85394 0
M  V30 4837 H 469.637 3.00764 -3.20059 0
M  V30 4838 H 470.243 1.52339 -3.97081 0
M  V30 4839 N 468.558 1.5553 0.254621 0
M  V30 4840 C 469.804 1.77262 0.985193 0
M  V30 4841 C 470.137 0.582286 1.85265 0
M  V30 4842 O 469.412 -0.419666 1.89919 0
M  V30 4843 C 469.695 3.0881 1.85225 0
M  V30 4844 C 469.548 4.38233 1.0135 0
M  V30 4845 C 470.867 3.3653 2.83612 0
M  V30 4846 H 467.986 0.644906 0.356742 0
M  V30 4847 H 470.628 1.88264 0.256236 0
M  V30 4848 H 468.778 2.99562 2.47376 0
M  V30 4849 H 470.45 4.59463 0.411269 0
M  V30 4850 H 468.693 4.32636 0.317574 0
M  V30 4851 H 469.364 5.26644 1.65379 0
M  V30 4852 H 471.84 3.45691 2.31596 0
M  V30 4853 H 470.716 4.29805 3.41407 0
M  V30 4854 H 470.977 2.57064 3.59681 0
M  V30 4855 N 470.036 -0.519951 1.48776 0
M  V30 4856 C 470.968 -1.63973 1.60142 0
M  V30 4857 C 471.981 -1.55404 0.485117 0
M  V30 4858 O 473.17 -1.61682 0.756391 0
M  V30 4859 C 470.27 -3.02676 1.52449 0
M  V30 4860 C 469.443 -3.36624 2.79291 0
M  V30 4861 C 468.502 -4.54652 2.64912 0
M  V30 4862 O 467.528 -4.57374 3.38818 0
M  V30 4863 N 468.73 -5.53432 1.75195 0
M  V30 4864 H 471.495 -1.54656 2.56713 0
M  V30 4865 H 469.056 -0.707439 1.45626 0
M  V30 4866 H 471.048 -3.79525 1.4051 0
M  V30 4867 H 469.618 -3.06018 0.638125 0
M  V30 4868 H 468.838 -2.48855 3.0572 0
M  V30 4869 H 470.126 -3.56094 3.6342 0
M  V30 4870 H 469.524 -5.54018 1.14371 0
M  V30 4871 H 468.081 -6.29459 1.69189 0
M  V30 4872 N 471.514 -1.37532 -0.769588 0
M  V30 4873 C 472.742 -1.36059 -1.55871 0
M  V30 4874 C 473.157 0.053544 -1.88724 0
M  V30 4875 O 472.514 1.01591 -1.5161 0
M  V30 4876 C 472.565 -2.20107 -2.86767 0
M  V30 4877 O 472.286 -3.56009 -2.55321 0
M  V30 4878 C 473.787 -2.26636 -3.80987 0
M  V30 4879 H 471.007 -0.465967 -0.482821 0
M  V30 4880 H 473.551 -1.80901 -0.953686 0
M  V30 4881 H 471.706 -1.78768 -3.43687 0
M  V30 4882 H 472.12 -4.0009 -3.39158 0
M  V30 4883 H 473.594 -2.89763 -4.69831 0
M  V30 4884 H 474.071 -1.2754 -4.20274 0
M  V30 4885 H 474.677 -2.68296 -3.29996 0
M  V30 4886 N 472.992 0.995999 -1.22138 0
M  V30 4887 C 473.922 2.10387 -1.01289 0
M  V30 4888 C 474.903 1.69975 0.0651454 0
M  V30 4889 O 476.088 1.9396 -0.0964628 0
M  V30 4890 C 473.218 3.42312 -0.586517 0
M  V30 4891 C 472.172 3.96558 -1.61014 0
M  V30 4892 C 471.498 5.24494 -1.0397 0
M  V30 4893 C 472.798 4.27595 -2.99933 0
M  V30 4894 H 474.492 2.28086 -1.93951 0
M  V30 4895 H 472.038 1.09607 -0.933928 0
M  V30 4896 H 473.991 4.19223 -0.427793 0
M  V30 4897 H 472.715 3.24431 0.375761 0
M  V30 4898 H 471.374 3.21776 -1.75658 0
M  V30 4899 H 471.022 5.02953 -0.0688703 0
M  V30 4900 H 470.722 5.61755 -1.72352 0
M  V30 4901 H 472.246 6.04042 -0.892494 0
M  V30 4902 H 473.66 4.95315 -2.8868 0
M  V30 4903 H 472.057 4.76021 -3.6541 0
M  V30 4904 H 473.127 3.35498 -3.50099 0
M  V30 4905 N 474.47 1.03057 1.19235 0
M  V30 4906 C 475.4 0.633497 2.24742 0
M  V30 4907 C 476.381 -0.358335 1.66283 0
M  V30 4908 O 477.566 -0.240676 1.92703 0
M  V30 4909 C 474.696 -0.0147648 3.47297 0
M  V30 4910 C 473.65 0.899527 4.18441 0
M  V30 4911 C 472.976 0.116281 5.34574 0
M  V30 4912 C 474.276 2.21404 4.73051 0
M  V30 4913 H 475.97 1.5155 2.58211 0
M  V30 4914 H 473.516 0.73014 1.24117 0
M  V30 4915 H 475.469 -0.304202 4.20301 0
M  V30 4916 H 474.193 -0.931577 3.13032 0
M  V30 4917 H 472.852 1.17319 3.47321 0
M  V30 4918 H 472.5 -0.802619 4.96555 0
M  V30 4919 H 472.2 0.725293 5.83107 0
M  V30 4920 H 473.724 -0.166376 6.10373 0
M  V30 4921 H 475.138 1.98601 5.37802 0
M  V30 4922 H 473.535 2.77512 5.32078 0
M  V30 4923 H 474.605 2.86752 3.91026 0
M  V30 4924 N 475.948 -1.35272 0.808662 0
M  V30 4925 C 477.196 -1.98316 0.389233 0
M  V30 4926 C 477.517 -1.64465 -1.04767 0
M  V30 4927 O 476.787 -0.928175 -1.72516 0
M  V30 4928 H 475.367 -0.733585 0.140935 0
M  V30 4929 H 478.029 -1.6515 1.03496 0
M  V30 4930 H 477.125 -3.08123 0.496631 0
M  V30 4931 N 477.426 -0.562348 -1.47226 0
M  V30 4932 C 478.703 0.0256985 -1.95583 0
M  V30 4933 C 479.083 1.48032 -1.50498 0
M  V30 4934 O 478.431 2.15973 -0.746181 0
M  V30 4935 C 478.641 -0.125129 -3.48776 0
M  V30 4936 C 479.989 0.0175728 -4.24596 0
M  V30 4937 O 481.013 -0.0529341 -3.56161 0
M  V30 4938 O 479.872 0.170145 -5.46235 0
M  V30 4939 H 476.966 0.0612565 -0.824728 0
M  V30 4940 H 479.512 -0.629233 -1.57603 0
M  V30 4941 H 478.284 -1.13715 -3.74412 0
M  V30 4942 H 477.907 0.567178 -3.93534 0
M  V30 4943 N 478.904 1.54736 -0.299062 0
M  V30 4944 C 480.315 1.8569 0.193971 0
M  V30 4945 C 480.666 1.22101 1.53577 0
M  V30 4946 O 479.791 0.51799 2.10109 0
M  V30 4947 C 480.386 3.36895 0.358733 0
M  V30 4948 C 478.945 3.67887 0.795986 0
M  V30 4949 C 478.092 2.77131 -0.096807 0
M  V30 4950 H 481.043 1.49934 -0.520134 0
M  V30 4951 H 481.064 3.61294 1.19361 0
M  V30 4952 H 480.576 3.83148 -0.617998 0
M  V30 4953 H 478.677 3.27151 1.78334 0
M  V30 4954 H 478.79 4.75114 0.616718 0
M  V30 4955 H 477.154 2.51153 0.423581 0
M  V30 4956 H 477.937 3.26204 -1.06986 0
M  V30 4957 N 480.382 0.0267497 1.57577 0
M  V30 4958 C 481.345 -0.940916 2.08996 0
M  V30 4959 C 482.345 -1.25561 1.00455 0
M  V30 4960 O 483.535 -1.19634 1.26623 0
M  V30 4961 C 480.667 -2.25814 2.55384 0
M  V30 4962 H 481.86 -0.495628 2.95776 0
M  V30 4963 H 479.413 -0.221241 1.54726 0
M  V30 4964 H 480.148 -2.74976 1.71926 0
M  V30 4965 H 479.933 -2.04285 3.34679 0
M  V30 4966 H 481.423 -2.95178 2.95398 0
M  V30 4967 N 481.861 -1.55662 -0.24637 0
M  V30 4968 C 483.272 -1.67953 -0.81539 0
M  V30 4969 C 483.623 -0.624302 -1.86002 0
M  V30 4970 O 482.748 0.229328 -2.15181 0
M  V30 4971 C 483.343 -3.04484 -1.48576 0
M  V30 4972 C 481.902 -3.18713 -2.00248 0
M  V30 4973 C 481.049 -2.6383 -0.853766 0
M  V30 4974 H 484 -1.58685 -0.0221692 0
M  V30 4975 H 484.021 -2.98959 -2.3538 0
M  V30 4976 H 483.533 -3.81264 -0.725222 0
M  V30 4977 H 481.634 -2.46757 -2.79181 0
M  V30 4978 H 481.747 -4.25628 -2.1995 0
M  V30 4979 H 480.111 -2.21667 -1.25442 0
M  V30 4980 H 480.894 -3.43135 -0.106302 0
M  V30 4981 N 483.339 0.512053 -1.4905 0
M  V30 4982 C 484.75 1.09376 -1.51307 0
M  V30 4983 C 485.101 1.94 -0.292971 0
M  V30 4984 O 484.226 2.07965 0.598277 0
M  V30 4985 C 484.821 1.99031 -2.74176 0
M  V30 4986 C 483.38 2.52385 -2.79247 0
M  V30 4987 C 482.527 1.29749 -2.45073 0
M  V30 4988 H 485.478 0.296467 -1.55906 0
M  V30 4989 H 485.499 2.83569 -2.53711 0
M  V30 4990 H 485.011 1.37412 -3.62959 0
M  V30 4991 H 483.112 3.17673 -1.94716 0
M  V30 4992 H 483.225 2.90293 -3.81139 0
M  V30 4993 H 481.589 1.61912 -1.96612 0
M  V30 4994 H 482.372 0.698555 -3.36118 0
M  V30 4995 N 484.817 1.37938 0.762283 0
M  V30 4996 C 485.747 1.37176 1.88958 0
M  V30 4997 C 486.728 0.238945 1.68413 0
M  V30 4998 O 487.913 0.440726 1.89133 0
M  V30 4999 C 485.043 1.18742 3.2637 0
M  V30 5000 C 483.997 2.29136 3.61498 0
M  V30 5001 C 483.323 1.95816 4.97554 0
M  V30 5002 C 484.623 3.71363 3.6727 0
M  V30 5003 H 486.317 2.31509 1.89853 0
M  V30 5004 H 483.863 1.11438 0.912005 0
M  V30 5005 H 485.816 1.16837 4.04879 0
M  V30 5006 H 484.54 0.208683 3.25933 0
M  V30 5007 H 483.199 2.30213 2.85303 0
M  V30 5008 H 482.847 0.964475 4.93667 0
M  V30 5009 H 482.547 2.69745 5.22026 0
M  V30 5010 H 484.071 1.95513 5.78452 0
M  V30 5011 H 485.485 3.72364 4.35911 0
M  V30 5012 H 483.882 4.44425 4.03245 0
M  V30 5013 H 484.952 4.04305 2.67704 0
M  V30 5014 N 486.295 -0.989507 1.22664 0
M  V30 5015 C 487.52 -1.77031 1.08051 0
M  V30 5016 C 487.945 -1.84535 -0.364483 0
M  V30 5017 O 487.303 -1.3003 -1.2634 0
M  V30 5018 C 487.351 -3.18 1.70024 0
M  V30 5019 O 486.455 -4.01161 0.956216 0
M  V30 5020 H 485.796 -0.545008 0.379292 0
M  V30 5021 H 488.326 -1.24277 1.62531 0
M  V30 5022 H 488.336 -3.68616 1.74888 0
M  V30 5023 H 487.011 -3.11853 2.75174 0
M  V30 5024 H 485.588 -3.59687 0.98384 0
M  V30 5025 N 487.773 -1.03688 -1.18687 0
M  V30 5026 C 489.021 -0.736572 -1.88199 0
M  V30 5027 C 489.342 0.737665 -1.80509 0
M  V30 5028 O 488.612 1.53204 -1.22088 0
M  V30 5029 H 487.192 -0.269466 -0.696704 0
M  V30 5030 H 489.854 -1.31282 -1.44052 0
M  V30 5031 H 488.95 -1.03802 -2.94332 0
M  V30 5032 N 489.251 1.34841 -0.815825 0
M  V30 5033 C 490.662 1.80937 -0.46029 0
M  V30 5034 C 491.013 1.67685 1.01863 0
M  V30 5035 O 490.138 1.21277 1.79223 0
M  V30 5036 C 490.733 3.28509 -0.828708 0
M  V30 5037 C 489.292 3.72712 -0.525644 0
M  V30 5038 C 488.439 2.56676 -1.04941 0
M  V30 5039 H 491.39 1.22688 -1.00664 0
M  V30 5040 H 491.411 3.80279 -0.129757 0
M  V30 5041 H 490.923 3.38122 -1.90513 0
M  V30 5042 H 489.024 3.68642 0.541666 0
M  V30 5043 H 489.137 4.67119 -1.06474 0
M  V30 5044 H 487.501 2.50302 -0.471286 0
M  V30 5045 H 488.284 2.69063 -2.13214 0
M  V30 5046 N 490.729 0.570148 1.46925 0
M  V30 5047 C 491.662 -0.218362 2.27153 0
M  V30 5048 C 492.64 -0.90847 1.34854 0
M  V30 5049 O 493.824 -0.924875 1.64251 0
M  V30 5050 C 490.951 -1.3122 3.12248 0
M  V30 5051 C 489.997 -0.729277 4.20219 0
M  V30 5052 S 490.83 0.434159 5.33737 0
M  V30 5053 C 491.986 -0.661188 6.22398 0
M  V30 5054 H 492.219 0.462393 2.93682 0
M  V30 5055 H 489.752 0.356753 1.50222 0
M  V30 5056 H 491.71 -1.93856 3.61842 0
M  V30 5057 H 490.371 -1.96485 2.45056 0
M  V30 5058 H 489.564 -1.5511 4.79538 0
M  V30 5059 H 489.166 -0.178836 3.73572 0
M  V30 5060 H 491.458 -1.55006 6.5953 0
M  V30 5061 H 492.401 -0.105046 7.08022 0
M  V30 5062 H 492.809 -0.959682 5.56283 0
M  V30 5063 N 492.207 -1.54576 0.307264 0
M  V30 5064 C 493.17 -2.22423 -0.553224 0
M  V30 5065 C 494.17 -1.21231 -1.05639 0
M  V30 5066 O 495.36 -1.45923 -0.951419 0
M  V30 5067 C 492.492 -2.91552 -1.76664 0
M  V30 5068 H 493.685 -2.99874 0.0396484 0
M  V30 5069 H 491.238 -1.56192 0.0581629 0
M  V30 5070 H 491.973 -2.18196 -2.39918 0
M  V30 5071 H 491.758 -3.65738 -1.41343 0
M  V30 5072 H 493.248 -3.43292 -2.37783 0
M  V30 5073 N 493.685 -0.035106 -1.57561 0
M  V30 5074 C 495.096 0.502885 -1.798 0
M  V30 5075 C 495.447 1.71892 -0.945921 0
M  V30 5076 O 494.572 2.15822 -0.157991 0
M  V30 5077 C 495.167 0.919097 -3.26095 0
M  V30 5078 C 493.726 1.40216 -3.49308 0
M  V30 5079 C 492.873 0.369709 -2.74824 0
M  V30 5080 H 495.824 -0.261102 -1.56537 0
M  V30 5081 H 495.845 1.78308 -3.36135 0
M  V30 5082 H 495.357 0.0338526 -3.88085 0
M  V30 5083 H 493.458 2.30714 -2.92578 0
M  V30 5084 H 493.571 1.40541 -4.58023 0
M  V30 5085 H 491.935 0.839113 -2.40481 0
M  V30 5086 H 492.718 -0.507173 -3.39533 0
M  V30 5087 N 495.163 1.55791 0.238111 0
M  V30 5088 C 496.403 1.79801 0.972163 0
M  V30 5089 C 496.767 0.606027 1.82185 0
M  V30 5090 O 497.968 0.725079 2.58836 0
M  V30 5091 C 496.239 3.08608 1.80266 0
M  V30 5092 S 497.798 3.53872 2.59461 0
M  V30 5093 H 494.616 0.631418 0.326852 0
M  V30 5094 H 497.218 1.94031 0.239212 0
M  V30 5095 H 495.922 3.93419 1.1683 0
M  V30 5096 H 495.453 2.9714 2.57821 0
M  V30 5097 H 497.468 3.15899 3.82651 0
M  V30 5098 N 496.642 -0.504142 1.49319 0
M  V30 5099 C 497.574 -1.62265 1.61872 0
M  V30 5100 C 498.587 -1.54881 0.501573 0
M  V30 5101 O 499.776 -1.6087 0.773497 0
M  V30 5102 C 496.876 -3.01042 1.55651 0
M  V30 5103 C 496.049 -3.33642 2.82845 0
M  V30 5104 C 495.108 -4.51816 2.69719 0
M  V30 5105 O 494.134 -4.53755 3.4365 0
M  V30 5106 N 495.336 -5.51543 1.81055 0
M  V30 5107 H 498.101 -1.51924 2.58339 0
M  V30 5108 H 495.662 -0.691954 1.46368 0
M  V30 5109 H 497.654 -3.78013 1.44528 0
M  V30 5110 H 496.224 -3.05323 0.670546 0
M  V30 5111 H 495.444 -2.45598 3.08343 0
M  V30 5112 H 496.732 -3.5222 3.67177 0
M  V30 5113 H 496.13 -5.52774 1.20241 0
M  V30 5114 H 494.687 -6.27629 1.75856 0
M  V30 5115 N 498.12 -1.38341 -0.754957 0
M  V30 5116 C 499.345 -1.37882 -1.5493 0
M  V30 5117 C 499.77 0.0296385 -1.88077 0
M  V30 5118 O 499.128 1.01133 -1.50472 0
M  V30 5119 C 499.176 -2.23996 -2.82592 0
M  V30 5120 O 498.28 -1.65612 -3.77686 0
M  V30 5121 H 497.621 -0.470384 -0.468652 0
M  V30 5122 H 500.151 -1.82084 -0.933082 0
M  V30 5123 H 500.161 -2.37806 -3.3153 0
M  V30 5124 H 498.836 -3.26365 -2.57796 0
M  V30 5125 H 497.413 -1.60936 -3.36384 0
M  V30 5126 N 499.598 0.982988 -1.23187 0
M  V30 5127 C 500.561 2.05649 -1.01198 0
M  V30 5128 C 501.561 1.6078 0.0252464 0
M  V30 5129 O 502.751 1.72878 -0.214243 0
M  V30 5130 C 499.883 3.36744 -0.530656 0
M  V30 5131 H 501.076 2.2659 -1.96461 0
M  V30 5132 H 498.629 1.15602 -1.05195 0
M  V30 5133 H 499.364 3.21492 0.425873 0
M  V30 5134 H 499.149 3.7065 -1.2791 0
M  V30 5135 H 500.639 4.15705 -0.397366 0
M  V30 5136 N 501.076 1.04316 1.18135 0
M  V30 5137 C 502.006 0.657299 2.24058 0
M  V30 5138 C 502.987 -0.340678 1.66654 0
M  V30 5139 O 504.172 -0.220223 1.92947 0
M  V30 5140 C 501.302 0.0220715 3.47293 0
M  V30 5141 C 500.256 0.943857 4.17463 0
M  V30 5142 C 499.582 0.172973 5.3442 0
M  V30 5143 C 500.882 2.26409 4.70677 0
M  V30 5144 H 502.576 1.5428 2.56589 0
M  V30 5145 H 500.122 0.743263 1.23335 0
M  V30 5146 H 502.075 -0.259607 4.206 0
M  V30 5147 H 500.799 -0.898323 3.14003 0
M  V30 5148 H 499.458 1.20996 3.46057 0
M  V30 5149 H 499.106 -0.749907 4.97379 0
M  V30 5150 H 498.806 0.787098 5.82304 0
M  V30 5151 H 500.33 -0.101628 6.10515 0
M  V30 5152 H 501.744 2.04294 5.35665 0
M  V30 5153 H 500.141 2.8314 5.29105 0
M  V30 5154 H 501.211 2.90883 3.87962 0
M  V30 5155 N 502.554 -1.34406 0.822964 0
M  V30 5156 C 503.464 -2.33298 0.246838 0
M  V30 5157 C 504.48 -1.62625 -0.618797 0
M  V30 5158 O 505.656 -1.94391 -0.526685 0
M  V30 5159 C 502.721 -3.41785 -0.581731 0
M  V30 5160 C 501.782 -4.28206 0.306309 0
M  V30 5161 C 501.015 -5.31512 -0.48281 0
M  V30 5162 O 501.238 -5.43973 -1.71607 0
M  V30 5163 O 500.172 -6.01749 0.134884 0
M  V30 5164 H 503.998 -2.84401 1.06534 0
M  V30 5165 H 501.583 -1.37466 0.585108 0
M  V30 5166 H 503.465 -4.08028 -1.05313 0
M  V30 5167 H 502.14 -2.92925 -1.37756 0
M  V30 5168 H 501.047 -3.64885 0.825199 0
M  V30 5169 H 502.38 -4.80507 1.06649 0
M  V30 5170 N 504.032 -0.577932 -1.46621 0
M  V30 5171 C 505.257 -0.0652536 -2.07297 0
M  V30 5172 C 505.682 1.22828 -1.4246 0
M  V30 5173 O 505.04 1.74075 -0.506718 0
M  V30 5174 C 505.088 0.0920589 -3.60482 0
M  V30 5175 O 504.192 1.14972 -3.96049 0
M  V30 5176 H 503.533 -0.06065 -0.661224 0
M  V30 5177 H 506.063 -0.799515 -1.88332 0
M  V30 5178 H 506.073 0.299741 -4.06897 0
M  V30 5179 H 504.748 -0.852612 -4.07067 0
M  V30 5180 H 503.325 0.920879 -3.61351 0
M  V30 5181 N 505.51 1.54411 -0.315457 0
M  V30 5182 C 506.759 1.99599 0.290395 0
M  V30 5183 C 507.072 1.20746 1.53882 0
M  V30 5184 O 508.278 1.56272 2.22017 0
M  V30 5185 C 506.734 3.5539 0.56797 0
M  V30 5186 C 506.342 4.43068 -0.662945 0
M  V30 5187 C 508.086 4.09067 1.13422 0
M  V30 5188 C 505.993 5.90317 -0.357722 0
M  V30 5189 H 504.923 0.745592 0.112286 0
M  V30 5190 H 507.574 1.78477 -0.426418 0
M  V30 5191 H 505.956 3.72468 1.34476 0
M  V30 5192 H 507.13 4.37765 -1.43869 0
M  V30 5193 H 505.445 4.00238 -1.14884 0
M  V30 5194 H 508.042 5.16663 1.37707 0
M  V30 5195 H 508.385 3.60552 2.08106 0
M  V30 5196 H 508.918 3.95589 0.418805 0
M  V30 5197 H 505.657 6.4301 -1.27351 0
M  V30 5198 H 505.177 5.98592 0.380472 0
M  V30 5199 H 506.856 6.4699 0.0354284 0
M  V30 5200 N 506.988 0.0434614 1.5754 0
M  V30 5201 C 507.92 -0.962586 2.08007 0
M  V30 5202 C 508.933 -1.27972 1.00634 0
M  V30 5203 O 510.122 -1.24186 1.28219 0
M  V30 5204 C 507.222 -2.28621 2.50171 0
M  V30 5205 C 506.395 -2.15214 3.80791 0
M  V30 5206 C 505.454 -3.30633 4.09351 0
M  V30 5207 O 504.48 -3.0688 4.79388 0
M  V30 5208 N 505.682 -4.54873 3.60654 0
M  V30 5209 H 508.447 -0.531891 2.94942 0
M  V30 5210 H 506.008 -0.142965 1.61268 0
M  V30 5211 H 508 -3.04689 2.66359 0
M  V30 5212 H 506.57 -2.63283 1.68525 0
M  V30 5213 H 505.79 -1.23785 3.74261 0
M  V30 5214 H 507.078 -2.03475 4.66343 0
M  V30 5215 H 506.476 -4.77063 3.04019 0
M  V30 5216 H 505.033 -5.2806 3.82094 0
M  V30 5217 N 508.466 -1.55915 -0.229846 0
M  V30 5218 C 509.691 -1.8296 -0.976743 0
M  V30 5219 C 510.116 -0.622735 -1.77493 0
M  V30 5220 O 509.474 0.428431 -1.76165 0
M  V30 5221 C 509.522 -3.07916 -1.8767 0
M  V30 5222 O 508.626 -2.86028 -2.97088 0
M  V30 5223 H 507.967 -0.603453 -0.277021 0
M  V30 5224 H 510.497 -2.0312 -0.245669 0
M  V30 5225 H 510.507 -3.37802 -2.2881 0
M  V30 5226 H 509.182 -3.95389 -1.28996 0
M  V30 5227 H 507.759 -2.67355 -2.59954 0
M  V30 5228 N 509.944 0.496216 -1.49584 0
M  V30 5229 C 510.907 1.57952 -1.66084 0
M  V30 5230 C 511.907 1.51729 -0.53244 0
M  V30 5231 O 513.097 1.54796 -0.79899 0
M  V30 5232 C 510.229 2.97604 -1.66268 0
M  V30 5233 H 511.422 1.44649 -2.6271 0
M  V30 5234 H 508.975 0.7208 -1.38687 0
M  V30 5235 H 509.71 3.16378 -0.712432 0
M  V30 5236 H 509.495 3.03528 -2.4822 0
M  V30 5237 H 510.985 3.76301 -1.81073 0
M  V30 5238 N 511.423 1.38739 0.74761 0
M  V30 5239 C 512.839 1.20067 1.05148 0
M  V30 5240 C 513.039 0.0534835 2.01429 0
M  V30 5241 O 512.095 -0.59886 2.45296 0
M  V30 5242 C 513.408 2.52957 1.62584 0
M  V30 5243 C 514.956 2.59692 1.74726 0
M  V30 5244 C 515.431 3.92772 2.35573 0
M  V30 5245 N 516.922 3.94343 2.42997 0
M  V30 5246 C 517.657 4.9408 2.90985 0
M  V30 5247 N 517.153 6.04214 3.38965 0
M  V30 5248 N 518.946 4.81466 2.9008 0
M  V30 5249 H 511.097 2.12121 0.108808 0
M  V30 5250 H 513.36 0.941491 0.110899 0
M  V30 5251 H 513.066 3.37389 0.993051 0
M  V30 5252 H 512.94 2.71779 2.61565 0
M  V30 5253 H 515.327 1.75651 2.3713 0
M  V30 5254 H 515.408 2.44731 0.744326 0
M  V30 5255 H 515.052 4.77238 1.738 0
M  V30 5256 H 514.982 4.05046 3.36519 0
M  V30 5257 H 517.473 3.14799 2.0907 0
M  V30 5258 H 517.786 6.76241 3.74056 0
M  V30 5259 H 516.131 6.07825 3.37007 0
M  V30 5260 H 519.322 3.94535 2.51912 0
M  V30 5261 H 519.495 5.59344 3.27166 0
M  V30 5262 N 512.901 -0.976442 1.23707 0
M  V30 5263 C 513.864 -2.0511 1.02287 0
M  V30 5264 C 514.864 -1.60791 -0.0167195 0
M  V30 5265 O 516.054 -1.72761 0.223408 0
M  V30 5266 C 513.186 -3.36458 0.548507 0
M  V30 5267 H 514.379 -2.25545 1.9766 0
M  V30 5268 H 511.932 -1.15042 1.05806 0
M  V30 5269 H 512.667 -3.21713 -0.408818 0
M  V30 5270 H 512.452 -3.69967 1.29874 0
M  V30 5271 H 513.942 -4.15489 0.419406 0
M  V30 5272 N 514.379 -1.04941 -1.1758 0
M  V30 5273 C 515.342 -0.652456 -2.19717 0
M  V30 5274 C 516.342 0.294745 -1.58076 0
M  V30 5275 O 517.532 0.0789579 -1.74021 0
M  V30 5276 C 514.664 0.0420712 -3.40874 0
M  V30 5277 H 515.857 -1.55642 -2.5635 0
M  V30 5278 H 513.41 -0.842995 -1.31618 0
M  V30 5279 H 514.145 0.95943 -3.09783 0
M  V30 5280 H 513.93 -0.638844 -3.86861 0
M  V30 5281 H 515.42 0.306 -4.16477 0
M  V30 5282 N 515.857 1.33968 -0.830081 0
M  V30 5283 C 516.789 2.28194 -0.21448 0
M  V30 5284 C 517.802 1.5135 0.599752 0
M  V30 5285 O 518.991 1.73286 0.42826 0
M  V30 5286 C 516.091 3.31221 0.717356 0
M  V30 5287 C 515.264 4.37365 -0.055613 0
M  V30 5288 C 514.323 5.2011 0.798231 0
M  V30 5289 O 513.349 5.68691 0.240616 0
M  V30 5290 N 514.551 5.40523 2.11695 0
M  V30 5291 H 517.316 2.81662 -1.02405 0
M  V30 5292 H 514.877 1.46568 -0.687713 0
M  V30 5293 H 516.869 3.83477 1.29334 0
M  V30 5294 H 515.439 2.78095 1.42765 0
M  V30 5295 H 514.659 3.85727 -0.812936 0
M  V30 5296 H 515.947 5.05397 -0.587444 0
M  V30 5297 H 515.345 5.0274 2.59363 0
M  V30 5298 H 513.902 5.95871 2.64162 0
M  V30 5299 N 517.335 0.585699 1.46312 0
M  V30 5300 C 518.298 -0.135673 2.28798 0
M  V30 5301 C 519.298 -0.815988 1.38558 0
M  V30 5302 O 520.488 -0.667487 1.60904 0
M  V30 5303 C 517.62 -1.20163 3.1902 0
M  V30 5304 H 518.813 0.589257 2.94054 0
M  V30 5305 H 516.366 0.343794 1.52472 0
M  V30 5306 H 517.101 -1.95804 2.58517 0
M  V30 5307 H 516.886 -0.718282 3.85465 0
M  V30 5308 H 518.376 -1.70749 3.81096 0
M  V30 5309 N 518.813 -1.54241 0.323641 0
M  V30 5310 C 520.224 -1.85975 -0.164405 0
M  V30 5311 C 520.575 -1.24529 -1.51615 0
M  V30 5312 O 519.7 -0.551351 -2.09258 0
M  V30 5313 C 520.295 -3.37424 -0.305091 0
M  V30 5314 C 518.854 -3.69107 -0.737358 0
M  V30 5315 C 518.001 -2.76942 0.140884 0
M  V30 5316 H 520.952 -1.49088 0.543922 0
M  V30 5317 H 520.973 -3.63147 -1.13598 0
M  V30 5318 H 520.485 -3.82116 0.678876 0
M  V30 5319 H 518.586 -3.29947 -1.73107 0
M  V30 5320 H 518.699 -4.76035 -0.541053 0
M  V30 5321 H 517.063 -2.51795 -0.383572 0
M  V30 5322 H 517.846 -3.24461 1.12162 0
M  V30 5323 N 520.291 -0.0518155 -1.57515 0
M  V30 5324 C 521.241 0.932017 -2.0808 0
M  V30 5325 C 522.225 1.27141 -0.986098 0
M  V30 5326 O 523.417 1.25373 -1.24943 0
M  V30 5327 C 520.546 2.20665 -2.62986 0
M  V30 5328 C 519.632 1.89462 -3.79427 0
M  V30 5329 N 520.023 1.28621 -4.89173 0
M  V30 5330 C 518.321 2.19327 -3.88345 0
M  V30 5331 C 519.022 1.15062 -5.70207 0
M  V30 5332 N 517.998 1.65372 -5.17835 0
M  V30 5333 H 521.8 0.456964 -2.90326 0
M  V30 5334 H 519.314 0.152619 -1.61681 0
M  V30 5335 H 521.311 2.92044 -2.97516 0
M  V30 5336 H 519.971 2.68776 -1.8218 0
M  V30 5337 H 520.982 0.958341 -5.08956 0
M  V30 5338 H 517.659 2.69955 -3.18482 0
M  V30 5339 H 519.049 0.678243 -6.68468 0
M  V30 5340 N 521.769 1.56035 0.221574 0
M  V30 5341 C 523.015 1.80221 0.942973 0
M  V30 5342 C 523.37 0.624799 1.81973 0
M  V30 5343 O 522.663 -0.381145 1.87771 0
M  V30 5344 C 522.857 3.07813 1.8162 0
M  V30 5345 C 522.686 4.37852 1.02548 0
M  V30 5346 C 521.456 5.00138 0.720418 0
M  V30 5347 C 523.654 5.12813 0.390799 0
M  V30 5348 N 521.636 6.13831 -0.0917139 0
M  V30 5349 C 523.007 6.19346 -0.284728 0
M  V30 5350 C 525.062 4.96972 0.303828 0
M  V30 5351 C 523.765 7.11758 -1.03891 0
M  V30 5352 C 525.791 5.89784 -0.436883 0
M  V30 5353 C 525.153 6.95743 -1.10095 0
M  V30 5354 H 521.252 0.711117 0.325325 0
M  V30 5355 H 523.836 1.93522 0.213854 0
M  V30 5356 H 522.007 2.95795 2.51714 0
M  V30 5357 H 523.739 3.20191 2.47508 0
M  V30 5358 H 520.494 4.62075 1.03843 0
M  V30 5359 H 520.918 6.75249 -0.486615 0
M  V30 5360 H 525.56 4.15107 0.802896 0
M  V30 5361 H 523.278 7.93105 -1.54949 0
M  V30 5362 H 526.864 5.79603 -0.505181 0
M  V30 5363 H 525.744 7.66322 -1.66495 0
M  V30 5364 N 523.247 -0.488276 1.49845 0
M  V30 5365 C 524.194 -1.58836 1.67451 0
M  V30 5366 C 525.164 -1.57886 0.515857 0
M  V30 5367 O 526.349 -1.75679 0.744403 0
M  V30 5368 C 523.489 -2.96915 1.75885 0
M  V30 5369 C 522.602 -3.07784 3.03138 0
M  V30 5370 C 521.737 -4.36673 3.02473 0
M  V30 5371 C 520.776 -4.41222 4.24252 0
M  V30 5372 N 519.913 -5.61557 4.21424 0
M  V30 5373 H 524.753 -1.43131 2.61376 0
M  V30 5374 H 522.29 -0.696186 1.29583 0
M  V30 5375 H 524.248 -3.76965 1.78755 0
M  V30 5376 H 522.878 -3.11295 0.85414 0
M  V30 5377 H 521.93 -2.20717 3.09819 0
M  V30 5378 H 523.242 -3.07005 3.93128 0
M  V30 5379 H 522.396 -5.25055 3.03977 0
M  V30 5380 H 521.135 -4.40037 2.10283 0
M  V30 5381 H 520.14 -3.5124 4.22978 0
M  V30 5382 H 521.365 -4.39564 5.17649 0
M  V30 5383 H 519.311 -5.65738 3.32078 0
M  V30 5384 H 519.228 -5.62447 5.05163 0
M  V30 5385 H 520.496 -6.52111 4.2705 0
M  V30 5386 N 524.725 -1.39134 -0.740242 0
M  V30 5387 C 525.95 -1.39518 -1.53459 0
M  V30 5388 C 526.375 0.00968883 -1.88098 0
M  V30 5389 O 525.733 0.995312 -1.51536 0
M  V30 5390 C 525.781 -2.26981 -2.802 0
M  V30 5391 O 524.885 -1.69609 -3.75908 0
M  V30 5392 H 524.226 -0.475328 -0.463637 0
M  V30 5393 H 526.756 -1.83064 -0.913717 0
M  V30 5394 H 526.766 -2.41309 -3.28989 0
M  V30 5395 H 525.441 -3.29081 -2.5432 0
M  V30 5396 H 524.018 -1.64495 -3.34658 0
M  V30 5397 N 526.204 0.969867 -1.24223 0
M  V30 5398 C 527.134 2.08191 -1.05729 0
M  V30 5399 C 528.115 1.70075 0.0290765 0
M  V30 5400 O 529.3 1.93712 -0.137583 0
M  V30 5401 C 526.43 3.40991 -0.658995 0
M  V30 5402 C 525.384 3.93054 -1.69389 0
M  V30 5403 C 524.71 5.22171 -1.15072 0
M  V30 5404 C 526.01 4.21137 -3.08935 0
M  V30 5405 H 527.704 2.23921 -1.98746 0
M  V30 5406 H 525.25 1.07602 -0.956967 0
M  V30 5407 H 527.203 4.18221 -0.51662 0
M  V30 5408 H 525.927 3.25155 0.30686 0
M  V30 5409 H 524.586 3.17977 -1.82444 0
M  V30 5410 H 524.234 5.02694 -0.175539 0
M  V30 5411 H 523.934 5.57973 -1.84229 0
M  V30 5412 H 525.458 6.02013 -1.02042 0
M  V30 5413 H 526.872 4.8908 -2.99121 0
M  V30 5414 H 525.269 4.68163 -3.75425 0
M  V30 5415 H 526.339 3.27996 -3.57137 0
M  V30 5416 N 527.682 1.05563 1.17022 0
M  V30 5417 C 528.614 0.617888 2.20714 0
M  V30 5418 C 529.627 -0.320303 1.59618 0
M  V30 5419 O 530.816 -0.112449 1.78145 0
M  V30 5420 C 527.916 -0.115333 3.38704 0
M  V30 5421 C 527.089 0.834493 4.29366 0
M  V30 5422 C 526.148 0.141855 5.26009 0
M  V30 5423 O 525.174 0.777151 5.6387 0
M  V30 5424 N 526.376 -1.11934 5.69606 0
M  V30 5425 H 529.141 1.50981 2.58892 0
M  V30 5426 H 526.702 0.938008 1.31958 0
M  V30 5427 H 528.694 -0.588918 4.00392 0
M  V30 5428 H 527.264 -0.908967 2.99093 0
M  V30 5429 H 526.484 1.48762 3.65053 0
M  V30 5430 H 527.772 1.4791 4.86827 0
M  V30 5431 H 527.17 -1.65574 5.40927 0
M  V30 5432 H 525.727 -1.53692 6.33421 0
M  V30 5433 N 529.16 -1.33526 0.837174 0
M  V30 5434 C 530.092 -2.28077 0.226579 0
M  V30 5435 C 531.105 -1.51666 -0.591717 0
M  V30 5436 O 532.294 -1.73511 -0.419064 0
M  V30 5437 C 529.394 -3.31597 -0.69978 0
M  V30 5438 C 528.567 -4.37329 0.0788067 0
M  V30 5439 C 527.626 -5.20526 -0.770637 0
M  V30 5440 O 526.652 -5.68811 -0.210453 0
M  V30 5441 N 527.854 -5.41639 -2.08825 0
M  V30 5442 H 530.619 -2.81115 1.03897 0
M  V30 5443 H 528.18 -1.46201 0.695476 0
M  V30 5444 H 530.172 -3.84158 -1.27298 0
M  V30 5445 H 528.742 -2.78848 -1.41288 0
M  V30 5446 H 527.962 -3.8529 0.833381 0
M  V30 5447 H 529.25 -5.05079 0.614238 0
M  V30 5448 H 528.648 -5.04108 -2.56693 0
M  V30 5449 H 527.205 -5.97263 -2.60998 0
M  V30 5450 N 530.638 -0.59345 -1.46 0
M  V30 5451 C 531.57 0.171569 -2.28557 0
M  V30 5452 C 532.583 0.845273 -1.39137 0
M  V30 5453 O 533.772 0.713033 -1.6364 0
M  V30 5454 C 530.872 1.26311 -3.14482 0
M  V30 5455 C 530.045 0.679258 -4.32094 0
M  V30 5456 C 529.104 1.65987 -4.99334 0
M  V30 5457 O 528.13 1.19171 -5.56585 0
M  V30 5458 N 529.332 2.99414 -4.97324 0
M  V30 5459 H 532.097 -0.536771 -2.94854 0
M  V30 5460 H 529.658 -0.431954 -1.56031 0
M  V30 5461 H 531.65 1.91863 -3.5633 0
M  V30 5462 H 530.22 1.87416 -2.50188 0
M  V30 5463 H 529.44 -0.153992 -3.93899 0
M  V30 5464 H 530.728 0.26916 -5.08088 0
M  V30 5465 H 530.126 3.40064 -4.52076 0
M  V30 5466 H 528.683 3.60426 -5.4308 0
M  V30 5467 N 532.116 1.54067 -0.331816 0
M  V30 5468 C 533.393 1.92915 0.322955 0
M  V30 5469 C 533.773 1.26225 1.69205 0
M  V30 5470 O 533.121 0.408919 2.24811 0
M  V30 5471 C 533.331 3.46619 0.406946 0
M  V30 5472 C 534.679 4.19386 0.663339 0
M  V30 5473 O 535.703 3.5282 0.489536 0
M  V30 5474 O 534.562 5.37288 0.999193 0
M  V30 5475 H 531.656 0.805808 0.186016 0
M  V30 5476 H 534.202 1.65342 -0.382135 0
M  V30 5477 H 532.974 3.87354 -0.554287 0
M  V30 5478 H 532.597 3.80324 1.15929 0
M  V30 5479 N 533.594 0.0601682 1.57485 0
M  V30 5480 C 534.84 -0.612501 1.93329 0
M  V30 5481 C 535.173 -1.6996 0.939526 0
M  V30 5482 O 534.448 -1.94472 -0.0330957 0
M  V30 5483 C 534.731 -1.20025 3.39508 0
M  V30 5484 C 534.584 -0.12059 4.49638 0
M  V30 5485 C 535.903 -2.10923 3.86264 0
M  V30 5486 H 533.022 -0.221185 0.703027 0
M  V30 5487 H 535.664 0.123768 1.89596 0
M  V30 5488 H 533.814 -1.82774 3.42821 0
M  V30 5489 H 535.486 0.51185 4.58452 0
M  V30 5490 H 533.729 0.550251 4.30296 0
M  V30 5491 H 534.4 -0.572019 5.49028 0
M  V30 5492 H 536.876 -1.58124 3.84884 0
M  V30 5493 H 535.752 -2.48987 4.8918 0
M  V30 5494 H 536.013 -3.01292 3.23536 0
M  V30 5495 N 535.072 -1.5615 -0.213296 0
M  V30 5496 C 536.3 -1.83638 -0.953139 0
M  V30 5497 C 536.715 -0.640362 -1.77609 0
M  V30 5498 O 536.072 0.391071 -1.78261 0
M  V30 5499 C 536.123 -3.09735 -1.86405 0
M  V30 5500 O 535.844 -4.24723 -1.07435 0
M  V30 5501 C 537.345 -3.5027 -2.71709 0
M  V30 5502 H 534.565 -0.610263 -0.278962 0
M  V30 5503 H 537.109 -2.03247 -0.226035 0
M  V30 5504 H 535.264 -2.92077 -2.545 0
M  V30 5505 H 535.678 -4.9641 -1.69343 0
M  V30 5506 H 537.152 -4.41515 -3.31313 0
M  V30 5507 H 537.629 -2.72406 -3.44516 0
M  V30 5508 H 538.235 -3.70396 -2.09015 0
M  V30 5509 N 536.55 0.480323 -1.50102 0
M  V30 5510 C 537.513 1.56181 -1.6775 0
M  V30 5511 C 538.513 1.51156 -0.548503 0
M  V30 5512 O 539.703 1.5394 -0.815363 0
M  V30 5513 C 536.835 2.95823 -1.69415 0
M  V30 5514 H 538.028 1.41855 -2.6423 0
M  V30 5515 H 535.581 0.70605 -1.39444 0
M  V30 5516 H 536.316 3.15604 -0.745948 0
M  V30 5517 H 536.101 3.00878 -2.51425 0
M  V30 5518 H 537.591 3.74359 -1.85054 0
M  V30 5519 N 538.028 1.39524 0.732853 0
M  V30 5520 C 539.274 1.37068 1.49467 0
M  V30 5521 C 539.607 -0.0327166 1.94172 0
M  V30 5522 O 538.882 -0.998071 1.66939 0
M  V30 5523 C 539.165 2.34494 2.73285 0
M  V30 5524 C 539.018 3.83784 2.34585 0
M  V30 5525 C 540.337 2.29717 3.75391 0
M  V30 5526 H 537.456 0.499206 0.542183 0
M  V30 5527 H 540.098 1.70532 0.837783 0
M  V30 5528 H 538.248 2.06087 3.29333 0
M  V30 5529 H 539.92 4.22949 1.84151 0
M  V30 5530 H 538.163 4.00455 1.66787 0
M  V30 5531 H 538.834 4.47444 3.23262 0
M  V30 5532 H 541.31 2.54839 3.28932 0
M  V30 5533 H 540.186 2.99962 4.59689 0
M  V30 5534 H 540.447 1.30291 4.22465 0
M  V30 5535 N 539.506 -0.963266 1.24736 0
M  V30 5536 C 540.917 -1.52145 1.08207 0
M  V30 5537 C 541.268 -1.93142 -0.345061 0
M  V30 5538 O 540.393 -1.77769 -1.23399 0
M  V30 5539 C 540.988 -2.76486 1.95808 0
M  V30 5540 C 539.547 -3.28646 1.8349 0
M  V30 5541 C 538.694 -2.01529 1.90476 0
M  V30 5542 H 541.645 -0.781083 1.38148 0
M  V30 5543 H 541.666 -3.49986 1.49297 0
M  V30 5544 H 541.178 -2.46617 2.99669 0
M  V30 5545 H 539.279 -3.63357 0.824787 0
M  V30 5546 H 539.392 -3.97246 2.67829 0
M  V30 5547 H 537.756 -2.16442 1.34258 0
M  V30 5548 H 538.539 -1.7402 2.95926 0
M  V30 5549 N 540.985 -1.06182 -1.16461 0
M  V30 5550 C 541.918 -0.615859 -2.19733 0
M  V30 5551 C 542.896 0.360766 -1.58547 0
M  V30 5552 O 544.08 0.270009 -1.86556 0
M  V30 5553 C 541.207 0.097312 -3.3856 0
M  V30 5554 C 540.253 -0.835889 -4.18229 0
M  V30 5555 S 541.086 -2.33052 -4.82128 0
M  V30 5556 C 542.242 -1.62881 -6.04335 0
M  V30 5557 H 542.475 -1.49079 -2.57221 0
M  V30 5558 H 540.008 -0.874692 -1.27234 0
M  V30 5559 H 541.966 0.502563 -4.07412 0
M  V30 5560 H 540.627 0.948418 -2.99439 0
M  V30 5561 H 539.82 -0.283426 -5.03202 0
M  V30 5562 H 539.422 -1.18097 -3.54865 0
M  V30 5563 H 541.714 -0.933764 -6.71034 0
M  V30 5564 H 542.657 -2.45641 -6.64128 0
M  V30 5565 H 543.065 -1.11189 -5.53441 0
M  V30 5566 N 542.463 1.3308 -0.844243 0
M  V30 5567 C 543.688 2.02341 -0.455282 0
M  V30 5568 C 544.113 1.6308 0.93737 0
M  V30 5569 O 543.471 0.826118 1.61385 0
M  V30 5570 C 543.519 3.55743 -0.58988 0
M  V30 5571 O 542.623 4.1063 0.38166 0
M  V30 5572 H 541.964 0.637898 -0.184343 0
M  V30 5573 H 544.494 1.6986 -1.14056 0
M  V30 5574 H 544.504 4.05243 -0.473522 0
M  V30 5575 H 543.179 3.83662 -1.60549 0
M  V30 5576 H 541.756 3.72236 0.22241 0
M  V30 5577 N 543.941 0.601185 1.45683 0
M  V30 5578 C 545.352 0.179659 1.85834 0
M  V30 5579 C 545.703 -1.26189 1.50236 0
M  V30 5580 O 544.828 -1.95587 0.925987 0
M  V30 5581 C 545.423 0.319277 3.37292 0
M  V30 5582 C 543.982 -0.0475092 3.7637 0
M  V30 5583 C 543.129 0.646692 2.69654 0
M  V30 5584 H 546.08 0.808268 1.36575 0
M  V30 5585 H 546.101 -0.4503 3.77826 0
M  V30 5586 H 545.613 1.36855 3.6317 0
M  V30 5587 H 543.714 -1.0962 3.5611 0
M  V30 5588 H 543.827 0.34168 4.7788 0
M  V30 5589 H 542.191 0.0849971 2.54558 0
M  V30 5590 H 542.974 1.69797 2.98369 0
M  V30 5591 N 545.419 -1.53889 0.339982 0
M  V30 5592 C 546.644 -2.05741 -0.261798 0
M  V30 5593 C 547.069 -1.21354 -1.43718 0
M  V30 5594 O 546.427 -0.22645 -1.7988 0
M  V30 5595 C 546.475 -3.54542 -0.658228 0
M  V30 5596 O 545.579 -3.7302 -1.75869 0
M  V30 5597 H 544.92 -0.662529 -0.0441672 0
M  V30 5598 H 547.45 -1.98568 0.493161 0
M  V30 5599 H 547.46 -3.9711 -0.936368 0
M  V30 5600 H 546.135 -4.15412 0.201358 0
M  V30 5601 H 544.712 -3.42355 -1.47809 0
M  V30 5602 N 546.897 -0.0685191 -1.57451 0
M  V30 5603 C 548.122 0.613919 -1.98106 0
M  V30 5604 C 548.547 1.62551 -0.946501 0
M  V30 5605 O 547.905 1.81085 0.0882824 0
M  V30 5606 C 547.953 1.26189 -3.378 0
M  V30 5607 O 547.057 2.37773 -3.36954 0
M  V30 5608 H 546.398 0.158163 -0.644888 0
M  V30 5609 H 548.928 -0.142063 -2.04106 0
M  V30 5610 H 548.938 1.60951 -3.74912 0
M  V30 5611 H 547.613 0.520625 -4.12629 0
M  V30 5612 H 546.19 2.04829 -3.11608 0
M  V30 5613 N 548.375 1.56261 0.205012 0
M  V30 5614 C 549.325 1.90155 1.25798 0
M  V30 5615 C 550.309 0.766227 1.41484 0
M  V30 5616 O 551.501 1.02893 1.44021 0
M  V30 5617 C 548.63 2.23603 2.60493 0
M  V30 5618 C 547.716 3.43568 2.48639 0
M  V30 5619 N 548.107 4.61747 2.06455 0
M  V30 5620 C 546.405 3.4751 2.79558 0
M  V30 5621 C 547.106 5.43907 2.06253 0
M  V30 5622 N 546.082 4.84051 2.47377 0
M  V30 5623 H 549.884 2.79031 0.922986 0
M  V30 5624 H 547.398 1.57048 0.413501 0
M  V30 5625 H 549.395 2.46067 3.36537 0
M  V30 5626 H 548.055 1.36049 2.94823 0
M  V30 5627 H 549.066 4.86598 1.77321 0
M  V30 5628 H 545.743 2.70345 3.18151 0
M  V30 5629 H 547.133 6.48542 1.75622 0
M  V30 5630 N 549.853 -0.472356 1.50355 0
M  V30 5631 C 551.078 -1.25251 1.65309 0
M  V30 5632 C 551.503 -1.85081 0.335643 0
M  V30 5633 O 550.861 -1.67227 -0.700335 0
M  V30 5634 C 550.909 -2.3379 2.74544 0
M  V30 5635 O 550.013 -3.38401 2.35709 0
M  V30 5636 H 549.354 -0.368539 0.552336 0
M  V30 5637 H 551.884 -0.562271 1.96722 0
M  V30 5638 H 551.894 -2.79121 2.97583 0
M  V30 5639 H 550.569 -1.89614 3.70161 0
M  V30 5640 H 549.146 -2.9879 2.23112 0
M  V30 5641 N 551.331 -1.39911 -0.725443 0
M  V30 5642 C 552.742 -1.33599 -1.30415 0
M  V30 5643 C 553.093 -0.00481792 -1.96199 0
M  V30 5644 O 552.218 0.897275 -1.96921 0
M  V30 5645 C 552.813 -2.41965 -2.37146 0
M  V30 5646 C 551.372 -2.39144 -2.90667 0
M  V30 5647 C 550.519 -2.23355 -1.64341 0
M  V30 5648 H 553.47 -1.4986 -0.522267 0
M  V30 5649 H 553.491 -2.09304 -3.17761 0
M  V30 5650 H 553.003 -3.38837 -1.89238 0
M  V30 5651 H 551.104 -1.4594 -3.4283 0
M  V30 5652 H 551.217 -3.34362 -3.43131 0
M  V30 5653 H 549.581 -1.70696 -1.89037 0
M  V30 5654 H 550.364 -3.2221 -1.18471 0
M  V30 5655 N 552.809 0.956637 -1.25245 0
M  V30 5656 C 553.719 2.0868 -1.0719 0
M  V30 5657 C 554.735 1.73997 -0.00959074 0
M  V30 5658 O 555.911 2.00301 -0.210104 0
M  V30 5659 C 552.976 3.39754 -0.690526 0
M  V30 5660 C 552.037 3.88316 -1.83055 0
M  V30 5661 C 551.27 5.13134 -1.46728 0
M  V30 5662 O 551.493 5.6925 -0.362029 0
M  V30 5663 O 550.427 5.56356 -2.29677 0
M  V30 5664 H 554.253 2.26813 -2.01965 0
M  V30 5665 H 551.838 1.07098 -1.04165 0
M  V30 5666 H 553.72 4.18543 -0.489871 0
M  V30 5667 H 552.395 3.22896 0.227981 0
M  V30 5668 H 551.302 3.1054 -2.08604 0
M  V30 5669 H 552.635 4.09669 -2.72822 0
M  V30 5670 N 554.287 1.06798 1.15896 0
M  V30 5671 C 555.535 0.786211 1.8618 0
M  V30 5672 C 555.856 -0.689547 1.82401 0
M  V30 5673 O 555.126 -1.49913 1.26107 0
M  V30 5674 H 553.706 0.287843 0.689315 0
M  V30 5675 H 556.368 1.35055 1.40521 0
M  V30 5676 H 555.464 1.1157 2.91477 0
M  V30 5677 N 555.766 -1.3263 0.851289 0
M  V30 5678 C 557.182 -1.50162 0.5407 0
M  V30 5679 C 557.382 -1.78788 -0.929369 0
M  V30 5680 O 556.438 -1.85545 -1.71258 0
M  V30 5681 C 557.751 -2.64803 1.42478 0
M  V30 5682 C 559.299 -2.78688 1.42485 0
M  V30 5683 C 559.774 -3.96405 2.29407 0
M  V30 5684 N 561.265 -4.0366 2.27184 0
M  V30 5685 C 562 -4.93971 2.9117 0
M  V30 5686 N 561.496 -5.89313 3.64256 0
M  V30 5687 N 563.289 -4.87066 2.80576 0
M  V30 5688 H 555.44 -1.12315 1.80275 0
M  V30 5689 H 557.703 -0.553266 0.769806 0
M  V30 5690 H 557.409 -2.50368 2.46999 0
M  V30 5691 H 557.283 -3.60506 1.10974 0
M  V30 5692 H 559.67 -2.92547 0.387304 0
M  V30 5693 H 559.751 -1.83708 1.78002 0
M  V30 5694 H 559.395 -3.83304 3.33228 0
M  V30 5695 H 559.325 -4.90654 1.91224 0
M  V30 5696 H 561.816 -3.35435 1.74045 0
M  V30 5697 H 562.129 -6.54913 4.10255 0
M  V30 5698 H 560.474 -5.8935 3.68364 0
M  V30 5699 H 563.665 -4.11552 2.23031 0
M  V30 5700 H 563.838 -5.57248 3.30725 0
M  V30 5701 N 557.244 -0.608902 -1.45362 0
M  V30 5702 C 558.655 -0.189511 -1.85736 0
M  V30 5703 C 559.006 1.2539 -1.50903 0
M  V30 5704 O 558.131 1.95094 -0.936347 0
M  V30 5705 C 558.726 -0.33716 -3.37118 0
M  V30 5706 C 557.285 0.0275487 -3.7639 0
M  V30 5707 C 556.432 -0.660983 -2.69307 0
M  V30 5708 H 559.383 -0.815499 -1.36144 0
M  V30 5709 H 559.404 0.430257 -3.7806 0
M  V30 5710 H 558.916 -1.38779 -3.62439 0
M  V30 5711 H 557.017 1.0773 -3.56686 0
M  V30 5712 H 557.13 -0.367018 -4.77692 0
M  V30 5713 H 555.494 -0.0984958 -2.54509 0
M  V30 5714 H 556.277 -1.71377 -2.97464 0
M  V30 5715 N 558.722 1.53707 -0.348139 0
M  V30 5716 C 560.133 1.86213 0.134797 0
M  V30 5717 C 560.484 1.26925 1.49614 0
M  V30 5718 O 559.609 0.584573 2.08355 0
M  V30 5719 C 560.204 3.37866 0.251371 0
M  V30 5720 C 558.763 3.70233 0.678543 0
M  V30 5721 C 557.91 2.76683 -0.184925 0
M  V30 5722 H 560.861 1.48204 -0.567571 0
M  V30 5723 H 560.882 3.64908 1.07806 0
M  V30 5724 H 560.394 3.80988 -0.739581 0
M  V30 5725 H 558.495 3.32659 1.67835 0
M  V30 5726 H 558.608 4.76836 0.465251 0
M  V30 5727 H 556.972 2.52374 0.343465 0
M  V30 5728 H 557.755 3.22635 -1.1731 0
M  V30 5729 N 560.2 0.0768682 1.57412 0
M  V30 5730 C 561.611 -0.455037 1.8107 0
M  V30 5731 C 561.962 -1.69323 0.991162 0
M  V30 5732 O 561.087 -2.15328 0.215156 0
M  V30 5733 C 561.682 -0.832316 3.28417 0
M  V30 5734 C 560.241 -1.30906 3.52903 0
M  V30 5735 C 559.388 -0.296714 2.75708 0
M  V30 5736 H 562.339 0.302514 1.5579 0
M  V30 5737 H 562.36 -1.69333 3.40744 0
M  V30 5738 H 561.872 0.0690532 3.88039 0
M  V30 5739 H 559.973 -2.22875 2.98592 0
M  V30 5740 H 560.086 -1.28348 4.61588 0
M  V30 5741 H 558.45 -0.775059 2.42621 0
M  V30 5742 H 559.233 0.597015 3.38069 0
M  V30 5743 N 561.678 -1.56367 -0.196722 0
M  V30 5744 C 562.608 -1.97442 -1.24655 0
M  V30 5745 C 563.589 -0.846147 -1.47561 0
M  V30 5746 O 564.774 -1.11035 -1.59326 0
M  V30 5747 C 561.904 -2.31253 -2.59112 0
M  V30 5748 C 560.858 -3.46804 -2.50821 0
M  V30 5749 C 560.184 -3.66286 -3.89536 0
M  V30 5750 C 561.484 -4.8104 -2.03465 0
M  V30 5751 H 563.178 -2.85388 -0.905216 0
M  V30 5752 H 560.724 -1.37304 -0.434002 0
M  V30 5753 H 562.677 -2.58583 -3.32736 0
M  V30 5754 H 561.401 -1.40188 -2.94983 0
M  V30 5755 H 560.06 -3.19563 -1.79653 0
M  V30 5756 H 559.708 -2.72555 -4.22756 0
M  V30 5757 H 559.408 -4.4402 -3.84864 0
M  V30 5758 H 560.932 -3.9599 -4.64784 0
M  V30 5759 H 562.346 -5.07411 -2.66846 0
M  V30 5760 H 560.743 -5.62232 -2.09798 0
M  V30 5761 H 561.813 -4.74732 -0.98781 0
M  V30 5762 N 563.156 0.464375 -1.50603 0
M  V30 5763 C 564.086 1.56944 -1.72889 0
M  V30 5764 C 565.067 1.59979 -0.577997 0
M  V30 5765 O 566.252 1.76138 -0.817855 0
M  V30 5766 C 563.382 2.95225 -1.8292 0
M  V30 5767 C 562.336 3.07056 -2.98162 0
M  V30 5768 C 561.662 4.47051 -2.93343 0
M  V30 5769 C 562.962 2.83648 -4.38567 0
M  V30 5770 H 564.656 1.38547 -2.65415 0
M  V30 5771 H 562.202 0.665082 -1.27721 0
M  V30 5772 H 564.155 3.72467 -1.97095 0
M  V30 5773 H 562.879 3.14793 -0.870209 0
M  V30 5774 H 561.538 2.32248 -2.83648 0
M  V30 5775 H 561.186 4.63547 -1.95276 0
M  V30 5776 H 560.886 4.55902 -3.70712 0
M  V30 5777 H 562.41 5.26304 -3.09575 0
M  V30 5778 H 563.824 3.50636 -4.53572 0
M  V30 5779 H 562.221 3.03937 -5.17438 0
M  V30 5780 H 563.291 1.79451 -4.50472 0
M  V30 5781 N 564.634 1.40294 0.718013 0
M  V30 5782 C 566.045 1.34289 1.29705 0
M  V30 5783 C 566.396 0.0152228 1.96194 0
M  V30 5784 O 565.521 -0.88682 1.97394 0
M  V30 5785 C 566.116 2.43219 2.3586 0
M  V30 5786 C 564.675 2.40682 2.89394 0
M  V30 5787 C 563.822 2.24223 1.63154 0
M  V30 5788 H 566.773 1.50135 0.514312 0
M  V30 5789 H 566.794 2.10986 3.16647 0
M  V30 5790 H 566.306 3.39836 1.87439 0
M  V30 5791 H 564.407 1.47756 3.42051 0
M  V30 5792 H 564.52 3.36177 3.41353 0
M  V30 5793 H 562.884 1.71696 1.88129 0
M  V30 5794 H 563.667 3.22834 1.16761 0
M  V30 5795 N 566.112 -0.949982 1.2575 0
M  V30 5796 C 567.36 -1.6918 1.10555 0
M  V30 5797 C 567.681 -1.91773 -0.353298 0
M  V30 5798 O 566.951 -1.50814 -1.25027 0
M  V30 5799 H 565.531 -0.626952 0.406129 0
M  V30 5800 H 568.193 -1.1419 1.57945 0
M  V30 5801 H 567.289 -2.66915 1.61749 0
M  V30 5802 N 567.59 -1.07411 -1.15328 0
M  V30 5803 C 568.838 -0.796073 -1.85761 0
M  V30 5804 C 569.159 0.679864 -1.82764 0
M  V30 5805 O 568.429 1.49242 -1.269 0
M  V30 5806 H 567.009 -0.291495 -0.687779 0
M  V30 5807 H 569.671 -1.35799 -1.39802 0
M  V30 5808 H 568.767 -1.13114 -2.90881 0
M  V30 5809 N 569.068 1.32177 -0.85831 0
M  V30 5810 C 570.479 1.79381 -0.517621 0
M  V30 5811 C 570.83 1.70841 0.964769 0
M  V30 5812 O 569.955 1.26917 1.75274 0
M  V30 5813 C 570.55 3.25706 -0.932801 0
M  V30 5814 C 569.109 3.70851 -0.643953 0
M  V30 5815 C 568.256 2.53208 -1.13054 0
M  V30 5816 H 571.207 1.19424 -1.04516 0
M  V30 5817 H 571.228 3.79673 -0.250674 0
M  V30 5818 H 570.74 3.31889 -2.01174 0
M  V30 5819 H 568.841 3.70178 0.424112 0
M  V30 5820 H 568.954 4.63495 -1.21281 0
M  V30 5821 H 567.318 2.48676 -0.550679 0
M  V30 5822 H 568.101 2.62143 -2.21666 0
M  V30 5823 N 570.547 0.616602 1.45037 0
M  V30 5824 C 571.793 0.115501 2.02471 0
M  V30 5825 C 572.126 -1.25406 1.4828 0
M  V30 5826 O 571.401 -1.82922 0.661051 0
M  V30 5827 C 571.684 0.0863588 3.59996 0
M  V30 5828 C 571.537 1.48723 4.24501 0
M  V30 5829 C 572.856 -0.596762 4.36035 0
M  V30 5830 H 569.975 0.0434461 0.735718 0
M  V30 5831 H 572.617 0.7903 1.72784 0
M  V30 5832 H 570.767 -0.488277 3.85419 0
M  V30 5833 H 572.439 2.10964 4.10234 0
M  V30 5834 H 570.682 2.04534 3.82555 0
M  V30 5835 H 571.353 1.419 5.3345 0
M  V30 5836 H 573.829 -0.10824 4.15959 0
M  V30 5837 H 572.705 -0.586289 5.4576 0
M  V30 5838 H 572.966 -1.66451 4.09569 0
M  V30 5839 N 572.025 -1.5352 0.356285 0
M  V30 5840 C 573.265 -2.03027 -0.23649 0
M  V30 5841 C 573.629 -1.23813 -1.46746 0
M  V30 5842 O 574.83 -1.63281 -2.13525 0
M  V30 5843 C 573.101 -3.53442 -0.530415 0
M  V30 5844 S 574.66 -4.24836 -1.09819 0
M  V30 5845 H 571.478 -0.707591 -0.0695378 0
M  V30 5846 H 574.08 -1.89077 0.496999 0
M  V30 5847 H 572.784 -4.087 0.373114 0
M  V30 5848 H 572.315 -3.71536 -1.29323 0
M  V30 5849 H 574.33 -4.35228 -2.38309 0
M  V30 5850 N 573.503 -0.0852151 -1.57369 0
M  V30 5851 C 574.45 0.877268 -2.13478 0
M  V30 5852 C 575.42 1.28642 -1.05073 0
M  V30 5853 O 576.605 1.36992 -1.32808 0
M  V30 5854 C 573.745 2.13464 -2.71159 0
M  V30 5855 C 572.858 1.77691 -3.93764 0
M  V30 5856 C 571.993 2.98139 -4.39643 0
M  V30 5857 C 571.032 2.58447 -5.54862 0
M  V30 5858 N 570.169 3.71698 -5.95639 0
M  V30 5859 H 575.009 0.391933 -2.95411 0
M  V30 5860 H 572.546 0.181796 -1.45972 0
M  V30 5861 H 574.504 2.87086 -3.02717 0
M  V30 5862 H 573.134 2.59514 -1.91969 0
M  V30 5863 H 572.186 0.940768 -3.68583 0
M  V30 5864 H 573.498 1.44497 -4.77412 0
M  V30 5865 H 572.652 3.80026 -4.72933 0
M  V30 5866 H 571.391 3.34536 -3.54876 0
M  V30 5867 H 570.396 1.74984 -5.21211 0
M  V30 5868 H 571.621 2.23205 -6.41371 0
M  V30 5869 H 569.567 4.07831 -5.13819 0
M  V30 5870 H 569.484 3.42317 -6.74059 0
M  V30 5871 H 570.752 4.54123 -6.33555 0
M  V30 5872 N 574.981 1.5647 0.188427 0
M  V30 5873 C 575.944 1.9421 1.21718 0
M  V30 5874 C 576.944 0.823901 1.38089 0
M  V30 5875 O 578.134 1.09122 1.35787 0
M  V30 5876 C 575.266 2.22197 2.58537 0
M  V30 5877 H 576.459 2.86252 0.894418 0
M  V30 5878 H 574.012 1.50263 0.430211 0
M  V30 5879 H 574.747 1.32814 2.95856 0
M  V30 5880 H 574.532 3.03688 2.48025 0
M  V30 5881 H 576.022 2.52376 3.3271 0
M  V30 5882 N 576.459 -0.456382 1.50847 0
M  V30 5883 C 577.422 -1.53493 1.70213 0
M  V30 5884 C 578.422 -1.50264 0.572481 0
M  V30 5885 O 579.612 -1.52623 0.839751 0
M  V30 5886 C 576.744 -2.93091 1.741 0
M  V30 5887 H 577.937 -1.37633 2.66453 0
M  V30 5888 H 575.49 -0.683776 1.4055 0
M  V30 5889 H 576.225 -3.14378 0.796063 0
M  V30 5890 H 576.01 -2.9684 2.5618 0
M  V30 5891 H 577.5 -3.71368 1.90987 0
M  V30 5892 N 577.937 -1.40673 -0.710563 0
M  V30 5893 C 578.9 -1.4108 -1.80635 0
M  V30 5894 C 579.9 -0.303783 -1.57904 0
M  V30 5895 O 581.09 -0.562937 -1.64853 0
M  V30 5896 C 578.222 -1.20748 -3.18799 0
M  V30 5897 H 579.415 -2.38612 -1.81671 0
M  V30 5898 H 576.968 -1.26595 -0.916704 0
M  V30 5899 H 577.703 -0.239964 -3.23411 0
M  V30 5900 H 577.488 -2.00941 -3.36698 0
M  V30 5901 H 578.978 -1.23833 -3.98817 0
M  V30 5902 N 579.415 0.9433 -1.26252 0
M  V30 5903 C 580.64 1.72898 -1.14547 0
M  V30 5904 C 581.065 1.85761 0.295743 0
M  V30 5905 O 580.423 1.3463 1.21427 0
M  V30 5906 C 580.471 3.11471 -1.8171 0
M  V30 5907 O 579.575 3.97336 -1.10445 0
M  V30 5908 H 578.916 0.530555 -0.399259 0
M  V30 5909 H 581.446 1.18159 -1.67032 0
M  V30 5910 H 581.456 3.61872 -1.88449 0
M  V30 5911 H 580.131 3.01425 -2.86558 0
M  V30 5912 H 578.708 3.55788 -1.11666 0
M  V30 5913 N 580.893 1.08022 1.14757 0
M  V30 5914 C 581.856 0.71048 2.1791 0
M  V30 5915 C 582.856 -0.252731 1.58801 0
M  V30 5916 O 584.046 -0.0327915 1.74169 0
M  V30 5917 C 581.178 0.0483203 3.40866 0
M  V30 5918 H 582.371 1.62384 2.52134 0
M  V30 5919 H 579.924 0.877595 1.29337 0
M  V30 5920 H 580.659 -0.876959 3.12218 0
M  V30 5921 H 580.444 0.741189 3.85031 0
M  V30 5922 H 581.934 -0.195471 4.17142 0
M  V30 5923 N 582.371 -1.3172 0.865308 0
M  V30 5924 C 583.782 -1.79104 0.527126 0
M  V30 5925 C 584.133 -1.7135 -0.955695 0
M  V30 5926 O 583.258 -1.27845 -1.74598 0
M  V30 5927 C 583.853 -3.25207 0.950061 0
M  V30 5928 C 582.412 -3.70504 0.663611 0
M  V30 5929 C 581.559 -2.52605 1.14395 0
M  V30 5930 H 584.51 -1.18868 1.05148 0
M  V30 5931 H 584.531 -3.79535 0.270805 0
M  V30 5932 H 584.043 -3.30818 2.02931 0
M  V30 5933 H 582.144 -3.70398 -0.404474 0
M  V30 5934 H 582.257 -4.62845 1.23737 0
M  V30 5935 H 580.621 -2.4838 0.563859 0
M  V30 5936 H 581.404 -2.60964 2.23053 0
M  V30 5937 N 583.85 -0.624285 -1.44708 0
M  V30 5938 C 585.075 -0.131171 -2.06985 0
M  V30 5939 C 585.5 1.18234 -1.46295 0
M  V30 5940 O 584.858 1.72375 -0.561842 0
M  V30 5941 C 584.906 -0.0226724 -3.60593 0
M  V30 5942 O 584.01 1.02314 -3.99507 0
M  V30 5943 H 583.351 -0.0816556 -0.65896 0
M  V30 5944 H 585.88 -0.859027 -1.85693 0
M  V30 5945 H 585.891 0.170138 -4.07645 0
M  V30 5946 H 584.566 -0.981685 -4.04148 0
M  V30 5947 H 583.143 0.805452 -3.64097 0
M  V30 5948 N 585.328 1.53329 -0.364422 0
M  V30 5949 C 586.553 2.06132 0.229033 0
M  V30 5950 C 586.978 1.23625 1.41769 0
M  V30 5951 O 586.336 0.255038 1.79497 0
M  V30 5952 C 586.384 3.55544 0.60174 0
M  V30 5953 O 585.488 3.75771 1.69912 0
M  V30 5954 H 584.829 0.663148 0.0336213 0
M  V30 5955 H 587.359 1.97758 -0.524689 0
M  V30 5956 H 587.369 3.98549 0.873073 0
M  V30 5957 H 586.044 4.15039 -0.267421 0
M  V30 5958 H 584.621 3.44663 1.42343 0
M  V30 5959 N 586.806 0.0935595 1.57322 0
M  V30 5960 C 587.736 -0.863062 2.16964 0
M  V30 5961 C 588.717 -1.29528 1.10256 0
M  V30 5962 O 589.902 -1.36245 1.38387 0
M  V30 5963 C 587.032 -2.12276 2.74875 0
M  V30 5964 C 585.986 -1.82921 3.86942 0
M  V30 5965 C 585.312 -3.15707 4.31548 0
M  V30 5966 C 586.612 -1.11737 5.10208 0
M  V30 5967 H 588.306 -0.366145 2.97153 0
M  V30 5968 H 585.852 -0.174673 1.42937 0
M  V30 5969 H 587.805 -2.79634 3.1525 0
M  V30 5970 H 586.529 -2.64248 1.91938 0
M  V30 5971 H 585.188 -1.17961 3.47103 0
M  V30 5972 H 584.836 -3.65563 3.45504 0
M  V30 5973 H 584.536 -2.96849 5.07104 0
M  V30 5974 H 586.06 -3.84226 4.74555 0
M  V30 5975 H 587.474 -1.69203 5.47762 0
M  V30 5976 H 585.871 -1.03064 5.91183 0
M  V30 5977 H 586.941 -0.0998818 4.84797 0
M  V30 5978 N 588.284 -1.56567 -0.180126 0
M  V30 5979 C 589.214 -1.98753 -1.22553 0
M  V30 5980 C 590.195 -0.86175 -1.46656 0
M  V30 5981 O 591.38 -1.12719 -1.58139 0
M  V30 5982 C 588.51 -2.33988 -2.56645 0
M  V30 5983 C 587.464 -3.49445 -2.47128 0
M  V30 5984 C 586.79 -3.70397 -3.8563 0
M  V30 5985 C 588.09 -4.83171 -1.98352 0
M  V30 5986 H 589.784 -2.86332 -0.874896 0
M  V30 5987 H 587.33 -1.37757 -0.419414 0
M  V30 5988 H 589.283 -2.62097 -3.29974 0
M  V30 5989 H 588.007 -1.43309 -2.93479 0
M  V30 5990 H 586.666 -3.2145 -1.76254 0
M  V30 5991 H 586.314 -2.77023 -4.19842 0
M  V30 5992 H 586.014 -4.48077 -3.80132 0
M  V30 5993 H 587.538 -4.00897 -4.60558 0
M  V30 5994 H 588.952 -5.10213 -2.61449 0
M  V30 5995 H 587.349 -5.64425 -2.03823 0
M  V30 5996 H 588.419 -4.75753 -0.937402 0
M  V30 5997 N 589.762 0.448376 -1.51087 0
M  V30 5998 C 591.039 1.20926 -1.53741 0
M  V30 5999 C 591.419 2.09025 -0.295222 0
M  V30 6000 O 590.767 2.16851 0.720283 0
M  V30 6001 C 590.977 2.02067 -2.84552 0
M  V30 6002 C 592.325 2.59486 -3.36084 0
M  V30 6003 O 593.349 2.12289 -2.86028 0
M  V30 6004 O 592.208 3.45539 -4.23397 0
M  V30 6005 H 589.302 0.549951 -0.617643 0
M  V30 6006 H 591.848 0.458344 -1.63393 0
M  V30 6007 H 590.62 1.37291 -3.66425 0
M  V30 6008 H 590.243 2.84246 -2.78011 0
M  V30 6009 N 591.24 1.41047 0.703093 0
M  V30 6010 C 592.172 1.38228 1.82827 0
M  V30 6011 C 593.185 0.285637 1.60275 0
M  V30 6012 O 594.374 0.54685 1.69917 0
M  V30 6013 C 591.474 1.13136 3.19458 0
M  V30 6014 C 590.647 2.34695 3.69103 0
M  V30 6015 C 589.706 2.05574 4.84382 0
M  V30 6016 O 588.732 2.78549 4.96386 0
M  V30 6017 N 589.934 1.04135 5.71083 0
M  V30 6018 H 592.699 2.35203 1.85741 0
M  V30 6019 H 590.26 1.35562 0.885125 0
M  V30 6020 H 592.252 0.916183 3.94193 0
M  V30 6021 H 590.822 0.247836 3.11616 0
M  V30 6022 H 590.042 2.71963 2.85359 0
M  V30 6023 H 591.33 3.15705 3.99009 0
M  V30 6024 H 590.728 0.43722 5.64008 0
M  V30 6025 H 589.285 0.886078 6.45749 0
M  V30 6026 N 592.718 -0.936591 1.26751 0
M  V30 6027 C 594.129 -1.49816 1.1141 0
M  V30 6028 C 594.48 -1.9383 -0.304015 0
M  V30 6029 O 593.605 -1.80346 -1.196 0
M  V30 6030 C 594.2 -2.72271 2.01629 0
M  V30 6031 C 592.759 -3.2468 1.9042 0
M  V30 6032 C 591.906 -1.97444 1.94708 0
M  V30 6033 H 594.857 -0.751604 1.39773 0
M  V30 6034 H 594.878 -3.46741 1.56688 0
M  V30 6035 H 594.39 -2.40205 3.04833 0
M  V30 6036 H 592.491 -3.61525 0.901674 0
M  V30 6037 H 592.604 -3.91476 2.76195 0
M  V30 6038 H 590.968 -2.13545 1.38818 0
M  V30 6039 H 591.751 -1.67703 2.9955 0
M  V30 6040 N 594.196 -1.08629 -1.14182 0
M  V30 6041 C 595.436 -0.826884 -1.86928 0
M  V30 6042 C 595.8 0.635808 -1.81167 0
M  V30 6043 O 597.001 1.0108 -2.49071 0
M  V30 6044 C 595.272 -1.33721 -3.31442 0
M  V30 6045 S 596.831 -1.21045 -4.21774 0
M  V30 6046 H 593.649 -0.299286 -0.644941 0
M  V30 6047 H 596.251 -1.38802 -1.37674 0
M  V30 6048 H 594.955 -2.39617 -3.33184 0
M  V30 6049 H 594.486 -0.771839 -3.85754 0
M  V30 6050 H 596.501 -0.156168 -4.95954 0
M  V30 6051 N 595.674 1.31259 -0.872281 0
M  V30 6052 C 596.604 2.30929 -0.345554 0
M  V30 6053 C 597.585 1.60449 0.5648 0
M  V30 6054 O 598.77 1.8814 0.481335 0
M  V30 6055 C 595.9 3.44348 0.451823 0
M  V30 6056 C 594.854 4.26435 -0.365641 0
M  V30 6057 C 594.18 5.31785 0.557562 0
M  V30 6058 C 595.48 4.97159 -1.60095 0
M  V30 6059 H 597.174 2.75234 -1.17841 0
M  V30 6060 H 594.72 1.3232 -0.568094 0
M  V30 6061 H 596.673 4.13128 0.830854 0
M  V30 6062 H 595.397 2.98816 1.31821 0
M  V30 6063 H 594.056 3.59326 -0.726649 0
M  V30 6064 H 593.704 4.82502 1.4213 0
M  V30 6065 H 593.404 5.87598 0.0144878 0
M  V30 6066 H 594.928 6.03424 0.933387 0
M  V30 6067 H 596.342 5.58523 -1.29323 0
M  V30 6068 H 594.739 5.62779 -2.08327 0
M  V30 6069 H 595.809 4.24012 -2.35249 0
M  V30 6070 N 597.152 0.631951 1.44375 0
M  V30 6071 C 598.392 0.14009 2.03919 0
M  V30 6072 C 598.756 -1.21534 1.48639 0
M  V30 6073 O 599.957 -1.79936 1.99691 0
M  V30 6074 C 598.228 0.127174 3.57174 0
M  V30 6075 S 599.787 -0.299946 4.37774 0
M  V30 6076 H 596.605 0.0614891 0.708336 0
M  V30 6077 H 599.207 0.835524 1.76746 0
M  V30 6078 H 597.911 1.11676 3.94913 0
M  V30 6079 H 597.442 -0.589482 3.88958 0
M  V30 6080 H 599.457 -1.54396 4.71568 0
M  V30 6081 N 598.631 -1.53133 0.372548 0
M  V30 6082 C 600.042 -1.86404 -0.105155 0
M  V30 6083 C 600.393 -1.29289 -1.47576 0
M  V30 6084 O 599.518 -0.617646 -2.07398 0
M  V30 6085 C 600.113 -3.38223 -0.197588 0
M  V30 6086 C 598.672 -3.71266 -0.619556 0
M  V30 6087 C 597.819 -2.76353 0.228919 0
M  V30 6088 H 600.77 -1.47282 0.591077 0
M  V30 6089 H 600.791 -3.66577 -1.01987 0
M  V30 6090 H 600.303 -3.79763 0.800099 0
M  V30 6091 H 598.404 -3.35287 -1.62522 0
M  V30 6092 H 598.517 -4.77515 -0.389332 0
M  V30 6093 H 596.881 -2.52888 -0.303271 0
M  V30 6094 H 597.664 -3.20728 1.22428 0
M  V30 6095 N 600.109 -0.101901 -1.5727 0
M  V30 6096 C 601.072 0.840129 -2.13247 0
M  V30 6097 C 602.072 1.20625 -1.06331 0
M  V30 6098 O 603.262 1.13456 -1.32186 0
M  V30 6099 C 600.394 2.13372 -2.65867 0
M  V30 6100 H 601.587 0.353945 -2.97804 0
M  V30 6101 H 599.14 0.147167 -1.55606 0
M  V30 6102 H 599.875 2.66461 -1.84849 0
M  V30 6103 H 599.66 1.88085 -3.44044 0
M  V30 6104 H 601.15 2.80748 -3.09145 0
M  V30 6105 N 601.587 1.56661 0.17182 0
M  V30 6106 C 602.998 1.71652 0.734329 0
M  V30 6107 C 603.349 0.712335 1.82812 0
M  V30 6108 O 602.474 -0.126401 2.16031 0
M  V30 6109 C 603.069 3.11226 1.3388 0
M  V30 6110 C 601.628 3.27904 1.84813 0
M  V30 6111 C 600.775 2.67603 0.726917 0
M  V30 6112 H 603.726 1.5861 -0.0535665 0
M  V30 6113 H 603.747 3.09849 2.20849 0
M  V30 6114 H 603.259 3.8429 0.54249 0
M  V30 6115 H 601.36 2.59796 2.6709 0
M  V30 6116 H 601.473 4.35637 1.99392 0
M  V30 6117 H 599.837 2.274 1.14723 0
M  V30 6118 H 600.62 3.43252 -0.0575334 0
M  V30 6119 N 603.065 -0.440357 1.51323 0
M  V30 6120 C 604.29 -1.21716 1.67928 0
M  V30 6121 C 604.715 -1.84328 0.374826 0
M  V30 6122 O 604.073 -1.68675 -0.664706 0
M  V30 6123 C 604.121 -2.27914 2.79442 0
M  V30 6124 O 603.225 -3.33325 2.42834 0
M  V30 6125 H 602.566 -0.35674 0.560029 0
M  V30 6126 H 605.096 -0.520417 1.97871 0
M  V30 6127 H 605.106 -2.72746 3.03436 0
M  V30 6128 H 603.781 -1.8172 3.741 0
M  V30 6129 H 602.358 -2.9399 2.294 0
M  V30 6130 N 604.543 -1.41418 -0.695603 0
M  V30 6131 C 605.789 -1.40982 -1.4578 0
M  V30 6132 C 606.122 -0.0187763 -1.94191 0
M  V30 6133 O 605.397 0.95346 -1.69527 0
M  V30 6134 C 605.68 -2.41657 -2.66972 0
M  V30 6135 C 605.533 -3.89869 -2.24327 0
M  V30 6136 C 606.852 -2.39589 -3.69168 0
M  V30 6137 H 603.971 -0.513405 -0.528757 0
M  V30 6138 H 606.613 -1.72693 -0.792275 0
M  V30 6139 H 604.763 -2.14746 -3.23754 0
M  V30 6140 H 606.435 -4.27683 -1.72872 0
M  V30 6141 H 604.678 -4.04737 -1.56111 0
M  V30 6142 H 605.349 -4.55857 -3.11285 0
M  V30 6143 H 607.825 -2.63471 -3.2206 0
M  V30 6144 H 606.701 -3.12044 -4.51575 0
M  V30 6145 H 606.962 -1.41447 -4.18862 0
M  V30 6146 N 606.021 0.929856 -1.27246 0
M  V30 6147 C 607.437 1.20542 -1.04603 0
M  V30 6148 C 607.637 2.00276 0.221754 0
M  V30 6149 O 606.693 2.34835 0.927833 0
M  V30 6150 C 608.006 1.95566 -2.28417 0
M  V30 6151 C 609.554 2.08513 -2.33433 0
M  V30 6152 C 610.029 2.86943 -3.5697 0
M  V30 6153 N 611.52 2.94512 -3.57515 0
M  V30 6154 C 612.255 3.55656 -4.49774 0
M  V30 6155 N 611.751 4.18209 -5.52334 0
M  V30 6156 N 613.544 3.53038 -4.37402 0
M  V30 6157 H 605.695 0.397113 -2.08655 0
M  V30 6158 H 607.958 0.238277 -0.917566 0
M  V30 6159 H 607.664 1.44395 -3.20691 0
M  V30 6160 H 607.538 2.9619 -2.33563 0
M  V30 6161 H 609.925 2.58872 -1.41666 0
M  V30 6162 H 610.006 1.07117 -2.32292 0
M  V30 6163 H 609.65 2.37268 -4.49072 0
M  V30 6164 H 609.58 3.8862 -3.55362 0
M  V30 6165 H 612.071 2.50053 -2.83341 0
M  V30 6166 H 612.384 4.62796 -6.18902 0
M  V30 6167 H 610.729 4.16761 -5.56179 0
M  V30 6168 H 613.92 3.0337 -3.56489 0
M  V30 6169 H 614.093 4.004 -5.09493 0
M  V30 6170 N 607.499 1.09233 1.13605 0
M  V30 6171 C 608.727 0.848908 1.88683 0
M  V30 6172 C 609.142 -0.599667 1.79024 0
M  V30 6173 O 608.499 -1.41265 1.15544 0
M  V30 6174 C 608.55 1.27273 3.38355 0
M  V30 6175 O 608.271 2.66449 3.47759 0
M  V30 6176 C 609.772 1.0614 4.30406 0
M  V30 6177 H 606.992 0.305549 0.597395 0
M  V30 6178 H 609.536 1.4538 1.43823 0
M  V30 6179 H 607.691 0.711776 3.80805 0
M  V30 6180 H 608.105 2.84264 4.40788 0
M  V30 6181 H 609.579 1.40725 5.33761 0
M  V30 6182 H 610.056 -0.000960332 4.392 0
M  V30 6183 H 610.662 1.60821 3.93722 0
M  V30 6184 N 608.977 -1.30795 0.87923 0
M  V30 6185 C 609.94 -2.26563 0.346676 0
M  V30 6186 C 610.94 -1.52578 -0.507597 0
M  V30 6187 O 612.13 -1.71318 -0.315575 0
M  V30 6188 C 609.262 -3.37115 -0.506611 0
M  V30 6189 H 610.455 -2.75183 1.19223 0
M  V30 6190 H 608.008 -1.41886 0.655598 0
M  V30 6191 H 608.743 -2.93802 -1.37299 0
M  V30 6192 H 608.528 -3.91959 0.105218 0
M  V30 6193 H 610.018 -4.08412 -0.871192 0
M  V30 6194 N 610.455 -0.639598 -1.44038 0
M  V30 6195 C 611.701 -0.147698 -2.02261 0
M  V30 6196 C 612.034 1.23031 -1.50256 0
M  V30 6197 O 611.309 1.81847 -0.690068 0
M  V30 6198 C 611.592 -0.14362 -3.59813 0
M  V30 6199 C 611.445 -1.55458 -4.22082 0
M  V30 6200 C 612.764 0.527317 -4.36929 0
M  V30 6201 H 609.883 -0.0551453 -0.734934 0
M  V30 6202 H 612.525 -0.817688 -1.71505 0
M  V30 6203 H 610.675 0.426898 -3.86147 0
M  V30 6204 H 612.347 -2.17464 -4.06826 0
M  V30 6205 H 610.59 -2.10594 -3.79253 0
M  V30 6206 H 611.261 -1.50369 -5.31124 0
M  V30 6207 H 613.737 0.0420504 -4.16079 0
M  V30 6208 H 612.613 0.499389 -5.46624 0
M  V30 6209 H 612.874 1.59914 -4.12165 0
M  V30 6210 N 611.933 1.52934 -0.380664 0
M  V30 6211 C 612.896 2.24809 0.446473 0
M  V30 6212 C 613.896 1.26133 0.997347 0
M  V30 6213 O 615.086 1.50297 0.880714 0
M  V30 6214 C 612.218 2.99649 1.62553 0
M  V30 6215 H 613.411 2.99343 -0.182677 0
M  V30 6216 H 610.964 1.55736 -0.132618 0
M  V30 6217 H 611.699 2.29395 2.29235 0
M  V30 6218 H 611.484 3.72066 1.23732 0
M  V30 6219 H 612.974 3.54246 2.21133 0
M  V30 6220 N 613.412 0.11024 1.57214 0
M  V30 6221 C 614.342 -0.840002 2.17867 0
M  V30 6222 C 615.323 -1.28352 1.11624 0
M  V30 6223 O 616.508 -1.3477 1.39824 0
M  V30 6224 C 613.638 -2.09349 2.77111 0
M  V30 6225 C 612.592 -1.78807 3.8886 0
M  V30 6226 C 611.918 -3.11112 4.34872 0
M  V30 6227 C 613.218 -1.0632 5.11364 0
M  V30 6228 H 614.912 -0.334608 2.97524 0
M  V30 6229 H 612.458 -0.159502 1.43114 0
M  V30 6230 H 614.411 -2.76275 3.18198 0
M  V30 6231 H 613.135 -2.62198 1.9473 0
M  V30 6232 H 611.794 -1.14273 3.48335 0
M  V30 6233 H 611.442 -3.61877 3.49362 0
M  V30 6234 H 611.142 -2.91453 5.10224 0
M  V30 6235 H 612.666 -3.79171 4.78604 0
M  V30 6236 H 614.08 -1.63383 5.49526 0
M  V30 6237 H 612.477 -0.967876 5.92243 0
M  V30 6238 H 613.547 -0.0484569 4.84876 0
M  V30 6239 N 614.89 -1.56749 -0.16351 0
M  V30 6240 C 616.118 -1.86577 -0.894233 0
M  V30 6241 C 616.533 -0.696543 -1.75481 0
M  V30 6242 O 615.89 0.334161 -1.79415 0
M  V30 6243 C 615.941 -3.15508 -1.76456 0
M  V30 6244 O 615.662 -4.27926 -0.938685 0
M  V30 6245 C 617.163 -3.58737 -2.60428 0
M  V30 6246 H 614.383 -0.618829 -0.259405 0
M  V30 6247 H 616.927 -2.03863 -0.161259 0
M  V30 6248 H 615.082 -3.00025 -2.45079 0
M  V30 6249 H 615.496 -5.01546 -1.53465 0
M  V30 6250 H 616.97 -4.51832 -3.17099 0
M  V30 6251 H 617.447 -2.83229 -3.35675 0
M  V30 6252 H 618.053 -3.76858 -1.97125 0
M  V30 6253 N 616.368 0.432326 -1.51554 0
M  V30 6254 C 617.596 1.20364 -1.68286 0
M  V30 6255 C 618.011 1.84888 -0.38233 0
M  V30 6256 O 617.368 1.70924 0.639627 0
M  V30 6257 C 617.419 2.28398 -2.80208 0
M  V30 6258 O 617.14 1.66512 -4.05223 0
M  V30 6259 C 618.641 3.18584 -3.08251 0
M  V30 6260 H 615.861 0.36259 -0.564596 0
M  V30 6261 H 618.405 0.511647 -1.97996 0
M  V30 6262 H 616.56 2.93305 -2.53083 0
M  V30 6263 H 616.974 2.37951 -4.67418 0
M  V30 6264 H 618.448 3.90511 -3.90135 0
M  V30 6265 H 618.925 3.79628 -2.2086 0
M  V30 6266 H 619.531 2.59372 -3.37055 0
M  V30 6267 N 617.846 1.41785 0.688094 0
M  V30 6268 C 619.257 1.3701 1.26828 0
M  V30 6269 C 619.608 0.056835 1.96118 0
M  V30 6270 O 618.733 -0.84475 1.99231 0
M  V30 6271 C 619.328 2.48168 2.30648 0
M  V30 6272 C 617.887 2.46766 2.84224 0
M  V30 6273 C 617.034 2.27633 1.58361 0
M  V30 6274 H 619.985 1.51192 0.482351 0
M  V30 6275 H 620.006 2.17655 3.121 0
M  V30 6276 H 619.518 3.43735 1.80188 0
M  V30 6277 H 617.619 1.54978 3.3884 0
M  V30 6278 H 617.732 3.43342 3.34145 0
M  V30 6279 H 616.096 1.75648 1.84445 0
M  V30 6280 H 616.879 3.25238 1.09887 0
M  V30 6281 N 619.324 -0.923095 1.27737 0
M  V30 6282 C 620.601 -1.64989 1.05062 0
M  V30 6283 C 620.981 -2.07018 -0.413124 0
M  V30 6284 O 620.329 -1.80797 -1.39731 0
M  V30 6285 C 620.539 -2.84847 2.01652 0
M  V30 6286 C 621.887 -3.56083 2.31279 0
M  V30 6287 O 622.911 -2.94981 1.99662 0
M  V30 6288 O 621.77 -4.66182 2.85196 0
M  V30 6289 H 618.864 -0.723357 0.400853 0
M  V30 6290 H 621.41 -0.973224 1.3902 0
M  V30 6291 H 620.182 -2.50814 3.00347 0
M  V30 6292 H 619.805 -3.60231 1.68284 0
M  V30 6293 N 620.802 -1.09834 -1.13024 0
M  V30 6294 C 622.051 -0.831806 -1.83749 0
M  V30 6295 C 622.364 0.644763 -1.84668 0
M  V30 6296 O 623.57 1.02697 -2.51327 0
M  V30 6297 C 622.026 -1.43817 -3.29916 0
M  V30 6298 C 621.634 -2.94759 -3.37374 0
M  V30 6299 C 623.378 -1.25077 -4.05655 0
M  V30 6300 C 621.285 -3.48461 -4.77838 0
M  V30 6301 H 620.215 -0.30751 -0.688443 0
M  V30 6302 H 622.866 -1.32156 -1.27307 0
M  V30 6303 H 621.248 -0.876106 -3.86187 0
M  V30 6304 H 622.422 -3.57228 -2.91076 0
M  V30 6305 H 620.737 -3.12581 -2.75103 0
M  V30 6306 H 623.334 -1.62649 -5.09362 0
M  V30 6307 H 623.677 -0.191782 -4.15858 0
M  V30 6308 H 624.21 -1.78057 -3.55725 0
M  V30 6309 H 620.949 -4.53998 -4.72828 0
M  V30 6310 H 620.469 -2.90757 -5.24615 0
M  V30 6311 H 622.148 -3.45914 -5.46766 0
M  V30 6312 N 622.28 1.30327 -0.886154 0
M  V30 6313 C 623.508 2.00254 -0.520176 0
M  V30 6314 C 623.923 1.66419 0.891637 0
M  V30 6315 O 623.28 0.901951 1.58654 0
M  V30 6316 C 623.331 3.54916 -0.686775 0
M  V30 6317 O 623.052 3.87547 -2.04301 0
M  V30 6318 C 624.553 4.42115 -0.323945 0
M  V30 6319 H 621.773 0.640204 -0.200947 0
M  V30 6320 H 624.317 1.66183 -1.19178 0
M  V30 6321 H 622.472 3.8735 -0.0625273 0
M  V30 6322 H 622.886 4.82247 -2.06249 0
M  V30 6323 H 624.36 5.49808 -0.491407 0
M  V30 6324 H 624.837 4.32953 0.73811 0
M  V30 6325 H 625.443 4.15129 -0.924565 0
M  V30 6326 N 623.758 0.647228 1.43697 0
M  V30 6327 C 624.688 -0.0345631 2.33474 0
M  V30 6328 C 625.669 -0.818193 1.4913 0
M  V30 6329 O 626.854 -0.780867 1.77809 0
M  V30 6330 C 623.984 -1.00576 3.32418 0
M  V30 6331 C 622.938 -0.33266 4.26705 0
M  V30 6332 C 622.264 -1.41489 5.1564 0
M  V30 6333 C 623.564 0.771204 5.16575 0
M  V30 6334 H 625.258 0.715163 2.90733 0
M  V30 6335 H 622.804 0.345364 1.39797 0
M  V30 6336 H 624.757 -1.49159 3.94119 0
M  V30 6337 H 623.481 -1.78657 2.73403 0
M  V30 6338 H 622.14 0.13267 3.6636 0
M  V30 6339 H 621.788 -2.18698 4.52968 0
M  V30 6340 H 621.488 -0.969799 5.79542 0
M  V30 6341 H 623.012 -1.9022 5.80214 0
M  V30 6342 H 624.426 0.36779 5.72119 0
M  V30 6343 H 622.823 1.1404 5.89165 0
M  V30 6344 H 623.893 1.63169 4.56622 0
M  V30 6345 N 625.236 -1.5273 0.388769 0
M  V30 6346 C 626.482 -2.01871 -0.193877 0
M  V30 6347 C 626.815 -1.27475 -1.46505 0
M  V30 6348 O 626.09 -0.375063 -1.90849 0
M  V30 6349 C 626.373 -3.5712 -0.462336 0
M  V30 6350 C 626.226 -4.42186 0.824091 0
M  V30 6351 C 627.545 -4.21881 -1.25319 0
M  V30 6352 H 624.664 -0.733764 -0.0689899 0
M  V30 6353 H 627.306 -1.82796 0.518231 0
M  V30 6354 H 625.456 -3.73504 -1.06896 0
M  V30 6355 H 627.128 -4.37554 1.46096 0
M  V30 6356 H 625.371 -4.09219 1.43952 0
M  V30 6357 H 626.042 -5.48828 0.590905 0
M  V30 6358 H 628.518 -4.0947 -0.73981 0
M  V30 6359 H 627.394 -5.30487 -1.40977 0
M  V30 6360 H 627.655 -3.79478 -2.26824 0
M  V30 6361 N 626.714 -0.118576 -1.57153 0
M  V30 6362 C 627.644 0.828436 -2.1831 0
M  V30 6363 C 628.625 1.27758 -1.12303 0
M  V30 6364 O 629.81 1.34026 -1.40537 0
M  V30 6365 C 626.94 2.07876 -2.78217 0
M  V30 6366 C 625.894 1.76742 -3.89803 0
M  V30 6367 C 625.22 3.08801 -4.36516 0
M  V30 6368 C 626.52 1.03606 -5.11921 0
M  V30 6369 H 628.214 0.318824 -2.97698 0
M  V30 6370 H 625.76 0.151911 -1.43196 0
M  V30 6371 H 627.713 2.74584 -3.19659 0
M  V30 6372 H 626.437 2.61161 -1.96118 0
M  V30 6373 H 625.096 1.12424 -3.48936 0
M  V30 6374 H 624.744 3.6002 -3.51276 0
M  V30 6375 H 624.444 2.88743 -5.11763 0
M  V30 6376 H 625.968 3.76627 -4.80608 0
M  V30 6377 H 627.382 1.60467 -5.50385 0
M  V30 6378 H 625.779 0.936454 -5.92748 0
M  V30 6379 H 626.849 0.0227421 -4.84895 0
M  V30 6380 N 628.193 1.56834 0.155195 0
M  V30 6381 C 629.604 1.72421 0.716082 0
M  V30 6382 C 629.955 0.731685 1.82046 0
M  V30 6383 O 629.08 -0.103481 2.16152 0
M  V30 6384 C 629.675 3.12629 1.30571 0
M  V30 6385 C 628.234 3.29846 1.81325 0
M  V30 6386 C 627.381 2.68359 0.698494 0
M  V30 6387 H 630.332 1.58544 -0.0703861 0
M  V30 6388 H 630.353 3.12174 2.1755 0
M  V30 6389 H 629.865 3.84844 0.501701 0
M  V30 6390 H 627.966 2.62614 2.64319 0
M  V30 6391 H 628.079 4.37727 1.9476 0
M  V30 6392 H 626.443 2.28604 1.12305 0
M  V30 6393 H 627.226 3.43171 -0.0939366 0
M  V30 6394 N 629.671 -0.424282 1.51781 0
M  V30 6395 C 631.082 -1.00368 1.57427 0
M  V30 6396 C 631.433 -1.91962 0.40558 0
M  V30 6397 O 630.558 -2.111 -0.47601 0
M  V30 6398 C 631.153 -1.82707 2.85313 0
M  V30 6399 C 629.712 -2.35675 2.93487 0
M  V30 6400 C 628.859 -1.1524 2.5222 0
M  V30 6401 H 631.81 -0.205064 1.5737 0
M  V30 6402 H 631.831 -2.68294 2.69812 0
M  V30 6403 H 631.343 -1.16017 3.70353 0
M  V30 6404 H 629.444 -3.05781 2.12906 0
M  V30 6405 H 629.557 -2.67578 3.97415 0
M  V30 6406 H 627.921 -1.50174 2.05718 0
M  V30 6407 H 628.704 -0.5014 3.39619 0
M  V30 6408 N 631.149 -1.42148 -0.680565 0
M  V30 6409 C 632.426 -1.32795 -1.43614 0
M  V30 6410 C 632.806 0.037415 -2.11067 0
M  V30 6411 O 632.154 1.05258 -2.02813 0
M  V30 6412 C 632.364 -2.49206 -2.44331 0
M  V30 6413 C 633.712 -2.91059 -3.09144 0
M  V30 6414 O 634.736 -2.49054 -2.54657 0
M  V30 6415 O 633.595 -3.63741 -4.07866 0
M  V30 6416 H 630.689 -0.523397 -0.640301 0
M  V30 6417 H 633.235 -1.54144 -0.709775 0
M  V30 6418 H 632.007 -3.40252 -1.93247 0
M  V30 6419 H 631.63 -2.29813 -3.24456 0
M  V30 6420 N 632.627 0.916307 -1.28225 0
M  V30 6421 C 633.873 1.66765 -1.154 0
M  V30 6422 C 634.206 1.91912 0.297251 0
M  V30 6423 O 633.481 1.51766 1.21644 0
M  V30 6424 C 633.764 3.02715 -1.95028 0
M  V30 6425 C 633.617 2.84738 -3.48201 0
M  V30 6426 C 634.936 4.03215 -1.76369 0
M  V30 6427 H 632.055 0.605205 -0.42059 0
M  V30 6428 H 634.697 1.06255 -1.57512 0
M  V30 6429 H 632.847 3.54365 -1.59242 0
M  V30 6430 H 634.519 2.40118 -3.9388 0
M  V30 6431 H 632.762 2.19848 -3.73964 0
M  V30 6432 H 633.433 3.8127 -3.99171 0
M  V30 6433 H 635.909 3.60617 -2.07593 0
M  V30 6434 H 634.785 4.96306 -2.34459 0
M  V30 6435 H 635.046 4.36288 -0.71452 0
M  V30 6436 N 634.105 1.10431 1.1244 0
M  V30 6437 C 635.354 0.841539 1.83306 0
M  V30 6438 C 635.667 -0.634961 1.85007 0
M  V30 6439 O 636.873 -1.01363 2.51869 0
M  V30 6440 C 635.329 1.45565 3.29149 0
M  V30 6441 C 634.937 2.96544 3.35806 0
M  V30 6442 C 636.681 1.27227 4.04986 0
M  V30 6443 C 634.588 3.5099 4.75983 0
M  V30 6444 H 633.518 0.311156 0.686803 0
M  V30 6445 H 636.169 1.32829 1.26604 0
M  V30 6446 H 634.551 0.896574 3.85717 0
M  V30 6447 H 635.725 3.58766 2.89177 0
M  V30 6448 H 634.04 3.14036 2.73442 0
M  V30 6449 H 636.637 1.65348 5.08492 0
M  V30 6450 H 636.98 0.213834 4.1575 0
M  V30 6451 H 637.513 1.79941 3.54776 0
M  V30 6452 H 634.252 4.56499 4.70413 0
M  V30 6453 H 633.772 2.93535 5.23065 0
M  V30 6454 H 635.451 3.48808 5.44924 0
M  V30 6455 N 635.583 -1.29855 0.893053 0
M  V30 6456 C 636.515 -2.26911 0.32311 0
M  V30 6457 C 637.528 -1.54039 -0.526858 0
M  V30 6458 O 638.717 -1.75132 -0.345095 0
M  V30 6459 C 635.817 -3.34266 -0.558509 0
M  V30 6460 C 634.99 -4.36601 0.264222 0
M  V30 6461 C 634.049 -5.23326 -0.549171 0
M  V30 6462 O 633.075 -5.69192 0.0309883 0
M  V30 6463 N 634.277 -5.50008 -1.85664 0
M  V30 6464 H 637.042 -2.76455 1.15726 0
M  V30 6465 H 634.603 -1.4312 0.756859 0
M  V30 6466 H 636.595 -3.89211 -1.1089 0
M  V30 6467 H 635.165 -2.8459 -1.29334 0
M  V30 6468 H 634.385 -3.81409 0.996046 0
M  V30 6469 H 635.673 -5.02019 0.827906 0
M  V30 6470 H 635.071 -5.14542 -2.35081 0
M  V30 6471 H 633.628 -6.07796 -2.35431 0
M  V30 6472 N 637.061 -0.65484 -1.43351 0
M  V30 6473 C 637.993 0.0744757 -2.29079 0
M  V30 6474 C 639.006 0.7855 -1.42596 0
M  V30 6475 O 640.195 0.642986 -1.66517 0
M  V30 6476 C 637.295 1.12859 -3.19556 0
M  V30 6477 C 636.468 0.495381 -4.34586 0
M  V30 6478 C 635.527 1.44659 -5.05925 0
M  V30 6479 O 634.553 0.954567 -5.61139 0
M  V30 6480 N 635.755 2.78051 -5.09576 0
M  V30 6481 H 638.52 -0.661346 -2.92312 0
M  V30 6482 H 636.081 -0.497744 -1.54059 0
M  V30 6483 H 638.073 1.76577 -3.64147 0
M  V30 6484 H 636.643 1.76636 -2.57912 0
M  V30 6485 H 635.863 -0.32092 -3.92892 0
M  V30 6486 H 637.151 0.0534203 -5.08772 0
M  V30 6487 H 636.549 3.20584 -4.66093 0
M  V30 6488 H 635.106 3.37068 -5.57878 0
M  V30 6489 N 638.539 1.52521 -0.396863 0
M  V30 6490 C 639.449 2.30403 0.44178 0
M  V30 6491 C 640.465 1.37625 1.06468 0
M  V30 6492 O 641.641 1.70697 1.06886 0
M  V30 6493 C 638.706 3.1013 1.54986 0
M  V30 6494 C 637.767 4.18628 0.951279 0
M  V30 6495 C 637 4.94543 2.00655 0
M  V30 6496 O 637.223 4.70629 3.22281 0
M  V30 6497 O 636.157 5.797 1.61962 0
M  V30 6498 H 639.983 3.03087 -0.192892 0
M  V30 6499 H 637.568 1.48537 -0.16038 0
M  V30 6500 H 639.45 3.59816 2.19341 0
M  V30 6501 H 638.125 2.40251 2.16935 0
M  V30 6502 H 637.032 3.73119 0.270773 0
M  V30 6503 H 638.365 4.90763 0.375887 0
M  V30 6504 N 640.017 0.126909 1.57088 0
M  V30 6505 C 640.98 -0.806097 2.14557 0
M  V30 6506 C 641.98 -1.18918 1.08236 0
M  V30 6507 O 643.17 -1.11339 1.33975 0
M  V30 6508 C 640.302 -2.09116 2.69227 0
M  V30 6509 H 641.495 -0.306522 2.98329 0
M  V30 6510 H 639.048 -0.122393 1.5582 0
M  V30 6511 H 639.783 -2.63486 1.89065 0
M  V30 6512 H 639.568 -1.82588 3.46993 0
M  V30 6513 H 641.058 -2.75794 3.13572 0
M  V30 6514 N 641.495 -1.56914 -0.146875 0
M  V30 6515 C 642.72 -1.87881 -0.878386 0
M  V30 6516 C 643.145 -0.715945 -1.73942 0
M  V30 6517 O 642.503 0.334447 -1.78189 0
M  V30 6518 C 642.551 -3.17431 -1.71084 0
M  V30 6519 O 641.655 -3.01374 -2.81509 0
M  V30 6520 H 640.996 -0.617289 -0.244644 0
M  V30 6521 H 643.526 -2.04136 -0.137654 0
M  V30 6522 H 643.536 -3.49455 -2.10582 0
M  V30 6523 H 642.211 -4.01671 -1.07856 0
M  V30 6524 H 640.788 -2.80758 -2.45416 0
M  V30 6525 N 642.974 0.416227 -1.52004 0
M  V30 6526 C 643.937 1.48926 -1.74223 0
M  V30 6527 C 644.937 1.48693 -0.612119 0
M  V30 6528 O 646.127 1.50343 -0.879921 0
M  V30 6529 C 643.259 2.88372 -1.81809 0
M  V30 6530 H 644.452 1.3052 -2.70008 0
M  V30 6531 H 642.005 0.646271 -1.42313 0
M  V30 6532 H 642.74 3.12157 -0.879135 0
M  V30 6533 H 642.525 2.89944 -2.6396 0
M  V30 6534 H 644.015 3.66173 -2.00766 0
M  V30 6535 N 644.452 1.42507 0.673017 0
M  V30 6536 C 645.382 1.48916 1.79851 0
M  V30 6537 C 646.363 0.345566 1.66553 0
M  V30 6538 O 647.548 0.560116 1.85947 0
M  V30 6539 C 644.678 1.39258 3.18158 0
M  V30 6540 C 643.632 2.51662 3.46194 0
M  V30 6541 C 642.958 2.27062 4.84094 0
M  V30 6542 C 644.258 3.93968 3.42909 0
M  V30 6543 H 645.952 2.43114 1.74745 0
M  V30 6544 H 643.498 1.17013 0.839288 0
M  V30 6545 H 645.451 1.42349 3.96629 0
M  V30 6546 H 644.175 0.415542 3.23946 0
M  V30 6547 H 642.834 2.47891 2.70084 0
M  V30 6548 H 642.482 1.27648 4.86534 0
M  V30 6549 H 642.182 3.02398 5.03815 0
M  V30 6550 H 643.706 2.31905 5.64847 0
M  V30 6551 H 645.12 3.99332 4.11347 0
M  V30 6552 H 643.517 4.6917 3.74165 0
M  V30 6553 H 644.587 4.20512 2.41449 0
M  V30 6554 N 645.93 -0.909495 1.28709 0
M  V30 6555 C 647.346 -1.18862 1.06508 0
M  V30 6556 C 647.546 -2.00604 -0.189864 0
M  V30 6557 O 646.602 -2.36281 -0.890355 0
M  V30 6558 C 647.915 -1.91908 2.31499 0
M  V30 6559 C 649.463 -2.04773 2.36721 0
M  V30 6560 C 649.938 -2.81228 3.6149 0
M  V30 6561 N 651.429 -2.88787 3.62155 0
M  V30 6562 C 652.164 -3.48455 4.55375 0
M  V30 6563 N 651.66 -4.09369 5.58918 0
M  V30 6564 N 653.453 -3.46035 4.42963 0
M  V30 6565 H 645.604 -0.363867 2.0926 0
M  V30 6566 H 647.867 -0.223649 0.921241 0
M  V30 6567 H 647.573 -1.39275 3.22948 0
M  V30 6568 H 647.447 -2.92436 2.38245 0
M  V30 6569 H 649.834 -2.56585 1.45767 0
M  V30 6570 H 649.915 -1.03408 2.33967 0
M  V30 6571 H 649.559 -2.30094 4.5279 0
M  V30 6572 H 649.489 -3.82917 3.61499 0
M  V30 6573 H 651.98 -2.45514 2.87283 0
M  V30 6574 H 652.293 -4.52891 6.26187 0
M  V30 6575 H 650.638 -4.0786 5.62739 0
M  V30 6576 H 653.829 -2.9766 3.6127 0
M  V30 6577 H 654.002 -3.92244 5.15799 0
M  V30 6578 N 647.408 -1.11026 -1.11852 0
M  V30 6579 C 648.318 -0.777252 -2.2135 0
M  V30 6580 C 649.334 0.227821 -1.72502 0
M  V30 6581 O 650.51 0.0650587 -2.01295 0
M  V30 6582 C 647.575 -0.220668 -3.45997 0
M  V30 6583 C 646.636 -1.2838 -4.09655 0
M  V30 6584 C 645.869 -0.753678 -5.28352 0
M  V30 6585 O 646.092 0.417779 -5.68868 0
M  V30 6586 O 645.026 -1.51647 -5.82483 0
M  V30 6587 H 648.852 -1.69141 -2.5224 0
M  V30 6588 H 646.437 -0.885836 -1.20305 0
M  V30 6589 H 648.319 0.0855756 -4.21313 0
M  V30 6590 H 646.994 0.666262 -3.16769 0
M  V30 6591 H 645.901 -1.64299 -3.3609 0
M  V30 6592 H 647.234 -2.14396 -4.43052 0
M  V30 6593 N 648.886 1.2938 -0.899927 0
M  V30 6594 C 649.796 2.31462 -0.382437 0
M  V30 6595 C 650.812 1.65956 0.522929 0
M  V30 6596 O 651.988 1.97131 0.412454 0
M  V30 6597 C 649.053 3.44595 0.381472 0
M  V30 6598 C 648.114 4.25692 -0.555444 0
M  V30 6599 C 647.347 5.33422 0.172102 0
M  V30 6600 O 647.57 5.53053 1.396 0
M  V30 6601 O 646.504 5.99939 -0.485491 0
M  V30 6602 H 650.33 2.77706 -1.22934 0
M  V30 6603 H 647.915 1.33821 -0.664259 0
M  V30 6604 H 649.797 4.13474 0.813442 0
M  V30 6605 H 648.472 3.00458 1.20443 0
M  V30 6606 H 647.379 3.59453 -1.03653 0
M  V30 6607 H 648.712 4.73471 -1.34483 0
M  V30 6608 N 650.364 0.662433 1.43002 0
M  V30 6609 C 651.592 0.187615 2.06048 0
M  V30 6610 C 652.007 -1.15039 1.49705 0
M  V30 6611 O 651.364 -1.71209 0.631956 0
M  V30 6612 C 651.415 0.100498 3.6136 0
M  V30 6613 O 651.136 1.38562 4.15611 0
M  V30 6614 C 652.637 -0.399298 4.41498 0
M  V30 6615 H 649.857 0.0941675 0.664359 0
M  V30 6616 H 652.401 0.905681 1.83351 0
M  V30 6617 H 650.556 -0.568181 3.83211 0
M  V30 6618 H 650.97 1.25084 5.09366 0
M  V30 6619 H 652.444 -0.409187 5.50481 0
M  V30 6620 H 652.921 -1.43232 4.15188 0
M  V30 6621 H 653.527 0.23721 4.24638 0
M  V30 6622 N 651.842 -1.52309 0.404946 0
M  V30 6623 C 652.752 -2.30634 -0.429555 0
M  V30 6624 C 653.768 -1.38187 -1.05737 0
M  V30 6625 O 654.944 -1.71261 -1.05979 0
M  V30 6626 C 652.009 -3.10947 -1.53339 0
M  V30 6627 C 651.07 -4.19126 -0.929065 0
M  V30 6628 C 650.303 -4.95601 -1.9803 0
M  V30 6629 O 650.526 -4.72331 -3.1978 0
M  V30 6630 O 649.46 -5.80551 -1.58886 0
M  V30 6631 H 653.286 -3.0298 0.208963 0
M  V30 6632 H 650.871 -1.4845 0.168255 0
M  V30 6633 H 652.753 -3.60974 -2.1743 0
M  V30 6634 H 651.428 -2.41399 -2.15658 0
M  V30 6635 H 650.335 -3.73257 -0.250982 0
M  V30 6636 H 651.668 -4.90955 -0.349855 0
M  V30 6637 N 653.32 -0.135238 -1.57019 0
M  V30 6638 C 654.283 0.794707 -2.14981 0
M  V30 6639 C 655.283 1.18342 -1.08866 0
M  V30 6640 O 656.473 1.10627 -1.34563 0
M  V30 6641 C 653.605 2.07685 -2.70333 0
M  V30 6642 H 654.798 0.290696 -2.98488 0
M  V30 6643 H 652.351 0.114128 -1.55883 0
M  V30 6644 H 653.086 2.6248 -1.9046 0
M  V30 6645 H 652.871 1.80745 -3.47957 0
M  V30 6646 H 654.361 2.74127 -3.1503 0
M  V30 6647 N 654.798 1.5699 0.138552 0
M  V30 6648 C 656.044 1.84966 0.846116 0
M  V30 6649 C 656.399 0.72038 1.78405 0
M  V30 6650 O 655.692 -0.281076 1.89527 0
M  V30 6651 C 655.886 3.17007 1.65049 0
M  V30 6652 C 655.715 4.42672 0.79194 0
M  V30 6653 C 654.485 5.03254 0.454293 0
M  V30 6654 C 656.683 5.14164 0.118419 0
M  V30 6655 N 654.665 6.12482 -0.416964 0
M  V30 6656 C 656.036 6.16966 -0.61263 0
M  V30 6657 C 658.091 4.97884 0.0399671 0
M  V30 6658 C 656.794 7.0525 -1.41473 0
M  V30 6659 C 658.82 5.86639 -0.748901 0
M  V30 6660 C 658.182 6.88929 -1.4682 0
M  V30 6661 H 654.281 0.727362 0.287172 0
M  V30 6662 H 656.865 1.94383 0.110972 0
M  V30 6663 H 655.036 3.08722 2.35681 0
M  V30 6664 H 656.768 3.3286 2.30187 0
M  V30 6665 H 653.523 4.6693 0.792038 0
M  V30 6666 H 653.947 6.7172 -0.843865 0
M  V30 6667 H 658.589 4.18779 0.581728 0
M  V30 6668 H 656.307 7.83777 -1.96772 0
M  V30 6669 H 659.893 5.7611 -0.811705 0
M  V30 6670 H 658.773 7.56419 -2.06882 0
M  V30 6671 N 656.276 -0.40816 1.52223 0
M  V30 6672 C 657.239 -1.48 1.7501 0
M  V30 6673 C 658.239 -1.48367 0.619996 0
M  V30 6674 O 659.429 -1.49874 0.887881 0
M  V30 6675 C 656.561 -2.87403 1.83336 0
M  V30 6676 H 657.754 -1.29086 2.70697 0
M  V30 6677 H 655.307 -0.638715 1.42654 0
M  V30 6678 H 656.042 -3.11686 0.895677 0
M  V30 6679 H 655.827 -2.8854 2.65494 0
M  V30 6680 H 657.317 -3.65103 2.02705 0
M  V30 6681 N 657.755 -1.42862 -0.66545 0
M  V30 6682 C 659.171 -1.25993 -0.979687 0
M  V30 6683 C 659.371 -0.170831 -2.00775 0
M  V30 6684 O 658.427 0.454827 -2.4837 0
M  V30 6685 C 659.74 -2.62005 -1.47559 0
M  V30 6686 C 661.288 -2.69437 -1.59288 0
M  V30 6687 C 661.763 -4.05838 -2.12272 0
M  V30 6688 N 663.254 -4.0784 -2.19592 0
M  V30 6689 C 663.989 -5.10205 -2.61684 0
M  V30 6690 N 663.485 -6.22949 -3.03161 0
M  V30 6691 N 665.278 -4.9756 -2.61516 0
M  V30 6692 H 657.429 -2.12395 0.0150493 0
M  V30 6693 H 659.692 -0.946355 -0.0558187 0
M  V30 6694 H 659.398 -3.42605 -0.794654 0
M  V30 6695 H 659.272 -2.86566 -2.45275 0
M  V30 6696 H 661.659 -1.89178 -2.26486 0
M  V30 6697 H 661.74 -2.48655 -0.600374 0
M  V30 6698 H 661.384 -4.86559 -1.4568 0
M  V30 6699 H 661.314 -4.23977 -3.12331 0
M  V30 6700 H 663.805 -3.26452 -1.90361 0
M  V30 6701 H 664.118 -6.96899 -3.33993 0
M  V30 6702 H 662.463 -6.2644 -3.00995 0
M  V30 6703 H 665.654 -4.08551 -2.28481 0
M  V30 6704 H 665.827 -5.77468 -2.93999 0
M  V30 6705 N 659.233 0.902656 -1.29189 0
M  V30 6706 C 660.644 1.46809 -1.15343 0
M  V30 6707 C 660.995 1.94568 0.252517 0
M  V30 6708 O 660.12 1.83454 1.14777 0
M  V30 6709 C 660.715 2.66829 -2.08776 0
M  V30 6710 C 659.274 3.19518 -1.98961 0
M  V30 6711 C 658.421 1.92212 -1.99874 0
M  V30 6712 H 661.372 0.714282 -1.41717 0
M  V30 6713 H 661.393 3.42465 -1.65826 0
M  V30 6714 H 660.905 2.32039 -3.11094 0
M  V30 6715 H 659.006 3.59008 -0.99721 0
M  V30 6716 H 659.119 3.84016 -2.86477 0
M  V30 6717 H 657.483 2.0979 -1.44431 0
M  V30 6718 H 658.266 1.59702 -3.03891 0
M  V30 6719 N 660.711 1.11618 1.11262 0
M  V30 6720 C 661.661 0.745274 2.15475 0
M  V30 6721 C 662.645 -0.251585 1.58921 0
M  V30 6722 O 663.837 -0.0584093 1.76904 0
M  V30 6723 C 660.966 0.192128 3.42762 0
M  V30 6724 C 660.052 1.21676 4.0627 0
M  V30 6725 N 660.443 2.41158 4.44608 0
M  V30 6726 C 658.741 1.06013 4.33217 0
M  V30 6727 C 659.442 3.0652 4.94389 0
M  V30 6728 N 658.418 2.33994 4.9066 0
M  V30 6729 H 662.22 1.65462 2.42898 0
M  V30 6730 H 659.734 0.995695 1.28295 0
M  V30 6731 H 661.731 -0.0917339 4.16799 0
M  V30 6732 H 660.391 -0.711778 3.16802 0
M  V30 6733 H 661.402 2.786 4.3658 0
M  V30 6734 H 658.079 0.212809 4.16957 0
M  V30 6735 H 659.469 4.08225 5.33669 0
M  V30 6736 N 662.189 -1.289 0.906776 0
M  V30 6737 C 663.099 -2.31256 0.394707 0
M  V30 6738 C 664.115 -1.66231 -0.514121 0
M  V30 6739 O 665.291 -1.97347 -0.401994 0
M  V30 6740 C 662.356 -3.44792 -0.363191 0
M  V30 6741 C 661.417 -4.25391 0.578012 0
M  V30 6742 C 660.65 -5.33506 -0.143811 0
M  V30 6743 O 660.873 -5.53786 -1.36665 0
M  V30 6744 O 659.807 -5.99673 0.5173 0
M  V30 6745 H 663.633 -2.77051 1.24405 0
M  V30 6746 H 661.218 -1.33466 0.671346 0
M  V30 6747 H 663.1 -4.139 -0.791503 0
M  V30 6748 H 661.775 -3.01093 -1.18848 0
M  V30 6749 H 660.682 -3.58899 1.05558 0
M  V30 6750 H 662.015 -4.72752 1.36992 0
M  V30 6751 N 663.667 -0.670007 -1.42649 0
M  V30 6752 C 664.892 -0.196955 -2.06463 0
M  V30 6753 C 665.317 1.1352 -1.49983 0
M  V30 6754 O 664.675 1.705 -0.616397 0
M  V30 6755 C 664.723 -0.137381 -3.60338 0
M  V30 6756 O 663.827 0.895523 -4.02559 0
M  V30 6757 H 663.168 -0.102579 -0.656029 0
M  V30 6758 H 665.698 -0.917669 -1.82866 0
M  V30 6759 H 665.708 0.0403625 -4.0798 0
M  V30 6760 H 664.383 -1.10977 -4.0082 0
M  V30 6761 H 662.96 0.689209 -3.66476 0
M  V30 6762 N 665.145 1.52092 -0.413018 0
M  V30 6763 C 666.075 2.30021 0.401567 0
M  V30 6764 C 667.056 1.34395 1.04269 0
M  V30 6765 O 668.241 1.63304 1.05097 0
M  V30 6766 C 665.371 3.12447 1.51638 0
M  V30 6767 C 664.325 4.16153 1.00005 0
M  V30 6768 C 663.651 4.86948 2.20875 0
M  V30 6769 C 664.951 5.22275 0.0513757 0
M  V30 6770 H 666.645 2.98365 -0.248704 0
M  V30 6771 H 664.191 1.4349 -0.121052 0
M  V30 6772 H 666.144 3.65733 2.09326 0
M  V30 6773 H 664.868 2.41879 2.19458 0
M  V30 6774 H 663.527 3.63882 0.445549 0
M  V30 6775 H 663.175 4.12905 2.8726 0
M  V30 6776 H 662.875 5.57057 1.86978 0
M  V30 6777 H 664.399 5.43048 2.79162 0
M  V30 6778 H 665.813 5.70778 0.537176 0
M  V30 6779 H 664.21 5.9977 -0.198977 0
M  V30 6780 H 665.28 4.76611 -0.892736 0
M  V30 6781 N 666.623 0.143563 1.56945 0
M  V30 6782 C 667.586 -0.783295 2.154 0
M  V30 6783 C 668.586 -1.17763 1.09492 0
M  V30 6784 O 669.776 -1.09912 1.35148 0
M  V30 6785 C 666.908 -2.06248 2.7143 0
M  V30 6786 H 668.101 -0.274863 2.98638 0
M  V30 6787 H 665.654 -0.105859 1.55941 0
M  V30 6788 H 666.389 -2.61466 1.91849 0
M  V30 6789 H 666.174 -1.78897 3.4891 0
M  V30 6790 H 667.664 -2.72453 3.16479 0
M  V30 6791 N 668.101 -1.57061 -0.130224 0
M  V30 6792 C 669.517 -1.52103 -0.483413 0
M  V30 6793 C 669.717 -0.854752 -1.82473 0
M  V30 6794 O 668.773 -0.432342 -2.48771 0
M  V30 6795 C 670.086 -2.96872 -0.47825 0
M  V30 6796 C 671.634 -3.07902 -0.562592 0
M  V30 6797 C 672.109 -4.54211 -0.587929 0
M  V30 6798 N 673.6 -4.58621 -0.649684 0
M  V30 6799 C 674.335 -5.69227 -0.690551 0
M  V30 6800 N 673.831 -6.89358 -0.689743 0
M  V30 6801 N 675.624 -5.57304 -0.732708 0
M  V30 6802 H 667.775 -1.98764 0.748779 0
M  V30 6803 H 670.038 -0.907248 0.274965 0
M  V30 6804 H 669.744 -3.48944 0.439444 0
M  V30 6805 H 669.618 -3.53716 -1.31013 0
M  V30 6806 H 672.005 -2.5584 -1.47071 0
M  V30 6807 H 672.086 -2.54073 0.296764 0
M  V30 6808 H 671.73 -5.06915 0.316096 0
M  V30 6809 H 671.66 -5.0584 -1.46401 0
M  V30 6810 H 674.151 -3.72146 -0.656927 0
M  V30 6811 H 674.464 -7.69408 -0.723239 0
M  V30 6812 H 672.809 -6.91884 -0.657347 0
M  V30 6813 H 676 -4.62363 -0.730625 0
M  V30 6814 H 676.173 -6.43515 -0.76109 0
M  V30 6815 N 669.579 0.400081 -1.52437 0
M  V30 6816 C 670.489 1.51253 -1.79331 0
M  V30 6817 C 671.505 1.60188 -0.679396 0
M  V30 6818 O 672.681 1.76733 -0.965791 0
M  V30 6819 C 669.746 2.869 -1.94652 0
M  V30 6820 C 668.807 2.87777 -3.18564 0
M  V30 6821 C 668.04 4.16954 -3.33145 0
M  V30 6822 O 668.263 5.11329 -2.52783 0
M  V30 6823 O 667.197 4.2487 -4.26343 0
M  V30 6824 H 671.023 1.31461 -2.73773 0
M  V30 6825 H 668.608 0.586834 -1.37392 0
M  V30 6826 H 670.49 3.67336 -2.065 0
M  V30 6827 H 669.165 3.06741 -1.034 0
M  V30 6828 H 668.072 2.06162 -3.12167 0
M  V30 6829 H 669.405 2.72886 -4.09627 0
M  V30 6830 N 671.057 1.43213 0.657864 0
M  V30 6831 C 671.967 1.50448 1.80007 0
M  V30 6832 C 672.983 0.39191 1.69529 0
M  V30 6833 O 674.159 0.645349 1.90781 0
M  V30 6834 C 671.224 1.42062 3.16258 0
M  V30 6835 C 670.285 2.63951 3.38568 0
M  V30 6836 C 669.518 2.55956 4.68318 0
M  V30 6837 O 669.741 1.60473 5.47361 0
M  V30 6838 O 668.675 3.46378 4.92245 0
M  V30 6839 H 672.501 2.4689 1.76858 0
M  V30 6840 H 670.086 1.25163 0.81576 0
M  V30 6841 H 671.968 1.3981 3.97531 0
M  V30 6842 H 670.643 0.487524 3.20008 0
M  V30 6843 H 669.55 2.71776 2.57077 0
M  V30 6844 H 670.883 3.56217 3.39662 0
M  V30 6845 N 672.536 -0.895792 1.29666 0
M  V30 6846 C 673.499 -1.98189 1.15124 0
M  V30 6847 C 674.499 -1.60572 0.0855717 0
M  V30 6848 O 675.689 -1.70991 0.332826 0
M  V30 6849 C 672.821 -3.32289 0.761372 0
M  V30 6850 H 674.014 -2.12518 2.11603 0
M  V30 6851 H 671.567 -1.0808 1.12908 0
M  V30 6852 H 672.302 -3.23662 -0.203393 0
M  V30 6853 H 672.087 -3.60958 1.53139 0
M  V30 6854 H 673.577 -4.1198 0.682792 0
M  V30 6855 N 674.014 -1.12206 -1.10668 0
M  V30 6856 C 674.944 -0.810086 -2.18997 0
M  V30 6857 C 675.925 0.225065 -1.68604 0
M  V30 6858 O 677.11 0.086783 -1.94006 0
M  V30 6859 C 674.24 -0.261262 -3.46316 0
M  V30 6860 C 673.194 -1.2292 -4.09969 0
M  V30 6861 C 672.52 -0.540713 -5.31959 0
M  V30 6862 C 673.82 -2.58295 -4.53962 0
M  V30 6863 H 675.514 -1.7159 -2.45352 0
M  V30 6864 H 673.06 -0.82646 -1.17922 0
M  V30 6865 H 675.013 -0.0307522 -4.21389 0
M  V30 6866 H 673.737 0.679879 -3.19445 0
M  V30 6867 H 672.396 -1.44548 -3.369 0
M  V30 6868 H 672.044 0.405492 -5.01363 0
M  V30 6869 H 671.744 -1.18637 -5.75499 0
M  V30 6870 H 673.268 -0.319184 -6.09765 0
M  V30 6871 H 674.682 -2.40709 -5.20319 0
M  V30 6872 H 673.079 -3.18916 -5.08343 0
M  V30 6873 H 674.149 -3.16918 -3.67002 0
M  V30 6874 N 675.492 1.28418 -0.913599 0
M  V30 6875 C 676.72 1.99106 -0.562536 0
M  V30 6876 C 677.135 1.68273 0.856137 0
M  V30 6877 O 676.492 0.935401 1.56705 0
M  V30 6878 C 676.543 3.5338 -0.761903 0
M  V30 6879 O 676.264 3.83127 -2.12475 0
M  V30 6880 C 677.765 4.41328 -0.417651 0
M  V30 6881 H 674.985 0.635798 -0.214481 0
M  V30 6882 H 677.529 1.63618 -1.22676 0
M  V30 6883 H 675.684 3.8713 -0.144676 0
M  V30 6884 H 676.098 4.77763 -2.16431 0
M  V30 6885 H 677.572 5.48642 -0.607919 0
M  V30 6886 H 678.049 4.34422 0.646108 0
M  V30 6887 H 678.655 4.13074 -1.01241 0
M  V30 6888 N 676.97 0.677563 1.42291 0
M  V30 6889 C 677.933 0.0101085 2.29198 0
M  V30 6890 C 678.933 -0.726219 1.43467 0
M  V30 6891 O 680.123 -0.563807 1.64824 0
M  V30 6892 C 677.255 -0.996316 3.26016 0
M  V30 6893 H 678.448 0.775071 2.89711 0
M  V30 6894 H 676.001 0.440065 1.49977 0
M  V30 6895 H 676.736 -1.78967 2.70446 0
M  V30 6896 H 676.521 -0.471687 3.89253 0
M  V30 6897 H 678.011 -1.46167 3.91184 0
M  V30 6898 N 678.448 -1.51871 0.421078 0
M  V30 6899 C 679.378 -2.30231 -0.389363 0
M  V30 6900 C 680.359 -1.34946 -1.03555 0
M  V30 6901 O 681.544 -1.63859 -1.04229 0
M  V30 6902 C 678.674 -3.13247 -1.49979 0
M  V30 6903 C 677.628 -4.16677 -0.977966 0
M  V30 6904 C 676.954 -4.88112 -2.1829 0
M  V30 6905 C 678.254 -5.22295 -0.0236775 0
M  V30 6906 H 679.948 -2.98229 0.264524 0
M  V30 6907 H 677.494 -1.43424 0.12866 0
M  V30 6908 H 679.447 -3.66838 -2.07383 0
M  V30 6909 H 678.171 -2.4304 -2.18173 0
M  V30 6910 H 676.83 -3.64114 -0.426245 0
M  V30 6911 H 676.478 -4.14423 -2.85066 0
M  V30 6912 H 676.178 -5.58041 -1.84021 0
M  V30 6913 H 677.702 -5.44521 -2.76278 0
M  V30 6914 H 679.116 -5.71055 -0.506899 0
M  V30 6915 H 677.513 -5.99656 0.230782 0
M  V30 6916 H 678.583 -4.76131 0.917999 0
M  V30 6917 N 679.926 -0.151884 -1.56866 0
M  V30 6918 C 681.174 0.497021 -1.95893 0
M  V30 6919 C 681.495 1.65078 -1.03799 0
M  V30 6920 O 680.765 1.95642 -0.10049 0
M  V30 6921 H 679.345 0.186603 -0.723318 0
M  V30 6922 H 682.007 -0.228525 -1.93556 0
M  V30 6923 H 681.103 0.869933 -2.99731 0
M  V30 6924 N 681.404 1.57128 0.121893 0
M  V30 6925 C 682.351 2.0013 1.14964 0
M  V30 6926 C 683.321 0.872959 1.4131 0
M  V30 6927 O 684.506 1.13696 1.53225 0
M  V30 6928 C 681.646 2.40824 2.4718 0
M  V30 6929 C 680.759 3.67061 2.27794 0
M  V30 6930 C 679.894 3.96749 3.53219 0
M  V30 6931 C 678.933 5.16178 3.28978 0
M  V30 6932 N 678.07 5.41751 4.46599 0
M  V30 6933 H 682.91 2.8772 0.775947 0
M  V30 6934 H 680.447 1.42328 0.371652 0
M  V30 6935 H 682.405 2.62454 3.24305 0
M  V30 6936 H 681.035 1.56279 2.82448 0
M  V30 6937 H 680.087 3.53063 1.416 0
M  V30 6938 H 681.399 4.5434 2.05857 0
M  V30 6939 H 680.553 4.19012 4.38764 0
M  V30 6940 H 679.292 3.07941 3.78185 0
M  V30 6941 H 678.297 4.93762 2.41824 0
M  V30 6942 H 679.522 6.06561 3.05386 0
M  V30 6943 H 677.468 4.55899 4.71691 0
M  V30 6944 H 677.385 6.23347 4.27756 0
M  V30 6945 H 678.653 5.68531 5.33285 0
M  V30 6946 N 682.882 -0.391992 1.52647 0
M  V30 6947 C 683.812 -1.48517 1.8018 0
M  V30 6948 C 684.793 -1.57039 0.653667 0
M  V30 6949 O 685.978 -1.72036 0.900962 0
M  V30 6950 C 683.108 -2.86161 1.96797 0
M  V30 6951 C 682.062 -2.92481 3.12472 0
M  V30 6952 C 681.388 -4.32546 3.14338 0
M  V30 6953 C 682.688 -2.624 4.51601 0
M  V30 6954 H 684.382 -1.25726 2.71723 0
M  V30 6955 H 681.928 -0.603387 1.30749 0
M  V30 6956 H 683.881 -3.62639 2.14641 0
M  V30 6957 H 682.605 -3.10283 1.01941 0
M  V30 6958 H 681.264 -2.18451 2.94406 0
M  V30 6959 H 680.912 -4.53703 2.1717 0
M  V30 6960 H 680.612 -4.37695 3.92042 0
M  V30 6961 H 682.136 -5.10934 3.34333 0
M  V30 6962 H 683.55 -3.28596 4.69785 0
M  V30 6963 H 681.947 -2.78903 5.3135 0
M  V30 6964 H 683.017 -1.57754 4.58521 0
M  V30 6965 N 684.36 -1.4356 -0.65026 0
M  V30 6966 C 685.29 -1.51758 -1.77459 0
M  V30 6967 C 686.271 -0.372019 -1.65982 0
M  V30 6968 O 687.456 -0.589627 -1.85033 0
M  V30 6969 C 684.586 -1.44302 -3.15902 0
M  V30 6970 C 683.54 -2.57138 -3.42146 0
M  V30 6971 C 682.866 -2.34735 -4.8042 0
M  V30 6972 C 684.166 -3.99373 -3.36598 0
M  V30 6973 H 685.86 -2.45863 -1.70855 0
M  V30 6974 H 683.406 -1.18333 -0.820566 0
M  V30 6975 H 685.359 -1.48641 -3.94314 0
M  V30 6976 H 684.083 -0.467026 -3.23244 0
M  V30 6977 H 682.742 -2.52157 -2.66106 0
M  V30 6978 H 682.39 -1.35372 -4.84441 0
M  V30 6979 H 682.09 -3.10375 -4.9894 0
M  V30 6980 H 683.614 -2.40862 -5.61086 0
M  V30 6981 H 685.028 -4.05826 -4.04942 0
M  V30 6982 H 683.425 -4.75063 -3.66654 0
M  V30 6983 H 684.495 -4.243 -2.34729 0
M  V30 6984 N 685.838 0.888903 -1.30139 0
M  V30 6985 C 687.068 1.67115 -1.21474 0
M  V30 6986 C 687.476 1.87852 0.225472 0
M  V30 6987 O 686.819 1.42324 1.16145 0
M  V30 6988 C 686.881 3.0713 -1.86846 0
M  V30 6989 C 686.545 3.09582 -3.36167 0
M  V30 6990 C 687.542 2.88929 -4.32222 0
M  V30 6991 C 685.227 3.31304 -3.77549 0
M  V30 6992 C 687.221 2.89949 -5.67634 0
M  V30 6993 C 684.908 3.31954 -5.13079 0
M  V30 6994 C 685.906 3.113 -6.07932 0
M  V30 6995 O 685.594 3.11758 -7.40987 0
M  V30 6996 H 685.326 0.528372 -0.421662 0
M  V30 6997 H 687.88 1.11919 -1.7223 0
M  V30 6998 H 686.11 3.63973 -1.30615 0
M  V30 6999 H 687.799 3.6749 -1.72354 0
M  V30 7000 H 688.565 2.71948 -4.01584 0
M  V30 7001 H 684.444 3.46417 -3.04165 0
M  V30 7002 H 687.988 2.73746 -6.41645 0
M  V30 7003 H 683.885 3.48469 -5.43359 0
M  V30 7004 H 684.653 3.27951 -7.49927 0
M  V30 7005 N 687.317 1.12792 1.10072 0
M  V30 7006 C 688.247 0.821688 2.18565 0
M  V30 7007 C 689.228 -0.21612 1.68721 0
M  V30 7008 O 690.413 -0.0764932 1.94049 0
M  V30 7009 C 687.543 0.279624 3.46172 0
M  V30 7010 C 686.497 1.25092 4.09312 0
M  V30 7011 C 685.823 0.568916 5.31665 0
M  V30 7012 C 687.123 2.60699 4.52585 0
M  V30 7013 H 688.817 1.72888 2.44438 0
M  V30 7014 H 686.363 0.832702 1.17482 0
M  V30 7015 H 688.316 0.053099 4.21367 0
M  V30 7016 H 687.04 -0.662929 3.19801 0
M  V30 7017 H 685.699 1.46332 3.36129 0
M  V30 7018 H 685.347 -0.378898 5.01571 0
M  V30 7019 H 685.047 1.21687 5.74862 0
M  V30 7020 H 686.571 0.351517 6.09587 0
M  V30 7021 H 687.985 2.43465 5.19035 0
M  V30 7022 H 686.382 3.21608 5.06644 0
M  V30 7023 H 687.452 3.1886 3.65317 0
M  V30 7024 N 688.795 -1.27931 0.920396 0
M  V30 7025 C 689.725 -2.29487 0.431024 0
M  V30 7026 C 690.706 -1.62435 -0.504861 0
M  V30 7027 O 691.891 -1.89797 -0.411176 0
M  V30 7028 C 689.021 -3.45788 -0.323709 0
M  V30 7029 C 687.975 -4.24784 0.523658 0
M  V30 7030 C 687.301 -5.33488 -0.359809 0
M  V30 7031 C 688.601 -4.90874 1.78437 0
M  V30 7032 H 690.295 -2.70671 1.27975 0
M  V30 7033 H 687.841 -1.30121 0.616813 0
M  V30 7034 H 689.794 -4.15927 -0.676952 0
M  V30 7035 H 688.518 -3.03502 -1.2064 0
M  V30 7036 H 687.177 -3.56382 0.85951 0
M  V30 7037 H 686.825 -4.87445 -1.24124 0
M  V30 7038 H 686.525 -5.87247 0.203605 0
M  V30 7039 H 688.049 -6.06472 -0.708787 0
M  V30 7040 H 689.463 -5.53339 1.49963 0
M  V30 7041 H 687.86 -5.54659 2.29071 0
M  V30 7042 H 688.93 -4.14988 2.50824 0
M  V30 7043 N 690.273 -0.685099 -1.4193 0
M  V30 7044 C 691.55 -0.140152 -1.95097 0
M  V30 7045 C 691.93 1.34745 -1.62502 0
M  V30 7046 O 691.278 2.08872 -0.926534 0
M  V30 7047 C 691.488 -0.420268 -3.4646 0
M  V30 7048 C 692.836 -0.342338 -4.23218 0
M  V30 7049 O 693.86 -0.354592 -3.54431 0
M  V30 7050 O 692.719 -0.293404 -5.45712 0
M  V30 7051 H 689.813 -0.00885998 -0.826953 0
M  V30 7052 H 692.359 -0.760539 -1.51703 0
M  V30 7053 H 691.131 -1.45037 -3.63428 0
M  V30 7054 H 690.754 0.231616 -3.96925 0
M  V30 7055 N 691.751 1.51645 -0.429126 0
M  V30 7056 C 692.999 2.01616 0.139802 0
M  V30 7057 C 693.32 1.31568 1.43927 0
M  V30 7058 O 692.59 0.447688 1.90716 0
M  V30 7059 H 691.17 0.744998 0.054654 0
M  V30 7060 H 693.832 1.8638 -0.569952 0
M  V30 7061 H 692.928 3.10439 0.321609 0
M  V30 7062 N 693.229 0.160201 1.56784 0
M  V30 7063 C 694.162 -0.812797 2.13234 0
M  V30 7064 C 695.14 -1.2335 1.05942 0
M  V30 7065 O 696.324 -1.32725 1.33852 0
M  V30 7066 C 693.451 -2.09311 2.66283 0
M  V30 7067 C 692.497 -1.8173 3.85845 0
M  V30 7068 S 693.33 -0.996473 5.26147 0
M  V30 7069 C 694.486 -2.28769 5.82594 0
M  V30 7070 H 694.719 -0.332794 2.95432 0
M  V30 7071 H 692.252 -0.0542971 1.54304 0
M  V30 7072 H 694.21 -2.82854 2.97496 0
M  V30 7073 H 692.871 -2.54425 1.84192 0
M  V30 7074 H 692.064 -2.76699 4.21253 0
M  V30 7075 H 691.666 -1.16289 3.55462 0
M  V30 7076 H 693.958 -3.24319 5.9483 0
M  V30 7077 H 694.901 -1.97846 6.79899 0
M  V30 7078 H 695.309 -2.40021 5.10931 0
M  V30 7079 N 694.707 -1.5719 -0.113559 0
M  V30 7080 C 695.637 -2.03772 -1.14013 0
M  V30 7081 C 696.618 -0.923176 -1.42869 0
M  V30 7082 O 697.803 -1.19325 -1.53216 0
M  V30 7083 C 694.933 -2.44663 -2.4649 0
M  V30 7084 C 693.887 -3.59612 -2.32085 0
M  V30 7085 C 693.213 -3.8642 -3.69573 0
M  V30 7086 C 694.513 -4.91149 -1.7768 0
M  V30 7087 H 696.207 -2.89785 -0.752665 0
M  V30 7088 H 693.753 -1.39412 -0.360609 0
M  V30 7089 H 695.706 -2.75857 -3.18561 0
M  V30 7090 H 694.43 -1.55628 -2.87137 0
M  V30 7091 H 693.089 -3.28636 -1.62461 0
M  V30 7092 H 692.737 -2.94581 -4.07715 0
M  V30 7093 H 692.437 -4.63797 -3.60786 0
M  V30 7094 H 693.961 -4.2007 -4.4314 0
M  V30 7095 H 695.375 -5.20843 -2.39574 0
M  V30 7096 H 693.772 -5.72562 -1.79701 0
M  V30 7097 H 694.842 -4.79301 -0.734776 0
M  V30 7098 N 696.185 0.383891 -1.52853 0
M  V30 7099 C 697.462 1.14296 -1.58732 0
M  V30 7100 C 697.842 2.07585 -0.383611 0
M  V30 7101 O 697.19 2.1971 0.627661 0
M  V30 7102 C 697.4 1.89816 -2.92867 0
M  V30 7103 C 698.748 2.44998 -3.46787 0
M  V30 7104 O 699.772 1.99966 -2.94774 0
M  V30 7105 O 698.631 3.2727 -4.37672 0
M  V30 7106 H 695.725 0.52326 -0.640413 0
M  V30 7107 H 698.271 0.388631 -1.6519 0
M  V30 7108 H 697.043 1.21626 -3.71918 0
M  V30 7109 H 696.666 2.72199 -2.89816 0
M  V30 7110 N 697.663 1.43903 0.642637 0
M  V30 7111 C 698.911 1.45791 1.39962 0
M  V30 7112 C 699.232 0.0873144 1.94804 0
M  V30 7113 O 698.502 -0.878825 1.75081 0
M  V30 7114 H 697.082 0.536797 0.519479 0
M  V30 7115 H 699.744 1.7959 0.757189 0
M  V30 7116 H 698.84 2.17665 2.2367 0
M  V30 7117 N 699.141 -0.881989 1.30609 0
M  V30 7118 C 700.073 -1.99375 1.13058 0
M  V30 7119 C 701.086 -1.62636 0.0729879 0
M  V30 7120 O 702.275 -1.75621 0.319301 0
M  V30 7121 C 699.375 -3.31536 0.702651 0
M  V30 7122 C 698.548 -3.96693 1.84265 0
M  V30 7123 C 697.607 -5.07158 1.40277 0
M  V30 7124 O 696.633 -5.28628 2.11048 0
M  V30 7125 N 697.835 -5.79808 0.283449 0
M  V30 7126 H 700.6 -2.14981 2.08814 0
M  V30 7127 H 698.161 -1.05526 1.22784 0
M  V30 7128 H 700.153 -4.02804 0.391331 0
M  V30 7129 H 698.723 -3.12175 -0.162954 0
M  V30 7130 H 697.943 -3.1856 2.32192 0
M  V30 7131 H 699.231 -4.36964 2.60653 0
M  V30 7132 H 698.629 -5.64871 -0.306189 0
M  V30 7133 H 697.186 -6.51792 0.0315985 0
M  V30 7134 N 700.619 -1.13374 -1.09472 0
M  V30 7135 C 701.865 -0.896516 -1.81908 0
M  V30 7136 C 702.198 0.575933 -1.85463 0
M  V30 7137 O 701.473 1.42618 -1.32251 0
M  V30 7138 C 701.756 -1.48445 -3.28079 0
M  V30 7139 C 701.609 -3.02598 -3.32798 0
M  V30 7140 C 702.928 -1.15226 -4.24748 0
M  V30 7141 H 700.047 -0.327127 -0.660422 0
M  V30 7142 H 702.689 -1.40195 -1.2824 0
M  V30 7143 H 700.839 -1.0546 -3.73912 0
M  V30 7144 H 702.511 -3.54335 -2.95372 0
M  V30 7145 H 700.754 -3.37613 -2.72397 0
M  V30 7146 H 701.425 -3.38835 -4.3577 0
M  V30 7147 H 703.901 -1.52369 -3.87199 0
M  V30 7148 H 702.777 -1.59012 -5.25363 0
M  V30 7149 H 703.038 -0.0658891 -4.42051 0
M  V30 7150 N 702.098 1.27442 -0.927168 0
M  V30 7151 C 703.046 2.28844 -0.416333 0
M  V30 7152 C 704.04 1.61882 0.499057 0
M  V30 7153 O 705.246 1.75969 0.378817 0
M  V30 7154 H 701.621 0.742989 -0.116065 0
M  V30 7155 H 703.592 2.69344 -1.28438 0
M  V30 7156 C 702.341 3.4626 0.316107 0
M  V30 7157 H 701.664 3.97999 -0.379082 0
M  V30 7158 H 703.104 4.19173 0.637975 0
M  V30 7159 C 701.563 3.00211 1.5289 0
M  V30 7160 O 702.093 3.03837 2.62766 0
M  V30 7161 N 700.299 2.55713 1.38054 0
M  V30 7162 H 699.846 2.52962 0.4866 0
M  V30 7163 H 699.804 2.25264 2.19325 0
M  V30 7164 N 703.576 0.692616 1.41565 0
M  V30 7165 C 704.801 0.229776 2.06123 0
M  V30 7166 C 705.226 -1.11119 1.5177 0
M  V30 7167 O 704.584 -1.69498 0.643444 0
M  V30 7168 C 704.632 0.19469 3.60074 0
M  V30 7169 O 703.736 -0.831366 4.03933 0
M  V30 7170 H 703.077 0.113002 0.654314 0
M  V30 7171 H 705.607 0.946645 1.81383 0
M  V30 7172 H 705.617 0.0245487 4.07993 0
M  V30 7173 H 704.292 1.17339 3.99004 0
M  V30 7174 H 702.869 -0.630819 3.67526 0
M  V30 7175 N 705.054 -1.51416 0.437162 0
M  V30 7176 C 706.302 -2.01687 -0.129108 0
M  V30 7177 C 706.623 -1.32329 -1.43227 0
M  V30 7178 O 705.893 -0.457796 -1.90476 0
M  V30 7179 H 704.473 -0.745277 -0.0507023 0
M  V30 7180 H 707.135 -1.86075 0.579828 0
M  V30 7181 H 706.231 -3.10605 -0.305141 0
M  V30 7182 N 706.532 -0.168513 -1.56696 0
M  V30 7183 C 707.781 0.477233 -1.95973 0
M  V30 7184 C 708.094 1.64578 -1.05704 0
M  V30 7185 O 709.3 2.35758 -1.3465 0
M  V30 7186 C 707.756 0.900413 -3.48455 0
M  V30 7187 C 707.364 -0.242382 -4.47344 0
M  V30 7188 C 709.108 1.51474 -3.96555 0
M  V30 7189 C 707.015 0.200272 -5.91061 0
M  V30 7190 H 705.945 0.182061 -0.73169 0
M  V30 7191 H 708.596 -0.256297 -1.81701 0
M  V30 7192 H 706.978 1.68984 -3.58135 0
M  V30 7193 H 708.152 -1.01967 -4.49377 0
M  V30 7194 H 706.467 -0.766484 -4.09285 0
M  V30 7195 H 709.064 1.85792 -5.01384 0
M  V30 7196 H 709.407 2.41163 -3.39332 0
M  V30 7197 H 709.94 0.789802 -3.89881 0
M  V30 7198 H 706.679 -0.661775 -6.52151 0
M  V30 7199 H 706.199 0.942979 -5.92341 0
M  V30 7200 H 707.878 0.645088 -6.43776 0
M  V30 7201 N 708.01 1.57248 0.105221 0
M  V30 7202 C 708.973 2.00388 1.11252 0
M  V30 7203 C 709.973 0.89594 1.33527 0
M  V30 7204 O 711.163 1.16166 1.29811 0
M  V30 7205 C 708.295 2.35589 2.46395 0
M  V30 7206 H 709.488 2.90591 0.741424 0
M  V30 7207 H 707.041 1.52332 0.349956 0
M  V30 7208 H 707.776 1.4831 2.884 0
M  V30 7209 H 707.561 3.16408 2.31578 0
M  V30 7210 H 709.051 2.69658 3.18864 0
M  V30 7211 N 709.488 -0.375779 1.53054 0
M  V30 7212 C 710.451 -1.44254 1.7811 0
M  V30 7213 C 711.451 -1.47018 0.651328 0
M  V30 7214 O 712.641 -1.47957 0.919472 0
M  V30 7215 C 709.773 -2.8345 1.89391 0
M  V30 7216 H 710.966 -1.23316 2.73374 0
M  V30 7217 H 708.519 -0.608312 1.43977 0
M  V30 7218 H 709.254 -3.09716 0.961589 0
M  V30 7219 H 709.039 -2.82844 2.71555 0
M  V30 7220 H 710.529 -3.60722 2.10404 0
M  V30 7221 N 710.966 -1.44241 -0.634997 0
M  V30 7222 C 712.194 -1.50296 -1.42193 0
M  V30 7223 C 712.609 -0.12658 -1.88375 0
M  V30 7224 O 711.966 0.86678 -1.60603 0
M  V30 7225 C 712.017 -2.46437 -2.64482 0
M  V30 7226 O 711.738 -3.78724 -2.20226 0
M  V30 7227 C 713.239 -2.61918 -3.57651 0
M  V30 7228 H 710.459 -0.509865 -0.43621 0
M  V30 7229 H 713.003 -1.89167 -0.776921 0
M  V30 7230 H 711.158 -2.10712 -3.25083 0
M  V30 7231 H 711.572 -4.30595 -2.9948 0
M  V30 7232 H 713.046 -3.33225 -4.40074 0
M  V30 7233 H 713.523 -1.67017 -4.06204 0
M  V30 7234 H 714.129 -2.98528 -3.02921 0
M  V30 7235 N 712.444 0.87505 -1.31075 0
M  V30 7236 C 713.855 1.4433 -1.18431 0
M  V30 7237 C 714.206 1.9506 0.211189 0
M  V30 7238 O 713.331 1.85847 1.10859 0
M  V30 7239 C 713.926 2.62341 -2.14389 0
M  V30 7240 C 712.485 3.15225 -2.05694 0
M  V30 7241 C 711.632 1.87929 -2.03907 0
M  V30 7242 H 714.583 0.684061 -1.432 0
M  V30 7243 H 714.604 3.3887 -1.73053 0
M  V30 7244 H 714.116 2.25388 -3.15946 0
M  V30 7245 H 712.217 3.56812 -1.07314 0
M  V30 7246 H 712.33 3.77853 -2.94558 0
M  V30 7247 H 710.694 2.06679 -1.48849 0
M  V30 7248 H 711.477 1.53221 -3.07211 0
M  V30 7249 N 713.922 1.13953 1.08869 0
M  V30 7250 C 714.885 0.824991 2.13838 0
M  V30 7251 C 715.885 -0.168198 1.59918 0
M  V30 7252 O 717.075 0.0595778 1.74098 0
M  V30 7253 C 714.207 0.228938 3.4013 0
M  V30 7254 H 715.4 1.75521 2.43171 0
M  V30 7255 H 712.953 0.94492 1.24503 0
M  V30 7256 H 713.688 -0.710227 3.16427 0
M  V30 7257 H 713.473 0.944243 3.80561 0
M  V30 7258 H 714.963 0.0259223 4.17592 0
M  V30 7259 N 715.4 -1.26948 0.933913 0
M  V30 7260 C 716.625 -1.98724 0.593589 0
M  V30 7261 C 717.05 -1.6915 -0.822801 0
M  V30 7262 O 716.408 -0.93533 -1.5531 0
M  V30 7263 C 716.456 -3.50834 0.833542 0
M  V30 7264 O 715.56 -4.12284 -0.0978788 0
M  V30 7265 H 714.901 -0.623683 0.227849 0
M  V30 7266 H 717.431 -1.61599 1.25486 0
M  V30 7267 H 717.441 -4.01018 0.75156 0
M  V30 7268 H 716.116 -3.71691 1.86597 0
M  V30 7269 H 714.693 -3.72884 0.0345443 0
M  V30 7270 N 716.879 -0.700114 -1.41195 0
M  V30 7271 C 717.842 -0.0465706 -2.29153 0
M  V30 7272 C 718.842 0.703302 -1.44604 0
M  V30 7273 O 720.032 0.537513 -1.657 0
M  V30 7274 C 717.164 0.944324 -3.2756 0
M  V30 7275 H 718.357 -0.821064 -2.88442 0
M  V30 7276 H 715.91 -0.463869 -1.49258 0
M  V30 7277 H 716.645 1.74642 -2.73259 0
M  V30 7278 H 716.43 0.409701 -3.89954 0
M  V30 7279 H 717.92 1.39925 -3.9346 0
M  V30 7280 N 718.357 1.51182 -0.445186 0
M  V30 7281 C 719.32 2.26501 0.350722 0
M  V30 7282 C 720.32 1.3025 0.942952 0
M  V30 7283 O 721.51 1.53897 0.816175 0
M  V30 7284 C 718.642 3.06274 1.49697 0
M  V30 7285 H 719.835 2.98299 -0.309474 0
M  V30 7286 H 717.388 1.55034 -0.198551 0
M  V30 7287 H 718.123 2.38911 2.19299 0
M  V30 7288 H 717.908 3.76979 1.0784 0
M  V30 7289 H 719.398 3.63306 2.05909 0
M  V30 7290 N 719.835 0.176821 1.56605 0
M  V30 7291 C 720.798 -0.737429 2.17013 0
M  V30 7292 C 721.798 -1.15414 1.11965 0
M  V30 7293 O 722.988 -1.0702 1.37449 0
M  V30 7294 C 720.12 -2.00445 2.75744 0
M  V30 7295 H 721.313 -0.211455 2.99154 0
M  V30 7296 H 718.866 -0.0727582 1.56131 0
M  V30 7297 H 719.601 -2.57338 1.97352 0
M  V30 7298 H 719.386 -1.71456 3.52626 0
M  V30 7299 H 720.876 -2.65679 3.22187 0
M  V30 7300 N 721.313 -1.57302 -0.09688 0
M  V30 7301 C 722.276 -2.00976 -1.10188 0
M  V30 7302 C 723.276 -0.903009 -1.3305 0
M  V30 7303 O 724.466 -1.16853 -1.29194 0
M  V30 7304 C 721.598 -2.36893 -2.45142 0
M  V30 7305 H 722.791 -2.9098 -0.726003 0
M  V30 7306 H 720.344 -1.52515 -0.341872 0
M  V30 7307 H 721.079 -1.49837 -2.8761 0
M  V30 7308 H 720.864 -3.17632 -2.29897 0
M  V30 7309 H 722.354 -2.71345 -3.1743 0
M  V30 7310 N 722.791 0.367657 -1.53252 0
M  V30 7311 C 724.019 1.13119 -1.73239 0
M  V30 7312 C 724.434 1.831 -0.460404 0
M  V30 7313 O 723.791 1.73483 0.566557 0
M  V30 7314 C 723.842 2.16308 -2.89643 0
M  V30 7315 O 723.563 1.49175 -4.1192 0
M  V30 7316 C 725.064 3.05224 -3.21486 0
M  V30 7317 H 722.284 0.338318 -0.579467 0
M  V30 7318 H 724.828 0.42721 -1.99988 0
M  V30 7319 H 722.983 2.82307 -2.65295 0
M  V30 7320 H 723.397 2.17912 -4.7709 0
M  V30 7321 H 724.871 3.73613 -4.06346 0
M  V30 7322 H 725.348 3.69919 -2.36763 0
M  V30 7323 H 725.954 2.44843 -3.47753 0
M  V30 7324 N 724.269 1.44576 0.627338 0
M  V30 7325 C 725.199 1.54562 1.75022 0
M  V30 7326 C 726.18 0.398378 1.65369 0
M  V30 7327 O 727.365 0.61899 1.84071 0
M  V30 7328 C 724.495 1.49309 3.13567 0
M  V30 7329 C 723.449 2.62549 3.38012 0
M  V30 7330 C 722.775 2.42348 4.76625 0
M  V30 7331 C 724.075 4.04678 3.30202 0
M  V30 7332 H 725.769 2.4855 1.66922 0
M  V30 7333 H 723.315 1.19624 0.801636 0
M  V30 7334 H 725.268 1.54895 3.919 0
M  V30 7335 H 723.992 0.518392 3.2246 0
M  V30 7336 H 722.651 2.56358 2.62061 0
M  V30 7337 H 722.299 1.43062 4.82226 0
M  V30 7338 H 721.999 3.18273 4.93939 0
M  V30 7339 H 723.523 2.49758 5.57183 0
M  V30 7340 H 724.937 4.12217 3.98435 0
M  V30 7341 H 723.334 4.80836 3.5905 0
M  V30 7342 H 724.404 4.2798 2.27949 0
M  V30 7343 N 725.747 -0.868086 1.31537 0
M  V30 7344 C 727.024 -1.60384 1.11965 0
M  V30 7345 C 727.404 -2.08584 -0.324949 0
M  V30 7346 O 726.752 -1.86561 -1.31937 0
M  V30 7347 C 726.962 -2.76038 2.13551 0
M  V30 7348 C 728.31 -3.45954 2.46173 0
M  V30 7349 O 729.334 -2.86247 2.11993 0
M  V30 7350 O 728.193 -4.53666 3.04711 0
M  V30 7351 H 725.287 -0.705705 0.431172 0
M  V30 7352 H 727.833 -0.913385 1.43022 0
M  V30 7353 H 726.605 -2.37849 3.10714 0
M  V30 7354 H 726.228 -3.52769 1.83411 0
M  V30 7355 N 727.225 -1.14528 -1.08264 0
M  V30 7356 C 728.471 -0.91576 -1.80947 0
M  V30 7357 C 728.804 0.55623 -1.86064 0
M  V30 7358 O 728.079 1.41207 -1.33756 0
M  V30 7359 C 728.362 -1.51917 -3.26486 0
M  V30 7360 C 728.215 -3.06111 -3.2957 0
M  V30 7361 C 729.534 -1.19724 -4.23502 0
M  V30 7362 H 726.653 -0.334113 -0.656915 0
M  V30 7363 H 729.295 -1.41547 -1.26746 0
M  V30 7364 H 727.445 -1.0942 -3.72773 0
M  V30 7365 H 729.117 -3.57448 -2.91597 0
M  V30 7366 H 727.36 -3.40483 -2.688 0
M  V30 7367 H 728.031 -3.43438 -4.32151 0
M  V30 7368 H 730.507 -1.56467 -3.85561 0
M  V30 7369 H 729.383 -1.64575 -5.23647 0
M  V30 7370 H 729.644 -0.112771 -4.41956 0
M  V30 7371 N 728.703 1.26451 -0.940633 0
M  V30 7372 C 729.666 2.24651 -0.454378 0
M  V30 7373 C 730.666 1.54826 0.434222 0
M  V30 7374 O 731.856 1.72628 0.233477 0
M  V30 7375 C 728.988 3.39148 0.345192 0
M  V30 7376 H 730.181 2.69182 -1.32217 0
M  V30 7377 H 727.734 1.38596 -0.722547 0
M  V30 7378 H 728.469 3.00018 1.23125 0
M  V30 7379 H 728.254 3.9101 -0.292107 0
M  V30 7380 H 729.744 4.12103 0.675341 0
M  V30 7381 N 730.181 0.707592 1.40822 0
M  V30 7382 C 731.427 0.244031 2.01326 0
M  V30 7383 C 731.76 -1.15722 1.55955 0
M  V30 7384 O 731.035 -1.78347 0.776044 0
M  V30 7385 C 731.318 0.315128 3.58718 0
M  V30 7386 C 731.171 1.75419 4.14184 0
M  V30 7387 C 732.49 -0.318251 4.38948 0
M  V30 7388 H 729.609 0.0901471 0.731466 0
M  V30 7389 H 732.251 0.898584 1.67408 0
M  V30 7390 H 730.401 -0.242176 3.87744 0
M  V30 7391 H 732.073 2.36626 3.95987 0
M  V30 7392 H 730.316 2.28449 3.68773 0
M  V30 7393 H 730.987 1.75538 5.23345 0
M  V30 7394 H 733.463 0.156514 4.15806 0
M  V30 7395 H 732.339 -0.238019 5.48384 0
M  V30 7396 H 732.6 -1.40067 4.19325 0
M  V30 7397 N 731.66 -1.50943 0.453197 0
M  V30 7398 C 733.076 -1.59245 0.106342 0
M  V30 7399 C 733.276 -1.46287 -1.38572 0
M  V30 7400 O 732.332 -1.31219 -2.15726 0
M  V30 7401 C 733.645 -2.93797 0.640595 0
M  V30 7402 C 735.193 -3.07148 0.602435 0
M  V30 7403 C 735.668 -4.44247 1.11393 0
M  V30 7404 N 737.159 -4.50611 1.07258 0
M  V30 7405 C 737.894 -5.55049 1.43905 0
M  V30 7406 N 737.39 -6.66828 1.87914 0
M  V30 7407 N 739.183 -5.45494 1.35621 0
M  V30 7408 H 731.334 -1.5761 1.42382 0
M  V30 7409 H 733.597 -0.74384 0.587713 0
M  V30 7410 H 733.303 -3.087 1.68515 0
M  V30 7411 H 733.177 -3.77127 0.0742272 0
M  V30 7412 H 735.564 -2.91903 -0.433171 0
M  V30 7413 H 735.645 -2.25619 1.20539 0
M  V30 7414 H 735.289 -4.60239 2.14808 0
M  V30 7415 H 735.219 -5.2434 0.487353 0
M  V30 7416 H 737.71 -3.70391 0.749585 0
M  V30 7417 H 738.023 -7.42558 2.14072 0
M  V30 7418 H 736.368 -6.67995 1.91853 0
M  V30 7419 H 739.559 -4.57053 1.01093 0
M  V30 7420 H 739.732 -6.2677 1.64508 0
M  V30 7421 N 733.138 -0.185124 -1.56509 0
M  V30 7422 C 734.554 0.170865 -1.58683 0
M  V30 7423 C 734.754 1.61799 -1.20098 0
M  V30 7424 O 733.81 2.35181 -0.919038 0
M  V30 7425 C 735.123 -0.122459 -3.00451 0
M  V30 7426 C 736.671 -0.0617699 -3.12939 0
M  V30 7427 C 737.146 -0.328269 -4.56822 0
M  V30 7428 N 738.637 -0.276533 -4.62374 0
M  V30 7429 C 739.372 -0.456722 -5.71578 0
M  V30 7430 N 738.868 -0.69672 -6.89288 0
M  V30 7431 N 740.661 -0.391669 -5.60734 0
M  V30 7432 H 732.812 -1.12956 -1.79874 0
M  V30 7433 H 735.075 -0.45011 -0.834329 0
M  V30 7434 H 734.781 -1.12546 -3.33206 0
M  V30 7435 H 734.655 0.579578 -3.72721 0
M  V30 7436 H 737.042 0.931826 -2.80002 0
M  V30 7437 H 737.123 -0.796732 -2.43076 0
M  V30 7438 H 736.767 -1.31914 -4.9047 0
M  V30 7439 H 736.697 0.427465 -5.24862 0
M  V30 7440 H 739.188 -0.0972458 -3.77775 0
M  V30 7441 H 739.501 -0.823291 -7.68402 0
M  V30 7442 H 737.846 -0.733497 -6.91119 0
M  V30 7443 H 741.037 -0.204663 -4.67652 0
M  V30 7444 H 741.21 -0.535518 -6.45783 0
M  V30 7445 N 734.616 1.57351 0.0885366 0
M  V30 7446 C 735.864 1.86051 0.789262 0
M  V30 7447 C 736.185 0.774763 1.78948 0
M  V30 7448 O 735.455 -0.198324 1.94894 0
M  V30 7449 H 734.035 0.686508 0.294475 0
M  V30 7450 H 736.697 1.94779 0.0686055 0
M  V30 7451 H 735.793 2.83007 1.31581 0
M  V30 7452 N 736.094 -0.359525 1.53444 0
M  V30 7453 C 737.024 -1.44662 1.8329 0
M  V30 7454 C 738.005 -1.55617 0.68683 0
M  V30 7455 O 739.19 -1.70086 0.93725 0
M  V30 7456 C 736.32 -2.81923 2.02822 0
M  V30 7457 C 735.274 -2.85787 3.18606 0
M  V30 7458 C 734.6 -4.25781 3.23442 0
M  V30 7459 C 735.9 -2.52762 4.57065 0
M  V30 7460 H 737.594 -1.19934 2.74329 0
M  V30 7461 H 735.14 -0.575517 1.31999 0
M  V30 7462 H 737.093 -3.58005 2.22285 0
M  V30 7463 H 735.817 -3.08051 1.085 0
M  V30 7464 H 734.476 -2.12157 2.98973 0
M  V30 7465 H 734.124 -4.48994 2.26745 0
M  V30 7466 H 733.824 -4.29281 4.01238 0
M  V30 7467 H 735.348 -5.03727 3.45096 0
M  V30 7468 H 736.762 -3.18557 4.76649 0
M  V30 7469 H 735.159 -2.67569 5.37147 0
M  V30 7470 H 736.229 -1.47993 4.61764 0
M  V30 7471 N 737.572 -1.44907 -0.619662 0
M  V30 7472 C 738.797 -1.52021 -1.41083 0
M  V30 7473 C 739.222 -0.14976 -1.87503 0
M  V30 7474 O 738.58 0.863303 -1.59426 0
M  V30 7475 C 738.628 -2.49911 -2.59955 0
M  V30 7476 O 737.732 -2.00857 -3.60181 0
M  V30 7477 H 737.073 -0.512912 -0.421684 0
M  V30 7478 H 739.603 -1.90149 -0.755282 0
M  V30 7479 H 739.613 -2.68323 -3.07354 0
M  V30 7480 H 738.288 -3.4945 -2.25516 0
M  V30 7481 H 736.865 -1.92265 -3.19513 0
M  V30 7482 N 739.05 0.861098 -1.31996 0
M  V30 7483 C 740 1.95703 -1.1698 0
M  V30 7484 C 740.984 1.60709 -0.0784201 0
M  V30 7485 O 742.176 1.74365 -0.304262 0
M  V30 7486 C 739.305 3.31606 -0.888388 0
M  V30 7487 C 738.391 3.7284 -2.02117 0
M  V30 7488 N 738.782 3.85957 -3.26911 0
M  V30 7489 C 737.08 4.02419 -1.92289 0
M  V30 7490 C 737.781 4.21333 -4.01065 0
M  V30 7491 N 736.757 4.32502 -3.29307 0
M  V30 7492 H 740.559 2.03968 -2.11599 0
M  V30 7493 H 738.073 1.05245 -1.23682 0
M  V30 7494 H 740.07 4.09881 -0.761782 0
M  V30 7495 H 738.73 3.24662 0.0494898 0
M  V30 7496 H 739.741 3.70449 -3.61923 0
M  V30 7497 H 736.418 4.03814 -1.06022 0
M  V30 7498 H 737.808 4.39005 -5.08649 0
M  V30 7499 N 740.528 1.15101 1.07655 0
M  V30 7500 C 741.776 0.922149 1.79836 0
M  V30 7501 C 742.097 -0.552346 1.87014 0
M  V30 7502 O 741.367 -1.40145 1.3688 0
M  V30 7503 H 739.947 0.338182 0.666064 0
M  V30 7504 H 742.609 1.45107 1.30115 0
M  V30 7505 H 741.705 1.32883 2.82398 0
M  V30 7506 N 742.006 -1.2595 0.947325 0
M  V30 7507 C 742.969 -2.24407 0.466285 0
M  V30 7508 C 743.969 -1.55054 -0.426005 0
M  V30 7509 O 745.159 -1.7275 -0.224319 0
M  V30 7510 C 742.291 -3.39326 -0.327201 0
M  V30 7511 H 743.484 -2.68477 1.33642 0
M  V30 7512 H 741.037 -1.38211 0.729887 0
M  V30 7513 H 741.772 -3.00667 -1.21532 0
M  V30 7514 H 741.557 -3.9085 0.312839 0
M  V30 7515 H 743.047 -4.12455 -0.653477 0
M  V30 7516 N 743.484 -0.715051 -1.40445 0
M  V30 7517 C 744.416 -0.0227516 -2.29189 0
M  V30 7518 C 745.429 0.724313 -1.458 0
M  V30 7519 O 746.618 0.571781 -1.69094 0
M  V30 7520 C 743.718 0.992038 -3.24055 0
M  V30 7521 C 742.891 0.310613 -4.36296 0
M  V30 7522 C 741.95 1.23071 -5.11605 0
M  V30 7523 O 740.976 0.71571 -5.64682 0
M  V30 7524 N 742.178 2.56188 -5.2091 0
M  V30 7525 H 744.943 -0.78473 -2.89244 0
M  V30 7526 H 742.504 -0.562637 -1.51809 0
M  V30 7527 H 744.496 1.60973 -3.71308 0
M  V30 7528 H 743.066 1.65538 -2.65171 0
M  V30 7529 H 742.286 -0.487269 -3.91177 0
M  V30 7530 H 743.574 -0.162415 -5.08541 0
M  V30 7531 H 742.972 3.00527 -4.7927 0
M  V30 7532 H 741.529 3.13103 -5.71673 0
M  V30 7533 N 744.962 1.50701 -0.461195 0
M  V30 7534 C 746.378 1.59187 -0.114786 0
M  V30 7535 C 746.578 1.4702 1.37794 0
M  V30 7536 O 745.634 1.32361 2.15027 0
M  V30 7537 C 746.947 2.93453 -0.656167 0
M  V30 7538 C 748.495 3.06824 -0.618715 0
M  V30 7539 C 748.97 4.4365 -1.13747 0
M  V30 7540 N 750.461 4.50035 -1.09646 0
M  V30 7541 C 751.196 5.54278 -1.46846 0
M  V30 7542 N 750.692 6.65822 -1.91448 0
M  V30 7543 N 752.485 5.44767 -1.38512 0
M  V30 7544 H 744.636 1.56853 -1.43216 0
M  V30 7545 H 746.899 0.740712 -0.59165 0
M  V30 7546 H 746.605 3.07802 -1.7015 0
M  V30 7547 H 746.479 3.77082 -0.0942261 0
M  V30 7548 H 748.866 2.92129 0.417685 0
M  V30 7549 H 748.947 2.24976 -1.21734 0
M  V30 7550 H 748.591 4.59093 -2.17245 0
M  V30 7551 H 748.521 5.24074 -0.515153 0
M  V30 7552 H 751.012 3.69988 -0.769217 0
M  V30 7553 H 751.325 7.41413 -2.18007 0
M  V30 7554 H 749.67 6.66968 -1.95393 0
M  V30 7555 H 752.861 4.56511 -1.03516 0
M  V30 7556 H 753.034 6.25889 -1.6783 0
M  V30 7557 N 746.441 0.193421 1.56409 0
M  V30 7558 C 747.371 -0.723334 2.22014 0
M  V30 7559 C 748.352 -1.22254 1.1827 0
M  V30 7560 O 749.537 -1.27168 1.46771 0
M  V30 7561 C 746.667 -1.94366 2.87818 0
M  V30 7562 C 745.621 -1.57943 3.97791 0
M  V30 7563 C 744.947 -2.87623 4.50752 0
M  V30 7564 C 746.247 -0.790639 5.16281 0
M  V30 7565 H 747.941 -0.176426 2.9888 0
M  V30 7566 H 745.487 -0.0834166 1.43758 0
M  V30 7567 H 747.44 -2.5902 3.32396 0
M  V30 7568 H 746.164 -2.51507 2.08355 0
M  V30 7569 H 744.823 -0.956482 3.53903 0
M  V30 7570 H 744.471 -3.4285 3.68053 0
M  V30 7571 H 744.171 -2.63998 5.24956 0
M  V30 7572 H 745.695 -3.53268 4.9803 0
M  V30 7573 H 747.109 -1.34024 5.57414 0
M  V30 7574 H 745.506 -0.65258 5.96541 0
M  V30 7575 H 746.576 0.208633 4.84451 0
M  V30 7576 N 747.919 -1.57396 -0.0801906 0
M  V30 7577 C 748.849 -2.06145 -1.09665 0
M  V30 7578 C 749.83 -0.953273 -1.40878 0
M  V30 7579 O 751.015 -1.22548 -1.50651 0
M  V30 7580 C 748.145 -2.49836 -2.41245 0
M  V30 7581 C 747.099 -3.64454 -2.24405 0
M  V30 7582 C 746.425 -3.94172 -3.61293 0
M  V30 7583 C 747.725 -4.94807 -1.67223 0
M  V30 7584 H 749.419 -2.91316 -0.691028 0
M  V30 7585 H 746.965 -1.40145 -0.330957 0
M  V30 7586 H 748.918 -2.82552 -3.12638 0
M  V30 7587 H 747.642 -1.61683 -2.83771 0
M  V30 7588 H 746.301 -3.32008 -1.55454 0
M  V30 7589 H 745.949 -3.03163 -4.01374 0
M  V30 7590 H 745.649 -4.71345 -3.50867 0
M  V30 7591 H 747.173 -4.29376 -4.3413 0
M  V30 7592 H 748.587 -5.25807 -2.28472 0
M  V30 7593 H 746.984 -5.76245 -1.67515 0
M  V30 7594 H 748.054 -4.80751 -0.632944 0
M  V30 7595 N 749.397 0.351382 -1.53633 0
M  V30 7596 C 750.637 1.10102 -1.72212 0
M  V30 7597 C 751.001 1.86128 -0.471198 0
M  V30 7598 O 752.202 2.63445 -0.533887 0
M  V30 7599 C 750.473 2.02348 -2.94602 0
M  V30 7600 S 752.032 2.84641 -3.33954 0
M  V30 7601 H 748.85 0.372145 -0.60583 0
M  V30 7602 H 751.452 0.38044 -1.91763 0
M  V30 7603 H 750.156 1.45283 -3.83824 0
M  V30 7604 H 749.687 2.78856 -2.77493 0
M  V30 7605 H 751.702 4.04724 -2.87076 0
M  V30 7606 N 750.875 1.45233 0.611969 0
M  V30 7607 C 752.121 1.49242 1.37312 0
M  V30 7608 C 752.454 0.131963 1.93751 0
M  V30 7609 O 751.729 -0.852999 1.74798 0
M  V30 7610 C 752.012 2.56811 2.52428 0
M  V30 7611 C 751.865 4.02284 2.01215 0
M  V30 7612 C 753.184 2.60705 3.54572 0
M  V30 7613 H 750.303 0.54336 0.497925 0
M  V30 7614 H 752.945 1.77019 0.690242 0
M  V30 7615 H 751.095 2.33256 3.10683 0
M  V30 7616 H 752.767 4.37035 1.47643 0
M  V30 7617 H 751.01 4.1315 1.32248 0
M  V30 7618 H 751.681 4.7323 2.84178 0
M  V30 7619 H 754.157 2.81799 3.06151 0
M  V30 7620 H 753.033 3.37841 4.32614 0
M  V30 7621 H 753.294 1.65627 4.09903 0
M  V30 7622 N 752.353 -0.854086 1.3245 0
M  V30 7623 C 753.316 -1.94427 1.21371 0
M  V30 7624 C 754.316 -1.60219 0.136613 0
M  V30 7625 O 755.506 -1.69846 0.387057 0
M  V30 7626 C 752.638 -3.29698 0.866701 0
M  V30 7627 H 753.831 -2.05679 2.18257 0
M  V30 7628 H 751.384 -1.04434 1.1629 0
M  V30 7629 H 752.119 -3.24145 -0.100319 0
M  V30 7630 H 751.904 -3.55903 1.64545 0
M  V30 7631 H 753.394 -4.09599 0.813515 0
M  V30 7632 N 753.831 -1.1567 -1.07043 0
M  V30 7633 C 754.761 -0.879348 -2.16309 0
M  V30 7634 C 755.742 0.171311 -1.69235 0
M  V30 7635 O 756.927 0.0250175 -1.94184 0
M  V30 7636 C 754.057 -0.371307 -3.45309 0
M  V30 7637 C 753.011 -1.359 -4.05851 0
M  V30 7638 C 752.337 -0.709678 -5.29969 0
M  V30 7639 C 753.637 -2.72606 -4.45514 0
M  V30 7640 H 755.331 -1.79308 -2.39768 0
M  V30 7641 H 752.877 -0.863558 -1.15233 0
M  V30 7642 H 754.83 -0.164798 -4.21078 0
M  V30 7643 H 753.554 0.577906 -3.21446 0
M  V30 7644 H 752.213 -1.55193 -3.32131 0
M  V30 7645 H 751.861 0.245782 -5.02399 0
M  V30 7646 H 751.561 -1.36886 -5.71433 0
M  V30 7647 H 753.085 -0.513015 -6.08441 0
M  V30 7648 H 754.499 -2.57141 -5.12398 0
M  V30 7649 H 752.896 -3.34927 -4.97939 0
M  V30 7650 H 753.966 -3.28434 -3.56734 0
M  V30 7651 N 755.309 1.25446 -0.953992 0
M  V30 7652 C 756.557 1.92762 -0.607227 0
M  V30 7653 C 756.878 1.7509 0.858399 0
M  V30 7654 O 756.148 1.11416 1.61132 0
M  V30 7655 H 754.728 0.713377 -0.221591 0
M  V30 7656 H 757.39 1.52625 -1.21209 0
M  V30 7657 H 756.486 3.00695 -0.835998 0
M  V30 7658 N 756.787 0.722489 1.40064 0
M  V30 7659 C 757.719 0.0349057 2.29173 0
M  V30 7660 C 758.732 -0.716571 1.46182 0
M  V30 7661 O 759.921 -0.562806 1.69395 0
M  V30 7662 C 757.021 -0.974839 3.24577 0
M  V30 7663 C 756.194 -0.287471 4.36454 0
M  V30 7664 C 755.253 -1.20356 5.12251 0
M  V30 7665 O 754.279 -0.685753 5.65054 0
M  V30 7666 N 755.481 -2.53422 5.22262 0
M  V30 7667 H 758.246 0.800058 2.88824 0
M  V30 7668 H 755.807 0.57068 1.51509 0
M  V30 7669 H 757.799 -1.59002 3.72157 0
M  V30 7670 H 756.369 -1.6413 2.66046 0
M  V30 7671 H 755.589 0.508008 3.90913 0
M  V30 7672 H 756.877 0.189382 5.08447 0
M  V30 7673 H 756.275 -2.97981 4.80857 0
M  V30 7674 H 754.832 -3.10067 5.73325 0
M  V30 7675 N 758.265 -1.50454 0.469181 0
M  V30 7676 C 759.195 -2.31353 -0.31592 0
M  V30 7677 C 760.176 -1.38172 -0.992094 0
M  V30 7678 O 761.361 -1.67093 -0.989633 0
M  V30 7679 C 758.491 -3.1786 -1.39937 0
M  V30 7680 C 757.445 -4.19578 -0.844909 0
M  V30 7681 C 756.771 -4.9481 -2.0265 0
M  V30 7682 C 758.071 -5.22106 0.142499 0
M  V30 7683 H 759.765 -2.97237 0.359269 0
M  V30 7684 H 757.311 -1.42942 0.174224 0
M  V30 7685 H 759.264 -3.7325 -1.95607 0
M  V30 7686 H 757.988 -2.49858 -2.1033 0
M  V30 7687 H 756.647 -3.65285 -0.310189 0
M  V30 7688 H 756.295 -4.23282 -2.71737 0
M  V30 7689 H 755.995 -5.63613 -1.66174 0
M  V30 7690 H 757.519 -5.53035 -2.58815 0
M  V30 7691 H 758.933 -5.72378 -0.324966 0
M  V30 7692 H 757.33 -5.98618 0.421441 0
M  V30 7693 H 758.4 -4.7297 1.06901 0
M  V30 7694 N 759.743 -0.201713 -1.56304 0
M  V30 7695 C 761.02 0.483273 -1.89536 0
M  V30 7696 C 761.4 1.79176 -1.11621 0
M  V30 7697 O 760.748 2.27445 -0.219339 0
M  V30 7698 C 760.958 0.695604 -3.41998 0
M  V30 7699 C 762.306 1.012 -4.12364 0
M  V30 7700 O 763.33 0.783094 -3.47485 0
M  V30 7701 O 762.189 1.44534 -5.27041 0
M  V30 7702 H 759.283 0.252801 -0.787414 0
M  V30 7703 H 761.829 -0.24242 -1.6796 0
M  V30 7704 H 760.601 -0.228165 -3.90634 0
M  V30 7705 H 760.224 1.47351 -3.69288 0
M  V30 7706 N 761.222 1.57436 0.0718424 0
M  V30 7707 C 762.638 1.53792 0.426628 0
M  V30 7708 C 762.838 0.921887 1.79174 0
M  V30 7709 O 761.894 0.524374 2.46995 0
M  V30 7710 C 763.207 2.98443 0.367739 0
M  V30 7711 C 764.755 3.09778 0.447928 0
M  V30 7712 C 765.23 4.5608 0.418946 0
M  V30 7713 N 766.721 4.60716 0.479022 0
M  V30 7714 C 767.456 5.71397 0.47881 0
M  V30 7715 N 766.952 6.91443 0.433417 0
M  V30 7716 N 768.745 5.59639 0.525364 0
M  V30 7717 H 760.896 1.95848 -0.822033 0
M  V30 7718 H 763.159 0.896418 -0.308447 0
M  V30 7719 H 762.865 3.47072 -0.56865 0
M  V30 7720 H 762.739 3.58335 1.17795 0
M  V30 7721 H 765.126 2.61122 1.37474 0
M  V30 7722 H 765.207 2.52796 -0.390857 0
M  V30 7723 H 764.851 5.05393 -0.504016 0
M  V30 7724 H 764.781 5.10925 1.27526 0
M  V30 7725 H 767.272 3.74328 0.518355 0
M  V30 7726 H 767.585 7.71562 0.43718 0
M  V30 7727 H 765.93 6.93847 0.400106 0
M  V30 7728 H 769.121 4.64756 0.558519 0
M  V30 7729 H 769.294 6.45896 0.52173 0
M  V30 7730 N 762.7 -0.34323 1.53817 0
M  V30 7731 C 764.111 -0.918823 1.62525 0
M  V30 7732 C 764.462 -1.89542 0.506765 0
M  V30 7733 O 763.587 -2.13326 -0.363441 0
M  V30 7734 C 764.182 -1.67326 2.94597 0
M  V30 7735 C 762.741 -2.19786 3.05567 0
M  V30 7736 C 761.888 -1.01708 2.57974 0
M  V30 7737 H 764.839 -0.121358 1.58235 0
M  V30 7738 H 764.86 -2.53615 2.83654 0
M  V30 7739 H 764.372 -0.962223 3.75983 0
M  V30 7740 H 762.473 -2.94065 2.28816 0
M  V30 7741 H 762.586 -2.46135 4.1104 0
M  V30 7742 H 760.95 -1.39058 2.13389 0
M  V30 7743 H 761.733 -0.320671 3.41799 0
M  V30 7744 N 764.178 -1.45556 -0.604258 0
M  V30 7745 C 765.589 -1.44171 -1.18624 0
M  V30 7746 C 765.94 -0.171081 -1.95453 0
M  V30 7747 O 765.065 0.727156 -2.03817 0
M  V30 7748 C 765.66 -2.61193 -2.15786 0
M  V30 7749 C 764.219 -2.62918 -2.69353 0
M  V30 7750 C 763.366 -2.36479 -1.4482 0
M  V30 7751 H 766.317 -1.53747 -0.393381 0
M  V30 7752 H 766.338 -2.35481 -2.98879 0
M  V30 7753 H 765.85 -3.53656 -1.59841 0
M  V30 7754 H 763.951 -1.7447 -3.29228 0
M  V30 7755 H 764.064 -3.6224 -3.13559 0
M  V30 7756 H 762.428 -1.86103 -1.73891 0
M  V30 7757 H 763.211 -3.31091 -0.907376 0
M  V30 7758 N 765.656 0.84705 -1.32902 0
M  V30 7759 C 766.933 1.58583 -1.14503 0
M  V30 7760 C 767.313 2.09075 0.291724 0
M  V30 7761 O 766.661 1.88636 1.28952 0
M  V30 7762 C 766.871 2.72605 -2.17916 0
M  V30 7763 C 768.219 3.41993 -2.51646 0
M  V30 7764 O 769.243 2.82838 -2.1652 0
M  V30 7765 O 768.102 4.48761 -3.1189 0
M  V30 7766 H 765.196 0.698756 -0.442345 0
M  V30 7767 H 767.742 0.890516 -1.44457 0
M  V30 7768 H 766.514 2.32876 -3.14459 0
M  V30 7769 H 766.137 3.49807 -1.89 0
M  V30 7770 N 767.134 1.16236 1.06428 0
M  V30 7771 C 768.064 0.890807 2.1584 0
M  V30 7772 C 769.045 -0.162333 1.69324 0
M  V30 7773 O 770.23 -0.0147191 1.94194 0
M  V30 7774 C 767.36 0.389615 3.45108 0
M  V30 7775 C 766.314 1.38051 4.05125 0
M  V30 7776 C 765.64 0.737773 5.29586 0
M  V30 7777 C 766.94 2.74965 4.44062 0
M  V30 7778 H 768.634 1.80577 2.38814 0
M  V30 7779 H 766.18 0.869657 1.14774 0
M  V30 7780 H 768.133 0.187127 4.20984 0
M  V30 7781 H 766.857 -0.560851 3.21748 0
M  V30 7782 H 765.516 1.56952 3.31303 0
M  V30 7783 H 765.164 -0.219135 5.02522 0
M  V30 7784 H 764.864 1.39914 5.70699 0
M  V30 7785 H 766.388 0.545275 6.0816 0
M  V30 7786 H 767.802 2.59855 5.11027 0
M  V30 7787 H 766.199 3.37563 4.96156 0
M  V30 7788 H 767.269 3.30321 3.54987 0
M  V30 7789 N 768.612 -1.24939 0.960631 0
M  V30 7790 C 769.575 -2.239 0.49006 0
M  V30 7791 C 770.575 -1.55497 -0.409535 0
M  V30 7792 O 771.765 -1.72978 -0.205984 0
M  V30 7793 C 768.897 -3.39654 -0.291193 0
M  V30 7794 H 770.09 -2.67044 1.36482 0
M  V30 7795 H 767.643 -1.37429 0.744505 0
M  V30 7796 H 768.378 -3.01939 -1.18336 0
M  V30 7797 H 768.163 -3.90496 0.354276 0
M  V30 7798 H 769.653 -4.13125 -0.609693 0
M  V30 7799 N 770.09 -0.729906 -1.39679 0
M  V30 7800 C 771.04 -0.0627678 -2.27914 0
M  V30 7801 C 772.024 0.717867 -1.43998 0
M  V30 7802 O 773.216 0.587713 -1.66958 0
M  V30 7803 C 770.345 0.847564 -3.32673 0
M  V30 7804 C 769.431 0.0613515 -4.24056 0
M  V30 7805 N 769.822 -0.962863 -4.96551 0
M  V30 7806 C 768.12 0.291773 -4.45045 0
M  V30 7807 C 768.821 -1.43652 -5.63683 0
M  V30 7808 N 767.797 -0.756044 -5.38317 0
M  V30 7809 H 771.599 -0.847545 -2.81414 0
M  V30 7810 H 769.113 -0.563776 -1.523 0
M  V30 7811 H 771.11 1.34094 -3.94746 0
M  V30 7812 H 769.77 1.63156 -2.80732 0
M  V30 7813 H 770.781 -1.34409 -5.00154 0
M  V30 7814 H 767.458 1.05097 -4.04056 0
M  V30 7815 H 768.848 -2.28835 -6.31731 0
M  V30 7816 N 771.568 1.50203 -0.477153 0
M  V30 7817 C 772.845 1.95115 0.137609 0
M  V30 7818 C 773.225 1.41778 1.56404 0
M  V30 7819 O 772.573 0.621333 2.1989 0
M  V30 7820 C 772.783 3.4892 0.0747168 0
M  V30 7821 C 774.131 4.238 0.260585 0
M  V30 7822 O 775.155 3.5588 0.151021 0
M  V30 7823 O 774.014 5.44366 0.482534 0
M  V30 7824 H 771.108 0.81987 0.108364 0
M  V30 7825 H 773.654 1.60946 -0.537989 0
M  V30 7826 H 772.426 3.80308 -0.920966 0
M  V30 7827 H 772.049 3.89642 0.791509 0
M  V30 7828 N 773.046 0.209999 1.56195 0
M  V30 7829 C 774.294 -0.423974 1.97603 0
M  V30 7830 C 774.615 -1.61112 1.09854 0
M  V30 7831 O 773.885 -1.95134 0.173032 0
M  V30 7832 H 772.465 -0.159629 0.729745 0
M  V30 7833 H 775.127 0.300205 1.92574 0
M  V30 7834 H 774.223 -0.75809 3.02753 0
M  V30 7835 N 774.524 -1.57472 -0.0634922 0
M  V30 7836 C 775.94 -1.54016 -0.418466 0
M  V30 7837 C 776.14 -0.931376 -1.78683 0
M  V30 7838 O 775.196 -0.537465 -2.46714 0
M  V30 7839 C 776.509 -2.98634 -0.351906 0
M  V30 7840 C 778.057 -3.10012 -0.431494 0
M  V30 7841 C 778.532 -4.56296 -0.394754 0
M  V30 7842 N 780.023 -4.60964 -0.454583 0
M  V30 7843 C 780.758 -5.71643 -0.448501 0
M  V30 7844 N 780.254 -6.91663 -0.396742 0
M  V30 7845 N 782.047 -5.5991 -0.495677 0
M  V30 7846 H 774.198 -1.95409 0.832408 0
M  V30 7847 H 776.461 -0.894769 0.313197 0
M  V30 7848 H 776.167 -3.46766 0.587048 0
M  V30 7849 H 776.041 -3.58955 -1.15893 0
M  V30 7850 H 778.428 -2.61848 -1.36087 0
M  V30 7851 H 778.509 -2.52585 0.404258 0
M  V30 7852 H 778.153 -5.05119 0.530811 0
M  V30 7853 H 778.083 -5.11594 -1.24815 0
M  V30 7854 H 780.574 -3.74598 -0.498496 0
M  V30 7855 H 780.887 -7.71783 -0.396256 0
M  V30 7856 H 779.232 -6.9405 -0.363304 0
M  V30 7857 H 782.423 -4.65046 -0.533864 0
M  V30 7858 H 782.596 -6.46164 -0.487469 0
M  V30 7859 N 776.003 0.335068 -1.53997 0
M  V30 7860 C 777.228 1.09859 -1.75914 0
M  V30 7861 C 777.653 1.81308 -0.500915 0
M  V30 7862 O 777.011 1.72854 0.54693 0
M  V30 7863 C 777.059 2.08122 -2.94478 0
M  V30 7864 O 776.163 3.15805 -2.65219 0
M  V30 7865 H 775.504 0.317313 -0.583274 0
M  V30 7866 H 778.034 0.382872 -2.00986 0
M  V30 7867 H 778.044 2.51195 -3.21504 0
M  V30 7868 H 776.719 1.55517 -3.8573 0
M  V30 7869 H 775.296 2.77489 -2.49107 0
M  V30 7870 N 777.481 1.45874 0.596531 0
M  V30 7871 C 778.411 1.5824 1.71705 0
M  V30 7872 C 779.392 0.433366 1.64487 0
M  V30 7873 O 780.577 0.657895 1.82717 0
M  V30 7874 C 777.707 1.55927 3.10329 0
M  V30 7875 C 776.661 2.69659 3.32367 0
M  V30 7876 C 775.987 2.52403 4.71377 0
M  V30 7877 C 777.287 4.11591 3.21544 0
M  V30 7878 H 778.981 2.52035 1.61613 0
M  V30 7879 H 776.527 1.21297 0.776082 0
M  V30 7880 H 778.48 1.63173 3.88526 0
M  V30 7881 H 777.204 0.586674 3.21288 0
M  V30 7882 H 775.863 2.61859 2.56564 0
M  V30 7883 H 775.511 1.53258 4.79083 0
M  V30 7884 H 775.211 3.28679 4.87077 0
M  V30 7885 H 776.735 2.6152 5.5176 0
M  V30 7886 H 778.149 4.20576 3.89601 0
M  V30 7887 H 776.546 4.88344 3.4877 0
M  V30 7888 H 777.616 4.32719 2.1882 0
M  V30 7889 N 778.959 -0.83999 1.33349 0
M  V30 7890 C 780.205 -1.59724 1.25936 0
M  V30 7891 C 780.56 -1.91616 -0.173563 0
M  V30 7892 O 779.853 -1.55791 -1.11534 0
M  V30 7893 C 780.047 -2.91571 2.06691 0
M  V30 7894 C 779.876 -2.72556 3.57691 0
M  V30 7895 C 778.646 -2.70174 4.27006 0
M  V30 7896 C 780.844 -2.45272 4.52047 0
M  V30 7897 N 778.826 -2.42525 5.63964 0
M  V30 7898 C 780.197 -2.27163 5.76885 0
M  V30 7899 C 782.252 -2.30859 4.41144 0
M  V30 7900 C 780.955 -1.96105 6.92052 0
M  V30 7901 C 782.981 -2.01194 5.56125 0
M  V30 7902 C 782.343 -1.83897 6.79972 0
M  V30 7903 H 778.442 -0.587568 0.516031 0
M  V30 7904 H 781.026 -0.986169 1.67877 0
M  V30 7905 H 779.197 -3.5063 1.67073 0
M  V30 7906 H 780.929 -3.56762 1.91057 0
M  V30 7907 H 777.684 -2.8364 3.7927 0
M  V30 7908 H 778.108 -2.31588 6.36157 0
M  V30 7909 H 782.75 -2.42946 3.46031 0
M  V30 7910 H 780.468 -1.82756 7.87163 0
M  V30 7911 H 784.054 -1.90799 5.49624 0
M  V30 7912 H 782.934 -1.61271 7.67438 0
M  V30 7913 N 780.437 -1.16799 -1.0581 0
M  V30 7914 C 781.367 -0.902241 -2.15364 0
M  V30 7915 C 782.348 0.153351 -1.69407 0
M  V30 7916 O 783.533 0.00442032 -1.94199 0
M  V30 7917 C 780.663 -0.407911 -3.44896 0
M  V30 7918 C 779.617 -1.40197 -4.04387 0
M  V30 7919 C 778.943 -0.765848 -5.29187 0
M  V30 7920 C 780.243 -2.77316 -4.42598 0
M  V30 7921 H 781.937 -1.81841 -2.37853 0
M  V30 7922 H 779.483 -0.875731 -1.14311 0
M  V30 7923 H 781.436 -0.20945 -4.20879 0
M  V30 7924 H 780.16 0.54378 -3.22041 0
M  V30 7925 H 778.819 -1.58707 -3.30466 0
M  V30 7926 H 778.467 0.192482 -5.02632 0
M  V30 7927 H 778.167 -1.42939 -5.69949 0
M  V30 7928 H 779.691 -0.577519 -6.07863 0
M  V30 7929 H 781.105 -2.62561 -5.09642 0
M  V30 7930 H 779.502 -3.4019 -4.94359 0
M  V30 7931 H 780.572 -3.32199 -3.53231 0
M  V30 7932 N 781.915 1.24427 -0.967243 0
M  V30 7933 C 782.863 2.27403 -0.488927 0
M  V30 7934 C 783.857 1.63388 0.447302 0
M  V30 7935 O 785.063 1.77085 0.322643 0
M  V30 7936 H 781.438 0.738921 -0.139643 0
M  V30 7937 H 783.409 2.65122 -1.36942 0
M  V30 7938 C 782.158 3.4709 0.205787 0
M  V30 7939 H 781.481 3.96591 -0.50551 0
M  V30 7940 H 782.921 4.2099 0.504296 0
M  V30 7941 C 781.38 3.04923 1.43261 0
M  V30 7942 O 781.91 3.12043 2.52967 0
M  V30 7943 N 780.116 2.59976 1.29849 0
M  V30 7944 H 779.663 2.54382 0.405876 0
M  V30 7945 H 779.621 2.32128 2.12047 0
M  V30 7946 N 783.393 0.737304 1.3929 0
M  V30 7947 C 784.642 0.283129 1.99703 0
M  V30 7948 C 784.955 -1.13677 1.59176 0
M  V30 7949 O 786.161 -1.69058 2.12442 0
M  V30 7950 C 784.617 0.455262 3.57009 0
M  V30 7951 C 784.225 1.88319 4.06497 0
M  V30 7952 C 785.969 0.0629786 4.24453 0
M  V30 7953 C 783.876 2.00475 5.56385 0
M  V30 7954 H 782.806 0.102106 0.747054 0
M  V30 7955 H 785.457 0.911515 1.5926 0
M  V30 7956 H 783.839 -0.242057 3.9526 0
M  V30 7957 H 785.013 2.61265 3.79575 0
M  V30 7958 H 783.328 2.2289 3.51723 0
M  V30 7959 H 785.925 0.132787 5.34535 0
M  V30 7960 H 786.268 -0.982128 4.04549 0
M  V30 7961 H 786.801 0.71154 3.91385 0
M  V30 7962 H 783.54 3.03182 5.81172 0
M  V30 7963 H 783.06 1.31969 5.85102 0
M  V30 7964 H 784.739 1.787 6.21832 0
M  V30 7965 N 784.871 -1.49948 0.485112 0
M  V30 7966 C 786.287 -1.58984 0.140096 0
M  V30 7967 C 786.487 -1.49194 -1.35438 0
M  V30 7968 O 785.543 -1.35765 -2.12894 0
M  V30 7969 C 786.856 -2.92372 0.702769 0
M  V30 7970 C 788.404 -3.05801 0.66745 0
M  V30 7971 C 788.879 -4.41785 1.20791 0
M  V30 7972 N 790.37 -4.48234 1.16792 0
M  V30 7973 C 791.105 -5.51871 1.55646 0
M  V30 7974 N 790.601 -6.62692 2.02016 0
M  V30 7975 N 792.394 -5.42494 1.47161 0
M  V30 7976 H 784.545 -1.54555 1.45693 0
M  V30 7977 H 786.808 -0.731206 0.603359 0
M  V30 7978 H 786.514 -3.05056 1.75025 0
M  V30 7979 H 786.388 -3.76885 0.154205 0
M  V30 7980 H 788.775 -2.92757 -0.371157 0
M  V30 7981 H 788.856 -2.23011 1.25298 0
M  V30 7982 H 788.5 -4.55579 2.24522 0
M  V30 7983 H 788.43 -5.23188 0.598464 0
M  V30 7984 H 790.921 -3.68718 0.827982 0
M  V30 7985 H 791.234 -7.3785 2.29775 0
M  V30 7986 H 789.579 -6.63775 2.05979 0
M  V30 7987 H 792.77 -4.54806 1.10765 0
M  V30 7988 H 792.943 -6.2314 1.77766 0
M  V30 7989 N 786.349 -0.21828 -1.56081 0
M  V30 7990 C 787.597 0.413488 -1.97825 0
M  V30 7991 C 787.918 1.60527 -1.10707 0
M  V30 7992 O 787.188 1.9504 -0.183378 0
M  V30 7993 H 785.768 0.155757 -0.730581 0
M  V30 7994 H 788.43 -0.310413 -1.92412 0
M  V30 7995 H 787.526 0.742024 -3.03151 0
M  V30 7996 N 787.827 1.57504 0.0551401 0
M  V30 7997 C 788.774 2.04825 1.06373 0
M  V30 7998 C 789.744 0.932108 1.37481 0
M  V30 7999 O 790.929 1.20093 1.48265 0
M  V30 8000 C 788.069 2.51091 2.36743 0
M  V30 8001 C 787.182 3.76392 2.12021 0
M  V30 8002 C 786.317 4.11373 3.36074 0
M  V30 8003 C 785.356 5.29666 3.0679 0
M  V30 8004 N 784.493 5.60205 4.2322 0
M  V30 8005 H 789.333 2.90753 0.653216 0
M  V30 8006 H 786.87 1.43776 0.310951 0
M  V30 8007 H 788.828 2.75973 3.12881 0
M  V30 8008 H 787.458 1.68118 2.75565 0
M  V30 8009 H 786.51 3.58751 1.26498 0
M  V30 8010 H 787.822 4.62662 1.86401 0
M  V30 8011 H 786.976 4.37245 4.20597 0
M  V30 8012 H 785.715 3.23704 3.64784 0
M  V30 8013 H 784.72 5.03574 2.20664 0
M  V30 8014 H 785.945 6.18968 2.79385 0
M  V30 8015 H 783.891 4.75495 4.5193 0
M  V30 8016 H 783.808 6.40928 4.00933 0
M  V30 8017 H 785.076 5.90637 5.08692 0
M  V30 8018 N 789.305 -0.326896 1.54172 0
M  V30 8019 C 790.215 -1.42525 1.86343 0
M  V30 8020 C 791.231 -1.56764 0.75505 0
M  V30 8021 O 792.407 -1.71924 1.04901 0
M  V30 8022 C 789.472 -2.77286 2.08119 0
M  V30 8023 C 788.533 -2.7225 3.31931 0
M  V30 8024 C 787.766 -4.00584 3.52659 0
M  V30 8025 O 787.989 -4.98686 2.76891 0
M  V30 8026 O 786.923 -4.04045 4.46129 0
M  V30 8027 H 790.749 -1.18249 2.79734 0
M  V30 8028 H 788.334 -0.520614 1.40036 0
M  V30 8029 H 790.216 -3.57065 2.23791 0
M  V30 8030 H 788.891 -3.01459 1.17917 0
M  V30 8031 H 787.798 -1.91033 3.21647 0
M  V30 8032 H 789.131 -2.53032 4.2218 0
M  V30 8033 N 790.784 -1.46188 -0.588786 0
M  V30 8034 C 791.747 -1.55882 -1.68029 0
M  V30 8035 C 792.747 -0.436515 -1.54762 0
M  V30 8036 O 793.937 -0.700626 -1.59489 0
M  V30 8037 C 791.069 -1.47332 -3.07418 0
M  V30 8038 H 792.262 -2.5315 -1.60795 0
M  V30 8039 H 789.815 -1.33908 -0.806116 0
M  V30 8040 H 790.55 -0.513193 -3.20214 0
M  V30 8041 H 790.335 -2.28753 -3.18456 0
M  V30 8042 H 791.825 -1.57187 -3.86887 0
M  V30 8043 N 792.262 0.832906 -1.33792 0
M  V30 8044 C 793.225 1.92471 -1.24449 0
M  V30 8045 C 794.225 1.59981 -0.162085 0
M  V30 8046 O 795.415 1.69208 -0.414029 0
M  V30 8047 C 792.547 3.28278 -0.919044 0
M  V30 8048 H 793.74 2.0218 -2.21502 0
M  V30 8049 H 791.293 1.0257 -1.17936 0
M  V30 8050 H 792.028 3.24263 0.048738 0
M  V30 8051 H 791.813 3.53241 -1.70187 0
M  V30 8052 H 793.303 4.08253 -0.878576 0
M  V30 8053 N 793.74 1.17359 1.05189 0
M  V30 8054 C 794.703 0.892604 2.11105 0
M  V30 8055 C 795.703 -0.117236 1.60372 0
M  V30 8056 O 796.893 0.114936 1.7382 0
M  V30 8057 C 794.025 0.337032 3.3923 0
M  V30 8058 H 795.218 1.83169 2.37464 0
M  V30 8059 H 792.771 0.984051 1.21434 0
M  V30 8060 H 793.506 -0.609198 3.18527 0
M  V30 8061 H 793.291 1.06484 3.77364 0
M  V30 8062 H 794.781 0.158763 4.17298 0
M  V30 8063 N 795.218 -1.23913 0.973828 0
M  V30 8064 C 796.148 -2.27453 0.527969 0
M  V30 8065 C 797.129 -1.6443 -0.435513 0
M  V30 8066 O 798.314 -1.9137 -0.330306 0
M  V30 8067 C 795.444 -3.4685 -0.176757 0
M  V30 8068 C 794.398 -4.22181 0.703352 0
M  V30 8069 C 793.724 -5.34534 -0.133215 0
M  V30 8070 C 795.024 -4.82865 1.99096 0
M  V30 8071 H 796.718 -2.65 1.3934 0
M  V30 8072 H 794.264 -1.27388 0.671446 0
M  V30 8073 H 796.217 -4.18424 -0.499934 0
M  V30 8074 H 794.941 -3.08346 -1.07659 0
M  V30 8075 H 793.6 -3.52416 1.00989 0
M  V30 8076 H 793.248 -4.92271 -1.03338 0
M  V30 8077 H 792.948 -5.85855 0.452494 0
M  V30 8078 H 794.472 -6.08933 -0.450924 0
M  V30 8079 H 795.886 -5.46481 1.73297 0
M  V30 8080 H 794.283 -5.44444 2.52389 0
M  V30 8081 H 795.353 -4.03977 2.68199 0
M  V30 8082 N 796.696 -0.74468 -1.38897 0
M  V30 8083 C 797.921 -0.306119 -2.05128 0
M  V30 8084 C 798.346 1.0541 -1.55789 0
M  V30 8085 O 797.704 1.66993 -0.705909 0
M  V30 8086 C 797.752 -0.328195 -3.59103 0
M  V30 8087 O 796.856 0.680876 -4.06741 0
M  V30 8088 H 796.197 -0.137209 -0.649669 0
M  V30 8089 H 798.727 -1.01331 -1.77745 0
M  V30 8090 H 798.737 -0.175956 -4.0762 0
M  V30 8091 H 797.412 -1.32067 -3.94374 0
M  V30 8092 H 795.989 0.49398 -3.69614 0
M  V30 8093 N 798.174 1.49689 -0.493057 0
M  V30 8094 C 799.107 2.25712 0.336062 0
M  V30 8095 C 800.085 1.29953 0.977294 0
M  V30 8096 O 801.269 1.59225 1.00895 0
M  V30 8097 C 798.396 3.0501 1.47263 0
M  V30 8098 C 797.442 4.15863 0.946575 0
M  V30 8099 S 798.275 5.35272 -0.156323 0
M  V30 8100 C 799.431 6.18123 0.983601 0
M  V30 8101 H 799.664 2.95688 -0.309215 0
M  V30 8102 H 797.197 1.51872 -0.278238 0
M  V30 8103 H 799.155 3.51284 2.12391 0
M  V30 8104 H 797.816 2.34519 2.08949 0
M  V30 8105 H 797.009 4.70834 1.7981 0
M  V30 8106 H 796.611 3.72139 0.372647 0
M  V30 8107 H 798.903 6.50588 1.89056 0
M  V30 8108 H 799.846 7.06521 0.472687 0
M  V30 8109 H 800.254 5.50547 1.24735 0
M  V30 8110 N 799.652 0.226554 1.55963 0
M  V30 8111 C 800.899 -0.403789 1.98433 0
M  V30 8112 C 801.227 -1.59416 1.1143 0
M  V30 8113 O 800.482 -1.95042 0.160389 0
M  V30 8114 C 800.781 -0.87642 3.46488 0
M  V30 8115 C 800.447 0.203973 4.50438 0
M  V30 8116 C 799.109 0.500754 4.78587 0
M  V30 8117 C 801.461 0.934396 5.12756 0
M  V30 8118 C 798.789 1.53239 5.66334 0
M  V30 8119 C 801.141 1.9554 6.0162 0
M  V30 8120 C 799.805 2.25905 6.28111 0
M  V30 8121 H 799.075 -0.147757 0.726119 0
M  V30 8122 H 801.722 0.330121 1.88633 0
M  V30 8123 H 800.027 -1.68918 3.53517 0
M  V30 8124 H 801.724 -1.37407 3.76723 0
M  V30 8125 H 798.314 -0.0374917 4.28584 0
M  V30 8126 H 802.498 0.718355 4.91074 0
M  V30 8127 H 797.754 1.77321 5.85122 0
M  V30 8128 H 801.928 2.52642 6.48957 0
M  V30 8129 H 799.555 3.05985 6.959 0
M  V30 8130 N 801.13 -1.57531 -0.0467866 0
M  V30 8131 C 802.08 -2.01845 -1.06031 0
M  V30 8132 C 803.064 -0.904662 -1.33059 0
M  V30 8133 O 804.256 -1.16858 -1.32941 0
M  V30 8134 C 801.385 -2.48673 -2.36679 0
M  V30 8135 C 800.471 -3.66837 -2.12818 0
M  V30 8136 N 800.862 -4.80172 -1.5896 0
M  V30 8137 C 799.16 -3.73869 -2.43183 0
M  V30 8138 C 799.861 -5.61895 -1.50494 0
M  V30 8139 N 798.837 -5.0648 -1.97431 0
M  V30 8140 H 802.639 -2.869 -0.637623 0
M  V30 8141 H 800.153 -1.6041 -0.253427 0
M  V30 8142 H 802.15 -2.78671 -3.10077 0
M  V30 8143 H 800.81 -1.65016 -2.79642 0
M  V30 8144 H 801.821 -5.01967 -1.27474 0
M  V30 8145 H 798.498 -3.00977 -2.89342 0
M  V30 8146 H 799.888 -6.62918 -1.09494 0
M  V30 8147 N 802.608 0.318715 -1.54344 0
M  V30 8148 C 803.854 1.05765 -1.73037 0
M  V30 8149 C 804.187 1.87514 -0.505181 0
M  V30 8150 O 803.462 1.88021 0.497838 0
M  V30 8151 C 803.745 1.97836 -3.00887 0
M  V30 8152 C 803.598 1.19384 -4.33668 0
M  V30 8153 C 804.917 2.97285 -3.24514 0
M  V30 8154 H 802.036 0.383104 -0.629603 0
M  V30 8155 H 804.678 0.333864 -1.87044 0
M  V30 8156 H 802.828 2.59552 -2.89076 0
M  V30 8157 H 804.5 0.600906 -4.57369 0
M  V30 8158 H 802.743 0.496198 -4.30953 0
M  V30 8159 H 803.414 1.87014 -5.19355 0
M  V30 8160 H 805.89 2.45693 -3.35819 0
M  V30 8161 H 804.766 3.58887 -4.15321 0
M  V30 8162 H 805.027 3.70003 -2.41971 0
M  V30 8163 N 804.086 1.46499 0.581025 0
M  V30 8164 C 805.311 1.55708 1.37002 0
M  V30 8165 C 805.736 0.19942 1.8704 0
M  V30 8166 O 805.094 -0.820731 1.61659 0
M  V30 8167 C 805.142 2.56716 2.53238 0
M  V30 8168 O 804.246 2.10336 3.54729 0
M  V30 8169 H 803.587 0.523912 0.407937 0
M  V30 8170 H 806.117 1.92085 0.704602 0
M  V30 8171 H 806.127 2.76378 3.00132 0
M  V30 8172 H 804.802 3.55307 2.16171 0
M  V30 8173 H 803.379 2.00669 3.14303 0
M  V30 8174 N 805.565 -0.825799 1.34232 0
M  V30 8175 C 806.793 -1.61363 1.29497 0
M  V30 8176 C 807.208 -1.88341 -0.131536 0
M  V30 8177 O 806.565 -1.47279 -1.07773 0
M  V30 8178 C 806.616 -2.95623 2.08061 0
M  V30 8179 O 806.337 -2.69824 3.45147 0
M  V30 8180 C 807.838 -3.90032 2.10688 0
M  V30 8181 H 805.058 -0.501676 0.445603 0
M  V30 8182 H 807.602 -1.02767 1.76803 0
M  V30 8183 H 805.757 -3.50785 1.64404 0
M  V30 8184 H 806.171 -3.55412 3.85723 0
M  V30 8185 H 807.645 -4.81411 2.70087 0
M  V30 8186 H 808.122 -4.25188 1.10052 0
M  V30 8187 H 808.728 -3.40807 2.54422 0
M  V30 8188 N 807.043 -1.17915 -1.04565 0
M  V30 8189 C 808.454 -0.976383 -1.59134 0
M  V30 8190 C 808.805 0.475267 -1.90357 0
M  V30 8191 O 807.93 1.35172 -1.6899 0
M  V30 8192 C 808.525 -1.76604 -2.89131 0
M  V30 8193 C 807.084 -1.60777 -3.40335 0
M  V30 8194 C 806.231 -1.76369 -2.13985 0
M  V30 8195 H 809.182 -1.32532 -0.872985 0
M  V30 8196 H 809.203 -1.25215 -3.59307 0
M  V30 8197 H 808.715 -2.82252 -2.66375 0
M  V30 8198 H 806.816 -0.576436 -3.68114 0
M  V30 8199 H 806.929 -2.40268 -4.14497 0
M  V30 8200 H 805.293 -1.19268 -2.25049 0
M  V30 8201 H 806.076 -2.83441 -1.9369 0
M  V30 8202 N 808.521 1.23394 -0.980386 0
M  V30 8203 C 809.451 2.2717 -0.540024 0
M  V30 8204 C 810.432 1.64659 0.426787 0
M  V30 8205 O 811.617 1.91543 0.320153 0
M  V30 8206 C 808.747 3.46939 0.15836 0
M  V30 8207 C 807.701 4.21802 -0.725732 0
M  V30 8208 C 807.027 5.34597 0.104866 0
M  V30 8209 C 808.327 4.81802 -2.01654 0
M  V30 8210 H 810.021 2.64257 -1.40743 0
M  V30 8211 H 807.567 1.2703 -0.678193 0
M  V30 8212 H 809.52 4.18683 0.477737 0
M  V30 8213 H 808.244 3.08912 1.06022 0
M  V30 8214 H 806.903 3.51875 -1.02857 0
M  V30 8215 H 806.551 4.92812 1.00726 0
M  V30 8216 H 806.251 5.85607 -0.483557 0
M  V30 8217 H 807.775 6.09163 0.418624 0
M  V30 8218 H 809.189 5.45554 -1.76193 0
M  V30 8219 H 807.586 5.43098 -2.55273 0
M  V30 8220 H 808.656 4.02549 -2.70338 0
M  V30 8221 N 809.999 0.752036 1.385 0
M  V30 8222 C 811.41 0.375385 1.82887 0
M  V30 8223 C 811.761 -1.09575 1.62751 0
M  V30 8224 O 810.886 -1.84685 1.12785 0
M  V30 8225 C 811.481 0.674563 3.32017 0
M  V30 8226 C 810.04 0.351208 3.74758 0
M  V30 8227 C 809.187 0.928531 2.61292 0
M  V30 8228 H 812.138 0.948313 1.27251 0
M  V30 8229 H 812.159 -0.0477781 3.8047 0
M  V30 8230 H 811.671 1.74533 3.46641 0
M  V30 8231 H 809.772 -0.713042 3.65714 0
M  V30 8232 H 809.885 0.845675 4.71577 0
M  V30 8233 H 808.249 0.354012 2.52228 0
M  V30 8234 H 809.032 2.0043 2.78716 0
M  V30 8235 N 811.477 -1.49425 0.500989 0
M  V30 8236 C 812.723 -2.02753 -0.0436 0
M  V30 8237 C 813.056 -1.37991 -1.36646 0
M  V30 8238 O 812.331 -0.515597 -1.87542 0
M  V30 8239 C 812.614 -3.59565 -0.19616 0
M  V30 8240 C 812.467 -4.34855 1.14982 0
M  V30 8241 C 813.786 -4.30014 -0.936795 0
M  V30 8242 H 810.905 -0.73686 -0.0143711 0
M  V30 8243 H 813.547 -1.78448 0.652397 0
M  V30 8244 H 811.697 -3.80405 -0.788959 0
M  V30 8245 H 813.369 -4.25512 1.7815 0
M  V30 8246 H 811.612 -3.97414 1.73911 0
M  V30 8247 H 812.283 -5.42933 0.996385 0
M  V30 8248 H 814.759 -4.1383 -0.434036 0
M  V30 8249 H 813.635 -5.39483 -1.01238 0
M  V30 8250 H 813.896 -3.95257 -1.9805 0
M  V30 8251 N 812.955 -0.234822 -1.55841 0
M  V30 8252 C 813.888 0.710134 -2.16869 0
M  V30 8253 C 814.866 1.18155 -1.11706 0
M  V30 8254 O 816.05 1.26188 -1.40032 0
M  V30 8255 C 813.177 1.96368 -2.75966 0
M  V30 8256 C 812.223 1.63114 -3.94076 0
M  V30 8257 S 813.056 0.744307 -5.30302 0
M  V30 8258 C 814.212 2.00712 -5.92845 0
M  V30 8259 H 814.445 0.19146 -2.96683 0
M  V30 8260 H 811.978 -0.0193854 -1.54388 0
M  V30 8261 H 813.936 2.68338 -3.10653 0
M  V30 8262 H 812.597 2.45347 -1.96121 0
M  V30 8263 H 811.79 2.56285 -4.33975 0
M  V30 8264 H 811.392 0.991967 -3.60605 0
M  V30 8265 H 813.684 2.9557 -6.09627 0
M  V30 8266 H 814.627 1.65182 -6.88564 0
M  V30 8267 H 815.035 2.1537 -5.21801 0
M  V30 8268 N 814.433 1.57553 0.0384317 0
M  V30 8269 C 815.661 1.93093 0.743141 0
M  V30 8270 C 816.076 0.833787 1.69391 0
M  V30 8271 O 815.433 -0.190532 1.81503 0
M  V30 8272 C 815.484 3.28533 1.50826 0
M  V30 8273 O 815.205 4.34032 0.595665 0
M  V30 8274 C 816.706 3.78297 2.31098 0
M  V30 8275 H 813.926 0.637486 0.20941 0
M  V30 8276 H 816.47 2.045 -0.00125154 0
M  V30 8277 H 814.625 3.18552 2.20462 0
M  V30 8278 H 815.039 5.12155 1.13124 0
M  V30 8279 H 816.513 4.75602 2.80191 0
M  V30 8280 H 816.99 3.09008 3.12107 0
M  V30 8281 H 817.596 3.91331 1.66555 0
M  V30 8282 N 815.911 -0.310526 1.54511 0
M  V30 8283 C 817.159 -1.04484 1.72996 0
M  V30 8284 C 817.48 -1.88118 0.513479 0
M  V30 8285 O 816.75 -1.90119 -0.472384 0
M  V30 8286 H 815.33 -0.388747 0.637875 0
M  V30 8287 H 817.992 -0.343811 1.91844 0
M  V30 8288 H 817.088 -1.70341 2.61515 0
M  V30 8289 N 817.389 -1.46805 -0.573248 0
M  V30 8290 C 818.637 -1.52302 -1.32847 0
M  V30 8291 C 818.958 -0.180159 -1.94166 0
M  V30 8292 O 818.228 0.794291 -1.79075 0
M  V30 8293 H 816.808 -0.56097 -0.493276 0
M  V30 8294 H 819.47 -1.82998 -0.670642 0
M  V30 8295 H 818.566 -2.28089 -2.13031 0
M  V30 8296 N 818.867 0.818669 -1.34668 0
M  V30 8297 C 820.114 1.57512 -1.27264 0
M  V30 8298 C 820.442 1.93871 0.156254 0
M  V30 8299 O 819.697 1.60582 1.11857 0
M  V30 8300 C 819.996 2.88245 -2.11304 0
M  V30 8301 C 819.662 2.71159 -3.60255 0
M  V30 8302 C 818.324 2.66207 -4.00858 0
M  V30 8303 C 820.676 2.54538 -4.54819 0
M  V30 8304 C 818.004 2.4256 -5.34211 0
M  V30 8305 C 820.356 2.32421 -5.88356 0
M  V30 8306 C 819.02 2.25884 -6.28118 0
M  V30 8307 H 818.29 0.576378 -0.465692 0
M  V30 8308 H 820.937 0.9469 -1.66451 0
M  V30 8309 H 819.242 3.55381 -1.64958 0
M  V30 8310 H 820.939 3.45869 -2.02919 0
M  V30 8311 H 817.529 2.75856 -3.28027 0
M  V30 8312 H 821.713 2.57384 -4.24343 0
M  V30 8313 H 816.969 2.35959 -5.64033 0
M  V30 8314 H 821.143 2.18548 -6.61218 0
M  V30 8315 H 818.77 2.07322 -7.31383 0
M  V30 8316 N 820.346 1.18468 1.03938 0
M  V30 8317 C 821.276 0.936389 2.13902 0
M  V30 8318 C 822.257 -0.126381 1.6963 0
M  V30 8319 O 823.442 0.0264757 1.94182 0
M  V30 8320 C 820.572 0.462729 3.44204 0
M  V30 8321 C 819.526 1.46613 4.02105 0
M  V30 8322 C 818.852 0.84994 5.27902 0
M  V30 8323 C 820.152 2.84323 4.3813 0
M  V30 8324 H 821.846 1.85602 2.3493 0
M  V30 8325 H 819.392 0.893806 1.12903 0
M  V30 8326 H 821.345 0.276382 4.20493 0
M  V30 8327 H 820.069 -0.492477 3.22866 0
M  V30 8328 H 818.728 1.63944 3.27899 0
M  V30 8329 H 818.376 -0.112493 5.02874 0
M  V30 8330 H 818.076 1.51988 5.67603 0
M  V30 8331 H 819.6 0.674152 6.06867 0
M  V30 8332 H 821.014 2.70636 5.054 0
M  V30 8333 H 819.411 3.48012 4.88884 0
M  V30 8334 H 820.481 3.37776 3.47901 0
M  V30 8335 N 821.824 -1.22873 0.986916 0
M  V30 8336 C 823.049 -1.96028 0.677341 0
M  V30 8337 C 823.474 -1.72487 -0.750319 0
M  V30 8338 O 822.832 -1.00036 -1.51203 0
M  V30 8339 C 822.88 -3.46983 0.981593 0
M  V30 8340 O 821.984 -4.12328 0.0770729 0
M  V30 8341 H 821.325 -0.613458 0.254096 0
M  V30 8342 H 823.855 -1.56132 1.32227 0
M  V30 8343 H 823.865 -3.9747 0.920969 0
M  V30 8344 H 822.54 -3.63442 2.02194 0
M  V30 8345 H 821.117 -3.72402 0.192666 0
M  V30 8346 N 823.302 -0.75937 -1.38099 0
M  V30 8347 C 824.542 -0.323116 -2.0183 0
M  V30 8348 C 824.906 1.07658 -1.58977 0
M  V30 8349 O 826.107 1.61227 -2.1508 0
M  V30 8350 C 824.378 -0.448234 -3.54578 0
M  V30 8351 S 825.937 -0.0954152 -4.38696 0
M  V30 8352 H 822.755 -0.125013 -0.699923 0
M  V30 8353 H 825.357 -0.991262 -1.68506 0
M  V30 8354 H 824.061 -1.46778 -3.83255 0
M  V30 8355 H 823.592 0.236895 -3.92686 0
M  V30 8356 H 825.607 1.11312 -4.83554 0
M  V30 8357 N 824.78 1.49157 -0.508906 0
M  V30 8358 C 826.029 2.0167 0.0346854 0
M  V30 8359 C 826.342 1.39302 1.37311 0
M  V30 8360 O 827.548 1.83189 2.00385 0
M  V30 8361 C 826.004 3.59725 0.112261 0
M  V30 8362 C 825.612 4.31069 -1.21999 0
M  V30 8363 C 827.356 4.20155 0.605798 0
M  V30 8364 C 825.263 5.81001 -1.10415 0
M  V30 8365 H 824.193 0.753814 0.0167355 0
M  V30 8366 H 826.844 1.7162 -0.649518 0
M  V30 8367 H 825.226 3.86525 0.861087 0
M  V30 8368 H 826.4 4.15962 -1.98273 0
M  V30 8369 H 824.715 3.82418 -1.64759 0
M  V30 8370 H 827.312 5.29964 0.710102 0
M  V30 8371 H 827.655 3.84051 1.60656 0
M  V30 8372 H 828.188 3.97705 -0.0867239 0
M  V30 8373 H 824.927 6.21643 -2.07941 0
M  V30 8374 H 824.447 5.9858 -0.382428 0
M  V30 8375 H 826.126 6.42207 -0.786116 0
M  V30 8376 N 826.258 0.243083 1.55714 0
M  V30 8377 C 827.188 -0.652336 2.24203 0
M  V30 8378 C 828.169 -1.1843 1.221 0
M  V30 8379 O 829.354 -1.22435 1.50743 0
M  V30 8380 C 826.484 -1.85111 2.93856 0
M  V30 8381 C 825.438 -1.45208 4.02615 0
M  V30 8382 C 824.764 -2.73137 4.59674 0
M  V30 8383 C 826.064 -0.625988 5.18535 0
M  V30 8384 H 827.758 -0.0812504 2.9929 0
M  V30 8385 H 825.304 -0.0376388 1.43951 0
M  V30 8386 H 827.257 -2.48314 3.40468 0
M  V30 8387 H 825.981 -2.44751 2.16251 0
M  V30 8388 H 824.64 -0.843406 3.56766 0
M  V30 8389 H 824.288 -3.30967 3.78774 0
M  V30 8390 H 823.988 -2.47163 5.33089 0
M  V30 8391 H 825.512 -3.37245 5.09017 0
M  V30 8392 H 826.926 -1.16223 5.61396 0
M  V30 8393 H 825.323 -0.462465 5.98315 0
M  V30 8394 H 826.393 0.362652 4.83542 0
M  V30 8395 N 827.736 -1.57571 -0.0300757 0
M  V30 8396 C 828.984 -1.88852 -0.719666 0
M  V30 8397 C 829.305 -0.840645 -1.75949 0
M  V30 8398 O 828.575 0.125854 -1.95495 0
M  V30 8399 H 827.155 -0.696965 -0.268792 0
M  V30 8400 H 829.817 -1.949 0.00373285 0
M  V30 8401 H 828.913 -2.87695 -1.20987 0
M  V30 8402 N 829.214 0.302327 -1.54673 0
M  V30 8403 C 830.144 1.37759 -1.88533 0
M  V30 8404 C 831.125 1.52961 -0.744113 0
M  V30 8405 O 832.31 1.6649 -0.999731 0
M  V30 8406 C 829.44 2.74201 -2.13146 0
M  V30 8407 C 828.394 2.73765 -3.28993 0
M  V30 8408 C 827.72 4.13483 -3.39022 0
M  V30 8409 C 829.02 2.35624 -4.66132 0
M  V30 8410 H 830.714 1.0967 -2.78591 0
M  V30 8411 H 828.26 0.52613 -1.34044 0
M  V30 8412 H 830.213 3.49508 -2.35419 0
M  V30 8413 H 828.937 3.03812 -1.19858 0
M  V30 8414 H 827.596 2.00914 -3.06642 0
M  V30 8415 H 827.244 4.40269 -2.43253 0
M  V30 8416 H 826.944 4.14093 -4.16894 0
M  V30 8417 H 828.468 4.90572 -3.63553 0
M  V30 8418 H 829.882 3.00647 -4.88143 0
M  V30 8419 H 828.279 2.47449 -5.46707 0
M  V30 8420 H 829.349 1.30753 -4.66939 0
M  V30 8421 N 830.692 1.47107 0.565454 0
M  V30 8422 C 831.938 1.53535 1.32495 0
M  V30 8423 C 832.271 0.193537 1.93233 0
M  V30 8424 O 831.546 -0.796956 1.77423 0
M  V30 8425 C 831.829 2.64712 2.4413 0
M  V30 8426 C 831.682 4.08482 1.88314 0
M  V30 8427 C 833.001 2.71853 3.46098 0
M  V30 8428 H 830.12 0.558926 0.480386 0
M  V30 8429 H 832.762 1.79125 0.633575 0
M  V30 8430 H 830.912 2.43023 3.03104 0
M  V30 8431 H 832.584 4.4151 1.33665 0
M  V30 8432 H 830.827 4.17148 1.19037 0
M  V30 8433 H 831.498 4.82032 2.68978 0
M  V30 8434 H 833.974 2.91397 2.97031 0
M  V30 8435 H 832.85 3.51433 4.21646 0
M  V30 8436 H 833.111 1.78584 4.04426 0
M  V30 8437 N 832.17 -0.811516 1.35101 0
M  V30 8438 C 833.1 -1.9378 1.30275 0
M  V30 8439 C 834.081 -1.69165 0.178075 0
M  V30 8440 O 835.266 -1.90599 0.372256 0
M  V30 8441 C 832.396 -3.30439 1.06899 0
M  V30 8442 C 831.35 -3.69523 2.15955 0
M  V30 8443 C 830.676 -5.0429 1.77751 0
M  V30 8444 C 831.976 -3.80419 3.57881 0
M  V30 8445 H 833.67 -1.98075 2.24514 0
M  V30 8446 H 831.216 -0.951586 1.08078 0
M  V30 8447 H 833.169 -4.08828 1.02164 0
M  V30 8448 H 831.893 -3.26473 0.0910462 0
M  V30 8449 H 830.552 -2.93416 2.19778 0
M  V30 8450 H 830.2 -4.96823 0.785876 0
M  V30 8451 H 829.9 -5.31411 2.5075 0
M  V30 8452 H 831.424 -5.85125 1.74533 0
M  V30 8453 H 832.838 -4.49051 3.56407 0
M  V30 8454 H 831.235 -4.19005 4.29598 0
M  V30 8455 H 832.305 -2.82105 3.94391 0
M  V30 8456 N 833.648 -1.19017 -1.03309 0
M  V30 8457 C 835.059 -0.993206 -1.5809 0
M  V30 8458 C 835.41 0.45505 -1.9085 0
M  V30 8459 O 834.535 1.33372 -1.70414 0
M  V30 8460 C 835.13 -1.79661 -2.87241 0
M  V30 8461 C 833.689 -1.64377 -3.38611 0
M  V30 8462 C 832.836 -1.78628 -2.12102 0
M  V30 8463 H 835.787 -1.3345 -0.858879 0
M  V30 8464 H 835.808 -1.29019 -3.57958 0
M  V30 8465 H 835.32 -2.85061 -2.63366 0
M  V30 8466 H 833.421 -0.615447 -3.67482 0
M  V30 8467 H 833.534 -2.44651 -4.11926 0
M  V30 8468 H 831.898 -1.21648 -2.23772 0
M  V30 8469 H 832.681 -2.8548 -1.90673 0
M  V30 8470 N 835.127 1.22348 -0.993418 0
M  V30 8471 C 836.057 2.26584 -0.564088 0
M  V30 8472 C 837.038 1.65102 0.409298 0
M  V30 8473 O 838.223 1.91872 0.299819 0
M  V30 8474 C 835.353 3.47087 0.121554 0
M  V30 8475 C 834.307 4.21009 -0.770429 0
M  V30 8476 C 833.633 5.34678 0.0481586 0
M  V30 8477 C 834.933 4.79636 -2.06752 0
M  V30 8478 H 836.627 2.62749 -1.43538 0
M  V30 8479 H 834.173 1.26303 -0.691628 0
M  V30 8480 H 836.126 4.19166 0.433303 0
M  V30 8481 H 834.85 3.1002 1.0274 0
M  V30 8482 H 833.509 3.50764 -1.06583 0
M  V30 8483 H 833.157 4.93852 0.954933 0
M  V30 8484 H 832.857 5.85061 -0.545641 0
M  V30 8485 H 834.381 6.09573 0.353991 0
M  V30 8486 H 835.795 5.43654 -1.81969 0
M  V30 8487 H 834.192 5.4036 -2.61019 0
M  V30 8488 H 835.262 3.99659 -2.74592 0
M  V30 8489 N 836.605 0.766683 1.37694 0
M  V30 8490 C 837.568 0.155849 2.2867 0
M  V30 8491 C 838.568 -0.633509 1.47795 0
M  V30 8492 O 839.758 -0.457844 1.68076 0
M  V30 8493 C 836.89 -0.786965 3.31692 0
M  V30 8494 H 838.083 0.957748 2.84196 0
M  V30 8495 H 835.636 0.534554 1.46875 0
M  V30 8496 H 836.371 -1.61406 2.8128 0
M  V30 8497 H 836.156 -0.223182 3.91464 0
M  V30 8498 H 837.646 -1.20994 3.99688 0
M  V30 8499 N 838.083 -1.48885 0.516809 0
M  V30 8500 C 839.313 -2.06592 -0.018375 0
M  V30 8501 C 839.721 -1.37543 -1.29917 0
M  V30 8502 O 839.064 -0.452527 -1.78039 0
M  V30 8503 C 839.126 -3.58016 -0.326315 0
M  V30 8504 C 838.79 -4.48853 0.859072 0
M  V30 8505 C 839.787 -4.89422 1.75391 0
M  V30 8506 C 837.472 -4.90937 1.06235 0
M  V30 8507 C 839.466 -5.70831 2.83604 0
M  V30 8508 C 837.153 -5.72119 2.14763 0
M  V30 8509 C 838.151 -6.11972 3.03281 0
M  V30 8510 O 837.839 -6.91527 4.09934 0
M  V30 8511 H 837.571 -0.675559 0.0244023 0
M  V30 8512 H 840.125 -1.92442 0.718005 0
M  V30 8513 H 838.355 -3.70231 -1.1165 0
M  V30 8514 H 840.044 -3.97898 -0.801999 0
M  V30 8515 H 840.81 -4.57542 1.60875 0
M  V30 8516 H 836.689 -4.59409 0.382677 0
M  V30 8517 H 840.233 -6.01857 3.52724 0
M  V30 8518 H 836.13 -6.03412 2.29268 0
M  V30 8519 H 836.898 -7.0986 4.07482 0
M  V30 8520 N 839.561 -0.251338 -1.55583 0
M  V30 8521 C 840.809 0.371434 -1.98657 0
M  V30 8522 C 841.13 1.58143 -1.14087 0
M  V30 8523 O 840.4 1.94607 -0.224708 0
M  V30 8524 H 838.98 0.140225 -0.733721 0
M  V30 8525 H 841.642 -0.351157 -1.9171 0
M  V30 8526 H 840.738 0.677554 -3.04657 0
M  V30 8527 N 841.039 1.57585 0.0217189 0
M  V30 8528 C 842.286 1.89606 0.711045 0
M  V30 8529 C 842.614 0.849535 1.74966 0
M  V30 8530 O 841.869 -0.14856 1.95135 0
M  V30 8531 C 842.168 3.28377 1.41079 0
M  V30 8532 C 841.834 4.48035 0.507454 0
M  V30 8533 C 840.496 4.80504 0.258672 0
M  V30 8534 C 842.848 5.21071 -0.115793 0
M  V30 8535 C 840.176 5.83393 -0.622013 0
M  V30 8536 C 842.528 6.24897 -0.984224 0
M  V30 8537 C 841.192 6.55836 -1.2424 0
M  V30 8538 H 840.462 0.693817 0.26019 0
M  V30 8539 H 843.109 1.91478 -0.0291424 0
M  V30 8540 H 841.414 3.22528 2.22448 0
M  V30 8541 H 843.111 3.50404 1.94982 0
M  V30 8542 H 839.701 4.22653 0.711516 0
M  V30 8543 H 843.885 4.96259 0.0634327 0
M  V30 8544 H 839.141 6.05736 -0.830267 0
M  V30 8545 H 843.315 6.8063 -1.47363 0
M  V30 8546 H 840.942 7.35383 -1.92653 0
M  V30 8547 N 842.517 -0.29412 1.54831 0
M  V30 8548 C 843.449 -1.38476 1.82639 0
M  V30 8549 C 844.462 -1.46517 0.709694 0
M  V30 8550 O 845.651 -1.48712 0.987269 0
M  V30 8551 C 842.751 -2.76791 1.95551 0
M  V30 8552 C 841.924 -2.91599 3.26019 0
M  V30 8553 C 840.983 -4.10456 3.29261 0
M  V30 8554 O 840.009 -4.02214 4.02756 0
M  V30 8555 N 841.211 -5.21422 2.55145 0
M  V30 8556 H 843.976 -1.14974 2.76769 0
M  V30 8557 H 841.537 -0.484206 1.5449 0
M  V30 8558 H 843.529 -3.5456 1.95113 0
M  V30 8559 H 842.099 -2.93209 1.08384 0
M  V30 8560 H 841.319 -2.00886 3.39173 0
M  V30 8561 H 842.607 -2.98409 4.12104 0
M  V30 8562 H 842.005 -5.31 1.95078 0
M  V30 8563 H 840.562 -5.97501 2.60454 0
M  V30 8564 N 843.995 -1.47404 -0.557645 0
M  V30 8565 C 845.406 -1.47872 -1.13977 0
M  V30 8566 C 845.757 -0.233176 -1.94809 0
M  V30 8567 O 844.882 0.661945 -2.06027 0
M  V30 8568 C 845.477 -2.67926 -2.07368 0
M  V30 8569 C 844.036 -2.71354 -2.60852 0
M  V30 8570 C 843.183 -2.40967 -1.37223 0
M  V30 8571 H 846.134 -1.54921 -0.344268 0
M  V30 8572 H 846.155 -2.44871 -2.91236 0
M  V30 8573 H 845.667 -3.58562 -1.48509 0
M  V30 8574 H 843.768 -1.84855 -3.23511 0
M  V30 8575 H 843.881 -3.72032 -3.01876 0
M  V30 8576 H 842.245 -1.91541 -1.67882 0
M  V30 8577 H 843.028 -3.33811 -0.801583 0
M  V30 8578 N 845.473 0.80434 -1.35529 0
M  V30 8579 C 846.75 1.5486 -1.1949 0
M  V30 8580 C 847.13 2.09897 0.22506 0
M  V30 8581 O 846.478 1.92643 1.22886 0
M  V30 8582 C 846.688 2.65535 -2.26478 0
M  V30 8583 C 848.036 3.33814 -2.62399 0
M  V30 8584 O 849.06 2.75807 -2.25409 0
M  V30 8585 O 847.919 4.38612 -3.26009 0
M  V30 8586 H 845.013 0.68433 -0.464351 0
M  V30 8587 H 847.559 0.844107 -1.47217 0
M  V30 8588 H 846.331 2.22754 -3.21709 0
M  V30 8589 H 845.954 3.43617 -2.00033 0
M  V30 8590 N 846.951 1.19563 1.02676 0
M  V30 8591 C 847.881 0.959024 2.12897 0
M  V30 8592 C 848.862 -0.108382 1.69754 0
M  V30 8593 O 850.047 0.0470698 1.94143 0
M  V30 8594 C 847.177 0.499211 3.43693 0
M  V30 8595 C 846.131 1.5087 4.00528 0
M  V30 8596 C 845.457 0.905884 5.2697 0
M  V30 8597 C 846.757 2.88954 4.3509 0
M  V30 8598 H 848.451 1.88084 2.32948 0
M  V30 8599 H 845.997 0.905731 1.11949 0
M  V30 8600 H 847.95 0.320965 4.20176 0
M  V30 8601 H 846.674 -0.458205 3.2337 0
M  V30 8602 H 845.333 1.67413 3.26142 0
M  V30 8603 H 844.981 -0.0591506 5.02965 0
M  V30 8604 H 844.681 1.58 5.65959 0
M  V30 8605 H 846.205 0.73848 6.06118 0
M  V30 8606 H 847.619 2.75981 5.02501 0
M  V30 8607 H 846.016 3.53177 4.85166 0
M  V30 8608 H 847.086 3.41447 3.44299 0
M  V30 8609 N 848.429 -1.21819 0.999893 0
M  V30 8610 C 849.675 -1.91035 0.680701 0
M  V30 8611 C 850.008 -1.77582 -0.786021 0
M  V30 8612 O 849.283 -1.14917 -1.56921 0
M  V30 8613 C 849.566 -3.43013 1.0961 0
M  V30 8614 C 849.419 -3.65481 2.6219 0
M  V30 8615 C 850.738 -4.35204 0.654616 0
M  V30 8616 H 847.857 -0.693748 0.248763 0
M  V30 8617 H 850.499 -1.43555 1.24466 0
M  V30 8618 H 848.649 -3.83581 0.616253 0
M  V30 8619 H 850.321 -3.34273 3.17899 0
M  V30 8620 H 848.564 -3.09522 3.03938 0
M  V30 8621 H 849.235 -4.71945 2.86307 0
M  V30 8622 H 851.711 -4.0219 1.06688 0
M  V30 8623 H 850.587 -5.40198 0.973492 0
M  V30 8624 H 850.848 -4.3986 -0.444458 0
M  V30 8625 N 849.908 -0.773975 -1.37286 0
M  V30 8626 C 850.838 -0.175782 -2.32837 0
M  V30 8627 C 851.819 0.680603 -1.5589 0
M  V30 8628 O 853.004 0.617607 -1.84117 0
M  V30 8629 C 850.134 0.702388 -3.40123 0
M  V30 8630 C 849.088 -0.0528687 -4.27967 0
M  V30 8631 C 848.414 0.944891 -5.26285 0
M  V30 8632 C 849.714 -1.23316 -5.07534 0
M  V30 8633 H 851.408 -0.974016 -2.83114 0
M  V30 8634 H 848.954 -0.469826 -1.3612 0
M  V30 8635 H 850.907 1.13069 -4.05947 0
M  V30 8636 H 849.631 1.53316 -2.88378 0
M  V30 8637 H 848.29 -0.461978 -3.63678 0
M  V30 8638 H 847.938 1.77028 -4.70819 0
M  V30 8639 H 847.638 0.444079 -5.8592 0
M  V30 8640 H 849.162 1.37209 -5.94984 0
M  V30 8641 H 850.576 -0.881395 -5.66484 0
M  V30 8642 H 848.973 -1.66621 -5.76504 0
M  V30 8643 H 850.043 -2.03617 -4.40077 0
M  V30 8644 N 851.386 1.48609 -0.524698 0
M  V30 8645 C 852.632 2.02797 0.0113382 0
M  V30 8646 C 852.965 1.40147 1.34433 0
M  V30 8647 O 852.24 0.545368 1.86698 0
M  V30 8648 C 852.523 3.59832 0.138931 0
M  V30 8649 C 852.376 4.32971 -1.21886 0
M  V30 8650 C 853.695 4.3145 0.868265 0
M  V30 8651 H 850.814 0.736995 0.00264645 0
M  V30 8652 H 853.456 1.77388 -0.680704 0
M  V30 8653 H 851.606 3.81612 0.72834 0
M  V30 8654 H 853.278 4.22624 -1.84897 0
M  V30 8655 H 851.521 3.94597 -1.80211 0
M  V30 8656 H 852.192 5.41279 -1.08263 0
M  V30 8657 H 854.668 4.14468 0.368145 0
M  V30 8658 H 853.544 5.41025 0.926428 0
M  V30 8659 H 853.805 3.98358 1.91737 0
M  V30 8660 N 852.864 0.259585 1.55447 0
M  V30 8661 C 853.827 -0.621359 2.20617 0
M  V30 8662 C 854.827 -1.09317 1.17925 0
M  V30 8663 O 856.017 -0.995842 1.42929 0
M  V30 8664 C 853.149 -1.85546 2.85982 0
M  V30 8665 H 854.342 -0.0525833 2.99854 0
M  V30 8666 H 851.895 0.0101055 1.56297 0
M  V30 8667 H 852.63 -2.46515 2.10715 0
M  V30 8668 H 852.415 -1.52523 3.61219 0
M  V30 8669 H 853.905 -2.48227 3.35817 0
M  V30 8670 N 854.342 -1.57594 -0.0133615 0
M  V30 8671 C 855.272 -2.10611 -1.00823 0
M  V30 8672 C 856.253 -1.01217 -1.36708 0
M  V30 8673 O 857.438 -1.28827 -1.45318 0
M  V30 8674 C 854.568 -2.59844 -2.30431 0
M  V30 8675 C 853.522 -3.73644 -2.08745 0
M  V30 8676 C 852.848 -4.09141 -3.4425 0
M  V30 8677 C 854.148 -5.01454 -1.46086 0
M  V30 8678 H 855.842 -2.93985 -0.566849 0
M  V30 8679 H 853.388 -1.41423 -0.271219 0
M  V30 8680 H 855.341 -2.95557 -3.00373 0
M  V30 8681 H 854.065 -1.73573 -2.76658 0
M  V30 8682 H 852.724 -3.38303 -1.41232 0
M  V30 8683 H 852.372 -3.19914 -3.88155 0
M  V30 8684 H 852.072 -4.85802 -3.3056 0
M  V30 8685 H 853.596 -4.47402 -4.15528 0
M  V30 8686 H 855.01 -5.35024 -2.05966 0
M  V30 8687 H 853.407 -5.82832 -1.42924 0
M  V30 8688 H 854.477 -4.83003 -0.428471 0
M  V30 8689 N 855.82 0.285905 -1.54985 0
M  V30 8690 C 857.068 1.01718 -1.74636 0
M  V30 8691 C 857.389 1.87277 -0.543342 0
M  V30 8692 O 856.659 1.90847 0.442078 0
M  V30 8693 H 855.239 0.378549 -0.643979 0
M  V30 8694 H 857.901 0.313247 -1.92366 0
M  V30 8695 H 856.997 1.66159 -2.64192 0
M  V30 8696 N 857.298 1.47698 0.54982 0
M  V30 8697 C 858.709 1.48474 1.13191 0
M  V30 8698 C 859.06 0.243504 1.94683 0
M  V30 8699 O 858.185 -0.651009 2.06375 0
M  V30 8700 C 858.78 2.69022 2.05944 0
M  V30 8701 C 857.339 2.72733 2.5941 0
M  V30 8702 C 856.486 2.41691 1.35944 0
M  V30 8703 H 859.437 1.55101 0.336048 0
M  V30 8704 H 859.458 2.46412 2.89934 0
M  V30 8705 H 858.97 3.59345 1.46605 0
M  V30 8706 H 857.071 1.86568 3.22526 0
M  V30 8707 H 857.184 3.73628 2.99899 0
M  V30 8708 H 855.548 1.92428 1.66864 0
M  V30 8709 H 856.331 3.34231 0.783869 0
M  V30 8710 N 858.776 -0.797141 1.35954 0
M  V30 8711 C 860.024 -1.55161 1.29497 0
M  V30 8712 C 860.345 -1.94582 -0.127659 0
M  V30 8713 O 859.615 -1.64343 -1.06622 0
M  V30 8714 H 858.195 -0.575413 0.47635 0
M  V30 8715 H 860.857 -0.950282 1.70164 0
M  V30 8716 H 859.953 -2.46272 1.9172 0
M  V30 8717 N 860.254 -1.20106 -1.0204 0
M  V30 8718 C 861.204 -0.914145 -2.08872 0
M  V30 8719 C 862.188 0.124503 -1.60418 0
M  V30 8720 O 863.38 -0.0823521 -1.76808 0
M  V30 8721 C 860.509 -0.463897 -3.40151 0
M  V30 8722 C 859.595 -1.53576 -3.95317 0
M  V30 8723 N 859.986 -2.75726 -4.24038 0
M  V30 8724 C 858.284 -1.40103 -4.23423 0
M  V30 8725 C 858.985 -3.44838 -4.68468 0
M  V30 8726 N 857.961 -2.72245 -4.70514 0
M  V30 8727 H 861.763 -1.8424 -2.28982 0
M  V30 8728 H 859.277 -1.0945 -1.19977 0
M  V30 8729 H 861.274 -0.239766 -4.1621 0
M  V30 8730 H 859.934 0.457779 -3.21457 0
M  V30 8731 H 860.945 -3.12412 -4.13061 0
M  V30 8732 H 857.622 -0.543472 -4.13948 0
M  V30 8733 H 859.012 -4.49342 -4.99541 0
M  V30 8734 N 861.732 1.21287 -1.00634 0
M  V30 8735 C 862.98 1.90013 -0.688438 0
M  V30 8736 C 863.301 1.78573 0.783365 0
M  V30 8737 O 862.571 1.1815 1.56261 0
M  V30 8738 H 861.151 0.703336 -0.251648 0
M  V30 8739 H 863.813 1.47346 -1.27574 0
M  V30 8740 H 862.909 2.96879 -0.962781 0
M  V30 8741 N 863.21 0.781244 1.36873 0
M  V30 8742 C 864.14 0.188128 2.32741 0
M  V30 8743 C 865.121 -0.672326 1.56249 0
M  V30 8744 O 866.306 -0.607835 1.84442 0
M  V30 8745 C 863.436 -0.684341 3.40491 0
M  V30 8746 C 862.39 0.0755641 4.27933 0
M  V30 8747 C 861.716 -0.916968 5.26779 0
M  V30 8748 C 863.016 1.26006 5.06873 0
M  V30 8749 H 864.71 0.989016 2.82593 0
M  V30 8750 H 862.256 0.477038 1.35869 0
M  V30 8751 H 864.209 -1.10915 4.06541 0
M  V30 8752 H 862.933 -1.51785 2.89187 0
M  V30 8753 H 861.592 0.481258 3.63427 0
M  V30 8754 H 861.24 -1.74528 4.71751 0
M  V30 8755 H 860.94 -0.413 5.86147 0
M  V30 8756 H 862.464 -1.34052 5.95703 0
M  V30 8757 H 863.878 0.911425 5.66009 0
M  V30 8758 H 862.275 1.69676 5.75613 0
M  V30 8759 H 863.345 2.05948 4.38991 0
M  V30 8760 N 864.689 -1.48329 0.532571 0
M  V30 8761 C 865.621 -2.27652 -0.265931 0
M  V30 8762 C 866.634 -1.35522 -0.902083 0
M  V30 8763 O 867.823 -1.60552 -0.780088 0
M  V30 8764 C 864.923 -3.0899 -1.39207 0
M  V30 8765 C 864.096 -4.28915 -0.857349 0
M  V30 8766 C 863.155 -4.92044 -1.86493 0
M  V30 8767 O 862.181 -5.51181 -1.42084 0
M  V30 8768 N 863.383 -4.84518 -3.19723 0
M  V30 8769 H 866.148 -2.96821 0.414389 0
M  V30 8770 H 863.709 -1.57684 0.367066 0
M  V30 8771 H 865.701 -3.48091 -2.06433 0
M  V30 8772 H 864.271 -2.42224 -1.97601 0
M  V30 8773 H 863.491 -3.94199 -0.00901765 0
M  V30 8774 H 864.779 -5.0654 -0.479025 0
M  V30 8775 H 864.177 -4.37628 -3.58467 0
M  V30 8776 H 862.734 -5.27712 -3.82575 0
M  V30 8777 N 866.167 -0.267825 -1.55308 0
M  V30 8778 C 867.415 0.350343 -1.9904 0
M  V30 8779 C 867.736 1.56924 -1.15758 0
M  V30 8780 O 867.006 1.94358 -0.245336 0
M  V30 8781 H 865.586 0.132435 -0.735167 0
M  V30 8782 H 868.248 -0.371471 -1.91327 0
M  V30 8783 H 867.344 0.645203 -3.05358 0
M  V30 8784 N 867.645 1.57599 0.00500368 0
M  V30 8785 C 869.056 1.78462 0.54848 0
M  V30 8786 C 869.407 0.901869 1.74243 0
M  V30 8787 O 868.532 0.103014 2.16155 0
M  V30 8788 C 869.127 3.2365 1.00179 0
M  V30 8789 C 867.686 3.45627 1.49061 0
M  V30 8790 C 866.833 2.73794 0.439531 0
M  V30 8791 H 869.784 1.57151 -0.22118 0
M  V30 8792 H 869.805 3.31488 1.86805 0
M  V30 8793 H 869.317 3.87873 0.132607 0
M  V30 8794 H 867.418 2.86612 2.38085 0
M  V30 8795 H 867.531 4.54298 1.52152 0
M  V30 8796 H 865.895 2.38267 0.900043 0
M  V30 8797 H 866.678 3.40714 -0.420599 0
M  V30 8798 N 869.123 -0.277682 1.55134 0
M  V30 8799 C 870.073 -1.34531 1.8408 0
M  V30 8800 C 871.057 -1.44904 0.699393 0
M  V30 8801 O 872.249 -1.48664 0.960623 0
M  V30 8802 C 869.378 -2.7064 2.11208 0
M  V30 8803 C 868.464 -2.64396 3.31596 0
M  V30 8804 N 868.855 -2.2777 4.51613 0
M  V30 8805 C 867.153 -2.95464 3.34091 0
M  V30 8806 C 867.854 -2.31401 5.33693 0
M  V30 8807 N 866.83 -2.69688 4.71984 0
M  V30 8808 H 870.632 -1.05214 2.74421 0
M  V30 8809 H 868.146 -0.486311 1.54948 0
M  V30 8810 H 870.143 -3.47649 2.301 0
M  V30 8811 H 868.803 -3.00849 1.22148 0
M  V30 8812 H 869.814 -1.99827 4.77797 0
M  V30 8813 H 866.491 -3.30415 2.5521 0
M  V30 8814 H 867.881 -2.05685 6.39643 0
M  V30 8815 N 870.601 -1.47988 -0.541979 0
M  V30 8816 C 871.564 -1.61148 -1.62984 0
M  V30 8817 C 872.564 -0.48553 -1.53295 0
M  V30 8818 O 873.754 -0.751012 -1.5718 0
M  V30 8819 C 870.886 -1.57038 -3.02576 0
M  V30 8820 H 872.079 -2.58138 -1.52659 0
M  V30 8821 H 869.632 -1.36405 -0.763106 0
M  V30 8822 H 870.367 -0.614807 -3.18419 0
M  V30 8823 H 870.152 -2.38769 -3.11018 0
M  V30 8824 H 871.642 -1.69416 -3.81691 0
M  V30 8825 N 872.079 0.78992 -1.36375 0
M  V30 8826 C 873.042 1.88414 -1.30509 0
M  V30 8827 C 874.042 1.59384 -0.2129 0
M  V30 8828 O 875.232 1.67805 -0.467651 0
M  V30 8829 C 872.364 3.25188 -1.02302 0
M  V30 8830 H 873.557 1.95031 -2.27822 0
M  V30 8831 H 871.11 0.987664 -1.2114 0
M  V30 8832 H 871.845 3.24254 -0.0544486 0
M  V30 8833 H 871.63 3.47647 -1.81338 0
M  V30 8834 H 873.12 4.05252 -1.00801 0
M  V30 8835 N 873.557 1.20646 1.01402 0
M  V30 8836 C 874.487 0.98155 2.11867 0
M  V30 8837 C 875.468 -0.0903712 1.6986 0
M  V30 8838 O 876.653 0.0676586 1.94082 0
M  V30 8839 C 873.783 0.535636 3.43145 0
M  V30 8840 C 872.737 1.55109 3.98905 0
M  V30 8841 C 872.063 0.961725 5.2598 0
M  V30 8842 C 873.363 2.93552 4.32001 0
M  V30 8843 H 875.057 1.90544 2.3094 0
M  V30 8844 H 872.603 0.917554 1.10982 0
M  V30 8845 H 874.556 0.365512 4.19812 0
M  V30 8846 H 873.28 -0.423882 3.23838 0
M  V30 8847 H 871.939 1.70862 3.24348 0
M  V30 8848 H 871.587 -0.00580108 5.03 0
M  V30 8849 H 871.287 1.63993 5.64252 0
M  V30 8850 H 872.811 0.802726 6.053 0
M  V30 8851 H 874.225 2.81295 4.99546 0
M  V30 8852 H 872.622 3.58303 4.81393 0
M  V30 8853 H 873.692 3.4508 3.40658 0
M  V30 8854 N 875.035 -1.20752 1.01276 0
M  V30 8855 C 875.965 -2.25658 0.600064 0
M  V30 8856 C 876.946 -1.65733 -0.38298 0
M  V30 8857 O 878.131 -1.92324 -0.269256 0
M  V30 8858 C 875.261 -3.47237 -0.0663197 0
M  V30 8859 C 874.215 -4.1973 0.83731 0
M  V30 8860 C 873.541 -5.34687 0.0369102 0
M  V30 8861 C 874.841 -4.76286 2.14357 0
M  V30 8862 H 876.535 -2.60432 1.477 0
M  V30 8863 H 874.081 -1.25187 0.711634 0
M  V30 8864 H 876.034 -4.19803 -0.366563 0
M  V30 8865 H 874.758 -3.11615 -0.977944 0
M  V30 8866 H 873.417 -3.49024 1.1215 0
M  V30 8867 H 873.065 -4.95309 -0.876244 0
M  V30 8868 H 872.765 -5.84119 0.63865 0
M  V30 8869 H 874.289 -6.10059 -0.256968 0
M  V30 8870 H 875.703 -5.40691 1.90595 0
M  V30 8871 H 874.1 -5.36139 2.69583 0
M  V30 8872 H 875.17 -3.9524 2.80916 0
M  V30 8873 N 876.513 -0.788492 -1.36457 0
M  V30 8874 C 877.476 -0.192209 -2.28393 0
M  V30 8875 C 878.476 0.609916 -1.48784 0
M  V30 8876 O 879.666 0.431046 -1.68783 0
M  V30 8877 C 876.798 0.734096 -3.32902 0
M  V30 8878 H 877.991 -1.00284 -2.82636 0
M  V30 8879 H 875.544 -0.557852 -1.46006 0
M  V30 8880 H 876.279 1.5691 -2.83813 0
M  V30 8881 H 876.064 0.160875 -3.9177 0
M  V30 8882 H 877.554 1.1462 -4.01562 0
M  V30 8883 N 877.991 1.48044 -0.54043 0
M  V30 8884 C 878.954 2.28273 0.205966 0
M  V30 8885 C 879.954 1.35983 0.858209 0
M  V30 8886 O 881.144 1.58776 0.716651 0
M  V30 8887 C 878.276 3.15174 1.29917 0
M  V30 8888 H 879.469 2.95727 -0.498555 0
M  V30 8889 H 877.022 1.53457 -0.296745 0
M  V30 8890 H 877.757 2.52374 2.03661 0
M  V30 8891 H 877.542 3.83074 0.836475 0
M  V30 8892 H 879.032 3.75666 1.82387 0
M  V30 8893 N 879.47 0.276058 1.55163 0
M  V30 8894 C 880.403 -0.652386 2.18676 0
M  V30 8895 C 881.381 -1.15151 1.148 0
M  V30 8896 O 882.565 -1.22431 1.43328 0
M  V30 8897 C 879.692 -1.88982 2.81076 0
M  V30 8898 C 878.738 -1.52609 3.98262 0
M  V30 8899 S 879.571 -0.603445 5.32089 0
M  V30 8900 C 880.727 -1.84923 5.97958 0
M  V30 8901 H 880.96 -0.112733 2.97086 0
M  V30 8902 H 878.493 0.0603118 1.54282 0
M  V30 8903 H 880.451 -2.60007 3.17658 0
M  V30 8904 H 879.112 -2.40061 2.02557 0
M  V30 8905 H 878.305 -2.44689 4.40617 0
M  V30 8906 H 877.907 -0.89601 3.63108 0
M  V30 8907 H 880.199 -2.79303 6.17249 0
M  V30 8908 H 881.142 -1.46868 6.92702 0
M  V30 8909 H 881.55 -2.0146 5.27327 0
M  V30 8910 N 880.948 -1.576 0.00335426 0
M  V30 8911 C 881.878 -2.11668 -0.985839 0
M  V30 8912 C 882.859 -1.02661 -1.35627 0
M  V30 8913 O 884.044 -1.30361 -1.43943 0
M  V30 8914 C 881.174 -2.62273 -2.27662 0
M  V30 8915 C 880.128 -3.75837 -2.0477 0
M  V30 8916 C 879.454 -4.12769 -3.39891 0
M  V30 8917 C 880.754 -5.02975 -1.40759 0
M  V30 8918 H 882.448 -2.9457 -0.535637 0
M  V30 8919 H 879.994 -1.41702 -0.256204 0
M  V30 8920 H 881.947 -2.98727 -2.97221 0
M  V30 8921 H 880.671 -1.76498 -2.74802 0
M  V30 8922 H 879.33 -3.39782 -1.37636 0
M  V30 8923 H 878.978 -3.24013 -3.8474 0
M  V30 8924 H 878.678 -4.89281 -3.25389 0
M  V30 8925 H 880.202 -4.51784 -4.1076 0
M  V30 8926 H 881.616 -5.37179 -2.00279 0
M  V30 8927 H 880.013 -5.84315 -1.36734 0
M  V30 8928 H 881.083 -4.83431 -0.377218 0
M  V30 8929 N 882.426 0.269451 -1.5528 0
M  V30 8930 C 883.842 0.616827 -1.47199 0
M  V30 8931 C 884.042 1.89354 -0.68901 0
M  V30 8932 O 883.098 2.51631 -0.209287 0
M  V30 8933 C 884.411 0.740492 -2.9144 0
M  V30 8934 C 885.959 0.834312 -3.01676 0
M  V30 8935 C 886.434 0.989725 -4.47178 0
M  V30 8936 N 887.925 1.05516 -4.51022 0
M  V30 8937 C 888.66 1.19427 -5.60825 0
M  V30 8938 N 888.156 1.30035 -6.80487 0
M  V30 8939 N 889.949 1.22566 -5.48575 0
M  V30 8940 H 882.1 -0.568962 -2.04638 0
M  V30 8941 H 884.363 -0.193153 -0.928114 0
M  V30 8942 H 884.069 -0.127234 -3.5147 0
M  V30 8943 H 883.943 1.61965 -3.40657 0
M  V30 8944 H 886.33 1.6925 -2.4174 0
M  V30 8945 H 886.411 -0.0695298 -2.55705 0
M  V30 8946 H 886.055 0.136179 -5.07717 0
M  V30 8947 H 885.985 1.90827 -4.90808 0
M  V30 8948 H 888.476 0.985434 -3.64825 0
M  V30 8949 H 888.789 1.40494 -7.59922 0
M  V30 8950 H 887.134 1.27033 -6.83292 0
M  V30 8951 H 890.325 1.13911 -4.54029 0
M  V30 8952 H 890.498 1.33063 -6.34191 0
M  V30 8953 N 883.904 1.48273 0.534124 0
M  V30 8954 C 885.152 1.55771 1.28762 0
M  V30 8955 C 885.473 0.231575 1.9362 0
M  V30 8956 O 884.743 -0.746533 1.81118 0
M  V30 8957 H 883.323 0.573851 0.47823 0
M  V30 8958 H 885.985 1.84712 0.621888 0
M  V30 8959 H 885.081 2.33657 2.06908 0
M  V30 8960 N 885.382 -0.782676 1.36792 0
M  V30 8961 C 886.312 -1.90973 1.34356 0
M  V30 8962 C 887.293 -1.6875 0.213917 0
M  V30 8963 O 888.478 -1.89766 0.412601 0
M  V30 8964 C 885.608 -3.28097 1.13884 0
M  V30 8965 C 884.562 -3.6486 2.23744 0
M  V30 8966 C 883.888 -5.00406 1.88408 0
M  V30 8967 C 885.188 -3.72742 3.6587 0
M  V30 8968 H 886.882 -1.93268 2.28665 0
M  V30 8969 H 884.428 -0.928447 1.10072 0
M  V30 8970 H 886.381 -4.06569 1.10813 0
M  V30 8971 H 885.105 -3.26206 0.160275 0
M  V30 8972 H 883.764 -2.88689 2.25952 0
M  V30 8973 H 883.412 -4.95044 0.891083 0
M  V30 8974 H 883.112 -5.25973 2.61966 0
M  V30 8975 H 884.636 -5.81291 1.86905 0
M  V30 8976 H 886.05 -4.4139 3.65852 0
M  V30 8977 H 884.447 -4.09798 4.38389 0
M  V30 8978 H 885.517 -2.73676 4.00287 0
M  V30 8979 N 886.86 -1.21182 -1.00761 0
M  V30 8980 C 887.823 -0.970339 -2.07646 0
M  V30 8981 C 888.823 0.0576345 -1.60697 0
M  V30 8982 O 890.013 -0.179369 -1.73274 0
M  V30 8983 C 887.145 -0.462703 -3.37745 0
M  V30 8984 H 888.338 -1.91856 -2.30502 0
M  V30 8985 H 885.891 -1.02844 -1.17698 0
M  V30 8986 H 886.626 0.490559 -3.20568 0
M  V30 8987 H 886.411 -1.20416 -3.73152 0
M  V30 8988 H 887.901 -0.313531 -4.16421 0
M  V30 8989 N 888.338 1.20213 -1.01915 0
M  V30 8990 C 889.586 1.89272 -0.708552 0
M  V30 8991 C 889.907 1.79394 0.76438 0
M  V30 8992 O 889.177 1.198 1.54999 0
M  V30 8993 H 887.757 0.700628 -0.259094 0
M  V30 8994 H 890.419 1.45985 -1.29129 0
M  V30 8995 H 889.515 2.95841 -0.994215 0
M  V30 8996 N 889.816 0.795718 1.36037 0
M  V30 8997 C 891.064 0.370291 1.98679 0
M  V30 8998 C 891.385 -1.06332 1.63458 0
M  V30 8999 O 890.655 -1.73394 0.911671 0
M  V30 9000 H 889.235 0.133928 0.734896 0
M  V30 9001 H 891.897 1.01915 1.6613 0
M  V30 9002 H 890.993 0.467207 3.08583 0
M  V30 9003 N 891.294 -1.47756 0.548274 0
M  V30 9004 C 892.71 -1.58247 0.207401 0
M  V30 9005 C 892.91 -1.54804 -1.28988 0
M  V30 9006 O 891.966 -1.44673 -2.06944 0
M  V30 9007 C 893.279 -2.89129 0.826142 0
M  V30 9008 C 894.827 -3.02695 0.79655 0
M  V30 9009 C 895.302 -4.36264 1.3942 0
M  V30 9010 N 896.793 -4.42877 1.35698 0
M  V30 9011 C 897.528 -5.44773 1.78913 0
M  V30 9012 N 897.024 -6.53528 2.29942 0
M  V30 9013 N 898.817 -5.35765 1.70038 0
M  V30 9014 H 890.968 -1.48236 1.52117 0
M  V30 9015 H 893.231 -0.704957 0.633829 0
M  V30 9016 H 892.937 -2.97358 1.87806 0
M  V30 9017 H 892.811 -3.75891 0.313916 0
M  V30 9018 H 895.198 -2.94067 -0.246655 0
M  V30 9019 H 895.279 -2.17496 1.34644 0
M  V30 9020 H 894.923 -4.45646 2.43642 0
M  V30 9021 H 894.853 -5.20179 0.819827 0
M  V30 9022 H 897.344 -3.64874 0.983623 0
M  V30 9023 H 897.657 -7.27441 2.60863 0
M  V30 9024 H 896.002 -6.54442 2.33947 0
M  V30 9025 H 899.193 -4.49699 1.29955 0
M  V30 9026 H 899.366 -6.1504 2.04035 0
M  V30 9027 N 892.772 -0.284283 -1.55015 0
M  V30 9028 C 894.018 0.330352 -2.00091 0
M  V30 9029 C 894.351 1.54814 -1.17244 0
M  V30 9030 O 893.626 1.92954 -0.244753 0
M  V30 9031 C 893.909 0.703492 -3.53161 0
M  V30 9032 C 893.762 -0.522275 -4.46758 0
M  V30 9033 C 895.081 1.53645 -4.12409 0
M  V30 9034 H 892.2 0.118599 -0.727395 0
M  V30 9035 H 894.842 -0.393054 -1.8589 0
M  V30 9036 H 892.992 1.31983 -3.65394 0
M  V30 9037 H 894.664 -1.16082 -4.46456 0
M  V30 9038 H 892.907 -1.15865 -4.1804 0
M  V30 9039 H 893.578 -0.217295 -5.51572 0
M  V30 9040 H 896.054 1.01583 -4.0351 0
M  V30 9041 H 894.93 1.76633 -5.19704 0
M  V30 9042 H 895.191 2.5204 -3.63219 0
M  V30 9043 N 894.251 1.57596 -0.0117121 0
M  V30 9044 C 895.181 2.12188 0.9746 0
M  V30 9045 C 896.162 1.03379 1.35081 0
M  V30 9046 O 897.347 1.31123 1.4325 0
M  V30 9047 C 894.477 2.63477 2.26268 0
M  V30 9048 C 893.431 3.76917 2.02774 0
M  V30 9049 C 892.757 4.14566 3.37697 0
M  V30 9050 C 894.057 5.03715 1.38089 0
M  V30 9051 H 895.751 2.9485 0.520007 0
M  V30 9052 H 893.297 1.41836 0.248685 0
M  V30 9053 H 895.25 3.00299 2.95633 0
M  V30 9054 H 893.974 1.77953 2.73862 0
M  V30 9055 H 892.633 3.40507 1.35832 0
M  V30 9056 H 892.281 3.26048 3.83016 0
M  V30 9057 H 891.981 4.91 3.22789 0
M  V30 9058 H 893.505 4.53956 4.08358 0
M  V30 9059 H 894.919 5.38233 1.97428 0
M  V30 9060 H 893.316 5.85032 1.33634 0
M  V30 9061 H 894.386 4.83624 0.351575 0
M  V30 9062 N 895.729 -0.261212 1.5542 0
M  V30 9063 C 896.692 -1.30645 1.8832 0
M  V30 9064 C 897.692 -1.41782 0.758588 0
M  V30 9065 O 898.882 -1.40729 1.02669 0
M  V30 9066 C 896.014 -2.6862 2.09895 0
M  V30 9067 H 897.207 -1.02698 2.81768 0
M  V30 9068 H 894.76 -0.499838 1.48092 0
M  V30 9069 H 895.495 -3.0173 1.18868 0
M  V30 9070 H 895.28 -2.61921 2.91787 0
M  V30 9071 H 896.77 -3.44121 2.36581 0
M  V30 9072 N 897.207 -1.48554 -0.526253 0
M  V30 9073 C 898.137 -1.66252 -1.63959 0
M  V30 9074 C 899.118 -0.511351 -1.62232 0
M  V30 9075 O 900.303 -0.744322 -1.7937 0
M  V30 9076 C 897.433 -1.70556 -3.02536 0
M  V30 9077 C 896.387 -2.8521 -3.19123 0
M  V30 9078 C 895.713 -2.74606 -4.58798 0
M  V30 9079 C 897.013 -4.26463 -3.0154 0
M  V30 9080 H 898.707 -2.59459 -1.49404 0
M  V30 9081 H 896.253 -1.24862 -0.717326 0
M  V30 9082 H 898.206 -1.81524 -3.80298 0
M  V30 9083 H 896.93 -0.739297 -3.18123 0
M  V30 9084 H 895.589 -2.73802 -2.43779 0
M  V30 9085 H 895.237 -1.75941 -4.71226 0
M  V30 9086 H 894.937 -3.51544 -4.70841 0
M  V30 9087 H 896.461 -2.87548 -5.38655 0
M  V30 9088 H 897.875 -4.38685 -3.69091 0
M  V30 9089 H 896.272 -5.04428 -3.25073 0
M  V30 9090 H 897.342 -4.42667 -1.97925 0
M  V30 9091 N 898.685 0.775411 -1.37205 0
M  V30 9092 C 899.615 1.90258 -1.35367 0
M  V30 9093 C 900.596 1.68634 -0.222864 0
M  V30 9094 O 901.781 1.89545 -0.422659 0
M  V30 9095 C 898.911 3.27488 -1.15623 0
M  V30 9096 C 897.865 3.63668 -2.25676 0
M  V30 9097 C 897.191 4.994 -1.91059 0
M  V30 9098 C 898.491 3.70797 -3.67841 0
M  V30 9099 H 900.185 1.92053 -2.29687 0
M  V30 9100 H 897.731 0.922597 -1.10563 0
M  V30 9101 H 899.684 4.05976 -1.12968 0
M  V30 9102 H 898.408 3.26117 -0.177573 0
M  V30 9103 H 897.067 2.87486 -2.2748 0
M  V30 9104 H 896.715 4.94565 -0.917324 0
M  V30 9105 H 896.415 5.24576 -2.64751 0
M  V30 9106 H 897.939 5.80291 -1.89985 0
M  V30 9107 H 899.353 4.39444 -3.68187 0
M  V30 9108 H 897.75 4.07468 -4.40556 0
M  V30 9109 H 898.82 2.71549 -4.01732 0
M  V30 9110 N 900.163 1.21714 1.00117 0
M  V30 9111 C 901.073 0.99597 2.12409 0
M  V30 9112 C 902.089 -0.0531431 1.73919 0
M  V30 9113 O 903.265 0.137757 2.00928 0
M  V30 9114 C 900.33 0.567593 3.42022 0
M  V30 9115 C 899.391 1.68936 3.94663 0
M  V30 9116 C 898.624 1.28133 5.1809 0
M  V30 9117 O 898.847 0.156574 5.70185 0
M  V30 9118 O 897.781 2.0947 5.64275 0
M  V30 9119 H 901.607 1.93657 2.33946 0
M  V30 9120 H 899.192 1.00236 1.10784 0
M  V30 9121 H 901.074 0.338664 4.20037 0
M  V30 9122 H 899.749 -0.34424 3.21864 0
M  V30 9123 H 898.656 1.97274 3.17858 0
M  V30 9124 H 899.989 2.57876 4.19238 0
M  V30 9125 N 901.641 -1.19671 1.02551 0
M  V30 9126 C 902.551 -2.26441 0.613329 0
M  V30 9127 C 903.567 -1.70375 -0.353339 0
M  V30 9128 O 904.743 -2.0028 -0.212064 0
M  V30 9129 C 901.808 -3.46684 -0.0329028 0
M  V30 9130 C 900.869 -4.17945 0.980837 0
M  V30 9131 C 900.102 -5.32448 0.36535 0
M  V30 9132 O 900.325 -5.64291 -0.832596 0
M  V30 9133 O 899.259 -5.92012 1.08652 0
M  V30 9134 H 903.085 -2.63932 1.50246 0
M  V30 9135 H 900.67 -1.2646 0.795502 0
M  V30 9136 H 902.552 -4.1956 -0.393395 0
M  V30 9137 H 901.227 -3.1105 -0.896089 0
M  V30 9138 H 900.134 -3.47204 1.39286 0
M  V30 9139 H 901.467 -4.57542 1.81428 0
M  V30 9140 N 903.119 -0.802921 -1.35613 0
M  V30 9141 C 904.067 -0.198783 -2.31749 0
M  V30 9142 C 905.061 0.649416 -1.56458 0
M  V30 9143 O 906.267 0.542989 -1.71615 0
M  V30 9144 H 902.642 -0.0455177 -0.750621 0
M  V30 9145 H 904.613 -1.02479 -2.80251 0
M  V30 9146 C 903.362 0.641066 -3.41739 0
M  V30 9147 H 902.685 -0.00226244 -3.998 0
M  V30 9148 H 904.125 1.03022 -4.11294 0
M  V30 9149 C 902.584 1.80505 -2.84464 0
M  V30 9150 O 903.114 2.90235 -2.77717 0
M  V30 9151 N 901.32 1.61542 -2.41563 0
M  V30 9152 H 900.867 0.722863 -2.4725 0
M  V30 9153 H 900.825 2.39581 -2.03589 0
M  V30 9154 N 904.597 1.47463 -0.556102 0
M  V30 9155 C 905.822 2.07371 -0.0344729 0
M  V30 9156 C 906.247 1.40621 1.2493 0
M  V30 9157 O 905.605 0.48082 1.74808 0
M  V30 9158 C 905.653 3.60306 0.145563 0
M  V30 9159 O 904.757 3.94299 1.20839 0
M  V30 9160 H 904.098 0.662052 -0.0508274 0
M  V30 9161 H 906.628 1.89498 -0.771469 0
M  V30 9162 H 906.638 4.06408 0.360112 0
M  V30 9163 H 905.313 4.08288 -0.792089 0
M  V30 9164 H 903.89 3.59944 0.97442 0
M  V30 9165 N 906.075 0.2925 1.54862 0
M  V30 9166 C 907.303 -0.322113 2.04377 0
M  V30 9167 C 907.718 -1.48164 1.17016 0
M  V30 9168 O 907.075 -1.81466 0.19395 0
M  V30 9169 C 907.126 -0.786506 3.5284 0
M  V30 9170 O 906.847 0.326863 4.36879 0
M  V30 9171 C 908.348 -1.46715 4.18318 0
M  V30 9172 H 905.568 -0.0712074 0.667211 0
M  V30 9173 H 908.112 0.429657 1.99935 0
M  V30 9174 H 906.267 -1.48832 3.5767 0
M  V30 9175 H 906.681 -0.0331558 5.2449 0
M  V30 9176 H 908.155 -1.74333 5.23748 0
M  V30 9177 H 908.632 -2.40443 3.67538 0
M  V30 9178 H 909.238 -0.808735 4.1754 0
M  V30 9179 N 907.553 -1.57587 0.0200696 0
M  V30 9180 C 908.964 -1.79312 -0.520019 0
M  V30 9181 C 909.315 -0.929475 -1.72787 0
M  V30 9182 O 908.44 -0.137389 -2.15963 0
M  V30 9183 C 909.035 -3.25203 -0.950172 0
M  V30 9184 C 907.594 -3.47954 -1.43543 0
M  V30 9185 C 906.741 -2.74459 -0.395917 0
M  V30 9186 H 909.692 -1.56779 0.246153 0
M  V30 9187 H 909.713 -3.34418 -1.81508 0
M  V30 9188 H 909.225 -3.88035 -0.070883 0
M  V30 9189 H 907.326 -2.90363 -2.33495 0
M  V30 9190 H 907.439 -4.56661 -1.44905 0
M  V30 9191 H 905.803 -2.39669 -0.862022 0
M  V30 9192 H 906.586 -3.40001 0.47475 0
M  V30 9193 N 909.032 0.252966 -1.55557 0
M  V30 9194 C 909.964 1.33585 -1.86246 0
M  V30 9195 C 910.977 1.44584 -0.748291 0
M  V30 9196 O 912.166 1.46042 -1.02635 0
M  V30 9197 C 909.266 2.71509 -2.02821 0
M  V30 9198 C 908.439 2.82853 -3.33636 0
M  V30 9199 C 907.498 4.01581 -3.40028 0
M  V30 9200 O 906.524 3.91394 -4.13278 0
M  V30 9201 N 907.726 5.14474 -2.6888 0
M  V30 9202 H 910.491 1.07596 -2.7972 0
M  V30 9203 H 908.052 0.443075 -1.55719 0
M  V30 9204 H 910.044 3.49262 -2.04445 0
M  V30 9205 H 908.614 2.90232 -1.1612 0
M  V30 9206 H 907.834 1.91823 -3.4438 0
M  V30 9207 H 909.122 2.87378 -4.19871 0
M  V30 9208 H 908.52 5.25641 -2.09087 0
M  V30 9209 H 907.077 5.90385 -2.76204 0
M  V30 9210 N 910.51 1.48831 0.518367 0
M  V30 9211 C 911.44 1.67119 1.63075 0
M  V30 9212 C 912.421 0.519948 1.61958 0
M  V30 9213 O 913.606 0.753824 1.78972 0
M  V30 9214 C 910.736 1.72158 3.01627 0
M  V30 9215 C 909.69 2.86898 3.17606 0
M  V30 9216 C 909.016 2.77035 4.57335 0
M  V30 9217 C 910.316 4.28057 2.99274 0
M  V30 9218 H 912.01 2.60248 1.48025 0
M  V30 9219 H 909.556 1.2524 0.710694 0
M  V30 9220 H 911.509 1.83539 3.7933 0
M  V30 9221 H 910.233 0.756157 3.17726 0
M  V30 9222 H 908.892 2.75091 2.42323 0
M  V30 9223 H 908.54 1.78438 4.70286 0
M  V30 9224 H 908.24 3.54036 4.6897 0
M  V30 9225 H 909.764 2.904 5.37122 0
M  V30 9226 H 911.178 4.40636 3.6676 0
M  V30 9227 H 909.575 5.06145 3.22393 0
M  V30 9228 H 910.645 4.4371 1.95574 0
M  V30 9229 N 911.988 -0.768124 1.37614 0
M  V30 9230 C 912.951 -1.86314 1.3349 0
M  V30 9231 C 913.951 -1.59025 0.23823 0
M  V30 9232 O 915.141 -1.6704 0.494288 0
M  V30 9233 C 912.273 -3.23519 1.07462 0
M  V30 9234 H 913.466 -1.91382 2.30896 0
M  V30 9235 H 911.019 -0.968267 1.22696 0
M  V30 9236 H 911.754 -3.24127 0.106028 0
M  V30 9237 H 911.539 -3.44719 1.86846 0
M  V30 9238 H 913.029 -4.03597 1.07236 0
M  V30 9239 N 913.466 -1.22244 -0.994698 0
M  V30 9240 C 914.714 -1.04384 -1.73056 0
M  V30 9241 C 915.035 0.422204 -1.90374 0
M  V30 9242 O 914.305 1.30383 -1.46209 0
M  V30 9243 H 912.885 -0.383263 -0.641185 0
M  V30 9244 H 915.547 -1.53725 -1.1981 0
M  V30 9245 H 914.643 -1.52021 -2.72573 0
M  V30 9246 N 914.944 1.19125 -1.03184 0
M  V30 9247 C 916.193 1.8821 -0.725264 0
M  V30 9248 C 916.506 1.80674 0.749411 0
M  V30 9249 O 917.712 2.45037 1.16915 0
M  V30 9250 C 916.168 3.37607 -1.24697 0
M  V30 9251 C 915.776 3.53693 -2.74964 0
M  V30 9252 C 917.52 4.12149 -1.01652 0
M  V30 9253 C 915.427 4.97001 -3.20538 0
M  V30 9254 H 914.357 0.704916 -0.267599 0
M  V30 9255 H 917.008 1.34663 -1.24652 0
M  V30 9256 H 915.39 3.90569 -0.653614 0
M  V30 9257 H 916.564 3.11046 -3.39981 0
M  V30 9258 H 914.879 2.92544 -2.96322 0
M  V30 9259 H 917.476 5.17837 -1.33226 0
M  V30 9260 H 917.819 4.16274 0.0465712 0
M  V30 9261 H 918.352 3.65334 -1.57403 0
M  V30 9262 H 915.091 4.9804 -4.26189 0
M  V30 9263 H 914.611 5.40398 -2.60251 0
M  V30 9264 H 916.29 5.65669 -3.14049 0
M  V30 9265 N 916.422 0.810101 1.35185 0
M  V30 9266 C 917.352 0.237453 2.32289 0
M  V30 9267 C 918.333 -0.639032 1.5764 0
M  V30 9268 O 919.518 -0.568575 1.8569 0
M  V30 9269 C 916.648 -0.611964 3.41866 0
M  V30 9270 C 915.602 0.166318 4.27677 0
M  V30 9271 C 914.928 -0.805024 5.28605 0
M  V30 9272 C 916.228 1.36729 5.04086 0
M  V30 9273 H 917.922 1.04874 2.80432 0
M  V30 9274 H 915.468 0.505751 1.34826 0
M  V30 9275 H 917.421 -1.02267 4.08802 0
M  V30 9276 H 916.145 -1.45617 2.92341 0
M  V30 9277 H 914.804 0.558238 3.62325 0
M  V30 9278 H 914.452 -1.64483 4.75347 0
M  V30 9279 H 914.152 -0.288577 5.86891 0
M  V30 9280 H 915.676 -1.21386 5.98413 0
M  V30 9281 H 917.09 1.03128 5.63948 0
M  V30 9282 H 915.487 1.81848 5.71884 0
M  V30 9283 H 916.557 2.15214 4.34524 0
M  V30 9284 N 917.9 -1.47166 0.563914 0
M  V30 9285 C 918.863 -2.28571 -0.169624 0
M  V30 9286 C 919.863 -1.37331 -0.836467 0
M  V30 9287 O 921.053 -1.59896 -0.6913 0
M  V30 9288 C 918.185 -3.17201 -1.24886 0
M  V30 9289 H 919.378 -2.94896 0.545539 0
M  V30 9290 H 916.931 -1.52966 0.321121 0
M  V30 9291 H 917.666 -2.55582 -1.99621 0
M  V30 9292 H 917.451 -3.84356 -0.775426 0
M  V30 9293 H 918.941 -3.7852 -1.76388 0
M  V30 9294 N 919.378 -0.300708 -1.54705 0
M  V30 9295 C 920.794 0.0526874 -1.59513 0
M  V30 9296 C 920.994 1.52444 -1.31769 0
M  V30 9297 O 920.05 2.27716 -1.09096 0
M  V30 9298 C 921.363 -0.344989 -2.98714 0
M  V30 9299 C 922.911 -0.29373 -3.11619 0
M  V30 9300 C 923.386 -0.666225 -4.53129 0
M  V30 9301 N 924.877 -0.618749 -4.59049 0
M  V30 9302 C 925.612 -0.879447 -5.66616 0
M  V30 9303 N 925.108 -1.2061 -6.82221 0
M  V30 9304 N 926.901 -0.806528 -5.56284 0
M  V30 9305 H 919.052 -1.25988 -1.71 0
M  V30 9306 H 921.315 -0.510758 -0.798643 0
M  V30 9307 H 921.021 -1.36953 -3.2394 0
M  V30 9308 H 920.895 0.301507 -3.75993 0
M  V30 9309 H 923.282 0.72156 -2.86142 0
M  V30 9310 H 923.363 -0.974844 -2.36496 0
M  V30 9311 H 923.007 -1.67932 -4.79334 0
M  V30 9312 H 922.937 0.0369575 -5.26587 0
M  V30 9313 H 925.428 -0.377202 -3.76013 0
M  V30 9314 H 925.741 -1.391 -7.60178 0
M  V30 9315 H 924.086 -1.24413 -6.83774 0
M  V30 9316 H 927.277 -0.550993 -4.64846 0
M  V30 9317 H 927.45 -1.01307 -6.40032 0
M  V30 9318 N 920.856 1.57574 -0.0284266 0
M  V30 9319 C 922.102 1.92056 0.651327 0
M  V30 9320 C 922.435 0.905092 1.71819 0
M  V30 9321 O 921.71 -0.0722703 1.94366 0
M  V30 9322 C 921.993 3.37021 1.26841 0
M  V30 9323 C 921.846 4.49304 0.211157 0
M  V30 9324 C 923.165 3.81936 2.18662 0
M  V30 9325 H 920.284 0.698428 0.235304 0
M  V30 9326 H 922.926 1.89807 -0.0855435 0
M  V30 9327 H 921.076 3.39068 1.89644 0
M  V30 9328 H 922.748 4.5939 -0.419379 0
M  V30 9329 H 920.991 4.31317 -0.463445 0
M  V30 9330 H 921.662 5.47764 0.682518 0
M  V30 9331 H 924.138 3.8162 1.65847 0
M  V30 9332 H 923.014 4.84064 2.58792 0
M  V30 9333 H 923.275 3.174 3.07749 0
M  V30 9334 N 922.334 -0.244713 1.55689 0
M  V30 9335 C 923.264 -1.30667 1.93516 0
M  V30 9336 C 924.245 -1.50094 0.800371 0
M  V30 9337 O 925.43 -1.62665 1.06083 0
M  V30 9338 C 922.56 -2.66101 2.23176 0
M  V30 9339 C 921.514 -2.61366 3.38927 0
M  V30 9340 C 920.84 -4.00616 3.54134 0
M  V30 9341 C 922.14 -2.18161 4.74555 0
M  V30 9342 H 923.834 -0.992546 2.82469 0
M  V30 9343 H 921.38 -0.476018 1.35905 0
M  V30 9344 H 923.333 -3.4053 2.48228 0
M  V30 9345 H 922.057 -2.99154 1.31051 0
M  V30 9346 H 920.716 -1.89395 3.13887 0
M  V30 9347 H 920.364 -4.30938 2.59426 0
M  V30 9348 H 920.064 -3.98335 4.31975 0
M  V30 9349 H 921.588 -4.76741 3.8151 0
M  V30 9350 H 923.002 -2.82323 4.98965 0
M  V30 9351 H 921.399 -2.26988 5.55515 0
M  V30 9352 H 922.469 -1.13333 4.7147 0
M  V30 9353 N 923.813 -1.49104 -0.510467 0
M  V30 9354 C 924.761 -1.65547 -1.63392 0
M  V30 9355 C 925.755 -0.521522 -1.61172 0
M  V30 9356 O 926.961 -0.700865 -1.65795 0
M  V30 9357 H 923.336 -0.521843 -0.541464 0
M  V30 9358 H 925.307 -2.59864 -1.46673 0
M  V30 9359 C 924.056 -1.73051 -3.01577 0
M  V30 9360 H 923.379 -2.59676 -3.03987 0
M  V30 9361 H 924.819 -1.88594 -3.79748 0
M  V30 9362 C 923.278 -0.47328 -3.33559 0
M  V30 9363 O 923.808 0.405239 -3.99651 0
M  V30 9364 N 922.014 -0.339074 -2.88615 0
M  V30 9365 H 921.561 -1.05497 -2.35007 0
M  V30 9366 H 921.519 0.501061 -3.10382 0
M  V30 9367 N 925.291 0.760815 -1.38019 0
M  V30 9368 C 926.539 1.51673 -1.33566 0
M  V30 9369 C 926.86 1.94852 0.076024 0
M  V30 9370 O 926.13 1.67112 1.02227 0
M  V30 9371 H 924.71 0.562581 -0.491438 0
M  V30 9372 H 927.372 0.904832 -1.72623 0
M  V30 9373 H 926.468 2.41102 -1.98182 0
M  V30 9374 N 926.769 1.22769 0.988202 0
M  V30 9375 C 927.679 1.01844 2.11341 0
M  V30 9376 C 928.695 -0.0346937 1.73965 0
M  V30 9377 O 929.871 0.159061 2.00771 0
M  V30 9378 C 926.936 0.603837 3.41401 0
M  V30 9379 C 925.997 1.73113 3.92849 0
M  V30 9380 C 925.23 1.33621 5.16702 0
M  V30 9381 O 925.453 0.217041 5.69987 0
M  V30 9382 O 924.387 2.15444 5.62021 0
M  V30 9383 H 928.213 1.96127 2.31879 0
M  V30 9384 H 925.798 1.01405 1.09715 0
M  V30 9385 H 927.68 0.383196 4.19654 0
M  V30 9386 H 926.355 -0.310082 3.22211 0
M  V30 9387 H 925.262 2.00634 3.15748 0
M  V30 9388 H 926.595 2.62308 4.1648 0
M  V30 9389 N 928.247 -1.18576 1.03814 0
M  V30 9390 C 929.21 -2.2033 0.63146 0
M  V30 9391 C 930.21 -1.57787 -0.309816 0
M  V30 9392 O 931.4 -1.73938 -0.0955598 0
M  V30 9393 C 928.532 -3.40818 -0.0745963 0
M  V30 9394 H 929.725 -2.57824 1.53189 0
M  V30 9395 H 927.278 -1.32416 0.830398 0
M  V30 9396 H 928.013 -3.08853 -0.988947 0
M  V30 9397 H 927.798 -3.87453 0.6019 0
M  V30 9398 H 929.288 -4.16166 -0.345727 0
M  V30 9399 N 929.725 -0.817259 -1.34754 0
M  V30 9400 C 931.136 -0.462215 -1.80888 0
M  V30 9401 C 931.487 1.01685 -1.67794 0
M  V30 9402 O 930.612 1.79094 -1.21468 0
M  V30 9403 C 931.207 -0.832204 -3.2842 0
M  V30 9404 C 929.766 -0.52961 -3.72655 0
M  V30 9405 C 928.913 -1.05214 -2.56564 0
M  V30 9406 H 931.864 -1.00795 -1.22581 0
M  V30 9407 H 931.885 -0.133804 -3.80265 0
M  V30 9408 H 931.397 -1.90873 -3.37919 0
M  V30 9409 H 929.498 0.537743 -3.68699 0
M  V30 9410 H 929.611 -1.06971 -4.67005 0
M  V30 9411 H 927.975 -0.473949 -2.50251 0
M  V30 9412 H 928.758 -2.135 -2.68836 0
M  V30 9413 N 931.203 1.46865 -0.571711 0
M  V30 9414 C 932.614 1.86158 -0.142181 0
M  V30 9415 C 932.965 1.47663 1.2919 0
M  V30 9416 O 932.09 0.886393 1.97413 0
M  V30 9417 C 932.685 3.37867 -0.251256 0
M  V30 9418 C 931.244 3.76198 0.123329 0
M  V30 9419 C 930.391 2.70902 -0.592232 0
M  V30 9420 H 933.342 1.38176 -0.780587 0
M  V30 9421 H 933.363 3.76842 0.526331 0
M  V30 9422 H 932.875 3.65853 -1.2951 0
M  V30 9423 H 930.976 3.53829 1.16773 0
M  V30 9424 H 931.089 4.78471 -0.24533 0
M  V30 9425 H 929.453 2.54678 -0.0336927 0
M  V30 9426 H 930.236 3.01729 -1.63751 0
M  V30 9427 N 932.681 0.308908 1.54543 0
M  V30 9428 C 933.906 -0.303196 2.05172 0
M  V30 9429 C 934.331 -1.46133 1.18434 0
M  V30 9430 O 933.689 -1.803 0.190162 0
M  V30 9431 C 933.737 -0.729526 3.53143 0
M  V30 9432 O 932.841 -1.83348 3.69401 0
M  V30 9433 H 932.182 -0.0575066 0.661505 0
M  V30 9434 H 934.712 0.453055 1.99521 0
M  V30 9435 H 934.722 -1.01619 3.95143 0
M  V30 9436 H 933.397 0.117622 4.15734 0
M  V30 9437 H 931.974 -1.54676 3.39308 0
M  V30 9438 N 934.159 -1.57557 0.0367827 0
M  V30 9439 C 935.089 -2.13712 -0.940719 0
M  V30 9440 C 936.07 -1.05515 -1.33419 0
M  V30 9441 O 937.255 -1.33385 -1.41146 0
M  V30 9442 C 934.385 -2.67043 -2.22048 0
M  V30 9443 C 933.339 -3.80096 -1.96752 0
M  V30 9444 C 932.665 -4.19886 -3.31059 0
M  V30 9445 C 933.965 -5.05848 -1.30058 0
M  V30 9446 H 935.659 -2.9564 -0.473033 0
M  V30 9447 H 933.205 -1.42214 -0.226089 0
M  V30 9448 H 935.158 -3.04964 -2.90818 0
M  V30 9449 H 933.882 -1.82287 -2.70996 0
M  V30 9450 H 932.541 -3.42625 -1.30398 0
M  V30 9451 H 932.189 -3.32101 -3.77781 0
M  V30 9452 H 931.889 -4.96073 -3.14937 0
M  V30 9453 H 933.413 -4.60395 -4.01084 0
M  V30 9454 H 934.827 -5.41306 -1.8884 0
M  V30 9455 H 933.224 -5.87084 -1.24309 0
M  V30 9456 H 934.294 -4.84122 -0.274591 0
M  V30 9457 N 935.637 0.236453 -1.55816 0
M  V30 9458 C 936.885 0.96111 -1.77784 0
M  V30 9459 C 937.206 1.85454 -0.602648 0
M  V30 9460 O 936.476 1.92157 0.381137 0
M  V30 9461 H 935.056 0.35787 -0.655697 0
M  V30 9462 H 937.718 0.251888 -1.93265 0
M  V30 9463 H 936.814 1.5767 -2.69345 0
M  V30 9464 N 937.115 1.49373 0.502552 0
M  V30 9465 C 938.526 1.52 1.0841 0
M  V30 9466 C 938.877 0.305317 1.9381 0
M  V30 9467 O 938.002 -0.585023 2.08342 0
M  V30 9468 C 938.597 2.75437 1.97281 0
M  V30 9469 C 937.156 2.80848 2.50602 0
M  V30 9470 C 936.303 2.45894 1.28186 0
M  V30 9471 H 939.254 1.56092 0.286533 0
M  V30 9472 H 939.275 2.55511 2.81947 0
M  V30 9473 H 938.787 3.63827 1.35098 0
M  V30 9474 H 936.888 1.96735 3.16427 0
M  V30 9475 H 937.001 3.82979 2.8786 0
M  V30 9476 H 935.365 1.97639 1.60657 0
M  V30 9477 H 936.148 3.36556 0.677139 0
M  V30 9478 N 938.594 -0.753485 1.38421 0
M  V30 9479 C 939.819 -1.54783 1.38047 0
M  V30 9480 C 940.244 -1.8808 -0.0276371 0
M  V30 9481 O 939.602 -1.5058 -1.00973 0
M  V30 9482 C 939.65 -2.82353 2.24297 0
M  V30 9483 O 938.754 -3.77509 1.66014 0
M  V30 9484 H 938.095 -0.468151 0.470883 0
M  V30 9485 H 940.625 -0.931144 1.82184 0
M  V30 9486 H 940.635 -3.31277 2.38159 0
M  V30 9487 H 939.31 -2.57449 3.26639 0
M  V30 9488 H 937.887 -3.36212 1.61294 0
M  V30 9489 N 940.072 -1.23292 -0.981677 0
M  V30 9490 C 941.297 -1.09176 -1.76339 0
M  V30 9491 C 941.722 0.352726 -1.84763 0
M  V30 9492 O 941.08 1.25509 -1.30832 0
M  V30 9493 C 941.128 -1.72046 -3.16911 0
M  V30 9494 O 940.232 -0.98174 -4.00544 0
M  V30 9495 H 939.573 -0.382755 -0.542581 0
M  V30 9496 H 942.103 -1.63319 -1.23239 0
M  V30 9497 H 942.113 -1.77232 -3.67495 0
M  V30 9498 H 940.788 -2.77154 -3.10095 0
M  V30 9499 H 939.365 -1.00672 -3.59054 0
M  V30 9500 N 941.55 1.18024 -1.04442 0
M  V30 9501 C 942.796 1.88377 -0.751133 0
M  V30 9502 C 943.129 1.80377 0.719571 0
M  V30 9503 O 942.404 1.20662 1.52548 0
M  V30 9504 C 942.687 3.38708 -1.22265 0
M  V30 9505 C 942.54 3.55499 -2.75574 0
M  V30 9506 C 943.859 4.32475 -0.815688 0
M  V30 9507 H 940.978 0.684037 -0.27434 0
M  V30 9508 H 943.62 1.38837 -1.29709 0
M  V30 9509 H 941.77 3.8103 -0.758192 0
M  V30 9510 H 943.442 3.22244 -3.30086 0
M  V30 9511 H 941.685 2.98028 -3.15217 0
M  V30 9512 H 942.356 4.60994 -3.03625 0
M  V30 9513 H 944.832 3.97953 -1.21542 0
M  V30 9514 H 943.708 5.36213 -1.17331 0
M  V30 9515 H 943.969 4.41207 0.280901 0
M  V30 9516 N 943.028 0.824394 1.34319 0
M  V30 9517 C 943.991 0.252696 2.27803 0
M  V30 9518 C 944.991 -0.570254 1.50349 0
M  V30 9519 O 946.181 -0.386145 1.69866 0
M  V30 9520 C 943.313 -0.645575 3.34731 0
M  V30 9521 H 944.506 1.07742 2.79878 0
M  V30 9522 H 942.059 0.596367 1.44475 0
M  V30 9523 H 942.794 -1.4933 2.87873 0
M  V30 9524 H 942.579 -0.0569478 3.92059 0
M  V30 9525 H 944.069 -1.03933 4.0446 0
M  V30 9526 N 944.506 -1.46559 0.579492 0
M  V30 9527 C 945.731 -2.0729 0.0674595 0
M  V30 9528 C 946.156 -1.4259 -1.22677 0
M  V30 9529 O 945.514 -0.50857 -1.74021 0
M  V30 9530 C 945.562 -3.60492 -0.0882227 0
M  V30 9531 O 944.666 -3.96172 -1.14551 0
M  V30 9532 H 944.007 -0.661159 0.0613536 0
M  V30 9533 H 946.537 -1.88247 0.801519 0
M  V30 9534 H 946.547 -4.06929 -0.295411 0
M  V30 9535 H 945.222 -4.06976 0.856943 0
M  V30 9536 H 943.799 -3.61448 -0.917033 0
M  V30 9537 N 945.984 -0.3171 -1.54377 0
M  V30 9538 C 947.395 0.172287 -1.85903 0
M  V30 9539 C 947.746 1.52141 -1.23885 0
M  V30 9540 O 946.871 2.0949 -0.542476 0
M  V30 9541 C 947.466 0.319392 -3.37291 0
M  V30 9542 C 946.025 0.752998 -3.68791 0
M  V30 9543 C 945.172 -0.129143 -2.76999 0
M  V30 9544 H 948.123 -0.537597 -1.49317 0
M  V30 9545 H 948.144 1.15137 -3.62662 0
M  V30 9546 H 947.656 -0.662671 -3.82401 0
M  V30 9547 H 945.757 1.74504 -3.2921 0
M  V30 9548 H 945.87 0.561228 -4.75801 0
M  V30 9549 H 944.234 0.394242 -2.5163 0
M  V30 9550 H 945.017 -1.10785 -3.24933 0
M  V30 9551 N 947.462 1.57535 -0.0451378 0
M  V30 9552 C 948.372 2.14653 0.946646 0
M  V30 9553 C 949.388 1.10279 1.3459 0
M  V30 9554 O 950.564 1.42417 1.42405 0
M  V30 9555 C 947.629 2.67533 2.20515 0
M  V30 9556 C 946.69 3.86682 1.86481 0
M  V30 9557 C 945.923 4.37031 3.06332 0
M  V30 9558 O 946.146 3.86481 4.1951 0
M  V30 9559 O 945.08 5.28691 2.87697 0
M  V30 9560 H 948.906 2.99706 0.49091 0
M  V30 9561 H 946.491 1.48355 0.17641 0
M  V30 9562 H 948.373 3.01542 2.94365 0
M  V30 9563 H 947.048 1.85554 2.65238 0
M  V30 9564 H 945.955 3.57573 1.09966 0
M  V30 9565 H 947.288 4.69873 1.46562 0
M  V30 9566 N 948.94 -0.228186 1.55939 0
M  V30 9567 C 950.217 -0.977492 1.69424 0
M  V30 9568 C 950.597 -2.02674 0.590479 0
M  V30 9569 O 949.945 -2.2491 -0.403467 0
M  V30 9570 C 950.155 -1.59394 3.10475 0
M  V30 9571 C 951.503 -2.08871 3.69673 0
M  V30 9572 O 952.527 -1.693 3.13394 0
M  V30 9573 O 951.386 -2.81584 4.68372 0
M  V30 9574 H 948.48 -0.456185 0.6898 0
M  V30 9575 H 951.026 -0.220492 1.68261 0
M  V30 9576 H 949.798 -0.835971 3.82266 0
M  V30 9577 H 949.421 -2.41665 3.15727 0
M  V30 9578 N 950.418 -1.49637 -0.494624 0
M  V30 9579 C 951.664 -1.59681 -1.25019 0
M  V30 9580 C 951.997 -0.285511 -1.9209 0
M  V30 9581 O 951.272 0.711398 -1.81023 0
M  V30 9582 C 951.555 -2.76058 -2.31222 0
M  V30 9583 C 951.408 -4.17002 -1.68611 0
M  V30 9584 C 952.727 -2.88056 -3.32734 0
M  V30 9585 H 949.846 -0.581209 -0.453172 0
M  V30 9586 H 952.488 -1.81944 -0.547391 0
M  V30 9587 H 950.638 -2.57207 -2.91164 0
M  V30 9588 H 952.31 -4.47385 -1.12447 0
M  V30 9589 H 950.553 -4.22352 -0.989991 0
M  V30 9590 H 951.224 -4.94316 -2.45674 0
M  V30 9591 H 953.7 -3.05237 -2.82789 0
M  V30 9592 H 952.576 -3.71151 -4.04399 0
M  V30 9593 H 952.837 -1.97676 -3.95445 0
M  V30 9594 N 951.896 0.746133 -1.38819 0
M  V30 9595 C 952.828 1.86991 -1.3254 0
M  V30 9596 C 953.841 1.61077 -0.236216 0
M  V30 9597 O 955.03 1.71518 -0.494341 0
M  V30 9598 C 952.13 3.22786 -1.03258 0
M  V30 9599 C 951.303 3.76145 -2.23234 0
M  V30 9600 C 950.362 4.90474 -1.90581 0
M  V30 9601 O 949.388 5.04717 -2.63153 0
M  V30 9602 N 950.59 5.74015 -0.86525 0
M  V30 9603 H 953.355 1.92885 -2.2938 0
M  V30 9604 H 950.916 0.926392 -1.32776 0
M  V30 9605 H 952.908 3.96824 -0.794533 0
M  V30 9606 H 951.478 3.12231 -0.151895 0
M  V30 9607 H 950.698 2.93587 -2.63059 0
M  V30 9608 H 951.986 4.08528 -3.03285 0
M  V30 9609 H 951.384 5.65086 -0.263577 0
M  V30 9610 H 949.941 6.48168 -0.687087 0
M  V30 9611 N 953.375 1.23811 0.975125 0
M  V30 9612 C 954.338 1.02505 2.05001 0
M  V30 9613 C 955.338 -0.0150084 1.60793 0
M  V30 9614 O 956.528 0.225246 1.72738 0
M  V30 9615 C 953.66 0.552087 3.364 0
M  V30 9616 H 954.853 1.979 2.25335 0
M  V30 9617 H 952.406 1.05929 1.1493 0
M  V30 9618 H 953.141 -0.405394 3.21756 0
M  V30 9619 H 952.926 1.30267 3.69828 0
M  V30 9620 H 954.416 0.423828 4.15444 0
M  V30 9621 N 954.853 -1.17469 1.05066 0
M  V30 9622 C 955.783 -2.23635 0.671552 0
M  V30 9623 C 956.764 -1.66867 -0.33006 0
M  V30 9624 O 957.949 -1.93084 -0.207933 0
M  V30 9625 C 955.079 -3.47272 0.0441845 0
M  V30 9626 C 954.033 -4.16854 0.97042 0
M  V30 9627 C 953.359 -5.34299 0.206998 0
M  V30 9628 C 954.659 -4.69225 2.29401 0
M  V30 9629 H 956.353 -2.55602 1.55911 0
M  V30 9630 H 953.899 -1.2286 0.751101 0
M  V30 9631 H 955.852 -4.20756 -0.23282 0
M  V30 9632 H 954.576 -3.14568 -0.878311 0
M  V30 9633 H 953.235 -3.4528 1.23197 0
M  V30 9634 H 952.883 -4.97846 -0.718222 0
M  V30 9635 H 952.583 -5.81792 0.82416 0
M  V30 9636 H 954.107 -6.10568 -0.0627525 0
M  V30 9637 H 955.521 -5.34353 2.077 0
M  V30 9638 H 953.918 -5.27291 2.86503 0
M  V30 9639 H 954.988 -3.86102 2.93348 0
M  V30 9640 N 956.331 -0.831506 -1.3388 0
M  V30 9641 C 957.264 -0.2046 -2.27281 0
M  V30 9642 C 958.242 0.643992 -1.49303 0
M  V30 9643 O 959.426 0.605863 -1.78498 0
M  V30 9644 C 956.553 0.713409 -3.31101 0
M  V30 9645 C 955.599 -0.0587654 -4.2646 0
M  V30 9646 S 956.432 -1.41172 -5.16557 0
M  V30 9647 C 957.588 -0.498807 -6.23909 0
M  V30 9648 H 957.821 -0.996442 -2.80104 0
M  V30 9649 H 955.354 -0.62786 -1.41058 0
M  V30 9650 H 957.312 1.23748 -3.91403 0
M  V30 9651 H 955.973 1.47885 -2.77108 0
M  V30 9652 H 955.166 0.639466 -4.99927 0
M  V30 9653 H 954.768 -0.513665 -3.70456 0
M  V30 9654 H 957.06 0.306268 -6.76807 0
M  V30 9655 H 958.003 -1.20342 -6.97799 0
M  V30 9656 H 958.411 -0.0834242 -5.64438 0
M  V30 9657 N 957.809 1.4625 -0.587256 0
M  V30 9658 C 959.039 2.06444 -0.0802135 0
M  V30 9659 C 959.447 1.43585 1.23207 0
M  V30 9660 O 958.79 0.536956 1.75677 0
M  V30 9661 C 958.852 3.59165 0.155129 0
M  V30 9662 C 958.516 4.44243 -1.07225 0
M  V30 9663 C 959.513 4.80497 -1.98542 0
M  V30 9664 C 957.198 4.8531 -1.29537 0
M  V30 9665 C 959.192 5.56649 -3.10516 0
M  V30 9666 C 956.879 5.61221 -2.41815 0
M  V30 9667 C 957.877 5.96805 -3.32134 0
M  V30 9668 O 957.565 6.71181 -4.42461 0
M  V30 9669 H 957.297 0.673626 -0.0566063 0
M  V30 9670 H 959.851 1.88797 -0.809004 0
M  V30 9671 H 958.081 3.75137 0.938583 0
M  V30 9672 H 959.77 4.01271 0.611243 0
M  V30 9673 H 960.536 4.49345 -1.82522 0
M  V30 9674 H 956.415 4.5706 -0.601431 0
M  V30 9675 H 959.959 5.84343 -3.81037 0
M  V30 9676 H 955.856 5.91786 -2.57797 0
M  V30 9677 H 956.624 6.8961 -4.40886 0
M  V30 9678 N 959.287 0.325282 1.54207 0
M  V30 9679 C 960.217 -0.532574 2.27345 0
M  V30 9680 C 961.198 -1.11791 1.28206 0
M  V30 9681 O 962.383 -1.14272 1.57021 0
M  V30 9682 C 959.513 -1.69274 3.03255 0
M  V30 9683 C 958.467 -1.23662 4.09746 0
M  V30 9684 C 957.793 -2.48386 4.73506 0
M  V30 9685 C 959.093 -0.350244 5.21124 0
M  V30 9686 H 960.787 0.0775108 2.993 0
M  V30 9687 H 958.333 0.0387193 1.43948 0
M  V30 9688 H 960.286 -2.29917 3.53152 0
M  V30 9689 H 959.01 -2.32944 2.28921 0
M  V30 9690 H 957.669 -0.653106 3.60735 0
M  V30 9691 H 957.317 -3.10424 3.95786 0
M  V30 9692 H 957.017 -2.18558 5.45441 0
M  V30 9693 H 958.541 -3.09789 5.26178 0
M  V30 9694 H 959.955 -0.863011 5.66767 0
M  V30 9695 H 958.352 -0.14466 5.99926 0
M  V30 9696 H 959.422 0.618457 4.8094 0
M  V30 9697 N 960.765 -1.57509 0.0534917 0
M  V30 9698 C 962.181 -1.56696 -0.303067 0
M  V30 9699 C 962.381 -1.06135 -1.71282 0
M  V30 9700 O 961.437 -0.71899 -2.42047 0
M  V30 9701 C 962.75 -3.00421 -0.129418 0
M  V30 9702 C 964.298 -3.12358 -0.200346 0
M  V30 9703 C 964.773 -4.57967 -0.0551971 0
M  V30 9704 N 966.264 -4.63066 -0.111398 0
M  V30 9705 C 966.999 -5.73395 -0.0232344 0
M  V30 9706 N 966.495 -6.92701 0.11741 0
M  V30 9707 N 968.288 -5.62045 -0.078984 0
M  V30 9708 H 960.439 -1.88696 0.975064 0
M  V30 9709 H 962.702 -0.869072 0.378706 0
M  V30 9710 H 962.408 -3.41456 0.842653 0
M  V30 9711 H 962.282 -3.66563 -0.889476 0
M  V30 9712 H 964.669 -2.71221 -1.16289 0
M  V30 9713 H 964.75 -2.48891 0.590506 0
M  V30 9714 H 964.394 -4.9979 0.904034 0
M  V30 9715 H 964.324 -5.19443 -0.865223 0
M  V30 9716 H 966.815 -3.77263 -0.219256 0
M  V30 9717 H 967.128 -7.72597 0.177326 0
M  V30 9718 H 965.473 -6.94833 0.152526 0
M  V30 9719 H 968.664 -4.67725 -0.187434 0
M  V30 9720 H 968.837 -6.48 -0.00681731 0
M  V30 9721 N 962.243 0.219913 -1.56058 0
M  V30 9722 C 963.491 0.942199 -1.78793 0
M  V30 9723 C 963.812 1.84804 -0.622284 0
M  V30 9724 O 963.082 1.9255 0.360735 0
M  V30 9725 H 961.662 0.350895 -0.659455 0
M  V30 9726 H 964.324 0.231376 -1.93522 0
M  V30 9727 H 963.42 1.54804 -2.71002 0
M  V30 9728 N 963.721 1.49897 0.486681 0
M  V30 9729 C 964.653 1.63755 1.60365 0
M  V30 9730 C 965.666 0.519614 1.54285 0
M  V30 9731 O 966.855 0.792219 1.59957 0
M  V30 9732 C 963.955 1.59153 2.99205 0
M  V30 9733 C 963.128 2.8672 3.30319 0
M  V30 9734 C 962.187 2.74974 4.48638 0
M  V30 9735 O 961.213 3.48922 4.49714 0
M  V30 9736 N 962.415 1.87479 5.49392 0
M  V30 9737 H 965.18 2.60094 1.48899 0
M  V30 9738 H 962.741 1.47166 0.674825 0
M  V30 9739 H 964.733 1.4893 3.76301 0
M  V30 9740 H 963.303 0.706133 3.0452 0
M  V30 9741 H 962.523 3.11188 2.41983 0
M  V30 9742 H 963.811 3.71262 3.47911 0
M  V30 9743 H 963.209 1.26684 5.51333 0
M  V30 9744 H 961.766 1.83169 6.25534 0
M  V30 9745 N 965.199 -0.738761 1.39212 0
M  V30 9746 C 966.129 -1.86602 1.40364 0
M  V30 9747 C 967.11 -1.67984 0.267495 0
M  V30 9748 O 968.295 -1.88358 0.472765 0
M  V30 9749 C 965.425 -3.24308 1.24265 0
M  V30 9750 C 964.379 -3.57557 2.35239 0
M  V30 9751 C 963.705 -4.94159 2.04233 0
M  V30 9752 C 965.005 -3.60914 3.77543 0
M  V30 9753 H 966.699 -1.85896 2.34698 0
M  V30 9754 H 964.245 -0.892959 1.1297 0
M  V30 9755 H 966.198 -4.02838 1.23692 0
M  V30 9756 H 964.922 -3.25531 0.263974 0
M  V30 9757 H 963.581 -2.81354 2.35022 0
M  V30 9758 H 963.229 -4.91959 1.04813 0
M  V30 9759 H 962.929 -5.17373 2.78567 0
M  V30 9760 H 964.453 -5.7505 2.05303 0
M  V30 9761 H 965.867 -4.29528 3.79709 0
M  V30 9762 H 964.264 -3.95644 4.51205 0
M  V30 9763 H 965.334 -2.60803 4.08791 0
M  V30 9764 N 966.677 -1.24326 -0.968545 0
M  V30 9765 C 967.587 -1.05194 -2.09694 0
M  V30 9766 C 968.603 0.00701291 -1.73999 0
M  V30 9767 O 969.779 -0.190981 -2.00492 0
M  V30 9768 C 966.844 -0.658075 -3.40397 0
M  V30 9769 C 965.905 -1.79341 -3.90045 0
M  V30 9770 C 965.138 -1.41824 -5.14511 0
M  V30 9771 O 965.361 -0.307693 -5.69569 0
M  V30 9772 O 964.295 -2.24358 -5.58522 0
M  V30 9773 H 968.121 -1.99791 -2.2873 0
M  V30 9774 H 965.706 -1.03138 -1.08088 0
M  V30 9775 H 967.588 -0.449911 -4.18991 0
M  V30 9776 H 966.263 0.258782 -3.22664 0
M  V30 9777 H 965.17 -2.05632 -3.12516 0
M  V30 9778 H 966.503 -2.68901 -4.12254 0
M  V30 9779 N 968.156 1.1691 -1.05688 0
M  V30 9780 C 969.567 1.68915 -0.795273 0
M  V30 9781 C 969.918 1.83968 0.681925 0
M  V30 9782 O 969.043 1.53083 1.52953 0
M  V30 9783 C 969.638 3.06814 -1.43703 0
M  V30 9784 C 968.197 3.55965 -1.22335 0
M  V30 9785 C 967.344 2.32099 -1.51741 0
M  V30 9786 H 970.295 1.01357 -1.22116 0
M  V30 9787 H 970.316 3.70907 -0.849016 0
M  V30 9788 H 969.828 2.95826 -2.51214 0
M  V30 9789 H 967.929 3.72222 -0.16771 0
M  V30 9790 H 968.042 4.38427 -1.9318 0
M  V30 9791 H 966.406 2.36811 -0.937696 0
M  V30 9792 H 967.189 2.23715 -2.60397 0
M  V30 9793 N 969.634 0.838594 1.33437 0
M  V30 9794 C 970.566 0.229006 2.28053 0
M  V30 9795 C 971.579 -0.590103 1.51729 0
M  V30 9796 O 972.768 -0.417218 1.73556 0
M  V30 9797 C 969.868 -0.696251 3.31671 0
M  V30 9798 C 969.041 0.0834606 4.3732 0
M  V30 9799 C 968.1 -0.765097 5.20608 0
M  V30 9800 O 967.126 -0.2044 5.68833 0
M  V30 9801 N 968.328 -2.08249 5.4186 0
M  V30 9802 H 971.093 1.04196 2.81004 0
M  V30 9803 H 968.654 0.697031 1.46127 0
M  V30 9804 H 970.646 -1.26889 3.84293 0
M  V30 9805 H 969.216 -1.40992 2.78998 0
M  V30 9806 H 968.436 0.837481 3.85201 0
M  V30 9807 H 969.724 0.619613 5.05013 0
M  V30 9808 H 969.122 -2.56156 5.04381 0
M  V30 9809 H 967.679 -2.60362 5.97541 0
M  V30 9810 N 971.112 -1.45937 0.595003 0
M  V30 9811 C 972.358 -2.03184 0.0938125 0
M  V30 9812 C 972.713 -1.45675 -1.25684 0
M  V30 9813 O 972.006 -0.617122 -1.8139 0
M  V30 9814 C 972.2 -3.57396 -0.0173747 0
M  V30 9815 C 972.029 -4.29861 1.32096 0
M  V30 9816 C 970.799 -4.68285 1.89835 0
M  V30 9817 C 972.997 -4.6262 2.24693 0
M  V30 9818 N 970.979 -5.25554 3.17279 0
M  V30 9819 C 972.35 -5.20589 3.36729 0
M  V30 9820 C 974.405 -4.44555 2.24221 0
M  V30 9821 C 973.108 -5.62398 4.48443 0
M  V30 9822 C 975.134 -4.87388 3.34973 0
M  V30 9823 C 974.496 -5.45439 4.4573 0
M  V30 9824 H 970.595 -0.77816 0.0773994 0
M  V30 9825 H 973.179 -1.77926 0.790599 0
M  V30 9826 H 971.35 -3.82341 -0.683354 0
M  V30 9827 H 973.082 -4.01292 -0.524073 0
M  V30 9828 H 969.837 -4.51437 1.43185 0
M  V30 9829 H 970.261 -5.58699 3.8234 0
M  V30 9830 H 974.903 -3.98998 1.39857 0
M  V30 9831 H 972.621 -6.06927 5.3354 0
M  V30 9832 H 976.207 -4.75152 3.3574 0
M  V30 9833 H 975.087 -5.77975 5.30014 0
M  V30 9834 N 972.59 -0.333456 -1.54032 0
M  V30 9835 C 973.537 0.527981 -2.2468 0
M  V30 9836 C 974.507 1.10371 -1.24127 0
M  V30 9837 O 975.692 1.14221 -1.52834 0
M  V30 9838 C 972.832 1.67808 -3.01553 0
M  V30 9839 C 971.945 1.13064 -4.16942 0
M  V30 9840 C 971.08 2.24722 -4.81325 0
M  V30 9841 C 970.119 1.67277 -5.88799 0
M  V30 9842 N 969.256 2.72638 -6.47003 0
M  V30 9843 H 974.096 -0.0810308 -2.9789 0
M  V30 9844 H 971.633 -0.051761 -1.47009 0
M  V30 9845 H 973.591 2.35502 -3.44376 0
M  V30 9846 H 972.221 2.25823 -2.30659 0
M  V30 9847 H 971.273 0.344948 -3.78833 0
M  V30 9848 H 972.585 0.670373 -4.94275 0
M  V30 9849 H 971.739 3.00301 -5.27166 0
M  V30 9850 H 970.478 2.74089 -4.03394 0
M  V30 9851 H 969.483 0.902002 -5.4235 0
M  V30 9852 H 970.708 1.18775 -6.68632 0
M  V30 9853 H 968.654 3.21277 -5.71941 0
M  V30 9854 H 968.571 2.31204 -7.19778 0
M  V30 9855 H 969.839 3.48015 -6.97499 0
M  V30 9856 N 974.068 1.57479 -0.061844 0
M  V30 9857 C 975.001 2.07734 0.94455 0
M  V30 9858 C 975.979 0.980207 1.29733 0
M  V30 9859 O 977.163 1.2529 1.40836 0
M  V30 9860 C 974.29 2.52673 2.25553 0
M  V30 9861 C 973.336 3.73725 2.05503 0
M  V30 9862 S 974.169 5.18886 1.32354 0
M  V30 9863 C 975.325 5.67148 2.64753 0
M  V30 9864 H 975.558 2.92772 0.516888 0
M  V30 9865 H 973.091 1.53663 0.150684 0
M  V30 9866 H 975.049 2.79226 3.00904 0
M  V30 9867 H 973.71 1.67921 2.65445 0
M  V30 9868 H 972.903 4.03125 3.025 0
M  V30 9869 H 972.505 3.47494 1.3829 0
M  V30 9870 H 974.797 5.73385 3.60882 0
M  V30 9871 H 975.74 6.66196 2.39976 0
M  V30 9872 H 976.148 4.94921 2.71502 0
M  V30 9873 N 975.546 -0.211634 1.56173 0
M  V30 9874 C 976.476 -1.26533 1.96244 0
M  V30 9875 C 977.457 -1.48362 0.832028 0
M  V30 9876 O 978.642 -1.60378 1.0951 0
M  V30 9877 C 975.772 -2.61307 2.2877 0
M  V30 9878 C 974.726 -2.54119 3.44395 0
M  V30 9879 C 974.052 -3.93014 3.62552 0
M  V30 9880 C 975.352 -2.08046 4.79076 0
M  V30 9881 H 977.046 -0.932407 2.84511 0
M  V30 9882 H 974.592 -0.447084 1.36884 0
M  V30 9883 H 976.545 -3.35188 2.55396 0
M  V30 9884 H 975.269 -2.96307 1.37367 0
M  V30 9885 H 973.928 -1.82694 3.17834 0
M  V30 9886 H 973.576 -4.25338 2.68508 0
M  V30 9887 H 973.276 -3.89083 4.40327 0
M  V30 9888 H 974.8 -4.68542 3.91537 0
M  V30 9889 H 976.214 -2.71676 5.04842 0
M  V30 9890 H 974.611 -2.15154 5.60204 0
M  V30 9891 H 975.681 -1.03306 4.73768 0
M  V30 9892 N 977.024 -1.50153 -0.478725 0
M  V30 9893 C 977.956 -1.64603 -1.59494 0
M  V30 9894 C 978.969 -0.527789 -1.54007 0
M  V30 9895 O 980.158 -0.80069 -1.59534 0
M  V30 9896 C 977.258 -1.60738 -2.98356 0
M  V30 9897 C 976.431 -2.88468 -3.28794 0
M  V30 9898 C 975.49 -2.77349 -4.47173 0
M  V30 9899 O 974.516 -3.51302 -4.47857 0
M  V30 9900 N 975.718 -1.9039 -5.4839 0
M  V30 9901 H 978.483 -2.6088 -1.47518 0
M  V30 9902 H 976.044 -1.47521 -0.667011 0
M  V30 9903 H 978.036 -1.50923 -3.75505 0
M  V30 9904 H 976.606 -0.722273 -3.04141 0
M  V30 9905 H 975.826 -3.12467 -2.40329 0
M  V30 9906 H 977.114 -3.73102 -3.45937 0
M  V30 9907 H 976.512 -1.29606 -5.50653 0
M  V30 9908 H 975.069 -1.86484 -6.24553 0
M  V30 9909 N 978.502 0.731368 -1.39602 0
M  V30 9910 C 979.742 1.5036 -1.3846 0
M  V30 9911 C 980.106 1.91991 0.018784 0
M  V30 9912 O 981.307 2.68351 0.155236 0
M  V30 9913 C 979.578 2.70755 -2.33295 0
M  V30 9914 S 981.137 3.6036 -2.50372 0
M  V30 9915 H 977.955 0.514271 -0.490964 0
M  V30 9916 H 980.557 0.856654 -1.75732 0
M  V30 9917 H 979.261 2.38316 -3.34116 0
M  V30 9918 H 978.792 3.40376 -1.97251 0
M  V30 9919 H 980.807 4.64529 -1.74435 0
M  V30 9920 N 979.98 1.24838 0.961938 0
M  V30 9921 C 980.93 1.01276 2.04272 0
M  V30 9922 C 981.914 -0.0478239 1.60829 0
M  V30 9923 O 983.106 0.166616 1.76214 0
M  V30 9924 C 980.235 0.625659 3.37551 0
M  V30 9925 C 979.321 1.72262 3.87539 0
M  V30 9926 N 979.712 2.95644 4.104 0
M  V30 9927 C 978.01 1.60146 4.16256 0
M  V30 9928 C 978.711 3.66796 4.51482 0
M  V30 9929 N 977.687 2.94383 4.56989 0
M  V30 9930 H 981.489 1.94956 2.19931 0
M  V30 9931 H 979.003 1.15049 1.14619 0
M  V30 9932 H 981 0.438072 4.14592 0
M  V30 9933 H 979.66 -0.303887 3.23275 0
M  V30 9934 H 980.671 3.31764 3.97685 0
M  V30 9935 H 977.348 0.740353 4.10883 0
M  V30 9936 H 978.738 4.72664 4.77534 0
M  V30 9937 N 981.458 -1.16348 1.06306 0
M  V30 9938 C 982.869 -1.68491 0.80422 0
M  V30 9939 C 983.22 -1.84327 -0.672159 0
M  V30 9940 O 982.345 -1.53892 -1.52139 0
M  V30 9941 C 982.94 -3.06048 1.45328 0
M  V30 9942 C 981.499 -3.55311 1.24221 0
M  V30 9943 C 980.646 -2.31291 1.5297 0
M  V30 9944 H 983.597 -1.00708 1.22652 0
M  V30 9945 H 983.618 -3.70451 0.868674 0
M  V30 9946 H 983.13 -2.9449 2.52779 0
M  V30 9947 H 981.231 -3.72128 0.187447 0
M  V30 9948 H 981.344 -4.37397 1.95502 0
M  V30 9949 H 979.708 -2.3631 0.950241 0
M  V30 9950 H 980.491 -2.22331 2.6158 0
M  V30 9951 N 982.937 -0.845659 -1.3299 0
M  V30 9952 C 983.887 -0.2557 -2.26562 0
M  V30 9953 C 984.871 0.593245 -1.49564 0
M  V30 9954 O 986.063 0.444101 -1.71338 0
M  V30 9955 C 983.192 0.562573 -3.38659 0
M  V30 9956 C 982.278 -0.298259 -4.2305 0
M  V30 9957 N 982.669 -1.38023 -4.86604 0
M  V30 9958 C 980.967 -0.0864539 -4.45916 0
M  V30 9959 C 981.668 -1.90907 -5.49481 0
M  V30 9960 N 980.644 -1.20955 -5.29973 0
M  V30 9961 H 984.446 -1.083 -2.73219 0
M  V30 9962 H 981.96 -0.690823 -1.46974 0
M  V30 9963 H 983.957 1.00157 -4.0469 0
M  V30 9964 H 982.617 1.38777 -2.93549 0
M  V30 9965 H 983.628 -1.76314 -4.86964 0
M  V30 9966 H 980.305 0.70475 -4.11509 0
M  V30 9967 H 981.695 -2.81552 -6.10064 0
M  V30 9968 N 984.415 1.45619 -0.602734 0
M  V30 9969 C 985.345 2.33258 0.106342 0
M  V30 9970 C 986.326 1.46543 0.863664 0
M  V30 9971 O 987.511 1.75324 0.835175 0
M  V30 9972 C 984.641 3.29168 1.10751 0
M  V30 9973 C 983.595 4.25481 0.463717 0
M  V30 9974 C 982.921 5.11046 1.57278 0
M  V30 9975 C 984.221 5.18702 -0.61199 0
M  V30 9976 H 985.915 2.92795 -0.625423 0
M  V30 9977 H 983.461 1.40793 -0.302213 0
M  V30 9978 H 985.414 3.89346 1.61208 0
M  V30 9979 H 984.138 2.6778 1.8698 0
M  V30 9980 H 982.797 3.66595 -0.0199496 0
M  V30 9981 H 982.445 4.46029 2.32524 0
M  V30 9982 H 982.145 5.76286 1.14755 0
M  V30 9983 H 983.669 5.74091 2.07972 0
M  V30 9984 H 985.083 5.72979 -0.191686 0
M  V30 9985 H 983.48 5.92393 -0.958686 0
M  V30 9986 H 984.55 4.61424 -1.4905 0
M  V30 9987 N 985.893 0.34162 1.53853 0
M  V30 9988 C 987.139 -0.255862 2.01179 0
M  V30 9989 C 987.472 -1.50356 1.22909 0
M  V30 9990 O 986.747 -1.91913 0.316198 0
M  V30 9991 C 987.03 -0.571934 3.55529 0
M  V30 9992 C 986.883 0.687727 4.44511 0
M  V30 9993 C 988.202 -1.38233 4.17827 0
M  V30 9994 H 985.321 -0.091521 0.731295 0
M  V30 9995 H 987.963 0.461775 1.84303 0
M  V30 9996 H 986.113 -1.18331 3.70041 0
M  V30 9997 H 987.785 1.32572 4.4184 0
M  V30 9998 H 986.028 1.313 4.13452 0
M  V30 9999 H 986.699 0.421858 5.50386 0
M  V30 10000 H 989.175 -0.865374 4.07002 0
M  V30 10001 H 988.051 -1.57223 5.25901 0
M  V30 10002 H 988.312 -2.38386 3.72323 0
M  V30 10003 N 987.371 -1.57444 0.0701946 0
M  V30 10004 C 988.334 -2.11511 -0.882923 0
M  V30 10005 C 989.334 -1.03879 -1.22743 0
M  V30 10006 O 990.524 -1.29874 -1.16097 0
M  V30 10007 C 987.656 -2.61514 -2.18686 0
M  V30 10008 H 988.849 -2.9703 -0.413873 0
M  V30 10009 H 986.402 -1.55278 -0.178488 0
M  V30 10010 H 987.137 -1.79443 -2.70131 0
M  V30 10011 H 986.922 -3.40185 -1.94978 0
M  V30 10012 H 988.412 -3.03425 -2.86919 0
M  V30 10013 O 988.888 0.0704711 -1.61346 0
M  V30 10014 H 989.579 0.696202 -1.80756 0
M  V30 END ATOM
M  V30 BEGIN BOND
M  V30 END BOND
M  V30 END CTAB
M  END
$$$$
