drugbank_target|P13650 Quinoprotein glucose dehydrogenase B (DB02379; DB03205; DB04361)
 OpenBabel12092119583D

  0  0  0     0  0            999 V3000
M  V30 BEGIN CTAB
M  V30 COUNTS 7429 7521 0 0 0
M  V30 BEGIN ATOM
M  V30 1 H -0.908 1.98254 -0.117106 0
M  V30 2 N 0 1.576 0 0
M  V30 3 C 0.933 2.03868 1.02534 0
M  V30 4 C 1.911 0.928543 1.3348 0
M  V30 5 O 3.095 1.19667 1.45644 0
M  V30 6 C 0.222 2.43627 2.35294 0
M  V30 7 C -0.732 3.65373 2.2001 0
M  V30 8 S 0.101 5.13292 1.52614 0
M  V30 9 C 1.257 5.56322 2.86805 0
M  V30 10 H 1.49 2.90518 0.631377 0
M  V30 11 H -0.977 1.52953 0.210867 0
M  V30 12 H 0.981 2.67203 3.11629 0
M  V30 13 H -0.358 1.57376 2.7183 0
M  V30 14 H -1.165 3.90944 3.18086 0
M  V30 15 H -1.563 3.418 1.51819 0
M  V30 16 H 0.729 5.58782 3.83104 0
M  V30 17 H 1.672 6.56266 2.65933 0
M  V30 18 H 2.08 4.83886 2.90714 0
M  V30 19 N 1.4781 -0.272755 1.55222 0
M  V30 20 C 2.4261 -1.35705 1.88909 0
M  V30 21 C 3.4201 -1.5112 0.765456 0
M  V30 22 O 4.6261 -1.52901 0.949802 0
M  V30 23 H 1.0011 -0.453868 0.59959 0
M  V30 24 H 2.9721 -1.04544 2.79487 0
M  V30 25 C 1.7211 -2.71049 2.17779 0
M  V30 26 H 1.0441 -2.59979 3.03728 0
M  V30 27 H 2.4841 -3.45858 2.45272 0
M  V30 28 C 0.9431 -3.22165 0.985473 0
M  V30 29 O 1.4731 -4.01096 0.220233 0
M  V30 30 N -0.3209 -2.7985 0.783108 0
M  V30 31 H -0.7739 -2.15775 1.40708 0
M  V30 32 H -0.8159 -3.14397 -0.0130392 0
M  V30 33 N 2.9562 -1.48159 -0.537278 0
M  V30 34 C 3.9032 -1.62138 -1.64256 0
M  V30 35 C 4.8732 -0.463668 -1.59497 0
M  V30 36 O 6.0582 -0.686241 -1.78032 0
M  V30 37 C 3.1982 -1.66028 -3.02537 0
M  V30 38 C 2.3112 -2.92855 -3.17585 0
M  V30 39 C 1.4462 -2.87952 -4.46382 0
M  V30 40 C 0.4852 -4.09516 -4.54932 0
M  V30 41 N -0.3778 -4.02733 -5.75109 0
M  V30 42 H 4.4622 -2.56529 -1.51647 0
M  V30 43 H 1.9992 -1.27224 -0.738414 0
M  V30 44 H 3.9572 -1.66265 -3.82638 0
M  V30 45 H 2.5872 -0.751331 -3.13934 0
M  V30 46 H 1.6392 -3.02395 -2.30784 0
M  V30 47 H 2.9512 -3.82822 -3.19764 0
M  V30 48 H 2.1052 -2.8655 -5.34765 0
M  V30 49 H 0.8442 -1.95702 -4.46712 0
M  V30 50 H -0.1508 -4.11201 -3.64957 0
M  V30 51 H 1.0742 -5.02917 -4.56346 0
M  V30 52 H -0.9798 -3.13299 -5.76351 0
M  V30 53 H -1.0628 -4.86397 -5.78752 0
M  V30 54 H 0.2052 -4.05379 -6.65799 0
M  V30 55 N 4.4343 0.785586 -1.36625 0
M  V30 56 C 5.3843 1.88822 -1.27789 0
M  V30 57 C 6.3683 1.60014 -0.168579 0
M  V30 58 O 7.5603 1.72381 -0.401737 0
M  V30 59 C 4.6893 3.26092 -1.07327 0
M  V30 60 C 3.7753 3.60897 -2.22743 0
M  V30 61 N 4.1663 3.66982 -3.48077 0
M  V30 62 C 2.4643 3.90981 -2.14593 0
M  V30 63 C 3.1653 3.98137 -4.24101 0
M  V30 64 N 2.1413 4.13319 -3.53084 0
M  V30 65 H 5.9433 1.91759 -2.22723 0
M  V30 66 H 3.4573 0.981311 -1.29399 0
M  V30 67 H 5.4543 4.04954 -0.990842 0
M  V30 68 H 4.1143 3.24428 -0.132977 0
M  V30 69 H 5.1253 3.49531 -3.82163 0
M  V30 70 H 1.8023 3.9722 -1.2854 0
M  V30 71 H 3.1923 4.09737 -5.32509 0
M  V30 72 N 5.9124 1.20967 1.01018 0
M  V30 73 C 6.8424 0.988272 2.11555 0
M  V30 74 C 7.8234 -0.0849778 1.69888 0
M  V30 75 O 9.0084 0.0738202 1.9406 0
M  V30 76 C 6.1384 0.546528 3.42973 0
M  V30 77 C 5.0924 1.56375 3.9841 0
M  V30 78 C 4.4184 0.97842 5.25672 0
M  V30 79 C 5.7184 2.94922 4.31066 0
M  V30 80 H 7.4124 1.91276 2.30334 0
M  V30 81 H 4.9584 0.921073 1.1069 0
M  V30 82 H 6.9114 0.378839 4.19694 0
M  V30 83 H 5.6354 -0.413598 3.23971 0
M  V30 84 H 4.2944 1.71891 3.23804 0
M  V30 85 H 3.9424 0.0101688 5.02999 0
M  V30 86 H 3.6424 1.65784 5.63728 0
M  V30 87 H 5.1664 0.821939 6.05043 0
M  V30 88 H 6.5804 2.8288 4.9865 0
M  V30 89 H 4.9774 3.5983 4.80253 0
M  V30 90 H 6.0474 3.4616 3.39561 0
M  V30 91 N 7.3905 -1.2043 1.01659 0
M  V30 92 C 8.3205 -2.25466 0.607226 0
M  V30 93 C 9.3015 -1.65853 -0.377716 0
M  V30 94 O 10.4865 -1.92409 -0.263149 0
M  V30 95 C 7.6165 -3.47256 -0.0552949 0
M  V30 96 C 6.5705 -4.19462 0.850632 0
M  V30 97 C 5.8965 -5.34673 0.0538859 0
M  V30 98 C 7.1965 -4.75603 2.15868 0
M  V30 99 H 8.8905 -2.59962 1.48526 0
M  V30 100 H 6.4365 -1.2496 0.715605 0
M  V30 101 H 8.3895 -4.19917 -0.353233 0
M  V30 102 H 7.1135 -3.11924 -0.968045 0
M  V30 103 H 5.7725 -3.48667 1.13257 0
M  V30 104 H 5.4205 -4.95585 -0.860514 0
M  V30 105 H 5.1205 -5.83913 0.657192 0
M  V30 106 H 6.6445 -6.10138 -0.237598 0
M  V30 107 H 8.0585 -5.40083 1.92311 0
M  V30 108 H 6.4555 -5.3528 2.71284 0
M  V30 109 H 7.5255 -3.94346 2.82169 0
M  V30 110 N 8.8686 -0.792821 -1.36206 0
M  V30 111 C 9.8316 -0.199459 -2.2833 0
M  V30 112 C 10.8316 0.605189 -1.48977 0
M  V30 113 O 12.0216 0.425685 -1.68919 0
M  V30 114 C 9.1536 0.723523 -3.33134 0
M  V30 115 H 10.3466 -1.01181 -2.82316 0
M  V30 116 H 7.8996 -0.562485 -1.45828 0
M  V30 117 H 8.6346 1.56008 -2.84309 0
M  V30 118 H 8.4196 0.148436 -3.91819 0
M  V30 119 H 9.9096 1.13344 -4.01924 0
M  V30 120 N 10.3467 1.47872 -0.545128 0
M  V30 121 C 11.2937 2.29849 0.2093 0
M  V30 122 C 12.2637 1.38313 0.919707 0
M  V30 123 O 13.4487 1.67277 0.917772 0
M  V30 124 C 10.5887 3.22019 1.24088 0
M  V30 125 C 9.7017 4.2864 0.537778 0
M  V30 126 C 8.8367 5.07973 1.5536 0
M  V30 127 C 7.8757 6.06381 0.8348 0
M  V30 128 N 7.0127 6.78717 1.79688 0
M  V30 129 H 11.8527 2.93845 -0.49591 0
M  V30 130 H 9.3897 1.44848 -0.256389 0
M  V30 131 H 11.3477 3.73868 1.85144 0
M  V30 132 H 9.9777 2.59914 1.91428 0
M  V30 133 H 9.0297 3.7994 -0.187046 0
M  V30 134 H 10.3417 4.98793 -0.0258907 0
M  V30 135 H 9.4957 5.63912 2.23803 0
M  V30 136 H 8.2347 4.37693 2.15118 0
M  V30 137 H 7.2397 5.49631 0.136388 0
M  V30 138 H 8.4647 6.78665 0.24313 0
M  V30 139 H 6.4107 6.11177 2.38326 0
M  V30 140 H 6.3277 7.44998 1.28505 0
M  V30 141 H 7.5957 7.39237 2.47282 0
M  V30 142 N 11.8248 0.280983 1.55075 0
M  V30 143 C 13.0738 -0.334784 1.98902 0
M  V30 144 C 13.3868 -1.56534 1.17288 0
M  V30 145 O 14.5928 -2.25443 1.51287 0
M  V30 146 C 13.0488 -0.646994 3.54037 0
M  V30 147 C 12.6568 0.564085 4.44435 0
M  V30 148 C 14.4008 -1.22506 4.06439 0
M  V30 149 C 12.3078 0.226137 5.90967 0
M  V30 150 H 11.2378 -0.128866 0.742906 0
M  V30 151 H 13.8888 0.386556 1.79382 0
M  V30 152 H 12.2708 -1.42739 3.6938 0
M  V30 153 H 13.4448 1.34082 4.40861 0
M  V30 154 H 11.7598 1.0594 4.02698 0
M  V30 155 H 14.3568 -1.49182 5.13468 0
M  V30 156 H 14.6998 -2.16085 3.55827 0
M  V30 157 H 15.2328 -0.50682 3.94558 0
M  V30 158 H 11.9718 1.12996 6.45687 0
M  V30 159 H 11.4918 -0.513717 5.97596 0
M  V30 160 H 13.1708 -0.179539 6.46751 0
M  V30 161 N 13.3029 -1.57598 0.00835791 0
M  V30 162 C 14.2659 -2.07884 -0.965242 0
M  V30 163 C 15.2659 -0.989825 -1.26725 0
M  V30 164 O 16.4559 -1.25218 -1.21104 0
M  V30 165 C 13.5879 -2.52731 -2.28779 0
M  V30 166 H 14.7809 -2.95178 -0.530112 0
M  V30 167 H 12.3339 -1.54458 -0.239283 0
M  V30 168 H 13.0689 -1.68705 -2.76964 0
M  V30 169 H 12.8539 -3.32272 -2.08177 0
M  V30 170 H 14.3439 -2.91933 -2.98605 0
M  V30 171 N 14.781 0.264519 -1.55364 0
M  V30 172 C 15.711 1.33121 -1.91836 0
M  V30 173 C 16.692 1.51101 -0.781192 0
M  V30 174 O 17.877 1.64003 -1.04003 0
M  V30 175 C 15.007 2.68921 -2.19769 0
M  V30 176 C 13.961 2.65661 -3.35571 0
M  V30 177 C 13.287 4.05093 -3.49004 0
M  V30 178 C 14.587 2.24187 -4.71739 0
M  V30 179 H 16.281 1.02844 -2.81182 0
M  V30 180 H 13.827 0.493286 -1.35287 0
M  V30 181 H 15.78 3.43663 -2.43872 0
M  V30 182 H 14.504 3.00799 -1.27231 0
M  V30 183 H 13.163 1.93377 -3.1145 0
M  V30 184 H 12.811 4.34206 -2.53917 0
M  V30 185 H 12.511 4.03804 -4.26868 0
M  V30 186 H 14.035 4.81561 -3.75408 0
M  V30 187 H 15.449 2.88654 -4.9533 0
M  V30 188 H 13.846 2.34044 -5.52579 0
M  V30 189 H 14.916 1.19327 -4.69988 0
M  V30 190 N 16.2591 1.48442 0.529413 0
M  V30 191 C 17.1891 1.65902 1.64313 0
M  V30 192 C 18.1701 0.507897 1.6234 0
M  V30 193 O 19.3551 0.740503 1.79528 0
M  V30 194 C 16.4851 1.69911 3.02898 0
M  V30 195 C 15.4391 2.8453 3.19729 0
M  V30 196 C 14.7651 2.73629 4.59381 0
M  V30 197 C 16.0651 4.25821 3.02447 0
M  V30 198 H 17.7591 2.5914 1.49955 0
M  V30 199 H 15.3051 1.24709 0.719982 0
M  V30 200 H 17.2581 1.80715 3.80684 0
M  V30 201 H 15.9821 0.732524 3.18279 0
M  V30 202 H 14.6411 2.73283 2.44361 0
M  V30 203 H 14.2891 1.74938 4.71599 0
M  V30 204 H 13.9891 3.50541 4.71588 0
M  V30 205 H 15.5131 2.86401 5.39265 0
M  V30 206 H 16.9271 4.37898 3.70024 0
M  V30 207 H 15.3241 5.03735 3.26146 0
M  V30 208 H 16.3941 4.42244 1.98867 0
M  V30 209 N 17.7372 -0.778329 1.37039 0
M  V30 210 C 18.9622 -1.57248 1.35233 0
M  V30 211 C 19.3872 -1.87999 -0.0615568 0
M  V30 212 O 18.7452 -1.48734 -1.03672 0
M  V30 213 C 18.7932 -2.86353 2.19167 0
M  V30 214 O 17.8972 -3.80442 1.59178 0
M  V30 215 H 17.2382 -0.476569 0.462362 0
M  V30 216 H 19.7682 -0.963853 1.80474 0
M  V30 217 H 19.7782 -3.35519 2.32145 0
M  V30 218 H 18.4532 -2.63299 3.21942 0
M  V30 219 H 17.0302 -3.39067 1.55203 0
M  V30 220 N 19.2153 -1.21501 -1.00376 0
M  V30 221 C 20.1783 -0.976927 -2.07337 0
M  V30 222 C 21.1783 0.0525322 -1.60714 0
M  V30 223 O 22.3683 -0.184869 -1.73216 0
M  V30 224 C 19.5003 -0.473423 -3.37597 0
M  V30 225 H 20.6933 -1.92587 -2.29892 0
M  V30 226 H 18.2463 -1.03217 -1.17371 0
M  V30 227 H 18.9813 0.480379 -3.20722 0
M  V30 228 H 18.7663 -1.216 -3.72768 0
M  V30 229 H 20.2563 -0.32675 -4.1632 0
M  V30 230 N 20.6934 1.19889 -1.02296 0
M  V30 231 C 21.9394 1.89701 -0.717033 0
M  V30 232 C 22.2724 1.7905 0.751989 0
M  V30 233 O 21.5474 1.17891 1.547 0
M  V30 234 C 21.8304 3.40858 -1.16136 0
M  V30 235 C 21.6834 3.60411 -2.69117 0
M  V30 236 C 23.0024 4.33876 -0.737549 0
M  V30 237 H 20.1214 0.688874 -0.261957 0
M  V30 238 H 22.7634 1.41154 -1.27183 0
M  V30 239 H 20.9134 3.82335 -0.689342 0
M  V30 240 H 22.5854 3.28145 -3.2422 0
M  V30 241 H 20.8284 3.03665 -3.0979 0
M  V30 242 H 21.4994 4.66396 -2.95261 0
M  V30 243 H 23.9754 4.00081 -1.14344 0
M  V30 244 H 22.8514 5.38242 -1.0764 0
M  V30 245 H 23.1124 4.40628 0.360436 0
M  V30 246 N 22.1715 0.800033 1.35784 0
M  V30 247 C 23.1035 0.163596 2.28615 0
M  V30 248 C 24.1165 -0.633317 1.49976 0
M  V30 249 O 25.3055 -0.466754 1.72289 0
M  V30 250 C 22.4055 -0.790958 3.29541 0
M  V30 251 C 21.5785 -0.0418255 4.3738 0
M  V30 252 C 20.6375 -0.91389 5.18203 0
M  V30 253 O 19.6635 -0.367234 5.68014 0
M  V30 254 N 20.8655 -2.23682 5.35674 0
M  V30 255 H 23.6305 0.96105 2.83873 0
M  V30 256 H 21.1915 0.654894 1.48063 0
M  V30 257 H 23.1835 -1.37844 3.80501 0
M  V30 258 H 21.7535 -1.48925 2.74846 0
M  V30 259 H 20.9735 0.726813 3.87442 0
M  V30 260 H 22.2615 0.474719 5.06581 0
M  V30 261 H 21.6595 -2.70497 4.96838 0
M  V30 262 H 20.2165 -2.77369 5.89839 0
M  V30 263 N 23.6496 -1.47581 0.552962 0
M  V30 264 C 24.5796 -2.32762 -0.185451 0
M  V30 265 C 25.5606 -1.43527 -0.912905 0
M  V30 266 O 26.7456 -1.72388 -0.894201 0
M  V30 267 C 23.8756 -3.25219 -1.21859 0
M  V30 268 C 22.8296 -4.23661 -0.607864 0
M  V30 269 C 22.1556 -5.05413 -1.74533 0
M  V30 270 C 23.4556 -5.20481 0.435582 0
M  V30 271 H 25.1496 -2.94749 0.525684 0
M  V30 272 H 22.6956 -1.41738 0.254251 0
M  V30 273 H 24.6486 -3.8365 -1.7433 0
M  V30 274 H 23.3726 -2.61279 -1.95961 0
M  V30 275 H 22.0316 -3.66451 -0.104489 0
M  V30 276 H 21.6796 -4.3788 -2.47529 0
M  V30 277 H 21.3796 -5.72059 -1.34249 0
M  V30 278 H 22.9036 -5.66701 -2.27338 0
M  V30 279 H 24.3176 -5.733 -0.00290157 0
M  V30 280 H 22.7146 -5.95305 0.757067 0
M  V30 281 H 23.7846 -4.66217 1.33303 0
M  V30 282 N 25.1277 -0.289203 -1.54924 0
M  V30 283 C 26.3737 0.323998 -2.00195 0
M  V30 284 C 26.7067 1.54441 -1.17735 0
M  V30 285 O 25.9817 1.92875 -0.250878 0
M  V30 286 C 26.2647 0.692276 -3.53383 0
M  V30 287 C 26.1177 -0.536457 -4.46589 0
M  V30 288 C 27.4367 1.52335 -4.12895 0
M  V30 289 H 24.5557 0.116289 -0.727768 0
M  V30 290 H 27.1977 -0.398954 -1.85764 0
M  V30 291 H 25.3477 1.30822 -3.65811 0
M  V30 292 H 27.0197 -1.17499 -4.46085 0
M  V30 293 H 25.2627 -1.17192 -4.1767 0
M  V30 294 H 25.9337 -0.234806 -5.515 0
M  V30 295 H 28.4097 1.00302 -4.0383 0
M  V30 296 H 27.2857 1.74982 -5.20262 0
M  V30 297 H 27.5467 2.50886 -3.64018 0
M  V30 298 N 26.6058 1.57591 -0.0167156 0
M  V30 299 C 27.8338 1.95575 0.675128 0
M  V30 300 C 28.2488 0.892542 1.6637 0
M  V30 301 O 27.6058 -0.126912 1.82058 0
M  V30 302 C 27.6568 3.33608 1.39239 0
M  V30 303 O 27.3778 4.3585 0.443444 0
M  V30 304 C 28.8788 3.86151 2.17721 0
M  V30 305 H 26.0988 0.644423 0.186978 0
M  V30 306 H 28.6428 2.0437 -0.0728 0
M  V30 307 H 26.7978 3.2607 2.09182 0
M  V30 308 H 27.2118 5.158 0.951358 0
M  V30 309 H 28.6858 4.85114 2.63379 0
M  V30 310 H 29.1628 3.19738 3.01105 0
M  V30 311 H 29.7688 3.96918 1.52761 0
M  V30 312 N 28.0839 -0.256276 1.55502 0
M  V30 313 C 29.0139 -1.32102 1.92539 0
M  V30 314 C 29.9949 -1.50684 0.789194 0
M  V30 315 O 31.1799 -1.63449 1.04872 0
M  V30 316 C 28.3099 -2.67752 2.21192 0
M  V30 317 C 27.2639 -2.63878 3.36975 0
M  V30 318 C 26.5899 -4.03236 3.51147 0
M  V30 319 C 27.8899 -2.21682 4.72921 0
M  V30 320 H 29.5839 -1.01351 2.81724 0
M  V30 321 H 27.1299 -0.486105 1.35547 0
M  V30 322 H 29.0829 -3.42365 2.45691 0
M  V30 323 H 27.8069 -3.0012 1.28824 0
M  V30 324 H 26.4659 -1.91722 3.12471 0
M  V30 325 H 26.1139 -4.32854 2.56216 0
M  V30 326 H 25.8139 -4.01535 4.29003 0
M  V30 327 H 27.3379 -4.79563 3.77957 0
M  V30 328 H 28.7519 -2.86023 4.96854 0
M  V30 329 H 27.1489 -2.3111 5.53812 0
M  V30 330 H 28.2189 -1.16833 4.70615 0
M  V30 331 N 29.562 -1.4872 -0.521534 0
M  V30 332 C 30.787 -1.61101 -1.30618 0
M  V30 333 C 31.212 -0.274611 -1.86085 0
M  V30 334 O 30.57 0.754937 -1.64834 0
M  V30 335 C 30.618 -2.66709 -2.4269 0
M  V30 336 O 29.722 -2.24456 -3.45967 0
M  V30 337 H 29.063 -0.539921 -0.386499 0
M  V30 338 H 31.593 -1.94767 -0.626645 0
M  V30 339 H 31.603 -2.88245 -2.88754 0
M  V30 340 H 30.278 -3.63727 -2.01682 0
M  V30 341 H 28.855 -2.13168 -3.05964 0
M  V30 342 N 31.0401 0.771051 -1.3745 0
M  V30 343 C 32.0031 1.86598 -1.33093 0
M  V30 344 C 33.0031 1.59076 -0.234845 0
M  V30 345 O 34.1931 1.67145 -0.490732 0
M  V30 346 C 31.3251 3.23747 -1.06773 0
M  V30 347 H 32.5181 1.91873 -2.30488 0
M  V30 348 H 30.0711 0.970876 -1.2249 0
M  V30 349 H 30.8061 3.24148 -0.099129 0
M  V30 350 H 30.5911 3.45115 -1.86112 0
M  V30 351 H 32.0811 4.03824 -1.06377 0
M  V30 352 N 32.5182 1.22032 0.997298 0
M  V30 353 C 33.7652 1.04222 1.73621 0
M  V30 354 C 34.0932 -0.423264 1.89839 0
M  V30 355 O 33.3482 -1.3302 1.43542 0
M  V30 356 C 33.6472 1.69345 3.14733 0
M  V30 357 C 33.3132 3.19226 3.18442 0
M  V30 358 C 31.9752 3.60124 3.19161 0
M  V30 359 C 34.3272 4.15181 3.15078 0
M  V30 360 C 31.6552 4.95467 3.14212 0
M  V30 361 C 34.0072 5.50495 3.1167 0
M  V30 362 C 32.6712 5.90779 3.10703 0
M  V30 363 H 31.9412 0.381374 0.635323 0
M  V30 364 H 34.5882 1.51732 1.16831 0
M  V30 365 H 32.8932 1.14147 3.74803 0
M  V30 366 H 34.5902 1.53059 3.7064 0
M  V30 367 H 31.1802 2.86659 3.18629 0
M  V30 368 H 35.3642 3.84605 3.13676 0
M  V30 369 H 30.6202 5.25916 3.11805 0
M  V30 370 H 34.7942 6.24576 3.08022 0
M  V30 371 H 32.4212 6.9562 3.06622 0
M  V30 372 N 33.9963 -1.19345 1.0293 0
M  V30 373 C 34.9593 -2.20793 0.615069 0
M  V30 374 C 35.9593 -1.57553 -0.321533 0
M  V30 375 O 37.1493 -1.73862 -0.108483 0
M  V30 376 C 34.2813 -3.40754 -0.0999222 0
M  V30 377 H 35.4743 -2.58955 1.51269 0
M  V30 378 H 33.0273 -1.3303 0.820534 0
M  V30 379 H 33.7623 -3.0811 -1.01187 0
M  V30 380 H 33.5473 -3.87889 0.57309 0
M  V30 381 H 35.0373 -4.15898 -0.376645 0
M  V30 382 N 35.4744 -0.807222 -1.35358 0
M  V30 383 C 36.7514 -0.311126 -1.9311 0
M  V30 384 C 37.1314 1.19937 -1.73719 0
M  V30 385 O 36.4794 1.99918 -1.10657 0
M  V30 386 C 36.6894 -0.723226 -3.41424 0
M  V30 387 C 38.0374 -0.713078 -4.18569 0
M  V30 388 O 39.0614 -0.664811 -3.49941 0
M  V30 389 O 37.9204 -0.772022 -5.41019 0
M  V30 390 H 35.0144 -0.081526 -0.822972 0
M  V30 391 H 37.5604 -0.890962 -1.4443 0
M  V30 392 H 36.3324 -1.76426 -3.4927 0
M  V30 393 H 35.9554 -0.118232 -3.97424 0
M  V30 394 N 36.9525 1.47285 -0.560781 0
M  V30 395 C 38.1985 2.02764 -0.0381184 0
M  V30 396 C 38.5315 1.43384 1.30976 0
M  V30 397 O 37.8065 0.590733 1.85312 0
M  V30 398 C 38.0895 3.60064 0.0511427 0
M  V30 399 C 37.9425 4.2987 -1.32408 0
M  V30 400 C 39.2615 4.33439 0.762795 0
M  V30 401 H 36.3805 0.736841 -0.0153264 0
M  V30 402 H 39.0225 1.75675 -0.723759 0
M  V30 403 H 37.1725 3.83274 0.635065 0
M  V30 404 H 38.8445 4.17989 -1.95148 0
M  V30 405 H 37.0875 3.90085 -1.8978 0
M  V30 406 H 37.7585 5.38478 -1.21431 0
M  V30 407 H 40.2345 4.15243 0.266965 0
M  V30 408 H 39.1105 5.43124 0.794221 0
M  V30 409 H 39.3715 4.02915 1.81966 0
M  V30 410 N 38.4306 0.297415 1.54768 0
M  V30 411 C 39.8416 -0.195947 1.85669 0
M  V30 412 C 40.1926 -1.53707 1.21937 0
M  V30 413 O 39.3176 -2.10164 0.515754 0
M  V30 414 C 39.9126 -0.362318 3.36857 0
M  V30 415 C 38.4716 -0.799901 3.67802 0
M  V30 416 C 37.6186 0.0938578 2.77141 0
M  V30 417 H 40.5696 0.518538 1.4999 0
M  V30 418 H 40.5906 -1.19745 3.61167 0
M  V30 419 H 40.1026 0.613921 3.83214 0
M  V30 420 H 38.2036 -1.78682 3.26961 0
M  V30 421 H 38.3166 -0.621773 4.75048 0
M  V30 422 H 36.6806 -0.426254 2.51108 0
M  V30 423 H 37.4636 1.06639 3.26318 0
M  V30 424 N 39.9087 -1.5758 0.0250728 0
M  V30 425 C 40.8387 -2.13007 -0.956575 0
M  V30 426 C 41.8197 -1.0452 -1.342 0
M  V30 427 O 43.0047 -1.32332 -1.42133 0
M  V30 428 C 40.1347 -2.65386 -2.24026 0
M  V30 429 C 39.0887 -3.78623 -1.99571 0
M  V30 430 C 38.4147 -4.17414 -3.3417 0
M  V30 431 C 39.7147 -5.04867 -1.33814 0
M  V30 432 H 41.4087 -2.9528 -0.494991 0
M  V30 433 H 38.9547 -1.42042 -0.236651 0
M  V30 434 H 40.9077 -3.02794 -2.93076 0
M  V30 435 H 39.6317 -1.80268 -2.72343 0
M  V30 436 H 38.2907 -3.41646 -1.32941 0
M  V30 437 H 37.9387 -3.29284 -3.80238 0
M  V30 438 H 37.6387 -4.93719 -3.18615 0
M  V30 439 H 39.1627 -4.57402 -4.04495 0
M  V30 440 H 40.5767 -5.39888 -1.92857 0
M  V30 441 H 38.9737 -5.86144 -1.28669 0
M  V30 442 H 40.0437 -4.83904 -0.310561 0
M  V30 443 N 41.3868 0.248026 -1.55636 0
M  V30 444 C 42.6148 0.993808 -1.81469 0
M  V30 445 C 43.0298 1.78991 -0.60064 0
M  V30 446 O 42.3868 1.77345 0.430682 0
M  V30 447 C 42.4378 1.93258 -3.05506 0
M  V30 448 O 42.1588 1.16869 -4.22224 0
M  V30 449 C 43.6598 2.79444 -3.4413 0
M  V30 450 H 40.8798 0.292486 -0.603898 0
M  V30 451 H 43.4238 0.271253 -2.02693 0
M  V30 452 H 41.5788 2.60943 -2.86335 0
M  V30 453 H 41.9928 1.80359 -4.92515 0
M  V30 454 H 43.4668 3.41066 -4.34026 0
M  V30 455 H 43.9438 3.50499 -2.64665 0
M  V30 456 H 44.5498 2.17214 -3.65648 0
M  V30 457 N 42.8649 1.48995 0.513639 0
M  V30 458 C 44.2759 1.5119 1.09537 0
M  V30 459 C 44.6269 0.290906 1.94031 0
M  V30 460 O 43.7519 -0.60049 2.07902 0
M  V30 461 C 44.3469 2.73964 1.99322 0
M  V30 462 C 42.9059 2.78978 2.52682 0
M  V30 463 C 42.0529 2.44934 1.30009 0
M  V30 464 H 45.0039 1.55875 0.298125 0
M  V30 465 H 45.0249 2.53409 2.83838 0
M  V30 466 H 44.5369 3.62813 1.37799 0
M  V30 467 H 42.6379 1.94378 3.1788 0
M  V30 468 H 42.7509 3.8083 2.90698 0
M  V30 469 H 41.1149 1.9644 1.62122 0
M  V30 470 H 41.8979 3.36043 0.702131 0
M  V30 471 N 44.343 -0.763751 1.37857 0
M  V30 472 C 45.568 -1.55805 1.36893 0
M  V30 473 C 45.993 -1.88054 -0.0416135 0
M  V30 474 O 45.351 -1.49825 -1.02089 0
M  V30 475 C 45.399 -2.84012 2.22192 0
M  V30 476 O 44.503 -3.78732 1.63204 0
M  V30 477 H 43.844 -0.471638 0.46739 0
M  V30 478 H 46.374 -0.944657 1.81487 0
M  V30 479 H 46.384 -3.33037 2.35691 0
M  V30 480 H 45.059 -2.59869 3.24716 0
M  V30 481 H 43.636 -3.37402 1.58791 0
M  V30 482 N 45.8211 -1.22559 -0.990812 0
M  V30 483 C 46.7531 -0.955325 -2.08342 0
M  V30 484 C 47.7661 0.0668408 -1.62663 0
M  V30 485 O 48.9551 -0.167421 -1.77713 0
M  V30 486 C 46.0551 -0.415566 -3.36342 0
M  V30 487 C 45.2281 -1.49544 -4.11042 0
M  V30 488 C 44.2871 -0.962399 -5.17324 0
M  V30 489 O 43.3131 -1.64907 -5.44788 0
M  V30 490 N 44.5151 0.215134 -5.80101 0
M  V30 491 H 47.2801 -1.89596 -2.32106 0
M  V30 492 H 44.8411 -1.13276 -1.15673 0
M  V30 493 H 46.8331 -0.0442386 -4.04676 0
M  V30 494 H 45.4031 0.430232 -3.09625 0
M  V30 495 H 44.6231 -2.04 -3.37309 0
M  V30 496 H 45.9111 -2.22195 -4.57719 0
M  V30 497 H 45.3091 0.789779 -5.6016 0
M  V30 498 H 43.8661 0.527826 -6.49659 0
M  V30 499 N 47.2992 1.18797 -1.03562 0
M  V30 500 C 48.5462 1.8865 -0.736023 0
M  V30 501 C 48.8742 1.80041 0.735889 0
M  V30 502 O 48.1292 1.19179 1.55225 0
M  V30 503 C 48.4282 3.38692 -1.14117 0
M  V30 504 C 48.0942 3.67504 -2.6125 0
M  V30 505 C 46.7562 3.75078 -3.01447 0
M  V30 506 C 49.1082 3.80293 -3.56408 0
M  V30 507 C 46.4362 3.92915 -4.35701 0
M  V30 508 C 48.7882 3.99645 -4.90374 0
M  V30 509 C 47.4522 4.05453 -5.30249 0
M  V30 510 H 46.7222 0.690321 -0.26933 0
M  V30 511 H 49.3692 1.40641 -1.29971 0
M  V30 512 H 47.6742 3.88645 -0.496202 0
M  V30 513 H 49.3712 3.91072 -0.886789 0
M  V30 514 H 45.9612 3.62223 -2.29113 0
M  V30 515 H 50.1452 3.73779 -3.26501 0
M  V30 516 H 45.4012 3.95653 -4.66121 0
M  V30 517 H 49.5752 4.08482 -5.64017 0
M  V30 518 H 47.2022 4.19027 -6.34288 0
M  V30 519 N 48.7773 0.814389 1.34928 0
M  V30 520 C 49.7403 0.235759 2.27984 0
M  V30 521 C 50.7403 -0.581412 1.49921 0
M  V30 522 O 51.9303 -0.398758 1.69575 0
M  V30 523 C 49.0623 -0.670433 3.34242 0
M  V30 524 H 50.2553 1.05659 2.80671 0
M  V30 525 H 47.8083 0.585614 1.44915 0
M  V30 526 H 48.5433 -1.51466 2.86755 0
M  V30 527 H 48.3283 -0.0860822 3.92005 0
M  V30 528 H 49.8183 -1.06935 4.03676 0
M  V30 529 N 50.2554 -1.46986 0.568584 0
M  V30 530 C 51.2024 -2.30153 -0.172707 0
M  V30 531 C 52.1724 -1.39759 -0.897586 0
M  V30 532 O 53.3574 -1.68716 -0.891044 0
M  V30 533 C 50.4974 -3.23952 -1.1895 0
M  V30 534 C 49.6104 -4.29441 -0.469517 0
M  V30 535 C 48.7454 -5.1038 -1.47259 0
M  V30 536 C 47.7844 -6.07632 -0.738225 0
M  V30 537 N 46.9214 -6.8149 -1.68868 0
M  V30 538 H 51.7614 -2.93019 0.542596 0
M  V30 539 H 49.2984 -1.44422 0.279401 0
M  V30 540 H 51.2564 -3.76767 -1.79173 0
M  V30 541 H 49.8864 -2.62926 -1.87269 0
M  V30 542 H 48.9384 -3.79594 0.247467 0
M  V30 543 H 50.2504 -4.98689 0.105241 0
M  V30 544 H 49.4044 -5.67402 -2.14803 0
M  V30 545 H 48.1434 -4.4106 -2.08128 0
M  V30 546 H 47.1484 -5.49778 -0.0489293 0
M  V30 547 H 48.3734 -6.78966 -0.135129 0
M  V30 548 H 46.3194 -6.14891 -2.28573 0
M  V30 549 H 46.2364 -7.46948 -1.16636 0
M  V30 550 H 47.5044 -7.43078 -2.3549 0
M  V30 551 N 51.7335 -0.305618 -1.54608 0
M  V30 552 C 52.6965 0.555591 -2.22364 0
M  V30 553 C 53.6965 1.05768 -1.21119 0
M  V30 554 O 54.8865 0.952972 -1.45822 0
M  V30 555 C 52.0185 1.76974 -2.91364 0
M  V30 556 H 53.2115 -0.0364572 -2.99878 0
M  V30 557 H 50.7645 -0.0565007 -1.56198 0
M  V30 558 H 51.4995 2.40151 -2.17941 0
M  V30 559 H 51.2845 1.41732 -3.65588 0
M  V30 560 H 52.7745 2.38148 -3.43038 0
M  V30 561 N 53.2116 1.57565 -0.0334293 0
M  V30 562 C 54.1586 2.10478 0.946981 0
M  V30 563 C 55.1286 1.00787 1.32027 0
M  V30 564 O 56.3136 1.28232 1.41284 0
M  V30 565 C 53.4536 2.63994 2.22263 0
M  V30 566 C 52.5666 3.87709 1.90541 0
M  V30 567 C 51.7016 4.29604 3.12433 0
M  V30 568 C 50.7406 5.46065 2.76549 0
M  V30 569 N 49.8776 5.83096 3.9108 0
M  V30 570 H 54.7176 2.93963 0.488846 0
M  V30 571 H 52.2546 1.45296 0.22969 0
M  V30 572 H 54.2126 2.93114 2.96884 0
M  V30 573 H 52.8426 1.83333 2.65685 0
M  V30 574 H 51.8946 3.65291 1.06144 0
M  V30 575 H 53.2066 4.72403 1.60116 0
M  V30 576 H 52.3606 4.60182 3.9537 0
M  V30 577 H 51.0996 3.43685 3.46023 0
M  V30 578 H 50.1046 5.15176 1.92026 0
M  V30 579 H 51.3296 6.33685 2.44171 0
M  V30 580 H 49.2756 5.00132 4.24504 0
M  V30 581 H 49.1926 6.6244 3.64293 0
M  V30 582 H 50.4606 6.18282 4.74708 0
M  V30 583 N 54.6897 -0.239769 1.55765 0
M  V30 584 C 55.9147 -0.988373 1.82335 0
M  V30 585 C 56.3397 -1.77886 0.611421 0
M  V30 586 O 55.6977 -1.75889 -0.439639 0
M  V30 587 C 55.7457 -1.89627 3.06715 0
M  V30 588 O 54.8497 -2.98904 2.84131 0
M  V30 589 H 54.1907 -0.280858 0.601677 0
M  V30 590 H 56.7207 -0.258597 2.02959 0
M  V30 591 H 56.7307 -2.30957 3.36338 0
M  V30 592 H 55.4057 -1.31511 3.9456 0
M  V30 593 H 53.9827 -2.61651 2.65694 0
M  V30 594 N 56.1678 -1.49265 -0.50573 0
M  V30 595 C 57.0778 -1.68312 -1.63427 0
M  V30 596 C 58.0938 -0.565682 -1.64548 0
M  V30 597 O 59.2698 -0.839801 -1.83055 0
M  V30 598 C 56.3348 -1.74107 -2.99813 0
M  V30 599 C 55.3958 -2.97653 -3.09356 0
M  V30 600 C 54.6288 -3.03163 -4.39236 0
M  V30 601 O 54.8518 -2.16396 -5.27758 0
M  V30 602 O 53.7858 -3.9558 -4.53652 0
M  V30 603 H 57.6118 -2.63907 -1.50289 0
M  V30 604 H 55.1968 -1.32951 -0.681502 0
M  V30 605 H 57.0788 -1.803 -3.80881 0
M  V30 606 H 55.7538 -0.816901 -3.13223 0
M  V30 607 H 54.6608 -2.96981 -2.27493 0
M  V30 608 H 55.9938 -3.89535 -3.00871 0
M  V30 609 N 57.6459 0.756429 -1.3826 0
M  V30 610 C 58.5939 1.89149 -1.35372 0
M  V30 611 C 59.5879 1.67691 -0.24004 0
M  V30 612 O 60.7939 1.75294 -0.408919 0
M  V30 613 H 57.1689 0.622271 -0.422236 0
M  V30 614 H 59.1399 1.88701 -2.31159 0
M  V30 615 C 57.8889 3.26599 -1.19284 0
M  V30 616 H 57.2119 3.43695 -2.0424 0
M  V30 617 H 58.6519 4.06274 -1.21316 0
M  V30 618 C 57.1109 3.3675 0.100454 0
M  V30 619 O 57.6409 3.86951 1.07851 0
M  V30 620 N 55.8469 2.90179 0.15633 0
M  V30 621 H 55.3939 2.49517 -0.640253 0
M  V30 622 H 55.3519 2.97352 1.02123 0
M  V30 623 N 59.124 1.23083 0.984299 0
M  V30 624 C 60.371 1.06057 1.72505 0
M  V30 625 C 60.699 -0.403105 1.90277 0
M  V30 626 O 59.954 -1.3149 1.44944 0
M  V30 627 C 60.253 1.72673 3.1292 0
M  V30 628 C 59.919 3.22586 3.15038 0
M  V30 629 C 58.581 3.63489 3.15324 0
M  V30 630 C 60.933 4.185 3.10657 0
M  V30 631 C 58.261 4.98772 3.08939 0
M  V30 632 C 60.613 5.53769 3.05814 0
M  V30 633 C 59.277 5.94041 3.04419 0
M  V30 634 H 58.547 0.388091 0.631242 0
M  V30 635 H 61.194 1.52963 1.15215 0
M  V30 636 H 59.499 1.18116 3.73572 0
M  V30 637 H 61.196 1.56982 3.68996 0
M  V30 638 H 57.786 2.90022 3.15571 0
M  V30 639 H 61.97 3.87911 3.09579 0
M  V30 640 H 57.226 5.29193 3.0621 0
M  V30 641 H 61.4 6.27808 3.0138 0
M  V30 642 H 59.027 6.98833 2.99227 0
M  V30 643 N 60.6021 -1.18246 1.0419 0
M  V30 644 C 61.8791 -1.84121 0.660208 0
M  V30 645 C 62.2591 -1.92778 -0.860221 0
M  V30 646 O 61.6071 -1.45464 -1.76217 0
M  V30 647 C 61.8171 -3.22355 1.33747 0
M  V30 648 C 63.1651 -3.98376 1.46906 0
M  V30 649 O 64.1891 -3.31799 1.29568 0
M  V30 650 O 63.0481 -5.17665 1.75171 0
M  V30 651 H 60.1421 -0.794036 0.231161 0
M  V30 652 H 62.6881 -1.25628 1.14087 0
M  V30 653 H 61.4601 -3.10964 2.37522 0
M  V30 654 H 61.0831 -3.88506 0.845515 0
M  V30 655 N 62.0802 -0.821533 -1.34494 0
M  V30 656 C 63.0272 -0.240397 -2.29545 0
M  V30 657 C 63.9972 0.634031 -1.53523 0
M  V30 658 O 65.1822 0.575966 -1.81899 0
M  V30 659 C 62.3222 0.592869 -3.39969 0
M  V30 660 C 61.4352 -0.30365 -4.30932 0
M  V30 661 C 60.5702 0.539049 -5.28458 0
M  V30 662 C 59.6092 -0.356942 -6.11058 0
M  V30 663 N 58.7462 0.446603 -7.00678 0
M  V30 664 H 63.5862 -1.05632 -2.7865 0
M  V30 665 H 61.1232 -0.532413 -1.37127 0
M  V30 666 H 63.0812 1.09129 -4.02675 0
M  V30 667 H 61.7112 1.37392 -2.92102 0
M  V30 668 H 60.7632 -0.920276 -3.691 0
M  V30 669 H 62.0752 -0.992661 -4.88823 0
M  V30 670 H 61.2292 1.102 -5.96608 0
M  V30 671 H 59.9682 1.26157 -4.71101 0
M  V30 672 H 58.9732 -0.932047 -5.41842 0
M  V30 673 H 60.1982 -1.07755 -6.70497 0
M  V30 674 H 58.1442 1.15282 -6.45791 0
M  V30 675 H 58.0612 -0.184048 -7.55776 0
M  V30 676 H 59.3292 0.992352 -7.73158 0
M  V30 677 N 63.5583 1.46682 -0.576371 0
M  V30 678 C 64.5053 2.30241 0.160499 0
M  V30 679 C 65.4753 1.40233 0.890162 0
M  V30 680 O 66.6603 1.69186 0.882084 0
M  V30 681 C 63.8003 3.24578 1.1723 0
M  V30 682 C 62.9133 4.29684 0.446736 0
M  V30 683 C 62.0483 5.11154 1.44551 0
M  V30 684 C 61.0873 6.08015 0.70599 0
M  V30 685 N 60.2243 6.82376 1.65251 0
M  V30 686 H 65.0643 2.92727 -0.558127 0
M  V30 687 H 62.6013 1.44272 -0.287056 0
M  V30 688 H 64.5593 3.77711 1.77172 0
M  V30 689 H 63.1893 2.63916 1.85872 0
M  V30 690 H 62.2413 3.79458 -0.267594 0
M  V30 691 H 63.5533 4.98626 -0.131686 0
M  V30 692 H 62.7073 5.68533 2.11791 0
M  V30 693 H 61.4463 4.42158 2.05786 0
M  V30 694 H 60.4513 5.49796 0.0197725 0
M  V30 695 H 61.6763 6.79028 0.09912 0
M  V30 696 H 59.6223 6.16094 2.25308 0
M  V30 697 H 59.5393 7.47556 1.12673 0
M  V30 698 H 60.8073 7.44316 2.31546 0
M  V30 699 N 65.0364 0.313813 1.54444 0
M  V30 700 C 66.2824 -0.292108 2.00685 0
M  V30 701 C 66.6154 -1.52548 1.20177 0
M  V30 702 O 65.8904 -1.92452 0.281531 0
M  V30 703 C 66.1734 -0.635968 3.5444 0
M  V30 704 C 66.0264 0.607437 4.4568 0
M  V30 705 C 67.3454 -1.45747 4.15266 0
M  V30 706 H 64.4644 -0.104697 0.729526 0
M  V30 707 H 67.1064 0.428457 1.85106 0
M  V30 708 H 65.2564 -1.24986 3.67846 0
M  V30 709 H 66.9284 1.24581 4.44159 0
M  V30 710 H 65.1714 1.23822 4.15753 0
M  V30 711 H 65.8424 0.322515 5.51057 0
M  V30 712 H 68.3184 -0.938645 4.05375 0
M  V30 713 H 67.1944 -1.66683 5.2298 0
M  V30 714 H 67.4554 -2.45063 3.67963 0
M  V30 715 N 66.5145 -1.57545 0.0417849 0
M  V30 716 C 67.7635 -1.91494 -0.633492 0
M  V30 717 C 68.0765 -0.921084 -1.72556 0
M  V30 718 O 69.2825 -1.15228 -2.45835 0
M  V30 719 C 67.7385 -3.40072 -1.17808 0
M  V30 720 C 67.3465 -4.47843 -0.118633 0
M  V30 721 C 69.0905 -3.8307 -1.82915 0
M  V30 722 C 66.9975 -5.87529 -0.675578 0
M  V30 723 H 65.9275 -0.714653 -0.24039 0
M  V30 724 H 68.5785 -1.83175 0.109148 0
M  V30 725 H 66.9605 -3.43364 -1.97274 0
M  V30 726 H 68.1345 -4.56128 0.654494 0
M  V30 727 H 66.4495 -4.14128 0.434414 0
M  V30 728 H 69.0465 -4.84794 -2.25563 0
M  V30 729 H 69.3895 -3.1881 -2.67705 0
M  V30 730 H 69.9225 -3.82255 -1.10119 0
M  V30 731 H 66.6615 -6.55362 0.134475 0
M  V30 732 H 66.1815 -5.82824 -1.4169 0
M  V30 733 H 67.8605 -6.36491 -1.1614 0
M  V30 734 N 67.9926 0.231505 -1.5589 0
M  V30 735 C 68.9226 1.29022 -1.94617 0
M  V30 736 C 69.9036 1.4941 -0.813067 0
M  V30 737 O 71.0886 1.6176 -1.07459 0
M  V30 738 C 68.2186 2.64199 -2.25424 0
M  V30 739 C 67.1726 2.58484 -3.41131 0
M  V30 740 C 66.4986 3.97599 -3.57518 0
M  V30 741 C 67.7986 2.1413 -4.76388 0
M  V30 742 H 69.4926 0.968563 -2.83301 0
M  V30 743 H 67.0386 0.464479 -1.36303 0
M  V30 744 H 68.9916 3.38413 -2.51107 0
M  V30 745 H 67.7156 2.98032 -1.33583 0
M  V30 746 H 66.3746 1.86727 -3.15481 0
M  V30 747 H 66.0226 4.28723 -2.6307 0
M  V30 748 H 65.7226 3.94659 -4.35337 0
M  V30 749 H 67.2466 4.7349 -3.85538 0
M  V30 750 H 68.6606 2.78083 -5.01341 0
M  V30 751 H 67.0576 2.2227 -5.57419 0
M  V30 752 H 68.1276 1.09331 -4.72414 0
M  V30 753 N 69.4707 1.49531 0.497807 0
M  V30 754 C 70.6957 1.63159 1.28039 0
M  V30 755 C 71.1207 0.30418 1.85624 0
M  V30 756 O 70.4787 -0.728618 1.66015 0
M  V30 757 C 70.5267 2.70537 2.38416 0
M  V30 758 O 69.6307 2.29931 3.42353 0
M  V30 759 H 68.9717 0.546001 0.377861 0
M  V30 760 H 71.5017 1.9574 0.59558 0
M  V30 761 H 71.5117 2.92802 2.84132 0
M  V30 762 H 70.1867 3.6689 1.95869 0
M  V30 763 H 68.7637 2.18009 3.02533 0
M  V30 764 N 70.9488 -0.749086 1.3866 0
M  V30 765 C 71.8968 -1.88428 1.36373 0
M  V30 766 C 72.8908 -1.67561 0.248929 0
M  V30 767 O 74.0968 -1.75074 0.41821 0
M  V30 768 H 70.4718 -0.620023 0.42553 0
M  V30 769 H 72.4428 -1.87473 2.32156 0
M  V30 770 C 71.1918 -3.25961 1.21014 0
M  V30 771 H 70.5148 -3.42607 2.06059 0
M  V30 772 H 71.9548 -4.05625 1.23469 0
M  V30 773 C 70.4138 -3.36799 -0.0825941 0
M  V30 774 O 70.9438 -3.87517 -1.05797 0
M  V30 775 N 69.1498 -2.90258 -0.140939 0
M  V30 776 H 68.6968 -2.49174 0.653477 0
M  V30 777 H 68.6548 -2.97889 -1.00545 0
M  V30 778 N 72.4269 -1.23603 -0.977757 0
M  V30 779 C 73.3569 -1.04401 -2.0886 0
M  V30 780 C 74.3379 0.0399052 -1.70053 0
M  V30 781 O 75.5229 -0.125246 -1.93796 0
M  V30 782 C 72.6529 -0.637269 -3.41403 0
M  V30 783 C 71.6069 -1.66883 -3.94124 0
M  V30 784 C 70.9329 -1.11745 -5.22893 0
M  V30 785 C 72.2329 -3.06247 -4.23096 0
M  V30 786 H 73.9269 -1.97316 -2.25182 0
M  V30 787 H 71.4729 -0.950096 -1.08209 0
M  V30 788 H 73.4259 -0.48998 -4.18542 0
M  V30 789 H 72.1499 0.327557 -3.24953 0
M  V30 790 H 70.8089 -1.80416 -3.19133 0
M  V30 791 H 70.4569 -0.143527 -5.02795 0
M  V30 792 H 70.1569 -1.80672 -5.59134 0
M  V30 793 H 71.6809 -0.982067 -6.02651 0
M  V30 794 H 73.0949 -2.96001 -4.90975 0
M  V30 795 H 71.4919 -3.72436 -4.70544 0
M  V30 796 H 72.5619 -3.55041 -3.30263 0
M  V30 797 N 73.905 1.17692 -1.04816 0
M  V30 798 C 74.853 2.23632 -0.63966 0
M  V30 799 C 75.847 1.6601 0.337219 0
M  V30 800 O 77.053 1.78844 0.203693 0
M  V30 801 H 73.428 0.727949 -0.188665 0
M  V30 802 H 75.399 2.55387 -1.54337 0
M  V30 803 C 74.148 3.4769 -0.0264051 0
M  V30 804 H 73.471 3.92331 -0.769164 0
M  V30 805 H 74.911 4.23418 0.222098 0
M  V30 806 C 73.37 3.13807 1.22584 0
M  V30 807 O 73.9 3.28236 2.31569 0
M  V30 808 N 72.106 2.68065 1.12202 0
M  V30 809 H 71.653 2.56525 0.235133 0
M  V30 810 H 71.611 2.45767 1.96076 0
M  V30 811 N 75.3831 0.828654 1.34056 0
M  V30 812 C 76.3301 0.252567 2.29414 0
M  V30 813 C 77.3001 -0.62588 1.53857 0
M  V30 814 O 78.4851 -0.566312 1.82202 0
M  V30 815 C 75.6251 -0.574831 3.40279 0
M  V30 816 C 74.7381 0.326499 4.30764 0
M  V30 817 C 73.8731 -0.511016 5.28736 0
M  V30 818 C 72.9121 0.389342 6.1086 0
M  V30 819 N 72.0491 -0.409439 7.00905 0
M  V30 820 H 76.8891 1.07108 2.78086 0
M  V30 821 H 74.4261 0.539677 1.36843 0
M  V30 822 H 76.3841 -1.06992 4.03248 0
M  V30 823 H 75.0141 -1.35841 2.92826 0
M  V30 824 H 74.0661 0.939837 3.68607 0
M  V30 825 H 75.3781 1.01857 4.88289 0
M  V30 826 H 74.5321 -1.07035 5.97184 0
M  V30 827 H 73.2711 -1.23657 4.71763 0
M  V30 828 H 72.2761 0.960769 5.4134 0
M  V30 829 H 73.5011 1.1131 6.69916 0
M  V30 830 H 71.4471 -1.11856 6.46393 0
M  V30 831 H 71.3641 0.224126 7.55668 0
M  V30 832 H 72.6321 -0.951336 7.73673 0
M  V30 833 N 76.8612 -1.46375 0.584142 0
M  V30 834 C 78.2722 -1.86031 0.157959 0
M  V30 835 C 78.6232 -1.48753 -1.27933 0
M  V30 836 O 77.7482 -0.903098 -1.96655 0
M  V30 837 C 78.3432 -3.37642 0.279892 0
M  V30 838 C 76.9022 -3.76289 -0.09143 0
M  V30 839 C 76.0492 -2.7039 0.615178 0
M  V30 840 H 79.0002 -1.37509 0.792274 0
M  V30 841 H 79.0212 -3.77275 -0.494364 0
M  V30 842 H 78.5332 -3.64742 1.32607 0
M  V30 843 H 76.6342 -3.54806 -1.13769 0
M  V30 844 H 76.7472 -4.78246 0.285886 0
M  V30 845 H 75.1112 -2.5464 0.0552833 0
M  V30 846 H 75.8942 -3.0033 1.66303 0
M  V30 847 N 78.3393 -0.321999 -1.54275 0
M  V30 848 C 79.2893 0.560185 -2.21011 0
M  V30 849 C 80.2733 1.08283 -1.19011 0
M  V30 850 O 81.4653 1.02011 -1.44647 0
M  V30 851 C 78.5943 1.72137 -2.97025 0
M  V30 852 C 77.6803 1.21369 -4.06363 0
M  V30 853 N 78.0713 0.425566 -5.04007 0
M  V30 854 C 76.3693 1.49255 -4.20284 0
M  V30 855 C 77.0703 0.152601 -5.815 0
M  V30 856 N 76.0463 0.738294 -5.38563 0
M  V30 857 H 79.8483 -0.049265 -2.93859 0
M  V30 858 H 77.3623 -0.127779 -1.61897 0
M  V30 859 H 79.3593 2.36512 -3.43319 0
M  V30 860 H 78.0193 2.33431 -2.25699 0
M  V30 861 H 79.0303 0.068551 -5.17855 0
M  V30 862 H 75.7073 2.11145 -3.60172 0
M  V30 863 H 77.0973 -0.481764 -6.70171 0
M  V30 864 N 79.8174 1.5752 -0.0501392 0
M  V30 865 C 80.7804 2.1037 0.909786 0
M  V30 866 C 81.7804 1.02308 1.24056 0
M  V30 867 O 82.9704 1.28385 1.17741 0
M  V30 868 C 80.1024 2.58708 2.21998 0
M  V30 869 H 81.2954 2.96479 0.451665 0
M  V30 870 H 78.8484 1.55038 0.198248 0
M  V30 871 H 79.5834 1.75989 2.72394 0
M  V30 872 H 79.3684 3.37675 1.99295 0
M  V30 873 H 80.8584 2.99747 2.9076 0
M  V30 874 N 81.2955 -0.223234 1.56011 0
M  V30 875 C 82.2255 -1.27988 1.95298 0
M  V30 876 C 83.2065 -1.48976 0.820979 0
M  V30 877 O 84.3915 -1.61188 1.08315 0
M  V30 878 C 81.5215 -2.63 2.26822 0
M  V30 879 C 80.4755 -2.56671 3.42497 0
M  V30 880 C 79.8015 -3.95697 3.59622 0
M  V30 881 C 81.1015 -2.11601 4.77517 0
M  V30 882 H 82.7955 -0.953525 2.8381 0
M  V30 883 H 80.3415 -0.457244 1.36548 0
M  V30 884 H 82.2945 -3.37077 2.52898 0
M  V30 885 H 81.0185 -2.9732 1.35161 0
M  V30 886 H 79.6775 -1.85051 3.16467 0
M  V30 887 H 79.3255 -4.27322 2.6534 0
M  V30 888 H 79.0255 -3.92345 4.37424 0
M  V30 889 H 80.5495 -4.71438 3.88044 0
M  V30 890 H 81.9635 -2.7542 5.02809 0
M  V30 891 H 80.3605 -2.19311 5.5859 0
M  V30 892 H 81.4305 -1.06824 4.72987 0
M  V30 893 N 82.7736 -1.49793 -0.48987 0
M  V30 894 C 83.7036 -1.70201 -1.59856 0
M  V30 895 C 84.6846 -0.55076 -1.60937 0
M  V30 896 O 85.8696 -0.787841 -1.77501 0
M  V30 897 C 82.9996 -1.77882 -2.98287 0
M  V30 898 C 81.9536 -2.92907 -3.12073 0
M  V30 899 C 81.2796 -2.85712 -4.51965 0
M  V30 900 C 82.5796 -4.3369 -2.91051 0
M  V30 901 H 84.2736 -2.63025 -1.43032 0
M  V30 902 H 81.8196 -1.26574 -0.686664 0
M  V30 903 H 83.7726 -1.90744 -3.75759 0
M  V30 904 H 82.4966 -0.816653 -3.16225 0
M  V30 905 H 81.1556 -2.79665 -2.37029 0
M  V30 906 H 80.8036 -1.8738 -4.66795 0
M  V30 907 H 80.5036 -3.62921 -4.62128 0
M  V30 908 H 82.0276 -3.00598 -5.31482 0
M  V30 909 H 83.4416 -4.47555 -3.58284 0
M  V30 910 H 81.8386 -5.12205 -3.12675 0
M  V30 911 H 82.9086 -4.47362 -1.87071 0
M  V30 912 N 84.2517 0.741722 -1.39055 0
M  V30 913 C 85.4977 1.50234 -1.37118 0
M  V30 914 C 85.8527 1.92368 0.0350439 0
M  V30 915 O 85.1457 1.63422 1.00019 0
M  V30 916 C 85.3397 2.7592 -2.27163 0
M  V30 917 C 85.1687 2.46074 -3.76401 0
M  V30 918 C 83.9387 2.38704 -4.45364 0
M  V30 919 C 86.1367 2.12062 -4.68545 0
M  V30 920 N 84.1187 2.01258 -5.79973 0
M  V30 921 C 85.4897 1.85005 -5.91754 0
M  V30 922 C 87.5447 1.98473 -4.56632 0
M  V30 923 C 86.2477 1.4573 -7.04383 0
M  V30 924 C 88.2737 1.60599 -5.69176 0
M  V30 925 C 87.6357 1.34423 -6.91455 0
M  V30 926 H 83.7347 0.548858 -0.557027 0
M  V30 927 H 86.3187 0.862642 -1.74547 0
M  V30 928 H 84.4897 3.3768 -1.91904 0
M  V30 929 H 86.2217 3.42068 -2.16267 0
M  V30 930 H 82.9767 2.55574 -3.98721 0
M  V30 931 H 83.4007 1.85147 -6.51191 0
M  V30 932 H 88.0427 2.17381 -3.62637 0
M  V30 933 H 85.7607 1.25562 -7.98286 0
M  V30 934 H 89.3467 1.507 -5.61944 0
M  V30 935 H 88.2267 1.05555 -7.77064 0
M  V30 936 N 85.7298 1.2412 0.971189 0
M  V30 937 C 86.9778 1.07668 1.71032 0
M  V30 938 C 87.2988 -0.385797 1.91146 0
M  V30 939 O 86.5688 -1.27569 1.4867 0
M  V30 940 H 85.1488 0.395429 0.633755 0
M  V30 941 H 87.8108 1.55984 1.16855 0
M  V30 942 H 86.9068 1.57195 2.69622 0
M  V30 943 N 87.2079 -1.17134 1.05439 0
M  V30 944 C 88.6189 -1.69084 0.791676 0
M  V30 945 C 88.9699 -1.83822 -0.685839 0
M  V30 946 O 88.0949 -1.52757 -1.53278 0
M  V30 947 C 88.6899 -3.07119 1.4305 0
M  V30 948 C 87.2489 -3.56225 1.21577 0
M  V30 949 C 86.3959 -2.32421 1.51247 0
M  V30 950 H 89.3469 -1.01617 1.219 0
M  V30 951 H 89.3679 -3.71087 0.84112 0
M  V30 952 H 88.8799 -2.9636 2.50584 0
M  V30 953 H 86.9809 -3.72257 0.159787 0
M  V30 954 H 87.0939 -4.38837 1.92246 0
M  V30 955 H 85.4579 -2.3701 0.932653 0
M  V30 956 H 86.2409 -2.24268 2.5992 0
M  V30 957 N 88.686 -0.835752 -1.33615 0
M  V30 958 C 89.963 -0.352017 -1.92406 0
M  V30 959 C 90.343 1.16225 -1.76224 0
M  V30 960 O 89.691 1.97526 -1.14873 0
M  V30 961 C 89.901 -0.795485 -3.39813 0
M  V30 962 C 91.249 -0.801703 -4.16963 0
M  V30 963 O 92.273 -0.738889 -3.48452 0
M  V30 964 O 91.132 -0.886607 -5.3926 0
M  V30 965 H 88.226 -0.0989641 -0.821057 0
M  V30 966 H 90.772 -0.921397 -1.42507 0
M  V30 967 H 89.544 -1.83795 -3.45449 0
M  V30 968 H 89.167 -0.202505 -3.97084 0
M  V30 969 N 90.1641 1.46063 -0.591896 0
M  V30 970 C 91.1121 2.32124 0.148739 0
M  V30 971 C 92.1061 1.45035 0.875286 0
M  V30 972 O 93.3121 1.61609 0.792632 0
M  V30 973 H 89.6871 0.749024 0.066832 0
M  V30 974 H 91.6581 2.92392 -0.595783 0
M  V30 975 C 90.4071 3.28373 1.1431 0
M  V30 976 H 89.7301 3.95371 0.59346 0
M  V30 977 H 91.1701 3.91352 1.63155 0
M  V30 978 C 89.6291 2.54393 2.20875 0
M  V30 979 O 90.1591 2.31373 3.28374 0
M  V30 980 N 88.3651 2.14797 1.95731 0
M  V30 981 H 87.9121 2.33719 1.08319 0
M  V30 982 H 87.8701 1.65619 2.67241 0
M  V30 983 N 91.6422 0.330177 1.54103 0
M  V30 984 C 92.5742 -0.566902 2.22079 0
M  V30 985 C 93.5872 -1.07462 1.22294 0
M  V30 986 O 94.7762 -0.987065 1.48726 0
M  V30 987 C 91.8762 -1.79138 2.87685 0
M  V30 988 C 91.0492 -1.42123 4.13666 0
M  V30 989 C 90.1082 -2.50394 4.62806 0
M  V30 990 O 89.1342 -2.14261 5.27334 0
M  V30 991 N 90.3362 -3.81433 4.37595 0
M  V30 992 H 93.1012 0.0151844 2.99696 0
M  V30 993 H 90.6622 0.153681 1.61169 0
M  V30 994 H 92.6542 -2.50975 3.1748 0
M  V30 995 H 91.2242 -2.28115 2.13734 0
M  V30 996 H 90.4442 -0.534201 3.90564 0
M  V30 997 H 91.7322 -1.14971 4.9564 0
M  V30 998 H 91.1302 -4.13584 3.8596 0
M  V30 999 H 89.6872 -4.4948 4.72029 0
M  V30 1000 N 93.1203 -1.57491 0.0584922 0
M  V30 1001 C 94.3693 -1.92155 -0.613146 0
M  V30 1002 C 94.6823 -0.939334 -1.71569 0
M  V30 1003 O 95.8883 -1.17829 -2.44599 0
M  V30 1004 C 94.3443 -3.41303 -1.14195 0
M  V30 1005 C 93.9523 -4.47944 -0.0711265 0
M  V30 1006 C 95.6963 -3.84988 -1.78841 0
M  V30 1007 C 93.6033 -5.88212 -0.613225 0
M  V30 1008 H 92.5333 -0.717162 -0.232796 0
M  V30 1009 H 95.1843 -1.83049 0.12857 0
M  V30 1010 H 93.5663 -3.45437 -1.93621 0
M  V30 1011 H 94.7403 -4.55408 0.702836 0
M  V30 1012 H 93.0553 -4.13644 0.478313 0
M  V30 1013 H 95.6523 -4.87159 -2.20408 0
M  V30 1014 H 95.9953 -3.21632 -2.64308 0
M  V30 1015 H 96.5283 -3.83401 -1.06059 0
M  V30 1016 H 93.2673 -6.55183 0.203978 0
M  V30 1017 H 92.7873 -5.84294 -1.35501 0
M  V30 1018 H 94.4663 -6.37687 -1.09383 0
M  V30 1019 N 94.5984 0.214957 -1.56127 0
M  V30 1020 C 95.8444 0.935325 -1.80619 0
M  V30 1021 C 96.1994 1.81706 -0.632507 0
M  V30 1022 O 95.4924 1.87931 0.373182 0
M  V30 1023 C 95.6864 1.80314 -3.0858 0
M  V30 1024 C 95.5154 1.00691 -4.38282 0
M  V30 1025 C 94.2854 0.699211 -5.00439 0
M  V30 1026 C 96.4834 0.369057 -5.12974 0
M  V30 1027 N 94.4654 -0.117734 -6.13787 0
M  V30 1028 C 95.8364 -0.310981 -6.1922 0
M  V30 1029 C 97.8914 0.282759 -4.97096 0
M  V30 1030 C 96.5944 -1.06907 -7.11311 0
M  V30 1031 C 98.6204 -0.461881 -5.89594 0
M  V30 1032 C 97.9824 -1.13044 -6.9527 0
M  V30 1033 H 94.0814 0.322307 -0.71249 0
M  V30 1034 H 96.6654 0.205649 -1.93611 0
M  V30 1035 H 94.8364 2.50458 -2.96859 0
M  V30 1036 H 96.5684 2.46148 -3.21237 0
M  V30 1037 H 93.3234 1.01884 -4.62511 0
M  V30 1038 H 93.7474 -0.515235 -6.75037 0
M  V30 1039 H 98.3894 0.785292 -4.15443 0
M  V30 1040 H 96.1074 -1.5831 -7.92442 0
M  V30 1041 H 99.6934 -0.529746 -5.79383 0
M  V30 1042 H 98.5734 -1.69742 -7.65609 0
M  V30 1043 N 96.0765 1.50051 0.48192 0
M  V30 1044 C 97.0065 1.71046 1.58951 0
M  V30 1045 C 97.9875 0.559288 1.60642 0
M  V30 1046 O 99.1725 0.797243 1.77081 0
M  V30 1047 C 96.3025 1.79462 2.97339 0
M  V30 1048 C 95.2565 2.94558 3.10515 0
M  V30 1049 C 94.5825 2.88105 4.50444 0
M  V30 1050 C 95.8825 4.35227 2.88747 0
M  V30 1051 H 97.5765 2.6378 1.41635 0
M  V30 1052 H 95.1225 1.26936 0.679942 0
M  V30 1053 H 97.0755 1.92734 3.74742 0
M  V30 1054 H 95.7995 0.833412 3.15788 0
M  V30 1055 H 94.4585 2.80918 2.35543 0
M  V30 1056 H 94.1065 1.89853 4.65795 0
M  V30 1057 H 93.8065 3.65366 4.60197 0
M  V30 1058 H 95.3305 3.03412 5.29881 0
M  V30 1059 H 96.7445 4.49449 3.55905 0
M  V30 1060 H 95.1415 5.13856 3.09955 0
M  V30 1061 H 96.2115 4.48347 1.84696 0
M  V30 1062 N 97.5546 -0.734337 1.39446 0
M  V30 1063 C 98.7826 -1.52358 1.39981 0
M  V30 1064 C 99.1976 -1.88799 -0.0054975 0
M  V30 1065 O 98.5546 -1.54146 -0.976998 0
M  V30 1066 C 98.6056 -2.81072 2.27333 0
M  V30 1067 O 98.3266 -2.46178 3.62392 0
M  V30 1068 C 99.8276 -3.75096 2.36259 0
M  V30 1069 H 97.0476 -0.470806 0.478103 0
M  V30 1070 H 99.5916 -0.907339 1.83269 0
M  V30 1071 H 97.7466 -3.39026 1.87457 0
M  V30 1072 H 98.1606 -3.28866 4.08592 0
M  V30 1073 H 99.6346 -4.62305 3.01626 0
M  V30 1074 H 100.112 -4.16892 1.38194 0
M  V30 1075 H 100.718 -3.23061 2.76608 0
M  V30 1076 N 99.0327 -1.24633 -0.964593 0
M  V30 1077 C 99.9427 -1.05859 -2.09359 0
M  V30 1078 C 100.959 0.00148855 -1.74 0
M  V30 1079 O 102.135 -0.197346 -2.00431 0
M  V30 1080 C 99.1997 -0.668879 -3.40187 0
M  V30 1081 C 98.2607 -1.80578 -3.89474 0
M  V30 1082 C 97.4937 -1.43457 -5.14058 0
M  V30 1083 O 97.7167 -0.325775 -5.69469 0
M  V30 1084 O 96.6507 -2.2613 -5.57807 0
M  V30 1085 H 100.477 -2.00516 -2.28094 0
M  V30 1086 H 98.0617 -1.03481 -1.0776 0
M  V30 1087 H 99.9437 -0.463211 -4.18846 0
M  V30 1088 H 98.6187 0.248536 -3.22744 0
M  V30 1089 H 97.5257 -2.06623 -3.11862 0
M  V30 1090 H 98.8587 -2.70208 -4.11398 0
M  V30 1091 N 100.511 1.16574 -1.06058 0
M  V30 1092 C 101.927 1.3904 -0.783585 0
M  V30 1093 C 102.127 1.91784 0.618145 0
M  V30 1094 O 101.183 2.11511 1.37911 0
M  V30 1095 C 102.496 2.37329 -1.84649 0
M  V30 1096 C 104.044 2.51018 -1.86973 0
M  V30 1097 C 104.519 3.52588 -2.92311 0
M  V30 1098 N 106.01 3.60113 -2.91329 0
M  V30 1099 C 106.745 4.38486 -3.69482 0
M  V30 1100 N 106.241 5.20302 -4.57447 0
M  V30 1101 N 108.034 4.33446 -3.57885 0
M  V30 1102 H 100.185 0.806725 -1.96483 0
M  V30 1103 H 102.448 0.417117 -0.851303 0
M  V30 1104 H 102.154 2.05663 -2.85299 0
M  V30 1105 H 102.028 3.36946 -1.6955 0
M  V30 1106 H 104.415 2.81989 -0.869827 0
M  V30 1107 H 104.496 1.51445 -2.0615 0
M  V30 1108 H 104.14 3.22354 -3.92492 0
M  V30 1109 H 104.07 4.51886 -2.70383 0
M  V30 1110 H 106.561 3.01707 -2.27555 0
M  V30 1111 H 106.874 5.77311 -5.13743 0
M  V30 1112 H 105.219 5.19653 -4.61503 0
M  V30 1113 H 108.41 3.68586 -2.88551 0
M  V30 1114 H 108.583 4.94279 -4.19037 0
M  V30 1115 N 101.989 0.842826 1.3317 0
M  V30 1116 C 102.952 0.284065 2.27433 0
M  V30 1117 C 103.952 -0.54948 1.5112 0
M  V30 1118 O 105.142 -0.362699 1.70382 0
M  V30 1119 C 102.274 -0.599384 3.35589 0
M  V30 1120 H 103.467 1.11589 2.78366 0
M  V30 1121 H 101.02 0.616221 1.4364 0
M  V30 1122 H 101.755 -1.45349 2.89904 0
M  V30 1123 H 101.54 -0.00291266 3.921 0
M  V30 1124 H 103.03 -0.983488 4.05854 0
M  V30 1125 N 103.467 -1.45747 0.599634 0
M  V30 1126 C 104.695 -2.06668 0.0978551 0
M  V30 1127 C 105.11 -1.44562 -1.21439 0
M  V30 1128 O 104.467 -0.556923 -1.73795 0
M  V30 1129 C 104.518 -3.61456 -0.0567044 0
M  V30 1130 O 104.239 -4.21242 1.20361 0
M  V30 1131 C 105.74 -4.39345 -0.590869 0
M  V30 1132 H 102.96 -0.667825 0.0651943 0
M  V30 1133 H 105.504 -1.87115 0.82511 0
M  V30 1134 H 103.659 -3.80378 -0.734251 0
M  V30 1135 H 104.073 -5.14323 1.02821 0
M  V30 1136 H 105.547 -5.48182 -0.648131 0
M  V30 1137 H 106.024 -4.08568 -1.61147 0
M  V30 1138 H 106.63 -4.25268 0.0523679 0
M  V30 1139 N 104.945 -0.338344 -1.53925 0
M  V30 1140 C 106.193 0.259245 -2.0043 0
M  V30 1141 C 106.514 1.51484 -1.22791 0
M  V30 1142 O 105.784 1.93037 -0.33368 0
M  V30 1143 H 104.364 0.0987845 -0.740439 0
M  V30 1144 H 107.026 -0.458302 -1.89435 0
M  V30 1145 H 106.122 0.505334 -3.07982 0
M  V30 1146 N 106.423 1.57458 -0.0668435 0
M  V30 1147 C 107.37 2.12439 0.902122 0
M  V30 1148 C 108.34 1.03565 1.2986 0
M  V30 1149 O 109.525 1.312 1.38532 0
M  V30 1150 C 106.665 2.6865 2.16614 0
M  V30 1151 C 105.778 3.91663 1.82274 0
M  V30 1152 C 104.913 4.36134 3.0325 0
M  V30 1153 C 103.952 5.51808 2.64904 0
M  V30 1154 N 103.089 5.9126 3.78624 0
M  V30 1155 H 107.929 2.94934 0.426382 0
M  V30 1156 H 105.466 1.4575 0.198819 0
M  V30 1157 H 107.424 2.99346 2.90599 0
M  V30 1158 H 106.054 1.88928 2.61737 0
M  V30 1159 H 105.106 3.6746 0.983719 0
M  V30 1160 H 106.418 4.75693 1.50059 0
M  V30 1161 H 105.572 4.68465 3.85519 0
M  V30 1162 H 104.311 3.50948 3.38655 0
M  V30 1163 H 103.316 5.19133 1.81055 0
M  V30 1164 H 104.541 6.38722 2.30675 0
M  V30 1165 H 102.487 5.09024 4.138 0
M  V30 1166 H 102.404 6.70018 3.5016 0
M  V30 1167 H 103.672 6.28212 4.61486 0
M  V30 1168 N 107.901 -0.206675 1.56239 0
M  V30 1169 C 109.15 -0.926964 1.79138 0
M  V30 1170 C 109.463 -1.84901 0.638043 0
M  V30 1171 O 110.669 -2.60906 0.751033 0
M  V30 1172 C 109.125 -1.6986 3.17294 0
M  V30 1173 C 108.733 -0.821956 4.40395 0
M  V30 1174 C 110.477 -2.40922 3.4951 0
M  V30 1175 C 108.384 -1.59179 5.69575 0
M  V30 1176 H 107.314 -0.349864 0.667915 0
M  V30 1177 H 109.965 -0.180487 1.8261 0
M  V30 1178 H 108.347 -2.48853 3.08039 0
M  V30 1179 H 109.521 -0.0715019 4.60745 0
M  V30 1180 H 107.836 -0.222741 4.15804 0
M  V30 1181 H 110.433 -2.99047 4.43255 0
M  V30 1182 H 110.776 -3.14542 2.72707 0
M  V30 1183 H 111.309 -1.68905 3.60161 0
M  V30 1184 H 108.048 -0.898589 6.49312 0
M  V30 1185 H 107.568 -2.31648 5.53262 0
M  V30 1186 H 109.247 -2.14862 6.10281 0
M  V30 1187 N 109.379 -1.50304 -0.473955 0
M  V30 1188 C 110.309 -1.71886 -1.58042 0
M  V30 1189 C 111.29 -0.567799 -1.60344 0
M  V30 1190 O 112.475 -0.806623 -1.76656 0
M  V30 1191 C 109.605 -1.81036 -2.96384 0
M  V30 1192 C 108.559 -2.962 -3.08949 0
M  V30 1193 C 107.885 -2.9049 -4.48909 0
M  V30 1194 C 109.185 -4.36752 -2.86434 0
M  V30 1195 H 110.879 -2.64527 -1.40234 0
M  V30 1196 H 108.425 -1.27295 -0.673201 0
M  V30 1197 H 110.378 -1.94719 -3.73714 0
M  V30 1198 H 109.102 -0.850147 -3.15341 0
M  V30 1199 H 107.761 -2.82164 -2.3405 0
M  V30 1200 H 107.409 -1.92321 -4.64781 0
M  V30 1201 H 107.109 -3.67802 -4.58253 0
M  V30 1202 H 108.633 -3.06218 -5.28264 0
M  V30 1203 H 110.047 -4.5133 -3.53517 0
M  V30 1204 H 108.444 -5.15493 -3.07225 0
M  V30 1205 H 109.514 -4.49321 -1.82316 0
M  V30 1206 N 110.857 0.726932 -1.39834 0
M  V30 1207 C 112.273 1.03354 -1.21615 0
M  V30 1208 C 112.473 2.01327 -0.08338 0
M  V30 1209 O 111.529 2.46158 0.56238 0
M  V30 1210 C 112.842 1.58811 -2.55342 0
M  V30 1211 C 114.39 1.70851 -2.62257 0
M  V30 1212 C 114.865 2.29716 -3.96225 0
M  V30 1213 N 116.356 2.37116 -3.97907 0
M  V30 1214 C 117.091 2.83619 -4.98345 0
M  V30 1215 N 116.587 3.29958 -6.09179 0
M  V30 1216 N 118.38 2.82901 -4.8572 0
M  V30 1217 H 110.531 0.0773069 -2.12259 0
M  V30 1218 H 112.794 0.0969102 -0.943034 0
M  V30 1219 H 112.5 0.942855 -3.38826 0
M  V30 1220 H 112.374 2.57502 -2.75632 0
M  V30 1221 H 114.761 2.34497 -1.79152 0
M  V30 1222 H 114.842 0.707913 -2.45809 0
M  V30 1223 H 114.486 1.66696 -4.79765 0
M  V30 1224 H 114.416 3.30469 -4.09997 0
M  V30 1225 H 116.907 2.04374 -3.17868 0
M  V30 1226 H 117.22 3.63976 -6.8172 0
M  V30 1227 H 115.565 3.27946 -6.12761 0
M  V30 1228 H 118.756 2.46027 -3.98231 0
M  V30 1229 H 118.929 3.18827 -5.6414 0
M  V30 1230 N 112.336 1.25143 0.95797 0
M  V30 1231 C 113.582 1.09855 1.70469 0
M  V30 1232 C 113.915 -0.360187 1.90831 0
M  V30 1233 O 113.19 -1.26568 1.47685 0
M  V30 1234 C 113.473 1.8497 3.08963 0
M  V30 1235 C 113.326 3.38652 2.96032 0
M  V30 1236 C 114.645 1.63016 4.08795 0
M  V30 1237 H 111.764 0.400465 0.618706 0
M  V30 1238 H 114.406 1.53933 1.11376 0
M  V30 1239 H 112.556 1.47505 3.59409 0
M  V30 1240 H 114.228 3.85772 2.52938 0
M  V30 1241 H 112.471 3.66534 2.32025 0
M  V30 1242 H 113.142 3.8642 3.94187 0
M  V30 1243 H 115.618 1.95625 3.67247 0
M  V30 1244 H 114.494 2.18015 5.03747 0
M  V30 1245 H 114.755 0.570692 4.38401 0
M  V30 1246 N 113.814 -1.1601 1.06675 0
M  V30 1247 C 114.762 -2.22586 0.675157 0
M  V30 1248 C 115.756 -1.66525 -0.310766 0
M  V30 1249 O 116.962 -1.79145 -0.175215 0
M  V30 1250 H 113.337 -0.724855 0.200223 0
M  V30 1251 H 115.308 -2.52899 1.58381 0
M  V30 1252 C 114.057 -3.47604 0.0817162 0
M  V30 1253 H 113.38 -3.91058 0.831484 0
M  V30 1254 H 114.82 -4.23718 -0.154708 0
M  V30 1255 C 113.279 -3.15718 -1.17576 0
M  V30 1256 O 113.809 -3.31878 -2.26318 0
M  V30 1257 N 112.015 -2.69816 -1.07923 0
M  V30 1258 H 111.562 -2.56866 -0.194293 0
M  V30 1259 H 111.52 -2.48855 -1.92141 0
M  V30 1260 N 115.292 -0.849877 -1.32721 0
M  V30 1261 C 116.703 -0.506188 -1.79707 0
M  V30 1262 C 117.054 0.975627 -1.70223 0
M  V30 1263 O 116.179 1.76078 -1.25799 0
M  V30 1264 C 116.774 -0.912044 -3.26293 0
M  V30 1265 C 115.333 -0.620326 -3.71253 0
M  V30 1266 C 114.48 -1.11439 -2.53922 0
M  V30 1267 H 117.431 -1.03754 -1.20087 0
M  V30 1268 H 117.452 -0.226493 -3.79825 0
M  V30 1269 H 116.964 -1.99057 -3.33164 0
M  V30 1270 H 115.065 0.447674 -3.69901 0
M  V30 1271 H 115.178 -1.18327 -4.64258 0
M  V30 1272 H 113.542 -0.534834 -2.49021 0
M  V30 1273 H 114.325 -2.19992 -2.6355 0
M  V30 1274 N 116.77 1.45427 -0.607355 0
M  V30 1275 C 117.68 2.34325 0.113463 0
M  V30 1276 C 118.696 1.51226 0.860617 0
M  V30 1277 O 119.872 1.84029 0.818255 0
M  V30 1278 C 116.937 3.28839 1.09844 0
M  V30 1279 C 115.998 4.27844 0.353271 0
M  V30 1280 C 115.231 5.17842 1.29133 0
M  V30 1281 O 115.454 5.11264 2.52913 0
M  V30 1282 O 114.388 5.96713 0.788523 0
M  V30 1283 H 118.214 2.97364 -0.617094 0
M  V30 1284 H 115.799 1.44807 -0.367619 0
M  V30 1285 H 117.681 3.8708 1.66575 0
M  V30 1286 H 116.356 2.68365 1.81003 0
M  V30 1287 H 115.263 3.7322 -0.256494 0
M  V30 1288 H 116.596 4.91173 -0.317822 0
M  V30 1289 N 118.248 0.346503 1.53744 0
M  V30 1290 C 119.473 -0.253074 2.0585 0
M  V30 1291 C 119.898 -1.43202 1.21962 0
M  V30 1292 O 119.256 -1.79783 0.234073 0
M  V30 1293 C 119.304 -0.643193 3.54817 0
M  V30 1294 O 118.408 -1.74286 3.73762 0
M  V30 1295 H 117.749 -0.0413583 0.662711 0
M  V30 1296 H 120.279 0.501574 1.98357 0
M  V30 1297 H 120.289 -0.919526 3.97503 0
M  V30 1298 H 118.964 0.218966 4.15323 0
M  V30 1299 H 117.541 -1.46356 3.42979 0
M  V30 1300 N 119.726 -1.57421 0.075193 0
M  V30 1301 C 120.974 -1.93236 -0.591974 0
M  V30 1302 C 121.295 -0.956241 -1.69944 0
M  V30 1303 O 120.565 -0.00494792 -1.95899 0
M  V30 1304 H 119.145 -0.713355 -0.22166 0
M  V30 1305 H 121.807 -1.9444 0.133848 0
M  V30 1306 H 120.903 -2.95131 -1.01509 0
M  V30 1307 N 121.204 0.198386 -1.56346 0
M  V30 1308 C 122.429 0.939682 -1.84891 0
M  V30 1309 C 122.854 1.76202 -0.658369 0
M  V30 1310 O 122.212 1.76993 0.392851 0
M  V30 1311 C 122.26 1.81428 -3.11635 0
M  V30 1312 O 121.364 2.91265 -2.91956 0
M  V30 1313 H 120.705 0.264807 -0.608912 0
M  V30 1314 H 123.235 0.204695 -2.03573 0
M  V30 1315 H 123.245 2.21958 -3.42343 0
M  V30 1316 H 121.92 1.21004 -3.97908 0
M  V30 1317 H 120.497 2.54514 -2.72538 0
M  V30 1318 N 122.682 1.50554 0.465978 0
M  V30 1319 C 123.928 1.62038 1.21949 0
M  V30 1320 C 124.261 0.322116 1.9151 0
M  V30 1321 O 123.536 -0.676723 1.82348 0
M  V30 1322 C 123.819 2.80421 2.25912 0
M  V30 1323 C 123.672 4.20144 1.60622 0
M  V30 1324 C 124.991 2.94354 3.27176 0
M  V30 1325 H 122.11 0.589752 0.441998 0
M  V30 1326 H 124.752 1.82956 0.51257 0
M  V30 1327 H 122.902 2.62717 2.86203 0
M  V30 1328 H 124.574 4.49449 1.03889 0
M  V30 1329 H 122.817 4.24165 0.909211 0
M  V30 1330 H 123.488 4.98914 2.36196 0
M  V30 1331 H 125.964 3.10578 2.76913 0
M  V30 1332 H 124.84 3.788 3.97242 0
M  V30 1333 H 125.101 2.05186 3.916 0
M  V30 1334 N 124.16 -0.719506 1.40217 0
M  V30 1335 C 125.107 -1.83359 1.40172 0
M  V30 1336 C 126.077 -1.64065 0.259206 0
M  V30 1337 O 127.262 -1.85254 0.456677 0
M  V30 1338 C 124.402 -3.2103 1.26624 0
M  V30 1339 C 123.515 -3.51923 2.50548 0
M  V30 1340 C 122.65 -4.79079 2.29471 0
M  V30 1341 C 121.689 -5.02863 3.48992 0
M  V30 1342 N 120.826 -6.2123 3.27135 0
M  V30 1343 H 125.666 -1.82733 2.35399 0
M  V30 1344 H 123.203 -0.892688 1.16917 0
M  V30 1345 H 125.161 -4.00524 1.16776 0
M  V30 1346 H 123.791 -3.20895 0.350176 0
M  V30 1347 H 122.843 -2.67014 2.70939 0
M  V30 1348 H 124.155 -3.6541 3.39525 0
M  V30 1349 H 123.309 -5.66582 2.16955 0
M  V30 1350 H 122.048 -4.67794 1.37913 0
M  V30 1351 H 121.053 -4.13816 3.6199 0
M  V30 1352 H 122.278 -5.16023 4.41472 0
M  V30 1353 H 120.224 -6.11204 2.38256 0
M  V30 1354 H 120.141 -6.35375 4.09675 0
M  V30 1355 H 121.409 -7.11532 3.18344 0
M  V30 1356 N 125.638 -1.25649 -0.95132 0
M  V30 1357 C 126.866 -1.13343 -1.73092 0
M  V30 1358 C 127.281 0.312434 -1.86197 0
M  V30 1359 O 126.638 1.21465 -1.36207 0
M  V30 1360 C 126.689 -1.78602 -3.14299 0
M  V30 1361 O 126.41 -3.17537 -3.01831 0
M  V30 1362 C 127.911 -1.72119 -4.08522 0
M  V30 1363 H 125.131 -0.395181 -0.542285 0
M  V30 1364 H 127.675 -1.66076 -1.19328 0
M  V30 1365 H 125.83 -1.29832 -3.64996 0
M  V30 1366 H 126.244 -3.49676 -3.90931 0
M  V30 1367 H 127.718 -2.22435 -5.052 0
M  V30 1368 H 128.195 -0.685635 -4.33815 0
M  V30 1369 H 128.801 -2.20393 -3.63741 0
M  V30 1370 N 127.117 1.15442 -1.07289 0
M  V30 1371 C 128.363 1.86489 -0.796846 0
M  V30 1372 C 128.696 1.82078 0.675371 0
M  V30 1373 O 127.971 1.24346 1.4956 0
M  V30 1374 C 128.254 3.35626 -1.30489 0
M  V30 1375 C 128.107 3.48673 -2.84161 0
M  V30 1376 C 129.426 4.30357 -0.920907 0
M  V30 1377 H 126.545 0.677144 -0.290939 0
M  V30 1378 H 129.187 1.35633 -1.33056 0
M  V30 1379 H 127.337 3.79068 -0.850883 0
M  V30 1380 H 129.009 3.14099 -3.37846 0
M  V30 1381 H 127.252 2.90253 -3.22391 0
M  V30 1382 H 127.923 4.53453 -3.14777 0
M  V30 1383 H 130.399 3.94871 -1.3121 0
M  V30 1384 H 129.275 5.33193 -1.30372 0
M  V30 1385 H 129.536 4.4176 0.173226 0
M  V30 1386 N 128.595 0.856903 1.32268 0
M  V30 1387 C 129.842 0.461386 1.97174 0
M  V30 1388 C 130.17 -0.983491 1.67803 0
M  V30 1389 O 129.425 -1.70541 0.959903 0
M  V30 1390 C 129.724 0.649919 3.51441 0
M  V30 1391 C 129.39 2.0656 4.00804 0
M  V30 1392 C 128.052 2.45279 4.13995 0
M  V30 1393 C 130.404 2.98947 4.26943 0
M  V30 1394 C 127.732 3.75653 4.50668 0
M  V30 1395 C 130.084 4.28822 4.65075 0
M  V30 1396 C 128.748 4.67472 4.76472 0
M  V30 1397 H 128.018 0.168833 0.72151 0
M  V30 1398 H 130.665 1.08739 1.57633 0
M  V30 1399 H 128.97 -0.0593018 3.91755 0
M  V30 1400 H 130.667 0.32391 3.9969 0
M  V30 1401 H 127.257 1.75495 3.91024 0
M  V30 1402 H 131.441 2.70265 4.16258 0
M  V30 1403 H 126.697 4.05379 4.57688 0
M  V30 1404 H 130.871 5.0047 4.84255 0
M  V30 1405 H 128.498 5.68539 5.04646 0
M  V30 1406 N 130.073 -1.45103 0.615059 0
M  V30 1407 C 131.005 -2.28786 -0.13762 0
M  V30 1408 C 132.018 -1.40376 -0.824525 0
M  V30 1409 O 133.207 -1.64681 -0.688662 0
M  V30 1410 C 130.307 -3.16322 -1.21628 0
M  V30 1411 C 129.48 -4.33054 -0.615039 0
M  V30 1412 C 128.539 -5.01743 -1.58556 0
M  V30 1413 O 127.565 -5.58293 -1.10895 0
M  V30 1414 N 128.767 -5.01714 -2.91998 0
M  V30 1415 H 131.532 -2.94025 0.580483 0
M  V30 1416 H 129.093 -1.55373 0.45507 0
M  V30 1417 H 131.085 -3.59139 -1.86552 0
M  V30 1418 H 129.655 -2.52943 -1.83681 0
M  V30 1419 H 128.875 -3.93627 0.21245 0
M  V30 1420 H 130.163 -5.08431 -0.193704 0
M  V30 1421 H 129.561 -4.57075 -3.33316 0
M  V30 1422 H 128.118 -5.48371 -3.52325 0
M  V30 1423 N 131.551 -0.354651 -1.53558 0
M  V30 1424 C 132.797 0.238797 -2.01389 0
M  V30 1425 C 133.13 1.49309 -1.2418 0
M  V30 1426 O 132.405 1.91638 -0.332457 0
M  V30 1427 C 132.688 0.541771 -3.56001 0
M  V30 1428 C 132.541 -0.725388 -4.43912 0
M  V30 1429 C 133.86 1.34685 -4.18984 0
M  V30 1430 H 130.979 0.0853177 -0.732045 0
M  V30 1431 H 133.621 -0.477384 -1.83905 0
M  V30 1432 H 131.771 1.15189 -3.71031 0
M  V30 1433 H 133.443 -1.36313 -4.407 0
M  V30 1434 H 131.686 -1.34801 -4.12324 0
M  V30 1435 H 132.357 -0.468505 -5.50008 0
M  V30 1436 H 134.833 0.830837 -4.07721 0
M  V30 1437 H 133.709 1.52759 -5.27215 0
M  V30 1438 H 133.97 2.35221 -3.74331 0
M  V30 1439 N 133.029 1.57378 -0.0835403 0
M  V30 1440 C 134.44 1.81261 0.447358 0
M  V30 1441 C 134.791 0.998331 1.68902 0
M  V30 1442 O 133.916 0.224282 2.15235 0
M  V30 1443 C 134.511 3.28767 0.818386 0
M  V30 1444 C 133.07 3.53455 1.29409 0
M  V30 1445 C 132.217 2.75831 0.285024 0
M  V30 1446 H 135.168 1.5566 -0.309115 0
M  V30 1447 H 135.189 3.41459 1.67887 0
M  V30 1448 H 134.701 3.88006 -0.0855019 0
M  V30 1449 H 132.802 2.99534 2.21608 0
M  V30 1450 H 132.915 4.62128 1.2639 0
M  V30 1451 H 131.279 2.42947 0.764767 0
M  V30 1452 H 132.062 3.37813 -0.611341 0
M  V30 1453 N 134.507 -0.190092 1.56449 0
M  V30 1454 C 135.417 -1.25591 1.98152 0
M  V30 1455 C 136.433 -1.49519 0.889944 0
M  V30 1456 O 137.609 -1.62036 1.19609 0
M  V30 1457 C 134.674 -2.57916 2.3169 0
M  V30 1458 C 133.735 -2.42015 3.5458 0
M  V30 1459 C 132.968 -3.6803 3.8651 0
M  V30 1460 O 133.191 -4.72413 3.1966 0
M  V30 1461 O 132.125 -3.6326 4.79923 0
M  V30 1462 H 135.951 -0.931988 2.89046 0
M  V30 1463 H 133.536 -0.395488 1.4407 0
M  V30 1464 H 135.418 -3.36008 2.54316 0
M  V30 1465 H 134.093 -2.89925 1.43963 0
M  V30 1466 H 133 -1.62017 3.37196 0
M  V30 1467 H 134.333 -2.14937 4.4279 0
M  V30 1468 N 135.985 -1.50799 -0.457987 0
M  V30 1469 C 137.234 -1.6168 -1.20593 0
M  V30 1470 C 137.547 -0.32888 -1.92815 0
M  V30 1471 O 138.753 -0.316773 -2.69646 0
M  V30 1472 C 137.209 -2.8545 -2.19195 0
M  V30 1473 C 136.817 -4.21168 -1.52715 0
M  V30 1474 C 138.561 -3.05681 -2.94549 0
M  V30 1475 C 136.468 -5.3611 -2.4968 0
M  V30 1476 H 135.398 -0.602134 -0.453818 0
M  V30 1477 H 138.049 -1.77245 -0.475031 0
M  V30 1478 H 136.431 -2.63472 -2.95632 0
M  V30 1479 H 137.605 -4.53449 -0.819775 0
M  V30 1480 H 135.92 -4.06648 -0.895922 0
M  V30 1481 H 138.517 -3.88727 -3.67145 0
M  V30 1482 H 138.86 -2.17929 -3.54701 0
M  V30 1483 H 139.393 -3.27901 -2.25223 0
M  V30 1484 H 136.132 -6.26057 -1.94249 0
M  V30 1485 H 135.652 -5.0823 -3.18532 0
M  V30 1486 H 137.331 -5.6722 -3.11241 0
M  V30 1487 N 137.463 0.71206 -1.40597 0
M  V30 1488 C 138.709 1.47416 -1.39271 0
M  V30 1489 C 139.042 1.942 0.00388791 0
M  V30 1490 O 138.317 1.68403 0.973179 0
M  V30 1491 C 138.6 2.69774 -2.38525 0
M  V30 1492 C 138.453 2.28861 -3.87224 0
M  V30 1493 C 139.772 3.71939 -2.35264 0
M  V30 1494 H 136.891 0.534713 -0.5072 0
M  V30 1495 H 139.533 0.812375 -1.71757 0
M  V30 1496 H 137.683 3.26238 -2.10953 0
M  V30 1497 H 139.355 1.77852 -4.25636 0
M  V30 1498 H 137.598 1.60824 -4.02887 0
M  V30 1499 H 138.269 3.16584 -4.52193 0
M  V30 1500 H 140.745 3.25113 -2.59694 0
M  V30 1501 H 139.621 4.55186 -3.06753 0
M  V30 1502 H 139.882 4.20484 -1.36549 0
M  V30 1503 N 138.941 1.26152 0.944643 0
M  V30 1504 C 139.889 1.07215 2.06417 0
M  V30 1505 C 140.883 9.2007e-05 1.694 0
M  V30 1506 O 142.089 0.1565 1.79318 0
M  V30 1507 H 138.464 0.329837 0.675805 0
M  V30 1508 H 140.435 2.02099 2.19541 0
M  V30 1509 C 139.184 0.718197 3.40202 0
M  V30 1510 H 138.507 1.53497 3.69159 0
M  V30 1511 H 139.947 0.625459 4.19361 0
M  V30 1512 C 138.406 -0.576435 3.31932 0
M  V30 1513 O 138.936 -1.61574 3.67773 0
M  V30 1514 N 137.142 -0.565781 2.85039 0
M  V30 1515 H 136.689 0.280367 2.5607 0
M  V30 1516 H 136.647 -1.43213 2.79888 0
M  V30 1517 N 140.419 -1.14872 1.07899 0
M  V30 1518 C 141.696 -1.81928 0.71845 0
M  V30 1519 C 142.076 -1.95417 -0.798455 0
M  V30 1520 O 141.424 -1.50997 -1.715 0
M  V30 1521 C 141.634 -3.17937 1.43935 0
M  V30 1522 C 142.982 -3.93501 1.59506 0
M  V30 1523 O 144.006 -3.27509 1.40058 0
M  V30 1524 O 142.865 -5.1183 1.91551 0
M  V30 1525 H 139.959 -0.78628 0.256305 0
M  V30 1526 H 142.505 -1.21934 1.18026 0
M  V30 1527 H 141.277 -3.0325 2.47295 0
M  V30 1528 H 140.9 -3.85619 0.968687 0
M  V30 1529 N 141.898 -0.863906 -1.31812 0
M  V30 1530 C 142.861 -0.320212 -2.26952 0
M  V30 1531 C 143.861 0.525369 -1.51975 0
M  V30 1532 O 145.051 0.335547 -1.70938 0
M  V30 1533 C 142.183 0.545919 -3.365 0
M  V30 1534 H 143.376 -1.16004 -2.76556 0
M  V30 1535 H 140.929 -0.638995 -1.42641 0
M  V30 1536 H 141.664 1.40718 -2.92179 0
M  V30 1537 H 141.449 -0.0594674 -3.92055 0
M  V30 1538 H 142.939 0.918796 -4.07367 0
M  V30 1539 N 143.376 1.44774 -0.622745 0
M  V30 1540 C 144.653 1.95522 -0.0551974 0
M  V30 1541 C 145.033 1.5649 1.41683 0
M  V30 1542 O 144.381 0.834848 2.12703 0
M  V30 1543 C 144.591 3.4796 -0.269242 0
M  V30 1544 C 145.939 4.24306 -0.158014 0
M  V30 1545 O 146.963 3.55637 -0.200162 0
M  V30 1546 O 145.822 5.46471 -0.0558693 0
M  V30 1547 H 142.916 0.826556 0.0271015 0
M  V30 1548 H 145.462 1.54866 -0.693864 0
M  V30 1549 H 144.234 3.6939 -1.29099 0
M  V30 1550 H 143.857 3.95543 0.403966 0
M  V30 1551 N 144.854 0.36279 1.53368 0
M  V30 1552 C 146.102 -0.227326 2.00817 0
M  V30 1553 C 146.423 -1.49511 1.25186 0
M  V30 1554 O 145.693 -1.92482 0.364348 0
M  V30 1555 H 144.273 -0.0869923 0.741917 0
M  V30 1556 H 146.935 0.488381 1.88682 0
M  V30 1557 H 146.031 -0.456273 3.08747 0
M  V30 1558 N 146.332 -1.57332 0.0918853 0
M  V30 1559 C 147.264 -2.10869 -0.898168 0
M  V30 1560 C 148.277 -1.04521 -1.24817 0
M  V30 1561 O 149.466 -1.31977 -1.20184 0
M  V30 1562 C 146.566 -2.57083 -2.2082 0
M  V30 1563 C 145.739 -3.87229 -2.03402 0
M  V30 1564 C 144.798 -4.19324 -3.17889 0
M  V30 1565 O 143.824 -4.88598 -2.91994 0
M  V30 1566 N 145.026 -3.74471 -4.43567 0
M  V30 1567 H 147.791 -2.96439 -0.440943 0
M  V30 1568 H 145.352 -1.61631 -0.0933064 0
M  V30 1569 H 147.344 -2.75602 -2.96354 0
M  V30 1570 H 145.914 -1.76541 -2.57977 0
M  V30 1571 H 145.134 -3.7789 -1.12218 0
M  V30 1572 H 146.422 -4.72379 -1.89038 0
M  V30 1573 H 145.82 -3.18546 -4.67488 0
M  V30 1574 H 144.377 -3.98151 -5.16061 0
M  V30 1575 N 147.81 0.181792 -1.56548 0
M  V30 1576 C 148.758 1.24461 -1.965 0
M  V30 1577 C 149.752 1.464 -0.852261 0
M  V30 1578 O 150.958 1.47103 -1.03733 0
M  V30 1579 H 147.333 0.418138 -0.625031 0
M  V30 1580 H 149.304 0.880714 -2.85107 0
M  V30 1581 C 148.053 2.57891 -2.33212 0
M  V30 1582 H 147.376 2.41829 -3.18369 0
M  V30 1583 H 148.816 3.3097 -2.65019 0
M  V30 1584 C 147.275 3.15871 -1.17163 0
M  V30 1585 O 147.805 3.9913 -0.453708 0
M  V30 1586 N 146.011 2.74808 -0.944936 0
M  V30 1587 H 145.558 2.07205 -1.53049 0
M  V30 1588 H 145.516 3.13939 -0.170286 0
M  V30 1589 N 149.288 1.51039 0.449983 0
M  V30 1590 C 150.536 1.62759 1.19808 0
M  V30 1591 C 150.857 0.339981 1.92013 0
M  V30 1592 O 150.127 -0.643606 1.85026 0
M  V30 1593 H 148.707 0.599811 0.445237 0
M  V30 1594 H 151.369 1.87914 0.517138 0
M  V30 1595 H 150.465 2.44911 1.93455 0
M  V30 1596 N 150.766 -0.704594 1.40972 0
M  V30 1597 C 151.696 -1.83124 1.44872 0
M  V30 1598 C 152.677 -1.67281 0.30838 0
M  V30 1599 O 153.862 -1.87149 0.518556 0
M  V30 1600 C 150.992 -3.21181 1.32136 0
M  V30 1601 C 149.946 -3.51714 2.43888 0
M  V30 1602 C 149.272 -4.89032 2.16222 0
M  V30 1603 C 150.572 -3.516 3.86232 0
M  V30 1604 H 152.266 -1.80117 2.39161 0
M  V30 1605 H 149.812 -0.865145 1.15114 0
M  V30 1606 H 151.765 -3.99702 1.33479 0
M  V30 1607 H 150.489 -3.24791 0.343279 0
M  V30 1608 H 149.148 -2.75539 2.41813 0
M  V30 1609 H 148.796 -4.89256 1.16778 0
M  V30 1610 H 148.496 -5.10426 2.911 0
M  V30 1611 H 150.02 -5.69873 2.19265 0
M  V30 1612 H 151.434 -4.2014 3.9007 0
M  V30 1613 H 149.831 -3.84523 4.60719 0
M  V30 1614 H 150.901 -2.50757 4.15029 0
M  V30 1615 N 152.244 -1.26651 -0.937939 0
M  V30 1616 C 153.174 -1.10993 -2.05433 0
M  V30 1617 C 154.155 -0.0142161 -1.70094 0
M  V30 1618 O 155.34 -0.186837 -1.93299 0
M  V30 1619 C 152.47 -0.745561 -3.39203 0
M  V30 1620 C 151.424 -1.79337 -3.88616 0
M  V30 1621 C 150.75 -1.28324 -5.19073 0
M  V30 1622 C 152.05 -3.19553 -4.13138 0
M  V30 1623 H 153.744 -2.0438 -2.1879 0
M  V30 1624 H 151.29 -0.984041 -1.05131 0
M  V30 1625 H 153.243 -0.622888 -4.16771 0
M  V30 1626 H 151.967 0.22401 -3.25831 0
M  V30 1627 H 150.626 -1.90477 -3.13231 0
M  V30 1628 H 150.274 -0.303414 -5.02084 0
M  V30 1629 H 149.974 -1.98369 -5.53103 0
M  V30 1630 H 151.498 -1.1733 -5.99221 0
M  V30 1631 H 152.912 -3.11471 -4.81309 0
M  V30 1632 H 151.309 -3.87218 -4.58457 0
M  V30 1633 H 152.379 -3.65368 -3.18801 0
M  V30 1634 N 153.722 1.14298 -1.08507 0
M  V30 1635 C 154.97 1.84993 -0.813763 0
M  V30 1636 C 155.291 1.83405 0.662393 0
M  V30 1637 O 154.561 1.28319 1.48024 0
M  V30 1638 H 153.141 0.684966 -0.298045 0
M  V30 1639 H 155.803 1.385 -1.37126 0
M  V30 1640 H 154.899 2.89788 -1.15884 0
M  V30 1641 N 155.201 0.870884 1.31352 0
M  V30 1642 C 156.448 0.482273 1.96673 0
M  V30 1643 C 156.776 -0.965638 1.68836 0
M  V30 1644 O 156.031 -1.69514 0.977937 0
M  V30 1645 C 156.33 0.687157 3.50732 0
M  V30 1646 C 155.996 2.108 3.9859 0
M  V30 1647 C 154.658 2.49656 4.1137 0
M  V30 1648 C 157.01 3.03459 4.23748 0
M  V30 1649 C 154.338 3.80412 4.46659 0
M  V30 1650 C 156.69 4.3373 4.60501 0
M  V30 1651 C 155.354 4.725 4.71487 0
M  V30 1652 H 154.624 0.176476 0.719679 0
M  V30 1653 H 157.271 1.10405 1.56471 0
M  V30 1654 H 155.576 -0.0177476 3.91796 0
M  V30 1655 H 157.273 0.366284 3.99324 0
M  V30 1656 H 153.863 1.79633 3.8914 0
M  V30 1657 H 158.047 2.74665 4.13368 0
M  V30 1658 H 153.303 4.1021 4.53362 0
M  V30 1659 H 157.477 5.05578 4.78919 0
M  V30 1660 H 155.104 5.73859 4.98588 0
M  V30 1661 N 156.679 -1.44442 0.630414 0
M  V30 1662 C 157.642 -2.29107 -0.0652523 0
M  V30 1663 C 158.642 -1.41002 -0.772995 0
M  V30 1664 O 159.832 -1.62881 -0.617692 0
M  V30 1665 C 156.964 -3.22564 -1.10296 0
M  V30 1666 H 158.157 -2.92103 0.679401 0
M  V30 1667 H 155.71 -1.51343 0.390517 0
M  V30 1668 H 156.445 -2.64416 -1.87762 0
M  V30 1669 H 156.23 -3.87491 -0.59941 0
M  V30 1670 H 157.72 -3.86167 -1.5895 0
M  V30 1671 N 158.157 -0.370918 -1.53173 0
M  V30 1672 C 159.404 0.217102 -2.01333 0
M  V30 1673 C 159.732 1.48338 -1.25802 0
M  V30 1674 O 158.987 1.92698 -0.34146 0
M  V30 1675 C 159.286 0.549696 -3.53147 0
M  V30 1676 C 158.952 -0.622872 -4.46577 0
M  V30 1677 C 157.614 -0.944595 -4.71838 0
M  V30 1678 C 159.966 -1.40819 -5.01816 0
M  V30 1679 C 157.294 -2.05351 -5.49589 0
M  V30 1680 C 159.646 -2.50757 -5.80778 0
M  V30 1681 C 158.31 -2.83458 -6.04324 0
M  V30 1682 H 157.58 0.0794431 -0.736729 0
M  V30 1683 H 160.227 -0.504481 -1.84736 0
M  V30 1684 H 158.532 1.35237 -3.6772 0
M  V30 1685 H 160.229 1.017 -3.87889 0
M  V30 1686 H 156.819 -0.36209 -4.27068 0
M  V30 1687 H 161.003 -1.17289 -4.82242 0
M  V30 1688 H 156.259 -2.3108 -5.6605 0
M  V30 1689 H 160.433 -3.12022 -6.22588 0
M  V30 1690 H 158.06 -3.69508 -6.64355 0
M  V30 1691 N 159.635 1.57281 -0.100228 0
M  V30 1692 C 160.585 2.10848 0.86759 0
M  V30 1693 C 161.569 1.02473 1.24049 0
M  V30 1694 O 162.761 1.28739 1.21471 0
M  V30 1695 C 159.89 2.69648 2.12474 0
M  V30 1696 C 158.976 3.85074 1.77704 0
M  V30 1697 N 159.367 4.92897 1.13518 0
M  V30 1698 C 157.665 3.94905 2.07282 0
M  V30 1699 C 158.366 5.73475 0.974735 0
M  V30 1700 N 157.342 5.22675 1.4937 0
M  V30 1701 H 161.144 2.91594 0.367471 0
M  V30 1702 H 158.658 1.62074 0.102829 0
M  V30 1703 H 160.655 3.06356 2.82757 0
M  V30 1704 H 159.315 1.90359 2.63047 0
M  V30 1705 H 160.326 5.11662 0.801381 0
M  V30 1706 H 157.003 3.26633 2.60033 0
M  V30 1707 H 158.393 6.70238 0.472364 0
M  V30 1708 N 161.113 -0.173488 1.56642 0
M  V30 1709 C 162.524 -0.736155 1.71574 0
M  V30 1710 C 162.875 -1.82888 0.710389 0
M  V30 1711 O 162 -2.16017 -0.1287 0
M  V30 1712 C 162.595 -1.34211 3.11083 0
M  V30 1713 C 161.154 -1.85162 3.27707 0
M  V30 1714 C 160.301 -0.729765 2.67525 0
M  V30 1715 H 163.252 0.0518786 1.58615 0
M  V30 1716 H 163.273 -2.21178 3.09613 0
M  V30 1717 H 162.785 -0.546579 3.84232 0
M  V30 1718 H 160.886 -2.67366 2.59512 0
M  V30 1719 H 160.999 -1.99855 4.35425 0
M  V30 1720 H 159.363 -1.14965 2.27278 0
M  V30 1721 H 160.146 0.0538806 3.43258 0
M  V30 1722 N 162.591 -1.51276 -0.441967 0
M  V30 1723 C 163.868 -1.54252 -1.20273 0
M  V30 1724 C 164.248 -0.30408 -2.08898 0
M  V30 1725 O 163.596 0.711084 -2.17154 0
M  V30 1726 C 163.806 -2.85406 -2.00859 0
M  V30 1727 C 165.154 -3.37181 -2.58059 0
M  V30 1728 O 166.178 -2.86925 -2.11074 0
M  V30 1729 O 165.037 -4.24858 -3.43741 0
M  V30 1730 H 162.131 -0.619969 -0.547328 0
M  V30 1731 H 164.677 -1.63586 -0.451413 0
M  V30 1732 H 163.449 -3.67003 -1.35736 0
M  V30 1733 H 163.072 -2.79213 -2.83065 0
M  V30 1734 N 164.069 0.697108 -1.41344 0
M  V30 1735 C 165.316 1.45714 -1.40619 0
M  V30 1736 C 165.644 1.94494 -0.0147907 0
M  V30 1737 O 164.899 1.69794 0.973066 0
M  V30 1738 C 165.198 2.68553 -2.35826 0
M  V30 1739 C 164.864 2.38438 -3.82698 0
M  V30 1740 C 163.526 2.29936 -4.22709 0
M  V30 1741 C 165.878 2.13567 -4.75435 0
M  V30 1742 C 163.206 1.94656 -5.53467 0
M  V30 1743 C 165.558 1.79797 -6.06511 0
M  V30 1744 C 164.222 1.69789 -6.45545 0
M  V30 1745 H 163.492 0.533206 -0.51456 0
M  V30 1746 H 166.139 0.796901 -1.74131 0
M  V30 1747 H 164.444 3.39503 -1.95563 0
M  V30 1748 H 166.141 3.2669 -2.32539 0
M  V30 1749 H 162.731 2.4595 -3.51008 0
M  V30 1750 H 166.915 2.19082 -4.45328 0
M  V30 1751 H 162.171 1.8546 -5.82593 0
M  V30 1752 H 166.345 1.59572 -6.77872 0
M  V30 1753 H 163.972 1.4222 -7.46778 0
M  V30 1754 N 165.547 1.27147 0.931209 0
M  V30 1755 C 166.494 1.09568 2.03134 0
M  V30 1756 C 167.464 -0.00222433 1.661 0
M  V30 1757 O 168.649 0.159439 1.90133 0
M  V30 1758 C 165.789 0.745231 3.36957 0
M  V30 1759 C 164.902 1.92041 3.86968 0
M  V30 1760 C 164.037 1.51216 5.09222 0
M  V30 1761 C 163.076 2.65504 5.5152 0
M  V30 1762 N 162.213 2.25291 6.64972 0
M  V30 1763 H 167.053 2.03708 2.17502 0
M  V30 1764 H 164.59 1.01411 1.06556 0
M  V30 1765 H 166.548 0.522878 4.1391 0
M  V30 1766 H 165.178 -0.159202 3.22407 0
M  V30 1767 H 164.23 2.25541 3.06326 0
M  V30 1768 H 165.542 2.77787 4.1429 0
M  V30 1769 H 164.696 1.25084 5.93666 0
M  V30 1770 H 163.435 0.625749 4.83669 0
M  V30 1771 H 162.44 2.92354 4.65628 0
M  V30 1772 H 163.665 3.54761 5.7907 0
M  V30 1773 H 161.611 1.39098 6.41083 0
M  V30 1774 H 161.528 3.04577 6.91931 0
M  V30 1775 H 162.796 2.02398 7.52765 0
M  V30 1776 N 167.025 -1.13721 1.09112 0
M  V30 1777 C 167.973 -2.21103 0.722219 0
M  V30 1778 C 168.967 -1.67147 -0.275374 0
M  V30 1779 O 170.173 -1.79477 -0.137176 0
M  V30 1780 H 166.548 -0.720445 0.215553 0
M  V30 1781 H 168.519 -2.49483 1.63709 0
M  V30 1782 C 167.268 -3.47352 0.15543 0
M  V30 1783 H 166.591 -3.89206 0.914246 0
M  V30 1784 H 168.031 -4.2395 -0.0647967 0
M  V30 1785 C 166.49 -3.1814 -1.10852 0
M  V30 1786 O 167.02 -3.36604 -2.19227 0
M  V30 1787 N 165.226 -2.72045 -1.02176 0
M  V30 1788 H 164.773 -2.57221 -0.139764 0
M  V30 1789 H 164.731 -2.52875 -1.8682 0
M  V30 1790 N 168.503 -0.877838 -1.30888 0
M  V30 1791 C 169.451 -0.328662 -2.30266 0
M  V30 1792 C 170.445 0.560496 -1.59859 0
M  V30 1793 O 171.651 0.445722 -1.74394 0
M  V30 1794 H 168.026 -0.0876142 -0.746879 0
M  V30 1795 H 169.997 -1.18061 -2.74051 0
M  V30 1796 C 168.746 0.448071 -3.44801 0
M  V30 1797 H 168.069 -0.226859 -3.99156 0
M  V30 1798 H 169.509 0.797541 -4.16432 0
M  V30 1799 C 167.968 1.64239 -2.94155 0
M  V30 1800 O 168.498 2.74175 -2.93583 0
M  V30 1801 N 166.704 1.47716 -2.50256 0
M  V30 1802 H 166.251 0.582821 -2.5092 0
M  V30 1803 H 166.209 2.27765 -2.16727 0
M  V30 1804 N 169.982 1.44106 -0.638065 0
M  V30 1805 C 171.393 1.85316 -0.226894 0
M  V30 1806 C 171.744 1.53399 1.22324 0
M  V30 1807 O 170.869 0.975463 1.93167 0
M  V30 1808 C 171.464 3.3637 -0.405013 0
M  V30 1809 C 170.023 3.76369 -0.0482902 0
M  V30 1810 C 169.17 2.67921 -0.715108 0
M  V30 1811 H 172.121 1.34474 -0.842764 0
M  V30 1812 H 172.142 3.7885 0.354 0
M  V30 1813 H 171.654 3.59569 -1.46053 0
M  V30 1814 H 169.755 3.58784 1.00522 0
M  V30 1815 H 169.868 4.76856 -0.463187 0
M  V30 1816 H 168.232 2.54259 -0.149753 0
M  V30 1817 H 169.015 2.93951 -1.77335 0
M  V30 1818 N 171.46 0.379036 1.52974 0
M  V30 1819 C 172.69 -0.20649 2.05566 0
M  V30 1820 C 173.098 -1.41906 1.25137 0
M  V30 1821 O 172.441 -1.81421 0.288464 0
M  V30 1822 C 172.503 -0.651086 3.53555 0
M  V30 1823 C 172.167 0.446626 4.54812 0
M  V30 1824 C 173.164 1.30079 5.03364 0
M  V30 1825 C 170.849 0.610719 4.98573 0
M  V30 1826 C 172.843 2.30426 5.94292 0
M  V30 1827 C 170.53 1.61754 5.89304 0
M  V30 1828 C 171.528 2.46274 6.37054 0
M  V30 1829 O 171.216 3.45237 7.25994 0
M  V30 1830 H 170.948 -0.0372381 0.674974 0
M  V30 1831 H 173.502 0.539718 1.98182 0
M  V30 1832 H 171.732 -1.44911 3.58522 0
M  V30 1833 H 173.421 -1.16112 3.88938 0
M  V30 1834 H 174.187 1.18527 4.70294 0
M  V30 1835 H 170.066 -0.0374044 4.60985 0
M  V30 1836 H 173.61 2.96432 6.31485 0
M  V30 1837 H 169.507 1.73348 6.21788 0
M  V30 1838 H 170.275 3.41124 7.44027 0
M  V30 1839 N 172.938 -1.57226 0.108567 0
M  V30 1840 C 174.187 -1.94008 -0.551703 0
M  V30 1841 C 174.5 -0.993442 -1.68494 0
M  V30 1842 O 175.706 -1.25551 -2.40726 0
M  V30 1843 C 174.162 -3.44763 -1.03279 0
M  V30 1844 C 173.77 -4.47943 0.0714193 0
M  V30 1845 C 175.514 -3.90483 -1.66503 0
M  V30 1846 C 173.421 -5.89865 -0.425779 0
M  V30 1847 H 172.351 -0.724206 -0.209863 0
M  V30 1848 H 175.002 -1.82547 0.186741 0
M  V30 1849 H 173.384 -3.51422 -1.82533 0
M  V30 1850 H 174.558 -4.52942 0.847365 0
M  V30 1851 H 172.873 -4.11913 0.609669 0
M  V30 1852 H 175.47 -4.93925 -2.04798 0
M  V30 1853 H 175.813 -3.29877 -2.53942 0
M  V30 1854 H 176.346 -3.86581 -0.938074 0
M  V30 1855 H 173.085 -6.54202 0.412316 0
M  V30 1856 H 172.605 -5.88309 -1.16843 0
M  V30 1857 H 174.284 -6.40844 -0.890397 0
M  V30 1858 N 174.416 0.165178 -1.56732 0
M  V30 1859 C 175.646 0.894919 -1.86212 0
M  V30 1860 C 176.054 1.76066 -0.692627 0
M  V30 1861 O 175.397 1.80387 0.347303 0
M  V30 1862 C 175.459 1.8174 -3.10179 0
M  V30 1863 C 175.123 1.13064 -4.42793 0
M  V30 1864 C 176.12 0.493169 -5.17556 0
M  V30 1865 C 173.805 1.12556 -4.89527 0
M  V30 1866 C 175.799 -0.140209 -6.37246 0
M  V30 1867 C 173.486 0.488366 -6.09145 0
M  V30 1868 C 174.484 -0.143411 -6.82849 0
M  V30 1869 O 174.172 -0.77055 -8.00199 0
M  V30 1870 H 173.904 0.265114 -0.621844 0
M  V30 1871 H 176.458 0.168242 -2.0471 0
M  V30 1872 H 174.688 2.58455 -2.87642 0
M  V30 1873 H 176.377 2.4175 -3.26055 0
M  V30 1874 H 177.143 0.489023 -4.82528 0
M  V30 1875 H 173.022 1.60672 -4.32094 0
M  V30 1876 H 176.566 -0.633932 -6.94714 0
M  V30 1877 H 172.463 0.490116 -6.43637 0
M  V30 1878 H 173.231 -0.670408 -8.1575 0
M  V30 1879 N 175.894 1.51508 0.433938 0
M  V30 1880 C 177.143 1.63578 1.18005 0
M  V30 1881 C 177.456 0.359514 1.92268 0
M  V30 1882 O 178.662 0.359632 2.69108 0
M  V30 1883 C 177.118 2.88901 2.14626 0
M  V30 1884 C 176.726 4.23544 1.45995 0
M  V30 1885 C 178.47 3.10328 2.89649 0
M  V30 1886 C 176.377 5.40014 2.4112 0
M  V30 1887 H 175.307 0.609277 0.444182 0
M  V30 1888 H 177.958 1.77978 0.446773 0
M  V30 1889 H 176.34 2.68142 2.91403 0
M  V30 1890 H 177.514 4.54696 0.747532 0
M  V30 1891 H 175.829 4.08021 0.831115 0
M  V30 1892 H 178.426 3.94518 3.60915 0
M  V30 1893 H 178.769 2.23544 3.51189 0
M  V30 1894 H 179.302 3.31443 2.19978 0
M  V30 1895 H 176.041 6.29068 1.84264 0
M  V30 1896 H 175.561 5.13233 3.10406 0
M  V30 1897 H 177.24 5.72099 3.02177 0
M  V30 1898 N 177.372 -0.689602 1.41712 0
M  V30 1899 C 178.597 -1.48329 1.44959 0
M  V30 1900 C 179.022 -1.8801 0.0581283 0
M  V30 1901 O 178.38 -1.55026 -0.940035 0
M  V30 1902 C 178.428 -2.71835 2.36935 0
M  V30 1903 O 177.532 -3.69549 1.8305 0
M  V30 1904 H 176.873 -0.446199 0.491734 0
M  V30 1905 H 179.403 -0.847127 1.86239 0
M  V30 1906 H 179.413 -3.20076 2.53013 0
M  V30 1907 H 178.088 -2.42291 3.38035 0
M  V30 1908 H 176.665 -3.2851 1.76452 0
M  V30 1909 N 178.85 -1.27639 -0.924453 0
M  V30 1910 C 180.098 -1.13941 -1.66918 0
M  V30 1911 C 180.419 0.314589 -1.92446 0
M  V30 1912 O 179.689 1.21964 -1.53303 0
M  V30 1913 H 178.269 -0.418678 -0.618642 0
M  V30 1914 H 180.931 -1.60213 -1.10985 0
M  V30 1915 H 180.027 -1.67094 -2.63602 0
M  V30 1916 N 180.328 1.1314 -1.09713 0
M  V30 1917 C 181.556 1.88321 -0.856898 0
M  V30 1918 C 181.971 1.79276 0.592073 0
M  V30 1919 O 181.328 1.16142 1.40774 0
M  V30 1920 C 181.379 3.37812 -1.28706 0
M  V30 1921 O 181.1 3.46627 -2.67921 0
M  V30 1922 C 182.601 4.29952 -1.07964 0
M  V30 1923 H 179.821 0.596094 -0.308079 0
M  V30 1924 H 182.365 1.43205 -1.45988 0
M  V30 1925 H 180.52 3.805 -0.727912 0
M  V30 1926 H 180.934 4.39579 -2.8613 0
M  V30 1927 H 182.408 5.33159 -1.42986 0
M  V30 1928 H 182.885 4.39196 -0.0176577 0
M  V30 1929 H 183.491 3.93036 -1.62489 0
M  V30 1930 N 181.806 0.884767 1.30421 0
M  V30 1931 C 183.053 0.503105 1.96151 0
M  V30 1932 C 183.381 -0.947676 1.69851 0
M  V30 1933 O 182.636 -1.68467 0.995861 0
M  V30 1934 C 182.935 0.724318 3.49983 0
M  V30 1935 C 182.601 2.15015 3.96332 0
M  V30 1936 C 181.263 2.54005 4.08699 0
M  V30 1937 C 183.615 3.07936 4.20505 0
M  V30 1938 C 180.943 3.85128 4.42599 0
M  V30 1939 C 183.295 4.3859 4.55874 0
M  V30 1940 C 181.959 4.77474 4.66449 0
M  V30 1941 H 181.229 0.184099 0.717766 0
M  V30 1942 H 183.876 1.12058 1.55291 0
M  V30 1943 H 182.181 0.0238086 3.91793 0
M  V30 1944 H 183.878 0.408617 3.98913 0
M  V30 1945 H 180.468 1.8375 3.87213 0
M  V30 1946 H 184.652 2.79033 4.10431 0
M  V30 1947 H 179.908 4.14996 4.48986 0
M  V30 1948 H 184.082 5.10629 4.7353 0
M  V30 1949 H 181.709 5.79115 4.92473 0
M  V30 1950 N 183.284 -1.43765 0.645699 0
M  V30 1951 C 184.231 -2.30745 -0.0504648 0
M  V30 1952 C 185.201 -1.4432 -0.822241 0
M  V30 1953 O 186.386 -1.73202 -0.800358 0
M  V30 1954 C 183.526 -3.29802 -1.0161 0
M  V30 1955 C 182.639 -4.31326 -0.241219 0
M  V30 1956 C 181.774 -5.17469 -1.19998 0
M  V30 1957 C 180.813 -6.10691 -0.415094 0
M  V30 1958 N 179.95 -6.89483 -1.32506 0
M  V30 1959 H 184.79 -2.8973 0.697155 0
M  V30 1960 H 182.327 -1.42738 0.355563 0
M  V30 1961 H 184.285 -3.85734 -1.58949 0
M  V30 1962 H 182.915 -2.72483 -1.73069 0
M  V30 1963 H 181.967 -3.77749 0.448334 0
M  V30 1964 H 183.279 -4.9743 0.369437 0
M  V30 1965 H 182.433 -5.7799 -1.84424 0
M  V30 1966 H 181.172 -4.51473 -1.84455 0
M  V30 1967 H 180.177 -5.49265 0.242565 0
M  V30 1968 H 181.402 -6.78727 0.224966 0
M  V30 1969 H 179.348 -6.26142 -1.95657 0
M  V30 1970 H 179.265 -7.52081 -0.768783 0
M  V30 1971 H 180.533 -7.54516 -1.9577 0
M  V30 1972 N 184.763 -0.387143 -1.52771 0
M  V30 1973 C 185.711 0.463953 -2.27926 0
M  V30 1974 C 186.705 1.06493 -1.31741 0
M  V30 1975 O 187.911 1.00565 -1.49287 0
M  V30 1976 H 184.286 0.16837 -0.732909 0
M  V30 1977 H 186.257 -0.19141 -2.97785 0
M  V30 1978 C 185.006 1.5803 -3.09713 0
M  V30 1979 H 184.329 1.12718 -3.83581 0
M  V30 1980 H 185.769 2.15008 -3.65442 0
M  V30 1981 C 184.228 2.53509 -2.2189 0
M  V30 1982 O 184.758 3.56863 -1.84422 0
M  V30 1983 N 182.964 2.23199 -1.86093 0
M  V30 1984 H 182.511 1.39185 -2.16761 0
M  V30 1985 H 182.469 2.87333 -1.27621 0
M  V30 1986 N 186.241 1.57166 -0.116904 0
M  V30 1987 C 187.652 1.82169 0.408809 0
M  V30 1988 C 188.003 1.03393 1.66746 0
M  V30 1989 O 187.128 0.269886 2.1471 0
M  V30 1990 C 187.723 3.30429 0.748466 0
M  V30 1991 C 186.282 3.5612 1.21882 0
M  V30 1992 C 185.429 2.76374 0.226452 0
M  V30 1993 H 188.38 1.5497 -0.342063 0
M  V30 1994 H 188.401 3.44943 1.60607 0
M  V30 1995 H 187.913 3.87737 -0.167784 0
M  V30 1996 H 186.014 3.04168 2.15204 0
M  V30 1997 H 186.127 4.64705 1.16559 0
M  V30 1998 H 184.491 2.44515 0.713063 0
M  V30 1999 H 185.274 3.3644 -0.682859 0
M  V30 2000 N 187.719 -0.156864 1.56817 0
M  V30 2001 C 188.666 -1.19394 1.97519 0
M  V30 2002 C 189.636 -1.4322 0.841265 0
M  V30 2003 O 190.821 -1.55719 1.10255 0
M  V30 2004 C 187.961 -2.52483 2.35258 0
M  V30 2005 C 187.074 -2.35914 3.61896 0
M  V30 2006 C 186.209 -3.61969 3.88782 0
M  V30 2007 C 185.248 -3.40395 5.08722 0
M  V30 2008 N 184.385 -4.58556 5.31668 0
M  V30 2009 H 189.225 -0.839845 2.85921 0
M  V30 2010 H 186.762 -0.403264 1.41464 0
M  V30 2011 H 188.72 -3.30071 2.55165 0
M  V30 2012 H 187.35 -2.85859 1.49949 0
M  V30 2013 H 186.402 -1.49429 3.49821 0
M  V30 2014 H 187.714 -2.15926 4.49641 0
M  V30 2015 H 186.868 -4.47989 4.09135 0
M  V30 2016 H 185.607 -3.84951 2.9944 0
M  V30 2017 H 184.612 -2.52763 4.88253 0
M  V30 2018 H 185.837 -3.18822 5.99608 0
M  V30 2019 H 183.783 -4.81729 4.45279 0
M  V30 2020 H 183.7 -4.41535 6.13664 0
M  V30 2021 H 184.968 -5.45817 5.5651 0
M  V30 2022 N 189.197 -1.51736 -0.425897 0
M  V30 2023 C 190.422 -1.69082 -1.20108 0
M  V30 2024 C 190.847 -0.392398 -1.83962 0
M  V30 2025 O 190.205 0.64858 -1.69302 0
M  V30 2026 C 190.253 -2.81604 -2.25237 0
M  V30 2027 O 189.357 -2.46004 -3.30992 0
M  V30 2028 H 188.698 -0.563408 -0.35138 0
M  V30 2029 H 191.228 -1.98358 -0.501512 0
M  V30 2030 H 191.238 -3.06025 -2.69838 0
M  V30 2031 H 189.913 -3.75817 -1.78142 0
M  V30 2032 H 188.49 -2.32195 -2.91787 0
M  V30 2033 N 190.675 0.682077 -1.42076 0
M  V30 2034 C 191.903 1.47057 -1.4554 0
M  V30 2035 C 192.318 1.8869 -0.0645779 0
M  V30 2036 O 191.675 1.57666 0.919115 0
M  V30 2037 C 191.726 2.72442 -2.37609 0
M  V30 2038 O 191.447 2.32559 -3.71279 0
M  V30 2039 C 192.948 3.66069 -2.50017 0
M  V30 2040 H 190.168 0.452737 -0.495248 0
M  V30 2041 H 192.712 0.838695 -1.8651 0
M  V30 2042 H 190.867 3.31835 -1.9991 0
M  V30 2043 H 191.281 3.13475 -4.20516 0
M  V30 2044 H 192.755 4.50792 -3.18576 0
M  V30 2045 H 193.232 4.11476 -1.53572 0
M  V30 2046 H 193.838 3.12572 -2.88407 0
M  V30 2047 N 192.153 1.28127 0.917671 0
M  V30 2048 C 193.43 1.05761 1.64542 0
M  V30 2049 C 193.81 -0.404344 2.07191 0
M  V30 2050 O 193.158 -1.38963 1.81388 0
M  V30 2051 C 193.368 2.02857 2.83989 0
M  V30 2052 C 194.716 2.32786 3.551 0
M  V30 2053 O 195.74 2.0091 2.94132 0
M  V30 2054 O 194.599 2.87169 4.64969 0
M  V30 2055 H 191.693 0.403916 0.721652 0
M  V30 2056 H 194.239 1.39431 0.967322 0
M  V30 2057 H 193.011 3.01407 2.49538 0
M  V30 2058 H 192.634 1.69809 3.59514 0
M  V30 2059 N 193.631 -1.12557 1.10312 0
M  V30 2060 C 194.578 -2.18247 0.750781 0
M  V30 2061 C 195.548 -1.63853 -0.272293 0
M  V30 2062 O 196.733 -1.90195 -0.151862 0
M  V30 2063 C 193.873 -3.44591 0.187379 0
M  V30 2064 C 192.986 -4.13046 1.2656 0
M  V30 2065 C 192.121 -5.27034 0.663978 0
M  V30 2066 C 191.16 -5.87353 1.72287 0
M  V30 2067 N 190.297 -6.92757 1.1416 0
M  V30 2068 H 195.137 -2.47732 1.65628 0
M  V30 2069 H 192.674 -1.21629 0.827337 0
M  V30 2070 H 194.632 -4.16904 -0.157148 0
M  V30 2071 H 193.262 -3.15527 -0.681355 0
M  V30 2072 H 192.314 -3.38924 1.72727 0
M  V30 2073 H 193.626 -4.53947 2.06721 0
M  V30 2074 H 192.78 -6.06104 0.268824 0
M  V30 2075 H 191.519 -4.87407 -0.169082 0
M  V30 2076 H 190.524 -5.06971 2.12746 0
M  V30 2077 H 191.749 -6.29051 2.55875 0
M  V30 2078 H 189.695 -6.5517 0.329984 0
M  V30 2079 H 189.612 -7.3225 1.88007 0
M  V30 2080 H 190.88 -7.75658 0.772956 0
M  V30 2081 N 195.109 -0.891671 -1.2995 0
M  V30 2082 C 196.019 -0.367691 -2.31701 0
M  V30 2083 C 197.035 0.533486 -1.6562 0
M  V30 2084 O 198.211 0.424997 -1.96865 0
M  V30 2085 C 195.276 0.403406 -3.44345 0
M  V30 2086 C 194.337 -0.528328 -4.26037 0
M  V30 2087 C 193.57 0.206063 -5.33302 0
M  V30 2088 O 193.793 1.43119 -5.52153 0
M  V30 2089 O 192.727 -0.447281 -6.00236 0
M  V30 2090 H 196.553 -1.21163 -2.78484 0
M  V30 2091 H 194.138 -0.655725 -1.34241 0
M  V30 2092 H 196.02 0.839753 -4.12948 0
M  V30 2093 H 194.695 1.22354 -2.99685 0
M  V30 2094 H 193.602 -1.01362 -3.60106 0
M  V30 2095 H 194.935 -1.31465 -4.74318 0
M  V30 2096 N 196.587 1.43421 -0.653314 0
M  V30 2097 C 197.517 2.33487 0.0246656 0
M  V30 2098 C 198.498 1.49475 0.811863 0
M  V30 2099 O 199.683 1.78139 0.773322 0
M  V30 2100 C 196.813 3.32841 0.99166 0
M  V30 2101 C 195.767 4.26842 0.314568 0
M  V30 2102 C 195.093 5.16236 1.39302 0
M  V30 2103 C 196.393 5.16243 -0.793095 0
M  V30 2104 H 198.087 2.90427 -0.727481 0
M  V30 2105 H 195.633 1.39649 -0.351287 0
M  V30 2106 H 197.586 3.94747 1.47487 0
M  V30 2107 H 196.31 2.74158 1.77497 0
M  V30 2108 H 194.969 3.663 -0.148199 0
M  V30 2109 H 194.617 4.53891 2.16776 0
M  V30 2110 H 194.317 5.79948 0.945223 0
M  V30 2111 H 195.841 5.81015 1.87759 0
M  V30 2112 H 197.255 5.71958 -0.392039 0
M  V30 2113 H 195.652 5.88676 -1.16536 0
M  V30 2114 H 196.722 4.55927 -1.65103 0
M  V30 2115 N 198.065 0.39524 1.52563 0
M  V30 2116 C 199.476 -0.0774719 1.86539 0
M  V30 2117 C 199.827 -1.45641 1.31466 0
M  V30 2118 O 198.952 -2.06459 0.648367 0
M  V30 2119 C 199.547 -0.147356 3.38479 0
M  V30 2120 C 198.106 -0.564373 3.72145 0
M  V30 2121 C 197.253 0.269919 2.75983 0
M  V30 2122 H 200.204 0.612876 1.46388 0
M  V30 2123 H 200.225 -0.965343 3.68051 0
M  V30 2124 H 199.737 0.856387 3.78534 0
M  V30 2125 H 197.838 -1.57527 3.37663 0
M  V30 2126 H 197.951 -0.318402 4.78041 0
M  V30 2127 H 196.315 -0.265696 2.5331 0
M  V30 2128 H 197.098 1.27175 3.18875 0
M  V30 2129 N 199.544 -1.57102 0.125237 0
M  V30 2130 C 200.492 -2.16905 -0.839927 0
M  V30 2131 C 201.486 -1.11998 -1.27094 0
M  V30 2132 O 202.692 -1.3029 -1.24195 0
M  V30 2133 H 199.067 -0.694252 -0.288995 0
M  V30 2134 H 201.038 -2.96774 -0.311115 0
M  V30 2135 C 199.787 -2.78795 -2.07771 0
M  V30 2136 H 199.11 -3.59221 -1.755 0
M  V30 2137 H 200.55 -3.2417 -2.73295 0
M  V30 2138 C 199.009 -1.76193 -2.87155 0
M  V30 2139 O 199.539 -1.21909 -3.82755 0
M  V30 2140 N 197.745 -1.45991 -2.51267 0
M  V30 2141 H 197.292 -1.90325 -1.73592 0
M  V30 2142 H 197.25 -0.775844 -3.04677 0
M  V30 2143 N 201.022 0.148545 -1.56898 0
M  V30 2144 C 201.954 1.20852 -1.9475 0
M  V30 2145 C 202.967 1.39265 -0.843152 0
M  V30 2146 O 204.156 1.38864 -1.12156 0
M  V30 2147 C 201.256 2.57362 -2.20495 0
M  V30 2148 C 200.429 2.59947 -3.51776 0
M  V30 2149 C 199.488 3.77984 -3.6608 0
M  V30 2150 O 198.514 3.62929 -4.38487 0
M  V30 2151 N 199.716 4.95375 -3.02629 0
M  V30 2152 H 202.481 0.886804 -2.86279 0
M  V30 2153 H 200.042 0.338121 -1.5833 0
M  V30 2154 H 202.034 3.34833 -2.27307 0
M  V30 2155 H 200.604 2.81832 -1.35238 0
M  V30 2156 H 199.824 1.68403 -3.56419 0
M  V30 2157 H 201.112 2.58704 -4.38121 0
M  V30 2158 H 200.51 5.10509 -2.43715 0
M  V30 2159 H 199.067 5.70627 -3.15004 0
M  V30 2160 N 202.5 1.5196 0.417844 0
M  V30 2161 C 203.728 1.69426 1.18753 0
M  V30 2162 C 204.143 0.399955 1.84515 0
M  V30 2163 O 203.5 -0.623288 1.71527 0
M  V30 2164 C 203.551 2.82375 2.25714 0
M  V30 2165 O 203.272 4.06793 1.62638 0
M  V30 2166 C 204.773 3.11277 3.15628 0
M  V30 2167 H 201.993 0.568031 0.357186 0
M  V30 2168 H 204.537 1.98475 0.49273 0
M  V30 2169 H 202.692 2.5587 2.90877 0
M  V30 2170 H 203.106 4.69667 2.3348 0
M  V30 2171 H 204.58 3.93843 3.86771 0
M  V30 2172 H 205.057 2.24473 3.77503 0
M  V30 2173 H 205.663 3.39515 2.56144 0
M  V30 2174 N 203.978 -0.674533 1.42435 0
M  V30 2175 C 205.227 -1.43034 1.42212 0
M  V30 2176 C 205.54 -1.95555 0.0420788 0
M  V30 2177 O 206.746 -2.71374 -0.0827558 0
M  V30 2178 C 205.202 -2.58748 2.50155 0
M  V30 2179 C 204.81 -2.12925 3.94166 0
M  V30 2180 C 206.554 -3.36257 2.59098 0
M  V30 2181 C 204.461 -3.25723 4.93618 0
M  V30 2182 H 203.391 -0.537345 0.528939 0
M  V30 2183 H 206.042 -0.73024 1.68344 0
M  V30 2184 H 204.424 -3.31128 2.17188 0
M  V30 2185 H 205.598 -1.47697 4.36488 0
M  V30 2186 H 203.913 -1.48354 3.89076 0
M  V30 2187 H 206.51 -4.20264 3.30578 0
M  V30 2188 H 206.853 -3.82866 1.63461 0
M  V30 2189 H 207.386 -2.70947 2.9126 0
M  V30 2190 H 204.125 -2.84105 5.90732 0
M  V30 2191 H 203.645 -3.89732 4.55926 0
M  V30 2192 H 205.324 -3.91186 5.15347 0
M  V30 2193 N 205.456 -1.28612 -0.910864 0
M  V30 2194 C 206.705 -1.15311 -1.65488 0
M  V30 2195 C 207.018 0.296999 -1.93332 0
M  V30 2196 O 208.224 0.551168 -2.65847 0
M  V30 2197 C 206.68 -2.01599 -2.98137 0
M  V30 2198 C 206.288 -3.51367 -2.7793 0
M  V30 2199 C 208.032 -1.96993 -3.76024 0
M  V30 2200 C 205.939 -4.29797 -4.06237 0
M  V30 2201 H 204.869 -0.42796 -0.620779 0
M  V30 2202 H 207.52 -1.53166 -1.01057 0
M  V30 2203 H 205.902 -1.56603 -3.63719 0
M  V30 2204 H 207.076 -4.0434 -2.21011 0
M  V30 2205 H 205.391 -3.57529 -2.13452 0
M  V30 2206 H 207.988 -2.52856 -4.71135 0
M  V30 2207 H 208.331 -0.94733 -4.05378 0
M  V30 2208 H 208.864 -2.39973 -3.17266 0
M  V30 2209 H 205.603 -5.32648 -3.82055 0
M  V30 2210 H 205.123 -3.81596 -4.62757 0
M  V30 2211 H 206.802 -4.39869 -4.74473 0
M  V30 2212 N 206.934 1.1197 -1.10907 0
M  V30 2213 C 208.35 1.35591 -0.841852 0
M  V30 2214 C 208.55 1.94233 0.536246 0
M  V30 2215 O 207.606 2.1717 1.28816 0
M  V30 2216 C 208.919 2.29284 -1.94549 0
M  V30 2217 C 210.467 2.42862 -1.97451 0
M  V30 2218 C 210.942 3.39873 -3.07002 0
M  V30 2219 N 212.433 3.47433 -3.06341 0
M  V30 2220 C 213.168 4.22421 -3.87748 0
M  V30 2221 N 212.664 5.00432 -4.79103 0
M  V30 2222 N 214.457 4.17876 -3.75946 0
M  V30 2223 H 206.608 0.722664 -1.99728 0
M  V30 2224 H 208.871 0.380635 -0.868229 0
M  V30 2225 H 208.577 1.93378 -2.93765 0
M  V30 2226 H 208.451 3.29452 -1.83688 0
M  V30 2227 H 210.838 2.78046 -0.988645 0
M  V30 2228 H 210.919 1.42566 -2.12388 0
M  V30 2229 H 210.563 3.05417 -4.05811 0
M  V30 2230 H 210.493 4.40011 -2.89306 0
M  V30 2231 H 212.984 2.91784 -2.40147 0
M  V30 2232 H 213.297 5.55002 -5.37766 0
M  V30 2233 H 211.642 4.99612 -4.83128 0
M  V30 2234 H 214.833 3.56016 -3.03924 0
M  V30 2235 H 215.006 4.76061 -4.39624 0
M  V30 2236 N 208.412 0.89855 1.29475 0
M  V30 2237 C 209.828 0.594483 1.48115 0
M  V30 2238 C 210.028 -0.86431 1.82022 0
M  V30 2239 O 209.084 -1.64457 1.91599 0
M  V30 2240 C 210.397 1.51932 2.59494 0
M  V30 2241 C 211.945 1.5244 2.7337 0
M  V30 2242 C 212.42 2.43548 3.87877 0
M  V30 2243 N 213.911 2.41589 3.95208 0
M  V30 2244 C 214.646 3.08789 4.83153 0
M  V30 2245 N 214.142 3.85265 5.75798 0
M  V30 2246 N 215.935 2.97952 4.76635 0
M  V30 2247 H 208.086 1.84207 1.05742 0
M  V30 2248 H 210.349 0.789251 0.525154 0
M  V30 2249 H 210.055 2.55865 2.41301 0
M  V30 2250 H 209.929 1.23899 3.56271 0
M  V30 2251 H 212.316 0.492518 2.90961 0
M  V30 2252 H 212.397 1.8451 1.77172 0
M  V30 2253 H 212.041 3.46829 3.71041 0
M  V30 2254 H 211.971 2.08788 4.83441 0
M  V30 2255 H 214.462 1.86025 3.28943 0
M  V30 2256 H 214.775 4.33598 6.39697 0
M  V30 2257 H 213.12 3.89371 5.75687 0
M  V30 2258 H 216.311 2.37723 4.03244 0
M  V30 2259 H 216.484 3.50599 5.44962 0
M  V30 2260 N 209.89 -1.43072 0.660911 0
M  V30 2261 C 211.12 -2.05769 0.185153 0
M  V30 2262 C 211.528 -1.49668 -1.15742 0
M  V30 2263 O 210.871 -0.625649 -1.72717 0
M  V30 2264 C 210.933 -3.59489 0.0278237 0
M  V30 2265 C 210.597 -4.38212 1.2969 0
M  V30 2266 C 211.594 -4.69772 2.22734 0
M  V30 2267 C 209.279 -4.7809 1.54063 0
M  V30 2268 C 211.273 -5.40129 3.38437 0
M  V30 2269 C 208.96 -5.4819 2.70058 0
M  V30 2270 C 209.958 -5.79132 3.62071 0
M  V30 2271 O 209.646 -6.47798 4.76039 0
M  V30 2272 H 209.378 -0.669873 0.0908086 0
M  V30 2273 H 211.932 -1.84436 0.90402 0
M  V30 2274 H 210.162 -3.79426 -0.746489 0
M  V30 2275 H 211.851 -4.03862 -0.406275 0
M  V30 2276 H 212.617 -4.39476 2.05149 0
M  V30 2277 H 208.496 -4.53408 0.833215 0
M  V30 2278 H 212.04 -5.64198 4.10277 0
M  V30 2279 H 207.937 -5.77902 2.87574 0
M  V30 2280 H 208.705 -6.66283 4.75404 0
M  V30 2281 N 211.368 -0.403325 -1.52352 0
M  V30 2282 C 212.596 0.174012 -2.06167 0
M  V30 2283 C 213.011 1.39347 -1.27388 0
M  V30 2284 O 212.368 1.79597 -0.324201 0
M  V30 2285 C 212.419 0.530223 -3.5759 0
M  V30 2286 O 212.14 -0.640806 -4.33388 0
M  V30 2287 C 213.641 1.16192 -4.27802 0
M  V30 2288 H 210.861 0.0229464 -0.670608 0
M  V30 2289 H 213.405 -0.572604 -1.9632 0
M  V30 2290 H 211.56 1.22673 -3.67464 0
M  V30 2291 H 211.974 -0.344851 -5.23365 0
M  V30 2292 H 213.448 1.36141 -5.34948 0
M  V30 2293 H 213.925 2.13335 -3.83907 0
M  V30 2294 H 214.531 0.505775 -4.22282 0
M  V30 2295 N 212.846 1.57033 -0.133567 0
M  V30 2296 C 214.076 1.99754 0.527429 0
M  V30 2297 C 214.484 1.01245 1.59832 0
M  V30 2298 O 213.827 -0.000645496 1.837 0
M  V30 2299 C 213.889 3.38903 1.19939 0
M  V30 2300 C 213.553 4.56174 0.274709 0
M  V30 2301 C 214.55 5.17563 -0.492398 0
M  V30 2302 C 212.235 5.01972 0.18153 0
M  V30 2303 C 214.229 6.2315 -1.34027 0
M  V30 2304 C 211.916 6.07416 -0.669958 0
M  V30 2305 C 212.914 6.67874 -1.42947 0
M  V30 2306 O 212.602 7.71279 -2.2668 0
M  V30 2307 H 212.334 0.660702 0.142999 0
M  V30 2308 H 214.888 2.04207 -0.221099 0
M  V30 2309 H 213.118 3.31248 1.99528 0
M  V30 2310 H 214.807 3.65818 1.75875 0
M  V30 2311 H 215.573 4.83087 -0.430367 0
M  V30 2312 H 211.452 4.54652 0.762422 0
M  V30 2313 H 214.996 6.70268 -1.93357 0
M  V30 2314 H 210.893 6.41321 -0.73333 0
M  V30 2315 H 211.661 7.88441 -2.1978 0
M  V30 2316 N 214.325 -0.140222 1.56975 0
M  V30 2317 C 215.273 -1.19207 1.99731 0
M  V30 2318 C 216.267 -1.44089 0.890777 0
M  V30 2319 O 217.473 -1.44301 1.07597 0
M  V30 2320 H 213.848 -0.40142 0.635898 0
M  V30 2321 H 215.819 -0.804813 2.87342 0
M  V30 2322 C 214.568 -2.51617 2.39967 0
M  V30 2323 H 213.891 -2.33303 3.24669 0
M  V30 2324 H 215.331 -3.23827 2.73701 0
M  V30 2325 C 213.79 -3.12654 1.25496 0
M  V30 2326 O 214.32 -3.97786 0.559371 0
M  V30 2327 N 212.526 -2.72206 1.01746 0
M  V30 2328 H 212.073 -2.03074 1.58489 0
M  V30 2329 H 212.031 -3.13377 0.253461 0
M  V30 2330 N 215.803 -1.52179 -0.40978 0
M  V30 2331 C 216.75 -1.75475 -1.49924 0
M  V30 2332 C 217.72 -0.597175 -1.54994 0
M  V30 2333 O 218.905 -0.834655 -1.71575 0
M  V30 2334 C 216.045 -1.9107 -2.87378 0
M  V30 2335 C 215.158 -3.18717 -2.91622 0
M  V30 2336 C 214.293 -3.24747 -4.20372 0
M  V30 2337 C 213.332 -4.46598 -4.18588 0
M  V30 2338 N 212.469 -4.50025 -5.38908 0
M  V30 2339 H 217.309 -2.68458 -1.29361 0
M  V30 2340 H 214.846 -1.33024 -0.627934 0
M  V30 2341 H 216.804 -1.98096 -3.6717 0
M  V30 2342 H 215.434 -1.01469 -3.06437 0
M  V30 2343 H 214.486 -3.20866 -2.04326 0
M  V30 2344 H 215.798 -4.08544 -2.86169 0
M  V30 2345 H 214.952 -3.30841 -5.08556 0
M  V30 2346 H 213.691 -2.32857 -4.28519 0
M  V30 2347 H 212.696 -4.40652 -3.28794 0
M  V30 2348 H 213.921 -5.39783 -4.12081 0
M  V30 2349 H 211.867 -3.61017 -5.47725 0
M  V30 2350 H 211.784 -5.33697 -5.35447 0
M  V30 2351 H 213.052 -4.60347 -6.29048 0
M  V30 2352 N 217.281 0.66697 -1.42791 0
M  V30 2353 C 218.506 1.46004 -1.47301 0
M  V30 2354 C 218.931 1.87894 -0.0880317 0
M  V30 2355 O 218.289 1.56502 0.915253 0
M  V30 2356 C 218.337 2.68031 -2.41229 0
M  V30 2357 O 217.441 3.6659 -1.88906 0
M  V30 2358 H 216.782 0.43832 -0.49877 0
M  V30 2359 H 219.312 0.817391 -1.87563 0
M  V30 2360 H 219.322 3.1601 -2.58073 0
M  V30 2361 H 217.997 2.36883 -3.41847 0
M  V30 2362 H 216.574 3.25661 -1.81656 0
M  V30 2363 N 218.759 1.29093 0.90403 0
M  V30 2364 C 219.987 1.19689 1.68766 0
M  V30 2365 C 220.402 -0.243113 1.87228 0
M  V30 2366 O 219.759 -1.16326 1.40621 0
M  V30 2367 C 219.81 1.90144 3.07453 0
M  V30 2368 O 219.531 3.2852 2.89838 0
M  V30 2369 C 221.032 1.87162 4.01852 0
M  V30 2370 H 218.252 0.415035 0.527244 0
M  V30 2371 H 220.796 1.7039 1.13082 0
M  V30 2372 H 218.951 1.43289 3.59926 0
M  V30 2373 H 219.365 3.63944 3.77684 0
M  V30 2374 H 220.839 2.41032 4.96596 0
M  V30 2375 H 221.316 0.84617 4.30972 0
M  V30 2376 H 221.922 2.33741 3.5531 0
M  V30 2377 N 220.237 -1.11381 1.11499 0
M  V30 2378 C 221.514 -1.7955 0.775965 0
M  V30 2379 C 221.894 -1.97859 -0.73588 0
M  V30 2380 O 221.242 -1.56376 -1.66609 0
M  V30 2381 C 221.452 -3.13196 1.53977 0
M  V30 2382 C 222.8 -3.88227 1.71944 0
M  V30 2383 O 223.824 -3.22887 1.50407 0
M  V30 2384 O 222.683 -5.05477 2.07738 0
M  V30 2385 H 219.777 -0.777728 0.28119 0
M  V30 2386 H 222.323 -1.18118 1.21845 0
M  V30 2387 H 221.095 -2.95229 2.56818 0
M  V30 2388 H 220.718 -3.82342 1.09088 0
M  V30 2389 N 221.715 -0.905404 -1.28997 0
M  V30 2390 C 222.943 -0.549846 -1.9946 0
M  V30 2391 C 223.358 0.866834 -1.67724 0
M  V30 2392 O 222.715 1.57298 -0.925404 0
M  V30 2393 C 222.766 -0.739387 -3.53858 0
M  V30 2394 O 222.487 -2.10031 -3.84472 0
M  V30 2395 C 223.988 -0.389541 -4.41585 0
M  V30 2396 H 221.208 -0.210429 -0.637151 0
M  V30 2397 H 223.752 -1.21632 -1.64396 0
M  V30 2398 H 221.907 -0.120023 -3.87214 0
M  V30 2399 H 222.321 -2.13385 -4.79132 0
M  V30 2400 H 223.795 -0.572972 -5.49018 0
M  V30 2401 H 224.272 0.673756 -4.34001 0
M  V30 2402 H 224.878 -0.986089 -4.1371 0
M  V30 2403 N 223.193 1.4272 -0.668489 0
M  V30 2404 C 224.123 2.335 -0.000100175 0
M  V30 2405 C 225.104 1.50328 0.795964 0
M  V30 2406 O 226.289 1.78949 0.754385 0
M  V30 2407 C 223.419 3.33874 0.956302 0
M  V30 2408 C 222.373 4.27152 0.269278 0
M  V30 2409 C 221.699 5.17684 1.33818 0
M  V30 2410 C 222.999 5.15373 -0.847805 0
M  V30 2411 H 224.693 2.89639 -0.758244 0
M  V30 2412 H 222.239 1.39269 -0.366079 0
M  V30 2413 H 224.192 3.9629 1.43292 0
M  V30 2414 H 222.916 2.76025 1.74579 0
M  V30 2415 H 221.575 3.66123 -0.187042 0
M  V30 2416 H 221.223 4.56165 2.1195 0
M  V30 2417 H 220.923 5.80918 0.883659 0
M  V30 2418 H 222.447 5.82974 1.81586 0
M  V30 2419 H 223.861 5.7151 -0.452681 0
M  V30 2420 H 222.258 5.87407 -1.22773 0
M  V30 2421 H 223.328 4.5415 -1.69929 0
M  V30 2422 N 224.671 0.411399 1.52136 0
M  V30 2423 C 225.581 -0.419774 2.30814 0
M  V30 2424 C 226.597 -1.0515 1.38634 0
M  V30 2425 O 227.773 -1.05252 1.71709 0
M  V30 2426 C 224.838 -1.52019 3.11594 0
M  V30 2427 C 223.899 -0.91129 4.19516 0
M  V30 2428 C 223.132 -1.95927 4.96436 0
M  V30 2429 O 223.355 -3.17775 4.73683 0
M  V30 2430 O 222.289 -1.56423 5.81219 0
M  V30 2431 H 226.115 0.221805 3.02889 0
M  V30 2432 H 223.7 0.174547 1.48377 0
M  V30 2433 H 225.582 -2.15898 3.61892 0
M  V30 2434 H 224.257 -2.14633 2.42311 0
M  V30 2435 H 223.164 -0.235157 3.7336 0
M  V30 2436 H 224.497 -0.32904 4.91099 0
M  V30 2437 N 226.149 -1.5696 0.141893 0
M  V30 2438 C 227.096 -2.16501 -0.799737 0
M  V30 2439 C 228.066 -1.09643 -1.24771 0
M  V30 2440 O 229.251 -1.3766 -1.32115 0
M  V30 2441 C 226.391 -2.78679 -2.03549 0
M  V30 2442 C 225.504 -3.99914 -1.6338 0
M  V30 2443 C 224.639 -4.50106 -2.82096 0
M  V30 2444 C 223.678 -5.63819 -2.38275 0
M  V30 2445 N 222.815 -6.08651 -3.49983 0
M  V30 2446 H 227.655 -2.96632 -0.285179 0
M  V30 2447 H 225.192 -1.46533 -0.129053 0
M  V30 2448 H 227.15 -3.1287 -2.75986 0
M  V30 2449 H 225.78 -2.012 -2.52425 0
M  V30 2450 H 224.832 -3.71735 -0.807279 0
M  V30 2451 H 226.144 -4.82311 -1.27192 0
M  V30 2452 H 225.298 -4.86325 -3.62729 0
M  V30 2453 H 224.037 -3.66706 -3.21525 0
M  V30 2454 H 223.042 -5.2718 -1.56081 0
M  V30 2455 H 224.267 -6.49 -1.99938 0
M  V30 2456 H 222.213 -5.28188 -3.89042 0
M  V30 2457 H 222.13 -6.85961 -3.17794 0
M  V30 2458 H 223.398 -6.49515 -4.30988 0
M  V30 2459 N 227.627 0.131896 -1.57047 0
M  V30 2460 C 229.038 0.690407 -1.73465 0
M  V30 2461 C 229.389 1.8094 -0.758629 0
M  V30 2462 O 228.514 2.16282 0.0713813 0
M  V30 2463 C 229.109 1.25916 -3.14532 0
M  V30 2464 C 227.668 1.76409 -3.32501 0
M  V30 2465 C 226.815 0.658579 -2.69366 0
M  V30 2466 H 229.766 -0.0939144 -1.58422 0
M  V30 2467 H 229.787 2.12892 -3.15369 0
M  V30 2468 H 229.299 0.444515 -3.85546 0
M  V30 2469 H 227.4 2.60391 -2.66509 0
M  V30 2470 H 227.513 1.88241 -4.4057 0
M  V30 2471 H 225.877 1.08899 -2.30246 0
M  V30 2472 H 226.66 -0.14487 -3.42994 0
M  V30 2473 N 229.106 1.52395 0.401703 0
M  V30 2474 C 230.352 1.67065 1.14966 0
M  V30 2475 C 230.685 0.403052 1.89971 0
M  V30 2476 O 229.96 -0.598774 1.85054 0
M  V30 2477 C 230.243 2.8975 2.13815 0
M  V30 2478 C 230.096 4.26578 1.42658 0
M  V30 2479 C 231.415 3.07965 3.14397 0
M  V30 2480 H 228.534 0.607968 0.416587 0
M  V30 2481 H 231.176 1.84965 0.434511 0
M  V30 2482 H 229.326 2.74619 2.74803 0
M  V30 2483 H 230.998 4.53451 0.847329 0
M  V30 2484 H 229.241 4.27639 0.72849 0
M  V30 2485 H 229.912 5.08483 2.14823 0
M  V30 2486 H 232.388 3.22043 2.63491 0
M  V30 2487 H 231.264 3.95308 3.80819 0
M  V30 2488 H 231.525 2.21611 3.82545 0
M  V30 2489 N 230.584 -0.659388 1.43143 0
M  V30 2490 C 231.861 -1.41627 1.34912 0
M  V30 2491 C 232.241 -2.11099 -0.00607785 0
M  V30 2492 O 231.589 -2.04353 -1.02236 0
M  V30 2493 C 231.799 -2.40604 2.52805 0
M  V30 2494 C 233.147 -3.04789 2.95616 0
M  V30 2495 O 234.171 -2.50932 2.52807 0
M  V30 2496 O 233.03 -4.02421 3.69756 0
M  V30 2497 H 230.124 -0.63246 0.532844 0
M  V30 2498 H 232.67 -0.686814 1.5518 0
M  V30 2499 H 231.442 -1.88174 3.43083 0
M  V30 2500 H 231.065 -3.21009 2.34604 0
M  V30 2501 N 232.062 -1.29571 -0.897171 0
M  V30 2502 C 232.992 -1.17473 -2.01798 0
M  V30 2503 C 233.973 -0.068323 -1.69963 0
M  V30 2504 O 235.158 -0.248239 -1.92607 0
M  V30 2505 C 232.288 -0.853099 -3.36659 0
M  V30 2506 C 231.242 -1.9161 -3.82713 0
M  V30 2507 C 230.568 -1.44773 -5.14728 0
M  V30 2508 C 231.868 -3.32535 -4.02763 0
M  V30 2509 H 233.562 -2.11237 -2.12177 0
M  V30 2510 H 231.108 -1.01699 -1.01948 0
M  V30 2511 H 233.061 -0.755165 -4.14578 0
M  V30 2512 H 231.785 0.120236 -3.26379 0
M  V30 2513 H 230.444 -2.00346 -3.07013 0
M  V30 2514 H 230.092 -0.462995 -5.00865 0
M  V30 2515 H 229.792 -2.15865 -5.46513 0
M  V30 2516 H 231.316 -1.36334 -5.95185 0
M  V30 2517 H 232.73 -3.26626 -4.71156 0
M  V30 2518 H 231.127 -4.01607 -4.45905 0
M  V30 2519 H 232.197 -3.75326 -3.07016 0
M  V30 2520 N 233.54 1.10788 -1.12088 0
M  V30 2521 C 234.47 2.19083 -0.807755 0
M  V30 2522 C 235.451 1.6858 0.226859 0
M  V30 2523 O 236.636 1.93997 0.0888475 0
M  V30 2524 C 233.766 3.46344 -0.257576 0
M  V30 2525 C 232.72 4.101 -1.22483 0
M  V30 2526 C 232.046 5.32016 -0.535052 0
M  V30 2527 C 233.346 4.54236 -2.57811 0
M  V30 2528 H 235.04 2.45534 -1.71328 0
M  V30 2529 H 232.586 1.1801 -0.825205 0
M  V30 2530 H 234.539 4.21392 -0.0262679 0
M  V30 2531 H 233.263 3.19373 0.683278 0
M  V30 2532 H 231.922 3.37054 -1.44189 0
M  V30 2533 H 231.57 5.01319 0.410827 0
M  V30 2534 H 231.27 5.75625 -1.18024 0
M  V30 2535 H 232.794 6.09799 -0.312695 0
M  V30 2536 H 234.208 5.20575 -2.40155 0
M  V30 2537 H 232.605 5.08682 -3.18375 0
M  V30 2538 H 233.675 3.6734 -3.16528 0
M  V30 2539 N 235.018 0.912232 1.28515 0
M  V30 2540 C 235.981 0.404223 2.25607 0
M  V30 2541 C 236.981 -0.468602 1.53821 0
M  V30 2542 O 238.171 -0.271873 1.72065 0
M  V30 2543 C 235.303 -0.420653 3.38295 0
M  V30 2544 H 236.496 1.26188 2.7206 0
M  V30 2545 H 234.049 0.691495 1.40171 0
M  V30 2546 H 234.784 -1.29777 2.97201 0
M  V30 2547 H 234.569 0.204935 3.91564 0
M  V30 2548 H 236.059 -0.766971 4.10496 0
M  V30 2549 N 236.496 -1.42363 0.676048 0
M  V30 2550 C 237.744 -2.01123 0.198437 0
M  V30 2551 C 238.065 -1.53731 -1.19966 0
M  V30 2552 O 237.335 -0.759518 -1.80577 0
M  V30 2553 H 235.915 -0.743678 0.0703721 0
M  V30 2554 H 238.577 -1.74263 0.872837 0
M  V30 2555 H 237.673 -3.11454 0.200686 0
M  V30 2556 N 237.974 -0.419461 -1.51915 0
M  V30 2557 C 238.904 0.391813 -2.30189 0
M  V30 2558 C 239.885 1.03699 -1.34836 0
M  V30 2559 O 241.07 1.04403 -1.63748 0
M  V30 2560 C 238.2 1.50312 -3.13087 0
M  V30 2561 C 237.154 0.9824 -4.16573 0
M  V30 2562 C 236.48 2.18809 -4.8788 0
M  V30 2563 C 237.78 0.0292356 -5.22292 0
M  V30 2564 H 239.474 -0.26135 -2.98257 0
M  V30 2565 H 237.02 -0.127134 -1.43438 0
M  V30 2566 H 238.973 2.07773 -3.66617 0
M  V30 2567 H 237.697 2.18431 -2.42807 0
M  V30 2568 H 236.356 0.430119 -3.64068 0
M  V30 2569 H 236.004 2.85507 -4.14119 0
M  V30 2570 H 235.704 1.84615 -5.57845 0
M  V30 2571 H 237.228 2.76858 -5.44226 0
M  V30 2572 H 238.642 0.512976 -5.71 0
M  V30 2573 H 237.039 -0.2244 -5.9968 0
M  V30 2574 H 238.109 -0.912931 -4.76228 0
M  V30 2575 N 239.452 1.56882 -0.150215 0
M  V30 2576 C 240.863 1.82995 0.370076 0
M  V30 2577 C 241.214 1.06907 1.64515 0
M  V30 2578 O 240.339 0.315369 2.1409 0
M  V30 2579 C 240.934 3.31942 0.678208 0
M  V30 2580 C 239.493 3.58625 1.14301 0
M  V30 2581 C 238.64 2.76792 0.167778 0
M  V30 2582 H 241.591 1.54209 -0.374858 0
M  V30 2583 H 241.612 3.48272 1.53254 0
M  V30 2584 H 241.124 3.87294 -0.249991 0
M  V30 2585 H 239.225 3.08664 2.08704 0
M  V30 2586 H 239.338 4.67073 1.06676 0
M  V30 2587 H 237.702 2.45972 0.661037 0
M  V30 2588 H 238.485 3.34916 -0.754069 0
M  V30 2589 N 240.93 -0.123565 1.57115 0
M  V30 2590 C 242.155 -0.850398 1.89164 0
M  V30 2591 C 242.58 -1.7286 0.741688 0
M  V30 2592 O 241.938 -1.78665 -0.307958 0
M  V30 2593 C 241.986 -1.66353 3.19936 0
M  V30 2594 O 241.09 -2.77004 3.0552 0
M  V30 2595 H 240.431 -0.235454 0.620852 0
M  V30 2596 H 242.961 -0.107335 2.04318 0
M  V30 2597 H 242.971 -2.05372 3.52543 0
M  V30 2598 H 241.646 -1.01881 4.03228 0
M  V30 2599 H 240.223 -2.41221 2.84371 0
M  V30 2600 N 242.408 -1.52605 -0.393616 0
M  V30 2601 C 243.633 -1.71592 -1.16495 0
M  V30 2602 C 244.058 -0.43133 -1.83088 0
M  V30 2603 O 243.416 0.612523 -1.7064 0
M  V30 2604 C 243.464 -2.86318 -2.19213 0
M  V30 2605 O 242.568 -2.52969 -3.257 0
M  V30 2606 H 241.909 -0.570734 -0.33935 0
M  V30 2607 H 244.439 -1.99377 -0.459324 0
M  V30 2608 H 244.449 -3.1168 -2.63286 0
M  V30 2609 H 243.124 -3.79511 -1.7013 0
M  V30 2610 H 241.701 -2.38332 -2.86797 0
M  V30 2611 N 243.887 0.651787 -1.4349 0
M  V30 2612 C 244.834 1.76462 -1.4876 0
M  V30 2613 C 245.804 1.62641 -0.337189 0
M  V30 2614 O 246.989 1.82864 -0.544544 0
M  V30 2615 C 244.129 3.14623 -1.41796 0
M  V30 2616 C 243.242 3.39568 -2.67053 0
M  V30 2617 C 242.377 4.67585 -2.52068 0
M  V30 2618 C 241.416 4.85639 -3.72587 0
M  V30 2619 N 240.553 6.04915 -3.56402 0
M  V30 2620 H 245.393 1.71293 -2.43849 0
M  V30 2621 H 242.93 0.835889 -1.21043 0
M  V30 2622 H 244.888 3.94496 -1.35753 0
M  V30 2623 H 243.518 3.18859 -0.50288 0
M  V30 2624 H 242.57 2.53783 -2.8337 0
M  V30 2625 H 243.882 3.48795 -3.56572 0
M  V30 2626 H 243.036 5.55586 -2.4374 0
M  V30 2627 H 241.775 4.60681 -1.60075 0
M  V30 2628 H 240.78 3.96073 -3.81321 0
M  V30 2629 H 242.005 4.94372 -4.65589 0
M  V30 2630 H 239.951 5.9914 -2.67146 0
M  V30 2631 H 239.868 6.15106 -4.39524 0
M  V30 2632 H 241.136 6.95533 -3.51929 0
M  V30 2633 N 245.365 1.30045 0.890287 0
M  V30 2634 C 246.642 1.09227 1.62262 0
M  V30 2635 C 247.022 -0.360305 2.08002 0
M  V30 2636 O 246.37 -1.35084 1.84295 0
M  V30 2637 C 246.58 2.08835 2.79623 0
M  V30 2638 C 247.928 2.40266 3.50082 0
M  V30 2639 O 248.952 2.07104 2.89804 0
M  V30 2640 O 247.811 2.96967 4.58773 0
M  V30 2641 H 244.905 0.419132 0.712922 0
M  V30 2642 H 247.451 1.41451 0.937529 0
M  V30 2643 H 246.223 3.06633 2.43089 0
M  V30 2644 H 245.846 1.77397 3.55832 0
M  V30 2645 N 246.843 -1.10192 1.12674 0
M  V30 2646 C 247.793 -2.14754 0.765801 0
M  V30 2647 C 248.777 -1.59154 -0.236409 0
M  V30 2648 O 249.969 -1.76951 -0.0415261 0
M  V30 2649 C 247.098 -3.42563 0.224827 0
M  V30 2650 C 246.184 -4.05091 1.25548 0
M  V30 2651 N 246.575 -4.42287 2.4539 0
M  V30 2652 C 244.873 -4.32186 1.10142 0
M  V30 2653 C 245.574 -4.91441 3.11224 0
M  V30 2654 N 244.55 -4.88405 2.38666 0
M  V30 2655 H 248.352 -2.41309 1.67772 0
M  V30 2656 H 245.866 -1.27339 1.00789 0
M  V30 2657 H 247.863 -4.16868 -0.0519578 0
M  V30 2658 H 246.523 -3.17467 -0.681515 0
M  V30 2659 H 247.534 -4.33902 2.82754 0
M  V30 2660 H 244.211 -4.16735 0.252587 0
M  V30 2661 H 245.601 -5.29749 4.13298 0
M  V30 2662 N 248.321 -0.919034 -1.28029 0
M  V30 2663 C 249.253 -0.368762 -2.26214 0
M  V30 2664 C 250.266 0.495716 -1.55069 0
M  V30 2665 O 251.455 0.30974 -1.75792 0
M  V30 2666 C 248.555 0.491049 -3.35324 0
M  V30 2667 C 247.728 -0.352133 -4.3598 0
M  V30 2668 C 246.787 0.443622 -5.24327 0
M  V30 2669 O 245.813 -0.14566 -5.69014 0
M  V30 2670 N 247.015 1.74545 -5.53637 0
M  V30 2671 H 249.78 -1.21273 -2.74068 0
M  V30 2672 H 247.341 -0.785541 -1.41566 0
M  V30 2673 H 249.333 1.03026 -3.91366 0
M  V30 2674 H 247.903 1.23574 -2.87138 0
M  V30 2675 H 247.123 -1.07269 -3.79324 0
M  V30 2676 H 248.411 -0.928883 -5.00249 0
M  V30 2677 H 247.809 2.24666 -5.19174 0
M  V30 2678 H 246.366 2.23138 -6.12416 0
M  V30 2679 N 249.799 1.42003 -0.683588 0
M  V30 2680 C 251.024 2.06265 -0.216647 0
M  V30 2681 C 251.449 1.51059 1.12083 0
M  V30 2682 O 250.807 0.632638 1.69904 0
M  V30 2683 C 250.855 3.60191 -0.171759 0
M  V30 2684 O 249.959 4.03396 0.857069 0
M  V30 2685 H 249.3 0.65502 -0.108834 0
M  V30 2686 H 251.83 1.81982 -0.935077 0
M  V30 2687 H 251.84 4.08 0.0014303 0
M  V30 2688 H 250.515 3.99743 -1.14796 0
M  V30 2689 H 249.092 3.67117 0.654208 0
M  V30 2690 N 251.277 0.427512 1.51691 0
M  V30 2691 C 252.525 -0.141948 2.01601 0
M  V30 2692 C 252.846 -1.44067 1.31414 0
M  V30 2693 O 252.116 -1.90763 0.445658 0
M  V30 2694 H 250.696 -0.0554468 0.744939 0
M  V30 2695 H 253.358 0.567968 1.86441 0
M  V30 2696 H 252.454 -0.324913 3.10404 0
M  V30 2697 N 252.755 -1.56801 0.158532 0
M  V30 2698 C 254.171 -1.5837 -0.197774 0
M  V30 2699 C 254.371 -1.17334 -1.63814 0
M  V30 2700 O 253.427 -0.878988 -2.36707 0
M  V30 2701 C 254.74 -3.00615 0.0714459 0
M  V30 2702 C 256.288 -3.12999 0.00864533 0
M  V30 2703 C 256.763 -4.57313 0.250685 0
M  V30 2704 N 258.254 -4.62777 0.198014 0
M  V30 2705 C 258.989 -5.72271 0.359642 0
M  V30 2706 N 258.485 -6.90371 0.579625 0
M  V30 2707 N 260.278 -5.61318 0.296438 0
M  V30 2708 H 252.429 -1.81765 1.09887 0
M  V30 2709 H 254.692 -0.841849 0.435884 0
M  V30 2710 H 254.398 -3.35068 1.06874 0
M  V30 2711 H 254.272 -3.71683 -0.642757 0
M  V30 2712 H 256.659 -2.7838 -0.979217 0
M  V30 2713 H 256.74 -2.44393 0.755359 0
M  V30 2714 H 256.384 -4.92639 1.2357 0
M  V30 2715 H 256.314 -5.24061 -0.516489 0
M  V30 2716 H 258.805 -3.77885 0.0331115 0
M  V30 2717 H 259.118 -7.69689 0.69275 0
M  V30 2718 H 257.463 -6.92264 0.616087 0
M  V30 2719 H 260.654 -4.67932 0.125258 0
M  V30 2720 H 260.827 -6.46599 0.425831 0
M  V30 2721 N 254.233 0.115231 -1.57178 0
M  V30 2722 C 255.163 1.1423 -2.03651 0
M  V30 2723 C 256.144 1.42967 -0.921655 0
M  V30 2724 O 257.329 1.53343 -1.19162 0
M  V30 2725 C 254.459 2.4675 -2.44401 0
M  V30 2726 C 253.413 2.32467 -3.59365 0
M  V30 2727 C 252.739 3.69984 -3.86026 0
M  V30 2728 C 254.039 1.78203 -4.90959 0
M  V30 2729 H 255.733 0.755749 -2.89705 0
M  V30 2730 H 253.279 0.362093 -1.39373 0
M  V30 2731 H 255.232 3.18854 -2.75517 0
M  V30 2732 H 253.956 2.87302 -1.55322 0
M  V30 2733 H 252.615 1.62811 -3.28463 0
M  V30 2734 H 252.263 4.08028 -2.94147 0
M  V30 2735 H 251.963 3.61279 -4.63412 0
M  V30 2736 H 253.487 4.43587 -4.19599 0
M  V30 2737 H 254.901 2.40128 -5.20587 0
M  V30 2738 H 253.298 1.8031 -5.72371 0
M  V30 2739 H 254.368 0.739876 -4.79222 0
M  V30 2740 N 255.711 1.52812 0.385517 0
M  V30 2741 C 256.957 1.68275 1.13188 0
M  V30 2742 C 257.29 0.423179 1.89533 0
M  V30 2743 O 256.565 -0.579113 1.85679 0
M  V30 2744 C 256.848 2.92001 2.1073 0
M  V30 2745 C 256.701 4.28067 1.38125 0
M  V30 2746 C 258.02 3.11283 3.11113 0
M  V30 2747 H 255.139 0.612352 0.410115 0
M  V30 2748 H 257.781 1.85415 0.414869 0
M  V30 2749 H 255.931 2.77519 2.71874 0
M  V30 2750 H 257.603 4.54324 0.799187 0
M  V30 2751 H 255.846 4.28388 0.683092 0
M  V30 2752 H 256.517 5.10733 2.09417 0
M  V30 2753 H 258.993 3.2482 2.6006 0
M  V30 2754 H 257.869 3.99325 3.76605 0
M  V30 2755 H 258.13 2.25656 3.80173 0
M  V30 2756 N 257.189 -0.644168 1.43834 0
M  V30 2757 C 258.438 -1.39985 1.45214 0
M  V30 2758 C 258.751 -1.95421 0.0835494 0
M  V30 2759 O 259.957 -2.71488 -0.0251748 0
M  V30 2760 C 258.413 -2.53384 2.55587 0
M  V30 2761 C 258.021 -2.04517 3.98594 0
M  V30 2762 C 259.765 -3.30685 2.66172 0
M  V30 2763 C 257.672 -3.1518 5.00416 0
M  V30 2764 H 256.602 -0.526005 0.540218 0
M  V30 2765 H 259.253 -0.694367 1.69855 0
M  V30 2766 H 257.635 -3.26446 2.24163 0
M  V30 2767 H 258.809 -1.38405 4.39523 0
M  V30 2768 H 257.124 -1.40068 3.92135 0
M  V30 2769 H 259.721 -4.13158 3.39418 0
M  V30 2770 H 260.064 -3.79312 1.71546 0
M  V30 2771 H 260.597 -2.64708 2.96942 0
M  V30 2772 H 257.336 -2.71511 5.96625 0
M  V30 2773 H 256.856 -3.79974 4.64091 0
M  V30 2774 H 258.535 -3.80166 5.23529 0
M  V30 2775 N 258.668 -1.30515 -0.883378 0
M  V30 2776 C 259.916 -1.19194 -1.63209 0
M  V30 2777 C 260.237 0.253205 -1.93349 0
M  V30 2778 O 259.507 1.17025 -1.57105 0
M  V30 2779 H 258.087 -0.438148 -0.605009 0
M  V30 2780 H 260.749 -1.63663 -1.05832 0
M  V30 2781 H 259.845 -1.75396 -2.58153 0
M  V30 2782 N 260.146 1.09593 -1.13257 0
M  V30 2783 C 261.557 1.63229 -0.906274 0
M  V30 2784 C 261.908 1.8811 0.557578 0
M  V30 2785 O 261.033 1.62953 1.42391 0
M  V30 2786 C 261.628 2.96535 -1.63867 0
M  V30 2787 C 260.187 3.47003 -1.45828 0
M  V30 2788 C 259.334 2.2145 -1.66898 0
M  V30 2789 H 262.285 0.92978 -1.28611 0
M  V30 2790 H 262.306 3.64411 -1.09476 0
M  V30 2791 H 261.818 2.78394 -2.70404 0
M  V30 2792 H 259.919 3.70272 -0.415848 0
M  V30 2793 H 260.032 4.24551 -2.2202 0
M  V30 2794 H 258.396 2.30022 -1.09371 0
M  V30 2795 H 259.179 2.0583 -2.74752 0
M  V30 2796 N 261.624 0.925811 1.2754 0
M  V30 2797 C 262.901 0.483726 1.89524 0
M  V30 2798 C 263.281 -1.03809 1.83812 0
M  V30 2799 O 262.629 -1.89143 1.28207 0
M  V30 2800 C 262.839 1.02769 3.33526 0
M  V30 2801 C 264.187 1.08703 4.10449 0
M  V30 2802 O 265.211 0.977175 3.42534 0
M  V30 2803 O 264.07 1.25599 5.31871 0
M  V30 2804 H 261.164 0.15529 0.812289 0
M  V30 2805 H 263.71 1.01738 1.35822 0
M  V30 2806 H 262.482 2.07155 3.31967 0
M  V30 2807 H 262.105 0.475567 3.94746 0
M  V30 2808 N 263.102 -1.41638 0.69111 0
M  V30 2809 C 264.034 -2.29194 -0.0161523 0
M  V30 2810 C 265.047 -1.44549 -0.748955 0
M  V30 2811 O 266.236 -1.681 -0.6004 0
M  V30 2812 C 263.336 -3.22325 -1.0469 0
M  V30 2813 C 262.509 -4.35706 -0.384621 0
M  V30 2814 C 261.568 -5.09443 -1.31737 0
M  V30 2815 O 260.594 -5.63386 -0.811451 0
M  V30 2816 N 261.796 -5.16487 -2.64993 0
M  V30 2817 H 264.561 -2.90534 0.735523 0
M  V30 2818 H 262.122 -1.52742 0.53679 0
M  V30 2819 H 264.114 -3.68522 -1.67252 0
M  V30 2820 H 262.684 -2.62323 -1.70015 0
M  V30 2821 H 261.904 -3.91948 0.420804 0
M  V30 2822 H 263.192 -5.08743 0.0760765 0
M  V30 2823 H 262.59 -4.741 -3.08619 0
M  V30 2824 H 261.147 -5.66276 -3.22761 0
M  V30 2825 N 264.58 -0.43555 -1.51462 0
M  V30 2826 C 265.527 0.376797 -2.27703 0
M  V30 2827 C 266.497 1.01838 -1.31219 0
M  V30 2828 O 267.682 1.03762 -1.60119 0
M  V30 2829 C 264.822 1.47301 -3.12084 0
M  V30 2830 C 263.935 0.849744 -4.2356 0
M  V30 2831 C 263.07 1.92086 -4.95254 0
M  V30 2832 C 262.109 1.27593 -5.98654 0
M  V30 2833 N 261.246 2.28833 -6.63762 0
M  V30 2834 H 266.086 -0.279734 -2.96684 0
M  V30 2835 H 263.623 -0.149795 -1.46335 0
M  V30 2836 H 265.581 2.11984 -3.59331 0
M  V30 2837 H 264.211 2.0992 -2.45221 0
M  V30 2838 H 263.263 0.0912529 -3.80291 0
M  V30 2839 H 264.575 0.338878 -4.97648 0
M  V30 2840 H 263.729 2.64435 -5.46039 0
M  V30 2841 H 262.468 2.46545 -4.20793 0
M  V30 2842 H 261.473 0.537893 -5.47162 0
M  V30 2843 H 262.698 0.738693 -6.7507 0
M  V30 2844 H 260.644 2.82375 -5.92115 0
M  V30 2845 H 260.561 1.82632 -7.33608 0
M  V30 2846 H 261.829 3.00671 -7.19178 0
M  V30 2847 N 266.058 1.56714 -0.166846 0
M  V30 2848 C 267.307 1.95922 0.479318 0
M  V30 2849 C 267.62 1.05529 1.6469 0
M  V30 2850 O 268.826 1.34399 2.35901 0
M  V30 2851 C 267.282 3.48359 0.90412 0
M  V30 2852 C 266.89 4.47369 -0.237621 0
M  V30 2853 C 268.634 3.96394 1.51896 0
M  V30 2854 C 266.541 5.91039 0.206561 0
M  V30 2855 H 265.471 0.731495 0.18284 0
M  V30 2856 H 268.122 1.81728 -0.254363 0
M  V30 2857 H 266.504 3.57955 1.69365 0
M  V30 2858 H 267.678 4.49485 -1.01489 0
M  V30 2859 H 265.993 4.09366 -0.762128 0
M  V30 2860 H 268.59 5.01186 1.86325 0
M  V30 2861 H 268.933 3.39075 2.41524 0
M  V30 2862 H 269.466 3.89796 0.79395 0
M  V30 2863 H 266.205 6.52221 -0.654834 0
M  V30 2864 H 265.725 5.9224 0.949282 0
M  V30 2865 H 267.404 6.43707 0.651939 0
M  V30 2866 N 267.536 -0.106894 1.57237 0
M  V30 2867 C 268.766 -0.825191 1.89405 0
M  V30 2868 C 269.174 -1.73374 0.757496 0
M  V30 2869 O 268.517 -1.81552 -0.280115 0
M  V30 2870 C 268.579 -1.70102 3.1671 0
M  V30 2871 C 268.243 -0.965523 4.46684 0
M  V30 2872 C 269.24 -0.300741 5.19029 0
M  V30 2873 C 266.925 -0.943105 4.93367 0
M  V30 2874 C 268.919 0.376622 6.36286 0
M  V30 2875 C 266.606 -0.261949 6.10538 0
M  V30 2876 C 267.604 0.396748 6.81847 0
M  V30 2877 O 267.292 1.06701 7.96787 0
M  V30 2878 H 267.024 -0.241852 0.631255 0
M  V30 2879 H 269.578 -0.0921491 2.05193 0
M  V30 2880 H 267.808 -2.47601 2.97036 0
M  V30 2881 H 269.497 -2.29483 3.34802 0
M  V30 2882 H 270.263 -0.309599 4.84011 0
M  V30 2883 H 266.142 -1.44524 4.3776 0
M  V30 2884 H 269.686 0.891334 6.91882 0
M  V30 2885 H 265.583 -0.250896 6.45012 0
M  V30 2886 H 266.351 0.972707 8.127 0
M  V30 2887 N 269.014 -1.53014 -0.377408 0
M  V30 2888 C 270.244 -1.72265 -1.14054 0
M  V30 2889 C 270.652 -0.44601 -1.83868 0
M  V30 2890 O 269.995 0.590095 -1.73964 0
M  V30 2891 C 270.057 -2.82492 -2.22348 0
M  V30 2892 C 269.721 -4.23233 -1.72402 0
M  V30 2893 C 270.718 -5.05992 -1.19448 0
M  V30 2894 C 268.403 -4.696 -1.78273 0
M  V30 2895 C 270.397 -6.33203 -0.730268 0
M  V30 2896 C 268.084 -5.96792 -1.31464 0
M  V30 2897 C 269.082 -6.78424 -0.789297 0
M  V30 2898 O 268.77 -8.0323 -0.328077 0
M  V30 2899 H 268.502 -0.579873 -0.347453 0
M  V30 2900 H 271.056 -2.00502 -0.445882 0
M  V30 2901 H 269.286 -2.49702 -2.95272 0
M  V30 2902 H 270.975 -2.90034 -2.83963 0
M  V30 2903 H 271.741 -4.71349 -1.14259 0
M  V30 2904 H 267.62 -4.06142 -2.18106 0
M  V30 2905 H 271.164 -6.96868 -0.319542 0
M  V30 2906 H 267.061 -6.30937 -1.36342 0
M  V30 2907 H 267.829 -8.1727 -0.448493 0
M  V30 2908 N 270.492 0.636531 -1.44174 0
M  V30 2909 C 271.72 1.42353 -1.50144 0
M  V30 2910 C 272.135 1.88389 -0.124575 0
M  V30 2911 O 271.492 1.6051 0.868489 0
M  V30 2912 C 271.543 2.64744 -2.46156 0
M  V30 2913 O 271.264 2.20629 -3.7849 0
M  V30 2914 C 272.765 3.57929 -2.61537 0
M  V30 2915 H 269.985 0.436752 -0.5094 0
M  V30 2916 H 272.529 0.778933 -1.89084 0
M  V30 2917 H 270.684 3.25307 -2.10366 0
M  V30 2918 H 271.098 2.99938 -4.30276 0
M  V30 2919 H 272.572 4.40428 -3.32757 0
M  V30 2920 H 273.049 4.06382 -1.66585 0
M  V30 2921 H 273.655 3.03238 -2.98206 0
M  V30 2922 N 271.97 1.30982 0.876444 0
M  V30 2923 C 273.219 1.19658 1.62373 0
M  V30 2924 C 273.532 -0.245636 1.94052 0
M  V30 2925 O 274.738 -0.48049 2.67214 0
M  V30 2926 C 273.194 2.09433 2.92687 0
M  V30 2927 C 272.802 3.58613 2.68516 0
M  V30 2928 C 274.546 2.06893 3.70669 0
M  V30 2929 C 272.453 4.40416 3.94699 0
M  V30 2930 H 271.383 0.444268 0.609214 0
M  V30 2931 H 274.034 1.55791 0.969605 0
M  V30 2932 H 272.416 1.66191 3.59439 0
M  V30 2933 H 273.59 4.10058 2.10212 0
M  V30 2934 H 271.905 3.63063 2.03898 0
M  V30 2935 H 274.502 2.65258 4.64265 0
M  V30 2936 H 274.845 1.05448 4.02724 0
M  V30 2937 H 275.378 2.48301 3.10792 0
M  V30 2938 H 272.117 5.42591 3.67798 0
M  V30 2939 H 271.637 3.93731 4.52477 0
M  V30 2940 H 273.316 4.52294 4.62644 0
M  V30 2941 N 273.449 -1.08991 1.13837 0
M  V30 2942 C 274.697 -1.80899 0.901098 0
M  V30 2943 C 275.018 -1.86356 -0.574134 0
M  V30 2944 O 274.288 -1.35235 -1.41733 0
M  V30 2945 H 272.868 -0.669966 0.330386 0
M  V30 2946 H 275.53 -1.318 1.43578 0
M  V30 2947 H 274.626 -2.83929 1.29578 0
M  V30 2948 N 274.927 -0.932562 -1.27047 0
M  V30 2949 C 276.204 -0.49377 -1.89265 0
M  V30 2950 C 276.584 1.02833 -1.8436 0
M  V30 2951 O 275.932 1.88461 -1.29209 0
M  V30 2952 C 276.142 -1.04536 -3.32976 0
M  V30 2953 C 277.49 -1.10879 -4.09867 0
M  V30 2954 O 278.514 -0.995327 -3.42011 0
M  V30 2955 O 277.373 -1.28417 -5.31198 0
M  V30 2956 H 274.467 -0.159596 -0.811454 0
M  V30 2957 H 277.013 -1.02457 -1.3528 0
M  V30 2958 H 275.785 -2.08913 -3.30864 0
M  V30 2959 H 275.408 -0.496494 -3.94488 0
M  V30 2960 N 276.405 1.4127 -0.698611 0
M  V30 2961 C 277.337 2.292 0.00399731 0
M  V30 2962 C 278.35 1.44944 0.741279 0
M  V30 2963 O 279.539 1.68416 0.591477 0
M  V30 2964 C 276.639 3.22875 1.02979 0
M  V30 2965 C 275.812 4.35904 0.36151 0
M  V30 2966 C 274.871 5.10134 1.29033 0
M  V30 2967 O 273.897 5.63809 0.781562 0
M  V30 2968 N 275.099 5.17885 2.6225 0
M  V30 2969 H 277.864 2.9014 -0.750921 0
M  V30 2970 H 275.425 1.52455 -0.544882 0
M  V30 2971 H 277.417 3.69404 1.65296 0
M  V30 2972 H 275.987 2.63221 1.68622 0
M  V30 2973 H 275.207 3.91719 -0.441584 0
M  V30 2974 H 276.495 5.08696 -0.103055 0
M  V30 2975 H 275.893 4.7573 3.061 0
M  V30 2976 H 274.45 5.6798 3.19754 0
M  V30 2977 N 277.883 0.443576 1.51229 0
M  V30 2978 C 279.131 -0.120557 2.0174 0
M  V30 2979 C 279.452 -1.42665 1.32935 0
M  V30 2980 O 278.722 -1.9028 0.465866 0
M  V30 2981 H 277.302 -0.0475426 0.745486 0
M  V30 2982 H 279.964 0.587711 1.85828 0
M  V30 2983 H 279.06 -0.291972 3.10731 0
M  V30 2984 N 279.361 -1.56624 0.175154 0
M  V30 2985 C 280.777 -1.58571 -0.180966 0
M  V30 2986 C 280.977 -1.19065 -1.6256 0
M  V30 2987 O 280.033 -0.904044 -2.35761 0
M  V30 2988 C 281.346 -3.00522 0.103326 0
M  V30 2989 C 282.894 -3.12972 0.0418426 0
M  V30 2990 C 283.369 -4.57022 0.299175 0
M  V30 2991 N 284.86 -4.62541 0.247086 0
M  V30 2992 C 285.595 -5.71857 0.420318 0
M  V30 2993 N 285.091 -6.89717 0.652816 0
M  V30 2994 N 286.884 -5.60972 0.355957 0
M  V30 2995 H 279.035 -1.80589 1.11809 0
M  V30 2996 H 281.298 -0.837178 0.444788 0
M  V30 2997 H 281.004 -3.33916 1.10422 0
M  V30 2998 H 280.878 -3.72344 -0.603299 0
M  V30 2999 H 283.265 -2.79403 -0.949636 0
M  V30 3000 H 283.346 -2.43578 0.781238 0
M  V30 3001 H 282.99 -4.913 1.28788 0
M  V30 3002 H 282.92 -5.24579 -0.460876 0
M  V30 3003 H 285.411 -3.77829 0.0731895 0
M  V30 3004 H 285.724 -7.68911 0.774347 0
M  V30 3005 H 284.069 -6.91572 0.689476 0
M  V30 3006 H 287.26 -4.67773 0.174882 0
M  V30 3007 H 287.433 -6.46111 0.494388 0
M  V30 3008 N 280.839 0.0985539 -1.57292 0
M  V30 3009 C 281.787 1.1387 -2.02821 0
M  V30 3010 C 282.781 1.41676 -0.928666 0
M  V30 3011 O 283.987 1.41398 -1.11385 0
M  V30 3012 H 280.362 0.384419 -0.646317 0
M  V30 3013 H 282.333 0.728347 -2.89375 0
M  V30 3014 C 281.082 2.45166 -2.46554 0
M  V30 3015 H 280.405 2.24613 -3.3074 0
M  V30 3016 H 281.845 3.16456 -2.8219 0
M  V30 3017 C 280.304 3.09216 -1.33742 0
M  V30 3018 O 280.834 3.96163 -0.66464 0
M  V30 3019 N 279.04 2.69413 -1.08928 0
M  V30 3020 H 278.587 1.98801 -1.63817 0
M  V30 3021 H 278.545 3.12594 -0.336458 0
M  V30 3022 N 282.317 1.53212 0.369288 0
M  V30 3023 C 283.249 1.75668 1.47219 0
M  V30 3024 C 284.262 0.637387 1.49804 0
M  V30 3025 O 285.451 0.913561 1.5335 0
M  V30 3026 C 282.551 1.81818 2.85999 0
M  V30 3027 C 281.724 3.11409 3.07153 0
M  V30 3028 C 280.783 3.08849 4.26026 0
M  V30 3029 O 279.809 3.82659 4.2138 0
M  V30 3030 N 281.011 2.29409 5.33246 0
M  V30 3031 H 283.776 2.70832 1.28337 0
M  V30 3032 H 281.337 1.51944 0.55898 0
M  V30 3033 H 283.329 1.77588 3.63655 0
M  V30 3034 H 281.899 0.939544 2.98146 0
M  V30 3035 H 281.119 3.28971 2.1719 0
M  V30 3036 H 282.407 3.97059 3.18154 0
M  V30 3037 H 281.805 1.68946 5.39883 0
M  V30 3038 H 280.362 2.31001 6.09493 0
M  V30 3039 N 283.795 -0.628877 1.44509 0
M  V30 3040 C 284.725 -1.75187 1.54376 0
M  V30 3041 C 285.706 -1.65411 0.396618 0
M  V30 3042 O 286.891 -1.84137 0.617031 0
M  V30 3043 C 284.021 -3.13725 1.48976 0
M  V30 3044 C 282.975 -3.38291 2.62189 0
M  V30 3045 C 282.301 -4.76883 2.41841 0
M  V30 3046 C 283.601 -3.30632 4.04326 0
M  V30 3047 H 285.295 -1.67187 2.48373 0
M  V30 3048 H 282.841 -0.802909 1.19538 0
M  V30 3049 H 284.794 -3.92064 1.54478 0
M  V30 3050 H 283.518 -3.22515 0.514961 0
M  V30 3051 H 282.177 -2.62334 2.56079 0
M  V30 3052 H 281.825 -4.82378 1.42548 0
M  V30 3053 H 281.525 -4.94278 3.17747 0
M  V30 3054 H 283.049 -5.57449 2.49165 0
M  V30 3055 H 284.463 -3.98873 4.11793 0
M  V30 3056 H 282.86 -3.59561 4.80454 0
M  V30 3057 H 283.93 -2.28404 4.27738 0
M  V30 3058 N 285.273 -1.31445 -0.869486 0
M  V30 3059 C 286.236 -1.19094 -1.9583 0
M  V30 3060 C 287.236 -0.117906 -1.60367 0
M  V30 3061 O 288.426 -0.367208 -1.70286 0
M  V30 3062 C 285.558 -0.828165 -3.30688 0
M  V30 3063 H 286.751 -2.15842 -2.08212 0
M  V30 3064 H 284.304 -1.15063 -1.05784 0
M  V30 3065 H 285.039 0.138142 -3.24006 0
M  V30 3066 H 284.824 -1.6038 -3.578 0
M  V30 3067 H 286.314 -0.765658 -4.10521 0
M  V30 3068 N 286.751 1.08385 -1.14413 0
M  V30 3069 C 287.981 1.8425 -0.934644 0
M  V30 3070 C 288.389 1.81907 0.520234 0
M  V30 3071 O 287.732 1.22126 1.37226 0
M  V30 3072 C 287.794 3.32853 -1.35828 0
M  V30 3073 C 287.458 3.5893 -2.82875 0
M  V30 3074 C 288.455 3.53756 -3.80989 0
M  V30 3075 C 286.14 3.86934 -3.20293 0
M  V30 3076 C 288.134 3.76216 -5.14529 0
M  V30 3077 C 285.821 4.09047 -4.54008 0
M  V30 3078 C 286.819 4.03682 -5.50936 0
M  V30 3079 O 286.507 4.25214 -6.82238 0
M  V30 3080 H 286.239 0.588502 -0.332628 0
M  V30 3081 H 288.793 1.37792 -1.52324 0
M  V30 3082 H 287.023 3.8007 -0.713019 0
M  V30 3083 H 288.712 3.90154 -1.11957 0
M  V30 3084 H 289.478 3.32135 -3.53428 0
M  V30 3085 H 285.357 3.9023 -2.45442 0
M  V30 3086 H 288.901 3.71943 -5.90173 0
M  V30 3087 H 284.798 4.30151 -4.8129 0
M  V30 3088 H 285.566 4.42619 -6.88499 0
M  V30 3089 N 288.23 0.939286 1.26551 0
M  V30 3090 C 289.16 0.465044 2.28822 0
M  V30 3091 C 290.141 -0.480692 1.63167 0
M  V30 3092 O 291.326 -0.382955 1.90387 0
M  V30 3093 C 288.456 -0.27234 3.46231 0
M  V30 3094 C 287.41 0.58666 4.2396 0
M  V30 3095 C 286.736 -0.280573 5.33963 0
M  V30 3096 C 288.036 1.85704 4.88171 0
M  V30 3097 H 289.73 1.31979 2.68741 0
M  V30 3098 H 287.276 0.636061 1.29191 0
M  V30 3099 H 289.229 -0.615133 4.16886 0
M  V30 3100 H 287.953 -1.16121 3.0526 0
M  V30 3101 H 286.612 0.91232 3.55067 0
M  V30 3102 H 286.26 -1.16874 4.89234 0
M  V30 3103 H 285.96 0.29076 5.8688 0
M  V30 3104 H 287.484 -0.618678 6.07458 0
M  V30 3105 H 288.898 1.58161 5.51052 0
M  V30 3106 H 287.295 2.37279 5.51197 0
M  V30 3107 H 288.365 2.56957 4.11219 0
M  V30 3108 N 289.708 -1.40897 0.706093 0
M  V30 3109 C 290.955 -2.01054 0.241531 0
M  V30 3110 C 291.283 -1.55956 -1.16223 0
M  V30 3111 O 290.538 -0.766336 -1.80072 0
M  V30 3112 C 290.837 -3.5646 0.259099 0
M  V30 3113 C 290.503 -4.21106 1.61184 0
M  V30 3114 C 289.165 -4.38479 1.98216 0
M  V30 3115 C 291.517 -4.57256 2.50132 0
M  V30 3116 C 288.845 -4.89282 3.2376 0
M  V30 3117 C 291.197 -5.09454 3.7502 0
M  V30 3118 C 289.861 -5.25037 4.12181 0
M  V30 3119 H 289.131 -0.73571 0.0883825 0
M  V30 3120 H 291.778 -1.68645 0.907257 0
M  V30 3121 H 290.083 -3.88721 -0.490189 0
M  V30 3122 H 291.78 -4.00826 -0.11804 0
M  V30 3123 H 288.37 -4.07966 1.31384 0
M  V30 3124 H 292.554 -4.43479 2.228 0
M  V30 3125 H 287.81 -4.99531 3.52532 0
M  V30 3126 H 291.984 -5.36404 4.44121 0
M  V30 3127 H 289.611 -5.64164 5.09532 0
M  V30 3128 N 291.186 -0.45159 -1.50991 0
M  V30 3129 C 292.116 0.342898 -2.30969 0
M  V30 3130 C 293.097 1.00815 -1.37005 0
M  V30 3131 O 294.282 1.00907 -1.65926 0
M  V30 3132 C 291.412 1.43637 -3.16205 0
M  V30 3133 C 290.366 0.893818 -4.18563 0
M  V30 3134 C 289.692 2.08411 -4.92411 0
M  V30 3135 C 290.992 -0.0815568 -5.22236 0
M  V30 3136 H 292.686 -0.324556 -2.97636 0
M  V30 3137 H 290.232 -0.157531 -1.43136 0
M  V30 3138 H 292.185 1.9995 -3.70942 0
M  V30 3139 H 290.909 2.13232 -2.47386 0
M  V30 3140 H 289.568 0.352798 -3.64898 0
M  V30 3141 H 289.216 2.76658 -4.20082 0
M  V30 3142 H 288.916 1.72741 -5.61636 0
M  V30 3143 H 290.44 2.65251 -5.49976 0
M  V30 3144 H 291.854 0.391742 -5.7196 0
M  V30 3145 H 290.251 -0.351551 -5.99069 0
M  V30 3146 H 291.321 -1.01374 -4.74185 0
M  V30 3147 N 292.664 1.56529 -0.183458 0
M  V30 3148 C 294.075 1.83739 0.331177 0
M  V30 3149 C 294.426 1.10373 1.62211 0
M  V30 3150 O 293.551 0.36071 2.13373 0
M  V30 3151 C 294.146 3.33306 0.607646 0
M  V30 3152 C 292.705 3.60969 1.06668 0
M  V30 3153 C 291.852 2.77086 0.109029 0
M  V30 3154 H 294.803 1.53379 -0.407484 0
M  V30 3155 H 294.824 3.51444 1.45832 0
M  V30 3156 H 294.336 3.86677 -0.332086 0
M  V30 3157 H 292.437 3.13021 2.0211 0
M  V30 3158 H 292.55 4.69231 0.967447 0
M  V30 3159 H 290.914 2.47319 0.608714 0
M  V30 3160 H 291.697 3.33241 -0.82494 0
M  V30 3161 N 294.142 -0.090211 1.57342 0
M  V30 3162 C 295.09 -1.12792 2.03422 0
M  V30 3163 C 296.084 -1.41182 0.936166 0
M  V30 3164 O 297.29 -1.40805 1.12133 0
M  V30 3165 H 293.665 -0.380986 0.648347 0
M  V30 3166 H 295.636 -0.71299 2.89757 0
M  V30 3167 C 294.385 -2.43855 2.47851 0
M  V30 3168 H 293.708 -2.22855 3.31927 0
M  V30 3169 H 295.148 -3.14955 2.83865 0
M  V30 3170 C 293.607 -3.08503 1.3538 0
M  V30 3171 O 294.137 -3.95805 0.685641 0
M  V30 3172 N 292.343 -2.68831 1.10355 0
M  V30 3173 H 291.89 -1.97929 1.64869 0
M  V30 3174 H 291.848 -3.12412 0.353031 0
M  V30 3175 N 295.62 -1.53406 -0.361157 0
M  V30 3176 C 296.552 -1.76446 -1.46286 0
M  V30 3177 C 297.565 -0.645322 -1.49464 0
M  V30 3178 O 298.754 -0.921681 -1.52864 0
M  V30 3179 C 295.854 -1.83332 -2.85031 0
M  V30 3180 C 295.027 -3.13033 -3.05498 0
M  V30 3181 C 294.086 -3.11104 -4.24383 0
M  V30 3182 O 293.112 -3.84888 -4.19344 0
M  V30 3183 N 294.314 -2.32234 -5.32022 0
M  V30 3184 H 297.079 -2.71508 -1.26899 0
M  V30 3185 H 294.64 -1.52238 -0.550915 0
M  V30 3186 H 296.632 -1.79514 -3.62708 0
M  V30 3187 H 295.202 -0.955342 -2.97644 0
M  V30 3188 H 294.422 -3.30119 -2.15442 0
M  V30 3189 H 295.71 -3.9874 -3.16044 0
M  V30 3190 H 295.108 -1.71807 -5.38979 0
M  V30 3191 H 293.665 -2.3423 -6.08259 0
M  V30 3192 N 297.098 0.621204 -1.44841 0
M  V30 3193 C 298.061 1.71459 -1.521 0
M  V30 3194 C 299.061 1.55696 -0.401933 0
M  V30 3195 O 300.251 1.61011 -0.664925 0
M  V30 3196 C 297.383 3.10624 -1.40447 0
M  V30 3197 H 298.576 1.66394 -2.49506 0
M  V30 3198 H 296.129 0.835745 -1.3208 0
M  V30 3199 H 296.864 3.21277 -0.441737 0
M  V30 3200 H 296.649 3.23473 -2.21602 0
M  V30 3201 H 298.139 3.90293 -1.4853 0
M  V30 3202 N 298.576 1.31904 0.862503 0
M  V30 3203 C 299.508 1.16005 1.97675 0
M  V30 3204 C 300.521 0.0971234 1.6251 0
M  V30 3205 O 301.71 0.345337 1.75128 0
M  V30 3206 C 298.81 0.751791 3.30456 0
M  V30 3207 C 297.983 1.90133 3.93914 0
M  V30 3208 C 297.042 1.4779 5.05019 0
M  V30 3209 O 296.068 2.18872 5.25437 0
M  V30 3210 N 297.27 0.369491 5.79323 0
M  V30 3211 H 300.035 2.11982 2.11857 0
M  V30 3212 H 297.596 1.24337 1.03691 0
M  V30 3213 H 299.588 0.451084 4.02178 0
M  V30 3214 H 298.158 -0.116593 3.12382 0
M  V30 3215 H 297.378 2.36896 3.15078 0
M  V30 3216 H 298.666 2.67111 4.33047 0
M  V30 3217 H 298.064 -0.222299 5.65263 0
M  V30 3218 H 296.621 0.128354 6.51674 0
M  V30 3219 N 300.054 -1.07777 1.14986 0
M  V30 3220 C 301.004 -2.13082 0.811181 0
M  V30 3221 C 301.988 -1.59619 -0.202597 0
M  V30 3222 O 303.18 -1.77 -0.00398275 0
M  V30 3223 C 300.309 -3.42009 0.297439 0
M  V30 3224 C 299.395 -4.02337 1.34112 0
M  V30 3225 N 299.786 -4.36982 2.54716 0
M  V30 3226 C 298.084 -4.29752 1.19285 0
M  V30 3227 C 298.785 -4.84729 3.21578 0
M  V30 3228 N 297.761 -4.83233 2.48972 0
M  V30 3229 H 301.563 -2.37696 1.72853 0
M  V30 3230 H 299.077 -1.25173 1.03468 0
M  V30 3231 H 301.074 -4.16884 0.0364777 0
M  V30 3232 H 299.734 -3.18841 -0.614022 0
M  V30 3233 H 300.745 -4.27807 2.91894 0
M  V30 3234 H 297.422 -4.16106 0.340926 0
M  V30 3235 H 298.812 -5.20863 4.24442 0
M  V30 3236 N 301.532 -0.945985 -1.26051 0
M  V30 3237 C 302.76 -0.613025 -1.9761 0
M  V30 3238 C 303.175 0.813035 -1.70397 0
M  V30 3239 O 302.532 1.54274 -0.974979 0
M  V30 3240 C 302.583 -0.85159 -3.51326 0
M  V30 3241 O 302.304 -2.22157 -3.77595 0
M  V30 3242 C 303.805 -0.529831 -4.40122 0
M  V30 3243 H 301.025 -0.230593 -0.630133 0
M  V30 3244 H 303.569 -1.268 -1.60443 0
M  V30 3245 H 301.724 -0.243151 -3.86636 0
M  V30 3246 H 302.138 -2.2852 -4.721 0
M  V30 3247 H 303.612 -0.747348 -5.46917 0
M  V30 3248 H 304.089 0.535341 -4.35925 0
M  V30 3249 H 304.695 -1.11721 -4.10364 0
M  V30 3250 N 303.011 1.40521 -0.713556 0
M  V30 3251 C 304.422 1.83853 -0.324807 0
M  V30 3252 C 304.773 1.59667 1.14021 0
M  V30 3253 O 303.898 1.07649 1.87725 0
M  V30 3254 C 304.493 3.33751 -0.582746 0
M  V30 3255 C 303.052 3.75584 -0.247727 0
M  V30 3256 C 302.199 2.63753 -0.856121 0
M  V30 3257 H 305.15 1.29817 -0.91286 0
M  V30 3258 H 305.171 3.80194 0.152682 0
M  V30 3259 H 304.683 3.51322 -1.64908 0
M  V30 3260 H 302.784 3.63608 0.813624 0
M  V30 3261 H 302.897 4.7373 -0.715307 0
M  V30 3262 H 301.261 2.53108 -0.28432 0
M  V30 3263 H 302.044 2.84137 -1.92668 0
M  V30 3264 N 304.489 0.459591 1.5075 0
M  V30 3265 C 305.717 -0.0973749 2.06671 0
M  V30 3266 C 306.132 -1.34524 1.32472 0
M  V30 3267 O 305.489 -1.7827 0.390634 0
M  V30 3268 C 305.54 -0.39714 3.59312 0
M  V30 3269 O 305.261 0.801214 4.30711 0
M  V30 3270 C 306.762 -1.00234 4.31819 0
M  V30 3271 H 303.982 0.00195854 0.670997 0
M  V30 3272 H 306.526 0.645072 1.94059 0
M  V30 3273 H 304.681 -1.08951 3.71764 0
M  V30 3274 H 305.095 0.538857 5.21725 0
M  V30 3275 H 306.569 -1.16193 5.39632 0
M  V30 3276 H 307.046 -1.98939 3.91561 0
M  V30 3277 H 307.652 -0.348699 4.23868 0
M  V30 3278 N 305.967 -1.56429 0.191757 0
M  V30 3279 C 306.899 -2.16154 -0.762245 0
M  V30 3280 C 307.912 -1.12247 -1.17917 0
M  V30 3281 O 309.101 -1.39353 -1.11548 0
M  V30 3282 C 306.201 -2.70606 -2.04024 0
M  V30 3283 C 305.374 -3.99381 -1.78364 0
M  V30 3284 C 304.433 -4.38692 -2.90578 0
M  V30 3285 O 303.459 -5.06179 -2.6033 0
M  V30 3286 N 304.661 -4.01922 -4.18854 0
M  V30 3287 H 307.426 -2.98643 -0.251526 0
M  V30 3288 H 304.987 -1.61897 0.00967373 0
M  V30 3289 H 306.979 -2.93891 -2.78227 0
M  V30 3290 H 305.549 -1.9259 -2.46227 0
M  V30 3291 H 304.769 -3.84262 -0.879581 0
M  V30 3292 H 306.057 -4.83445 -1.58614 0
M  V30 3293 H 305.455 -3.47631 -4.46283 0
M  V30 3294 H 304.012 -4.30165 -4.89695 0
M  V30 3295 N 307.445 0.0818655 -1.57387 0
M  V30 3296 C 308.377 1.12484 -1.997 0
M  V30 3297 C 309.39 1.35564 -0.90146 0
M  V30 3298 O 310.579 1.33982 -1.17945 0
M  V30 3299 C 307.679 2.47778 -2.31213 0
M  V30 3300 C 306.852 2.44793 -3.62485 0
M  V30 3301 C 305.911 3.62117 -3.81782 0
M  V30 3302 O 304.937 3.44005 -4.53486 0
M  V30 3303 N 306.139 4.82094 -3.23367 0
M  V30 3304 H 308.904 0.764585 -2.89783 0
M  V30 3305 H 306.465 0.270664 -1.59621 0
M  V30 3306 H 308.457 3.24891 -2.41304 0
M  V30 3307 H 307.027 2.75843 -1.4707 0
M  V30 3308 H 306.247 1.53134 -3.6324 0
M  V30 3309 H 307.535 2.39889 -4.48699 0
M  V30 3310 H 306.933 4.99713 -2.65148 0
M  V30 3311 H 305.49 5.56753 -3.38923 0
M  V30 3312 N 308.923 1.53595 0.353017 0
M  V30 3313 C 309.833 1.83897 1.45667 0
M  V30 3314 C 310.849 0.728334 1.58023 0
M  V30 3315 O 312.025 1.01968 1.73679 0
M  V30 3316 C 309.09 2.03383 2.80778 0
M  V30 3317 C 308.151 3.27262 2.77845 0
M  V30 3318 C 307.384 3.45809 4.06512 0
M  V30 3319 O 307.607 2.68387 5.03314 0
M  V30 3320 O 306.541 4.39207 4.11559 0
M  V30 3321 H 310.367 2.77686 1.2298 0
M  V30 3322 H 307.952 1.39132 0.544308 0
M  V30 3323 H 309.834 2.17698 3.60812 0
M  V30 3324 H 308.509 1.12783 3.03417 0
M  V30 3325 H 307.416 3.18359 1.96465 0
M  V30 3326 H 308.749 4.17824 2.60161 0
M  V30 3327 N 310.401 -0.613514 1.45168 0
M  V30 3328 C 311.331 -1.7354 1.56225 0
M  V30 3329 C 312.312 -1.64981 0.41414 0
M  V30 3330 O 313.497 -1.83472 0.636526 0
M  V30 3331 C 310.627 -3.12128 1.52295 0
M  V30 3332 C 309.581 -3.35491 2.65762 0
M  V30 3333 C 308.907 -4.74291 2.46885 0
M  V30 3334 C 310.207 -3.26325 4.0781 0
M  V30 3335 H 311.901 -1.64543 2.50132 0
M  V30 3336 H 309.447 -0.790185 1.20383 0
M  V30 3337 H 311.4 -3.90404 1.58628 0
M  V30 3338 H 310.124 -3.2195 0.549139 0
M  V30 3339 H 308.783 -2.59603 2.58847 0
M  V30 3340 H 308.431 -4.80839 1.47657 0
M  V30 3341 H 308.131 -4.9088 3.22972 0
M  V30 3342 H 309.655 -5.54775 2.55063 0
M  V30 3343 H 311.069 -3.94483 4.16 0
M  V30 3344 H 309.466 -3.54445 4.8424 0
M  V30 3345 H 310.536 -2.23855 4.30136 0
M  V30 3346 N 311.879 -1.3236 -0.855495 0
M  V30 3347 C 312.827 -1.2118 -1.9854 0
M  V30 3348 C 313.821 -0.116788 -1.68997 0
M  V30 3349 O 315.027 -0.279657 -1.77814 0
M  V30 3350 H 311.402 -0.375608 -0.651477 0
M  V30 3351 H 313.373 -2.16743 -2.05098 0
M  V30 3352 C 312.122 -0.950849 -3.34446 0
M  V30 3353 H 311.445 -1.78563 -3.57708 0
M  V30 3354 H 312.885 -0.912863 -4.14057 0
M  V30 3355 C 311.344 0.346404 -3.35114 0
M  V30 3356 O 311.874 1.35855 -3.7803 0
M  V30 3357 N 310.08 0.36808 -2.88259 0
M  V30 3358 H 309.627 -0.456102 -2.5353 0
M  V30 3359 H 309.585 1.23591 -2.89089 0
M  V30 3360 N 313.357 1.07166 -1.15556 0
M  V30 3361 C 314.605 1.79443 -0.929764 0
M  V30 3362 C 314.926 1.87246 0.544414 0
M  V30 3363 O 314.196 1.37473 1.39564 0
M  V30 3364 H 312.776 0.664625 -0.341003 0
M  V30 3365 H 315.438 1.29499 -1.45657 0
M  V30 3366 H 314.534 2.81832 -1.34079 0
M  V30 3367 N 314.835 0.952656 1.25548 0
M  V30 3368 C 315.782 0.47008 2.25962 0
M  V30 3369 C 316.752 -0.476384 1.59122 0
M  V30 3370 O 317.937 -0.39007 1.8677 0
M  V30 3371 C 315.077 -0.247881 3.44209 0
M  V30 3372 C 314.19 0.735591 4.25691 0
M  V30 3373 C 313.325 -0.0047306 5.312 0
M  V30 3374 C 312.364 0.969805 6.04368 0
M  V30 3375 N 311.501 0.260486 7.01617 0
M  V30 3376 H 316.341 1.33126 2.66611 0
M  V30 3377 H 313.878 0.66765 1.31076 0
M  V30 3378 H 315.836 -0.680695 4.1161 0
M  V30 3379 H 314.466 -1.07312 3.0444 0
M  V30 3380 H 313.518 1.28689 3.57971 0
M  V30 3381 H 314.83 1.47934 4.76358 0
M  V30 3382 H 313.984 -0.496275 6.04667 0
M  V30 3383 H 312.723 -0.781282 4.81401 0
M  V30 3384 H 311.728 1.47237 5.29718 0
M  V30 3385 H 312.953 1.74655 6.56256 0
M  V30 3386 H 310.899 -0.497364 6.54112 0
M  V30 3387 H 310.816 0.943362 7.50091 0
M  V30 3388 H 312.084 -0.209587 7.79218 0
M  V30 3389 N 316.313 -1.40141 0.720998 0
M  V30 3390 C 317.59 -1.94677 0.189757 0
M  V30 3391 C 317.97 -1.65879 -1.30566 0
M  V30 3392 O 317.318 -0.979391 -2.06447 0
M  V30 3393 C 317.528 -3.45279 0.508304 0
M  V30 3394 C 318.876 -4.22209 0.449934 0
M  V30 3395 O 319.9 -3.53413 0.444677 0
M  V30 3396 O 318.759 -5.44788 0.432189 0
M  V30 3397 H 315.853 -0.826459 0.0299026 0
M  V30 3398 H 318.399 -1.49719 0.7989 0
M  V30 3399 H 317.171 -3.59619 1.54239 0
M  V30 3400 H 316.794 -3.97386 -0.130525 0
M  V30 3401 N 317.792 -0.46758 -1.50504 0
M  V30 3402 C 319.022 0.086288 -2.0642 0
M  V30 3403 C 319.43 1.34369 -1.33197 0
M  V30 3404 O 318.773 1.79431 -0.393747 0
M  V30 3405 C 318.835 0.443846 -3.5675 0
M  V30 3406 C 318.499 -0.711035 -4.51435 0
M  V30 3407 C 319.496 -1.59205 -4.94924 0
M  V30 3408 C 317.181 -0.900363 -4.94165 0
M  V30 3409 C 319.175 -2.64683 -5.79846 0
M  V30 3410 C 316.862 -1.95837 -5.7887 0
M  V30 3411 C 317.86 -2.82997 -6.21612 0
M  V30 3412 O 317.548 -3.86977 -7.0463 0
M  V30 3413 H 317.28 -0.00217814 -0.675996 0
M  V30 3414 H 319.834 -0.654346 -1.94698 0
M  V30 3415 H 318.064 1.23762 -3.6636 0
M  V30 3416 H 319.753 0.932386 -3.95046 0
M  V30 3417 H 320.519 -1.45745 -4.62583 0
M  V30 3418 H 316.398 -0.231427 -4.60419 0
M  V30 3419 H 319.942 -3.32745 -6.13128 0
M  V30 3420 H 315.839 -2.09305 -6.10624 0
M  V30 3421 H 316.607 -3.83923 -7.22873 0
M  V30 3422 N 319.27 1.56325 -0.20005 0
M  V30 3423 C 320.22 2.15939 0.731743 0
M  V30 3424 C 321.204 1.10154 1.17281 0
M  V30 3425 O 322.396 1.36203 1.13038 0
M  V30 3426 C 319.525 2.82614 1.94895 0
M  V30 3427 C 318.611 3.95596 1.52855 0
M  V30 3428 N 319.002 4.99118 0.819418 0
M  V30 3429 C 317.3 4.07288 1.81748 0
M  V30 3430 C 318.001 5.78513 0.608053 0
M  V30 3431 N 316.977 5.31117 1.15828 0
M  V30 3432 H 320.779 2.9334 0.181285 0
M  V30 3433 H 318.293 1.624 -0.000452172 0
M  V30 3434 H 320.29 3.23718 2.62702 0
M  V30 3435 H 318.95 2.06702 2.50408 0
M  V30 3436 H 319.961 5.15723 0.47436 0
M  V30 3437 H 316.638 3.42509 2.38734 0
M  V30 3438 H 318.028 6.71885 0.0451619 0
M  V30 3439 N 320.748 -0.0735177 1.57428 0
M  V30 3440 C 321.976 -0.785969 1.9139 0
M  V30 3441 C 322.391 -1.71207 0.795847 0
M  V30 3442 O 321.748 -1.81033 -0.230915 0
M  V30 3443 C 321.799 -1.58107 3.25091 0
M  V30 3444 O 321.52 -0.6922 4.32597 0
M  V30 3445 C 323.021 -2.39467 3.73055 0
M  V30 3446 H 320.241 -0.223558 0.632663 0
M  V30 3447 H 322.785 -0.044302 2.04452 0
M  V30 3448 H 320.94 -2.27503 3.13562 0
M  V30 3449 H 321.354 -1.24504 5.09508 0
M  V30 3450 H 322.828 -2.90716 4.69242 0
M  V30 3451 H 323.305 -3.18913 3.01979 0
M  V30 3452 H 323.911 -1.7523 3.87523 0
M  V30 3453 N 322.226 -1.5378 -0.344866 0
M  V30 3454 C 323.456 -1.74646 -1.10374 0
M  V30 3455 C 323.864 -0.48491 -1.8288 0
M  V30 3456 O 323.207 0.553062 -1.75177 0
M  V30 3457 C 323.269 -2.87145 -2.16306 0
M  V30 3458 C 322.933 -4.26795 -1.63386 0
M  V30 3459 C 323.93 -5.08412 -1.08688 0
M  V30 3460 C 321.615 -4.73276 -1.68272 0
M  V30 3461 C 323.609 -6.34609 -0.595792 0
M  V30 3462 C 321.296 -5.99446 -1.18776 0
M  V30 3463 C 322.294 -6.79946 -0.645215 0
M  V30 3464 O 321.982 -8.03745 -0.157626 0
M  V30 3465 H 321.714 -0.587112 -0.335075 0
M  V30 3466 H 324.268 -2.01403 -0.403252 0
M  V30 3467 H 322.498 -2.55909 -2.89909 0
M  V30 3468 H 324.187 -2.95992 -2.77747 0
M  V30 3469 H 324.953 -4.73666 -1.04236 0
M  V30 3470 H 320.832 -4.10677 -2.09442 0
M  V30 3471 H 324.376 -6.97389 -0.171654 0
M  V30 3472 H 320.273 -6.33687 -1.22928 0
M  V30 3473 H 321.041 -8.18038 -0.275037 0
M  V30 3474 N 323.704 0.605807 -1.45491 0
M  V30 3475 C 324.637 1.73022 -1.48791 0
M  V30 3476 C 325.615 1.58917 -0.344112 0
M  V30 3477 O 326.799 1.80453 -0.544876 0
M  V30 3478 C 323.926 3.10865 -1.34463 0
M  V30 3479 C 322.972 3.43554 -2.5273 0
M  V30 3480 S 323.805 3.38196 -4.15191 0
M  V30 3481 C 324.961 4.78616 -4.03333 0
M  V30 3482 H 325.194 1.69961 -2.43928 0
M  V30 3483 H 322.727 0.782611 -1.33096 0
M  V30 3484 H 324.685 3.90398 -1.26884 0
M  V30 3485 H 323.346 3.1144 -0.40794 0
M  V30 3486 H 322.539 4.43924 -2.38637 0
M  V30 3487 H 322.141 2.71541 -2.5718 0
M  V30 3488 H 324.433 5.68463 -3.68587 0
M  V30 3489 H 325.376 4.97767 -5.03621 0
M  V30 3490 H 325.784 4.54381 -3.34959 0
M  V30 3491 N 325.182 1.32811 0.848464 0
M  V30 3492 C 326.43 1.23479 1.59991 0
M  V30 3493 C 326.751 -0.201853 1.93952 0
M  V30 3494 O 326.021 -1.12818 1.60153 0
M  V30 3495 H 324.601 0.454034 0.593179 0
M  V30 3496 H 327.263 1.66412 1.01455 0
M  V30 3497 H 326.359 1.82178 2.53412 0
M  V30 3498 N 326.66 -1.06551 1.16123 0
M  V30 3499 C 327.607 -2.13961 0.865414 0
M  V30 3500 C 328.577 -1.65066 -0.185055 0
M  V30 3501 O 329.762 -1.90732 -0.05083 0
M  V30 3502 C 326.902 -3.43113 0.369776 0
M  V30 3503 C 326.015 -4.05756 1.48276 0
M  V30 3504 C 325.15 -5.22773 0.942414 0
M  V30 3505 C 324.189 -5.77395 2.03179 0
M  V30 3506 N 323.326 -6.85731 1.50721 0
M  V30 3507 H 328.166 -2.38605 1.78527 0
M  V30 3508 H 325.703 -1.17072 0.890646 0
M  V30 3509 H 327.661 -4.17151 0.0640643 0
M  V30 3510 H 326.291 -3.18695 -0.513143 0
M  V30 3511 H 325.343 -3.29292 1.9045 0
M  V30 3512 H 326.655 -4.42351 2.30493 0
M  V30 3513 H 325.809 -6.03827 0.589729 0
M  V30 3514 H 324.548 -4.87618 0.0895191 0
M  V30 3515 H 323.553 -4.94981 2.3932 0
M  V30 3516 H 324.778 -6.14603 2.8886 0
M  V30 3517 H 322.724 -6.52499 0.676811 0
M  V30 3518 H 322.641 -7.21254 2.26557 0
M  V30 3519 H 323.909 -7.7047 1.18303 0
M  V30 3520 N 328.138 -0.959301 -1.25041 0
M  V30 3521 C 329.384 -0.617525 -1.9317 0
M  V30 3522 C 329.717 0.843981 -1.74902 0
M  V30 3523 O 328.992 1.60615 -1.09696 0
M  V30 3524 C 329.275 -0.982736 -3.46431 0
M  V30 3525 C 329.128 -2.50032 -3.73904 0
M  V30 3526 C 330.447 -0.511176 -4.37121 0
M  V30 3527 H 327.566 -0.22582 -0.701552 0
M  V30 3528 H 330.208 -1.19679 -1.4757 0
M  V30 3529 H 328.358 -0.489806 -3.854 0
M  V30 3530 H 330.03 -3.06737 -3.44544 0
M  V30 3531 H 328.273 -2.93598 -3.19348 0
M  V30 3532 H 328.944 -2.70635 -4.81103 0
M  V30 3533 H 331.42 -0.934075 -4.0548 0
M  V30 3534 H 330.296 -0.795361 -5.43107 0
M  V30 3535 H 330.557 0.588834 -4.38161 0
M  V30 3536 N 329.616 1.39756 -0.72842 0
M  V30 3537 C 330.546 2.33289 -0.0991354 0
M  V30 3538 C 331.527 1.53568 0.731489 0
M  V30 3539 O 332.712 1.81987 0.677807 0
M  V30 3540 C 329.842 3.3763 0.813834 0
M  V30 3541 C 328.796 4.2791 0.0878663 0
M  V30 3542 C 328.122 5.22894 1.11741 0
M  V30 3543 C 329.422 5.11314 -1.06563 0
M  V30 3544 H 331.116 2.86163 -0.880408 0
M  V30 3545 H 328.662 1.37591 -0.424819 0
M  V30 3546 H 330.615 4.0201 1.26355 0
M  V30 3547 H 329.339 2.83181 1.62715 0
M  V30 3548 H 327.998 3.65 -0.342159 0
M  V30 3549 H 327.646 4.64744 1.92412 0
M  V30 3550 H 327.346 5.84143 0.636477 0
M  V30 3551 H 328.87 5.90151 1.56697 0
M  V30 3552 H 330.284 5.69076 -0.694671 0
M  V30 3553 H 328.681 5.81671 -1.47577 0
M  V30 3554 H 329.751 4.46534 -1.89038 0
M  V30 3555 N 331.094 0.475555 1.50254 0
M  V30 3556 C 332.51 0.12997 1.5907 0
M  V30 3557 C 332.71 -1.36385 1.48328 0
M  V30 3558 O 331.766 -2.13754 1.34407 0
M  V30 3559 C 333.079 0.684139 2.92814 0
M  V30 3560 C 334.627 0.647965 3.0622 0
M  V30 3561 C 335.102 1.17975 4.42545 0
M  V30 3562 N 336.593 1.13936 4.48969 0
M  V30 3563 C 337.328 1.52129 5.52851 0
M  V30 3564 N 336.824 1.97793 6.63965 0
M  V30 3565 N 338.617 1.43704 5.4342 0
M  V30 3566 H 330.768 1.44706 1.55479 0
M  V30 3567 H 333.031 0.598691 0.735033 0
M  V30 3568 H 332.737 1.73079 3.06164 0
M  V30 3569 H 332.611 0.130204 3.76975 0
M  V30 3570 H 334.998 -0.38979 2.92514 0
M  V30 3571 H 335.079 1.23876 2.23805 0
M  V30 3572 H 334.723 2.21616 4.57 0
M  V30 3573 H 334.653 0.565138 5.23559 0
M  V30 3574 H 337.144 0.804488 3.69238 0
M  V30 3575 H 337.457 2.25072 7.39299 0
M  V30 3576 H 335.802 2.01749 6.65073 0
M  V30 3577 H 338.993 1.07867 4.55502 0
M  V30 3578 H 339.166 1.73794 6.24259 0
M  V30 3579 N 332.573 -1.56217 0.208337 0
M  V30 3580 C 333.503 -2.22694 -0.702116 0
M  V30 3581 C 334.484 -1.19432 -1.2112 0
M  V30 3582 O 335.669 -1.47978 -1.25762 0
M  V30 3583 C 332.799 -2.8966 -1.9161 0
M  V30 3584 C 331.753 -3.9928 -1.5414 0
M  V30 3585 C 331.079 -4.53476 -2.83308 0
M  V30 3586 C 332.379 -5.17012 -0.741339 0
M  V30 3587 H 334.073 -2.99034 -0.147898 0
M  V30 3588 H 331.619 -1.43831 -0.0696951 0
M  V30 3589 H 333.572 -3.34852 -2.55836 0
M  V30 3590 H 332.296 -2.10746 -2.49507 0
M  V30 3591 H 330.955 -3.54799 -0.922668 0
M  V30 3592 H 330.603 -3.71308 -3.39322 0
M  V30 3593 H 330.303 -5.27451 -2.58976 0
M  V30 3594 H 331.827 -5.01378 -3.485 0
M  V30 3595 H 333.241 -5.58667 -1.28699 0
M  V30 3596 H 331.638 -5.97137 -0.595627 0
M  V30 3597 H 332.708 -4.8423 0.254851 0
M  V30 3598 N 334.051 0.0651679 -1.57465 0
M  V30 3599 C 334.999 1.09542 -2.05191 0
M  V30 3600 C 335.993 1.39675 -0.958509 0
M  V30 3601 O 337.199 1.39003 -1.14359 0
M  V30 3602 H 333.574 0.370623 -0.654326 0
M  V30 3603 H 335.545 0.666802 -2.90854 0
M  V30 3604 C 334.294 2.39881 -2.51699 0
M  V30 3605 H 333.617 2.17547 -3.3543 0
M  V30 3606 H 335.057 3.104 -2.88839 0
M  V30 3607 C 333.516 3.0631 -1.40271 0
M  V30 3608 O 334.046 3.94664 -0.748523 0
M  V30 3609 N 332.252 2.67041 -1.14618 0
M  V30 3610 H 331.799 1.95281 -1.67997 0
M  V30 3611 H 331.757 3.1181 -0.402688 0
M  V30 3612 N 335.529 1.53961 0.336706 0
M  V30 3613 C 336.459 1.85417 1.41925 0
M  V30 3614 C 337.44 0.709856 1.5458 0
M  V30 3615 O 338.625 0.962396 1.68676 0
M  V30 3616 C 335.755 2.06985 2.78881 0
M  V30 3617 C 334.709 3.22813 2.81026 0
M  V30 3618 C 334.035 3.29727 4.20932 0
M  V30 3619 C 335.335 4.60767 2.45949 0
M  V30 3620 H 337.029 2.76079 1.15848 0
M  V30 3621 H 334.575 1.32839 0.555859 0
M  V30 3622 H 336.528 2.27575 3.54665 0
M  V30 3623 H 335.252 1.13061 3.06406 0
M  V30 3624 H 333.911 3.0209 2.07695 0
M  V30 3625 H 333.559 2.33385 4.45579 0
M  V30 3626 H 333.259 4.07566 4.23277 0
M  V30 3627 H 334.783 3.52536 4.98549 0
M  V30 3628 H 336.197 4.81325 3.11446 0
M  V30 3629 H 334.594 5.4106 2.59566 0
M  V30 3630 H 335.664 4.6391 1.41122 0
M  V30 3631 N 337.007 -0.598083 1.45811 0
M  V30 3632 C 338.284 -1.35777 1.40797 0
M  V30 3633 C 338.664 -2.10935 0.083462 0
M  V30 3634 O 338.012 -2.08505 -0.934763 0
M  V30 3635 C 338.222 -2.29666 2.62783 0
M  V30 3636 C 339.57 -2.91977 3.08277 0
M  V30 3637 O 340.594 -2.39984 2.63223 0
M  V30 3638 O 339.453 -3.86376 3.86491 0
M  V30 3639 H 336.547 -0.609291 0.55919 0
M  V30 3640 H 339.093 -0.620379 1.57954 0
M  V30 3641 H 337.865 -1.73454 3.50756 0
M  V30 3642 H 337.488 -3.1077 2.48008 0
M  V30 3643 N 338.485 -1.33259 -0.841409 0
M  V30 3644 C 339.733 -1.24326 -1.59334 0
M  V30 3645 C 340.054 0.191564 -1.94057 0
M  V30 3646 O 339.324 1.11967 -1.60749 0
M  V30 3647 H 337.904 -0.457174 -0.590763 0
M  V30 3648 H 340.566 -1.66947 -1.00571 0
M  V30 3649 H 339.662 -1.8352 -2.52442 0
M  V30 3650 N 339.963 1.05934 -1.16686 0
M  V30 3651 C 341.188 1.83029 -0.975455 0
M  V30 3652 C 341.613 1.82096 0.471452 0
M  V30 3653 O 340.971 1.22443 1.33706 0
M  V30 3654 C 341.019 3.27372 -1.51195 0
M  V30 3655 O 340.123 4.06054 -0.720701 0
M  V30 3656 H 339.464 0.566194 -0.346872 0
M  V30 3657 H 341.994 1.33541 -1.55009 0
M  V30 3658 H 342.004 3.78186 -1.53099 0
M  V30 3659 H 340.679 3.27366 -2.56523 0
M  V30 3660 H 339.256 3.64812 -0.772458 0
M  V30 3661 N 341.441 0.965919 1.2453 0
M  V30 3662 C 342.69 0.622437 1.91856 0
M  V30 3663 C 343.003 -0.846006 1.76358 0
M  V30 3664 O 344.209 -1.29993 2.38357 0
M  V30 3665 C 342.665 1.0626 3.43856 0
M  V30 3666 C 342.273 2.55437 3.68043 0
M  V30 3667 C 344.017 0.792183 4.17043 0
M  V30 3668 C 341.924 2.93196 5.13605 0
M  V30 3669 H 340.854 0.229092 0.718354 0
M  V30 3670 H 343.505 1.17189 1.41206 0
M  V30 3671 H 341.887 0.441476 3.93531 0
M  V30 3672 H 343.061 3.22665 3.28974 0
M  V30 3673 H 341.376 2.8007 3.08139 0
M  V30 3674 H 343.973 1.05031 5.24283 0
M  V30 3675 H 344.316 -0.271584 4.15413 0
M  V30 3676 H 344.849 1.37419 3.73311 0
M  V30 3677 H 341.588 3.98636 5.20355 0
M  V30 3678 H 341.108 2.30651 5.53679 0
M  V30 3679 H 342.787 2.83004 5.81823 0
M  V30 3680 N 342.919 -1.39368 0.735821 0
M  V30 3681 C 344.33 -1.83313 0.354015 0
M  V30 3682 C 344.681 -1.61461 -1.11466 0
M  V30 3683 O 343.806 -1.10621 -1.85989 0
M  V30 3684 C 344.401 -3.32781 0.635769 0
M  V30 3685 C 342.96 -3.75142 0.307448 0
M  V30 3686 C 342.107 -2.62358 0.897974 0
M  V30 3687 H 345.058 -1.28349 0.933398 0
M  V30 3688 H 345.079 -3.80388 -0.0921773 0
M  V30 3689 H 344.591 -3.48654 1.70476 0
M  V30 3690 H 342.692 -3.64857 -0.755674 0
M  V30 3691 H 342.805 -4.72532 0.790583 0
M  V30 3692 H 341.169 -2.52624 0.324551 0
M  V30 3693 H 341.952 -2.81036 1.97164 0
M  V30 3694 N 344.397 -0.483516 -1.5 0
M  V30 3695 C 345.344 0.304164 -2.28787 0
M  V30 3696 C 346.314 0.976114 -1.34392 0
M  V30 3697 O 347.499 0.986156 -1.63339 0
M  V30 3698 C 344.639 1.37298 -3.16612 0
M  V30 3699 C 343.752 0.714561 -4.26049 0
M  V30 3700 C 342.887 1.76232 -5.01114 0
M  V30 3701 C 341.926 1.08483 -6.0241 0
M  V30 3702 N 341.063 2.076 -6.70706 0
M  V30 3703 H 345.903 -0.373981 -2.95644 0
M  V30 3704 H 343.44 -0.196275 -1.45785 0
M  V30 3705 H 345.398 2.00445 -3.65893 0
M  V30 3706 H 344.028 2.02012 -2.51776 0
M  V30 3707 H 343.08 -0.0297798 -3.80388 0
M  V30 3708 H 344.392 0.180383 -4.98474 0
M  V30 3709 H 343.546 2.46929 -5.54176 0
M  V30 3710 H 342.285 2.33033 -4.28424 0
M  V30 3711 H 341.29 0.363545 -5.48597 0
M  V30 3712 H 342.515 0.523551 -6.77079 0
M  V30 3713 H 340.461 2.63394 -6.00799 0
M  V30 3714 H 340.378 1.59201 -7.39047 0
M  V30 3715 H 341.646 2.77639 -7.2838 0
M  V30 3716 N 345.875 1.56104 -0.216619 0
M  V30 3717 C 347.152 1.89988 0.465165 0
M  V30 3718 C 347.532 1.13326 1.78102 0
M  V30 3719 O 346.88 0.241033 2.27225 0
M  V30 3720 C 347.09 3.42646 0.662939 0
M  V30 3721 C 348.438 4.13311 0.972602 0
M  V30 3722 O 349.462 3.48217 0.749901 0
M  V30 3723 O 348.321 5.28396 1.39499 0
M  V30 3724 H 345.415 0.78979 0.245276 0
M  V30 3725 H 347.961 1.67721 -0.258436 0
M  V30 3726 H 346.733 3.90399 -0.26543 0
M  V30 3727 H 346.356 3.70677 1.43821 0
M  V30 3728 N 347.353 -0.0568162 1.57498 0
M  V30 3729 C 348.301 -1.08452 2.05769 0
M  V30 3730 C 349.295 -1.39164 0.965903 0
M  V30 3731 O 350.501 -1.38395 1.15095 0
M  V30 3732 H 346.876 -0.367148 0.656282 0
M  V30 3733 H 348.847 -0.651368 2.91204 0
M  V30 3734 C 347.596 -2.38543 2.52968 0
M  V30 3735 H 346.919 -2.15765 3.36579 0
M  V30 3736 H 348.359 -3.08863 2.90481 0
M  V30 3737 C 346.818 -3.05562 1.41893 0
M  V30 3738 O 347.348 -3.94262 0.769442 0
M  V30 3739 N 345.554 -2.6643 1.16032 0
M  V30 3740 H 345.101 -1.94387 1.6903 0
M  V30 3741 H 345.059 -3.11593 0.419219 0
M  V30 3742 N 348.832 -1.54138 -0.328536 0
M  V30 3743 C 350.243 -1.63395 -0.903272 0
M  V30 3744 C 350.594 -0.524828 -1.8905 0
M  V30 3745 O 349.719 0.343068 -2.13663 0
M  V30 3746 C 350.314 -2.9618 -1.64507 0
M  V30 3747 C 348.873 -3.0765 -2.1686 0
M  V30 3748 C 348.02 -2.58933 -0.992416 0
M  V30 3749 H 350.971 -1.58344 -0.106253 0
M  V30 3750 H 350.992 -2.86061 -2.50897 0
M  V30 3751 H 350.504 -3.76884 -0.926302 0
M  V30 3752 H 348.605 -2.31611 -2.91868 0
M  V30 3753 H 348.718 -4.1337 -2.42202 0
M  V30 3754 H 347.082 -2.14706 -1.37016 0
M  V30 3755 H 347.865 -3.42089 -0.288041 0
M  V30 3756 N 350.31 0.590341 -1.46126 0
M  V30 3757 C 351.535 1.37991 -1.54833 0
M  V30 3758 C 351.96 1.87163 -0.187506 0
M  V30 3759 O 351.318 1.61133 0.831008 0
M  V30 3760 C 351.366 2.54867 -2.55098 0
M  V30 3761 O 350.47 3.56061 -2.08073 0
M  V30 3762 H 349.811 0.411265 -0.521303 0
M  V30 3763 H 352.341 0.716819 -1.91632 0
M  V30 3764 H 352.351 3.01886 -2.74461 0
M  V30 3765 H 351.026 2.18429 -3.53923 0
M  V30 3766 H 349.603 3.15574 -1.98664 0
M  V30 3767 N 351.788 1.33704 0.83433 0
M  V30 3768 C 353.035 1.25417 1.58987 0
M  V30 3769 C 353.363 -0.178869 1.93676 0
M  V30 3770 O 352.618 -1.13723 1.59265 0
M  V30 3771 C 352.917 2.07926 2.90692 0
M  V30 3772 C 352.583 3.57066 2.75345 0
M  V30 3773 C 351.245 3.97724 2.70867 0
M  V30 3774 C 353.597 4.51817 2.59828 0
M  V30 3775 C 350.925 5.31344 2.48778 0
M  V30 3776 C 353.277 5.85604 2.39272 0
M  V30 3777 C 351.941 6.25439 2.33199 0
M  V30 3778 H 351.211 0.458934 0.581774 0
M  V30 3779 H 353.858 1.65335 0.966261 0
M  V30 3780 H 352.163 1.608 3.57282 0
M  V30 3781 H 353.86 1.98868 3.48213 0
M  V30 3782 H 350.45 3.24785 2.79665 0
M  V30 3783 H 354.634 4.21311 2.62319 0
M  V30 3784 H 349.89 5.61241 2.42526 0
M  V30 3785 H 354.064 6.58623 2.2625 0
M  V30 3786 H 351.691 7.28914 2.15843 0
M  V30 3787 N 353.266 -1.05314 1.17247 0
M  V30 3788 C 354.214 -2.15137 0.884238 0
M  V30 3789 C 355.208 -1.68729 -0.15063 0
M  V30 3790 O 356.414 -1.8 -0.00366673 0
M  V30 3791 H 352.789 -0.702471 0.2684 0
M  V30 3792 H 354.76 -2.36652 1.81764 0
M  V30 3793 C 353.509 -3.45243 0.412659 0
M  V30 3794 H 352.832 -3.81352 1.20043 0
M  V30 3795 H 354.272 -4.23263 0.249858 0
M  V30 3796 C 352.731 -3.25487 -0.86948 0
M  V30 3797 O 353.261 -3.51938 -1.93655 0
M  V30 3798 N 351.467 -2.78875 -0.817147 0
M  V30 3799 H 351.014 -2.57549 0.0514211 0
M  V30 3800 H 350.972 -2.66036 -1.67547 0
M  V30 3801 N 354.744 -0.972509 -1.24016 0
M  V30 3802 C 355.992 -0.635776 -1.91839 0
M  V30 3803 C 356.313 0.832312 -1.76345 0
M  V30 3804 O 355.583 1.5946 -1.13795 0
M  V30 3805 H 354.163 -0.232157 -0.710009 0
M  V30 3806 H 356.825 -1.23462 -1.50809 0
M  V30 3807 H 355.921 -0.880545 -2.99421 0
M  V30 3808 N 356.222 1.38976 -0.743202 0
M  V30 3809 C 357.468 2.0064 -0.295189 0
M  V30 3810 C 357.801 1.5885 1.11716 0
M  V30 3811 O 357.076 0.821181 1.76315 0
M  V30 3812 C 357.359 3.578 -0.406318 0
M  V30 3813 C 357.212 4.09586 -1.85903 0
M  V30 3814 C 358.531 4.39616 0.206439 0
M  V30 3815 H 355.65 0.728935 -0.108733 0
M  V30 3816 H 358.292 1.65067 -0.940897 0
M  V30 3817 H 356.442 3.88235 0.143419 0
M  V30 3818 H 358.114 3.89837 -2.46627 0
M  V30 3819 H 356.357 3.6284 -2.3776 0
M  V30 3820 H 357.028 5.18708 -1.888 0
M  V30 3821 H 359.504 4.15273 -0.262283 0
M  V30 3822 H 358.38 5.48812 0.0983819 0
M  V30 3823 H 358.641 4.22754 1.2935 0
M  V30 3824 N 357.7 0.491464 1.49741 0
M  V30 3825 C 358.946 -0.0565092 2.02721 0
M  V30 3826 C 359.279 -1.37522 1.37118 0
M  V30 3827 O 358.554 -1.87866 0.503645 0
M  V30 3828 C 358.837 -0.219051 3.59433 0
M  V30 3829 C 358.69 1.12211 4.35579 0
M  V30 3830 C 360.009 -0.964157 4.29409 0
M  V30 3831 H 357.128 -0.0190627 0.736753 0
M  V30 3832 H 359.77 0.641021 1.7886 0
M  V30 3833 H 357.92 -0.813165 3.79895 0
M  V30 3834 H 359.592 1.75437 4.26637 0
M  V30 3835 H 357.835 1.71377 3.98513 0
M  V30 3836 H 358.506 0.961794 5.43556 0
M  V30 3837 H 360.982 -0.460378 4.13545 0
M  V30 3838 H 359.858 -1.04671 5.38828 0
M  V30 3839 H 360.119 -2.00563 3.93988 0
M  V30 3840 N 359.178 -1.55987 0.224894 0
M  V30 3841 C 360.403 -2.03232 -0.41369 0
M  V30 3842 C 360.828 -1.10359 -1.52323 0
M  V30 3843 O 360.186 -0.092395 -1.81064 0
M  V30 3844 C 360.234 -3.48682 -0.919405 0
M  V30 3845 O 359.338 -3.58947 -2.03054 0
M  V30 3846 H 358.679 -0.657428 -0.0931903 0
M  V30 3847 H 361.209 -2.01679 0.34451 0
M  V30 3848 H 361.219 -3.8907 -1.22835 0
M  V30 3849 H 359.894 -4.15761 -0.107339 0
M  V30 3850 H 358.471 -3.30448 -1.72796 0
M  V30 3851 N 360.656 0.0484629 -1.57525 0
M  V30 3852 C 361.606 1.06246 -2.01732 0
M  V30 3853 C 362.59 1.33155 -0.903245 0
M  V30 3854 O 363.782 1.33065 -1.16717 0
M  V30 3855 C 360.911 2.36943 -2.48421 0
M  V30 3856 C 359.997 2.13208 -3.6661 0
M  V30 3857 N 360.388 1.5947 -4.80003 0
M  V30 3858 C 358.686 2.43581 -3.7361 0
M  V30 3859 C 359.387 1.51092 -5.61735 0
M  V30 3860 N 358.363 1.9797 -5.0627 0
M  V30 3861 H 362.165 0.640675 -2.86832 0
M  V30 3862 H 359.679 0.255134 -1.60383 0
M  V30 3863 H 361.676 3.10374 -2.78341 0
M  V30 3864 H 360.336 2.79818 -1.64718 0
M  V30 3865 H 361.347 1.28008 -5.01831 0
M  V30 3866 H 358.024 2.89662 -3.00669 0
M  V30 3867 H 359.414 1.10199 -6.62801 0
M  V30 3868 N 362.134 1.5431 0.320358 0
M  V30 3869 C 363.383 1.7188 1.05546 0
M  V30 3870 C 363.696 0.501143 1.89071 0
M  V30 3871 O 364.902 0.558258 2.65699 0
M  V30 3872 C 363.358 3.04025 1.92605 0
M  V30 3873 C 362.966 4.33207 1.14176 0
M  V30 3874 C 364.71 3.30959 2.65832 0
M  V30 3875 C 362.617 5.56412 2.00399 0
M  V30 3876 H 361.547 0.640547 0.397763 0
M  V30 3877 H 364.198 1.80802 0.313522 0
M  V30 3878 H 362.58 2.89019 2.7071 0
M  V30 3879 H 363.754 4.58989 0.40819 0
M  V30 3880 H 362.069 4.13062 0.526165 0
M  V30 3881 H 364.666 4.20203 3.30656 0
M  V30 3882 H 365.009 2.48979 3.33639 0
M  V30 3883 H 365.542 3.46847 1.94787 0
M  V30 3884 H 362.281 6.41004 1.37094 0
M  V30 3885 H 361.801 5.34844 2.7148 0
M  V30 3886 H 363.48 5.92938 2.58908 0
M  V30 3887 N 363.613 -0.582584 1.46437 0
M  V30 3888 C 364.843 -1.36484 1.55099 0
M  V30 3889 C 365.251 -1.88233 0.191056 0
M  V30 3890 O 364.594 -1.6429 -0.821858 0
M  V30 3891 C 364.656 -2.588 2.49525 0
M  V30 3892 C 364.32 -2.28517 3.95764 0
M  V30 3893 C 365.317 -1.87346 4.84972 0
M  V30 3894 C 363.002 -2.40658 4.40896 0
M  V30 3895 C 364.996 -1.5871 6.17325 0
M  V30 3896 C 362.683 -2.11635 5.73284 0
M  V30 3897 C 363.681 -1.70725 6.61318 0
M  V30 3898 O 363.369 -1.42057 7.91249 0
M  V30 3899 H 363.101 -0.423297 0.527063 0
M  V30 3900 H 365.655 -0.715188 1.92547 0
M  V30 3901 H 363.885 -3.26571 2.07095 0
M  V30 3902 H 365.574 -3.20868 2.48593 0
M  V30 3903 H 366.34 -1.77481 4.5136 0
M  V30 3904 H 362.219 -2.71463 3.72598 0
M  V30 3905 H 365.763 -1.26704 6.85997 0
M  V30 3906 H 361.66 -2.21124 6.06444 0
M  V30 3907 H 362.428 -1.55901 8.03515 0
M  V30 3908 N 365.091 -1.34144 -0.827227 0
M  V30 3909 C 366.319 -1.29325 -1.61501 0
M  V30 3910 C 366.734 0.13354 -1.88327 0
M  V30 3911 O 366.091 1.0793 -1.47164 0
M  V30 3912 C 366.142 -2.07746 -2.95844 0
M  V30 3913 O 365.863 -3.4486 -2.70191 0
M  V30 3914 C 367.364 -2.10273 -3.90256 0
M  V30 3915 H 364.584 -0.445069 -0.50215 0
M  V30 3916 H 367.128 -1.76693 -1.02955 0
M  V30 3917 H 365.283 -1.6403 -3.5096 0
M  V30 3918 H 365.697 -3.85345 -3.55822 0
M  V30 3919 H 367.171 -2.69575 -4.81698 0
M  V30 3920 H 367.648 -1.096 -4.25305 0
M  V30 3921 H 368.254 -2.54059 -3.41078 0
M  V30 3922 N 366.569 1.04691 -1.17803 0
M  V30 3923 C 367.499 2.14494 -0.92275 0
M  V30 3924 C 368.48 1.69546 0.137179 0
M  V30 3925 O 369.665 1.94195 -0.0141108 0
M  V30 3926 C 366.795 3.44491 -0.440803 0
M  V30 3927 C 365.749 4.03031 -1.4405 0
M  V30 3928 C 365.075 5.28432 -0.81631 0
M  V30 3929 C 366.375 4.39932 -2.81527 0
M  V30 3930 H 368.069 2.36107 -1.84103 0
M  V30 3931 H 365.615 1.1347 -0.886599 0
M  V30 3932 H 367.568 4.2066 -0.249602 0
M  V30 3933 H 366.292 3.22546 0.513025 0
M  V30 3934 H 364.951 3.28937 -1.61853 0
M  V30 3935 H 364.599 5.02792 0.144511 0
M  V30 3936 H 364.299 5.68559 -1.48371 0
M  V30 3937 H 365.823 6.07284 -0.635496 0
M  V30 3938 H 367.237 5.07113 -2.67412 0
M  V30 3939 H 365.634 4.9109 -3.44892 0
M  V30 3940 H 366.704 3.50045 -3.35554 0
M  V30 3941 N 368.047 0.979072 1.23499 0
M  V30 3942 C 369.295 0.645941 1.91499 0
M  V30 3943 C 369.616 -0.822948 1.76784 0
M  V30 3944 O 368.886 -1.58854 1.14639 0
M  V30 3945 H 367.466 0.235919 0.708767 0
M  V30 3946 H 370.128 1.2426 1.50152 0
M  V30 3947 H 369.224 0.896411 2.9895 0
M  V30 3948 N 369.525 -1.3858 0.750561 0
M  V30 3949 C 370.475 -2.27795 0.0965949 0
M  V30 3950 C 371.459 -1.45048 -0.696411 0
M  V30 3951 O 372.651 -1.67812 -0.562863 0
M  V30 3952 C 369.78 -3.33894 -0.798085 0
M  V30 3953 C 368.866 -4.241 0.0016067 0
M  V30 3954 N 369.257 -4.95067 1.03647 0
M  V30 3955 C 367.555 -4.45429 -0.225674 0
M  V30 3956 C 368.256 -5.61489 1.52004 0
M  V30 3957 N 367.232 -5.37135 0.835874 0
M  V30 3958 H 371.034 -2.80125 0.889228 0
M  V30 3959 H 368.548 -1.51446 0.586323 0
M  V30 3960 H 370.545 -3.96693 -1.28219 0
M  V30 3961 H 369.205 -2.83123 -1.5897 0
M  V30 3962 H 370.216 -4.98104 1.41819 0
M  V30 3963 H 366.893 -4.05571 -0.990872 0
M  V30 3964 H 368.283 -6.28264 2.38188 0
M  V30 3965 N 371.003 -0.499398 -1.49478 0
M  V30 3966 C 372.419 -0.155261 -1.58843 0
M  V30 3967 C 372.619 1.34008 -1.50479 0
M  V30 3968 O 371.675 2.11589 -1.37791 0
M  V30 3969 C 372.988 -0.730636 -2.91689 0
M  V30 3970 C 374.536 -0.696599 -3.0515 0
M  V30 3971 C 375.011 -1.25001 -4.40612 0
M  V30 3972 N 376.502 -1.21064 -4.47099 0
M  V30 3973 C 377.237 -1.60905 -5.50361 0
M  V30 3974 N 376.733 -2.08331 -6.60735 0
M  V30 3975 N 378.526 -1.52331 -5.41065 0
M  V30 3976 H 370.677 -1.47162 -1.53158 0
M  V30 3977 H 372.94 -0.610309 -0.725415 0
M  V30 3978 H 372.646 -1.77928 -3.03372 0
M  V30 3979 H 372.52 -0.190161 -3.7672 0
M  V30 3980 H 374.907 0.343204 -2.93097 0
M  V30 3981 H 374.988 -1.2742 -2.21806 0
M  V30 3982 H 374.632 -2.28859 -4.53416 0
M  V30 3983 H 374.562 -0.64836 -5.22593 0
M  V30 3984 H 377.053 -0.863128 -3.67911 0
M  V30 3985 H 377.366 -2.36805 -7.35624 0
M  V30 3986 H 375.711 -2.12304 -6.6178 0
M  V30 3987 H 378.902 -1.151 -4.53729 0
M  V30 3988 H 379.075 -1.83704 -6.21415 0
M  V30 3989 N 372.481 1.55866 -0.233164 0
M  V30 3990 C 373.429 2.22176 0.68851 0
M  V30 3991 C 374.423 1.20487 1.19076 0
M  V30 3992 O 375.629 1.38536 1.14925 0
M  V30 3993 H 372.004 0.712511 0.240483 0
M  V30 3994 H 373.975 2.98212 0.105935 0
M  V30 3995 C 372.724 2.92446 1.88071 0
M  V30 3996 H 372.047 3.70458 1.50337 0
M  V30 3997 H 373.487 3.42226 2.50314 0
M  V30 3998 C 371.946 1.95555 2.74335 0
M  V30 3999 O 372.476 1.47986 3.73447 0
M  V30 4000 N 370.682 1.62953 2.40613 0
M  V30 4001 H 370.229 2.01831 1.60069 0
M  V30 4002 H 370.187 0.983886 2.98609 0
M  V30 4003 N 373.959 -0.0401083 1.57549 0
M  V30 4004 C 375.37 -0.588097 1.77196 0
M  V30 4005 C 375.721 -1.76209 0.862832 0
M  V30 4006 O 374.846 -2.16331 0.0548389 0
M  V30 4007 C 375.441 -1.07363 3.21339 0
M  V30 4008 C 374 -1.56723 3.42221 0
M  V30 4009 C 373.147 -0.50041 2.72747 0
M  V30 4010 H 376.098 0.186119 1.57605 0
M  V30 4011 H 376.119 -1.94143 3.27244 0
M  V30 4012 H 375.631 -0.218975 3.87482 0
M  V30 4013 H 373.732 -2.4441 2.81237 0
M  V30 4014 H 373.845 -1.62234 4.50796 0
M  V30 4015 H 372.209 -0.952894 2.36203 0
M  V30 4016 H 372.992 0.344599 3.41566 0
M  V30 4017 N 375.437 -1.54477 -0.31217 0
M  V30 4018 C 376.369 -1.81011 -1.40598 0
M  V30 4019 C 377.382 -0.692546 -1.47335 0
M  V30 4020 O 378.571 -0.969847 -1.49854 0
M  V30 4021 C 375.671 -1.92307 -2.79054 0
M  V30 4022 C 374.844 -3.22594 -2.95384 0
M  V30 4023 C 373.903 -3.24448 -4.1427 0
M  V30 4024 O 372.929 -3.98035 -4.06887 0
M  V30 4025 N 374.131 -2.49042 -5.24365 0
M  V30 4026 H 376.896 -2.75408 -1.18196 0
M  V30 4027 H 374.457 -1.53914 -0.502202 0
M  V30 4028 H 376.449 -1.90962 -3.56813 0
M  V30 4029 H 375.019 -1.04955 -2.94454 0
M  V30 4030 H 374.239 -3.36806 -2.04831 0
M  V30 4031 H 375.527 -4.08593 -3.03198 0
M  V30 4032 H 374.925 -1.88867 -5.33241 0
M  V30 4033 H 373.482 -2.53463 -6.005 0
M  V30 4034 N 376.915 0.57481 -1.46744 0
M  V30 4035 C 378.163 1.33009 -1.52161 0
M  V30 4036 C 378.484 1.94185 -0.178092 0
M  V30 4037 O 377.754 1.7899 0.796196 0
M  V30 4038 H 376.334 0.493873 -0.560445 0
M  V30 4039 H 378.996 0.672589 -1.82927 0
M  V30 4040 H 378.092 2.13273 -2.27862 0
M  V30 4041 N 378.394 1.34581 0.820102 0
M  V30 4042 C 379.324 1.29038 1.94606 0
M  V30 4043 C 380.305 0.1673 1.69275 0
M  V30 4044 O 381.49 0.360112 1.90832 0
M  V30 4045 C 378.62 1.04793 3.31113 0
M  V30 4046 C 377.574 2.13597 3.70891 0
M  V30 4047 C 376.9 1.74537 5.05412 0
M  V30 4048 C 378.2 3.55451 3.8269 0
M  V30 4049 H 379.894 2.23248 1.99501 0
M  V30 4050 H 377.44 1.0747 0.958449 0
M  V30 4051 H 379.393 0.995592 4.0947 0
M  V30 4052 H 378.117 0.0702565 3.26524 0
M  V30 4053 H 376.776 2.17905 2.9481 0
M  V30 4054 H 376.424 0.754226 4.97313 0
M  V30 4055 H 376.124 2.47361 5.32997 0
M  V30 4056 H 377.648 1.70803 5.86224 0
M  V30 4057 H 379.062 3.5354 4.51312 0
M  V30 4058 H 377.459 4.26922 4.21732 0
M  V30 4059 H 378.529 3.92587 2.84611 0
M  V30 4060 N 379.872 -1.04064 1.18357 0
M  V30 4061 C 380.835 -2.10243 0.912707 0
M  V30 4062 C 381.835 -1.60477 -0.101928 0
M  V30 4063 O 383.025 -1.73703 0.131517 0
M  V30 4064 C 380.157 -3.38893 0.369387 0
M  V30 4065 H 381.35 -2.35706 1.85426 0
M  V30 4066 H 378.903 -1.20489 0.995594 0
M  V30 4067 H 379.638 -3.19094 -0.578776 0
M  V30 4068 H 379.423 -3.76331 1.1008 0
M  V30 4069 H 380.913 -4.17128 0.198575 0
M  V30 4070 N 381.35 -0.985608 -1.22978 0
M  V30 4071 C 382.597 -0.657386 -1.91532 0
M  V30 4072 C 382.925 0.809707 -1.76845 0
M  V30 4073 O 382.18 1.60021 -1.12658 0
M  V30 4074 C 382.479 -1.00014 -3.43121 0
M  V30 4075 C 382.145 -2.4583 -3.77993 0
M  V30 4076 C 380.807 -2.85679 -3.87222 0
M  V30 4077 C 383.159 -3.40378 -3.94705 0
M  V30 4078 C 380.487 -4.19081 -4.10595 0
M  V30 4079 C 382.839 -4.73429 -4.1958 0
M  V30 4080 C 381.503 -5.1303 -4.27032 0
M  V30 4081 H 380.773 -0.240555 -0.700867 0
M  V30 4082 H 383.42 -1.24044 -1.45895 0
M  V30 4083 H 381.725 -0.335072 -3.90365 0
M  V30 4084 H 383.422 -0.724322 -3.94404 0
M  V30 4085 H 380.012 -2.13939 -3.71387 0
M  V30 4086 H 384.196 -3.10766 -3.8696 0
M  V30 4087 H 379.452 -4.49362 -4.14589 0
M  V30 4088 H 383.626 -5.46644 -4.31455 0
M  V30 4089 H 381.253 -6.16418 -4.44896 0
M  V30 4090 N 382.828 1.3818 -0.7579 0
M  V30 4091 C 384.056 2.04301 -0.326937 0
M  V30 4092 C 384.471 1.57163 1.0462 0
M  V30 4093 O 383.828 0.746626 1.66529 0
M  V30 4094 C 383.879 3.59846 -0.345363 0
M  V30 4095 O 383.6 4.05256 -1.66432 0
M  V30 4096 C 385.101 4.4319 0.098927 0
M  V30 4097 H 382.321 0.656443 -0.139012 0
M  V30 4098 H 384.865 1.76786 -1.02796 0
M  V30 4099 H 383.02 3.86182 0.306955 0
M  V30 4100 H 383.434 4.99709 -1.59345 0
M  V30 4101 H 384.908 5.51989 0.0348745 0
M  V30 4102 H 385.385 4.23947 1.14741 0
M  V30 4103 H 385.991 4.22051 -0.52468 0
M  V30 4104 N 384.306 0.507319 1.49211 0
M  V30 4105 C 385.717 0.0611118 1.866 0
M  V30 4106 C 386.068 -1.35488 1.41907 0
M  V30 4107 O 385.193 -2.0108 0.799726 0
M  V30 4108 C 385.788 0.104125 3.3864 0
M  V30 4109 C 384.347 -0.28677 3.75306 0
M  V30 4110 C 383.494 0.473893 2.73221 0
M  V30 4111 H 386.445 0.719775 1.41439 0
M  V30 4112 H 386.466 -0.689672 3.74198 0
M  V30 4113 H 385.978 1.13482 3.71138 0
M  V30 4114 H 384.079 -1.32046 3.48417 0
M  V30 4115 H 384.192 0.0370745 4.79086 0
M  V30 4116 H 382.556 -0.0770644 2.54583 0
M  V30 4117 H 383.339 1.50478 3.08563 0
M  V30 4118 N 385.784 -1.5574 0.241426 0
M  V30 4119 C 386.732 -2.22538 -0.676718 0
M  V30 4120 C 387.726 -1.21117 -1.18436 0
M  V30 4121 O 388.932 -1.39144 -1.14188 0
M  V30 4122 H 385.307 -0.713776 -0.236701 0
M  V30 4123 H 387.278 -2.98264 -0.0901187 0
M  V30 4124 C 386.027 -2.93439 -1.86518 0
M  V30 4125 H 385.35 -3.7125 -1.4837 0
M  V30 4126 H 386.79 -3.43549 -2.48495 0
M  V30 4127 C 385.249 -1.97008 -2.73294 0
M  V30 4128 O 385.779 -1.49965 -3.72657 0
M  V30 4129 N 383.985 -1.64227 -2.39745 0
M  V30 4130 H 383.532 -2.02677 -1.58996 0
M  V30 4131 H 383.49 -0.999708 -2.98083 0
M  V30 4132 N 387.262 0.0317525 -1.57568 0
M  V30 4133 C 388.51 0.721676 -1.88776 0
M  V30 4134 C 388.831 1.76039 -0.838772 0
M  V30 4135 O 388.101 1.95482 0.127935 0
M  V30 4136 H 386.681 0.269534 -0.696678 0
M  V30 4137 H 389.343 -0.00165879 -1.949 0
M  V30 4138 H 388.439 1.21293 -2.87566 0
M  V30 4139 N 388.74 1.54641 0.303973 0
M  V30 4140 C 389.687 1.85386 1.37479 0
M  V30 4141 C 390.657 0.702528 1.50512 0
M  V30 4142 O 391.842 0.950867 1.65418 0
M  V30 4143 C 388.982 2.10413 2.73533 0
M  V30 4144 C 388.095 3.38049 2.68974 0
M  V30 4145 C 387.23 3.52934 3.97002 0
M  V30 4146 C 386.269 4.74373 3.86829 0
M  V30 4147 N 385.406 4.8608 5.06627 0
M  V30 4148 H 390.246 2.76732 1.1056 0
M  V30 4149 H 387.783 1.37034 0.534805 0
M  V30 4150 H 389.741 2.22919 3.52652 0
M  V30 4151 H 388.371 1.22338 2.98719 0
M  V30 4152 H 387.423 3.3418 1.81736 0
M  V30 4153 H 388.735 4.27288 2.57346 0
M  V30 4154 H 387.889 3.65088 4.84557 0
M  V30 4155 H 386.628 2.61824 4.1146 0
M  V30 4156 H 385.633 4.62255 2.97658 0
M  V30 4157 H 386.858 5.66888 3.73918 0
M  V30 4158 H 384.804 3.97891 5.21554 0
M  V30 4159 H 384.721 5.69315 4.9741 0
M  V30 4160 H 385.989 5.02587 5.95841 0
M  V30 4161 N 390.218 -0.567019 1.47046 0
M  V30 4162 C 391.148 -1.68482 1.61667 0
M  V30 4163 C 392.129 -1.6358 0.466418 0
M  V30 4164 O 393.314 -1.81354 0.694574 0
M  V30 4165 C 390.444 -3.07124 1.62148 0
M  V30 4166 C 389.398 -3.26867 2.76301 0
M  V30 4167 C 388.724 -4.66196 2.61849 0
M  V30 4168 C 390.024 -3.13186 4.17986 0
M  V30 4169 H 391.718 -1.56502 2.5524 0
M  V30 4170 H 389.264 -0.751486 1.22836 0
M  V30 4171 H 391.217 -3.8516 1.70968 0
M  V30 4172 H 389.941 -3.2004 0.651287 0
M  V30 4173 H 388.6 -2.51237 2.66975 0
M  V30 4174 H 388.248 -4.75898 1.62879 0
M  V30 4175 H 387.948 -4.80356 3.38425 0
M  V30 4176 H 389.472 -5.46379 2.72584 0
M  V30 4177 H 390.886 -3.81049 4.2834 0
M  V30 4178 H 389.283 -3.3886 4.95272 0
M  V30 4179 H 390.353 -2.10057 4.3704 0
M  V30 4180 N 391.696 -1.35014 -0.812953 0
M  V30 4181 C 392.626 -1.30069 -1.93919 0
M  V30 4182 C 393.607 -0.176275 -1.69184 0
M  V30 4183 O 394.792 -0.370227 -1.90638 0
M  V30 4184 C 391.922 -1.06547 -3.30552 0
M  V30 4185 C 390.876 -2.15561 -3.69753 0
M  V30 4186 C 390.202 -1.77214 -5.04479 0
M  V30 4187 C 391.502 -3.57476 -3.808 0
M  V30 4188 H 393.196 -2.24303 -1.98314 0
M  V30 4189 H 390.742 -1.07977 -0.952736 0
M  V30 4190 H 392.695 -1.01729 -4.08937 0
M  V30 4191 H 391.419 -0.0875719 -3.26483 0
M  V30 4192 H 390.078 -2.19466 -2.9365 0
M  V30 4193 H 389.726 -0.780589 -4.96906 0
M  V30 4194 H 389.426 -2.50184 -5.31678 0
M  V30 4195 H 390.95 -1.7391 -5.8531 0
M  V30 4196 H 392.364 -3.55929 -4.4943 0
M  V30 4197 H 390.761 -4.29152 -4.19462 0
M  V30 4198 H 391.831 -3.94091 -2.82525 0
M  V30 4199 N 393.175 1.03435 -1.18907 0
M  V30 4200 C 394.107 2.1165 -0.879595 0
M  V30 4201 C 395.12 1.62316 0.125439 0
M  V30 4202 O 396.309 1.78201 -0.103245 0
M  V30 4203 C 393.409 3.37622 -0.294042 0
M  V30 4204 C 392.582 4.16166 -1.34629 0
M  V30 4205 C 391.641 5.20457 -0.775274 0
M  V30 4206 O 390.667 5.50379 -1.4516 0
M  V30 4207 N 391.869 5.78949 0.424126 0
M  V30 4208 H 394.634 2.38791 -1.81105 0
M  V30 4209 H 392.195 1.19681 -1.09032 0
M  V30 4210 H 394.187 4.04572 0.101679 0
M  V30 4211 H 392.757 3.07873 0.541575 0
M  V30 4212 H 391.977 3.44444 -1.91707 0
M  V30 4213 H 393.265 4.65432 -2.05549 0
M  V30 4214 H 392.663 5.56948 0.991209 0
M  V30 4215 H 391.22 6.47334 0.761691 0
M  V30 4216 N 394.653 0.992116 1.22453 0
M  V30 4217 C 395.878 0.685644 1.95739 0
M  V30 4218 C 396.303 -0.743 1.72804 0
M  V30 4219 O 395.661 -1.50778 1.00676 0
M  V30 4220 C 395.709 0.996293 3.46564 0
M  V30 4221 O 394.813 0.0945512 4.12292 0
M  V30 4222 H 394.154 0.256694 0.612376 0
M  V30 4223 H 396.684 1.32888 1.5557 0
M  V30 4224 H 396.694 0.93781 3.97076 0
M  V30 4225 H 395.369 2.03733 3.62582 0
M  V30 4226 H 393.946 0.208451 3.72317 0
M  V30 4227 N 396.131 -1.37776 0.765217 0
M  V30 4228 C 397.041 -2.34135 0.147666 0
M  V30 4229 C 398.057 -1.59854 -0.687215 0
M  V30 4230 O 399.233 -1.91983 -0.608659 0
M  V30 4231 C 396.298 -3.3901 -0.72617 0
M  V30 4232 C 395.359 -4.2912 0.124417 0
M  V30 4233 C 394.592 -5.28986 -0.707807 0
M  V30 4234 O 394.815 -5.36205 -1.94525 0
M  V30 4235 O 393.749 -6.01779 -0.12046 0
M  V30 4236 H 397.575 -2.88664 0.943758 0
M  V30 4237 H 395.16 -1.39824 0.526277 0
M  V30 4238 H 397.042 -4.03195 -1.22524 0
M  V30 4239 H 395.717 -2.86819 -1.50056 0
M  V30 4240 H 394.624 -3.68057 0.669696 0
M  V30 4241 H 395.957 -4.84598 0.861736 0
M  V30 4242 N 397.609 -0.515225 -1.4894 0
M  V30 4243 C 398.541 0.292481 -2.27326 0
M  V30 4244 C 399.554 0.917838 -1.3446 0
M  V30 4245 O 400.743 0.798772 -1.5963 0
M  V30 4246 C 397.843 1.42803 -3.07344 0
M  V30 4247 C 397.016 0.907347 -4.27885 0
M  V30 4248 C 396.075 1.92222 -4.89834 0
M  V30 4249 O 395.101 1.48506 -5.49486 0
M  V30 4250 N 396.303 3.25355 -4.80754 0
M  V30 4251 H 399.068 -0.379721 -2.97285 0
M  V30 4252 H 396.629 -0.348638 -1.58102 0
M  V30 4253 H 398.621 2.10481 -3.45658 0
M  V30 4254 H 397.191 2.00414 -2.39902 0
M  V30 4255 H 396.411 0.0550218 -3.94162 0
M  V30 4256 H 397.699 0.538108 -5.05946 0
M  V30 4257 H 397.097 3.6355 -4.33414 0
M  V30 4258 H 395.654 3.88707 -5.23211 0
M  V30 4259 N 399.087 1.5561 -0.249682 0
M  V30 4260 C 400.335 1.98618 0.373548 0
M  V30 4261 C 400.656 1.13919 1.58264 0
M  V30 4262 O 399.926 0.222637 1.94631 0
M  V30 4263 H 398.506 0.733571 0.141006 0
M  V30 4264 H 401.168 1.91748 -0.349117 0
M  V30 4265 H 400.264 3.04584 0.680796 0
M  V30 4266 N 400.565 -0.0233959 1.57583 0
M  V30 4267 C 401.976 -0.56927 1.77809 0
M  V30 4268 C 402.327 -1.75284 0.881472 0
M  V30 4269 O 401.452 -2.1626 0.0777805 0
M  V30 4270 C 402.047 -1.03949 3.22459 0
M  V30 4271 C 400.606 -1.53084 3.43864 0
M  V30 4272 C 399.753 -0.471454 2.73263 0
M  V30 4273 H 402.704 0.202825 1.57399 0
M  V30 4274 H 402.725 -1.90661 3.29285 0
M  V30 4275 H 402.237 -0.177865 3.87692 0
M  V30 4276 H 400.338 -2.41414 2.83814 0
M  V30 4277 H 400.451 -1.57443 4.52491 0
M  V30 4278 H 398.815 -0.927788 2.37201 0
M  V30 4279 H 399.598 0.380808 3.41181 0
M  V30 4280 N 402.043 -1.548 -0.295768 0
M  V30 4281 C 402.991 -1.86874 -1.38495 0
M  V30 4282 C 403.985 -0.742938 -1.52239 0
M  V30 4283 O 405.191 -0.926999 -1.54294 0
M  V30 4284 H 401.566 -0.592786 -0.462719 0
M  V30 4285 H 403.537 -2.77904 -1.08682 0
M  V30 4286 C 402.286 -2.13732 -2.74252 0
M  V30 4287 H 401.609 -2.99835 -2.64459 0
M  V30 4288 H 403.049 -2.4011 -3.49461 0
M  V30 4289 C 401.508 -0.937539 -3.23592 0
M  V30 4290 O 402.038 -0.160665 -4.01379 0
M  V30 4291 N 400.244 -0.741478 -2.80981 0
M  V30 4292 H 399.791 -1.37489 -2.1784 0
M  V30 4293 H 399.749 0.0597103 -3.14343 0
M  V30 4294 N 403.521 0.559213 -1.47345 0
M  V30 4295 C 404.746 1.34676 -1.57725 0
M  V30 4296 C 405.171 1.86723 -0.227164 0
M  V30 4297 O 404.529 1.6286 0.796642 0
M  V30 4298 C 404.577 2.49399 -2.60447 0
M  V30 4299 O 403.681 3.51567 -2.15578 0
M  V30 4300 H 403.022 0.400115 -0.52991 0
M  V30 4301 H 405.552 0.676009 -1.93109 0
M  V30 4302 H 405.562 2.95996 -2.80803 0
M  V30 4303 H 404.237 2.10873 -3.58477 0
M  V30 4304 H 402.814 3.11289 -2.05313 0
M  V30 4305 N 404.999 1.35443 0.805782 0
M  V30 4306 C 406.276 1.19325 1.54987 0
M  V30 4307 C 406.656 -0.227294 2.09873 0
M  V30 4308 O 406.004 -1.2309 1.92512 0
M  V30 4309 C 406.214 2.26196 2.65775 0
M  V30 4310 C 407.562 2.62043 3.34094 0
M  V30 4311 O 408.586 2.25115 2.76046 0
M  V30 4312 O 407.445 3.25542 4.38958 0
M  V30 4313 H 404.539 0.463623 0.684823 0
M  V30 4314 H 407.085 1.47127 0.845674 0
M  V30 4315 H 405.857 3.21471 2.23096 0
M  V30 4316 H 405.48 1.99667 3.43829 0
M  V30 4317 N 406.477 -1.02803 1.19454 0
M  V30 4318 C 407.754 -1.73299 0.907013 0
M  V30 4319 C 408.134 -2.02772 -0.587086 0
M  V30 4320 O 407.482 -1.68304 -1.54551 0
M  V30 4321 C 407.692 -3.00912 1.76785 0
M  V30 4322 C 409.04 -3.74403 2.00268 0
M  V30 4323 O 410.064 -3.10841 1.73943 0
M  V30 4324 O 408.923 -4.88675 2.4466 0
M  V30 4325 H 406.017 -0.754727 0.338106 0
M  V30 4326 H 408.563 -1.08754 1.30271 0
M  V30 4327 H 407.335 -2.75366 2.7801 0
M  V30 4328 H 406.958 -3.73197 1.37149 0
M  V30 4329 N 407.956 -0.998596 -1.21925 0
M  V30 4330 C 408.866 -0.562736 -2.27751 0
M  V30 4331 C 409.882 0.391203 -1.69545 0
M  V30 4332 O 411.058 0.256625 -1.99758 0
M  V30 4333 C 408.123 0.11012 -3.46525 0
M  V30 4334 C 407.184 -0.887495 -4.20026 0
M  V30 4335 C 406.417 -0.246654 -5.3313 0
M  V30 4336 O 406.64 0.958088 -5.62296 0
M  V30 4337 O 405.574 -0.954374 -5.94286 0
M  V30 4338 H 409.4 -1.44329 -2.67213 0
M  V30 4339 H 406.985 -0.767135 -1.28201 0
M  V30 4340 H 408.867 0.486756 -4.18579 0
M  V30 4341 H 407.542 0.965154 -3.08976 0
M  V30 4342 H 406.449 -1.31517 -3.5022 0
M  V30 4343 H 407.782 -1.71191 -4.6147 0
M  V30 4344 N 409.434 1.37368 -0.772513 0
M  V30 4345 C 410.683 1.98918 -0.333861 0
M  V30 4346 C 410.996 1.62017 1.09589 0
M  V30 4347 O 412.202 2.16676 1.63596 0
M  V30 4348 C 410.658 3.55735 -0.545971 0
M  V30 4349 C 410.266 4.01573 -1.98603 0
M  V30 4350 C 412.01 4.24156 -0.170979 0
M  V30 4351 C 409.917 5.51102 -2.1457 0
M  V30 4352 H 408.847 0.744214 -0.121085 0
M  V30 4353 H 411.498 1.56888 -0.95175 0
M  V30 4354 H 409.88 3.95748 0.141387 0
M  V30 4355 H 411.054 3.72803 -2.7084 0
M  V30 4356 H 409.369 3.45937 -2.31769 0
M  V30 4357 H 411.966 5.34024 -0.26878 0
M  V30 4358 H 412.309 4.06917 0.878855 0
M  V30 4359 H 412.842 3.89447 -0.810914 0
M  V30 4360 H 409.581 5.73268 -3.17875 0
M  V30 4361 H 409.101 5.81554 -1.46817 0
M  V30 4362 H 410.78 6.17083 -1.94468 0
M  V30 4363 N 410.912 0.523116 1.48665 0
M  V30 4364 C 411.86 -0.256859 2.31177 0
M  V30 4365 C 412.854 -0.94199 1.40794 0
M  V30 4366 O 414.06 -0.867157 1.57735 0
M  V30 4367 H 410.435 -0.1017 0.745091 0
M  V30 4368 H 412.406 0.458739 2.94853 0
M  V30 4369 C 411.155 -1.29503 3.22683 0
M  V30 4370 H 410.478 -0.777248 3.92172 0
M  V30 4371 H 411.918 -1.81233 3.83315 0
M  V30 4372 C 410.377 -2.32501 2.43813 0
M  V30 4373 O 410.907 -3.3881 2.15803 0
M  V30 4374 N 409.113 -2.05538 2.05432 0
M  V30 4375 H 408.66 -1.19104 2.28412 0
M  V30 4376 H 408.618 -2.74676 1.52973 0
M  V30 4377 N 412.39 -1.55475 0.257931 0
M  V30 4378 C 413.32 -2.24815 -0.630912 0
M  V30 4379 C 414.301 -1.23224 -1.17259 0
M  V30 4380 O 415.486 -1.51904 -1.20991 0
M  V30 4381 C 412.616 -2.95609 -1.82298 0
M  V30 4382 C 411.57 -4.03982 -1.41359 0
M  V30 4383 C 410.896 -4.6226 -2.68738 0
M  V30 4384 C 412.196 -5.19109 -0.57648 0
M  V30 4385 H 413.89 -2.99354 -0.0526878 0
M  V30 4386 H 411.436 -1.4398 -0.023901 0
M  V30 4387 H 413.389 -3.42822 -2.45054 0
M  V30 4388 H 412.113 -2.18577 -2.42676 0
M  V30 4389 H 410.772 -3.57555 -0.809324 0
M  V30 4390 H 410.42 -3.81915 -3.27338 0
M  V30 4391 H 410.12 -5.35424 -2.42065 0
M  V30 4392 H 411.644 -5.12212 -3.32372 0
M  V30 4393 H 413.058 -5.62479 -1.10861 0
M  V30 4394 H 411.455 -5.98729 -0.405351 0
M  V30 4395 H 412.525 -4.83174 0.408776 0
M  V30 4396 N 413.868 0.0150385 -1.57593 0
M  V30 4397 C 415.117 0.702115 -1.89085 0
M  V30 4398 C 415.43 1.75764 -0.858277 0
M  V30 4399 O 416.636 2.49829 -1.0629 0
M  V30 4400 C 415.092 1.29992 -3.35604 0
M  V30 4401 C 414.7 0.280007 -4.47124 0
M  V30 4402 C 416.444 1.96606 -3.76227 0
M  V30 4403 C 414.351 0.886949 -5.84711 0
M  V30 4404 H 413.281 0.265997 -0.705522 0
M  V30 4405 H 415.932 -0.0430408 -1.8345 0
M  V30 4406 H 414.314 2.09525 -3.36029 0
M  V30 4407 H 415.488 -0.489631 -4.58191 0
M  V30 4408 H 413.803 -0.284835 -4.15425 0
M  V30 4409 H 416.4 2.42893 -4.76347 0
M  V30 4410 H 416.743 2.79024 -3.08952 0
M  V30 4411 H 417.276 1.23828 -3.78036 0
M  V30 4412 H 414.015 0.101876 -6.55421 0
M  V30 4413 H 413.535 1.6261 -5.77337 0
M  V30 4414 H 415.214 1.39011 -6.3189 0
M  V30 4415 N 415.346 1.54954 0.287554 0
M  V30 4416 C 416.592 1.75132 1.02257 0
M  V30 4417 C 416.925 0.542858 1.86458 0
M  V30 4418 O 416.2 -0.459856 1.88986 0
M  V30 4419 C 416.483 3.04812 1.91733 0
M  V30 4420 C 416.336 4.35985 1.10622 0
M  V30 4421 C 417.655 3.30438 2.90687 0
M  V30 4422 H 414.774 0.637194 0.370341 0
M  V30 4423 H 417.416 1.87678 0.296111 0
M  V30 4424 H 415.566 2.94247 2.53675 0
M  V30 4425 H 417.238 4.58487 0.508636 0
M  V30 4426 H 415.481 4.31865 0.409271 0
M  V30 4427 H 416.152 5.23017 1.76513 0
M  V30 4428 H 418.628 3.40701 2.38877 0
M  V30 4429 H 417.504 4.22467 3.50447 0
M  V30 4430 H 417.765 2.49377 3.65053 0
M  V30 4431 N 416.824 -0.551391 1.4764 0
M  V30 4432 C 417.771 -1.65796 1.60563 0
M  V30 4433 C 418.741 -1.59932 0.448428 0
M  V30 4434 O 419.926 -1.78679 0.669222 0
M  V30 4435 C 417.066 -3.04108 1.63133 0
M  V30 4436 C 416.179 -3.20365 2.89811 0
M  V30 4437 C 415.314 -4.49109 2.8368 0
M  V30 4438 C 414.353 -4.58819 4.05156 0
M  V30 4439 N 413.49 -5.78926 3.97227 0
M  V30 4440 H 418.33 -1.54088 2.5507 0
M  V30 4441 H 415.867 -0.75052 1.26513 0
M  V30 4442 H 417.825 -3.84207 1.62606 0
M  V30 4443 H 416.455 -3.14637 0.721341 0
M  V30 4444 H 415.507 -2.33659 3.00179 0
M  V30 4445 H 416.819 -3.23402 3.79753 0
M  V30 4446 H 415.973 -5.37475 2.81434 0
M  V30 4447 H 414.712 -4.4856 1.91431 0
M  V30 4448 H 413.717 -3.68864 4.077 0
M  V30 4449 H 414.942 -4.61124 4.98539 0
M  V30 4450 H 412.888 -5.79314 3.07785 0
M  V30 4451 H 412.805 -5.83367 4.80853 0
M  V30 4452 H 414.073 -6.69637 3.99007 0
M  V30 4453 N 418.302 -1.35869 -0.798587 0
M  V30 4454 C 419.55 -1.29332 -1.55298 0
M  V30 4455 C 419.871 0.129729 -1.94568 0
M  V30 4456 O 419.141 1.06796 -1.6423 0
M  V30 4457 H 417.721 -0.475737 -0.57592 0
M  V30 4458 H 420.383 -1.70062 -0.952093 0
M  V30 4459 H 419.479 -1.91458 -2.46476 0
M  V30 4460 N 419.78 1.02168 -1.19998 0
M  V30 4461 C 421.028 1.75338 -1.00504 0
M  V30 4462 C 421.349 1.89387 0.464506 0
M  V30 4463 O 420.619 1.43268 1.33608 0
M  V30 4464 H 419.199 0.649564 -0.368885 0
M  V30 4465 H 421.861 1.23205 -1.51018 0
M  V30 4466 H 420.957 2.75892 -1.45912 0
M  V30 4467 N 421.258 1.00505 1.21394 0
M  V30 4468 C 422.206 0.558623 2.25792 0
M  V30 4469 C 423.2 -0.396848 1.64686 0
M  V30 4470 O 424.406 -0.268035 1.77993 0
M  V30 4471 H 420.781 0.1623 0.734277 0
M  V30 4472 H 422.752 1.4503 2.60785 0
M  V30 4473 C 421.501 -0.0989574 3.47559 0
M  V30 4474 H 420.824 0.627225 3.94849 0
M  V30 4475 H 422.264 -0.3746 4.22342 0
M  V30 4476 C 420.723 -1.33817 3.09184 0
M  V30 4477 O 421.253 -2.43252 3.19674 0
M  V30 4478 N 419.459 -1.21793 2.63846 0
M  V30 4479 H 419.006 -0.32746 2.5551 0
M  V30 4480 H 418.964 -2.04809 2.38539 0
M  V30 4481 N 422.737 -1.36956 0.779787 0
M  V30 4482 C 423.967 -2.03459 0.358877 0
M  V30 4483 C 424.375 -1.58939 -1.02641 0
M  V30 4484 O 423.718 -0.769777 -1.66794 0
M  V30 4485 C 423.78 -3.5796 0.332393 0
M  V30 4486 C 423.444 -4.25644 1.66362 0
M  V30 4487 C 424.441 -4.49205 2.61746 0
M  V30 4488 C 422.126 -4.63313 1.94027 0
M  V30 4489 C 424.12 -5.09503 3.82996 0
M  V30 4490 C 421.807 -5.2333 3.15546 0
M  V30 4491 C 422.805 -5.46363 4.0985 0
M  V30 4492 O 422.493 -6.05122 5.29228 0
M  V30 4493 H 422.225 -0.659767 0.147254 0
M  V30 4494 H 424.779 -1.76111 1.05708 0
M  V30 4495 H 423.009 -3.84388 -0.422237 0
M  V30 4496 H 424.698 -4.05852 -0.0625389 0
M  V30 4497 H 425.464 -4.20508 2.41657 0
M  V30 4498 H 421.343 -4.44715 1.21448 0
M  V30 4499 H 424.887 -5.27397 4.56617 0
M  V30 4500 H 420.784 -5.51451 3.35517 0
M  V30 4501 H 421.552 -6.23595 5.30161 0
M  V30 4502 N 424.215 -0.530993 -1.48385 0
M  V30 4503 C 425.463 0.00273189 -2.021 0
M  V30 4504 C 425.784 1.34672 -1.41027 0
M  V30 4505 O 425.054 1.8724 -0.576012 0
M  V30 4506 H 423.634 0.00399774 -0.746989 0
M  V30 4507 H 426.296 -0.695054 -1.82085 0
M  V30 4508 H 425.392 0.11031 -3.11905 0
M  V30 4509 N 425.693 1.55336 -0.266172 0
M  V30 4510 C 426.939 2.00423 0.346714 0
M  V30 4511 C 427.294 1.15132 1.54151 0
M  V30 4512 O 426.587 0.211289 1.90431 0
M  V30 4513 C 426.781 3.48606 0.787957 0
M  V30 4514 C 426.61 4.48236 -0.362535 0
M  V30 4515 C 425.38 4.98211 -0.843445 0
M  V30 4516 C 427.578 5.00199 -1.19603 0
M  V30 4517 N 425.56 5.81625 -1.96434 0
M  V30 4518 C 426.931 5.80973 -2.16497 0
M  V30 4519 C 428.986 4.82458 -1.2304 0
M  V30 4520 C 427.689 6.45896 -3.1656 0
M  V30 4521 C 429.715 5.48174 -2.21944 0
M  V30 4522 C 429.077 6.28751 -3.17571 0
M  V30 4523 H 425.176 0.776535 0.0922914 0
M  V30 4524 H 427.76 1.90792 -0.388154 0
M  V30 4525 H 425.931 3.58597 1.49207 0
M  V30 4526 H 427.663 3.80538 1.37742 0
M  V30 4527 H 424.418 4.71696 -0.424271 0
M  V30 4528 H 424.842 6.28025 -2.52813 0
M  V30 4529 H 429.484 4.19774 -0.504903 0
M  V30 4530 H 427.202 7.07734 -3.90048 0
M  V30 4531 H 430.788 5.36392 -2.25333 0
M  V30 4532 H 429.668 6.78703 -3.92851 0
M  V30 4533 N 427.171 -0.0066808 1.57599 0
M  V30 4534 C 428.582 -0.550379 1.78403 0
M  V30 4535 C 428.933 -1.74339 0.900014 0
M  V30 4536 O 428.058 -2.16166 0.100713 0
M  V30 4537 C 428.653 -1.00523 3.23544 0
M  V30 4538 C 427.212 -1.49428 3.45468 0
M  V30 4539 C 426.359 -0.442444 2.73748 0
M  V30 4540 H 429.31 0.219508 1.57175 0
M  V30 4541 H 429.331 -1.87157 3.31289 0
M  V30 4542 H 428.843 -0.136735 3.87859 0
M  V30 4543 H 426.944 -2.3839 2.86358 0
M  V30 4544 H 427.057 -1.52635 4.54136 0
M  V30 4545 H 425.421 -0.902578 2.38171 0
M  V30 4546 H 426.204 0.416973 3.40758 0
M  V30 4547 N 428.649 -1.55105 -0.279332 0
M  V30 4548 C 429.597 -1.88333 -1.36505 0
M  V30 4549 C 430.591 -0.759043 -1.51443 0
M  V30 4550 O 431.797 -0.943312 -1.53302 0
M  V30 4551 H 428.172 -0.59766 -0.456406 0
M  V30 4552 H 430.143 -2.79041 -1.05728 0
M  V30 4553 C 428.892 -2.16628 -2.7197 0
M  V30 4554 H 428.215 -3.02624 -2.61264 0
M  V30 4555 H 429.655 -2.43803 -3.46895 0
M  V30 4556 C 428.114 -0.971807 -3.22579 0
M  V30 4557 O 428.644 -0.203228 -4.01186 0
M  V30 4558 N 426.85 -0.771238 -2.80179 0
M  V30 4559 H 426.397 -1.39792 -2.1637 0
M  V30 4560 H 426.355 0.0263667 -3.14389 0
M  V30 4561 N 430.127 0.543554 -1.4793 0
M  V30 4562 C 431.373 1.30201 -1.55485 0
M  V30 4563 C 431.706 1.92925 -0.222201 0
M  V30 4564 O 430.981 1.78586 0.77053 0
M  V30 4565 C 431.264 2.40174 -2.68307 0
M  V30 4566 C 431.117 1.8223 -4.11233 0
M  V30 4567 C 432.436 3.42024 -2.76961 0
M  V30 4568 H 429.555 0.472036 -0.565996 0
M  V30 4569 H 432.197 0.606914 -1.80046 0
M  V30 4570 H 430.347 2.99463 -2.47495 0
M  V30 4571 H 432.019 1.27096 -4.43446 0
M  V30 4572 H 430.262 1.12832 -4.18869 0
M  V30 4573 H 430.933 2.61793 -4.85972 0
M  V30 4574 H 433.409 2.92672 -2.95774 0
M  V30 4575 H 432.285 4.16383 -3.57654 0
M  V30 4576 H 432.546 4.0173 -1.84568 0
M  V30 4577 N 431.605 1.3629 0.791371 0
M  V30 4578 C 432.568 1.30309 1.88553 0
M  V30 4579 C 433.568 0.211204 1.59407 0
M  V30 4580 O 434.758 0.465865 1.67855 0
M  V30 4581 C 431.89 1.01956 3.25297 0
M  V30 4582 H 433.083 2.27614 1.95273 0
M  V30 4583 H 430.636 1.21035 0.988953 0
M  V30 4584 H 431.371 0.050998 3.2426 0
M  V30 4585 H 431.156 1.80968 3.4784 0
M  V30 4586 H 432.646 1.0037 4.05359 0
M  V30 4587 N 433.083 -1.0153 1.20538 0
M  V30 4588 C 434.331 -1.74803 1.01432 0
M  V30 4589 C 434.652 -1.8963 -0.454456 0
M  V30 4590 O 433.922 -1.43975 -1.32846 0
M  V30 4591 H 432.502 -0.647598 0.372324 0
M  V30 4592 H 435.164 -1.22402 1.5167 0
M  V30 4593 H 434.26 -2.75114 1.47373 0
M  V30 4594 N 434.561 -1.01147 -1.20859 0
M  V30 4595 C 435.791 -0.715872 -1.93801 0
M  V30 4596 C 436.199 0.726592 -1.74692 0
M  V30 4597 O 435.542 1.50397 -1.05482 0
M  V30 4598 C 435.604 -0.965269 -3.46299 0
M  V30 4599 C 435.268 -2.39584 -3.89164 0
M  V30 4600 C 436.265 -3.3764 -3.95342 0
M  V30 4601 C 433.95 -2.73522 -4.21297 0
M  V30 4602 C 435.944 -4.67698 -4.33056 0
M  V30 4603 C 433.631 -4.03794 -4.58687 0
M  V30 4604 C 434.629 -5.00693 -4.64538 0
M  V30 4605 O 434.317 -6.28635 -5.01072 0
M  V30 4606 H 434.049 -0.262524 -0.622942 0
M  V30 4607 H 436.603 -1.35413 -1.54443 0
M  V30 4608 H 434.833 -0.269847 -3.85757 0
M  V30 4609 H 436.522 -0.662051 -4.00464 0
M  V30 4610 H 437.288 -3.12757 -3.70686 0
M  V30 4611 H 433.167 -1.9879 -4.15937 0
M  V30 4612 H 436.711 -5.4333 -4.37537 0
M  V30 4613 H 432.608 -4.28459 -4.82797 0
M  V30 4614 H 433.376 -6.32847 -5.19083 0
M  V30 4615 N 436.039 1.36541 -0.78704 0
M  V30 4616 C 436.986 2.30082 -0.181901 0
M  V30 4617 C 437.956 1.5186 0.672896 0
M  V30 4618 O 439.141 1.80374 0.622072 0
M  V30 4619 C 436.281 3.3835 0.679197 0
M  V30 4620 C 435.394 4.31565 -0.193882 0
M  V30 4621 C 434.529 5.26915 0.673364 0
M  V30 4622 C 433.568 6.11769 -0.201315 0
M  V30 4623 N 432.705 6.99315 0.624777 0
M  V30 4624 H 437.545 2.81248 -0.985064 0
M  V30 4625 H 435.082 1.38437 -0.497342 0
M  V30 4626 H 437.04 3.99767 1.19341 0
M  V30 4627 H 435.67 2.8851 1.44781 0
M  V30 4628 H 434.722 3.71323 -0.826044 0
M  V30 4629 H 436.034 4.91191 -0.867937 0
M  V30 4630 H 435.188 5.9361 1.25348 0
M  V30 4631 H 433.927 4.67737 1.38105 0
M  V30 4632 H 432.932 5.44039 -0.793849 0
M  V30 4633 H 434.157 6.73022 -0.906568 0
M  V30 4634 H 432.103 6.42648 1.3168 0
M  V30 4635 H 432.02 7.56 0.00835237 0
M  V30 4636 H 433.288 7.70382 1.18879 0
M  V30 4637 N 437.518 0.538854 1.48102 0
M  V30 4638 C 438.795 -0.0568108 1.95517 0
M  V30 4639 C 439.175 -1.50408 1.48124 0
M  V30 4640 O 438.523 -2.17133 0.711727 0
M  V30 4641 C 438.733 0.0696262 3.48931 0
M  V30 4642 C 440.081 -0.0851202 4.24515 0
M  V30 4643 O 441.105 -0.0037347 3.562 0
M  V30 4644 O 439.964 -0.257025 5.45895 0
M  V30 4645 H 437.058 -0.0743695 0.823649 0
M  V30 4646 H 439.604 0.604081 1.58584 0
M  V30 4647 H 438.376 1.07744 3.76174 0
M  V30 4648 H 437.999 -0.629714 3.92582 0
M  V30 4649 N 438.996 -1.55193 0.274407 0
M  V30 4650 C 440.273 -1.91584 -0.394331 0
M  V30 4651 C 440.653 -1.19858 -1.73774 0
M  V30 4652 O 440.001 -0.3252 -2.26174 0
M  V30 4653 C 440.211 -3.4487 -0.535311 0
M  V30 4654 C 441.559 -4.16636 -0.818534 0
M  V30 4655 O 442.583 -3.5076 -0.620146 0
M  V30 4656 O 441.442 -5.33209 -1.19792 0
M  V30 4657 H 438.536 -0.798349 -0.215794 0
M  V30 4658 H 441.082 -1.66646 0.320507 0
M  V30 4659 H 439.854 -3.89145 0.410141 0
M  V30 4660 H 439.477 -3.75759 -1.29964 0
M  V30 4661 N 440.474 -0.00167713 -1.576 0
M  V30 4662 C 441.699 0.69739 -1.95323 0
M  V30 4663 C 442.124 1.6642 -0.876706 0
M  V30 4664 O 441.482 1.80548 0.165007 0
M  V30 4665 C 441.53 1.40403 -3.32144 0
M  V30 4666 O 440.634 2.5185 -3.26566 0
M  V30 4667 H 439.975 0.185373 -0.637599 0
M  V30 4668 H 442.505 -0.0553665 -2.04525 0
M  V30 4669 H 442.515 1.76707 -3.67748 0
M  V30 4670 H 441.19 0.695167 -4.10049 0
M  V30 4671 H 439.767 2.17861 -3.0264 0
M  V30 4672 N 441.952 1.55251 0.271103 0
M  V30 4673 C 443.2 1.75599 1.00047 0
M  V30 4674 C 443.521 0.561188 1.8675 0
M  V30 4675 O 442.791 -0.423846 1.9126 0
M  V30 4676 H 441.371 0.647562 0.372387 0
M  V30 4677 H 444.033 1.92656 0.294876 0
M  V30 4678 H 443.129 2.65766 1.6363 0
M  V30 4679 N 443.43 -0.535701 1.48216 0
M  V30 4680 C 444.66 -1.3148 1.59363 0
M  V30 4681 C 445.068 -1.8753 0.250844 0
M  V30 4682 O 444.411 -1.66821 -0.769174 0
M  V30 4683 C 444.473 -2.50731 2.57632 0
M  V30 4684 C 444.137 -2.15811 4.02833 0
M  V30 4685 C 445.134 -1.71822 4.90686 0
M  V30 4686 C 442.819 -2.26509 4.48329 0
M  V30 4687 C 444.813 -1.3899 6.22062 0
M  V30 4688 C 442.5 -1.93289 5.79726 0
M  V30 4689 C 443.498 -1.49599 6.66415 0
M  V30 4690 O 443.186 -1.16812 7.95368 0
M  V30 4691 H 442.918 -0.406315 0.540263 0
M  V30 4692 H 445.472 -0.653569 1.94725 0
M  V30 4693 H 443.702 -3.19817 2.1738 0
M  V30 4694 H 445.391 -3.12797 2.58675 0
M  V30 4695 H 446.157 -1.63031 4.56778 0
M  V30 4696 H 442.036 -2.59471 3.81045 0
M  V30 4697 H 445.58 -1.04816 6.89681 0
M  V30 4698 H 441.477 -2.01718 6.13172 0
M  V30 4699 H 442.245 -1.30259 8.08069 0
M  V30 4700 N 444.908 -1.36708 -0.784132 0
M  V30 4701 C 445.871 -1.31307 -1.87859 0
M  V30 4702 C 446.871 -0.219654 -1.59293 0
M  V30 4703 O 448.061 -0.47476 -1.67606 0
M  V30 4704 C 445.193 -1.03679 -3.24751 0
M  V30 4705 H 446.386 -2.28647 -1.94064 0
M  V30 4706 H 443.939 -1.21558 -0.98252 0
M  V30 4707 H 444.674 -0.0681936 -3.24228 0
M  V30 4708 H 444.459 -1.82811 -3.46876 0
M  V30 4709 H 445.949 -1.02518 -4.04821 0
M  V30 4710 N 446.386 1.0089 -1.21074 0
M  V30 4711 C 447.616 1.77933 -1.04993 0
M  V30 4712 C 448.024 1.84847 0.403495 0
M  V30 4713 O 447.367 1.30606 1.29181 0
M  V30 4714 C 447.429 3.23541 -1.56722 0
M  V30 4715 C 447.093 3.40214 -3.05129 0
M  V30 4716 C 448.09 3.2881 -4.02716 0
M  V30 4717 C 445.775 3.65781 -3.44252 0
M  V30 4718 C 447.769 3.42732 -5.37414 0
M  V30 4719 C 445.456 3.79346 -4.79103 0
M  V30 4720 C 446.454 3.67827 -5.75493 0
M  V30 4721 O 446.142 3.80965 -7.07899 0
M  V30 4722 H 445.874 0.566157 -0.369381 0
M  V30 4723 H 448.428 1.27826 -1.60779 0
M  V30 4724 H 446.658 3.74766 -0.953285 0
M  V30 4725 H 448.347 3.82245 -1.36543 0
M  V30 4726 H 449.113 3.08986 -3.73835 0
M  V30 4727 H 444.992 3.73831 -2.69762 0
M  V30 4728 H 448.536 3.33658 -6.12632 0
M  V30 4729 H 444.433 3.98672 -5.07672 0
M  V30 4730 H 445.201 3.97937 -7.15254 0
M  V30 4731 N 447.864 1.01787 1.20321 0
M  V30 4732 C 448.827 0.593972 2.2137 0
M  V30 4733 C 449.827 -0.336553 1.57239 0
M  V30 4734 O 451.017 -0.125069 1.7375 0
M  V30 4735 C 448.149 -0.132433 3.40643 0
M  V30 4736 H 449.342 1.48791 2.60387 0
M  V30 4737 H 446.895 0.807803 1.33807 0
M  V30 4738 H 447.63 -1.04123 3.0713 0
M  V30 4739 H 447.415 0.53605 3.88418 0
M  V30 4740 H 448.905 -0.416314 4.1552 0
M  V30 4741 N 449.342 -1.36122 0.79427 0
M  V30 4742 C 450.29 -2.31871 0.184023 0
M  V30 4743 C 451.284 -1.56041 -0.659365 0
M  V30 4744 O 452.49 -1.71266 -0.553906 0
M  V30 4745 H 448.865 -0.750896 0.0407373 0
M  V30 4746 H 450.836 -2.80898 1.00693 0
M  V30 4747 C 449.585 -3.41324 -0.662813 0
M  V30 4748 H 448.908 -3.99793 -0.0231944 0
M  V30 4749 H 450.348 -4.10629 -1.05639 0
M  V30 4750 C 448.807 -2.83308 -1.82313 0
M  V30 4751 O 449.337 -2.75863 -2.91997 0
M  V30 4752 N 447.543 -2.40529 -1.63077 0
M  V30 4753 H 447.09 -2.46785 -0.738591 0
M  V30 4754 H 447.048 -2.02059 -2.40872 0
M  V30 4755 N 450.82 -0.546701 -1.47814 0
M  V30 4756 C 452.05 -0.0232519 -2.06587 0
M  V30 4757 C 452.458 1.2712 -1.40133 0
M  V30 4758 O 451.801 1.77091 -0.488305 0
M  V30 4759 C 451.863 0.254117 -3.58601 0
M  V30 4760 C 451.527 -0.949331 -4.47031 0
M  V30 4761 C 452.524 -1.85216 -4.85789 0
M  V30 4762 C 450.209 -1.16104 -4.88697 0
M  V30 4763 C 452.203 -2.95047 -5.65001 0
M  V30 4764 C 449.89 -2.26247 -5.67676 0
M  V30 4765 C 450.888 -3.1555 -6.05737 0
M  V30 4766 O 450.576 -4.23784 -6.83127 0
M  V30 4767 H 450.308 -0.0380082 -0.674931 0
M  V30 4768 H 452.862 -0.756631 -1.90956 0
M  V30 4769 H 451.092 1.04168 -3.72406 0
M  V30 4770 H 452.781 0.72167 -3.99433 0
M  V30 4771 H 453.547 -1.70061 -4.54207 0
M  V30 4772 H 449.426 -0.475159 -4.58545 0
M  V30 4773 H 452.97 -3.64778 -5.94628 0
M  V30 4774 H 448.867 -2.41379 -5.98671 0
M  V30 4775 H 449.635 -4.21701 -7.01506 0
M  V30 4776 N 452.299 1.55045 -0.282633 0
M  V30 4777 C 453.524 2.04628 0.337977 0
M  V30 4778 C 453.949 1.15937 1.48123 0
M  V30 4779 O 453.307 0.159532 1.80597 0
M  V30 4780 C 453.355 3.51854 0.78936 0
M  V30 4781 O 452.459 3.66236 1.89592 0
M  V30 4782 H 451.8 0.660434 0.0687261 0
M  V30 4783 H 454.33 2.00261 -0.419124 0
M  V30 4784 H 454.34 3.93361 1.08311 0
M  V30 4785 H 453.015 4.15873 -0.0470419 0
M  V30 4786 H 451.592 3.36633 1.60413 0
M  V30 4787 N 453.777 0.010035 1.57597 0
M  V30 4788 C 454.74 -0.963029 2.07986 0
M  V30 4789 C 455.74 -1.26619 0.991173 0
M  V30 4790 O 456.93 -1.2097 1.25347 0
M  V30 4791 C 454.062 -2.2851 2.52974 0
M  V30 4792 H 455.255 -0.526971 2.95234 0
M  V30 4793 H 452.808 -0.237639 1.54483 0
M  V30 4794 H 453.543 -2.76784 1.69 0
M  V30 4795 H 453.328 -2.07824 3.32493 0
M  V30 4796 H 454.818 -2.98294 2.9225 0
M  V30 4797 N 455.255 -1.55392 -0.262866 0
M  V30 4798 C 456.218 -1.88181 -1.30846 0
M  V30 4799 C 457.218 -0.757079 -1.41862 0
M  V30 4800 O 458.408 -1.02519 -1.40838 0
M  V30 4801 C 455.54 -2.09609 -2.68844 0
M  V30 4802 H 456.733 -2.81659 -1.02997 0
M  V30 4803 H 454.286 -1.48039 -0.501414 0
M  V30 4804 H 455.021 -1.18547 -3.01856 0
M  V30 4805 H 454.806 -2.91508 -2.62231 0
M  V30 4806 H 456.296 -2.36215 -3.44372 0
M  V30 4807 N 456.733 0.527833 -1.48498 0
M  V30 4808 C 457.696 1.61439 -1.62696 0
M  V30 4809 C 458.696 1.52824 -0.500136 0
M  V30 4810 O 459.886 1.56456 -0.765976 0
M  V30 4811 C 457.018 3.01063 -1.59918 0
M  V30 4812 H 458.211 1.50189 -2.59583 0
M  V30 4813 H 455.764 0.750055 -1.37127 0
M  V30 4814 H 456.499 3.17818 -0.645163 0
M  V30 4815 H 456.284 3.08725 -2.41726 0
M  V30 4816 H 457.774 3.80057 -1.73051 0
M  V30 4817 N 458.211 1.37122 0.776871 0
M  V30 4818 C 459.159 1.32549 1.91138 0
M  V30 4819 C 460.153 0.215119 1.68029 0
M  V30 4820 O 461.359 0.382852 1.75881 0
M  V30 4821 H 457.734 0.412952 0.62847 0
M  V30 4822 H 459.705 2.28332 1.92112 0
M  V30 4823 C 458.454 1.14422 3.28333 0
M  V30 4824 H 457.777 1.99115 3.46689 0
M  V30 4825 H 459.217 1.15272 4.0803 0
M  V30 4826 C 457.676 -0.150434 3.36564 0
M  V30 4827 O 458.206 -1.13584 3.85307 0
M  V30 4828 N 456.412 -0.19939 2.89915 0
M  V30 4829 H 455.959 0.603142 2.5044 0
M  V30 4830 H 455.917 -1.06526 2.95803 0
M  V30 4831 N 459.689 -1.00246 1.21608 0
M  V30 4832 C 460.636 -2.09073 0.977613 0
M  V30 4833 C 461.606 -1.65815 -0.097297 0
M  V30 4834 O 462.791 -1.90734 0.0503445 0
M  V30 4835 C 459.931 -3.40671 0.551133 0
M  V30 4836 C 459.044 -3.97326 1.69576 0
M  V30 4837 C 458.179 -5.17043 1.2182 0
M  V30 4838 C 457.218 -5.65813 2.335 0
M  V30 4839 N 456.355 -6.76778 1.86859 0
M  V30 4840 H 461.195 -2.28806 1.90924 0
M  V30 4841 H 458.732 -1.12186 0.951452 0
M  V30 4842 H 460.69 -4.16225 0.285097 0
M  V30 4843 H 459.32 -3.20967 -0.343489 0
M  V30 4844 H 458.372 -3.18734 2.07637 0
M  V30 4845 H 459.684 -4.29511 2.53617 0
M  V30 4846 H 458.838 -5.99852 0.908975 0
M  V30 4847 H 457.577 -4.86458 0.347869 0
M  V30 4848 H 456.582 -4.81599 2.65222 0
M  V30 4849 H 457.807 -5.98427 3.21033 0
M  V30 4850 H 455.753 -6.47994 1.02174 0
M  V30 4851 H 455.67 -7.08231 2.64471 0
M  V30 4852 H 456.938 -7.63116 1.58978 0
M  V30 4853 N 461.167 -1.02423 -1.1978 0
M  V30 4854 C 462.392 -0.7373 -1.93852 0
M  V30 4855 C 462.817 0.696923 -1.74713 0
M  V30 4856 O 462.175 1.48056 -1.04638 0
M  V30 4857 C 462.223 -1.08783 -3.438 0
M  V30 4858 O 461.327 -0.20383 -4.11896 0
M  V30 4859 H 460.668 -0.27284 -0.605355 0
M  V30 4860 H 463.198 -1.36966 -1.51992 0
M  V30 4861 H 463.208 -1.04276 -3.9445 0
M  V30 4862 H 461.883 -2.13274 -3.57053 0
M  V30 4863 H 460.46 -0.307091 -3.71633 0
M  V30 4864 N 462.645 1.35699 -0.801477 0
M  V30 4865 C 463.894 1.98165 -0.375979 0
M  V30 4866 C 464.207 1.64306 1.06127 0
M  V30 4867 O 465.413 2.20097 1.58964 0
M  V30 4868 C 463.869 3.54497 -0.621305 0
M  V30 4869 C 463.477 3.9727 -2.07076 0
M  V30 4870 C 465.221 4.23697 -0.26091 0
M  V30 4871 C 463.128 5.46427 -2.26211 0
M  V30 4872 H 462.058 0.741478 -0.136844 0
M  V30 4873 H 464.709 1.54834 -0.984814 0
M  V30 4874 H 463.091 3.95958 0.0574112 0
M  V30 4875 H 464.265 3.66974 -2.78687 0
M  V30 4876 H 462.58 3.40943 -2.39054 0
M  V30 4877 H 465.177 5.33334 -0.381994 0
M  V30 4878 H 465.52 4.0869 0.792344 0
M  V30 4879 H 466.053 3.87639 -0.893339 0
M  V30 4880 H 462.792 5.66396 -3.29963 0
M  V30 4881 H 462.312 5.78309 -1.59119 0
M  V30 4882 H 463.991 6.12819 -2.07513 0
M  V30 4883 N 464.123 0.554532 1.47522 0
M  V30 4884 C 465.07 -0.19466 2.29978 0
M  V30 4885 C 466.04 -0.910882 1.38896 0
M  V30 4886 O 467.225 -0.907102 1.67858 0
M  V30 4887 C 464.365 -1.22035 3.22802 0
M  V30 4888 C 463.478 -0.510474 4.28973 0
M  V30 4889 C 462.613 -1.52123 5.08952 0
M  V30 4890 C 461.652 -0.796173 6.069 0
M  V30 4891 N 460.789 -1.75363 6.79847 0
M  V30 4892 H 465.629 0.51461 2.93523 0
M  V30 4893 H 463.166 0.265607 1.44682 0
M  V30 4894 H 465.124 -1.8276 3.7504 0
M  V30 4895 H 463.754 -1.89769 2.61127 0
M  V30 4896 H 462.806 0.211234 3.79813 0
M  V30 4897 H 464.118 0.0576503 4.98767 0
M  V30 4898 H 463.272 -2.20207 5.65326 0
M  V30 4899 H 462.011 -2.12327 4.39054 0
M  V30 4900 H 461.016 -0.101388 5.49707 0
M  V30 4901 H 462.241 -0.199911 6.78806 0
M  V30 4902 H 460.187 -2.3443 6.12682 0
M  V30 4903 H 460.104 -1.23759 7.45801 0
M  V30 4904 H 461.372 -2.4257 7.40797 0
M  V30 4905 N 465.601 -1.54893 0.290851 0
M  V30 4906 C 466.878 -1.91991 -0.373989 0
M  V30 4907 C 467.258 -1.21694 -1.72493 0
M  V30 4908 O 466.606 -0.34917 -2.25816 0
M  V30 4909 C 466.816 -3.45419 -0.498703 0
M  V30 4910 C 468.164 -4.1748 -0.774298 0
M  V30 4911 O 469.188 -3.51398 -0.582908 0
M  V30 4912 O 468.047 -5.3445 -1.14129 0
M  V30 4913 H 465.141 -0.800593 -0.207315 0
M  V30 4914 H 467.687 -1.66297 0.338164 0
M  V30 4915 H 466.459 -3.88688 0.451392 0
M  V30 4916 H 466.082 -3.77117 -1.25972 0
M  V30 4917 N 467.08 -0.0183926 -1.57589 0
M  V30 4918 C 468.01 0.965596 -2.12599 0
M  V30 4919 C 468.991 1.34641 -1.0395 0
M  V30 4920 O 470.176 1.42693 -1.31729 0
M  V30 4921 C 467.306 2.25149 -2.64434 0
M  V30 4922 C 466.26 2.01175 -3.77773 0
M  V30 4923 C 465.586 3.35937 -4.15994 0
M  V30 4924 C 466.886 1.35953 -5.04296 0
M  V30 4925 H 468.58 0.507504 -2.95067 0
M  V30 4926 H 466.126 0.242671 -1.41941 0
M  V30 4927 H 468.079 2.94357 -3.01549 0
M  V30 4928 H 466.803 2.73105 -1.79112 0
M  V30 4929 H 465.462 1.34388 -3.4108 0
M  V30 4930 H 465.11 3.81631 -3.27669 0
M  V30 4931 H 464.81 3.20705 -4.92364 0
M  V30 4932 H 466.334 4.0643 -4.55683 0
M  V30 4933 H 467.748 1.95144 -5.39065 0
M  V30 4934 H 466.145 1.31152 -5.85593 0
M  V30 4935 H 467.215 0.331071 -4.83768 0
M  V30 4936 N 468.558 1.5553 0.254621 0
M  V30 4937 C 469.521 1.88872 1.29846 0
M  V30 4938 C 470.521 0.764591 1.41459 0
M  V30 4939 O 471.711 1.03265 1.40293 0
M  V30 4940 C 468.843 2.11032 2.67728 0
M  V30 4941 H 470.036 2.82201 1.01502 0
M  V30 4942 H 467.589 1.48303 0.493556 0
M  V30 4943 H 468.324 1.20146 3.01223 0
M  V30 4944 H 468.109 2.92895 2.60682 0
M  V30 4945 H 469.599 2.38038 3.43115 0
M  V30 4946 N 470.036 -0.519951 1.48776 0
M  V30 4947 C 470.968 -1.63973 1.60142 0
M  V30 4948 C 471.981 -1.55404 0.485117 0
M  V30 4949 O 473.17 -1.61682 0.756391 0
M  V30 4950 C 470.27 -3.02676 1.52449 0
M  V30 4951 C 469.443 -3.36624 2.79291 0
M  V30 4952 C 468.502 -4.54652 2.64912 0
M  V30 4953 O 467.528 -4.57374 3.38818 0
M  V30 4954 N 468.73 -5.53432 1.75195 0
M  V30 4955 H 471.495 -1.54656 2.56713 0
M  V30 4956 H 469.056 -0.707439 1.45626 0
M  V30 4957 H 471.048 -3.79525 1.4051 0
M  V30 4958 H 469.618 -3.06018 0.638125 0
M  V30 4959 H 468.838 -2.48855 3.0572 0
M  V30 4960 H 470.126 -3.56094 3.6342 0
M  V30 4961 H 469.524 -5.54018 1.14371 0
M  V30 4962 H 468.081 -6.29459 1.69189 0
M  V30 4963 N 471.514 -1.37532 -0.769588 0
M  V30 4964 C 472.462 -1.33561 -1.90432 0
M  V30 4965 C 473.456 -0.224027 -1.67912 0
M  V30 4966 O 474.662 -0.392174 -1.75676 0
M  V30 4967 H 471.037 -0.416279 -0.626271 0
M  V30 4968 H 473.008 -2.29348 -1.90899 0
M  V30 4969 C 471.757 -1.16162 -3.27722 0
M  V30 4970 H 471.08 -2.00951 -3.45628 0
M  V30 4971 H 472.52 -1.17434 -4.07413 0
M  V30 4972 C 470.979 0.132583 -3.36639 0
M  V30 4973 O 471.509 1.11539 -3.85904 0
M  V30 4974 N 469.715 0.184013 -2.90017 0
M  V30 4975 H 469.262 -0.616415 -2.50116 0
M  V30 4976 H 469.22 1.04956 -2.96364 0
M  V30 4977 N 472.992 0.995999 -1.22138 0
M  V30 4978 C 474.24 1.73167 -1.042 0
M  V30 4979 C 474.561 1.90329 0.42423 0
M  V30 4980 O 473.831 1.4607 1.30539 0
M  V30 4981 H 472.411 0.641593 -0.38258 0
M  V30 4982 H 475.073 1.19974 -1.53598 0
M  V30 4983 H 474.169 2.72734 -1.51731 0
M  V30 4984 N 474.47 1.03057 1.19235 0
M  V30 4985 C 475.716 0.729098 1.89241 0
M  V30 4986 C 476.049 -0.740573 1.79525 0
M  V30 4987 O 475.324 -1.53946 1.18874 0
M  V30 4988 C 475.607 1.18304 3.40112 0
M  V30 4989 C 475.46 2.71406 3.5869 0
M  V30 4990 C 476.779 0.765161 4.33397 0
M  V30 4991 H 473.898 0.266338 0.687192 0
M  V30 4992 H 476.54 1.28079 1.40341 0
M  V30 4993 H 474.69 0.713672 3.81889 0
M  V30 4994 H 476.362 3.26303 3.26074 0
M  V30 4995 H 474.605 3.11717 3.01687 0
M  V30 4996 H 475.276 2.98225 4.64506 0
M  V30 4997 H 477.752 1.16889 3.99345 0
M  V30 4998 H 476.628 1.11065 5.37546 0
M  V30 4999 H 476.889 -0.332372 4.40849 0
M  V30 5000 N 475.948 -1.35272 0.808662 0
M  V30 5001 C 476.895 -2.29764 0.218482 0
M  V30 5002 C 477.865 -1.52911 -0.648652 0
M  V30 5003 O 479.05 -1.81341 -0.593297 0
M  V30 5004 C 476.19 -3.39388 -0.625282 0
M  V30 5005 C 475.303 -4.31202 0.262516 0
M  V30 5006 C 474.438 -5.27919 -0.589451 0
M  V30 5007 C 473.477 -6.11371 0.298617 0
M  V30 5008 N 472.614 -7.0022 -0.513443 0
M  V30 5009 H 477.454 -2.79645 1.02968 0
M  V30 5010 H 474.991 -1.37629 0.519303 0
M  V30 5011 H 476.949 -4.01615 -1.12966 0
M  V30 5012 H 475.579 -2.90777 -1.40173 0
M  V30 5013 H 474.631 -3.69962 0.885013 0
M  V30 5014 H 475.943 -4.89748 0.945971 0
M  V30 5015 H 475.097 -5.95529 -1.15888 0
M  V30 5016 H 473.836 -4.69875 -1.30647 0
M  V30 5017 H 472.841 -5.42707 0.880301 0
M  V30 5018 H 474.066 -6.71494 1.01352 0
M  V30 5019 H 472.012 -6.44662 -1.21439 0
M  V30 5020 H 471.929 -7.55917 0.111922 0
M  V30 5021 H 473.197 -7.72175 -1.06608 0
M  V30 5022 N 477.426 -0.562348 -1.47226 0
M  V30 5023 C 478.672 -0.0402761 -2.0276 0
M  V30 5024 C 479.005 1.30823 -1.43523 0
M  V30 5025 O 478.28 1.85249 -0.592705 0
M  V30 5026 C 478.563 0.047311 -3.60069 0
M  V30 5027 C 478.416 -1.32865 -4.29729 0
M  V30 5028 C 479.735 0.758182 -4.3352 0
M  V30 5029 H 476.854 -0.0161105 -0.736824 0
M  V30 5030 H 479.496 -0.725628 -1.75598 0
M  V30 5031 H 477.646 0.630986 -3.83342 0
M  V30 5032 H 479.318 -1.95593 -4.17781 0
M  V30 5033 H 477.561 -1.90195 -3.89882 0
M  V30 5034 H 478.232 -1.22004 -5.38349 0
M  V30 5035 H 480.708 0.262546 -4.15271 0
M  V30 5036 H 479.584 0.78844 -5.43208 0
M  V30 5037 H 479.845 1.81537 -4.03109 0
M  V30 5038 N 478.904 1.54736 -0.299062 0
M  V30 5039 C 479.867 2.22127 0.565012 0
M  V30 5040 C 480.867 1.20669 1.06281 0
M  V30 5041 O 482.057 1.45417 0.959145 0
M  V30 5042 C 479.189 2.90611 1.78208 0
M  V30 5043 H 480.382 2.99891 -0.0237448 0
M  V30 5044 H 477.935 1.5622 -0.0498788 0
M  V30 5045 H 478.67 2.16921 2.41072 0
M  V30 5046 H 478.455 3.64984 1.43281 0
M  V30 5047 H 479.945 3.42026 2.396 0
M  V30 5048 N 480.382 0.0267497 1.57577 0
M  V30 5049 C 481.345 -0.940916 2.08996 0
M  V30 5050 C 482.345 -1.25561 1.00455 0
M  V30 5051 O 483.535 -1.19634 1.26623 0
M  V30 5052 C 480.667 -2.25814 2.55384 0
M  V30 5053 H 481.86 -0.495628 2.95776 0
M  V30 5054 H 479.413 -0.221241 1.54726 0
M  V30 5055 H 480.148 -2.74976 1.71926 0
M  V30 5056 H 479.933 -2.04285 3.34679 0
M  V30 5057 H 481.423 -2.95178 2.95398 0
M  V30 5058 N 481.861 -1.55662 -0.24637 0
M  V30 5059 C 483.109 -1.77168 -0.972411 0
M  V30 5060 C 483.43 -0.590827 -1.85834 0
M  V30 5061 O 482.7 0.393365 -1.9191 0
M  V30 5062 H 481.28 -0.653405 -0.362038 0
M  V30 5063 H 483.942 -1.93101 -0.264189 0
M  V30 5064 H 483.038 -2.68335 -1.59382 0
M  V30 5065 N 483.339 0.512053 -1.4905 0
M  V30 5066 C 484.585 1.26874 -1.58212 0
M  V30 5067 C 484.918 1.9241 -0.263073 0
M  V30 5068 O 484.193 1.80181 0.732476 0
M  V30 5069 C 484.476 2.34428 -2.73341 0
M  V30 5070 C 484.329 1.73466 -4.15006 0
M  V30 5071 C 485.648 3.36073 -2.84154 0
M  V30 5072 H 482.767 0.459924 -0.575881 0
M  V30 5073 H 485.409 0.568587 -1.81293 0
M  V30 5074 H 483.559 2.94146 -2.53792 0
M  V30 5075 H 485.231 1.17661 -4.46042 0
M  V30 5076 H 483.474 1.03921 -4.21168 0
M  V30 5077 H 484.145 2.51426 -4.91415 0
M  V30 5078 H 486.621 2.86332 -3.01916 0
M  V30 5079 H 485.497 4.08703 -3.66406 0
M  V30 5080 H 485.758 3.97725 -1.93048 0
M  V30 5081 N 484.817 1.37938 0.762283 0
M  V30 5082 C 486.228 1.30094 1.33912 0
M  V30 5083 C 486.579 -0.0472026 1.96143 0
M  V30 5084 O 485.704 -0.94917 1.94473 0
M  V30 5085 C 486.299 2.35592 2.43478 0
M  V30 5086 C 484.858 2.31353 2.96905 0
M  V30 5087 C 484.005 2.18919 1.70205 0
M  V30 5088 H 486.956 1.48423 0.561816 0
M  V30 5089 H 486.977 2.00806 3.23199 0
M  V30 5090 H 486.489 3.33701 1.98155 0
M  V30 5091 H 484.59 1.36799 3.46579 0
M  V30 5092 H 484.703 3.25147 3.51875 0
M  V30 5093 H 483.067 1.65624 1.93496 0
M  V30 5094 H 483.85 3.18956 1.26973 0
M  V30 5095 N 486.295 -0.989507 1.22664 0
M  V30 5096 C 487.541 -1.7321 1.05481 0
M  V30 5097 C 487.874 -1.89852 -0.408635 0
M  V30 5098 O 487.149 -1.44416 -1.30285 0
M  V30 5099 C 487.432 -3.1357 1.77047 0
M  V30 5100 C 487.285 -3.04555 3.31008 0
M  V30 5101 C 488.604 -4.12812 1.5256 0
M  V30 5102 H 485.723 -0.628697 0.384589 0
M  V30 5103 H 488.365 -1.15258 1.51049 0
M  V30 5104 H 486.515 -3.63046 1.3831 0
M  V30 5105 H 488.187 -2.62674 3.7921 0
M  V30 5106 H 486.43 -2.41278 3.6051 0
M  V30 5107 H 487.101 -4.03894 3.76263 0
M  V30 5108 H 489.577 -3.72106 1.86215 0
M  V30 5109 H 488.453 -5.09132 2.05124 0
M  V30 5110 H 488.714 -4.39711 0.458936 0
M  V30 5111 N 487.773 -1.03688 -1.18687 0
M  V30 5112 C 489.001 -0.757918 -1.92518 0
M  V30 5113 C 489.416 0.684398 -1.75959 0
M  V30 5114 O 488.773 1.46617 -1.08673 0
M  V30 5115 C 488.824 -1.10985 -3.44042 0
M  V30 5116 O 488.545 -2.49554 -3.60076 0
M  V30 5117 C 490.046 -0.854844 -4.3498 0
M  V30 5118 H 487.266 -0.276699 -0.611293 0
M  V30 5119 H 489.81 -1.38352 -1.50595 0
M  V30 5120 H 487.965 -0.529279 -3.83767 0
M  V30 5121 H 488.379 -2.6291 -4.53849 0
M  V30 5122 H 489.853 -1.15098 -5.39867 0
M  V30 5123 H 490.33 0.210507 -4.38695 0
M  V30 5124 H 490.936 -1.41853 -4.00946 0
M  V30 5125 N 489.251 1.34841 -0.815825 0
M  V30 5126 C 490.198 2.29644 -0.230664 0
M  V30 5127 C 491.168 1.53253 0.640533 0
M  V30 5128 O 492.353 1.81653 0.583672 0
M  V30 5129 C 489.493 3.39715 0.607275 0
M  V30 5130 C 488.606 4.31056 -0.28538 0
M  V30 5131 C 487.741 5.28225 0.561446 0
M  V30 5132 C 486.78 6.11204 -0.331035 0
M  V30 5133 N 485.917 7.00483 0.476302 0
M  V30 5134 H 490.757 2.79095 -1.0445 0
M  V30 5135 H 488.294 1.37351 -0.526595 0
M  V30 5136 H 490.252 4.02208 1.10835 0
M  V30 5137 H 488.882 2.91517 1.38629 0
M  V30 5138 H 487.934 3.69487 -0.904621 0
M  V30 5139 H 489.246 4.89239 -0.97193 0
M  V30 5140 H 488.4 5.96135 1.12728 0
M  V30 5141 H 487.139 4.70562 1.28153 0
M  V30 5142 H 486.144 5.42232 -0.909069 0
M  V30 5143 H 487.369 6.70947 -1.04912 0
M  V30 5144 H 485.315 6.45296 1.18019 0
M  V30 5145 H 485.232 7.55847 -0.152008 0
M  V30 5146 H 486.5 7.7273 1.02512 0
M  V30 5147 N 490.729 0.570148 1.46925 0
M  V30 5148 C 491.639 -0.173061 2.33961 0
M  V30 5149 C 492.655 -0.898825 1.48987 0
M  V30 5150 O 493.831 -0.864825 1.81887 0
M  V30 5151 C 490.896 -1.18177 3.25937 0
M  V30 5152 C 489.957 -0.462041 4.26806 0
M  V30 5153 C 489.19 -1.4227 5.14388 0
M  V30 5154 O 489.413 -2.65842 5.04662 0
M  V30 5155 O 488.347 -0.940127 5.94513 0
M  V30 5156 H 492.173 0.541216 2.98839 0
M  V30 5157 H 489.758 0.330647 1.45695 0
M  V30 5158 H 491.64 -1.76372 3.82715 0
M  V30 5159 H 490.315 -1.87774 2.63671 0
M  V30 5160 H 489.222 0.161429 3.73752 0
M  V30 5161 H 490.555 0.192719 4.91823 0
M  V30 5162 N 492.207 -1.54576 0.307264 0
M  V30 5163 C 493.432 -2.05139 -0.305379 0
M  V30 5164 C 493.857 -1.18278 -1.46259 0
M  V30 5165 O 493.215 -0.188243 -1.8032 0
M  V30 5166 C 493.263 -3.53066 -0.733283 0
M  V30 5167 O 492.367 -3.69206 -1.83741 0
M  V30 5168 H 491.708 -0.661444 -0.0582105 0
M  V30 5169 H 494.238 -1.99569 0.450931 0
M  V30 5170 H 494.248 -3.95034 -1.02039 0
M  V30 5171 H 492.923 -4.15746 0.113198 0
M  V30 5172 H 491.5 -3.39143 -1.55037 0
M  V30 5173 N 493.685 -0.035106 -1.57561 0
M  V30 5174 C 494.595 0.960295 -2.14046 0
M  V30 5175 C 495.611 1.3529 -1.0942 0
M  V30 5176 O 496.787 1.43309 -1.41508 0
M  V30 5177 C 493.852 2.22214 -2.66124 0
M  V30 5178 C 492.913 1.8894 -3.85487 0
M  V30 5179 C 492.146 3.09109 -4.35072 0
M  V30 5180 O 492.369 4.21963 -3.83802 0
M  V30 5181 O 491.303 2.91058 -5.26848 0
M  V30 5182 H 495.129 0.509983 -2.99387 0
M  V30 5183 H 492.714 0.185853 -1.48239 0
M  V30 5184 H 494.596 2.96279 -2.99661 0
M  V30 5185 H 493.271 2.66414 -1.83862 0
M  V30 5186 H 492.178 1.12241 -3.56865 0
M  V30 5187 H 493.511 1.49551 -4.6893 0
M  V30 5188 N 495.163 1.55791 0.238111 0
M  V30 5189 C 496.409 1.79211 0.962035 0
M  V30 5190 C 496.764 0.605463 1.82625 0
M  V30 5191 O 496.057 -0.40104 1.87356 0
M  V30 5192 C 496.251 3.05869 1.84875 0
M  V30 5193 C 496.08 4.36739 1.07186 0
M  V30 5194 C 494.85 4.99346 0.773424 0
M  V30 5195 C 497.048 5.1237 0.445168 0
M  V30 5196 N 495.03 6.13894 -0.0266037 0
M  V30 5197 C 496.401 6.19613 -0.219023 0
M  V30 5198 C 498.456 4.96622 0.356522 0
M  V30 5199 C 497.159 7.1282 -0.963358 0
M  V30 5200 C 499.185 5.90214 -0.374304 0
M  V30 5201 C 498.547 6.96872 -1.0271 0
M  V30 5202 H 494.646 0.707627 0.332849 0
M  V30 5203 H 497.23 1.93284 0.234368 0
M  V30 5204 H 495.401 2.93108 2.54837 0
M  V30 5205 H 497.133 3.17547 2.5089 0
M  V30 5206 H 493.888 4.60948 1.08738 0
M  V30 5207 H 494.312 6.75727 -0.414968 0
M  V30 5208 H 498.954 4.14232 0.846878 0
M  V30 5209 H 496.672 7.94704 -1.46529 0
M  V30 5210 H 500.258 5.80106 -0.443678 0
M  V30 5211 H 499.138 7.68045 -1.58358 0
M  V30 5212 N 496.642 -0.504142 1.49319 0
M  V30 5213 C 497.87 -1.28256 1.62351 0
M  V30 5214 C 498.285 -1.86502 0.293682 0
M  V30 5215 O 497.642 -1.67678 -0.720449 0
M  V30 5216 C 497.693 -2.41507 2.68992 0
M  V30 5217 O 497.414 -1.85656 3.96817 0
M  V30 5218 C 498.915 -3.32929 2.927 0
M  V30 5219 H 496.135 -0.389115 0.546654 0
M  V30 5220 H 498.679 -0.605531 1.95329 0
M  V30 5221 H 496.834 -3.05046 2.38801 0
M  V30 5222 H 497.248 -2.59981 4.55533 0
M  V30 5223 H 498.722 -4.0868 3.71058 0
M  V30 5224 H 499.199 -3.89733 2.02496 0
M  V30 5225 H 499.805 -2.75158 3.24296 0
M  V30 5226 N 498.12 -1.38341 -0.754957 0
M  V30 5227 C 499.368 -1.34208 -1.51105 0
M  V30 5228 C 499.689 0.0677634 -1.94882 0
M  V30 5229 O 498.959 1.01517 -1.67544 0
M  V30 5230 H 497.539 -0.493819 -0.560493 0
M  V30 5231 H 500.201 -1.73005 -0.897507 0
M  V30 5232 H 499.297 -1.99203 -2.4026 0
M  V30 5233 N 499.598 0.982988 -1.23187 0
M  V30 5234 C 500.545 2.07491 -1.01075 0
M  V30 5235 C 501.515 1.65949 0.070905 0
M  V30 5236 O 502.7 1.90629 -0.0806822 0
M  V30 5237 C 499.84 3.39751 -0.605261 0
M  V30 5238 C 498.953 3.94578 -1.75876 0
M  V30 5239 C 498.088 5.15039 -1.3003 0
M  V30 5240 C 497.127 5.62027 -2.42472 0
M  V30 5241 N 496.264 6.73719 -1.97602 0
M  V30 5242 H 501.104 2.25739 -1.9454 0
M  V30 5243 H 498.641 1.10659 -0.969179 0
M  V30 5244 H 500.599 4.15719 -0.351279 0
M  V30 5245 H 499.229 3.21473 0.292382 0
M  V30 5246 H 498.281 3.1539 -2.12681 0
M  V30 5247 H 499.593 4.25422 -2.60418 0
M  V30 5248 H 498.747 5.9833 -1.00429 0
M  V30 5249 H 497.486 4.85843 -0.425216 0
M  V30 5250 H 496.491 4.77318 -2.7285 0
M  V30 5251 H 497.716 5.93244 -3.30512 0
M  V30 5252 H 495.662 6.46287 -1.1247 0
M  V30 5253 H 495.579 7.03934 -2.75705 0
M  V30 5254 H 496.847 7.6049 -1.71098 0
M  V30 5255 N 501.076 1.04316 1.18135 0
M  V30 5256 C 502.024 0.630175 2.23901 0
M  V30 5257 C 503.018 -0.344254 1.65865 0
M  V30 5258 O 504.224 -0.211273 1.78756 0
M  V30 5259 H 500.599 0.185578 0.728742 0
M  V30 5260 H 502.57 1.53253 2.56039 0
M  V30 5261 C 501.319 0.011666 3.47698 0
M  V30 5262 H 500.642 0.752526 3.92654 0
M  V30 5263 H 502.082 -0.240046 4.2332 0
M  V30 5264 C 500.541 -1.23913 3.13285 0
M  V30 5265 O 501.071 -2.32959 3.27251 0
M  V30 5266 N 499.277 -1.13338 2.67587 0
M  V30 5267 H 498.824 -0.246006 2.56423 0
M  V30 5268 H 498.782 -1.97116 2.44934 0
M  V30 5269 N 502.554 -1.34406 0.822964 0
M  V30 5270 C 503.801 -1.98284 0.411057 0
M  V30 5271 C 504.129 -1.65245 -1.02588 0
M  V30 5272 O 503.384 -0.91619 -1.72929 0
M  V30 5273 C 503.683 -3.52981 0.560268 0
M  V30 5274 C 503.349 -4.05931 1.96293 0
M  V30 5275 C 502.011 -4.20103 2.34664 0
M  V30 5276 C 504.363 -4.34412 2.87985 0
M  V30 5277 C 501.691 -4.60082 3.64062 0
M  V30 5278 C 504.043 -4.75838 4.16847 0
M  V30 5279 C 502.707 -4.88215 4.55195 0
M  V30 5280 H 501.977 -0.725573 0.150416 0
M  V30 5281 H 504.624 -1.60349 1.04692 0
M  V30 5282 H 502.929 -3.91477 -0.158982 0
M  V30 5283 H 504.626 -4.00385 0.222087 0
M  V30 5284 H 501.216 -3.95363 1.65487 0
M  V30 5285 H 505.4 -4.23001 2.59584 0
M  V30 5286 H 500.656 -4.67856 3.93599 0
M  V30 5287 H 504.83 -4.96834 4.87984 0
M  V30 5288 H 502.457 -5.18952 5.55512 0
M  V30 5289 N 504.032 -0.577932 -1.46621 0
M  V30 5290 C 505.278 -0.0617793 -2.02706 0
M  V30 5291 C 505.611 1.29294 -1.44903 0
M  V30 5292 O 504.886 1.8461 -0.61232 0
M  V30 5293 C 505.169 0.00911824 -3.60099 0
M  V30 5294 C 505.022 -1.37416 -4.28295 0
M  V30 5295 C 506.341 0.712159 -4.343 0
M  V30 5296 H 503.46 -0.0239246 -0.736612 0
M  V30 5297 H 506.102 -0.744211 -1.74818 0
M  V30 5298 H 504.252 0.590292 -3.83989 0
M  V30 5299 H 505.924 -2.00013 -4.15683 0
M  V30 5300 H 504.167 -1.94319 -3.87843 0
M  V30 5301 H 504.838 -1.27707 -5.37024 0
M  V30 5302 H 507.314 0.218486 -4.15526 0
M  V30 5303 H 506.19 0.730782 -5.44014 0
M  V30 5304 H 506.451 1.77251 -4.05012 0
M  V30 5305 N 505.51 1.54411 -0.315457 0
M  V30 5306 C 506.921 1.85885 0.174265 0
M  V30 5307 C 507.272 1.23723 1.52273 0
M  V30 5308 O 506.397 0.540246 2.09548 0
M  V30 5309 C 506.992 3.37257 0.322981 0
M  V30 5310 C 505.551 3.68711 0.756922 0
M  V30 5311 C 504.698 2.77013 -0.126195 0
M  V30 5312 H 507.649 1.49374 -0.536007 0
M  V30 5313 H 507.67 3.62539 1.15522 0
M  V30 5314 H 507.182 3.82471 -0.658602 0
M  V30 5315 H 505.283 3.29024 1.74854 0
M  V30 5316 H 505.396 4.75741 0.566291 0
M  V30 5317 H 503.76 2.51588 0.39692 0
M  V30 5318 H 504.543 3.25051 -1.1044 0
M  V30 5319 N 506.988 0.0434614 1.5754 0
M  V30 5320 C 508.399 -0.493343 1.80064 0
M  V30 5321 C 508.75 -1.71388 0.955023 0
M  V30 5322 O 507.875 -2.15736 0.169434 0
M  V30 5323 C 508.47 -0.90179 3.26578 0
M  V30 5324 C 507.029 -1.38362 3.50047 0
M  V30 5325 C 506.176 -0.355129 2.75017 0
M  V30 5326 H 509.127 0.2694 1.56397 0
M  V30 5327 H 509.148 -1.76523 3.37075 0
M  V30 5328 H 508.66 -0.013271 3.88098 0
M  V30 5329 H 506.761 -2.29159 2.93798 0
M  V30 5330 H 506.874 -1.3811 4.58762 0
M  V30 5331 H 505.238 -0.826348 2.40922 0
M  V30 5332 H 506.021 0.525172 3.39259 0
M  V30 5333 N 508.466 -1.55915 -0.229846 0
M  V30 5334 C 509.396 -1.94754 -1.28815 0
M  V30 5335 C 510.377 -0.814657 -1.49323 0
M  V30 5336 O 511.562 -1.07631 -1.61645 0
M  V30 5337 C 508.692 -2.25705 -2.63959 0
M  V30 5338 C 507.646 -3.41406 -2.5812 0
M  V30 5339 C 506.972 -3.57941 -3.97218 0
M  V30 5340 C 508.272 -4.76616 -2.13623 0
M  V30 5341 H 509.966 -2.83404 -0.965547 0
M  V30 5342 H 507.512 -1.36353 -0.463028 0
M  V30 5343 H 509.465 -2.51467 -3.38146 0
M  V30 5344 H 508.189 -1.339 -2.9789 0
M  V30 5345 H 506.848 -3.1568 -1.86391 0
M  V30 5346 H 506.496 -2.63526 -4.28443 0
M  V30 5347 H 506.196 -4.35757 -3.94195 0
M  V30 5348 H 507.72 -3.86042 -4.73079 0
M  V30 5349 H 509.134 -5.01637 -2.77549 0
M  V30 5350 H 507.531 -5.57655 -2.21677 0
M  V30 5351 H 508.601 -4.7253 -1.08829 0
M  V30 5352 N 509.944 0.496216 -1.49584 0
M  V30 5353 C 510.891 1.59722 -1.66606 0
M  V30 5354 C 511.861 1.58158 -0.507477 0
M  V30 5355 O 513.046 1.76072 -0.735076 0
M  V30 5356 C 510.186 2.97844 -1.74308 0
M  V30 5357 C 509.299 3.09388 -3.01502 0
M  V30 5358 C 508.434 4.38271 -3.00153 0
M  V30 5359 C 507.473 4.43466 -4.21906 0
M  V30 5360 N 506.61 5.63784 -4.1844 0
M  V30 5361 H 511.45 1.44515 -2.60613 0
M  V30 5362 H 508.987 0.703048 -1.29212 0
M  V30 5363 H 510.945 3.77907 -1.76754 0
M  V30 5364 H 509.575 3.11743 -0.837619 0
M  V30 5365 H 508.627 2.22357 -3.08645 0
M  V30 5366 H 509.939 3.09085 -3.91494 0
M  V30 5367 H 509.093 5.2666 -3.01188 0
M  V30 5368 H 507.832 4.41146 -2.07947 0
M  V30 5369 H 506.837 3.53478 -4.21109 0
M  V30 5370 H 508.062 4.42303 -5.1531 0
M  V30 5371 H 506.008 5.67491 -3.29074 0
M  V30 5372 H 505.925 5.65118 -5.02173 0
M  V30 5373 H 507.193 6.54367 -4.23585 0
M  V30 5374 N 511.423 1.38739 0.74761 0
M  V30 5375 C 512.651 1.38521 1.53686 0
M  V30 5376 C 513.066 -0.0235129 1.88785 0
M  V30 5377 O 512.423 -0.991662 1.53207 0
M  V30 5378 C 512.474 2.24641 2.83229 0
M  V30 5379 O 512.195 3.60026 2.49625 0
M  V30 5380 C 513.696 2.32669 3.77333 0
M  V30 5381 H 510.916 0.473589 0.475347 0
M  V30 5382 H 513.46 1.82395 0.924786 0
M  V30 5383 H 511.615 1.84213 3.40799 0
M  V30 5384 H 512.029 4.05435 3.3275 0
M  V30 5385 H 513.503 2.97201 4.65162 0
M  V30 5386 H 513.98 1.3421 4.18192 0
M  V30 5387 H 514.586 2.73512 3.25685 0
M  V30 5388 N 512.901 -0.976442 1.23707 0
M  V30 5389 C 513.831 -2.08749 1.04624 0
M  V30 5390 C 514.812 -1.70057 -0.0380956 0
M  V30 5391 O 515.997 -1.93782 0.127308 0
M  V30 5392 C 513.127 -3.41335 0.640902 0
M  V30 5393 C 512.081 -3.93947 1.67302 0
M  V30 5394 C 511.407 -5.22774 1.12301 0
M  V30 5395 C 512.707 -4.22769 3.06697 0
M  V30 5396 H 514.401 -2.24972 1.97555 0
M  V30 5397 H 511.947 -1.08108 0.951247 0
M  V30 5398 H 513.9 -4.18489 0.494434 0
M  V30 5399 H 512.624 -3.24988 -0.324099 0
M  V30 5400 H 511.283 -3.18941 1.80755 0
M  V30 5401 H 510.931 -5.0278 0.148877 0
M  V30 5402 H 510.631 -5.58942 1.81267 0
M  V30 5403 H 512.155 -6.02546 0.988479 0
M  V30 5404 H 513.569 -4.90659 2.96524 0
M  V30 5405 H 511.966 -4.70147 3.72937 0
M  V30 5406 H 513.036 -3.29885 3.55392 0
M  V30 5407 N 514.379 -1.04941 -1.1758 0
M  V30 5408 C 515.609 -0.777166 -1.91425 0
M  V30 5409 C 516.017 0.670647 -1.76915 0
M  V30 5410 O 515.36 1.46965 -1.10213 0
M  V30 5411 C 515.422 -1.07495 -3.43052 0
M  V30 5412 C 515.086 -2.51844 -3.81345 0
M  V30 5413 C 516.083 -3.50047 -3.844 0
M  V30 5414 C 513.768 -2.86787 -4.12382 0
M  V30 5415 C 515.762 -4.81239 -4.17957 0
M  V30 5416 C 513.449 -4.18182 -4.45608 0
M  V30 5417 C 514.447 -5.15219 -4.48373 0
M  V30 5418 O 514.135 -6.44258 -4.80819 0
M  V30 5419 H 513.867 -0.282209 -0.614275 0
M  V30 5420 H 516.421 -1.40258 -1.50056 0
M  V30 5421 H 514.651 -0.392437 -3.84704 0
M  V30 5422 H 516.34 -0.78912 -3.98155 0
M  V30 5423 H 517.106 -3.24391 -3.60548 0
M  V30 5424 H 512.985 -2.11922 -4.09402 0
M  V30 5425 H 516.529 -5.56974 -4.2003 0
M  V30 5426 H 512.426 -4.43602 -4.68922 0
M  V30 5427 H 513.194 -6.49041 -4.98686 0
M  V30 5428 N 515.857 1.33968 -0.830081 0
M  V30 5429 C 517.085 2.0228 -0.434773 0
M  V30 5430 C 517.5 1.62487 0.961419 0
M  V30 5431 O 516.857 0.833849 1.62337 0
M  V30 5432 C 516.908 3.5751 -0.535625 0
M  V30 5433 O 516.629 3.95864 -1.87679 0
M  V30 5434 C 518.13 4.43091 -0.136137 0
M  V30 5435 H 515.35 0.648151 -0.173613 0
M  V30 5436 H 517.894 1.71089 -1.12022 0
M  V30 5437 H 516.049 3.87266 0.101817 0
M  V30 5438 H 516.463 4.9056 -1.85609 0
M  V30 5439 H 517.937 5.51398 -0.257772 0
M  V30 5440 H 518.414 4.29433 0.921076 0
M  V30 5441 H 519.02 4.18677 -0.747662 0
M  V30 5442 N 517.335 0.585699 1.46312 0
M  V30 5443 C 518.581 0.0725284 2.0267 0
M  V30 5444 C 518.914 -1.28523 1.45586 0
M  V30 5445 O 518.189 -1.84283 0.622101 0
M  V30 5446 C 518.472 0.0099788 3.60099 0
M  V30 5447 C 518.325 1.39685 4.27561 0
M  V30 5448 C 519.644 -0.689117 4.34671 0
M  V30 5449 H 516.763 0.0278307 0.736474 0
M  V30 5450 H 519.405 0.753472 1.74421 0
M  V30 5451 H 517.555 -0.56992 3.84297 0
M  V30 5452 H 519.227 2.02215 4.14617 0
M  V30 5453 H 517.47 1.96374 3.86807 0
M  V30 5454 H 518.141 1.30553 5.36339 0
M  V30 5455 H 520.617 -0.196446 4.15636 0
M  V30 5456 H 519.493 -0.701921 5.44393 0
M  V30 5457 H 519.754 -1.75101 4.05946 0
M  V30 5458 N 518.813 -1.54241 0.323641 0
M  V30 5459 C 519.745 -2.21836 -0.576311 0
M  V30 5460 C 520.758 -1.21837 -1.07979 0
M  V30 5461 O 521.947 -1.48306 -0.99336 0
M  V30 5462 C 519.047 -2.86923 -1.80356 0
M  V30 5463 C 518.22 -4.1306 -1.43875 0
M  V30 5464 C 517.279 -4.6174 -2.52353 0
M  V30 5465 O 516.305 -5.26421 -2.16494 0
M  V30 5466 N 517.507 -4.35974 -3.83284 0
M  V30 5467 H 520.272 -2.997 0.00247987 0
M  V30 5468 H 517.833 -1.61233 0.146848 0
M  V30 5469 H 519.825 -3.16414 -2.52318 0
M  V30 5470 H 518.395 -2.12765 -2.29019 0
M  V30 5471 H 517.615 -3.90334 -0.550752 0
M  V30 5472 H 518.903 -4.95148 -1.17071 0
M  V30 5473 H 518.301 -3.84203 -4.15216 0
M  V30 5474 H 516.858 -4.70119 -4.51477 0
M  V30 5475 N 520.291 -0.0518155 -1.57515 0
M  V30 5476 C 521.568 0.661727 -1.84067 0
M  V30 5477 C 521.948 1.88999 -0.940351 0
M  V30 5478 O 521.296 2.285 -0.00155404 0
M  V30 5479 C 521.506 1.01841 -3.3381 0
M  V30 5480 C 522.854 1.40043 -4.00841 0
M  V30 5481 O 523.878 1.11073 -3.38439 0
M  V30 5482 O 522.737 1.94111 -5.10865 0
M  V30 5483 H 519.831 0.326702 -0.759733 0
M  V30 5484 H 522.377 -0.0812277 -1.69505 0
M  V30 5485 H 521.149 0.145202 -3.91031 0
M  V30 5486 H 520.772 1.81879 -3.53562 0
M  V30 5487 N 521.769 1.56035 0.221574 0
M  V30 5488 C 522.997 1.8313 0.962864 0
M  V30 5489 C 523.412 0.630934 1.77946 0
M  V30 5490 O 522.769 -0.400519 1.78051 0
M  V30 5491 C 522.82 3.08742 1.88045 0
M  V30 5492 O 522.541 4.24147 1.09686 0
M  V30 5493 C 524.042 3.48824 2.73563 0
M  V30 5494 H 521.262 0.608775 0.282194 0
M  V30 5495 H 523.806 2.03124 0.23681 0
M  V30 5496 H 521.961 2.90723 2.56045 0
M  V30 5497 H 522.375 4.95505 1.71974 0
M  V30 5498 H 523.849 4.39752 3.3365 0
M  V30 5499 H 524.326 2.70575 3.45956 0
M  V30 5500 H 524.932 3.69282 2.10976 0
M  V30 5501 N 523.247 -0.488276 1.49845 0
M  V30 5502 C 524.477 -1.26344 1.63465 0
M  V30 5503 C 524.885 -1.86637 0.310379 0
M  V30 5504 O 524.228 -1.69184 -0.715712 0
M  V30 5505 C 524.29 -2.42407 2.65479 0
M  V30 5506 C 523.954 -2.02886 4.09495 0
M  V30 5507 C 524.951 -1.56124 4.95904 0
M  V30 5508 C 522.636 -2.12131 4.55308 0
M  V30 5509 C 524.63 -1.19129 6.26169 0
M  V30 5510 C 522.317 -1.74747 5.85582 0
M  V30 5511 C 523.315 -1.28322 6.70837 0
M  V30 5512 O 523.003 -0.914491 7.98682 0
M  V30 5513 H 522.735 -0.388921 0.552916 0
M  V30 5514 H 525.289 -0.591288 1.96705 0
M  V30 5515 H 523.519 -3.12739 2.27445 0
M  V30 5516 H 525.208 -3.04409 2.68495 0
M  V30 5517 H 525.974 -1.48417 4.61733 0
M  V30 5518 H 521.853 -2.47217 3.89107 0
M  V30 5519 H 525.397 -0.828211 6.92666 0
M  V30 5520 H 521.294 -1.82109 6.19279 0
M  V30 5521 H 522.062 -1.04485 8.11804 0
M  V30 5522 N 524.725 -1.39134 -0.740242 0
M  V30 5523 C 525.673 -1.3757 -1.87556 0
M  V30 5524 C 526.667 -0.259593 -1.67399 0
M  V30 5525 O 527.873 -0.429349 -1.74804 0
M  V30 5526 H 524.248 -0.42947 -0.6173 0
M  V30 5527 H 526.219 -2.33345 -1.85991 0
M  V30 5528 C 524.968 -1.23087 -3.25184 0
M  V30 5529 H 524.291 -2.08237 -3.41288 0
M  V30 5530 H 525.731 -1.26049 -4.0483 0
M  V30 5531 C 524.19 0.0611471 -3.36845 0
M  V30 5532 O 524.72 1.03328 -3.88183 0
M  V30 5533 N 522.926 0.122454 -2.90342 0
M  V30 5534 H 522.473 -0.669329 -2.48752 0
M  V30 5535 H 522.431 0.986463 -2.98523 0
M  V30 5536 N 526.204 0.969867 -1.24223 0
M  V30 5537 C 527.434 1.74502 -1.106 0
M  V30 5538 C 527.842 1.86038 0.344483 0
M  V30 5539 O 527.185 1.3465 1.24961 0
M  V30 5540 C 527.247 3.18391 -1.66935 0
M  V30 5541 C 526.911 3.30334 -3.15798 0
M  V30 5542 C 527.908 3.15832 -4.12973 0
M  V30 5543 C 525.593 3.54644 -3.55715 0
M  V30 5544 C 527.587 3.25461 -5.48045 0
M  V30 5545 C 525.274 3.63912 -4.90929 0
M  V30 5546 C 526.272 3.49332 -5.86904 0
M  V30 5547 O 525.96 3.58251 -7.1966 0
M  V30 5548 H 525.692 0.554119 -0.387206 0
M  V30 5549 H 528.246 1.22646 -1.64764 0
M  V30 5550 H 526.476 3.71543 -1.07203 0
M  V30 5551 H 528.165 3.77707 -1.48634 0
M  V30 5552 H 528.931 2.96937 -3.83476 0
M  V30 5553 H 524.81 3.65059 -2.81519 0
M  V30 5554 H 528.354 3.13998 -6.22937 0
M  V30 5555 H 524.251 3.82319 -5.20098 0
M  V30 5556 H 525.019 3.7498 -7.27552 0
M  V30 5557 N 527.682 1.05563 1.17022 0
M  V30 5558 C 528.63 0.653887 2.2322 0
M  V30 5559 C 529.624 -0.326642 1.66221 0
M  V30 5560 O 530.83 -0.192301 1.7897 0
M  V30 5561 H 527.205 0.193297 0.726733 0
M  V30 5562 H 529.176 1.5596 2.54399 0
M  V30 5563 C 527.925 0.0485434 3.47666 0
M  V30 5564 H 527.248 0.79413 3.91834 0
M  V30 5565 H 528.688 -0.195133 4.23551 0
M  V30 5566 C 527.147 -1.20583 3.14581 0
M  V30 5567 O 527.677 -2.29475 3.29703 0
M  V30 5568 N 525.883 -1.10493 2.68774 0
M  V30 5569 H 525.43 -0.218795 2.56669 0
M  V30 5570 H 525.388 -1.94507 2.47011 0
M  V30 5571 N 529.16 -1.33526 0.837174 0
M  V30 5572 C 530.437 -1.92369 0.354065 0
M  V30 5573 C 530.817 -1.76348 -1.16038 0
M  V30 5574 O 530.165 -1.15083 -1.97403 0
M  V30 5575 C 530.375 -3.39728 0.799101 0
M  V30 5576 C 531.723 -4.16877 0.806139 0
M  V30 5577 O 532.747 -3.48373 0.742597 0
M  V30 5578 O 531.606 -5.39166 0.892345 0
M  V30 5579 H 528.7 -0.820952 0.0998378 0
M  V30 5580 H 531.246 -1.42409 0.922913 0
M  V30 5581 H 530.018 -3.45254 1.84162 0
M  V30 5582 H 529.641 -3.97062 0.206731 0
M  V30 5583 N 530.638 -0.59345 -1.46 0
M  V30 5584 C 532.049 -0.169801 -1.85926 0
M  V30 5585 C 532.4 1.26984 -1.49565 0
M  V30 5586 O 531.525 1.96076 -0.915602 0
M  V30 5587 C 532.12 -0.301385 -3.37457 0
M  V30 5588 C 530.679 0.0674684 -3.7634 0
M  V30 5589 C 529.826 -0.632383 -2.69993 0
M  V30 5590 H 532.777 -0.801014 -1.37002 0
M  V30 5591 H 532.798 0.470331 -3.77582 0
M  V30 5592 H 532.31 -1.34927 -3.63891 0
M  V30 5593 H 530.411 1.11507 -3.55523 0
M  V30 5594 H 530.524 -0.316332 -4.78055 0
M  V30 5595 H 528.888 -0.0714961 -2.546 0
M  V30 5596 H 529.671 -1.68212 -2.99265 0
M  V30 5597 N 532.116 1.54067 -0.331816 0
M  V30 5598 C 533.344 2.05131 0.269996 0
M  V30 5599 C 533.759 1.20749 1.45138 0
M  V30 5600 O 533.116 0.240069 1.80914 0
M  V30 5601 C 533.167 3.54728 0.696456 0
M  V30 5602 O 532.888 4.35906 -0.43794 0
M  V30 5603 C 534.389 4.21916 1.36021 0
M  V30 5604 H 531.609 0.668807 0.0542042 0
M  V30 5605 H 534.153 1.98777 -0.4804 0
M  V30 5606 H 532.308 3.61342 1.39681 0
M  V30 5607 H 532.722 5.24404 -0.100334 0
M  V30 5608 H 534.196 5.28015 1.60947 0
M  V30 5609 H 534.673 3.73538 2.31011 0
M  V30 5610 H 535.279 4.19463 0.702212 0
M  V30 5611 N 533.594 0.0601682 1.57485 0
M  V30 5612 C 534.834 -0.615384 1.94916 0
M  V30 5613 C 535.198 -1.67475 0.938948 0
M  V30 5614 O 536.399 -2.40502 1.20051 0
M  V30 5615 C 534.67 -1.18788 3.37082 0
M  V30 5616 S 536.229 -1.88018 3.96478 0
M  V30 5617 H 533.047 -0.201821 0.681754 0
M  V30 5618 H 535.649 0.131252 1.95059 0
M  V30 5619 H 534.353 -0.404869 4.08398 0
M  V30 5620 H 533.884 -1.97114 3.40455 0
M  V30 5621 H 535.899 -3.16161 3.82435 0
M  V30 5622 N 535.072 -1.5615 -0.213296 0
M  V30 5623 C 536.32 -1.79191 -0.934612 0
M  V30 5624 C 536.641 -0.630112 -1.84539 0
M  V30 5625 O 535.911 0.35257 -1.92701 0
M  V30 5626 H 534.491 -0.660937 -0.348097 0
M  V30 5627 H 537.153 -1.93618 -0.22317 0
M  V30 5628 H 536.249 -2.71656 -1.53654 0
M  V30 5629 N 536.55 0.480323 -1.50102 0
M  V30 5630 C 537.46 1.60547 -1.71061 0
M  V30 5631 C 538.476 1.63564 -0.593529 0
M  V30 5632 O 539.652 1.81604 -0.870751 0
M  V30 5633 C 536.717 2.96814 -1.79171 0
M  V30 5634 C 535.778 3.04259 -3.02861 0
M  V30 5635 C 535.011 4.34027 -3.10574 0
M  V30 5636 O 535.234 5.24009 -2.25323 0
M  V30 5637 O 534.168 4.46873 -4.03223 0
M  V30 5638 H 537.994 1.45788 -2.6642 0
M  V30 5639 H 535.579 0.658838 -1.34088 0
M  V30 5640 H 537.461 3.77765 -1.86738 0
M  V30 5641 H 536.136 3.11791 -0.869947 0
M  V30 5642 H 535.043 2.22419 -3.008 0
M  V30 5643 H 536.376 2.94216 -3.94586 0
M  V30 5644 N 538.028 1.39524 0.732853 0
M  V30 5645 C 538.961 1.32806 1.85574 0
M  V30 5646 C 539.939 0.201354 1.61348 0
M  V30 5647 O 541.123 0.38216 1.84585 0
M  V30 5648 C 538.25 1.06271 3.21596 0
M  V30 5649 C 537.296 2.21161 3.64678 0
M  V30 5650 S 538.129 3.83454 3.73796 0
M  V30 5651 C 539.285 3.59149 5.12604 0
M  V30 5652 H 539.518 2.27838 1.9099 0
M  V30 5653 H 537.051 1.25605 0.897927 0
M  V30 5654 H 539.009 0.916461 4.00139 0
M  V30 5655 H 537.67 0.129223 3.13834 0
M  V30 5656 H 536.863 1.98193 4.63396 0
M  V30 5657 H 536.465 2.32 2.93346 0
M  V30 5658 H 538.757 3.16547 5.99003 0
M  V30 5659 H 539.7 4.57335 5.40602 0
M  V30 5660 H 540.108 2.93203 4.82382 0
M  V30 5661 N 539.506 -0.963266 1.24736 0
M  V30 5662 C 540.734 -1.74166 1.11686 0
M  V30 5663 C 541.149 -1.8589 -0.330187 0
M  V30 5664 O 540.506 -1.35042 -1.2276 0
M  V30 5665 C 540.557 -3.15989 1.75595 0
M  V30 5666 O 540.278 -3.04847 3.14642 0
M  V30 5667 C 541.779 -4.10145 1.68213 0
M  V30 5668 H 538.999 -0.546031 0.389989 0
M  V30 5669 H 541.543 -1.20907 1.64929 0
M  V30 5670 H 539.698 -3.66219 1.26343 0
M  V30 5671 H 540.112 -3.9425 3.4593 0
M  V30 5672 H 541.586 -5.07299 2.17604 0
M  V30 5673 H 542.063 -4.3445 0.644208 0
M  V30 5674 H 542.669 -3.65827 2.16912 0
M  V30 5675 N 540.985 -1.06182 -1.16461 0
M  V30 5676 C 542.215 -0.797425 -1.9059 0
M  V30 5677 C 542.623 0.651845 -1.77616 0
M  V30 5678 O 541.966 1.45788 -1.11766 0
M  V30 5679 C 542.028 -1.11128 -3.41893 0
M  V30 5680 C 541.692 -2.55874 -3.78652 0
M  V30 5681 C 542.689 -3.54104 -3.80665 0
M  V30 5682 C 540.374 -2.91144 -4.09317 0
M  V30 5683 C 542.368 -4.85645 -4.12829 0
M  V30 5684 C 540.055 -4.22885 -4.41148 0
M  V30 5685 C 541.053 -5.19945 -4.42883 0
M  V30 5686 O 540.741 -6.49322 -4.73959 0
M  V30 5687 H 540.473 -0.288709 -0.611247 0
M  V30 5688 H 543.027 -1.41841 -1.4856 0
M  V30 5689 H 541.257 -0.433217 -3.84266 0
M  V30 5690 H 542.946 -0.831306 -3.97296 0
M  V30 5691 H 543.712 -3.28197 -3.57088 0
M  V30 5692 H 539.591 -2.16252 -4.07131 0
M  V30 5693 H 543.135 -5.61398 -4.14099 0
M  V30 5694 H 539.032 -4.48551 -4.6419 0
M  V30 5695 H 539.8 -6.54294 -4.91774 0
M  V30 5696 N 542.463 1.3308 -0.844243 0
M  V30 5697 C 543.712 1.96868 -0.438833 0
M  V30 5698 C 544.025 1.67599 1.00846 0
M  V30 5699 O 545.231 2.25043 1.51881 0
M  V30 5700 C 543.687 3.5234 -0.73377 0
M  V30 5701 C 543.295 3.90481 -2.1961 0
M  V30 5702 C 545.039 4.22653 -0.395574 0
M  V30 5703 C 542.946 5.38954 -2.43481 0
M  V30 5704 H 541.876 0.736749 -0.160364 0
M  V30 5705 H 544.527 1.51623 -1.03358 0
M  V30 5706 H 542.909 3.95941 -0.068589 0
M  V30 5707 H 544.083 3.57922 -2.90221 0
M  V30 5708 H 542.398 3.33165 -2.4978 0
M  V30 5709 H 544.995 5.31848 -0.551477 0
M  V30 5710 H 545.338 4.11004 0.661921 0
M  V30 5711 H 545.871 3.84601 -1.01621 0
M  V30 5712 H 542.61 5.55612 -3.47816 0
M  V30 5713 H 542.13 5.72954 -1.77437 0
M  V30 5714 H 543.809 6.05907 -2.26905 0
M  V30 5715 N 543.941 0.601185 1.45683 0
M  V30 5716 C 545.181 0.0968037 2.04171 0
M  V30 5717 C 545.545 -1.2466 1.46027 0
M  V30 5718 O 546.746 -1.84132 1.95829 0
M  V30 5719 C 545.017 0.051384 3.57363 0
M  V30 5720 S 546.576 -0.392737 4.37039 0
M  V30 5721 H 543.394 0.0464504 0.709481 0
M  V30 5722 H 545.996 0.797846 1.78479 0
M  V30 5723 H 544.7 1.03274 3.97193 0
M  V30 5724 H 544.231 -0.671853 3.87621 0
M  V30 5725 H 546.246 -1.64364 4.68187 0
M  V30 5726 N 545.419 -1.53889 0.339982 0
M  V30 5727 C 546.665 -2.01849 -0.250694 0
M  V30 5728 C 547.02 -1.22356 -1.48482 0
M  V30 5729 O 546.313 -0.301906 -1.89206 0
M  V30 5730 C 546.507 -3.51968 -0.620735 0
M  V30 5731 C 546.336 -4.45996 0.575981 0
M  V30 5732 C 545.106 -4.93619 1.08019 0
M  V30 5733 C 547.304 -4.93923 1.43332 0
M  V30 5734 N 545.286 -5.7159 2.2396 0
M  V30 5735 C 546.657 -5.69982 2.43969 0
M  V30 5736 C 548.712 -4.76038 1.45918 0
M  V30 5737 C 547.415 -6.30057 3.47016 0
M  V30 5738 C 549.441 -5.36961 2.47845 0
M  V30 5739 C 548.803 -6.12884 3.47208 0
M  V30 5740 H 544.902 -0.780054 -0.0551368 0
M  V30 5741 H 547.486 -1.88722 0.478741 0
M  V30 5742 H 545.657 -3.65308 -1.31928 0
M  V30 5743 H 547.389 -3.86677 -1.19429 0
M  V30 5744 H 544.144 -4.69134 0.64884 0
M  V30 5745 H 544.568 -6.15247 2.82489 0
M  V30 5746 H 549.21 -4.16887 0.704608 0
M  V30 5747 H 546.928 -6.88319 4.23371 0
M  V30 5748 H 550.514 -5.2503 2.50668 0
M  V30 5749 H 549.394 -6.59187 4.24785 0
M  V30 5750 N 546.897 -0.0685191 -1.57451 0
M  V30 5751 C 548.308 0.464634 -1.80826 0
M  V30 5752 C 548.659 1.69847 -0.982169 0
M  V30 5753 O 547.784 2.15439 -0.203734 0
M  V30 5754 C 548.379 0.849721 -3.27971 0
M  V30 5755 C 546.938 1.32776 -3.52204 0
M  V30 5756 C 546.085 0.311332 -2.75547 0
M  V30 5757 H 549.036 -0.294248 -1.55948 0
M  V30 5758 H 549.057 1.71138 -3.39841 0
M  V30 5759 H 548.569 -0.0484736 -3.8807 0
M  V30 5760 H 546.67 2.24456 -2.97406 0
M  V30 5761 H 546.783 1.30794 -4.60901 0
M  V30 5762 H 545.147 0.787915 -2.42206 0
M  V30 5763 H 545.93 -0.579078 -3.38381 0
M  V30 5764 N 548.375 1.56261 0.205012 0
M  V30 5765 C 549.603 1.84141 0.943386 0
M  V30 5766 C 550.018 0.649772 1.77266 0
M  V30 5767 O 549.375 -0.381612 1.78466 0
M  V30 5768 C 549.426 3.10719 1.84759 0
M  V30 5769 O 549.147 4.25286 1.05181 0
M  V30 5770 C 550.648 3.51706 2.69848 0
M  V30 5771 H 547.868 0.611734 0.275721 0
M  V30 5772 H 550.412 2.03364 0.215253 0
M  V30 5773 H 548.567 2.93422 2.52947 0
M  V30 5774 H 548.981 4.97301 1.66709 0
M  V30 5775 H 550.455 4.43266 3.28967 0
M  V30 5776 H 550.932 2.7423 3.43067 0
M  V30 5777 H 551.538 3.71499 2.07047 0
M  V30 5778 N 549.853 -0.472356 1.50355 0
M  V30 5779 C 551.099 -1.22634 1.6152 0
M  V30 5780 C 551.432 -1.91645 0.313995 0
M  V30 5781 O 550.707 -1.82059 -0.684446 0
M  V30 5782 C 550.99 -2.27099 2.7946 0
M  V30 5783 C 550.843 -1.62402 4.19459 0
M  V30 5784 C 552.162 -3.28421 2.92964 0
M  V30 5785 H 549.281 -0.444494 0.587873 0
M  V30 5786 H 551.923 -0.520321 1.82737 0
M  V30 5787 H 550.073 -2.87314 2.61501 0
M  V30 5788 H 551.745 -1.05793 4.49005 0
M  V30 5789 H 549.988 -0.927184 4.23776 0
M  V30 5790 H 550.659 -2.38309 4.97909 0
M  V30 5791 H 553.135 -2.78227 3.09401 0
M  V30 5792 H 552.011 -3.98845 3.77113 0
M  V30 5793 H 552.272 -3.92467 2.03525 0
M  V30 5794 N 551.331 -1.39911 -0.725443 0
M  V30 5795 C 552.294 -1.39156 -1.82121 0
M  V30 5796 C 553.294 -0.287018 -1.58218 0
M  V30 5797 O 554.484 -0.545421 -1.65441 0
M  V30 5798 C 551.616 -1.1736 -3.20062 0
M  V30 5799 H 552.809 -2.36672 -1.84191 0
M  V30 5800 H 550.362 -1.25615 -0.930079 0
M  V30 5801 H 551.097 -0.205648 -3.23647 0
M  V30 5802 H 550.882 -1.97358 -3.3881 0
M  V30 5803 H 552.372 -1.19596 -4.00108 0
M  V30 5804 N 552.809 0.956637 -1.25245 0
M  V30 5805 C 554.22 1.51569 -1.09012 0
M  V30 5806 C 554.571 1.93322 0.334813 0
M  V30 5807 O 553.696 1.78421 1.22454 0
M  V30 5808 C 554.291 2.75444 -1.97271 0
M  V30 5809 C 552.85 3.27669 -1.8523 0
M  V30 5810 C 551.997 2.00517 -1.91542 0
M  V30 5811 H 554.948 0.773746 -1.3856 0
M  V30 5812 H 554.969 3.4919 -1.51151 0
M  V30 5813 H 554.481 2.45024 -3.00973 0
M  V30 5814 H 552.582 3.62914 -0.844045 0
M  V30 5815 H 552.695 3.9582 -2.69932 0
M  V30 5816 H 551.059 2.15727 -1.35404 0
M  V30 5817 H 551.842 1.72448 -2.96844 0
M  V30 5818 N 554.287 1.06798 1.15896 0
M  V30 5819 C 555.512 0.808739 1.90982 0
M  V30 5820 C 555.937 -0.6316 1.77179 0
M  V30 5821 O 555.295 -1.4407 1.10061 0
M  V30 5822 C 555.343 1.21468 3.39526 0
M  V30 5823 O 554.447 0.356562 4.10856 0
M  V30 5824 H 553.788 0.29512 0.594811 0
M  V30 5825 H 556.318 1.42513 1.46804 0
M  V30 5826 H 556.328 1.18844 3.90308 0
M  V30 5827 H 555.003 2.26379 3.48891 0
M  V30 5828 H 553.58 0.444808 3.70238 0
M  V30 5829 N 555.766 -1.3263 0.851289 0
M  V30 5830 C 556.991 -2.02097 0.466006 0
M  V30 5831 C 557.416 -1.63574 -0.928709 0
M  V30 5832 O 556.774 -0.834665 -1.60944 0
M  V30 5833 C 556.822 -3.55425 0.608737 0
M  V30 5834 O 555.926 -4.10827 -0.359878 0
M  V30 5835 H 555.267 -0.636911 0.187724 0
M  V30 5836 H 557.797 -1.69253 1.14955 0
M  V30 5837 H 557.807 -4.04986 0.495006 0
M  V30 5838 H 556.482 -3.82806 1.62581 0
M  V30 5839 H 555.059 -3.72349 -0.202666 0
M  V30 5840 N 557.244 -0.608902 -1.45362 0
M  V30 5841 C 558.207 0.0992563 -2.28985 0
M  V30 5842 C 559.207 0.793841 -1.39838 0
M  V30 5843 O 560.397 0.641804 -1.61946 0
M  V30 5844 C 557.529 1.15073 -3.20891 0
M  V30 5845 H 558.722 -0.635964 -2.93079 0
M  V30 5846 H 556.275 -0.368007 -1.51906 0
M  V30 5847 H 557.01 1.91667 -2.616 0
M  V30 5848 H 556.795 0.656867 -3.86559 0
M  V30 5849 H 558.285 1.64665 -3.83765 0
M  V30 5850 N 558.722 1.53707 -0.348139 0
M  V30 5851 C 559.952 2.05108 0.247864 0
M  V30 5852 C 560.36 1.22252 1.44399 0
M  V30 5853 O 559.703 0.251853 1.81965 0
M  V30 5854 C 559.765 3.52171 0.722187 0
M  V30 5855 C 559.429 4.5562 -0.354902 0
M  V30 5856 C 560.426 5.05883 -1.19911 0
M  V30 5857 C 558.111 4.99703 -0.510145 0
M  V30 5858 C 560.105 5.98814 -2.18406 0
M  V30 5859 C 557.792 5.92443 -1.49848 0
M  V30 5860 C 558.79 6.41887 -2.33389 0
M  V30 5861 O 558.478 7.32802 -3.3054 0
M  V30 5862 H 558.21 0.674086 0.0508296 0
M  V30 5863 H 560.764 1.99229 -0.49968 0
M  V30 5864 H 558.994 3.55529 1.52105 0
M  V30 5865 H 560.683 3.8652 1.23925 0
M  V30 5866 H 561.449 4.72586 -1.09028 0
M  V30 5867 H 557.328 4.60816 0.130274 0
M  V30 5868 H 560.872 6.3733 -2.83649 0
M  V30 5869 H 556.769 6.25155 -1.60786 0
M  V30 5870 H 557.537 7.50749 -3.26064 0
M  V30 5871 N 560.2 0.0768682 1.57412 0
M  V30 5872 C 561.446 -0.591961 1.93968 0
M  V30 5873 C 561.779 -1.68954 0.9575 0
M  V30 5874 O 561.054 -1.94496 -0.0124675 0
M  V30 5875 C 561.337 -1.16418 3.40762 0
M  V30 5876 C 561.19 -0.0728933 4.49741 0
M  V30 5877 C 562.509 -2.06814 3.88479 0
M  V30 5878 H 559.628 -0.213716 0.705333 0
M  V30 5879 H 562.27 0.14387 1.89455 0
M  V30 5880 H 560.42 -1.79128 3.4474 0
M  V30 5881 H 562.092 0.560446 4.57883 0
M  V30 5882 H 560.335 0.595859 4.29688 0
M  V30 5883 H 561.006 -0.513755 5.49604 0
M  V30 5884 H 563.482 -1.54033 3.8654 0
M  V30 5885 H 562.358 -2.43785 4.91793 0
M  V30 5886 H 562.619 -2.97844 3.26713 0
M  V30 5887 N 561.678 -1.56367 -0.196722 0
M  V30 5888 C 562.908 -1.84371 -0.932254 0
M  V30 5889 C 563.316 -0.657013 -1.77426 0
M  V30 5890 O 562.659 0.383576 -1.79651 0
M  V30 5891 C 562.721 -3.06454 -1.87952 0
M  V30 5892 C 562.385 -4.40425 -1.21962 0
M  V30 5893 C 563.382 -5.16457 -0.597343 0
M  V30 5894 C 561.067 -4.8716 -1.22396 0
M  V30 5895 C 563.061 -6.37399 0.0117913 0
M  V30 5896 C 560.748 -6.08038 -0.610995 0
M  V30 5897 C 561.746 -6.83 0.00580487 0
M  V30 5898 O 561.434 -8.01589 0.609173 0
M  V30 5899 H 561.166 -0.616377 -0.277589 0
M  V30 5900 H 563.72 -2.04329 -0.209452 0
M  V30 5901 H 561.95 -2.82377 -2.64197 0
M  V30 5902 H 563.639 -3.21118 -2.48271 0
M  V30 5903 H 564.405 -4.81445 -0.586142 0
M  V30 5904 H 560.284 -4.2877 -1.69345 0
M  V30 5905 H 563.828 -6.9585 0.493836 0
M  V30 5906 H 559.725 -6.42519 -0.619693 0
M  V30 5907 H 560.493 -8.16935 0.505919 0
M  V30 5908 N 563.156 0.464375 -1.50603 0
M  V30 5909 C 564.103 1.56152 -1.69956 0
M  V30 5910 C 565.073 1.57046 -0.54091 0
M  V30 5911 O 566.258 1.74473 -0.772258 0
M  V30 5912 C 563.398 2.94079 -1.80586 0
M  V30 5913 C 562.511 3.02923 -3.07996 0
M  V30 5914 C 561.646 4.31806 -3.09382 0
M  V30 5915 C 560.685 4.34417 -4.31218 0
M  V30 5916 N 559.822 5.54782 -4.30304 0
M  V30 5917 H 564.662 1.38955 -2.6362 0
M  V30 5918 H 562.199 0.675482 -1.30674 0
M  V30 5919 H 564.157 3.74073 -1.8473 0
M  V30 5920 H 562.787 3.09896 -0.903556 0
M  V30 5921 H 561.839 2.1576 -3.13292 0
M  V30 5922 H 563.151 3.00712 -3.97962 0
M  V30 5923 H 562.305 5.20153 -3.12292 0
M  V30 5924 H 561.044 4.36636 -2.17257 0
M  V30 5925 H 560.049 3.44467 -4.28512 0
M  V30 5926 H 561.274 4.31273 -5.24576 0
M  V30 5927 H 559.22 5.60384 -3.41037 0
M  V30 5928 H 559.137 5.54339 -5.14047 0
M  V30 5929 H 560.405 6.45235 -4.3737 0
M  V30 5930 N 564.634 1.40294 0.718013 0
M  V30 5931 C 565.882 1.38167 1.47494 0
M  V30 5932 C 566.203 -0.01607 1.94993 0
M  V30 5933 O 565.473 -0.970396 1.70177 0
M  V30 5934 H 564.053 0.508505 0.547203 0
M  V30 5935 H 566.715 1.75324 0.851322 0
M  V30 5936 H 565.811 2.05503 2.34894 0
M  V30 5937 N 566.112 -0.949982 1.2575 0
M  V30 5938 C 567.36 -1.6918 1.10555 0
M  V30 5939 C 567.681 -1.91773 -0.353298 0
M  V30 5940 O 566.951 -1.50814 -1.25027 0
M  V30 5941 H 565.531 -0.626952 0.406129 0
M  V30 5942 H 568.193 -1.1419 1.57945 0
M  V30 5943 H 567.289 -2.66915 1.61749 0
M  V30 5944 N 567.59 -1.07411 -1.15328 0
M  V30 5945 C 568.537 -0.694995 -2.20087 0
M  V30 5946 C 569.507 0.313904 -1.63107 0
M  V30 5947 O 570.692 0.200216 -1.89747 0
M  V30 5948 C 567.832 -0.0996218 -3.44956 0
M  V30 5949 C 566.945 -1.16007 -4.16133 0
M  V30 5950 C 566.08 -0.529636 -5.28553 0
M  V30 5951 C 565.119 -1.57283 -5.91548 0
M  V30 5952 N 564.256 -0.964932 -6.95438 0
M  V30 5953 H 569.096 -1.5927 -2.51867 0
M  V30 5954 H 566.633 -0.796115 -1.23695 0
M  V30 5955 H 568.591 0.263197 -4.16369 0
M  V30 5956 H 567.221 0.761435 -3.13691 0
M  V30 5957 H 566.273 -1.64045 -3.4321 0
M  V30 5958 H 567.585 -1.95101 -4.59061 0
M  V30 5959 H 566.739 -0.114487 -6.06592 0
M  V30 5960 H 565.478 0.29307 -4.86819 0
M  V30 5961 H 564.483 -1.99775 -5.12221 0
M  V30 5962 H 565.708 -2.39783 -6.35359 0
M  V30 5963 H 563.654 -0.16314 -6.55797 0
M  V30 5964 H 563.571 -1.69311 -7.36797 0
M  V30 5965 H 564.839 -0.575305 -7.77374 0
M  V30 5966 N 569.068 1.32177 -0.85831 0
M  V30 5967 C 570.015 2.28794 -0.303607 0
M  V30 5968 C 570.985 1.55213 0.591453 0
M  V30 5969 O 572.17 1.83418 0.525585 0
M  V30 5970 C 569.31 3.41475 0.49889 0
M  V30 5971 C 568.423 4.2993 -0.422373 0
M  V30 5972 C 567.558 5.29743 0.393111 0
M  V30 5973 C 566.597 6.09842 -0.525317 0
M  V30 5974 N 565.734 7.01643 0.253208 0
M  V30 5975 H 570.574 2.75631 -1.13276 0
M  V30 5976 H 568.111 1.35606 -0.570026 0
M  V30 5977 H 570.069 4.05531 0.979826 0
M  V30 5978 H 568.699 2.95779 1.29284 0
M  V30 5979 H 567.751 3.66422 -1.02171 0
M  V30 5980 H 569.063 4.85899 -1.12709 0
M  V30 5981 H 568.217 5.9942 0.937056 0
M  V30 5982 H 566.956 4.744 1.13117 0
M  V30 5983 H 565.961 5.39066 -1.08112 0
M  V30 5984 H 567.186 6.6727 -1.26205 0
M  V30 5985 H 565.132 6.48725 0.974295 0
M  V30 5986 H 565.049 7.54981 -0.392398 0
M  V30 5987 H 566.317 7.756 0.778761 0
M  V30 5988 N 570.547 0.616602 1.45037 0
M  V30 5989 C 571.51 -0.0871112 2.29034 0
M  V30 5990 C 572.51 -0.786414 1.40258 0
M  V30 5991 O 573.7 -0.633207 1.62284 0
M  V30 5992 C 570.832 -1.13369 3.21497 0
M  V30 5993 H 572.025 0.651497 2.92738 0
M  V30 5994 H 569.578 0.376058 1.51709 0
M  V30 5995 H 570.313 -1.90277 2.62612 0
M  V30 5996 H 570.098 -0.636358 3.86902 0
M  V30 5997 H 571.588 -1.62627 3.84633 0
M  V30 5998 N 572.025 -1.5352 0.356285 0
M  V30 5999 C 573.274 -2.00298 -0.237373 0
M  V30 6000 C 573.587 -1.24784 -1.50627 0
M  V30 6001 O 574.793 -1.62103 -2.17795 0
M  V30 6002 C 573.249 -3.56771 -0.473545 0
M  V30 6003 C 572.857 -4.41154 0.780183 0
M  V30 6004 C 574.601 -4.1193 -1.02537 0
M  V30 6005 C 572.508 -5.89161 0.514108 0
M  V30 6006 H 571.438 -0.748307 -0.092478 0
M  V30 6007 H 574.089 -1.77283 0.473588 0
M  V30 6008 H 572.471 -3.75902 -1.24553 0
M  V30 6009 H 573.645 -4.33797 1.55425 0
M  V30 6010 H 571.96 -3.97052 1.25455 0
M  V30 6011 H 574.557 -5.20133 -1.2396 0
M  V30 6012 H 574.9 -3.65943 -1.98473 0
M  V30 6013 H 575.433 -3.96561 -0.313775 0
M  V30 6014 H 572.172 -6.39408 1.44355 0
M  V30 6015 H 571.692 -5.9939 -0.221632 0
M  V30 6016 H 573.371 -6.46857 0.136122 0
M  V30 6017 N 573.503 -0.0852151 -1.57369 0
M  V30 6018 C 574.731 0.58946 -1.98325 0
M  V30 6019 C 575.146 1.62333 -0.96403 0
M  V30 6020 O 574.503 1.82438 0.0476395 0
M  V30 6021 C 574.554 1.24604 -3.39347 0
M  V30 6022 O 574.275 0.253532 -4.37366 0
M  V30 6023 C 575.776 2.00726 -3.95252 0
M  V30 6024 H 572.996 0.158783 -0.651942 0
M  V30 6025 H 575.54 -0.161584 -2.03861 0
M  V30 6026 H 573.695 1.94808 -3.34856 0
M  V30 6027 H 574.109 0.726207 -5.19448 0
M  V30 6028 H 575.583 2.42039 -4.96106 0
M  V30 6029 H 576.06 2.86919 -3.32527 0
M  V30 6030 H 576.666 1.3536 -4.03185 0
M  V30 6031 N 574.981 1.5647 0.188427 0
M  V30 6032 C 576.229 1.80655 0.905986 0
M  V30 6033 C 576.55 0.659391 1.83513 0
M  V30 6034 O 575.82 -0.321868 1.93238 0
M  V30 6035 H 574.4 0.666391 0.337538 0
M  V30 6036 H 577.062 1.93949 0.192339 0
M  V30 6037 H 576.158 2.74066 1.49313 0
M  V30 6038 N 576.459 -0.456382 1.50847 0
M  V30 6039 C 577.705 -1.20618 1.63777 0
M  V30 6040 C 578.06 -1.8936 0.340677 0
M  V30 6041 O 577.353 -1.79786 -0.662378 0
M  V30 6042 C 577.547 -2.26336 2.76599 0
M  V30 6043 C 577.376 -1.67968 4.17153 0
M  V30 6044 C 576.146 -1.47293 4.83356 0
M  V30 6045 C 578.344 -1.16643 5.00898 0
M  V30 6046 N 576.326 -0.843222 6.08081 0
M  V30 6047 C 577.697 -0.660843 6.16468 0
M  V30 6048 C 579.752 -1.05637 4.86565 0
M  V30 6049 C 578.455 -0.0560365 7.19278 0
M  V30 6050 C 580.481 -0.465485 5.89565 0
M  V30 6051 C 579.843 0.0296516 7.04394 0
M  V30 6052 H 575.942 -0.429725 0.653345 0
M  V30 6053 H 578.526 -0.505784 1.88016 0
M  V30 6054 H 576.697 -2.93785 2.54056 0
M  V30 6055 H 578.429 -2.9334 2.78808 0
M  V30 6056 H 575.184 -1.72934 4.40898 0
M  V30 6057 H 575.608 -0.546357 6.74792 0
M  V30 6058 H 580.25 -1.42508 3.98059 0
M  V30 6059 H 577.968 0.324845 8.07447 0
M  V30 6060 H 581.554 -0.382493 5.80541 0
M  V30 6061 H 580.434 0.479705 7.82731 0
M  V30 6062 N 577.937 -1.40673 -0.710563 0
M  V30 6063 C 578.847 -1.43663 -1.85467 0
M  V30 6064 C 579.863 -0.328721 -1.70867 0
M  V30 6065 O 581.039 -0.574098 -1.93044 0
M  V30 6066 C 578.104 -1.30226 -3.21313 0
M  V30 6067 C 577.165 -2.51204 -3.48131 0
M  V30 6068 C 576.398 -2.38398 -4.77495 0
M  V30 6069 O 576.621 -1.40048 -5.5294 0
M  V30 6070 O 575.555 -3.2787 -5.04762 0
M  V30 6071 H 579.381 -2.40156 -1.859 0
M  V30 6072 H 576.966 -1.22049 -0.861652 0
M  V30 6073 H 578.848 -1.2496 -4.02446 0
M  V30 6074 H 577.523 -0.368419 -3.21597 0
M  V30 6075 H 576.43 -2.62048 -2.66987 0
M  V30 6076 H 577.763 -3.43366 -3.52648 0
M  V30 6077 N 579.415 0.9433 -1.26252 0
M  V30 6078 C 580.363 2.06302 -1.07434 0
M  V30 6079 C 581.357 1.694 -0.00189471 0
M  V30 6080 O 582.563 1.79302 -0.158408 0
M  V30 6081 H 578.938 0.675453 -0.330556 0
M  V30 6082 H 580.909 2.19326 -2.02333 0
M  V30 6083 C 579.658 3.40125 -0.721817 0
M  V30 6084 H 578.981 3.68996 -1.5389 0
M  V30 6085 H 580.421 4.19295 -0.629922 0
M  V30 6086 C 578.88 3.31993 0.572902 0
M  V30 6087 O 579.41 3.67945 1.61182 0
M  V30 6088 N 577.616 2.85099 0.562748 0
M  V30 6089 H 577.163 2.5604 -0.283092 0
M  V30 6090 H 577.121 2.80041 1.42915 0
M  V30 6091 N 580.893 1.08022 1.14757 0
M  V30 6092 C 582.121 0.828847 1.89572 0
M  V30 6093 C 582.536 -0.618621 1.78377 0
M  V30 6094 O 581.893 -1.42482 1.1404 0
M  V30 6095 C 581.944 1.23677 3.39685 0
M  V30 6096 O 581.665 2.62746 3.50566 0
M  V30 6097 C 583.166 1.01569 4.31507 0
M  V30 6098 H 580.386 0.299196 0.600602 0
M  V30 6099 H 582.93 1.43846 1.45357 0
M  V30 6100 H 581.085 0.671347 3.81539 0
M  V30 6101 H 581.499 2.79573 4.43778 0
M  V30 6102 H 582.973 1.35055 5.35223 0
M  V30 6103 H 583.45 -0.0475433 4.39174 0
M  V30 6104 H 584.056 1.56636 3.95405 0
M  V30 6105 N 582.371 -1.3172 0.865308 0
M  V30 6106 C 583.301 -2.31109 0.333302 0
M  V30 6107 C 584.282 -1.60148 -0.573301 0
M  V30 6108 O 585.467 -1.87882 -0.491305 0
M  V30 6109 C 582.597 -3.44104 -0.470078 0
M  V30 6110 C 581.551 -4.26623 0.343021 0
M  V30 6111 C 580.877 -5.31482 -0.585756 0
M  V30 6112 C 582.177 -4.98001 1.57456 0
M  V30 6113 H 583.871 -2.75855 1.1638 0
M  V30 6114 H 581.417 -1.3262 0.561069 0
M  V30 6115 H 583.37 -4.12682 -0.852752 0
M  V30 6116 H 582.094 -2.98112 -1.33404 0
M  V30 6117 H 580.753 -3.59707 0.707583 0
M  V30 6118 H 580.401 -4.81741 -1.44686 0
M  V30 6119 H 580.101 -5.87582 -0.0456494 0
M  V30 6120 H 581.625 -6.0292 -0.965375 0
M  V30 6121 H 583.039 -5.59201 1.26359 0
M  V30 6122 H 581.436 -5.63876 2.05339 0
M  V30 6123 H 582.506 -4.25253 2.32997 0
M  V30 6124 N 583.85 -0.624285 -1.44708 0
M  V30 6125 C 584.779 0.0717025 -2.3339 0
M  V30 6126 C 585.76 0.841814 -1.47809 0
M  V30 6127 O 586.946 0.809056 -1.76544 0
M  V30 6128 C 584.076 1.05852 -3.30776 0
M  V30 6129 C 583.029 0.400503 -4.26122 0
M  V30 6130 C 582.356 1.49674 -5.13324 0
M  V30 6131 C 583.656 -0.688924 -5.17737 0
M  V30 6132 H 585.35 -0.668819 -2.91834 0
M  V30 6133 H 582.896 -0.32308 -1.40329 0
M  V30 6134 H 584.849 1.5541 -3.91696 0
M  V30 6135 H 583.572 1.82984 -2.70526 0
M  V30 6136 H 582.231 -0.0743687 -3.66525 0
M  V30 6137 H 581.88 2.25877 -4.49431 0
M  V30 6138 H 581.58 1.06188 -5.77926 0
M  V30 6139 H 583.104 1.99427 -5.77115 0
M  V30 6140 H 584.518 -0.276724 -5.72632 0
M  V30 6141 H 582.915 -1.04652 -5.90904 0
M  V30 6142 H 583.985 -1.55884 -4.5916 0
M  V30 6143 N 585.328 1.53329 -0.364422 0
M  V30 6144 C 586.574 2.01537 0.225969 0
M  V30 6145 C 586.907 1.25128 1.48515 0
M  V30 6146 O 586.182 0.344653 1.91422 0
M  V30 6147 C 586.465 3.56339 0.519092 0
M  V30 6148 C 586.318 4.43441 -0.753639 0
M  V30 6149 C 587.637 4.19833 1.32015 0
M  V30 6150 H 584.756 0.732573 0.0806548 0
M  V30 6151 H 587.398 1.83597 -0.489084 0
M  V30 6152 H 585.548 3.71756 1.12825 0
M  V30 6153 H 587.22 4.39823 -1.39116 0
M  V30 6154 H 585.463 4.11457 -1.37424 0
M  V30 6155 H 586.134 5.49699 -0.503517 0
M  V30 6156 H 588.61 4.08242 0.804859 0
M  V30 6157 H 587.486 5.28177 1.49399 0
M  V30 6158 H 587.747 3.75821 2.32832 0
M  V30 6159 N 586.806 0.0935595 1.57322 0
M  V30 6160 C 588.217 -0.435807 1.81542 0
M  V30 6161 C 588.568 -1.68263 1.00907 0
M  V30 6162 O 587.693 -2.15087 0.237983 0
M  V30 6163 C 588.288 -0.797436 3.29282 0
M  V30 6164 C 586.847 -1.27155 3.54272 0
M  V30 6165 C 585.994 -0.267455 2.76007 0
M  V30 6166 H 588.945 0.31902 1.5546 0
M  V30 6167 H 588.966 -1.6571 3.42521 0
M  V30 6168 H 588.478 0.110206 3.87943 0
M  V30 6169 H 586.579 -2.19696 3.00939 0
M  V30 6170 H 586.692 -1.23445 4.62923 0
M  V30 6171 H 585.056 -0.749282 2.43429 0
M  V30 6172 H 585.839 0.632839 3.37417 0
M  V30 6173 N 588.284 -1.56567 -0.180126 0
M  V30 6174 C 589.509 -1.85975 -0.918041 0
M  V30 6175 C 589.934 -0.678888 -1.75422 0
M  V30 6176 O 589.292 0.372168 -1.77439 0
M  V30 6177 C 589.34 -3.13731 -1.77779 0
M  V30 6178 O 588.444 -2.95335 -2.87838 0
M  V30 6179 H 587.785 -0.61196 -0.257683 0
M  V30 6180 H 590.315 -2.03798 -0.180923 0
M  V30 6181 H 590.325 -3.4491 -2.17948 0
M  V30 6182 H 589 -3.99293 -1.16352 0
M  V30 6183 H 587.577 -2.7549 -2.51316 0
M  V30 6184 N 589.762 0.448376 -1.51087 0
M  V30 6185 C 590.692 1.55102 -1.74544 0
M  V30 6186 C 591.673 1.59357 -0.594932 0
M  V30 6187 O 592.858 1.75261 -0.836491 0
M  V30 6188 C 589.988 2.93268 -1.86041 0
M  V30 6189 C 588.942 3.03877 -3.01402 0
M  V30 6190 C 588.268 4.43914 -2.98068 0
M  V30 6191 C 589.568 2.7898 -4.41551 0
M  V30 6192 H 591.262 1.35724 -2.66869 0
M  V30 6193 H 588.808 0.651498 -1.28419 0
M  V30 6194 H 590.761 3.70356 -2.01034 0
M  V30 6195 H 589.485 3.13853 -0.903548 0
M  V30 6196 H 588.144 2.29227 -2.86096 0
M  V30 6197 H 587.792 4.6145 -2.00182 0
M  V30 6198 H 587.492 4.51944 -3.75527 0
M  V30 6199 H 589.016 5.22991 -3.1514 0
M  V30 6200 H 590.43 3.45805 -4.57265 0
M  V30 6201 H 588.827 2.98431 -5.20633 0
M  V30 6202 H 589.897 1.74663 -4.5235 0
M  V30 6203 N 591.24 1.41047 0.703093 0
M  V30 6204 C 592.187 1.42302 1.81711 0
M  V30 6205 C 593.157 0.278336 1.63751 0
M  V30 6206 O 594.342 0.478266 1.84709 0
M  V30 6207 C 591.482 1.30362 3.19531 0
M  V30 6208 C 590.595 2.54638 3.48975 0
M  V30 6209 C 589.73 2.35047 4.76368 0
M  V30 6210 C 588.769 3.54837 4.98756 0
M  V30 6211 N 587.906 3.34363 6.1737 0
M  V30 6212 H 592.746 2.37516 1.79973 0
M  V30 6213 H 590.283 1.1795 0.878983 0
M  V30 6214 H 592.241 1.21443 3.99134 0
M  V30 6215 H 590.871 0.387602 3.20464 0
M  V30 6216 H 589.923 2.74037 2.63833 0
M  V30 6217 H 591.235 3.43766 3.61423 0
M  V30 6218 H 590.389 2.23552 5.64012 0
M  V30 6219 H 589.128 1.43363 4.66153 0
M  V30 6220 H 588.133 3.66795 4.09563 0
M  V30 6221 H 589.358 4.47464 5.10835 0
M  V30 6222 H 587.304 2.45373 6.08382 0
M  V30 6223 H 587.221 4.17063 6.30551 0
M  V30 6224 H 588.489 3.26626 7.07768 0
M  V30 6225 N 592.718 -0.936591 1.26751 0
M  V30 6226 C 594.134 -1.21095 1.03963 0
M  V30 6227 C 594.334 -2.00156 -0.232372 0
M  V30 6228 O 593.39 -2.3434 -0.940274 0
M  V30 6229 C 594.703 -1.96775 2.27377 0
M  V30 6230 C 596.251 -2.09749 2.32324 0
M  V30 6231 C 596.726 -2.88832 3.55443 0
M  V30 6232 N 598.217 -2.96404 3.55948 0
M  V30 6233 C 598.952 -3.58036 4.47881 0
M  V30 6234 N 598.448 -4.21132 5.50109 0
M  V30 6235 N 600.241 -3.55353 4.35523 0
M  V30 6236 H 592.392 -0.408173 2.08441 0
M  V30 6237 H 594.655 -0.243139 0.91629 0
M  V30 6238 H 594.361 -1.46094 3.19921 0
M  V30 6239 H 594.235 -2.97424 2.31989 0
M  V30 6240 H 596.622 -2.5962 1.40291 0
M  V30 6241 H 596.703 -1.08347 2.31721 0
M  V30 6242 H 596.347 -2.39647 4.47808 0
M  V30 6243 H 596.277 -3.90499 3.53296 0
M  V30 6244 H 598.768 -2.51552 2.82011 0
M  V30 6245 H 599.081 -4.66071 6.16439 0
M  V30 6246 H 597.426 -4.19705 5.53961 0
M  V30 6247 H 600.617 -3.05256 3.54875 0
M  V30 6248 H 600.79 -4.03097 5.07363 0
M  V30 6249 N 594.196 -1.08629 -1.14182 0
M  V30 6250 C 595.444 -0.815731 -1.84906 0
M  V30 6251 C 595.765 0.660441 -1.83475 0
M  V30 6252 O 595.035 1.47888 -1.28476 0
M  V30 6253 H 593.615 -0.298773 -0.684648 0
M  V30 6254 H 596.277 -1.37274 -1.38354 0
M  V30 6255 H 595.373 -1.16193 -2.89665 0
M  V30 6256 N 595.674 1.31259 -0.872281 0
M  V30 6257 C 596.92 1.96913 -0.485083 0
M  V30 6258 C 597.253 1.68774 0.960667 0
M  V30 6259 O 596.528 0.985495 1.67685 0
M  V30 6260 C 596.811 3.52299 -0.745502 0
M  V30 6261 C 596.664 3.90002 -2.24095 0
M  V30 6262 C 597.983 4.39582 -0.213516 0
M  V30 6263 H 595.102 0.715252 -0.177716 0
M  V30 6264 H 597.744 1.55347 -1.09395 0
M  V30 6265 H 595.894 3.87835 -0.227276 0
M  V30 6266 H 597.566 3.64555 -2.82661 0
M  V30 6267 H 595.809 3.38526 -2.71261 0
M  V30 6268 H 596.48 4.98352 -2.37381 0
M  V30 6269 H 598.956 4.10882 -0.656902 0
M  V30 6270 H 597.832 5.47251 -0.42516 0
M  V30 6271 H 598.093 4.33158 0.884666 0
M  V30 6272 N 597.152 0.631951 1.44375 0
M  V30 6273 C 598.401 0.134214 2.01253 0
M  V30 6274 C 598.714 -1.25171 1.50305 0
M  V30 6275 O 599.92 -1.8435 1.99317 0
M  V30 6276 C 598.376 0.189187 3.59402 0
M  V30 6277 C 597.984 1.57647 4.19346 0
M  V30 6278 C 599.728 -0.252044 4.23751 0
M  V30 6279 C 597.635 1.58651 5.69722 0
M  V30 6280 H 596.565 0.0464101 0.75257 0
M  V30 6281 H 599.216 0.790868 1.65582 0
M  V30 6282 H 597.598 -0.534584 3.92375 0
M  V30 6283 H 598.772 2.32389 3.97909 0
M  V30 6284 H 597.087 1.96186 3.67288 0
M  V30 6285 H 599.684 -0.264084 5.34047 0
M  V30 6286 H 600.027 -1.27951 3.96149 0
M  V30 6287 H 600.56 0.41926 3.95584 0
M  V30 6288 H 597.299 2.59237 6.0206 0
M  V30 6289 H 596.819 0.882039 5.93279 0
M  V30 6290 H 598.498 1.32082 6.33375 0
M  V30 6291 N 598.631 -1.53133 0.372548 0
M  V30 6292 C 599.878 -2.01356 -0.214959 0
M  V30 6293 C 600.206 -1.2596 -1.48204 0
M  V30 6294 O 599.461 -0.343511 -1.92662 0
M  V30 6295 C 599.76 -3.53206 -0.545938 0
M  V30 6296 C 599.426 -4.46511 0.627624 0
M  V30 6297 C 598.088 -4.71737 0.949615 0
M  V30 6298 C 600.44 -5.01666 1.41353 0
M  V30 6299 C 597.768 -5.4937 2.05936 0
M  V30 6300 C 600.12 -5.80511 2.51375 0
M  V30 6301 C 598.784 -6.04022 2.84101 0
M  V30 6302 H 598.054 -0.736813 -0.078659 0
M  V30 6303 H 600.701 -1.84682 0.506447 0
M  V30 6304 H 599.006 -3.67864 -1.34845 0
M  V30 6305 H 600.703 -3.87997 -1.01287 0
M  V30 6306 H 597.293 -4.27029 0.366635 0
M  V30 6307 H 601.477 -4.82117 1.17802 0
M  V30 6308 H 596.733 -5.65803 2.31682 0
M  V30 6309 H 600.907 -6.22255 3.12684 0
M  V30 6310 H 598.534 -6.63962 3.70214 0
M  V30 6311 N 600.109 -0.101901 -1.5727 0
M  V30 6312 C 601.525 0.254739 -1.57554 0
M  V30 6313 C 601.725 1.67937 -1.11352 0
M  V30 6314 O 600.781 2.39722 -0.793081 0
M  V30 6315 C 602.094 0.036975 -3.00677 0
M  V30 6316 C 603.642 0.104199 -3.12827 0
M  V30 6317 C 604.117 -0.0856565 -4.5792 0
M  V30 6318 N 605.608 -0.0310498 -4.6319 0
M  V30 6319 C 606.343 -0.153099 -5.73196 0
M  V30 6320 N 605.839 -0.330364 -6.92012 0
M  V30 6321 N 607.632 -0.0938854 -5.62022 0
M  V30 6322 H 599.783 -1.03263 -1.85609 0
M  V30 6323 H 602.046 -0.405251 -0.857016 0
M  V30 6324 H 601.752 -0.947254 -3.38703 0
M  V30 6325 H 601.626 0.776335 -3.69124 0
M  V30 6326 H 604.013 1.07894 -2.74669 0
M  V30 6327 H 604.094 -0.666762 -2.46957 0
M  V30 6328 H 603.738 -1.05729 -4.96773 0
M  V30 6329 H 603.668 0.705082 -5.21858 0
M  V30 6330 H 606.159 0.103141 -3.77759 0
M  V30 6331 H 606.472 -0.41482 -7.71686 0
M  V30 6332 H 604.817 -0.366119 -6.94035 0
M  V30 6333 H 608.008 0.0435168 -4.6808 0
M  V30 6334 H 608.181 -0.19245 -6.47714 0
M  V30 6335 N 601.587 1.56661 0.17182 0
M  V30 6336 C 602.836 1.81158 0.886831 0
M  V30 6337 C 603.149 0.679072 1.83434 0
M  V30 6338 O 604.355 0.808964 2.59168 0
M  V30 6339 C 602.811 3.20999 1.6275 0
M  V30 6340 C 602.419 4.42117 0.723652 0
M  V30 6341 C 604.163 3.5479 2.33076 0
M  V30 6342 C 602.07 5.7298 1.46452 0
M  V30 6343 H 601 0.675543 0.334899 0
M  V30 6344 H 603.651 1.82967 0.139765 0
M  V30 6345 H 602.033 3.13506 2.4193 0
M  V30 6346 H 603.207 4.60789 -0.0311485 0
M  V30 6347 H 601.522 4.16197 0.130063 0
M  V30 6348 H 604.119 4.49806 2.89099 0
M  V30 6349 H 604.462 2.79646 3.08389 0
M  V30 6350 H 604.995 3.63834 1.6084 0
M  V30 6351 H 601.734 6.51152 0.753729 0
M  V30 6352 H 601.254 5.58285 2.19266 0
M  V30 6353 H 602.933 6.14916 2.01214 0
M  V30 6354 N 603.065 -0.440357 1.51323 0
M  V30 6355 C 604.012 -1.53429 1.72419 0
M  V30 6356 C 604.982 -1.56165 0.565826 0
M  V30 6357 O 606.167 -1.73222 0.799917 0
M  V30 6358 C 603.307 -2.91169 1.85242 0
M  V30 6359 C 602.42 -2.97985 3.12777 0
M  V30 6360 C 601.555 -4.26829 3.16212 0
M  V30 6361 C 600.594 -4.27501 4.38074 0
M  V30 6362 N 599.731 -5.47866 4.39076 0
M  V30 6363 H 604.571 -1.34743 2.65797 0
M  V30 6364 H 602.108 -0.654608 1.31732 0
M  V30 6365 H 604.066 -3.71087 1.90658 0
M  V30 6366 H 602.696 -3.0842 0.952744 0
M  V30 6367 H 601.748 -2.10749 3.16685 0
M  V30 6368 H 603.06 -2.94342 4.02696 0
M  V30 6369 H 602.214 -5.15118 3.20527 0
M  V30 6370 H 600.953 -4.33124 2.24176 0
M  V30 6371 H 599.958 -3.37606 4.33938 0
M  V30 6372 H 601.183 -4.22873 5.31371 0
M  V30 6373 H 599.129 -5.54887 3.49909 0
M  V30 6374 H 599.046 -5.46091 5.22801 0
M  V30 6375 H 600.314 -6.38195 4.4758 0
M  V30 6376 N 604.543 -1.41418 -0.695603 0
M  V30 6377 C 605.473 -1.46035 -1.82197 0
M  V30 6378 C 606.454 -0.319025 -1.67082 0
M  V30 6379 O 607.639 -0.530462 -1.86815 0
M  V30 6380 C 604.769 -1.34179 -3.20333 0
M  V30 6381 C 603.723 -2.46123 -3.50154 0
M  V30 6382 C 603.049 -2.19332 -4.87645 0
M  V30 6383 C 604.349 -3.88463 -3.49133 0
M  V30 6384 H 606.043 -2.40303 -1.78591 0
M  V30 6385 H 603.589 -1.15663 -0.857797 0
M  V30 6386 H 605.542 -1.36021 -3.98844 0
M  V30 6387 H 604.266 -0.363952 -3.24566 0
M  V30 6388 H 602.925 -2.43563 -2.73994 0
M  V30 6389 H 602.573 -1.19891 -4.88503 0
M  V30 6390 H 602.273 -2.94344 -5.08562 0
M  V30 6391 H 603.797 -2.22889 -5.68465 0
M  V30 6392 H 605.211 -3.92738 -4.17648 0
M  V30 6393 H 603.608 -4.63158 -3.81582 0
M  V30 6394 H 604.678 -4.16617 -2.48109 0
M  V30 6395 N 606.021 0.929856 -1.27246 0
M  V30 6396 C 607.298 1.65544 -1.04186 0
M  V30 6397 C 607.678 2.06796 0.424097 0
M  V30 6398 O 607.026 1.80053 1.40688 0
M  V30 6399 C 607.236 2.85912 -2.00138 0
M  V30 6400 C 608.584 3.57305 -2.29387 0
M  V30 6401 O 609.608 2.96036 -1.98094 0
M  V30 6402 O 608.467 4.67688 -2.82719 0
M  V30 6403 H 605.561 0.725473 -0.397011 0
M  V30 6404 H 608.107 0.980583 -1.38501 0
M  V30 6405 H 606.879 2.52403 -2.99013 0
M  V30 6406 H 606.502 3.61118 -1.66371 0
M  V30 6407 N 607.499 1.09233 1.13605 0
M  V30 6408 C 608.91 0.846839 1.6639 0
M  V30 6409 C 609.261 -0.625031 1.85978 0
M  V30 6410 O 608.386 -1.48173 1.57714 0
M  V30 6411 C 608.981 1.5307 3.0225 0
M  V30 6412 C 607.54 1.33223 3.52035 0
M  V30 6413 C 606.687 1.58806 2.27323 0
M  V30 6414 H 609.638 1.25175 0.975541 0
M  V30 6415 H 609.659 0.96267 3.68121 0
M  V30 6416 H 609.171 2.60192 2.87961 0
M  V30 6417 H 607.272 0.282091 3.71531 0
M  V30 6418 H 607.385 2.0657 4.32279 0
M  V30 6419 H 605.749 1.01007 2.33815 0
M  V30 6420 H 606.532 2.67153 2.15602 0
M  V30 6421 N 608.977 -1.30795 0.87923 0
M  V30 6422 C 610.205 -2.00527 0.509548 0
M  V30 6423 C 610.62 -1.65944 -0.90045 0
M  V30 6424 O 609.977 -0.893525 -1.5913 0
M  V30 6425 C 610.028 -3.55276 0.667943 0
M  V30 6426 O 609.749 -3.88625 2.02242 0
M  V30 6427 C 611.25 -4.4228 0.300494 0
M  V30 6428 H 608.47 -0.641261 0.197549 0
M  V30 6429 H 611.014 -1.66813 1.18295 0
M  V30 6430 H 609.169 -3.87377 0.0419843 0
M  V30 6431 H 609.583 -4.83334 2.03688 0
M  V30 6432 H 611.057 -5.50061 0.462242 0
M  V30 6433 H 611.534 -4.32556 -0.76106 0
M  V30 6434 H 612.14 -4.15613 0.902536 0
M  V30 6435 N 610.455 -0.639598 -1.44038 0
M  V30 6436 C 611.685 -0.154586 -2.06021 0
M  V30 6437 C 612.093 1.17951 -1.47933 0
M  V30 6438 O 611.436 1.73627 -0.59994 0
M  V30 6439 C 611.498 0.0255459 -3.59491 0
M  V30 6440 C 611.162 -1.2317 -4.40089 0
M  V30 6441 C 612.159 -2.15735 -4.73027 0
M  V30 6442 C 609.844 -1.46949 -4.80324 0
M  V30 6443 C 611.838 -3.30382 -5.45093 0
M  V30 6444 C 609.525 -2.61891 -5.52138 0
M  V30 6445 C 610.523 -3.53433 -5.84443 0
M  V30 6446 O 610.211 -4.6637 -6.54793 0
M  V30 6447 H 609.943 -0.0808543 -0.671147 0
M  V30 6448 H 612.497 -0.876541 -1.85758 0
M  V30 6449 H 610.727 0.802733 -3.78276 0
M  V30 6450 H 612.416 0.466184 -4.03214 0
M  V30 6451 H 613.182 -1.98602 -4.42473 0
M  V30 6452 H 609.061 -0.765815 -4.54595 0
M  V30 6453 H 612.605 -4.01856 -5.70226 0
M  V30 6454 H 608.502 -2.78964 -5.82108 0
M  V30 6455 H 609.27 -4.6546 -6.73267 0
M  V30 6456 N 611.933 1.52934 -0.380664 0
M  V30 6457 C 613.158 2.06363 0.207157 0
M  V30 6458 C 613.583 1.25122 1.4045 0
M  V30 6459 O 612.941 0.274062 1.79217 0
M  V30 6460 C 612.989 3.56162 0.563996 0
M  V30 6461 O 612.093 3.77552 1.65917 0
M  V30 6462 H 611.434 0.663468 0.0265859 0
M  V30 6463 H 613.964 1.9719 -0.545635 0
M  V30 6464 H 613.974 3.99453 0.830752 0
M  V30 6465 H 612.649 4.14732 -0.311427 0
M  V30 6466 H 611.226 3.46154 1.3868 0
M  V30 6467 N 613.412 0.11024 1.57214 0
M  V30 6468 C 614.64 -0.557834 1.99238 0
M  V30 6469 C 615.055 -1.60778 0.989734 0
M  V30 6470 O 614.412 -1.82491 -0.0186092 0
M  V30 6471 C 614.463 -1.19189 3.41286 0
M  V30 6472 O 614.184 -0.183919 4.37714 0
M  V30 6473 C 615.685 -1.94413 3.98395 0
M  V30 6474 H 612.905 -0.148392 0.654386 0
M  V30 6475 H 615.449 0.193996 2.03578 0
M  V30 6476 H 613.604 -1.89456 3.37913 0
M  V30 6477 H 614.018 -0.643475 5.20538 0
M  V30 6478 H 615.492 -2.34116 4.99894 0
M  V30 6479 H 615.969 -2.81592 3.3705 0
M  V30 6480 H 616.575 -1.28928 4.05287 0
M  V30 6481 N 614.89 -1.56749 -0.16351 0
M  V30 6482 C 616.118 -1.86577 -0.894233 0
M  V30 6483 C 616.533 -0.696543 -1.75481 0
M  V30 6484 O 615.89 0.334161 -1.79415 0
M  V30 6485 C 615.941 -3.15508 -1.76456 0
M  V30 6486 O 615.662 -4.27926 -0.938685 0
M  V30 6487 C 617.163 -3.58737 -2.60428 0
M  V30 6488 H 614.383 -0.618829 -0.259405 0
M  V30 6489 H 616.927 -2.03863 -0.161259 0
M  V30 6490 H 615.082 -3.00025 -2.45079 0
M  V30 6491 H 615.496 -5.01546 -1.53465 0
M  V30 6492 H 616.97 -4.51832 -3.17099 0
M  V30 6493 H 617.447 -2.83229 -3.35675 0
M  V30 6494 H 618.053 -3.76858 -1.97125 0
M  V30 6495 N 616.368 0.432326 -1.51554 0
M  V30 6496 C 617.598 1.2019 -1.68042 0
M  V30 6497 C 618.006 1.85356 -0.379434 0
M  V30 6498 O 617.349 1.71724 0.652427 0
M  V30 6499 C 617.411 2.32387 -2.74292 0
M  V30 6500 C 617.075 1.87548 -4.16743 0
M  V30 6501 C 618.072 1.37611 -5.01357 0
M  V30 6502 C 615.757 1.95087 -4.62868 0
M  V30 6503 C 617.751 0.958069 -6.30159 0
M  V30 6504 C 615.438 1.52894 -5.91664 0
M  V30 6505 C 616.436 1.03336 -6.75137 0
M  V30 6506 O 616.124 0.617435 -8.01525 0
M  V30 6507 H 615.856 0.368132 -0.56697 0
M  V30 6508 H 618.41 0.517875 -1.98764 0
M  V30 6509 H 616.64 3.04082 -2.38895 0
M  V30 6510 H 618.329 2.94235 -2.79608 0
M  V30 6511 H 619.095 1.31178 -4.66923 0
M  V30 6512 H 614.974 2.32606 -3.98015 0
M  V30 6513 H 618.518 0.570562 -6.95263 0
M  V30 6514 H 614.415 1.58999 -6.25611 0
M  V30 6515 H 615.183 0.742835 -8.15122 0
M  V30 6516 N 617.846 1.41785 0.688094 0
M  V30 6517 C 619.123 1.32031 1.44316 0
M  V30 6518 C 619.503 -0.0486079 2.11044 0
M  V30 6519 O 618.851 -1.06332 2.02252 0
M  V30 6520 C 619.061 2.47906 2.45649 0
M  V30 6521 C 620.409 2.89415 3.10683 0
M  V30 6522 O 621.433 2.477 2.55975 0
M  V30 6523 O 620.292 3.61573 4.09789 0
M  V30 6524 H 617.386 0.519994 0.643067 0
M  V30 6525 H 619.932 1.53765 0.71794 0
M  V30 6526 H 618.704 3.39222 1.95048 0
M  V30 6527 H 618.327 2.28089 3.25671 0
M  V30 6528 N 619.324 -0.923095 1.27737 0
M  V30 6529 C 620.601 -1.64989 1.05062 0
M  V30 6530 C 620.981 -2.07018 -0.413124 0
M  V30 6531 O 620.329 -1.80797 -1.39731 0
M  V30 6532 C 620.539 -2.84847 2.01652 0
M  V30 6533 C 621.887 -3.56083 2.31279 0
M  V30 6534 O 622.911 -2.94981 1.99662 0
M  V30 6535 O 621.77 -4.66182 2.85196 0
M  V30 6536 H 618.864 -0.723357 0.400853 0
M  V30 6537 H 621.41 -0.973224 1.3902 0
M  V30 6538 H 620.182 -2.50814 3.00347 0
M  V30 6539 H 619.805 -3.60231 1.68284 0
M  V30 6540 N 620.802 -1.09834 -1.13024 0
M  V30 6541 C 621.765 -0.745058 -2.16752 0
M  V30 6542 C 622.765 0.227435 -1.59183 0
M  V30 6543 O 623.955 0.0050786 -1.74199 0
M  V30 6544 C 621.087 -0.102543 -3.40746 0
M  V30 6545 H 622.28 -1.66375 -2.49518 0
M  V30 6546 H 619.833 -0.898061 -1.27924 0
M  V30 6547 H 620.568 0.827177 -3.13573 0
M  V30 6548 H 620.353 -0.80235 -3.83803 0
M  V30 6549 H 621.843 0.129082 -4.174 0
M  V30 6550 N 622.28 1.30327 -0.886154 0
M  V30 6551 C 623.526 1.96388 -0.505941 0
M  V30 6552 C 623.859 1.69784 0.942712 0
M  V30 6553 O 623.134 1.00322 1.6663 0
M  V30 6554 C 623.417 3.51488 -0.782826 0
M  V30 6555 C 623.27 3.87603 -2.28219 0
M  V30 6556 C 624.589 4.39331 -0.260128 0
M  V30 6557 H 621.708 0.713327 -0.185292 0
M  V30 6558 H 624.35 1.54178 -1.11036 0
M  V30 6559 H 622.5 3.87572 -0.268399 0
M  V30 6560 H 624.172 3.61537 -2.86512 0
M  V30 6561 H 622.415 3.3563 -2.74837 0
M  V30 6562 H 623.086 4.95806 -2.42653 0
M  V30 6563 H 625.562 4.10162 -0.700444 0
M  V30 6564 H 624.438 5.46769 -0.483179 0
M  V30 6565 H 624.699 4.34072 0.838674 0
M  V30 6566 N 623.758 0.647228 1.43697 0
M  V30 6567 C 625.169 0.238689 1.85168 0
M  V30 6568 C 625.52 -1.21345 1.54175 0
M  V30 6569 O 624.645 -1.92542 0.987743 0
M  V30 6570 C 625.24 0.426422 3.36106 0
M  V30 6571 C 623.799 0.0722541 3.76331 0
M  V30 6572 C 622.946 0.732153 2.6746 0
M  V30 6573 H 625.897 0.851309 1.33934 0
M  V30 6574 H 625.918 -0.32987 3.79067 0
M  V30 6575 H 625.43 1.48339 3.58632 0
M  V30 6576 H 623.531 -0.982355 3.59417 0
M  V30 6577 H 623.644 0.493541 4.76551 0
M  V30 6578 H 622.008 0.16594 2.54159 0
M  V30 6579 H 622.791 1.79204 2.92816 0
M  V30 6580 N 625.236 -1.5273 0.388769 0
M  V30 6581 C 626.169 -2.22861 -0.490752 0
M  V30 6582 C 627.147 -1.22912 -1.06449 0
M  V30 6583 O 628.331 -1.51896 -1.11624 0
M  V30 6584 C 625.458 -2.94141 -1.67925 0
M  V30 6585 C 624.504 -4.08355 -1.23081 0
M  V30 6586 S 625.337 -5.35077 -0.212786 0
M  V30 6587 C 626.493 -6.09879 -1.40708 0
M  V30 6588 H 626.726 -2.97115 0.104787 0
M  V30 6589 H 624.259 -1.53428 0.172956 0
M  V30 6590 H 626.217 -3.35818 -2.36085 0
M  V30 6591 H 624.878 -2.19568 -2.24608 0
M  V30 6592 H 624.071 -4.57328 -2.11818 0
M  V30 6593 H 623.673 -3.68688 -0.628121 0
M  V30 6594 H 625.965 -6.36018 -2.33424 0
M  V30 6595 H 626.908 -7.01586 -0.958271 0
M  V30 6596 H 627.316 -5.40646 -1.62364 0
M  V30 6597 N 626.714 -0.118576 -1.57153 0
M  V30 6598 C 627.961 0.539526 -1.9518 0
M  V30 6599 C 628.289 1.66714 -1.00184 0
M  V30 6600 O 627.544 1.95683 -0.0256482 0
M  V30 6601 C 627.843 1.11303 -3.39627 0
M  V30 6602 C 627.509 0.106809 -4.50773 0
M  V30 6603 C 626.171 -0.169876 -4.809 0
M  V30 6604 C 628.523 -0.57895 -5.17975 0
M  V30 6605 C 625.851 -1.13861 -5.75545 0
M  V30 6606 C 628.203 -1.53631 -6.13661 0
M  V30 6607 C 626.867 -1.82099 -6.42181 0
M  V30 6608 H 626.137 0.197427 -0.714215 0
M  V30 6609 H 628.784 -0.199391 -1.90459 0
M  V30 6610 H 627.089 1.92869 -3.4104 0
M  V30 6611 H 628.786 1.63032 -3.66363 0
M  V30 6612 H 625.376 0.332645 -4.27307 0
M  V30 6613 H 629.56 -0.378359 -4.94856 0
M  V30 6614 H 624.816 -1.36592 -5.95947 0
M  V30 6615 H 628.99 -2.07337 -6.64819 0
M  V30 6616 H 626.617 -2.57319 -7.15326 0
M  V30 6617 N 628.193 1.56834 0.155195 0
M  V30 6618 C 629.14 1.97646 1.19184 0
M  V30 6619 C 630.11 0.842788 1.4313 0
M  V30 6620 O 631.295 1.1042 1.55602 0
M  V30 6621 C 628.435 2.35527 2.52232 0
M  V30 6622 C 627.548 3.62147 2.35529 0
M  V30 6623 C 626.683 3.89167 3.61555 0
M  V30 6624 C 625.722 5.09084 3.39853 0
M  V30 6625 N 624.859 5.32156 4.5799 0
M  V30 6626 H 629.699 2.8601 0.836802 0
M  V30 6627 H 627.236 1.41507 0.401758 0
M  V30 6628 H 629.194 2.55516 3.29799 0
M  V30 6629 H 627.824 1.50253 2.85699 0
M  V30 6630 H 626.876 3.4998 1.49057 0
M  V30 6631 H 628.188 4.49871 2.15448 0
M  V30 6632 H 627.342 4.09611 4.47553 0
M  V30 6633 H 626.081 2.9985 3.84632 0
M  V30 6634 H 625.086 4.88522 2.52243 0
M  V30 6635 H 626.311 5.99947 3.18183 0
M  V30 6636 H 624.257 4.45791 4.81255 0
M  V30 6637 H 624.174 6.14133 4.40882 0
M  V30 6638 H 625.442 5.57091 5.45225 0
M  V30 6639 N 629.671 -0.424282 1.51781 0
M  V30 6640 C 630.896 -1.19928 1.6921 0
M  V30 6641 C 631.321 -1.8392 0.394355 0
M  V30 6642 O 630.679 -1.69371 -0.646778 0
M  V30 6643 C 630.727 -2.24937 2.81843 0
M  V30 6644 O 629.831 -3.3073 2.46356 0
M  V30 6645 H 629.172 -0.35078 0.563781 0
M  V30 6646 H 631.702 -0.499401 1.98412 0
M  V30 6647 H 631.712 -2.69512 3.06312 0
M  V30 6648 H 630.387 -1.77742 3.76006 0
M  V30 6649 H 628.964 -2.9154 2.32505 0
M  V30 6650 N 631.149 -1.42148 -0.680565 0
M  V30 6651 C 632.097 -1.45401 -1.81552 0
M  V30 6652 C 633.091 -0.33036 -1.66147 0
M  V30 6653 O 634.297 -0.503103 -1.72826 0
M  V30 6654 H 630.672 -0.455265 -0.59853 0
M  V30 6655 H 632.643 -2.41024 -1.75926 0
M  V30 6656 C 631.392 -1.36769 -3.19671 0
M  V30 6657 H 630.715 -2.22525 -3.32149 0
M  V30 6658 H 632.155 -1.43106 -3.9912 0
M  V30 6659 C 630.614 -0.0817752 -3.36801 0
M  V30 6660 O 631.144 0.867707 -3.92216 0
M  V30 6661 N 629.35 -0.000799811 -2.906 0
M  V30 6662 H 628.897 -0.774231 -2.4569 0
M  V30 6663 H 628.855 0.858961 -3.02439 0
M  V30 6664 N 632.627 0.916307 -1.28225 0
M  V30 6665 C 633.575 2.03977 -1.11786 0
M  V30 6666 C 634.569 1.69358 -0.0378265 0
M  V30 6667 O 635.775 1.78925 -0.196405 0
M  V30 6668 H 632.15 0.66829 -0.344809 0
M  V30 6669 H 634.121 2.14985 -2.06939 0
M  V30 6670 C 632.87 3.38518 -0.7938 0
M  V30 6671 H 632.193 3.65649 -1.61682 0
M  V30 6672 H 633.633 4.17864 -0.718719 0
M  V30 6673 C 632.092 3.33134 0.502353 0
M  V30 6674 O 632.622 3.71281 1.53341 0
M  V30 6675 N 630.828 2.86229 0.502147 0
M  V30 6676 H 630.375 2.55382 -0.337338 0
M  V30 6677 H 630.333 2.83009 1.36942 0
M  V30 6678 N 634.105 1.10431 1.1244 0
M  V30 6679 C 635.521 0.836096 1.35947 0
M  V30 6680 C 635.721 -0.544475 1.94004 0
M  V30 6681 O 634.777 -1.29735 2.16622 0
M  V30 6682 C 636.09 1.93575 2.30107 0
M  V30 6683 C 637.638 1.9642 2.43697 0
M  V30 6684 C 638.113 3.05559 3.41171 0
M  V30 6685 N 639.604 3.04865 3.48728 0
M  V30 6686 C 640.339 3.85954 4.24061 0
M  V30 6687 N 639.835 4.76977 5.02458 0
M  V30 6688 N 641.628 3.74172 4.19466 0
M  V30 6689 H 633.779 1.9942 0.731124 0
M  V30 6690 H 636.042 0.866607 0.384312 0
M  V30 6691 H 635.748 2.92943 1.94621 0
M  V30 6692 H 635.622 1.8229 3.30227 0
M  V30 6693 H 638.009 0.97685 2.78463 0
M  V30 6694 H 638.09 2.11782 1.43465 0
M  V30 6695 H 637.734 4.04513 3.07135 0
M  V30 6696 H 637.664 2.87438 4.41234 0
M  V30 6697 H 640.155 2.38908 2.92799 0
M  V30 6698 H 640.468 5.35409 5.57277 0
M  V30 6699 H 638.813 4.81006 5.01655 0
M  V30 6700 H 642.004 3.02412 3.57302 0
M  V30 6701 H 642.177 4.37602 4.77921 0
M  V30 6702 N 635.583 -1.29855 0.893053 0
M  V30 6703 C 636.813 -1.99686 0.530019 0
M  V30 6704 C 637.221 -1.67066 -0.888012 0
M  V30 6705 O 636.564 -0.908366 -1.5967 0
M  V30 6706 C 636.626 -3.53855 0.63457 0
M  V30 6707 C 636.29 -4.10013 2.01837 0
M  V30 6708 C 637.287 -4.25406 2.98874 0
M  V30 6709 C 634.972 -4.45202 2.32595 0
M  V30 6710 C 636.966 -4.7521 4.24799 0
M  V30 6711 C 634.653 -4.94704 3.58763 0
M  V30 6712 C 635.651 -5.09662 4.5468 0
M  V30 6713 O 635.339 -5.58093 5.78608 0
M  V30 6714 H 635.071 -0.644913 0.20264 0
M  V30 6715 H 637.625 -1.66518 1.20253 0
M  V30 6716 H 635.855 -3.86583 -0.0949477 0
M  V30 6717 H 637.544 -4.04922 0.281648 0
M  V30 6718 H 638.31 -3.98515 2.76425 0
M  V30 6719 H 634.189 -4.32822 1.58701 0
M  V30 6720 H 637.733 -4.86801 4.99671 0
M  V30 6721 H 633.63 -5.21032 3.81046 0
M  V30 6722 H 634.398 -5.7642 5.81104 0
M  V30 6723 N 637.061 -0.65484 -1.43351 0
M  V30 6724 C 638.477 -0.32255 -1.56307 0
M  V30 6725 C 638.677 1.17324 -1.63821 0
M  V30 6726 O 637.733 1.95813 -1.59417 0
M  V30 6727 C 639.046 -1.03533 -2.82314 0
M  V30 6728 C 640.594 -1.01574 -2.9606 0
M  V30 6729 C 641.069 -1.70945 -4.24902 0
M  V30 6730 N 642.56 -1.67716 -4.3177 0
M  V30 6731 C 643.295 -2.18265 -5.30234 0
M  V30 6732 N 642.791 -2.7711 -6.34966 0
M  V30 6733 N 644.584 -2.08756 -5.21898 0
M  V30 6734 H 636.735 -1.62549 -1.36717 0
M  V30 6735 H 638.998 -0.683676 -0.656727 0
M  V30 6736 H 638.704 -2.09045 -2.8283 0
M  V30 6737 H 638.578 -0.587913 -3.7259 0
M  V30 6738 H 640.965 0.0309834 -2.95084 0
M  V30 6739 H 641.046 -1.50186 -2.07069 0
M  V30 6740 H 640.69 -2.75574 -4.26639 0
M  V30 6741 H 640.62 -1.19797 -5.12793 0
M  V30 6742 H 643.111 -1.24777 -3.56706 0
M  V30 6743 H 643.424 -3.13353 -7.06421 0
M  V30 6744 H 641.769 -2.81171 -6.35585 0
M  V30 6745 H 644.96 -1.62488 -4.38994 0
M  V30 6746 H 645.133 -2.48459 -5.98475 0
M  V30 6747 N 638.539 1.52521 -0.396863 0
M  V30 6748 C 639.816 1.94112 0.240842 0
M  V30 6749 C 640.196 1.33288 1.637 0
M  V30 6750 O 639.544 0.503901 2.22875 0
M  V30 6751 C 639.754 3.48033 0.259567 0
M  V30 6752 C 641.102 4.21822 0.484866 0
M  V30 6753 O 642.126 3.54579 0.339453 0
M  V30 6754 O 640.985 5.41042 0.770412 0
M  V30 6755 H 638.079 0.812973 0.151671 0
M  V30 6756 H 640.625 1.63572 -0.451918 0
M  V30 6757 H 639.397 3.84655 -0.718078 0
M  V30 6758 H 639.02 3.84899 0.996937 0
M  V30 6759 N 640.017 0.126909 1.57088 0
M  V30 6760 C 641.263 -0.529952 1.95753 0
M  V30 6761 C 641.596 -1.65823 1.01077 0
M  V30 6762 O 640.871 -1.94437 0.0494162 0
M  V30 6763 C 641.154 -1.05517 3.44294 0
M  V30 6764 C 641.007 0.0702253 4.49745 0
M  V30 6765 C 642.326 -1.9435 3.94862 0
M  V30 6766 H 639.445 -0.191168 0.711775 0
M  V30 6767 H 642.087 0.204071 1.88901 0
M  V30 6768 H 640.237 -1.68069 3.50264 0
M  V30 6769 H 641.909 0.705834 4.55868 0
M  V30 6770 H 640.152 0.732259 4.27575 0
M  V30 6771 H 640.823 -0.338642 5.5096 0
M  V30 6772 H 643.299 -1.41658 3.91244 0
M  V30 6773 H 642.175 -2.28015 4.993 0
M  V30 6774 H 642.436 -2.87299 3.36024 0
M  V30 6775 N 641.495 -1.56914 -0.146875 0
M  V30 6776 C 642.744 -1.82546 -0.857898 0
M  V30 6777 C 643.057 -0.708169 -1.8233 0
M  V30 6778 O 644.263 -0.850093 -2.57848 0
M  V30 6779 C 642.719 -3.23548 -1.57623 0
M  V30 6780 C 642.327 -4.43212 -0.653224 0
M  V30 6781 C 644.071 -3.58453 -2.27402 0
M  V30 6782 C 641.978 -5.75237 -1.37318 0
M  V30 6783 H 640.908 -0.680786 -0.32411 0
M  V30 6784 H 643.559 -1.83166 -0.110639 0
M  V30 6785 H 641.941 -3.17315 -2.36912 0
M  V30 6786 H 643.115 -4.60682 0.104452 0
M  V30 6787 H 641.43 -4.16351 -0.0638336 0
M  V30 6788 H 644.027 -4.54349 -2.81907 0
M  V30 6789 H 644.37 -2.84516 -3.03901 0
M  V30 6790 H 644.903 -3.66347 -1.55032 0
M  V30 6791 H 641.642 -6.52269 -0.650041 0
M  V30 6792 H 641.162 -5.61703 -2.10357 0
M  V30 6793 H 642.841 -6.18039 -1.91406 0
M  V30 6794 N 642.974 0.416227 -1.52004 0
M  V30 6795 C 643.937 1.48926 -1.74223 0
M  V30 6796 C 644.937 1.48693 -0.612119 0
M  V30 6797 O 646.127 1.50343 -0.879921 0
M  V30 6798 C 643.259 2.88372 -1.81809 0
M  V30 6799 H 644.452 1.3052 -2.70008 0
M  V30 6800 H 642.005 0.646271 -1.42313 0
M  V30 6801 H 642.74 3.12157 -0.879135 0
M  V30 6802 H 642.525 2.89944 -2.6396 0
M  V30 6803 H 644.015 3.66173 -2.00766 0
M  V30 6804 N 644.452 1.42507 0.673017 0
M  V30 6805 C 645.677 1.4668 1.46627 0
M  V30 6806 C 646.102 0.080066 1.8793 0
M  V30 6807 O 645.46 -0.921879 1.56112 0
M  V30 6808 C 645.508 2.40091 2.69051 0
M  V30 6809 O 644.612 1.8735 3.67387 0
M  V30 6810 H 643.953 0.496908 0.44043 0
M  V30 6811 H 646.483 1.87215 0.825334 0
M  V30 6812 H 646.493 2.56731 3.17101 0
M  V30 6813 H 645.168 3.4084 2.3833 0
M  V30 6814 H 643.745 1.80274 3.26429 0
M  V30 6815 N 645.93 -0.909495 1.28709 0
M  V30 6816 C 647.341 -1.47419 1.14563 0
M  V30 6817 C 647.692 -1.94432 -0.262832 0
M  V30 6818 O 646.817 -1.82842 -1.15748 0
M  V30 6819 C 647.412 -2.67933 2.07358 0
M  V30 6820 C 645.971 -3.20568 1.97264 0
M  V30 6821 C 645.118 -1.93269 1.98852 0
M  V30 6822 H 648.069 -0.721787 1.41336 0
M  V30 6823 H 648.09 -3.43339 1.64007 0
M  V30 6824 H 647.602 -2.33685 3.09859 0
M  V30 6825 H 645.703 -3.59531 0.978157 0
M  V30 6826 H 645.816 -3.85529 2.84436 0
M  V30 6827 H 644.18 -2.10553 1.43317 0
M  V30 6828 H 644.963 -1.61312 3.0304 0
M  V30 6829 N 647.408 -1.11026 -1.11852 0
M  V30 6830 C 648.685 -0.768347 -1.79877 0
M  V30 6831 C 649.065 0.744261 -1.97545 0
M  V30 6832 O 648.413 1.67271 -1.55669 0
M  V30 6833 C 648.623 -1.52648 -3.13846 0
M  V30 6834 C 649.971 -1.70297 -3.88953 0
M  V30 6835 O 650.995 -1.49037 -3.23522 0
M  V30 6836 O 649.854 -2.05593 -5.06353 0
M  V30 6837 H 646.948 -0.277891 -0.778913 0
M  V30 6838 H 649.494 -1.21343 -1.18633 0
M  V30 6839 H 648.266 -2.55564 -2.96315 0
M  V30 6840 H 647.889 -1.07466 -3.82801 0
M  V30 6841 N 648.886 1.2938 -0.899927 0
M  V30 6842 C 650.134 1.95164 -0.524924 0
M  V30 6843 C 650.455 1.71292 0.931888 0
M  V30 6844 O 649.725 1.04481 1.65712 0
M  V30 6845 H 648.305 0.722133 -0.191135 0
M  V30 6846 H 650.967 1.57628 -1.14627 0
M  V30 6847 H 650.063 3.0397 -0.707711 0
M  V30 6848 N 650.364 0.662433 1.43002 0
M  V30 6849 C 651.312 -0.035345 2.32573 0
M  V30 6850 C 652.306 -0.803505 1.49131 0
M  V30 6851 O 653.512 -0.712865 1.65282 0
M  V30 6852 H 649.887 -0.0302194 0.751393 0
M  V30 6853 H 651.858 0.737686 2.89138 0
M  V30 6854 C 650.607 -0.981575 3.33557 0
M  V30 6855 H 649.93 -0.399914 3.97795 0
M  V30 6856 H 651.37 -1.43873 3.98844 0
M  V30 6857 C 649.829 -2.08204 2.64863 0
M  V30 6858 O 650.359 -3.16698 2.47113 0
M  V30 6859 N 648.565 -1.85022 2.24088 0
M  V30 6860 H 648.112 -0.967909 2.38724 0
M  V30 6861 H 648.07 -2.58845 1.78457 0
M  V30 6862 N 651.842 -1.52309 0.404946 0
M  V30 6863 C 653.088 -2.02065 -0.172455 0
M  V30 6864 C 653.421 -1.29022 -1.45145 0
M  V30 6865 O 652.696 -0.395284 -1.90441 0
M  V30 6866 C 652.979 -3.5759 -0.424433 0
M  V30 6867 C 652.832 -4.41287 0.870945 0
M  V30 6868 C 654.151 -4.23186 -1.20837 0
M  V30 6869 H 651.27 -0.734454 -0.0612035 0
M  V30 6870 H 653.912 -1.82236 0.53759 0
M  V30 6871 H 652.062 -3.74617 -1.02929 0
M  V30 6872 H 653.734 -4.3598 1.50729 0
M  V30 6873 H 651.977 -4.07669 1.48284 0
M  V30 6874 H 652.648 -5.48171 0.649083 0
M  V30 6875 H 655.124 -4.10232 -0.696338 0
M  V30 6876 H 654 -5.31953 -1.35343 0
M  V30 6877 H 654.261 -3.81862 -2.22786 0
M  V30 6878 N 653.32 -0.135238 -1.57019 0
M  V30 6879 C 654.25 0.805235 -2.19176 0
M  V30 6880 C 655.231 1.2656 -1.13651 0
M  V30 6881 O 656.416 1.32528 -1.4195 0
M  V30 6882 C 653.546 2.04914 -2.80406 0
M  V30 6883 C 652.5 1.72598 -3.91655 0
M  V30 6884 C 651.826 3.04154 -4.39766 0
M  V30 6885 C 653.126 0.981709 -5.12991 0
M  V30 6886 H 654.82 0.287232 -2.98019 0
M  V30 6887 H 652.366 0.136714 -1.4335 0
M  V30 6888 H 654.319 2.71178 -3.22553 0
M  V30 6889 H 653.043 2.59067 -1.98877 0
M  V30 6890 H 651.702 1.08717 -3.50109 0
M  V30 6891 H 651.35 3.56274 -3.55075 0
M  V30 6892 H 651.05 2.83299 -5.14796 0
M  V30 6893 H 652.574 3.71509 -4.84576 0
M  V30 6894 H 653.988 1.5462 -5.52056 0
M  V30 6895 H 652.385 0.873533 -5.93708 0
M  V30 6896 H 653.455 -0.0286887 -4.84892 0
M  V30 6897 N 654.798 1.5699 0.138552 0
M  V30 6898 C 656.028 1.87704 0.863184 0
M  V30 6899 C 656.436 0.722411 1.74865 0
M  V30 6900 O 655.779 -0.316636 1.80951 0
M  V30 6901 C 655.841 3.13219 1.76449 0
M  V30 6902 C 655.505 4.44648 1.05532 0
M  V30 6903 C 656.502 5.18318 0.405252 0
M  V30 6904 C 654.187 4.91367 1.04231 0
M  V30 6905 C 656.181 6.36916 -0.24835 0
M  V30 6906 C 653.868 6.09887 0.384904 0
M  V30 6907 C 654.866 6.82508 -0.259292 0
M  V30 6908 O 654.554 7.98775 -0.906258 0
M  V30 6909 H 654.286 0.626255 0.254521 0
M  V30 6910 H 656.84 2.04966 0.133472 0
M  V30 6911 H 655.07 2.91988 2.53535 0
M  V30 6912 H 656.759 3.30111 2.36181 0
M  V30 6913 H 657.525 4.83289 0.407053 0
M  V30 6914 H 653.404 4.34759 1.53315 0
M  V30 6915 H 656.948 6.93538 -0.751755 0
M  V30 6916 H 652.845 6.44376 0.380799 0
M  V30 6917 H 653.613 8.14494 -0.80877 0
M  V30 6918 N 656.276 -0.40816 1.52223 0
M  V30 6919 C 657.522 -1.15673 1.66576 0
M  V30 6920 C 657.855 -1.90141 0.394996 0
M  V30 6921 O 657.13 -1.84798 -0.606613 0
M  V30 6922 C 657.413 -2.15042 2.88841 0
M  V30 6923 C 657.266 -1.44465 4.25969 0
M  V30 6924 C 658.585 -3.15699 3.0663 0
M  V30 6925 H 655.704 -0.41916 0.606196 0
M  V30 6926 H 658.346 -0.442348 1.84779 0
M  V30 6927 H 656.496 -2.75964 2.73452 0
M  V30 6928 H 658.168 -0.866544 4.53088 0
M  V30 6929 H 656.411 -0.746612 4.27327 0
M  V30 6930 H 657.082 -2.16976 5.07568 0
M  V30 6931 H 659.558 -2.64854 3.20923 0
M  V30 6932 H 658.434 -3.82491 3.9369 0
M  V30 6933 H 658.695 -3.83481 2.19987 0
M  V30 6934 N 657.755 -1.42862 -0.66545 0
M  V30 6935 C 658.685 -1.49867 -1.79059 0
M  V30 6936 C 659.666 -0.354394 -1.66367 0
M  V30 6937 O 660.851 -0.569969 -1.85647 0
M  V30 6938 C 657.981 -1.40943 -3.17415 0
M  V30 6939 C 656.935 -2.53495 -3.44854 0
M  V30 6940 C 656.261 -2.29626 -4.82883 0
M  V30 6941 C 657.561 -3.95781 -3.40815 0
M  V30 6942 H 659.255 -2.44037 -1.73453 0
M  V30 6943 H 656.801 -1.17456 -0.833071 0
M  V30 6944 H 658.754 -1.4445 -3.95869 0
M  V30 6945 H 657.478 -0.432716 -3.23721 0
M  V30 6946 H 656.137 -2.4932 -2.68766 0
M  V30 6947 H 655.785 -1.30226 -4.8585 0
M  V30 6948 H 655.485 -3.05065 -5.02204 0
M  V30 6949 H 657.009 -2.34897 -5.63609 0
M  V30 6950 H 658.423 -4.01508 -4.09224 0
M  V30 6951 H 656.82 -4.71148 -3.71672 0
M  V30 6952 H 657.89 -4.21786 -2.39216 0
M  V30 6953 N 659.233 0.902656 -1.29189 0
M  V30 6954 C 660.461 1.68639 -1.19869 0
M  V30 6955 C 660.876 1.87254 0.241121 0
M  V30 6956 O 660.233 1.40745 1.16177 0
M  V30 6957 C 660.284 3.07251 -1.90471 0
M  V30 6958 O 660.005 2.89488 -3.28829 0
M  V30 6959 C 661.506 4.01653 -1.8759 0
M  V30 6960 H 658.726 0.526802 -0.415596 0
M  V30 6961 H 661.27 1.12901 -1.7051 0
M  V30 6962 H 659.425 3.59774 -1.43672 0
M  V30 6963 H 659.839 3.77296 -3.64346 0
M  V30 6964 H 661.313 4.96339 -2.4156 0
M  V30 6965 H 661.79 4.30881 -0.850756 0
M  V30 6966 H 662.396 3.55061 -2.34119 0
M  V30 6967 N 660.711 1.11618 1.11262 0
M  V30 6968 C 661.988 0.777876 1.79467 0
M  V30 6969 C 662.368 -0.733774 1.97937 0
M  V30 6970 O 661.716 -1.66443 1.56554 0
M  V30 6971 C 661.926 1.5431 3.13032 0
M  V30 6972 C 663.274 1.72357 3.88044 0
M  V30 6973 O 664.298 1.5075 3.22727 0
M  V30 6974 O 663.157 2.08276 5.05256 0
M  V30 6975 H 660.251 0.282018 0.777428 0
M  V30 6976 H 662.797 1.21971 1.17988 0
M  V30 6977 H 661.569 2.57132 2.94956 0
M  V30 6978 H 661.192 1.09495 3.82226 0
M  V30 6979 N 662.189 -1.289 0.906776 0
M  V30 6980 C 663.417 -1.99401 0.551969 0
M  V30 6981 C 663.832 -1.67816 -0.865048 0
M  V30 6982 O 663.189 -0.927078 -1.57199 0
M  V30 6983 C 663.24 -3.53779 0.743152 0
M  V30 6984 O 662.961 -3.84248 2.1044 0
M  V30 6985 C 664.462 -4.41543 0.39424 0
M  V30 6986 H 661.682 -0.636926 0.211106 0
M  V30 6987 H 664.226 -1.64266 1.21807 0
M  V30 6988 H 662.381 -3.87201 0.124143 0
M  V30 6989 H 662.795 -4.78904 2.13895 0
M  V30 6990 H 664.269 -5.48957 0.578814 0
M  V30 6991 H 664.746 -4.34073 -0.669137 0
M  V30 6992 H 665.352 -4.13605 0.990491 0
M  V30 6993 N 663.667 -0.670007 -1.42649 0
M  V30 6994 C 664.63 0.00204659 -2.292 0
M  V30 6995 C 665.63 0.733817 -1.4308 0
M  V30 6996 O 666.82 0.57254 -1.64522 0
M  V30 6997 C 663.952 1.01359 -3.25483 0
M  V30 6998 H 665.145 -0.759696 -2.90118 0
M  V30 6999 H 662.698 -0.432105 -1.50208 0
M  V30 7000 H 663.433 1.80399 -2.69493 0
M  V30 7001 H 663.218 0.492323 -3.88997 0
M  V30 7002 H 664.708 1.4824 -3.90403 0
M  V30 7003 N 665.145 1.52092 -0.413018 0
M  V30 7004 C 666.393 2.01456 0.161178 0
M  V30 7005 C 666.714 1.30034 1.45314 0
M  V30 7006 O 665.984 0.427435 1.9118 0
M  V30 7007 H 664.564 0.744376 0.0625526 0
M  V30 7008 H 667.226 1.86974 -0.550151 0
M  V30 7009 H 666.322 3.1008 0.354517 0
M  V30 7010 N 666.623 0.143563 1.56945 0
M  V30 7011 C 667.571 -0.814556 2.17871 0
M  V30 7012 C 668.565 -1.25778 1.13474 0
M  V30 7013 O 669.771 -1.22666 1.31731 0
M  V30 7014 H 666.146 -0.280873 0.697578 0
M  V30 7015 H 668.117 -0.276459 2.97117 0
M  V30 7016 C 666.866 -2.04503 2.81201 0
M  V30 7017 H 666.189 -1.71296 3.61245 0
M  V30 7018 H 667.629 -2.69493 3.27337 0
M  V30 7019 C 666.088 -2.85079 1.79532 0
M  V30 7020 O 666.618 -3.81306 1.26368 0
M  V30 7021 N 664.824 -2.49546 1.48913 0
M  V30 7022 H 664.371 -1.71359 1.92338 0
M  V30 7023 H 664.329 -3.03751 0.811348 0
M  V30 7024 N 668.101 -1.57061 -0.130224 0
M  V30 7025 C 669.347 -1.8453 -0.841216 0
M  V30 7026 C 669.68 -0.727666 -1.80052 0
M  V30 7027 O 668.955 0.267419 -1.92653 0
M  V30 7028 C 669.238 -3.22553 -1.60099 0
M  V30 7029 C 669.091 -4.44901 -0.662048 0
M  V30 7030 C 670.41 -3.58003 -2.55973 0
M  V30 7031 H 667.529 -0.671215 -0.304366 0
M  V30 7032 H 670.171 -1.89705 -0.105821 0
M  V30 7033 H 668.321 -3.18272 -2.22789 0
M  V30 7034 H 669.993 -4.61278 -0.0448559 0
M  V30 7035 H 668.236 -4.33791 0.0272253 0
M  V30 7036 H 668.907 -5.3812 -1.23006 0
M  V30 7037 H 671.383 -3.63002 -2.03393 0
M  V30 7038 H 670.259 -4.55576 -3.06172 0
M  V30 7039 H 670.52 -2.84833 -3.38116 0
M  V30 7040 N 669.579 0.400081 -1.52437 0
M  V30 7041 C 670.511 1.50729 -1.72666 0
M  V30 7042 C 671.524 1.51058 -0.607075 0
M  V30 7043 O 672.713 1.5516 -0.88248 0
M  V30 7044 C 669.813 2.89604 -1.76019 0
M  V30 7045 C 668.986 3.13365 -3.05157 0
M  V30 7046 C 668.045 4.32163 -3.00203 0
M  V30 7047 O 667.071 4.29004 -3.74092 0
M  V30 7048 N 668.273 5.3776 -2.18619 0
M  V30 7049 H 671.038 1.33767 -2.68191 0
M  V30 7050 H 668.599 0.58948 -1.50787 0
M  V30 7051 H 670.591 3.67159 -1.70225 0
M  V30 7052 H 669.161 2.99979 -0.879284 0
M  V30 7053 H 668.381 2.23774 -3.24529 0
M  V30 7054 H 669.669 3.26089 -3.90568 0
M  V30 7055 H 669.067 5.43177 -1.58035 0
M  V30 7056 H 667.624 6.14023 -2.18674 0
M  V30 7057 N 671.057 1.43213 0.657864 0
M  V30 7058 C 672.004 1.48011 1.77092 0
M  V30 7059 C 672.974 0.330291 1.62783 0
M  V30 7060 O 674.159 0.536787 1.83094 0
M  V30 7061 C 671.299 1.40461 3.15222 0
M  V30 7062 C 670.412 2.65612 3.40697 0
M  V30 7063 C 669.547 2.50083 4.68649 0
M  V30 7064 C 668.586 3.70525 4.87214 0
M  V30 7065 N 667.723 3.53835 6.0642 0
M  V30 7066 H 672.563 2.43121 1.72326 0
M  V30 7067 H 670.1 1.20687 0.841013 0
M  V30 7068 H 672.058 1.34079 3.95068 0
M  V30 7069 H 670.688 0.489359 3.19069 0
M  V30 7070 H 669.74 2.82292 2.54982 0
M  V30 7071 H 671.052 3.5509 3.50303 0
M  V30 7072 H 670.206 2.41383 5.56614 0
M  V30 7073 H 668.945 1.58121 4.61356 0
M  V30 7074 H 667.95 3.79639 3.97686 0
M  V30 7075 H 669.175 4.63489 4.96341 0
M  V30 7076 H 667.121 2.64604 6.00267 0
M  V30 7077 H 667.038 4.36912 6.16963 0
M  V30 7078 H 668.306 3.48978 6.97019 0
M  V30 7079 N 672.536 -0.895792 1.29666 0
M  V30 7080 C 673.813 -1.62723 1.08538 0
M  V30 7081 C 674.193 -2.07848 -0.369119 0
M  V30 7082 O 673.541 -1.8372 -1.35864 0
M  V30 7083 C 673.751 -2.80505 2.07648 0
M  V30 7084 C 675.099 -3.51098 2.3878 0
M  V30 7085 O 676.123 -2.90679 2.05874 0
M  V30 7086 O 674.982 -4.60028 2.9502 0
M  V30 7087 H 672.076 -0.714692 0.416106 0
M  V30 7088 H 674.622 -0.943517 1.41053 0
M  V30 7089 H 673.394 -2.44386 3.05599 0
M  V30 7090 H 673.017 -3.5658 1.75887 0
M  V30 7091 N 674.014 -1.12206 -1.10668 0
M  V30 7092 C 675.291 -0.787382 -1.79052 0
M  V30 7093 C 675.671 0.723267 -1.98323 0
M  V30 7094 O 675.019 1.6561 -1.57434 0
M  V30 7095 C 675.229 -1.55968 -3.1221 0
M  V30 7096 C 676.577 -1.74413 -3.87125 0
M  V30 7097 O 677.601 -1.5246 -3.21923 0
M  V30 7098 O 676.46 -2.10952 -5.04144 0
M  V30 7099 H 673.554 -0.286137 -0.775922 0
M  V30 7100 H 676.1 -1.22595 -1.1734 0
M  V30 7101 H 674.872 -2.58692 -2.93588 0
M  V30 7102 H 674.495 -1.1152 -3.8164 0
M  V30 7103 N 675.492 1.28418 -0.913599 0
M  V30 7104 C 676.74 1.94596 -0.545594 0
M  V30 7105 C 677.061 1.7227 0.913668 0
M  V30 7106 O 676.331 1.06233 1.64595 0
M  V30 7107 H 674.911 0.720065 -0.198783 0
M  V30 7108 H 677.573 1.56404 -1.16292 0
M  V30 7109 H 676.669 3.03202 -0.739911 0
M  V30 7110 N 676.97 0.677563 1.42291 0
M  V30 7111 C 678.195 0.207901 2.06355 0
M  V30 7112 C 678.62 -1.12723 1.50583 0
M  V30 7113 O 677.978 -1.70171 0.62543 0
M  V30 7114 C 678.026 0.156489 3.6026 0
M  V30 7115 O 677.13 -0.874162 4.03029 0
M  V30 7116 H 676.471 0.106056 0.655475 0
M  V30 7117 H 679.001 0.927354 1.82377 0
M  V30 7118 H 679.011 -0.0187258 4.07996 0
M  V30 7119 H 677.686 1.13101 4.00226 0
M  V30 7120 H 676.263 -0.669764 3.66836 0
M  V30 7121 N 678.448 -1.51871 0.421078 0
M  V30 7122 C 679.694 -2.02237 -0.151014 0
M  V30 7123 C 680.027 -1.30554 -1.43768 0
M  V30 7124 O 679.302 -0.41546 -1.90011 0
M  V30 7125 C 679.585 -3.5802 -0.386482 0
M  V30 7126 C 679.438 -4.40339 0.9177 0
M  V30 7127 C 680.757 -4.24444 -1.16342 0
M  V30 7128 H 677.876 -0.735062 -0.0534102 0
M  V30 7129 H 680.518 -1.81656 0.556888 0
M  V30 7130 H 678.668 -3.75688 -0.989494 0
M  V30 7131 H 680.34 -4.34357 1.55344 0
M  V30 7132 H 678.583 -4.06073 1.526 0
M  V30 7133 H 679.254 -5.47451 0.707187 0
M  V30 7134 H 681.73 -4.10948 -0.652788 0
M  V30 7135 H 680.606 -5.33358 -1.29693 0
M  V30 7136 H 680.867 -3.84204 -2.18724 0
M  V30 7137 N 679.926 -0.151884 -1.56866 0
M  V30 7138 C 681.154 0.504813 -2.00647 0
M  V30 7139 C 681.569 1.58098 -1.03201 0
M  V30 7140 O 680.926 1.82476 -0.0297814 0
M  V30 7141 C 680.977 1.10099 -3.44326 0
M  V30 7142 O 680.698 0.0678021 -4.38048 0
M  V30 7143 C 682.199 1.83782 -4.03409 0
M  V30 7144 H 679.419 0.130989 -0.65809 0
M  V30 7145 H 681.963 -0.247903 -2.02992 0
M  V30 7146 H 680.118 1.8043 -3.42817 0
M  V30 7147 H 680.532 0.505237 -5.22061 0
M  V30 7148 H 682.006 2.2078 -5.05925 0
M  V30 7149 H 682.483 2.72557 -3.44397 0
M  V30 7150 H 683.089 1.18138 -4.08563 0
M  V30 7151 N 681.404 1.57128 0.121893 0
M  V30 7152 C 682.352 2.01109 1.16868 0
M  V30 7153 C 683.346 0.907532 1.43039 0
M  V30 7154 O 684.552 1.09274 1.43036 0
M  V30 7155 H 680.927 0.640539 0.393971 0
M  V30 7156 H 682.898 2.88261 0.771224 0
M  V30 7157 C 681.647 2.42887 2.48799 0
M  V30 7158 H 680.97 3.2737 2.29498 0
M  V30 7159 H 682.41 2.77461 3.20611 0
M  V30 7160 C 680.869 1.29137 3.11168 0
M  V30 7161 O 681.399 0.605756 3.97106 0
M  V30 7162 N 679.605 1.04916 2.71 0
M  V30 7163 H 679.152 1.60848 2.01211 0
M  V30 7164 H 679.11 0.290016 3.1306 0
M  V30 7165 N 682.882 -0.391992 1.52647 0
M  V30 7166 C 684.11 -1.1586 1.71418 0
M  V30 7167 C 684.525 -1.8381 0.431216 0
M  V30 7168 O 683.882 -1.7256 -0.594085 0
M  V30 7169 C 683.933 -2.20888 2.86165 0
M  V30 7170 O 683.654 -1.5571 4.09495 0
M  V30 7171 C 685.155 -3.103 3.1659 0
M  V30 7172 H 682.375 -0.347494 0.574011 0
M  V30 7173 H 684.919 -0.458972 1.99283 0
M  V30 7174 H 683.074 -2.86492 2.6077 0
M  V30 7175 H 683.488 -2.25474 4.73563 0
M  V30 7176 H 684.962 -3.8003 4.00351 0
M  V30 7177 H 685.439 -3.73639 2.30848 0
M  V30 7178 H 686.045 -2.50345 3.43813 0
M  V30 7179 N 684.36 -1.4356 -0.65026 0
M  V30 7180 C 685.29 -1.51758 -1.77459 0
M  V30 7181 C 686.271 -0.372019 -1.65982 0
M  V30 7182 O 687.456 -0.589627 -1.85033 0
M  V30 7183 C 684.586 -1.44302 -3.15902 0
M  V30 7184 C 683.54 -2.57138 -3.42146 0
M  V30 7185 C 682.866 -2.34735 -4.8042 0
M  V30 7186 C 684.166 -3.99373 -3.36598 0
M  V30 7187 H 685.86 -2.45863 -1.70855 0
M  V30 7188 H 683.406 -1.18333 -0.820566 0
M  V30 7189 H 685.359 -1.48641 -3.94314 0
M  V30 7190 H 684.083 -0.467026 -3.23244 0
M  V30 7191 H 682.742 -2.52157 -2.66106 0
M  V30 7192 H 682.39 -1.35372 -4.84441 0
M  V30 7193 H 682.09 -3.10375 -4.9894 0
M  V30 7194 H 683.614 -2.40862 -5.61086 0
M  V30 7195 H 685.028 -4.05826 -4.04942 0
M  V30 7196 H 683.425 -4.75063 -3.66654 0
M  V30 7197 H 684.495 -4.243 -2.34729 0
M  V30 7198 N 685.838 0.888903 -1.30139 0
M  V30 7199 C 686.748 2.02705 -1.18101 0
M  V30 7200 C 687.764 1.73702 -0.101809 0
M  V30 7201 O 688.94 1.98906 -0.315984 0
M  V30 7202 C 686.005 3.35616 -0.869651 0
M  V30 7203 C 685.066 3.78067 -2.03381 0
M  V30 7204 C 684.299 5.04635 -1.73721 0
M  V30 7205 O 684.522 5.66531 -0.663267 0
M  V30 7206 O 683.456 5.43399 -2.58845 0
M  V30 7207 H 687.282 2.15788 -2.13704 0
M  V30 7208 H 684.867 1.01426 -1.09695 0
M  V30 7209 H 686.749 4.15358 -0.711043 0
M  V30 7210 H 685.424 3.23651 0.0565002 0
M  V30 7211 H 684.331 2.99046 -2.24772 0
M  V30 7212 H 685.664 3.94631 -2.94155 0
M  V30 7213 N 687.317 1.12792 1.10072 0
M  V30 7214 C 688.265 0.794523 2.18609 0
M  V30 7215 C 689.259 -0.220271 1.67962 0
M  V30 7216 O 690.465 -0.0780938 1.79831 0
M  V30 7217 H 686.84 0.239123 0.712969 0
M  V30 7218 H 688.811 1.71823 2.43966 0
M  V30 7219 C 687.56 0.269548 3.46654 0
M  V30 7220 H 686.883 1.04171 3.8599 0
M  V30 7221 H 688.323 0.0746242 4.23934 0
M  V30 7222 C 686.782 -1.00333 3.21613 0
M  V30 7223 O 687.312 -2.08042 3.4363 0
M  V30 7224 N 685.518 -0.931763 2.75257 0
M  V30 7225 H 685.065 -0.0551197 2.57541 0
M  V30 7226 H 685.023 -1.78405 2.58881 0
M  V30 7227 N 688.795 -1.27931 0.920396 0
M  V30 7228 C 690.206 -1.76707 0.602616 0
M  V30 7229 C 690.557 -1.75249 -0.882159 0
M  V30 7230 O 689.682 -1.35135 -1.69019 0
M  V30 7231 C 690.277 -3.20884 1.08714 0
M  V30 7232 C 688.836 -3.67356 0.820157 0
M  V30 7233 C 687.983 -2.47525 1.25006 0
M  V30 7234 H 690.934 -1.14301 1.10095 0
M  V30 7235 H 690.955 -3.78045 0.431535 0
M  V30 7236 H 690.467 -3.21913 2.1678 0
M  V30 7237 H 688.568 -3.7178 -0.247012 0
M  V30 7238 H 688.681 -4.57181 1.43257 0
M  V30 7239 H 687.045 -2.45765 0.668698 0
M  V30 7240 H 687.828 -2.51269 2.3392 0
M  V30 7241 N 690.273 -0.685099 -1.4193 0
M  V30 7242 C 691.521 -0.21124 -2.00993 0
M  V30 7243 C 691.842 1.18985 -1.54491 0
M  V30 7244 O 691.112 1.8009 -0.771 0
M  V30 7245 H 689.692 -0.0751059 -0.743215 0
M  V30 7246 H 692.354 -0.883915 -1.73704 0
M  V30 7247 H 691.45 -0.220513 -3.1132 0
M  V30 7248 N 691.751 1.51645 -0.429126 0
M  V30 7249 C 692.976 2.06917 0.141399 0
M  V30 7250 C 693.401 1.29527 1.36398 0
M  V30 7251 O 692.759 0.33094 1.78254 0
M  V30 7252 C 692.807 3.57776 0.4504 0
M  V30 7253 O 691.911 3.82639 1.53821 0
M  V30 7254 H 691.252 0.663978 0.0054647 0
M  V30 7255 H 693.782 1.95355 -0.608093 0
M  V30 7256 H 693.792 4.01894 0.703249 0
M  V30 7257 H 692.467 4.13532 -0.443213 0
M  V30 7258 H 691.044 3.5039 1.27597 0
M  V30 7259 N 693.229 0.160201 1.56784 0
M  V30 7260 C 694.159 -0.770264 2.2043 0
M  V30 7261 C 695.14 -1.24736 1.15651 0
M  V30 7262 O 696.325 -1.30253 1.44041 0
M  V30 7263 C 693.455 -2.00427 2.83631 0
M  V30 7264 C 692.409 -1.66345 3.94352 0
M  V30 7265 C 691.735 -2.97119 4.4455 0
M  V30 7266 C 693.035 -0.899972 5.14488 0
M  V30 7267 H 694.729 -0.239783 2.98438 0
M  V30 7268 H 692.275 -0.113891 1.43549 0
M  V30 7269 H 694.228 -2.66012 3.26827 0
M  V30 7270 H 692.952 -2.5587 2.02973 0
M  V30 7271 H 691.611 -1.03133 3.51794 0
M  V30 7272 H 691.259 -3.5058 3.60698 0
M  V30 7273 H 690.959 -2.75073 5.19238 0
M  V30 7274 H 692.483 -3.63753 4.90425 0
M  V30 7275 H 693.897 -1.45818 5.54446 0
M  V30 7276 H 692.294 -0.778968 5.95023 0
M  V30 7277 H 693.364 0.105827 4.84785 0
M  V30 7278 N 694.707 -1.5719 -0.113559 0
M  V30 7279 C 695.956 -1.84325 -0.818984 0
M  V30 7280 C 696.269 -0.746685 -1.80787 0
M  V30 7281 O 697.475 -0.904596 -2.55987 0
M  V30 7282 C 695.931 -3.26818 -1.50724 0
M  V30 7283 C 695.539 -4.44498 -0.559065 0
M  V30 7284 C 697.283 -3.63196 -2.19748 0
M  V30 7285 C 695.19 -5.7802 -1.25086 0
M  V30 7286 H 694.12 -0.687507 -0.309596 0
M  V30 7287 H 696.771 -1.8336 -0.0717621 0
M  V30 7288 H 695.153 -3.22269 -2.30128 0
M  V30 7289 H 696.327 -4.60356 0.202146 0
M  V30 7290 H 694.642 -4.16393 0.024495 0
M  V30 7291 H 697.239 -4.60226 -2.72206 0
M  V30 7292 H 697.582 -2.90899 -2.97798 0
M  V30 7293 H 698.115 -3.69553 -1.47226 0
M  V30 7294 H 694.854 -6.53501 -0.511539 0
M  V30 7295 H 694.374 -5.66038 -1.98395 0
M  V30 7296 H 696.053 -6.2196 -1.78253 0
M  V30 7297 N 696.185 0.383891 -1.52853 0
M  V30 7298 C 697.132 1.46924 -1.77995 0
M  V30 7299 C 698.102 1.53958 -0.623396 0
M  V30 7300 O 699.287 1.70134 -0.863657 0
M  V30 7301 C 696.427 2.84093 -1.95921 0
M  V30 7302 C 695.54 2.86171 -3.23621 0
M  V30 7303 C 694.675 4.14799 -3.31836 0
M  V30 7304 C 693.714 4.10948 -4.53639 0
M  V30 7305 N 692.851 5.31192 -4.59107 0
M  V30 7306 H 697.691 1.24786 -2.70615 0
M  V30 7307 H 695.228 0.605265 -1.34071 0
M  V30 7308 H 697.186 3.63755 -2.04299 0
M  V30 7309 H 695.816 3.04671 -1.06656 0
M  V30 7310 H 694.868 1.9885 -3.24288 0
M  V30 7311 H 696.18 2.79194 -4.13343 0
M  V30 7312 H 695.334 5.02867 -3.39425 0
M  V30 7313 H 694.073 4.24505 -2.40097 0
M  V30 7314 H 693.078 3.21268 -4.46169 0
M  V30 7315 H 694.303 4.0286 -5.467 0
M  V30 7316 H 692.249 5.41518 -3.70262 0
M  V30 7317 H 692.166 5.26311 -5.42708 0
M  V30 7318 H 693.434 6.21143 -4.70958 0
M  V30 7319 N 697.663 1.43903 0.642637 0
M  V30 7320 C 698.91 1.46079 1.40239 0
M  V30 7321 C 699.238 0.0890335 1.94296 0
M  V30 7322 O 698.493 -0.907533 1.73385 0
M  V30 7323 C 698.792 2.45907 2.59354 0
M  V30 7324 C 698.458 3.91522 2.23654 0
M  V30 7325 C 697.12 4.31179 2.1363 0
M  V30 7326 C 699.472 4.83242 1.95261 0
M  V30 7327 C 696.8 5.60495 1.73384 0
M  V30 7328 C 699.152 6.12933 1.56511 0
M  V30 7329 C 697.816 6.51556 1.4502 0
M  V30 7330 H 697.086 0.534542 0.513172 0
M  V30 7331 H 699.733 1.77047 0.72984 0
M  V30 7332 H 698.038 2.08381 3.3179 0
M  V30 7333 H 699.735 2.44842 3.17574 0
M  V30 7334 H 696.325 3.60142 2.32369 0
M  V30 7335 H 700.509 4.53367 2.0192 0
M  V30 7336 H 695.765 5.89249 1.63082 0
M  V30 7337 H 699.939 6.83469 1.33576 0
M  V30 7338 H 697.566 7.51663 1.13606 0
M  V30 7339 N 699.141 -0.881989 1.30609 0
M  V30 7340 C 700.369 -1.66711 1.22536 0
M  V30 7341 C 700.784 -1.87614 -0.2113 0
M  V30 7342 O 700.141 -1.42576 -1.13923 0
M  V30 7343 C 700.192 -3.04182 1.95335 0
M  V30 7344 O 699.913 -2.8422 3.33393 0
M  V30 7345 C 701.414 -3.98617 1.93956 0
M  V30 7346 H 698.634 -0.520124 0.423925 0
M  V30 7347 H 701.178 -1.10174 1.72285 0
M  V30 7348 H 699.333 -3.57442 1.49378 0
M  V30 7349 H 699.747 -3.71452 3.70302 0
M  V30 7350 H 701.221 -4.92433 2.49426 0
M  V30 7351 H 701.698 -4.29473 0.919198 0
M  V30 7352 H 702.304 -3.51292 2.39738 0
M  V30 7353 N 700.619 -1.13374 -1.09472 0
M  V30 7354 C 701.849 -0.917019 -1.85133 0
M  V30 7355 C 702.257 0.537568 -1.81402 0
M  V30 7356 O 701.6 1.38385 -1.20811 0
M  V30 7357 C 701.662 -1.32646 -3.34134 0
M  V30 7358 C 701.326 -2.79437 -3.61613 0
M  V30 7359 C 702.323 -3.77596 -3.57375 0
M  V30 7360 C 700.008 -3.16586 -3.89973 0
M  V30 7361 C 702.002 -5.10916 -3.81108 0
M  V30 7362 C 699.689 -4.50085 -4.13361 0
M  V30 7363 C 700.687 -5.47059 -4.0892 0
M  V30 7364 O 700.375 -6.78149 -4.31705 0
M  V30 7365 H 700.107 -0.326997 -0.591649 0
M  V30 7366 H 702.661 -1.51002 -1.39239 0
M  V30 7367 H 700.891 -0.676719 -3.80733 0
M  V30 7368 H 702.58 -1.08229 -3.91205 0
M  V30 7369 H 703.346 -3.50242 -3.35493 0
M  V30 7370 H 699.225 -2.41707 -3.92554 0
M  V30 7371 H 702.769 -5.86597 -3.77558 0
M  V30 7372 H 698.666 -4.77163 -4.34724 0
M  V30 7373 H 699.434 -6.84244 -4.49168 0
M  V30 7374 N 702.098 1.27442 -0.927168 0
M  V30 7375 C 703.045 2.26863 -0.424459 0
M  V30 7376 C 704.015 1.5813 0.508346 0
M  V30 7377 O 705.2 1.85946 0.42762 0
M  V30 7378 C 702.34 3.43639 0.31718 0
M  V30 7379 C 701.453 4.27087 -0.649675 0
M  V30 7380 C 700.588 5.31082 0.111753 0
M  V30 7381 C 699.627 6.062 -0.847843 0
M  V30 7382 N 698.764 7.01999 -0.119074 0
M  V30 7383 H 703.604 2.69239 -1.27728 0
M  V30 7384 H 701.141 1.32394 -0.641106 0
M  V30 7385 H 703.099 4.10155 0.763486 0
M  V30 7386 H 701.729 3.02217 1.13424 0
M  V30 7387 H 700.781 3.60491 -1.21451 0
M  V30 7388 H 702.093 4.79242 -1.38307 0
M  V30 7389 H 701.247 6.03544 0.618 0
M  V30 7390 H 699.986 4.7973 0.878114 0
M  V30 7391 H 698.991 5.32577 -1.36534 0
M  V30 7392 H 700.216 6.59642 -1.61398 0
M  V30 7393 H 698.162 6.52977 0.629051 0
M  V30 7394 H 698.079 7.5184 -0.792046 0
M  V30 7395 H 699.347 7.78638 0.366537 0
M  V30 7396 N 703.576 0.692616 1.41565 0
M  V30 7397 C 704.539 0.0344174 2.29174 0
M  V30 7398 C 705.539 -0.710961 1.44229 0
M  V30 7399 O 706.729 -0.546293 1.65412 0
M  V30 7400 C 703.861 -0.961682 3.27054 0
M  V30 7401 H 705.054 0.805755 2.88873 0
M  V30 7402 H 702.607 0.455947 1.49502 0
M  V30 7403 H 703.342 -1.76089 2.72329 0
M  V30 7404 H 703.127 -0.430375 3.89731 0
M  V30 7405 H 704.617 -1.4201 3.92712 0
M  V30 7406 N 705.054 -1.51416 0.437162 0
M  V30 7407 C 706.001 -2.27743 -0.374374 0
M  V30 7408 C 706.971 -1.31327 -1.01698 0
M  V30 7409 O 708.156 -1.60229 -1.03592 0
M  V30 7410 C 705.296 -3.12241 -1.46969 0
M  V30 7411 C 704.409 -4.23651 -0.845236 0
M  V30 7412 C 703.544 -4.95458 -1.91559 0
M  V30 7413 C 702.583 -5.98789 -1.26956 0
M  V30 7414 N 701.72 -6.64005 -2.28126 0
M  V30 7415 H 706.56 -2.96654 0.282892 0
M  V30 7416 H 704.097 -1.46319 0.151352 0
M  V30 7417 H 706.055 -3.59556 -2.11602 0
M  V30 7418 H 704.685 -2.45445 -2.09659 0
M  V30 7419 H 703.737 -3.803 -0.0872059 0
M  V30 7420 H 705.049 -4.97683 -0.333582 0
M  V30 7421 H 704.203 -5.46321 -2.63854 0
M  V30 7422 H 702.942 -4.21055 -2.46097 0
M  V30 7423 H 701.947 -5.47219 -0.53207 0
M  V30 7424 H 703.172 -6.75149 -0.731509 0
M  V30 7425 H 701.118 -5.92415 -2.81745 0
M  V30 7426 H 701.035 -7.33802 -1.81852 0
M  V30 7427 H 702.303 -7.19498 -2.99905 0
M  V30 7428 O 706.571 -0.309557 -1.58506 0
M  V30 7429 H 707.262 0.253272 -1.92037 0
M  V30 END ATOM
M  V30 BEGIN BOND
M  V30 END BOND
M  V30 END CTAB
M  END
$$$$
