drugbank_target|P14416 D(2) dopamine receptor (DB00182; DB00246; DB00248; DB00268; DB00334; DB00363; DB00372; DB00391; DB00408; DB00409; DB00413; DB00420; DB00433; DB00450; DB00458; DB00477; DB00490; DB00502; DB00508; DB00540; DB00543; DB00555; DB00568; DB00589; DB00623; DB00679; DB00696; DB00714; DB00715; DB00726; DB00734; DB00777; DB00805; DB00831; DB00850; DB00875; DB00915; DB00933; DB00934; DB00988; DB01038; DB01043; DB01063; DB01069; DB01100; DB01151; DB01175; DB01184; DB01186; DB01200; DB01221; DB01224; DB01233; DB01235; DB01238; DB01239; DB01267; DB01392; DB01403; DB01425; DB01549; DB01614; DB01618; DB01621; DB01622; DB01623; DB01624; DB04599; DB04842; DB04844; DB04857; DB04888; DB04889; DB04924; DB04946; DB05271; DB05316; DB05687; DB05766; DB05964; DB06016; DB06077; DB06109; DB06144; DB06148; DB06216; DB06229; DB06288; DB06454; DB06477; DB08815; DB08922; DB09018; DB09097; DB09128; DB09194; DB09207; DB09223; DB09224; DB09225; DB09286; DB11274; DB12061; DB12093; DB12478; DB12518; DB12579; DB13025; DB14185)
 OpenBabel12092119393D

  0  0  0     0  0            999 V3000
M  V30 BEGIN CTAB
M  V30 COUNTS 7206 7296 0 0 0
M  V30 BEGIN ATOM
M  V30 1 H -0.908 1.98254 -0.117106 0
M  V30 2 N 0 1.576 0 0
M  V30 3 C 0.933 2.03868 1.02534 0
M  V30 4 C 1.911 0.928543 1.3348 0
M  V30 5 O 3.095 1.19667 1.45644 0
M  V30 6 C 0.222 2.43627 2.35294 0
M  V30 7 C -0.732 3.65373 2.2001 0
M  V30 8 S 0.101 5.13292 1.52614 0
M  V30 9 C 1.257 5.56322 2.86805 0
M  V30 10 H 1.49 2.90518 0.631377 0
M  V30 11 H -0.977 1.52953 0.210867 0
M  V30 12 H 0.981 2.67203 3.11629 0
M  V30 13 H -0.358 1.57376 2.7183 0
M  V30 14 H -1.165 3.90944 3.18086 0
M  V30 15 H -1.563 3.418 1.51819 0
M  V30 16 H 0.729 5.58782 3.83104 0
M  V30 17 H 1.672 6.56266 2.65933 0
M  V30 18 H 2.08 4.83886 2.90714 0
M  V30 19 N 1.4781 -0.272755 1.55222 0
M  V30 20 C 2.7551 -1.02562 1.66555 0
M  V30 21 C 3.1351 -2.04282 0.532189 0
M  V30 22 O 2.4831 -2.23662 -0.467717 0
M  V30 23 C 2.6931 -1.6822 3.05782 0
M  V30 24 C 4.0411 -2.19373 3.63539 0
M  V30 25 O 5.0651 -1.78206 3.08417 0
M  V30 26 O 3.9241 -2.94883 4.60115 0
M  V30 27 H 1.0181 -0.475755 0.676451 0
M  V30 28 H 3.5641 -0.268593 1.67561 0
M  V30 29 H 2.3361 -0.945112 3.79715 0
M  V30 30 H 1.9591 -2.50609 3.08676 0
M  V30 31 N 2.9562 -1.48159 -0.537278 0
M  V30 32 C 4.3672 -1.49429 -1.11928 0
M  V30 33 C 4.7182 -0.26 -1.9447 0
M  V30 34 O 3.8432 0.633489 -2.0692 0
M  V30 35 C 4.4382 -2.70758 -2.03656 0
M  V30 36 C 2.9972 -2.74923 -2.57088 0
M  V30 37 C 2.1442 -2.42835 -1.3389 0
M  V30 38 H 5.0952 -1.55381 -0.322886 0
M  V30 39 H 5.1162 -2.48861 -2.87834 0
M  V30 40 H 4.6282 -3.60575 -1.43553 0
M  V30 41 H 2.7292 -1.89296 -3.20933 0
M  V30 42 H 2.8422 -3.76157 -2.9672 0
M  V30 43 H 1.2062 -1.93836 -1.65226 0
M  V30 44 H 1.9892 -3.34884 -0.755504 0
M  V30 45 N 4.4343 0.785586 -1.36625 0
M  V30 46 C 5.3643 1.91259 -1.33949 0
M  V30 47 C 6.3453 1.68795 -0.210325 0
M  V30 48 O 7.5303 1.89854 -0.408561 0
M  V30 49 C 4.6603 3.28339 -1.13186 0
M  V30 50 C 3.6143 3.65335 -2.22967 0
M  V30 51 C 2.9403 5.00806 -1.87342 0
M  V30 52 C 4.2403 3.7352 -3.65075 0
M  V30 53 H 5.9343 1.93755 -2.28253 0
M  V30 54 H 3.4803 0.930788 -1.09874 0
M  V30 55 H 5.4333 4.06804 -1.09948 0
M  V30 56 H 4.1573 3.2624 -0.153332 0
M  V30 57 H 2.8163 2.89169 -2.25337 0
M  V30 58 H 2.4643 4.95233 -0.880545 0
M  V30 59 H 2.1643 5.26529 -2.60846 0
M  V30 60 H 3.6883 5.81687 -1.85667 0
M  V30 61 H 5.1023 4.42168 -3.64911 0
M  V30 62 H 3.4993 4.10731 -4.37516 0
M  V30 63 H 4.5693 2.74527 -3.99703 0
M  V30 64 N 5.9124 1.20967 1.01018 0
M  V30 65 C 6.8604 0.961223 2.1181 0
M  V30 66 C 7.8544 -0.0897034 1.69162 0
M  V30 67 O 9.0604 0.0612271 1.79896 0
M  V30 68 H 5.4354 0.29355 0.692338 0
M  V30 69 H 7.4064 1.90178 2.29946 0
M  V30 70 C 6.1554 0.536854 3.4353 0
M  V30 71 H 5.4784 1.33713 3.76777 0
M  V30 72 H 6.9184 0.402286 4.22087 0
M  V30 73 C 5.3774 -0.751574 3.2841 0
M  V30 74 O 5.9074 -1.80841 3.58691 0
M  V30 75 N 4.1134 -0.716079 2.81639 0
M  V30 76 H 3.6604 0.144236 2.57196 0
M  V30 77 H 3.6184 -1.57847 2.71904 0
M  V30 78 N 7.3905 -1.2043 1.01659 0
M  V30 79 C 8.3205 -2.25466 0.607226 0
M  V30 80 C 9.3015 -1.65853 -0.377716 0
M  V30 81 O 10.4865 -1.92409 -0.263149 0
M  V30 82 C 7.6165 -3.47256 -0.0552949 0
M  V30 83 C 6.5705 -4.19462 0.850632 0
M  V30 84 C 5.8965 -5.34673 0.0538859 0
M  V30 85 C 7.1965 -4.75603 2.15868 0
M  V30 86 H 8.8905 -2.59962 1.48526 0
M  V30 87 H 6.4365 -1.2496 0.715605 0
M  V30 88 H 8.3895 -4.19917 -0.353233 0
M  V30 89 H 7.1135 -3.11924 -0.968045 0
M  V30 90 H 5.7725 -3.48667 1.13257 0
M  V30 91 H 5.4205 -4.95585 -0.860514 0
M  V30 92 H 5.1205 -5.83913 0.657192 0
M  V30 93 H 6.6445 -6.10138 -0.237598 0
M  V30 94 H 8.0585 -5.40083 1.92311 0
M  V30 95 H 6.4555 -5.3528 2.71284 0
M  V30 96 H 7.5255 -3.94346 2.82169 0
M  V30 97 N 8.8686 -0.792821 -1.36206 0
M  V30 98 C 10.0936 -0.377701 -2.03932 0
M  V30 99 C 10.5186 0.998947 -1.59382 0
M  V30 100 O 9.8766 1.64421 -0.763903 0
M  V30 101 C 9.9246 -0.453635 -3.57735 0
M  V30 102 O 9.0286 0.538151 -4.08874 0
M  V30 103 H 8.3696 -0.159855 -0.644471 0
M  V30 104 H 10.8996 -1.07488 -1.7409 0
M  V30 105 H 10.9096 -0.318464 -4.06755 0
M  V30 106 H 9.5846 -1.45784 -3.89512 0
M  V30 107 H 8.1616 0.364359 -3.71116 0
M  V30 108 N 10.3467 1.47872 -0.545128 0
M  V30 109 C 11.5927 2.03385 -0.0247951 0
M  V30 110 C 11.9477 1.41325 1.30556 0
M  V30 111 O 11.2407 0.5552 1.8338 0
M  V30 112 C 11.4347 3.57131 0.13867 0
M  V30 113 C 11.2637 4.34097 -1.17429 0
M  V30 114 C 10.0337 4.74458 -1.73831 0
M  V30 115 C 12.2317 4.6998 -2.08861 0
M  V30 116 N 10.2137 5.3602 -2.99258 0
M  V30 117 C 11.5847 5.31719 -3.18866 0
M  V30 118 C 13.6397 4.5191 -2.09003 0
M  V30 119 C 12.3427 5.77295 -4.29096 0
M  V30 120 C 14.3687 4.98477 -3.18237 0
M  V30 121 C 13.7307 5.60253 -4.26961 0
M  V30 122 H 9.8297 0.780339 -0.050943 0
M  V30 123 H 12.4137 1.80507 -0.729753 0
M  V30 124 H 10.5847 3.79802 0.812733 0
M  V30 125 H 12.3167 3.99282 0.659976 0
M  V30 126 H 9.0717 4.56037 -1.2778 0
M  V30 127 H 9.4957 5.71355 -3.63157 0
M  V30 128 H 14.1377 4.03516 -1.26234 0
M  V30 129 H 11.8557 6.24687 -5.12633 0
M  V30 130 H 15.4417 4.86274 -3.1942 0
M  V30 131 H 14.3217 5.95631 -5.10091 0
M  V30 132 N 11.8248 0.280983 1.55075 0
M  V30 133 C 13.0548 -0.336804 2.03836 0
M  V30 134 C 13.4628 -1.49577 1.15859 0
M  V30 135 O 12.8058 -1.82888 0.172503 0
M  V30 136 C 12.8678 -0.874616 3.48699 0
M  V30 137 C 12.5318 0.156478 4.56732 0
M  V30 138 C 13.5288 0.978032 5.10618 0
M  V30 139 C 11.2138 0.292409 5.01448 0
M  V30 140 C 13.2078 1.92165 6.07743 0
M  V30 141 C 10.8948 1.23949 5.98398 0
M  V30 142 C 11.8928 2.05261 6.51427 0
M  V30 143 O 11.5808 2.98367 7.4648 0
M  V30 144 H 11.3128 -0.0800885 0.671239 0
M  V30 145 H 13.8668 0.412589 2.01213 0
M  V30 146 H 12.0968 -1.67418 3.4858 0
M  V30 147 H 13.7858 -1.40612 3.80766 0
M  V30 148 H 14.5518 0.883782 4.7688 0
M  V30 149 H 10.4308 -0.330498 4.59814 0
M  V30 150 H 13.9748 2.55672 6.49059 0
M  V30 151 H 9.8718 1.33454 6.31554 0
M  V30 152 H 10.6398 2.93116 7.64215 0
M  V30 153 N 13.3029 -1.57598 0.00835791 0
M  V30 154 C 14.5799 -1.82172 -0.712235 0
M  V30 155 C 14.9599 -0.887873 -1.9152 0
M  V30 156 O 14.3079 0.06146 -2.28417 0
M  V30 157 C 14.5179 -3.30875 -1.11008 0
M  V30 158 C 15.8659 -3.96826 -1.51044 0
M  V30 159 O 16.8899 -3.35248 -1.20364 0
M  V30 160 O 15.7489 -5.05318 -2.08125 0
M  V30 161 H 12.8429 -0.750435 -0.347529 0
M  V30 162 H 15.3889 -1.69665 0.0344523 0
M  V30 163 H 14.1609 -3.90481 -0.252982 0
M  V30 164 H 13.7839 -3.48412 -1.9156 0
M  V30 165 N 14.781 0.264519 -1.55364 0
M  V30 166 C 16.058 1.01677 -1.67096 0
M  V30 167 C 16.438 2.03996 -0.543015 0
M  V30 168 O 15.786 2.23907 0.45585 0
M  V30 169 C 15.996 1.66596 -3.0667 0
M  V30 170 C 17.344 2.17442 -3.64697 0
M  V30 171 O 18.368 1.76568 -3.09358 0
M  V30 172 O 17.227 2.92439 -4.61673 0
M  V30 173 H 14.321 0.472161 -0.678965 0
M  V30 174 H 16.867 0.259703 -1.67701 0
M  V30 175 H 15.639 0.924962 -3.80211 0
M  V30 176 H 15.262 2.48968 -3.10001 0
M  V30 177 N 16.2591 1.48442 0.529413 0
M  V30 178 C 17.5361 1.46978 1.29062 0
M  V30 179 C 17.9161 0.181769 2.10316 0
M  V30 180 O 17.2641 -0.836481 2.12639 0
M  V30 181 C 17.4741 2.7321 2.17157 0
M  V30 182 C 18.8221 3.21562 2.77278 0
M  V30 183 O 19.8461 2.74131 2.27444 0
M  V30 184 O 18.7051 4.04094 3.67927 0
M  V30 185 H 15.7991 0.587003 0.582543 0
M  V30 186 H 18.3451 1.60676 0.546021 0
M  V30 187 H 17.1171 3.58465 1.56903 0
M  V30 188 H 16.7401 2.62235 2.98862 0
M  V30 189 N 17.7372 -0.778329 1.37039 0
M  V30 190 C 18.6672 -1.90546 1.34962 0
M  V30 191 C 19.6482 -1.68681 0.219274 0
M  V30 192 O 20.8332 -1.89634 0.418624 0
M  V30 193 C 17.9632 -3.27734 1.14925 0
M  V30 194 C 16.9172 -3.64147 2.24902 0
M  V30 195 C 16.2432 -4.99806 1.89996 0
M  V30 196 C 17.5432 -3.71579 3.67051 0
M  V30 197 H 19.2372 -1.92541 2.29277 0
M  V30 198 H 16.7832 -0.924948 1.10366 0
M  V30 199 H 18.7362 -4.06215 1.12104 0
M  V30 200 H 17.4602 -3.26154 0.170631 0
M  V30 201 H 16.1192 -2.8797 2.26868 0
M  V30 202 H 15.7672 -4.94759 0.906796 0
M  V30 203 H 15.4672 -5.25139 2.63634 0
M  V30 204 H 16.9912 -5.80694 1.88749 0
M  V30 205 H 18.4052 -4.40227 3.67251 0
M  V30 206 H 16.8022 -4.08405 4.39688 0
M  V30 207 H 17.8722 -2.72404 4.01154 0
M  V30 208 N 19.2153 -1.21501 -1.00376 0
M  V30 209 C 20.1253 -0.991447 -2.12621 0
M  V30 210 C 21.1413 0.0568446 -1.73907 0
M  V30 211 O 22.3173 -0.13348 -2.00957 0
M  V30 212 C 19.3823 -0.560312 -3.42142 0
M  V30 213 C 18.4433 -1.68096 -3.95022 0
M  V30 214 C 17.6763 -1.2703 -5.18362 0
M  V30 215 O 17.8993 -0.144438 -5.70217 0
M  V30 216 O 16.8333 -2.08269 -5.64719 0
M  V30 217 H 20.6593 -1.93158 -2.34358 0
M  V30 218 H 18.2443 -0.999999 -1.10997 0
M  V30 219 H 20.1263 -0.329724 -4.20108 0
M  V30 220 H 18.8013 0.351089 -3.2179 0
M  V30 221 H 17.7083 -1.96597 -3.18278 0
M  V30 222 H 19.0413 -2.56983 -4.19786 0
M  V30 223 N 20.6934 1.19889 -1.02296 0
M  V30 224 C 22.1094 1.41462 -0.738954 0
M  V30 225 C 22.3094 1.89721 0.678846 0
M  V30 226 O 21.3654 2.07016 1.4457 0
M  V30 227 C 22.6784 2.43083 -1.77005 0
M  V30 228 C 24.2264 2.5684 -1.78892 0
M  V30 229 C 24.7014 3.61709 -2.80945 0
M  V30 230 N 26.1924 3.69199 -2.79725 0
M  V30 231 C 26.9274 4.50019 -3.55345 0
M  V30 232 N 26.4234 5.34592 -4.40662 0
M  V30 233 N 28.2164 4.44612 -3.43914 0
M  V30 234 H 20.3674 0.868827 -1.93817 0
M  V30 235 H 22.6304 0.44399 -0.837602 0
M  V30 236 H 22.3364 2.14636 -2.78612 0
M  V30 237 H 22.2104 3.4217 -1.58744 0
M  V30 238 H 24.5974 2.84614 -0.779674 0
M  V30 239 H 24.6784 1.57927 -2.01228 0
M  V30 240 H 24.3224 3.34678 -3.82038 0
M  V30 241 H 24.2524 4.60259 -2.5587 0
M  V30 242 H 26.7434 3.08794 -2.17842 0
M  V30 243 H 27.0564 5.93363 -4.95116 0
M  V30 244 H 25.4014 5.34073 -4.44737 0
M  V30 245 H 28.5924 3.7758 -2.76679 0
M  V30 246 H 28.7654 5.0736 -4.031 0
M  V30 247 N 22.1715 0.800033 1.35784 0
M  V30 248 C 23.1035 0.163596 2.28615 0
M  V30 249 C 24.1165 -0.633317 1.49976 0
M  V30 250 O 25.3055 -0.466754 1.72289 0
M  V30 251 C 22.4055 -0.790958 3.29541 0
M  V30 252 C 21.5785 -0.0418255 4.3738 0
M  V30 253 C 20.6375 -0.91389 5.18203 0
M  V30 254 O 19.6635 -0.367234 5.68014 0
M  V30 255 N 20.8655 -2.23682 5.35674 0
M  V30 256 H 23.6305 0.96105 2.83873 0
M  V30 257 H 21.1915 0.654894 1.48063 0
M  V30 258 H 23.1835 -1.37844 3.80501 0
M  V30 259 H 21.7535 -1.48925 2.74846 0
M  V30 260 H 20.9735 0.726813 3.87442 0
M  V30 261 H 22.2615 0.474719 5.06581 0
M  V30 262 H 21.6595 -2.70497 4.96838 0
M  V30 263 H 20.2165 -2.77369 5.89839 0
M  V30 264 N 23.6496 -1.47581 0.552962 0
M  V30 265 C 24.5976 -2.31648 -0.21023 0
M  V30 266 C 25.5916 -1.42663 -0.913432 0
M  V30 267 O 26.7976 -1.5945 -0.835201 0
M  V30 268 H 23.1726 -0.746989 -0.0866676 0
M  V30 269 H 25.1436 -2.93869 0.518051 0
M  V30 270 C 23.8926 -3.25226 -1.22976 0
M  V30 271 H 23.2156 -3.93658 -0.698077 0
M  V30 272 H 24.6556 -3.86889 -1.73473 0
M  V30 273 C 23.1146 -2.48448 -2.27542 0
M  V30 274 O 23.6446 -2.22585 -3.34393 0
M  V30 275 N 21.8506 -2.09532 -2.01357 0
M  V30 276 H 21.3976 -2.30765 -1.14478 0
M  V30 277 H 21.3556 -1.58476 -2.71538 0
M  V30 278 N 25.1277 -0.289203 -1.54924 0
M  V30 279 C 26.3737 0.316922 -2.00916 0
M  V30 280 C 26.7287 1.52424 -1.17408 0
M  V30 281 O 26.0217 1.90097 -0.239536 0
M  V30 282 C 26.2157 0.736119 -3.49737 0
M  V30 283 C 26.0447 -0.429036 -4.47649 0
M  V30 284 C 24.8147 -0.917311 -4.96904 0
M  V30 285 C 27.0127 -1.27016 -4.98369 0
M  V30 286 N 24.9947 -2.05046 -5.78644 0
M  V30 287 C 26.3657 -2.25097 -5.77695 0
M  V30 288 C 28.4207 -1.30188 -4.80578 0
M  V30 289 C 27.1237 -3.26114 -6.41126 0
M  V30 290 C 29.1497 -2.30057 -5.44819 0
M  V30 291 C 28.5117 -3.2687 -6.23968 0
M  V30 292 H 24.6107 0.0807535 -0.777819 0
M  V30 293 H 27.1947 -0.416434 -1.90194 0
M  V30 294 H 25.3657 1.43867 -3.60773 0
M  V30 295 H 27.0977 1.32078 -3.82541 0
M  V30 296 H 23.8527 -0.494248 -4.71014 0
M  V30 297 H 24.2767 -2.62108 -6.24202 0
M  V30 298 H 28.9187 -0.567163 -4.18979 0
M  V30 299 H 26.6367 -4.00512 -7.01866 0
M  V30 300 H 30.2227 -2.33271 -5.32988 0
M  V30 301 H 29.1027 -4.02883 -6.72796 0
M  V30 302 N 26.6058 1.57591 -0.0167156 0
M  V30 303 C 27.8308 1.9598 0.67872 0
M  V30 304 C 28.2558 0.892546 1.65575 0
M  V30 305 O 27.6138 -0.147772 1.80697 0
M  V30 306 C 27.6618 3.33468 1.37227 0
M  V30 307 O 26.7658 3.28954 2.48722 0
M  V30 308 H 26.1068 0.639339 0.17928 0
M  V30 309 H 28.6368 2.04463 -0.0748802 0
M  V30 310 H 28.6468 3.69417 1.7319 0
M  V30 311 H 27.3218 4.10694 0.656007 0
M  V30 312 H 25.8988 3.04705 2.14963 0
M  V30 313 N 28.0839 -0.256276 1.55502 0
M  V30 314 C 29.4999 -0.604325 1.47716 0
M  V30 315 C 29.6999 -1.88763 0.705039 0
M  V30 316 O 28.7559 -2.51445 0.230613 0
M  V30 317 C 30.0689 -0.715756 2.92057 0
M  V30 318 C 31.6169 -0.808706 3.02372 0
M  V30 319 C 32.0919 -0.951777 4.48001 0
M  V30 320 N 33.5829 -1.01688 4.519 0
M  V30 321 C 34.3179 -1.14668 5.61817 0
M  V30 322 N 33.8139 -1.24261 6.81565 0
M  V30 323 N 35.6069 -1.1791 5.49594 0
M  V30 324 H 27.7579 0.586291 2.04148 0
M  V30 325 H 30.0209 0.201015 0.926443 0
M  V30 326 H 29.7269 0.157027 3.51349 0
M  V30 327 H 29.6009 -1.59071 3.42018 0
M  V30 328 H 31.9879 -1.67195 2.43166 0
M  V30 329 H 32.0689 0.0912063 2.55637 0
M  V30 330 H 31.7129 -0.0931291 5.07815 0
M  V30 331 H 31.6429 -1.86659 4.92408 0
M  V30 332 H 34.1339 -0.954468 3.65648 0
M  V30 333 H 34.4469 -1.34046 7.61086 0
M  V30 334 H 32.7919 -1.21236 6.84344 0
M  V30 335 H 35.9829 -1.10057 4.54978 0
M  V30 336 H 36.1559 -1.27681 6.35296 0
M  V30 337 N 29.562 -1.4872 -0.521534 0
M  V30 338 C 30.973 -1.50607 -1.10337 0
M  V30 339 C 31.324 -0.280612 -1.94183 0
M  V30 340 O 30.449 0.611507 -2.0758 0
M  V30 341 C 31.044 -2.72903 -2.00772 0
M  V30 342 C 29.603 -2.77634 -2.54158 0
M  V30 343 C 28.75 -2.44241 -1.31307 0
M  V30 344 H 31.701 -1.55714 -0.306388 0
M  V30 345 H 31.722 -2.519 -2.85178 0
M  V30 346 H 31.234 -3.62077 -1.39721 0
M  V30 347 H 29.335 -1.92689 -3.18907 0
M  V30 348 H 29.448 -3.79283 -2.92714 0
M  V30 349 H 27.812 -1.95577 -1.63161 0
M  V30 350 H 28.595 -3.35666 -0.719943 0
M  V30 351 N 31.0401 0.771051 -1.3745 0
M  V30 352 C 32.2871 1.52963 -1.32697 0
M  V30 353 C 32.6151 1.94299 0.0883274 0
M  V30 354 O 31.8701 1.64397 1.0617 0
M  V30 355 C 32.1691 2.80676 -2.2126 0
M  V30 356 C 31.8351 2.58389 -3.69521 0
M  V30 357 C 30.4971 2.52019 -4.09927 0
M  V30 358 C 32.8491 2.38469 -4.63446 0
M  V30 359 C 30.1771 2.23721 -5.42371 0
M  V30 360 C 32.5291 2.11694 -5.96128 0
M  V30 361 C 31.1931 2.03769 -6.35637 0
M  V30 362 H 30.4631 0.559732 -0.485573 0
M  V30 363 H 33.1101 0.888083 -1.69662 0
M  V30 364 H 31.4151 3.49392 -1.77291 0
M  V30 365 H 33.1121 3.38557 -2.14895 0
M  V30 366 H 29.7021 2.6421 -3.37478 0
M  V30 367 H 33.8861 2.4238 -4.33089 0
M  V30 368 H 29.1421 2.16081 -5.71943 0
M  V30 369 H 33.3161 1.9528 -6.6846 0
M  V30 370 H 30.9431 1.81606 -7.38189 0
M  V30 371 N 32.5182 1.22032 0.997298 0
M  V30 372 C 33.4662 0.983634 2.10778 0
M  V30 373 C 34.4602 -0.0717564 1.69248 0
M  V30 374 O 35.6662 0.080304 1.79821 0
M  V30 375 H 32.0412 0.300877 0.689186 0
M  V30 376 H 34.0122 1.92606 2.27916 0
M  V30 377 C 32.7612 0.57326 3.42942 0
M  V30 378 H 32.0842 1.37702 3.75338 0
M  V30 379 H 33.5242 0.447031 4.21637 0
M  V30 380 C 31.9832 -0.7167 3.29188 0
M  V30 381 O 32.5132 -1.77027 3.60589 0
M  V30 382 N 30.7192 -0.686167 2.82383 0
M  V30 383 H 30.2662 0.171507 2.57028 0
M  V30 384 H 30.2242 -1.54955 2.73562 0
M  V30 385 N 33.9963 -1.19345 1.0293 0
M  V30 386 C 35.2443 -1.88665 0.724574 0
M  V30 387 C 35.5653 -1.80036 -0.749144 0
M  V30 388 O 34.8353 -1.2111 -1.53978 0
M  V30 389 H 33.4153 -0.698406 0.265025 0
M  V30 390 H 36.0773 -1.44885 1.30362 0
M  V30 391 H 35.1733 -2.94987 1.01926 0
M  V30 392 N 35.4744 -0.807222 -1.35358 0
M  V30 393 C 36.6994 -0.399309 -2.0352 0
M  V30 394 C 37.1244 0.981986 -1.60433 0
M  V30 395 O 36.4824 1.63601 -0.781299 0
M  V30 396 C 36.5304 -0.491552 -3.57234 0
M  V30 397 O 35.6344 0.494754 -4.09421 0
M  V30 398 H 34.9754 -0.166682 -0.642739 0
M  V30 399 H 37.5054 -1.09328 -1.72941 0
M  V30 400 H 37.5154 -0.361588 -4.06395 0
M  V30 401 H 36.1904 -1.49907 -3.87944 0
M  V30 402 H 34.7674 0.324977 -3.71481 0
M  V30 403 N 36.9525 1.47285 -0.560781 0
M  V30 404 C 38.2295 1.9558 0.0277798 0
M  V30 405 C 38.6095 1.5034 1.48192 0
M  V30 406 O 37.9575 0.743882 2.16052 0
M  V30 407 C 38.1675 3.48789 -0.121418 0
M  V30 408 C 39.5155 4.24594 0.0220912 0
M  V30 409 O 40.5395 3.56166 -0.0491439 0
M  V30 410 O 39.3985 5.46217 0.175958 0
M  V30 411 H 36.4925 0.824663 0.0621342 0
M  V30 412 H 39.0385 1.5767 -0.627556 0
M  V30 413 H 37.8105 3.74533 -1.13316 0
M  V30 414 H 37.4335 3.93473 0.571366 0
M  V30 415 N 38.4306 0.297415 1.54768 0
M  V30 416 C 39.6786 -0.312295 1.99673 0
M  V30 417 C 39.9996 -1.54686 1.18732 0
M  V30 418 O 39.2696 -1.93854 0.282382 0
M  V30 419 H 37.8496 -0.118381 0.73756 0
M  V30 420 H 40.5116 0.407915 1.90583 0
M  V30 421 H 39.6076 -0.586813 3.06534 0
M  V30 422 N 39.9087 -1.5758 0.0250728 0
M  V30 423 C 40.8557 -2.09973 -0.958129 0
M  V30 424 C 41.8257 -1.00085 -1.3256 0
M  V30 425 O 43.0107 -1.27481 -1.41962 0
M  V30 426 C 40.1507 -2.62812 -2.2366 0
M  V30 427 C 39.2637 -3.86693 -1.92594 0
M  V30 428 C 38.3987 -4.27941 -3.14707 0
M  V30 429 C 37.4377 -5.44591 -2.79442 0
M  V30 430 N 36.5747 -5.81014 -3.94167 0
M  V30 431 H 41.4147 -2.937 -0.504428 0
M  V30 432 H 38.9517 -1.45172 -0.237392 0
M  V30 433 H 40.9097 -2.91536 -2.98434 0
M  V30 434 H 39.5397 -1.81922 -2.66654 0
M  V30 435 H 38.5917 -3.64723 -1.0808 0
M  V30 436 H 39.9037 -4.71547 -1.62619 0
M  V30 437 H 39.0577 -4.58079 -3.97804 0
M  V30 438 H 37.7967 -3.41845 -3.4784 0
M  V30 439 H 36.8017 -5.1415 -1.94755 0
M  V30 440 H 38.0267 -6.32382 -2.47528 0
M  V30 441 H 35.9727 -4.97874 -4.2715 0
M  V30 442 H 35.8897 -6.60498 -3.67801 0
M  V30 443 H 37.1577 -6.15756 -4.7798 0
M  V30 444 N 41.3868 0.248026 -1.55636 0
M  V30 445 C 42.3498 1.29044 -1.89421 0
M  V30 446 C 43.3498 1.41134 -0.770581 0
M  V30 447 O 44.5398 1.39854 -1.03858 0
M  V30 448 C 41.6718 2.66831 -2.12165 0
M  V30 449 H 42.8648 1.00305 -2.82629 0
M  V30 450 H 40.4178 0.487265 -1.48511 0
M  V30 451 H 41.1528 3.00711 -1.21422 0
M  V30 452 H 40.9378 2.59438 -2.93997 0
M  V30 453 H 42.4278 3.42103 -2.3949 0
M  V30 454 N 42.8649 1.48995 0.513639 0
M  V30 455 C 44.1419 1.48338 1.27495 0
M  V30 456 C 44.5219 0.204065 2.10111 0
M  V30 457 O 43.8699 -0.813881 2.13514 0
M  V30 458 C 44.0799 2.75498 2.14247 0
M  V30 459 C 45.4279 3.24484 2.73852 0
M  V30 460 O 46.4519 2.76528 2.24523 0
M  V30 461 O 45.3109 4.07974 3.6362 0
M  V30 462 H 42.4049 0.593149 0.576284 0
M  V30 463 H 44.9509 1.61246 0.528948 0
M  V30 464 H 43.7229 3.60109 1.53092 0
M  V30 465 H 43.3459 2.6539 2.96064 0
M  V30 466 N 44.343 -0.763751 1.37857 0
M  V30 467 C 45.759 -1.06542 1.18832 0
M  V30 468 C 45.959 -2.01478 0.0299722 0
M  V30 469 O 45.015 -2.4458 -0.627447 0
M  V30 470 C 46.328 -1.65525 2.51042 0
M  V30 471 C 47.876 -1.77745 2.57635 0
M  V30 472 C 48.351 -2.4014 3.89996 0
M  V30 473 N 49.842 -2.47582 3.91481 0
M  V30 474 C 50.577 -2.96732 4.9065 0
M  V30 475 N 50.073 -3.45993 6.00217 0
M  V30 476 N 51.866 -2.95679 4.78048 0
M  V30 477 H 44.017 -0.133556 2.1198 0
M  V30 478 H 46.28 -0.121879 0.940133 0
M  V30 479 H 45.986 -1.03236 3.36207 0
M  V30 480 H 45.86 -2.64719 2.68707 0
M  V30 481 H 48.247 -2.39164 1.72872 0
M  V30 482 H 48.328 -0.772836 2.43846 0
M  V30 483 H 47.972 -1.79358 4.75177 0
M  V30 484 H 47.902 -3.41223 4.01092 0
M  V30 485 H 50.393 -2.1273 3.12337 0
M  V30 486 H 50.706 -3.81922 6.7183 0
M  V30 487 H 49.051 -3.44077 6.03851 0
M  V30 488 H 52.242 -2.56499 3.91568 0
M  V30 489 H 52.415 -3.33672 5.55488 0
M  V30 490 N 45.8211 -1.22559 -0.990812 0
M  V30 491 C 47.2321 -1.04791 -1.54518 0
M  V30 492 C 47.5831 0.387998 -1.92325 0
M  V30 493 O 46.7081 1.27328 -1.74976 0
M  V30 494 C 47.3031 -1.896 -2.80779 0
M  V30 495 C 45.8621 -1.76124 -3.32652 0
M  V30 496 C 45.0091 -1.8594 -2.05722 0
M  V30 497 H 47.9601 -1.36374 -0.811662 0
M  V30 498 H 47.9811 -1.41464 -3.53225 0
M  V30 499 H 47.4931 -2.94101 -2.53231 0
M  V30 500 H 45.5941 -0.743643 -3.65104 0
M  V30 501 H 45.7071 -2.58913 -4.03114 0
M  V30 502 H 44.0711 -1.29403 -2.19379 0
M  V30 503 H 44.8541 -2.91976 -1.80568 0
M  V30 504 N 47.2992 1.18797 -1.03562 0
M  V30 505 C 48.2492 2.20161 -0.592724 0
M  V30 506 C 49.2332 1.56772 0.362133 0
M  V30 507 O 50.4252 1.76062 0.182009 0
M  V30 508 C 47.5542 3.43266 0.0481024 0
M  V30 509 C 46.6402 4.13786 -0.9296 0
M  V30 510 N 47.0312 4.60388 -2.09467 0
M  V30 511 C 45.3292 4.39572 -0.754499 0
M  V30 512 C 46.0302 5.14619 -2.71187 0
M  V30 513 N 45.0062 5.05826 -1.991 0
M  V30 514 H 48.8082 2.53877 -1.48066 0
M  V30 515 H 46.3222 1.34946 -0.903514 0
M  V30 516 H 48.3192 4.15136 0.383058 0
M  V30 517 H 46.9792 3.11048 0.931636 0
M  V30 518 H 47.9902 4.54999 -2.47379 0
M  V30 519 H 44.6672 4.17425 0.0793713 0
M  V30 520 H 46.0572 5.60917 -3.69895 0
M  V30 521 N 48.7773 0.814389 1.34928 0
M  V30 522 C 50.0073 0.41054 2.0248 0
M  V30 523 C 50.4153 -0.985625 1.61499 0
M  V30 524 O 49.7583 -1.64781 0.811976 0
M  V30 525 C 49.8203 0.423384 3.56998 0
M  V30 526 C 49.4843 1.77141 4.21272 0
M  V30 527 C 50.4813 2.73093 4.42398 0
M  V30 528 C 48.1663 2.05755 4.58225 0
M  V30 529 C 50.1603 3.95838 4.9959 0
M  V30 530 C 47.8473 3.28762 5.1513 0
M  V30 531 C 48.8453 4.23621 5.35755 0
M  V30 532 O 48.5333 5.44456 5.91458 0
M  V30 533 H 48.2653 0.163997 0.655806 0
M  V30 534 H 50.8193 1.10155 1.73364 0
M  V30 535 H 49.0493 -0.324276 3.85338 0
M  V30 536 H 50.7383 0.0407683 4.0588 0
M  V30 537 H 51.5043 2.5228 4.14222 0
M  V30 538 H 47.3833 1.32727 4.4148 0
M  V30 539 H 50.9273 4.69891 5.15605 0
M  V30 540 H 46.8243 3.49443 5.42734 0
M  V30 541 H 47.5923 5.4586 6.09901 0
M  V30 542 N 50.2554 -1.46986 0.568584 0
M  V30 543 C 51.2034 -2.31858 -0.185649 0
M  V30 544 C 52.1974 -1.43624 -0.898249 0
M  V30 545 O 53.4034 -1.60327 -0.818242 0
M  V30 546 H 49.7784 -0.747866 -0.0787399 0
M  V30 547 H 51.7494 -2.93303 0.549191 0
M  V30 548 C 50.4984 -3.26513 -1.19519 0
M  V30 549 H 49.8214 -3.94377 -0.656285 0
M  V30 550 H 51.2614 -3.88707 -1.6936 0
M  V30 551 C 49.7204 -2.50847 -2.24894 0
M  V30 552 O 50.2504 -2.26119 -3.32014 0
M  V30 553 N 48.4564 -2.11656 -1.99124 0
M  V30 554 H 48.0034 -2.31966 -1.12024 0
M  V30 555 H 47.9614 -1.61347 -2.69842 0
M  V30 556 N 51.7335 -0.305618 -1.54608 0
M  V30 557 C 52.9635 0.304333 -2.04346 0
M  V30 558 C 53.3715 1.47715 -1.18224 0
M  V30 559 O 52.7145 1.82591 -0.201577 0
M  V30 560 C 52.7765 0.819031 -3.50046 0
M  V30 561 C 52.4405 -0.22912 -4.56425 0
M  V30 562 C 53.4375 -1.05914 -5.08997 0
M  V30 563 C 51.1225 -0.372148 -5.0092 0
M  V30 564 C 53.1165 -2.01809 -6.04609 0
M  V30 565 C 50.8035 -1.33454 -5.9635 0
M  V30 566 C 51.8015 -2.15599 -6.48079 0
M  V30 567 O 51.4895 -3.10205 -7.41639 0
M  V30 568 H 51.2215 0.0693996 -0.672428 0
M  V30 569 H 53.7755 -0.444548 -2.00532 0
M  V30 570 H 52.0055 1.61852 -3.51199 0
M  V30 571 H 53.6945 1.34537 -3.82955 0
M  V30 572 H 54.4605 -0.959538 -4.75413 0
M  V30 573 H 50.3395 0.257304 -4.60281 0
M  V30 574 H 53.8835 -2.65966 -6.44909 0
M  V30 575 H 49.7805 -1.43485 -6.29351 0
M  V30 576 H 50.5485 -3.05237 -7.59455 0
M  V30 577 N 53.2116 1.57565 -0.0334293 0
M  V30 578 C 54.4416 1.95996 0.653398 0
M  V30 579 C 54.8496 0.908749 1.65947 0
M  V30 580 O 54.1926 -0.117471 1.83324 0
M  V30 581 C 54.2546 3.30589 1.41249 0
M  V30 582 C 53.9186 4.53503 0.564263 0
M  V30 583 C 54.9156 5.19647 -0.16225 0
M  V30 584 C 52.6006 4.99801 0.500398 0
M  V30 585 C 54.5946 6.30412 -0.941255 0
M  V30 586 C 52.2816 6.10448 -0.282308 0
M  V30 587 C 53.2796 6.75612 -1.00184 0
M  V30 588 O 52.9676 7.84134 -1.77171 0
M  V30 589 H 52.6996 0.65027 0.184728 0
M  V30 590 H 55.2536 2.05199 -0.0907841 0
M  V30 591 H 53.4836 3.17888 2.20191 0
M  V30 592 H 55.1726 3.53892 1.98784 0
M  V30 593 H 55.9386 4.84846 -0.12227 0
M  V30 594 H 51.8176 4.48883 1.05002 0
M  V30 595 H 55.3616 6.81208 -1.50339 0
M  V30 596 H 51.2586 6.44686 -0.323989 0
M  V30 597 H 52.0266 8.00822 -1.69194 0
M  V30 598 N 54.6897 -0.239769 1.55765 0
M  V30 599 C 55.6527 -1.28038 1.90103 0
M  V30 600 C 56.6527 -1.40723 0.778055 0
M  V30 601 O 57.8427 -1.39301 1.04599 0
M  V30 602 C 54.9747 -2.65702 2.13577 0
M  V30 603 H 56.1677 -0.988048 2.83157 0
M  V30 604 H 53.7207 -0.479382 1.48767 0
M  V30 605 H 54.4557 -3.00063 1.23015 0
M  V30 606 H 54.2407 -2.57875 2.95369 0
M  V30 607 H 55.7307 -3.40828 2.41301 0
M  V30 608 N 56.1678 -1.49265 -0.50573 0
M  V30 609 C 57.3958 -1.62215 -1.28429 0
M  V30 610 C 57.8108 -0.291697 -1.86533 0
M  V30 611 O 57.1678 0.722233 -1.67601 0
M  V30 612 C 57.2188 -2.68735 -2.41793 0
M  V30 613 O 56.9398 -3.96619 -1.86078 0
M  V30 614 C 58.4408 -2.92346 -3.3324 0
M  V30 615 H 55.6608 -0.546239 -0.389697 0
M  V30 616 H 58.2048 -1.95265 -0.607609 0
M  V30 617 H 56.3598 -2.38476 -3.053 0
M  V30 618 H 56.7738 -4.55256 -2.60465 0
M  V30 619 H 58.2478 -3.70623 -4.09075 0
M  V30 620 H 58.7248 -2.02081 -3.89948 0
M  V30 621 H 59.3308 -3.24003 -2.75503 0
M  V30 622 N 57.6459 0.756429 -1.3826 0
M  V30 623 C 58.5759 1.88374 -1.37976 0
M  V30 624 C 59.5569 1.68311 -0.246082 0
M  V30 625 O 60.7419 1.88944 -0.44874 0
M  V30 626 C 57.8719 3.25864 -1.20125 0
M  V30 627 C 56.8259 3.60523 -2.30666 0
M  V30 628 C 56.1519 4.9672 -1.97923 0
M  V30 629 C 57.4519 3.65692 -3.72916 0
M  V30 630 H 59.1459 1.88869 -2.32312 0
M  V30 631 H 56.6919 0.907272 -1.11824 0
M  V30 632 H 58.6449 4.0438 -1.18552 0
M  V30 633 H 57.3689 3.25841 -0.222498 0
M  V30 634 H 56.0279 2.84324 -2.3142 0
M  V30 635 H 55.6759 4.93253 -0.985393 0
M  V30 636 H 55.3759 5.20878 -2.71955 0
M  V30 637 H 56.8999 5.77618 -1.97964 0
M  V30 638 H 58.3139 4.34328 -3.74208 0
M  V30 639 H 56.7109 4.01358 -4.4613 0
M  V30 640 H 57.7809 2.65987 -4.05436 0
M  V30 641 N 59.124 1.23083 0.984299 0
M  V30 642 C 60.054 1.03292 2.09411 0
M  V30 643 C 61.035 -0.048923 1.7003 0
M  V30 644 O 62.22 0.114967 1.93859 0
M  V30 645 C 59.35 0.619155 3.41736 0
M  V30 646 C 58.304 1.64791 3.95004 0
M  V30 647 C 57.63 1.0897 5.23478 0
M  V30 648 C 58.93 3.03999 4.24714 0
M  V30 649 H 60.624 1.96119 2.26225 0
M  V30 650 H 58.17 0.944344 1.08711 0
M  V30 651 H 60.123 0.467777 4.18796 0
M  V30 652 H 58.847 -0.344786 3.24775 0
M  V30 653 H 57.506 1.78721 3.20085 0
M  V30 654 H 57.154 0.11686 5.02864 0
M  V30 655 H 56.854 1.77704 5.60085 0
M  V30 656 H 58.378 0.950093 6.03163 0
M  V30 657 H 59.792 2.93393 4.92538 0
M  V30 658 H 58.189 3.69936 4.72512 0
M  V30 659 H 59.259 3.53285 3.32142 0
M  V30 660 N 60.6021 -1.18246 1.0419 0
M  V30 661 C 61.8301 -1.92195 0.766072 0
M  V30 662 C 62.2451 -1.76247 -0.676933 0
M  V30 663 O 61.6021 -1.09293 -1.46155 0
M  V30 664 C 61.6531 -3.43568 1.12442 0
M  V30 665 O 61.3741 -3.59015 2.51078 0
M  V30 666 C 62.8751 -4.34613 0.873275 0
M  V30 667 H 60.0951 -0.610114 0.279288 0
M  V30 668 H 62.6391 -1.50007 1.38989 0
M  V30 669 H 60.7941 -3.8354 0.545542 0
M  V30 670 H 61.2081 -4.5273 2.64831 0
M  V30 671 H 62.6821 -5.39374 1.17385 0
M  V30 672 H 63.1591 -4.38781 -0.191909 0
M  V30 673 H 63.7651 -4.00341 1.43551 0
M  V30 674 N 62.0802 -0.821533 -1.34494 0
M  V30 675 C 63.0102 -0.257138 -2.3208 0
M  V30 676 C 63.9912 0.625645 -1.58176 0
M  V30 677 O 65.1762 0.552811 -1.86166 0
M  V30 678 C 62.3062 0.582958 -3.42372 0
M  V30 679 C 61.2602 -0.202571 -4.2752 0
M  V30 680 C 60.5862 0.760179 -5.29269 0
M  V30 681 C 61.8862 -1.40998 -5.02908 0
M  V30 682 H 63.5802 -1.07247 -2.79532 0
M  V30 683 H 61.1262 -0.517163 -1.34393 0
M  V30 684 H 63.0792 0.987972 -4.09655 0
M  V30 685 H 61.8032 1.43133 -2.93565 0
M  V30 686 H 60.4622 -0.588936 -3.61838 0
M  V30 687 H 60.1102 1.60447 -4.76724 0
M  V30 688 H 59.8102 0.238809 -5.87115 0
M  V30 689 H 61.3342 1.16308 -5.9942 0
M  V30 690 H 62.7482 -1.07905 -5.63054 0
M  V30 691 H 61.1452 -1.86689 -5.70322 0
M  V30 692 H 62.2152 -2.1889 -4.32684 0
M  V30 693 N 63.5583 1.46682 -0.576371 0
M  V30 694 C 64.4883 2.33028 0.148397 0
M  V30 695 C 65.4693 1.44961 0.889956 0
M  V30 696 O 66.6543 1.73789 0.866662 0
M  V30 697 C 63.7843 3.27117 1.1667 0
M  V30 698 C 62.7383 4.24575 0.540386 0
M  V30 699 C 62.0643 5.08126 1.6647 0
M  V30 700 C 63.3643 5.19722 -0.518331 0
M  V30 701 H 65.0583 2.93875 -0.572509 0
M  V30 702 H 62.6043 1.41315 -0.276768 0
M  V30 703 H 64.5573 3.86374 1.68204 0
M  V30 704 H 63.2813 2.64364 1.9178 0
M  V30 705 H 61.9403 3.66571 0.0461769 0
M  V30 706 H 61.5883 4.41762 2.40531 0
M  V30 707 H 61.2883 5.74122 1.25131 0
M  V30 708 H 62.8123 5.70246 2.18293 0
M  V30 709 H 64.2263 5.73232 -0.0883058 0
M  V30 710 H 62.6233 5.94026 -0.851679 0
M  V30 711 H 63.6933 4.64037 -1.40703 0
M  V30 712 N 65.0364 0.313813 1.54444 0
M  V30 713 C 66.2854 -0.292519 1.99568 0
M  V30 714 C 66.5984 -1.54011 1.20582 0
M  V30 715 O 67.8044 -2.22183 1.56035 0
M  V30 716 C 66.2604 -0.571752 3.55329 0
M  V30 717 C 65.8684 0.658229 4.43138 0
M  V30 718 C 67.6124 -1.13857 4.08946 0
M  V30 719 C 65.5194 0.351439 5.90355 0
M  V30 720 H 64.4494 -0.113079 0.745472 0
M  V30 721 H 67.1004 0.424518 1.78522 0
M  V30 722 H 65.4824 -1.34872 3.72325 0
M  V30 723 H 66.6564 1.43403 4.37918 0
M  V30 724 H 64.9714 1.14458 4.0036 0
M  V30 725 H 67.5684 -1.38257 5.16516 0
M  V30 726 H 67.9114 -2.08489 3.6033 0
M  V30 727 H 68.4444 -0.423015 3.95544 0
M  V30 728 H 65.1834 1.26667 6.43145 0
M  V30 729 H 64.7034 -0.386842 5.98551 0
M  V30 730 H 66.3824 -0.0423134 6.46986 0
M  V30 731 N 66.5145 -1.57545 0.0417849 0
M  V30 732 C 67.4775 -2.09885 -0.92093 0
M  V30 733 C 68.4775 -1.01648 -1.24596 0
M  V30 734 O 69.6675 -1.27759 -1.1842 0
M  V30 735 C 66.7995 -2.57527 -2.23367 0
M  V30 736 H 67.9925 -2.96236 -0.467382 0
M  V30 737 H 65.5455 -1.5493 -0.206467 0
M  V30 738 H 66.2805 -1.74542 -2.73323 0
M  V30 739 H 66.0655 -3.36613 -2.01083 0
M  V30 740 H 67.5555 -2.98201 -2.92346 0
M  V30 741 N 67.9926 0.231505 -1.5589 0
M  V30 742 C 69.2386 0.95877 -1.78705 0
M  V30 743 C 69.5716 1.8438 -0.609725 0
M  V30 744 O 68.8466 1.90521 0.391426 0
M  V30 745 C 69.1296 1.8062 -3.11526 0
M  V30 746 C 68.9826 0.948328 -4.39689 0
M  V30 747 C 70.3016 2.78585 -3.40703 0
M  V30 748 H 67.4206 0.347129 -0.650131 0
M  V30 749 H 70.0626 0.228259 -1.88624 0
M  V30 750 H 68.2126 2.42902 -3.03201 0
M  V30 751 H 69.8846 0.343016 -4.60023 0
M  V30 752 H 68.1276 0.253314 -4.3306 0
M  V30 753 H 68.7986 1.57543 -5.29041 0
M  V30 754 H 71.2746 2.26439 -3.49091 0
M  V30 755 H 70.1506 3.34988 -4.34826 0
M  V30 756 H 70.4116 3.55825 -2.62375 0
M  V30 757 N 69.4707 1.49531 0.497807 0
M  V30 758 C 70.7197 1.58426 1.24837 0
M  V30 759 C 71.0327 0.277643 1.93619 0
M  V30 760 O 72.2387 0.24517 2.70391 0
M  V30 761 C 70.6947 2.79538 2.26686 0
M  V30 762 C 70.3027 4.16971 1.63828 0
M  V30 763 C 72.0467 2.97764 3.0255 0
M  V30 764 C 69.9537 5.29301 2.63807 0
M  V30 765 H 68.8837 0.58989 0.469623 0
M  V30 766 H 71.5347 1.75923 0.521857 0
M  V30 767 H 69.9167 2.55542 3.02514 0
M  V30 768 H 71.0907 4.51116 0.939711 0
M  V30 769 H 69.4057 4.04129 1.00342 0
M  V30 770 H 72.0027 3.78856 3.77323 0
M  V30 771 H 72.3457 2.08448 3.60354 0
M  V30 772 H 72.8787 3.21815 2.33838 0
M  V30 773 H 69.6177 6.20687 2.10779 0
M  V30 774 H 69.1377 4.99606 3.31894 0
M  V30 775 H 70.8167 5.58768 3.2617 0
M  V30 776 N 70.9488 -0.749086 1.3866 0
M  V30 777 C 72.1948 -1.51056 1.35314 0
M  V30 778 C 72.5278 -1.94121 -0.0553751 0
M  V30 779 O 71.8028 -1.65763 -1.01749 0
M  V30 780 C 72.0858 -2.76003 2.31288 0
M  V30 781 C 71.9388 -2.39047 3.8102 0
M  V30 782 C 73.2578 -3.78046 2.2532 0
M  V30 783 H 70.3768 -0.547972 0.492844 0
M  V30 784 H 73.0188 -0.857628 1.69543 0
M  V30 785 H 71.1688 -3.31716 2.02229 0
M  V30 786 H 72.8408 -1.89074 4.20771 0
M  V30 787 H 71.0838 -1.71449 3.98482 0
M  V30 788 H 71.7548 -3.28462 4.4364 0
M  V30 789 H 74.2308 -3.31884 2.50983 0
M  V30 790 H 73.1068 -4.63159 2.94576 0
M  V30 791 H 73.3678 -4.23957 1.25352 0
M  V30 792 N 72.4269 -1.23603 -0.977757 0
M  V30 793 C 73.6739 -1.06971 -1.71941 0
M  V30 794 C 74.0019 0.393009 -1.90488 0
M  V30 795 O 73.2569 1.30719 -1.4564 0
M  V30 796 C 73.5559 -1.7433 -3.11999 0
M  V30 797 C 73.2219 -3.24252 -3.13323 0
M  V30 798 C 71.8839 -3.65156 -3.13392 0
M  V30 799 C 74.2359 -4.20141 -3.08433 0
M  V30 800 C 71.5639 -5.00403 -3.0629 0
M  V30 801 C 73.9159 -5.55384 -3.02873 0
M  V30 802 C 72.5799 -5.95647 -3.01265 0
M  V30 803 H 71.8499 -0.391433 -0.629175 0
M  V30 804 H 74.4969 -1.53572 -1.14403 0
M  V30 805 H 72.8019 -1.20096 -3.7294 0
M  V30 806 H 74.4989 -1.58936 -3.68158 0
M  V30 807 H 71.0889 -2.91692 -3.14029 0
M  V30 808 H 75.2729 -3.89547 -3.07517 0
M  V30 809 H 70.5289 -5.3081 -3.03399 0
M  V30 810 H 74.7029 -6.29398 -2.98046 0
M  V30 811 H 72.3299 -7.0041 -2.95516 0
M  V30 812 N 73.905 1.17692 -1.04816 0
M  V30 813 C 75.153 1.87488 -0.754497 0
M  V30 814 C 75.474 1.81205 0.720407 0
M  V30 815 O 74.744 1.23544 1.52032 0
M  V30 816 H 73.324 0.694101 -0.276102 0
M  V30 817 H 75.986 1.42793 -1.32651 0
M  V30 818 H 75.082 2.93328 -1.06606 0
M  V30 819 N 75.3831 0.828654 1.34056 0
M  V30 820 C 76.3311 0.242973 2.31327 0
M  V30 821 C 77.3251 -0.61944 1.57668 0
M  V30 822 O 78.5311 -0.51014 1.7262 0
M  V30 823 H 74.9061 0.059834 0.749616 0
M  V30 824 H 76.8771 1.07809 2.78244 0
M  V30 825 C 75.6261 -0.575733 3.429 0
M  V30 826 H 74.9491 0.0785582 3.99723 0
M  V30 827 H 76.3891 -0.951547 4.13185 0
M  V30 828 C 74.8481 -1.75044 2.87856 0
M  V30 829 O 75.3781 -2.84882 2.83205 0
M  V30 830 N 73.5841 -1.56903 2.44602 0
M  V30 831 H 73.1311 -0.675547 2.48584 0
M  V30 832 H 73.0891 -2.35652 2.08124 0
M  V30 833 N 76.8612 -1.46375 0.584142 0
M  V30 834 C 78.1072 -2.02678 0.0703716 0
M  V30 835 C 78.4402 -1.4545 -1.28678 0
M  V30 836 O 77.7152 -0.62014 -1.84349 0
M  V30 837 C 77.9982 -3.60099 0.00614674 0
M  V30 838 C 77.8512 -4.27709 1.3923 0
M  V30 839 C 79.1702 -4.34598 -0.693742 0
M  V30 840 H 76.2892 -0.736504 0.027047 0
M  V30 841 H 78.9312 -1.74501 0.751615 0
M  V30 842 H 77.0812 -3.84236 -0.574009 0
M  V30 843 H 78.7532 -4.14832 2.01773 0
M  V30 844 H 76.9962 -3.87016 1.95962 0
M  V30 845 H 77.6672 -5.36478 1.29982 0
M  V30 846 H 80.1432 -4.15615 -0.200869 0
M  V30 847 H 79.0192 -5.44318 -0.707714 0
M  V30 848 H 79.2802 -4.05759 -1.75533 0
M  V30 849 N 78.3393 -0.321999 -1.54275 0
M  V30 850 C 79.2693 0.537411 -2.27231 0
M  V30 851 C 80.2503 1.12064 -1.27968 0
M  V30 852 O 81.4353 1.14606 -1.56777 0
M  V30 853 C 78.5653 1.69919 -3.02894 0
M  V30 854 C 77.5193 1.24534 -4.09482 0
M  V30 855 C 76.8453 2.49394 -4.72977 0
M  V30 856 C 78.1453 0.361335 -5.21049 0
M  V30 857 H 79.8393 -0.0711406 -2.99315 0
M  V30 858 H 77.3853 -0.0356555 -1.43956 0
M  V30 859 H 79.3383 2.30668 -3.52662 0
M  V30 860 H 78.0623 2.33431 -2.28424 0
M  V30 861 H 76.7213 0.660782 -3.60596 0
M  V30 862 H 76.3693 3.11265 -3.95124 0
M  V30 863 H 76.0693 2.19718 -5.44975 0
M  V30 864 H 77.5933 3.10908 -5.25517 0
M  V30 865 H 79.0073 0.875072 -5.66582 0
M  V30 866 H 77.4043 0.157428 -5.99893 0
M  V30 867 H 78.4743 -0.60822 -4.8107 0
M  V30 868 N 79.8174 1.5752 -0.0501392 0
M  V30 869 C 81.0634 1.92936 0.624798 0
M  V30 870 C 81.3964 0.928685 1.70555 0
M  V30 871 O 80.6714 -0.0454779 1.94447 0
M  V30 872 C 80.9544 3.38737 1.22185 0
M  V30 873 C 80.8074 4.49552 0.149218 0
M  V30 874 C 82.1264 3.84913 2.13378 0
M  V30 875 H 79.2454 0.701604 0.225657 0
M  V30 876 H 81.8874 1.89671 -0.111693 0
M  V30 877 H 80.0374 3.4165 1.84953 0
M  V30 878 H 81.7094 4.58768 -0.482648 0
M  V30 879 H 79.9524 4.30638 -0.522841 0
M  V30 880 H 80.6234 5.48653 0.606966 0
M  V30 881 H 83.0994 3.8387 1.60572 0
M  V30 882 H 81.9754 4.87584 2.52097 0
M  V30 883 H 82.2364 3.21611 3.03346 0
M  V30 884 N 81.2955 -0.223234 1.56011 0
M  V30 885 C 82.5355 -0.954962 1.8072 0
M  V30 886 C 82.8995 -1.81598 0.623384 0
M  V30 887 O 84.1005 -2.58132 0.749745 0
M  V30 888 C 82.3715 -1.77313 3.10314 0
M  V30 889 S 83.9305 -2.56073 3.56332 0
M  V30 890 H 80.7485 -0.320812 0.634508 0
M  V30 891 H 83.3505 -0.220686 1.9425 0
M  V30 892 H 82.0545 -1.13071 3.94516 0
M  V30 893 H 81.5855 -2.54974 2.99586 0
M  V30 894 H 83.6005 -3.79619 3.19536 0
M  V30 895 N 82.7736 -1.49793 -0.48987 0
M  V30 896 C 83.7066 -1.61898 -1.60823 0
M  V30 897 C 84.6846 -0.467651 -1.5573 0
M  V30 898 O 85.8686 -0.684682 -1.75626 0
M  V30 899 C 82.9956 -1.58422 -2.99366 0
M  V30 900 C 82.0416 -2.78889 -3.22682 0
M  V30 901 S 82.8746 -4.40429 -3.04602 0
M  V30 902 C 84.0306 -4.39617 -4.4552 0
M  V30 903 H 84.2636 -2.56502 -1.50312 0
M  V30 904 H 81.7966 -1.38822 -0.675849 0
M  V30 905 H 83.7546 -1.57103 -3.79248 0
M  V30 906 H 82.4156 -0.650866 -3.07283 0
M  V30 907 H 81.6086 -2.72708 -4.23847 0
M  V30 908 H 81.2106 -2.77678 -2.50541 0
M  V30 909 H 83.5026 -4.12022 -5.37814 0
M  V30 910 H 84.4456 -5.41097 -4.56749 0
M  V30 911 H 84.8536 -3.69554 -4.2672 0
M  V30 912 N 84.2517 0.741722 -1.39055 0
M  V30 913 C 85.2147 1.83733 -1.37021 0
M  V30 914 C 86.2147 1.58542 -0.268534 0
M  V30 915 O 87.4047 1.66067 -0.526076 0
M  V30 916 C 84.5367 3.2141 -1.13617 0
M  V30 917 H 85.7297 1.86941 -2.34506 0
M  V30 918 H 83.2827 0.944676 -1.24521 0
M  V30 919 H 84.0177 3.23865 -0.167863 0
M  V30 920 H 83.8027 3.4109 -1.93391 0
M  V30 921 H 85.2927 4.01477 -1.14918 0
M  V30 922 N 85.7298 1.2412 0.971189 0
M  V30 923 C 86.9758 1.08041 1.71625 0
M  V30 924 C 87.3088 -0.380407 1.90438 0
M  V30 925 O 86.5838 -1.28127 1.46334 0
M  V30 926 C 86.8668 1.81682 3.10908 0
M  V30 927 C 86.7198 3.35493 2.99608 0
M  V30 928 C 88.0388 1.58671 4.10501 0
M  V30 929 H 85.1578 0.39388 0.622919 0
M  V30 930 H 87.7998 1.52743 1.13003 0
M  V30 931 H 85.9498 1.43684 3.60953 0
M  V30 932 H 87.6218 3.83068 2.57015 0
M  V30 933 H 85.8648 3.64052 2.35899 0
M  V30 934 H 86.5358 3.82217 3.98264 0
M  V30 935 H 89.0118 1.91719 3.69301 0
M  V30 936 H 87.8878 2.1266 5.06031 0
M  V30 937 H 88.1488 0.524161 4.38982 0
M  V30 938 N 87.2079 -1.17134 1.05439 0
M  V30 939 C 88.4329 -1.91913 0.786396 0
M  V30 940 C 88.8579 -1.7643 -0.652234 0
M  V30 941 O 88.2159 -1.08372 -1.45345 0
M  V30 942 C 88.2639 -3.40921 1.17497 0
M  V30 943 O 87.3679 -4.11244 0.308589 0
M  V30 944 H 86.7089 -0.598215 0.288158 0
M  V30 945 H 89.2389 -1.48457 1.4079 0
M  V30 946 H 89.2489 -3.91668 1.14281 0
M  V30 947 H 87.9239 -3.5151 2.22292 0
M  V30 948 H 86.5009 -3.70731 0.40157 0
M  V30 949 N 88.686 -0.835752 -1.33615 0
M  V30 950 C 90.102 -0.523139 -1.50783 0
M  V30 951 C 90.302 0.950171 -1.77691 0
M  V30 952 O 89.358 1.73411 -1.83534 0
M  V30 953 C 90.671 -1.39378 -2.66448 0
M  V30 954 C 92.219 -1.39223 -2.80332 0
M  V30 955 C 92.694 -2.24765 -3.99055 0
M  V30 956 N 94.185 -2.22458 -4.06284 0
M  V30 957 C 94.92 -2.85386 -4.97336 0
M  V30 958 N 94.416 -3.57354 -5.93523 0
M  V30 959 N 96.209 -2.74872 -4.90308 0
M  V30 960 H 88.36 -1.78952 -1.14411 0
M  V30 961 H 90.623 -0.763297 -0.562212 0
M  V30 962 H 90.329 -2.44061 -2.53234 0
M  V30 963 H 90.203 -1.0676 -3.61776 0
M  V30 964 H 92.59 -0.353136 -2.92979 0
M  V30 965 H 92.671 -1.75846 -1.85773 0
M  V30 966 H 92.315 -3.28732 -3.87167 0
M  V30 967 H 92.245 -1.85485 -4.92852 0
M  V30 968 H 94.736 -1.70119 -3.37443 0
M  V30 969 H 95.049 -4.02584 -6.59656 0
M  V30 970 H 93.394 -3.61461 -5.93608 0
M  V30 971 H 96.585 -2.18213 -4.14126 0
M  V30 972 H 96.758 -3.24199 -5.61069 0
M  V30 973 N 90.1641 1.46063 -0.591896 0
M  V30 974 C 91.0741 2.34192 0.13831 0
M  V30 975 C 92.0901 1.50305 0.876608 0
M  V30 976 O 93.2661 1.8315 0.837728 0
M  V30 977 C 90.3311 3.27656 1.13326 0
M  V30 978 C 89.3921 4.27445 0.39863 0
M  V30 979 C 88.6251 5.16443 1.34618 0
M  V30 980 O 88.8481 5.08553 2.58321 0
M  V30 981 O 87.7821 5.95843 0.851768 0
M  V30 982 H 91.6081 2.98002 -0.58552 0
M  V30 983 H 89.1931 1.45188 -0.352239 0
M  V30 984 H 91.0751 3.85291 1.70671 0
M  V30 985 H 89.7501 2.6643 1.83839 0
M  V30 986 H 88.6571 3.73471 -0.216895 0
M  V30 987 H 89.9901 4.91482 -0.265709 0
M  V30 988 N 91.6422 0.330177 1.54103 0
M  V30 989 C 92.5892 -0.532762 2.24567 0
M  V30 990 C 93.5592 -1.10635 1.23892 0
M  V30 991 O 94.7442 -1.14546 1.5259 0
M  V30 992 C 91.8842 -1.6845 3.01195 0
M  V30 993 C 90.9972 -1.13951 4.167 0
M  V30 994 C 90.1322 -2.25746 4.80845 0
M  V30 995 C 89.1712 -1.6853 5.88442 0
M  V30 996 N 88.3082 -2.74014 6.46421 0
M  V30 997 H 93.1482 0.0746905 2.97906 0
M  V30 998 H 90.6852 0.048632 1.4702 0
M  V30 999 H 92.6432 -2.36234 3.43874 0
M  V30 1000 H 91.2732 -2.26314 2.30178 0
M  V30 1001 H 90.3252 -0.35301 3.78758 0
M  V30 1002 H 91.6372 -0.680892 4.94131 0
M  V30 1003 H 90.7912 -3.01422 5.26526 0
M  V30 1004 H 89.5302 -2.74947 4.0281 0
M  V30 1005 H 88.5352 -0.913543 5.42157 0
M  V30 1006 H 89.7602 -1.20198 6.68378 0
M  V30 1007 H 87.7062 -3.22494 5.71256 0
M  V30 1008 H 87.6232 -2.32735 7.19285 0
M  V30 1009 H 88.8912 -3.49499 6.96757 0
M  V30 1010 N 93.1203 -1.57491 0.0584922 0
M  V30 1011 C 94.0833 -2.1085 -0.898617 0
M  V30 1012 C 95.0833 -1.02964 -1.23511 0
M  V30 1013 O 96.2733 -1.29007 -1.17059 0
M  V30 1014 C 93.4053 -2.59881 -2.20623 0
M  V30 1015 H 94.5983 -2.96715 -0.435936 0
M  V30 1016 H 92.1513 -1.55141 -0.190023 0
M  V30 1017 H 92.8863 -1.77431 -2.71457 0
M  V30 1018 H 92.6713 -3.38727 -1.97501 0
M  V30 1019 H 94.1613 -3.01285 -2.89166 0
M  V30 1020 N 94.5984 0.214957 -1.56127 0
M  V30 1021 C 95.5284 1.2695 -1.95974 0
M  V30 1022 C 96.5094 1.48539 -0.828868 0
M  V30 1023 O 97.6944 1.60611 -1.09168 0
M  V30 1024 C 94.8244 2.61794 -2.28214 0
M  V30 1025 C 93.7784 2.54851 -3.43853 0
M  V30 1026 C 93.1044 3.93785 -3.61715 0
M  V30 1027 C 94.4044 2.09065 -4.78632 0
M  V30 1028 H 96.0984 0.93846 -2.84312 0
M  V30 1029 H 93.6444 0.449996 -1.36788 0
M  V30 1030 H 95.5974 3.35731 -2.54682 0
M  V30 1031 H 94.3214 2.96599 -1.36736 0
M  V30 1032 H 92.9804 1.8337 -3.17444 0
M  V30 1033 H 92.6284 4.25908 -2.67602 0
M  V30 1034 H 92.3284 3.90019 -4.39498 0
M  V30 1035 H 93.8524 4.69374 -3.90539 0
M  V30 1036 H 95.2664 2.7275 -5.04262 0
M  V30 1037 H 93.6634 2.16346 -5.59745 0
M  V30 1038 H 94.7334 1.04315 -4.73547 0
M  V30 1039 N 96.0765 1.50051 0.48192 0
M  V30 1040 C 97.0085 1.64263 1.59844 0
M  V30 1041 C 98.0215 0.52451 1.54119 0
M  V30 1042 O 99.2105 0.797293 1.59704 0
M  V30 1043 C 96.3105 1.60102 2.98698 0
M  V30 1044 C 95.4835 2.87767 3.29407 0
M  V30 1045 C 94.5425 2.76397 4.47762 0
M  V30 1046 O 93.5685 3.50348 4.48603 0
M  V30 1047 N 94.7705 1.89222 5.48794 0
M  V30 1048 H 97.5355 2.60566 1.48073 0
M  V30 1049 H 95.0965 1.47379 0.670149 0
M  V30 1050 H 97.0885 1.50123 3.75826 0
M  V30 1051 H 95.6585 0.715798 3.04294 0
M  V30 1052 H 94.8785 3.11954 2.40994 0
M  V30 1053 H 96.1665 3.72365 3.4673 0
M  V30 1054 H 95.5645 1.28434 5.50928 0
M  V30 1055 H 94.1215 1.85154 6.24949 0
M  V30 1056 N 97.5546 -0.734337 1.39446 0
M  V30 1057 C 98.7826 -1.52358 1.39981 0
M  V30 1058 C 99.1976 -1.88799 -0.0054975 0
M  V30 1059 O 98.5546 -1.54146 -0.976998 0
M  V30 1060 C 98.6056 -2.81072 2.27333 0
M  V30 1061 O 98.3266 -2.46178 3.62392 0
M  V30 1062 C 99.8276 -3.75096 2.36259 0
M  V30 1063 H 97.0476 -0.470806 0.478103 0
M  V30 1064 H 99.5916 -0.907339 1.83269 0
M  V30 1065 H 97.7466 -3.39026 1.87457 0
M  V30 1066 H 98.1606 -3.28866 4.08592 0
M  V30 1067 H 99.6346 -4.62305 3.01626 0
M  V30 1068 H 100.112 -4.16892 1.38194 0
M  V30 1069 H 100.718 -3.23061 2.76608 0
M  V30 1070 N 99.0327 -1.24633 -0.964593 0
M  V30 1071 C 100.261 -1.11501 -1.74285 0
M  V30 1072 C 100.676 0.332165 -1.85855 0
M  V30 1073 O 100.033 1.22903 -1.34911 0
M  V30 1074 C 100.084 -1.75258 -3.16175 0
M  V30 1075 O 99.8047 -3.14318 -3.05182 0
M  V30 1076 C 101.306 -1.67776 -4.10324 0
M  V30 1077 H 98.5257 -0.389407 -0.546446 0
M  V30 1078 H 101.07 -1.64801 -1.21083 0
M  V30 1079 H 99.2247 -1.25954 -3.66353 0
M  V30 1080 H 99.6387 -3.4551 -3.94618 0
M  V30 1081 H 101.113 -2.17064 -5.0753 0
M  V30 1082 H 101.59 -0.639584 -4.34518 0
M  V30 1083 H 102.196 -2.16522 -3.66058 0
M  V30 1084 N 100.511 1.16574 -1.06058 0
M  V30 1085 C 101.739 1.90952 -0.796552 0
M  V30 1086 C 102.154 1.77302 0.648808 0
M  V30 1087 O 101.511 1.11605 1.44397 0
M  V30 1088 C 101.562 3.41736 -1.17894 0
M  V30 1089 O 101.283 3.54975 -2.56758 0
M  V30 1090 C 102.784 4.33169 -0.942308 0
M  V30 1091 H 100.004 0.605594 -0.288959 0
M  V30 1092 H 102.548 1.47777 -1.41358 0
M  V30 1093 H 100.703 3.82623 -0.606491 0
M  V30 1094 H 101.117 4.4846 -2.72 0
M  V30 1095 H 102.591 5.37439 -1.25952 0
M  V30 1096 H 103.068 4.3903 0.122078 0
M  V30 1097 H 103.674 3.98007 -1.49902 0
M  V30 1098 N 101.989 0.842826 1.3317 0
M  V30 1099 C 102.937 0.267495 2.31057 0
M  V30 1100 C 103.931 -0.602682 1.58316 0
M  V30 1101 O 105.137 -0.491803 1.73151 0
M  V30 1102 H 101.512 0.0677813 0.748939 0
M  V30 1103 H 103.483 1.10754 2.77085 0
M  V30 1104 C 102.232 -0.539331 3.43492 0
M  V30 1105 H 101.555 0.12095 3.99617 0
M  V30 1106 H 102.995 -0.90767 4.14171 0
M  V30 1107 C 101.454 -1.71981 2.89697 0
M  V30 1108 O 101.984 -2.81862 2.86211 0
M  V30 1109 N 100.19 -1.54299 2.46252 0
M  V30 1110 H 99.7369 -0.649143 2.49287 0
M  V30 1111 H 99.6949 -2.33431 2.10612 0
M  V30 1112 N 103.467 -1.45747 0.599634 0
M  V30 1113 C 104.697 -2.06369 0.0977132 0
M  V30 1114 C 105.105 -1.44624 -1.21985 0
M  V30 1115 O 104.448 -0.551831 -1.75216 0
M  V30 1116 C 104.51 -3.59284 -0.124673 0
M  V30 1117 C 104.174 -4.43318 1.10987 0
M  V30 1118 C 105.171 -4.78796 2.02609 0
M  V30 1119 C 102.856 -4.84194 1.33647 0
M  V30 1120 C 104.85 -5.53997 3.15224 0
M  V30 1121 C 102.537 -5.5915 2.46565 0
M  V30 1122 C 103.535 -5.93968 3.37182 0
M  V30 1123 O 103.223 -6.67405 4.48136 0
M  V30 1124 H 102.955 -0.673122 0.0623153 0
M  V30 1125 H 105.509 -1.88104 0.824981 0
M  V30 1126 H 103.739 -3.75919 -0.906745 0
M  V30 1127 H 105.428 -4.01775 -0.577201 0
M  V30 1128 H 106.194 -4.47781 1.86325 0
M  V30 1129 H 102.073 -4.56534 0.64016 0
M  V30 1130 H 105.617 -5.81091 3.85978 0
M  V30 1131 H 101.514 -5.89579 2.62805 0
M  V30 1132 H 102.282 -6.85847 4.46717 0
M  V30 1133 N 104.945 -0.338344 -1.53925 0
M  V30 1134 C 105.875 0.51328 -2.27789 0
M  V30 1135 C 106.856 1.107 -1.29149 0
M  V30 1136 O 108.041 1.12937 -1.57984 0
M  V30 1137 C 105.171 1.66697 -3.04679 0
M  V30 1138 C 104.125 1.20183 -4.1078 0
M  V30 1139 C 103.451 2.44363 -4.75595 0
M  V30 1140 C 104.751 0.30605 -5.21403 0
M  V30 1141 H 106.445 -0.102883 -2.99223 0
M  V30 1142 H 103.991 -0.0509219 -1.4391 0
M  V30 1143 H 105.944 2.26915 -3.55088 0
M  V30 1144 H 104.668 2.30995 -2.30887 0
M  V30 1145 H 103.327 0.622499 -3.61276 0
M  V30 1146 H 102.975 3.07057 -3.98403 0
M  V30 1147 H 102.675 2.13925 -5.47275 0
M  V30 1148 H 104.199 3.05317 -5.28786 0
M  V30 1149 H 105.613 0.814929 -5.67478 0
M  V30 1150 H 104.01 0.0937929 -6.00027 0
M  V30 1151 H 105.08 -0.65921 -4.80398 0
M  V30 1152 N 106.423 1.57458 -0.0668435 0
M  V30 1153 C 107.672 1.92477 0.602947 0
M  V30 1154 C 107.985 0.948419 1.71068 0
M  V30 1155 O 109.191 1.19124 2.43971 0
M  V30 1156 C 107.647 3.41903 1.12383 0
M  V30 1157 C 107.255 4.47975 0.04737 0
M  V30 1158 C 108.999 3.85931 1.76797 0
M  V30 1159 C 106.906 5.88529 0.582022 0
M  V30 1160 H 105.836 0.718387 0.22899 0
M  V30 1161 H 108.487 1.82978 -0.138276 0
M  V30 1162 H 106.869 3.46459 1.91787 0
M  V30 1163 H 108.043 4.55029 -0.726978 0
M  V30 1164 H 106.358 4.13384 -0.500243 0
M  V30 1165 H 108.955 4.88322 2.17821 0
M  V30 1166 H 109.298 3.23029 2.62599 0
M  V30 1167 H 109.831 3.83958 1.04024 0
M  V30 1168 H 106.57 6.55065 -0.238721 0
M  V30 1169 H 106.09 5.85004 1.324 0
M  V30 1170 H 107.769 6.38258 1.05999 0
M  V30 1171 N 107.901 -0.206675 1.56239 0
M  V30 1172 C 109.147 -0.930218 1.80208 0
M  V30 1173 C 109.48 -1.83387 0.638981 0
M  V30 1174 O 108.755 -1.91119 -0.361066 0
M  V30 1175 C 109.038 -1.75641 3.1436 0
M  V30 1176 C 108.891 -0.878257 4.41142 0
M  V30 1177 C 110.21 -2.73129 3.45092 0
M  V30 1178 H 107.329 -0.336742 0.655571 0
M  V30 1179 H 109.971 -0.198222 1.88963 0
M  V30 1180 H 108.121 -2.38048 3.07027 0
M  V30 1181 H 109.793 -0.269787 4.6051 0
M  V30 1182 H 108.036 -0.184385 4.33408 0
M  V30 1183 H 108.707 -1.49106 5.3148 0
M  V30 1184 H 111.183 -2.20856 3.52649 0
M  V30 1185 H 110.059 -3.28028 4.40101 0
M  V30 1186 H 110.32 -3.51606 2.68003 0
M  V30 1187 N 109.379 -1.50304 -0.473955 0
M  V30 1188 C 110.604 -1.65175 -1.25427 0
M  V30 1189 C 111.029 -0.333673 -1.85117 0
M  V30 1190 O 110.387 0.702114 -1.67153 0
M  V30 1191 C 110.435 -2.74295 -2.34082 0
M  V30 1192 O 109.539 -2.35349 -3.38651 0
M  V30 1193 H 108.88 -0.551944 -0.369126 0
M  V30 1194 H 111.41 -1.96662 -0.564364 0
M  V30 1195 H 111.42 -2.97285 -2.79438 0
M  V30 1196 H 110.095 -3.69959 -1.90008 0
M  V30 1197 H 108.672 -2.22794 -2.99027 0
M  V30 1198 N 110.857 0.726932 -1.39834 0
M  V30 1199 C 111.787 1.85405 -1.41941 0
M  V30 1200 C 112.768 1.67751 -0.281728 0
M  V30 1201 O 113.953 1.8795 -0.488717 0
M  V30 1202 C 111.083 3.23243 -1.2701 0
M  V30 1203 C 110.037 3.55549 -2.38262 0
M  V30 1204 C 109.363 4.9241 -2.08415 0
M  V30 1205 C 110.663 3.577 -3.80589 0
M  V30 1206 H 112.357 1.83899 -2.36266 0
M  V30 1207 H 109.903 0.883349 -1.13723 0
M  V30 1208 H 111.856 4.01775 -1.27103 0
M  V30 1209 H 110.58 3.25296 -0.291564 0
M  V30 1210 H 109.239 2.79351 -2.37399 0
M  V30 1211 H 108.887 4.91052 -1.0898 0
M  V30 1212 H 108.587 5.14992 -2.82943 0
M  V30 1213 H 110.111 5.73289 -2.10171 0
M  V30 1214 H 111.525 4.26293 -3.83337 0
M  V30 1215 H 109.922 3.91804 -4.54543 0
M  V30 1216 H 110.992 2.57328 -4.10987 0
M  V30 1217 N 112.336 1.25143 0.95797 0
M  V30 1218 C 113.299 1.05321 2.03569 0
M  V30 1219 C 114.299 0.007152 1.60798 0
M  V30 1220 O 115.489 0.24903 1.72411 0
M  V30 1221 C 112.621 0.598394 3.35607 0
M  V30 1222 H 113.814 2.00986 2.22586 0
M  V30 1223 H 111.367 1.07502 1.13459 0
M  V30 1224 H 112.102 -0.361014 3.22284 0
M  V30 1225 H 111.887 1.35351 3.67998 0
M  V30 1226 H 113.377 0.48104 4.1482 0
M  V30 1227 N 113.814 -1.1601 1.06675 0
M  V30 1228 C 115.06 -1.86909 0.786945 0
M  V30 1229 C 115.393 -1.81717 -0.685018 0
M  V30 1230 O 114.668 -1.23551 -1.50218 0
M  V30 1231 C 114.951 -3.36313 1.28707 0
M  V30 1232 C 114.804 -3.50175 2.82308 0
M  V30 1233 C 116.123 -4.3084 0.898071 0
M  V30 1234 H 113.242 -0.678677 0.287343 0
M  V30 1235 H 115.884 -1.36336 1.32334 0
M  V30 1236 H 114.034 -3.79513 0.830768 0
M  V30 1237 H 115.706 -3.15886 3.36175 0
M  V30 1238 H 113.949 -2.91959 3.20847 0
M  V30 1239 H 114.62 -4.55116 3.12368 0
M  V30 1240 H 117.096 -3.95561 1.29114 0
M  V30 1241 H 115.972 -5.33876 1.27543 0
M  V30 1242 H 116.233 -4.41662 -0.196651 0
M  V30 1243 N 115.292 -0.849877 -1.32721 0
M  V30 1244 C 116.255 -0.296122 -2.27279 0
M  V30 1245 C 117.255 0.541458 -1.5141 0
M  V30 1246 O 118.445 0.353658 -1.70572 0
M  V30 1247 C 115.577 0.581579 -3.35902 0
M  V30 1248 H 116.77 -1.13064 -2.77771 0
M  V30 1249 H 114.323 -0.62383 -1.43311 0
M  V30 1250 H 115.058 1.43809 -2.9067 0
M  V30 1251 H 114.843 -0.0178814 -3.92096 0
M  V30 1252 H 116.333 0.961951 -4.0637 0
M  V30 1253 N 116.77 1.45427 -0.607355 0
M  V30 1254 C 118.047 1.9557 -0.0344566 0
M  V30 1255 C 118.427 1.54979 1.43334 0
M  V30 1256 O 117.775 0.812241 2.13576 0
M  V30 1257 C 117.985 3.48226 -0.232321 0
M  V30 1258 C 119.333 4.2445 -0.113001 0
M  V30 1259 O 120.357 3.55829 -0.162431 0
M  V30 1260 O 119.216 5.465 0.00209442 0
M  V30 1261 H 116.31 0.826222 0.0358667 0
M  V30 1262 H 118.856 1.55594 -0.6774 0
M  V30 1263 H 117.628 3.70739 -1.25174 0
M  V30 1264 H 117.251 3.95092 0.445896 0
M  V30 1265 N 118.248 0.346503 1.53744 0
M  V30 1266 C 119.178 -0.501193 2.28058 0
M  V30 1267 C 120.159 -1.10014 1.29734 0
M  V30 1268 O 121.344 -1.12097 1.58581 0
M  V30 1269 C 118.474 -1.65078 3.05559 0
M  V30 1270 C 117.428 -1.18003 4.11411 0
M  V30 1271 C 116.754 -2.41837 4.76884 0
M  V30 1272 C 118.054 -0.278394 5.21558 0
M  V30 1273 H 119.748 0.11875 2.99164 0
M  V30 1274 H 117.294 0.0585531 1.43881 0
M  V30 1275 H 119.247 -2.25028 3.56287 0
M  V30 1276 H 117.971 -2.29767 2.32109 0
M  V30 1277 H 116.63 -0.603331 3.61601 0
M  V30 1278 H 116.278 -3.0494 4.00026 0
M  V30 1279 H 115.978 -2.1102 5.48402 0
M  V30 1280 H 117.502 -3.02508 5.30397 0
M  V30 1281 H 118.916 -0.784823 5.67903 0
M  V30 1282 H 117.313 -0.0619707 6.00068 0
M  V30 1283 H 118.383 0.684677 4.80042 0
M  V30 1284 N 119.726 -1.57421 0.075193 0
M  V30 1285 C 120.656 -2.15942 -0.888324 0
M  V30 1286 C 121.637 -1.08737 -1.30806 0
M  V30 1287 O 122.822 -1.36787 -1.37851 0
M  V30 1288 C 119.952 -2.72379 -2.1547 0
M  V30 1289 C 118.906 -3.8478 -1.87425 0
M  V30 1290 C 118.232 -4.27834 -3.20721 0
M  V30 1291 C 119.532 -5.08869 -1.17684 0
M  V30 1292 H 121.226 -2.96705 -0.400799 0
M  V30 1293 H 118.772 -1.42723 -0.191342 0
M  V30 1294 H 120.725 -3.11965 -2.83295 0
M  V30 1295 H 119.449 -1.88841 -2.6647 0
M  V30 1296 H 118.108 -3.45703 -1.22004 0
M  V30 1297 H 117.756 -3.41214 -3.6957 0
M  V30 1298 H 117.456 -5.03605 -3.02746 0
M  V30 1299 H 118.98 -4.70039 -3.89738 0
M  V30 1300 H 120.394 -5.4575 -1.75584 0
M  V30 1301 H 118.791 -5.8994 -1.09956 0
M  V30 1302 H 119.861 -4.84648 -0.156453 0
M  V30 1303 N 121.204 0.198386 -1.56346 0
M  V30 1304 C 122.45 0.920648 -1.80698 0
M  V30 1305 C 122.783 1.83045 -0.648697 0
M  V30 1306 O 122.058 1.91308 0.350925 0
M  V30 1307 C 122.341 1.73971 -3.15287 0
M  V30 1308 C 122.194 0.85485 -4.41602 0
M  V30 1309 C 123.513 2.71296 -3.46535 0
M  V30 1310 H 120.632 0.333261 -0.657348 0
M  V30 1311 H 123.274 0.188198 -1.89066 0
M  V30 1312 H 121.424 2.36416 -3.08285 0
M  V30 1313 H 123.096 0.245362 -4.60647 0
M  V30 1314 H 121.339 0.161398 -4.335 0
M  V30 1315 H 122.01 1.46286 -5.32264 0
M  V30 1316 H 124.486 2.18983 -3.53816 0
M  V30 1317 H 123.362 3.2569 -4.41834 0
M  V30 1318 H 123.623 3.5018 -2.69864 0
M  V30 1319 N 122.682 1.50554 0.465978 0
M  V30 1320 C 123.645 1.69233 1.54574 0
M  V30 1321 C 124.645 0.562901 1.50626 0
M  V30 1322 O 125.835 0.830016 1.53155 0
M  V30 1323 C 122.967 1.7223 2.94193 0
M  V30 1324 H 124.16 2.65571 1.39327 0
M  V30 1325 H 121.713 1.40111 0.692711 0
M  V30 1326 H 122.448 0.77603 3.14878 0
M  V30 1327 H 122.233 2.54285 2.98466 0
M  V30 1328 H 123.723 1.88618 3.72576 0
M  V30 1329 N 124.16 -0.719506 1.40217 0
M  V30 1330 C 125.388 -1.50864 1.41589 0
M  V30 1331 C 125.803 -1.88794 0.0145275 0
M  V30 1332 O 125.16 -1.55174 -0.960594 0
M  V30 1333 C 125.211 -2.78646 2.30302 0
M  V30 1334 O 124.932 -2.42321 3.64983 0
M  V30 1335 C 126.433 -3.72569 2.40224 0
M  V30 1336 H 123.653 -0.465709 0.48307 0
M  V30 1337 H 126.197 -0.88785 1.84221 0
M  V30 1338 H 124.352 -3.37019 1.91042 0
M  V30 1339 H 124.766 -3.24514 4.12057 0
M  V30 1340 H 126.24 -4.5908 3.06512 0
M  V30 1341 H 126.717 -4.15403 1.42608 0
M  V30 1342 H 127.323 -3.20109 2.80019 0
M  V30 1343 N 125.638 -1.25649 -0.95132 0
M  V30 1344 C 126.568 -1.08808 -2.06599 0
M  V30 1345 C 127.549 0.00382547 -1.701 0
M  V30 1346 O 128.734 -0.166325 -1.93486 0
M  V30 1347 C 125.864 -0.709542 -3.39975 0
M  V30 1348 C 124.818 -1.75206 -3.90496 0
M  V30 1349 C 124.144 -1.22811 -5.20405 0
M  V30 1350 C 125.444 -3.15153 -4.16504 0
M  V30 1351 H 127.138 -2.02048 -2.20946 0
M  V30 1352 H 124.684 -0.972835 -1.06169 0
M  V30 1353 H 126.637 -0.578649 -4.17408 0
M  V30 1354 H 125.361 0.258556 -3.25575 0
M  V30 1355 H 124.02 -1.87145 -3.15234 0
M  V30 1356 H 123.668 -0.250145 -5.02378 0
M  V30 1357 H 123.368 -1.92492 -5.55176 0
M  V30 1358 H 124.892 -1.10968 -6.00432 0
M  V30 1359 H 126.306 -3.06349 -4.84586 0
M  V30 1360 H 124.703 -3.82333 -4.62538 0
M  V30 1361 H 125.773 -3.61966 -3.22658 0
M  V30 1362 N 127.117 1.15442 -1.07289 0
M  V30 1363 C 128.363 1.86489 -0.796846 0
M  V30 1364 C 128.696 1.82078 0.675371 0
M  V30 1365 O 127.971 1.24346 1.4956 0
M  V30 1366 C 128.254 3.35626 -1.30489 0
M  V30 1367 C 128.107 3.48673 -2.84161 0
M  V30 1368 C 129.426 4.30357 -0.920907 0
M  V30 1369 H 126.545 0.677144 -0.290939 0
M  V30 1370 H 129.187 1.35633 -1.33056 0
M  V30 1371 H 127.337 3.79068 -0.850883 0
M  V30 1372 H 129.009 3.14099 -3.37846 0
M  V30 1373 H 127.252 2.90253 -3.22391 0
M  V30 1374 H 127.923 4.53453 -3.14777 0
M  V30 1375 H 130.399 3.94871 -1.3121 0
M  V30 1376 H 129.275 5.33193 -1.30372 0
M  V30 1377 H 129.536 4.4176 0.173226 0
M  V30 1378 N 128.595 0.856903 1.32268 0
M  V30 1379 C 129.528 0.247937 2.26849 0
M  V30 1380 C 130.506 -0.615382 1.50505 0
M  V30 1381 O 131.69 -0.571689 1.79622 0
M  V30 1382 C 128.817 -0.650093 3.32403 0
M  V30 1383 C 127.863 0.140138 4.2627 0
M  V30 1384 S 128.696 1.51004 5.13769 0
M  V30 1385 C 129.852 0.61778 6.22844 0
M  V30 1386 H 130.085 1.04971 2.78152 0
M  V30 1387 H 127.618 0.654665 1.39834 0
M  V30 1388 H 129.576 -1.16256 3.93694 0
M  V30 1389 H 128.237 -1.4257 2.7988 0
M  V30 1390 H 127.43 -0.543945 5.01056 0
M  V30 1391 H 127.032 0.584267 3.69408 0
M  V30 1392 H 129.324 -0.177053 6.77269 0
M  V30 1393 H 130.267 1.33636 6.95375 0
M  V30 1394 H 130.675 0.191124 5.64176 0
M  V30 1395 N 130.073 -1.45103 0.615059 0
M  V30 1396 C 131.484 -1.85654 0.197383 0
M  V30 1397 C 131.835 -1.51433 -1.24749 0
M  V30 1398 O 130.96 -0.944608 -1.94695 0
M  V30 1399 C 131.555 -3.36972 0.351448 0
M  V30 1400 C 130.114 -3.76398 -0.011593 0
M  V30 1401 C 129.261 -2.69024 0.672394 0
M  V30 1402 H 132.212 -1.35797 0.821263 0
M  V30 1403 H 132.233 -3.78239 -0.414227 0
M  V30 1404 H 131.745 -3.61847 1.40314 0
M  V30 1405 H 129.846 -3.5714 -1.06217 0
M  V30 1406 H 129.959 -4.77532 0.387265 0
M  V30 1407 H 128.323 -2.54465 0.109284 0
M  V30 1408 H 129.106 -2.96735 1.72636 0
M  V30 1409 N 131.551 -0.354651 -1.53558 0
M  V30 1410 C 132.797 0.231422 -2.02079 0
M  V30 1411 C 133.152 1.47308 -1.23767 0
M  V30 1412 O 132.445 1.8891 -0.319947 0
M  V30 1413 C 132.639 0.587121 -3.52545 0
M  V30 1414 C 132.468 -0.618513 -4.45426 0
M  V30 1415 C 131.238 -1.12724 -4.92566 0
M  V30 1416 C 133.436 -1.48039 -4.92533 0
M  V30 1417 N 131.418 -2.29404 -5.69427 0
M  V30 1418 C 132.789 -2.49397 -5.67628 0
M  V30 1419 C 134.844 -1.50454 -4.74624 0
M  V30 1420 C 133.547 -3.53013 -6.26717 0
M  V30 1421 C 135.573 -2.52958 -5.34571 0
M  V30 1422 C 134.935 -3.5304 -6.09543 0
M  V30 1423 H 131.034 0.0476909 -0.780544 0
M  V30 1424 H 133.618 -0.496727 -1.88257 0
M  V30 1425 H 131.789 1.28436 -3.6655 0
M  V30 1426 H 133.521 1.15734 -3.87799 0
M  V30 1427 H 130.276 -0.693577 -4.68494 0
M  V30 1428 H 130.7 -2.88347 -6.12524 0
M  V30 1429 H 135.342 -0.744356 -4.16196 0
M  V30 1430 H 133.06 -4.2992 -6.84247 0
M  V30 1431 H 136.646 -2.55667 -5.22614 0
M  V30 1432 H 135.526 -4.31056 -6.55103 0
M  V30 1433 N 133.029 1.57378 -0.0835403 0
M  V30 1434 C 134.275 1.94217 0.583733 0
M  V30 1435 C 134.608 0.964653 1.68547 0
M  V30 1436 O 133.883 -0.00422258 1.945 0
M  V30 1437 C 134.166 3.41253 1.14972 0
M  V30 1438 C 134.019 4.49768 0.0538277 0
M  V30 1439 C 135.338 3.89352 2.05166 0
M  V30 1440 H 132.457 0.706233 0.210724 0
M  V30 1441 H 135.099 1.89392 -0.1519 0
M  V30 1442 H 133.249 3.45496 1.77665 0
M  V30 1443 H 134.921 4.57641 -0.579851 0
M  V30 1444 H 133.164 4.29432 -0.614068 0
M  V30 1445 H 133.835 5.49817 0.490452 0
M  V30 1446 H 136.311 3.87189 1.52393 0
M  V30 1447 H 135.187 4.92822 2.41698 0
M  V30 1448 H 135.448 3.27973 2.96456 0
M  V30 1449 N 134.507 -0.190092 1.56449 0
M  V30 1450 C 135.753 -0.911052 1.81184 0
M  V30 1451 C 136.086 -1.82699 0.658396 0
M  V30 1452 O 135.361 -1.91491 -0.340775 0
M  V30 1453 C 135.644 -1.72297 3.16205 0
M  V30 1454 C 135.497 -0.831419 4.42049 0
M  V30 1455 C 136.816 -2.69454 3.47969 0
M  V30 1456 H 133.935 -0.32977 0.659106 0
M  V30 1457 H 136.577 -0.178169 1.89163 0
M  V30 1458 H 134.727 -2.34778 3.09534 0
M  V30 1459 H 136.399 -0.220929 4.60771 0
M  V30 1460 H 134.642 -0.138406 4.33579 0
M  V30 1461 H 135.313 -1.43461 5.33032 0
M  V30 1462 H 137.789 -2.17104 3.54972 0
M  V30 1463 H 136.665 -3.23342 4.43555 0
M  V30 1464 H 136.926 -3.48744 2.71717 0
M  V30 1465 N 135.985 -1.50799 -0.457987 0
M  V30 1466 C 137.215 -1.65977 -1.23025 0
M  V30 1467 C 137.623 -0.347918 -1.85974 0
M  V30 1468 O 136.966 0.68148 -1.70592 0
M  V30 1469 C 137.028 -2.70309 -2.3701 0
M  V30 1470 C 136.692 -4.135 -1.94594 0
M  V30 1471 C 137.689 -4.98949 -1.46101 0
M  V30 1472 C 135.374 -4.5949 -2.02915 0
M  V30 1473 C 137.368 -6.28442 -1.06489 0
M  V30 1474 C 135.055 -5.88984 -1.62914 0
M  V30 1475 C 136.053 -6.73286 -1.1478 0
M  V30 1476 O 135.741 -8.00362 -0.75339 0
M  V30 1477 H 135.473 -0.56064 -0.377702 0
M  V30 1478 H 138.027 -1.97857 -0.551537 0
M  V30 1479 H 136.257 -2.337 -3.08093 0
M  V30 1480 H 137.946 -2.74574 -2.98938 0
M  V30 1481 H 138.712 -4.6463 -1.39084 0
M  V30 1482 H 134.591 -3.94009 -2.39328 0
M  V30 1483 H 138.135 -6.94194 -0.688488 0
M  V30 1484 H 134.032 -6.22822 -1.69595 0
M  V30 1485 H 134.8 -8.13744 -0.88108 0
M  V30 1486 N 137.463 0.71206 -1.40597 0
M  V30 1487 C 138.393 1.83889 -1.43899 0
M  V30 1488 C 139.374 1.67442 -0.299504 0
M  V30 1489 O 140.559 1.87421 -0.508624 0
M  V30 1490 C 137.689 3.21877 -1.30431 0
M  V30 1491 C 136.643 3.53002 -2.42019 0
M  V30 1492 C 135.969 4.90172 -2.13626 0
M  V30 1493 C 137.269 3.53643 -3.84362 0
M  V30 1494 H 138.963 1.81383 -2.38203 0
M  V30 1495 H 136.509 0.871237 -1.14654 0
M  V30 1496 H 138.462 4.00404 -1.31357 0
M  V30 1497 H 137.186 3.24968 -0.326049 0
M  V30 1498 H 135.845 2.76818 -2.40349 0
M  V30 1499 H 135.493 4.89869 -1.14182 0
M  V30 1500 H 135.193 5.11962 -2.88389 0
M  V30 1501 H 136.717 5.71028 -2.1624 0
M  V30 1502 H 138.131 4.22203 -3.87837 0
M  V30 1503 H 136.528 3.86961 -4.58673 0
M  V30 1504 H 137.598 2.52954 -4.13693 0
M  V30 1505 N 138.941 1.26152 0.944643 0
M  V30 1506 C 139.851 1.09176 2.07648 0
M  V30 1507 C 140.867 0.0261935 1.7398 0
M  V30 1508 O 142.043 0.229208 2.00091 0
M  V30 1509 C 139.108 0.722915 3.39079 0
M  V30 1510 C 138.169 1.86752 3.86552 0
M  V30 1511 C 137.402 1.51617 5.11711 0
M  V30 1512 O 137.625 0.416331 5.68879 0
M  V30 1513 O 136.559 2.34975 5.54139 0
M  V30 1514 H 140.385 2.0412 2.24875 0
M  V30 1515 H 137.97 1.05182 1.061 0
M  V30 1516 H 139.852 0.529787 4.18056 0
M  V30 1517 H 138.527 -0.197159 3.23099 0
M  V30 1518 H 137.434 2.11558 3.08535 0
M  V30 1519 H 138.767 2.76719 4.07047 0
M  V30 1520 N 140.419 -1.14872 1.07899 0
M  V30 1521 C 141.665 -1.86064 0.806725 0
M  V30 1522 C 141.998 -1.82434 -0.665706 0
M  V30 1523 O 141.273 -1.25138 -1.48899 0
M  V30 1524 C 141.556 -3.34929 1.32267 0
M  V30 1525 C 141.409 -3.47161 2.86006 0
M  V30 1526 C 142.728 -4.29863 0.943717 0
M  V30 1527 H 139.847 -0.675591 0.294526 0
M  V30 1528 H 142.489 -1.34925 1.33773 0
M  V30 1529 H 140.639 -3.78611 0.870974 0
M  V30 1530 H 142.311 -3.12302 3.39507 0
M  V30 1531 H 140.554 -2.88539 3.23925 0
M  V30 1532 H 141.225 -4.51777 3.17177 0
M  V30 1533 H 143.701 -3.9417 1.33302 0
M  V30 1534 H 142.577 -5.32494 1.33198 0
M  V30 1535 H 142.838 -4.41846 -0.149796 0
M  V30 1536 N 141.898 -0.863906 -1.31812 0
M  V30 1537 C 143.144 -0.472535 -1.97218 0
M  V30 1538 C 143.477 0.971394 -1.68159 0
M  V30 1539 O 142.752 1.68309 -0.974798 0
M  V30 1540 C 143.035 -0.723054 -3.52766 0
M  V30 1541 C 142.888 -2.21608 -3.91421 0
M  V30 1542 C 144.207 -0.185522 -4.39709 0
M  V30 1543 H 141.326 -0.173158 -0.71637 0
M  V30 1544 H 143.968 -1.08403 -1.56041 0
M  V30 1545 H 142.118 -0.202577 -3.87971 0
M  V30 1546 H 143.79 -2.80334 -3.66347 0
M  V30 1547 H 142.033 -2.691 -3.40246 0
M  V30 1548 H 142.704 -2.34203 -4.99853 0
M  V30 1549 H 145.18 -0.630726 -4.11292 0
M  V30 1550 H 144.056 -0.390306 -5.47511 0
M  V30 1551 H 144.317 0.912229 -4.32586 0
M  V30 1552 N 143.376 1.44774 -0.622745 0
M  V30 1553 C 144.624 2.01721 -0.123655 0
M  V30 1554 C 144.945 1.49172 1.25589 0
M  V30 1555 O 144.215 0.691974 1.83272 0
M  V30 1556 H 142.795 0.745777 -0.0427225 0
M  V30 1557 H 145.457 1.77382 -0.807559 0
M  V30 1558 H 144.553 3.11984 -0.0849534 0
M  V30 1559 N 144.854 0.36279 1.53368 0
M  V30 1560 C 145.764 -0.492994 2.29362 0
M  V30 1561 C 146.78 -1.09507 1.35219 0
M  V30 1562 O 147.956 -1.10662 1.68273 0
M  V30 1563 C 145.021 -1.61855 3.066 0
M  V30 1564 C 144.082 -1.04429 4.16405 0
M  V30 1565 C 143.315 -2.11621 4.89951 0
M  V30 1566 O 143.538 -3.32684 4.63333 0
M  V30 1567 O 142.472 -1.74835 5.75948 0
M  V30 1568 H 146.298 0.125331 3.03441 0
M  V30 1569 H 143.883 0.127253 1.48857 0
M  V30 1570 H 145.765 -2.27302 3.54841 0
M  V30 1571 H 144.44 -2.22233 2.3536 0
M  V30 1572 H 143.347 -0.353819 3.72423 0
M  V30 1573 H 144.68 -0.485113 4.89804 0
M  V30 1574 N 146.332 -1.57332 0.0918853 0
M  V30 1575 C 147.578 -1.95328 -0.567313 0
M  V30 1576 C 147.933 -0.972866 -1.65991 0
M  V30 1577 O 147.226 0.00166256 -1.916 0
M  V30 1578 C 147.42 -3.37689 -1.17051 0
M  V30 1579 C 147.249 -4.49489 -0.137875 0
M  V30 1580 C 146.019 -5.04498 0.284515 0
M  V30 1581 C 148.217 -5.10393 0.63271 0
M  V30 1582 N 146.199 -5.99853 1.30576 0
M  V30 1583 C 147.57 -6.01435 1.50587 0
M  V30 1584 C 149.625 -4.93143 0.68658 0
M  V30 1585 C 148.328 -6.77077 2.42815 0
M  V30 1586 C 150.354 -5.69445 1.59645 0
M  V30 1587 C 149.716 -6.60151 2.45725 0
M  V30 1588 H 145.815 -0.761467 -0.178023 0
M  V30 1589 H 148.399 -1.93924 0.173706 0
M  V30 1590 H 146.57 -3.39793 -1.88136 0
M  V30 1591 H 148.302 -3.62872 -1.79181 0
M  V30 1592 H 145.057 -4.73489 -0.102593 0
M  V30 1593 H 145.481 -6.52231 1.81449 0
M  V30 1594 H 150.123 -4.22785 0.035244 0
M  V30 1595 H 147.841 -7.46699 3.08975 0
M  V30 1596 H 151.427 -5.58112 1.64323 0
M  V30 1597 H 150.307 -7.18159 3.14987 0
M  V30 1598 N 147.81 0.181792 -1.56548 0
M  V30 1599 C 148.757 1.22521 -1.95595 0
M  V30 1600 C 149.727 1.4454 -0.818373 0
M  V30 1601 O 150.912 1.57454 -1.07763 0
M  V30 1602 C 148.052 2.56193 -2.31212 0
M  V30 1603 C 147.165 2.41641 -3.58097 0
M  V30 1604 C 146.3 3.68108 -3.82975 0
M  V30 1605 C 145.339 3.48445 -5.03242 0
M  V30 1606 N 144.476 4.66956 -5.24306 0
M  V30 1607 H 149.316 0.885226 -2.84548 0
M  V30 1608 H 146.853 0.425718 -1.40805 0
M  V30 1609 H 148.811 3.34088 -2.49882 0
M  V30 1610 H 147.441 2.88208 -1.45382 0
M  V30 1611 H 146.493 1.54976 -3.474 0
M  V30 1612 H 147.805 2.23052 -4.46149 0
M  V30 1613 H 146.959 4.54441 -4.01956 0
M  V30 1614 H 145.698 3.89666 -2.93278 0
M  V30 1615 H 144.703 2.60499 -4.8417 0
M  V30 1616 H 145.928 3.2832 -5.9446 0
M  V30 1617 H 143.874 4.88752 -4.37559 0
M  V30 1618 H 143.791 4.51242 -6.06561 0
M  V30 1619 H 145.059 5.54602 -5.47756 0
M  V30 1620 N 149.288 1.51039 0.449983 0
M  V30 1621 C 150.535 1.63081 1.20045 0
M  V30 1622 C 150.863 0.341024 1.91487 0
M  V30 1623 O 150.118 -0.674276 1.83717 0
M  V30 1624 C 150.417 2.77556 2.25161 0
M  V30 1625 C 150.083 4.17289 1.70823 0
M  V30 1626 C 148.745 4.55305 1.55725 0
M  V30 1627 C 151.097 5.04536 1.3074 0
M  V30 1628 C 148.425 5.78287 0.989999 0
M  V30 1629 C 150.777 6.28085 0.754482 0
M  V30 1630 C 149.441 6.64885 0.590308 0
M  V30 1631 H 148.711 0.596755 0.439277 0
M  V30 1632 H 151.358 1.85037 0.49333 0
M  V30 1633 H 149.663 2.49771 3.01863 0
M  V30 1634 H 151.36 2.84073 2.83026 0
M  V30 1635 H 147.95 3.8731 1.83546 0
M  V30 1636 H 152.134 4.75782 1.41229 0
M  V30 1637 H 147.39 6.05456 0.850451 0
M  V30 1638 H 151.564 6.95038 0.435324 0
M  V30 1639 H 149.191 7.60055 0.14862 0
M  V30 1640 N 150.766 -0.704594 1.40972 0
M  V30 1641 C 151.991 -1.49858 1.43378 0
M  V30 1642 C 152.416 -1.88061 0.038184 0
M  V30 1643 O 151.774 -1.5402 -0.956425 0
M  V30 1644 C 151.822 -2.74333 2.34038 0
M  V30 1645 O 150.926 -3.7147 1.7912 0
M  V30 1646 H 150.267 -0.45139 0.486974 0
M  V30 1647 H 152.797 -0.866832 1.8533 0
M  V30 1648 H 152.807 -3.22741 2.49604 0
M  V30 1649 H 151.482 -2.45863 3.35446 0
M  V30 1650 H 150.059 -3.30363 1.72958 0
M  V30 1651 N 152.244 -1.26651 -0.937939 0
M  V30 1652 C 153.66 -1.03834 -1.21205 0
M  V30 1653 C 153.86 0.234502 -2.00131 0
M  V30 1654 O 152.916 0.942767 -2.3424 0
M  V30 1655 C 154.229 -2.27167 -1.97017 0
M  V30 1656 C 155.777 -2.32101 -2.09996 0
M  V30 1657 C 156.252 -3.55136 -2.8921 0
M  V30 1658 N 157.743 -3.55632 -2.96783 0
M  V30 1659 C 158.478 -4.475 -3.58512 0
M  V30 1660 N 157.974 -5.4966 -4.21717 0
M  V30 1661 N 159.767 -4.35145 -3.55816 0
M  V30 1662 H 151.918 -2.08398 -0.410391 0
M  V30 1663 H 154.181 -0.916031 -0.244114 0
M  V30 1664 H 153.887 -3.19765 -1.46434 0
M  V30 1665 H 153.761 -2.31672 -2.97671 0
M  V30 1666 H 156.148 -1.40015 -2.59769 0
M  V30 1667 H 156.229 -2.31605 -1.08594 0
M  V30 1668 H 155.873 -4.47553 -2.40123 0
M  V30 1669 H 155.803 -3.5288 -3.90875 0
M  V30 1670 H 158.294 -2.81743 -2.51852 0
M  V30 1671 H 158.607 -6.15943 -4.66727 0
M  V30 1672 H 156.952 -5.53514 -4.20294 0
M  V30 1673 H 160.143 -3.5455 -3.05634 0
M  V30 1674 H 160.316 -5.06934 -4.03636 0
M  V30 1675 N 153.722 1.14298 -1.08507 0
M  V30 1676 C 154.971 1.84708 -0.810305 0
M  V30 1677 C 155.284 1.83903 0.666271 0
M  V30 1678 O 156.49 2.50112 1.05624 0
M  V30 1679 C 154.946 3.31572 -1.39957 0
M  V30 1680 C 154.554 3.40791 -2.90801 0
M  V30 1681 C 156.298 4.07087 -1.20334 0
M  V30 1682 C 154.205 4.81872 -3.4286 0
M  V30 1683 H 153.135 0.691985 -0.299454 0
M  V30 1684 H 155.786 1.28841 -1.30661 0
M  V30 1685 H 154.168 3.87183 -0.830976 0
M  V30 1686 H 155.342 2.95225 -3.53806 0
M  V30 1687 H 153.657 2.78732 -3.0935 0
M  V30 1688 H 156.254 5.11225 -1.56693 0
M  V30 1689 H 156.597 4.16054 -0.143237 0
M  V30 1690 H 157.13 3.57779 -1.73893 0
M  V30 1691 H 153.869 4.78094 -4.48449 0
M  V30 1692 H 153.389 5.27972 -2.84615 0
M  V30 1693 H 155.068 5.50765 -3.39509 0
M  V30 1694 N 155.201 0.870884 1.31352 0
M  V30 1695 C 156.151 0.298889 2.26032 0
M  V30 1696 C 157.135 -0.564595 1.50669 0
M  V30 1697 O 158.327 -0.411323 1.72154 0
M  V30 1698 C 155.456 -0.497842 3.39671 0
M  V30 1699 C 154.542 0.378937 4.22404 0
M  V30 1700 N 154.933 1.47284 4.83881 0
M  V30 1701 C 153.231 0.171535 4.4567 0
M  V30 1702 C 153.932 2.01359 5.45738 0
M  V30 1703 N 152.908 1.31047 5.27568 0
M  V30 1704 H 156.71 1.13494 2.71102 0
M  V30 1705 H 154.224 0.718745 1.45629 0
M  V30 1706 H 156.221 -0.924155 4.06528 0
M  V30 1707 H 154.881 -1.33149 2.96144 0
M  V30 1708 H 155.892 1.85575 4.8351 0
M  V30 1709 H 152.569 -0.626091 4.12779 0
M  V30 1710 H 153.959 2.93143 6.0458 0
M  V30 1711 N 156.679 -1.44442 0.630414 0
M  V30 1712 C 157.919 -2.03934 0.137919 0
M  V30 1713 C 158.283 -1.48509 -1.21692 0
M  V30 1714 O 159.484 -1.99499 -1.80149 0
M  V30 1715 C 157.755 -3.57187 0.123373 0
M  V30 1716 S 159.314 -4.37741 -0.304604 0
M  V30 1717 H 156.132 -0.708401 0.0607353 0
M  V30 1718 H 158.734 -1.76835 0.833643 0
M  V30 1719 H 157.438 -3.95032 1.11256 0
M  V30 1720 H 156.969 -3.88895 -0.59362 0
M  V30 1721 H 158.984 -4.71403 -1.54897 0
M  V30 1722 N 158.157 -0.370918 -1.53173 0
M  V30 1723 C 159.434 0.273754 -1.93675 0
M  V30 1724 C 159.814 1.65938 -1.3049 0
M  V30 1725 O 159.162 2.23698 -0.465999 0
M  V30 1726 C 159.372 0.318602 -3.47543 0
M  V30 1727 C 160.72 0.556392 -4.20939 0
M  V30 1728 O 161.744 0.399587 -3.53952 0
M  V30 1729 O 160.603 0.862133 -5.39657 0
M  V30 1730 H 157.697 0.165448 -0.810281 0
M  V30 1731 H 160.243 -0.42409 -1.64315 0
M  V30 1732 H 159.015 -0.652687 -3.85818 0
M  V30 1733 H 158.638 1.06212 -3.83151 0
M  V30 1734 N 159.635 1.57281 -0.100228 0
M  V30 1735 C 160.884 1.93713 0.561984 0
M  V30 1736 C 161.197 0.984492 1.69018 0
M  V30 1737 O 162.403 1.24273 2.41389 0
M  V30 1738 C 160.859 3.4421 1.05106 0
M  V30 1739 C 160.467 4.47975 -0.0476628 0
M  V30 1740 C 162.211 3.89595 1.68571 0
M  V30 1741 C 160.118 5.89631 0.457055 0
M  V30 1742 H 159.048 0.723082 0.2137 0
M  V30 1743 H 161.699 1.82644 -0.177057 0
M  V30 1744 H 160.081 3.50449 1.84395 0
M  V30 1745 H 161.255 4.53385 -0.823333 0
M  V30 1746 H 159.57 4.1223 -0.587816 0
M  V30 1747 H 162.167 4.92832 2.07414 0
M  V30 1748 H 162.51 3.28526 2.55688 0
M  V30 1749 H 163.043 3.86078 0.958562 0
M  V30 1750 H 159.782 6.54411 -0.377616 0
M  V30 1751 H 159.302 5.87681 1.19962 0
M  V30 1752 H 160.981 6.40363 0.92437 0
M  V30 1753 N 161.113 -0.173488 1.56642 0
M  V30 1754 C 162.36 -0.890465 1.81871 0
M  V30 1755 C 162.688 -1.82339 0.67696 0
M  V30 1756 O 161.943 -1.92795 -0.335926 0
M  V30 1757 C 162.242 -1.72069 3.13252 0
M  V30 1758 C 161.908 -0.936878 4.41059 0
M  V30 1759 C 160.57 -0.720545 4.75775 0
M  V30 1760 C 162.922 -0.386919 5.19762 0
M  V30 1761 C 160.25 0.0568829 5.86672 0
M  V30 1762 C 162.602 0.37741 6.31473 0
M  V30 1763 C 161.266 0.604563 6.64757 0
M  V30 1764 H 160.536 -0.325844 0.665512 0
M  V30 1765 H 163.183 -0.155527 1.90867 0
M  V30 1766 H 161.488 -2.52496 2.99588 0
M  V30 1767 H 163.185 -2.27844 3.29982 0
M  V30 1768 H 159.775 -1.11553 4.13828 0
M  V30 1769 H 163.959 -0.541398 4.93338 0
M  V30 1770 H 159.215 0.242635 6.10918 0
M  V30 1771 H 163.389 0.810825 6.91664 0
M  V30 1772 H 161.016 1.20885 7.50527 0
M  V30 1773 N 162.591 -1.51276 -0.441967 0
M  V30 1774 C 163.837 -1.63958 -1.19355 0
M  V30 1775 C 164.17 -0.352543 -1.90973 0
M  V30 1776 O 163.445 0.647627 -1.83401 0
M  V30 1777 C 163.728 -2.83979 -2.21422 0
M  V30 1778 C 163.581 -4.22646 -1.53918 0
M  V30 1779 C 164.9 -2.99521 -3.22451 0
M  V30 1780 H 162.019 -0.596709 -0.432559 0
M  V30 1781 H 164.661 -1.83748 -0.483398 0
M  V30 1782 H 162.811 -2.67237 -2.81987 0
M  V30 1783 H 164.483 -4.51045 -0.967256 0
M  V30 1784 H 162.726 -4.25558 -0.841615 0
M  V30 1785 H 163.397 -5.02609 -2.28229 0
M  V30 1786 H 165.873 -3.14944 -2.71937 0
M  V30 1787 H 164.749 -3.85072 -3.91166 0
M  V30 1788 H 165.01 -2.11391 -3.88287 0
M  V30 1789 N 164.069 0.697108 -1.41344 0
M  V30 1790 C 165.297 1.48593 -1.43972 0
M  V30 1791 C 165.712 1.88747 -0.0445612 0
M  V30 1792 O 165.069 1.56682 0.935785 0
M  V30 1793 C 165.12 2.74946 -2.34706 0
M  V30 1794 O 164.841 2.36484 -3.68791 0
M  V30 1795 C 166.342 3.687 -2.46121 0
M  V30 1796 H 163.562 0.457964 -0.490418 0
M  V30 1797 H 166.106 0.858429 -1.8561 0
M  V30 1798 H 164.261 3.33937 -1.9638 0
M  V30 1799 H 164.675 3.17918 -4.17167 0
M  V30 1800 H 166.149 4.54145 -3.13777 0
M  V30 1801 H 166.626 4.13081 -1.49199 0
M  V30 1802 H 167.232 3.15613 -2.85076 0
M  V30 1803 N 165.547 1.27147 0.931209 0
M  V30 1804 C 166.477 1.12081 2.04842 0
M  V30 1805 C 167.458 0.0232364 1.70084 0
M  V30 1806 O 168.643 0.197085 1.93197 0
M  V30 1807 C 165.773 0.76354 3.38803 0
M  V30 1808 C 164.727 1.81396 3.87659 0
M  V30 1809 C 164.053 1.31075 5.18385 0
M  V30 1810 C 165.353 3.21739 4.11438 0
M  V30 1811 H 167.047 2.05537 2.17703 0
M  V30 1812 H 164.593 0.989603 1.04608 0
M  V30 1813 H 166.546 0.644982 4.16435 0
M  V30 1814 H 165.27 -0.206727 3.25945 0
M  V30 1815 H 163.929 1.92136 3.12217 0
M  V30 1816 H 163.577 0.330037 5.01916 0
M  V30 1817 H 163.277 2.013 5.52044 0
M  V30 1818 H 164.801 1.20506 5.98591 0
M  V30 1819 H 166.215 3.14019 4.79651 0
M  V30 1820 H 164.612 3.89644 4.56397 0
M  V30 1821 H 165.682 3.67054 3.16859 0
M  V30 1822 N 167.025 -1.13721 1.09112 0
M  V30 1823 C 168.302 -1.81155 0.737706 0
M  V30 1824 C 168.682 -1.96253 -0.777683 0
M  V30 1825 O 168.03 -1.52807 -1.69889 0
M  V30 1826 C 168.24 -3.16392 1.47299 0
M  V30 1827 C 169.588 -3.91787 1.63671 0
M  V30 1828 O 170.612 -3.26005 1.43524 0
M  V30 1829 O 169.471 -5.0977 1.96969 0
M  V30 1830 H 166.565 -0.783518 0.26463 0
M  V30 1831 H 169.111 -1.20676 1.19312 0
M  V30 1832 H 167.883 -3.0061 2.50498 0
M  V30 1833 H 167.506 -3.8457 1.00953 0
M  V30 1834 N 168.503 -0.877838 -1.30888 0
M  V30 1835 C 169.749 -0.493426 -1.96706 0
M  V30 1836 C 170.082 0.953504 -1.6918 0
M  V30 1837 O 169.357 1.67266 -0.992594 0
M  V30 1838 C 169.64 -0.760429 -3.51979 0
M  V30 1839 C 169.493 -2.25747 -3.89048 0
M  V30 1840 C 170.812 -0.232148 -4.39487 0
M  V30 1841 H 167.931 -0.180746 -0.714493 0
M  V30 1842 H 170.573 -1.10052 -1.54882 0
M  V30 1843 H 168.723 -0.243715 -3.87735 0
M  V30 1844 H 170.395 -2.84204 -3.63354 0
M  V30 1845 H 168.638 -2.72694 -3.37373 0
M  V30 1846 H 169.309 -2.39491 -4.97341 0
M  V30 1847 H 171.785 -0.674314 -4.106 0
M  V30 1848 H 170.661 -0.448355 -5.47066 0
M  V30 1849 H 170.922 0.866297 -4.33529 0
M  V30 1850 N 169.982 1.44106 -0.638065 0
M  V30 1851 C 170.915 2.27924 0.112161 0
M  V30 1852 C 171.893 1.38945 0.844574 0
M  V30 1853 O 173.077 1.68386 0.847248 0
M  V30 1854 C 170.204 3.18029 1.16512 0
M  V30 1855 C 169.25 4.23163 0.532458 0
M  V30 1856 S 170.083 5.31131 -0.682666 0
M  V30 1857 C 171.239 6.24805 0.37013 0
M  V30 1858 H 171.472 2.91205 -0.598887 0
M  V30 1859 H 169.005 1.48394 -0.426441 0
M  V30 1860 H 170.963 3.70492 1.76766 0
M  V30 1861 H 169.624 2.53955 1.8484 0
M  V30 1862 H 168.817 4.86252 1.32571 0
M  V30 1863 H 168.419 3.74 0.00437644 0
M  V30 1864 H 170.711 6.66042 1.24071 0
M  V30 1865 H 171.654 7.07741 -0.225349 0
M  V30 1866 H 172.062 5.60154 0.699141 0
M  V30 1867 N 171.46 0.379036 1.52974 0
M  V30 1868 C 172.393 -0.504932 2.22544 0
M  V30 1869 C 173.371 -1.0723 1.22231 0
M  V30 1870 O 174.555 -1.12589 1.51182 0
M  V30 1871 C 171.682 -1.69794 2.93066 0
M  V30 1872 C 170.728 -1.25678 4.07563 0
M  V30 1873 S 171.561 -0.246852 5.34931 0
M  V30 1874 C 172.717 -1.44588 6.08971 0
M  V30 1875 H 172.95 0.0858666 2.97176 0
M  V30 1876 H 170.483 0.163183 1.53535 0
M  V30 1877 H 172.441 -2.38219 3.34308 0
M  V30 1878 H 171.102 -2.26002 2.18133 0
M  V30 1879 H 170.295 -2.14725 4.5597 0
M  V30 1880 H 169.897 -0.651584 3.6828 0
M  V30 1881 H 172.189 -2.37469 6.34519 0
M  V30 1882 H 173.132 -1.00292 7.00962 0
M  V30 1883 H 173.54 -1.65804 5.39601 0
M  V30 1884 N 172.938 -1.57226 0.108567 0
M  V30 1885 C 174.178 -1.96717 -0.555155 0
M  V30 1886 C 174.542 -0.990003 -1.64508 0
M  V30 1887 O 175.743 -1.2739 -2.36696 0
M  V30 1888 C 174.014 -3.40575 -1.08367 0
M  V30 1889 S 175.573 -4.02072 -1.75737 0
M  V30 1890 H 172.391 -0.687638 -0.180762 0
M  V30 1891 H 174.993 -1.94563 0.191172 0
M  V30 1892 H 173.697 -4.0945 -0.279092 0
M  V30 1893 H 173.228 -3.46356 -1.86551 0
M  V30 1894 H 175.243 -3.91977 -3.04251 0
M  V30 1895 N 174.416 0.165178 -1.56732 0
M  V30 1896 C 175.644 0.896218 -1.86482 0
M  V30 1897 C 176.059 1.75555 -0.694675 0
M  V30 1898 O 175.416 1.79379 0.33607 0
M  V30 1899 C 175.467 1.76792 -3.1532 0
M  V30 1900 O 175.188 0.943239 -4.27825 0
M  V30 1901 C 176.689 2.6081 -3.58459 0
M  V30 1902 H 173.909 0.260064 -0.618553 0
M  V30 1903 H 176.453 0.163428 -2.03846 0
M  V30 1904 H 174.608 2.45398 -2.99764 0
M  V30 1905 H 175.022 1.53998 -5.01383 0
M  V30 1906 H 176.496 3.17579 -4.51495 0
M  V30 1907 H 176.973 3.35977 -2.82872 0
M  V30 1908 H 177.579 1.97526 -3.76648 0
M  V30 1909 N 175.894 1.51508 0.433938 0
M  V30 1910 C 176.857 1.72473 1.50949 0
M  V30 1911 C 177.857 0.594725 1.49398 0
M  V30 1912 O 179.047 0.862315 1.5136 0
M  V30 1913 C 176.179 1.78431 2.90474 0
M  V30 1914 H 177.372 2.68467 1.33662 0
M  V30 1915 H 174.925 1.41549 0.662836 0
M  V30 1916 H 175.66 0.842645 3.13161 0
M  V30 1917 H 175.445 2.60558 2.93005 0
M  V30 1918 H 176.935 1.96479 3.68491 0
M  V30 1919 N 177.372 -0.689602 1.41712 0
M  V30 1920 C 178.597 -1.48329 1.44959 0
M  V30 1921 C 179.022 -1.8801 0.0581283 0
M  V30 1922 O 178.38 -1.55026 -0.940035 0
M  V30 1923 C 178.428 -2.71835 2.36935 0
M  V30 1924 O 177.532 -3.69549 1.8305 0
M  V30 1925 H 176.873 -0.446199 0.491734 0
M  V30 1926 H 179.403 -0.847127 1.86239 0
M  V30 1927 H 179.413 -3.20076 2.53013 0
M  V30 1928 H 178.088 -2.42291 3.38035 0
M  V30 1929 H 176.665 -3.2851 1.76452 0
M  V30 1930 N 178.85 -1.27639 -0.924453 0
M  V30 1931 C 180.099 -1.13549 -1.66702 0
M  V30 1932 C 180.412 0.317487 -1.93006 0
M  V30 1933 O 181.618 0.579333 -2.65247 0
M  V30 1934 C 180.074 -1.98426 -3.00259 0
M  V30 1935 C 179.682 -3.484 -2.81641 0
M  V30 1936 C 181.426 -1.92993 -3.78092 0
M  V30 1937 C 179.333 -4.25464 -4.10773 0
M  V30 1938 H 178.263 -0.421351 -0.625283 0
M  V30 1939 H 180.914 -1.52085 -1.02676 0
M  V30 1940 H 179.296 -1.52736 -3.6536 0
M  V30 1941 H 180.47 -4.01973 -2.25287 0
M  V30 1942 H 178.785 -3.55245 -2.17232 0
M  V30 1943 H 181.382 -2.47844 -4.7379 0
M  V30 1944 H 181.725 -0.904281 -4.0636 0
M  V30 1945 H 182.258 -2.36595 -3.19793 0
M  V30 1946 H 178.997 -5.28566 -3.87683 0
M  V30 1947 H 178.517 -3.76667 -4.66779 0
M  V30 1948 H 180.196 -4.34812 -4.79111 0
M  V30 1949 N 180.328 1.1314 -1.09713 0
M  V30 1950 C 181.258 2.20748 -0.761102 0
M  V30 1951 C 182.239 1.68061 0.262566 0
M  V30 1952 O 183.424 1.93765 0.129977 0
M  V30 1953 C 180.554 3.46812 -0.184054 0
M  V30 1954 C 179.508 4.12606 -1.13757 0
M  V30 1955 C 178.834 5.33031 -0.422083 0
M  V30 1956 C 180.134 4.59603 -2.48118 0
M  V30 1957 H 181.828 2.49113 -1.66082 0
M  V30 1958 H 179.374 1.19734 -0.799987 0
M  V30 1959 H 181.327 4.21353 0.0631215 0
M  V30 1960 H 180.051 3.17851 0.750868 0
M  V30 1961 H 178.71 3.40036 -1.37007 0
M  V30 1962 H 178.358 5.00335 0.517072 0
M  V30 1963 H 178.058 5.77999 -1.05788 0
M  V30 1964 H 179.582 6.10325 -0.183277 0
M  V30 1965 H 180.996 5.25552 -2.29059 0
M  V30 1966 H 179.393 5.15321 -3.07514 0
M  V30 1967 H 180.463 3.73971 -3.08665 0
M  V30 1968 N 181.806 0.884767 1.30421 0
M  V30 1969 C 182.754 0.340869 2.30089 0
M  V30 1970 C 183.748 -0.55201 1.60154 0
M  V30 1971 O 184.954 -0.436467 1.74628 0
M  V30 1972 H 181.329 0.0915739 0.746404 0
M  V30 1973 H 183.3 1.19513 2.73421 0
M  V30 1974 C 182.049 -0.429779 3.45034 0
M  V30 1975 H 181.372 0.248024 3.9903 0
M  V30 1976 H 182.812 -0.775445 4.16849 0
M  V30 1977 C 181.271 -1.62677 2.95022 0
M  V30 1978 O 181.801 -2.72614 2.95033 0
M  V30 1979 N 180.007 -1.46387 2.51036 0
M  V30 1980 H 179.554 -0.569506 2.51226 0
M  V30 1981 H 179.512 -2.26612 2.17932 0
M  V30 1982 N 183.284 -1.43765 0.645699 0
M  V30 1983 C 184.214 -2.33471 -0.0370477 0
M  V30 1984 C 185.195 -1.49042 -0.819779 0
M  V30 1985 O 186.38 -1.77726 -0.782758 0
M  V30 1986 C 183.51 -3.32311 -1.0093 0
M  V30 1987 C 182.464 -4.2667 -0.337201 0
M  V30 1988 C 181.79 -5.1549 -1.42037 0
M  V30 1989 C 183.09 -5.16657 0.765706 0
M  V30 1990 H 184.784 -2.90809 0.712069 0
M  V30 1991 H 182.33 -1.39834 0.343876 0
M  V30 1992 H 184.283 -3.9396 -1.49578 0
M  V30 1993 H 183.007 -2.73213 -1.78948 0
M  V30 1994 H 181.666 -3.66374 0.128771 0
M  V30 1995 H 181.314 -4.52735 -2.1918 0
M  V30 1996 H 181.014 -5.79438 -0.975966 0
M  V30 1997 H 182.538 -5.80012 -1.90838 0
M  V30 1998 H 183.952 -5.72158 0.361702 0
M  V30 1999 H 182.349 -5.89286 1.13413 0
M  V30 2000 H 183.419 -4.56796 1.62683 0
M  V30 2001 N 184.763 -0.387143 -1.52771 0
M  V30 2002 C 186.003 0.195537 -2.03463 0
M  V30 2003 C 186.367 1.44222 -1.26744 0
M  V30 2004 O 187.568 2.10192 -1.67549 0
M  V30 2005 C 185.839 0.459097 -3.54439 0
M  V30 2006 S 187.398 1.01237 -4.26962 0
M  V30 2007 H 184.216 0.0552675 -0.708849 0
M  V30 2008 H 186.818 -0.534992 -1.88037 0
M  V30 2009 H 185.522 -0.455382 -4.07866 0
M  V30 2010 H 185.053 1.21811 -3.74066 0
M  V30 2011 H 187.068 2.29492 -4.39941 0
M  V30 2012 N 186.241 1.57166 -0.116904 0
M  V30 2013 C 187.204 2.14039 0.819742 0
M  V30 2014 C 188.204 1.07477 1.19605 0
M  V30 2015 O 189.394 1.33263 1.1219 0
M  V30 2016 C 186.526 2.67891 2.10826 0
M  V30 2017 H 187.719 2.98128 0.325511 0
M  V30 2018 H 185.272 1.55739 0.132312 0
M  V30 2019 H 186.007 1.87384 2.64685 0
M  V30 2020 H 185.792 3.45823 1.84793 0
M  V30 2021 H 187.282 3.11809 2.77785 0
M  V30 2022 N 187.719 -0.156864 1.56817 0
M  V30 2023 C 188.968 -0.869504 1.81996 0
M  V30 2024 C 189.281 -1.82777 0.696545 0
M  V30 2025 O 190.487 -2.58384 0.833658 0
M  V30 2026 C 188.943 -1.59679 3.22538 0
M  V30 2027 C 188.551 -0.681431 4.42787 0
M  V30 2028 C 190.295 -2.2968 3.56997 0
M  V30 2029 C 188.202 -1.40978 5.74351 0
M  V30 2030 H 187.132 -0.328438 0.678708 0
M  V30 2031 H 189.783 -0.1223 1.83092 0
M  V30 2032 H 188.165 -2.38927 3.158 0
M  V30 2033 H 189.339 0.0751166 4.60739 0
M  V30 2034 H 187.654 -0.0903431 4.16302 0
M  V30 2035 H 190.251 -2.84794 4.52544 0
M  V30 2036 H 190.594 -3.05707 2.82576 0
M  V30 2037 H 191.127 -1.57361 3.65352 0
M  V30 2038 H 187.866 -0.691561 6.51842 0
M  V30 2039 H 187.386 -2.13929 5.60352 0
M  V30 2040 H 189.065 -1.95337 6.16808 0
M  V30 2041 N 189.197 -1.51736 -0.425897 0
M  V30 2042 C 190.422 -1.69082 -1.20108 0
M  V30 2043 C 190.847 -0.392398 -1.83962 0
M  V30 2044 O 190.205 0.64858 -1.69302 0
M  V30 2045 C 190.253 -2.81604 -2.25237 0
M  V30 2046 O 189.357 -2.46004 -3.30992 0
M  V30 2047 H 188.698 -0.563408 -0.35138 0
M  V30 2048 H 191.228 -1.98358 -0.501512 0
M  V30 2049 H 191.238 -3.06025 -2.69838 0
M  V30 2050 H 189.913 -3.75817 -1.78142 0
M  V30 2051 H 188.49 -2.32195 -2.91787 0
M  V30 2052 N 190.675 0.682077 -1.42076 0
M  V30 2053 C 191.924 1.43786 -1.41451 0
M  V30 2054 C 192.237 1.95574 -0.0317074 0
M  V30 2055 O 193.443 2.71326 0.0971462 0
M  V30 2056 C 191.899 2.60071 -2.48779 0
M  V30 2057 C 191.507 2.15013 -3.93031 0
M  V30 2058 C 193.251 3.37626 -2.57311 0
M  V30 2059 C 191.158 3.28336 -4.91883 0
M  V30 2060 H 190.088 0.540143 -0.526082 0
M  V30 2061 H 192.739 0.739157 -1.67955 0
M  V30 2062 H 191.121 3.32275 -2.15429 0
M  V30 2063 H 192.295 1.5001 -4.35699 0
M  V30 2064 H 190.61 1.50416 -3.88284 0
M  V30 2065 H 193.207 4.22012 -3.28345 0
M  V30 2066 H 193.55 3.83727 -1.61429 0
M  V30 2067 H 194.083 2.72488 -2.89819 0
M  V30 2068 H 190.822 2.87234 -5.89217 0
M  V30 2069 H 190.342 3.92145 -4.53853 0
M  V30 2070 H 192.021 3.93913 -5.13265 0
M  V30 2071 N 192.153 1.28127 0.917671 0
M  V30 2072 C 193.43 1.05761 1.64542 0
M  V30 2073 C 193.81 -0.404344 2.07191 0
M  V30 2074 O 193.158 -1.38963 1.81388 0
M  V30 2075 C 193.368 2.02857 2.83989 0
M  V30 2076 C 194.716 2.32786 3.551 0
M  V30 2077 O 195.74 2.0091 2.94132 0
M  V30 2078 O 194.599 2.87169 4.64969 0
M  V30 2079 H 191.693 0.403916 0.721652 0
M  V30 2080 H 194.239 1.39431 0.967322 0
M  V30 2081 H 193.011 3.01407 2.49538 0
M  V30 2082 H 192.634 1.69809 3.59514 0
M  V30 2083 N 193.631 -1.12557 1.10312 0
M  V30 2084 C 195.047 -1.36036 0.834649 0
M  V30 2085 C 195.247 -1.93946 -0.546539 0
M  V30 2086 O 194.303 -2.16484 -1.29966 0
M  V30 2087 C 195.616 -2.30312 1.9333 0
M  V30 2088 C 197.164 -2.43906 1.9616 0
M  V30 2089 C 197.639 -3.41496 3.05195 0
M  V30 2090 N 199.13 -3.49053 3.04494 0
M  V30 2091 C 199.865 -4.24471 3.85502 0
M  V30 2092 N 199.361 -5.02966 4.76442 0
M  V30 2093 N 201.154 -4.19864 3.73725 0
M  V30 2094 H 193.305 -0.733246 1.99342 0
M  V30 2095 H 195.568 -0.385234 0.866198 0
M  V30 2096 H 195.274 -1.94933 2.92735 0
M  V30 2097 H 195.148 -3.30421 1.81939 0
M  V30 2098 H 197.535 -2.78567 0.973886 0
M  V30 2099 H 197.616 -1.4369 2.11629 0
M  V30 2100 H 197.26 -3.07565 4.04186 0
M  V30 2101 H 197.19 -4.41539 2.86968 0
M  V30 2102 H 199.681 -2.93053 2.38596 0
M  V30 2103 H 199.994 -5.57846 5.34815 0
M  V30 2104 H 198.339 -5.02167 4.80472 0
M  V30 2105 H 201.53 -3.57623 3.02032 0
M  V30 2106 H 201.703 -4.78386 4.37093 0
M  V30 2107 N 195.109 -0.891671 -1.2995 0
M  V30 2108 C 196.339 -0.527893 -1.99742 0
M  V30 2109 C 196.747 0.88979 -1.66971 0
M  V30 2110 O 196.09 1.59766 -0.906667 0
M  V30 2111 C 196.152 -0.630804 -3.53922 0
M  V30 2112 C 195.816 -2.01401 -4.10228 0
M  V30 2113 C 196.813 -2.98422 -4.25724 0
M  V30 2114 C 194.498 -2.32121 -4.45449 0
M  V30 2115 C 196.492 -4.24293 -4.75662 0
M  V30 2116 C 194.179 -3.58237 -4.95086 0
M  V30 2117 C 195.177 -4.54137 -5.10146 0
M  V30 2118 O 194.865 -5.78014 -5.58708 0
M  V30 2119 H 194.597 -0.201953 -0.645129 0
M  V30 2120 H 197.151 -1.20076 -1.66646 0
M  V30 2121 H 195.381 0.0990616 -3.86573 0
M  V30 2122 H 197.07 -0.277338 -4.04951 0
M  V30 2123 H 197.836 -2.76001 -3.98809 0
M  V30 2124 H 193.715 -1.5824 -4.32991 0
M  V30 2125 H 197.259 -4.99153 -4.87332 0
M  V30 2126 H 193.156 -3.80491 -5.21437 0
M  V30 2127 H 193.924 -5.8049 -5.77039 0
M  V30 2128 N 196.587 1.43421 -0.653314 0
M  V30 2129 C 197.815 2.06163 -0.174491 0
M  V30 2130 C 198.23 1.48969 1.1599 0
M  V30 2131 O 197.587 0.621042 1.71608 0
M  V30 2132 C 197.638 3.61417 -0.0774865 0
M  V30 2133 O 197.359 4.16485 -1.35912 0
M  V30 2134 C 198.86 4.41235 0.427402 0
M  V30 2135 H 196.08 0.664946 -0.0899353 0
M  V30 2136 H 198.624 1.83924 -0.893988 0
M  V30 2137 H 196.779 3.82841 0.59257 0
M  V30 2138 H 197.193 5.10153 -1.21839 0
M  V30 2139 H 198.667 5.5021 0.44423 0
M  V30 2140 H 199.144 4.14268 1.45873 0
M  V30 2141 H 199.75 4.2478 -0.210167 0
M  V30 2142 N 198.065 0.39524 1.52563 0
M  V30 2143 C 199.028 -0.425001 2.25225 0
M  V30 2144 C 200.028 -0.985266 1.27079 0
M  V30 2145 O 201.218 -0.866332 1.5113 0
M  V30 2146 C 198.35 -1.59686 3.01186 0
M  V30 2147 H 199.543 0.211233 2.99155 0
M  V30 2148 H 197.096 0.147472 1.55603 0
M  V30 2149 H 197.831 -2.27035 2.31572 0
M  V30 2150 H 197.616 -1.20176 3.73229 0
M  V30 2151 H 199.106 -2.17743 3.5634 0
M  V30 2152 N 199.544 -1.57102 0.125237 0
M  V30 2153 C 200.79 -1.95697 -0.532035 0
M  V30 2154 C 201.123 -1.009 -1.6593 0
M  V30 2155 O 200.398 -0.047347 -1.94442 0
M  V30 2156 C 200.681 -3.44181 -1.05884 0
M  V30 2157 C 200.534 -4.49752 0.0654392 0
M  V30 2158 C 201.853 -3.94655 -1.9477 0
M  V30 2159 H 198.972 -0.711571 -0.191925 0
M  V30 2160 H 201.614 -1.88923 0.20206 0
M  V30 2161 H 199.764 -3.50085 -1.68442 0
M  V30 2162 H 201.436 -4.55943 0.700982 0
M  V30 2163 H 199.679 -4.27653 0.727709 0
M  V30 2164 H 200.35 -5.50924 -0.344505 0
M  V30 2165 H 202.826 -3.91094 -1.42074 0
M  V30 2166 H 201.702 -4.99057 -2.28546 0
M  V30 2167 H 201.963 -3.35718 -2.87656 0
M  V30 2168 N 201.022 0.148545 -1.56898 0
M  V30 2169 C 201.985 1.16736 -1.97244 0
M  V30 2170 C 202.985 1.35947 -0.858777 0
M  V30 2171 O 204.175 1.32966 -1.12542 0
M  V30 2172 C 201.307 2.52798 -2.28705 0
M  V30 2173 H 202.5 0.821279 -2.88435 0
M  V30 2174 H 200.053 0.391831 -1.51309 0
M  V30 2175 H 200.788 2.92381 -1.403 0
M  V30 2176 H 200.573 2.40216 -3.09901 0
M  V30 2177 H 202.063 3.26179 -2.60762 0
M  V30 2178 N 202.5 1.5196 0.417844 0
M  V30 2179 C 203.433 1.69387 1.52916 0
M  V30 2180 C 204.411 0.541419 1.53321 0
M  V30 2181 O 205.595 0.767695 1.72159 0
M  V30 2182 C 202.722 1.72525 2.91467 0
M  V30 2183 C 201.768 2.93967 3.09008 0
M  V30 2184 S 202.601 4.54461 2.83242 0
M  V30 2185 C 203.757 4.60372 4.24038 0
M  V30 2186 H 203.99 2.63382 1.37903 0
M  V30 2187 H 201.523 1.41889 0.608845 0
M  V30 2188 H 203.481 1.75018 3.7132 0
M  V30 2189 H 202.142 0.796733 3.03827 0
M  V30 2190 H 201.335 2.92619 4.10353 0
M  V30 2191 H 200.937 2.89316 2.37007 0
M  V30 2192 H 203.229 4.37213 5.17544 0
M  V30 2193 H 204.172 5.62273 4.30412 0
M  V30 2194 H 204.58 3.89492 4.08602 0
M  V30 2195 N 203.978 -0.674533 1.42435 0
M  V30 2196 C 205.389 -1.25514 1.38214 0
M  V30 2197 C 205.74 -1.96055 0.0755464 0
M  V30 2198 O 204.865 -2.00028 -0.8257 0
M  V30 2199 C 205.46 -2.28269 2.50357 0
M  V30 2200 C 204.019 -2.81856 2.49467 0
M  V30 2201 C 203.166 -1.56182 2.29134 0
M  V30 2202 H 206.117 -0.467902 1.51646 0
M  V30 2203 H 206.138 -3.10009 2.20624 0
M  V30 2204 H 205.65 -1.769 3.45439 0
M  V30 2205 H 203.751 -3.37346 1.58204 0
M  V30 2206 H 203.864 -3.30854 3.46515 0
M  V30 2207 H 202.228 -1.82761 1.774 0
M  V30 2208 H 203.011 -1.06778 3.26272 0
M  V30 2209 N 205.456 -1.28612 -0.910864 0
M  V30 2210 C 206.389 -1.07109 -2.01502 0
M  V30 2211 C 207.367 0.013706 -1.62594 0
M  V30 2212 O 208.551 -0.134796 -1.88017 0
M  V30 2213 C 205.678 -0.628255 -3.32822 0
M  V30 2214 C 204.724 -1.71012 -3.90714 0
M  V30 2215 S 205.557 -3.30676 -4.21205 0
M  V30 2216 C 206.713 -2.88234 -5.55583 0
M  V30 2217 H 206.946 -2.00591 -2.19432 0
M  V30 2218 H 204.479 -1.12633 -1.05609 0
M  V30 2219 H 206.437 -0.37946 -4.08742 0
M  V30 2220 H 205.098 0.28678 -3.12788 0
M  V30 2221 H 204.291 -1.35195 -4.85529 0
M  V30 2222 H 203.893 -1.91186 -3.21441 0
M  V30 2223 H 206.185 -2.34584 -6.35591 0
M  V30 2224 H 207.128 -3.81857 -5.96314 0
M  V30 2225 H 207.536 -2.26862 -5.16908 0
M  V30 2226 N 206.934 1.1197 -1.10907 0
M  V30 2227 C 207.864 2.19928 -0.784473 0
M  V30 2228 C 208.845 1.6833 0.244726 0
M  V30 2229 O 210.03 1.93892 0.109418 0
M  V30 2230 C 207.16 3.46597 -0.220827 0
M  V30 2231 C 206.114 4.11376 -1.18127 0
M  V30 2232 C 205.44 5.32554 -0.478594 0
M  V30 2233 C 206.74 4.56945 -2.52979 0
M  V30 2234 H 208.434 2.47337 -1.68715 0
M  V30 2235 H 205.98 1.18879 -0.812642 0
M  V30 2236 H 207.933 4.21396 0.0184278 0
M  V30 2237 H 206.657 3.1863 0.717113 0
M  V30 2238 H 205.316 3.38564 -1.40606 0
M  V30 2239 H 204.964 5.00856 0.463976 0
M  V30 2240 H 204.664 5.76844 -1.11912 0
M  V30 2241 H 206.188 6.10096 -0.248 0
M  V30 2242 H 207.602 5.23093 -2.3462 0
M  V30 2243 H 205.999 5.1203 -3.12962 0
M  V30 2244 H 207.069 3.70676 -3.12614 0
M  V30 2245 N 208.412 0.89855 1.29475 0
M  V30 2246 C 209.642 0.538479 1.99459 0
M  V30 2247 C 210.05 -0.880922 1.67441 0
M  V30 2248 O 209.393 -1.59283 0.915127 0
M  V30 2249 C 209.455 0.649564 3.53583 0
M  V30 2250 C 209.119 2.03573 4.09154 0
M  V30 2251 C 210.116 3.00675 4.24135 0
M  V30 2252 C 207.801 2.3448 4.44212 0
M  V30 2253 C 209.795 4.26809 4.73405 0
M  V30 2254 C 207.482 3.60857 4.93179 0
M  V30 2255 C 208.48 4.56836 5.0773 0
M  V30 2256 O 208.168 5.80969 5.55635 0
M  V30 2257 H 207.9 0.205372 0.644048 0
M  V30 2258 H 210.454 1.20958 1.66007 0
M  V30 2259 H 208.684 -0.0785592 3.8662 0
M  V30 2260 H 210.373 0.29881 4.04799 0
M  V30 2261 H 211.139 2.78112 3.97339 0
M  V30 2262 H 207.018 1.60534 4.32145 0
M  V30 2263 H 210.562 5.0173 4.84678 0
M  V30 2264 H 206.459 3.83251 5.19412 0
M  V30 2265 H 207.227 5.83542 5.73952 0
M  V30 2266 N 209.89 -1.43072 0.660911 0
M  V30 2267 C 210.838 -2.32569 -0.0378199 0
M  V30 2268 C 211.832 -1.49046 -0.805092 0
M  V30 2269 O 213.038 -1.65206 -0.714624 0
M  V30 2270 H 209.413 -0.75136 -0.031019 0
M  V30 2271 H 211.384 -2.89216 0.734609 0
M  V30 2272 C 210.133 -3.33453 -0.985124 0
M  V30 2273 H 209.456 -3.97752 -0.404147 0
M  V30 2274 H 210.896 -3.98691 -1.44297 0
M  V30 2275 C 209.355 -2.64642 -2.08486 0
M  V30 2276 O 209.885 -2.46776 -3.16961 0
M  V30 2277 N 208.091 -2.23891 -1.8526 0
M  V30 2278 H 207.638 -2.38621 -0.970449 0
M  V30 2279 H 207.596 -1.78181 -2.59034 0
M  V30 2280 N 211.368 -0.403325 -1.52352 0
M  V30 2281 C 212.596 0.174012 -2.06167 0
M  V30 2282 C 213.011 1.39347 -1.27388 0
M  V30 2283 O 212.368 1.79597 -0.324201 0
M  V30 2284 C 212.419 0.530223 -3.5759 0
M  V30 2285 O 212.14 -0.640806 -4.33388 0
M  V30 2286 C 213.641 1.16192 -4.27802 0
M  V30 2287 H 210.861 0.0229464 -0.670608 0
M  V30 2288 H 213.405 -0.572604 -1.9632 0
M  V30 2289 H 211.56 1.22673 -3.67464 0
M  V30 2290 H 211.974 -0.344851 -5.23365 0
M  V30 2291 H 213.448 1.36141 -5.34948 0
M  V30 2292 H 213.925 2.13335 -3.83907 0
M  V30 2293 H 214.531 0.505775 -4.22282 0
M  V30 2294 N 212.846 1.57033 -0.133567 0
M  V30 2295 C 214.262 1.58035 0.222944 0
M  V30 2296 C 214.462 1.14713 1.6566 0
M  V30 2297 O 213.518 0.841218 2.38075 0
M  V30 2298 C 214.831 3.00691 -0.0236116 0
M  V30 2299 C 216.379 3.12973 0.0411512 0
M  V30 2300 C 216.854 4.57654 -0.177899 0
M  V30 2301 N 218.345 4.63033 -0.124365 0
M  V30 2302 C 219.08 5.72771 -0.268553 0
M  V30 2303 N 218.576 6.91206 -0.46972 0
M  V30 2304 N 220.369 5.61718 -0.2071 0
M  V30 2305 H 212.52 1.8349 -1.06981 0
M  V30 2306 H 214.783 0.848677 -0.422436 0
M  V30 2307 H 214.489 3.36726 -1.0153 0
M  V30 2308 H 214.363 3.70614 0.701808 0
M  V30 2309 H 216.75 2.76787 1.02338 0
M  V30 2310 H 216.831 2.45564 -0.716383 0
M  V30 2311 H 216.475 4.94542 -1.15717 0
M  V30 2312 H 216.405 5.23173 0.599797 0
M  V30 2313 H 218.896 3.7789 0.027011 0
M  V30 2314 H 219.209 7.70693 -0.570212 0
M  V30 2315 H 217.554 6.93156 -0.505876 0
M  V30 2316 H 220.745 4.68072 -0.0507986 0
M  V30 2317 H 220.918 6.47195 -0.322909 0
M  V30 2318 N 214.325 -0.140222 1.56975 0
M  V30 2319 C 215.555 -0.865181 1.87612 0
M  V30 2320 C 215.963 -1.74942 0.72055 0
M  V30 2321 O 215.306 -1.80917 -0.318561 0
M  V30 2322 C 215.368 -1.76782 3.13031 0
M  V30 2323 C 215.032 -1.06005 4.44536 0
M  V30 2324 C 216.029 -0.410768 5.18275 0
M  V30 2325 C 213.714 -1.04754 4.91255 0
M  V30 2326 C 215.708 0.241572 6.36942 0
M  V30 2327 C 213.395 -0.391394 6.09845 0
M  V30 2328 C 214.393 0.252029 6.82535 0
M  V30 2329 O 214.081 0.897757 7.98871 0
M  V30 2330 H 213.813 -0.255188 0.625983 0
M  V30 2331 H 216.367 -0.135653 2.04952 0
M  V30 2332 H 214.597 -2.53846 2.91718 0
M  V30 2333 H 216.286 -2.36533 3.29859 0
M  V30 2334 H 217.052 -0.412195 4.83245 0
M  V30 2335 H 212.931 -1.53777 4.34596 0
M  V30 2336 H 216.475 0.744375 6.93617 0
M  V30 2337 H 212.372 -0.387656 6.44335 0
M  V30 2338 H 213.14 0.800102 8.1458 0
M  V30 2339 N 215.803 -1.52179 -0.40978 0
M  V30 2340 C 217.028 -1.70347 -1.18308 0
M  V30 2341 C 217.453 -0.411887 -1.83535 0
M  V30 2342 O 216.811 0.630587 -1.6998 0
M  V30 2343 C 216.859 -2.83977 -2.22238 0
M  V30 2344 O 215.963 -2.495 -3.28365 0
M  V30 2345 H 215.304 -0.567103 -0.345384 0
M  V30 2346 H 217.834 -1.98879 -0.480445 0
M  V30 2347 H 217.844 -3.0887 -2.66577 0
M  V30 2348 H 216.519 -3.77685 -1.74146 0
M  V30 2349 H 215.096 -2.35277 -2.89308 0
M  V30 2350 N 217.281 0.66697 -1.42791 0
M  V30 2351 C 218.506 1.46004 -1.47301 0
M  V30 2352 C 218.931 1.87894 -0.0880317 0
M  V30 2353 O 218.289 1.56502 0.915253 0
M  V30 2354 C 218.337 2.68031 -2.41229 0
M  V30 2355 O 217.441 3.6659 -1.88906 0
M  V30 2356 H 216.782 0.43832 -0.49877 0
M  V30 2357 H 219.312 0.817391 -1.87563 0
M  V30 2358 H 219.322 3.1601 -2.58073 0
M  V30 2359 H 217.997 2.36883 -3.41847 0
M  V30 2360 H 216.574 3.25661 -1.81656 0
M  V30 2361 N 218.759 1.29093 0.90403 0
M  V30 2362 C 219.706 1.13853 2.00764 0
M  V30 2363 C 220.676 0.0330084 1.66067 0
M  V30 2364 O 221.861 0.199733 1.89752 0
M  V30 2365 C 219.001 0.816537 3.35301 0
M  V30 2366 C 218.114 2.00206 3.82807 0
M  V30 2367 C 217.249 1.61983 5.059 0
M  V30 2368 C 216.288 2.77143 5.45764 0
M  V30 2369 N 215.425 2.39346 6.60044 0
M  V30 2370 H 220.265 2.08276 2.13132 0
M  V30 2371 H 217.802 1.03648 1.04381 0
M  V30 2372 H 219.76 0.610557 4.12708 0
M  V30 2373 H 218.39 -0.090779 3.22672 0
M  V30 2374 H 217.442 2.31988 3.01473 0
M  V30 2375 H 218.754 2.86512 4.08304 0
M  V30 2376 H 217.908 1.37649 5.90879 0
M  V30 2377 H 216.647 0.728202 4.82233 0
M  V30 2378 H 215.652 3.02165 4.59322 0
M  V30 2379 H 216.877 3.66964 5.71414 0
M  V30 2380 H 214.823 1.52665 6.37989 0
M  V30 2381 H 214.74 3.19185 6.85315 0
M  V30 2382 H 216.008 2.1832 7.48303 0
M  V30 2383 N 220.237 -1.11381 1.11499 0
M  V30 2384 C 221.653 -1.35143 0.849031 0
M  V30 2385 C 221.853 -1.94515 -0.525938 0
M  V30 2386 O 220.909 -2.1785 -1.27662 0
M  V30 2387 C 222.222 -2.28249 1.95762 0
M  V30 2388 C 223.77 -2.41812 1.98736 0
M  V30 2389 C 224.245 -3.3824 3.088 0
M  V30 2390 N 225.736 -3.45803 3.08179 0
M  V30 2391 C 226.471 -4.20358 3.89982 0
M  V30 2392 N 225.967 -4.97884 4.8175 0
M  V30 2393 N 227.76 -4.15877 3.78157 0
M  V30 2394 H 219.911 -0.712062 2.00109 0
M  V30 2395 H 222.174 -0.376025 0.870235 0
M  V30 2396 H 221.88 -1.91817 2.94787 0
M  V30 2397 H 221.754 -3.28473 1.85433 0
M  V30 2398 H 224.141 -2.77518 1.00338 0
M  V30 2399 H 224.222 -1.41437 2.13141 0
M  V30 2400 H 223.866 -3.03261 4.07425 0
M  V30 2401 H 223.796 -4.38471 2.91635 0
M  V30 2402 H 226.287 -2.90506 2.41691 0
M  V30 2403 H 226.6 -5.52142 5.40702 0
M  V30 2404 H 224.945 -4.97043 4.85771 0
M  V30 2405 H 228.136 -3.544 3.05808 0
M  V30 2406 H 228.309 -4.73723 4.42143 0
M  V30 2407 N 221.715 -0.905404 -1.28997 0
M  V30 2408 C 223.131 -0.60233 -1.47798 0
M  V30 2409 C 223.331 0.854645 -1.82478 0
M  V30 2410 O 222.387 1.63439 -1.92468 0
M  V30 2411 C 223.7 -1.53306 -2.58685 0
M  V30 2412 C 225.248 -1.53887 -2.72558 0
M  V30 2413 C 225.723 -2.45602 -3.86579 0
M  V30 2414 N 227.214 -2.43681 -3.93921 0
M  V30 2415 C 227.949 -3.11347 -4.81509 0
M  V30 2416 N 227.445 -3.88313 -5.73746 0
M  V30 2417 N 229.238 -3.00476 -4.75048 0
M  V30 2418 H 221.389 -1.84765 -1.04764 0
M  V30 2419 H 223.652 -0.792025 -0.520961 0
M  V30 2420 H 223.358 -2.57141 -2.39941 0
M  V30 2421 H 223.232 -1.25787 -3.55609 0
M  V30 2422 H 225.619 -0.507941 -2.90696 0
M  V30 2423 H 225.7 -1.85447 -1.76191 0
M  V30 2424 H 225.344 -3.48792 -3.69197 0
M  V30 2425 H 225.274 -2.11349 -4.82327 0
M  V30 2426 H 227.765 -1.87767 -3.27951 0
M  V30 2427 H 228.078 -4.36985 -6.37389 0
M  V30 2428 H 226.423 -3.92419 -5.73614 0
M  V30 2429 H 229.614 -2.39858 -4.01977 0
M  V30 2430 H 229.787 -3.53485 -5.43095 0
M  V30 2431 N 223.193 1.4272 -0.668489 0
M  V30 2432 C 224.439 2.01923 -0.188419 0
M  V30 2433 C 224.772 1.52704 1.19979 0
M  V30 2434 O 224.047 0.726566 1.8042 0
M  V30 2435 C 224.33 3.59451 -0.216085 0
M  V30 2436 C 224.183 4.18864 -1.6393 0
M  V30 2437 C 225.502 4.37903 0.439179 0
M  V30 2438 H 222.621 0.733674 -0.0699412 0
M  V30 2439 H 225.263 1.69822 -0.852076 0
M  V30 2440 H 223.413 3.86929 0.349012 0
M  V30 2441 H 225.085 4.02362 -2.25616 0
M  V30 2442 H 223.328 3.74933 -2.18193 0
M  V30 2443 H 223.999 5.27987 -1.61039 0
M  V30 2444 H 226.475 4.16079 -0.0417878 0
M  V30 2445 H 225.351 5.47519 0.389157 0
M  V30 2446 H 225.612 4.15303 1.51577 0
M  V30 2447 N 224.671 0.411399 1.52136 0
M  V30 2448 C 225.899 -0.163076 2.06256 0
M  V30 2449 C 226.314 -1.3867 1.28125 0
M  V30 2450 O 225.671 -1.79423 0.333721 0
M  V30 2451 C 225.722 -0.511252 3.57867 0
M  V30 2452 O 225.443 0.66378 4.33042 0
M  V30 2453 C 226.944 -1.13921 4.28412 0
M  V30 2454 H 224.164 -0.0193897 0.67072 0
M  V30 2455 H 226.708 0.583007 1.96013 0
M  V30 2456 H 224.863 -1.20723 3.6811 0
M  V30 2457 H 225.277 0.372601 5.23175 0
M  V30 2458 H 226.751 -1.33302 5.35663 0
M  V30 2459 H 227.228 -2.11296 3.85033 0
M  V30 2460 H 227.834 -0.483373 4.22544 0
M  V30 2461 N 226.149 -1.5696 0.141893 0
M  V30 2462 C 227.395 -1.9625 -0.511248 0
M  V30 2463 C 227.728 -1.02654 -1.64851 0
M  V30 2464 O 227.003 -0.0679676 -1.94381 0
M  V30 2465 C 227.286 -3.45285 -1.02227 0
M  V30 2466 C 227.139 -4.49658 0.113138 0
M  V30 2467 C 228.458 -3.96698 -1.90574 0
M  V30 2468 H 225.577 -0.713567 -0.184367 0
M  V30 2469 H 228.219 -1.88698 0.222087 0
M  V30 2470 H 226.369 -3.51852 -1.64719 0
M  V30 2471 H 228.041 -4.55174 0.749302 0
M  V30 2472 H 226.284 -4.26857 0.773026 0
M  V30 2473 H 226.955 -5.51258 -0.286053 0
M  V30 2474 H 229.431 -3.92578 -1.37918 0
M  V30 2475 H 228.307 -5.01453 -2.2324 0
M  V30 2476 H 228.568 -3.3875 -2.84079 0
M  V30 2477 N 227.627 0.131896 -1.57047 0
M  V30 2478 C 228.56 1.19236 -1.94571 0
M  V30 2479 C 229.538 1.40782 -0.813576 0
M  V30 2480 O 230.722 1.55148 -1.07058 0
M  V30 2481 C 227.849 2.54858 -2.23081 0
M  V30 2482 C 226.895 2.49817 -3.45679 0
M  V30 2483 S 227.728 1.95036 -4.98719 0
M  V30 2484 C 228.884 3.32357 -5.30367 0
M  V30 2485 H 229.117 0.872297 -2.84215 0
M  V30 2486 H 226.65 0.338134 -1.50652 0
M  V30 2487 H 228.608 3.32898 -2.40185 0
M  V30 2488 H 227.269 2.84047 -1.34074 0
M  V30 2489 H 226.462 3.49688 -3.62952 0
M  V30 2490 H 226.064 1.79892 -3.27895 0
M  V30 2491 H 228.356 4.28525 -5.2476 0
M  V30 2492 H 229.299 3.19923 -6.31708 0
M  V30 2493 H 229.707 3.3019 -4.57859 0
M  V30 2494 N 229.106 1.52395 0.401703 0
M  V30 2495 C 230.355 1.66044 1.14509 0
M  V30 2496 C 230.668 0.400216 1.91462 0
M  V30 2497 O 231.874 0.416632 2.68284 0
M  V30 2498 C 230.33 2.93388 2.0845 0
M  V30 2499 C 229.938 4.26545 1.36978 0
M  V30 2500 C 231.682 3.16402 2.83001 0
M  V30 2501 C 229.589 5.45007 2.29611 0
M  V30 2502 H 228.519 0.618562 0.431158 0
M  V30 2503 H 231.17 1.78886 0.40892 0
M  V30 2504 H 229.552 2.74263 2.8565 0
M  V30 2505 H 230.726 4.56179 0.650916 0
M  V30 2506 H 229.041 4.09692 0.74438 0
M  V30 2507 H 231.638 4.02085 3.52465 0
M  V30 2508 H 231.981 2.30943 3.46368 0
M  V30 2509 H 232.514 3.36034 2.12898 0
M  V30 2510 H 229.253 6.32835 1.70879 0
M  V30 2511 H 228.773 5.19702 2.9945 0
M  V30 2512 H 230.452 5.7838 2.89974 0
M  V30 2513 N 230.584 -0.659388 1.43143 0
M  V30 2514 C 231.809 -1.45221 1.48073 0
M  V30 2515 C 232.234 -1.87845 0.097995 0
M  V30 2516 O 231.592 -1.56985 -0.90694 0
M  V30 2517 C 231.64 -2.66748 2.42647 0
M  V30 2518 O 230.744 -3.65583 1.90848 0
M  V30 2519 H 230.085 -0.435669 0.501088 0
M  V30 2520 H 232.615 -0.807432 1.87994 0
M  V30 2521 H 232.625 -3.14637 2.59745 0
M  V30 2522 H 231.3 -2.35067 3.43098 0
M  V30 2523 H 229.877 -3.24693 1.83381 0
M  V30 2524 N 232.062 -1.29571 -0.897171 0
M  V30 2525 C 233.311 -1.1706 -1.64256 0
M  V30 2526 C 233.624 0.276476 -1.93636 0
M  V30 2527 O 234.83 0.52294 -2.66416 0
M  V30 2528 C 233.286 -2.0475 -2.95982 0
M  V30 2529 C 232.894 -3.54295 -2.74187 0
M  V30 2530 C 234.638 -2.0097 -3.73914 0
M  V30 2531 C 232.545 -4.34081 -4.01656 0
M  V30 2532 H 231.475 -0.43452 -0.616205 0
M  V30 2533 H 234.126 -1.54229 -0.994268 0
M  V30 2534 H 232.508 -1.60452 -3.62038 0
M  V30 2535 H 233.682 -4.06662 -2.1671 0
M  V30 2536 H 231.997 -3.59773 -2.09648 0
M  V30 2537 H 234.594 -2.57838 -4.68427 0
M  V30 2538 H 234.937 -0.990273 -4.0435 0
M  V30 2539 H 235.47 -2.43325 -3.14703 0
M  V30 2540 H 232.209 -5.36671 -3.76384 0
M  V30 2541 H 231.729 -3.86483 -4.58684 0
M  V30 2542 H 233.408 -4.44877 -4.69781 0
M  V30 2543 N 233.54 1.10788 -1.12088 0
M  V30 2544 C 234.786 1.82942 -0.875226 0
M  V30 2545 C 235.119 1.84779 0.597538 0
M  V30 2546 O 234.394 1.30578 1.44152 0
M  V30 2547 C 234.677 3.29789 -1.44606 0
M  V30 2548 C 234.53 3.36307 -2.98693 0
M  V30 2549 C 235.849 4.26064 -1.10261 0
M  V30 2550 H 232.968 0.664195 -0.319397 0
M  V30 2551 H 235.61 1.29867 -1.38689 0
M  V30 2552 H 233.76 3.75118 -1.01089 0
M  V30 2553 H 235.432 2.99487 -3.50864 0
M  V30 2554 H 233.675 2.76318 -3.34411 0
M  V30 2555 H 234.346 4.39694 -3.33726 0
M  V30 2556 H 236.822 3.88951 -1.4784 0
M  V30 2557 H 235.698 5.27183 -1.52869 0
M  V30 2558 H 235.959 4.42098 -0.0142953 0
M  V30 2559 N 235.018 0.912232 1.28515 0
M  V30 2560 C 236.264 0.554851 1.95686 0
M  V30 2561 C 236.619 -0.89138 1.70506 0
M  V30 2562 O 235.912 -1.62529 1.01464 0
M  V30 2563 C 236.106 0.798392 3.48368 0
M  V30 2564 C 235.935 2.26674 3.88393 0
M  V30 2565 C 234.705 2.91657 4.12631 0
M  V30 2566 C 236.903 3.24303 3.99164 0
M  V30 2567 N 234.885 4.28805 4.39317 0
M  V30 2568 C 236.256 4.4661 4.30046 0
M  V30 2569 C 238.311 3.19723 3.81683 0
M  V30 2570 C 237.014 5.64915 4.45268 0
M  V30 2571 C 239.04 4.37325 3.98121 0
M  V30 2572 C 238.402 5.58406 4.29375 0
M  V30 2573 H 234.501 0.252876 0.739985 0
M  V30 2574 H 237.085 1.17565 1.55199 0
M  V30 2575 H 235.256 0.20688 3.87849 0
M  V30 2576 H 236.988 0.405193 4.02666 0
M  V30 2577 H 233.743 2.42393 4.06869 0
M  V30 2578 H 234.167 4.99712 4.56746 0
M  V30 2579 H 238.809 2.27191 3.56573 0
M  V30 2580 H 236.527 6.57927 4.6921 0
M  V30 2581 H 240.113 4.35282 3.86033 0
M  V30 2582 H 238.993 6.47889 4.41825 0
M  V30 2583 N 236.496 -1.42363 0.676048 0
M  V30 2584 C 237.742 -2.0182 0.199125 0
M  V30 2585 C 238.075 -1.53339 -1.19168 0
M  V30 2586 O 237.35 -0.736124 -1.80032 0
M  V30 2587 C 237.633 -3.59331 0.235144 0
M  V30 2588 C 237.486 -4.17989 1.66149 0
M  V30 2589 C 238.805 -4.3813 -0.41595 0
M  V30 2590 H 235.924 -0.733293 0.0738311 0
M  V30 2591 H 238.566 -1.69368 0.86107 0
M  V30 2592 H 236.716 -3.87109 -0.328487 0
M  V30 2593 H 238.388 -4.0116 2.27747 0
M  V30 2594 H 236.631 -3.7377 2.20178 0
M  V30 2595 H 237.302 -5.27126 1.63837 0
M  V30 2596 H 239.778 -4.16051 0.0638529 0
M  V30 2597 H 238.654 -5.47717 -0.360115 0
M  V30 2598 H 238.915 -4.16101 -1.49373 0
M  V30 2599 N 237.974 -0.419461 -1.51915 0
M  V30 2600 C 238.904 0.391813 -2.30189 0
M  V30 2601 C 239.885 1.03699 -1.34836 0
M  V30 2602 O 241.07 1.04403 -1.63748 0
M  V30 2603 C 238.2 1.50312 -3.13087 0
M  V30 2604 C 237.154 0.9824 -4.16573 0
M  V30 2605 C 236.48 2.18809 -4.8788 0
M  V30 2606 C 237.78 0.0292356 -5.22292 0
M  V30 2607 H 239.474 -0.26135 -2.98257 0
M  V30 2608 H 237.02 -0.127134 -1.43438 0
M  V30 2609 H 238.973 2.07773 -3.66617 0
M  V30 2610 H 237.697 2.18431 -2.42807 0
M  V30 2611 H 236.356 0.430119 -3.64068 0
M  V30 2612 H 236.004 2.85507 -4.14119 0
M  V30 2613 H 235.704 1.84615 -5.57845 0
M  V30 2614 H 237.228 2.76858 -5.44226 0
M  V30 2615 H 238.642 0.512976 -5.71 0
M  V30 2616 H 237.039 -0.2244 -5.9968 0
M  V30 2617 H 238.109 -0.912931 -4.76228 0
M  V30 2618 N 239.452 1.56882 -0.150215 0
M  V30 2619 C 240.677 2.01027 0.510184 0
M  V30 2620 C 241.102 1.02966 1.57415 0
M  V30 2621 O 240.46 0.00590158 1.81299 0
M  V30 2622 C 240.508 3.43899 1.08472 0
M  V30 2623 O 239.612 3.4885 2.19948 0
M  V30 2624 H 238.953 0.652233 0.124451 0
M  V30 2625 H 241.483 2.03093 -0.247894 0
M  V30 2626 H 241.493 3.82766 1.41259 0
M  V30 2627 H 240.168 4.14776 0.305582 0
M  V30 2628 H 238.745 3.21827 1.88366 0
M  V30 2629 N 240.93 -0.123565 1.57115 0
M  V30 2630 C 242.177 -0.832153 1.84612 0
M  V30 2631 C 242.505 -1.80093 0.734627 0
M  V30 2632 O 241.76 -1.93766 -0.27442 0
M  V30 2633 C 242.059 -1.62016 3.18568 0
M  V30 2634 C 241.725 -0.796084 4.43817 0
M  V30 2635 C 240.387 -0.568816 4.77826 0
M  V30 2636 C 242.739 -0.221364 5.2073 0
M  V30 2637 C 240.067 0.243499 5.86194 0
M  V30 2638 C 242.419 0.578117 6.29953 0
M  V30 2639 C 241.083 0.815744 6.62497 0
M  V30 2640 H 240.353 -0.304507 0.675542 0
M  V30 2641 H 243 -0.0947248 1.91266 0
M  V30 2642 H 241.305 -2.42837 3.0747 0
M  V30 2643 H 243.002 -2.17231 3.37064 0
M  V30 2644 H 239.592 -0.983307 4.17168 0
M  V30 2645 H 243.776 -0.384173 4.94811 0
M  V30 2646 H 239.032 0.436871 6.09837 0
M  V30 2647 H 243.206 1.03046 6.88734 0
M  V30 2648 H 240.833 1.44701 7.46301 0
M  V30 2649 N 242.408 -1.52605 -0.393616 0
M  V30 2650 C 243.636 -1.71294 -1.16043 0
M  V30 2651 C 244.051 -0.429259 -1.83855 0
M  V30 2652 O 243.408 0.595921 -1.72496 0
M  V30 2653 C 243.459 -2.8593 -2.21193 0
M  V30 2654 O 243.18 -4.09329 -1.56146 0
M  V30 2655 C 244.681 -3.16259 -3.10636 0
M  V30 2656 H 241.901 -0.573641 -0.348104 0
M  V30 2657 H 244.445 -1.99234 -0.461092 0
M  V30 2658 H 242.6 -2.60465 -2.86769 0
M  V30 2659 H 243.014 -4.73323 -2.25978 0
M  V30 2660 H 244.488 -3.99946 -3.80456 0
M  V30 2661 H 244.965 -2.3045 -3.73884 0
M  V30 2662 H 245.571 -3.43547 -2.50711 0
M  V30 2663 N 243.887 0.651787 -1.4349 0
M  V30 2664 C 245.136 1.40754 -1.44469 0
M  V30 2665 C 245.449 1.95463 -0.0731845 0
M  V30 2666 O 246.655 2.71471 0.0395721 0
M  V30 2667 C 245.111 2.54735 -2.5424 0
M  V30 2668 C 244.719 2.06628 -3.97504 0
M  V30 2669 C 246.463 3.32092 -2.64414 0
M  V30 2670 C 244.37 3.17829 -4.98737 0
M  V30 2671 H 243.3 0.528862 -0.53742 0
M  V30 2672 H 245.951 0.703365 -1.69485 0
M  V30 2673 H 244.333 3.2763 -2.22428 0
M  V30 2674 H 245.507 1.40734 -4.38783 0
M  V30 2675 H 243.822 1.42146 -3.91387 0
M  V30 2676 H 246.419 4.14952 -3.37223 0
M  V30 2677 H 246.762 3.80217 -1.69532 0
M  V30 2678 H 247.295 2.66279 -2.95534 0
M  V30 2679 H 244.034 2.74671 -5.95177 0
M  V30 2680 H 243.554 3.82429 -4.62069 0
M  V30 2681 H 245.233 3.82937 -5.21505 0
M  V30 2682 N 245.365 1.30045 0.890287 0
M  V30 2683 C 246.59 1.21598 1.68014 0
M  V30 2684 C 247.015 -0.218678 1.86825 0
M  V30 2685 O 246.373 -1.15756 1.39536 0
M  V30 2686 C 246.421 1.94434 3.03691 0
M  V30 2687 O 245.525 1.2678 3.92429 0
M  V30 2688 H 244.866 0.420856 0.513592 0
M  V30 2689 H 247.396 1.71775 1.11151 0
M  V30 2690 H 247.406 2.03251 3.5377 0
M  V30 2691 H 246.081 2.98777 2.89318 0
M  V30 2692 H 244.658 1.26282 3.50866 0
M  V30 2693 N 246.843 -1.10192 1.12674 0
M  V30 2694 C 248.083 -1.83825 0.893736 0
M  V30 2695 C 248.447 -1.83341 -0.570082 0
M  V30 2696 O 249.648 -2.52553 -0.920354 0
M  V30 2697 C 247.919 -3.26405 1.45582 0
M  V30 2698 S 249.478 -4.17136 1.36171 0
M  V30 2699 H 246.296 -0.633732 0.322342 0
M  V30 2700 H 248.898 -1.32581 1.43675 0
M  V30 2701 H 247.602 -3.24329 2.51473 0
M  V30 2702 H 247.133 -3.82721 0.910405 0
M  V30 2703 H 249.148 -4.95069 0.334863 0
M  V30 2704 N 248.321 -0.919034 -1.28029 0
M  V30 2705 C 249.732 -0.600735 -1.76771 0
M  V30 2706 C 250.083 0.884024 -1.75156 0
M  V30 2707 O 249.208 1.69163 -1.34956 0
M  V30 2708 C 249.803 -1.08372 -3.21 0
M  V30 2709 C 248.362 -0.816248 -3.67443 0
M  V30 2710 C 247.509 -1.24742 -2.47658 0
M  V30 2711 H 250.46 -1.09974 -1.14418 0
M  V30 2712 H 250.481 -0.427512 -3.78091 0
M  V30 2713 H 249.993 -2.16437 -3.22144 0
M  V30 2714 H 248.094 0.250968 -3.71754 0
M  V30 2715 H 248.207 -1.4277 -4.57333 0
M  V30 2716 H 246.571 -0.666083 -2.45836 0
M  V30 2717 H 247.354 -2.33653 -2.51518 0
M  V30 2718 N 249.799 1.42003 -0.683588 0
M  V30 2719 C 250.729 2.33487 -0.024866 0
M  V30 2720 C 251.71 1.51163 0.779975 0
M  V30 2721 O 252.895 1.79739 0.735362 0
M  V30 2722 C 250.025 3.3487 0.920836 0
M  V30 2723 C 248.979 4.27414 0.223958 0
M  V30 2724 C 248.305 5.19074 1.2832 0
M  V30 2725 C 249.605 5.14445 -0.90242 0
M  V30 2726 H 251.299 2.88819 -0.788921 0
M  V30 2727 H 248.845 1.38873 -0.38083 0
M  V30 2728 H 250.798 3.97787 1.39081 0
M  V30 2729 H 249.522 2.77861 1.71642 0
M  V30 2730 H 248.181 3.65904 -0.225864 0
M  V30 2731 H 247.829 4.58387 2.071 0
M  V30 2732 H 247.529 5.81822 0.821995 0
M  V30 2733 H 249.053 5.84867 1.75392 0
M  V30 2734 H 250.467 5.70998 -0.513272 0
M  V30 2735 H 248.864 5.86072 -1.28997 0
M  V30 2736 H 249.934 4.52322 -1.74737 0
M  V30 2737 N 251.277 0.427512 1.51691 0
M  V30 2738 C 252.207 -0.3796 2.30394 0
M  V30 2739 C 253.188 -1.02982 1.35384 0
M  V30 2740 O 254.373 -1.03534 1.643 0
M  V30 2741 C 251.503 -1.48649 3.1388 0
M  V30 2742 C 250.457 -0.960294 4.17088 0
M  V30 2743 C 249.783 -2.16219 4.89033 0
M  V30 2744 C 251.083 -0.00153679 5.223 0
M  V30 2745 H 252.777 0.277164 2.98114 0
M  V30 2746 H 250.323 0.134739 1.43368 0
M  V30 2747 H 252.276 -2.05826 3.67714 0
M  V30 2748 H 251 -2.1714 2.43962 0
M  V30 2749 H 249.659 -0.410806 3.64291 0
M  V30 2750 H 249.307 -2.83307 4.15628 0
M  V30 2751 H 249.007 -1.81654 5.58816 0
M  V30 2752 H 250.531 -2.73968 5.45687 0
M  V30 2753 H 251.945 -0.482687 5.71264 0
M  V30 2754 H 250.342 0.256199 5.99553 0
M  V30 2755 H 251.412 0.938174 4.75738 0
M  V30 2756 N 252.755 -1.56801 0.158532 0
M  V30 2757 C 254.002 -1.9649 -0.489679 0
M  V30 2758 C 254.33 -1.04394 -1.6411 0
M  V30 2759 O 253.585 -0.0754401 -1.95555 0
M  V30 2760 C 253.884 -3.4235 -1.02623 0
M  V30 2761 C 253.55 -4.50899 0.00794526 0
M  V30 2762 C 252.212 -4.80312 0.292207 0
M  V30 2763 C 254.564 -5.16333 0.710584 0
M  V30 2764 C 251.892 -5.72461 1.28472 0
M  V30 2765 C 254.244 -6.09553 1.69199 0
M  V30 2766 C 252.908 -6.37339 1.98383 0
M  V30 2767 H 252.178 -0.719009 -0.179186 0
M  V30 2768 H 254.825 -1.8989 0.247798 0
M  V30 2769 H 253.13 -3.45838 -1.84128 0
M  V30 2770 H 254.827 -3.70393 -1.53656 0
M  V30 2771 H 251.417 -4.28015 -0.22379 0
M  V30 2772 H 255.601 -4.93732 0.504174 0
M  V30 2773 H 250.857 -5.92278 1.51714 0
M  V30 2774 H 255.031 -6.59327 2.24189 0
M  V30 2775 H 252.658 -7.08546 2.7544 0
M  V30 2776 N 254.233 0.115231 -1.57178 0
M  V30 2777 C 255.481 0.820727 -1.84685 0
M  V30 2778 C 255.802 1.80237 -0.744279 0
M  V30 2779 O 255.072 1.94529 0.231375 0
M  V30 2780 H 253.652 0.306084 -0.681411 0
M  V30 2781 H 256.314 0.101656 -1.94635 0
M  V30 2782 H 255.41 1.36366 -2.80733 0
M  V30 2783 N 255.711 1.52812 0.385517 0
M  V30 2784 C 256.641 1.80808 1.47752 0
M  V30 2785 C 257.622 0.660318 1.5676 0
M  V30 2786 O 258.807 0.908246 1.71652 0
M  V30 2787 C 255.937 1.98008 2.85324 0
M  V30 2788 C 254.891 3.13709 2.91154 0
M  V30 2789 C 254.217 3.16169 4.31209 0
M  V30 2790 C 255.517 4.52709 2.60483 0
M  V30 2791 H 257.211 2.72253 1.24573 0
M  V30 2792 H 254.757 1.31003 0.597839 0
M  V30 2793 H 256.71 2.16176 3.61726 0
M  V30 2794 H 255.434 1.03255 3.09848 0
M  V30 2795 H 254.093 2.95329 2.17201 0
M  V30 2796 H 253.741 2.19092 4.52778 0
M  V30 2797 H 253.441 3.93894 4.36029 0
M  V30 2798 H 254.965 3.36496 5.09512 0
M  V30 2799 H 256.379 4.71173 3.26602 0
M  V30 2800 H 254.776 5.32528 2.76648 0
M  V30 2801 H 255.846 4.59186 1.55809 0
M  V30 2802 N 257.189 -0.644168 1.43834 0
M  V30 2803 C 258.137 -1.77793 1.49974 0
M  V30 2804 C 259.131 -1.65253 0.372536 0
M  V30 2805 O 260.337 -1.7149 0.546924 0
M  V30 2806 H 256.712 -0.58675 0.47035 0
M  V30 2807 H 258.683 -1.69736 2.45423 0
M  V30 2808 C 257.432 -3.16087 1.4486 0
M  V30 2809 H 256.755 -3.26378 2.30905 0
M  V30 2810 H 258.195 -3.95349 1.53217 0
M  V30 2811 C 256.654 -3.36484 0.167463 0
M  V30 2812 O 257.184 -3.94298 -0.767609 0
M  V30 2813 N 255.39 -2.90504 0.0747556 0
M  V30 2814 H 254.937 -2.4364 0.836507 0
M  V30 2815 H 254.895 -3.04527 -0.781714 0
M  V30 2816 N 258.668 -1.30515 -0.883378 0
M  V30 2817 C 259.616 -1.16941 -2.01066 0
M  V30 2818 C 260.61 -0.0809148 -1.69207 0
M  V30 2819 O 261.816 -0.241877 -1.78367 0
M  V30 2820 H 258.191 -0.361705 -0.659298 0
M  V30 2821 H 260.162 -2.12344 -2.09649 0
M  V30 2822 C 258.911 -0.879694 -3.36388 0
M  V30 2823 H 258.234 -1.70936 -3.61415 0
M  V30 2824 H 259.674 -0.82483 -4.159 0
M  V30 2825 C 258.133 0.417409 -3.34304 0
M  V30 2826 O 258.663 1.43843 -3.75063 0
M  V30 2827 N 256.869 0.429141 -2.87414 0
M  V30 2828 H 256.416 -0.402222 -2.5444 0
M  V30 2829 H 256.374 1.29696 -2.86403 0
M  V30 2830 N 260.146 1.09593 -1.13257 0
M  V30 2831 C 261.109 2.14359 -0.811358 0
M  V30 2832 C 262.109 1.59808 0.178377 0
M  V30 2833 O 263.299 1.74132 -0.0484911 0
M  V30 2834 C 260.431 3.40269 -0.207276 0
M  V30 2835 H 261.624 2.44284 -1.73969 0
M  V30 2836 H 259.177 1.25102 -0.936973 0
M  V30 2837 H 259.912 3.15969 0.73036 0
M  V30 2838 H 259.697 3.81154 -0.919992 0
M  V30 2839 H 261.187 4.176 0.000667944 0
M  V30 2840 N 261.624 0.925811 1.2754 0
M  V30 2841 C 262.901 0.483726 1.89524 0
M  V30 2842 C 263.281 -1.03809 1.83812 0
M  V30 2843 O 262.629 -1.89143 1.28207 0
M  V30 2844 C 262.839 1.02769 3.33526 0
M  V30 2845 C 264.187 1.08703 4.10449 0
M  V30 2846 O 265.211 0.977175 3.42534 0
M  V30 2847 O 264.07 1.25599 5.31871 0
M  V30 2848 H 261.164 0.15529 0.812289 0
M  V30 2849 H 263.71 1.01738 1.35822 0
M  V30 2850 H 262.482 2.07155 3.31967 0
M  V30 2851 H 262.105 0.475567 3.94746 0
M  V30 2852 N 263.102 -1.41638 0.69111 0
M  V30 2853 C 264.034 -2.29194 -0.0161523 0
M  V30 2854 C 265.047 -1.44549 -0.748955 0
M  V30 2855 O 266.236 -1.681 -0.6004 0
M  V30 2856 C 263.336 -3.22325 -1.0469 0
M  V30 2857 C 262.509 -4.35706 -0.384621 0
M  V30 2858 C 261.568 -5.09443 -1.31737 0
M  V30 2859 O 260.594 -5.63386 -0.811451 0
M  V30 2860 N 261.796 -5.16487 -2.64993 0
M  V30 2861 H 264.561 -2.90534 0.735523 0
M  V30 2862 H 262.122 -1.52742 0.53679 0
M  V30 2863 H 264.114 -3.68522 -1.67252 0
M  V30 2864 H 262.684 -2.62323 -1.70015 0
M  V30 2865 H 261.904 -3.91948 0.420804 0
M  V30 2866 H 263.192 -5.08743 0.0760765 0
M  V30 2867 H 262.59 -4.741 -3.08619 0
M  V30 2868 H 261.147 -5.66276 -3.22761 0
M  V30 2869 N 264.58 -0.43555 -1.51462 0
M  V30 2870 C 265.528 0.391205 -2.29287 0
M  V30 2871 C 266.522 1.02247 -1.35062 0
M  V30 2872 O 267.728 0.957646 -1.52411 0
M  V30 2873 H 264.103 0.144968 -0.737895 0
M  V30 2874 H 266.074 -0.286051 -2.97026 0
M  V30 2875 C 264.823 1.48096 -3.14583 0
M  V30 2876 H 264.146 1.00457 -3.86973 0
M  V30 2877 H 265.586 2.03273 -3.72097 0
M  V30 2878 C 264.045 2.46321 -2.29843 0
M  V30 2879 O 264.575 3.50815 -1.95682 0
M  V30 2880 N 262.781 2.17166 -1.931 0
M  V30 2881 H 262.328 1.32218 -2.21079 0
M  V30 2882 H 262.286 2.83127 -1.36698 0
M  V30 2883 N 266.058 1.56714 -0.166846 0
M  V30 2884 C 266.968 2.21331 0.777791 0
M  V30 2885 C 267.984 1.20358 1.25658 0
M  V30 2886 O 269.16 1.53005 1.30964 0
M  V30 2887 C 266.225 2.83787 1.99163 0
M  V30 2888 C 265.286 3.99947 1.56016 0
M  V30 2889 C 264.519 4.59415 2.71613 0
M  V30 2890 O 264.742 4.17769 3.88362 0
M  V30 2891 O 263.676 5.49359 2.45945 0
M  V30 2892 H 267.502 3.02605 0.257636 0
M  V30 2893 H 265.087 1.49275 0.0611393 0
M  V30 2894 H 266.969 3.23405 2.70161 0
M  V30 2895 H 265.644 2.05513 2.50092 0
M  V30 2896 H 264.551 3.65007 0.819809 0
M  V30 2897 H 265.884 4.79801 1.09782 0
M  V30 2898 N 267.536 -0.106894 1.57237 0
M  V30 2899 C 268.776 -0.818277 1.87306 0
M  V30 2900 C 269.14 -1.76474 0.756371 0
M  V30 2901 O 270.341 -2.5186 0.939155 0
M  V30 2902 C 268.612 -1.53806 3.22612 0
M  V30 2903 S 270.171 -2.28935 3.74345 0
M  V30 2904 H 266.989 -0.272862 0.656557 0
M  V30 2905 H 269.591 -0.075988 1.95352 0
M  V30 2906 H 268.295 -0.834951 4.01817 0
M  V30 2907 H 267.826 -2.32049 3.17674 0
M  V30 2908 H 269.841 -3.54871 3.46815 0
M  V30 2909 N 269.014 -1.53014 -0.377408 0
M  V30 2910 C 270.263 -1.67845 -1.11853 0
M  V30 2911 C 270.576 -0.430625 -1.90801 0
M  V30 2912 O 271.782 -0.459261 -2.67587 0
M  V30 2913 C 270.238 -2.96668 -2.03756 0
M  V30 2914 C 269.846 -4.28671 -1.30175 0
M  V30 2915 C 271.59 -3.20865 -2.77932 0
M  V30 2916 C 269.497 -5.48591 -2.20911 0
M  V30 2917 H 268.427 -0.625343 -0.421263 0
M  V30 2918 H 271.078 -1.79514 -0.380409 0
M  V30 2919 H 269.46 -2.78773 -2.8125 0
M  V30 2920 H 270.634 -4.57157 -0.578259 0
M  V30 2921 H 268.949 -4.10825 -0.679108 0
M  V30 2922 H 271.546 -4.07642 -3.46024 0
M  V30 2923 H 271.889 -2.36424 -3.4265 0
M  V30 2924 H 272.422 -3.39379 -2.07525 0
M  V30 2925 H 269.161 -6.35474 -1.6079 0
M  V30 2926 H 268.681 -5.244 -2.91144 0
M  V30 2927 H 270.36 -5.8292 -2.80736 0
M  V30 2928 N 270.492 0.636531 -1.44174 0
M  V30 2929 C 271.741 1.39213 -1.45954 0
M  V30 2930 C 272.054 1.95374 -0.0939119 0
M  V30 2931 O 273.26 2.71498 0.0107767 0
M  V30 2932 C 271.716 2.52025 -2.56927 0
M  V30 2933 C 271.324 2.024 -3.99673 0
M  V30 2934 C 273.068 3.29269 -2.67922 0
M  V30 2935 C 270.975 3.12521 -5.0208 0
M  V30 2936 H 269.905 0.523132 -0.542999 0
M  V30 2937 H 272.556 0.685349 -1.70221 0
M  V30 2938 H 270.938 3.25253 -2.25891 0
M  V30 2939 H 272.112 1.36073 -4.40251 0
M  V30 2940 H 270.427 1.37987 -3.92872 0
M  V30 2941 H 273.024 4.11352 -3.41605 0
M  V30 2942 H 273.367 3.78397 -1.73555 0
M  V30 2943 H 273.9 2.63129 -2.98342 0
M  V30 2944 H 270.639 2.68343 -5.98057 0
M  V30 2945 H 270.159 3.77507 -4.66099 0
M  V30 2946 H 271.838 3.77385 -5.25538 0
M  V30 2947 N 271.97 1.30982 0.876444 0
M  V30 2948 C 272.933 1.18054 1.96459 0
M  V30 2949 C 273.933 0.109399 1.60427 0
M  V30 2950 O 275.123 0.358173 1.70478 0
M  V30 2951 C 272.255 0.810616 3.31122 0
M  V30 2952 H 273.448 2.14735 2.09354 0
M  V30 2953 H 271.001 1.145 1.06392 0
M  V30 2954 H 271.736 -0.155322 3.23928 0
M  V30 2955 H 271.521 1.58481 3.58645 0
M  V30 2956 H 273.011 0.743876 4.10921 0
M  V30 2957 N 273.449 -1.08991 1.13837 0
M  V30 2958 C 274.397 -2.17841 0.815347 0
M  V30 2959 C 275.391 -1.68164 -0.204233 0
M  V30 2960 O 276.597 -1.79897 -0.0609304 0
M  V30 2961 H 272.972 -0.710654 0.245915 0
M  V30 2962 H 274.943 -2.42315 1.74143 0
M  V30 2963 C 273.692 -3.46381 0.302614 0
M  V30 2964 H 273.015 -3.84979 1.0785 0
M  V30 2965 H 274.455 -4.23844 0.115074 0
M  V30 2966 C 272.914 -3.22556 -0.972591 0
M  V30 2967 O 273.444 -3.45599 -2.04754 0
M  V30 2968 N 271.65 -2.76134 -0.905455 0
M  V30 2969 H 271.197 -2.57582 -0.0305421 0
M  V30 2970 H 271.155 -2.60571 -1.75926 0
M  V30 2971 N 274.927 -0.932562 -1.27047 0
M  V30 2972 C 276.338 -0.619451 -1.76124 0
M  V30 2973 C 276.689 0.865397 -1.76083 0
M  V30 2974 O 275.814 1.67722 -1.36742 0
M  V30 2975 C 276.409 -1.11771 -3.19832 0
M  V30 2976 C 274.968 -0.855174 -3.66557 0
M  V30 2977 C 274.115 -1.27362 -2.46321 0
M  V30 2978 H 277.066 -1.11181 -1.13245 0
M  V30 2979 H 277.087 -0.46759 -3.77616 0
M  V30 2980 H 276.599 -2.19842 -3.1983 0
M  V30 2981 H 274.7 0.211524 -3.71999 0
M  V30 2982 H 274.813 -1.47613 -4.55793 0
M  V30 2983 H 273.177 -0.692119 -2.45116 0
M  V30 2984 H 273.96 -2.36307 -2.49025 0
M  V30 2985 N 276.405 1.4127 -0.698611 0
M  V30 2986 C 277.368 2.29158 -0.044132 0
M  V30 2987 C 278.368 1.44529 0.704841 0
M  V30 2988 O 279.558 1.65643 0.539276 0
M  V30 2989 C 276.69 3.27459 0.947809 0
M  V30 2990 H 277.883 2.88529 -0.817994 0
M  V30 2991 H 275.436 1.49307 -0.46228 0
M  V30 2992 H 276.171 2.73073 1.74933 0
M  V30 2993 H 275.956 3.8991 0.41385 0
M  V30 2994 H 277.446 3.93311 1.40344 0
M  V30 2995 N 277.883 0.443576 1.51229 0
M  V30 2996 C 279.13 -0.120796 2.02139 0
M  V30 2997 C 279.458 -1.42166 1.32736 0
M  V30 2998 O 278.713 -1.90849 0.43301 0
M  V30 2999 C 279.012 -0.380579 3.55368 0
M  V30 3000 C 278.678 0.83523 4.43097 0
M  V30 3001 C 277.34 1.16864 4.66794 0
M  V30 3002 C 279.692 1.64601 4.94526 0
M  V30 3003 C 277.02 2.31339 5.39165 0
M  V30 3004 C 279.372 2.78181 5.68153 0
M  V30 3005 C 278.036 3.11969 5.90112 0
M  V30 3006 H 277.306 -0.0442023 0.73968 0
M  V30 3007 H 279.953 0.592046 1.82118 0
M  V30 3008 H 278.258 -1.17538 3.73754 0
M  V30 3009 H 279.955 -0.830777 3.923 0
M  V30 3010 H 276.545 0.565437 4.24854 0
M  V30 3011 H 280.729 1.40163 4.76097 0
M  V30 3012 H 275.985 2.57823 5.5438 0
M  V30 3013 H 280.159 3.41371 6.06992 0
M  V30 3014 H 277.786 4.00784 6.45969 0
M  V30 3015 N 279.361 -1.56624 0.175154 0
M  V30 3016 C 280.607 -1.9729 -0.469506 0
M  V30 3017 C 280.94 -1.06128 -1.62636 0
M  V30 3018 O 280.215 -0.109183 -1.94193 0
M  V30 3019 C 280.498 -3.47375 -0.948804 0
M  V30 3020 C 280.351 -4.49317 0.208491 0
M  V30 3021 C 281.67 -4.00652 -1.82116 0
M  V30 3022 H 278.789 -0.717317 -0.16919 0
M  V30 3023 H 281.431 -1.88184 0.262062 0
M  V30 3024 H 279.581 -3.55267 -1.57219 0
M  V30 3025 H 281.253 -4.53482 0.845682 0
M  V30 3026 H 279.496 -4.25121 0.863395 0
M  V30 3027 H 280.167 -5.51741 -0.169059 0
M  V30 3028 H 282.643 -3.95416 -1.2956 0
M  V30 3029 H 281.519 -5.06075 -2.12554 0
M  V30 3030 H 281.78 -3.44699 -2.7683 0
M  V30 3031 N 280.839 0.0985539 -1.57292 0
M  V30 3032 C 282.085 0.803867 -1.86188 0
M  V30 3033 C 282.418 1.78549 -0.763794 0
M  V30 3034 O 281.693 1.93153 0.22855 0
M  V30 3035 C 281.976 1.53568 -3.25713 0
M  V30 3036 C 281.829 0.572277 -4.46145 0
M  V30 3037 C 283.148 2.48708 -3.63087 0
M  V30 3038 H 280.267 0.290781 -0.677211 0
M  V30 3039 H 282.909 0.0675783 -1.8988 0
M  V30 3040 H 281.059 2.16332 -3.22696 0
M  V30 3041 H 282.731 -0.0480894 -4.61275 0
M  V30 3042 H 280.974 -0.114618 -4.33649 0
M  V30 3043 H 281.645 1.12139 -5.40489 0
M  V30 3044 H 284.121 1.96039 -3.67026 0
M  V30 3045 H 282.997 2.96932 -4.61652 0
M  V30 3046 H 283.258 3.32309 -2.91588 0
M  V30 3047 N 282.317 1.53212 0.369288 0
M  V30 3048 C 283.547 1.72868 1.13139 0
M  V30 3049 C 283.955 0.455754 1.83629 0
M  V30 3050 O 283.298 -0.580861 1.74275 0
M  V30 3051 C 283.36 2.83667 2.20847 0
M  V30 3052 C 283.024 4.24142 1.70155 0
M  V30 3053 C 284.021 5.06619 1.16763 0
M  V30 3054 C 281.706 4.70539 1.7578 0
M  V30 3055 C 283.7 6.33581 0.696678 0
M  V30 3056 C 281.387 5.97481 1.28297 0
M  V30 3057 C 282.385 6.78833 0.753307 0
M  V30 3058 O 282.073 8.03393 0.285475 0
M  V30 3059 H 281.805 0.581707 0.344373 0
M  V30 3060 H 284.359 2.00736 0.435243 0
M  V30 3061 H 282.589 2.51265 2.93944 0
M  V30 3062 H 284.278 2.91536 2.82421 0
M  V30 3063 H 285.044 4.71948 1.11758 0
M  V30 3064 H 280.923 4.07293 2.15949 0
M  V30 3065 H 284.467 6.97027 0.282581 0
M  V30 3066 H 280.364 6.31651 1.32994 0
M  V30 3067 H 281.132 8.17497 0.405145 0
M  V30 3068 N 283.795 -0.628877 1.44509 0
M  V30 3069 C 285.02 -1.42048 1.5112 0
M  V30 3070 C 285.445 -1.87594 0.137818 0
M  V30 3071 O 284.803 -1.58873 -0.873437 0
M  V30 3072 C 284.851 -2.61541 2.48251 0
M  V30 3073 O 283.955 -3.61453 1.98559 0
M  V30 3074 H 283.296 -0.424942 0.510216 0
M  V30 3075 H 285.826 -0.767374 1.89664 0
M  V30 3076 H 285.836 -3.09057 2.66361 0
M  V30 3077 H 284.511 -2.27736 3.48007 0
M  V30 3078 H 283.088 -3.20731 1.90227 0
M  V30 3079 N 285.273 -1.31445 -0.869486 0
M  V30 3080 C 286.498 -1.24256 -1.66058 0
M  V30 3081 C 286.923 0.188928 -1.87149 0
M  V30 3082 O 286.281 1.13522 -1.4136 0
M  V30 3083 C 286.329 -1.9924 -3.00559 0
M  V30 3084 O 285.433 -1.33007 -3.90362 0
M  V30 3085 H 284.774 -0.428973 -0.506831 0
M  V30 3086 H 287.304 -1.73521 -1.08404 0
M  V30 3087 H 287.314 -2.08854 -3.50491 0
M  V30 3088 H 285.989 -3.03342 -2.84528 0
M  V30 3089 H 284.566 -1.31848 -3.48813 0
M  V30 3090 N 286.751 1.08385 -1.14413 0
M  V30 3091 C 288 1.80153 -0.907076 0
M  V30 3092 C 288.313 1.87176 0.567851 0
M  V30 3093 O 289.519 2.55359 0.922172 0
M  V30 3094 C 287.975 3.23687 -1.57336 0
M  V30 3095 C 287.583 3.24897 -3.08457 0
M  V30 3096 C 289.327 4.00136 -1.41744 0
M  V30 3097 C 287.234 4.6302 -3.67921 0
M  V30 3098 H 286.164 0.675139 -0.335714 0
M  V30 3099 H 288.815 1.21733 -1.37307 0
M  V30 3100 H 287.197 3.82234 -1.03505 0
M  V30 3101 H 288.371 2.76055 -3.68958 0
M  V30 3102 H 286.686 2.61943 -3.2369 0
M  V30 3103 H 289.283 5.02201 -1.83572 0
M  V30 3104 H 289.626 4.14709 -0.363576 0
M  V30 3105 H 290.159 3.48058 -1.92614 0
M  V30 3106 H 286.898 4.5365 -4.73161 0
M  V30 3107 H 286.418 5.12143 -3.12201 0
M  V30 3108 H 288.097 5.31994 -3.68227 0
M  V30 3109 N 288.23 0.939286 1.26551 0
M  V30 3110 C 289.476 0.586715 1.94128 0
M  V30 3111 C 289.809 -0.8717 1.73537 0
M  V30 3112 O 289.084 -1.62339 1.07127 0
M  V30 3113 C 289.367 0.927497 3.4795 0
M  V30 3114 C 289.22 2.44052 3.77834 0
M  V30 3115 C 290.539 0.441569 4.37879 0
M  V30 3116 H 287.658 0.21463 0.705055 0
M  V30 3117 H 290.3 1.17316 1.49455 0
M  V30 3118 H 288.45 0.428431 3.8613 0
M  V30 3119 H 290.122 3.01216 3.4938 0
M  V30 3120 H 288.365 2.8848 3.23978 0
M  V30 3121 H 289.036 2.62947 4.85348 0
M  V30 3122 H 291.512 0.869448 4.06915 0
M  V30 3123 H 290.388 0.708856 5.44304 0
M  V30 3124 H 290.649 -0.658467 4.37169 0
M  V30 3125 N 289.708 -1.40897 0.706093 0
M  V30 3126 C 290.933 -2.05895 0.249435 0
M  V30 3127 C 291.358 -1.52823 -1.09666 0
M  V30 3128 O 290.716 -0.659589 -1.68876 0
M  V30 3129 C 290.764 -3.59872 0.22904 0
M  V30 3130 O 289.868 -4.04708 -0.792784 0
M  V30 3131 H 289.209 -0.653206 0.119241 0
M  V30 3132 H 291.739 -1.80471 0.96391 0
M  V30 3133 H 291.749 -4.07951 0.0634791 0
M  V30 3134 H 290.424 -3.97866 1.21141 0
M  V30 3135 H 289.001 -3.68111 -0.59572 0
M  V30 3136 N 291.186 -0.45159 -1.50991 0
M  V30 3137 C 292.433 0.110074 -2.02201 0
M  V30 3138 C 292.761 1.4146 -1.33489 0
M  V30 3139 O 292.016 1.90617 -0.443125 0
M  V30 3140 C 292.315 0.361728 -3.55565 0
M  V30 3141 C 291.981 -0.858717 -4.42648 0
M  V30 3142 C 290.643 -1.19338 -4.66167 0
M  V30 3143 C 292.995 -1.67221 -4.93646 0
M  V30 3144 C 290.323 -2.34195 -5.37931 0
M  V30 3145 C 292.675 -2.8119 -5.6667 0
M  V30 3146 C 291.339 -3.15094 -5.88449 0
M  V30 3147 H 290.609 0.040279 -0.739904 0
M  V30 3148 H 293.256 -0.601696 -1.81802 0
M  V30 3149 H 291.561 1.15554 -3.74372 0
M  V30 3150 H 293.258 0.80996 -3.92735 0
M  V30 3151 H 289.848 -0.58796 -4.24548 0
M  V30 3152 H 294.032 -1.42686 -4.75347 0
M  V30 3153 H 289.288 -2.6076 -5.53005 0
M  V30 3154 H 293.462 -3.44585 -6.05173 0
M  V30 3155 H 291.089 -4.04204 -6.43835 0
M  V30 3156 N 292.664 1.56529 -0.183458 0
M  V30 3157 C 293.894 2.01331 0.463612 0
M  V30 3158 C 294.302 1.06278 1.5653 0
M  V30 3159 O 293.645 0.0577976 1.83609 0
M  V30 3160 C 293.707 3.42547 1.09096 0
M  V30 3161 C 293.371 4.56817 0.129442 0
M  V30 3162 C 294.368 5.15734 -0.656807 0
M  V30 3163 C 292.053 5.02295 0.02174 0
M  V30 3164 C 294.047 6.1857 -1.53784 0
M  V30 3165 C 291.734 6.04978 -0.862864 0
M  V30 3166 C 292.732 6.62988 -1.64123 0
M  V30 3167 O 292.42 7.63677 -2.51103 0
M  V30 3168 H 292.152 0.664917 0.121907 0
M  V30 3169 H 294.706 2.034 -0.285954 0
M  V30 3170 H 292.936 3.37428 1.88889 0
M  V30 3171 H 294.625 3.71228 1.64148 0
M  V30 3172 H 295.391 4.81473 -0.583839 0
M  V30 3173 H 291.27 4.56847 0.617392 0
M  V30 3174 H 294.814 6.63777 -2.14583 0
M  V30 3175 H 290.711 6.38663 -0.93699 0
M  V30 3176 H 291.479 7.81049 -2.44753 0
M  V30 3177 N 294.142 -0.090211 1.57342 0
M  V30 3178 C 295.388 -0.793982 1.86611 0
M  V30 3179 C 295.721 -1.78142 0.773252 0
M  V30 3180 O 294.996 -1.93271 -0.218304 0
M  V30 3181 C 295.279 -1.51839 3.26523 0
M  V30 3182 C 295.132 -0.548609 4.46442 0
M  V30 3183 C 296.451 -2.46779 3.64401 0
M  V30 3184 H 293.57 -0.287186 0.678744 0
M  V30 3185 H 296.212 -0.0575076 1.89913 0
M  V30 3186 H 294.362 -2.14617 3.23839 0
M  V30 3187 H 296.034 0.0725513 4.61243 0
M  V30 3188 H 294.277 0.137614 4.33582 0
M  V30 3189 H 294.948 -1.09271 5.41076 0
M  V30 3190 H 297.424 -1.94089 3.68061 0
M  V30 3191 H 296.3 -2.94479 4.63221 0
M  V30 3192 H 296.561 -3.30758 2.93346 0
M  V30 3193 N 295.62 -1.53406 -0.361157 0
M  V30 3194 C 297.031 -1.61442 -0.937728 0
M  V30 3195 C 297.382 -0.48461 -1.90121 0
M  V30 3196 O 296.507 0.388312 -2.12888 0
M  V30 3197 C 297.102 -2.92624 -1.70753 0
M  V30 3198 C 295.661 -3.02981 -2.23337 0
M  V30 3199 C 294.808 -2.5677 -1.04712 0
M  V30 3200 H 297.759 -1.58083 -0.139816 0
M  V30 3201 H 297.78 -2.80675 -2.56908 0
M  V30 3202 H 297.292 -3.74834 -1.00604 0
M  V30 3203 H 295.393 -2.25368 -2.96715 0
M  V30 3204 H 295.506 -4.0814 -2.50916 0
M  V30 3205 H 293.87 -2.11752 -1.41539 0
M  V30 3206 H 294.653 -3.41402 -0.360539 0
M  V30 3207 N 297.098 0.621204 -1.44841 0
M  V30 3208 C 298.345 1.38055 -1.48145 0
M  V30 3209 C 298.673 1.94143 -0.117867 0
M  V30 3210 O 297.928 1.74713 0.881694 0
M  V30 3211 C 298.227 2.55675 -2.4973 0
M  V30 3212 C 297.893 2.17817 -3.94799 0
M  V30 3213 C 296.555 2.07205 -4.34303 0
M  V30 3214 C 298.907 1.88065 -4.86087 0
M  V30 3215 C 296.235 1.65045 -5.63007 0
M  V30 3216 C 298.587 1.47394 -6.15189 0
M  V30 3217 C 297.251 1.35331 -6.53637 0
M  V30 3218 H 296.521 0.505181 -0.542101 0
M  V30 3219 H 299.168 0.703477 -1.78111 0
M  V30 3220 H 297.473 3.2866 -2.13284 0
M  V30 3221 H 299.17 3.13904 -2.4953 0
M  V30 3222 H 295.76 2.26998 -3.63552 0
M  V30 3223 H 299.944 1.95168 -4.56315 0
M  V30 3224 H 295.2 1.54317 -5.91605 0
M  V30 3225 H 299.374 1.23415 -6.85377 0
M  V30 3226 H 297.001 1.02435 -7.53267 0
M  V30 3227 N 298.576 1.31904 0.862503 0
M  V30 3228 C 299.825 1.21373 1.61094 0
M  V30 3229 C 300.138 -0.22504 1.94301 0
M  V30 3230 O 301.344 -0.452121 2.67709 0
M  V30 3231 C 299.8 2.12525 2.9045 0
M  V30 3232 C 299.408 3.61441 2.64697 0
M  V30 3233 C 301.152 2.10813 3.68454 0
M  V30 3234 C 299.059 4.44578 3.90006 0
M  V30 3235 H 297.989 0.450705 0.604468 0
M  V30 3236 H 300.64 1.56811 0.953027 0
M  V30 3237 H 299.022 1.69994 3.57656 0
M  V30 3238 H 300.196 4.12264 2.05851 0
M  V30 3239 H 298.511 3.65205 2.00036 0
M  V30 3240 H 301.108 2.70167 4.61426 0
M  V30 3241 H 301.451 1.09713 4.01583 0
M  V30 3242 H 301.984 2.51583 3.08141 0
M  V30 3243 H 298.723 5.46461 3.62023 0
M  V30 3244 H 298.243 3.98508 4.48276 0
M  V30 3245 H 299.922 4.57176 4.5782 0
M  V30 3246 N 300.054 -1.07777 1.14986 0
M  V30 3247 C 301.3 -1.80557 0.923422 0
M  V30 3248 C 301.633 -1.86298 -0.548337 0
M  V30 3249 O 300.908 -1.34354 -1.40639 0
M  V30 3250 C 301.191 -3.25839 1.53299 0
M  V30 3251 C 301.044 -3.28269 3.07505 0
M  V30 3252 C 302.363 -4.22991 1.21518 0
M  V30 3253 H 299.482 -0.655493 0.336894 0
M  V30 3254 H 302.124 -1.26144 1.42083 0
M  V30 3255 H 300.274 -3.72306 1.10999 0
M  V30 3256 H 301.946 -2.90079 3.58681 0
M  V30 3257 H 300.189 -2.67355 3.4162 0
M  V30 3258 H 300.86 -4.30691 3.45266 0
M  V30 3259 H 303.336 -3.84894 1.581 0
M  V30 3260 H 302.212 -5.22945 1.66793 0
M  V30 3261 H 302.473 -4.41904 0.131505 0
M  V30 3262 N 301.532 -0.945985 -1.26051 0
M  V30 3263 C 302.76 -0.613025 -1.9761 0
M  V30 3264 C 303.175 0.813035 -1.70397 0
M  V30 3265 O 302.532 1.54274 -0.974979 0
M  V30 3266 C 302.583 -0.85159 -3.51326 0
M  V30 3267 O 302.304 -2.22157 -3.77595 0
M  V30 3268 C 303.805 -0.529831 -4.40122 0
M  V30 3269 H 301.025 -0.230593 -0.630133 0
M  V30 3270 H 303.569 -1.268 -1.60443 0
M  V30 3271 H 301.724 -0.243151 -3.86636 0
M  V30 3272 H 302.138 -2.2852 -4.721 0
M  V30 3273 H 303.612 -0.747348 -5.46917 0
M  V30 3274 H 304.089 0.535341 -4.35925 0
M  V30 3275 H 304.695 -1.11721 -4.10364 0
M  V30 3276 N 303.011 1.40521 -0.713556 0
M  V30 3277 C 303.941 2.33381 -0.0743864 0
M  V30 3278 C 304.922 1.52784 0.747735 0
M  V30 3279 O 306.107 1.81258 0.697071 0
M  V30 3280 C 303.237 3.36748 0.849598 0
M  V30 3281 C 302.191 4.27793 0.133247 0
M  V30 3282 C 301.517 5.21679 1.17281 0
M  V30 3283 C 302.817 5.12415 -1.01134 0
M  V30 3284 H 304.511 2.87081 -0.850007 0
M  V30 3285 H 302.057 1.38034 -0.410201 0
M  V30 3286 H 304.01 4.00648 1.30612 0
M  V30 3287 H 302.734 2.81439 1.65709 0
M  V30 3288 H 301.393 3.65342 -0.303426 0
M  V30 3289 H 301.041 4.62677 1.9733 0
M  V30 3290 H 300.741 5.83435 0.698397 0
M  V30 3291 H 302.265 5.88456 1.62947 0
M  V30 3292 H 303.679 5.69781 -0.634274 0
M  V30 3293 H 302.076 5.83203 -1.41399 0
M  V30 3294 H 303.146 4.48514 -1.84292 0
M  V30 3295 N 304.489 0.459591 1.5075 0
M  V30 3296 C 305.419 -0.330644 2.31147 0
M  V30 3297 C 306.4 -1.00087 1.37538 0
M  V30 3298 O 307.585 -1.00025 1.66459 0
M  V30 3299 C 304.715 -1.41958 3.16962 0
M  V30 3300 C 303.669 -0.871608 4.19031 0
M  V30 3301 C 302.995 -2.05797 4.9351 0
M  V30 3302 C 304.295 0.109251 5.22186 0
M  V30 3303 H 305.989 0.340336 2.97459 0
M  V30 3304 H 303.535 0.165119 1.4305 0
M  V30 3305 H 305.488 -1.9798 3.71997 0
M  V30 3306 H 304.212 -2.11917 2.48513 0
M  V30 3307 H 302.871 -0.333442 3.6508 0
M  V30 3308 H 302.519 -2.74427 4.21544 0
M  V30 3309 H 302.219 -1.6976 5.62544 0
M  V30 3310 H 303.743 -2.62331 5.51375 0
M  V30 3311 H 305.157 -0.361405 5.7216 0
M  V30 3312 H 303.554 0.383316 5.98875 0
M  V30 3313 H 304.624 1.03887 4.73641 0
M  V30 3314 N 305.967 -1.56429 0.191757 0
M  V30 3315 C 307.213 -1.97777 -0.448554 0
M  V30 3316 C 307.546 -1.07847 -1.61501 0
M  V30 3317 O 306.821 -0.129774 -1.94067 0
M  V30 3318 C 307.104 -3.48362 -0.911906 0
M  V30 3319 C 306.957 -4.4907 0.256136 0
M  V30 3320 C 308.276 -4.02561 -1.77857 0
M  V30 3321 H 305.395 -0.719071 -0.161572 0
M  V30 3322 H 308.037 -1.87896 0.282007 0
M  V30 3323 H 306.187 -3.56914 -1.53442 0
M  V30 3324 H 307.859 -4.5256 0.893733 0
M  V30 3325 H 306.102 -4.24181 0.908436 0
M  V30 3326 H 306.773 -5.51889 -0.11053 0
M  V30 3327 H 309.249 -3.96767 -1.25359 0
M  V30 3328 H 308.125 -5.08301 -2.07174 0
M  V30 3329 H 308.386 -3.47616 -2.73158 0
M  V30 3330 N 307.445 0.0818655 -1.57387 0
M  V30 3331 C 308.675 0.794954 -1.90694 0
M  V30 3332 C 309.083 1.72147 -0.784982 0
M  V30 3333 O 308.426 1.81974 0.251196 0
M  V30 3334 C 308.488 1.65042 -3.19376 0
M  V30 3335 C 308.152 0.894337 -4.48164 0
M  V30 3336 C 309.149 0.21813 -5.19442 0
M  V30 3337 C 306.834 0.864495 -4.94805 0
M  V30 3338 C 308.828 -0.477802 -6.35607 0
M  V30 3339 C 306.515 0.164785 -6.10878 0
M  V30 3340 C 307.513 -0.505173 -6.81129 0
M  V30 3341 O 307.201 -1.19363 -7.94989 0
M  V30 3342 H 306.933 0.231779 -0.635023 0
M  V30 3343 H 309.487 0.059493 -2.05314 0
M  V30 3344 H 307.717 2.42844 -3.00938 0
M  V30 3345 H 309.406 2.24127 -3.38411 0
M  V30 3346 H 310.172 0.232558 -4.84442 0
M  V30 3347 H 306.051 1.37542 -4.40004 0
M  V30 3348 H 309.595 -1.00129 -6.90377 0
M  V30 3349 H 305.492 0.148249 -6.4533 0
M  V30 3350 H 306.26 -1.10188 -8.11049 0
M  V30 3351 N 308.923 1.53595 0.353017 0
M  V30 3352 C 310.172 1.69603 1.09168 0
M  V30 3353 C 310.485 0.460925 1.90092 0
M  V30 3354 O 311.691 0.501774 2.66823 0
M  V30 3355 C 310.147 2.99872 1.9901 0
M  V30 3356 C 309.755 4.30687 1.23339 0
M  V30 3357 C 311.499 3.25246 2.72792 0
M  V30 3358 C 309.406 5.52036 2.12156 0
M  V30 3359 H 308.336 0.631966 0.411261 0
M  V30 3360 H 310.987 1.80096 0.351802 0
M  V30 3361 H 309.369 2.83212 2.7678 0
M  V30 3362 H 310.543 4.58019 0.505456 0
M  V30 3363 H 308.858 4.11853 0.613663 0
M  V30 3364 H 311.455 4.13095 3.39495 0
M  V30 3365 H 311.798 2.41846 3.38846 0
M  V30 3366 H 312.331 3.42638 2.021 0
M  V30 3367 H 309.07 6.37951 1.50659 0
M  V30 3368 H 308.59 5.28966 2.82764 0
M  V30 3369 H 310.269 5.87313 2.71427 0
M  V30 3370 N 310.401 -0.613514 1.45168 0
M  V30 3371 C 311.348 -1.72456 1.53387 0
M  V30 3372 C 312.318 -1.6169 0.380191 0
M  V30 3373 O 313.503 -1.81356 0.592836 0
M  V30 3374 C 310.643 -3.10753 1.50088 0
M  V30 3375 C 309.756 -3.32368 2.75963 0
M  V30 3376 C 308.891 -4.60737 2.64376 0
M  V30 3377 C 307.93 -4.7559 3.85332 0
M  V30 3378 N 307.067 -5.95253 3.72315 0
M  V30 3379 H 311.907 -1.64768 2.48305 0
M  V30 3380 H 309.444 -0.803503 1.23216 0
M  V30 3381 H 311.402 -3.90758 1.46164 0
M  V30 3382 H 310.032 -3.17413 0.587243 0
M  V30 3383 H 309.084 -2.4618 2.89999 0
M  V30 3384 H 310.396 -3.39218 3.65695 0
M  V30 3385 H 309.55 -5.48928 2.58385 0
M  V30 3386 H 308.289 -4.56275 1.72233 0
M  V30 3387 H 307.294 -3.85824 3.91688 0
M  V30 3388 H 308.519 -4.81854 4.78533 0
M  V30 3389 H 306.465 -5.91847 2.82937 0
M  V30 3390 H 306.382 -6.03236 4.55677 0
M  V30 3391 H 307.65 -6.85958 3.70246 0
M  V30 3392 N 311.879 -1.3236 -0.855495 0
M  V30 3393 C 313.128 -1.22226 -1.60448 0
M  V30 3394 C 313.441 0.214733 -1.94418 0
M  V30 3395 O 314.647 0.437917 -2.67945 0
M  V30 3396 C 313.103 -2.14063 -2.89318 0
M  V30 3397 C 312.711 -3.62839 -2.62777 0
M  V30 3398 C 314.455 -2.12764 -3.67331 0
M  V30 3399 C 312.362 -4.4664 -3.87643 0
M  V30 3400 H 311.292 -0.453904 -0.602069 0
M  V30 3401 H 313.943 -1.57314 -0.944698 0
M  V30 3402 H 312.325 -1.71889 -3.5675 0
M  V30 3403 H 313.499 -4.1335 -2.03662 0
M  V30 3404 H 311.814 -3.66261 -1.98096 0
M  V30 3405 H 314.411 -2.72611 -4.59987 0
M  V30 3406 H 314.754 -1.11841 -4.00995 0
M  V30 3407 H 315.287 -2.53214 -3.06802 0
M  V30 3408 H 312.026 -5.48373 -3.5912 0
M  V30 3409 H 311.546 -4.0088 -4.46156 0
M  V30 3410 H 313.225 -4.59597 -4.55389 0
M  V30 3411 N 313.357 1.07166 -1.15556 0
M  V30 3412 C 314.587 1.83248 -0.954133 0
M  V30 3413 C 314.995 1.82449 0.500911 0
M  V30 3414 O 314.338 1.23575 1.35923 0
M  V30 3415 C 314.4 3.31393 -1.39351 0
M  V30 3416 C 314.064 3.5591 -2.86666 0
M  V30 3417 C 315.061 3.49695 -3.8472 0
M  V30 3418 C 312.746 3.83515 -3.24379 0
M  V30 3419 C 314.74 3.70737 -5.18491 0
M  V30 3420 C 312.427 4.04209 -4.58321 0
M  V30 3421 C 313.425 3.97815 -5.55186 0
M  V30 3422 O 313.113 4.17954 -6.86709 0
M  V30 3423 H 312.845 0.584941 -0.338851 0
M  V30 3424 H 315.399 1.36169 -1.53777 0
M  V30 3425 H 313.629 3.79292 -0.75329 0
M  V30 3426 H 315.318 3.88945 -1.16089 0
M  V30 3427 H 316.084 3.28368 -3.56931 0
M  V30 3428 H 311.963 3.87605 -2.49567 0
M  V30 3429 H 315.507 3.65663 -5.94085 0
M  V30 3430 H 311.404 4.25023 -4.85825 0
M  V30 3431 H 312.172 4.35291 -6.93155 0
M  V30 3432 N 314.835 0.952656 1.25548 0
M  V30 3433 C 316.084 0.602053 1.92505 0
M  V30 3434 C 316.397 -0.864663 1.75451 0
M  V30 3435 O 317.603 -1.32514 2.36965 0
M  V30 3436 C 316.059 1.02607 3.44963 0
M  V30 3437 C 315.667 2.51519 3.70732 0
M  V30 3438 C 317.411 0.747905 4.1786 0
M  V30 3439 C 315.318 2.87732 5.16686 0
M  V30 3440 H 314.248 0.22146 0.720744 0
M  V30 3441 H 316.899 1.15684 1.42441 0
M  V30 3442 H 315.281 0.399712 3.93978 0
M  V30 3443 H 316.455 3.19157 3.32378 0
M  V30 3444 H 314.77 2.76786 3.11092 0
M  V30 3445 H 317.367 0.994647 5.25367 0
M  V30 3446 H 317.71 -0.315629 4.15102 0
M  V30 3447 H 318.243 1.33452 3.74747 0
M  V30 3448 H 314.982 3.93095 5.24554 0
M  V30 3449 H 314.502 2.24765 5.56094 0
M  V30 3450 H 316.181 2.76817 5.84792 0
M  V30 3451 N 316.313 -1.40141 0.720998 0
M  V30 3452 C 317.559 -2.01084 0.263231 0
M  V30 3453 C 317.892 -1.57052 -1.14229 0
M  V30 3454 O 317.167 -0.793027 -1.77599 0
M  V30 3455 C 317.45 -3.58401 0.349344 0
M  V30 3456 C 317.303 -4.12491 1.79363 0
M  V30 3457 C 318.622 -4.39231 -0.276351 0
M  V30 3458 H 315.741 -0.730572 0.0971228 0
M  V30 3459 H 318.383 -1.66543 0.914518 0
M  V30 3460 H 316.533 -3.87958 -0.205165 0
M  V30 3461 H 318.205 -3.93711 2.40394 0
M  V30 3462 H 316.448 -3.66576 2.31958 0
M  V30 3463 H 317.119 -5.21646 1.80524 0
M  V30 3464 H 319.595 -4.15637 0.196184 0
M  V30 3465 H 318.471 -5.48586 -0.185681 0
M  V30 3466 H 318.732 -4.20643 -1.36059 0
M  V30 3467 N 317.792 -0.46758 -1.50504 0
M  V30 3468 C 318.722 0.318381 -2.31319 0
M  V30 3469 C 319.703 0.993564 -1.38066 0
M  V30 3470 O 320.888 0.991411 -1.66987 0
M  V30 3471 C 318.018 1.40275 -3.17711 0
M  V30 3472 C 316.972 0.849373 -4.19487 0
M  V30 3473 C 316.298 2.03177 -4.94594 0
M  V30 3474 C 317.598 -0.136942 -5.2212 0
M  V30 3475 H 319.292 -0.356106 -2.97275 0
M  V30 3476 H 316.838 -0.172703 -1.42961 0
M  V30 3477 H 318.791 1.96004 -3.73042 0
M  V30 3478 H 317.515 2.10596 -2.49634 0
M  V30 3479 H 316.174 0.314076 -3.65252 0
M  V30 3480 H 315.822 2.72187 -4.22993 0
M  V30 3481 H 315.522 1.66774 -5.63436 0
M  V30 3482 H 317.046 2.59403 -5.52759 0
M  V30 3483 H 318.46 0.331056 -5.72343 0
M  V30 3484 H 316.857 -0.41507 -5.98663 0
M  V30 3485 H 317.927 -1.06398 -4.73083 0
M  V30 3486 N 319.27 1.56325 -0.20005 0
M  V30 3487 C 320.686 1.58839 0.155716 0
M  V30 3488 C 320.886 1.21636 1.60645 0
M  V30 3489 O 319.942 0.941437 2.34293 0
M  V30 3490 C 321.255 3.0032 -0.151124 0
M  V30 3491 C 322.803 3.12866 -0.0916284 0
M  V30 3492 C 323.278 4.56488 -0.371845 0
M  V30 3493 N 324.769 4.62089 -0.320641 0
M  V30 3494 C 325.504 5.71116 -0.511243 0
M  V30 3495 N 325 6.88592 -0.762461 0
M  V30 3496 N 326.793 5.60335 -0.445157 0
M  V30 3497 H 318.944 1.78788 -1.14668 0
M  V30 3498 H 321.207 0.829996 -0.458051 0
M  V30 3499 H 320.913 3.32117 -1.15721 0
M  V30 3500 H 320.787 3.73257 0.543986 0
M  V30 3501 H 323.174 2.80878 0.905065 0
M  V30 3502 H 323.255 2.42304 -0.81989 0
M  V30 3503 H 322.899 4.89189 -1.36588 0
M  V30 3504 H 322.829 5.25246 0.377362 0
M  V30 3505 H 325.32 3.77665 -0.13329 0
M  V30 3506 H 325.633 7.67581 -0.896576 0
M  V30 3507 H 323.978 6.90387 -0.799412 0
M  V30 3508 H 327.169 4.67436 -0.249278 0
M  V30 3509 H 327.342 6.45243 -0.597116 0
M  V30 3510 N 320.748 -0.0735177 1.57428 0
M  V30 3511 C 322.164 -0.428264 1.53747 0
M  V30 3512 C 322.364 -1.79272 0.91998 0
M  V30 3513 O 321.42 -2.47051 0.521745 0
M  V30 3514 C 322.733 -0.370914 2.98404 0
M  V30 3515 C 324.281 -0.451224 3.0973 0
M  V30 3516 C 324.756 -0.4238 4.56035 0
M  V30 3517 N 326.247 -0.483925 4.60665 0
M  V30 3518 C 326.982 -0.484891 5.71346 0
M  V30 3519 N 326.478 -0.440775 6.91396 0
M  V30 3520 N 328.271 -0.531319 5.59583 0
M  V30 3521 H 320.422 0.819949 1.95935 0
M  V30 3522 H 322.685 0.307493 0.896745 0
M  V30 3523 H 322.391 0.564956 3.47133 0
M  V30 3524 H 322.265 -1.18176 3.5821 0
M  V30 3525 H 324.652 -1.37752 2.60976 0
M  V30 3526 H 324.733 0.388167 2.52838 0
M  V30 3527 H 324.377 0.498638 5.05446 0
M  V30 3528 H 324.307 -1.2807 5.10789 0
M  V30 3529 H 326.798 -0.522338 3.74273 0
M  V30 3530 H 327.111 -0.44539 7.71515 0
M  V30 3531 H 325.456 -0.40749 6.93804 0
M  V30 3532 H 328.647 -0.563464 4.64696 0
M  V30 3533 H 328.82 -0.528603 6.4584 0
M  V30 3534 N 322.226 -1.5378 -0.344866 0
M  V30 3535 C 323.642 -1.44015 -0.687888 0
M  V30 3536 C 323.842 -0.595834 -1.92489 0
M  V30 3537 O 322.898 -0.0863064 -2.52352 0
M  V30 3538 C 324.211 -2.87481 -0.881758 0
M  V30 3539 C 325.759 -2.97247 -0.980459 0
M  V30 3540 C 326.234 -4.41819 -1.20665 0
M  V30 3541 N 327.725 -4.45339 -1.27389 0
M  V30 3542 C 328.46 -5.54333 -1.46639 0
M  V30 3543 N 327.956 -6.73335 -1.63071 0
M  V30 3544 N 329.749 -5.41944 -1.49176 0
M  V30 3545 H 321.9 -2.07169 0.468475 0
M  V30 3546 H 324.163 -0.93643 0.147655 0
M  V30 3547 H 323.869 -3.51672 -0.0443444 0
M  V30 3548 H 323.743 -3.32352 -1.78388 0
M  V30 3549 H 326.13 -2.33197 -1.8084 0
M  V30 3550 H 326.211 -2.5574 -0.0552713 0
M  V30 3551 H 325.855 -5.06449 -0.383652 0
M  V30 3552 H 325.785 -4.80917 -2.14539 0
M  V30 3553 H 328.276 -3.59585 -1.1622 0
M  V30 3554 H 328.589 -7.52165 -1.77391 0
M  V30 3555 H 326.934 -6.76282 -1.60209 0
M  V30 3556 H 330.125 -4.47932 -1.3592 0
M  V30 3557 H 330.298 -6.26946 -1.63837 0
M  V30 3558 N 323.704 0.605807 -1.45491 0
M  V30 3559 C 325.12 0.926751 -1.29936 0
M  V30 3560 C 325.32 1.99896 -0.253706 0
M  V30 3561 O 324.376 2.50038 0.351737 0
M  V30 3562 C 325.689 1.36599 -2.67883 0
M  V30 3563 C 327.237 1.4801 -2.75793 0
M  V30 3564 C 327.712 1.95309 -4.14268 0
M  V30 3565 N 329.203 2.0254 -4.16571 0
M  V30 3566 C 329.938 2.40363 -5.20589 0
M  V30 3567 N 329.434 2.77143 -6.34952 0
M  V30 3568 N 331.227 2.40718 -5.07948 0
M  V30 3569 H 323.378 -0.102862 -2.12151 0
M  V30 3570 H 325.641 0.016639 -0.947854 0
M  V30 3571 H 325.347 0.652306 -3.45598 0
M  V30 3572 H 325.221 2.33215 -2.96463 0
M  V30 3573 H 327.608 2.1847 -1.98381 0
M  V30 3574 H 327.689 0.497041 -2.50925 0
M  V30 3575 H 327.333 1.25436 -4.92167 0
M  V30 3576 H 327.263 2.94532 -4.3653 0
M  V30 3577 H 329.754 1.76699 -3.34045 0
M  V30 3578 H 330.067 3.0489 -7.10114 0
M  V30 3579 H 328.412 2.74834 -6.3835 0
M  V30 3580 H 331.603 2.11392 -4.1765 0
M  V30 3581 H 331.776 2.69869 -5.89131 0
M  V30 3582 N 325.182 1.32811 0.848464 0
M  V30 3583 C 326.129 1.22265 1.95755 0
M  V30 3584 C 327.099 0.103413 1.65778 0
M  V30 3585 O 328.284 0.280033 1.88734 0
M  V30 3586 C 325.424 0.958014 3.31536 0
M  V30 3587 C 324.537 2.16262 3.73971 0
M  V30 3588 C 323.672 1.83295 4.98575 0
M  V30 3589 C 322.711 3.00041 5.33518 0
M  V30 3590 N 321.848 2.67125 6.49299 0
M  V30 3591 H 326.688 2.17128 2.04107 0
M  V30 3592 H 324.225 1.07982 0.998913 0
M  V30 3593 H 326.183 0.785052 4.09747 0
M  V30 3594 H 324.813 0.046159 3.22767 0
M  V30 3595 H 323.865 2.44565 2.91362 0
M  V30 3596 H 325.177 3.03572 3.95785 0
M  V30 3597 H 324.331 1.62586 5.84509 0
M  V30 3598 H 323.07 0.932078 4.7871 0
M  V30 3599 H 322.075 3.21374 4.46093 0
M  V30 3600 H 323.3 3.90869 5.55336 0
M  V30 3601 H 321.246 1.79586 6.3094 0
M  V30 3602 H 321.163 3.47965 6.71161 0
M  V30 3603 H 322.431 2.49861 7.3837 0
M  V30 3604 N 326.66 -1.06551 1.16123 0
M  V30 3605 C 328.076 -1.3142 0.905585 0
M  V30 3606 C 328.276 -1.96571 -0.442964 0
M  V30 3607 O 327.332 -2.23068 -1.18308 0
M  V30 3608 C 328.645 -2.19741 2.05267 0
M  V30 3609 C 330.193 -2.33165 2.08813 0
M  V30 3610 C 330.668 -3.24838 3.22868 0
M  V30 3611 N 332.159 -3.32421 3.22568 0
M  V30 3612 C 332.894 -4.0344 4.0746 0
M  V30 3613 N 332.39 -4.77003 5.02434 0
M  V30 3614 N 334.183 -3.99464 3.95456 0
M  V30 3615 H 326.334 -0.626548 2.02949 0
M  V30 3616 H 328.597 -0.338777 0.8854 0
M  V30 3617 H 328.303 -1.79142 3.02657 0
M  V30 3618 H 328.177 -3.20313 1.99198 0
M  V30 3619 H 330.564 -2.73013 1.12018 0
M  V30 3620 H 330.645 -1.3227 2.18948 0
M  V30 3621 H 330.289 -2.85708 4.19921 0
M  V30 3622 H 330.219 -4.25707 3.0997 0
M  V30 3623 H 332.71 -2.79994 2.53795 0
M  V30 3624 H 333.023 -5.28712 5.63634 0
M  V30 3625 H 331.368 -4.75992 5.06415 0
M  V30 3626 H 334.559 -3.4111 3.20564 0
M  V30 3627 H 334.732 -4.54544 4.61837 0
M  V30 3628 N 328.138 -0.959301 -1.25041 0
M  V30 3629 C 329.384 -0.617525 -1.9317 0
M  V30 3630 C 329.717 0.843981 -1.74902 0
M  V30 3631 O 328.992 1.60615 -1.09696 0
M  V30 3632 C 329.275 -0.982736 -3.46431 0
M  V30 3633 C 329.128 -2.50032 -3.73904 0
M  V30 3634 C 330.447 -0.511176 -4.37121 0
M  V30 3635 H 327.566 -0.22582 -0.701552 0
M  V30 3636 H 330.208 -1.19679 -1.4757 0
M  V30 3637 H 328.358 -0.489806 -3.854 0
M  V30 3638 H 330.03 -3.06737 -3.44544 0
M  V30 3639 H 328.273 -2.93598 -3.19348 0
M  V30 3640 H 328.944 -2.70635 -4.81103 0
M  V30 3641 H 331.42 -0.934075 -4.0548 0
M  V30 3642 H 330.296 -0.795361 -5.43107 0
M  V30 3643 H 330.557 0.588834 -4.38161 0
M  V30 3644 N 329.616 1.39756 -0.72842 0
M  V30 3645 C 330.564 2.32485 -0.0731849 0
M  V30 3646 C 331.558 1.52717 0.733063 0
M  V30 3647 O 332.764 1.68428 0.634988 0
M  V30 3648 H 329.139 0.751984 -0.00486469 0
M  V30 3649 H 331.11 2.85382 -0.871761 0
M  V30 3650 C 329.859 3.37773 0.824908 0
M  V30 3651 H 329.182 3.99227 0.213915 0
M  V30 3652 H 330.622 4.05121 1.25111 0
M  V30 3653 C 329.081 2.74287 1.95622 0
M  V30 3654 O 329.611 2.61618 3.04826 0
M  V30 3655 N 327.817 2.32475 1.74367 0
M  V30 3656 H 327.364 2.4298 0.855494 0
M  V30 3657 H 327.322 1.90337 2.50238 0
M  V30 3658 N 331.094 0.475555 1.50254 0
M  V30 3659 C 332.322 -0.0754493 2.06762 0
M  V30 3660 C 332.737 -1.33111 1.33891 0
M  V30 3661 O 332.094 -1.77846 0.40952 0
M  V30 3662 C 332.145 -0.359008 3.59713 0
M  V30 3663 O 331.866 0.846851 4.29837 0
M  V30 3664 C 333.367 -0.956484 4.32858 0
M  V30 3665 H 330.587 0.00907525 0.670939 0
M  V30 3666 H 333.131 0.665618 1.93364 0
M  V30 3667 H 331.286 -1.05001 3.72899 0
M  V30 3668 H 331.7 0.594162 5.21124 0
M  V30 3669 H 333.174 -1.10463 5.40834 0
M  V30 3670 H 333.651 -1.94775 3.93649 0
M  V30 3671 H 334.257 -0.303723 4.24214 0
M  V30 3672 N 332.573 -1.56217 0.208337 0
M  V30 3673 C 333.52 -2.19699 -0.707192 0
M  V30 3674 C 334.49 -1.14836 -1.20008 0
M  V30 3675 O 335.675 -1.4314 -1.26157 0
M  V30 3676 C 332.815 -2.87061 -1.91546 0
M  V30 3677 C 331.928 -4.06483 -1.46271 0
M  V30 3678 C 331.063 -4.61665 -2.62752 0
M  V30 3679 C 330.102 -5.73417 -2.14147 0
M  V30 3680 N 329.239 -6.22948 -3.23853 0
M  V30 3681 H 334.079 -2.97575 -0.159111 0
M  V30 3682 H 331.616 -1.46948 -0.0667874 0
M  V30 3683 H 333.574 -3.24294 -2.62468 0
M  V30 3684 H 332.204 -2.11725 -2.43664 0
M  V30 3685 H 331.256 -3.74825 -0.648886 0
M  V30 3686 H 332.568 -4.87271 -1.06622 0
M  V30 3687 H 331.722 -5.01272 -3.41776 0
M  V30 3688 H 330.461 -3.80013 -3.05682 0
M  V30 3689 H 329.466 -5.33326 -1.33581 0
M  V30 3690 H 330.691 -6.56897 -1.72232 0
M  V30 3691 H 328.637 -5.44213 -3.6629 0
M  V30 3692 H 328.554 -6.98823 -2.88414 0
M  V30 3693 H 329.822 -6.6721 -4.03052 0
M  V30 3694 N 334.051 0.0651679 -1.57465 0
M  V30 3695 C 335.467 0.420105 -1.53972 0
M  V30 3696 C 335.667 1.78782 -0.929474 0
M  V30 3697 O 334.723 2.46771 -0.534839 0
M  V30 3698 C 336.036 0.355084 -2.98596 0
M  V30 3699 C 337.584 0.434792 -3.09965 0
M  V30 3700 C 338.059 0.399609 -4.56253 0
M  V30 3701 N 339.55 0.459488 -4.60915 0
M  V30 3702 C 340.285 0.454584 -5.71595 0
M  V30 3703 N 339.781 0.404102 -6.9162 0
M  V30 3704 N 341.574 0.501635 -5.59857 0
M  V30 3705 H 333.725 -0.830328 -1.95498 0
M  V30 3706 H 335.988 -0.312244 -0.895102 0
M  V30 3707 H 335.694 -0.583357 -3.46828 0
M  V30 3708 H 335.568 1.16275 -3.58831 0
M  V30 3709 H 337.955 1.36366 -2.61703 0
M  V30 3710 H 338.036 -0.40157 -2.52628 0
M  V30 3711 H 337.68 -0.525436 -5.05175 0
M  V30 3712 H 337.61 1.25359 -5.11461 0
M  V30 3713 H 340.101 0.502482 -3.74544 0
M  V30 3714 H 340.414 0.404468 -7.71741 0
M  V30 3715 H 338.759 0.37069 -6.94011 0
M  V30 3716 H 341.95 0.538812 -4.64989 0
M  V30 3717 H 342.123 0.494345 -6.46112 0
M  V30 3718 N 335.529 1.53961 0.336706 0
M  V30 3719 C 336.754 1.75797 1.10046 0
M  V30 3720 C 337.179 0.498985 1.81361 0
M  V30 3721 O 336.537 -0.548769 1.72795 0
M  V30 3722 C 336.585 2.94257 2.08436 0
M  V30 3723 O 335.689 2.64883 3.16087 0
M  V30 3724 H 335.03 0.582936 0.317934 0
M  V30 3725 H 337.56 2.00945 0.38501 0
M  V30 3726 H 337.57 3.21237 2.51537 0
M  V30 3727 H 336.245 3.85564 1.55927 0
M  V30 3728 H 334.822 2.48812 2.77753 0
M  V30 3729 N 337.007 -0.598083 1.45811 0
M  V30 3730 C 338.232 -1.3881 1.54099 0
M  V30 3731 C 338.657 -1.8726 0.177578 0
M  V30 3732 O 338.015 -1.6069 -0.839541 0
M  V30 3733 C 338.063 -2.56217 2.53743 0
M  V30 3734 O 337.167 -3.5716 2.06182 0
M  V30 3735 H 336.508 -0.414024 0.519115 0
M  V30 3736 H 339.038 -0.726971 1.91249 0
M  V30 3737 H 339.048 -3.03337 2.72856 0
M  V30 3738 H 337.723 -2.20303 3.5276 0
M  V30 3739 H 336.3 -3.16624 1.96987 0
M  V30 3740 N 338.485 -1.33259 -0.841409 0
M  V30 3741 C 339.901 -1.12538 -1.13169 0
M  V30 3742 C 340.101 0.0854037 -2.01319 0
M  V30 3743 O 339.157 0.766417 -2.40587 0
M  V30 3744 C 340.47 -2.41156 -1.79623 0
M  V30 3745 C 342.018 -2.47038 -1.922 0
M  V30 3746 C 342.493 -3.7561 -2.6207 0
M  V30 3747 N 343.984 -3.76667 -2.69585 0
M  V30 3748 C 344.719 -4.72861 -3.2433 0
M  V30 3749 N 344.215 -5.79428 -3.79783 0
M  V30 3750 N 346.008 -4.6034 -3.22558 0
M  V30 3751 H 338.159 -2.10868 -0.254676 0
M  V30 3752 H 340.422 -0.931615 -0.175493 0
M  V30 3753 H 340.128 -3.29747 -1.22311 0
M  V30 3754 H 340.002 -2.53114 -2.79666 0
M  V30 3755 H 342.389 -1.58898 -2.48667 0
M  V30 3756 H 342.47 -2.39022 -0.911148 0
M  V30 3757 H 342.114 -4.64131 -2.06263 0
M  V30 3758 H 342.044 -3.80902 -3.63622 0
M  V30 3759 H 344.535 -2.99648 -2.30259 0
M  V30 3760 H 344.848 -6.48867 -4.19752 0
M  V30 3761 H 343.193 -5.83166 -3.78078 0
M  V30 3762 H 346.384 -3.76244 -2.78492 0
M  V30 3763 H 346.557 -5.35478 -3.64921 0
M  V30 3764 N 339.963 1.05934 -1.16686 0
M  V30 3765 C 340.926 2.11669 -0.879144 0
M  V30 3766 C 341.926 1.60294 0.127445 0
M  V30 3767 O 343.116 1.7389 -0.103865 0
M  V30 3768 C 340.248 3.39438 -0.315425 0
M  V30 3769 H 341.441 2.38626 -1.81653 0
M  V30 3770 H 338.994 1.22058 -0.976299 0
M  V30 3771 H 339.729 3.18132 0.629468 0
M  V30 3772 H 339.514 3.78034 -1.04079 0
M  V30 3773 H 341.004 4.17391 -0.132189 0
M  V30 3774 N 341.441 0.965919 1.2453 0
M  V30 3775 C 342.688 0.626831 1.92554 0
M  V30 3776 C 343.016 -0.837739 1.75534 0
M  V30 3777 O 342.271 -1.61793 1.10098 0
M  V30 3778 C 342.57 0.945428 3.44669 0
M  V30 3779 C 342.236 2.39785 3.81856 0
M  V30 3780 C 340.898 2.79483 3.91718 0
M  V30 3781 C 343.25 3.34055 4.00071 0
M  V30 3782 C 340.578 4.12496 4.1721 0
M  V30 3783 C 342.93 4.66694 4.27059 0
M  V30 3784 C 341.594 5.06172 4.3514 0
M  V30 3785 H 340.864 0.229374 0.704605 0
M  V30 3786 H 343.511 1.21707 1.4785 0
M  V30 3787 H 341.816 0.272926 3.90848 0
M  V30 3788 H 343.513 0.661484 3.95507 0
M  V30 3789 H 340.103 2.08003 3.74743 0
M  V30 3790 H 344.287 3.04571 3.91855 0
M  V30 3791 H 339.543 4.42709 4.21685 0
M  V30 3792 H 343.717 5.3971 4.40097 0
M  V30 3793 H 341.344 6.09262 4.54646 0
M  V30 3794 N 342.919 -1.39368 0.735821 0
M  V30 3795 C 344.335 -1.54204 0.411492 0
M  V30 3796 C 344.535 -1.70268 -1.07755 0
M  V30 3797 O 343.591 -1.70364 -1.86366 0
M  V30 3798 C 344.904 -2.75925 1.19523 0
M  V30 3799 C 346.452 -2.89761 1.18354 0
M  V30 3800 C 346.927 -4.14421 1.94986 0
M  V30 3801 N 348.418 -4.21462 1.92156 0
M  V30 3802 C 349.153 -5.16871 2.48258 0
M  V30 3803 N 348.649 -6.18063 3.13001 0
M  V30 3804 N 350.442 -5.09093 2.38287 0
M  V30 3805 H 342.593 -1.27189 1.70108 0
M  V30 3806 H 344.856 -0.616517 0.720147 0
M  V30 3807 H 344.562 -2.70401 2.24892 0
M  V30 3808 H 344.436 -3.68614 0.800222 0
M  V30 3809 H 346.823 -2.94777 0.137975 0
M  V30 3810 H 346.904 -1.98133 1.61793 0
M  V30 3811 H 346.548 -4.10166 2.99543 0
M  V30 3812 H 346.478 -5.05095 1.48953 0
M  V30 3813 H 348.969 -3.48979 1.44991 0
M  V30 3814 H 349.282 -6.87326 3.53275 0
M  V30 3815 H 347.627 -6.18448 3.17091 0
M  V30 3816 H 350.818 -4.28973 1.8735 0
M  V30 3817 H 350.991 -5.83272 2.82308 0
M  V30 3818 N 344.397 -0.483516 -1.5 0
M  V30 3819 C 345.36 0.292965 -2.2732 0
M  V30 3820 C 346.36 0.909499 -1.32608 0
M  V30 3821 O 347.55 0.776745 -1.55924 0
M  V30 3822 C 344.682 1.41854 -3.09984 0
M  V30 3823 H 345.875 -0.385289 -2.97415 0
M  V30 3824 H 343.428 -0.237942 -1.54478 0
M  V30 3825 H 344.163 2.13148 -2.44414 0
M  V30 3826 H 343.948 0.982114 -3.79601 0
M  V30 3827 H 345.438 1.96597 -3.68429 0
M  V30 3828 N 345.875 1.56104 -0.216619 0
M  V30 3829 C 346.825 2.16703 0.708798 0
M  V30 3830 C 347.809 1.11392 1.16106 0
M  V30 3831 O 349.001 1.37395 1.11587 0
M  V30 3832 C 346.13 2.84666 1.91886 0
M  V30 3833 C 345.216 3.97195 1.48651 0
M  V30 3834 N 345.607 4.99959 0.766434 0
M  V30 3835 C 343.905 4.09193 1.77418 0
M  V30 3836 C 344.606 5.79126 0.546659 0
M  V30 3837 N 343.582 5.32315 1.10188 0
M  V30 3838 H 347.384 2.93516 0.150162 0
M  V30 3839 H 344.898 1.6239 -0.0176768 0
M  V30 3840 H 346.895 3.26486 2.59253 0
M  V30 3841 H 345.555 2.09347 2.48202 0
M  V30 3842 H 346.566 5.16197 0.419634 0
M  V30 3843 H 343.243 3.45021 2.35088 0
M  V30 3844 H 344.633 6.71895 -0.026103 0
M  V30 3845 N 347.353 -0.0568162 1.57498 0
M  V30 3846 C 348.283 -1.06593 2.0775 0
M  V30 3847 C 349.264 -1.39448 0.974082 0
M  V30 3848 O 350.449 -1.48815 1.24771 0
M  V30 3849 C 347.579 -2.37509 2.5339 0
M  V30 3850 C 346.533 -2.1897 3.67745 0
M  V30 3851 C 345.859 -3.55402 3.99492 0
M  V30 3852 C 347.159 -1.59859 4.97235 0
M  V30 3853 H 348.853 -0.647706 2.9231 0
M  V30 3854 H 346.399 -0.310116 1.40621 0
M  V30 3855 H 348.352 -3.08409 2.87162 0
M  V30 3856 H 347.076 -2.8134 1.65878 0
M  V30 3857 H 345.735 -1.50508 3.3428 0
M  V30 3858 H 345.383 -3.9683 3.09088 0
M  V30 3859 H 345.083 -3.43831 4.76502 0
M  V30 3860 H 346.607 -4.27708 4.35773 0
M  V30 3861 H 348.021 -2.20642 5.29141 0
M  V30 3862 H 346.418 -1.58942 5.78669 0
M  V30 3863 H 347.488 -0.561506 4.81638 0
M  V30 3864 N 348.832 -1.54138 -0.328536 0
M  V30 3865 C 350.248 -1.44736 -0.672574 0
M  V30 3866 C 350.448 -0.616217 -1.91846 0
M  V30 3867 O 349.504 -0.113067 -2.52247 0
M  V30 3868 C 350.817 -2.884 -0.851217 0
M  V30 3869 C 352.365 -2.98271 -0.948877 0
M  V30 3870 C 352.84 -4.43074 -1.15973 0
M  V30 3871 N 354.331 -4.46665 -1.22658 0
M  V30 3872 C 355.066 -5.55857 -1.40751 0
M  V30 3873 N 354.562 -6.75026 -1.5592 0
M  V30 3874 N 356.355 -5.43495 -1.4342 0
M  V30 3875 H 348.506 -2.06661 0.490421 0
M  V30 3876 H 350.769 -0.934812 0.157579 0
M  V30 3877 H 350.475 -3.51699 -0.00704236 0
M  V30 3878 H 350.349 -3.34225 -1.74853 0
M  V30 3879 H 352.736 -2.35102 -1.78356 0
M  V30 3880 H 352.817 -2.55785 -0.0281435 0
M  V30 3881 H 352.461 -5.06827 -0.329915 0
M  V30 3882 H 352.391 -4.83165 -2.09426 0
M  V30 3883 H 354.882 -3.60797 -1.124 0
M  V30 3884 H 355.195 -7.54004 -1.69404 0
M  V30 3885 H 353.54 -6.77944 -1.53027 0
M  V30 3886 H 356.731 -4.49349 -1.31162 0
M  V30 3887 H 356.904 -6.28649 -1.57178 0
M  V30 3888 N 350.31 0.590341 -1.46126 0
M  V30 3889 C 351.273 1.68194 -1.55703 0
M  V30 3890 C 352.273 1.54808 -0.434868 0
M  V30 3891 O 353.463 1.59564 -0.698928 0
M  V30 3892 C 350.595 3.07575 -1.47005 0
M  V30 3893 H 351.788 1.61064 -2.52979 0
M  V30 3894 H 349.341 0.807541 -1.33823 0
M  V30 3895 H 350.076 3.20268 -0.509785 0
M  V30 3896 H 349.861 3.187 -2.28414 0
M  V30 3897 H 351.351 3.87055 -1.56776 0
M  V30 3898 N 351.788 1.33704 0.83433 0
M  V30 3899 C 353.199 1.22813 1.4062 0
M  V30 3900 C 353.55 -0.151107 1.95617 0
M  V30 3901 O 352.675 -1.05092 1.89168 0
M  V30 3902 C 353.27 2.22355 2.55624 0
M  V30 3903 C 351.829 2.1529 3.08751 0
M  V30 3904 C 350.976 2.09589 1.8157 0
M  V30 3905 H 353.927 1.45236 0.639702 0
M  V30 3906 H 353.948 1.83391 3.33389 0
M  V30 3907 H 353.46 3.22728 2.15566 0
M  V30 3908 H 351.561 1.18235 3.53343 0
M  V30 3909 H 351.674 3.06038 3.68616 0
M  V30 3910 H 350.038 1.55134 2.02004 0
M  V30 3911 H 350.821 3.11777 1.43701 0
M  V30 3912 N 353.266 -1.05314 1.17247 0
M  V30 3913 C 354.196 -2.1498 0.911362 0
M  V30 3914 C 355.177 -1.69471 -0.146169 0
M  V30 3915 O 356.362 -1.942 0.003812 0
M  V30 3916 C 353.492 -3.4472 0.422528 0
M  V30 3917 C 352.446 -4.03789 1.4191 0
M  V30 3918 C 351.772 -5.28858 0.788274 0
M  V30 3919 C 353.072 -4.41418 2.7919 0
M  V30 3920 H 354.766 -2.3708 1.82848 0
M  V30 3921 H 352.312 -1.13938 0.880569 0
M  V30 3922 H 354.265 -4.20787 0.227289 0
M  V30 3923 H 352.989 -3.22269 -0.530123 0
M  V30 3924 H 351.648 -3.2979 1.60106 0
M  V30 3925 H 351.296 -5.02709 -0.171173 0
M  V30 3926 H 350.996 -5.69338 1.45353 0
M  V30 3927 H 352.52 -6.07612 0.603282 0
M  V30 3928 H 353.934 -5.08524 2.64719 0
M  V30 3929 H 352.331 -4.92913 3.42282 0
M  V30 3930 H 353.401 -3.51819 3.33693 0
M  V30 3931 N 354.744 -0.972509 -1.24016 0
M  V30 3932 C 355.691 -0.505969 -2.25186 0
M  V30 3933 C 356.661 0.451009 -1.5986 0
M  V30 3934 O 357.846 0.360307 -1.87367 0
M  V30 3935 C 354.986 0.193089 -3.44559 0
M  V30 3936 C 354.099 -0.803222 -4.24467 0
M  V30 3937 C 353.234 -0.0797793 -5.3114 0
M  V30 3938 C 352.273 -1.06583 -6.02749 0
M  V30 3939 N 351.41 -0.372074 -7.01113 0
M  V30 3940 H 356.25 -1.37351 -2.64459 0
M  V30 3941 H 353.787 -0.688419 -1.29997 0
M  V30 3942 H 355.745 0.615125 -4.1264 0
M  V30 3943 H 354.375 1.02455 -3.06109 0
M  V30 3944 H 353.427 -1.34368 -3.55878 0
M  V30 3945 H 354.739 -1.55494 -4.73944 0
M  V30 3946 H 353.893 0.400015 -6.0538 0
M  V30 3947 H 352.632 0.704597 -4.82583 0
M  V30 3948 H 351.637 -1.55645 -5.27309 0
M  V30 3949 H 352.862 -1.85074 -6.53395 0
M  V30 3950 H 350.808 0.393238 -6.5482 0
M  V30 3951 H 350.725 -1.06258 -7.48495 0
M  V30 3952 H 351.993 0.0855932 -7.79453 0
M  V30 3953 N 356.222 1.38976 -0.743202 0
M  V30 3954 C 357.47 1.99948 -0.29417 0
M  V30 3955 C 357.791 1.59279 1.12495 0
M  V30 3956 O 357.061 0.844808 1.76748 0
M  V30 3957 H 355.641 0.739473 -0.105774 0
M  V30 3958 H 358.303 1.699 -0.954986 0
M  V30 3959 H 357.399 3.10142 -0.349056 0
M  V30 3960 N 357.7 0.491464 1.49741 0
M  V30 3961 C 358.648 -0.305837 2.30581 0
M  V30 3962 C 359.642 -0.971642 1.38764 0
M  V30 3963 O 360.848 -0.90042 1.5586 0
M  V30 3964 H 357.223 -0.117482 0.742767 0
M  V30 3965 H 359.194 0.396093 2.95759 0
M  V30 3966 C 357.943 -1.36319 3.19863 0
M  V30 3967 H 357.266 -0.860258 3.90435 0
M  V30 3968 H 358.706 -1.89323 3.79385 0
M  V30 3969 C 357.165 -2.37621 2.38826 0
M  V30 3970 O 357.695 -3.43311 2.08567 0
M  V30 3971 N 355.901 -2.09849 2.01026 0
M  V30 3972 H 355.448 -1.23922 2.25834 0
M  V30 3973 H 355.406 -2.77859 1.47112 0
M  V30 3974 N 359.178 -1.55987 0.224894 0
M  V30 3975 C 360.418 -2.00293 -0.407706 0
M  V30 3976 C 360.782 -1.1093 -1.56711 0
M  V30 3977 O 361.983 -1.44597 -2.26595 0
M  V30 3978 C 360.254 -3.47675 -0.82805 0
M  V30 3979 S 361.813 -4.14 -1.45429 0
M  V30 3980 H 358.631 -0.699152 -0.129256 0
M  V30 3981 H 361.233 -1.92609 0.334967 0
M  V30 3982 H 359.937 -4.10392 0.0253964 0
M  V30 3983 H 359.468 -3.59239 -1.60345 0
M  V30 3984 H 361.483 -4.13465 -2.74337 0
M  V30 3985 N 360.656 0.0484629 -1.57525 0
M  V30 3986 C 361.884 0.755421 -1.92616 0
M  V30 3987 C 362.299 1.69919 -0.822984 0
M  V30 3988 O 361.656 1.81378 0.202085 0
M  V30 3989 C 361.707 1.52915 -3.27566 0
M  V30 3990 O 361.428 0.62329 -4.33644 0
M  V30 3991 C 362.929 2.33502 -3.76818 0
M  V30 3992 H 360.149 0.213465 -0.63614 0
M  V30 3993 H 362.693 0.0117698 -2.04497 0
M  V30 3994 H 360.848 2.22486 -3.17142 0
M  V30 3995 H 361.262 1.16383 -5.11425 0
M  V30 3996 H 362.736 2.83214 -4.73808 0
M  V30 3997 H 363.213 3.14068 -3.07014 0
M  V30 3998 H 363.819 1.69043 -3.90262 0
M  V30 3999 N 362.134 1.5431 0.320358 0
M  V30 4000 C 363.084 1.803 1.39556 0
M  V30 4001 C 364.068 0.659166 1.46778 0
M  V30 4002 O 365.26 0.91926 1.51257 0
M  V30 4003 C 362.389 2.03665 2.76361 0
M  V30 4004 C 361.475 3.24178 2.73439 0
M  V30 4005 N 361.866 4.4516 2.40137 0
M  V30 4006 C 360.164 3.25816 3.04565 0
M  V30 4007 C 360.865 5.27109 2.4603 0
M  V30 4008 N 359.841 4.64368 2.82601 0
M  V30 4009 H 363.643 2.71416 1.12742 0
M  V30 4010 H 361.157 1.53548 0.528856 0
M  V30 4011 H 363.154 2.20425 3.53862 0
M  V30 4012 H 361.814 1.13805 3.04103 0
M  V30 4013 H 362.825 4.72104 2.12927 0
M  V30 4014 H 359.502 2.46001 3.37328 0
M  V30 4015 H 360.892 6.33728 2.23246 0
M  V30 4016 N 363.613 -0.582584 1.46437 0
M  V30 4017 C 365.024 -1.1647 1.45916 0
M  V30 4018 C 365.375 -1.95177 0.200077 0
M  V30 4019 O 364.5 -2.04874 -0.696819 0
M  V30 4020 C 365.095 -2.11885 2.64367 0
M  V30 4021 C 363.654 -2.65421 2.66887 0
M  V30 4022 C 362.801 -1.41294 2.38603 0
M  V30 4023 H 365.752 -0.370514 1.54314 0
M  V30 4024 H 365.773 -2.9535 2.39892 0
M  V30 4025 H 365.285 -1.54573 3.5599 0
M  V30 4026 H 363.386 -3.26602 1.79338 0
M  V30 4027 H 363.499 -3.08147 3.66854 0
M  V30 4028 H 361.863 -1.71109 1.88663 0
M  V30 4029 H 362.646 -0.858125 3.32402 0
M  V30 4030 N 365.091 -1.34144 -0.827227 0
M  V30 4031 C 366.001 -1.27428 -1.96975 0
M  V30 4032 C 367.017 -0.182728 -1.73038 0
M  V30 4033 O 368.193 -0.408426 -1.97215 0
M  V30 4034 C 365.258 -1.02526 -3.31194 0
M  V30 4035 C 364.319 -2.20796 -3.68168 0
M  V30 4036 C 363.552 -1.97073 -4.95982 0
M  V30 4037 O 363.775 -0.926822 -5.6282 0
M  V30 4038 O 362.709 -2.83912 -5.30733 0
M  V30 4039 H 366.535 -2.23537 -2.05584 0
M  V30 4040 H 364.12 -1.14307 -0.961989 0
M  V30 4041 H 366.002 -0.904026 -4.11589 0
M  V30 4042 H 364.677 -0.0945389 -3.23562 0
M  V30 4043 H 363.584 -2.38477 -2.88235 0
M  V30 4044 H 364.917 -3.12243 -3.8048 0
M  V30 4045 N 366.569 1.04691 -1.17803 0
M  V30 4046 C 367.846 1.7472 -0.879328 0
M  V30 4047 C 368.226 2.01812 0.619271 0
M  V30 4048 O 367.574 1.65824 1.57209 0
M  V30 4049 C 367.784 3.03686 -1.71976 0
M  V30 4050 C 369.132 3.77542 -1.94286 0
M  V30 4051 O 370.156 3.13569 -1.68976 0
M  V30 4052 O 369.015 4.92506 -2.36855 0
M  V30 4053 H 366.109 0.760011 -0.326056 0
M  V30 4054 H 368.655 1.10813 -1.28525 0
M  V30 4055 H 367.427 2.79754 -2.73594 0
M  V30 4056 H 367.05 3.75332 -1.31194 0
M  V30 4057 N 368.047 0.979072 1.23499 0
M  V30 4058 C 368.98 0.463027 2.23453 0
M  V30 4059 C 369.958 -0.469128 1.55685 0
M  V30 4060 O 371.142 -0.397882 1.84253 0
M  V30 4061 C 368.269 -0.330308 3.37086 0
M  V30 4062 C 367.315 0.545795 4.22993 0
M  V30 4063 S 368.148 1.99285 4.97037 0
M  V30 4064 C 369.304 1.20862 6.1412 0
M  V30 4065 H 369.537 1.31005 2.6688 0
M  V30 4066 H 367.07 0.784965 1.32957 0
M  V30 4067 H 369.028 -0.782027 4.02982 0
M  V30 4068 H 367.689 -1.15244 2.92194 0
M  V30 4069 H 366.882 -0.0638928 5.03959 0
M  V30 4070 H 366.484 0.933705 3.62157 0
M  V30 4071 H 368.776 0.469284 6.75873 0
M  V30 4072 H 369.719 1.99307 6.79472 0
M  V30 4073 H 370.127 0.727992 5.59786 0
M  V30 4074 N 369.525 -1.3858 0.750561 0
M  V30 4075 C 370.472 -2.30483 0.120835 0
M  V30 4076 C 371.442 -1.50022 -0.712923 0
M  V30 4077 O 372.627 -1.78662 -0.669676 0
M  V30 4078 C 369.767 -3.36431 -0.768666 0
M  V30 4079 C 368.88 -4.31927 0.0793922 0
M  V30 4080 C 368.015 -5.24944 -0.81283 0
M  V30 4081 C 367.054 -6.12088 0.0390447 0
M  V30 4082 N 366.191 -6.97412 -0.809969 0
M  V30 4083 H 371.031 -2.83761 0.91015 0
M  V30 4084 H 368.568 -1.39707 0.460463 0
M  V30 4085 H 370.526 -3.96462 -1.29898 0
M  V30 4086 H 369.156 -2.8457 -1.5238 0
M  V30 4087 H 368.208 -3.73382 0.727303 0
M  V30 4088 H 369.52 -4.93319 0.737401 0
M  V30 4089 H 368.674 -5.90078 -1.41042 0
M  V30 4090 H 367.413 -4.63911 -1.50458 0
M  V30 4091 H 366.418 -5.45952 0.649328 0
M  V30 4092 H 367.643 -6.75189 0.727809 0
M  V30 4093 H 365.589 -6.38931 -1.48672 0
M  V30 4094 H 365.506 -7.55712 -0.208789 0
M  V30 4095 H 366.774 -7.66959 -1.39263 0
M  V30 4096 N 371.003 -0.499398 -1.49478 0
M  V30 4097 C 371.933 0.269244 -2.31943 0
M  V30 4098 C 372.914 0.964054 -1.40143 0
M  V30 4099 O 374.099 0.955767 -1.69052 0
M  V30 4100 C 371.229 1.33504 -3.20615 0
M  V30 4101 C 370.183 0.760202 -4.21195 0
M  V30 4102 C 369.509 1.9264 -4.98792 0
M  V30 4103 C 370.809 -0.247661 -5.21712 0
M  V30 4104 H 372.503 -0.419082 -2.96452 0
M  V30 4105 H 370.049 -0.202988 -1.42562 0
M  V30 4106 H 372.002 1.88048 -3.77115 0
M  V30 4107 H 370.726 2.05253 -2.54045 0
M  V30 4108 H 369.385 0.23653 -3.65836 0
M  V30 4109 H 369.033 2.63154 -4.28671 0
M  V30 4110 H 368.733 1.54785 -5.66847 0
M  V30 4111 H 370.257 2.4762 -5.58137 0
M  V30 4112 H 371.671 0.209579 -5.72917 0
M  V30 4113 H 370.068 -0.541962 -5.97648 0
M  V30 4114 H 371.138 -1.16409 -4.7072 0
M  V30 4115 N 372.481 1.55866 -0.233164 0
M  V30 4116 C 373.721 2.00506 0.397078 0
M  V30 4117 C 374.085 1.1176 1.56121 0
M  V30 4118 O 375.286 1.45796 2.25825 0
M  V30 4119 C 373.557 3.4811 0.809601 0
M  V30 4120 S 375.116 4.14765 1.43231 0
M  V30 4121 H 371.934 0.699828 0.125547 0
M  V30 4122 H 374.536 1.92429 -0.345177 0
M  V30 4123 H 373.24 4.10373 -0.0471601 0
M  V30 4124 H 372.771 3.60085 1.58438 0
M  V30 4125 H 374.786 4.14914 2.7214 0
M  V30 4126 N 373.959 -0.0401083 1.57549 0
M  V30 4127 C 375.187 -0.745196 1.93014 0
M  V30 4128 C 375.602 -1.6948 0.831984 0
M  V30 4129 O 374.959 -1.81482 -0.192463 0
M  V30 4130 C 375.01 -1.51176 3.28372 0
M  V30 4131 O 374.731 -0.600284 4.33968 0
M  V30 4132 C 376.232 -2.315 3.78051 0
M  V30 4133 H 373.452 -0.210088 0.637263 0
M  V30 4134 H 375.996 -0.000924689 2.045 0
M  V30 4135 H 374.151 -2.20801 3.18317 0
M  V30 4136 H 374.565 -1.13669 5.12035 0
M  V30 4137 H 376.039 -2.80697 4.75303 0
M  V30 4138 H 376.516 -3.12436 3.08675 0
M  V30 4139 H 377.122 -1.66971 3.91153 0
M  V30 4140 N 375.437 -1.54477 -0.31217 0
M  V30 4141 C 376.683 -1.73483 -1.0503 0
M  V30 4142 C 377.016 -0.513125 -1.87298 0
M  V30 4143 O 376.291 0.489864 -1.8823 0
M  V30 4144 C 376.574 -3.01723 -1.96558 0
M  V30 4145 C 376.427 -4.3417 -1.17545 0
M  V30 4146 C 377.746 -3.25772 -2.95907 0
M  V30 4147 H 374.865 -0.631222 -0.380432 0
M  V30 4148 H 377.507 -1.87184 -0.325932 0
M  V30 4149 H 375.657 -2.90174 -2.58324 0
M  V30 4150 H 377.329 -4.5762 -0.581513 0
M  V30 4151 H 375.572 -4.31159 -0.477925 0
M  V30 4152 H 376.243 -5.20143 -1.84811 0
M  V30 4153 H 378.719 -3.36857 -2.44267 0
M  V30 4154 H 377.595 -4.16838 -3.57123 0
M  V30 4155 H 377.856 -2.43537 -3.68974 0
M  V30 4156 N 376.915 0.57481 -1.46744 0
M  V30 4157 C 378.164 1.32898 -1.51727 0
M  V30 4158 C 378.477 1.948 -0.176692 0
M  V30 4159 O 379.683 2.71299 -0.104385 0
M  V30 4160 C 378.139 2.40901 -2.67385 0
M  V30 4161 C 377.747 1.85266 -4.07898 0
M  V30 4162 C 379.491 3.17609 -2.81646 0
M  V30 4163 C 377.398 2.90945 -5.14883 0
M  V30 4164 H 376.328 0.499631 -0.564699 0
M  V30 4165 H 378.979 0.612536 -1.72975 0
M  V30 4166 H 377.361 3.15379 -2.39483 0
M  V30 4167 H 378.535 1.17278 -4.45626 0
M  V30 4168 H 376.85 1.21199 -3.98371 0
M  V30 4169 H 379.447 3.96493 -3.58744 0
M  V30 4170 H 379.79 3.70696 -1.89448 0
M  V30 4171 H 380.323 2.50239 -3.09233 0
M  V30 4172 H 377.062 2.42736 -6.089 0
M  V30 4173 H 376.582 3.57398 -4.81691 0
M  V30 4174 H 378.261 3.54755 -5.41071 0
M  V30 4175 N 378.394 1.34581 0.820102 0
M  V30 4176 C 379.327 1.20735 1.93644 0
M  V30 4177 C 380.305 0.0983343 1.62302 0
M  V30 4178 O 381.489 0.263997 1.86642 0
M  V30 4179 C 378.616 0.856037 3.27704 0
M  V30 4180 C 377.662 1.97521 3.78005 0
M  V30 4181 S 378.495 3.58906 3.97425 0
M  V30 4182 C 379.651 3.25822 5.34407 0
M  V30 4183 H 379.884 2.15231 2.05093 0
M  V30 4184 H 377.417 1.1964 0.97599 0
M  V30 4185 H 379.375 0.660133 4.05157 0
M  V30 4186 H 378.036 -0.0706253 3.14021 0
M  V30 4187 H 377.229 1.68321 4.75062 0
M  V30 4188 H 376.831 2.12875 3.07507 0
M  V30 4189 H 379.123 2.77812 6.17922 0
M  V30 4190 H 380.066 4.22029 5.68592 0
M  V30 4191 H 380.474 2.61932 5.00052 0
M  V30 4192 N 379.872 -1.04064 1.18357 0
M  V30 4193 C 380.819 -2.12077 0.910603 0
M  V30 4194 C 381.789 -1.65421 -0.15 0
M  V30 4195 O 382.974 -1.90797 -0.0103614 0
M  V30 4196 C 380.114 -3.42252 0.442472 0
M  V30 4197 C 379.227 -4.0252 1.5685 0
M  V30 4198 C 378.362 -5.20657 1.05309 0
M  V30 4199 C 377.401 -5.72955 2.1538 0
M  V30 4200 N 376.538 -6.8238 1.65233 0
M  V30 4201 H 381.378 -2.34764 1.83548 0
M  V30 4202 H 378.915 -1.15157 0.915279 0
M  V30 4203 H 380.873 -4.16921 0.152534 0
M  V30 4204 H 379.503 -3.19712 -0.445428 0
M  V30 4205 H 378.555 -3.25178 1.97391 0
M  V30 4206 H 379.867 -4.37362 2.39824 0
M  V30 4207 H 379.021 -6.0244 0.717677 0
M  V30 4208 H 377.76 -4.87318 0.19293 0
M  V30 4209 H 376.765 -4.89793 2.49766 0
M  V30 4210 H 377.99 -6.08337 3.01832 0
M  V30 4211 H 375.936 -6.50917 0.815064 0
M  V30 4212 H 375.853 -7.16286 2.41805 0
M  V30 4213 H 377.121 -7.67788 1.34619 0
M  V30 4214 N 381.35 -0.985608 -1.22978 0
M  V30 4215 C 382.575 -0.675254 -1.961 0
M  V30 4216 C 383 0.752154 -1.72407 0
M  V30 4217 O 382.358 1.5131 -0.998751 0
M  V30 4218 C 382.406 -0.977899 -3.47087 0
M  V30 4219 O 381.51 -0.072685 -4.12336 0
M  V30 4220 H 380.851 -0.253443 -0.613728 0
M  V30 4221 H 383.381 -1.32061 -1.56272 0
M  V30 4222 H 383.391 -0.916739 -3.97567 0
M  V30 4223 H 382.066 -2.01807 -3.63657 0
M  V30 4224 H 380.643 -0.188703 -3.72422 0
M  V30 4225 N 382.828 1.3818 -0.7579 0
M  V30 4226 C 383.776 2.32277 -0.122482 0
M  V30 4227 C 384.77 1.54238 0.700505 0
M  V30 4228 O 385.976 1.69737 0.599119 0
M  V30 4229 H 382.351 0.751712 -0.0208143 0
M  V30 4230 H 384.322 2.83469 -0.932099 0
M  V30 4231 C 383.071 3.39447 0.753076 0
M  V30 4232 H 382.394 3.99591 0.129184 0
M  V30 4233 H 383.834 4.07684 1.16489 0
M  V30 4234 C 382.293 2.78375 1.8976 0
M  V30 4235 O 382.823 2.68025 2.99208 0
M  V30 4236 N 381.029 2.36121 1.69397 0
M  V30 4237 H 380.576 2.4474 0.803762 0
M  V30 4238 H 380.534 1.95602 2.46145 0
M  V30 4239 N 384.306 0.507319 1.49211 0
M  V30 4240 C 385.554 -0.0348839 2.0207 0
M  V30 4241 C 385.875 -1.36898 1.38866 0
M  V30 4242 O 385.145 -1.88133 0.546151 0
M  V30 4243 H 383.725 -0.0158812 0.746831 0
M  V30 4244 H 386.387 0.665998 1.83168 0
M  V30 4245 H 385.483 -0.159917 3.1169 0
M  V30 4246 N 385.784 -1.5574 0.241426 0
M  V30 4247 C 387.009 -2.0366 -0.392111 0
M  V30 4248 C 387.434 -1.11969 -1.51144 0
M  V30 4249 O 386.792 -0.111594 -1.80956 0
M  V30 4250 C 386.84 -3.49638 -0.882371 0
M  V30 4251 O 385.944 -3.6108 -1.99235 0
M  V30 4252 H 385.285 -0.658379 -0.0862122 0
M  V30 4253 H 387.815 -2.01302 0.365881 0
M  V30 4254 H 387.825 -3.90351 -1.18702 0
M  V30 4255 H 386.5 -4.15852 -0.0632361 0
M  V30 4256 H 385.077 -3.32262 -1.69282 0
M  V30 4257 N 387.262 0.0317525 -1.57568 0
M  V30 4258 C 388.509 0.723104 -1.89149 0
M  V30 4259 C 388.837 1.75504 -0.838377 0
M  V30 4260 O 388.092 1.95037 0.160982 0
M  V30 4261 C 388.391 1.43167 -3.27472 0
M  V30 4262 C 388.057 0.535972 -4.47703 0
M  V30 4263 C 386.719 0.289262 -4.8033 0
M  V30 4264 C 389.071 -0.0826125 -5.21135 0
M  V30 4265 C 386.399 -0.584853 -5.83778 0
M  V30 4266 C 388.751 -0.944414 -6.25511 0
M  V30 4267 C 387.415 -1.20061 -6.56614 0
M  V30 4268 H 386.685 0.264602 -0.692146 0
M  V30 4269 H 389.332 -0.0169496 -1.91492 0
M  V30 4270 H 387.637 2.24497 -3.21105 0
M  V30 4271 H 389.334 1.97209 -3.49155 0
M  V30 4272 H 385.924 0.738414 -4.22191 0
M  V30 4273 H 390.108 0.0950302 -4.96209 0
M  V30 4274 H 385.364 -0.79168 -6.06253 0
M  V30 4275 H 389.538 -1.43026 -6.81554 0
M  V30 4276 H 387.165 -1.87967 -7.36595 0
M  V30 4277 N 388.74 1.54641 0.303973 0
M  V30 4278 C 390.151 1.64811 0.877163 0
M  V30 4279 C 390.502 0.554838 1.88191 0
M  V30 4280 O 389.627 -0.309033 2.14182 0
M  V30 4281 C 390.222 2.9876 1.59775 0
M  V30 4282 C 388.781 3.11061 2.11938 0
M  V30 4283 C 387.928 2.60479 0.951097 0
M  V30 4284 H 390.879 1.58493 0.0810486 0
M  V30 4285 H 390.9 2.90017 2.46314 0
M  V30 4286 H 390.412 3.7831 0.866226 0
M  V30 4287 H 388.513 2.36225 2.88146 0
M  V30 4288 H 388.626 4.17171 2.35595 0
M  V30 4289 H 386.99 2.16859 1.33583 0
M  V30 4290 H 387.773 3.42504 0.233581 0
M  V30 4291 N 390.218 -0.567019 1.47046 0
M  V30 4292 C 391.464 -1.32658 1.53394 0
M  V30 4293 C 391.797 -1.93254 0.19148 0
M  V30 4294 O 391.072 -1.77338 -0.798844 0
M  V30 4295 C 391.355 -2.44412 2.64452 0
M  V30 4296 C 391.208 -1.88749 4.08282 0
M  V30 4297 C 392.527 -3.46387 2.71485 0
M  V30 4298 H 389.646 -0.48098 0.558415 0
M  V30 4299 H 392.288 -0.635481 1.79058 0
M  V30 4300 H 390.438 -3.03363 2.427 0
M  V30 4301 H 392.11 -1.34134 4.41368 0
M  V30 4302 H 390.353 -1.19481 4.17021 0
M  V30 4303 H 391.024 -2.69491 4.81745 0
M  V30 4304 H 393.5 -2.9734 2.91081 0
M  V30 4305 H 392.376 -4.2202 3.50985 0
M  V30 4306 H 392.637 -4.04616 1.78153 0
M  V30 4307 N 391.696 -1.35014 -0.812953 0
M  V30 4308 C 392.644 -1.27435 -1.94585 0
M  V30 4309 C 393.638 -0.170494 -1.6854 0
M  V30 4310 O 394.844 -0.336085 -1.76835 0
M  V30 4311 H 391.219 -0.396144 -0.639198 0
M  V30 4312 H 393.19 -2.23158 -1.98098 0
M  V30 4313 C 391.939 -1.05677 -3.31252 0
M  V30 4314 H 391.262 -1.89853 -3.51846 0
M  V30 4315 H 392.702 -1.04413 -4.10943 0
M  V30 4316 C 391.161 0.239615 -3.36047 0
M  V30 4317 O 391.691 1.23759 -3.8216 0
M  V30 4318 N 389.897 0.276186 -2.89285 0
M  V30 4319 H 389.444 -0.53653 -2.51951 0
M  V30 4320 H 389.402 1.14332 -2.92875 0
M  V30 4321 N 393.175 1.03435 -1.18907 0
M  V30 4322 C 394.591 1.28973 -0.940111 0
M  V30 4323 C 394.791 1.97676 0.390691 0
M  V30 4324 O 393.847 2.26127 1.12352 0
M  V30 4325 C 395.16 2.14221 -2.11021 0
M  V30 4326 C 396.708 2.27547 -2.14922 0
M  V30 4327 C 397.183 3.16164 -3.31367 0
M  V30 4328 N 398.674 3.23752 -3.31269 0
M  V30 4329 C 399.409 3.92495 -4.18014 0
M  V30 4330 N 398.905 4.63515 -5.14904 0
M  V30 4331 N 400.698 3.88838 -4.05908 0
M  V30 4332 H 392.849 0.57252 -2.04538 0
M  V30 4333 H 395.112 0.315184 -0.894071 0
M  V30 4334 H 394.818 1.71054 -3.073 0
M  V30 4335 H 394.692 3.14919 -2.0762 0
M  V30 4336 H 397.079 2.69947 -1.19217 0
M  V30 4337 H 397.16 1.26418 -2.22378 0
M  V30 4338 H 396.804 2.74474 -4.27348 0
M  V30 4339 H 396.734 4.17339 -3.21148 0
M  V30 4340 H 399.225 2.73167 -2.61129 0
M  V30 4341 H 399.538 5.13583 -5.77453 0
M  V30 4342 H 397.883 4.62398 -5.18857 0
M  V30 4343 H 401.074 3.32491 -3.29495 0
M  V30 4344 H 401.247 4.4214 -4.73726 0
M  V30 4345 N 394.653 0.992116 1.22453 0
M  V30 4346 C 396.069 0.702713 1.43297 0
M  V30 4347 C 396.269 -0.726909 1.87932 0
M  V30 4348 O 395.325 -1.49792 2.0327 0
M  V30 4349 C 396.638 1.70762 2.47509 0
M  V30 4350 C 398.186 1.72298 2.61309 0
M  V30 4351 C 398.661 2.71649 3.68742 0
M  V30 4352 N 400.152 2.70239 3.76199 0
M  V30 4353 C 400.887 3.43778 4.58917 0
M  V30 4354 N 400.383 4.26914 5.45633 0
M  V30 4355 N 402.176 3.32487 4.5322 0
M  V30 4356 H 394.327 1.91543 0.917871 0
M  V30 4357 H 396.59 0.826031 0.465162 0
M  V30 4358 H 396.296 2.73059 2.21657 0
M  V30 4359 H 396.17 1.49985 3.46099 0
M  V30 4360 H 398.557 0.706989 2.86506 0
M  V30 4361 H 398.638 1.97143 1.62997 0
M  V30 4362 H 398.282 3.73397 3.44292 0
M  V30 4363 H 398.212 2.44074 4.66622 0
M  V30 4364 H 400.703 2.09912 3.14237 0
M  V30 4365 H 401.016 4.79855 6.05771 0
M  V30 4366 H 399.361 4.31002 5.45218 0
M  V30 4367 H 402.552 2.6698 3.84499 0
M  V30 4368 H 402.725 3.90058 5.17454 0
M  V30 4369 N 396.131 -1.37776 0.765217 0
M  V30 4370 C 397.547 -1.53297 0.444108 0
M  V30 4371 C 397.747 -1.72515 -1.04119 0
M  V30 4372 O 396.803 -1.74278 -1.82711 0
M  V30 4373 C 398.116 -2.73328 1.25349 0
M  V30 4374 C 399.664 -2.87185 1.24473 0
M  V30 4375 C 400.139 -4.10191 2.03733 0
M  V30 4376 N 401.63 -4.17291 2.01053 0
M  V30 4377 C 402.365 -5.11488 2.59166 0
M  V30 4378 N 401.861 -6.11285 3.26041 0
M  V30 4379 N 403.654 -5.03924 2.49032 0
M  V30 4380 H 395.805 -1.23552 1.72768 0
M  V30 4381 H 398.068 -0.601103 0.733062 0
M  V30 4382 H 397.774 -2.6557 2.30577 0
M  V30 4383 H 397.648 -3.66834 0.87823 0
M  V30 4384 H 400.035 -2.94418 0.20047 0
M  V30 4385 H 400.116 -1.94657 1.65959 0
M  V30 4386 H 399.76 -4.0372 3.08176 0
M  V30 4387 H 399.69 -5.01821 1.59633 0
M  V30 4388 H 402.181 -3.45825 1.5236 0
M  V30 4389 H 402.494 -6.79678 3.67774 0
M  V30 4390 H 400.839 -6.11583 3.30138 0
M  V30 4391 H 404.03 -4.24902 1.96407 0
M  V30 4392 H 404.203 -5.77152 2.94617 0
M  V30 4393 N 397.609 -0.515225 -1.4894 0
M  V30 4394 C 398.855 0.0242508 -2.02785 0
M  V30 4395 C 399.188 1.35323 -1.39289 0
M  V30 4396 O 398.463 1.87041 -0.533469 0
M  V30 4397 C 398.746 0.16184 -3.59736 0
M  V30 4398 C 398.599 -1.19127 -4.33738 0
M  V30 4399 C 399.918 0.895719 -4.30888 0
M  V30 4400 H 397.037 0.00733914 -0.736963 0
M  V30 4401 H 399.679 -0.669395 -1.77818 0
M  V30 4402 H 397.829 0.752624 -3.8114 0
M  V30 4403 H 399.501 -1.82202 -4.23792 0
M  V30 4404 H 397.744 -1.77695 -3.95736 0
M  V30 4405 H 398.415 -1.04815 -5.41957 0
M  V30 4406 H 400.891 0.394528 -4.14225 0
M  V30 4407 H 399.767 0.960859 -5.40425 0
M  V30 4408 H 400.028 1.9427 -3.97129 0
M  V30 4409 N 399.087 1.5561 -0.249682 0
M  V30 4410 C 399.997 2.25143 0.659375 0
M  V30 4411 C 401.013 1.2685 1.19101 0
M  V30 4412 O 402.189 1.59732 1.22669 0
M  V30 4413 C 399.254 2.93945 1.8384 0
M  V30 4414 C 398.315 4.07655 1.34596 0
M  V30 4415 C 397.548 4.73167 2.46878 0
M  V30 4416 O 397.771 4.37768 3.65671 0
M  V30 4417 O 396.705 5.61623 2.16478 0
M  V30 4418 H 400.531 3.03545 0.0968698 0
M  V30 4419 H 398.116 1.49389 -0.018074 0
M  V30 4420 H 399.998 3.37271 2.52638 0
M  V30 4421 H 398.673 2.18481 2.38847 0
M  V30 4422 H 397.58 3.68839 0.625174 0
M  V30 4423 H 398.913 4.84946 0.841941 0
M  V30 4424 N 400.565 -0.0233959 1.57583 0
M  V30 4425 C 401.528 -1.00693 2.05897 0
M  V30 4426 C 402.528 -1.28693 0.964092 0
M  V30 4427 O 403.718 -1.23602 1.22753 0
M  V30 4428 C 400.85 -2.33825 2.4807 0
M  V30 4429 H 402.043 -0.589476 2.9405 0
M  V30 4430 H 399.596 -0.270354 1.53944 0
M  V30 4431 H 400.331 -2.80307 1.6309 0
M  V30 4432 H 400.116 -2.1483 3.2801 0
M  V30 4433 H 401.606 -3.04426 2.85857 0
M  V30 4434 N 402.043 -1.548 -0.295768 0
M  V30 4435 C 403.006 -1.85363 -1.34808 0
M  V30 4436 C 404.006 -0.726817 -1.43436 0
M  V30 4437 O 405.196 -0.995088 -1.42981 0
M  V30 4438 C 402.328 -2.03859 -2.73229 0
M  V30 4439 H 403.521 -2.7941 -1.08949 0
M  V30 4440 H 401.074 -1.46942 -0.532702 0
M  V30 4441 H 401.809 -1.12117 -3.04303 0
M  V30 4442 H 401.594 -2.8588 -2.68356 0
M  V30 4443 H 403.084 -2.28857 -3.49305 0
M  V30 4444 N 403.521 0.559213 -1.47345 0
M  V30 4445 C 404.937 0.884943 -1.32819 0
M  V30 4446 C 405.137 1.98988 -0.317173 0
M  V30 4447 O 404.193 2.51031 0.272011 0
M  V30 4448 C 405.506 1.28007 -2.72093 0
M  V30 4449 C 407.054 1.39161 -2.80363 0
M  V30 4450 C 407.529 1.82031 -4.20272 0
M  V30 4451 N 409.02 1.89185 -4.22804 0
M  V30 4452 C 409.755 2.2368 -5.27973 0
M  V30 4453 N 409.251 2.56802 -6.43447 0
M  V30 4454 N 411.044 2.24436 -5.15349 0
M  V30 4455 H 403.195 -0.170304 -2.11716 0
M  V30 4456 H 405.458 -0.0135247 -0.947904 0
M  V30 4457 H 405.164 0.542027 -3.47498 0
M  V30 4458 H 405.038 2.23665 -3.03733 0
M  V30 4459 H 407.425 2.12048 -2.05231 0
M  V30 4460 H 407.506 0.41696 -2.52379 0
M  V30 4461 H 407.15 1.09715 -4.95908 0
M  V30 4462 H 407.08 2.80495 -4.45679 0
M  V30 4463 H 409.571 1.65982 -3.39497 0
M  V30 4464 H 409.884 2.82144 -7.19454 0
M  V30 4465 H 408.229 2.54387 -6.46771 0
M  V30 4466 H 411.42 1.97998 -4.24163 0
M  V30 4467 H 411.593 2.50989 -5.97418 0
M  V30 4468 N 404.999 1.35443 0.805782 0
M  V30 4469 C 406.415 1.15499 1.10146 0
M  V30 4470 C 406.615 -0.0319975 2.01475 0
M  V30 4471 O 405.671 -0.70236 2.42535 0
M  V30 4472 C 406.984 2.45833 1.73166 0
M  V30 4473 C 408.532 2.52047 1.85583 0
M  V30 4474 C 409.007 3.82427 2.52019 0
M  V30 4475 N 410.498 3.83682 2.59504 0
M  V30 4476 C 411.233 4.81294 3.11679 0
M  V30 4477 N 410.729 5.89294 3.64287 0
M  V30 4478 N 412.522 4.6873 3.1024 0
M  V30 4479 H 404.673 2.11469 0.198678 0
M  V30 4480 H 406.936 0.93594 0.150731 0
M  V30 4481 H 406.642 3.32874 1.13526 0
M  V30 4482 H 406.516 2.6044 2.72857 0
M  V30 4483 H 408.903 1.65435 2.44367 0
M  V30 4484 H 408.984 2.41354 0.847455 0
M  V30 4485 H 408.628 4.69437 1.93885 0
M  V30 4486 H 408.558 3.90409 3.53395 0
M  V30 4487 H 411.049 3.05648 2.22234 0
M  V30 4488 H 411.362 6.59768 4.02401 0
M  V30 4489 H 409.707 5.92985 3.62483 0
M  V30 4490 H 412.898 3.83496 2.68419 0
M  V30 4491 H 413.071 5.44965 3.50596 0
M  V30 4492 N 406.477 -1.02803 1.19454 0
M  V30 4493 C 407.44 -2.09264 0.934955 0
M  V30 4494 C 408.44 -1.60576 -0.0849015 0
M  V30 4495 O 409.63 -1.73554 0.149933 0
M  V30 4496 C 406.762 -3.38482 0.40531 0
M  V30 4497 H 407.955 -2.33726 1.87916 0
M  V30 4498 H 405.508 -1.19426 1.00832 0
M  V30 4499 H 406.243 -3.19689 -0.544899 0
M  V30 4500 H 406.028 -3.75142 1.14065 0
M  V30 4501 H 407.518 -4.16894 0.242806 0
M  V30 4502 N 407.956 -0.998596 -1.21925 0
M  V30 4503 C 408.888 -0.511879 -2.23411 0
M  V30 4504 C 409.901 0.396094 -1.57908 0
M  V30 4505 O 411.09 0.197316 -1.77406 0
M  V30 4506 C 408.19 0.276802 -3.37768 0
M  V30 4507 C 407.363 -0.628687 -4.32858 0
M  V30 4508 C 406.422 0.109272 -5.26087 0
M  V30 4509 O 405.448 -0.507237 -5.66935 0
M  V30 4510 N 406.65 1.38983 -5.63617 0
M  V30 4511 H 409.415 -1.38457 -2.658 0
M  V30 4512 H 406.976 -0.873981 -1.36283 0
M  V30 4513 H 408.968 0.77928 -3.97126 0
M  V30 4514 H 407.538 1.05063 -2.94415 0
M  V30 4515 H 406.758 -1.31175 -3.71735 0
M  V30 4516 H 408.046 -1.24514 -4.93329 0
M  V30 4517 H 407.444 1.91194 -5.32411 0
M  V30 4518 H 406.001 1.83739 -6.25367 0
M  V30 4519 N 409.434 1.37368 -0.772513 0
M  V30 4520 C 410.344 2.34053 -0.160081 0
M  V30 4521 C 411.36 1.60216 0.678728 0
M  V30 4522 O 412.536 1.92303 0.59847 0
M  V30 4523 C 409.601 3.3939 0.708182 0
M  V30 4524 C 408.662 4.29048 -0.147172 0
M  V30 4525 C 407.895 5.29354 0.679744 0
M  V30 4526 O 408.118 5.3723 1.91678 0
M  V30 4527 O 407.052 6.01835 0.0885444 0
M  V30 4528 H 410.878 2.88159 -0.959053 0
M  V30 4529 H 408.463 1.39543 -0.533685 0
M  V30 4530 H 410.345 4.03839 1.20384 0
M  V30 4531 H 409.02 2.8761 1.48533 0
M  V30 4532 H 407.927 3.67697 -0.689205 0
M  V30 4533 H 409.26 4.84134 -0.887423 0
M  V30 4534 N 410.912 0.523116 1.48665 0
M  V30 4535 C 411.842 -0.23231 2.32342 0
M  V30 4536 C 412.823 -0.941637 1.41659 0
M  V30 4537 O 414.008 -0.928751 1.70552 0
M  V30 4538 C 411.138 -1.28387 3.22698 0
M  V30 4539 C 410.092 -0.693098 4.22351 0
M  V30 4540 C 409.418 -1.8468 5.01794 0
M  V30 4541 C 410.718 0.33063 5.21252 0
M  V30 4542 H 412.412 0.466192 2.95748 0
M  V30 4543 H 409.958 0.225643 1.42221 0
M  V30 4544 H 411.911 -1.82024 3.80059 0
M  V30 4545 H 410.635 -2.01186 2.57278 0
M  V30 4546 H 409.294 -0.178299 3.66166 0
M  V30 4547 H 408.942 -2.56301 4.32804 0
M  V30 4548 H 408.642 -1.45747 5.69238 0
M  V30 4549 H 410.166 -2.38709 5.62006 0
M  V30 4550 H 411.58 -0.118407 5.73178 0
M  V30 4551 H 409.977 0.636974 5.9671 0
M  V30 4552 H 411.047 1.23883 4.68808 0
M  V30 4553 N 412.39 -1.55475 0.257931 0
M  V30 4554 C 413.3 -2.2549 -0.647425 0
M  V30 4555 C 414.316 -1.2748 -1.18427 0
M  V30 4556 O 415.492 -1.6038 -1.2182 0
M  V30 4557 C 412.557 -2.94916 -1.82278 0
M  V30 4558 C 411.618 -4.08363 -1.32432 0
M  V30 4559 C 410.851 -4.74469 -2.44366 0
M  V30 4560 O 411.074 -4.39701 -3.63344 0
M  V30 4561 O 410.008 -5.62763 -2.13497 0
M  V30 4562 H 413.834 -3.03593 -0.0807707 0
M  V30 4563 H 411.419 -1.49377 0.0259962 0
M  V30 4564 H 413.301 -3.38606 -2.50846 0
M  V30 4565 H 411.976 -2.19744 -2.37685 0
M  V30 4566 H 410.883 -3.69166 -0.605605 0
M  V30 4567 H 412.216 -4.85385 -0.816211 0
M  V30 4568 N 413.868 0.0150385 -1.57593 0
M  V30 4569 C 414.801 1.04475 -2.0288 0
M  V30 4570 C 415.779 1.3436 -0.915764 0
M  V30 4571 O 416.963 1.46779 -1.18271 0
M  V30 4572 C 414.09 2.37608 -2.41371 0
M  V30 4573 C 413.136 2.23487 -3.63257 0
M  V30 4574 S 413.969 1.57505 -5.11813 0
M  V30 4575 C 415.125 2.921 -5.5356 0
M  V30 4576 H 415.358 0.65907 -2.89903 0
M  V30 4577 H 412.891 0.225452 -1.52745 0
M  V30 4578 H 414.849 3.14165 -2.64217 0
M  V30 4579 H 413.51 2.7332 -1.54775 0
M  V30 4580 H 412.703 3.21802 -3.87891 0
M  V30 4581 H 412.305 1.55074 -3.40335 0
M  V30 4582 H 414.597 3.88419 -5.55101 0
M  V30 4583 H 415.54 2.72184 -6.53698 0
M  V30 4584 H 415.948 2.95318 -4.8109 0
M  V30 4585 N 415.346 1.54954 0.287554 0
M  V30 4586 C 416.256 1.8991 1.37736 0
M  V30 4587 C 417.272 0.794701 1.54792 0
M  V30 4588 O 418.448 1.09243 1.69198 0
M  V30 4589 C 415.513 2.15108 2.71899 0
M  V30 4590 C 414.574 3.38752 2.63715 0
M  V30 4591 C 413.807 3.62739 3.91479 0
M  V30 4592 O 414.03 2.89492 4.91478 0
M  V30 4593 O 412.964 4.56267 3.92561 0
M  V30 4594 H 416.79 2.82652 1.11092 0
M  V30 4595 H 414.375 1.41315 0.484807 0
M  V30 4596 H 416.257 2.32806 3.51254 0
M  V30 4597 H 414.932 1.25551 2.9836 0
M  V30 4598 H 413.839 3.26405 1.82786 0
M  V30 4599 H 415.172 4.28483 2.42205 0
M  V30 4600 N 416.824 -0.551391 1.4764 0
M  V30 4601 C 417.757 -1.6738 1.5511 0
M  V30 4602 C 418.735 -1.5753 0.402856 0
M  V30 4603 O 419.919 -1.78307 0.611475 0
M  V30 4604 C 417.046 -3.05661 1.45908 0
M  V30 4605 C 416.092 -3.33938 2.65307 0
M  V30 4606 S 416.925 -3.22553 4.27457 0
M  V30 4607 C 418.081 -4.63317 4.20818 0
M  V30 4608 H 418.314 -1.6079 2.50068 0
M  V30 4609 H 415.847 -0.732674 1.35909 0
M  V30 4610 H 417.805 -3.8542 1.41286 0
M  V30 4611 H 416.466 -3.09711 0.523248 0
M  V30 4612 H 415.659 -4.34761 2.54948 0
M  V30 4613 H 415.261 -2.61809 2.67081 0
M  V30 4614 H 417.553 -5.54391 3.89431 0
M  V30 4615 H 418.496 -4.78732 5.21748 0
M  V30 4616 H 418.904 -4.41636 3.51593 0
M  V30 4617 N 418.302 -1.35869 -0.798587 0
M  V30 4618 C 419.232 -1.32118 -1.92528 0
M  V30 4619 C 420.213 -0.194209 -1.68988 0
M  V30 4620 O 421.398 -0.390426 -1.90235 0
M  V30 4621 C 418.528 -1.10047 -3.29404 0
M  V30 4622 C 417.482 -2.19471 -3.67446 0
M  V30 4623 C 416.808 -1.82555 -5.02571 0
M  V30 4624 C 418.108 -3.61495 -3.76987 0
M  V30 4625 H 419.802 -2.26394 -1.95924 0
M  V30 4626 H 417.348 -1.08981 -0.94123 0
M  V30 4627 H 419.301 -1.06061 -4.07835 0
M  V30 4628 H 418.025 -0.122195 -3.26371 0
M  V30 4629 H 416.684 -2.22568 -2.91306 0
M  V30 4630 H 416.332 -0.833249 -4.9605 0
M  V30 4631 H 416.032 -2.5581 -5.28995 0
M  V30 4632 H 417.556 -1.80108 -5.83432 0
M  V30 4633 H 418.97 -3.60676 -4.4563 0
M  V30 4634 H 417.367 -4.33577 -4.14887 0
M  V30 4635 H 418.437 -3.97065 -2.78329 0
M  V30 4636 N 419.78 1.02168 -1.19998 0
M  V30 4637 C 421.005 1.79833 -1.03319 0
M  V30 4638 C 421.43 1.83504 0.413281 0
M  V30 4639 O 420.788 1.26635 1.29743 0
M  V30 4640 C 420.836 3.22396 -1.61533 0
M  V30 4641 O 419.94 4.03555 -0.849519 0
M  V30 4642 H 419.281 0.554872 -0.364709 0
M  V30 4643 H 421.811 1.28542 -1.59179 0
M  V30 4644 H 421.821 3.73124 -1.65054 0
M  V30 4645 H 420.496 3.19039 -2.66809 0
M  V30 4646 H 419.073 3.62169 -0.888129 0
M  V30 4647 N 421.258 1.00505 1.21394 0
M  V30 4648 C 422.483 0.706367 1.95001 0
M  V30 4649 C 422.908 -0.72463 1.73582 0
M  V30 4650 O 422.266 -1.49702 1.0227 0
M  V30 4651 C 422.314 1.03299 3.45487 0
M  V30 4652 O 421.418 0.138275 4.12168 0
M  V30 4653 H 420.759 0.263175 0.609619 0
M  V30 4654 H 423.289 1.34531 1.54151 0
M  V30 4655 H 423.299 0.979872 3.96059 0
M  V30 4656 H 421.974 2.07567 3.60401 0
M  V30 4657 H 420.551 0.247928 3.72075 0
M  V30 4658 N 422.737 -1.36956 0.779787 0
M  V30 4659 C 423.965 -2.03755 0.359398 0
M  V30 4660 C 424.38 -1.58807 -1.02106 0
M  V30 4661 O 423.737 -0.773024 -1.6532 0
M  V30 4662 C 423.788 -3.59251 0.402568 0
M  V30 4663 O 423.509 -4.02557 1.72858 0
M  V30 4664 C 425.01 -4.43291 -0.0284068 0
M  V30 4665 H 422.23 -0.654148 0.149437 0
M  V30 4666 H 424.774 -1.75128 1.05595 0
M  V30 4667 H 422.929 -3.86621 -0.245478 0
M  V30 4668 H 423.343 -4.97111 1.67275 0
M  V30 4669 H 424.817 -5.51975 0.0529466 0
M  V30 4670 H 425.294 -4.25719 -1.07982 0
M  V30 4671 H 425.9 -4.21163 0.591758 0
M  V30 4672 N 424.215 -0.530993 -1.48385 0
M  V30 4673 C 425.44 0.000729535 -2.074 0
M  V30 4674 C 425.865 1.27298 -1.3848 0
M  V30 4675 O 425.223 1.75599 -0.451081 0
M  V30 4676 C 425.271 0.206697 -3.60007 0
M  V30 4677 O 424.375 1.27514 -3.92191 0
M  V30 4678 H 423.716 -0.039583 -0.662819 0
M  V30 4679 H 426.246 -0.739194 -1.9078 0
M  V30 4680 H 426.256 0.42904 -4.05738 0
M  V30 4681 H 424.931 -0.722675 -4.09573 0
M  V30 4682 H 423.508 1.03537 -3.58238 0
M  V30 4683 N 425.693 1.55336 -0.266172 0
M  V30 4684 C 427.104 1.85236 0.233315 0
M  V30 4685 C 427.455 1.18816 1.56132 0
M  V30 4686 O 426.58 0.473307 2.11161 0
M  V30 4687 C 427.175 3.36059 0.430113 0
M  V30 4688 C 425.734 3.66116 0.873842 0
M  V30 4689 C 424.881 2.77274 -0.0380016 0
M  V30 4690 H 427.832 1.51004 -0.488214 0
M  V30 4691 H 427.853 3.58681 1.26998 0
M  V30 4692 H 427.365 3.84373 -0.536588 0
M  V30 4693 H 425.466 3.23295 1.85233 0
M  V30 4694 H 425.579 4.73699 0.717358 0
M  V30 4695 H 423.943 2.50198 0.476759 0
M  V30 4696 H 424.726 3.284 -1.00042 0
M  V30 4697 N 427.171 -0.0066808 1.57599 0
M  V30 4698 C 428.582 -0.550379 1.78403 0
M  V30 4699 C 428.933 -1.74339 0.900014 0
M  V30 4700 O 428.058 -2.16166 0.100713 0
M  V30 4701 C 428.653 -1.00523 3.23544 0
M  V30 4702 C 427.212 -1.49428 3.45468 0
M  V30 4703 C 426.359 -0.442444 2.73748 0
M  V30 4704 H 429.31 0.219508 1.57175 0
M  V30 4705 H 429.331 -1.87157 3.31289 0
M  V30 4706 H 428.843 -0.136735 3.87859 0
M  V30 4707 H 426.944 -2.3839 2.86358 0
M  V30 4708 H 427.057 -1.52635 4.54136 0
M  V30 4709 H 425.421 -0.902578 2.38171 0
M  V30 4710 H 426.204 0.416973 3.40758 0
M  V30 4711 N 428.649 -1.55105 -0.279332 0
M  V30 4712 C 429.559 -1.90638 -1.36727 0
M  V30 4713 C 430.575 -0.802899 -1.54368 0
M  V30 4714 O 431.751 -1.10138 -1.68616 0
M  V30 4715 C 428.816 -2.16547 -2.70755 0
M  V30 4716 C 427.877 -3.40146 -2.61915 0
M  V30 4717 C 427.11 -3.6481 -3.8955 0
M  V30 4718 O 427.333 -2.92095 -4.89935 0
M  V30 4719 O 426.267 -4.58343 -3.90135 0
M  V30 4720 H 430.093 -2.83237 -1.09591 0
M  V30 4721 H 427.678 -1.4157 -0.477306 0
M  V30 4722 H 429.56 -2.34665 -3.50014 0
M  V30 4723 H 428.235 -1.27131 -2.9769 0
M  V30 4724 H 427.142 -3.2737 -1.81052 0
M  V30 4725 H 428.475 -4.29761 -2.3993 0
M  V30 4726 N 430.127 0.543554 -1.4793 0
M  V30 4727 C 431.543 0.870806 -1.3375 0
M  V30 4728 C 431.743 1.9864 -0.338261 0
M  V30 4729 O 430.799 2.51305 0.245371 0
M  V30 4730 C 432.112 1.25114 -2.73435 0
M  V30 4731 C 433.66 1.3618 -2.81823 0
M  V30 4732 C 434.135 1.77563 -4.22179 0
M  V30 4733 N 435.626 1.8469 -4.24787 0
M  V30 4734 C 436.361 2.18067 -5.30315 0
M  V30 4735 N 435.857 2.49963 -6.46135 0
M  V30 4736 N 437.65 2.18958 -5.17701 0
M  V30 4737 H 429.801 -0.19275 -2.11524 0
M  V30 4738 H 432.064 -0.0235777 -0.947707 0
M  V30 4739 H 431.77 0.50514 -3.48053 0
M  V30 4740 H 431.644 2.20431 -3.06088 0
M  V30 4741 H 434.031 2.09859 -2.07468 0
M  V30 4742 H 434.112 0.390169 -2.52807 0
M  V30 4743 H 433.756 1.04449 -4.97044 0
M  V30 4744 H 433.686 2.75753 -4.48629 0
M  V30 4745 H 436.177 1.62372 -3.41239 0
M  V30 4746 H 436.49 2.74497 -7.22406 0
M  V30 4747 H 434.835 2.47513 -6.49432 0
M  V30 4748 H 438.026 1.93488 -4.2624 0
M  V30 4749 H 438.199 2.44639 -6.00047 0
M  V30 4750 N 431.605 1.3629 0.791371 0
M  V30 4751 C 432.833 1.33562 1.58016 0
M  V30 4752 C 433.248 -0.0835616 1.88615 0
M  V30 4753 O 432.605 -1.0399 1.49974 0
M  V30 4754 C 432.656 2.15517 2.90232 0
M  V30 4755 O 432.377 3.51902 2.60953 0
M  V30 4756 C 433.878 2.20546 3.84544 0
M  V30 4757 H 431.098 0.458226 0.490173 0
M  V30 4758 H 433.642 1.79361 0.982345 0
M  V30 4759 H 431.797 1.73278 3.46487 0
M  V30 4760 H 432.211 3.94644 3.4548 0
M  V30 4761 H 433.685 2.82252 4.74382 0
M  V30 4762 H 434.162 1.20838 4.2225 0
M  V30 4763 H 434.768 2.63013 3.34222 0
M  V30 4764 N 433.083 -1.0153 1.20538 0
M  V30 4765 C 434.499 -1.27461 0.96051 0
M  V30 4766 C 434.699 -1.98273 -0.359193 0
M  V30 4767 O 433.755 -2.27886 -1.0874 0
M  V30 4768 C 435.068 -2.10837 2.14402 0
M  V30 4769 C 436.616 -2.24099 2.18515 0
M  V30 4770 C 437.091 -3.10852 3.36355 0
M  V30 4771 N 438.582 -3.18441 3.36377 0
M  V30 4772 C 439.317 -3.85795 4.24205 0
M  V30 4773 N 438.813 -4.55264 5.22213 0
M  V30 4774 N 440.606 -3.82331 4.12043 0
M  V30 4775 H 432.757 -0.539907 2.05423 0
M  V30 4776 H 435.02 -0.30092 0.898972 0
M  V30 4777 H 434.726 -1.66144 3.09983 0
M  V30 4778 H 434.6 -3.11576 2.12604 0
M  V30 4779 H 436.987 -2.68016 1.23497 0
M  V30 4780 H 437.068 -1.22865 2.24361 0
M  V30 4781 H 436.712 -2.6764 4.31661 0
M  V30 4782 H 436.642 -4.12177 3.27746 0
M  V30 4783 H 439.133 -2.68978 2.65442 0
M  V30 4784 H 439.446 -5.04331 5.85551 0
M  V30 4785 H 437.791 -4.54085 5.26148 0
M  V30 4786 H 440.982 -3.27207 3.34743 0
M  V30 4787 H 441.155 -4.34547 4.807 0
M  V30 4788 N 434.561 -1.01147 -1.20859 0
M  V30 4789 C 435.791 -0.715872 -1.93801 0
M  V30 4790 C 436.199 0.726592 -1.74692 0
M  V30 4791 O 435.542 1.50397 -1.05482 0
M  V30 4792 C 435.604 -0.965269 -3.46299 0
M  V30 4793 C 435.268 -2.39584 -3.89164 0
M  V30 4794 C 436.265 -3.3764 -3.95342 0
M  V30 4795 C 433.95 -2.73522 -4.21297 0
M  V30 4796 C 435.944 -4.67698 -4.33056 0
M  V30 4797 C 433.631 -4.03794 -4.58687 0
M  V30 4798 C 434.629 -5.00693 -4.64538 0
M  V30 4799 O 434.317 -6.28635 -5.01072 0
M  V30 4800 H 434.049 -0.262524 -0.622942 0
M  V30 4801 H 436.603 -1.35413 -1.54443 0
M  V30 4802 H 434.833 -0.269847 -3.85757 0
M  V30 4803 H 436.522 -0.662051 -4.00464 0
M  V30 4804 H 437.288 -3.12757 -3.70686 0
M  V30 4805 H 433.167 -1.9879 -4.15937 0
M  V30 4806 H 436.711 -5.4333 -4.37537 0
M  V30 4807 H 432.608 -4.28459 -4.82797 0
M  V30 4808 H 433.376 -6.32847 -5.19083 0
M  V30 4809 N 436.039 1.36541 -0.78704 0
M  V30 4810 C 437.264 2.0409 -0.369053 0
M  V30 4811 C 437.689 1.58957 1.00569 0
M  V30 4812 O 437.047 0.756926 1.64743 0
M  V30 4813 C 437.095 3.57924 -0.438466 0
M  V30 4814 O 436.199 4.08642 0.555479 0
M  V30 4815 H 435.54 0.645142 -0.157122 0
M  V30 4816 H 438.07 1.74545 -1.06749 0
M  V30 4817 H 438.08 4.06887 -0.301218 0
M  V30 4818 H 436.755 3.90127 -1.44132 0
M  V30 4819 H 435.332 3.70958 0.380088 0
M  V30 4820 N 437.518 0.538854 1.48102 0
M  V30 4821 C 438.929 0.100679 1.86428 0
M  V30 4822 C 439.28 -1.32447 1.44749 0
M  V30 4823 O 438.405 -1.99339 0.842199 0
M  V30 4824 C 439 0.175933 3.38343 0
M  V30 4825 C 437.559 -0.207098 3.7583 0
M  V30 4826 C 436.706 0.531741 2.72154 0
M  V30 4827 H 439.657 0.749614 1.3988 0
M  V30 4828 H 439.678 -0.610144 3.75576 0
M  V30 4829 H 439.19 1.21328 3.68648 0
M  V30 4830 H 437.291 -1.24626 3.5114 0
M  V30 4831 H 437.404 0.138687 4.78899 0
M  V30 4832 H 435.768 -0.0230462 2.5469 0
M  V30 4833 H 436.551 1.56989 3.05302 0
M  V30 4834 N 438.996 -1.55193 0.274407 0
M  V30 4835 C 440.245 -1.98758 -0.343213 0
M  V30 4836 C 440.558 -1.16624 -1.5703 0
M  V30 4837 O 441.764 -1.5033 -2.26082 0
M  V30 4838 C 440.22 -3.53759 -0.661996 0
M  V30 4839 C 439.828 -4.4467 0.54524 0
M  V30 4840 C 441.572 -4.05916 -1.24228 0
M  V30 4841 C 439.479 -5.91058 0.201084 0
M  V30 4842 H 438.409 -0.742353 -0.132014 0
M  V30 4843 H 441.06 -1.79545 0.378948 0
M  V30 4844 H 439.442 -3.68772 -1.44304 0
M  V30 4845 H 440.616 -4.41426 1.32212 0
M  V30 4846 H 438.931 -4.03143 1.04232 0
M  V30 4847 H 441.528 -5.12831 -1.51357 0
M  V30 4848 H 441.871 -3.54908 -2.17592 0
M  V30 4849 H 442.404 -3.9434 -0.523542 0
M  V30 4850 H 439.143 -6.46161 1.10258 0
M  V30 4851 H 438.663 -5.97373 -0.539045 0
M  V30 4852 H 440.342 -6.46669 -0.206954 0
M  V30 4853 N 440.474 -0.00167713 -1.576 0
M  V30 4854 C 441.885 0.54091 -1.78693 0
M  V30 4855 C 442.236 1.7386 -0.909247 0
M  V30 4856 O 441.361 2.16109 -0.112176 0
M  V30 4857 C 441.956 0.98806 -3.24072 0
M  V30 4858 C 440.515 1.47594 -3.46256 0
M  V30 4859 C 439.662 0.42792 -2.73978 0
M  V30 4860 H 442.613 -0.22784 -1.57056 0
M  V30 4861 H 442.634 1.85398 -3.32277 0
M  V30 4862 H 442.146 0.116164 -3.87926 0
M  V30 4863 H 440.247 2.36868 -2.87618 0
M  V30 4864 H 440.36 1.50225 -4.54939 0
M  V30 4865 H 438.724 0.889934 -2.38647 0
M  V30 4866 H 439.507 -0.435038 -3.40532 0
M  V30 4867 N 441.952 1.55251 0.271103 0
M  V30 4868 C 443.363 1.66635 0.842007 0
M  V30 4869 C 443.714 0.594631 1.86972 0
M  V30 4870 O 442.839 -0.263532 2.14789 0
M  V30 4871 C 443.434 3.02082 1.53401 0
M  V30 4872 C 441.993 3.15487 2.05293 0
M  V30 4873 C 441.14 2.62438 0.895631 0
M  V30 4874 H 444.091 1.58629 0.0474117 0
M  V30 4875 H 444.112 2.95176 2.40107 0
M  V30 4876 H 443.624 3.80062 0.785786 0
M  V30 4877 H 441.725 2.42284 2.83071 0
M  V30 4878 H 441.838 4.22075 2.26693 0
M  V30 4879 H 440.202 2.19644 1.28953 0
M  V30 4880 H 440.985 3.42923 0.160878 0
M  V30 4881 N 443.43 -0.535701 1.48216 0
M  V30 4882 C 444.655 -1.32149 1.59848 0
M  V30 4883 C 445.08 -1.86338 0.256842 0
M  V30 4884 O 444.438 -1.64107 -0.770632 0
M  V30 4885 C 444.486 -2.45224 2.64381 0
M  V30 4886 O 443.59 -3.48093 2.21144 0
M  V30 4887 H 442.931 -0.391634 0.536208 0
M  V30 4888 H 445.461 -0.645202 1.94161 0
M  V30 4889 H 445.471 -2.91491 2.85476 0
M  V30 4890 H 444.146 -2.05143 3.61786 0
M  V30 4891 H 442.723 -3.07984 2.10239 0
M  V30 4892 N 444.908 -1.36708 -0.784132 0
M  V30 4893 C 445.858 -1.2799 -1.88686 0
M  V30 4894 C 446.842 -0.170282 -1.59996 0
M  V30 4895 O 448.034 -0.403571 -1.72338 0
M  V30 4896 C 445.163 -1.07674 -3.25977 0
M  V30 4897 C 444.249 -2.23127 -3.60659 0
M  V30 4898 N 444.64 -3.48467 -3.66612 0
M  V30 4899 C 442.938 -2.15009 -3.90752 0
M  V30 4900 C 443.639 -4.24525 -3.97685 0
M  V30 4901 N 442.615 -3.53524 -4.12943 0
M  V30 4902 H 446.417 -2.22927 -1.91522 0
M  V30 4903 H 443.931 -1.29503 -0.979933 0
M  V30 4904 H 445.928 -0.995151 -4.04849 0
M  V30 4905 H 444.588 -0.13643 -3.24413 0
M  V30 4906 H 445.599 -3.82534 -3.49125 0
M  V30 4907 H 442.276 -1.28963 -3.97083 0
M  V30 4908 H 443.666 -5.32944 -4.0917 0
M  V30 4909 N 446.386 1.0089 -1.21074 0
M  V30 4910 C 447.336 2.0799 -0.934034 0
M  V30 4911 C 448.32 1.60529 0.10919 0
M  V30 4912 O 449.512 1.76722 -0.0992198 0
M  V30 4913 C 446.641 3.39693 -0.496334 0
M  V30 4914 C 445.727 3.93833 -1.57341 0
M  V30 4915 N 446.118 4.21388 -2.7976 0
M  V30 4916 C 444.416 4.22067 -1.44137 0
M  V30 4917 C 445.117 4.65156 -3.49292 0
M  V30 4918 N 444.093 4.67895 -2.76722 0
M  V30 4919 H 447.895 2.27213 -1.86417 0
M  V30 4920 H 445.409 1.18927 -1.10589 0
M  V30 4921 H 447.406 4.15962 -0.279471 0
M  V30 4922 H 446.066 3.21879 0.427084 0
M  V30 4923 H 447.077 4.10061 -3.1634 0
M  V30 4924 H 443.754 4.1341 -0.582947 0
M  V30 4925 H 445.144 4.95231 -4.54088 0
M  V30 4926 N 447.864 1.01787 1.20321 0
M  V30 4927 C 448.796 0.547357 2.22568 0
M  V30 4928 C 449.809 -0.370922 1.58518 0
M  V30 4929 O 450.998 -0.169067 1.77698 0
M  V30 4930 C 448.098 -0.223031 3.38165 0
M  V30 4931 C 447.271 0.697472 4.31803 0
M  V30 4932 C 446.33 -0.025562 5.26194 0
M  V30 4933 O 445.356 0.597367 5.66057 0
M  V30 4934 N 446.558 -1.29999 5.65757 0
M  V30 4935 H 449.323 1.42668 2.63564 0
M  V30 4936 H 446.884 0.895552 1.34876 0
M  V30 4937 H 448.876 -0.716002 3.98316 0
M  V30 4938 H 447.446 -1.00366 2.9605 0
M  V30 4939 H 446.666 1.37073 3.69601 0
M  V30 4940 H 447.954 1.32347 4.91286 0
M  V30 4941 H 447.352 -1.827 5.35385 0
M  V30 4942 H 445.909 -1.73766 6.28211 0
M  V30 4943 N 449.342 -1.36122 0.79427 0
M  V30 4944 C 450.272 -2.32551 0.210328 0
M  V30 4945 C 451.253 -1.56884 -0.657386 0
M  V30 4946 O 452.438 -1.85014 -0.590207 0
M  V30 4947 C 449.568 -3.41128 -0.651819 0
M  V30 4948 C 448.522 -4.27842 0.116395 0
M  V30 4949 C 447.848 -5.2763 -0.86666 0
M  V30 4950 C 449.148 -5.05647 1.30837 0
M  V30 4951 H 450.842 -2.81636 1.01594 0
M  V30 4952 H 448.388 -1.35407 0.489981 0
M  V30 4953 H 450.341 -4.07581 -1.07031 0
M  V30 4954 H 449.065 -2.90622 -1.49019 0
M  V30 4955 H 447.724 -3.62952 0.515915 0
M  V30 4956 H 447.372 -4.73395 -1.70019 0
M  V30 4957 H 447.072 -5.86514 -0.35705 0
M  V30 4958 H 448.596 -5.96955 -1.28361 0
M  V30 4959 H 450.01 -5.65113 0.965393 0
M  V30 4960 H 448.407 -5.73967 1.75161 0
M  V30 4961 H 449.477 -4.37006 2.10128 0
M  V30 4962 N 450.82 -0.546701 -1.47814 0
M  V30 4963 C 452.048 -0.0232857 -2.06887 0
M  V30 4964 C 452.463 1.26571 -1.4009 0
M  V30 4965 O 451.82 1.7569 -0.493906 0
M  V30 4966 C 451.871 0.186975 -3.61016 0
M  V30 4967 O 451.592 -1.05097 -4.25307 0
M  V30 4968 C 453.093 0.748872 -4.36929 0
M  V30 4969 H 450.313 -0.0410763 -0.669742 0
M  V30 4970 H 452.857 -0.757117 -1.89968 0
M  V30 4971 H 451.012 0.870903 -3.77484 0
M  V30 4972 H 451.426 -0.842121 -5.17695 0
M  V30 4973 H 452.9 0.845334 -5.45489 0
M  V30 4974 H 453.377 1.75772 -4.02493 0
M  V30 4975 H 453.983 0.100979 -4.2518 0
M  V30 4976 N 452.299 1.55045 -0.282633 0
M  V30 4977 C 453.229 2.2579 0.595066 0
M  V30 4978 C 454.21 1.25074 1.15284 0
M  V30 4979 O 455.395 1.5381 1.18559 0
M  V30 4980 C 452.525 2.98472 1.77572 0
M  V30 4981 C 451.479 4.0618 1.34914 0
M  V30 4982 C 450.805 4.66477 2.6135 0
M  V30 4983 C 452.105 5.1996 0.493821 0
M  V30 4984 H 453.799 2.994 0.00505653 0
M  V30 4985 H 451.345 1.44 0.000992001 0
M  V30 4986 H 453.298 3.46677 2.39568 0
M  V30 4987 H 452.022 2.2241 2.39168 0
M  V30 4988 H 450.681 3.58797 0.752338 0
M  V30 4989 H 450.329 3.87074 3.2122 0
M  V30 4990 H 450.029 5.39207 2.33516 0
M  V30 4991 H 451.553 5.17435 3.24181 0
M  V30 4992 H 452.967 5.64172 1.01898 0
M  V30 4993 H 451.364 5.99299 0.310047 0
M  V30 4994 H 452.434 4.82462 -0.485593 0
M  V30 4995 N 453.777 0.010035 1.57597 0
M  V30 4996 C 455.188 -0.531426 1.78977 0
M  V30 4997 C 455.539 -1.73375 0.918454 0
M  V30 4998 O 454.664 -2.16047 0.123635 0
M  V30 4999 C 455.259 -0.97086 3.24592 0
M  V30 5000 C 453.818 -1.45756 3.47033 0
M  V30 5001 C 452.965 -0.413384 2.74201 0
M  V30 5002 H 455.916 0.236166 1.56933 0
M  V30 5003 H 455.937 -1.83633 3.33255 0
M  V30 5004 H 455.449 -0.0955893 3.87982 0
M  V30 5005 H 453.55 -2.35339 2.88871 0
M  V30 5006 H 453.663 -1.4781 4.55729 0
M  V30 5007 H 452.027 -0.877266 2.39115 0
M  V30 5008 H 452.81 0.453092 3.40297 0
M  V30 5009 N 455.255 -1.55392 -0.262866 0
M  V30 5010 C 456.532 -1.67204 -1.01499 0
M  V30 5011 C 456.912 -0.545186 -2.03939 0
M  V30 5012 O 456.26 0.453467 -2.23955 0
M  V30 5013 C 456.47 -3.06847 -1.6627 0
M  V30 5014 C 457.818 -3.64928 -2.17054 0
M  V30 5015 O 458.842 -3.09545 -1.76239 0
M  V30 5016 O 457.701 -4.61984 -2.91947 0
M  V30 5017 H 454.795 -0.679467 -0.471438 0
M  V30 5018 H 457.341 -1.67729 -0.257918 0
M  V30 5019 H 456.113 -3.80309 -0.920915 0
M  V30 5020 H 455.736 -3.10266 -2.48638 0
M  V30 5021 N 456.733 0.527833 -1.48498 0
M  V30 5022 C 458.144 1.10975 -1.50138 0
M  V30 5023 C 458.495 1.943 -0.272378 0
M  V30 5024 O 457.62 2.07319 0.620301 0
M  V30 5025 C 458.215 2.01927 -2.72049 0
M  V30 5026 C 456.774 2.55332 -2.76554 0
M  V30 5027 C 455.921 1.32341 -2.43683 0
M  V30 5028 H 458.872 0.312986 -1.55583 0
M  V30 5029 H 458.893 2.86244 -2.50689 0
M  V30 5030 H 458.405 1.41254 -3.61481 0
M  V30 5031 H 456.506 3.19721 -1.91336 0
M  V30 5032 H 456.619 2.94319 -3.78038 0
M  V30 5033 H 454.983 1.63989 -1.94884 0
M  V30 5034 H 455.766 0.734165 -3.35358 0
M  V30 5035 N 458.211 1.37122 0.776871 0
M  V30 5036 C 459.436 1.354 1.57104 0
M  V30 5037 C 459.861 -0.0595562 1.88006 0
M  V30 5038 O 459.219 -1.03514 1.48844 0
M  V30 5039 C 459.267 2.19472 2.8612 0
M  V30 5040 O 458.371 1.59582 3.80273 0
M  V30 5041 H 457.712 0.462869 0.476076 0
M  V30 5042 H 460.242 1.80577 0.961932 0
M  V30 5043 H 460.252 2.32502 3.35271 0
M  V30 5044 H 458.927 3.22222 2.62956 0
M  V30 5045 H 457.504 1.55564 3.38902 0
M  V30 5046 N 459.689 -1.00246 1.21608 0
M  V30 5047 C 460.639 -2.07492 0.945051 0
M  V30 5048 C 461.623 -1.60585 -0.100675 0
M  V30 5049 O 462.815 -1.76667 0.10859 0
M  V30 5050 C 459.944 -3.39425 0.514342 0
M  V30 5051 C 459.03 -3.92993 1.59428 0
M  V30 5052 N 459.421 -4.19898 2.81991 0
M  V30 5053 C 457.719 -4.21297 1.46374 0
M  V30 5054 C 458.42 -4.63297 3.51754 0
M  V30 5055 N 457.396 -4.66421 2.79199 0
M  V30 5056 H 461.198 -2.26222 1.87619 0
M  V30 5057 H 458.712 -1.18339 1.11219 0
M  V30 5058 H 460.709 -4.15808 0.301527 0
M  V30 5059 H 459.369 -3.22101 -0.410008 0
M  V30 5060 H 460.38 -4.08377 3.1851 0
M  V30 5061 H 457.057 -4.13095 0.604863 0
M  V30 5062 H 458.447 -4.92816 4.56708 0
M  V30 5063 N 461.167 -1.02423 -1.1978 0
M  V30 5064 C 462.117 -0.571689 -2.20716 0
M  V30 5065 C 463.101 0.377077 -1.56419 0
M  V30 5066 O 464.293 0.198801 -1.7588 0
M  V30 5067 C 461.422 0.0808555 -3.43205 0
M  V30 5068 C 460.508 -0.890073 -4.14655 0
M  V30 5069 N 460.899 -2.05065 -4.62366 0
M  V30 5070 C 459.197 -0.71252 -4.40272 0
M  V30 5071 C 459.898 -2.66264 -5.17183 0
M  V30 5072 N 458.874 -1.94264 -5.07703 0
M  V30 5073 H 462.676 -1.45636 -2.55279 0
M  V30 5074 H 460.19 -0.890596 -1.35802 0
M  V30 5075 H 462.187 0.422654 -4.14752 0
M  V30 5076 H 460.847 0.961274 -3.10144 0
M  V30 5077 H 461.858 -2.43026 -4.57339 0
M  V30 5078 H 458.535 0.119199 -4.1733 0
M  V30 5079 H 459.925 -3.64526 -5.64421 0
M  V30 5080 N 462.645 1.35699 -0.801477 0
M  V30 5081 C 463.893 1.9852 -0.37871 0
M  V30 5082 C 464.214 1.63907 1.05638 0
M  V30 5083 O 463.484 0.919013 1.73006 0
M  V30 5084 H 462.064 0.734322 -0.137042 0
M  V30 5085 H 464.726 1.65697 -1.02619 0
M  V30 5086 H 463.822 3.08382 -0.480284 0
M  V30 5087 N 464.123 0.554532 1.47522 0
M  V30 5088 C 465.053 -0.182974 2.32782 0
M  V30 5089 C 466.034 -0.911377 1.43624 0
M  V30 5090 O 467.219 -0.892366 1.72483 0
M  V30 5091 C 464.349 -1.21513 3.25349 0
M  V30 5092 C 463.303 -0.603355 4.23726 0
M  V30 5093 C 462.629 -1.73995 5.05598 0
M  V30 5094 C 463.929 0.441121 5.20434 0
M  V30 5095 H 465.623 0.52882 2.94693 0
M  V30 5096 H 463.169 0.255759 1.41711 0
M  V30 5097 H 465.122 -1.73922 3.83835 0
M  V30 5098 H 463.846 -1.95683 2.61487 0
M  V30 5099 H 462.505 -0.10059 3.66462 0
M  V30 5100 H 462.153 -2.47063 4.38143 0
M  V30 5101 H 461.853 -1.3364 5.72201 0
M  V30 5102 H 463.377 -2.26735 5.66942 0
M  V30 5103 H 464.791 0.00319931 5.733 0
M  V30 5104 H 463.188 0.763402 5.95224 0
M  V30 5105 H 464.258 1.33799 4.66075 0
M  V30 5106 N 465.601 -1.54893 0.290851 0
M  V30 5107 C 466.551 -2.19838 -0.604599 0
M  V30 5108 C 467.535 -1.16805 -1.10659 0
M  V30 5109 O 468.727 -1.42562 -1.04905 0
M  V30 5110 C 465.856 -2.93497 -1.78086 0
M  V30 5111 C 464.942 -4.03835 -1.29531 0
M  V30 5112 N 465.333 -5.03047 -0.527024 0
M  V30 5113 C 463.631 -4.17192 -1.57693 0
M  V30 5114 C 464.332 -5.81074 -0.269728 0
M  V30 5115 N 463.308 -5.36966 -0.846651 0
M  V30 5116 H 467.11 -2.93898 -0.00995032 0
M  V30 5117 H 464.624 -1.62121 0.0951353 0
M  V30 5118 H 466.621 -3.38484 -2.43381 0
M  V30 5119 H 465.281 -2.2095 -2.37931 0
M  V30 5120 H 466.292 -5.17611 -0.172872 0
M  V30 5121 H 462.969 -3.55845 -2.18359 0
M  V30 5122 H 464.359 -6.71005 0.346643 0
M  V30 5123 N 467.08 -0.0183926 -1.57589 0
M  V30 5124 C 468.305 0.676634 -1.96052 0
M  V30 5125 C 468.73 1.6548 -0.894307 0
M  V30 5126 O 468.088 1.80712 0.145849 0
M  V30 5127 C 468.136 1.36872 -3.33614 0
M  V30 5128 O 467.24 2.48372 -3.29219 0
M  V30 5129 H 466.581 0.1786 -0.63953 0
M  V30 5130 H 469.111 -0.077056 -2.04455 0
M  V30 5131 H 469.121 1.72797 -3.69601 0
M  V30 5132 H 467.796 0.651636 -4.10763 0
M  V30 5133 H 466.373 2.14639 -3.04934 0
M  V30 5134 N 468.558 1.5553 0.254621 0
M  V30 5135 C 469.786 1.81046 1.00149 0
M  V30 5136 C 470.201 0.593047 1.79244 0
M  V30 5137 O 469.558 -0.438196 1.77161 0
M  V30 5138 C 469.609 3.04684 1.94551 0
M  V30 5139 O 469.33 4.21725 1.18658 0
M  V30 5140 C 470.831 3.42943 2.80901 0
M  V30 5141 H 468.051 0.602653 0.295044 0
M  V30 5142 H 470.595 2.02576 0.279842 0
M  V30 5143 H 468.75 2.85226 2.62154 0
M  V30 5144 H 469.164 4.91746 1.82445 0
M  V30 5145 H 470.638 4.32576 3.42902 0
M  V30 5146 H 471.115 2.63176 3.51617 0
M  V30 5147 H 471.721 3.64724 2.18762 0
M  V30 5148 N 470.036 -0.519951 1.48776 0
M  V30 5149 C 471.447 -1.10177 1.50725 0
M  V30 5150 C 471.798 -1.94153 0.282678 0
M  V30 5151 O 470.923 -2.07645 -0.609298 0
M  V30 5152 C 471.518 -2.00482 2.73116 0
M  V30 5153 C 470.077 -2.53862 2.77905 0
M  V30 5154 C 469.224 -1.31047 2.44381 0
M  V30 5155 H 472.175 -0.30473 1.55747 0
M  V30 5156 H 472.196 -2.8491 2.52203 0
M  V30 5157 H 471.708 -1.39335 3.62225 0
M  V30 5158 H 469.809 -3.18702 1.93029 0
M  V30 5159 H 469.922 -2.9231 3.79594 0
M  V30 5160 H 468.286 -1.62953 1.95751 0
M  V30 5161 H 469.069 -0.71637 3.35743 0
M  V30 5162 N 471.514 -1.37532 -0.769588 0
M  V30 5163 C 472.791 -1.23392 -1.51768 0
M  V30 5164 C 473.171 0.17157 -2.10402 0
M  V30 5165 O 472.519 1.17943 -1.95708 0
M  V30 5166 C 472.729 -2.33163 -2.59685 0
M  V30 5167 C 474.077 -2.70809 -3.27028 0
M  V30 5168 O 475.101 -2.32355 -2.69981 0
M  V30 5169 O 473.96 -3.37066 -4.30173 0
M  V30 5170 H 471.054 -0.481617 -0.67229 0
M  V30 5171 H 473.6 -1.49318 -0.806368 0
M  V30 5172 H 472.372 -3.27273 -2.14494 0
M  V30 5173 H 471.995 -2.08713 -3.38415 0
M  V30 5174 N 472.992 0.995999 -1.22138 0
M  V30 5175 C 474.217 1.77601 -1.0711 0
M  V30 5176 C 474.642 1.84339 0.374264 0
M  V30 5177 O 474 1.29359 1.27028 0
M  V30 5178 C 474.048 3.18897 -1.68336 0
M  V30 5179 O 473.152 4.01663 -0.934928 0
M  V30 5180 H 472.493 0.547011 -0.376397 0
M  V30 5181 H 475.023 1.25137 -1.6187 0
M  V30 5182 H 475.033 3.69539 -1.72931 0
M  V30 5183 H 473.708 3.13308 -2.73516 0
M  V30 5184 H 472.285 3.60204 -0.964751 0
M  V30 5185 N 474.47 1.03057 1.19235 0
M  V30 5186 C 475.881 0.757449 1.70645 0
M  V30 5187 C 476.232 -0.722735 1.82403 0
M  V30 5188 O 475.357 -1.56325 1.49638 0
M  V30 5189 C 475.952 1.36833 3.09939 0
M  V30 5190 C 474.511 1.14375 3.58602 0
M  V30 5191 C 473.658 1.46533 2.35422 0
M  V30 5192 H 476.609 1.19828 1.04052 0
M  V30 5193 H 476.63 0.766184 3.72706 0
M  V30 5194 H 476.142 2.44562 3.01349 0
M  V30 5195 H 474.243 0.0847542 3.72504 0
M  V30 5196 H 474.356 1.83366 4.42622 0
M  V30 5197 H 472.72 0.884712 2.38841 0
M  V30 5198 H 473.503 2.55349 2.2946 0
M  V30 5199 N 475.948 -1.35272 0.808662 0
M  V30 5200 C 476.911 -2.28082 0.226093 0
M  V30 5201 C 477.911 -1.49673 -0.587762 0
M  V30 5202 O 479.101 -1.69404 -0.405943 0
M  V30 5203 C 476.233 -3.33955 -0.684596 0
M  V30 5204 H 477.426 -2.81116 1.04469 0
M  V30 5205 H 474.979 -1.45162 0.579466 0
M  V30 5206 H 475.714 -2.86111 -1.5268 0
M  V30 5207 H 475.499 -3.91965 -0.102699 0
M  V30 5208 H 476.989 -4.03219 -1.08646 0
M  V30 5209 N 477.426 -0.562348 -1.47226 0
M  V30 5210 C 478.373 0.182461 -2.30078 0
M  V30 5211 C 479.343 0.903503 -1.39377 0
M  V30 5212 O 480.528 0.898188 -1.68337 0
M  V30 5213 C 477.668 1.20322 -3.23445 0
M  V30 5214 C 476.781 0.487717 -4.29238 0
M  V30 5215 C 475.916 1.49422 -5.09752 0
M  V30 5216 C 474.955 0.763976 -6.07314 0
M  V30 5217 N 474.092 1.71755 -6.80768 0
M  V30 5218 H 478.932 -0.530169 -2.93246 0
M  V30 5219 H 476.469 -0.273276 -1.44539 0
M  V30 5220 H 478.427 1.80768 -3.76004 0
M  V30 5221 H 477.057 1.88382 -2.6213 0
M  V30 5222 H 476.109 -0.231374 -3.79696 0
M  V30 5223 H 477.421 -0.0841003 -4.98729 0
M  V30 5224 H 476.575 2.17206 -5.66486 0
M  V30 5225 H 475.314 2.09995 -4.40174 0
M  V30 5226 H 474.319 0.0722344 -5.49753 0
M  V30 5227 H 475.544 0.16391 -6.78902 0
M  V30 5228 H 473.49 2.31177 -6.13916 0
M  V30 5229 H 473.407 1.19802 -7.46447 0
M  V30 5230 H 474.675 2.38638 -7.42073 0
M  V30 5231 N 478.904 1.54736 -0.299062 0
M  V30 5232 C 480.315 1.8569 0.193971 0
M  V30 5233 C 480.666 1.22101 1.53577 0
M  V30 5234 O 479.791 0.51799 2.10109 0
M  V30 5235 C 480.386 3.36895 0.358733 0
M  V30 5236 C 478.945 3.67887 0.795986 0
M  V30 5237 C 478.092 2.77131 -0.096807 0
M  V30 5238 H 481.043 1.49934 -0.520134 0
M  V30 5239 H 481.064 3.61294 1.19361 0
M  V30 5240 H 480.576 3.83148 -0.617998 0
M  V30 5241 H 478.677 3.27151 1.78334 0
M  V30 5242 H 478.79 4.75114 0.616718 0
M  V30 5243 H 477.154 2.51153 0.423581 0
M  V30 5244 H 477.937 3.26204 -1.06986 0
M  V30 5245 N 480.382 0.0267497 1.57577 0
M  V30 5246 C 481.292 -0.971633 2.13533 0
M  V30 5247 C 482.308 -1.35868 1.08701 0
M  V30 5248 O 483.484 -1.44058 1.40746 0
M  V30 5249 C 480.549 -2.23622 2.64941 0
M  V30 5250 C 479.61 -1.90982 3.8448 0
M  V30 5251 C 478.843 -3.11411 4.33427 0
M  V30 5252 O 479.066 -4.23992 3.81558 0
M  V30 5253 O 478 -2.93848 5.25297 0
M  V30 5254 H 481.826 -0.525853 2.99113 0
M  V30 5255 H 479.411 -0.193712 1.48139 0
M  V30 5256 H 481.293 -2.97864 2.98086 0
M  V30 5257 H 479.968 -2.67386 1.82446 0
M  V30 5258 H 478.875 -1.14132 3.56265 0
M  V30 5259 H 480.208 -1.52036 4.6813 0
M  V30 5260 N 481.861 -1.55662 -0.24637 0
M  V30 5261 C 482.808 -1.90361 -1.30504 0
M  V30 5262 C 483.778 -0.757905 -1.47801 0
M  V30 5263 O 484.963 -1.01161 -1.61775 0
M  V30 5264 C 482.103 -2.2042 -2.65535 0
M  V30 5265 C 481.216 -3.47799 -2.56242 0
M  V30 5266 C 480.351 -3.67426 -3.8363 0
M  V30 5267 C 479.39 -4.88403 -3.68956 0
M  V30 5268 N 478.527 -5.04548 -4.88237 0
M  V30 5269 H 483.367 -2.80645 -1.00213 0
M  V30 5270 H 480.904 -1.38924 -0.483577 0
M  V30 5271 H 482.862 -2.35853 -3.44135 0
M  V30 5272 H 481.492 -1.3334 -2.93973 0
M  V30 5273 H 480.544 -3.40694 -1.69208 0
M  V30 5274 H 481.856 -4.36544 -2.4131 0
M  V30 5275 H 481.01 -3.82821 -4.70673 0
M  V30 5276 H 479.749 -2.76914 -4.01459 0
M  V30 5277 H 478.754 -4.72984 -2.80296 0
M  V30 5278 H 479.979 -5.80375 -3.52621 0
M  V30 5279 H 477.925 -4.16974 -5.06427 0
M  V30 5280 H 477.842 -5.87384 -4.75937 0
M  V30 5281 H 479.11 -5.24355 -5.76777 0
M  V30 5282 N 483.339 0.512053 -1.4905 0
M  V30 5283 C 484.287 1.63568 -1.65373 0
M  V30 5284 C 485.281 1.61228 -0.519806 0
M  V30 5285 O 486.487 1.65869 -0.699101 0
M  V30 5286 H 482.862 0.542019 -0.521267 0
M  V30 5287 H 484.833 1.4695 -2.59708 0
M  V30 5288 C 483.582 3.01761 -1.7273 0
M  V30 5289 H 482.905 3.04263 -2.59353 0
M  V30 5290 H 484.345 3.79948 -1.8819 0
M  V30 5291 C 482.804 3.33609 -0.46973 0
M  V30 5292 O 483.334 3.99607 0.409492 0
M  V30 5293 N 481.54 2.88651 -0.336003 0
M  V30 5294 H 481.087 2.35119 -1.05247 0
M  V30 5295 H 481.045 3.10328 0.504363 0
M  V30 5296 N 484.817 1.37938 0.762283 0
M  V30 5297 C 486.065 1.33404 1.51815 0
M  V30 5298 C 486.386 -0.0780975 1.94844 0
M  V30 5299 O 485.656 -1.02405 1.67003 0
M  V30 5300 H 484.236 0.490839 0.563104 0
M  V30 5301 H 486.898 1.72527 0.906669 0
M  V30 5302 H 485.994 1.97926 2.41313 0
M  V30 5303 N 486.295 -0.989507 1.22664 0
M  V30 5304 C 487.245 -2.06478 0.967005 0
M  V30 5305 C 488.229 -1.60682 -0.0836374 0
M  V30 5306 O 489.421 -1.76541 0.127322 0
M  V30 5307 C 486.55 -3.38861 0.550313 0
M  V30 5308 C 485.636 -3.9128 1.63587 0
M  V30 5309 N 486.027 -4.16884 2.86429 0
M  V30 5310 C 484.325 -4.1972 1.50834 0
M  V30 5311 C 485.026 -4.5954 3.56648 0
M  V30 5312 N 484.002 -4.63434 2.84131 0
M  V30 5313 H 487.804 -2.24219 1.90008 0
M  V30 5314 H 485.318 -1.17153 1.12467 0
M  V30 5315 H 487.315 -4.15465 0.345612 0
M  V30 5316 H 485.975 -3.22518 -0.375822 0
M  V30 5317 H 486.986 -4.04976 3.22823 0
M  V30 5318 H 483.663 -4.1243 0.648643 0
M  V30 5319 H 485.053 -4.87944 4.61909 0
M  V30 5320 N 487.773 -1.03688 -1.18687 0
M  V30 5321 C 488.736 -0.629115 -2.20397 0
M  V30 5322 C 489.736 0.311495 -1.57754 0
M  V30 5323 O 490.926 0.0974107 -1.73927 0
M  V30 5324 C 488.058 0.0782231 -3.4081 0
M  V30 5325 H 489.251 -1.52915 -2.57987 0
M  V30 5326 H 486.804 -0.828988 -1.32505 0
M  V30 5327 H 487.539 0.992233 -3.08748 0
M  V30 5328 H 487.324 -0.597776 -3.87517 0
M  V30 5329 H 488.814 0.350156 -4.16129 0
M  V30 5330 N 489.251 1.34841 -0.815825 0
M  V30 5331 C 490.198 2.29644 -0.230664 0
M  V30 5332 C 491.168 1.53253 0.640533 0
M  V30 5333 O 492.353 1.81653 0.583672 0
M  V30 5334 C 489.493 3.39715 0.607275 0
M  V30 5335 C 488.606 4.31056 -0.28538 0
M  V30 5336 C 487.741 5.28225 0.561446 0
M  V30 5337 C 486.78 6.11204 -0.331035 0
M  V30 5338 N 485.917 7.00483 0.476302 0
M  V30 5339 H 490.757 2.79095 -1.0445 0
M  V30 5340 H 488.294 1.37351 -0.526595 0
M  V30 5341 H 490.252 4.02208 1.10835 0
M  V30 5342 H 488.882 2.91517 1.38629 0
M  V30 5343 H 487.934 3.69487 -0.904621 0
M  V30 5344 H 489.246 4.89239 -0.97193 0
M  V30 5345 H 488.4 5.96135 1.12728 0
M  V30 5346 H 487.139 4.70562 1.28153 0
M  V30 5347 H 486.144 5.42232 -0.909069 0
M  V30 5348 H 487.369 6.70947 -1.04912 0
M  V30 5349 H 485.315 6.45296 1.18019 0
M  V30 5350 H 485.232 7.55847 -0.152008 0
M  V30 5351 H 486.5 7.7273 1.02512 0
M  V30 5352 N 490.729 0.570148 1.46925 0
M  V30 5353 C 492.006 -0.0153259 1.95594 0
M  V30 5354 C 492.386 -1.47232 1.51281 0
M  V30 5355 O 491.734 -2.15574 0.757624 0
M  V30 5356 C 491.944 0.143624 3.48704 0
M  V30 5357 C 493.292 0.00494484 4.246 0
M  V30 5358 O 494.316 0.0718214 3.56128 0
M  V30 5359 O 493.175 -0.141175 5.46318 0
M  V30 5360 H 490.269 -0.0568819 0.825041 0
M  V30 5361 H 492.815 0.637583 1.57267 0
M  V30 5362 H 491.587 1.15699 3.73804 0
M  V30 5363 H 491.21 -0.5463 3.93829 0
M  V30 5364 N 492.207 -1.54576 0.307264 0
M  V30 5365 C 493.157 -2.20467 -0.581249 0
M  V30 5366 C 494.141 -1.17972 -1.09414 0
M  V30 5367 O 495.333 -1.43667 -1.03387 0
M  V30 5368 C 492.462 -2.95369 -1.74963 0
M  V30 5369 C 491.548 -4.05186 -1.25241 0
M  V30 5370 N 491.939 -5.03577 -0.47364 0
M  V30 5371 C 490.237 -4.18841 -1.53259 0
M  V30 5372 C 490.938 -5.81328 -0.208083 0
M  V30 5373 N 489.914 -5.37834 -0.789651 0
M  V30 5374 H 493.716 -2.93892 0.0212221 0
M  V30 5375 H 491.23 -1.62011 0.112325 0
M  V30 5376 H 493.227 -3.41046 -2.39777 0
M  V30 5377 H 491.887 -2.23461 -2.35574 0
M  V30 5378 H 492.898 -5.17766 -0.117963 0
M  V30 5379 H 489.575 -3.58141 -2.14573 0
M  V30 5380 H 490.965 -6.706 0.417793 0
M  V30 5381 N 493.685 -0.035106 -1.57561 0
M  V30 5382 C 495.096 0.502885 -1.798 0
M  V30 5383 C 495.447 1.71892 -0.945921 0
M  V30 5384 O 494.572 2.15822 -0.157991 0
M  V30 5385 C 495.167 0.919097 -3.26095 0
M  V30 5386 C 493.726 1.40216 -3.49308 0
M  V30 5387 C 492.873 0.369709 -2.74824 0
M  V30 5388 H 495.824 -0.261102 -1.56537 0
M  V30 5389 H 495.845 1.78308 -3.36135 0
M  V30 5390 H 495.357 0.0338526 -3.88085 0
M  V30 5391 H 493.458 2.30714 -2.92578 0
M  V30 5392 H 493.571 1.40541 -4.58023 0
M  V30 5393 H 491.935 0.839113 -2.40481 0
M  V30 5394 H 492.718 -0.507173 -3.39533 0
M  V30 5395 N 495.163 1.55791 0.238111 0
M  V30 5396 C 496.11 1.9105 1.29493 0
M  V30 5397 C 497.08 0.765733 1.47397 0
M  V30 5398 O 498.265 1.02017 1.61236 0
M  V30 5399 C 495.405 2.21826 2.64362 0
M  V30 5400 C 494.518 3.49153 2.54394 0
M  V30 5401 C 493.653 3.69455 3.81676 0
M  V30 5402 C 492.692 4.90353 3.66361 0
M  V30 5403 N 491.829 5.07131 4.85554 0
M  V30 5404 H 496.669 2.81172 0.987233 0
M  V30 5405 H 494.206 1.39179 0.476203 0
M  V30 5406 H 496.164 2.37675 3.4288 0
M  V30 5407 H 494.794 1.34897 2.93262 0
M  V30 5408 H 493.846 3.41587 1.67399 0
M  V30 5409 H 495.158 4.37818 2.38991 0
M  V30 5410 H 494.312 3.85311 4.68636 0
M  V30 5411 H 493.051 2.7904 3.99985 0
M  V30 5412 H 492.056 4.74464 2.77784 0
M  V30 5413 H 493.281 5.82237 3.49538 0
M  V30 5414 H 491.227 4.19654 5.04209 0
M  V30 5415 H 491.144 5.89899 4.72816 0
M  V30 5416 H 492.412 5.27407 5.73988 0
M  V30 5417 N 496.642 -0.504142 1.49319 0
M  V30 5418 C 497.891 -1.25507 1.57895 0
M  V30 5419 C 498.204 -1.93735 0.269433 0
M  V30 5420 O 499.41 -2.70492 0.233706 0
M  V30 5421 C 497.866 -2.27869 2.78574 0
M  V30 5422 C 497.474 -1.65594 4.16272 0
M  V30 5423 C 499.218 -3.0381 2.96479 0
M  V30 5424 C 497.125 -2.66048 5.28178 0
M  V30 5425 H 496.055 -0.47212 0.587894 0
M  V30 5426 H 498.706 -0.52931 1.757 0
M  V30 5427 H 497.088 -3.03594 2.54257 0
M  V30 5428 H 498.262 -0.958826 4.50714 0
M  V30 5429 H 496.577 -1.02055 4.037 0
M  V30 5430 H 499.174 -3.78925 3.77253 0
M  V30 5431 H 499.517 -3.61235 2.06918 0
M  V30 5432 H 500.05 -2.352 3.20821 0
M  V30 5433 H 496.789 -2.13408 6.19788 0
M  V30 5434 H 496.309 -3.34009 4.98195 0
M  V30 5435 H 497.988 -3.28536 5.57381 0
M  V30 5436 N 498.12 -1.38341 -0.754957 0
M  V30 5437 C 499.083 -1.35262 -1.85032 0
M  V30 5438 C 500.083 -0.253393 -1.58791 0
M  V30 5439 O 501.273 -0.510205 -1.66561 0
M  V30 5440 C 498.405 -1.10544 -3.22479 0
M  V30 5441 H 499.598 -2.32712 -1.8917 0
M  V30 5442 H 497.151 -1.23614 -0.956515 0
M  V30 5443 H 497.886 -0.136952 -3.24011 0
M  V30 5444 H 497.671 -1.90127 -3.4292 0
M  V30 5445 H 499.161 -1.11082 -4.02555 0
M  V30 5446 N 499.598 0.982988 -1.23187 0
M  V30 5447 C 500.545 2.07491 -1.01075 0
M  V30 5448 C 501.515 1.65949 0.070905 0
M  V30 5449 O 502.7 1.90629 -0.0806822 0
M  V30 5450 C 499.84 3.39751 -0.605261 0
M  V30 5451 C 498.953 3.94578 -1.75876 0
M  V30 5452 C 498.088 5.15039 -1.3003 0
M  V30 5453 C 497.127 5.62027 -2.42472 0
M  V30 5454 N 496.264 6.73719 -1.97602 0
M  V30 5455 H 501.104 2.25739 -1.9454 0
M  V30 5456 H 498.641 1.10659 -0.969179 0
M  V30 5457 H 500.599 4.15719 -0.351279 0
M  V30 5458 H 499.229 3.21473 0.292382 0
M  V30 5459 H 498.281 3.1539 -2.12681 0
M  V30 5460 H 499.593 4.25422 -2.60418 0
M  V30 5461 H 498.747 5.9833 -1.00429 0
M  V30 5462 H 497.486 4.85843 -0.425216 0
M  V30 5463 H 496.491 4.77318 -2.7285 0
M  V30 5464 H 497.716 5.93244 -3.30512 0
M  V30 5465 H 495.662 6.46287 -1.1247 0
M  V30 5466 H 495.579 7.03934 -2.75705 0
M  V30 5467 H 496.847 7.6049 -1.71098 0
M  V30 5468 N 501.076 1.04316 1.18135 0
M  V30 5469 C 502.325 0.74319 1.87509 0
M  V30 5470 C 502.638 -0.732136 1.81381 0
M  V30 5471 O 503.844 -1.14572 2.46141 0
M  V30 5472 C 502.3 1.27913 3.36402 0
M  V30 5473 C 501.908 2.78326 3.51053 0
M  V30 5474 C 503.652 1.0558 4.11161 0
M  V30 5475 C 501.559 3.25266 4.93919 0
M  V30 5476 H 500.489 0.274313 0.702331 0
M  V30 5477 H 503.14 1.25931 1.33467 0
M  V30 5478 H 501.522 0.690853 3.89927 0
M  V30 5479 H 502.696 3.42933 3.07788 0
M  V30 5480 H 501.011 2.991 2.89704 0
M  V30 5481 H 503.608 1.38161 5.16542 0
M  V30 5482 H 503.951 -0.00684729 4.16299 0
M  V30 5483 H 504.484 1.60882 3.63816 0
M  V30 5484 H 501.223 4.30922 4.9395 0
M  V30 5485 H 500.743 2.65396 5.3789 0
M  V30 5486 H 502.422 3.19433 5.62647 0
M  V30 5487 N 502.554 -1.34406 0.822964 0
M  V30 5488 C 503.801 -1.98284 0.411057 0
M  V30 5489 C 504.129 -1.65245 -1.02588 0
M  V30 5490 O 503.384 -0.91619 -1.72929 0
M  V30 5491 C 503.683 -3.52981 0.560268 0
M  V30 5492 C 503.349 -4.05931 1.96293 0
M  V30 5493 C 502.011 -4.20103 2.34664 0
M  V30 5494 C 504.363 -4.34412 2.87985 0
M  V30 5495 C 501.691 -4.60082 3.64062 0
M  V30 5496 C 504.043 -4.75838 4.16847 0
M  V30 5497 C 502.707 -4.88215 4.55195 0
M  V30 5498 H 501.977 -0.725573 0.150416 0
M  V30 5499 H 504.624 -1.60349 1.04692 0
M  V30 5500 H 502.929 -3.91477 -0.158982 0
M  V30 5501 H 504.626 -4.00385 0.222087 0
M  V30 5502 H 501.216 -3.95363 1.65487 0
M  V30 5503 H 505.4 -4.23001 2.59584 0
M  V30 5504 H 500.656 -4.67856 3.93599 0
M  V30 5505 H 504.83 -4.96834 4.87984 0
M  V30 5506 H 502.457 -5.18952 5.55512 0
M  V30 5507 N 504.032 -0.577932 -1.46621 0
M  V30 5508 C 504.942 0.160651 -2.34049 0
M  V30 5509 C 505.958 0.890911 -1.49462 0
M  V30 5510 O 507.134 0.855166 -1.82343 0
M  V30 5511 C 504.199 1.16447 -3.26559 0
M  V30 5512 C 503.26 0.4394 -4.27045 0
M  V30 5513 C 502.493 1.3954 -5.15135 0
M  V30 5514 O 502.716 2.63162 -5.06065 0
M  V30 5515 O 501.65 0.908585 -5.95003 0
M  V30 5516 H 505.476 -0.557057 -2.98547 0
M  V30 5517 H 503.061 -0.338369 -1.45518 0
M  V30 5518 H 504.943 1.7434 -3.83645 0
M  V30 5519 H 503.618 1.86373 -2.64663 0
M  V30 5520 H 502.525 -0.181247 -3.73661 0
M  V30 5521 H 503.858 -0.218799 -4.91713 0
M  V30 5522 N 505.51 1.54411 -0.315457 0
M  V30 5523 C 506.759 1.99599 0.290395 0
M  V30 5524 C 507.072 1.20746 1.53882 0
M  V30 5525 O 508.278 1.56272 2.22017 0
M  V30 5526 C 506.734 3.5539 0.56797 0
M  V30 5527 C 506.342 4.43068 -0.662945 0
M  V30 5528 C 508.086 4.09067 1.13422 0
M  V30 5529 C 505.993 5.90317 -0.357722 0
M  V30 5530 H 504.923 0.745592 0.112286 0
M  V30 5531 H 507.574 1.78477 -0.426418 0
M  V30 5532 H 505.956 3.72468 1.34476 0
M  V30 5533 H 507.13 4.37765 -1.43869 0
M  V30 5534 H 505.445 4.00238 -1.14884 0
M  V30 5535 H 508.042 5.16663 1.37707 0
M  V30 5536 H 508.385 3.60552 2.08106 0
M  V30 5537 H 508.918 3.95589 0.418805 0
M  V30 5538 H 505.657 6.4301 -1.27351 0
M  V30 5539 H 505.177 5.98592 0.380472 0
M  V30 5540 H 506.856 6.4699 0.0354284 0
M  V30 5541 N 506.988 0.0434614 1.5754 0
M  V30 5542 C 507.92 -0.962586 2.08007 0
M  V30 5543 C 508.933 -1.27972 1.00634 0
M  V30 5544 O 510.122 -1.24186 1.28219 0
M  V30 5545 C 507.222 -2.28621 2.50171 0
M  V30 5546 C 506.395 -2.15214 3.80791 0
M  V30 5547 C 505.454 -3.30633 4.09351 0
M  V30 5548 O 504.48 -3.0688 4.79388 0
M  V30 5549 N 505.682 -4.54873 3.60654 0
M  V30 5550 H 508.447 -0.531891 2.94942 0
M  V30 5551 H 506.008 -0.142965 1.61268 0
M  V30 5552 H 508 -3.04689 2.66359 0
M  V30 5553 H 506.57 -2.63283 1.68525 0
M  V30 5554 H 505.79 -1.23785 3.74261 0
M  V30 5555 H 507.078 -2.03475 4.66343 0
M  V30 5556 H 506.476 -4.77063 3.04019 0
M  V30 5557 H 505.033 -5.2806 3.82094 0
M  V30 5558 N 508.466 -1.55915 -0.229846 0
M  V30 5559 C 509.694 -1.82617 -0.972562 0
M  V30 5560 C 510.109 -0.621488 -1.78278 0
M  V30 5561 O 509.466 0.409956 -1.77836 0
M  V30 5562 C 509.517 -3.0774 -1.89679 0
M  V30 5563 O 509.238 -4.23559 -1.11934 0
M  V30 5564 C 510.739 -3.47368 -2.75409 0
M  V30 5565 H 507.959 -0.60727 -0.285419 0
M  V30 5566 H 510.503 -2.02996 -0.247579 0
M  V30 5567 H 508.658 -2.89361 -2.57583 0
M  V30 5568 H 509.072 -4.94586 -1.74599 0
M  V30 5569 H 510.546 -4.37977 -3.35977 0
M  V30 5570 H 511.023 -2.68737 -3.47386 0
M  V30 5571 H 511.629 -3.68158 -2.12931 0
M  V30 5572 N 509.944 0.496216 -1.49584 0
M  V30 5573 C 510.877 1.61508 -1.61215 0
M  V30 5574 C 511.855 1.55927 -0.461045 0
M  V30 5575 O 513.039 1.75914 -0.677231 0
M  V30 5576 C 510.166 3.00035 -1.57152 0
M  V30 5577 C 509.212 3.23861 -2.77518 0
M  V30 5578 S 510.045 3.06466 -4.39134 0
M  V30 5579 C 511.201 4.4738 -4.37724 0
M  V30 5580 H 511.434 1.51398 -2.55863 0
M  V30 5581 H 508.967 0.681727 -1.38535 0
M  V30 5582 H 510.925 3.7991 -1.55494 0
M  V30 5583 H 509.586 3.07556 -0.637834 0
M  V30 5584 H 508.779 4.25 -2.70908 0
M  V30 5585 H 508.381 2.51716 -2.76614 0
M  V30 5586 H 510.673 5.39556 -4.09738 0
M  V30 5587 H 511.616 4.59038 -5.39156 0
M  V30 5588 H 512.024 4.28283 -3.67742 0
M  V30 5589 N 511.423 1.38739 0.74761 0
M  V30 5590 C 512.834 1.31507 1.32524 0
M  V30 5591 C 513.185 -0.0263963 1.96182 0
M  V30 5592 O 512.31 -0.92849 1.95469 0
M  V30 5593 C 512.905 2.38162 2.40966 0
M  V30 5594 C 511.464 2.34489 2.94434 0
M  V30 5595 C 510.611 2.20712 1.67873 0
M  V30 5596 H 513.562 1.4901 0.546043 0
M  V30 5597 H 513.583 2.04222 3.21051 0
M  V30 5598 H 513.095 3.35783 1.94605 0
M  V30 5599 H 511.196 1.40467 3.45108 0
M  V30 5600 H 511.309 3.28861 3.48407 0
M  V30 5601 H 509.673 1.67667 1.91729 0
M  V30 5602 H 510.456 3.20285 1.23582 0
M  V30 5603 N 512.901 -0.976442 1.23707 0
M  V30 5604 C 513.849 -2.09078 1.01927 0
M  V30 5605 C 514.843 -1.69345 -0.0430193 0
M  V30 5606 O 516.049 -1.79659 0.110814 0
M  V30 5607 H 512.424 -0.68398 0.312531 0
M  V30 5608 H 514.395 -2.24614 1.96447 0
M  V30 5609 C 513.144 -3.41919 0.631385 0
M  V30 5610 H 512.467 -3.72946 1.44053 0
M  V30 5611 H 513.907 -4.20817 0.518532 0
M  V30 5612 C 512.366 -3.30357 -0.660723 0
M  V30 5613 O 512.896 -3.63542 -1.70881 0
M  V30 5614 N 511.102 -2.83507 -0.638139 0
M  V30 5615 H 510.649 -2.567 0.215108 0
M  V30 5616 H 510.607 -2.76153 -1.50289 0
M  V30 5617 N 514.379 -1.04941 -1.1758 0
M  V30 5618 C 515.627 -0.756492 -1.87408 0
M  V30 5619 C 515.948 0.718478 -1.81281 0
M  V30 5620 O 515.218 1.519 -1.23706 0
M  V30 5621 H 513.798 -0.276841 -0.693807 0
M  V30 5622 H 516.46 -1.32803 -1.42652 0
M  V30 5623 H 515.556 -1.06918 -2.93215 0
M  V30 5624 N 515.857 1.33968 -0.830081 0
M  V30 5625 C 516.804 2.29387 -0.255008 0
M  V30 5626 C 517.774 1.53923 0.624243 0
M  V30 5627 O 518.959 1.82262 0.564372 0
M  V30 5628 C 516.099 3.4034 0.571209 0
M  V30 5629 C 515.212 4.30729 -0.331083 0
M  V30 5630 C 514.347 5.2879 0.505389 0
M  V30 5631 C 513.386 6.10819 -0.395843 0
M  V30 5632 N 512.523 7.00948 0.401979 0
M  V30 5633 H 517.363 2.77972 -1.07404 0
M  V30 5634 H 514.9 1.36785 -0.541133 0
M  V30 5635 H 516.858 4.03361 1.06562 0
M  V30 5636 H 515.488 2.9297 1.35529 0
M  V30 5637 H 514.54 3.68507 -0.943759 0
M  V30 5638 H 515.852 4.88181 -1.02377 0
M  V30 5639 H 515.006 5.97297 1.06399 0
M  V30 5640 H 513.745 4.71894 1.23155 0
M  V30 5641 H 512.75 5.41238 -0.966529 0
M  V30 5642 H 513.975 6.69797 -1.12023 0
M  V30 5643 H 511.921 6.46512 1.11168 0
M  V30 5644 H 511.838 7.55643 -0.232167 0
M  V30 5645 H 513.106 7.73774 0.943102 0
M  V30 5646 N 517.335 0.585699 1.46312 0
M  V30 5647 C 518.563 0.0781299 2.06752 0
M  V30 5648 C 518.978 -1.22812 1.43396 0
M  V30 5649 O 518.335 -1.74318 0.540314 0
M  V30 5650 C 518.386 -0.0911927 3.61385 0
M  V30 5651 O 518.107 1.16336 4.22371 0
M  V30 5652 C 519.608 -0.632765 4.38761 0
M  V30 5653 H 516.828 0.0588188 0.668417 0
M  V30 5654 H 519.372 0.807218 1.87894 0
M  V30 5655 H 517.527 -0.770514 3.7966 0
M  V30 5656 H 517.941 0.979082 5.15281 0
M  V30 5657 H 519.415 -0.70041 5.47538 0
M  V30 5658 H 519.892 -1.65039 4.07012 0
M  V30 5659 H 520.498 0.0117856 4.25298 0
M  V30 5660 N 518.813 -1.54241 0.323641 0
M  V30 5661 C 520.229 -1.59574 -0.0290018 0
M  V30 5662 C 520.429 -1.34017 -1.50472 0
M  V30 5663 O 519.485 -1.12464 -2.26071 0
M  V30 5664 C 520.798 -2.98169 0.389295 0
M  V30 5665 C 522.346 -3.11148 0.339958 0
M  V30 5666 C 522.821 -4.5209 0.733418 0
M  V30 5667 N 524.312 -4.5808 0.686827 0
M  V30 5668 C 525.047 -5.65248 0.963464 0
M  V30 5669 N 524.543 -6.80355 1.30724 0
M  V30 5670 N 526.336 -5.55025 0.88902 0
M  V30 5671 H 518.487 -1.6911 1.28512 0
M  V30 5672 H 520.75 -0.790972 0.522558 0
M  V30 5673 H 520.456 -3.21871 1.41746 0
M  V30 5674 H 520.33 -3.76399 -0.245657 0
M  V30 5675 H 522.717 -2.87182 -0.679002 0
M  V30 5676 H 522.798 -2.35023 1.00985 0
M  V30 5677 H 522.442 -4.76788 1.75029 0
M  V30 5678 H 522.372 -5.26584 0.0412189 0
M  V30 5679 H 524.863 -3.75411 0.43298 0
M  V30 5680 H 525.176 -7.58029 1.5037 0
M  V30 5681 H 523.521 -6.81851 1.3455 0
M  V30 5682 H 526.712 -4.63977 0.619939 0
M  V30 5683 H 526.885 -6.38458 1.10797 0
M  V30 5684 N 520.291 -0.0518155 -1.57515 0
M  V30 5685 C 521.519 0.631395 -1.9703 0
M  V30 5686 C 521.934 1.64341 -0.92938 0
M  V30 5687 O 521.291 1.82296 0.0863266 0
M  V30 5688 C 521.342 1.31774 -3.36627 0
M  V30 5689 O 521.063 0.346247 -4.3673 0
M  V30 5690 C 522.564 2.09065 -3.90905 0
M  V30 5691 H 519.784 0.172576 -0.648428 0
M  V30 5692 H 522.328 -0.118306 -2.04158 0
M  V30 5693 H 520.483 2.01867 -3.30649 0
M  V30 5694 H 520.897 0.836226 -5.17791 0
M  V30 5695 H 522.371 2.52508 -4.9086 0
M  V30 5696 H 522.848 2.93908 -3.26366 0
M  V30 5697 H 523.454 1.43882 -4.00223 0
M  V30 5698 N 521.769 1.56035 0.221574 0
M  V30 5699 C 522.994 1.83476 0.967026 0
M  V30 5700 C 523.419 0.632139 1.7716 0
M  V30 5701 O 522.777 -0.419082 1.7639 0
M  V30 5702 C 522.825 3.08907 1.86034 0
M  V30 5703 O 521.929 2.876 2.95567 0
M  V30 5704 H 521.27 0.604913 0.273817 0
M  V30 5705 H 523.8 2.03247 0.234893 0
M  V30 5706 H 523.81 3.3901 2.27016 0
M  V30 5707 H 522.485 3.96068 1.26898 0
M  V30 5708 H 521.062 2.6873 2.58532 0
M  V30 5709 N 523.247 -0.488276 1.49845 0
M  V30 5710 C 524.177 -1.59675 1.70371 0
M  V30 5711 C 525.158 -1.60878 0.552473 0
M  V30 5712 O 526.343 -1.77417 0.78973 0
M  V30 5713 C 523.473 -2.98098 1.782 0
M  V30 5714 C 522.427 -3.11761 2.93239 0
M  V30 5715 C 521.753 -4.51661 2.86193 0
M  V30 5716 C 523.053 -2.90589 4.33999 0
M  V30 5717 H 524.747 -1.42752 2.63177 0
M  V30 5718 H 522.293 -0.685317 1.26647 0
M  V30 5719 H 524.246 -3.75555 1.91144 0
M  V30 5720 H 522.97 -3.16138 0.820018 0
M  V30 5721 H 521.629 -2.36732 2.79917 0
M  V30 5722 H 521.277 -4.66595 1.87877 0
M  V30 5723 H 520.977 -4.61742 3.63412 0
M  V30 5724 H 522.501 -5.31162 3.01163 0
M  V30 5725 H 523.915 -3.57807 4.47936 0
M  V30 5726 H 522.312 -3.1213 5.12538 0
M  V30 5727 H 523.382 -1.86595 4.4756 0
M  V30 5728 N 524.725 -1.39134 -0.740242 0
M  V30 5729 C 525.672 -1.37434 -1.8542 0
M  V30 5730 C 526.642 -0.234822 -1.64432 0
M  V30 5731 O 527.827 -0.429125 -1.85912 0
M  V30 5732 C 524.967 -1.21844 -3.22875 0
M  V30 5733 C 524.08 -2.45296 -3.55603 0
M  V30 5734 C 523.215 -2.22334 -4.82432 0
M  V30 5735 C 522.254 -3.41488 -5.07988 0
M  V30 5736 N 521.391 -3.17877 -6.26018 0
M  V30 5737 H 526.231 -2.3266 -1.86207 0
M  V30 5738 H 523.768 -1.15578 -0.909946 0
M  V30 5739 H 525.726 -1.10818 -4.02213 0
M  V30 5740 H 524.356 -0.3025 -3.21379 0
M  V30 5741 H 523.408 -2.66945 -2.71006 0
M  V30 5742 H 524.72 -3.34063 -3.7041 0
M  V30 5743 H 523.874 -2.0852 -5.69741 0
M  V30 5744 H 522.613 -1.30954 -4.6979 0
M  V30 5745 H 521.618 -3.55807 -4.19144 0
M  V30 5746 H 522.843 -4.33763 -5.22519 0
M  V30 5747 H 520.789 -2.29156 -6.14673 0
M  V30 5748 H 520.706 -4.00198 -6.41387 0
M  V30 5749 H 521.974 -3.07746 -7.16179 0
M  V30 5750 N 526.204 0.969867 -1.24223 0
M  V30 5751 C 527.432 1.74756 -1.10761 0
M  V30 5752 C 527.847 1.85713 0.340041 0
M  V30 5753 O 527.204 1.34389 1.23474 0
M  V30 5754 C 527.255 3.16915 -1.73917 0
M  V30 5755 O 526.976 3.06511 -3.13021 0
M  V30 5756 C 528.477 4.11032 -1.66036 0
M  V30 5757 H 525.697 0.548092 -0.387087 0
M  V30 5758 H 528.241 1.2178 -1.64286 0
M  V30 5759 H 526.396 3.66884 -1.244 0
M  V30 5760 H 526.81 3.96079 -3.43834 0
M  V30 5761 H 528.284 5.08446 -2.14911 0
M  V30 5762 H 528.761 4.34785 -0.621159 0
M  V30 5763 H 529.367 3.66972 -2.14969 0
M  V30 5764 N 527.682 1.05563 1.17022 0
M  V30 5765 C 528.615 0.604197 2.20056 0
M  V30 5766 C 529.593 -0.369169 1.58354 0
M  V30 5767 O 530.777 -0.279898 1.8641 0
M  V30 5768 C 527.904 -0.115265 3.38504 0
M  V30 5769 C 526.95 0.813698 4.18666 0
M  V30 5770 S 527.783 2.30492 4.83357 0
M  V30 5771 C 528.939 1.59674 6.0519 0
M  V30 5772 H 529.172 1.47713 2.58008 0
M  V30 5773 H 526.705 0.867932 1.27696 0
M  V30 5774 H 528.663 -0.524162 4.0714 0
M  V30 5775 H 527.324 -0.964284 2.98932 0
M  V30 5776 H 526.517 0.256736 5.03346 0
M  V30 5777 H 526.119 1.16213 3.55486 0
M  V30 5778 H 528.411 0.898164 6.7152 0
M  V30 5779 H 529.354 2.42115 6.65422 0
M  V30 5780 H 529.762 1.08252 5.54023 0
M  V30 5781 N 529.16 -1.33526 0.837174 0
M  V30 5782 C 530.385 -2.0258 0.444545 0
M  V30 5783 C 530.81 -1.6258 -0.946006 0
M  V30 5784 O 530.168 -0.817548 -1.6182 0
M  V30 5785 C 530.216 -3.5605 0.571006 0
M  V30 5786 O 529.32 -4.10422 -0.403431 0
M  V30 5787 H 528.661 -0.638866 0.180958 0
M  V30 5788 H 531.191 -1.70462 1.13154 0
M  V30 5789 H 531.201 -4.05488 0.452024 0
M  V30 5790 H 529.876 -3.84509 1.58512 0
M  V30 5791 H 528.453 -3.72113 -0.242147 0
M  V30 5792 N 530.638 -0.59345 -1.46 0
M  V30 5793 C 532.054 -0.255965 -1.57534 0
M  V30 5794 C 532.254 1.24167 -1.58697 0
M  V30 5795 O 531.31 2.02398 -1.50968 0
M  V30 5796 C 532.623 -0.91466 -2.86451 0
M  V30 5797 C 534.171 -0.889253 -3.00102 0
M  V30 5798 C 534.646 -1.52769 -4.3177 0
M  V30 5799 N 536.137 -1.49253 -4.38495 0
M  V30 5800 C 536.872 -1.9558 -5.39014 0
M  V30 5801 N 536.368 -2.49929 -6.46148 0
M  V30 5802 N 538.161 -1.86432 -5.30282 0
M  V30 5803 H 530.312 -1.56604 -1.43489 0
M  V30 5804 H 532.575 -0.655207 -0.685133 0
M  V30 5805 H 532.281 -1.96861 -2.91442 0
M  V30 5806 H 532.155 -0.429356 -3.74748 0
M  V30 5807 H 534.542 0.156111 -2.94687 0
M  V30 5808 H 534.623 -1.41268 -2.13253 0
M  V30 5809 H 534.267 -2.57231 -4.37944 0
M  V30 5810 H 534.197 -0.979398 -5.17412 0
M  V30 5811 H 536.688 -1.09536 -3.61677 0
M  V30 5812 H 537.001 -2.83109 -7.19075 0
M  V30 5813 H 535.346 -2.53961 -6.46938 0
M  V30 5814 H 538.537 -1.43722 -4.4549 0
M  V30 5815 H 538.71 -2.22852 -6.08474 0
M  V30 5816 N 532.116 1.54067 -0.331816 0
M  V30 5817 C 533.532 1.59587 0.0205388 0
M  V30 5818 C 533.732 1.34813 1.49759 0
M  V30 5819 O 532.788 1.13661 2.25471 0
M  V30 5820 C 534.101 2.97959 -0.405103 0
M  V30 5821 C 535.649 3.10964 -0.356454 0
M  V30 5822 C 536.124 4.51694 -0.757384 0
M  V30 5823 N 537.615 4.57709 -0.71111 0
M  V30 5824 C 538.35 5.64729 -0.993427 0
M  V30 5825 N 537.846 6.79652 -1.3433 0
M  V30 5826 N 539.639 5.54546 -0.918442 0
M  V30 5827 H 531.79 1.68426 -1.29407 0
M  V30 5828 H 534.053 0.78819 -0.526745 0
M  V30 5829 H 533.759 3.21115 -1.43451 0
M  V30 5830 H 533.633 3.76524 0.225692 0
M  V30 5831 H 536.02 2.87538 0.663763 0
M  V30 5832 H 536.101 2.34484 -1.02229 0
M  V30 5833 H 535.745 4.75853 -1.77555 0
M  V30 5834 H 535.675 5.26555 -0.0691444 0
M  V30 5835 H 538.166 3.75176 -0.452883 0
M  V30 5836 H 538.479 7.57221 -1.54388 0
M  V30 5837 H 536.824 6.81128 -1.38164 0
M  V30 5838 H 540.015 4.63641 -0.644536 0
M  V30 5839 H 540.188 6.37861 -1.14181 0
M  V30 5840 N 533.594 0.0601682 1.57485 0
M  V30 5841 C 534.541 -0.91112 2.12055 0
M  V30 5842 C 535.511 -1.30298 1.03013 0
M  V30 5843 O 536.696 -1.39087 1.30612 0
M  V30 5844 C 533.836 -2.1775 2.67729 0
M  V30 5845 C 532.949 -1.83933 3.90887 0
M  V30 5846 C 532.084 -3.05096 4.34845 0
M  V30 5847 C 531.123 -2.67241 5.5068 0
M  V30 5848 N 530.26 -3.81127 5.8965 0
M  V30 5849 H 535.1 -0.43888 2.9475 0
M  V30 5850 H 532.637 -0.204995 1.45665 0
M  V30 5851 H 534.595 -2.91866 2.98111 0
M  V30 5852 H 533.225 -2.62535 1.87816 0
M  V30 5853 H 532.277 -0.999287 3.6704 0
M  V30 5854 H 533.589 -1.52074 4.75052 0
M  V30 5855 H 532.743 -3.87502 4.66827 0
M  V30 5856 H 531.482 -3.40139 3.49509 0
M  V30 5857 H 530.487 -1.83254 5.18361 0
M  V30 5858 H 531.712 -2.3338 6.37738 0
M  V30 5859 H 529.658 -4.15954 5.07266 0
M  V30 5860 H 529.575 -3.52997 6.68528 0
M  V30 5861 H 530.843 -4.64145 6.2625 0
M  V30 5862 N 535.072 -1.5615 -0.213296 0
M  V30 5863 C 536.002 -1.96109 -1.26742 0
M  V30 5864 C 536.983 -0.830448 -1.48451 0
M  V30 5865 O 538.168 -1.09339 -1.60495 0
M  V30 5866 C 535.298 -2.28492 -2.61551 0
M  V30 5867 C 534.252 -3.44124 -2.54485 0
M  V30 5868 C 533.578 -3.62134 -3.93399 0
M  V30 5869 C 534.878 -4.78855 -2.08556 0
M  V30 5870 H 536.572 -2.84412 -0.935434 0
M  V30 5871 H 534.118 -1.36836 -0.44854 0
M  V30 5872 H 536.071 -2.55039 -3.3546 0
M  V30 5873 H 534.795 -1.37052 -2.96453 0
M  V30 5874 H 533.454 -3.17639 -1.83033 0
M  V30 5875 H 533.102 -2.68055 -4.25623 0
M  V30 5876 H 532.802 -4.39913 -3.89551 0
M  V30 5877 H 534.326 -3.91038 -4.68958 0
M  V30 5878 H 535.74 -5.04552 -2.72213 0
M  V30 5879 H 534.137 -5.59975 -2.1575 0
M  V30 5880 H 535.207 -4.73657 -1.03811 0
M  V30 5881 N 536.55 0.480323 -1.50102 0
M  V30 5882 C 537.775 1.26126 -1.64642 0
M  V30 5883 C 538.2 1.85257 -0.325823 0
M  V30 5884 O 537.558 1.66854 0.709194 0
M  V30 5885 C 537.606 2.35243 -2.73301 0
M  V30 5886 O 536.71 3.39646 -2.33911 0
M  V30 5887 H 536.051 0.371463 -0.550374 0
M  V30 5888 H 538.581 0.572696 -1.96421 0
M  V30 5889 H 538.591 2.80695 -2.96098 0
M  V30 5890 H 537.266 1.91574 -3.6915 0
M  V30 5891 H 535.843 2.99969 -2.21525 0
M  V30 5892 N 538.028 1.39524 0.732853 0
M  V30 5893 C 538.96 1.34318 1.85718 0
M  V30 5894 C 539.973 0.251576 1.60844 0
M  V30 5895 O 541.162 0.510685 1.71039 0
M  V30 5896 C 538.262 1.06334 3.21786 0
M  V30 5897 C 537.435 2.26813 3.73998 0
M  V30 5898 C 536.494 1.95253 4.88634 0
M  V30 5899 O 535.52 2.67957 5.02183 0
M  V30 5900 N 536.722 0.919984 5.73164 0
M  V30 5901 H 539.487 2.3121 1.90688 0
M  V30 5902 H 537.048 1.33654 0.91368 0
M  V30 5903 H 539.04 0.832363 3.96048 0
M  V30 5904 H 537.61 0.181682 3.12072 0
M  V30 5905 H 536.83 2.65849 2.91064 0
M  V30 5906 H 538.118 3.0717 4.05616 0
M  V30 5907 H 537.516 0.317487 5.64808 0
M  V30 5908 H 536.073 0.748905 6.47483 0
M  V30 5909 N 539.506 -0.963266 1.24736 0
M  V30 5910 C 540.438 -2.06162 1.0015 0
M  V30 5911 C 541.451 -1.62771 -0.0305905 0
M  V30 5912 O 542.64 -1.77296 0.206966 0
M  V30 5913 C 539.74 -3.35333 0.490385 0
M  V30 5914 C 538.913 -4.07609 1.58663 0
M  V30 5915 C 537.972 -5.15052 1.0774 0
M  V30 5916 O 536.998 -5.4098 1.77002 0
M  V30 5917 N 538.2 -5.80436 -0.0858605 0
M  V30 5918 H 540.965 -2.27825 1.94719 0
M  V30 5919 H 538.526 -1.13121 1.15825 0
M  V30 5920 H 540.518 -4.04477 0.134371 0
M  V30 5921 H 539.088 -3.10507 -0.361155 0
M  V30 5922 H 538.308 -3.32681 2.11463 0
M  V30 5923 H 539.596 -4.52656 2.32336 0
M  V30 5924 H 538.994 -5.6178 -0.664806 0
M  V30 5925 H 537.551 -6.50674 -0.382981 0
M  V30 5926 N 540.985 -1.06182 -1.16461 0
M  V30 5927 C 541.932 -0.671613 -2.20812 0
M  V30 5928 C 542.902 0.331186 -1.62765 0
M  V30 5929 O 544.087 0.22033 -1.89524 0
M  V30 5930 C 541.227 -0.063029 -3.45042 0
M  V30 5931 C 540.34 -1.11587 -4.1734 0
M  V30 5932 C 539.475 -0.473546 -5.29085 0
M  V30 5933 C 538.514 -1.51 -5.93182 0
M  V30 5934 N 537.651 -0.891118 -6.96422 0
M  V30 5935 H 542.491 -1.56589 -2.53542 0
M  V30 5936 H 540.028 -0.782951 -1.24532 0
M  V30 5937 H 541.986 0.307344 -4.16066 0
M  V30 5938 H 540.616 0.794663 -3.12866 0
M  V30 5939 H 539.668 -1.60396 -3.44931 0
M  V30 5940 H 540.98 -1.90221 -4.61104 0
M  V30 5941 H 540.134 -0.0501432 -6.06679 0
M  V30 5942 H 538.873 0.344687 -4.8648 0
M  V30 5943 H 537.878 -1.94331 -5.14311 0
M  V30 5944 H 539.103 -2.33031 -6.37866 0
M  V30 5945 H 537.049 -0.0935753 -6.55933 0
M  V30 5946 H 536.966 -1.61486 -7.38551 0
M  V30 5947 H 538.234 -0.492822 -7.77941 0
M  V30 5948 N 542.463 1.3308 -0.844243 0
M  V30 5949 C 543.373 2.32876 -0.283922 0
M  V30 5950 C 544.389 1.63589 0.592846 0
M  V30 5951 O 545.565 1.95205 0.495693 0
M  V30 5952 C 542.63 3.42667 0.527283 0
M  V30 5953 C 541.691 4.27664 -0.374394 0
M  V30 5954 C 540.924 5.32212 0.39819 0
M  V30 5955 O 541.147 5.46635 1.62932 0
M  V30 5956 O 540.081 6.01458 -0.2306 0
M  V30 5957 H 543.907 2.82671 -1.11045 0
M  V30 5958 H 541.492 1.36518 -0.606903 0
M  V30 5959 H 543.374 4.09652 0.988078 0
M  V30 5960 H 542.049 2.95079 1.33078 0
M  V30 5961 H 540.956 3.63526 -0.883144 0
M  V30 5962 H 542.289 4.78749 -1.1428 0
M  V30 5963 N 543.941 0.601185 1.45683 0
M  V30 5964 C 544.888 -0.121396 2.30481 0
M  V30 5965 C 545.858 -0.866232 1.41724 0
M  V30 5966 O 547.043 -0.85324 1.70659 0
M  V30 5967 C 544.183 -1.11704 3.26521 0
M  V30 5968 C 543.296 -0.373741 4.3038 0
M  V30 5969 C 542.431 -1.35854 5.13534 0
M  V30 5970 C 541.47 -0.602689 6.09126 0
M  V30 5971 N 540.607 -1.53645 6.85082 0
M  V30 5972 H 545.447 0.607732 2.91737 0
M  V30 5973 H 542.984 0.311502 1.43764 0
M  V30 5974 H 544.942 -1.70735 3.80664 0
M  V30 5975 H 543.572 -1.81366 2.67032 0
M  V30 5976 H 542.624 0.331962 3.78949 0
M  V30 5977 H 543.936 0.2163 4.98331 0
M  V30 5978 H 543.09 -2.02111 5.72046 0
M  V30 5979 H 541.829 -1.98251 4.45587 0
M  V30 5980 H 540.834 0.0735482 5.49751 0
M  V30 5981 H 542.059 0.0161467 6.79098 0
M  V30 5982 H 540.005 -2.14819 6.1983 0
M  V30 5983 H 539.922 -0.999688 7.49361 0
M  V30 5984 H 541.19 -2.1888 7.48139 0
M  V30 5985 N 545.419 -1.53889 0.339982 0
M  V30 5986 C 546.366 -2.24902 -0.518452 0
M  V30 5987 C 547.336 -1.24593 -1.09844 0
M  V30 5988 O 548.521 -1.53317 -1.13572 0
M  V30 5989 C 545.661 -3.02262 -1.66529 0
M  V30 5990 C 544.774 -4.17418 -1.11295 0
M  V30 5991 C 543.909 -4.82273 -2.2268 0
M  V30 5992 C 542.948 -5.89503 -1.6478 0
M  V30 5993 N 542.085 -6.48153 -2.69893 0
M  V30 5994 H 546.925 -2.97853 0.0936579 0
M  V30 5995 H 544.462 -1.46986 0.0579924 0
M  V30 5996 H 546.42 -3.45371 -2.3404 0
M  V30 5997 H 545.05 -2.31614 -2.24844 0
M  V30 5998 H 544.102 -3.78976 -0.328886 0
M  V30 5999 H 545.414 -4.94554 -0.649414 0
M  V30 6000 H 544.568 -5.28435 -2.98063 0
M  V30 6001 H 543.307 -4.04552 -2.72376 0
M  V30 6002 H 542.312 -5.42728 -0.879004 0
M  V30 6003 H 543.537 -6.6913 -1.1594 0
M  V30 6004 H 541.483 -5.73298 -3.1885 0
M  V30 6005 H 541.4 -7.20752 -2.28151 0
M  V30 6006 H 542.668 -6.98968 -3.45056 0
M  V30 6007 N 546.897 -0.0685191 -1.57451 0
M  V30 6008 C 547.86 0.885173 -2.11417 0
M  V30 6009 C 548.86 1.22853 -1.03748 0
M  V30 6010 O 550.05 1.16235 -1.2975 0
M  V30 6011 C 547.182 2.18964 -2.61281 0
M  V30 6012 H 548.375 0.417034 -2.96986 0
M  V30 6013 H 545.928 0.18014 -1.55258 0
M  V30 6014 H 546.663 2.70321 -1.79156 0
M  V30 6015 H 546.448 1.9534 -3.39977 0
M  V30 6016 H 547.938 2.87242 -3.0312 0
M  V30 6017 N 548.375 1.56261 0.205012 0
M  V30 6018 C 549.603 1.84141 0.943386 0
M  V30 6019 C 550.018 0.649772 1.77266 0
M  V30 6020 O 549.375 -0.381612 1.78466 0
M  V30 6021 C 549.426 3.10719 1.84759 0
M  V30 6022 O 549.147 4.25286 1.05181 0
M  V30 6023 C 550.648 3.51706 2.69848 0
M  V30 6024 H 547.868 0.611734 0.275721 0
M  V30 6025 H 550.412 2.03364 0.215253 0
M  V30 6026 H 548.567 2.93422 2.52947 0
M  V30 6027 H 548.981 4.97301 1.66709 0
M  V30 6028 H 550.455 4.43266 3.28967 0
M  V30 6029 H 550.932 2.7423 3.43067 0
M  V30 6030 H 551.538 3.71499 2.07047 0
M  V30 6031 N 549.853 -0.472356 1.50355 0
M  V30 6032 C 550.785 -1.58795 1.65278 0
M  V30 6033 C 551.798 -1.53782 0.534313 0
M  V30 6034 O 552.987 -1.59193 0.807446 0
M  V30 6035 C 550.087 -2.97672 1.62001 0
M  V30 6036 C 549.26 -3.27568 2.89859 0
M  V30 6037 C 548.319 -4.45993 2.79242 0
M  V30 6038 O 547.345 -4.46364 3.53197 0
M  V30 6039 N 548.547 -5.47578 1.92713 0
M  V30 6040 H 551.312 -1.46411 2.61503 0
M  V30 6041 H 548.873 -0.660751 1.47803 0
M  V30 6042 H 550.865 -3.74862 1.52513 0
M  V30 6043 H 549.435 -3.03832 0.735159 0
M  V30 6044 H 548.655 -2.39003 3.13483 0
M  V30 6045 H 549.943 -3.44352 3.74565 0
M  V30 6046 H 549.341 -5.50099 1.31939 0
M  V30 6047 H 547.898 -6.23757 1.8913 0
M  V30 6048 N 551.331 -1.39911 -0.725443 0
M  V30 6049 C 552.264 -1.33788 -1.84867 0
M  V30 6050 C 553.242 -0.209907 -1.61239 0
M  V30 6051 O 554.426 -0.391943 -1.8438 0
M  V30 6052 C 551.553 -1.07975 -3.21028 0
M  V30 6053 C 550.599 -2.23092 -3.635 0
M  V30 6054 S 551.432 -3.85431 -3.71757 0
M  V30 6055 C 552.588 -3.61862 -5.10692 0
M  V30 6056 H 552.821 -2.28848 -1.89779 0
M  V30 6057 H 550.354 -1.26079 -0.891254 0
M  V30 6058 H 552.312 -0.937669 -3.99647 0
M  V30 6059 H 550.973 -0.145865 -3.13761 0
M  V30 6060 H 550.166 -2.00647 -4.62338 0
M  V30 6061 H 549.768 -2.33553 -2.92112 0
M  V30 6062 H 552.06 -3.19719 -5.97316 0
M  V30 6063 H 553.003 -4.60196 -5.38169 0
M  V30 6064 H 553.411 -2.95757 -4.8082 0
M  V30 6065 N 552.809 0.956637 -1.25245 0
M  V30 6066 C 553.739 2.07058 -1.07931 0
M  V30 6067 C 554.72 1.70096 0.0110361 0
M  V30 6068 O 555.905 1.93555 -0.158121 0
M  V30 6069 C 553.035 3.40272 -0.695124 0
M  V30 6070 C 551.989 3.91235 -1.73549 0
M  V30 6071 C 551.315 5.20921 -1.20604 0
M  V30 6072 C 552.615 4.17837 -3.13385 0
M  V30 6073 H 554.309 2.218 -2.01109 0
M  V30 6074 H 551.855 1.06581 -0.968326 0
M  V30 6075 H 553.808 4.1765 -0.560949 0
M  V30 6076 H 552.532 3.25462 0.272355 0
M  V30 6077 H 551.191 3.16025 -1.85807 0
M  V30 6078 H 550.839 5.02479 -0.228846 0
M  V30 6079 H 550.539 5.55987 -1.90136 0
M  V30 6080 H 552.063 6.00897 -1.08421 0
M  V30 6081 H 553.477 4.8588 -3.04292 0
M  V30 6082 H 551.874 4.64154 -3.80369 0
M  V30 6083 H 552.944 3.2419 -3.60595 0
M  V30 6084 N 554.287 1.06798 1.15896 0
M  V30 6085 C 555.25 0.687328 2.18651 0
M  V30 6086 C 556.25 -0.269559 1.58524 0
M  V30 6087 O 557.44 -0.0512627 1.74125 0
M  V30 6088 C 554.572 0.0121642 3.40898 0
M  V30 6089 H 555.765 1.59701 2.53842 0
M  V30 6090 H 553.318 0.863828 1.3026 0
M  V30 6091 H 554.053 -0.910025 3.1127 0
M  V30 6092 H 553.838 0.700309 3.85795 0
M  V30 6093 H 555.328 -0.239703 4.16911 0
M  V30 6094 N 555.766 -1.3263 0.851289 0
M  V30 6095 C 557.015 -1.96633 0.449267 0
M  V30 6096 C 557.328 -1.68131 -0.999562 0
M  V30 6097 O 558.534 -2.25845 -1.50685 0
M  V30 6098 C 556.99 -3.51946 0.752446 0
M  V30 6099 C 556.598 -3.89311 2.21678 0
M  V30 6100 C 558.342 -4.22437 0.417983 0
M  V30 6101 C 556.249 -5.37655 2.46336 0
M  V30 6102 H 555.179 -0.735888 0.164269 0
M  V30 6103 H 557.83 -1.51073 1.0416 0
M  V30 6104 H 556.212 -3.95899 0.0895858 0
M  V30 6105 H 557.386 -3.56378 2.92115 0
M  V30 6106 H 555.701 -3.31836 2.51543 0
M  V30 6107 H 558.298 -5.31549 0.579674 0
M  V30 6108 H 558.641 -4.11349 -0.640115 0
M  V30 6109 H 559.174 -3.84057 1.03659 0
M  V30 6110 H 555.913 -5.5376 3.50757 0
M  V30 6111 H 555.433 -5.72005 1.80473 0
M  V30 6112 H 557.112 -6.04695 2.30115 0
M  V30 6113 N 557.244 -0.608902 -1.45362 0
M  V30 6114 C 558.49 -0.104762 -2.02529 0
M  V30 6115 C 558.823 1.26191 -1.47613 0
M  V30 6116 O 558.098 1.8327 -0.65134 0
M  V30 6117 C 558.381 -0.0672661 -3.60037 0
M  V30 6118 C 558.234 -1.4647 -4.25284 0
M  V30 6119 C 559.553 0.619877 -4.35713 0
M  V30 6120 H 556.672 -0.0395438 -0.735938 0
M  V30 6121 H 559.314 -0.781126 -1.73201 0
M  V30 6122 H 557.464 0.50871 -3.85155 0
M  V30 6123 H 559.136 -2.08785 -4.11347 0
M  V30 6124 H 557.379 -2.02502 -3.83634 0
M  V30 6125 H 558.05 -1.39069 -5.34195 0
M  V30 6126 H 560.526 0.130297 -4.15896 0
M  V30 6127 H 559.402 0.615224 -5.45441 0
M  V30 6128 H 559.663 1.68621 -4.0868 0
M  V30 6129 N 558.722 1.53707 -0.348139 0
M  V30 6130 C 559.652 2.28111 0.498766 0
M  V30 6131 C 560.633 1.29851 1.09876 0
M  V30 6132 O 561.818 1.587 1.11928 0
M  V30 6133 C 558.948 3.05735 1.64753 0
M  V30 6134 C 557.902 4.11537 1.17565 0
M  V30 6135 C 557.228 4.77142 2.4133 0
M  V30 6136 C 558.528 5.21587 0.272844 0
M  V30 6137 H 560.222 2.99152 -0.121934 0
M  V30 6138 H 557.768 1.43875 -0.0600842 0
M  V30 6139 H 559.721 3.56526 2.24649 0
M  V30 6140 H 558.445 2.32354 2.2952 0
M  V30 6141 H 557.104 3.61665 0.599483 0
M  V30 6142 H 556.752 4.0035 3.04514 0
M  V30 6143 H 556.452 5.48626 2.10436 0
M  V30 6144 H 557.976 5.30719 3.01943 0
M  V30 6145 H 559.39 5.67986 0.778779 0
M  V30 6146 H 557.787 6.00074 0.0555849 0
M  V30 6147 H 558.857 4.79969 -0.689785 0
M  V30 6148 N 560.2 0.0768682 1.57412 0
M  V30 6149 C 561.448 -0.589918 1.93299 0
M  V30 6150 C 561.769 -1.69842 0.958049 0
M  V30 6151 O 561.039 -1.95899 0.00703261 0
M  V30 6152 H 559.619 -0.220901 0.713591 0
M  V30 6153 H 562.281 0.135917 1.94425 0
M  V30 6154 H 561.377 -1.01195 2.95239 0
M  V30 6155 N 561.678 -1.56367 -0.196722 0
M  V30 6156 C 562.924 -1.80796 -0.918725 0
M  V30 6157 C 563.257 -0.650645 -1.82976 0
M  V30 6158 O 562.532 0.348889 -1.91345 0
M  V30 6159 C 562.815 -3.15472 -1.73636 0
M  V30 6160 C 562.668 -4.41693 -0.85015 0
M  V30 6161 C 563.987 -3.46824 -2.70927 0
M  V30 6162 H 561.106 -0.657702 -0.332561 0
M  V30 6163 H 563.748 -1.89086 -0.186186 0
M  V30 6164 H 561.898 -3.08536 -2.36088 0
M  V30 6165 H 563.57 -4.60673 -0.240459 0
M  V30 6166 H 561.813 -4.33517 -0.156785 0
M  V30 6167 H 562.484 -5.32419 -1.45719 0
M  V30 6168 H 564.96 -3.54049 -2.18607 0
M  V30 6169 H 563.836 -4.4218 -3.25219 0
M  V30 6170 H 564.097 -2.70236 -3.49893 0
M  V30 6171 N 563.156 0.464375 -1.50603 0
M  V30 6172 C 564.403 1.21596 -1.61928 0
M  V30 6173 C 564.731 1.91804 -0.322737 0
M  V30 6174 O 563.986 1.83065 0.691776 0
M  V30 6175 C 564.285 2.278 -2.75394 0
M  V30 6176 C 563.951 1.74797 -4.1564 0
M  V30 6177 C 562.613 1.60063 -4.53799 0
M  V30 6178 C 564.965 1.35548 -5.03266 0
M  V30 6179 C 562.293 1.04514 -5.77316 0
M  V30 6180 C 564.645 0.814381 -6.27336 0
M  V30 6181 C 563.309 0.653726 -6.64291 0
M  V30 6182 H 562.579 0.444951 -0.592536 0
M  V30 6183 H 565.226 0.510964 -1.84557 0
M  V30 6184 H 563.531 3.04233 -2.46879 0
M  V30 6185 H 565.228 2.85723 -2.81359 0
M  V30 6186 H 561.818 1.87234 -3.8554 0
M  V30 6187 H 566.002 1.45763 -4.74412 0
M  V30 6188 H 561.258 0.908186 -6.04617 0
M  V30 6189 H 565.432 0.501626 -6.94591 0
M  V30 6190 H 563.059 0.22114 -7.59878 0
M  V30 6191 N 564.634 1.40294 0.718013 0
M  V30 6192 C 565.883 1.37746 1.4734 0
M  V30 6193 C 566.196 -0.0180754 1.95592 0
M  V30 6194 O 567.402 -0.166166 2.70991 0
M  V30 6195 C 565.858 2.4208 2.66318 0
M  V30 6196 C 565.466 3.87432 2.24945 0
M  V30 6197 C 567.21 2.48635 3.44065 0
M  V30 6198 C 565.117 4.83368 3.40748 0
M  V30 6199 H 564.047 0.512165 0.553356 0
M  V30 6200 H 566.698 1.66019 0.781661 0
M  V30 6201 H 565.08 2.06903 3.3765 0
M  V30 6202 H 566.254 4.3174 1.6105 0
M  V30 6203 H 564.569 3.8433 1.60249 0
M  V30 6204 H 567.166 3.17499 4.30231 0
M  V30 6205 H 567.509 1.51611 3.87711 0
M  V30 6206 H 568.042 2.82791 2.79775 0
M  V30 6207 H 564.781 5.81716 3.02136 0
M  V30 6208 H 564.301 4.43726 4.03568 0
M  V30 6209 H 565.98 5.03074 4.06848 0
M  V30 6210 N 566.112 -0.949982 1.2575 0
M  V30 6211 C 567.361 -1.68956 1.10168 0
M  V30 6212 C 567.674 -1.92327 -0.356309 0
M  V30 6213 O 568.88 -2.64026 -0.632657 0
M  V30 6214 C 567.336 -3.04196 1.92336 0
M  V30 6215 C 566.944 -2.88603 3.42655 0
M  V30 6216 C 568.688 -3.81904 1.85336 0
M  V30 6217 C 566.595 -4.19262 4.17101 0
M  V30 6218 H 565.525 -0.633645 0.408668 0
M  V30 6219 H 568.176 -1.05719 1.49986 0
M  V30 6220 H 566.558 -3.68363 1.45344 0
M  V30 6221 H 567.732 -2.3334 3.97353 0
M  V30 6222 H 566.047 -2.24345 3.50796 0
M  V30 6223 H 568.644 -4.78688 2.38248 0
M  V30 6224 H 568.987 -4.08099 0.822226 0
M  V30 6225 H 569.52 -3.24495 2.30104 0
M  V30 6226 H 566.259 -3.98254 5.20648 0
M  V30 6227 H 565.779 -4.74273 3.67186 0
M  V30 6228 H 567.458 -4.87775 4.25071 0
M  V30 6229 N 567.59 -1.07411 -1.15328 0
M  V30 6230 C 568.83 -0.807011 -1.87794 0
M  V30 6231 C 569.194 0.654987 -1.80482 0
M  V30 6232 O 570.395 1.03716 -2.47985 0
M  V30 6233 C 568.666 -1.30198 -3.32841 0
M  V30 6234 S 570.225 -1.16564 -4.23034 0
M  V30 6235 H 567.043 -0.292429 -0.648079 0
M  V30 6236 H 569.645 -1.37334 -1.39139 0
M  V30 6237 H 568.349 -2.3607 -3.35707 0
M  V30 6238 H 567.88 -0.730881 -3.86551 0
M  V30 6239 H 569.895 -0.103557 -4.96092 0
M  V30 6240 N 569.068 1.32177 -0.85831 0
M  V30 6241 C 570.314 1.97813 -0.47346 0
M  V30 6242 C 570.669 1.66674 0.961122 0
M  V30 6243 O 569.962 0.94657 1.66585 0
M  V30 6244 C 570.156 3.51372 -0.653658 0
M  V30 6245 C 569.985 3.97433 -2.1042 0
M  V30 6246 C 568.755 4.24338 -2.74345 0
M  V30 6247 C 570.953 4.12233 -3.0752 0
M  V30 6248 N 568.935 4.56672 -4.10272 0
M  V30 6249 C 570.306 4.48146 -4.28445 0
M  V30 6250 C 572.361 3.94577 -3.03667 0
M  V30 6251 C 571.064 4.68246 -5.4602 0
M  V30 6252 C 573.09 4.15864 -4.20489 0
M  V30 6253 C 572.452 4.52098 -5.40173 0
M  V30 6254 H 568.551 0.749808 -0.222061 0
M  V30 6255 H 571.135 1.59927 -1.11047 0
M  V30 6256 H 569.306 3.88372 -0.0463267 0
M  V30 6257 H 571.038 4.03998 -0.238343 0
M  V30 6258 H 567.793 4.16544 -2.25362 0
M  V30 6259 H 568.217 4.77019 -4.80398 0
M  V30 6260 H 572.859 3.65662 -2.12252 0
M  V30 6261 H 570.577 4.96014 -6.37962 0
M  V30 6262 H 574.163 4.03702 -4.18947 0
M  V30 6263 H 573.043 4.68238 -6.29065 0
M  V30 6264 N 570.547 0.616602 1.45037 0
M  V30 6265 C 571.477 -0.0840787 2.33349 0
M  V30 6266 C 572.458 -0.849641 1.4736 0
M  V30 6267 O 573.643 -0.818407 1.76113 0
M  V30 6268 C 570.773 -1.07604 3.3021 0
M  V30 6269 C 569.727 -0.423096 4.25904 0
M  V30 6270 C 569.053 -1.52394 5.12523 0
M  V30 6271 C 570.353 0.661457 5.18095 0
M  V30 6272 H 572.047 0.653333 2.92185 0
M  V30 6273 H 569.593 0.315634 1.40498 0
M  V30 6274 H 571.546 -1.57485 3.90866 0
M  V30 6275 H 570.27 -1.84416 2.69552 0
M  V30 6276 H 568.929 0.05493 3.66559 0
M  V30 6277 H 568.577 -2.28257 4.48227 0
M  V30 6278 H 568.277 -1.09251 5.77354 0
M  V30 6279 H 569.801 -2.02485 5.76049 0
M  V30 6280 H 571.215 0.246353 5.7277 0
M  V30 6281 H 569.612 1.01517 5.91451 0
M  V30 6282 H 570.682 1.53446 4.59981 0
M  V30 6283 N 572.025 -1.5352 0.356285 0
M  V30 6284 C 573.436 -1.86282 -0.12492 0
M  V30 6285 C 573.787 -1.27717 -1.48939 0
M  V30 6286 O 572.912 -0.595614 -2.08042 0
M  V30 6287 C 573.507 -3.37995 -0.23345 0
M  V30 6288 C 572.066 -3.70588 -0.658899 0
M  V30 6289 C 571.213 -2.76581 0.199596 0
M  V30 6290 H 574.164 -1.47901 0.575423 0
M  V30 6291 H 574.185 -3.65475 -1.0587 0
M  V30 6292 H 573.697 -3.8059 0.759776 0
M  V30 6293 H 571.798 -3.33544 -1.66069 0
M  V30 6294 H 571.911 -4.77076 -0.439957 0
M  V30 6295 H 570.275 -2.52552 -0.330076 0
M  V30 6296 H 571.058 -3.22008 1.19019 0
M  V30 6297 N 573.503 -0.0852151 -1.57369 0
M  V30 6298 C 574.75 0.580806 -1.93992 0
M  V30 6299 C 575.078 1.68801 -0.966252 0
M  V30 6300 O 574.333 1.95694 0.0158649 0
M  V30 6301 C 574.632 1.18482 -3.3719 0
M  V30 6302 C 574.298 0.2024 -4.50446 0
M  V30 6303 C 572.96 -0.0678318 -4.81152 0
M  V30 6304 C 575.312 -0.46895 -5.19086 0
M  V30 6305 C 572.64 -1.01627 -5.77831 0
M  V30 6306 C 574.992 -1.4058 -6.16782 0
M  V30 6307 C 573.656 -1.68436 -6.45899 0
M  V30 6308 H 572.926 0.212532 -0.709867 0
M  V30 6309 H 575.573 -0.158947 -1.90839 0
M  V30 6310 H 573.878 2.0006 -3.36873 0
M  V30 6311 H 575.575 1.70767 -3.62822 0
M  V30 6312 H 572.165 0.423208 -4.26505 0
M  V30 6313 H 576.349 -0.273307 -4.95547 0
M  V30 6314 H 571.605 -1.2392 -5.9871 0
M  V30 6315 H 575.779 -1.93188 -6.69068 0
M  V30 6316 H 573.406 -2.42088 -7.20623 0
M  V30 6317 N 574.981 1.5647 0.188427 0
M  V30 6318 C 576.228 1.81013 0.907779 0
M  V30 6319 C 576.556 0.65953 1.82977 0
M  V30 6320 O 575.811 -0.354308 1.92466 0
M  V30 6321 C 576.11 3.11596 1.7505 0
M  V30 6322 C 575.776 4.40145 0.978922 0
M  V30 6323 C 574.438 4.75066 0.765912 0
M  V30 6324 C 576.79 5.19369 0.436498 0
M  V30 6325 C 574.118 5.867 -0.00089868 0
M  V30 6326 C 576.47 6.31805 -0.317136 0
M  V30 6327 C 575.134 6.65303 -0.541103 0
M  V30 6328 H 574.404 0.662373 0.33218 0
M  V30 6329 H 577.051 1.9071 0.173732 0
M  V30 6330 H 575.356 2.97165 2.55343 0
M  V30 6331 H 577.053 3.27793 2.30983 0
M  V30 6332 H 573.643 4.12745 1.15497 0
M  V30 6333 H 577.827 4.92799 0.588449 0
M  V30 6334 H 573.083 6.11122 -0.184329 0
M  V30 6335 H 577.257 6.92406 -0.744788 0
M  V30 6336 H 574.884 7.51646 -1.13718 0
M  V30 6337 N 576.459 -0.456382 1.50847 0
M  V30 6338 C 577.708 -1.2042 1.61808 0
M  V30 6339 C 578.021 -1.9278 0.330932 0
M  V30 6340 O 579.227 -2.69612 0.319643 0
M  V30 6341 C 577.683 -2.18891 2.85683 0
M  V30 6342 C 577.291 -1.52267 4.2133 0
M  V30 6343 C 579.035 -2.94224 3.05994 0
M  V30 6344 C 576.942 -2.4911 5.36375 0
M  V30 6345 H 575.872 -0.453177 0.602616 0
M  V30 6346 H 578.523 -0.473144 1.77295 0
M  V30 6347 H 576.905 -2.95351 2.63787 0
M  V30 6348 H 578.079 -0.814949 4.53536 0
M  V30 6349 H 576.394 -0.891594 4.06743 0
M  V30 6350 H 578.991 -3.66732 3.89117 0
M  V30 6351 H 579.334 -3.54469 2.18306 0
M  V30 6352 H 579.867 -2.24874 3.28141 0
M  V30 6353 H 576.606 -1.93582 6.26264 0
M  V30 6354 H 576.126 -3.17991 5.08569 0
M  V30 6355 H 577.805 -3.10637 5.67551 0
M  V30 6356 N 577.937 -1.40673 -0.710563 0
M  V30 6357 C 579.165 -1.42547 -1.4996 0
M  V30 6358 C 579.58 -0.0265485 -1.88781 0
M  V30 6359 O 578.937 0.950694 -1.55782 0
M  V30 6360 C 578.988 -2.32071 -2.77173 0
M  V30 6361 O 578.709 -3.66518 -2.39992 0
M  V30 6362 C 580.21 -2.42591 -3.71032 0
M  V30 6363 H 577.43 -0.486025 -0.462623 0
M  V30 6364 H 579.974 -1.84783 -0.876102 0
M  V30 6365 H 578.129 -1.93184 -3.35795 0
M  V30 6366 H 578.543 -4.14115 -3.21884 0
M  V30 6367 H 580.017 -3.09429 -4.57119 0
M  V30 6368 H 580.494 -1.4525 -4.14486 0
M  V30 6369 H 581.1 -2.82051 -3.18319 0
M  V30 6370 N 579.415 0.9433 -1.26252 0
M  V30 6371 C 580.365 2.02746 -1.04297 0
M  V30 6372 C 581.349 1.60882 0.0239435 0
M  V30 6373 O 582.541 1.75947 -0.192757 0
M  V30 6374 C 579.67 3.36585 -0.6757 0
M  V30 6375 C 578.756 3.84939 -1.77996 0
M  V30 6376 N 579.147 4.05966 -3.01704 0
M  V30 6377 C 577.445 4.13833 -1.66308 0
M  V30 6378 C 578.146 4.45987 -3.73458 0
M  V30 6379 N 577.122 4.52569 -3.01135 0
M  V30 6380 H 580.924 2.17012 -1.98199 0
M  V30 6381 H 578.438 1.12898 -1.16738 0
M  V30 6382 H 580.435 4.13896 -0.499571 0
M  V30 6383 H 579.095 3.2369 0.255863 0
M  V30 6384 H 580.106 3.92716 -3.37631 0
M  V30 6385 H 576.783 4.09739 -0.801267 0
M  V30 6386 H 578.173 4.70465 -4.79701 0
M  V30 6387 N 580.893 1.08022 1.14757 0
M  V30 6388 C 582.142 0.802468 1.8505 0
M  V30 6389 C 582.455 -0.674061 1.83619 0
M  V30 6390 O 583.661 -1.06683 2.49662 0
M  V30 6391 C 582.117 1.38551 3.32162 0
M  V30 6392 C 581.725 2.89354 3.42021 0
M  V30 6393 C 583.469 1.18608 4.07594 0
M  V30 6394 C 581.376 3.40815 4.83321 0
M  V30 6395 H 580.306 0.296518 0.693248 0
M  V30 6396 H 582.957 1.30114 1.29393 0
M  V30 6397 H 581.339 0.814556 3.87532 0
M  V30 6398 H 582.513 3.52552 2.96722 0
M  V30 6399 H 580.828 3.08165 2.80041 0
M  V30 6400 H 583.425 1.54525 5.11885 0
M  V30 6401 H 583.768 0.125599 4.1611 0
M  V30 6402 H 584.301 1.72375 3.58513 0
M  V30 6403 H 581.04 4.46418 4.79991 0
M  V30 6404 H 580.56 2.82374 5.29174 0
M  V30 6405 H 582.239 3.37171 5.522 0
M  V30 6406 N 582.371 -1.3172 0.865308 0
M  V30 6407 C 583.301 -2.31109 0.333302 0
M  V30 6408 C 584.282 -1.60148 -0.573301 0
M  V30 6409 O 585.467 -1.87882 -0.491305 0
M  V30 6410 C 582.597 -3.44104 -0.470078 0
M  V30 6411 C 581.551 -4.26623 0.343021 0
M  V30 6412 C 580.877 -5.31482 -0.585756 0
M  V30 6413 C 582.177 -4.98001 1.57456 0
M  V30 6414 H 583.871 -2.75855 1.1638 0
M  V30 6415 H 581.417 -1.3262 0.561069 0
M  V30 6416 H 583.37 -4.12682 -0.852752 0
M  V30 6417 H 582.094 -2.98112 -1.33404 0
M  V30 6418 H 580.753 -3.59707 0.707583 0
M  V30 6419 H 580.401 -4.81741 -1.44686 0
M  V30 6420 H 580.101 -5.87582 -0.0456494 0
M  V30 6421 H 581.625 -6.0292 -0.965375 0
M  V30 6422 H 583.039 -5.59201 1.26359 0
M  V30 6423 H 581.436 -5.63876 2.05339 0
M  V30 6424 H 582.506 -4.25253 2.32997 0
M  V30 6425 N 583.85 -0.624285 -1.44708 0
M  V30 6426 C 584.798 0.0969952 -2.32398 0
M  V30 6427 C 585.792 0.842762 -1.46949 0
M  V30 6428 O 586.998 0.756436 -1.63334 0
M  V30 6429 H 583.373 0.0501306 -0.750327 0
M  V30 6430 H 585.344 -0.660767 -2.90992 0
M  V30 6431 C 584.093 1.06967 -3.30837 0
M  V30 6432 H 583.416 0.505242 -3.96595 0
M  V30 6433 H 584.856 1.54397 -3.94889 0
M  V30 6434 C 583.315 2.15153 -2.5925 0
M  V30 6435 O 583.845 3.23139 -2.3863 0
M  V30 6436 N 582.051 1.90898 -2.19103 0
M  V30 6437 H 581.598 1.03086 -2.36074 0
M  V30 6438 H 581.556 2.63485 -1.71531 0
M  V30 6439 N 585.328 1.53329 -0.364422 0
M  V30 6440 C 586.577 2.00421 0.226747 0
M  V30 6441 C 586.89 1.25581 1.49963 0
M  V30 6442 O 588.096 1.63256 2.16933 0
M  V30 6443 C 586.552 3.57017 0.454618 0
M  V30 6444 C 586.16 4.40734 -0.803568 0
M  V30 6445 C 587.904 4.12468 1.00351 0
M  V30 6446 C 585.811 5.8888 -0.545345 0
M  V30 6447 H 584.741 0.748787 0.0885082 0
M  V30 6448 H 587.392 1.7703 -0.482983 0
M  V30 6449 H 585.774 3.76558 1.22558 0
M  V30 6450 H 586.948 4.32967 -1.57723 0
M  V30 6451 H 585.263 3.96381 -1.27559 0
M  V30 6452 H 587.86 5.20783 1.212 0
M  V30 6453 H 588.203 3.6699 1.9653 0
M  V30 6454 H 588.736 3.96721 0.29274 0
M  V30 6455 H 585.475 6.38633 -1.47743 0
M  V30 6456 H 584.995 5.99499 0.189842 0
M  V30 6457 H 586.674 6.46776 -0.170425 0
M  V30 6458 N 586.806 0.0935595 1.57322 0
M  V30 6459 C 587.756 -0.876521 2.10478 0
M  V30 6460 C 588.74 -1.24482 1.01946 0
M  V30 6461 O 589.932 -1.22016 1.28223 0
M  V30 6462 C 587.061 -2.13615 2.68745 0
M  V30 6463 C 586.147 -1.79335 3.84317 0
M  V30 6464 N 586.538 -1.15606 4.92411 0
M  V30 6465 C 584.836 -2.08954 3.94023 0
M  V30 6466 C 585.537 -0.999036 5.73057 0
M  V30 6467 N 584.513 -1.51585 5.22037 0
M  V30 6468 H 588.315 -0.379829 2.91435 0
M  V30 6469 H 585.829 -0.109699 1.62029 0
M  V30 6470 H 587.826 -2.84053 3.05155 0
M  V30 6471 H 586.486 -2.63851 1.89242 0
M  V30 6472 H 587.497 -0.823063 5.11318 0
M  V30 6473 H 584.174 -2.61416 3.25527 0
M  V30 6474 H 585.564 -0.500772 6.70031 0
M  V30 6475 N 588.284 -1.56567 -0.180126 0
M  V30 6476 C 589.524 -1.83285 -0.904761 0
M  V30 6477 C 589.888 -0.673226 -1.7981 0
M  V30 6478 O 591.089 -0.820645 -2.55967 0
M  V30 6479 C 589.36 -3.15086 -1.68688 0
M  V30 6480 S 590.919 -3.63258 -2.46149 0
M  V30 6481 H 587.737 -0.643114 -0.303193 0
M  V30 6482 H 590.339 -1.94785 -0.167034 0
M  V30 6483 H 589.043 -3.97484 -1.02148 0
M  V30 6484 H 588.574 -3.06504 -2.46615 0
M  V30 6485 H 590.589 -3.29884 -3.70663 0
M  V30 6486 N 589.762 0.448376 -1.51087 0
M  V30 6487 C 591.039 1.20926 -1.53741 0
M  V30 6488 C 591.419 2.09025 -0.295222 0
M  V30 6489 O 590.767 2.16851 0.720283 0
M  V30 6490 C 590.977 2.02067 -2.84552 0
M  V30 6491 C 592.325 2.59486 -3.36084 0
M  V30 6492 O 593.349 2.12289 -2.86028 0
M  V30 6493 O 592.208 3.45539 -4.23397 0
M  V30 6494 H 589.302 0.549951 -0.617643 0
M  V30 6495 H 591.848 0.458344 -1.63393 0
M  V30 6496 H 590.62 1.37291 -3.66425 0
M  V30 6497 H 590.243 2.84246 -2.78011 0
M  V30 6498 N 591.24 1.41047 0.703093 0
M  V30 6499 C 592.48 1.41461 1.4754 0
M  V30 6500 C 592.844 0.0199013 1.9199 0
M  V30 6501 O 594.045 -0.101138 2.6861 0
M  V30 6502 C 592.316 2.38703 2.66 0
M  V30 6503 S 593.875 2.57582 3.55242 0
M  V30 6504 H 590.693 0.501226 0.504275 0
M  V30 6505 H 593.295 1.77422 0.821074 0
M  V30 6506 H 591.999 3.3885 2.31536 0
M  V30 6507 H 591.53 2.04069 3.36333 0
M  V30 6508 H 593.545 1.83758 4.6092 0
M  V30 6509 N 592.718 -0.936591 1.26751 0
M  V30 6510 C 593.666 -2.0573 1.08527 0
M  V30 6511 C 594.66 -1.69397 0.0108784 0
M  V30 6512 O 595.866 -1.79215 0.167915 0
M  V30 6513 H 592.241 -0.673691 0.334133 0
M  V30 6514 H 594.212 -2.1825 2.03493 0
M  V30 6515 C 592.961 -3.39738 0.739845 0
M  V30 6516 H 592.284 -3.68174 1.55845 0
M  V30 6517 H 593.724 -4.18955 0.652149 0
M  V30 6518 C 592.183 -3.32292 -0.555288 0
M  V30 6519 O 592.713 -3.68794 -1.59229 0
M  V30 6520 N 590.919 -2.85394 -0.54762 0
M  V30 6521 H 590.466 -2.55886 0.296667 0
M  V30 6522 H 590.424 -2.80795 -1.41427 0
M  V30 6523 N 594.196 -1.08629 -1.14182 0
M  V30 6524 C 595.445 -0.812271 -1.84621 0
M  V30 6525 C 595.758 0.664313 -1.83973 0
M  V30 6526 O 596.964 1.05357 -2.50224 0
M  V30 6527 C 595.42 -1.4031 -3.31423 0
M  V30 6528 C 595.028 -2.91164 -3.40481 0
M  V30 6529 C 596.772 -1.20767 -4.06959 0
M  V30 6530 C 594.679 -3.43373 -4.81507 0
M  V30 6531 H 593.609 -0.30019 -0.691666 0
M  V30 6532 H 596.26 -1.30798 -1.28701 0
M  V30 6533 H 594.642 -0.835096 -3.87094 0
M  V30 6534 H 595.816 -3.5412 -2.94848 0
M  V30 6535 H 594.131 -3.09646 -2.78403 0
M  V30 6536 H 596.728 -1.57237 -5.11058 0
M  V30 6537 H 597.071 -0.147664 -4.16038 0
M  V30 6538 H 597.604 -1.74274 -3.57594 0
M  V30 6539 H 594.343 -4.48958 -4.77616 0
M  V30 6540 H 593.863 -2.85176 -5.27669 0
M  V30 6541 H 595.542 -3.40095 -5.50404 0
M  V30 6542 N 595.674 1.31259 -0.872281 0
M  V30 6543 C 597.085 1.78822 -0.536617 0
M  V30 6544 C 597.436 1.71855 0.946594 0
M  V30 6545 O 596.561 1.28769 1.73918 0
M  V30 6546 C 597.156 3.24698 -0.967294 0
M  V30 6547 C 595.715 3.70147 -0.683251 0
M  V30 6548 C 594.862 2.51994 -1.15733 0
M  V30 6549 H 597.813 1.18308 -1.05777 0
M  V30 6550 H 597.834 3.79386 -0.290929 0
M  V30 6551 H 597.346 3.29737 -2.04683 0
M  V30 6552 H 595.447 3.70607 0.384825 0
M  V30 6553 H 595.56 4.62183 -1.2619 0
M  V30 6554 H 593.924 2.48078 -0.577024 0
M  V30 6555 H 594.707 2.59778 -2.24434 0
M  V30 6556 N 597.152 0.631951 1.44375 0
M  V30 6557 C 598.563 0.219036 1.85411 0
M  V30 6558 C 598.914 -1.22974 1.52879 0
M  V30 6559 O 598.039 -1.93579 0.967266 0
M  V30 6560 C 598.634 0.39075 3.36539 0
M  V30 6561 C 597.193 0.0323351 3.76386 0
M  V30 6562 C 596.34 0.703744 2.68221 0
M  V30 6563 H 599.291 0.837056 1.3483 0
M  V30 6564 H 599.312 -0.370056 3.78696 0
M  V30 6565 H 598.824 1.44527 3.60185 0
M  V30 6566 H 596.925 -1.02042 3.58355 0
M  V30 6567 H 597.038 0.442969 4.77048 0
M  V30 6568 H 595.402 0.138974 2.54321 0
M  V30 6569 H 596.185 1.76088 2.947 0
M  V30 6570 N 598.631 -1.53133 0.372548 0
M  V30 6571 C 599.877 -2.01654 -0.215277 0
M  V30 6572 C 600.21 -1.25914 -1.47849 0
M  V30 6573 O 599.485 -0.3548 -1.91237 0
M  V30 6574 C 599.768 -3.56609 -0.500187 0
M  V30 6575 C 599.621 -4.43036 0.777145 0
M  V30 6576 C 600.94 -4.20528 -1.29786 0
M  V30 6577 H 598.059 -0.732991 -0.0767686 0
M  V30 6578 H 600.701 -1.83335 0.498814 0
M  V30 6579 H 598.851 -3.7235 -1.10852 0
M  V30 6580 H 600.523 -4.39079 1.41447 0
M  V30 6581 H 598.766 -4.10723 1.39604 0
M  V30 6582 H 599.437 -5.49424 0.532662 0
M  V30 6583 H 601.913 -4.08663 -0.783198 0
M  V30 6584 H 600.789 -5.28962 -1.46596 0
M  V30 6585 H 601.05 -3.77051 -2.30836 0
M  V30 6586 N 600.109 -0.101901 -1.5727 0
M  V30 6587 C 601.039 0.851544 -2.17419 0
M  V30 6588 C 602.02 1.28942 -1.10941 0
M  V30 6589 O 603.205 1.35509 -1.39107 0
M  V30 6590 C 600.335 2.10816 -2.75996 0
M  V30 6591 C 599.289 1.80867 -3.87906 0
M  V30 6592 C 598.615 3.13413 -4.33216 0
M  V30 6593 C 599.915 1.0903 -5.10793 0
M  V30 6594 H 601.609 0.350381 -2.97343 0
M  V30 6595 H 599.155 0.16709 -1.43027 0
M  V30 6596 H 601.108 2.77959 -3.16729 0
M  V30 6597 H 599.832 2.63227 -1.93337 0
M  V30 6598 H 598.491 1.16119 -3.47724 0
M  V30 6599 H 598.139 3.63725 -3.47438 0
M  V30 6600 H 597.839 2.94155 -5.08671 0
M  V30 6601 H 599.363 3.81704 -4.76586 0
M  V30 6602 H 600.777 1.66295 -5.48652 0
M  V30 6603 H 599.174 0.99927 -5.91722 0
M  V30 6604 H 600.244 0.0741704 -4.84843 0
M  V30 6605 N 601.587 1.56661 0.17182 0
M  V30 6606 C 602.817 1.85831 0.902804 0
M  V30 6607 C 603.225 0.685157 1.76358 0
M  V30 6608 O 602.568 -0.354947 1.80238 0
M  V30 6609 C 602.63 3.09406 1.83053 0
M  V30 6610 C 602.294 4.4231 1.1494 0
M  V30 6611 C 603.291 5.17342 0.515104 0
M  V30 6612 C 600.976 4.89045 1.14631 0
M  V30 6613 C 602.97 6.37299 -0.113194 0
M  V30 6614 C 600.657 6.08933 0.514184 0
M  V30 6615 C 601.655 6.82904 -0.114463 0
M  V30 6616 O 601.343 8.00518 -0.736622 0
M  V30 6617 H 601.075 0.620715 0.267748 0
M  V30 6618 H 603.629 2.04637 0.176918 0
M  V30 6619 H 601.859 2.86544 2.59672 0
M  V30 6620 H 603.548 3.25027 2.4313 0
M  V30 6621 H 604.314 4.82317 0.509474 0
M  V30 6622 H 600.193 4.31409 1.62502 0
M  V30 6623 H 603.737 6.94976 -0.604477 0
M  V30 6624 H 599.634 6.43423 0.517395 0
M  V30 6625 H 600.402 8.16027 -0.635822 0
M  V30 6626 N 603.065 -0.440357 1.51323 0
M  V30 6627 C 604.29 -1.21716 1.67928 0
M  V30 6628 C 604.715 -1.84328 0.374826 0
M  V30 6629 O 604.073 -1.68675 -0.664706 0
M  V30 6630 C 604.121 -2.27914 2.79442 0
M  V30 6631 O 603.225 -3.33325 2.42834 0
M  V30 6632 H 602.566 -0.35674 0.560029 0
M  V30 6633 H 605.096 -0.520417 1.97871 0
M  V30 6634 H 605.106 -2.72746 3.03436 0
M  V30 6635 H 603.781 -1.8172 3.741 0
M  V30 6636 H 602.358 -2.9399 2.294 0
M  V30 6637 N 604.543 -1.41418 -0.695603 0
M  V30 6638 C 605.506 -1.42988 -1.79129 0
M  V30 6639 C 606.506 -0.320514 -1.57573 0
M  V30 6640 O 607.696 -0.58039 -1.64247 0
M  V30 6641 C 604.828 -1.24122 -3.175 0
M  V30 6642 H 606.021 -2.40526 -1.7913 0
M  V30 6643 H 603.574 -1.2756 -0.903225 0
M  V30 6644 H 604.309 -0.274253 -3.23138 0
M  V30 6645 H 604.094 -2.045 -3.34547 0
M  V30 6646 H 605.584 -1.28056 -3.97481 0
M  V30 6647 N 606.021 0.929856 -1.27246 0
M  V30 6648 C 607.268 1.67731 -1.13457 0
M  V30 6649 C 607.596 1.9185 0.319998 0
M  V30 6650 O 606.851 1.50524 1.25064 0
M  V30 6651 C 607.15 3.05116 -1.86115 0
M  V30 6652 C 606.816 3.00715 -3.35978 0
M  V30 6653 C 605.478 2.99222 -3.76855 0
M  V30 6654 C 607.83 2.92168 -4.3161 0
M  V30 6655 C 605.158 2.86962 -5.11732 0
M  V30 6656 C 607.51 2.81449 -5.66542 0
M  V30 6657 C 606.174 2.78305 -6.06715 0
M  V30 6658 H 605.444 0.613772 -0.415168 0
M  V30 6659 H 608.091 1.08456 -1.57827 0
M  V30 6660 H 606.396 3.68083 -1.34246 0
M  V30 6661 H 608.093 3.61822 -1.72876 0
M  V30 6662 H 604.683 3.02664 -3.03468 0
M  V30 6663 H 608.867 2.92421 -4.01003 0
M  V30 6664 H 604.123 2.82913 -5.42006 0
M  V30 6665 H 608.297 2.738 -6.40317 0
M  V30 6666 H 605.924 2.68561 -7.11181 0
M  V30 6667 N 607.499 1.09233 1.13605 0
M  V30 6668 C 608.727 0.848908 1.88683 0
M  V30 6669 C 609.142 -0.599667 1.79024 0
M  V30 6670 O 608.499 -1.41265 1.15544 0
M  V30 6671 C 608.55 1.27273 3.38355 0
M  V30 6672 O 608.271 2.66449 3.47759 0
M  V30 6673 C 609.772 1.0614 4.30406 0
M  V30 6674 H 606.992 0.305549 0.597395 0
M  V30 6675 H 609.536 1.4538 1.43823 0
M  V30 6676 H 607.691 0.711776 3.80805 0
M  V30 6677 H 608.105 2.84264 4.40788 0
M  V30 6678 H 609.579 1.40725 5.33761 0
M  V30 6679 H 610.056 -0.000960332 4.392 0
M  V30 6680 H 610.662 1.60821 3.93722 0
M  V30 6681 N 608.977 -1.30795 0.87923 0
M  V30 6682 C 610.223 -1.97035 0.50487 0
M  V30 6683 C 610.578 -1.68182 -0.934484 0
M  V30 6684 O 609.871 -0.972953 -1.65058 0
M  V30 6685 C 610.065 -3.50287 0.709476 0
M  V30 6686 C 609.894 -3.94035 2.16717 0
M  V30 6687 C 608.664 -4.1992 2.81061 0
M  V30 6688 C 610.862 -4.07288 3.1404 0
M  V30 6689 N 608.844 -4.50088 4.17486 0
M  V30 6690 C 610.215 -4.41273 4.35521 0
M  V30 6691 C 612.27 -3.89696 3.09906 0
M  V30 6692 C 610.973 -4.59501 5.534 0
M  V30 6693 C 612.999 -4.09122 4.27052 0
M  V30 6694 C 612.361 -4.43447 5.47297 0
M  V30 6695 H 608.46 -0.746181 0.233962 0
M  V30 6696 H 611.044 -1.5814 1.13577 0
M  V30 6697 H 609.215 -3.8825 0.108108 0
M  V30 6698 H 610.947 -4.03567 0.302585 0
M  V30 6699 H 607.702 -4.12906 2.3196 0
M  V30 6700 H 608.126 -4.69316 4.87926 0
M  V30 6701 H 612.768 -3.62239 2.18043 0
M  V30 6702 H 610.486 -4.85802 6.45773 0
M  V30 6703 H 614.072 -3.96985 4.25316 0
M  V30 6704 H 612.952 -4.58171 6.36435 0
M  V30 6705 N 610.455 -0.639598 -1.44038 0
M  V30 6706 C 611.385 0.0469443 -2.33453 0
M  V30 6707 C 612.366 0.82609 -1.48694 0
M  V30 6708 O 613.551 0.790285 -1.77393 0
M  V30 6709 C 610.681 1.02338 -3.3188 0
M  V30 6710 C 609.635 0.355284 -4.26523 0
M  V30 6711 C 608.961 1.44221 -5.14883 0
M  V30 6712 C 610.261 -0.743798 -5.16977 0
M  V30 6713 H 611.955 -0.699735 -2.91108 0
M  V30 6714 H 609.501 -0.337946 -1.39978 0
M  V30 6715 H 611.454 1.51247 -3.93322 0
M  V30 6716 H 610.178 1.80105 -2.72451 0
M  V30 6717 H 608.837 -0.113239 -3.66425 0
M  V30 6718 H 608.485 2.21097 -4.51802 0
M  V30 6719 H 608.185 1.00052 -5.79019 0
M  V30 6720 H 609.709 1.93295 -5.79197 0
M  V30 6721 H 611.123 -0.337444 -5.72306 0
M  V30 6722 H 609.52 -1.10914 -5.89761 0
M  V30 6723 H 610.59 -1.60745 -4.57481 0
M  V30 6724 N 611.933 1.52934 -0.380664 0
M  V30 6725 C 613.181 2.01069 0.203874 0
M  V30 6726 C 613.502 1.26922 1.4804 0
M  V30 6727 O 612.772 0.386787 1.92044 0
M  V30 6728 H 611.352 0.742882 0.0783279 0
M  V30 6729 H 614.014 1.88099 -0.510368 0
M  V30 6730 H 613.11 3.09258 0.42021 0
M  V30 6731 N 613.412 0.11024 1.57214 0
M  V30 6732 C 614.642 -0.557025 1.98949 0
M  V30 6733 C 615.05 -1.61317 0.988606 0
M  V30 6734 O 614.393 -1.83679 -0.0279159 0
M  V30 6735 C 614.455 -1.24956 3.37085 0
M  V30 6736 C 614.119 -0.342398 4.55716 0
M  V30 6737 C 615.116 0.415511 5.18237 0
M  V30 6738 C 612.801 -0.256029 5.01647 0
M  V30 6739 C 614.795 1.24761 6.25071 0
M  V30 6740 C 612.482 0.579713 6.08344 0
M  V30 6741 C 613.48 1.33017 6.69922 0
M  V30 6742 O 613.168 2.15205 7.74559 0
M  V30 6743 H 612.9 -0.152792 0.658506 0
M  V30 6744 H 615.454 0.19076 2.04512 0
M  V30 6745 H 613.684 -2.04424 3.2825 0
M  V30 6746 H 615.373 -1.81286 3.63167 0
M  V30 6747 H 616.139 0.358605 4.83672 0
M  V30 6748 H 612.018 -0.829831 4.5347 0
M  V30 6749 H 615.562 1.83386 6.73064 0
M  V30 6750 H 611.459 0.638044 6.42339 0
M  V30 6751 H 612.227 2.08052 7.91617 0
M  V30 6752 N 614.89 -1.56749 -0.16351 0
M  V30 6753 C 616.136 -1.82704 -0.880168 0
M  V30 6754 C 616.469 -0.689311 -1.81555 0
M  V30 6755 O 615.744 0.308224 -1.92042 0
M  V30 6756 C 616.027 -3.19084 -1.66905 0
M  V30 6757 C 615.88 -4.43397 -0.756269 0
M  V30 6758 C 617.199 -3.52493 -2.63509 0
M  V30 6759 H 614.318 -0.664608 -0.318535 0
M  V30 6760 H 616.96 -1.89438 -0.146036 0
M  V30 6761 H 615.11 -3.13475 -2.2949 0
M  V30 6762 H 616.782 -4.61079 -0.14269 0
M  V30 6763 H 615.025 -4.33752 -0.0647944 0
M  V30 6764 H 615.696 -5.3539 -1.34393 0
M  V30 6765 H 618.172 -3.58606 -2.11047 0
M  V30 6766 H 617.048 -4.48979 -3.15767 0
M  V30 6767 H 617.309 -2.77597 -3.44082 0
M  V30 6768 N 616.368 0.432326 -1.51554 0
M  V30 6769 C 617.316 1.54572 -1.73811 0
M  V30 6770 C 618.31 1.58246 -0.604539 0
M  V30 6771 O 619.516 1.6193 -0.786041 0
M  V30 6772 H 615.891 0.513626 -0.549265 0
M  V30 6773 H 617.862 1.32977 -2.67132 0
M  V30 6774 C 616.611 2.92181 -1.88483 0
M  V30 6775 H 615.934 2.90088 -2.75116 0
M  V30 6776 H 617.374 3.69439 -2.08065 0
M  V30 6777 C 615.833 3.3065 -0.645909 0
M  V30 6778 O 616.363 4.01216 0.197093 0
M  V30 6779 N 614.569 2.86464 -0.488538 0
M  V30 6780 H 614.116 2.29209 -1.17562 0
M  V30 6781 H 614.074 3.12565 0.339156 0
M  V30 6782 N 617.846 1.41785 0.688094 0
M  V30 6783 C 619.071 1.45117 1.48175 0
M  V30 6784 C 619.496 0.060129 1.88004 0
M  V30 6785 O 618.854 -0.938385 1.55126 0
M  V30 6786 C 618.902 2.37224 2.71583 0
M  V30 6787 O 618.006 1.83443 3.69354 0
M  V30 6788 H 617.347 0.492208 0.445676 0
M  V30 6789 H 619.877 1.86329 0.845145 0
M  V30 6790 H 619.887 2.53353 3.19806 0
M  V30 6791 H 618.562 3.38293 2.41931 0
M  V30 6792 H 617.139 1.76802 3.28322 0
M  V30 6793 N 619.324 -0.923095 1.27737 0
M  V30 6794 C 620.287 -2.00587 1.10894 0
M  V30 6795 C 621.287 -1.60718 0.0514927 0
M  V30 6796 O 622.477 -1.71658 0.296481 0
M  V30 6797 C 619.609 -3.33829 0.690717 0
M  V30 6798 H 620.802 -2.16959 2.07048 0
M  V30 6799 H 618.355 -1.10451 1.1059 0
M  V30 6800 H 619.09 -3.23157 -0.272 0
M  V30 6801 H 618.875 -3.64125 1.45448 0
M  V30 6802 H 620.365 -4.13336 0.595252 0
M  V30 6803 N 620.802 -1.09834 -1.13024 0
M  V30 6804 C 622.048 -0.83819 -1.84668 0
M  V30 6805 C 622.381 0.634645 -1.83537 0
M  V30 6806 O 621.656 1.46753 -1.27647 0
M  V30 6807 C 621.939 -1.37933 -3.32636 0
M  V30 6808 C 621.792 -2.91857 -3.42257 0
M  V30 6809 C 623.111 -1.01654 -4.28199 0
M  V30 6810 H 620.23 -0.30595 -0.670495 0
M  V30 6811 H 622.872 -1.36044 -1.32635 0
M  V30 6812 H 621.022 -0.935111 -3.77078 0
M  V30 6813 H 622.694 -3.44759 -3.06495 0
M  V30 6814 H 620.937 -3.28776 -2.83 0
M  V30 6815 H 621.608 -3.24799 -4.46329 0
M  V30 6816 H 624.084 -1.39973 -3.9185 0
M  V30 6817 H 622.96 -1.42217 -5.30156 0
M  V30 6818 H 623.221 0.0747794 -4.42037 0
M  V30 6819 N 622.28 1.30327 -0.886154 0
M  V30 6820 C 623.228 2.30052 -0.343317 0
M  V30 6821 C 624.222 1.60212 0.550305 0
M  V30 6822 O 625.428 1.74674 0.434609 0
M  V30 6823 H 621.803 0.746306 -0.0923681 0
M  V30 6824 H 623.774 2.73294 -1.19804 0
M  V30 6825 C 622.523 3.45079 0.426107 0
M  V30 6826 H 621.846 3.99003 -0.25227 0
M  V30 6827 H 623.286 4.16931 0.771009 0
M  V30 6828 C 621.745 2.95195 1.62363 0
M  V30 6829 O 622.275 2.95323 2.723 0
M  V30 6830 N 620.481 2.51192 1.4612 0
M  V30 6831 H 620.028 2.51286 0.566832 0
M  V30 6832 H 619.986 2.18173 2.2638 0
M  V30 6833 N 623.758 0.647228 1.43697 0
M  V30 6834 C 625.169 0.238689 1.85168 0
M  V30 6835 C 625.52 -1.21345 1.54175 0
M  V30 6836 O 624.645 -1.92542 0.987743 0
M  V30 6837 C 625.24 0.426422 3.36106 0
M  V30 6838 C 623.799 0.0722541 3.76331 0
M  V30 6839 C 622.946 0.732153 2.6746 0
M  V30 6840 H 625.897 0.851309 1.33934 0
M  V30 6841 H 625.918 -0.32987 3.79067 0
M  V30 6842 H 625.43 1.48339 3.58632 0
M  V30 6843 H 623.531 -0.982355 3.59417 0
M  V30 6844 H 623.644 0.493541 4.76551 0
M  V30 6845 H 622.008 0.16594 2.54159 0
M  V30 6846 H 622.791 1.79204 2.92816 0
M  V30 6847 N 625.236 -1.5273 0.388769 0
M  V30 6848 C 626.485 -2.00757 -0.194833 0
M  V30 6849 C 626.798 -1.27951 -1.47946 0
M  V30 6850 O 628.004 -1.66686 -2.14308 0
M  V30 6851 C 626.46 -3.57695 -0.397762 0
M  V30 6852 C 626.068 -4.394 0.873583 0
M  V30 6853 C 627.812 -4.14012 -0.937759 0
M  V30 6854 C 625.719 -5.87938 0.638962 0
M  V30 6855 H 624.649 -0.750101 -0.0765845 0
M  V30 6856 H 627.3 -1.76239 0.511086 0
M  V30 6857 H 625.682 -3.7846 -1.16552 0
M  V30 6858 H 626.856 -4.30403 1.64591 0
M  V30 6859 H 625.171 -3.94301 1.33849 0
M  V30 6860 H 627.768 -5.22645 -1.12899 0
M  V30 6861 H 628.111 -3.7007 -1.90666 0
M  V30 6862 H 628.644 -3.97137 -0.229588 0
M  V30 6863 H 625.383 -6.36202 1.57885 0
M  V30 6864 H 624.903 -5.99726 -0.094443 0
M  V30 6865 H 626.582 -6.46423 0.273299 0
M  V30 6866 N 626.714 -0.118576 -1.57153 0
M  V30 6867 C 627.963 0.539339 -1.94355 0
M  V30 6868 C 628.276 1.67858 -1.00415 0
M  V30 6869 O 629.482 2.39922 -1.27081 0
M  V30 6870 C 627.938 1.01082 -3.45414 0
M  V30 6871 C 627.546 -0.0999402 -4.47889 0
M  V30 6872 C 629.29 1.64013 -3.91535 0
M  V30 6873 C 627.197 0.388212 -5.90124 0
M  V30 6874 H 626.127 0.205247 -0.725527 0
M  V30 6875 H 628.778 -0.19836 -1.82425 0
M  V30 6876 H 627.16 1.80292 -3.52577 0
M  V30 6877 H 628.334 -0.876189 -4.52393 0
M  V30 6878 H 626.649 -0.635885 -4.11516 0
M  V30 6879 H 629.246 2.01649 -4.95219 0
M  V30 6880 H 629.589 2.51836 -3.31488 0
M  V30 6881 H 630.122 0.913439 -3.87171 0
M  V30 6882 H 626.861 -0.453963 -6.53926 0
M  V30 6883 H 626.381 1.13095 -5.89041 0
M  V30 6884 H 628.06 0.849574 -6.41398 0
M  V30 6885 N 628.193 1.56834 0.155195 0
M  V30 6886 C 629.423 1.86778 0.883044 0
M  V30 6887 C 629.831 0.703824 1.75622 0
M  V30 6888 O 629.174 -0.33581 1.80605 0
M  V30 6889 C 629.236 3.1133 1.79761 0
M  V30 6890 C 628.9 4.43504 1.10242 0
M  V30 6891 C 629.897 5.17859 0.460204 0
M  V30 6892 C 627.582 4.90233 1.09437 0
M  V30 6893 C 629.576 6.37144 -0.180782 0
M  V30 6894 C 627.263 6.09444 0.449569 0
M  V30 6895 C 628.261 6.82744 -0.186888 0
M  V30 6896 O 627.949 7.99692 -0.821486 0
M  V30 6897 H 627.681 0.62352 0.261149 0
M  V30 6898 H 630.235 2.04813 0.155204 0
M  V30 6899 H 628.465 2.89282 2.56618 0
M  V30 6900 H 630.154 3.27587 2.39669 0
M  V30 6901 H 630.92 4.8283 0.458289 0
M  V30 6902 H 626.799 4.33109 1.57917 0
M  V30 6903 H 630.343 6.94296 -0.678154 0
M  V30 6904 H 626.24 6.43936 0.449123 0
M  V30 6905 H 627.008 8.15306 -0.722337 0
M  V30 6906 N 629.671 -0.424282 1.51781 0
M  V30 6907 C 630.899 -1.1947 1.68921 0
M  V30 6908 C 631.314 -1.84683 0.39213 0
M  V30 6909 O 630.671 -1.71261 -0.630554 0
M  V30 6910 C 630.722 -2.26909 2.81416 0
M  V30 6911 O 630.443 -1.64361 4.061 0
M  V30 6912 C 631.944 -3.16945 3.09937 0
M  V30 6913 H 629.164 -0.359591 0.566511 0
M  V30 6914 H 631.708 -0.501139 1.98265 0
M  V30 6915 H 629.863 -2.91959 2.54635 0
M  V30 6916 H 630.277 -2.35468 4.68674 0
M  V30 6917 H 631.751 -3.88437 3.922 0
M  V30 6918 H 632.228 -3.78451 2.22871 0
M  V30 6919 H 632.834 -2.57581 3.38426 0
M  V30 6920 N 631.149 -1.42148 -0.680565 0
M  V30 6921 C 632.377 -1.45696 -1.46902 0
M  V30 6922 C 632.792 -0.0665858 -1.88683 0
M  V30 6923 O 632.149 0.917436 -1.57764 0
M  V30 6924 C 632.2 -2.37898 -2.72188 0
M  V30 6925 O 631.921 -3.71526 -2.32163 0
M  V30 6926 C 633.422 -2.50407 -3.65802 0
M  V30 6927 H 630.642 -0.495729 -0.45221 0
M  V30 6928 H 633.186 -1.866 -0.836709 0
M  V30 6929 H 631.341 -2.00263 -3.31622 0
M  V30 6930 H 631.755 -4.20849 -3.13027 0
M  V30 6931 H 633.229 -3.19056 -4.50452 0
M  V30 6932 H 633.706 -1.5401 -4.11312 0
M  V30 6933 H 634.312 -2.8874 -3.12265 0
M  V30 6934 N 632.627 0.916307 -1.28225 0
M  V30 6935 C 633.874 1.66518 -1.1523 0
M  V30 6936 C 634.202 1.92178 0.299632 0
M  V30 6937 O 633.457 1.51842 1.2346 0
M  V30 6938 C 633.756 3.03125 -1.8934 0
M  V30 6939 C 633.422 2.97135 -3.39148 0
M  V30 6940 C 632.084 2.95208 -3.80007 0
M  V30 6941 C 634.436 2.87574 -4.34685 0
M  V30 6942 C 631.764 2.81518 -5.14747 0
M  V30 6943 C 634.116 2.75424 -5.69495 0
M  V30 6944 C 632.78 2.71854 -6.09632 0
M  V30 6945 H 632.05 0.609334 -0.421655 0
M  V30 6946 H 634.697 1.06776 -1.58969 0
M  V30 6947 H 633.002 3.66639 -1.38143 0
M  V30 6948 H 634.699 3.59968 -1.76704 0
M  V30 6949 H 631.289 2.99428 -3.06661 0
M  V30 6950 H 635.473 2.88152 -4.04082 0
M  V30 6951 H 630.729 2.77148 -5.44976 0
M  V30 6952 H 634.903 2.66993 -6.43185 0
M  V30 6953 H 632.53 2.61003 -7.1399 0
M  V30 6954 N 634.105 1.10431 1.1244 0
M  V30 6955 C 635.053 0.747974 2.20246 0
M  V30 6956 C 636.047 -0.255848 1.67457 0
M  V30 6957 O 637.253 -0.116221 1.79624 0
M  V30 6958 H 633.628 0.223946 0.71788 0
M  V30 6959 H 635.599 1.6661 2.47556 0
M  V30 6960 C 634.348 0.195957 3.47147 0
M  V30 6961 H 633.671 0.959606 3.88113 0
M  V30 6962 H 635.111 -0.0153154 4.23997 0
M  V30 6963 C 633.57 -1.07132 3.19413 0
M  V30 6964 O 634.1 -2.15284 3.3914 0
M  V30 6965 N 632.306 -0.98994 2.73219 0
M  V30 6966 H 631.853 -0.109736 2.57366 0
M  V30 6967 H 631.811 -1.83856 2.55038 0
M  V30 6968 N 635.583 -1.29855 0.893053 0
M  V30 6969 C 636.832 -1.95104 0.511597 0
M  V30 6970 C 637.145 -1.71226 -0.945567 0
M  V30 6971 O 638.351 -2.30525 -1.43424 0
M  V30 6972 C 636.807 -3.49374 0.864034 0
M  V30 6973 C 636.415 -3.82061 2.33952 0
M  V30 6974 C 638.159 -4.20894 0.552167 0
M  V30 6975 C 636.066 -5.29546 2.63316 0
M  V30 6976 H 634.996 -0.73029 0.187597 0
M  V30 6977 H 637.647 -1.47682 1.08914 0
M  V30 6978 H 636.029 -3.95413 0.215493 0
M  V30 6979 H 637.203 -3.46904 3.03305 0
M  V30 6980 H 635.518 -3.23665 2.61973 0
M  V30 6981 H 638.115 -5.29435 0.748489 0
M  V30 6982 H 638.458 -4.13178 -0.508924 0
M  V30 6983 H 638.991 -3.80564 1.15825 0
M  V30 6984 H 635.73 -5.4232 3.68197 0
M  V30 6985 H 635.25 -5.65974 1.9858 0
M  V30 6986 H 636.929 -5.97068 2.49236 0
M  V30 6987 N 637.061 -0.65484 -1.43351 0
M  V30 6988 C 637.971 0.0363603 -2.34572 0
M  V30 6989 C 638.987 0.810432 -1.53974 0
M  V30 6990 O 640.163 0.757308 -1.86619 0
M  V30 6991 C 637.228 0.989733 -3.32273 0
M  V30 6992 C 636.289 0.212414 -4.28774 0
M  V30 6993 C 635.522 1.12038 -5.21808 0
M  V30 6994 O 635.745 2.35967 -5.19303 0
M  V30 6995 O 634.679 0.59191 -5.98982 0
M  V30 6996 H 638.505 -0.714527 -2.95175 0
M  V30 6997 H 636.09 -0.415029 -1.4352 0
M  V30 6998 H 637.972 1.53759 -3.92347 0
M  V30 6999 H 636.647 1.72082 -2.74171 0
M  V30 7000 H 635.554 -0.379062 -3.72175 0
M  V30 7001 H 636.887 -0.479138 -4.89862 0
M  V30 7002 N 638.539 1.52521 -0.396863 0
M  V30 7003 C 639.786 2.01672 0.182898 0
M  V30 7004 C 640.114 1.28302 1.46181 0
M  V30 7005 O 639.369 0.374118 1.92091 0
M  V30 7006 C 639.668 3.5403 0.489677 0
M  V30 7007 C 639.334 4.45456 -0.698581 0
M  V30 7008 C 637.996 4.70166 -1.02454 0
M  V30 7009 C 640.348 4.99354 -1.49316 0
M  V30 7010 C 637.676 5.46024 -2.1465 0
M  V30 7011 C 640.028 5.76439 -2.60579 0
M  V30 7012 C 638.692 5.99426 -2.93675 0
M  V30 7013 H 637.962 0.737971 0.066927 0
M  V30 7014 H 640.609 1.83853 -0.535764 0
M  V30 7015 H 638.914 3.69963 1.28976 0
M  V30 7016 H 640.611 3.8956 0.951018 0
M  V30 7017 H 637.201 4.26392 -0.434525 0
M  V30 7018 H 641.385 4.80182 -1.25457 0
M  V30 7019 H 636.641 5.62046 -2.40654 0
M  V30 7020 H 640.815 6.17202 -3.22544 0
M  V30 7021 H 638.442 6.57988 -3.80731 0
M  V30 7022 N 640.017 0.126909 1.57088 0
M  V30 7023 C 641.433 -0.229641 1.57939 0
M  V30 7024 C 641.633 -1.66145 1.1401 0
M  V30 7025 O 640.689 -2.3843 0.831119 0
M  V30 7026 C 642.002 0.0108648 3.00698 0
M  V30 7027 C 643.55 -0.054418 3.12953 0
M  V30 7028 C 644.025 0.158497 4.57726 0
M  V30 7029 N 645.516 0.104735 4.63082 0
M  V30 7030 C 646.251 0.24427 5.72879 0
M  V30 7031 N 645.747 0.440415 6.91399 0
M  V30 7032 N 647.54 0.183286 5.61801 0
M  V30 7033 H 639.691 1.06203 1.83942 0
M  V30 7034 H 641.954 0.418834 0.85046 0
M  V30 7035 H 641.66 1.00102 3.37154 0
M  V30 7036 H 641.534 -0.717512 3.70313 0
M  V30 7037 H 643.921 -1.0351 2.7635 0
M  V30 7038 H 644.002 0.705967 2.45865 0
M  V30 7039 H 643.646 1.13619 4.95028 0
M  V30 7040 H 643.576 -0.62197 5.22914 0
M  V30 7041 H 646.067 -0.0430298 3.77876 0
M  V30 7042 H 646.38 0.537536 7.70928 0
M  V30 7043 H 644.725 0.476488 6.93365 0
M  V30 7044 H 647.916 0.0309561 4.6809 0
M  V30 7045 H 648.089 0.295471 6.47326 0
M  V30 7046 N 641.495 -1.56914 -0.146875 0
M  V30 7047 C 642.442 -1.98275 -1.18134 0
M  V30 7048 C 643.412 -0.850367 -1.42681 0
M  V30 7049 O 644.597 -1.11244 -1.55014 0
M  V30 7050 C 641.737 -2.36861 -2.5098 0
M  V30 7051 C 640.85 -3.63391 -2.33605 0
M  V30 7052 C 639.985 -3.91079 -3.59486 0
M  V30 7053 C 639.024 -5.10879 -3.37149 0
M  V30 7054 N 638.161 -5.34577 -4.55161 0
M  V30 7055 H 643.001 -2.8645 -0.821622 0
M  V30 7056 H 640.538 -1.41718 -0.394248 0
M  V30 7057 H 642.496 -2.57262 -3.28439 0
M  V30 7058 H 641.126 -1.51766 -2.84898 0
M  V30 7059 H 640.178 -3.50766 -1.47199 0
M  V30 7060 H 641.49 -4.51007 -2.13059 0
M  V30 7061 H 640.644 -4.11979 -4.45374 0
M  V30 7062 H 639.383 -3.01885 -3.83036 0
M  V30 7063 H 638.388 -4.89853 -2.49649 0
M  V30 7064 H 639.613 -6.01626 -3.14997 0
M  V30 7065 H 637.559 -4.48337 -4.78884 0
M  V30 7066 H 637.476 -6.16463 -4.37618 0
M  V30 7067 H 638.744 -5.59975 -5.42263 0
M  V30 7068 N 642.974 0.416227 -1.52004 0
M  V30 7069 C 643.937 1.48926 -1.74223 0
M  V30 7070 C 644.937 1.48693 -0.612119 0
M  V30 7071 O 646.127 1.50343 -0.879921 0
M  V30 7072 C 643.259 2.88372 -1.81809 0
M  V30 7073 H 644.452 1.3052 -2.70008 0
M  V30 7074 H 642.005 0.646271 -1.42313 0
M  V30 7075 H 642.74 3.12157 -0.879135 0
M  V30 7076 H 642.525 2.89944 -2.6396 0
M  V30 7077 H 644.015 3.66173 -2.00766 0
M  V30 7078 N 644.452 1.42507 0.673017 0
M  V30 7079 C 645.699 1.43072 1.43306 0
M  V30 7080 C 646.027 0.0478004 1.94441 0
M  V30 7081 O 645.282 -0.944106 1.71421 0
M  V30 7082 C 645.581 2.40351 2.64511 0
M  V30 7083 C 645.247 3.8669 2.31908 0
M  V30 7084 C 643.909 4.26551 2.22728 0
M  V30 7085 C 646.261 4.78991 2.05467 0
M  V30 7086 C 643.589 5.56691 1.85234 0
M  V30 7087 C 645.941 6.09476 1.69477 0
M  V30 7088 C 644.605 6.48334 1.58808 0
M  V30 7089 H 643.875 0.523536 0.524395 0
M  V30 7090 H 646.522 1.75459 0.76723 0
M  V30 7091 H 644.827 2.01297 3.36135 0
M  V30 7092 H 646.524 2.38051 3.22696 0
M  V30 7093 H 643.114 3.55132 2.39956 0
M  V30 7094 H 647.298 4.48982 2.11492 0
M  V30 7095 H 642.554 5.85657 1.75545 0
M  V30 7096 H 646.728 6.80482 1.48043 0
M  V30 7097 H 644.355 7.49084 1.29525 0
M  V30 7098 N 645.93 -0.909495 1.28709 0
M  V30 7099 C 646.86 -2.0291 1.15542 0
M  V30 7100 C 647.841 -1.7002 0.0521017 0
M  V30 7101 O 649.026 -1.92835 0.229849 0
M  V30 7102 C 646.156 -3.37458 0.820935 0
M  V30 7103 C 645.11 -3.84524 1.87949 0
M  V30 7104 C 644.436 -5.16086 1.39854 0
M  V30 7105 C 645.736 -4.05918 3.28676 0
M  V30 7106 H 647.43 -2.14183 2.09203 0
M  V30 7107 H 644.976 -1.02913 1.00722 0
M  V30 7108 H 646.929 -4.1528 0.715571 0
M  V30 7109 H 645.653 -3.26249 -0.151374 0
M  V30 7110 H 644.312 -3.08911 1.97408 0
M  V30 7111 H 643.96 -5.01284 0.41518 0
M  V30 7112 H 643.66 -5.48547 2.1064 0
M  V30 7113 H 645.184 -5.96459 1.30649 0
M  V30 7114 H 646.598 -4.74252 3.22115 0
M  V30 7115 H 644.995 -4.49717 3.97334 0
M  V30 7116 H 646.065 -3.10583 3.72379 0
M  V30 7117 N 647.408 -1.11026 -1.11852 0
M  V30 7118 C 648.355 -0.764662 -2.17765 0
M  V30 7119 C 649.325 0.261854 -1.64023 0
M  V30 7120 O 650.51 0.139748 -1.90288 0
M  V30 7121 C 647.65 -0.209317 -3.44465 0
M  V30 7122 C 646.763 -1.29187 -4.12231 0
M  V30 7123 C 645.898 -0.697523 -5.266 0
M  V30 7124 C 644.937 -1.76023 -5.86244 0
M  V30 7125 N 644.074 -1.18569 -6.92016 0
M  V30 7126 H 648.914 -1.67202 -2.46673 0
M  V30 7127 H 646.451 -0.835065 -1.21099 0
M  V30 7128 H 648.409 0.130599 -4.16996 0
M  V30 7129 H 647.039 0.661251 -3.15955 0
M  V30 7130 H 646.091 -1.74881 -3.37818 0
M  V30 7131 H 647.403 -2.09607 -4.52622 0
M  V30 7132 H 646.557 -0.307412 -6.05921 0
M  V30 7133 H 645.296 0.138044 -4.87505 0
M  V30 7134 H 644.301 -2.1597 -5.05606 0
M  V30 7135 H 645.526 -2.59875 -6.27409 0
M  V30 7136 H 643.472 -0.371695 -6.54946 0
M  V30 7137 H 643.389 -1.92666 -7.31038 0
M  V30 7138 H 644.657 -0.82233 -7.7515 0
M  V30 7139 N 648.886 1.2938 -0.899927 0
M  V30 7140 C 650.135 1.9483 -0.521937 0
M  V30 7141 C 650.448 1.71725 0.936473 0
M  V30 7142 O 651.654 2.31282 1.42199 0
M  V30 7143 C 650.11 3.48911 -0.88255 0
M  V30 7144 C 649.718 3.80815 -2.35974 0
M  V30 7145 C 651.462 4.20595 -0.57448 0
M  V30 7146 C 649.369 5.28142 -2.66121 0
M  V30 7147 H 648.299 0.729285 -0.191468 0
M  V30 7148 H 650.95 1.47103 -1.09695 0
M  V30 7149 H 649.332 3.95293 -0.236459 0
M  V30 7150 H 650.506 3.45291 -3.05141 0
M  V30 7151 H 648.821 3.22271 -2.63686 0
M  V30 7152 H 651.418 5.29031 -0.776556 0
M  V30 7153 H 651.761 4.13442 0.487005 0
M  V30 7154 H 652.294 3.79945 -1.17842 0
M  V30 7155 H 649.033 5.4036 -3.71068 0
M  V30 7156 H 648.553 5.64913 -2.01578 0
M  V30 7157 H 650.232 5.95738 -2.52399 0
M  V30 7158 N 650.364 0.662433 1.43002 0
M  V30 7159 C 651.294 -0.00979809 2.33498 0
M  V30 7160 C 652.275 -0.802329 1.49989 0
M  V30 7161 O 653.46 -0.761964 1.78627 0
M  V30 7162 C 650.59 -0.970446 3.33466 0
M  V30 7163 C 649.544 -0.287383 4.27034 0
M  V30 7164 C 648.87 -1.36012 5.17112 0
M  V30 7165 C 650.17 0.82595 5.15728 0
M  V30 7166 H 651.864 0.745959 2.89958 0
M  V30 7167 H 649.41 0.360172 1.39423 0
M  V30 7168 H 651.363 -1.44971 3.95679 0
M  V30 7169 H 650.087 -1.75748 2.75282 0
M  V30 7170 H 648.746 0.17152 3.66199 0
M  V30 7171 H 648.394 -2.13882 4.55262 0
M  V30 7172 H 648.094 -0.908276 5.80538 0
M  V30 7173 H 649.618 -1.84056 5.82199 0
M  V30 7174 H 651.032 0.42845 5.71697 0
M  V30 7175 H 649.429 1.20282 5.87922 0
M  V30 7176 H 650.499 1.68003 4.54866 0
M  V30 7177 N 651.842 -1.52309 0.404946 0
M  V30 7178 C 652.792 -2.23717 -0.439864 0
M  V30 7179 C 653.776 -1.24692 -1.0169 0
M  V30 7180 O 654.968 -1.49951 -0.940409 0
M  V30 7181 C 652.097 -3.05898 -1.55825 0
M  V30 7182 C 651.183 -4.12331 -0.992188 0
M  V30 7183 N 651.574 -5.0557 -0.152424 0
M  V30 7184 C 649.872 -4.2774 -1.26312 0
M  V30 7185 C 650.573 -5.81474 0.162041 0
M  V30 7186 N 649.549 -5.41767 -0.44601 0
M  V30 7187 H 653.351 -2.93162 0.208084 0
M  V30 7188 H 650.865 -1.60969 0.215131 0
M  V30 7189 H 652.862 -3.55605 -2.17603 0
M  V30 7190 H 651.522 -2.37991 -2.20886 0
M  V30 7191 H 652.533 -5.17468 0.211556 0
M  V30 7192 H 649.21 -3.71062 -1.91362 0
M  V30 7193 H 650.6 -6.66585 0.843423 0
M  V30 7194 N 653.32 -0.135238 -1.57019 0
M  V30 7195 C 654.56 0.521686 -1.9763 0
M  V30 7196 C 654.924 1.62804 -1.01778 0
M  V30 7197 O 656.125 2.345 -1.31389 0
M  V30 7198 C 654.396 1.0257 -3.42365 0
M  V30 7199 S 655.955 1.68888 -4.04997 0
M  V30 7200 H 652.773 0.169064 -0.690607 0
M  V30 7201 H 655.375 -0.224168 -1.94211 0
M  V30 7202 H 654.079 0.209556 -4.09865 0
M  V30 7203 H 653.61 1.80645 -3.49472 0
M  V30 7204 H 655.625 2.97554 -3.97084 0
M  V30 7205 O 654.837 1.615 0.00369385 0
M  V30 7206 H 655.528 1.8348 0.620863 0
M  V30 END ATOM
M  V30 BEGIN BOND
M  V30 END BOND
M  V30 END CTAB
M  END
$$$$
