drugbank_drug|DB04899 DB04899: Natriuretic peptides B
 OpenBabel12092119123D

491493  0  0  0  0  0  0  0  0999 V2000
   -0.9080    1.9825   -0.1171 H   0  0  0  0  0 15  0  0  0  0  0  0
    0.0000    1.5760    0.0000 N   0  0  0  0  0 15  0  0  0  0  0  0
    1.2250    1.9525    0.6995 C   0  0  0  0  0 15  0  0  0  0  0  0
    1.6500    0.8749    1.6651 C   0  0  0  0  0 15  0  0  0  0  0  0
    1.0080   -0.1669    1.8053 O   0  0  0  0  0 15  0  0  0  0  0  0
    1.0560    3.3199    1.4076 C   0  0  0  0  0 15  0  0  0  0  0  0
    0.1600    3.2630    2.5220 O   0  0  0  0  0 15  0  0  0  0  0  0
   -0.4990    0.6374    0.1861 H   0  0  0  0  0 15  0  0  0  0  0  0
    2.0310    2.0453   -0.0532 H   0  0  0  0  0 15  0  0  0  0  0  0
    2.0410    3.6756    1.7710 H   0  0  0  0  0 15  0  0  0  0  0  0
    0.7160    4.0997    0.6995 H   0  0  0  0  0 15  0  0  0  0  0  0
   -0.7070    3.0241    2.1818 H   0  0  0  0  0 15  0  0  0  0  0  0
    1.4781   -0.2728    1.5522 N   0  0  0  0  0 15  0  0  0  0  0  0
    2.8891   -0.8438    1.6655 C   0  0  0  0  0 15  0  0  0  0  0  0
    3.2401   -1.8704    0.5926 C   0  0  0  0  0 15  0  0  0  0  0  0
    2.3651   -2.1476   -0.2658 O   0  0  0  0  0 15  0  0  0  0  0  0
    2.9601   -1.5372    3.0192 C   0  0  0  0  0 15  0  0  0  0  0  0
    1.5191   -2.0563    3.1527 C   0  0  0  0  0 15  0  0  0  0  0  0
    0.6661   -0.8984    2.6234 C   0  0  0  0  0 15  0  0  0  0  0  0
    3.6171   -0.0491    1.5862 H   0  0  0  0  0 15  0  0  0  0  0  0
    3.6381   -2.4042    2.9492 H   0  0  0  0  0 15  0  0  0  0  0  0
    3.1501   -0.7898    3.7998 H   0  0  0  0  0 15  0  0  0  0  0  0
    1.2511   -2.8333    2.4198 H   0  0  0  0  0 15  0  0  0  0  0  0
    1.3641   -2.2714    4.2183 H   0  0  0  0  0 15  0  0  0  0  0  0
   -0.2719   -1.2919    2.1951 H   0  0  0  0  0 15  0  0  0  0  0  0
    0.5111   -0.1645    3.4291 H   0  0  0  0  0 15  0  0  0  0  0  0
    2.9562   -1.4816   -0.5373 N   0  0  0  0  0 15  0  0  0  0  0  0
    3.9032   -1.6214   -1.6426 C   0  0  0  0  0 15  0  0  0  0  0  0
    4.8732   -0.4637   -1.5950 C   0  0  0  0  0 15  0  0  0  0  0  0
    6.0582   -0.6862   -1.7803 O   0  0  0  0  0 15  0  0  0  0  0  0
    3.1982   -1.6603   -3.0254 C   0  0  0  0  0 15  0  0  0  0  0  0
    2.3112   -2.9285   -3.1758 C   0  0  0  0  0 15  0  0  0  0  0  0
    1.4462   -2.8795   -4.4638 C   0  0  0  0  0 15  0  0  0  0  0  0
    0.4852   -4.0952   -4.5493 C   0  0  0  0  0 15  0  0  0  0  0  0
   -0.3778   -4.0273   -5.7511 N   0  0  0  0  0 15  0  0  0  0  0  0
    4.4622   -2.5653   -1.5165 H   0  0  0  0  0 15  0  0  0  0  0  0
    1.9992   -1.2722   -0.7384 H   0  0  0  0  0 15  0  0  0  0  0  0
    3.9572   -1.6626   -3.8264 H   0  0  0  0  0 15  0  0  0  0  0  0
    2.5872   -0.7513   -3.1393 H   0  0  0  0  0 15  0  0  0  0  0  0
    1.6392   -3.0240   -2.3078 H   0  0  0  0  0 15  0  0  0  0  0  0
    2.9512   -3.8282   -3.1976 H   0  0  0  0  0 15  0  0  0  0  0  0
    2.1052   -2.8655   -5.3477 H   0  0  0  0  0 15  0  0  0  0  0  0
    0.8442   -1.9570   -4.4671 H   0  0  0  0  0 15  0  0  0  0  0  0
   -0.1508   -4.1120   -3.6496 H   0  0  0  0  0 15  0  0  0  0  0  0
    1.0742   -5.0292   -4.5635 H   0  0  0  0  0 15  0  0  0  0  0  0
   -0.9798   -3.1330   -5.7635 H   0  0  0  0  0 15  0  0  0  0  0  0
   -1.0628   -4.8640   -5.7875 H   0  0  0  0  0 15  0  0  0  0  0  0
    0.2052   -4.0538   -6.6580 H   0  0  0  0  0 15  0  0  0  0  0  0
    4.4343    0.7856   -1.3662 N   0  0  0  0  0 15  0  0  0  0  0  0
    5.3673    1.9051   -1.2562 C   0  0  0  0  0 15  0  0  0  0  0  0
    6.3453    1.6200   -0.1396 C   0  0  0  0  0 15  0  0  0  0  0  0
    7.5293    1.8591   -0.3114 O   0  0  0  0  0 15  0  0  0  0  0  0
    4.6563    3.2542   -0.9392 C   0  0  0  0  0 15  0  0  0  0  0  0
    3.7023    3.7286   -2.0708 C   0  0  0  0  0 15  0  0  0  0  0  0
    4.5353    3.8816   -3.6890 S   0  0  0  0  0 15  0  0  0  0  0  0
    5.6913    5.2594   -3.3932 C   0  0  0  0  0 15  0  0  0  0  0  0
    5.9243    1.9955   -2.2038 H   0  0  0  0  0 15  0  0  0  0  0  0
    3.4573    0.9452   -1.2209 H   0  0  0  0  0 15  0  0  0  0  0  0
    5.4153    4.0335   -0.7630 H   0  0  0  0  0 15  0  0  0  0  0  0
    4.0763    3.1410   -0.0093 H   0  0  0  0  0 15  0  0  0  0  0  0
    3.2693    4.7062   -1.8036 H   0  0  0  0  0 15  0  0  0  0  0  0
    2.8713    3.0199   -2.2063 H   0  0  0  0  0 15  0  0  0  0  0  0
    5.1633    6.1065   -2.9345 H   0  0  0  0  0 15  0  0  0  0  0  0
    6.1063    5.5767   -4.3636 H   0  0  0  0  0 15  0  0  0  0  0  0
    6.5143    4.9322   -2.7457 H   0  0  0  0  0 15  0  0  0  0  0  0
    5.9124    1.2097    1.0102 N   0  0  0  0  0 15  0  0  0  0  0  0
    7.1584    1.0253    1.7498 C   0  0  0  0  0 15  0  0  0  0  0  0
    7.4914   -0.4408    1.8913 C   0  0  0  0  0 15  0  0  0  0  0  0
    6.7664   -1.3272    1.4218 O   0  0  0  0  0 15  0  0  0  0  0  0
    7.0494    1.7170    3.1653 C   0  0  0  0  0 15  0  0  0  0  0  0
    6.9024    3.2579    3.1013 C   0  0  0  0  0 15  0  0  0  0  0  0
    8.2214    1.4553    4.1534 C   0  0  0  0  0 15  0  0  0  0  0  0
    5.3404    0.3739    0.6351 H   0  0  0  0  0 15  0  0  0  0  0  0
    7.9824    1.4907    1.1780 H   0  0  0  0  0 15  0  0  0  0  0  0
    6.1324    1.3213    3.6534 H   0  0  0  0  0 15  0  0  0  0  0  0
    7.8044    3.7470    2.6907 H   0  0  0  0  0 15  0  0  0  0  0  0
    6.0474    3.5636    2.4736 H   0  0  0  0  0 15  0  0  0  0  0  0
    6.7184    3.6935    4.1022 H   0  0  0  0  0 15  0  0  0  0  0  0
    9.1944    1.7987    3.7521 H   0  0  0  0  0 15  0  0  0  0  0  0
    8.0704    1.9645    5.1254 H   0  0  0  0  0 15  0  0  0  0  0  0
    8.3314    0.3842    4.4043 H   0  0  0  0  0 15  0  0  0  0  0  0
    7.3905   -1.2043    1.0166 N   0  0  0  0  0 15  0  0  0  0  0  0
    8.3225   -2.2263    0.5450 C   0  0  0  0  0 15  0  0  0  0  0  0
    9.3355   -1.5848   -0.3726 C   0  0  0  0  0 15  0  0  0  0  0  0
   10.5245   -1.7768   -0.1710 O   0  0  0  0  0 15  0  0  0  0  0  0
    7.6245   -3.3814   -0.2266 C   0  0  0  0  0 15  0  0  0  0  0  0
    6.7975   -4.3188    0.6929 C   0  0  0  0  0 15  0  0  0  0  0  0
    5.8565   -5.2619   -0.0312 C   0  0  0  0  0 15  0  0  0  0  0  0
    4.8825   -5.6612    0.5913 O   0  0  0  0  0 15  0  0  0  0  0  0
    6.0845   -5.6562   -1.3060 N   0  0  0  0  0 15  0  0  0  0  0  0
    8.8495   -2.6372    1.4239 H   0  0  0  0  0 15  0  0  0  0  0  0
    6.4105   -1.3497    0.8941 H   0  0  0  0  0 15  0  0  0  0  0  0
    8.4025   -3.9824   -0.7202 H   0  0  0  0  0 15  0  0  0  0  0  0
    6.9725   -2.9594   -1.0068 H   0  0  0  0  0 15  0  0  0  0  0  0
    6.1925   -3.6975    1.3668 H   0  0  0  0  0 15  0  0  0  0  0  0
    7.4805   -4.9143    1.3182 H   0  0  0  0  0 15  0  0  0  0  0  0
    6.8785   -5.3519   -1.8327 H   0  0  0  0  0 15  0  0  0  0  0  0
    5.4355   -6.2803   -1.7443 H   0  0  0  0  0 15  0  0  0  0  0  0
    8.8686   -0.7928   -1.3621 N   0  0  0  0  0 15  0  0  0  0  0  0
   10.1166   -0.3661   -1.9876 C   0  0  0  0  0 15  0  0  0  0  0  0
   10.4376    1.0668   -1.6323 C   0  0  0  0  0 15  0  0  0  0  0  0
    9.7076    1.7359   -0.9080 O   0  0  0  0  0 15  0  0  0  0  0  0
    8.2876   -0.1324   -0.7352 H   0  0  0  0  0 15  0  0  0  0  0  0
   10.9496   -1.0156   -1.6635 H   0  0  0  0  0 15  0  0  0  0  0  0
   10.0456   -0.4606   -3.0868 H   0  0  0  0  0 15  0  0  0  0  0  0
   10.3467    1.4787   -0.5451 N   0  0  0  0  0 15  0  0  0  0  0  0
   11.5717    2.0739   -0.0191 C   0  0  0  0  0 15  0  0  0  0  0  0
   11.9967    1.3969    1.2597 C   0  0  0  0  0 15  0  0  0  0  0  0
   11.3547    0.4678    1.7516 O   0  0  0  0  0 15  0  0  0  0  0  0
   11.4027    3.6019    0.1723 C   0  0  0  0  0 15  0  0  0  0  0  0
   10.5067    3.9339    1.2377 O   0  0  0  0  0 15  0  0  0  0  0  0
    9.8477    0.6624   -0.0459 H   0  0  0  0  0 15  0  0  0  0  0  0
   12.3777    1.9007   -0.7574 H   0  0  0  0  0 15  0  0  0  0  0  0
   12.3877    4.0613    0.3903 H   0  0  0  0  0 15  0  0  0  0  0  0
   11.0627    4.0886   -0.7617 H   0  0  0  0  0 15  0  0  0  0  0  0
    9.6397    3.5921    1.0011 H   0  0  0  0  0 15  0  0  0  0  0  0
   11.8248    0.2810    1.5507 N   0  0  0  0  0 15  0  0  0  0  0  0
   13.0728   -0.3335    1.9933 C   0  0  0  0  0 15  0  0  0  0  0  0
   13.3938   -1.5594    1.1708 C   0  0  0  0  0 15  0  0  0  0  0  0
   12.6638   -1.9414    0.2618 O   0  0  0  0  0 15  0  0  0  0  0  0
   11.2438   -0.1262    0.7363 H   0  0  0  0  0 15  0  0  0  0  0  0
   13.9058    0.3877    1.9101 H   0  0  0  0  0 15  0  0  0  0  0  0
   13.0018   -0.6193    3.0589 H   0  0  0  0  0 15  0  0  0  0  0  0
   13.3029   -1.5760    0.0084 N   0  0  0  0  0 15  0  0  0  0  0  0
   14.5429   -1.9279   -0.6791 C   0  0  0  0  0 15  0  0  0  0  0  0
   14.9069   -0.8834   -1.7047 C   0  0  0  0  0 15  0  0  0  0  0  0
   16.1079   -1.1208   -2.4432 O   0  0  0  0  0 15  0  0  0  0  0  0
   14.3789   -3.3299   -1.2981 C   0  0  0  0  0 15  0  0  0  0  0  0
   15.9379   -3.9008   -2.0095 S   0  0  0  0  0 15  0  0  0  0  0  0
   12.7559   -0.6748   -0.2241 H   0  0  0  0  0 15  0  0  0  0  0  0
   15.3579   -1.9538    0.0670 H   0  0  0  0  0 15  0  0  0  0  0  0
   14.0619   -4.0685   -0.5389 H   0  0  0  0  0 15  0  0  0  0  0  0
   13.5929   -3.3379   -2.0820 H   0  0  0  0  0 15  0  0  0  0  0  0
   15.6079   -3.7183   -3.2856 H   0  0  0  0  0 15  0  0  0  0  0  0
   14.7810    0.2645   -1.5536 N   0  0  0  0  0 15  0  0  0  0  0  0
   16.0280    0.9950   -1.7637 C   0  0  0  0  0 15  0  0  0  0  0  0
   16.3560    1.8598   -0.5695 C   0  0  0  0  0 15  0  0  0  0  0  0
   15.6110    1.9051    0.4478 O   0  0  0  0  0 15  0  0  0  0  0  0
   15.9100    1.9004   -3.0269 C   0  0  0  0  0 15  0  0  0  0  0  0
   15.5760    1.1924   -4.3485 C   0  0  0  0  0 15  0  0  0  0  0  0
   14.2380    0.9967   -4.7076 C   0  0  0  0  0 15  0  0  0  0  0  0
   16.5900    0.6893   -5.1662 C   0  0  0  0  0 15  0  0  0  0  0  0
   13.9180    0.2853   -5.8601 C   0  0  0  0  0 15  0  0  0  0  0  0
   16.2700   -0.0086   -6.3260 C   0  0  0  0  0 15  0  0  0  0  0  0
   14.9340   -0.2160   -6.6715 C   0  0  0  0  0 15  0  0  0  0  0  0
   14.2040    0.3641   -0.6454 H   0  0  0  0  0 15  0  0  0  0  0  0
   16.8510    0.2665   -1.8964 H   0  0  0  0  0 15  0  0  0  0  0  0
   15.1560    2.6953   -2.8436 H   0  0  0  0  0 15  0  0  0  0  0  0
   16.8530    2.4670   -3.1614 H   0  0  0  0  0 15  0  0  0  0  0  0
   13.4430    1.3549   -4.0662 H   0  0  0  0  0 15  0  0  0  0  0  0
   17.6270    0.8281   -4.8934 H   0  0  0  0  0 15  0  0  0  0  0  0
   12.8830    0.1140   -6.1129 H   0  0  0  0  0 15  0  0  0  0  0  0
   17.0570   -0.4062   -6.9521 H   0  0  0  0  0 15  0  0  0  0  0  0
   14.6840   -0.7692   -7.5630 H   0  0  0  0  0 15  0  0  0  0  0  0
   16.2591    1.4844    0.5294 N   0  0  0  0  0 15  0  0  0  0  0  0
   17.5071    1.5618    1.2827 C   0  0  0  0  0 15  0  0  0  0  0  0
   17.8281    0.2377    1.9355 C   0  0  0  0  0 15  0  0  0  0  0  0
   17.0981   -0.7408    1.8135 O   0  0  0  0  0 15  0  0  0  0  0  0
   15.6781    0.5754    0.4764 H   0  0  0  0  0 15  0  0  0  0  0  0
   18.3401    1.8491    0.6160 H   0  0  0  0  0 15  0  0  0  0  0  0
   17.4361    2.3431    2.0617 H   0  0  0  0  0 15  0  0  0  0  0  0
   17.7372   -0.7783    1.3704 N   0  0  0  0  0 15  0  0  0  0  0  0
   19.1532   -1.0780    1.1770 C   0  0  0  0  0 15  0  0  0  0  0  0
   19.3532   -2.0150    0.0086 C   0  0  0  0  0 15  0  0  0  0  0  0
   18.4092   -2.4390   -0.6534 O   0  0  0  0  0 15  0  0  0  0  0  0
   19.7222   -1.6818    2.4927 C   0  0  0  0  0 15  0  0  0  0  0  0
   21.2702   -1.8047    2.5574 C   0  0  0  0  0 15  0  0  0  0  0  0
   21.7452   -2.4426    3.8743 C   0  0  0  0  0 15  0  0  0  0  0  0
   23.2362   -2.5172    3.8883 N   0  0  0  0  0 15  0  0  0  0  0  0
   23.9712   -3.0192    4.8748 C   0  0  0  0  0 15  0  0  0  0  0  0
   23.4672   -3.5234    5.9651 N   0  0  0  0  0 15  0  0  0  0  0  0
   25.2602   -3.0073    4.7489 N   0  0  0  0  0 15  0  0  0  0  0  0
   17.4112   -0.1560    2.1183 H   0  0  0  0  0 15  0  0  0  0  0  0
   19.6742   -0.1318    0.9388 H   0  0  0  0  0 15  0  0  0  0  0  0
   19.3802   -1.0680    3.3509 H   0  0  0  0  0 15  0  0  0  0  0  0
   19.2542   -2.6755    2.6588 H   0  0  0  0  0 15  0  0  0  0  0  0
   21.6412   -2.4098    1.7033 H   0  0  0  0  0 15  0  0  0  0  0  0
   21.7222   -0.7987    2.4301 H   0  0  0  0  0 15  0  0  0  0  0  0
   21.3662   -1.8439    4.7325 H   0  0  0  0  0 15  0  0  0  0  0  0
   21.2962   -3.4546    3.9745 H   0  0  0  0  0 15  0  0  0  0  0  0
   23.7872   -2.1603    3.1006 H   0  0  0  0  0 15  0  0  0  0  0  0
   24.1002   -3.8903    6.6774 H   0  0  0  0  0 15  0  0  0  0  0  0
   22.4452   -3.5046    6.0017 H   0  0  0  0  0 15  0  0  0  0  0  0
   25.6362   -2.6064    3.8883 H   0  0  0  0  0 15  0  0  0  0  0  0
   25.8092   -3.3954    5.5192 H   0  0  0  0  0 15  0  0  0  0  0  0
   19.2153   -1.2150   -1.0038 N   0  0  0  0  0 15  0  0  0  0  0  0
   20.1623   -0.9754   -2.0918 C   0  0  0  0  0 15  0  0  0  0  0  0
   21.1323    0.0991   -1.6580 C   0  0  0  0  0 15  0  0  0  0  0  0
   22.3173   -0.0483   -1.9074 O   0  0  0  0  0 15  0  0  0  0  0  0
   19.4573   -0.5475   -3.4073 C   0  0  0  0  0 15  0  0  0  0  0  0
   18.5703   -1.6915   -3.9751 C   0  0  0  0  0 15  0  0  0  0  0  0
   17.7053   -1.2127   -5.1717 C   0  0  0  0  0 15  0  0  0  0  0  0
   16.7443   -2.3290   -5.6606 C   0  0  0  0  0 15  0  0  0  0  0  0
   15.8813   -1.8614   -6.7698 N   0  0  0  0  0 15  0  0  0  0  0  0
   20.7213   -1.9068   -2.2901 H   0  0  0  0  0 15  0  0  0  0  0  0
   18.2583   -0.9503   -1.1229 H   0  0  0  0  0 15  0  0  0  0  0  0
   20.2163   -0.2807   -4.1625 H   0  0  0  0  0 15  0  0  0  0  0  0
   18.8463    0.3469   -3.2093 H   0  0  0  0  0 15  0  0  0  0  0  0
   17.8983   -2.0730   -3.1895 H   0  0  0  0  0 15  0  0  0  0  0  0
   19.2103   -2.5316   -4.2978 H   0  0  0  0  0 15  0  0  0  0  0  0
   18.3643   -0.9026   -5.9995 H   0  0  0  0  0 15  0  0  0  0  0  0
   17.1033   -0.3427   -4.8649 H   0  0  0  0  0 15  0  0  0  0  0  0
   16.1083   -2.6471   -4.8188 H   0  0  0  0  0 15  0  0  0  0  0  0
   17.3333   -3.2040   -5.9877 H   0  0  0  0  0 15  0  0  0  0  0  0
   15.2793   -1.0148   -6.4810 H   0  0  0  0  0 15  0  0  0  0  0  0
   15.1963   -2.6372   -7.0851 H   0  0  0  0  0 15  0  0  0  0  0  0
   16.4643   -1.5817   -7.6328 H   0  0  0  0  0 15  0  0  0  0  0  0
   20.6934    1.1989   -1.0230 N   0  0  0  0  0 15  0  0  0  0  0  0
   21.6264    2.2164   -0.5433 C   0  0  0  0  0 15  0  0  0  0  0  0
   22.6044    1.5728    0.4127 C   0  0  0  0  0 15  0  0  0  0  0  0
   23.7884    1.8557    0.3312 O   0  0  0  0  0 15  0  0  0  0  0  0
   20.9154    3.3806    0.2086 C   0  0  0  0  0 15  0  0  0  0  0  0
   19.9614    4.2075   -0.6979 C   0  0  0  0  0 15  0  0  0  0  0  0
   20.7944    4.8953   -2.1707 S   0  0  0  0  0 15  0  0  0  0  0  0
   21.9504    6.0936   -1.4292 C   0  0  0  0  0 15  0  0  0  0  0  0
   22.1834    2.6198   -1.4054 H   0  0  0  0  0 15  0  0  0  0  0  0
   19.7164    1.3004   -0.8324 H   0  0  0  0  0 15  0  0  0  0  0  0
   21.6744    4.0554    0.6362 H   0  0  0  0  0 15  0  0  0  0  0  0
   20.3354    2.9616    1.0464 H   0  0  0  0  0 15  0  0  0  0  0  0
   19.5284    5.0386   -0.1178 H   0  0  0  0  0 15  0  0  0  0  0  0
   19.1304    3.5856   -1.0637 H   0  0  0  0  0 15  0  0  0  0  0  0
   21.4224    6.7374   -0.7126 H   0  0  0  0  0 15  0  0  0  0  0  0
   22.3654    6.7185   -2.2367 H   0  0  0  0  0 15  0  0  0  0  0  0
   22.7734    5.5680   -0.9293 H   0  0  0  0  0 15  0  0  0  0  0  0
   22.1715    0.8000    1.3578 N   0  0  0  0  0 15  0  0  0  0  0  0
   23.4485    0.3009    1.9327 C   0  0  0  0  0 15  0  0  0  0  0  0
   23.8285   -1.2086    1.7308 C   0  0  0  0  0 15  0  0  0  0  0  0
   23.1765   -2.0050    1.0960 O   0  0  0  0  0 15  0  0  0  0  0  0
   23.3865    0.7051    3.4180 C   0  0  0  0  0 15  0  0  0  0  0  0
   24.7345    0.6909    4.1894 C   0  0  0  0  0 15  0  0  0  0  0  0
   25.7585    0.6462    3.5029 O   0  0  0  0  0 15  0  0  0  0  0  0
   24.6175    0.7433    5.4142 O   0  0  0  0  0 15  0  0  0  0  0  0
   21.7115    0.0772    0.8234 H   0  0  0  0  0 15  0  0  0  0  0  0
   24.2575    0.8833    1.4490 H   0  0  0  0  0 15  0  0  0  0  0  0
   23.0295    1.7457    3.5020 H   0  0  0  0  0 15  0  0  0  0  0  0
   22.6525    0.0972    3.9748 H   0  0  0  0  0 15  0  0  0  0  0  0
   23.6496   -1.4758    0.5530 N   0  0  0  0  0 15  0  0  0  0  0  0
   25.0656   -1.5818    0.2124 C   0  0  0  0  0 15  0  0  0  0  0  0
   25.2656   -1.5521   -1.2850 C   0  0  0  0  0 15  0  0  0  0  0  0
   24.3216   -1.4533   -2.0648 O   0  0  0  0  0 15  0  0  0  0  0  0
   25.6346   -2.8886    0.8353 C   0  0  0  0  0 15  0  0  0  0  0  0
   27.1826   -3.0244    0.8062 C   0  0  0  0  0 15  0  0  0  0  0  0
   27.6576   -4.3582    1.4080 C   0  0  0  0  0 15  0  0  0  0  0  0
   29.1486   -4.4244    1.3710 N   0  0  0  0  0 15  0  0  0  0  0  0
   29.8836   -5.4420    1.8064 C   0  0  0  0  0 15  0  0  0  0  0  0
   29.3796   -6.5279    2.3202 N   0  0  0  0  0 15  0  0  0  0  0  0
   31.1726   -5.3522    1.7174 N   0  0  0  0  0 15  0  0  0  0  0  0
   23.3236   -1.4775    1.5259 H   0  0  0  0  0 15  0  0  0  0  0  0
   25.5866   -0.7029    0.6361 H   0  0  0  0  0 15  0  0  0  0  0  0
   25.2926   -2.9676    1.8875 H   0  0  0  0  0 15  0  0  0  0  0  0
   25.1666   -3.7579    0.3258 H   0  0  0  0  0 15  0  0  0  0  0  0
   27.5536   -2.9414   -0.2373 H   0  0  0  0  0 15  0  0  0  0  0  0
   27.6346   -2.1707    1.3533 H   0  0  0  0  0 15  0  0  0  0  0  0
   27.2786   -4.4487    2.4506 H   0  0  0  0  0 15  0  0  0  0  0  0
   27.2086   -5.1992    0.8363 H   0  0  0  0  0 15  0  0  0  0  0  0
   29.6996   -3.6456    0.9952 H   0  0  0  0  0 15  0  0  0  0  0  0
   30.0126   -7.2661    2.6317 H   0  0  0  0  0 15  0  0  0  0  0  0
   28.3576   -6.5370    2.3602 H   0  0  0  0  0 15  0  0  0  0  0  0
   31.5486   -4.4928    1.3138 H   0  0  0  0  0 15  0  0  0  0  0  0
   31.7216   -6.1439    2.0599 H   0  0  0  0  0 15  0  0  0  0  0  0
   25.1277   -0.2892   -1.5492 N   0  0  0  0  0 15  0  0  0  0  0  0
   26.3767    0.3242   -1.9908 C   0  0  0  0  0 15  0  0  0  0  0  0
   26.6897    1.5591   -1.1812 C   0  0  0  0  0 15  0  0  0  0  0  0
   27.8957    2.2464   -1.5248 O   0  0  0  0  0 15  0  0  0  0  0  0
   26.3517    0.6282   -3.5437 C   0  0  0  0  0 15  0  0  0  0  0  0
   25.9597   -0.5876   -4.4413 C   0  0  0  0  0 15  0  0  0  0  0  0
   27.7037    1.2035   -4.0708 C   0  0  0  0  0 15  0  0  0  0  0  0
   25.6107   -0.2575   -5.9084 C   0  0  0  0  0 15  0  0  0  0  0  0
   24.5407    0.1249   -0.7436 H   0  0  0  0  0 15  0  0  0  0  0  0
   27.1917   -0.3961   -1.7917 H   0  0  0  0  0 15  0  0  0  0  0  0
   25.5737    1.4078   -3.7013 H   0  0  0  0  0 15  0  0  0  0  0  0
   26.7477   -1.3642   -4.4014 H   0  0  0  0  0 15  0  0  0  0  0  0
   25.0627   -1.0807   -4.0213 H   0  0  0  0  0 15  0  0  0  0  0  0
   27.6597    1.4646   -5.1425 H   0  0  0  0  0 15  0  0  0  0  0  0
   28.0027    2.1420   -3.5697 H   0  0  0  0  0 15  0  0  0  0  0  0
   28.5357    0.4859   -3.9482 H   0  0  0  0  0 15  0  0  0  0  0  0
   25.2747   -1.1642   -6.4508 H   0  0  0  0  0 15  0  0  0  0  0  0
   24.7947    0.4820   -5.9786 H   0  0  0  0  0 15  0  0  0  0  0  0
   26.4737    0.1452   -6.4684 H   0  0  0  0  0 15  0  0  0  0  0  0
   26.6058    1.5759   -0.0167 N   0  0  0  0  0 15  0  0  0  0  0  0
   27.8308    1.9598    0.6787 C   0  0  0  0  0 15  0  0  0  0  0  0
   28.2558    0.8925    1.6558 C   0  0  0  0  0 15  0  0  0  0  0  0
   27.6138   -0.1478    1.8070 O   0  0  0  0  0 15  0  0  0  0  0  0
   27.6618    3.3347    1.3723 C   0  0  0  0  0 15  0  0  0  0  0  0
   26.7658    3.2895    2.4872 O   0  0  0  0  0 15  0  0  0  0  0  0
   26.1068    0.6393    0.1793 H   0  0  0  0  0 15  0  0  0  0  0  0
   28.6368    2.0446   -0.0749 H   0  0  0  0  0 15  0  0  0  0  0  0
   28.6468    3.6942    1.7319 H   0  0  0  0  0 15  0  0  0  0  0  0
   27.3218    4.1069    0.6560 H   0  0  0  0  0 15  0  0  0  0  0  0
   25.8988    3.0471    2.1496 H   0  0  0  0  0 15  0  0  0  0  0  0
   28.0839   -0.2563    1.5550 N   0  0  0  0  0 15  0  0  0  0  0  0
   29.3089   -1.0077    1.8128 C   0  0  0  0  0 15  0  0  0  0  0  0
   29.7339   -1.7852    0.5925 C   0  0  0  0  0 15  0  0  0  0  0  0
   29.0919   -1.7541   -0.4583 O   0  0  0  0  0 15  0  0  0  0  0  0
   29.1399   -1.9287    3.0469 C   0  0  0  0  0 15  0  0  0  0  0  0
   28.2439   -3.0190    2.8094 O   0  0  0  0  0 15  0  0  0  0  0  0
   27.5849   -0.2872    0.5987 H   0  0  0  0  0 15  0  0  0  0  0  0
   30.1149   -0.2801    2.0267 H   0  0  0  0  0 15  0  0  0  0  0  0
   30.1249   -2.3451    3.3387 H   0  0  0  0  0 15  0  0  0  0  0  0
   28.7999   -1.3569    3.9314 H   0  0  0  0  0 15  0  0  0  0  0  0
   27.3769   -2.6445    2.6290 H   0  0  0  0  0 15  0  0  0  0  0  0
   29.5620   -1.4872   -0.5215 N   0  0  0  0  0 15  0  0  0  0  0  0
   30.7870   -1.6110   -1.3062 C   0  0  0  0  0 15  0  0  0  0  0  0
   31.2120   -0.2746   -1.8608 C   0  0  0  0  0 15  0  0  0  0  0  0
   30.5700    0.7549   -1.6483 O   0  0  0  0  0 15  0  0  0  0  0  0
   30.6180   -2.6671   -2.4269 C   0  0  0  0  0 15  0  0  0  0  0  0
   29.7220   -2.2446   -3.4597 O   0  0  0  0  0 15  0  0  0  0  0  0
   29.0630   -0.5399   -0.3865 H   0  0  0  0  0 15  0  0  0  0  0  0
   31.5930   -1.9477   -0.6266 H   0  0  0  0  0 15  0  0  0  0  0  0
   31.6030   -2.8824   -2.8875 H   0  0  0  0  0 15  0  0  0  0  0  0
   30.2780   -3.6373   -2.0168 H   0  0  0  0  0 15  0  0  0  0  0  0
   28.8550   -2.1317   -3.0596 H   0  0  0  0  0 15  0  0  0  0  0  0
   31.0401    0.7711   -1.3745 N   0  0  0  0  0 15  0  0  0  0  0  0
   32.2651    1.5653   -1.3606 C   0  0  0  0  0 15  0  0  0  0  0  0
   32.6901    1.8803    0.0516 C   0  0  0  0  0 15  0  0  0  0  0  0
   32.0481    1.4928    1.0288 O   0  0  0  0  0 15  0  0  0  0  0  0
   32.0961    2.8519   -2.2068 C   0  0  0  0  0 15  0  0  0  0  0  0
   31.2001    3.7959   -1.6119 O   0  0  0  0  0 15  0  0  0  0  0  0
   30.5411    0.4741   -0.4649 H   0  0  0  0  0 15  0  0  0  0  0  0
   33.0711    0.9543   -1.8098 H   0  0  0  0  0 15  0  0  0  0  0  0
   33.0811    3.3428   -2.3392 H   0  0  0  0  0 15  0  0  0  0  0  0
   31.7561    2.6159   -3.2333 H   0  0  0  0  0 15  0  0  0  0  0  0
   30.3331    3.3824   -1.5700 H   0  0  0  0  0 15  0  0  0  0  0  0
   32.5182    1.2203    0.9973 N   0  0  0  0  0 15  0  0  0  0  0  0
   33.7662    1.0402    1.7328 C   0  0  0  0  0 15  0  0  0  0  0  0
   34.0872   -0.4263    1.9028 C   0  0  0  0  0 15  0  0  0  0  0  0
   33.3572   -1.3069    1.4593 O   0  0  0  0  0 15  0  0  0  0  0  0
   31.9372    0.3819    0.6420 H   0  0  0  0  0 15  0  0  0  0  0  0
   34.5992    1.5347    1.2014 H   0  0  0  0  0 15  0  0  0  0  0  0
   33.6952    1.5144    2.7290 H   0  0  0  0  0 15  0  0  0  0  0  0
   33.9963   -1.1934    1.0293 N   0  0  0  0  0 15  0  0  0  0  0  0
   34.9263   -2.2481    0.6311 C   0  0  0  0  0 15  0  0  0  0  0  0
   35.9073   -1.6624   -0.3601 C   0  0  0  0  0 15  0  0  0  0  0  0
   37.0923   -1.9268   -0.2427 O   0  0  0  0  0 15  0  0  0  0  0  0
   34.2223   -3.4730   -0.0185 C   0  0  0  0  0 15  0  0  0  0  0  0
   33.1763   -4.1854    0.8951 C   0  0  0  0  0 15  0  0  0  0  0  0
   32.5023   -5.3459    0.1106 C   0  0  0  0  0 15  0  0  0  0  0  0
   33.8023   -4.7329    2.2090 C   0  0  0  0  0 15  0  0  0  0  0  0
   35.4963   -2.5837    1.5128 H   0  0  0  0  0 15  0  0  0  0  0  0
   33.0423   -1.2419    0.7288 H   0  0  0  0  0 15  0  0  0  0  0  0
   34.9953   -4.2027   -0.3087 H   0  0  0  0  0 15  0  0  0  0  0  0
   33.7193   -3.1293   -0.9349 H   0  0  0  0  0 15  0  0  0  0  0  0
   32.3783   -3.4745    1.1695 H   0  0  0  0  0 15  0  0  0  0  0  0
   32.0263   -4.9647   -0.8079 H   0  0  0  0  0 15  0  0  0  0  0  0
   31.7263   -5.8318    0.7191 H   0  0  0  0  0 15  0  0  0  0  0  0
   33.2503   -6.1036   -0.1729 H   0  0  0  0  0 15  0  0  0  0  0  0
   34.6643   -5.3801    1.9803 H   0  0  0  0  0 15  0  0  0  0  0  0
   33.0613   -5.3237    2.7695 H   0  0  0  0  0 15  0  0  0  0  0  0
   34.1313   -3.9133    2.8634 H   0  0  0  0  0 15  0  0  0  0  0  0
   35.4744   -0.8072   -1.3536 N   0  0  0  0  0 15  0  0  0  0  0  0
   36.7224   -0.3871   -1.9836 C   0  0  0  0  0 15  0  0  0  0  0  0
   37.0434    1.0494   -1.6435 C   0  0  0  0  0 15  0  0  0  0  0  0
   36.3134    1.7261   -0.9263 O   0  0  0  0  0 15  0  0  0  0  0  0
   34.8934   -0.1402   -0.7337 H   0  0  0  0  0 15  0  0  0  0  0  0
   37.5554   -1.0332   -1.6526 H   0  0  0  0  0 15  0  0  0  0  0  0
   36.6514   -0.4934   -3.0818 H   0  0  0  0  0 15  0  0  0  0  0  0
   36.9525    1.4729   -0.5608 N   0  0  0  0  0 15  0  0  0  0  0  0
   38.1925    2.0436   -0.0405 C   0  0  0  0  0 15  0  0  0  0  0  0
   38.5565    1.4253    1.2864 C   0  0  0  0  0 15  0  0  0  0  0  0
   39.7575    1.9068    1.8946 O   0  0  0  0  0 15  0  0  0  0  0  0
   38.0285    3.5737    0.0472 C   0  0  0  0  0 15  0  0  0  0  0  0
   39.5875    4.3579    0.5131 S   0  0  0  0  0 15  0  0  0  0  0  0
   36.4055    0.7105   -0.0269 H   0  0  0  0  0 15  0  0  0  0  0  0
   39.0075    1.8061   -0.7483 H   0  0  0  0  0 15  0  0  0  0  0  0
   37.7115    3.9989   -0.9228 H   0  0  0  0  0 15  0  0  0  0  0  0
   37.2425    3.8562    0.7785 H   0  0  0  0  0 15  0  0  0  0  0  0
   39.2575    4.6348    1.7721 H   0  0  0  0  0 15  0  0  0  0  0  0
   38.4306    0.2974    1.5477 N   0  0  0  0  0 15  0  0  0  0  0  0
   39.3776   -0.5803    2.2339 C   0  0  0  0  0 15  0  0  0  0  0  0
   40.3476   -1.1324    1.2152 C   0  0  0  0  0 15  0  0  0  0  0  0
   41.5326   -1.1776    1.5013 O   0  0  0  0  0 15  0  0  0  0  0  0
   38.6726   -1.7480    2.9755 C   0  0  0  0  0 15  0  0  0  0  0  0
   37.7856   -1.2276    4.1419 C   0  0  0  0  0 15  0  0  0  0  0  0
   36.9206   -2.3589    4.7595 C   0  0  0  0  0 15  0  0  0  0  0  0
   35.9596   -1.8097    5.8473 C   0  0  0  0  0 15  0  0  0  0  0  0
   35.0966   -2.8766    6.4046 N   0  0  0  0  0 15  0  0  0  0  0  0
   39.9366    0.0115    2.9800 H   0  0  0  0  0 15  0  0  0  0  0  0
   37.4736    0.0174    1.4709 H   0  0  0  0  0 15  0  0  0  0  0  0
   39.4316   -2.4348    3.3879 H   0  0  0  0  0 15  0  0  0  0  0  0
   38.0616   -2.3115    2.2533 H   0  0  0  0  0 15  0  0  0  0  0  0
   37.1136   -0.4333    3.7792 H   0  0  0  0  0 15  0  0  0  0  0  0
   38.4256   -0.7856    4.9258 H   0  0  0  0  0 15  0  0  0  0  0  0
   37.5796   -3.1252    5.2001 H   0  0  0  0  0 15  0  0  0  0  0  0
   36.3186   -2.8343    3.9689 H   0  0  0  0  0 15  0  0  0  0  0  0
   35.3236   -1.0283    5.4010 H   0  0  0  0  0 15  0  0  0  0  0  0
   36.5486   -1.3435    6.6568 H   0  0  0  0  0 15  0  0  0  0  0  0
   34.4946   -3.3454    5.6429 H   0  0  0  0  0 15  0  0  0  0  0  0
   34.4116   -2.4794    7.1419 H   0  0  0  0  0 15  0  0  0  0  0  0
   35.6796   -3.6420    6.8919 H   0  0  0  0  0 15  0  0  0  0  0  0
   39.9087   -1.5758    0.0251 N   0  0  0  0  0 15  0  0  0  0  0  0
   41.1547   -1.9192   -0.6554 C   0  0  0  0  0 15  0  0  0  0  0  0
   41.4877   -0.9014   -1.7201 C   0  0  0  0  0 15  0  0  0  0  0  0
   40.7627    0.0764   -1.9435 O   0  0  0  0  0 15  0  0  0  0  0  0
   41.0457   -3.3675   -1.2756 C   0  0  0  0  0 15  0  0  0  0  0  0
   40.8987   -4.4926   -0.2207 C   0  0  0  0  0 15  0  0  0  0  0  0
   42.2177   -3.8147   -2.1947 C   0  0  0  0  0 15  0  0  0  0  0  0
   39.3367   -0.6979   -0.2368 H   0  0  0  0  0 15  0  0  0  0  0  0
   41.9787   -1.8983    0.0815 H   0  0  0  0  0 15  0  0  0  0  0  0
   40.1287   -3.3866   -1.9037 H   0  0  0  0  0 15  0  0  0  0  0  0
   41.8007   -4.5948    0.4096 H   0  0  0  0  0 15  0  0  0  0  0  0
   40.0437   -4.3141    0.4543 H   0  0  0  0  0 15  0  0  0  0  0  0
   40.7147   -5.4762   -0.6942 H   0  0  0  0  0 15  0  0  0  0  0  0
   43.1907   -3.8127   -1.6666 H   0  0  0  0  0 15  0  0  0  0  0  0
   42.0667   -4.8351   -2.5982 H   0  0  0  0  0 15  0  0  0  0  0  0
   42.3277   -3.1674   -3.0842 H   0  0  0  0  0 15  0  0  0  0  0  0
   41.3868    0.2480   -1.5564 N   0  0  0  0  0 15  0  0  0  0  0  0
   42.3168    1.3108   -1.9324 C   0  0  0  0  0 15  0  0  0  0  0  0
   43.2978    1.5026   -0.7972 C   0  0  0  0  0 15  0  0  0  0  0  0
   44.4828    1.6289   -1.0574 O   0  0  0  0  0 15  0  0  0  0  0  0
   41.6128    2.6658   -2.2261 C   0  0  0  0  0 15  0  0  0  0  0  0
   40.5668    2.6209   -3.3837 C   0  0  0  0  0 15  0  0  0  0  0  0
   39.8928    4.0137   -3.5328 C   0  0  0  0  0 15  0  0  0  0  0  0
   41.1928    2.1917   -4.7409 C   0  0  0  0  0 15  0  0  0  0  0  0
   42.8868    0.9986   -2.8226 H   0  0  0  0  0 15  0  0  0  0  0  0
   40.4328    0.4789   -1.3580 H   0  0  0  0  0 15  0  0  0  0  0  0
   42.3858    3.4106   -2.4750 H   0  0  0  0  0 15  0  0  0  0  0  0
   41.1098    2.9943   -1.3041 H   0  0  0  0  0 15  0  0  0  0  0  0
   39.7688    1.9006   -3.1348 H   0  0  0  0  0 15  0  0  0  0  0  0
   39.4168    4.3149   -2.5851 H   0  0  0  0  0 15  0  0  0  0  0  0
   39.1168    3.9925   -4.3113 H   0  0  0  0  0 15  0  0  0  0  0  0
   40.6408    4.7755   -3.8049 H   0  0  0  0  0 15  0  0  0  0  0  0
   42.0548    2.8338   -4.9836 H   0  0  0  0  0 15  0  0  0  0  0  0
   40.4518    2.2817   -5.5503 H   0  0  0  0  0 15  0  0  0  0  0  0
   41.5218    1.1434   -4.7123 H   0  0  0  0  0 15  0  0  0  0  0  0
   42.8649    1.4899    0.5136 N   0  0  0  0  0 15  0  0  0  0  0  0
   44.2809    1.3548    0.8437 C   0  0  0  0  0 15  0  0  0  0  0  0
   44.4809    0.3782    1.9792 C   0  0  0  0  0 15  0  0  0  0  0  0
   43.5369   -0.1947    2.5175 O   0  0  0  0  0 15  0  0  0  0  0  0
   44.8499    2.7590    1.1958 C   0  0  0  0  0 15  0  0  0  0  0  0
   46.3979    2.8451    1.3047 C   0  0  0  0  0 15  0  0  0  0  0  0
   46.8729    4.2567    1.6902 C   0  0  0  0  0 15  0  0  0  0  0  0
   48.3639    4.2842    1.7609 N   0  0  0  0  0 15  0  0  0  0  0  0
   49.0989    5.3460    2.0734 C   0  0  0  0  0 15  0  0  0  0  0  0
   48.5949    6.5104    2.3689 N   0  0  0  0  0 15  0  0  0  0  0  0
   50.3879    5.2201    2.0848 N   0  0  0  0  0 15  0  0  0  0  0  0
   42.5389    2.1109   -0.2353 H   0  0  0  0  0 15  0  0  0  0  0  0
   44.8019    0.9470   -0.0427 H   0  0  0  0  0 15  0  0  0  0  0  0
   44.5079    3.4900    0.4349 H   0  0  0  0  0 15  0  0  0  0  0  0
   44.3819    3.1047    2.1422 H   0  0  0  0  0 15  0  0  0  0  0  0
   46.7689    2.1165    2.0564 H   0  0  0  0  0 15  0  0  0  0  0  0
   46.8499    2.5354    0.3392 H   0  0  0  0  0 15  0  0  0  0  0  0
   46.4939    4.9905    0.9441 H   0  0  0  0  0 15  0  0  0  0  0  0
   46.4239    4.5409    2.6666 H   0  0  0  0  0 15  0  0  0  0  0  0
   48.9149    3.4444    1.5546 H   0  0  0  0  0 15  0  0  0  0  0  0
   49.2279    7.2779    2.5989 H   0  0  0  0  0 15  0  0  0  0  0  0
   47.5729    6.5429    2.3438 H   0  0  0  0  0 15  0  0  0  0  0  0
   50.7639    4.3005    1.8486 H   0  0  0  0  0 15  0  0  0  0  0  0
   50.9369    6.0485    2.3250 H   0  0  0  0  0 15  0  0  0  0  0  0
   44.3430   -0.7638    1.3786 N   0  0  0  0  0 15  0  0  0  0  0  0
   45.7590   -1.0654    1.1883 C   0  0  0  0  0 15  0  0  0  0  0  0
   45.9590   -2.0148    0.0300 C   0  0  0  0  0 15  0  0  0  0  0  0
   45.0150   -2.4458   -0.6274 O   0  0  0  0  0 15  0  0  0  0  0  0
   46.3280   -1.6552    2.5104 C   0  0  0  0  0 15  0  0  0  0  0  0
   47.8760   -1.7774    2.5764 C   0  0  0  0  0 15  0  0  0  0  0  0
   48.3510   -2.4014    3.9000 C   0  0  0  0  0 15  0  0  0  0  0  0
   49.8420   -2.4758    3.9148 N   0  0  0  0  0 15  0  0  0  0  0  0
   50.5770   -2.9673    4.9065 C   0  0  0  0  0 15  0  0  0  0  0  0
   50.0730   -3.4599    6.0022 N   0  0  0  0  0 15  0  0  0  0  0  0
   51.8660   -2.9568    4.7805 N   0  0  0  0  0 15  0  0  0  0  0  0
   44.0170   -0.1336    2.1198 H   0  0  0  0  0 15  0  0  0  0  0  0
   46.2800   -0.1219    0.9401 H   0  0  0  0  0 15  0  0  0  0  0  0
   45.9860   -1.0324    3.3621 H   0  0  0  0  0 15  0  0  0  0  0  0
   45.8600   -2.6472    2.6871 H   0  0  0  0  0 15  0  0  0  0  0  0
   48.2470   -2.3916    1.7287 H   0  0  0  0  0 15  0  0  0  0  0  0
   48.3280   -0.7728    2.4385 H   0  0  0  0  0 15  0  0  0  0  0  0
   47.9720   -1.7936    4.7518 H   0  0  0  0  0 15  0  0  0  0  0  0
   47.9020   -3.4122    4.0109 H   0  0  0  0  0 15  0  0  0  0  0  0
   50.3930   -2.1273    3.1234 H   0  0  0  0  0 15  0  0  0  0  0  0
   50.7060   -3.8192    6.7183 H   0  0  0  0  0 15  0  0  0  0  0  0
   49.0510   -3.4408    6.0385 H   0  0  0  0  0 15  0  0  0  0  0  0
   52.2420   -2.5650    3.9157 H   0  0  0  0  0 15  0  0  0  0  0  0
   52.4150   -3.3367    5.5549 H   0  0  0  0  0 15  0  0  0  0  0  0
   45.8211   -1.2256   -0.9908 N   0  0  0  0  0 15  0  0  0  0  0  0
   46.7711   -0.9648   -2.0658 C   0  0  0  0  0 15  0  0  0  0  0  0
   47.7551    0.0853   -1.6067 C   0  0  0  0  0 15  0  0  0  0  0  0
   48.9471   -0.1254   -1.7655 O   0  0  0  0  0 15  0  0  0  0  0  0
   46.0761   -0.5467   -3.3892 C   0  0  0  0  0 15  0  0  0  0  0  0
   45.1621   -1.6317   -3.9145 C   0  0  0  0  0 15  0  0  0  0  0  0
   45.5531   -2.8598   -4.1719 N   0  0  0  0  0 15  0  0  0  0  0  0
   43.8511   -1.5039   -4.1988 C   0  0  0  0  0 15  0  0  0  0  0  0
   44.5521   -3.5616   -4.5992 C   0  0  0  0  0 15  0  0  0  0  0  0
   43.5281   -2.8364   -4.6374 N   0  0  0  0  0 15  0  0  0  0  0  0
   47.3301   -1.8977   -2.2442 H   0  0  0  0  0 15  0  0  0  0  0  0
   44.8441   -1.1234   -1.1727 H   0  0  0  0  0 15  0  0  0  0  0  0
   46.8411   -0.3412   -4.1550 H   0  0  0  0  0 15  0  0  0  0  0  0
   45.5011    0.3793   -3.2248 H   0  0  0  0  0 15  0  0  0  0  0  0
   46.5121   -3.2239   -4.0532 H   0  0  0  0  0 15  0  0  0  0  0  0
   43.1891   -0.6443   -4.1250 H   0  0  0  0  0 15  0  0  0  0  0  0
   44.5791   -4.6139   -4.8844 H   0  0  0  0  0 15  0  0  0  0  0  0
   47.3381    1.1220   -1.1616 O   0  0  0  0  0 15  0  0  0  0  0  0
   48.0291    1.7192   -0.8923 H   0  0  0  0  0 15  0  0  0  0  0  0
M  END
$$$$
