drugbank_target|Q9ZK53 Flavodoxin (DB03247)
 OpenBabel12092120273D

  0  0  0     0  0            999 V3000
M  V30 BEGIN CTAB
M  V30 COUNTS 2428 2449 0 0 0
M  V30 BEGIN ATOM
M  V30 1 H -0.908 1.98254 -0.117106 0
M  V30 2 N 0 1.576 0 0
M  V30 3 C 0.933 2.03868 1.02534 0
M  V30 4 C 1.911 0.928543 1.3348 0
M  V30 5 O 3.095 1.19667 1.45644 0
M  V30 6 C 0.222 2.43627 2.35294 0
M  V30 7 C -0.732 3.65373 2.2001 0
M  V30 8 S 0.101 5.13292 1.52614 0
M  V30 9 C 1.257 5.56322 2.86805 0
M  V30 10 H 1.49 2.90518 0.631377 0
M  V30 11 H -0.977 1.52953 0.210867 0
M  V30 12 H 0.981 2.67203 3.11629 0
M  V30 13 H -0.358 1.57376 2.7183 0
M  V30 14 H -1.165 3.90944 3.18086 0
M  V30 15 H -1.563 3.418 1.51819 0
M  V30 16 H 0.729 5.58782 3.83104 0
M  V30 17 H 1.672 6.56266 2.65933 0
M  V30 18 H 2.08 4.83886 2.90714 0
M  V30 19 N 1.4781 -0.272755 1.55222 0
M  V30 20 C 2.7261 -1.00234 1.75492 0
M  V30 21 C 3.0471 -1.8681 0.5592 0
M  V30 22 O 2.3171 -1.91215 -0.425882 0
M  V30 23 H 0.8971 -0.373076 0.647166 0
M  V30 24 H 3.5591 -0.296926 1.92625 0
M  V30 25 H 2.6551 -1.63913 2.65592 0
M  V30 26 N 2.9562 -1.48159 -0.537278 0
M  V30 27 C 3.9032 -1.62138 -1.64256 0
M  V30 28 C 4.8732 -0.463668 -1.59497 0
M  V30 29 O 6.0582 -0.686241 -1.78032 0
M  V30 30 C 3.1982 -1.66028 -3.02537 0
M  V30 31 C 2.3112 -2.92855 -3.17585 0
M  V30 32 C 1.4462 -2.87952 -4.46382 0
M  V30 33 C 0.4852 -4.09516 -4.54932 0
M  V30 34 N -0.3778 -4.02733 -5.75109 0
M  V30 35 H 4.4622 -2.56529 -1.51647 0
M  V30 36 H 1.9992 -1.27224 -0.738414 0
M  V30 37 H 3.9572 -1.66265 -3.82638 0
M  V30 38 H 2.5872 -0.751331 -3.13934 0
M  V30 39 H 1.6392 -3.02395 -2.30784 0
M  V30 40 H 2.9512 -3.82822 -3.19764 0
M  V30 41 H 2.1052 -2.8655 -5.34765 0
M  V30 42 H 0.8442 -1.95702 -4.46712 0
M  V30 43 H -0.1508 -4.11201 -3.64957 0
M  V30 44 H 1.0742 -5.02917 -4.56346 0
M  V30 45 H -0.9798 -3.13299 -5.76351 0
M  V30 46 H -1.0628 -4.86397 -5.78752 0
M  V30 47 H 0.2052 -4.05379 -6.65799 0
M  V30 48 N 4.4343 0.785586 -1.36625 0
M  V30 49 C 5.6833 1.53883 -1.30396 0
M  V30 50 C 5.9963 1.95271 0.113452 0
M  V30 51 O 7.2023 2.69858 0.298142 0
M  V30 52 C 5.6583 2.77808 -2.28802 0
M  V30 53 C 5.2663 2.43574 -3.75999 0
M  V30 54 C 7.0103 3.55783 -2.31558 0
M  V30 55 C 4.9173 3.63919 -4.66173 0
M  V30 56 H 3.8473 0.577678 -0.484566 0
M  V30 57 H 6.4983 0.861705 -1.62009 0
M  V30 58 H 4.8803 3.47339 -1.90188 0
M  V30 59 H 6.0543 1.81916 -4.23371 0
M  V30 60 H 4.3693 1.78803 -3.76056 0
M  V30 61 H 6.9663 4.45205 -2.96137 0
M  V30 62 H 7.3093 3.94644 -1.3252 0
M  V30 63 H 7.8423 2.93235 -2.68809 0
M  V30 64 H 4.5813 3.3015 -5.66287 0
M  V30 65 H 4.1013 4.2473 -4.23515 0
M  V30 66 H 5.7803 4.30901 -4.82632 0
M  V30 67 N 5.9124 1.20967 1.01018 0
M  V30 68 C 7.1604 1.02172 1.74371 0
M  V30 69 C 7.4814 -0.446414 1.89821 0
M  V30 70 O 6.7514 -1.32234 1.44537 0
M  V30 71 H 5.3314 0.375066 0.646014 0
M  V30 72 H 7.9934 1.52187 1.21758 0
M  V30 73 H 7.0894 1.48538 2.74487 0
M  V30 74 N 7.3905 -1.2043 1.01659 0
M  V30 75 C 8.6395 -1.89118 0.701237 0
M  V30 76 C 8.9525 -1.79705 -0.772358 0
M  V30 77 O 10.1585 -2.43528 -1.20026 0
M  V30 78 C 8.6145 -3.39168 1.20388 0
M  V30 79 C 8.2225 -3.57166 2.70438 0
M  V30 80 C 9.9665 -4.1341 0.963953 0
M  V30 81 C 7.8735 -5.01042 3.14183 0
M  V30 82 H 6.8035 -0.708267 0.2586 0
M  V30 83 H 9.4545 -1.36239 1.22927 0
M  V30 84 H 7.8365 -3.91369 0.603824 0
M  V30 85 H 9.0105 -3.15351 3.35992 0
M  V30 86 H 7.3255 -2.96294 2.92572 0
M  V30 87 H 9.9225 -5.19491 1.26621 0
M  V30 88 H 10.2655 -4.16181 -0.099578 0
M  V30 89 H 10.7985 -3.67309 1.52738 0
M  V30 90 H 7.5375 -5.03426 4.19812 0
M  V30 91 H 7.0575 -5.43668 2.53348 0
M  V30 92 H 8.7365 -5.69623 3.0682 0
M  V30 93 N 8.8686 -0.792821 -1.36206 0
M  V30 94 C 10.1156 -0.366786 -1.99151 0
M  V30 95 C 10.4436 1.06243 -1.62919 0
M  V30 96 O 9.6986 1.74927 -0.877442 0
M  V30 97 C 9.9976 -0.481501 -3.54142 0
M  V30 98 C 9.6636 -1.87202 -4.10203 0
M  V30 99 C 8.3256 -2.25248 -4.25226 0
M  V30 100 C 10.6776 -2.78237 -4.40719 0
M  V30 101 C 8.0056 -3.53723 -4.68078 0
M  V30 102 C 10.3576 -4.06144 -4.85005 0
M  V30 103 C 9.0216 -4.44207 -4.98234 0
M  V30 104 H 8.2916 -0.134217 -0.728743 0
M  V30 105 H 10.9386 -1.01094 -1.62641 0
M  V30 106 H 9.2436 0.246146 -3.91026 0
M  V30 107 H 10.9406 -0.132844 -4.0078 0
M  V30 108 H 7.5306 -1.56639 -3.98951 0
M  V30 109 H 11.7146 -2.50097 -4.28679 0
M  V30 110 H 6.9706 -3.8308 -4.76508 0
M  V30 111 H 11.1446 -4.76796 -5.07581 0
M  V30 112 H 8.7716 -5.43814 -5.31197 0
M  V30 113 N 10.3467 1.47872 -0.545128 0
M  V30 114 C 11.5937 2.02493 -0.0165858 0
M  V30 115 C 11.9217 1.42073 1.32836 0
M  V30 116 O 11.1767 0.561459 1.87473 0
M  V30 117 C 11.4757 3.57131 0.13867 0
M  V30 118 C 11.1417 4.36411 -1.13384 0
M  V30 119 C 9.8037 4.57792 -1.48256 0
M  V30 120 C 12.1557 4.82223 -1.97764 0
M  V30 121 C 9.4837 5.22233 -2.67376 0
M  V30 122 C 11.8357 5.47977 -3.16076 0
M  V30 123 C 10.4997 5.67593 -3.51275 0
M  V30 124 H 9.7697 0.740975 -0.00606918 0
M  V30 125 H 12.4167 1.77683 -0.714207 0
M  V30 126 H 10.7217 3.80865 0.919172 0
M  V30 127 H 12.4187 3.97031 0.562782 0
M  V30 128 H 9.0087 4.2004 -0.852297 0
M  V30 129 H 13.1927 4.65493 -1.72132 0
M  V30 130 H 8.4487 5.35616 -2.94831 0
M  V30 131 H 12.6227 5.8244 -3.81755 0
M  V30 132 H 10.2497 6.17298 -4.43675 0
M  V30 133 N 11.8248 0.280983 1.55075 0
M  V30 134 C 13.0728 -0.333455 1.9933 0
M  V30 135 C 13.3938 -1.55937 1.17085 0
M  V30 136 O 12.6638 -1.94143 0.261805 0
M  V30 137 H 11.2438 -0.126197 0.736263 0
M  V30 138 H 13.9058 0.387678 1.91005 0
M  V30 139 H 13.0018 -0.619292 3.05894 0
M  V30 140 N 13.3029 -1.57598 0.00835791 0
M  V30 141 C 14.5309 -1.95214 -0.68549 0
M  V30 142 C 14.9459 -0.883706 -1.66841 0
M  V30 143 O 14.3029 0.136565 -1.81988 0
M  V30 144 C 14.3539 -3.32865 -1.41007 0
M  V30 145 O 14.0749 -4.35609 -0.466552 0
M  V30 146 C 15.5759 -3.84991 -2.19765 0
M  V30 147 H 12.7959 -0.643422 -0.190392 0
M  V30 148 H 15.3399 -2.04406 0.0619607 0
M  V30 149 H 13.4949 -3.24956 -2.10908 0
M  V30 150 H 13.9089 -5.15288 -0.978699 0
M  V30 151 H 15.3829 -4.8371 -2.65948 0
M  V30 152 H 15.8599 -3.18137 -3.02796 0
M  V30 153 H 16.4659 -3.96103 -1.54864 0
M  V30 154 N 14.781 0.264519 -1.55364 0
M  V30 155 C 16.058 1.01677 -1.67096 0
M  V30 156 C 16.438 2.03996 -0.543015 0
M  V30 157 O 15.786 2.23907 0.45585 0
M  V30 158 C 15.996 1.66596 -3.0667 0
M  V30 159 C 17.344 2.17442 -3.64697 0
M  V30 160 O 18.368 1.76568 -3.09358 0
M  V30 161 O 17.227 2.92439 -4.61673 0
M  V30 162 H 14.321 0.472161 -0.678965 0
M  V30 163 H 16.867 0.259703 -1.67701 0
M  V30 164 H 15.639 0.924962 -3.80211 0
M  V30 165 H 15.262 2.48968 -3.10001 0
M  V30 166 N 16.2591 1.48442 0.529413 0
M  V30 167 C 17.4841 1.60406 1.31471 0
M  V30 168 C 17.9091 0.264738 1.86228 0
M  V30 169 O 17.2671 -0.763668 1.64432 0
M  V30 170 C 17.3151 2.65419 2.44101 0
M  V30 171 O 16.4191 2.22618 3.47153 0
M  V30 172 H 15.7601 0.537863 0.389357 0
M  V30 173 H 18.2901 1.94432 0.636965 0
M  V30 174 H 18.3001 2.86709 2.90279 0
M  V30 175 H 16.9751 3.62652 2.03608 0
M  V30 176 H 15.5521 2.11543 3.0709 0
M  V30 177 N 17.7372 -0.778329 1.37039 0
M  V30 178 C 18.9852 -1.53361 1.31623 0
M  V30 179 C 19.3062 -1.94739 -0.100831 0
M  V30 180 O 18.5762 -1.65797 -1.04347 0
M  V30 181 H 17.1562 -0.568794 0.484234 0
M  V30 182 H 19.8182 -0.926742 1.71457 0
M  V30 183 H 18.9142 -2.43606 1.95096 0
M  V30 184 N 19.2153 -1.21501 -1.00376 0
M  V30 185 C 20.1633 -0.972442 -2.11297 0
M  V30 186 C 21.1573 0.080731 -1.69208 0
M  V30 187 O 22.3633 -0.0707666 -1.79861 0
M  V30 188 H 18.7383 -0.297218 -0.690772 0
M  V30 189 H 20.7093 -1.91394 -2.28934 0
M  V30 190 C 19.4583 -0.555065 -3.43241 0
M  V30 191 H 18.7813 -1.35709 -3.76062 0
M  V30 192 H 20.2213 -0.424664 -4.21868 0
M  V30 193 C 18.6803 0.734147 -3.28804 0
M  V30 194 O 19.2103 1.78937 -3.59645 0
M  V30 195 N 17.4163 0.701133 -2.82015 0
M  V30 196 H 16.9633 -0.157874 -2.57116 0
M  V30 197 H 16.9213 1.56403 -2.72737 0
M  V30 198 N 20.6934 1.19889 -1.02296 0
M  V30 199 C 21.6564 2.21116 -0.603351 0
M  V30 200 C 22.6564 1.5738 0.329884 0
M  V30 201 O 23.8464 1.73802 0.117702 0
M  V30 202 C 20.9784 3.40696 0.117992 0
M  V30 203 H 22.1714 2.59754 -1.49893 0
M  V30 204 H 19.7244 1.33463 -0.813468 0
M  V30 205 H 20.4594 3.07569 1.0282 0
M  V30 206 H 20.2444 3.88188 -0.552511 0
M  V30 207 H 21.7344 4.15692 0.398696 0
M  V30 208 N 22.1715 0.800033 1.35784 0
M  V30 209 C 23.0815 0.207204 2.33683 0
M  V30 210 C 24.0975 -0.64631 1.61551 0
M  V30 211 O 25.2735 -0.559604 1.93469 0
M  V30 212 C 22.3385 -0.639659 3.40748 0
M  V30 213 C 21.3995 0.233585 4.28664 0
M  V30 214 C 20.6325 -0.572954 5.30616 0
M  V30 215 O 20.8555 -1.80816 5.40982 0
M  V30 216 O 19.7895 0.0327285 6.01891 0
M  V30 217 H 23.6155 1.01692 2.86169 0
M  V30 218 H 21.2005 0.561691 1.38439 0
M  V30 219 H 23.0825 -1.12223 4.06182 0
M  V30 220 H 21.7575 -1.42708 2.90544 0
M  V30 221 H 20.6645 0.763147 3.66233 0
M  V30 222 H 21.9975 0.984784 4.82248 0
M  V30 223 N 23.6496 -1.47581 0.552962 0
M  V30 224 C 24.6126 -2.28439 -0.186605 0
M  V30 225 C 25.6126 -1.36706 -0.84665 0
M  V30 226 O 26.8026 -1.59378 -0.703164 0
M  V30 227 C 23.9346 -3.16264 -1.2724 0
M  V30 228 H 25.1276 -2.95294 0.523609 0
M  V30 229 H 22.6806 -1.532 0.309745 0
M  V30 230 H 23.4156 -2.54091 -2.01514 0
M  V30 231 H 23.2006 -3.83769 -0.803968 0
M  V30 232 H 24.6906 -3.77198 -1.79196 0
M  V30 233 N 25.1277 -0.289203 -1.54924 0
M  V30 234 C 26.3767 0.324231 -1.99077 0
M  V30 235 C 26.6897 1.5591 -1.18117 0
M  V30 236 O 27.8957 2.24637 -1.52481 0
M  V30 237 C 26.3517 0.628209 -3.54375 0
M  V30 238 C 25.9597 -0.587647 -4.44129 0
M  V30 239 C 27.7037 1.20349 -4.07083 0
M  V30 240 C 25.6107 -0.257475 -5.90839 0
M  V30 241 H 24.5407 0.124924 -0.743579 0
M  V30 242 H 27.1917 -0.396063 -1.79175 0
M  V30 243 H 25.5737 1.40778 -3.70132 0
M  V30 244 H 26.7477 -1.36418 -4.40144 0
M  V30 245 H 25.0627 -1.08074 -4.0213 0
M  V30 246 H 27.6597 1.46456 -5.14252 0
M  V30 247 H 28.0027 2.14195 -3.56968 0
M  V30 248 H 28.5357 0.485889 -3.94821 0
M  V30 249 H 25.2747 -1.16419 -6.45079 0
M  V30 250 H 24.7947 0.482018 -5.9786 0
M  V30 251 H 26.4737 0.145238 -6.46837 0
M  V30 252 N 26.6058 1.57591 -0.0167156 0
M  V30 253 C 27.5688 2.08393 0.954204 0
M  V30 254 C 28.5688 0.996531 1.26198 0
M  V30 255 O 29.7588 1.25858 1.20438 0
M  V30 256 C 26.8908 2.5394 2.27436 0
M  V30 257 H 28.0838 2.95455 0.514451 0
M  V30 258 H 25.6368 1.54582 0.231089 0
M  V30 259 H 26.3718 1.70171 2.76066 0
M  V30 260 H 26.1568 3.33371 2.06412 0
M  V30 261 H 27.6468 2.93512 2.97053 0
M  V30 262 N 28.0839 -0.256276 1.55502 0
M  V30 263 C 28.9939 -1.33882 1.92647 0
M  V30 264 C 30.0099 -1.53159 0.825727 0
M  V30 265 O 31.1859 -1.66963 1.12629 0
M  V30 266 C 28.2509 -2.6751 2.20543 0
M  V30 267 C 27.3119 -2.56836 3.43997 0
M  V30 268 C 26.5449 -3.84092 3.70553 0
M  V30 269 O 26.7679 -4.85545 2.99336 0
M  V30 270 O 25.7019 -3.83288 4.64084 0
M  V30 271 H 29.5279 -1.05374 2.84833 0
M  V30 272 H 27.1129 -0.456237 1.42263 0
M  V30 273 H 28.9949 -3.46492 2.39835 0
M  V30 274 H 27.6699 -2.9577 1.31536 0
M  V30 275 H 26.5769 -1.76172 3.30021 0
M  V30 276 H 27.9099 -2.33523 4.33275 0
M  V30 277 N 29.562 -1.4872 -0.521534 0
M  V30 278 C 30.509 -1.63871 -1.62527 0
M  V30 279 C 31.479 -0.480559 -1.58996 0
M  V30 280 O 32.664 -0.705085 -1.77294 0
M  V30 281 C 29.804 -1.69227 -3.00759 0
M  V30 282 C 28.917 -2.96207 -3.14461 0
M  V30 283 C 28.052 -2.92671 -4.43303 0
M  V30 284 C 27.091 -4.14318 -4.50563 0
M  V30 285 N 26.228 -4.0881 -5.70805 0
M  V30 286 H 31.068 -2.58123 -1.48918 0
M  V30 287 H 28.605 -1.28 -0.724878 0
M  V30 288 H 30.563 -1.70314 -3.80853 0
M  V30 289 H 29.193 -0.784586 -3.1312 0
M  V30 290 H 28.245 -3.04826 -2.27564 0
M  V30 291 H 29.557 -3.86192 -3.15686 0
M  V30 292 H 28.711 -2.92206 -5.31696 0
M  V30 293 H 27.45 -2.00429 -4.44612 0
M  V30 294 H 26.455 -4.15049 -3.60575 0
M  V30 295 H 27.68 -5.07729 -4.50986 0
M  V30 296 H 25.626 -3.19394 -5.72995 0
M  V30 297 H 25.543 -4.92509 -5.7356 0
M  V30 298 H 26.811 -4.12418 -6.61462 0
M  V30 299 N 31.0401 0.771051 -1.3745 0
M  V30 300 C 32.2891 1.52491 -1.3202 0
M  V30 301 C 32.6021 1.9538 0.0927347 0
M  V30 302 O 33.8081 2.70159 0.269503 0
M  V30 303 C 32.2641 2.75366 -2.31736 0
M  V30 304 C 31.8721 2.39573 -3.78562 0
M  V30 305 C 33.6161 3.53307 -2.35318 0
M  V30 306 C 31.5231 3.58954 -4.70007 0
M  V30 307 H 30.4531 0.572506 -0.490666 0
M  V30 308 H 33.1041 0.844474 -1.62914 0
M  V30 309 H 31.4861 3.45303 -1.93861 0
M  V30 310 H 32.6601 1.77415 -4.25277 0
M  V30 311 H 30.9751 1.74805 -3.77932 0
M  V30 312 H 33.5721 4.42039 -3.00842 0
M  V30 313 H 33.9151 3.93217 -1.36698 0
M  V30 314 H 34.4481 2.90367 -2.71904 0
M  V30 315 H 31.1871 3.24125 -5.69757 0
M  V30 316 H 30.7071 4.20214 -4.27996 0
M  V30 317 H 32.3861 4.25758 -4.87175 0
M  V30 318 N 32.5182 1.22032 0.997298 0
M  V30 319 C 33.7432 1.06921 1.77715 0
M  V30 320 C 34.1682 -0.376226 1.84299 0
M  V30 321 O 33.5262 -1.27165 1.29223 0
M  V30 322 C 33.5742 1.67996 3.19076 0
M  V30 323 O 32.6782 0.930653 4.01762 0
M  V30 324 H 32.0192 0.375814 0.547412 0
M  V30 325 H 34.5492 1.61737 1.25309 0
M  V30 326 H 34.5592 1.72538 3.69723 0
M  V30 327 H 33.2342 2.73182 3.13599 0
M  V30 328 H 31.8112 0.960917 3.60307 0
M  V30 329 N 33.9963 -1.19345 1.0293 0
M  V30 330 C 34.9433 -2.2258 0.610464 0
M  V30 331 C 35.9133 -1.6179 -0.375946 0
M  V30 332 O 37.0983 -1.88844 -0.272511 0
M  V30 333 C 34.2383 -3.45085 -0.0321473 0
M  V30 334 C 33.3513 -4.20258 1.00035 0
M  V30 335 C 32.4863 -5.3019 0.32746 0
M  V30 336 C 31.5253 -5.97121 1.34584 0
M  V30 337 N 30.6623 -6.98615 0.698726 0
M  V30 338 H 35.5023 -2.57764 1.49538 0
M  V30 339 H 33.0393 -1.26644 0.748311 0
M  V30 340 H 34.9973 -4.15061 -0.421966 0
M  V30 341 H 33.6273 -3.10555 -0.88064 0
M  V30 342 H 32.6793 -3.49223 1.50823 0
M  V30 343 H 33.9913 -4.66175 1.77433 0
M  V30 344 H 33.1453 -6.06587 -0.11718 0
M  V30 345 H 31.8843 -4.85345 -0.478713 0
M  V30 346 H 30.8893 -5.19474 1.80074 0
M  V30 347 H 32.1143 -6.4405 2.15352 0
M  V30 348 H 30.0603 -6.55942 -0.0873471 0
M  V30 349 H 29.9773 -7.42724 1.41058 0
M  V30 350 H 31.2453 -7.79004 0.278102 0
M  V30 351 N 35.4744 -0.807222 -1.35358 0
M  V30 352 C 36.4374 -0.223665 -2.28106 0
M  V30 353 C 37.4374 0.589354 -1.4961 0
M  V30 354 O 38.6274 0.407745 -1.69361 0
M  V30 355 C 35.7594 0.688149 -3.33882 0
M  V30 356 H 36.9524 -1.04169 -2.81227 0
M  V30 357 H 34.5054 -0.577921 -1.45223 0
M  V30 358 H 35.2404 1.52984 -2.85948 0
M  V30 359 H 35.0254 0.10687 -3.91954 0
M  V30 360 H 36.5154 1.09075 -4.03104 0
M  V30 361 N 36.9525 1.47285 -0.560781 0
M  V30 362 C 38.2015 2.01668 -0.035895 0
M  V30 363 C 38.5145 1.44021 1.32353 0
M  V30 364 O 39.7205 1.90088 1.93853 0
M  V30 365 C 38.1765 3.59897 -0.0136659 0
M  V30 366 C 37.7845 4.26536 -1.37006 0
M  V30 367 C 39.5285 4.22017 0.458425 0
M  V30 368 C 37.4355 5.76782 -1.30675 0
M  V30 369 H 36.3655 0.753938 -0.00964879 0
M  V30 370 H 39.0165 1.69243 -0.709166 0
M  V30 371 H 37.3985 3.89301 0.725325 0
M  V30 372 H 38.5725 4.0877 -2.12705 0
M  V30 373 H 36.8875 3.76419 -1.78038 0
M  V30 374 H 39.4845 5.32124 0.524247 0
M  V30 375 H 39.8275 3.89437 1.4712 0
M  V30 376 H 40.3605 3.97159 -0.225818 0
M  V30 377 H 37.0995 6.13988 -2.29564 0
M  V30 378 H 36.6195 5.96875 -0.591622 0
M  V30 379 H 38.2985 6.39063 -1.01033 0
M  V30 380 N 38.4306 0.297415 1.54768 0
M  V30 381 C 39.6786 -0.312295 1.99673 0
M  V30 382 C 39.9996 -1.54686 1.18732 0
M  V30 383 O 39.2696 -1.93854 0.282382 0
M  V30 384 H 37.8496 -0.118381 0.73756 0
M  V30 385 H 40.5116 0.407915 1.90583 0
M  V30 386 H 39.6076 -0.586813 3.06534 0
M  V30 387 N 39.9087 -1.5758 0.0250728 0
M  V30 388 C 40.8567 -2.11125 -0.97617 0
M  V30 389 C 41.8507 -1.03689 -1.33959 0
M  V30 390 O 43.0567 -1.22128 -1.3223 0
M  V30 391 H 39.4317 -0.674468 -0.332561 0
M  V30 392 H 41.4027 -2.94194 -0.499223 0
M  V30 393 C 40.1517 -2.65017 -2.2508 0
M  V30 394 H 39.4747 -3.47333 -1.9799 0
M  V30 395 H 40.9147 -3.06133 -2.93357 0
M  V30 396 C 39.3737 -1.57574 -2.97779 0
M  V30 397 O 39.9037 -0.973203 -3.89733 0
M  V30 398 N 38.1097 -1.29716 -2.60043 0
M  V30 399 H 37.6567 -1.789 -1.85345 0
M  V30 400 H 37.6147 -0.58051 -3.08994 0
M  V30 401 N 41.3868 0.248026 -1.55636 0
M  V30 402 C 42.3498 1.29044 -1.89421 0
M  V30 403 C 43.3498 1.41134 -0.770581 0
M  V30 404 O 44.5398 1.39854 -1.03858 0
M  V30 405 C 41.6718 2.66831 -2.12165 0
M  V30 406 H 42.8648 1.00305 -2.82629 0
M  V30 407 H 40.4178 0.487265 -1.48511 0
M  V30 408 H 41.1528 3.00711 -1.21422 0
M  V30 409 H 40.9378 2.59438 -2.93997 0
M  V30 410 H 42.4278 3.42103 -2.3949 0
M  V30 411 N 42.8649 1.48995 0.513639 0
M  V30 412 C 43.7749 1.67443 1.64317 0
M  V30 413 C 44.7909 0.556947 1.64846 0
M  V30 414 O 45.9669 0.830082 1.83498 0
M  V30 415 C 43.0319 1.72515 3.00732 0
M  V30 416 C 42.0929 2.96009 3.1093 0
M  V30 417 C 41.3259 3.00829 4.40837 0
M  V30 418 O 41.5489 2.13594 5.28898 0
M  V30 419 O 40.4829 3.93168 4.55744 0
M  V30 420 H 44.3089 2.63106 1.51687 0
M  V30 421 H 41.8939 1.32588 0.688543 0
M  V30 422 H 43.7759 1.78277 3.81831 0
M  V30 423 H 42.4509 0.800278 3.13651 0
M  V30 424 H 41.3579 2.9577 2.29065 0
M  V30 425 H 42.6909 3.87934 3.02933 0
M  V30 426 N 44.343 -0.763751 1.37857 0
M  V30 427 C 45.589 -1.52483 1.33704 0
M  V30 428 C 45.922 -1.94051 -0.0759612 0
M  V30 429 O 45.197 -1.64675 -1.03501 0
M  V30 430 C 45.48 -2.78441 2.28348 0
M  V30 431 C 45.333 -2.43075 3.78463 0
M  V30 432 C 46.652 -3.80415 2.21298 0
M  V30 433 H 43.771 -0.553169 0.487005 0
M  V30 434 H 46.413 -0.875562 1.68624 0
M  V30 435 H 44.563 -3.33842 1.987 0
M  V30 436 H 46.235 -1.93527 4.18742 0
M  V30 437 H 44.478 -1.75666 3.96641 0
M  V30 438 H 45.149 -3.33149 4.40132 0
M  V30 439 H 47.625 -3.34527 2.47449 0
M  V30 440 H 46.501 -4.66257 2.89647 0
M  V30 441 H 46.762 -4.25262 1.20849 0
M  V30 442 N 45.8211 -1.22559 -0.990812 0
M  V30 443 C 47.0701 -1.04553 -1.72486 0
M  V30 444 C 47.3831 0.419349 -1.91052 0
M  V30 445 O 48.5891 0.719121 -2.61803 0
M  V30 446 C 47.0451 -1.82231 -3.10355 0
M  V30 447 C 46.6531 -3.32981 -2.99713 0
M  V30 448 C 48.3971 -1.7268 -3.87791 0
M  V30 449 C 46.3041 -4.03091 -4.32748 0
M  V30 450 H 45.2341 -0.387614 -0.646739 0
M  V30 451 H 47.8851 -1.46429 -1.10593 0
M  V30 452 H 46.2671 -1.33155 -3.72942 0
M  V30 453 H 47.4411 -3.89466 -2.46278 0
M  V30 454 H 45.7561 -3.43231 -2.35758 0
M  V30 455 H 48.3531 -2.22381 -4.86262 0
M  V30 456 H 48.6961 -0.687607 -4.10582 0
M  V30 457 H 49.2291 -2.1931 -3.31885 0
M  V30 458 H 45.9681 -5.07273 -4.15156 0
M  V30 459 H 45.4881 -3.51394 -4.86089 0
M  V30 460 H 47.1671 -4.08804 -5.01486 0
M  V30 461 N 47.2992 1.18797 -1.03562 0
M  V30 462 C 48.5762 1.84469 -0.650434 0
M  V30 463 C 48.9562 1.92319 0.870433 0
M  V30 464 O 48.3042 1.44528 1.76986 0
M  V30 465 C 48.5142 3.2306 -1.32036 0
M  V30 466 C 49.8622 3.9915 -1.44792 0
M  V30 467 O 50.8862 3.32481 -1.27806 0
M  V30 468 O 49.7452 5.18587 -1.72423 0
M  V30 469 H 46.8392 0.795251 -0.226946 0
M  V30 470 H 49.3852 1.26231 -1.13419 0
M  V30 471 H 48.1572 3.1222 -2.3587 0
M  V30 472 H 47.7802 3.88949 -0.8249 0
M  V30 473 N 48.7773 0.814389 1.34928 0
M  V30 474 C 50.0233 0.399013 1.98836 0
M  V30 475 C 50.3563 -1.03314 1.64438 0
M  V30 476 O 49.6313 -1.71811 0.911659 0
M  V30 477 C 49.9143 0.591629 3.55207 0
M  V30 478 C 49.7673 2.06928 3.99376 0
M  V30 479 C 51.0863 0.022199 4.40094 0
M  V30 480 H 48.2053 0.146451 0.722303 0
M  V30 481 H 50.8473 1.02537 1.59957 0
M  V30 482 H 48.9973 0.0584441 3.88456 0
M  V30 483 H 50.6693 2.66544 3.76499 0
M  V30 484 H 48.9123 2.56287 3.49999 0
M  V30 485 H 49.5833 2.1549 5.08201 0
M  V30 486 H 52.0593 0.477643 4.13349 0
M  V30 487 H 50.9353 0.186832 5.48582 0
M  V30 488 H 51.1963 -1.07215 4.28902 0
M  V30 489 N 50.2554 -1.46986 0.568584 0
M  V30 490 C 51.2184 -2.28624 -0.162366 0
M  V30 491 C 52.2184 -1.37596 -0.832103 0
M  V30 492 O 53.4084 -1.60115 -0.68622 0
M  V30 493 C 50.5404 -3.17596 -1.23878 0
M  V30 494 H 51.7334 -2.94722 0.554899 0
M  V30 495 H 49.2864 -1.52863 0.325976 0
M  V30 496 H 50.0214 -2.56214 -1.98808 0
M  V30 497 H 49.8064 -3.846 -0.763219 0
M  V30 498 H 51.2964 -3.79078 -1.75185 0
M  V30 499 N 51.7335 -0.305618 -1.54608 0
M  V30 500 C 52.6805 0.568421 -2.23691 0
M  V30 501 C 53.6505 1.12592 -1.22116 0
M  V30 502 O 54.8355 1.16959 -1.50749 0
M  V30 503 C 51.9755 1.7322 -2.98477 0
M  V30 504 C 51.0885 1.20566 -4.14835 0
M  V30 505 C 50.2235 2.33368 -4.77193 0
M  V30 506 C 49.2625 1.7787 -5.85686 0
M  V30 507 N 48.3995 2.84263 -6.4198 0
M  V30 508 H 53.2395 -0.0272867 -2.97988 0
M  V30 509 H 50.7765 -0.0252363 -1.47078 0
M  V30 510 H 52.7345 2.41675 -3.40072 0
M  V30 511 H 51.3645 2.29947 -2.26548 0
M  V30 512 H 50.4165 0.413223 -3.78149 0
M  V30 513 H 51.7285 0.759417 -4.92985 0
M  V30 514 H 50.8825 3.09761 -5.21664 0
M  V30 515 H 49.6215 2.8132 -3.98385 0
M  V30 516 H 48.6265 0.99968 -5.40635 0
M  V30 517 H 49.8515 1.30816 -6.66381 0
M  V30 518 H 47.7975 3.31541 -5.66053 0
M  V30 519 H 47.7145 2.44149 -7.15491 0
M  V30 520 H 48.9825 3.6054 -6.91109 0
M  V30 521 N 53.2116 1.57565 -0.0334293 0
M  V30 522 C 54.1746 2.09393 0.932048 0
M  V30 523 C 55.1746 1.00986 1.25134 0
M  V30 524 O 56.3646 1.27129 1.19096 0
M  V30 525 C 53.4966 2.56338 2.2473 0
M  V30 526 H 54.6896 2.95984 0.483085 0
M  V30 527 H 52.2426 1.54819 0.21468 0
M  V30 528 H 52.9776 1.7309 2.74245 0
M  V30 529 H 52.7626 3.35542 2.02865 0
M  V30 530 H 54.2526 2.96646 2.93923 0
M  V30 531 N 54.6897 -0.239769 1.55765 0
M  V30 532 C 55.9147 -0.988373 1.82335 0
M  V30 533 C 56.3397 -1.77886 0.611421 0
M  V30 534 O 55.6977 -1.75889 -0.439639 0
M  V30 535 C 55.7457 -1.89627 3.06715 0
M  V30 536 O 54.8497 -2.98904 2.84131 0
M  V30 537 H 54.1907 -0.280858 0.601677 0
M  V30 538 H 56.7207 -0.258597 2.02959 0
M  V30 539 H 56.7307 -2.30957 3.36338 0
M  V30 540 H 55.4057 -1.31511 3.9456 0
M  V30 541 H 53.9827 -2.61651 2.65694 0
M  V30 542 N 56.1678 -1.49265 -0.50573 0
M  V30 543 C 57.1148 -1.65585 -1.6078 0
M  V30 544 C 58.0848 -0.497396 -1.58478 0
M  V30 545 O 59.2698 -0.72385 -1.76536 0
M  V30 546 C 56.4098 -1.72408 -2.98948 0
M  V30 547 C 55.5228 -2.99525 -3.11301 0
M  V30 548 C 54.6578 -2.97356 -4.40174 0
M  V30 549 C 53.6968 -4.19074 -4.46143 0
M  V30 550 N 52.8338 -4.14841 -5.66437 0
M  V30 551 H 57.6738 -2.59688 -1.46172 0
M  V30 552 H 55.2108 -1.28761 -0.711261 0
M  V30 553 H 57.1688 -1.74344 -3.79025 0
M  V30 554 H 55.7988 -0.817753 -3.1227 0
M  V30 555 H 54.8508 -3.07222 -2.24318 0
M  V30 556 H 56.1628 -3.89518 -3.11572 0
M  V30 557 H 55.3168 -2.97829 -5.28567 0
M  V30 558 H 54.0558 -2.05133 -4.42461 0
M  V30 559 H 53.0608 -4.1885 -3.56153 0
M  V30 560 H 54.2858 -5.12483 -4.45575 0
M  V30 561 H 52.2318 -3.25453 -5.69575 0
M  V30 562 H 52.1488 -4.98564 -5.68304 0
M  V30 563 H 53.4168 -4.1941 -6.57051 0
M  V30 564 N 57.6459 0.756429 -1.3826 0
M  V30 565 C 58.5559 1.9009 -1.37488 0
M  V30 566 C 59.5719 1.71855 -0.272366 0
M  V30 567 O 60.7479 1.94827 -0.510318 0
M  V30 568 C 57.8129 3.25421 -1.19592 0
M  V30 569 C 56.8739 3.56202 -2.39622 0
M  V30 570 C 56.1069 4.85075 -2.2257 0
M  V30 571 O 56.3299 5.57246 -1.21793 0
M  V30 572 O 55.2639 5.15269 -3.11098 0
M  V30 573 H 59.0899 1.93695 -2.33914 0
M  V30 574 H 56.6749 0.901313 -1.1915 0
M  V30 575 H 58.5569 4.06337 -1.11661 0
M  V30 576 H 57.2319 3.22634 -0.262486 0
M  V30 577 H 56.1389 2.75458 -2.53128 0
M  V30 578 H 57.4719 3.63747 -3.31586 0
M  V30 579 N 59.124 1.23083 0.984299 0
M  V30 580 C 60.056 0.96636 2.07832 0
M  V30 581 C 61.069 -0.0582135 1.62696 0
M  V30 582 O 62.258 0.176843 1.77622 0
M  V30 583 C 59.358 0.433397 3.36117 0
M  V30 584 C 58.531 1.51722 4.10243 0
M  V30 585 C 57.59 0.989821 5.16807 0
M  V30 586 O 56.616 1.67794 5.43906 0
M  V30 587 N 57.818 -0.184367 5.80207 0
M  V30 588 H 60.583 1.90824 2.31098 0
M  V30 589 H 58.144 1.13888 1.1507 0
M  V30 590 H 60.136 0.065699 4.04647 0
M  V30 591 H 58.706 -0.413806 3.09849 0
M  V30 592 H 57.926 2.05786 3.36223 0
M  V30 593 H 59.214 2.24619 4.56534 0
M  V30 594 H 58.612 -0.760062 5.60571 0
M  V30 595 H 57.169 -0.493366 6.4993 0
M  V30 596 N 60.6021 -1.18246 1.0419 0
M  V30 597 C 61.8491 -1.88257 0.746017 0
M  V30 598 C 62.1771 -1.80429 -0.726331 0
M  V30 599 O 61.4321 -1.2 -1.54591 0
M  V30 600 C 61.7311 -3.38082 1.15911 0
M  V30 601 C 61.3971 -3.66114 2.63195 0
M  V30 602 C 60.0591 -3.73474 3.03432 0
M  V30 603 C 62.4111 -3.78398 3.5842 0
M  V30 604 C 59.7391 -3.90599 4.37778 0
M  V30 605 C 62.0911 -3.97039 4.92487 0
M  V30 606 C 60.7551 -4.02635 5.32392 0
M  V30 607 H 60.0251 -0.688883 0.272987 0
M  V30 608 H 62.6721 -1.3995 1.30715 0
M  V30 609 H 60.9771 -3.88377 0.516806 0
M  V30 610 H 62.6741 -3.90596 0.907516 0
M  V30 611 H 59.2641 -3.61003 2.3103 0
M  V30 612 H 63.4481 -3.72042 3.28479 0
M  V30 613 H 58.7041 -3.93175 4.68213 0
M  V30 614 H 62.8781 -4.05486 5.66175 0
M  V30 615 H 60.5051 -4.15657 6.36501 0
M  V30 616 N 62.0802 -0.821533 -1.34494 0
M  V30 617 C 63.0282 -0.230702 -2.31453 0
M  V30 618 C 64.0222 0.627793 -1.57338 0
M  V30 619 O 65.2282 0.519288 -1.72347 0
M  V30 620 H 61.6032 -0.0558577 -0.749923 0
M  V30 621 H 63.5742 -1.06332 -2.78812 0
M  V30 622 C 62.3232 0.59391 -3.4259 0
M  V30 623 H 61.6462 -0.0573588 -3.99759 0
M  V30 624 H 63.0862 0.973446 -4.12674 0
M  V30 625 C 61.5452 1.76568 -2.86924 0
M  V30 626 O 62.0752 2.8638 -2.81691 0
M  V30 627 N 60.2812 1.58198 -2.43766 0
M  V30 628 H 59.8282 0.68872 -2.48222 0
M  V30 629 H 59.7862 2.36752 -2.06871 0
M  V30 630 N 63.5583 1.46682 -0.576371 0
M  V30 631 C 64.8063 2.02013 -0.0594163 0
M  V30 632 C 65.1273 1.45101 1.30271 0
M  V30 633 O 64.3973 0.633317 1.8538 0
M  V30 634 H 62.9773 0.746759 -0.0189745 0
M  V30 635 H 65.6393 1.79862 -0.750717 0
M  V30 636 H 64.7353 3.12097 0.014345 0
M  V30 637 N 65.0364 0.313813 1.54444 0
M  V30 638 C 66.2834 -0.291675 2.00388 0
M  V30 639 C 66.6114 -1.52904 1.2021 0
M  V30 640 O 65.8664 -1.93833 0.269707 0
M  V30 641 C 66.1654 -0.680386 3.50864 0
M  V30 642 C 65.8314 0.456699 4.48581 0
M  V30 643 C 64.4934 0.768824 4.75018 0
M  V30 644 C 66.8454 1.22098 5.06697 0
M  V30 645 C 64.1734 1.84812 5.56831 0
M  V30 646 C 66.5254 2.29029 5.89685 0
M  V30 647 C 65.1894 2.60834 6.14428 0
M  V30 648 H 64.4594 -0.106732 0.733273 0
M  V30 649 H 67.1064 0.43557 1.86481 0
M  V30 650 H 65.4114 -1.48791 3.62448 0
M  V30 651 H 67.1084 -1.16026 3.83847 0
M  V30 652 H 63.6984 0.203337 4.28117 0
M  V30 653 H 67.8824 0.993096 4.86263 0
M  V30 654 H 63.1384 2.09912 5.74236 0
M  V30 655 H 67.3124 2.887 6.33739 0
M  V30 656 H 64.9394 3.44596 6.77612 0
M  V30 657 N 66.5145 -1.57545 0.0417849 0
M  V30 658 C 67.7425 -1.96624 -0.643928 0
M  V30 659 C 68.1575 -0.918897 -1.64929 0
M  V30 660 O 67.5145 0.0979323 -1.82237 0
M  V30 661 C 67.5655 -3.35781 -1.33914 0
M  V30 662 O 67.2865 -4.365 -0.374048 0
M  V30 663 C 68.7875 -3.89566 -2.1155 0
M  V30 664 H 66.0075 -0.647316 -0.176702 0
M  V30 665 H 68.5515 -2.04229 0.105304 0
M  V30 666 H 66.7065 -3.29357 -2.03968 0
M  V30 667 H 67.1205 -5.17248 -0.869179 0
M  V30 668 H 68.5945 -4.89242 -2.55628 0
M  V30 669 H 69.0715 -3.24488 -2.9598 0
M  V30 670 H 69.6775 -3.99298 -1.46427 0
M  V30 671 N 67.9926 0.231505 -1.5589 0
M  V30 672 C 68.9396 1.28682 -1.91598 0
M  V30 673 C 69.9096 1.47071 -0.771974 0
M  V30 674 O 71.0946 1.60802 -1.027 0
M  V30 675 C 68.2346 2.6342 -2.22944 0
M  V30 676 C 67.3476 2.52912 -3.50228 0
M  V30 677 C 66.4826 3.80106 -3.7107 0
M  V30 678 C 65.5216 3.64279 -4.91902 0
M  V30 679 N 64.6586 4.834 -5.09184 0
M  V30 680 H 69.4986 0.975305 -2.81588 0
M  V30 681 H 67.0356 0.470299 -1.39379 0
M  V30 682 H 68.9936 3.41869 -2.39126 0
M  V30 683 H 67.6236 2.92687 -1.36139 0
M  V30 684 H 66.6756 1.6595 -3.42294 0
M  V30 685 H 67.9876 2.37133 -4.38827 0
M  V30 686 H 67.1416 4.66999 -3.87295 0
M  V30 687 H 65.8806 3.98799 -2.80733 0
M  V30 688 H 64.8856 2.7577 -4.75637 0
M  V30 689 H 66.1106 3.47067 -5.83714 0
M  V30 690 H 64.0566 5.02425 -4.21788 0
M  V30 691 H 63.9736 4.70311 -5.91898 0
M  V30 692 H 65.2416 5.71747 -5.29835 0
M  V30 693 N 69.4707 1.49531 0.497807 0
M  V30 694 C 70.7167 1.59415 1.25358 0
M  V30 695 C 71.0497 0.281422 1.9215 0
M  V30 696 O 70.3247 -0.715249 1.80871 0
M  V30 697 C 70.6077 2.75566 2.3181 0
M  V30 698 C 70.4607 4.16642 1.69498 0
M  V30 699 C 71.7797 2.87347 3.33346 0
M  V30 700 H 68.8987 0.580244 0.454408 0
M  V30 701 H 71.5407 1.81827 0.551262 0
M  V30 702 H 69.6907 2.56587 2.91711 0
M  V30 703 H 71.3627 4.47145 1.13399 0
M  V30 704 H 69.6057 4.22141 0.998978 0
M  V30 705 H 70.2767 4.93792 2.46725 0
M  V30 706 H 72.7527 3.04634 2.83438 0
M  V30 707 H 71.6287 3.70289 4.05188 0
M  V30 708 H 71.8897 1.96834 3.95865 0
M  V30 709 N 70.9488 -0.749086 1.3866 0
M  V30 710 C 72.1978 -1.50371 1.3443 0
M  V30 711 C 72.5108 -1.95503 -0.0616397 0
M  V30 712 O 73.7168 -2.70554 -0.226489 0
M  V30 713 C 72.1728 -2.71644 2.36088 0
M  V30 714 C 71.7808 -2.3352 3.82325 0
M  V30 715 C 73.5248 -3.49518 2.40909 0
M  V30 716 C 71.4318 -3.51431 4.75658 0
M  V30 717 H 70.3618 -0.564628 0.499712 0
M  V30 718 H 73.0128 -0.818449 1.64237 0
M  V30 719 H 71.3948 -3.42175 1.9933 0
M  V30 720 H 72.5688 -1.70627 4.28046 0
M  V30 721 H 70.8838 -1.6877 3.80665 0
M  V30 722 H 73.4808 -4.37197 3.07836 0
M  V30 723 H 73.8238 -3.90992 1.42937 0
M  V30 724 H 74.3568 -2.86005 2.76489 0
M  V30 725 H 71.0958 -3.15019 5.74842 0
M  V30 726 H 70.6158 -4.13352 4.34627 0
M  V30 727 H 72.2948 -4.17953 4.93887 0
M  V30 728 N 72.4269 -1.23603 -0.977757 0
M  V30 729 C 73.3569 -1.04401 -2.0886 0
M  V30 730 C 74.3379 0.0399052 -1.70053 0
M  V30 731 O 75.5229 -0.125246 -1.93796 0
M  V30 732 C 72.6529 -0.637269 -3.41403 0
M  V30 733 C 71.6069 -1.66883 -3.94124 0
M  V30 734 C 70.9329 -1.11745 -5.22893 0
M  V30 735 C 72.2329 -3.06247 -4.23096 0
M  V30 736 H 73.9269 -1.97316 -2.25182 0
M  V30 737 H 71.4729 -0.950096 -1.08209 0
M  V30 738 H 73.4259 -0.48998 -4.18542 0
M  V30 739 H 72.1499 0.327557 -3.24953 0
M  V30 740 H 70.8089 -1.80416 -3.19133 0
M  V30 741 H 70.4569 -0.143527 -5.02795 0
M  V30 742 H 70.1569 -1.80672 -5.59134 0
M  V30 743 H 71.6809 -0.982067 -6.02651 0
M  V30 744 H 73.0949 -2.96001 -4.90975 0
M  V30 745 H 71.4919 -3.72436 -4.70544 0
M  V30 746 H 72.5619 -3.55041 -3.30263 0
M  V30 747 N 73.905 1.17692 -1.04816 0
M  V30 748 C 75.151 1.88137 -0.75711 0
M  V30 749 C 75.484 1.80604 0.713841 0
M  V30 750 O 74.759 1.21146 1.52164 0
M  V30 751 C 75.042 3.38318 -1.2334 0
M  V30 752 C 74.895 3.54622 -2.76701 0
M  V30 753 C 76.214 4.32214 -0.829415 0
M  V30 754 H 73.333 0.683163 -0.27651 0
M  V30 755 H 75.975 1.38424 -1.30149 0
M  V30 756 H 74.125 3.80787 -0.770286 0
M  V30 757 H 75.797 3.21194 -3.31107 0
M  V30 758 H 74.04 2.97026 -3.16161 0
M  V30 759 H 74.711 4.60028 -3.05088 0
M  V30 760 H 77.187 3.97565 -1.22805 0
M  V30 761 H 76.063 5.35838 -1.19033 0
M  V30 762 H 76.324 4.41294 0.266891 0
M  V30 763 N 75.3831 0.828654 1.34056 0
M  V30 764 C 76.3461 0.259927 2.27721 0
M  V30 765 C 77.3461 -0.565478 1.50529 0
M  V30 766 O 78.5361 -0.38075 1.69988 0
M  V30 767 C 75.6681 -0.634944 3.34935 0
M  V30 768 H 76.8611 1.0863 2.79534 0
M  V30 769 H 74.4141 0.600951 1.44285 0
M  V30 770 H 75.1491 -1.48416 2.88346 0
M  V30 771 H 74.9341 -0.0444999 3.92075 0
M  V30 772 H 76.4241 -1.02648 4.04788 0
M  V30 773 N 76.8612 -1.46375 0.584142 0
M  V30 774 C 78.2722 -1.86031 0.157959 0
M  V30 775 C 78.6232 -1.48753 -1.27933 0
M  V30 776 O 77.7482 -0.903098 -1.96655 0
M  V30 777 C 78.3432 -3.37642 0.279892 0
M  V30 778 C 76.9022 -3.76289 -0.09143 0
M  V30 779 C 76.0492 -2.7039 0.615178 0
M  V30 780 H 79.0002 -1.37509 0.792274 0
M  V30 781 H 79.0212 -3.77275 -0.494364 0
M  V30 782 H 78.5332 -3.64742 1.32607 0
M  V30 783 H 76.6342 -3.54806 -1.13769 0
M  V30 784 H 76.7472 -4.78246 0.285886 0
M  V30 785 H 75.1112 -2.5464 0.0552833 0
M  V30 786 H 75.8942 -3.0033 1.66303 0
M  V30 787 N 78.3393 -0.321999 -1.54275 0
M  V30 788 C 79.5673 0.283052 -2.04955 0
M  V30 789 C 79.9823 1.45904 -1.19823 0
M  V30 790 O 79.3393 1.81063 -0.228545 0
M  V30 791 C 79.3903 0.719028 -3.54277 0
M  V30 792 O 79.1113 -0.410175 -4.36176 0
M  V30 793 C 80.6123 1.38705 -4.21041 0
M  V30 794 H 77.8323 0.0584616 -0.668448 0
M  V30 795 H 80.3763 -0.467734 -1.99079 0
M  V30 796 H 78.5313 1.41979 -3.60445 0
M  V30 797 H 78.9453 -0.0669416 -5.24457 0
M  V30 798 H 80.4193 1.64306 -5.2698 0
M  V30 799 H 80.8963 2.33385 -3.72059 0
M  V30 800 H 81.5023 0.728906 -4.19007 0
M  V30 801 N 79.8174 1.5752 -0.0501392 0
M  V30 802 C 80.7804 2.1037 0.909786 0
M  V30 803 C 81.7804 1.02308 1.24056 0
M  V30 804 O 82.9704 1.28385 1.17741 0
M  V30 805 C 80.1024 2.58708 2.21998 0
M  V30 806 H 81.2954 2.96479 0.451665 0
M  V30 807 H 78.8484 1.55038 0.198248 0
M  V30 808 H 79.5834 1.75989 2.72394 0
M  V30 809 H 79.3684 3.37675 1.99295 0
M  V30 810 H 80.8584 2.99747 2.9076 0
M  V30 811 N 81.2955 -0.223234 1.56011 0
M  V30 812 C 82.5435 -0.946003 1.78592 0
M  V30 813 C 82.8645 -1.84936 0.618349 0
M  V30 814 O 82.1345 -1.92473 -0.364833 0
M  V30 815 H 80.7145 -0.352298 0.658707 0
M  V30 816 H 83.3765 -0.235494 1.93472 0
M  V30 817 H 82.4725 -1.55381 2.70672 0
M  V30 818 N 82.7736 -1.49793 -0.48987 0
M  V30 819 C 83.7366 -1.66752 -1.57246 0
M  V30 820 C 84.7366 -0.538867 -1.51502 0
M  V30 821 O 85.9266 -0.805545 -1.54456 0
M  V30 822 C 83.0586 -1.67528 -2.96896 0
M  V30 823 H 84.2516 -2.63321 -1.43534 0
M  V30 824 H 81.8046 -1.38992 -0.714914 0
M  V30 825 H 82.5396 -0.725837 -3.16073 0
M  V30 826 H 82.3246 -2.49504 -3.02473 0
M  V30 827 H 83.8146 -1.82667 -3.7553 0
M  V30 828 N 84.2517 0.741722 -1.39055 0
M  V30 829 C 85.4997 1.49818 -1.35643 0
M  V30 830 C 85.8207 1.94938 0.0491642 0
M  V30 831 O 85.0907 1.68505 0.999141 0
M  V30 832 H 83.6707 0.555755 -0.499144 0
M  V30 833 H 86.3327 0.880957 -1.73854 0
M  V30 834 H 85.4287 2.38348 -2.01486 0
M  V30 835 N 85.7298 1.2412 0.971189 0
M  V30 836 C 87.0068 0.986867 1.6888 0
M  V30 837 C 87.3868 -0.491857 2.0529 0
M  V30 838 O 86.7348 -1.46531 1.75331 0
M  V30 839 C 86.9448 1.9063 2.92338 0
M  V30 840 C 88.2928 2.17515 3.64654 0
M  V30 841 O 89.3168 1.88254 3.02388 0
M  V30 842 O 88.1758 2.6719 4.7673 0
M  V30 843 H 85.2698 0.372944 0.738134 0
M  V30 844 H 87.8158 1.35203 1.02559 0
M  V30 845 H 86.5878 2.90552 2.62097 0
M  V30 846 H 86.2108 1.54408 3.66393 0
M  V30 847 N 87.2079 -1.17134 1.05439 0
M  V30 848 C 88.1379 -2.2342 0.678649 0
M  V30 849 C 89.1189 -1.66971 -0.32476 0
M  V30 850 O 90.3039 -1.93149 -0.201802 0
M  V30 851 C 87.4339 -3.47256 0.0552099 0
M  V30 852 C 86.3879 -4.16543 0.98365 0
M  V30 853 C 85.7139 -5.34231 0.223961 0
M  V30 854 C 87.0139 -4.68495 2.3089 0
M  V30 855 H 88.7079 -2.55105 1.56722 0
M  V30 856 H 86.2539 -1.2262 0.754998 0
M  V30 857 H 88.2069 -4.20828 -0.21946 0
M  V30 858 H 86.9309 -3.14846 -0.868319 0
M  V30 859 H 85.5899 -3.44887 1.24293 0
M  V30 860 H 85.2379 -4.98071 -0.702412 0
M  V30 861 H 84.9379 -5.81527 0.842627 0
M  V30 862 H 86.4619 -6.10585 -0.0433671 0
M  V30 863 H 87.8759 -5.33691 2.09396 0
M  V30 864 H 86.2729 -5.26379 2.88176 0
M  V30 865 H 87.3429 -3.85169 2.94572 0
M  V30 866 N 88.686 -0.835752 -1.33615 0
M  V30 867 C 89.618 -0.224151 -2.28101 0
M  V30 868 C 90.631 0.593331 -1.51603 0
M  V30 869 O 91.82 0.420911 -1.73466 0
M  V30 870 C 88.92 0.703309 -3.31522 0
M  V30 871 C 88.093 -0.0741528 -4.37337 0
M  V30 872 C 87.152 0.776176 -5.20444 0
M  V30 873 O 86.178 0.216506 -5.68788 0
M  V30 874 N 87.38 2.09401 -5.41416 0
M  V30 875 H 90.145 -1.03598 -2.81225 0
M  V30 876 H 87.706 -0.69392 -1.46275 0
M  V30 877 H 89.698 1.27707 -3.84022 0
M  V30 878 H 88.268 1.41585 -2.78698 0
M  V30 879 H 87.488 -0.82928 -3.85378 0
M  V30 880 H 88.776 -0.608863 -5.05144 0
M  V30 881 H 88.174 2.57229 -5.03835 0
M  V30 882 H 86.731 2.61633 -5.96985 0
M  V30 883 N 90.1641 1.46063 -0.591896 0
M  V30 884 C 91.3921 2.06717 -0.0868936 0
M  V30 885 C 91.8071 1.43916 1.22203 0
M  V30 886 O 91.1641 0.547698 1.74088 0
M  V30 887 C 91.2151 3.6142 0.0758725 0
M  V30 888 O 90.9361 4.21874 -1.18126 0
M  V30 889 C 92.4371 4.39025 0.61416 0
M  V30 890 H 89.6571 0.668162 -0.0616518 0
M  V30 891 H 92.2011 1.8755 -0.815175 0
M  V30 892 H 90.3561 3.79983 0.754413 0
M  V30 893 H 90.7701 5.14861 -1.00092 0
M  V30 894 H 92.2441 5.4783 0.677193 0
M  V30 895 H 92.7211 4.07708 1.63312 0
M  V30 896 H 93.3271 4.2529 -0.0298142 0
M  V30 897 N 91.6422 0.330177 1.54103 0
M  V30 898 C 92.9192 -0.325007 1.92881 0
M  V30 899 C 93.2992 -1.6934 1.26045 0
M  V30 900 O 92.6472 -2.24855 0.406526 0
M  V30 901 C 92.8572 -0.410634 3.46576 0
M  V30 902 C 94.2052 -0.667801 4.19316 0
M  V30 903 O 95.2292 -0.49329 3.52768 0
M  V30 904 O 94.0882 -1.00491 5.37181 0
M  V30 905 H 91.1822 -0.186873 0.80561 0
M  V30 906 H 93.7282 0.380376 1.65382 0
M  V30 907 H 92.5002 0.550164 3.87413 0
M  V30 908 H 92.1232 -1.16333 3.802 0
M  V30 909 N 93.1203 -1.57491 0.0584922 0
M  V30 910 C 94.3663 -1.94081 -0.608617 0
M  V30 911 C 94.7213 -0.937438 -1.68017 0
M  V30 912 O 94.0143 0.0423034 -1.91553 0
M  V30 913 C 94.2083 -3.3513 -1.24188 0
M  V30 914 C 94.0373 -4.49095 -0.233187 0
M  V30 915 C 92.8073 -5.04988 0.177439 0
M  V30 916 C 95.0053 -5.1162 0.524306 0
M  V30 917 N 92.9873 -6.02487 1.17823 0
M  V30 918 C 94.3583 -6.04493 1.37796 0
M  V30 919 C 96.4133 -4.94489 0.581822 0
M  V30 920 C 95.1163 -6.82075 2.28399 0
M  V30 921 C 97.1423 -5.72703 1.47531 0
M  V30 922 C 96.5043 -6.65214 2.31667 0
M  V30 923 H 92.6033 -0.75752 -0.194134 0
M  V30 924 H 95.1873 -1.94248 0.132533 0
M  V30 925 H 93.3583 -3.35726 -1.95302 0
M  V30 926 H 95.0903 -3.5899 -1.86838 0
M  V30 927 H 91.8453 -4.73165 -0.203004 0
M  V30 928 H 92.2693 -6.55933 1.67573 0
M  V30 929 H 96.9113 -4.22765 -0.054443 0
M  V30 930 H 94.6293 -7.53085 2.93067 0
M  V30 931 H 98.2153 -5.61472 1.52448 0
M  V30 932 H 97.0953 -7.24679 2.99683 0
M  V30 933 N 94.5984 0.214957 -1.56127 0
M  V30 934 C 95.5084 1.28727 -1.96129 0
M  V30 935 C 96.5244 1.50916 -0.866044 0
M  V30 936 O 97.7004 1.63918 -1.17016 0
M  V30 937 C 94.7654 2.61569 -2.27558 0
M  V30 938 C 93.8264 2.47625 -3.50685 0
M  V30 939 C 93.0594 3.74132 -3.80606 0
M  V30 940 O 93.2824 4.77438 -3.12104 0
M  V30 941 O 92.2164 3.70849 -4.74083 0
M  V30 942 H 96.0424 0.977855 -2.87527 0
M  V30 943 H 93.6274 0.418358 -1.43423 0
M  V30 944 H 95.5094 3.40012 -2.48938 0
M  V30 945 H 94.1844 2.92178 -1.39332 0
M  V30 946 H 93.0914 1.67361 -3.34576 0
M  V30 947 H 94.4244 2.21954 -4.39315 0
M  V30 948 N 96.0765 1.50051 0.48192 0
M  V30 949 C 97.3535 1.51009 1.2432 0
M  V30 950 C 97.7335 0.248587 2.09631 0
M  V30 951 O 97.0815 -0.768409 2.15192 0
M  V30 952 C 97.2915 2.79981 2.08355 0
M  V30 953 C 98.6395 3.3022 2.66908 0
M  V30 954 O 99.6635 2.81228 2.18607 0
M  V30 955 O 98.5225 4.15595 3.54884 0
M  V30 956 H 95.6165 0.605239 0.563573 0
M  V30 957 H 98.1625 1.62332 0.494627 0
M  V30 958 H 96.9345 3.63275 1.45419 0
M  V30 959 H 96.5575 2.7161 2.90368 0
M  V30 960 N 97.5546 -0.734337 1.39446 0
M  V30 961 C 98.8016 -1.49391 1.36706 0
M  V30 962 C 99.1296 -1.94465 -0.0367813 0
M  V30 963 O 98.3846 -1.67154 -1.01774 0
M  V30 964 C 98.6836 -2.74711 2.28623 0
M  V30 965 C 98.3496 -2.48501 3.76242 0
M  V30 966 C 97.0116 -2.41062 4.16464 0
M  V30 967 C 99.3636 -2.26098 4.69606 0
M  V30 968 C 96.6916 -2.09262 5.48112 0
M  V30 969 C 99.0436 -1.95814 6.01531 0
M  V30 970 C 97.7076 -1.86845 6.40816 0
M  V30 971 H 96.9776 -0.546661 0.500243 0
M  V30 972 H 99.6246 -0.842788 1.71957 0
M  V30 973 H 97.9296 -3.44569 1.86492 0
M  V30 974 H 99.6266 -3.32741 2.23796 0
M  V30 975 H 96.2166 -2.55169 3.44364 0
M  V30 976 H 100.401 -2.30812 4.39363 0
M  V30 977 H 95.6566 -2.00841 5.77471 0
M  V30 978 H 99.8306 -1.77488 6.73403 0
M  V30 979 H 97.4576 -1.6197 7.42745 0
M  V30 980 N 99.0327 -1.24633 -0.964593 0
M  V30 981 C 99.9627 -1.06611 -2.07741 0
M  V30 982 C 100.944 0.0218666 -1.70086 0
M  V30 983 O 102.129 -0.145793 -1.93652 0
M  V30 984 C 99.2587 -0.673444 -3.40708 0
M  V30 985 C 98.2127 -1.71054 -3.92332 0
M  V30 986 C 97.5387 -1.17285 -5.21678 0
M  V30 987 C 98.8387 -3.10718 -4.19824 0
M  V30 988 H 100.533 -1.99693 -2.23076 0
M  V30 989 H 98.0787 -0.96152 -1.07195 0
M  V30 990 H 100.032 -0.534345 -4.17998 0
M  V30 991 H 98.7557 0.293073 -3.25282 0
M  V30 992 H 97.4147 -1.83791 -3.17201 0
M  V30 993 H 97.0627 -0.196847 -5.02615 0
M  V30 994 H 96.7627 -1.86592 -5.57187 0
M  V30 995 H 98.2867 -1.04593 -6.01575 0
M  V30 996 H 99.7007 -3.01192 -4.87808 0
M  V30 997 H 98.0977 -3.77406 -4.66567 0
M  V30 998 H 99.1677 -3.58524 -3.26479 0
M  V30 999 N 100.511 1.16574 -1.06058 0
M  V30 1000 C 101.759 1.86677 -0.77434 0
M  V30 1001 C 102.08 1.81959 0.701147 0
M  V30 1002 O 101.35 1.2515 1.50713 0
M  V30 1003 H 99.9298 0.691134 -0.283449 0
M  V30 1004 H 102.592 1.41378 -1.34158 0
M  V30 1005 H 101.688 2.92181 -1.09711 0
M  V30 1006 N 101.989 0.842826 1.3317 0
M  V30 1007 C 103.217 0.454055 2.01856 0
M  V30 1008 C 103.632 -0.94587 1.63397 0
M  V30 1009 O 102.989 -1.61534 0.849302 0
M  V30 1010 C 103.04 0.569715 3.56982 0
M  V30 1011 O 102.761 1.91448 3.94055 0
M  V30 1012 C 104.262 0.178412 4.42941 0
M  V30 1013 H 101.482 0.17979 0.646465 0
M  V30 1014 H 104.026 1.1365 1.70012 0
M  V30 1015 H 102.181 -0.0648587 3.87346 0
M  V30 1016 H 102.595 1.90282 4.88767 0
M  V30 1017 H 104.069 0.310376 5.51127 0
M  V30 1018 H 104.546 -0.880056 4.30293 0
M  V30 1019 H 105.152 0.787579 4.17944 0
M  V30 1020 N 103.467 -1.45747 0.599634 0
M  V30 1021 C 104.397 -2.33235 -0.111306 0
M  V30 1022 C 105.378 -1.46359 -0.866781 0
M  V30 1023 O 106.563 -1.75146 -0.838904 0
M  V30 1024 C 103.693 -3.28932 -1.11451 0
M  V30 1025 C 102.647 -4.25381 -0.472772 0
M  V30 1026 C 101.973 -5.1071 -1.58365 0
M  V30 1027 C 103.273 -5.18831 0.600948 0
M  V30 1028 H 104.967 -2.92927 0.61919 0
M  V30 1029 H 102.513 -1.40857 0.299215 0
M  V30 1030 H 104.466 -3.89002 -1.62036 0
M  V30 1031 H 103.19 -2.67381 -1.8755 0
M  V30 1032 H 101.849 -3.66598 0.0121472 0
M  V30 1033 H 101.497 -4.45533 -2.33473 0
M  V30 1034 H 101.197 -5.7604 -1.15982 0
M  V30 1035 H 102.721 -5.73647 -2.09194 0
M  V30 1036 H 104.135 -5.73019 0.179491 0
M  V30 1037 H 102.532 -5.92595 0.946076 0
M  V30 1038 H 103.602 -4.6174 1.48068 0
M  V30 1039 N 104.945 -0.338344 -1.53925 0
M  V30 1040 C 105.855 0.529421 -2.28548 0
M  V30 1041 C 106.871 1.11645 -1.3346 0
M  V30 1042 O 108.047 1.13325 -1.66492 0
M  V30 1043 C 105.112 1.66713 -3.03987 0
M  V30 1044 C 104.173 1.11041 -4.14691 0
M  V30 1045 C 103.406 2.19389 -4.86522 0
M  V30 1046 O 103.629 3.40013 -4.57982 0
M  V30 1047 O 102.563 1.83976 -5.73094 0
M  V30 1048 H 106.389 -0.0770399 -3.03602 0
M  V30 1049 H 103.974 -0.103555 -1.49041 0
M  V30 1050 H 105.856 2.32918 -3.5118 0
M  V30 1051 H 104.531 2.25949 -2.31794 0
M  V30 1052 H 103.438 0.413024 -3.71813 0
M  V30 1053 H 104.771 0.562975 -4.8897 0
M  V30 1054 N 106.423 1.57458 -0.0668435 0
M  V30 1055 C 107.386 2.11323 0.887422 0
M  V30 1056 C 108.386 1.03618 1.22964 0
M  V30 1057 O 109.576 1.29626 1.16373 0
M  V30 1058 C 106.708 2.61048 2.19242 0
M  V30 1059 H 107.901 2.96942 0.420194 0
M  V30 1060 H 105.454 1.55239 0.181793 0
M  V30 1061 H 106.189 1.78868 2.70512 0
M  V30 1062 H 105.974 3.39769 1.95702 0
M  V30 1063 H 107.464 3.02814 2.87565 0
M  V30 1064 N 107.901 -0.206675 1.56239 0
M  V30 1065 C 109.126 -0.949474 1.8439 0
M  V30 1066 C 109.551 -1.76549 0.649016 0
M  V30 1067 O 108.909 -1.76782 -0.402231 0
M  V30 1068 C 108.957 -1.83078 3.10668 0
M  V30 1069 O 108.061 -2.9281 2.90407 0
M  V30 1070 H 107.402 -0.268033 0.607499 0
M  V30 1071 H 109.932 -0.215488 2.03462 0
M  V30 1072 H 109.942 -2.2377 3.41161 0
M  V30 1073 H 108.617 -1.23112 3.97261 0
M  V30 1074 H 107.194 -2.55956 2.71184 0
M  V30 1075 N 109.379 -1.50304 -0.473955 0
M  V30 1076 C 110.656 -1.51667 -1.23518 0
M  V30 1077 C 111.036 -0.259701 -2.09496 0
M  V30 1078 O 110.384 0.756986 -2.15597 0
M  V30 1079 C 110.594 -2.81082 -2.06868 0
M  V30 1080 C 111.942 -3.31631 -2.65153 0
M  V30 1081 O 112.966 -2.82384 -2.17113 0
M  V30 1082 O 111.825 -4.17471 -3.52675 0
M  V30 1083 H 108.919 -0.60822 -0.560355 0
M  V30 1084 H 111.465 -1.62592 -0.486011 0
M  V30 1085 H 110.237 -3.64041 -1.4349 0
M  V30 1086 H 109.86 -2.73146 -2.88924 0
M  V30 1087 N 110.857 0.726932 -1.39834 0
M  V30 1088 C 112.104 1.48664 -1.37496 0
M  V30 1089 C 112.432 1.94482 0.0264678 0
M  V30 1090 O 111.687 1.67692 1.00886 0
M  V30 1091 C 111.986 2.73495 -2.30077 0
M  V30 1092 C 111.652 2.46502 -3.77555 0
M  V30 1093 C 110.314 2.3885 -4.17737 0
M  V30 1094 C 112.666 2.23604 -4.70798 0
M  V30 1095 C 109.994 2.06352 -5.49214 0
M  V30 1096 C 112.346 1.92622 -6.02561 0
M  V30 1097 C 111.01 1.83444 -6.41798 0
M  V30 1098 H 110.28 0.544001 -0.503135 0
M  V30 1099 H 112.927 0.833657 -1.72402 0
M  V30 1100 H 111.232 3.43575 -1.88317 0
M  V30 1101 H 112.929 3.31549 -2.25558 0
M  V30 1102 H 109.519 2.5334 -3.45712 0
M  V30 1103 H 113.703 2.28479 -4.40581 0
M  V30 1104 H 108.959 1.97776 -5.78528 0
M  V30 1105 H 113.133 1.73914 -6.74334 0
M  V30 1106 H 110.76 1.58029 -7.43593 0
M  V30 1107 N 112.336 1.25143 0.95797 0
M  V30 1108 C 113.299 1.05321 2.03569 0
M  V30 1109 C 114.299 0.007152 1.60798 0
M  V30 1110 O 115.489 0.24903 1.72411 0
M  V30 1111 C 112.621 0.598394 3.35607 0
M  V30 1112 H 113.814 2.00986 2.22586 0
M  V30 1113 H 111.367 1.07502 1.13459 0
M  V30 1114 H 112.102 -0.361014 3.22284 0
M  V30 1115 H 111.887 1.35351 3.67998 0
M  V30 1116 H 113.377 0.48104 4.1482 0
M  V30 1117 N 113.814 -1.1601 1.06675 0
M  V30 1118 C 114.762 -2.22586 0.675157 0
M  V30 1119 C 115.756 -1.66525 -0.310766 0
M  V30 1120 O 116.962 -1.79145 -0.175215 0
M  V30 1121 H 113.337 -0.724855 0.200223 0
M  V30 1122 H 115.308 -2.52899 1.58381 0
M  V30 1123 C 114.057 -3.47604 0.0817162 0
M  V30 1124 H 113.38 -3.91058 0.831484 0
M  V30 1125 H 114.82 -4.23718 -0.154708 0
M  V30 1126 C 113.279 -3.15718 -1.17576 0
M  V30 1127 O 113.809 -3.31878 -2.26318 0
M  V30 1128 N 112.015 -2.69816 -1.07923 0
M  V30 1129 H 111.562 -2.56866 -0.194293 0
M  V30 1130 H 111.52 -2.48855 -1.92141 0
M  V30 1131 N 115.292 -0.849877 -1.32721 0
M  V30 1132 C 116.239 -0.289033 -2.28983 0
M  V30 1133 C 117.209 0.601324 -1.54833 0
M  V30 1134 O 118.394 0.537253 -1.8308 0
M  V30 1135 C 115.534 0.520623 -3.4115 0
M  V30 1136 C 114.647 -0.394989 -4.3019 0
M  V30 1137 C 113.782 0.426834 -5.29482 0
M  V30 1138 C 112.821 -0.486476 -6.10164 0
M  V30 1139 N 111.958 0.297879 -7.01468 0
M  V30 1140 H 116.798 -1.11519 -2.76347 0
M  V30 1141 H 114.335 -0.56138 -1.35967 0
M  V30 1142 H 116.293 1.00563 -4.04899 0
M  V30 1143 H 114.923 1.31165 -2.9495 0
M  V30 1144 H 113.975 -0.99836 -3.67065 0
M  V30 1145 H 115.287 -1.09612 -4.86607 0
M  V30 1146 H 114.441 0.975205 -5.98811 0
M  V30 1147 H 113.18 1.16136 -4.73671 0
M  V30 1148 H 112.185 -1.04677 -5.39743 0
M  V30 1149 H 113.41 -1.21953 -6.6806 0
M  V30 1150 H 111.356 1.01558 -6.48091 0
M  V30 1151 H 111.273 -0.344318 -7.55216 0
M  V30 1152 H 112.541 0.828131 -7.75089 0
M  V30 1153 N 116.77 1.45427 -0.607355 0
M  V30 1154 C 117.998 2.06614 -0.108814 0
M  V30 1155 C 118.413 1.45204 1.2067 0
M  V30 1156 O 117.77 0.566132 1.73497 0
M  V30 1157 C 117.821 3.61481 0.0375347 0
M  V30 1158 O 117.542 4.20598 -1.22593 0
M  V30 1159 C 119.043 4.39652 0.567561 0
M  V30 1160 H 116.263 0.66747 -0.0687351 0
M  V30 1161 H 118.807 1.86675 -0.835022 0
M  V30 1162 H 116.962 3.80762 0.714068 0
M  V30 1163 H 117.376 5.1377 -1.05547 0
M  V30 1164 H 118.85 5.48518 0.61905 0
M  V30 1165 H 119.327 4.09417 1.58978 0
M  V30 1166 H 119.933 4.25234 -0.0749202 0
M  V30 1167 N 118.248 0.346503 1.53744 0
M  V30 1168 C 119.497 -0.250122 2.00143 0
M  V30 1169 C 119.81 -1.51418 1.23822 0
M  V30 1170 O 121.016 -2.18823 1.60713 0
M  V30 1171 C 119.472 -0.496252 3.56462 0
M  V30 1172 C 119.08 0.752077 4.41642 0
M  V30 1173 C 120.824 -1.05157 4.11269 0
M  V30 1174 C 118.731 0.476583 5.89477 0
M  V30 1175 H 117.661 -0.0972409 0.747703 0
M  V30 1176 H 120.312 0.46229 1.77581 0
M  V30 1177 H 118.694 -1.26944 3.75102 0
M  V30 1178 H 119.868 1.5266 4.34778 0
M  V30 1179 H 118.183 1.22925 3.97842 0
M  V30 1180 H 120.78 -1.27269 5.19333 0
M  V30 1181 H 121.123 -2.00799 3.64672 0
M  V30 1182 H 121.656 -0.339019 3.96353 0
M  V30 1183 H 118.395 1.4028 6.40314 0
M  V30 1184 H 117.915 -0.259794 5.99237 0
M  V30 1185 H 119.594 0.0949315 6.4693 0
M  V30 1186 N 119.726 -1.57421 0.075193 0
M  V30 1187 C 120.974 -1.93236 -0.591974 0
M  V30 1188 C 121.295 -0.956241 -1.69944 0
M  V30 1189 O 120.565 -0.00494792 -1.95899 0
M  V30 1190 H 119.145 -0.713355 -0.22166 0
M  V30 1191 H 121.807 -1.9444 0.133848 0
M  V30 1192 H 120.903 -2.95131 -1.01509 0
M  V30 1193 N 121.204 0.198386 -1.56346 0
M  V30 1194 C 122.134 1.24865 -1.9731 0
M  V30 1195 C 123.115 1.47651 -0.844576 0
M  V30 1196 O 124.3 1.59444 -1.10866 0
M  V30 1197 C 121.43 2.59358 -2.30977 0
M  V30 1198 C 120.384 2.5119 -3.46537 0
M  V30 1199 C 119.71 3.89926 -3.65871 0
M  V30 1200 C 121.01 2.03977 -4.80823 0
M  V30 1201 H 122.704 0.908252 -2.85291 0
M  V30 1202 H 120.25 0.435462 -1.37258 0
M  V30 1203 H 122.203 3.33011 -2.58228 0
M  V30 1204 H 120.927 2.95132 -1.39874 0
M  V30 1205 H 119.586 1.79993 -3.19371 0
M  V30 1206 H 119.234 4.23046 -2.72105 0
M  V30 1207 H 118.934 3.85336 -4.4361 0
M  V30 1208 H 120.458 4.65205 -3.95495 0
M  V30 1209 H 121.872 2.67386 -5.07127 0
M  V30 1210 H 120.269 2.10397 -5.62008 0
M  V30 1211 H 121.339 0.992861 -4.74626 0
M  V30 1212 N 122.682 1.50554 0.465978 0
M  V30 1213 C 123.928 1.62038 1.21949 0
M  V30 1214 C 124.261 0.322116 1.9151 0
M  V30 1215 O 123.536 -0.676723 1.82348 0
M  V30 1216 C 123.819 2.80421 2.25912 0
M  V30 1217 C 123.672 4.20144 1.60622 0
M  V30 1218 C 124.991 2.94354 3.27176 0
M  V30 1219 H 122.11 0.589752 0.441998 0
M  V30 1220 H 124.752 1.82956 0.51257 0
M  V30 1221 H 122.902 2.62717 2.86203 0
M  V30 1222 H 124.574 4.49449 1.03889 0
M  V30 1223 H 122.817 4.24165 0.909211 0
M  V30 1224 H 123.488 4.98914 2.36196 0
M  V30 1225 H 125.964 3.10578 2.76913 0
M  V30 1226 H 124.84 3.788 3.97242 0
M  V30 1227 H 125.101 2.05186 3.916 0
M  V30 1228 N 124.16 -0.719506 1.40217 0
M  V30 1229 C 125.408 -1.47641 1.3801 0
M  V30 1230 C 125.729 -1.94992 -0.018145 0
M  V30 1231 O 124.999 -1.70073 -0.972207 0
M  V30 1232 H 123.579 -0.547744 0.507923 0
M  V30 1233 H 126.241 -0.853187 1.75233 0
M  V30 1234 H 125.337 -2.35112 2.05253 0
M  V30 1235 N 125.638 -1.25649 -0.95132 0
M  V30 1236 C 126.568 -1.08808 -2.06599 0
M  V30 1237 C 127.549 0.00382547 -1.701 0
M  V30 1238 O 128.734 -0.166325 -1.93486 0
M  V30 1239 C 125.864 -0.709542 -3.39975 0
M  V30 1240 C 124.818 -1.75206 -3.90496 0
M  V30 1241 C 124.144 -1.22811 -5.20405 0
M  V30 1242 C 125.444 -3.15153 -4.16504 0
M  V30 1243 H 127.138 -2.02048 -2.20946 0
M  V30 1244 H 124.684 -0.972835 -1.06169 0
M  V30 1245 H 126.637 -0.578649 -4.17408 0
M  V30 1246 H 125.361 0.258556 -3.25575 0
M  V30 1247 H 124.02 -1.87145 -3.15234 0
M  V30 1248 H 123.668 -0.250145 -5.02378 0
M  V30 1249 H 123.368 -1.92492 -5.55176 0
M  V30 1250 H 124.892 -1.10968 -6.00432 0
M  V30 1251 H 126.306 -3.06349 -4.84586 0
M  V30 1252 H 124.703 -3.82333 -4.62538 0
M  V30 1253 H 125.773 -3.61966 -3.22658 0
M  V30 1254 N 127.117 1.15442 -1.07289 0
M  V30 1255 C 128.365 1.85845 -0.794096 0
M  V30 1256 C 128.686 1.82692 0.681809 0
M  V30 1257 O 127.956 1.26741 1.49377 0
M  V30 1258 H 126.536 0.688089 -0.290763 0
M  V30 1259 H 129.198 1.39947 -1.3565 0
M  V30 1260 H 128.294 2.91001 -1.12804 0
M  V30 1261 N 128.595 0.856903 1.32268 0
M  V30 1262 C 129.872 0.382583 1.91822 0
M  V30 1263 C 130.252 -1.13407 1.78051 0
M  V30 1264 O 129.6 -1.95673 1.18001 0
M  V30 1265 C 129.81 0.849446 3.38505 0
M  V30 1266 C 131.158 0.867936 4.15634 0
M  V30 1267 O 132.182 0.794232 3.47232 0
M  V30 1268 O 131.041 0.972286 5.37781 0
M  V30 1269 H 128.135 0.112014 0.819379 0
M  V30 1270 H 130.681 0.943952 1.41024 0
M  V30 1271 H 129.453 1.89267 3.42482 0
M  V30 1272 H 129.076 0.265652 3.96712 0
M  V30 1273 N 130.073 -1.45103 0.615059 0
M  V30 1274 C 131.005 -2.28786 -0.13762 0
M  V30 1275 C 132.018 -1.40376 -0.824525 0
M  V30 1276 O 133.207 -1.64681 -0.688662 0
M  V30 1277 C 130.307 -3.16322 -1.21628 0
M  V30 1278 C 129.48 -4.33054 -0.615039 0
M  V30 1279 C 128.539 -5.01743 -1.58556 0
M  V30 1280 O 127.565 -5.58293 -1.10895 0
M  V30 1281 N 128.767 -5.01714 -2.91998 0
M  V30 1282 H 131.532 -2.94025 0.580483 0
M  V30 1283 H 129.093 -1.55373 0.45507 0
M  V30 1284 H 131.085 -3.59139 -1.86552 0
M  V30 1285 H 129.655 -2.52943 -1.83681 0
M  V30 1286 H 128.875 -3.93627 0.21245 0
M  V30 1287 H 130.163 -5.08431 -0.193704 0
M  V30 1288 H 129.561 -4.57075 -3.33316 0
M  V30 1289 H 128.118 -5.48371 -3.52325 0
M  V30 1290 N 131.551 -0.354651 -1.53558 0
M  V30 1291 C 132.828 0.294281 -1.93374 0
M  V30 1292 C 133.208 1.67313 -1.28723 0
M  V30 1293 O 132.556 2.24179 -0.442247 0
M  V30 1294 C 132.766 0.355445 -3.47185 0
M  V30 1295 C 134.114 0.601007 -4.20325 0
M  V30 1296 O 135.138 0.437106 -3.53508 0
M  V30 1297 O 133.997 0.919322 -5.38712 0
M  V30 1298 H 131.091 0.174033 -0.808481 0
M  V30 1299 H 133.637 -0.406638 -1.64756 0
M  V30 1300 H 132.409 -0.611729 -3.86489 0
M  V30 1301 H 132.032 1.1027 -3.82003 0
M  V30 1302 N 133.029 1.57378 -0.0835403 0
M  V30 1303 C 134.257 1.98263 0.59157 0
M  V30 1304 C 134.672 0.962302 1.62435 0
M  V30 1305 O 134.029 -0.049581 1.82433 0
M  V30 1306 C 134.08 3.39214 1.24965 0
M  V30 1307 O 133.801 4.37339 0.258186 0
M  V30 1308 C 135.302 3.95038 2.01147 0
M  V30 1309 H 132.522 0.651773 0.159477 0
M  V30 1310 H 135.066 2.03878 -0.159415 0
M  V30 1311 H 133.221 3.34649 1.95164 0
M  V30 1312 H 133.635 5.19371 0.731734 0
M  V30 1313 H 135.109 4.95848 2.42567 0
M  V30 1314 H 135.586 3.32222 2.87272 0
M  V30 1315 H 136.192 4.0304 1.35789 0
M  V30 1316 N 134.507 -0.190092 1.56449 0
M  V30 1317 C 135.737 -0.92443 1.84764 0
M  V30 1318 C 136.145 -1.77146 0.664529 0
M  V30 1319 O 135.488 -1.79812 -0.375957 0
M  V30 1320 C 135.55 -1.86651 3.07248 0
M  V30 1321 C 135.214 -1.20094 4.40938 0
M  V30 1322 C 136.211 -0.575445 5.16706 0
M  V30 1323 C 133.896 -1.2033 4.87674 0
M  V30 1324 C 135.89 0.0388111 6.37388 0
M  V30 1325 C 133.577 -0.585214 6.08291 0
M  V30 1326 C 134.575 0.0347578 6.82991 0
M  V30 1327 O 134.263 0.643147 8.01323 0
M  V30 1328 H 133.995 -0.274974 0.617548 0
M  V30 1329 H 136.549 -0.200788 2.04416 0
M  V30 1330 H 134.779 -2.62998 2.83494 0
M  V30 1331 H 136.468 -2.46907 3.22167 0
M  V30 1332 H 137.234 -0.565728 4.81689 0
M  V30 1333 H 133.113 -1.67526 4.29484 0
M  V30 1334 H 136.657 0.523329 6.95634 0
M  V30 1335 H 132.554 -0.592451 6.42775 0
M  V30 1336 H 133.322 0.540545 8.16713 0
M  V30 1337 N 135.985 -1.50799 -0.457987 0
M  V30 1338 C 137.21 -1.66496 -1.23668 0
M  V30 1339 C 137.635 -0.353288 -1.84752 0
M  V30 1340 O 136.993 0.684346 -1.67888 0
M  V30 1341 C 137.041 -2.76763 -2.3116 0
M  V30 1342 O 136.145 -2.38928 -3.36136 0
M  V30 1343 H 135.486 -0.555828 -0.363252 0
M  V30 1344 H 138.016 -1.9725 -0.543474 0
M  V30 1345 H 138.026 -3.00232 -2.76269 0
M  V30 1346 H 136.701 -3.71954 -1.86073 0
M  V30 1347 H 135.278 -2.25953 -2.96647 0
M  V30 1348 N 137.463 0.71206 -1.40597 0
M  V30 1349 C 138.373 1.8562 -1.43466 0
M  V30 1350 C 139.389 1.70902 -0.326902 0
M  V30 1351 O 140.565 1.93105 -0.572043 0
M  V30 1352 C 137.63 3.21451 -1.29884 0
M  V30 1353 C 136.691 3.48398 -2.50833 0
M  V30 1354 C 135.924 4.77749 -2.3789 0
M  V30 1355 O 136.147 5.53089 -1.39459 0
M  V30 1356 O 135.081 5.05111 -3.27333 0
M  V30 1357 H 138.907 1.86155 -2.39958 0
M  V30 1358 H 136.492 0.86295 -1.21957 0
M  V30 1359 H 138.374 4.02579 -1.24531 0
M  V30 1360 H 137.049 3.21636 -0.364997 0
M  V30 1361 H 135.956 2.67265 -2.61763 0
M  V30 1362 H 137.289 3.53014 -3.4299 0
M  V30 1363 N 138.941 1.26152 0.944643 0
M  V30 1364 C 140.169 1.14259 1.72489 0
M  V30 1365 C 140.584 -0.302555 1.8636 0
M  V30 1366 O 139.941 -1.20741 1.36849 0
M  V30 1367 C 139.992 1.80266 3.13347 0
M  V30 1368 O 139.713 3.19133 3.00143 0
M  V30 1369 C 141.214 1.74283 4.07603 0
M  V30 1370 H 138.434 0.398051 0.540181 0
M  V30 1371 H 140.978 1.66706 1.18446 0
M  V30 1372 H 139.133 1.31766 3.64303 0
M  V30 1373 H 139.547 3.51744 3.89071 0
M  V30 1374 H 141.021 2.25111 5.04013 0
M  V30 1375 H 141.498 0.708631 4.33446 0
M  V30 1376 H 142.104 2.22319 3.62567 0
M  V30 1377 N 140.419 -1.14872 1.07899 0
M  V30 1378 C 141.666 -1.85789 0.805532 0
M  V30 1379 C 141.994 -1.82649 -0.668561 0
M  V30 1380 O 141.249 -1.24858 -1.50695 0
M  V30 1381 C 141.548 -3.34223 1.26609 0
M  V30 1382 C 141.214 -3.57555 2.74709 0
M  V30 1383 C 139.876 -3.63631 3.1516 0
M  V30 1384 C 142.228 -3.66803 3.70277 0
M  V30 1385 C 139.556 -3.76473 4.49983 0
M  V30 1386 C 141.908 -3.8117 5.04869 0
M  V30 1387 C 140.572 -3.85494 5.44932 0
M  V30 1388 H 139.842 -0.679849 0.294765 0
M  V30 1389 H 142.489 -1.3572 1.35101 0
M  V30 1390 H 140.794 -3.86536 0.640103 0
M  V30 1391 H 142.491 -3.87511 1.03132 0
M  V30 1392 H 139.081 -3.5347 2.42398 0
M  V30 1393 H 143.265 -3.61404 3.40149 0
M  V30 1394 H 138.521 -3.7808 4.80484 0
M  V30 1395 H 142.695 -3.87268 5.78789 0
M  V30 1396 H 140.322 -3.95197 6.49403 0
M  V30 1397 N 141.898 -0.863906 -1.31812 0
M  V30 1398 C 142.861 -0.320212 -2.26952 0
M  V30 1399 C 143.861 0.525369 -1.51975 0
M  V30 1400 O 145.051 0.335547 -1.70938 0
M  V30 1401 C 142.183 0.545919 -3.365 0
M  V30 1402 H 143.376 -1.16004 -2.76556 0
M  V30 1403 H 140.929 -0.638995 -1.42641 0
M  V30 1404 H 141.664 1.40718 -2.92179 0
M  V30 1405 H 141.449 -0.0594674 -3.92055 0
M  V30 1406 H 142.939 0.918796 -4.07367 0
M  V30 1407 N 143.376 1.44774 -0.622745 0
M  V30 1408 C 144.286 2.34433 0.0886031 0
M  V30 1409 C 145.302 1.52131 0.844529 0
M  V30 1410 O 146.478 1.84886 0.798691 0
M  V30 1411 C 143.543 3.29986 1.0635 0
M  V30 1412 C 142.604 4.28195 0.307873 0
M  V30 1413 C 141.837 5.19183 1.23633 0
M  V30 1414 O 142.06 5.13918 2.47476 0
M  V30 1415 O 140.994 5.97515 0.725189 0
M  V30 1416 H 144.82 2.96693 -0.648599 0
M  V30 1417 H 142.405 1.44408 -0.382957 0
M  V30 1418 H 144.287 3.88825 1.6246 0
M  V30 1419 H 142.962 2.70269 1.78146 0
M  V30 1420 H 141.869 3.72927 -0.296064 0
M  V30 1421 H 143.202 4.90808 -0.3699 0
M  V30 1422 N 144.854 0.36279 1.53368 0
M  V30 1423 C 146.102 -0.227326 2.00817 0
M  V30 1424 C 146.423 -1.49511 1.25186 0
M  V30 1425 O 145.693 -1.92482 0.364348 0
M  V30 1426 H 144.273 -0.0869923 0.741917 0
M  V30 1427 H 146.935 0.488381 1.88682 0
M  V30 1428 H 146.031 -0.456273 3.08747 0
M  V30 1429 N 146.332 -1.57332 0.0918853 0
M  V30 1430 C 147.581 -1.93412 -0.572249 0
M  V30 1431 C 147.894 -0.975515 -1.69538 0
M  V30 1432 O 149.1 -1.22991 -2.42045 0
M  V30 1433 C 147.556 -3.43648 -1.0693 0
M  V30 1434 C 147.164 -4.47994 0.0239049 0
M  V30 1435 C 148.908 -3.88695 -1.70635 0
M  V30 1436 C 146.815 -5.89381 -0.488319 0
M  V30 1437 H 145.745 -0.721939 -0.217532 0
M  V30 1438 H 148.396 -1.82735 0.167369 0
M  V30 1439 H 146.778 -3.49466 -1.8625 0
M  V30 1440 H 147.952 -4.53815 0.799277 0
M  V30 1441 H 146.267 -4.12536 0.565946 0
M  V30 1442 H 148.864 -4.91725 -2.10025 0
M  V30 1443 H 149.207 -3.27166 -2.57426 0
M  V30 1444 H 149.74 -3.85564 -0.979023 0
M  V30 1445 H 146.479 -6.54602 0.342906 0
M  V30 1446 H 145.999 -5.87037 -1.23077 0
M  V30 1447 H 147.678 -6.39863 -0.958317 0
M  V30 1448 N 147.81 0.181792 -1.56548 0
M  V30 1449 C 149.057 0.900097 -1.81396 0
M  V30 1450 C 149.385 1.82695 -0.667281 0
M  V30 1451 O 148.64 1.92614 0.346146 0
M  V30 1452 C 148.939 1.73728 -3.12335 0
M  V30 1453 C 148.605 0.960255 -4.40556 0
M  V30 1454 C 147.267 0.745766 -4.75386 0
M  V30 1455 C 149.619 0.414477 -5.19549 0
M  V30 1456 C 146.947 -0.0257694 -5.86694 0
M  V30 1457 C 149.299 -0.343916 -6.31664 0
M  V30 1458 C 147.963 -0.569301 -6.65068 0
M  V30 1459 H 147.233 0.329369 -0.663775 0
M  V30 1460 H 149.88 0.165647 -1.90782 0
M  V30 1461 H 148.185 2.54081 -2.98245 0
M  V30 1462 H 149.882 2.29591 -3.28769 0
M  V30 1463 H 146.472 1.13746 -4.13231 0
M  V30 1464 H 150.656 0.567554 -4.93044 0
M  V30 1465 H 145.912 -0.210233 -6.11038 0
M  V30 1466 H 150.086 -0.774133 -6.92084 0
M  V30 1467 H 147.713 -1.16903 -7.51158 0
M  V30 1468 N 149.288 1.51039 0.449983 0
M  V30 1469 C 150.238 1.67824 1.54335 0
M  V30 1470 C 151.222 0.5324 1.51836 0
M  V30 1471 O 152.414 0.787762 1.58503 0
M  V30 1472 C 149.543 1.7951 2.92628 0
M  V30 1473 C 148.629 2.99838 2.9993 0
M  V30 1474 N 149.02 4.23207 2.77001 0
M  V30 1475 C 147.318 2.98832 3.31082 0
M  V30 1476 C 148.019 5.04361 2.89818 0
M  V30 1477 N 146.995 4.38746 3.2094 0
M  V30 1478 H 150.797 2.60884 1.35339 0
M  V30 1479 H 148.311 1.48513 0.657085 0
M  V30 1480 H 150.308 1.89642 3.7127 0
M  V30 1481 H 148.968 0.876227 3.12654 0
M  V30 1482 H 149.979 4.5236 2.52172 0
M  V30 1483 H 146.656 2.16527 3.56963 0
M  V30 1484 H 148.046 6.12528 2.76151 0
M  V30 1485 N 150.766 -0.704594 1.40972 0
M  V30 1486 C 152.015 -1.46018 1.39146 0
M  V30 1487 C 152.328 -1.956 0.000589254 0
M  V30 1488 O 153.534 -2.71137 -0.1403 0
M  V30 1489 C 151.99 -2.63996 2.4461 0
M  V30 1490 C 151.598 -2.21238 3.89561 0
M  V30 1491 C 153.342 -3.41677 2.51907 0
M  V30 1492 C 151.249 -3.3612 4.86598 0
M  V30 1493 H 150.179 -0.548444 0.517422 0
M  V30 1494 H 152.83 -0.765784 1.66757 0
M  V30 1495 H 151.212 -3.3566 2.10115 0
M  V30 1496 H 152.386 -1.56923 4.33257 0
M  V30 1497 H 150.701 -1.56574 3.85841 0
M  V30 1498 H 153.298 -4.27182 3.2159 0
M  V30 1499 H 153.641 -3.86247 1.55303 0
M  V30 1500 H 154.174 -2.77064 2.85448 0
M  V30 1501 H 150.913 -2.96572 5.84573 0
M  V30 1502 H 150.433 -3.99315 4.47557 0
M  V30 1503 H 152.112 -4.02029 5.06934 0
M  V30 1504 N 152.244 -1.26651 -0.937939 0
M  V30 1505 C 153.474 -1.15006 -1.71631 0
M  V30 1506 C 153.882 0.297026 -1.86854 0
M  V30 1507 O 153.225 1.21493 -1.37786 0
M  V30 1508 C 153.287 -1.74984 -3.14039 0
M  V30 1509 C 152.951 -3.24103 -3.2219 0
M  V30 1510 C 153.948 -4.20877 -3.05219 0
M  V30 1511 C 151.633 -3.64625 -3.45476 0
M  V30 1512 C 153.627 -5.56151 -3.11408 0
M  V30 1513 C 151.314 -5.00032 -3.513 0
M  V30 1514 C 152.312 -5.95604 -3.34282 0
M  V30 1515 O 152 -7.28545 -3.3982 0
M  V30 1516 H 151.732 -0.401183 -0.544085 0
M  V30 1517 H 154.286 -1.67832 -1.18413 0
M  V30 1518 H 152.516 -1.16624 -3.68695 0
M  V30 1519 H 154.205 -1.58199 -3.73802 0
M  V30 1520 H 154.971 -3.90908 -2.87081 0
M  V30 1521 H 150.85 -2.90718 -3.57777 0
M  V30 1522 H 154.394 -6.30727 -2.98043 0
M  V30 1523 H 150.291 -5.29659 -3.68959 0
M  V30 1524 H 151.059 -7.3686 -3.56343 0
M  V30 1525 N 153.722 1.14298 -1.08507 0
M  V30 1526 C 154.632 2.23027 -0.727753 0
M  V30 1527 C 155.648 1.71952 0.26619 0
M  V30 1528 O 156.824 2.011 0.109882 0
M  V30 1529 C 153.889 3.46403 -0.143541 0
M  V30 1530 C 152.95 4.12413 -1.19223 0
M  V30 1531 C 152.183 5.29899 -0.635798 0
M  V30 1532 O 152.406 5.67796 0.544393 0
M  V30 1533 O 151.34 5.85717 -1.38634 0
M  V30 1534 H 155.166 2.55945 -1.63481 0
M  V30 1535 H 152.751 1.22248 -0.858817 0
M  V30 1536 H 154.633 4.21018 0.179404 0
M  V30 1537 H 153.308 3.15206 0.736659 0
M  V30 1538 H 152.215 3.39667 -1.56772 0
M  V30 1539 H 153.548 4.47718 -2.04474 0
M  V30 1540 N 155.201 0.870884 1.31352 0
M  V30 1541 C 156.148 0.325425 2.28494 0
M  V30 1542 C 157.118 -0.576615 1.5577 0
M  V30 1543 O 158.303 -0.508059 1.83911 0
M  V30 1544 C 155.443 -0.466283 3.41935 0
M  V30 1545 C 154.556 0.463378 4.29508 0
M  V30 1546 C 153.691 -0.342544 5.30094 0
M  V30 1547 C 152.73 0.583486 6.09313 0
M  V30 1548 N 151.867 -0.186244 7.01853 0
M  V30 1549 H 156.707 1.15901 2.74538 0
M  V30 1550 H 154.244 0.58294 1.35056 0
M  V30 1551 H 156.202 -0.941085 4.06447 0
M  V30 1552 H 154.832 -1.26456 2.97 0
M  V30 1553 H 153.884 1.05663 3.65431 0
M  V30 1554 H 155.196 1.1734 4.84802 0
M  V30 1555 H 154.35 -0.879816 6.00287 0
M  V30 1556 H 153.089 -1.08585 4.75458 0
M  V30 1557 H 152.094 1.13251 5.3801 0
M  V30 1558 H 153.319 1.32566 6.66035 0
M  V30 1559 H 151.265 -0.912348 6.49625 0
M  V30 1560 H 151.182 0.464422 7.54572 0
M  V30 1561 H 152.45 -0.704716 7.76308 0
M  V30 1562 N 156.679 -1.44442 0.630414 0
M  V30 1563 C 157.642 -2.29107 -0.0652523 0
M  V30 1564 C 158.642 -1.41002 -0.772995 0
M  V30 1565 O 159.832 -1.62881 -0.617692 0
M  V30 1566 C 156.964 -3.22564 -1.10296 0
M  V30 1567 H 158.157 -2.92103 0.679401 0
M  V30 1568 H 155.71 -1.51343 0.390517 0
M  V30 1569 H 156.445 -2.64416 -1.87762 0
M  V30 1570 H 156.23 -3.87491 -0.59941 0
M  V30 1571 H 157.72 -3.86167 -1.5895 0
M  V30 1572 N 158.157 -0.370918 -1.53173 0
M  V30 1573 C 159.104 0.473035 -2.259 0
M  V30 1574 C 160.074 1.07311 -1.26781 0
M  V30 1575 O 161.259 1.1046 -1.55574 0
M  V30 1576 C 158.399 1.60405 -3.05556 0
M  V30 1577 C 157.512 1.02863 -4.19575 0
M  V30 1578 C 156.647 2.12918 -4.86661 0
M  V30 1579 C 155.686 1.52869 -5.92704 0
M  V30 1580 N 154.823 2.56779 -6.53459 0
M  V30 1581 H 159.663 -0.153649 -2.97604 0
M  V30 1582 H 157.2 -0.0875946 -1.46839 0
M  V30 1583 H 159.158 2.27034 -3.50016 0
M  V30 1584 H 157.788 2.20131 -2.36097 0
M  V30 1585 H 156.84 0.252465 -3.79561 0
M  V30 1586 H 158.152 0.549642 -4.95762 0
M  V30 1587 H 157.306 2.87356 -5.34333 0
M  V30 1588 H 156.045 2.6417 -4.09958 0
M  V30 1589 H 155.05 0.769479 -5.44389 0
M  V30 1590 H 156.275 1.02435 -6.7133 0
M  V30 1591 H 154.221 3.07235 -5.79606 0
M  V30 1592 H 154.138 2.13583 -7.25202 0
M  V30 1593 H 155.406 3.30903 -7.05779 0
M  V30 1594 N 159.635 1.57281 -0.100228 0
M  V30 1595 C 160.598 2.13158 0.842398 0
M  V30 1596 C 161.598 1.06202 1.20738 0
M  V30 1597 O 162.788 1.32066 1.13597 0
M  V30 1598 C 159.92 2.65639 2.13655 0
M  V30 1599 H 161.113 2.97766 0.357114 0
M  V30 1600 H 158.666 1.5559 0.148823 0
M  V30 1601 H 159.401 1.84566 2.66657 0
M  V30 1602 H 159.186 3.43844 1.88451 0
M  V30 1603 H 160.676 3.08846 2.81077 0
M  V30 1604 N 161.113 -0.173488 1.56642 0
M  V30 1605 C 162.361 -0.888706 1.81512 0
M  V30 1606 C 162.682 -1.82875 0.676872 0
M  V30 1607 O 161.952 -1.93536 -0.303414 0
M  V30 1608 H 160.532 -0.331164 0.669582 0
M  V30 1609 H 163.194 -0.173823 1.94123 0
M  V30 1610 H 162.29 -1.46691 2.75478 0
M  V30 1611 N 162.591 -1.51276 -0.441967 0
M  V30 1612 C 163.538 -1.72256 -1.53612 0
M  V30 1613 C 164.508 -0.564164 -1.56225 0
M  V30 1614 O 165.693 -0.798074 -1.73307 0
M  V30 1615 C 162.833 -1.84932 -2.91366 0
M  V30 1616 C 161.946 -3.12459 -2.98317 0
M  V30 1617 C 161.081 -3.15758 -4.27166 0
M  V30 1618 C 160.12 -4.37619 -4.27967 0
M  V30 1619 N 159.257 -4.38493 -5.48333 0
M  V30 1620 H 164.097 -2.65654 -1.35026 0
M  V30 1621 H 161.634 -1.31662 -0.656009 0
M  V30 1622 H 163.592 -1.90263 -3.7129 0
M  V30 1623 H 162.222 -0.949461 -3.08521 0
M  V30 1624 H 161.274 -3.1646 -2.11086 0
M  V30 1625 H 162.586 -4.02382 -2.94771 0
M  V30 1626 H 161.74 -3.19979 -5.15459 0
M  V30 1627 H 160.479 -2.23715 -4.33362 0
M  V30 1628 H 159.484 -4.33579 -3.38067 0
M  V30 1629 H 160.709 -5.30921 -4.23438 0
M  V30 1630 H 158.655 -3.49318 -5.55259 0
M  V30 1631 H 158.572 -5.22219 -5.46647 0
M  V30 1632 H 159.84 -4.469 -6.38671 0
M  V30 1633 N 164.069 0.697108 -1.41344 0
M  V30 1634 C 165.315 1.4593 -1.40827 0
M  V30 1635 C 165.648 1.94193 -0.0167098 0
M  V30 1636 O 164.923 1.69425 0.955263 0
M  V30 1637 C 165.206 2.67229 -2.41373 0
M  V30 1638 C 165.059 2.24741 -3.8963 0
M  V30 1639 C 166.378 3.69423 -2.39196 0
M  V30 1640 H 163.497 0.529303 -0.512842 0
M  V30 1641 H 166.139 0.794112 -1.72609 0
M  V30 1642 H 164.289 3.23982 -2.14401 0
M  V30 1643 H 165.961 1.73327 -4.27499 0
M  V30 1644 H 164.204 1.56542 -4.0457 0
M  V30 1645 H 164.875 3.1177 -4.55525 0
M  V30 1646 H 167.351 3.2234 -2.63128 0
M  V30 1647 H 166.227 4.51907 -3.11563 0
M  V30 1648 H 166.488 4.19012 -1.41001 0
M  V30 1649 N 165.547 1.27147 0.931209 0
M  V30 1650 C 166.793 1.13446 1.68101 0
M  V30 1651 C 167.126 -0.319628 1.91552 0
M  V30 1652 O 166.401 -1.23407 1.50336 0
M  V30 1653 C 166.684 1.91482 3.0497 0
M  V30 1654 C 166.537 3.44855 2.88782 0
M  V30 1655 C 167.856 1.71651 4.05246 0
M  V30 1656 H 164.975 0.413498 0.610072 0
M  V30 1657 H 167.617 1.56261 1.08086 0
M  V30 1658 H 165.767 1.55095 3.56199 0
M  V30 1659 H 167.439 3.9105 2.44698 0
M  V30 1660 H 165.682 3.71373 2.24198 0
M  V30 1661 H 166.353 3.94694 3.85902 0
M  V30 1662 H 168.829 2.0337 3.63015 0
M  V30 1663 H 167.705 2.28651 4.99009 0
M  V30 1664 H 167.966 0.663555 4.37092 0
M  V30 1665 N 167.025 -1.13721 1.09112 0
M  V30 1666 C 168.273 -1.84559 0.823562 0
M  V30 1667 C 168.594 -1.83754 -0.652658 0
M  V30 1668 O 167.864 -1.29102 -1.47342 0
M  V30 1669 H 166.444 -0.683376 0.301673 0
M  V30 1670 H 169.106 -1.37771 1.37859 0
M  V30 1671 H 168.202 -2.8917 1.17419 0
M  V30 1672 N 168.503 -0.877838 -1.30888 0
M  V30 1673 C 169.435 -0.296607 -2.27273 0
M  V30 1674 C 170.448 0.544799 -1.53414 0
M  V30 1675 O 171.637 0.365511 -1.74718 0
M  V30 1676 C 168.737 0.597481 -3.33592 0
M  V30 1677 C 167.91 -0.213251 -4.3688 0
M  V30 1678 C 166.969 0.610208 -5.2265 0
M  V30 1679 O 165.995 0.035441 -5.69189 0
M  V30 1680 N 167.197 1.92071 -5.47804 0
M  V30 1681 H 169.962 -1.12492 -2.77787 0
M  V30 1682 H 167.523 -0.740105 -1.43993 0
M  V30 1683 H 169.515 1.15425 -3.87891 0
M  V30 1684 H 168.085 1.32647 -2.83061 0
M  V30 1685 H 167.305 -0.951466 -3.82545 0
M  V30 1686 H 168.593 -0.769262 -5.02951 0
M  V30 1687 H 167.991 2.4107 -5.11763 0
M  V30 1688 H 166.548 2.42508 -6.05007 0
M  V30 1689 N 169.982 1.44106 -0.638065 0
M  V30 1690 C 171.21 2.06336 -0.152615 0
M  V30 1691 C 171.625 1.47731 1.17563 0
M  V30 1692 O 170.982 0.602806 1.72257 0
M  V30 1693 C 171.033 3.61479 -0.0391491 0
M  V30 1694 O 170.754 4.17903 -1.31487 0
M  V30 1695 C 172.255 4.40757 0.474176 0
M  V30 1696 H 169.475 0.665862 -0.0828776 0
M  V30 1697 H 172.019 1.84862 -0.87443 0
M  V30 1698 H 170.174 3.82191 0.633142 0
M  V30 1699 H 170.588 5.11416 -1.16421 0
M  V30 1700 H 172.062 5.49707 0.502562 0
M  V30 1701 H 172.539 4.12697 1.50258 0
M  V30 1702 H 173.145 4.24979 -0.165102 0
M  V30 1703 N 171.46 0.379036 1.52974 0
M  V30 1704 C 172.871 -0.0972525 1.86447 0
M  V30 1705 C 173.222 -1.47027 1.29914 0
M  V30 1706 O 172.347 -2.07135 0.626433 0
M  V30 1707 C 172.942 -0.183248 3.38304 0
M  V30 1708 C 171.501 -0.603812 3.71525 0
M  V30 1709 C 170.648 0.240632 2.76254 0
M  V30 1710 H 173.599 0.597316 1.4703 0
M  V30 1711 H 173.62 -1.00432 3.67006 0
M  V30 1712 H 173.132 0.816191 3.79421 0
M  V30 1713 H 171.233 -1.61099 3.35973 0
M  V30 1714 H 171.346 -0.369086 4.77676 0
M  V30 1715 H 169.71 -0.292548 2.53014 0
M  V30 1716 H 170.493 1.23786 3.20206 0
M  V30 1717 N 172.938 -1.57226 0.108567 0
M  V30 1718 C 174.166 -1.99179 -0.559954 0
M  V30 1719 C 174.581 -0.988022 -1.60884 0
M  V30 1720 O 173.938 0.0205512 -1.82488 0
M  V30 1721 C 173.989 -3.41159 -1.19552 0
M  V30 1722 O 173.71 -4.37694 -0.188577 0
M  V30 1723 C 175.211 -3.98188 -1.94837 0
M  V30 1724 H 172.431 -0.654228 -0.149088 0
M  V30 1725 H 174.975 -2.03598 0.19183 0
M  V30 1726 H 173.13 -3.37711 -1.89815 0
M  V30 1727 H 173.544 -5.20469 -0.649014 0
M  V30 1728 H 175.018 -4.99644 -2.34648 0
M  V30 1729 H 175.495 -3.3675 -2.81951 0
M  V30 1730 H 176.101 -4.0515 -1.2936 0
M  V30 1731 N 174.416 0.165178 -1.56732 0
M  V30 1732 C 175.693 0.908443 -1.73224 0
M  V30 1733 C 176.073 2.0013 -0.67165 0
M  V30 1734 O 175.421 2.26353 0.31253 0
M  V30 1735 C 175.631 1.46756 -3.16644 0
M  V30 1736 C 176.979 1.93809 -3.77787 0
M  V30 1737 O 178.003 1.56537 -3.1996 0
M  V30 1738 O 176.862 2.62486 -4.79336 0
M  V30 1739 H 173.956 0.428025 -0.707618 0
M  V30 1740 H 176.502 0.152526 -1.69013 0
M  V30 1741 H 175.274 0.68129 -3.85323 0
M  V30 1742 H 174.897 2.28749 -3.25207 0
M  V30 1743 N 175.894 1.51508 0.433938 0
M  V30 1744 C 177.142 1.6402 1.18075 0
M  V30 1745 C 177.463 0.360328 1.91642 0
M  V30 1746 O 176.733 -0.623945 1.85698 0
M  V30 1747 H 175.313 0.6045 0.43885 0
M  V30 1748 H 177.975 1.88452 0.497178 0
M  V30 1749 H 177.071 2.46949 1.90847 0
M  V30 1750 N 177.372 -0.689602 1.41712 0
M  V30 1751 C 178.602 -1.47613 1.44548 0
M  V30 1752 C 179.01 -1.89132 0.0509034 0
M  V30 1753 O 178.353 -1.57741 -0.94146 0
M  V30 1754 C 178.415 -2.76596 2.2964 0
M  V30 1755 C 178.079 -2.57245 3.77722 0
M  V30 1756 C 179.076 -2.22804 4.69739 0
M  V30 1757 C 176.761 -2.727 4.2183 0
M  V30 1758 C 178.755 -2.04064 6.03851 0
M  V30 1759 C 176.442 -2.53576 5.56006 0
M  V30 1760 C 177.44 -2.1931 6.46832 0
M  V30 1761 O 177.128 -2.00359 7.78532 0
M  V30 1762 H 176.86 -0.461227 0.494212 0
M  V30 1763 H 179.414 -0.856045 1.86711 0
M  V30 1764 H 177.644 -3.41033 1.82301 0
M  V30 1765 H 179.333 -3.38424 2.24107 0
M  V30 1766 H 180.099 -2.10473 4.36951 0
M  V30 1767 H 175.978 -2.98353 3.51435 0
M  V30 1768 H 179.522 -1.77241 6.74708 0
M  V30 1769 H 175.419 -2.65499 5.88371 0
M  V30 1770 H 176.187 -2.15075 7.89737 0
M  V30 1771 N 178.85 -1.27639 -0.924453 0
M  V30 1772 C 179.8 -1.07295 -2.01176 0
M  V30 1773 C 180.784 5.77352e-05 -1.609 0
M  V30 1774 O 181.976 -0.218855 -1.75642 0
M  V30 1775 C 179.105 -0.725592 -3.35544 0
M  V30 1776 C 178.191 -1.83691 -3.82254 0
M  V30 1777 N 178.582 -3.07697 -4.01443 0
M  V30 1778 C 176.88 -1.72433 -4.11319 0
M  V30 1779 C 177.581 -3.80037 -4.40394 0
M  V30 1780 N 176.557 -3.0782 -4.48049 0
M  V30 1781 H 180.359 -2.01399 -2.14046 0
M  V30 1782 H 177.873 -1.18401 -1.11153 0
M  V30 1783 H 179.87 -0.560959 -4.13109 0
M  V30 1784 H 178.53 0.207782 -3.24034 0
M  V30 1785 H 179.541 -3.43424 -3.8766 0
M  V30 1786 H 176.218 -0.862005 -4.08504 0
M  V30 1787 H 177.608 -4.86632 -4.63291 0
M  V30 1788 N 180.328 1.1314 -1.09713 0
M  V30 1789 C 181.575 1.84484 -0.834987 0
M  V30 1790 C 181.903 1.83689 0.639418 0
M  V30 1791 O 181.158 1.2724 1.4869 0
M  V30 1792 C 181.457 3.32167 -1.3191 0
M  V30 1793 C 181.123 3.53139 -2.80363 0
M  V30 1794 C 179.785 3.58571 -3.20905 0
M  V30 1795 C 182.137 3.60866 -3.76065 0
M  V30 1796 C 179.465 3.69267 -4.55916 0
M  V30 1797 C 181.817 3.73089 -5.10869 0
M  V30 1798 C 180.481 3.76775 -5.50996 0
M  V30 1799 H 179.751 0.675073 -0.305544 0
M  V30 1800 H 182.398 1.33554 -1.37243 0
M  V30 1801 H 180.703 3.85469 -0.701517 0
M  V30 1802 H 182.4 3.85821 -1.09284 0
M  V30 1803 H 178.99 3.49569 -2.47991 0
M  V30 1804 H 183.174 3.55946 -3.45855 0
M  V30 1805 H 178.43 3.70388 -4.86438 0
M  V30 1806 H 182.604 3.78011 -5.84877 0
M  V30 1807 H 180.231 3.84815 -6.55608 0
M  V30 1808 N 181.806 0.884767 1.30421 0
M  V30 1809 C 182.716 0.355398 2.31892 0
M  V30 1810 C 183.732 -0.542261 1.65335 0
M  V30 1811 O 184.908 -0.435432 1.96637 0
M  V30 1812 C 181.973 -0.421661 3.44126 0
M  V30 1813 C 181.034 0.505727 4.26311 0
M  V30 1814 C 180.267 -0.234343 5.33185 0
M  V30 1815 O 180.49 -1.46045 5.51386 0
M  V30 1816 O 179.424 0.415443 6.00465 0
M  V30 1817 H 183.25 1.19685 2.79122 0
M  V30 1818 H 180.835 0.648596 1.34587 0
M  V30 1819 H 182.717 -0.861641 4.12497 0
M  V30 1820 H 181.392 -1.23942 2.99032 0
M  V30 1821 H 180.299 0.994513 3.60639 0
M  V30 1822 H 181.632 1.28948 4.75009 0
M  V30 1823 N 183.284 -1.43765 0.645699 0
M  V30 1824 C 184.247 -2.29163 -0.0409488 0
M  V30 1825 C 185.247 -1.41813 -0.757996 0
M  V30 1826 O 186.437 -1.63527 -0.600382 0
M  V30 1827 C 183.569 -3.23716 -1.06869 0
M  V30 1828 H 184.762 -2.91366 0.710345 0
M  V30 1829 H 182.315 -1.5092 0.406547 0
M  V30 1830 H 183.05 -2.66393 -1.84947 0
M  V30 1831 H 182.835 -3.88105 -0.558277 0
M  V30 1832 H 184.325 -3.87831 -1.54845 0
M  V30 1833 N 184.763 -0.387143 -1.52771 0
M  V30 1834 C 185.988 0.198407 -2.06449 0
M  V30 1835 C 186.413 1.39918 -1.25716 0
M  V30 1836 O 185.771 1.79099 -0.281657 0
M  V30 1837 C 185.819 0.548893 -3.56398 0
M  V30 1838 O 184.923 1.64315 -3.78252 0
M  V30 1839 H 184.264 0.0237731 -0.663574 0
M  V30 1840 H 186.794 -0.553989 -1.96957 0
M  V30 1841 H 186.804 0.813812 -3.99801 0
M  V30 1842 H 185.479 -0.329005 -4.14597 0
M  V30 1843 H 184.056 1.37211 -3.46738 0
M  V30 1844 N 186.241 1.57166 -0.116904 0
M  V30 1845 C 187.188 2.15202 0.83408 0
M  V30 1846 C 188.158 1.07644 1.26499 0
M  V30 1847 O 189.343 1.35541 1.34288 0
M  V30 1848 C 186.483 2.75405 2.07957 0
M  V30 1849 C 185.596 3.97264 1.69721 0
M  V30 1850 C 184.731 4.45561 2.89221 0
M  V30 1851 C 183.77 5.59956 2.47215 0
M  V30 1852 N 182.907 6.03006 3.59622 0
M  V30 1853 H 187.747 2.96141 0.332335 0
M  V30 1854 H 185.284 1.46309 0.152349 0
M  V30 1855 H 187.242 3.08439 2.80929 0
M  V30 1856 H 185.872 1.97159 2.55594 0
M  V30 1857 H 184.924 3.70404 0.866316 0
M  V30 1858 H 186.236 4.80226 1.34849 0
M  V30 1859 H 185.39 4.80493 3.7042 0
M  V30 1860 H 184.129 3.61544 3.27318 0
M  V30 1861 H 183.134 5.2463 1.64448 0
M  V30 1862 H 184.359 6.45738 2.10238 0
M  V30 1863 H 182.305 5.21931 3.97396 0
M  V30 1864 H 182.222 6.80819 3.28667 0
M  V30 1865 H 183.49 6.42576 4.41267 0
M  V30 1866 N 187.719 -0.156864 1.56817 0
M  V30 1867 C 188.682 -1.17781 1.96622 0
M  V30 1868 C 189.682 -1.36401 0.851555 0
M  V30 1869 O 190.872 -1.33561 1.11836 0
M  V30 1870 C 188.004 -2.54008 2.27361 0
M  V30 1871 H 189.197 -0.836564 2.87996 0
M  V30 1872 H 186.75 -0.39985 1.51099 0
M  V30 1873 H 187.485 -2.9312 1.38748 0
M  V30 1874 H 187.27 -2.41856 3.08623 0
M  V30 1875 H 188.76 -3.27558 2.59029 0
M  V30 1876 N 189.197 -1.51736 -0.425897 0
M  V30 1877 C 190.443 -1.65214 -1.1761 0
M  V30 1878 C 190.776 -0.372778 -1.90589 0
M  V30 1879 O 190.051 0.628139 -1.84078 0
M  V30 1880 C 190.334 -2.86312 -2.18398 0
M  V30 1881 C 190.187 -4.24254 -1.49426 0
M  V30 1882 C 191.506 -3.02925 -3.19256 0
M  V30 1883 H 188.625 -0.601263 -0.426206 0
M  V30 1884 H 191.267 -1.8425 -0.463882 0
M  V30 1885 H 189.417 -2.70213 -2.79137 0
M  V30 1886 H 191.089 -4.52046 -0.919362 0
M  V30 1887 H 189.332 -4.26426 -0.796432 0
M  V30 1888 H 190.003 -5.05001 -2.22885 0
M  V30 1889 H 192.479 -3.1781 -2.68581 0
M  V30 1890 H 191.355 -3.89199 -3.8706 0
M  V30 1891 H 191.616 -2.15497 -3.86023 0
M  V30 1892 N 190.675 0.682077 -1.42076 0
M  V30 1893 C 191.585 1.82535 -1.47371 0
M  V30 1894 C 192.601 1.7017 -0.363079 0
M  V30 1895 O 193.777 1.91848 -0.612875 0
M  V30 1896 C 190.842 3.18624 -1.36674 0
M  V30 1897 C 189.903 3.42999 -2.58167 0
M  V30 1898 C 189.136 4.72595 -2.4797 0
M  V30 1899 O 189.359 5.50006 -1.5116 0
M  V30 1900 O 188.293 4.98054 -3.37974 0
M  V30 1901 H 192.119 1.81023 -2.43853 0
M  V30 1902 H 189.704 0.836887 -1.2376 0
M  V30 1903 H 191.586 3.99847 -1.33043 0
M  V30 1904 H 190.261 3.20789 -0.433138 0
M  V30 1905 H 189.168 2.61653 -2.67373 0
M  V30 1906 H 190.501 3.45659 -3.50401 0
M  V30 1907 N 192.153 1.28127 0.917671 0
M  V30 1908 C 193.401 1.14825 1.66312 0
M  V30 1909 C 193.722 -0.304379 1.9261 0
M  V30 1910 O 192.992 -1.21149 1.53947 0
M  V30 1911 H 191.572 0.421953 0.616413 0
M  V30 1912 H 194.234 1.608 1.10134 0
M  V30 1913 H 193.33 1.68489 2.62712 0
M  V30 1914 N 193.631 -1.12557 1.10312 0
M  V30 1915 C 194.879 -1.83675 0.843091 0
M  V30 1916 C 195.2 -1.84435 -0.633131 0
M  V30 1917 O 194.47 -1.30657 -1.45964 0
M  V30 1918 H 193.05 -0.680138 0.308904 0
M  V30 1919 H 195.712 -1.36301 1.39313 0
M  V30 1920 H 194.808 -2.87908 1.2048 0
M  V30 1921 N 195.109 -0.891671 -1.2995 0
M  V30 1922 C 196.056 -0.361736 -2.27948 0
M  V30 1923 C 197.026 0.551761 -1.56668 0
M  V30 1924 O 198.211 0.478736 -1.84696 0
M  V30 1925 C 195.351 0.411825 -3.42634 0
M  V30 1926 C 194.464 -0.531651 -4.28716 0
M  V30 1927 C 193.599 0.258167 -5.30572 0
M  V30 1928 C 192.638 -0.680349 -6.08307 0
M  V30 1929 N 191.775 0.0745613 -7.0206 0
M  V30 1930 H 196.615 -1.20254 -2.72659 0
M  V30 1931 H 194.152 -0.604352 -1.34112 0
M  V30 1932 H 196.11 0.876304 -4.07893 0
M  V30 1933 H 194.74 1.21715 -2.98974 0
M  V30 1934 H 193.792 -1.11463 -3.63703 0
M  V30 1935 H 195.104 -1.25038 -4.82874 0
M  V30 1936 H 194.258 0.784204 -6.0161 0
M  V30 1937 H 192.997 1.01008 -4.77126 0
M  V30 1938 H 192.002 -1.21796 -5.3614 0
M  V30 1939 H 193.227 -1.43145 -6.63842 0
M  V30 1940 H 191.173 0.808883 -6.50994 0
M  V30 1941 H 191.09 -0.584409 -7.53738 0
M  V30 1942 H 192.358 0.581123 -7.77331 0
M  V30 1943 N 196.587 1.43421 -0.653314 0
M  V30 1944 C 197.834 2.01812 -0.166745 0
M  V30 1945 C 198.162 1.51535 1.21931 0
M  V30 1946 O 197.417 0.698975 1.82792 0
M  V30 1947 C 197.716 3.57176 -0.126623 0
M  V30 1948 C 197.382 4.26798 -1.45444 0
M  V30 1949 C 196.044 4.45534 -1.81805 0
M  V30 1950 C 198.396 4.66225 -2.32989 0
M  V30 1951 C 195.724 5.00961 -3.05377 0
M  V30 1952 C 198.076 5.23021 -3.55853 0
M  V30 1953 C 196.74 5.39973 -3.9241 0
M  V30 1954 H 196.01 0.738484 -0.0610162 0
M  V30 1955 H 198.657 1.71896 -0.84404 0
M  V30 1956 H 196.962 3.86634 0.634123 0
M  V30 1957 H 198.659 4.00112 0.266723 0
M  V30 1958 H 195.249 4.12561 -1.16153 0
M  V30 1959 H 199.433 4.51443 -2.06187 0
M  V30 1960 H 194.689 5.12271 -3.3375 0
M  V30 1961 H 198.863 5.52518 -4.23907 0
M  V30 1962 H 196.49 5.82687 -4.88242 0
M  V30 1963 N 198.065 0.39524 1.52563 0
M  V30 1964 C 199.311 -0.185318 2.01952 0
M  V30 1965 C 199.644 -1.45964 1.28095 0
M  V30 1966 O 198.919 -1.90689 0.38315 0
M  V30 1967 C 199.202 -0.447193 3.57312 0
M  V30 1968 C 199.055 0.842828 4.41833 0
M  V30 1969 C 200.374 -1.23529 4.22408 0
M  V30 1970 H 197.493 -0.0658788 0.73405 0
M  V30 1971 H 200.135 0.525975 1.82575 0
M  V30 1972 H 198.285 -1.05312 3.73954 0
M  V30 1973 H 199.957 1.4795 4.36931 0
M  V30 1974 H 198.2 1.45686 4.08605 0
M  V30 1975 H 198.871 0.614165 5.48573 0
M  V30 1976 H 201.347 -0.722445 4.0978 0
M  V30 1977 H 200.223 -1.38727 5.3108 0
M  V30 1978 H 200.484 -2.25213 3.80436 0
M  V30 1979 N 199.544 -1.57102 0.125237 0
M  V30 1980 C 200.792 -1.95021 -0.530198 0
M  V30 1981 C 201.113 -1.00982 -1.66816 0
M  V30 1982 O 200.383 -0.0672693 -1.95784 0
M  V30 1983 H 198.963 -0.720046 -0.198853 0
M  V30 1984 H 201.625 -1.93916 0.19564 0
M  V30 1985 H 200.721 -2.98211 -0.920681 0
M  V30 1986 N 201.022 0.148545 -1.56898 0
M  V30 1987 C 201.952 1.18524 -2.01182 0
M  V30 1988 C 202.933 1.4489 -0.891123 0
M  V30 1989 O 204.118 1.55836 -1.15882 0
M  V30 1990 C 201.248 2.51879 -2.39112 0
M  V30 1991 C 200.202 2.40038 -3.54353 0
M  V30 1992 C 199.528 3.78089 -3.78091 0
M  V30 1993 C 200.828 1.88577 -4.87069 0
M  V30 1994 H 202.522 0.817029 -2.88036 0
M  V30 1995 H 200.068 0.391575 -1.38574 0
M  V30 1996 H 202.021 3.24627 -2.68692 0
M  V30 1997 H 200.745 2.90532 -1.49193 0
M  V30 1998 H 199.404 1.69742 -3.24936 0
M  V30 1999 H 199.052 4.14175 -2.85426 0
M  V30 2000 H 198.752 3.71028 -4.55645 0
M  V30 2001 H 200.276 4.52387 -4.10095 0
M  V30 2002 H 201.69 2.51117 -5.15377 0
M  V30 2003 H 200.087 1.9241 -5.68417 0
M  V30 2004 H 201.157 0.84136 -4.77545 0
M  V30 2005 N 202.5 1.5196 0.417844 0
M  V30 2006 C 203.746 1.65836 1.16732 0
M  V30 2007 C 204.079 0.382881 1.90388 0
M  V30 2008 O 203.354 -0.618368 1.84408 0
M  V30 2009 C 203.637 2.87466 2.16876 0
M  V30 2010 C 203.49 4.25041 1.47174 0
M  V30 2011 C 204.809 3.04613 3.17646 0
M  V30 2012 H 201.928 0.603515 0.423011 0
M  V30 2013 H 204.57 1.84494 0.454105 0
M  V30 2014 H 202.72 2.71689 2.777 0
M  V30 2015 H 204.392 4.52527 0.895376 0
M  V30 2016 H 202.635 4.26843 0.773806 0
M  V30 2017 H 203.306 5.06176 2.20204 0
M  V30 2018 H 205.782 3.1923 2.66892 0
M  V30 2019 H 204.658 3.91247 3.8499 0
M  V30 2020 H 204.919 2.17541 3.84874 0
M  V30 2021 N 203.978 -0.674533 1.42435 0
M  V30 2022 C 205.227 -1.43034 1.42212 0
M  V30 2023 C 205.54 -1.95555 0.0420788 0
M  V30 2024 O 206.746 -2.71374 -0.0827558 0
M  V30 2025 C 205.202 -2.58748 2.50155 0
M  V30 2026 C 204.81 -2.12925 3.94166 0
M  V30 2027 C 206.554 -3.36257 2.59098 0
M  V30 2028 C 204.461 -3.25723 4.93618 0
M  V30 2029 H 203.391 -0.537345 0.528939 0
M  V30 2030 H 206.042 -0.73024 1.68344 0
M  V30 2031 H 204.424 -3.31128 2.17188 0
M  V30 2032 H 205.598 -1.47697 4.36488 0
M  V30 2033 H 203.913 -1.48354 3.89076 0
M  V30 2034 H 206.51 -4.20264 3.30578 0
M  V30 2035 H 206.853 -3.82866 1.63461 0
M  V30 2036 H 207.386 -2.70947 2.9126 0
M  V30 2037 H 204.125 -2.84105 5.90732 0
M  V30 2038 H 203.645 -3.89732 4.55926 0
M  V30 2039 H 205.324 -3.91186 5.15347 0
M  V30 2040 N 205.456 -1.28612 -0.910864 0
M  V30 2041 C 206.733 -1.06632 -1.63979 0
M  V30 2042 C 207.113 0.393351 -2.07403 0
M  V30 2043 O 206.461 1.37999 -1.82122 0
M  V30 2044 C 206.671 -2.0436 -2.8291 0
M  V30 2045 C 208.019 -2.34666 -3.5386 0
M  V30 2046 O 209.043 -2.02467 -2.93062 0
M  V30 2047 O 207.902 -2.89631 -4.63439 0
M  V30 2048 H 204.996 -0.407737 -0.7195 0
M  V30 2049 H 207.542 -1.39942 -0.959914 0
M  V30 2050 H 206.314 -3.02727 -2.47936 0
M  V30 2051 H 205.937 -1.71714 -3.58609 0
M  V30 2052 N 206.934 1.1197 -1.10907 0
M  V30 2053 C 207.844 2.21433 -0.774896 0
M  V30 2054 C 208.86 1.72478 0.229657 0
M  V30 2055 O 210.036 2.01288 0.0672008 0
M  V30 2056 C 207.101 3.4602 -0.216986 0
M  V30 2057 C 206.162 4.09791 -1.27944 0
M  V30 2058 C 205.395 5.28431 -0.748055 0
M  V30 2059 O 205.618 5.68823 0.423833 0
M  V30 2060 O 204.552 5.82644 -1.51027 0
M  V30 2061 H 208.378 2.5242 -1.68873 0
M  V30 2062 H 205.963 1.20399 -0.884555 0
M  V30 2063 H 207.845 4.21304 0.090059 0
M  V30 2064 H 206.52 3.16698 0.669633 0
M  V30 2065 H 205.427 3.36265 -1.63941 0
M  V30 2066 H 206.76 4.4328 -2.13925 0
M  V30 2067 N 208.412 0.89855 1.29475 0
M  V30 2068 C 209.689 0.443416 1.90508 0
M  V30 2069 C 210.069 -1.07685 1.81569 0
M  V30 2070 O 209.417 -1.9182 1.24166 0
M  V30 2071 C 209.627 0.956708 3.35631 0
M  V30 2072 C 210.975 0.999728 4.12663 0
M  V30 2073 O 211.999 0.904299 3.4453 0
M  V30 2074 O 210.858 1.14289 5.34416 0
M  V30 2075 H 207.952 0.138025 0.815401 0
M  V30 2076 H 210.498 0.98834 1.37949 0
M  V30 2077 H 209.27 2.00067 3.36287 0
M  V30 2078 H 208.893 0.391728 3.95666 0
M  V30 2079 N 209.89 -1.43072 0.660911 0
M  V30 2080 C 210.838 -2.32569 -0.0378199 0
M  V30 2081 C 211.832 -1.49046 -0.805092 0
M  V30 2082 O 213.038 -1.65206 -0.714624 0
M  V30 2083 H 209.413 -0.75136 -0.031019 0
M  V30 2084 H 211.384 -2.89216 0.734609 0
M  V30 2085 C 210.133 -3.33453 -0.985124 0
M  V30 2086 H 209.456 -3.97752 -0.404147 0
M  V30 2087 H 210.896 -3.98691 -1.44297 0
M  V30 2088 C 209.355 -2.64642 -2.08486 0
M  V30 2089 O 209.885 -2.46776 -3.16961 0
M  V30 2090 N 208.091 -2.23891 -1.8526 0
M  V30 2091 H 207.638 -2.38621 -0.970449 0
M  V30 2092 H 207.596 -1.78181 -2.59034 0
M  V30 2093 N 211.368 -0.403325 -1.52352 0
M  V30 2094 C 212.3 0.4603 -2.2453 0
M  V30 2095 C 213.313 1.01505 -1.27282 0
M  V30 2096 O 214.502 0.914982 -1.53266 0
M  V30 2097 C 211.602 1.65208 -2.95905 0
M  V30 2098 C 210.775 1.22224 -4.19976 0
M  V30 2099 C 209.834 2.28028 -4.74226 0
M  V30 2100 O 208.86 1.88857 -5.36956 0
M  V30 2101 N 210.062 3.6012 -4.55295 0
M  V30 2102 H 212.827 -0.158156 -2.99282 0
M  V30 2103 H 210.388 -0.230402 -1.60252 0
M  V30 2104 H 212.38 2.35541 -3.29093 0
M  V30 2105 H 210.95 2.17658 -2.24374 0
M  V30 2106 H 210.17 0.34725 -3.92668 0
M  V30 2107 H 211.458 0.911924 -5.00561 0
M  V30 2108 H 210.856 3.94698 -4.05253 0
M  V30 2109 H 209.413 4.26447 -4.92936 0
M  V30 2110 N 212.846 1.57033 -0.133567 0
M  V30 2111 C 214.123 1.87256 0.56522 0
M  V30 2112 C 214.503 1.03726 1.83859 0
M  V30 2113 O 213.851 0.120247 2.28183 0
M  V30 2114 C 214.061 3.3865 0.843636 0
M  V30 2115 C 215.409 4.07574 1.19032 0
M  V30 2116 O 216.433 3.43752 0.933429 0
M  V30 2117 O 215.292 5.20259 1.67312 0
M  V30 2118 H 212.386 0.775678 0.286796 0
M  V30 2119 H 214.932 1.68855 -0.169168 0
M  V30 2120 H 213.704 3.91257 -0.0581149 0
M  V30 2121 H 213.327 3.62532 1.63268 0
M  V30 2122 N 214.325 -0.140222 1.56975 0
M  V30 2123 C 215.602 -0.880769 1.74648 0
M  V30 2124 C 215.982 -1.99036 0.703404 0
M  V30 2125 O 215.33 -2.26821 -0.27648 0
M  V30 2126 C 215.54 -1.417 3.18939 0
M  V30 2127 C 216.888 -1.87774 3.80823 0
M  V30 2128 O 217.912 -1.51427 3.2241 0
M  V30 2129 O 216.771 -2.54827 4.83452 0
M  V30 2130 H 213.865 -0.416713 0.714338 0
M  V30 2131 H 216.411 -0.125618 1.69234 0
M  V30 2132 H 215.183 -0.619902 3.86359 0
M  V30 2133 H 214.806 -2.23546 3.28805 0
M  V30 2134 N 215.803 -1.52179 -0.40978 0
M  V30 2135 C 216.733 -1.78435 -1.5061 0
M  V30 2136 C 217.714 -0.635295 -1.57791 0
M  V30 2137 O 218.899 -0.880823 -1.73076 0
M  V30 2138 C 216.029 -1.93444 -2.88439 0
M  V30 2139 C 214.983 -3.09038 -2.96108 0
M  V30 2140 C 214.309 -3.09268 -4.36185 0
M  V30 2141 C 215.609 -4.48508 -2.67652 0
M  V30 2142 H 217.303 -2.70237 -1.28889 0
M  V30 2143 H 214.849 -1.30036 -0.618605 0
M  V30 2144 H 216.802 -2.10394 -3.65119 0
M  V30 2145 H 215.526 -0.983129 -3.11452 0
M  V30 2146 H 214.185 -2.91837 -2.21872 0
M  V30 2147 H 213.833 -2.11861 -4.56206 0
M  V30 2148 H 213.533 -3.86907 -4.42241 0
M  V30 2149 H 215.057 -3.28348 -5.14801 0
M  V30 2150 H 216.471 -4.65918 -3.34056 0
M  V30 2151 H 214.868 -5.28059 -2.85085 0
M  V30 2152 H 215.938 -4.56649 -1.63095 0
M  V30 2153 N 217.281 0.66697 -1.42791 0
M  V30 2154 C 218.509 1.45505 -1.47091 0
M  V30 2155 C 218.924 1.8861 -0.0845873 0
M  V30 2156 O 218.281 1.58632 0.90234 0
M  V30 2157 C 218.332 2.69906 -2.40485 0
M  V30 2158 O 218.053 2.28608 -3.73725 0
M  V30 2159 C 219.554 3.63396 -2.53886 0
M  V30 2160 H 216.774 0.447459 -0.500022 0
M  V30 2161 H 219.318 0.818866 -1.8739 0
M  V30 2162 H 217.473 3.29696 -2.03419 0
M  V30 2163 H 217.887 3.08997 -4.23817 0
M  V30 2164 H 219.361 4.47387 -3.2334 0
M  V30 2165 H 219.838 4.09824 -1.57927 0
M  V30 2166 H 220.444 3.09495 -2.91706 0
M  V30 2167 N 218.759 1.29093 0.90403 0
M  V30 2168 C 220.036 1.075 1.63411 0
M  V30 2169 C 220.416 -0.382346 2.07609 0
M  V30 2170 O 219.764 -1.37031 1.82851 0
M  V30 2171 C 219.974 2.05858 2.81822 0
M  V30 2172 C 221.322 2.36539 3.52611 0
M  V30 2173 O 222.346 2.04019 2.91984 0
M  V30 2174 O 221.205 2.92085 4.61897 0
M  V30 2175 H 218.299 0.411547 0.717327 0
M  V30 2176 H 220.845 1.40449 0.952479 0
M  V30 2177 H 219.617 3.04037 2.46327 0
M  V30 2178 H 219.24 1.73613 3.57693 0
M  V30 2179 N 220.237 -1.11381 1.11499 0
M  V30 2180 C 221.147 -2.21019 0.786628 0
M  V30 2181 C 222.163 -1.72597 -0.220507 0
M  V30 2182 O 223.339 -2.01321 -0.0565251 0
M  V30 2183 C 220.404 -3.459 0.235333 0
M  V30 2184 C 219.465 -4.09107 1.30115 0
M  V30 2185 C 218.698 -5.28027 0.776068 0
M  V30 2186 O 218.921 -5.6904 -0.393661 0
M  V30 2187 O 217.855 -5.81835 1.54114 0
M  V30 2188 H 221.681 -2.51521 1.70209 0
M  V30 2189 H 219.266 -1.19928 0.890928 0
M  V30 2190 H 221.148 -4.21346 -0.067715 0
M  V30 2191 H 219.823 -3.17049 -0.652828 0
M  V30 2192 H 218.73 -3.35391 1.65722 0
M  V30 2193 H 220.063 -4.42139 2.16273 0
M  V30 2194 N 221.715 -0.905404 -1.28997 0
M  V30 2195 C 223.131 -0.60233 -1.47798 0
M  V30 2196 C 223.331 0.854645 -1.82478 0
M  V30 2197 O 222.387 1.63439 -1.92468 0
M  V30 2198 C 223.7 -1.53306 -2.58685 0
M  V30 2199 C 225.248 -1.53887 -2.72558 0
M  V30 2200 C 225.723 -2.45602 -3.86579 0
M  V30 2201 N 227.214 -2.43681 -3.93921 0
M  V30 2202 C 227.949 -3.11347 -4.81509 0
M  V30 2203 N 227.445 -3.88313 -5.73746 0
M  V30 2204 N 229.238 -3.00476 -4.75048 0
M  V30 2205 H 221.389 -1.84765 -1.04764 0
M  V30 2206 H 223.652 -0.792025 -0.520961 0
M  V30 2207 H 223.358 -2.57141 -2.39941 0
M  V30 2208 H 223.232 -1.25787 -3.55609 0
M  V30 2209 H 225.619 -0.507941 -2.90696 0
M  V30 2210 H 225.7 -1.85447 -1.76191 0
M  V30 2211 H 225.344 -3.48792 -3.69197 0
M  V30 2212 H 225.274 -2.11349 -4.82327 0
M  V30 2213 H 227.765 -1.87767 -3.27951 0
M  V30 2214 H 228.078 -4.36985 -6.37389 0
M  V30 2215 H 226.423 -3.92419 -5.73614 0
M  V30 2216 H 229.614 -2.39858 -4.01977 0
M  V30 2217 H 229.787 -3.53485 -5.43095 0
M  V30 2218 N 223.193 1.4272 -0.668489 0
M  V30 2219 C 224.442 2.00846 -0.185389 0
M  V30 2220 C 224.755 1.53442 1.21305 0
M  V30 2221 O 225.961 2.03944 1.79218 0
M  V30 2222 C 224.417 3.58805 -0.280591 0
M  V30 2223 C 224.025 4.15198 -1.68268 0
M  V30 2224 C 225.769 4.24255 0.14412 0
M  V30 2225 C 223.676 5.655 -1.73099 0
M  V30 2226 H 222.606 0.751145 -0.0655475 0
M  V30 2227 H 225.257 1.63516 -0.832752 0
M  V30 2228 H 223.639 3.93608 0.434553 0
M  V30 2229 H 224.813 3.91866 -2.42441 0
M  V30 2230 H 223.128 3.62176 -2.05469 0
M  V30 2231 H 225.725 5.34547 0.128086 0
M  V30 2232 H 226.068 3.99277 1.17827 0
M  V30 2233 H 226.601 3.94389 -0.519798 0
M  V30 2234 H 223.34 5.95268 -2.74475 0
M  V30 2235 H 222.86 5.90842 -1.03274 0
M  V30 2236 H 224.539 6.29808 -1.48158 0
M  V30 2237 N 224.671 0.411399 1.52136 0
M  V30 2238 C 225.634 -0.401089 2.25663 0
M  V30 2239 C 226.634 -0.971732 1.28117 0
M  V30 2240 O 227.824 -0.850254 1.52041 0
M  V30 2241 C 224.956 -1.56483 3.02863 0
M  V30 2242 H 226.149 0.24295 2.98914 0
M  V30 2243 H 223.702 0.163968 1.55438 0
M  V30 2244 H 224.437 -2.24567 2.33967 0
M  V30 2245 H 224.222 -1.16211 3.74483 0
M  V30 2246 H 225.712 -2.13951 3.58629 0
M  V30 2247 N 226.149 -1.5696 0.141893 0
M  V30 2248 C 227.096 -2.16501 -0.799737 0
M  V30 2249 C 228.066 -1.09643 -1.24771 0
M  V30 2250 O 229.251 -1.3766 -1.32115 0
M  V30 2251 C 226.391 -2.78679 -2.03549 0
M  V30 2252 C 225.504 -3.99914 -1.6338 0
M  V30 2253 C 224.639 -4.50106 -2.82096 0
M  V30 2254 C 223.678 -5.63819 -2.38275 0
M  V30 2255 N 222.815 -6.08651 -3.49983 0
M  V30 2256 H 227.655 -2.96632 -0.285179 0
M  V30 2257 H 225.192 -1.46533 -0.129053 0
M  V30 2258 H 227.15 -3.1287 -2.75986 0
M  V30 2259 H 225.78 -2.012 -2.52425 0
M  V30 2260 H 224.832 -3.71735 -0.807279 0
M  V30 2261 H 226.144 -4.82311 -1.27192 0
M  V30 2262 H 225.298 -4.86325 -3.62729 0
M  V30 2263 H 224.037 -3.66706 -3.21525 0
M  V30 2264 H 223.042 -5.2718 -1.56081 0
M  V30 2265 H 224.267 -6.49 -1.99938 0
M  V30 2266 H 222.213 -5.28188 -3.89042 0
M  V30 2267 H 222.13 -6.85961 -3.17794 0
M  V30 2268 H 223.398 -6.49515 -4.30988 0
M  V30 2269 N 227.627 0.131896 -1.57047 0
M  V30 2270 C 228.873 0.838268 -1.85323 0
M  V30 2271 C 229.228 1.78098 -0.727937 0
M  V30 2272 O 228.521 1.89645 0.27304 0
M  V30 2273 C 228.715 1.63703 -3.17704 0
M  V30 2274 C 228.544 0.773167 -4.43004 0
M  V30 2275 C 227.314 0.432956 -5.03442 0
M  V30 2276 C 229.512 0.0966216 -5.14209 0
M  V30 2277 N 227.494 -0.442924 -6.123 0
M  V30 2278 C 228.865 -0.638778 -6.16701 0
M  V30 2279 C 230.92 0.018861 -4.97896 0
M  V30 2280 C 229.623 -1.44462 -7.04644 0
M  V30 2281 C 231.649 -0.773762 -5.86316 0
M  V30 2282 C 231.011 -1.4974 -6.883 0
M  V30 2283 H 227.11 0.284086 -0.728573 0
M  V30 2284 H 229.694 0.102731 -1.94429 0
M  V30 2285 H 227.865 2.3437 -3.09718 0
M  V30 2286 H 229.597 2.28774 -3.33833 0
M  V30 2287 H 226.352 0.772237 -4.67262 0
M  V30 2288 H 226.776 -0.872332 -6.71356 0
M  V30 2289 H 231.418 0.56397 -4.19022 0
M  V30 2290 H 229.136 -2.00093 -7.82936 0
M  V30 2291 H 232.722 -0.83612 -5.75761 0
M  V30 2292 H 231.602 -2.10087 -7.55535 0
M  V30 2293 N 229.106 1.52395 0.401703 0
M  V30 2294 C 230.352 1.67065 1.14966 0
M  V30 2295 C 230.685 0.403052 1.89971 0
M  V30 2296 O 229.96 -0.598774 1.85054 0
M  V30 2297 C 230.243 2.8975 2.13815 0
M  V30 2298 C 230.096 4.26578 1.42658 0
M  V30 2299 C 231.415 3.07965 3.14397 0
M  V30 2300 H 228.534 0.607968 0.416587 0
M  V30 2301 H 231.176 1.84965 0.434511 0
M  V30 2302 H 229.326 2.74619 2.74803 0
M  V30 2303 H 230.998 4.53451 0.847329 0
M  V30 2304 H 229.241 4.27639 0.72849 0
M  V30 2305 H 229.912 5.08483 2.14823 0
M  V30 2306 H 232.388 3.22043 2.63491 0
M  V30 2307 H 231.264 3.95308 3.80819 0
M  V30 2308 H 231.525 2.21611 3.82545 0
M  V30 2309 N 230.584 -0.659388 1.43143 0
M  V30 2310 C 231.494 -1.80167 1.50256 0
M  V30 2311 C 232.51 -1.69571 0.390106 0
M  V30 2312 O 233.686 -1.90849 0.643319 0
M  V30 2313 C 230.751 -3.16409 1.41725 0
M  V30 2314 C 229.812 -3.38848 2.63591 0
M  V30 2315 C 229.045 -4.68591 2.55458 0
M  V30 2316 O 229.268 -5.47532 1.59891 0
M  V30 2317 O 228.202 -4.92614 3.45854 0
M  V30 2318 H 232.028 -1.77121 2.46702 0
M  V30 2319 H 229.613 -0.817092 1.25076 0
M  V30 2320 H 231.495 -3.9768 1.39387 0
M  V30 2321 H 230.17 -3.20059 0.484118 0
M  V30 2322 H 229.077 -2.57366 2.71502 0
M  V30 2323 H 230.41 -3.4004 3.55856 0
M  V30 2324 N 232.062 -1.29571 -0.897171 0
M  V30 2325 C 232.994 -1.10724 -2.00681 0
M  V30 2326 C 234.007 -0.0540026 -1.6271 0
M  V30 2327 O 235.196 -0.298783 -1.75982 0
M  V30 2328 C 232.296 -0.663912 -3.32333 0
M  V30 2329 C 231.469 -1.79622 -3.98816 0
M  V30 2330 C 230.528 -1.34349 -5.0876 0
M  V30 2331 O 229.554 -2.04864 -5.31055 0
M  V30 2332 N 230.756 -0.215764 -5.80099 0
M  V30 2333 H 233.521 -2.06291 -2.17403 0
M  V30 2334 H 231.082 -1.21544 -1.06951 0
M  V30 2335 H 233.074 -0.344295 -4.03233 0
M  V30 2336 H 231.644 0.199375 -3.11964 0
M  V30 2337 H 230.864 -2.28459 -3.21248 0
M  V30 2338 H 232.152 -2.55535 -4.39976 0
M  V30 2339 H 231.55 0.372091 -5.64475 0
M  V30 2340 H 230.107 0.0444707 -6.51785 0
M  V30 2341 N 233.54 1.10788 -1.12088 0
M  V30 2342 C 234.786 1.82942 -0.875226 0
M  V30 2343 C 235.119 1.84779 0.597538 0
M  V30 2344 O 234.394 1.30578 1.44152 0
M  V30 2345 C 234.677 3.29789 -1.44606 0
M  V30 2346 C 234.53 3.36307 -2.98693 0
M  V30 2347 C 235.849 4.26064 -1.10261 0
M  V30 2348 H 232.968 0.664195 -0.319397 0
M  V30 2349 H 235.61 1.29867 -1.38689 0
M  V30 2350 H 233.76 3.75118 -1.01089 0
M  V30 2351 H 235.432 2.99487 -3.50864 0
M  V30 2352 H 233.675 2.76318 -3.34411 0
M  V30 2353 H 234.346 4.39694 -3.33726 0
M  V30 2354 H 236.822 3.88951 -1.4784 0
M  V30 2355 H 235.698 5.27183 -1.52869 0
M  V30 2356 H 235.959 4.42098 -0.0142953 0
M  V30 2357 N 235.018 0.912232 1.28515 0
M  V30 2358 C 235.965 0.397954 2.27343 0
M  V30 2359 C 236.935 -0.526766 1.57526 0
M  V30 2360 O 238.12 -0.449292 1.85435 0
M  V30 2361 C 235.26 -0.357263 3.43246 0
M  V30 2362 C 234.373 0.599788 4.27816 0
M  V30 2363 C 233.508 -0.173725 5.30916 0
M  V30 2364 C 232.547 0.777039 6.07148 0
M  V30 2365 N 231.684 0.0371398 7.0209 0
M  V30 2366 H 236.524 1.24577 2.70711 0
M  V30 2367 H 234.061 0.625612 1.33133 0
M  V30 2368 H 236.019 -0.8113 4.09236 0
M  V30 2369 H 234.649 -1.16943 3.00872 0
M  V30 2370 H 233.701 1.17235 3.61884 0
M  V30 2371 H 235.013 1.32704 4.80823 0
M  V30 2372 H 234.167 -0.688394 6.02782 0
M  V30 2373 H 232.906 -0.934041 4.78672 0
M  V30 2374 H 231.911 1.3031 5.34134 0
M  V30 2375 H 233.136 1.53689 6.61481 0
M  V30 2376 H 231.082 -0.705213 6.52198 0
M  V30 2377 H 230.999 0.704249 7.52713 0
M  V30 2378 H 232.267 -0.457383 7.78157 0
M  V30 2379 N 236.496 -1.42363 0.676048 0
M  V30 2380 C 237.744 -2.01123 0.198437 0
M  V30 2381 C 238.065 -1.53731 -1.19966 0
M  V30 2382 O 237.335 -0.759518 -1.80577 0
M  V30 2383 H 235.915 -0.743678 0.0703721 0
M  V30 2384 H 238.577 -1.74263 0.872837 0
M  V30 2385 H 237.673 -3.11454 0.200686 0
M  V30 2386 N 237.974 -0.419461 -1.51915 0
M  V30 2387 C 239.199 0.154572 -2.06823 0
M  V30 2388 C 239.624 1.3722 -1.28656 0
M  V30 2389 O 238.982 1.78461 -0.319583 0
M  V30 2390 C 239.03 0.473172 -3.57482 0
M  V30 2391 O 238.134 1.56255 -3.81652 0
M  V30 2392 H 237.475 0.0096924 -0.663929 0
M  V30 2393 H 240.005 -0.595642 -1.95738 0
M  V30 2394 H 240.015 0.728825 -4.01438 0
M  V30 2395 H 238.69 -0.416873 -4.13805 0
M  V30 2396 H 237.267 1.29825 -3.49571 0
M  V30 2397 N 239.452 1.56882 -0.150215 0
M  V30 2398 C 240.699 1.96228 0.500093 0
M  V30 2399 C 241.027 1.03522 1.64661 0
M  V30 2400 O 240.282 0.0650683 1.95592 0
M  V30 2401 C 240.581 3.41801 1.04437 0
M  V30 2402 C 240.247 4.50897 0.0159671 0
M  V30 2403 C 238.909 4.8046 -0.266731 0
M  V30 2404 C 241.261 5.16703 -0.683192 0
M  V30 2405 C 238.589 5.73135 -1.25434 0
M  V30 2406 C 240.941 6.10441 -1.65964 0
M  V30 2407 C 239.605 6.38382 -1.95 0
M  V30 2408 H 238.875 0.718048 0.182997 0
M  V30 2409 H 241.522 1.90019 -0.237724 0
M  V30 2410 H 239.827 3.44857 1.85959 0
M  V30 2411 H 241.524 3.69573 1.55618 0
M  V30 2412 H 238.114 4.27891 0.246485 0
M  V30 2413 H 242.298 4.93993 -0.477983 0
M  V30 2414 H 237.554 5.93074 -1.48571 0
M  V30 2415 H 241.728 6.60507 -2.20689 0
M  V30 2416 H 239.355 7.09996 -2.71679 0
M  V30 2417 N 240.93 -0.123565 1.57115 0
M  V30 2418 C 241.893 -1.13583 1.99076 0
M  V30 2419 C 242.893 -1.34564 0.880296 0
M  V30 2420 O 244.083 -1.31158 1.14644 0
M  V30 2421 C 241.215 -2.49128 2.32698 0
M  V30 2422 H 242.408 -0.775287 2.89706 0
M  V30 2423 H 239.961 -0.36771 1.51913 0
M  V30 2424 H 240.696 -2.90111 1.44934 0
M  V30 2425 H 240.481 -2.35255 3.13684 0
M  V30 2426 H 241.971 -3.2199 2.65918 0
M  V30 2427 O 242.447 -1.59262 -0.267957 0
M  V30 2428 H 243.138 -1.70845 -0.912779 0
M  V30 END ATOM
M  V30 BEGIN BOND
M  V30 END BOND
M  V30 END CTAB
M  END
$$$$
