drugbank_target|Q9UBK8 Methionine synthase reductase (DB00115; DB00134)
 OpenBabel12092119393D

  0  0  0     0  0            999 V3000
M  V30 BEGIN CTAB
M  V30 COUNTS 11334 11455 0 0 0
M  V30 BEGIN ATOM
M  V30 1 H -0.908 1.98254 -0.117106 0
M  V30 2 N 0 1.576 0 0
M  V30 3 C 0.933 2.03868 1.02534 0
M  V30 4 C 1.911 0.928543 1.3348 0
M  V30 5 O 3.095 1.19667 1.45644 0
M  V30 6 C 0.222 2.43627 2.35294 0
M  V30 7 C -0.732 3.65373 2.2001 0
M  V30 8 S 0.101 5.13292 1.52614 0
M  V30 9 C 1.257 5.56322 2.86805 0
M  V30 10 H 1.49 2.90518 0.631377 0
M  V30 11 H -0.977 1.52953 0.210867 0
M  V30 12 H 0.981 2.67203 3.11629 0
M  V30 13 H -0.358 1.57376 2.7183 0
M  V30 14 H -1.165 3.90944 3.18086 0
M  V30 15 H -1.563 3.418 1.51819 0
M  V30 16 H 0.729 5.58782 3.83104 0
M  V30 17 H 1.672 6.56266 2.65933 0
M  V30 18 H 2.08 4.83886 2.90714 0
M  V30 19 N 1.4781 -0.272755 1.55222 0
M  V30 20 C 2.7261 -1.00234 1.75492 0
M  V30 21 C 3.0471 -1.8681 0.5592 0
M  V30 22 O 2.3171 -1.91215 -0.425882 0
M  V30 23 H 0.8971 -0.373076 0.647166 0
M  V30 24 H 3.5591 -0.296926 1.92625 0
M  V30 25 H 2.6551 -1.63913 2.65592 0
M  V30 26 N 2.9562 -1.48159 -0.537278 0
M  V30 27 C 3.9192 -1.61665 -1.62472 0
M  V30 28 C 4.9192 -0.490395 -1.5314 0
M  V30 29 O 6.1092 -0.755998 -1.5694 0
M  V30 30 C 3.2412 -1.57997 -3.02076 0
M  V30 31 H 4.4342 -2.58621 -1.51839 0
M  V30 32 H 1.9872 -1.36647 -0.758771 0
M  V30 33 H 2.7222 -0.624913 -3.18222 0
M  V30 34 H 2.5072 -2.39755 -3.10258 0
M  V30 35 H 3.9972 -1.70627 -3.81151 0
M  V30 36 N 4.4343 0.785586 -1.36625 0
M  V30 37 C 5.3973 1.87999 -1.31107 0
M  V30 38 C 6.3973 1.59316 -0.217959 0
M  V30 39 O 7.5873 1.67656 -0.472977 0
M  V30 40 C 4.7193 3.24861 -1.03334 0
M  V30 41 H 5.9123 1.94307 -2.2844 0
M  V30 42 H 3.4653 0.983813 -1.21453 0
M  V30 43 H 4.2003 3.24235 -0.0647432 0
M  V30 44 H 3.9853 3.4707 -1.82441 0
M  V30 45 H 5.4753 4.04929 -1.02088 0
M  V30 46 N 5.9124 1.20967 1.01018 0
M  V30 47 C 7.1374 1.0503 1.78839 0
M  V30 48 C 7.5624 -0.395752 1.8389 0
M  V30 49 O 6.9204 -1.28529 1.27867 0
M  V30 50 C 6.9684 1.64602 3.2084 0
M  V30 51 O 6.0724 0.887988 4.02726 0
M  V30 52 H 5.4134 0.369987 0.551367 0
M  V30 53 H 7.9434 1.60399 1.27018 0
M  V30 54 H 7.9534 1.68607 3.71532 0
M  V30 55 H 6.6284 2.69841 3.16479 0
M  V30 56 H 5.2054 0.922648 3.61305 0
M  V30 57 N 7.3905 -1.2043 1.01659 0
M  V30 58 C 8.6365 -1.90079 0.706963 0
M  V30 59 C 8.9695 -1.78648 -0.761474 0
M  V30 60 O 8.2445 -1.17069 -1.55323 0
M  V30 61 C 8.5275 -3.41469 1.14327 0
M  V30 62 C 8.3805 -3.61833 2.67201 0
M  V30 63 C 9.6995 -4.34261 0.714529 0
M  V30 64 H 6.8185 -0.690254 0.2583 0
M  V30 65 H 9.4605 -1.41826 1.26433 0
M  V30 66 H 7.6105 -3.82696 0.669056 0
M  V30 67 H 9.2825 -3.2986 3.22475 0
M  V30 68 H 7.5255 -3.05304 3.08175 0
M  V30 69 H 8.1965 -4.67955 2.92783 0
M  V30 70 H 10.6725 -4.00682 1.12221 0
M  V30 71 H 9.5485 -5.38806 1.04784 0
M  V30 72 H 9.8095 -4.40431 -0.383799 0
M  V30 73 N 8.8686 -0.792821 -1.36206 0
M  V30 74 C 10.2846 -0.474903 -1.52371 0
M  V30 75 C 10.4846 1.00622 -1.74578 0
M  V30 76 O 9.5406 1.79162 -1.77924 0
M  V30 77 C 10.8536 -1.3083 -2.70747 0
M  V30 78 C 12.4016 -1.30234 -2.84619 0
M  V30 79 C 12.8766 -2.11956 -4.06004 0
M  V30 80 N 14.3676 -2.09419 -4.13156 0
M  V30 81 C 15.1026 -2.69419 -5.06163 0
M  V30 82 N 14.5986 -3.3829 -6.04592 0
M  V30 83 N 16.3916 -2.59134 -4.98804 0
M  V30 84 H 8.5426 -1.75222 -1.20046 0
M  V30 85 H 10.8056 -0.745024 -0.586211 0
M  V30 86 H 10.5116 -2.35881 -2.6087 0
M  V30 87 H 10.3856 -0.95196 -3.6499 0
M  V30 88 H 12.7726 -0.259748 -2.93955 0
M  V30 89 H 12.8536 -1.69847 -1.91274 0
M  V30 90 H 12.4976 -3.16248 -3.97429 0
M  V30 91 H 12.4276 -1.69711 -4.98503 0
M  V30 92 H 14.9186 -1.59297 -3.42685 0
M  V30 93 H 15.2316 -3.81394 -6.7213 0
M  V30 94 H 13.5766 -3.42393 -6.04807 0
M  V30 95 H 16.7676 -2.04927 -4.20859 0
M  V30 96 H 16.9406 -3.06185 -5.711 0
M  V30 97 N 10.3467 1.47872 -0.545128 0
M  V30 98 C 11.3097 2.28337 0.198717 0
M  V30 99 C 12.3097 1.36255 0.853888 0
M  V30 100 O 13.4997 1.59003 0.711606 0
M  V30 101 C 10.6317 3.15585 1.28915 0
M  V30 102 H 11.8247 2.95567 -0.507941 0
M  V30 103 H 9.3777 1.53362 -0.301616 0
M  V30 104 H 10.1127 2.53019 2.02859 0
M  V30 105 H 9.8977 3.83337 0.824309 0
M  V30 106 H 11.3877 3.76243 1.81194 0
M  V30 107 N 11.8248 0.280983 1.55075 0
M  V30 108 C 13.0728 -0.333455 1.9933 0
M  V30 109 C 13.3938 -1.55937 1.17085 0
M  V30 110 O 12.6638 -1.94143 0.261805 0
M  V30 111 H 11.2438 -0.126197 0.736263 0
M  V30 112 H 13.9058 0.387678 1.91005 0
M  V30 113 H 13.0018 -0.619292 3.05894 0
M  V30 114 N 13.3029 -1.57598 0.00835791 0
M  V30 115 C 14.2659 -2.07884 -0.965242 0
M  V30 116 C 15.2659 -0.989825 -1.26725 0
M  V30 117 O 16.4559 -1.25218 -1.21104 0
M  V30 118 C 13.5879 -2.52731 -2.28779 0
M  V30 119 H 14.7809 -2.95178 -0.530112 0
M  V30 120 H 12.3339 -1.54458 -0.239283 0
M  V30 121 H 13.0689 -1.68705 -2.76964 0
M  V30 122 H 12.8539 -3.32272 -2.08177 0
M  V30 123 H 14.3439 -2.91933 -2.98605 0
M  V30 124 N 14.781 0.264519 -1.55364 0
M  V30 125 C 16.197 0.61215 -1.47394 0
M  V30 126 C 16.397 1.89134 -0.695018 0
M  V30 127 O 15.453 2.51563 -0.217275 0
M  V30 128 C 16.766 0.731235 -2.91674 0
M  V30 129 C 18.314 0.82473 -3.01939 0
M  V30 130 C 18.789 0.975522 -4.4749 0
M  V30 131 N 20.28 1.04083 -4.51354 0
M  V30 132 C 21.015 1.17646 -5.61201 0
M  V30 133 N 20.511 1.27874 -6.80896 0
M  V30 134 N 22.304 1.20823 -5.48961 0
M  V30 135 H 14.455 -0.575456 -2.04456 0
M  V30 136 H 16.718 -0.196099 -0.927496 0
M  V30 137 H 16.424 -0.138392 -3.51428 0
M  V30 138 H 16.298 1.60883 -3.41169 0
M  V30 139 H 18.685 1.68482 -2.42276 0
M  V30 140 H 18.766 -0.0776479 -2.55682 0
M  V30 141 H 18.41 0.120058 -5.07758 0
M  V30 142 H 18.34 1.89268 -4.91412 0
M  V30 143 H 20.831 0.973846 -3.65136 0
M  V30 144 H 21.144 1.38081 -7.60364 0
M  V30 145 H 19.489 1.24863 -6.83692 0
M  V30 146 H 22.68 1.12469 -4.54388 0
M  V30 147 H 22.853 1.31049 -6.3461 0
M  V30 148 N 16.2591 1.48442 0.529413 0
M  V30 149 C 17.1891 1.65902 1.64313 0
M  V30 150 C 18.1701 0.507897 1.6234 0
M  V30 151 O 19.3551 0.740503 1.79528 0
M  V30 152 C 16.4851 1.69911 3.02898 0
M  V30 153 C 15.4391 2.8453 3.19729 0
M  V30 154 C 14.7651 2.73629 4.59381 0
M  V30 155 C 16.0651 4.25821 3.02447 0
M  V30 156 H 17.7591 2.5914 1.49955 0
M  V30 157 H 15.3051 1.24709 0.719982 0
M  V30 158 H 17.2581 1.80715 3.80684 0
M  V30 159 H 15.9821 0.732524 3.18279 0
M  V30 160 H 14.6411 2.73283 2.44361 0
M  V30 161 H 14.2891 1.74938 4.71599 0
M  V30 162 H 13.9891 3.50541 4.71588 0
M  V30 163 H 15.5131 2.86401 5.39265 0
M  V30 164 H 16.9271 4.37898 3.70024 0
M  V30 165 H 15.3241 5.03735 3.26146 0
M  V30 166 H 16.3941 4.42244 1.98867 0
M  V30 167 N 17.7372 -0.778329 1.37039 0
M  V30 168 C 18.9832 -1.53892 1.32079 0
M  V30 169 C 19.3162 -1.9396 -0.0965386 0
M  V30 170 O 18.5912 -1.63568 -1.05242 0
M  V30 171 C 18.8742 -2.80847 2.25382 0
M  V30 172 C 18.7272 -2.47076 3.75864 0
M  V30 173 C 20.0462 -3.82741 2.1725 0
M  V30 174 H 17.1652 -0.558303 0.48111 0
M  V30 175 H 19.8072 -0.893397 1.67685 0
M  V30 176 H 17.9572 -3.35931 1.95148 0
M  V30 177 H 19.6292 -1.97957 4.16666 0
M  V30 178 H 17.8722 -1.79863 3.94755 0
M  V30 179 H 18.5432 -3.37798 4.36574 0
M  V30 180 H 21.0192 -3.37133 2.43887 0
M  V30 181 H 19.8952 -4.69303 2.84686 0
M  V30 182 H 20.1562 -4.2652 1.16331 0
M  V30 183 N 19.2153 -1.21501 -1.00376 0
M  V30 184 C 20.1253 -0.991447 -2.12621 0
M  V30 185 C 21.1413 0.0568446 -1.73907 0
M  V30 186 O 22.3173 -0.13348 -2.00957 0
M  V30 187 C 19.3823 -0.560312 -3.42142 0
M  V30 188 C 18.4433 -1.68096 -3.95022 0
M  V30 189 C 17.6763 -1.2703 -5.18362 0
M  V30 190 O 17.8993 -0.144438 -5.70217 0
M  V30 191 O 16.8333 -2.08269 -5.64719 0
M  V30 192 H 20.6593 -1.93158 -2.34358 0
M  V30 193 H 18.2443 -0.999999 -1.10997 0
M  V30 194 H 20.1263 -0.329724 -4.20108 0
M  V30 195 H 18.8013 0.351089 -3.2179 0
M  V30 196 H 17.7083 -1.96597 -3.18278 0
M  V30 197 H 19.0413 -2.56983 -4.19786 0
M  V30 198 N 20.6934 1.19889 -1.02296 0
M  V30 199 C 21.9394 1.89701 -0.717033 0
M  V30 200 C 22.2724 1.7905 0.751989 0
M  V30 201 O 21.5474 1.17891 1.547 0
M  V30 202 C 21.8304 3.40858 -1.16136 0
M  V30 203 C 21.6834 3.60411 -2.69117 0
M  V30 204 C 23.0024 4.33876 -0.737549 0
M  V30 205 H 20.1214 0.688874 -0.261957 0
M  V30 206 H 22.7634 1.41154 -1.27183 0
M  V30 207 H 20.9134 3.82335 -0.689342 0
M  V30 208 H 22.5854 3.28145 -3.2422 0
M  V30 209 H 20.8284 3.03665 -3.0979 0
M  V30 210 H 21.4994 4.66396 -2.95261 0
M  V30 211 H 23.9754 4.00081 -1.14344 0
M  V30 212 H 22.8514 5.38242 -1.0764 0
M  V30 213 H 23.1124 4.40628 0.360436 0
M  V30 214 N 22.1715 0.800033 1.35784 0
M  V30 215 C 23.1345 0.211565 2.28221 0
M  V30 216 C 24.1345 -0.59728 1.49296 0
M  V30 217 O 25.3245 -0.416721 1.69142 0
M  V30 218 C 22.4565 -0.705846 3.33513 0
M  V30 219 H 23.6495 1.02677 2.81776 0
M  V30 220 H 21.2025 0.570211 1.45528 0
M  V30 221 H 21.9375 -1.54498 2.85133 0
M  V30 222 H 21.7225 -0.127655 3.91892 0
M  V30 223 H 23.2125 -1.11211 4.02519 0
M  V30 224 N 23.6496 -1.47581 0.552962 0
M  V30 225 C 24.5796 -2.32762 -0.185451 0
M  V30 226 C 25.5606 -1.43527 -0.912905 0
M  V30 227 O 26.7456 -1.72388 -0.894201 0
M  V30 228 C 23.8756 -3.25219 -1.21859 0
M  V30 229 C 22.8296 -4.23661 -0.607864 0
M  V30 230 C 22.1556 -5.05413 -1.74533 0
M  V30 231 C 23.4556 -5.20481 0.435582 0
M  V30 232 H 25.1496 -2.94749 0.525684 0
M  V30 233 H 22.6956 -1.41738 0.254251 0
M  V30 234 H 24.6486 -3.8365 -1.7433 0
M  V30 235 H 23.3726 -2.61279 -1.95961 0
M  V30 236 H 22.0316 -3.66451 -0.104489 0
M  V30 237 H 21.6796 -4.3788 -2.47529 0
M  V30 238 H 21.3796 -5.72059 -1.34249 0
M  V30 239 H 22.9036 -5.66701 -2.27338 0
M  V30 240 H 24.3176 -5.733 -0.00290157 0
M  V30 241 H 22.7146 -5.95305 0.757067 0
M  V30 242 H 23.7846 -4.66217 1.33303 0
M  V30 243 N 25.1277 -0.289203 -1.54924 0
M  V30 244 C 26.3677 0.324536 -2.01807 0
M  V30 245 C 26.7317 1.5199 -1.17316 0
M  V30 246 O 27.9327 2.20422 -1.53843 0
M  V30 247 C 26.2037 0.683578 -3.50802 0
M  V30 248 S 27.7627 1.28185 -4.19659 0
M  V30 249 H 24.5807 0.100236 -0.703899 0
M  V30 250 H 27.1827 -0.414325 -1.91059 0
M  V30 251 H 25.8867 -0.195073 -4.09936 0
M  V30 252 H 25.4177 1.45354 -3.65562 0
M  V30 253 H 27.4327 2.57006 -4.24456 0
M  V30 254 N 26.6058 1.57591 -0.0167156 0
M  V30 255 C 27.8308 1.9598 0.67872 0
M  V30 256 C 28.2558 0.892546 1.65575 0
M  V30 257 O 27.6138 -0.147772 1.80697 0
M  V30 258 C 27.6618 3.33468 1.37227 0
M  V30 259 O 26.7658 3.28954 2.48722 0
M  V30 260 H 26.1068 0.639339 0.17928 0
M  V30 261 H 28.6368 2.04463 -0.0748802 0
M  V30 262 H 28.6468 3.69417 1.7319 0
M  V30 263 H 27.3218 4.10694 0.656007 0
M  V30 264 H 25.8988 3.04705 2.14963 0
M  V30 265 N 28.0839 -0.256276 1.55502 0
M  V30 266 C 29.3309 -0.985619 1.76895 0
M  V30 267 C 29.6589 -1.85671 0.579355 0
M  V30 268 O 28.9139 -1.90744 -0.437651 0
M  V30 269 C 29.2129 -1.88432 3.03691 0
M  V30 270 C 28.8789 -1.16936 4.35473 0
M  V30 271 C 27.5409 -0.97173 4.71286 0
M  V30 272 C 29.8929 -0.661889 5.1698 0
M  V30 273 C 27.2209 -0.254179 5.86149 0
M  V30 274 C 29.5729 0.042149 6.32586 0
M  V30 275 C 28.2369 0.25134 6.67027 0
M  V30 276 H 27.5069 -0.360663 0.647304 0
M  V30 277 H 30.1539 -0.256483 1.89775 0
M  V30 278 H 28.4589 -2.68021 2.85783 0
M  V30 279 H 30.1559 -2.45015 3.1744 0
M  V30 280 H 26.7459 -1.33332 4.07333 0
M  V30 281 H 30.9299 -0.802145 4.89775 0
M  V30 282 H 26.1859 -0.0815408 6.11346 0
M  V30 283 H 30.3599 0.443049 6.94989 0
M  V30 284 H 27.9869 0.809314 7.5588 0
M  V30 285 N 29.562 -1.4872 -0.521534 0
M  V30 286 C 30.79 -1.60843 -1.30142 0
M  V30 287 C 31.205 -0.271897 -1.86832 0
M  V30 288 O 30.562 0.739969 -1.66825 0
M  V30 289 C 30.613 -2.66155 -2.4463 0
M  V30 290 O 30.334 -3.94623 -1.90275 0
M  V30 291 C 31.835 -2.88795 -3.36322 0
M  V30 292 H 29.055 -0.542075 -0.395468 0
M  V30 293 H 31.599 -1.94609 -0.628285 0
M  V30 294 H 29.754 -2.35224 -3.07812 0
M  V30 295 H 30.168 -4.52468 -2.65279 0
M  V30 296 H 31.642 -3.66264 -4.12983 0
M  V30 297 H 32.119 -1.97934 -3.9207 0
M  V30 298 H 32.725 -3.21063 -2.78924 0
M  V30 299 N 31.0401 0.771051 -1.3745 0
M  V30 300 C 32.2861 1.5319 -1.32894 0
M  V30 301 C 32.6191 1.94008 0.0862511 0
M  V30 302 O 31.8941 1.64124 1.04373 0
M  V30 303 C 32.1771 2.79648 -2.26868 0
M  V30 304 C 32.0301 2.45079 -3.77169 0
M  V30 305 C 33.3491 3.81583 -2.19277 0
M  V30 306 H 30.4681 0.555744 -0.484064 0
M  V30 307 H 33.1101 0.884492 -1.68157 0
M  V30 308 H 31.2601 3.34891 -1.96926 0
M  V30 309 H 32.9321 1.95745 -4.1771 0
M  V30 310 H 31.1751 1.77767 -3.95704 0
M  V30 311 H 31.8461 3.35478 -4.38359 0
M  V30 312 H 34.3221 3.35835 -2.45671 0
M  V30 313 H 33.1981 4.67787 -2.87171 0
M  V30 314 H 33.4591 4.25897 -1.18592 0
M  V30 315 N 32.5182 1.22032 0.997298 0
M  V30 316 C 33.7462 1.06841 1.7718 0
M  V30 317 C 34.1612 -0.381325 1.84909 0
M  V30 318 O 33.5182 -1.26437 1.31605 0
M  V30 319 C 33.5692 1.66814 3.20711 0
M  V30 320 O 33.2902 3.06116 3.13408 0
M  V30 321 C 34.7912 1.56838 4.14628 0
M  V30 322 H 32.0112 0.374782 0.556578 0
M  V30 323 H 34.5552 1.61532 1.2541 0
M  V30 324 H 32.7102 1.16196 3.69564 0
M  V30 325 H 33.1242 3.34926 4.0364 0
M  V30 326 H 34.5982 2.03532 5.13107 0
M  V30 327 H 35.0752 0.524155 4.36061 0
M  V30 328 H 35.6812 2.06741 3.7167 0
M  V30 329 N 33.9963 -1.19345 1.0293 0
M  V30 330 C 35.2363 -1.90738 0.734727 0
M  V30 331 C 35.6003 -1.7785 -0.723414 0
M  V30 332 O 36.8013 -2.43844 -1.13108 0
M  V30 333 C 35.0723 -3.37569 1.17396 0
M  V30 334 S 36.6313 -4.27176 1.00329 0
M  V30 335 H 33.4493 -0.658771 0.267474 0
M  V30 336 H 36.0513 -1.4428 1.31922 0
M  V30 337 H 34.7553 -3.44475 2.23081 0
M  V30 338 H 34.2863 -3.8906 0.582772 0
M  V30 339 H 36.3013 -4.96126 -0.0859152 0
M  V30 340 N 35.4744 -0.807222 -1.35358 0
M  V30 341 C 36.4044 -0.232509 -2.3234 0
M  V30 342 C 37.3854 0.642386 -1.57504 0
M  V30 343 O 38.5704 0.572526 -1.85569 0
M  V30 344 C 35.7004 0.619238 -3.41735 0
M  V30 345 C 34.6544 -0.157215 -4.27711 0
M  V30 346 C 33.9804 0.816273 -5.28433 0
M  V30 347 C 35.2804 -1.35656 -5.04376 0
M  V30 348 H 36.9744 -1.04276 -2.80654 0
M  V30 349 H 34.5204 -0.50288 -1.34934 0
M  V30 350 H 36.4734 1.03137 -4.08584 0
M  V30 351 H 35.1974 1.46239 -2.92031 0
M  V30 352 H 33.8564 -0.550525 -3.62443 0
M  V30 353 H 33.5044 1.65494 -4.74996 0
M  V30 354 H 33.2044 0.301067 -5.86828 0
M  V30 355 H 34.7284 1.22659 -5.98153 0
M  V30 356 H 36.1424 -1.01927 -5.64166 0
M  V30 357 H 34.5394 -1.8063 -5.7227 0
M  V30 358 H 35.6094 -2.14288 -4.34981 0
M  V30 359 N 36.9525 1.47285 -0.560781 0
M  V30 360 C 37.8625 2.33846 0.187954 0
M  V30 361 C 38.8785 1.48412 0.908293 0
M  V30 362 O 40.0545 1.81332 0.876388 0
M  V30 363 C 37.1195 3.25178 1.2025 0
M  V30 364 C 36.1805 4.26504 0.489208 0
M  V30 365 C 35.4135 5.13472 1.45542 0
M  V30 366 O 35.6365 5.02959 2.6905 0
M  V30 367 O 34.5705 5.93902 0.977963 0
M  V30 368 H 38.3965 2.99177 -0.522177 0
M  V30 369 H 35.9815 1.45903 -0.321364 0
M  V30 370 H 37.8635 3.81584 1.78805 0
M  V30 371 H 36.5385 2.6247 1.89449 0
M  V30 372 H 35.4455 3.73847 -0.137627 0
M  V30 373 H 36.7785 4.91935 -0.161399 0
M  V30 374 N 38.4306 0.297415 1.54768 0
M  V30 375 C 39.6766 -0.313376 2.00364 0
M  V30 376 C 40.0096 -1.53815 1.18553 0
M  V30 377 O 39.2846 -1.92739 0.261103 0
M  V30 378 C 39.5676 -0.673525 3.53745 0
M  V30 379 C 39.4206 0.560133 4.46299 0
M  V30 380 C 40.7396 -1.50143 4.13697 0
M  V30 381 H 37.8586 -0.112428 0.728374 0
M  V30 382 H 40.5006 0.4088 1.8555 0
M  V30 383 H 38.6506 -1.28881 3.665 0
M  V30 384 H 40.3226 1.19863 4.45455 0
M  V30 385 H 38.5656 1.19405 4.17043 0
M  V30 386 H 39.2366 0.26405 5.51368 0
M  V30 387 H 41.7126 -0.981588 4.04356 0
M  V30 388 H 40.5886 -1.72221 5.21182 0
M  V30 389 H 40.8496 -2.48952 3.65343 0
M  V30 390 N 39.9087 -1.5758 0.0250728 0
M  V30 391 C 40.8417 -2.05473 -0.992777 0
M  V30 392 C 41.8197 -0.949661 -1.31986 0
M  V30 393 O 43.0037 -1.21969 -1.43722 0
M  V30 394 C 40.1307 -2.4734 -2.31389 0
M  V30 395 C 39.1767 -3.68827 -2.1417 0
M  V30 396 S 40.0097 -5.15655 -1.44429 0
M  V30 397 C 41.1657 -5.60814 -2.77918 0
M  V30 398 H 41.3987 -2.91486 -0.585078 0
M  V30 399 H 38.9317 -1.53269 -0.186507 0
M  V30 400 H 40.8897 -2.72127 -3.07339 0
M  V30 401 H 39.5507 -1.6168 -2.69292 0
M  V30 402 H 38.7437 -3.95955 -3.11826 0
M  V30 403 H 38.3457 -3.44172 -1.46362 0
M  V30 404 H 40.6377 -5.64806 -3.74166 0
M  V30 405 H 41.5807 -6.60414 -2.55459 0
M  V30 406 H 41.9887 -4.8845 -2.82979 0
M  V30 407 N 41.3868 0.248026 -1.55636 0
M  V30 408 C 42.8028 0.596483 -1.48035 0
M  V30 409 C 43.0028 1.88386 -0.715039 0
M  V30 410 O 42.0588 2.51319 -0.243944 0
M  V30 411 C 43.3718 0.700258 -2.92433 0
M  V30 412 C 44.9198 0.792659 -3.02797 0
M  V30 413 C 45.3948 0.928005 -4.485 0
M  V30 414 N 46.8858 0.992903 -4.52433 0
M  V30 415 C 47.6208 1.11687 -5.62418 0
M  V30 416 N 47.1168 1.20645 -6.82214 0
M  V30 417 N 48.9098 1.14994 -5.50212 0
M  V30 418 H 41.0608 -0.597109 -2.03834 0
M  V30 419 H 43.3238 -0.205925 -0.925364 0
M  V30 420 H 43.0298 -0.175658 -3.51261 0
M  V30 421 H 42.9038 1.57255 -3.42857 0
M  V30 422 H 45.2908 1.65903 -2.4405 0
M  V30 423 H 45.3718 -0.104762 -2.55585 0
M  V30 424 H 45.0158 0.0661971 -5.07857 0
M  V30 425 H 44.9458 1.84045 -4.93391 0
M  V30 426 H 47.4368 0.935064 -3.66149 0
M  V30 427 H 47.7498 1.30008 -7.61786 0
M  V30 428 H 46.0948 1.17605 -6.84977 0
M  V30 429 H 49.2858 1.07643 -4.55555 0
M  V30 430 H 49.4588 1.24311 -6.35965 0
M  V30 431 N 42.8649 1.48995 0.513639 0
M  V30 432 C 44.2809 1.35478 0.843682 0
M  V30 433 C 44.4809 0.378213 1.97919 0
M  V30 434 O 43.5369 -0.194689 2.51748 0
M  V30 435 C 44.8499 2.75901 1.1958 0
M  V30 436 C 46.3979 2.84509 1.30474 0
M  V30 437 C 46.8729 4.25671 1.69021 0
M  V30 438 N 48.3639 4.28422 1.76094 0
M  V30 439 C 49.0989 5.34601 2.07338 0
M  V30 440 N 48.5949 6.5104 2.36894 0
M  V30 441 N 50.3879 5.22007 2.08483 0
M  V30 442 H 42.5389 2.11092 -0.235328 0
M  V30 443 H 44.8019 0.947039 -0.0426669 0
M  V30 444 H 44.5079 3.49001 0.434913 0
M  V30 445 H 44.3819 3.10467 2.1422 0
M  V30 446 H 46.7689 2.11655 2.05637 0
M  V30 447 H 46.8499 2.53542 0.339155 0
M  V30 448 H 46.4939 4.99048 0.944135 0
M  V30 449 H 46.4239 4.54094 2.66658 0
M  V30 450 H 48.9149 3.44441 1.55464 0
M  V30 451 H 49.2279 7.2779 2.59887 0
M  V30 452 H 47.5729 6.54287 2.34378 0
M  V30 453 H 50.7639 4.30051 1.84861 0
M  V30 454 H 50.9369 6.04854 2.325 0
M  V30 455 N 44.343 -0.763751 1.37857 0
M  V30 456 C 45.59 -1.52257 1.33506 0
M  V30 457 C 45.918 -1.94343 -0.078022 0
M  V30 458 O 45.173 -1.64958 -1.05297 0
M  V30 459 C 45.472 -2.79499 2.22745 0
M  V30 460 C 45.138 -2.56426 3.70886 0
M  V30 461 C 43.8 -2.49842 4.11257 0
M  V30 462 C 46.152 -2.36008 4.64704 0
M  V30 463 C 43.48 -2.20841 5.43549 0
M  V30 464 C 45.832 -2.0853 5.97242 0
M  V30 465 C 44.496 -2.00396 6.36709 0
M  V30 466 H 43.766 -0.557149 0.488534 0
M  V30 467 H 46.413 -0.879073 1.70131 0
M  V30 468 H 44.718 -3.48447 1.79142 0
M  V30 469 H 46.415 -3.37413 2.16688 0
M  V30 470 H 43.005 -2.62416 3.38874 0
M  V30 471 H 47.189 -2.40079 4.34368 0
M  V30 472 H 42.445 -2.13045 5.73081 0
M  V30 473 H 46.619 -1.91732 6.69486 0
M  V30 474 H 44.246 -1.77688 7.39142 0
M  V30 475 N 45.8211 -1.22559 -0.990812 0
M  V30 476 C 46.7511 -1.0218 -2.09956 0
M  V30 477 C 47.7321 0.0579394 -1.70001 0
M  V30 478 O 48.9171 -0.104684 -1.93918 0
M  V30 479 C 46.0471 -0.601023 -3.4206 0
M  V30 480 C 45.0011 -1.62694 -3.95872 0
M  V30 481 C 44.3271 -1.06193 -5.24049 0
M  V30 482 C 45.6271 -3.01743 -4.2632 0
M  V30 483 H 47.3211 -1.94916 -2.27262 0
M  V30 484 H 44.8671 -0.938566 -1.09211 0
M  V30 485 H 46.8201 -0.445561 -4.19038 0
M  V30 486 H 45.5441 0.362005 -3.24588 0
M  V30 487 H 44.2031 -1.77021 -3.21028 0
M  V30 488 H 43.8511 -0.0901903 -5.02919 0
M  V30 489 H 43.5511 -1.74732 -5.61019 0
M  V30 490 H 45.0751 -0.918092 -6.03658 0
M  V30 491 H 46.4891 -2.90777 -4.94087 0
M  V30 492 H 44.8861 -3.67425 -4.74467 0
M  V30 493 H 45.9561 -3.51518 -3.34011 0
M  V30 494 N 47.2992 1.18797 -1.03562 0
M  V30 495 C 48.2292 2.24472 -0.643019 0
M  V30 496 C 49.2102 1.66433 0.351283 0
M  V30 497 O 50.3952 1.92803 0.232505 0
M  V30 498 C 47.5252 3.473 4.24935e-05 0
M  V30 499 C 46.4792 4.18055 -0.917257 0
M  V30 500 C 45.8052 5.34519 -0.138941 0
M  V30 501 C 47.1052 4.72109 -2.23407 0
M  V30 502 H 48.7992 2.57566 -1.52643 0
M  V30 503 H 46.3452 1.23806 -0.735394 0
M  V30 504 H 48.2982 4.20426 0.286383 0
M  V30 505 H 47.0222 3.13424 0.918299 0
M  V30 506 H 45.6812 3.46821 -1.1879 0
M  V30 507 H 45.3292 4.96891 0.781562 0
M  V30 508 H 45.0292 5.82794 -0.750005 0
M  V30 509 H 46.5532 6.10438 0.1405 0
M  V30 510 H 47.9672 5.36955 -2.00879 0
M  V30 511 H 46.3642 5.30897 -2.79765 0
M  V30 512 H 47.4342 3.89807 -2.88407 0
M  V30 513 N 48.7773 0.814389 1.34928 0
M  V30 514 C 49.7073 0.244827 2.32213 0
M  V30 515 C 50.6883 -0.634024 1.57842 0
M  V30 516 O 51.8733 -0.562676 1.8587 0
M  V30 517 C 49.0033 -0.601106 3.42058 0
M  V30 518 C 47.9573 0.179896 4.27622 0
M  V30 519 C 47.2833 -0.788237 5.28858 0
M  V30 520 C 48.5833 1.38329 5.03649 0
M  V30 521 H 50.2773 1.05763 2.80097 0
M  V30 522 H 47.8233 0.510029 1.34665 0
M  V30 523 H 49.7763 -1.00968 4.09125 0
M  V30 524 H 48.5003 -1.44688 2.92802 0
M  V30 525 H 47.1593 0.569739 3.62146 0
M  V30 526 H 46.8073 -1.62973 4.75866 0
M  V30 527 H 46.5073 -0.269942 5.8698 0
M  V30 528 H 48.0313 -1.19485 5.98795 0
M  V30 529 H 49.4453 1.04918 5.63618 0
M  V30 530 H 47.8423 1.83662 5.71304 0
M  V30 531 H 48.9123 2.16592 4.33839 0
M  V30 532 N 50.2554 -1.46986 0.568584 0
M  V30 533 C 51.4854 -2.0653 0.0539173 0
M  V30 534 C 51.8934 -1.42004 -1.25026 0
M  V30 535 O 51.2364 -0.514541 -1.76347 0
M  V30 536 C 51.2984 -3.58938 -0.200854 0
M  V30 537 C 50.9624 -4.45572 1.01559 0
M  V30 538 C 51.9594 -4.82986 1.92407 0
M  V30 539 C 49.6444 -4.8692 1.23346 0
M  V30 540 C 51.6384 -5.60559 3.03402 0
M  V30 541 C 49.3254 -5.64255 2.34649 0
M  V30 542 C 50.3234 -6.00986 3.24507 0
M  V30 543 O 50.0114 -6.76761 4.33878 0
M  V30 544 H 49.7434 -0.674292 0.0480234 0
M  V30 545 H 52.2974 -1.89812 0.784896 0
M  V30 546 H 50.5274 -3.73911 -0.986279 0
M  V30 547 H 52.2164 -4.0046 -0.662294 0
M  V30 548 H 52.9824 -4.51633 1.76785 0
M  V30 549 H 48.8614 -4.57789 0.543178 0
M  V30 550 H 52.4054 -5.89147 3.73565 0
M  V30 551 H 48.3024 -5.95021 2.5024 0
M  V30 552 H 49.0704 -6.95168 4.32068 0
M  V30 553 N 51.7335 -0.305618 -1.54608 0
M  V30 554 C 52.6965 0.555591 -2.22364 0
M  V30 555 C 53.6965 1.05768 -1.21119 0
M  V30 556 O 54.8865 0.952972 -1.45822 0
M  V30 557 C 52.0185 1.76974 -2.91364 0
M  V30 558 H 53.2115 -0.0364572 -2.99878 0
M  V30 559 H 50.7645 -0.0565007 -1.56198 0
M  V30 560 H 51.4995 2.40151 -2.17941 0
M  V30 561 H 51.2845 1.41732 -3.65588 0
M  V30 562 H 52.7745 2.38148 -3.43038 0
M  V30 563 N 53.2116 1.57565 -0.0334293 0
M  V30 564 C 54.4396 1.9628 0.654347 0
M  V30 565 C 54.8546 0.910138 1.65414 0
M  V30 566 O 54.2116 -0.107595 1.82183 0
M  V30 567 C 54.2626 3.35067 1.35693 0
M  V30 568 O 53.9836 4.36296 0.397191 0
M  V30 569 C 55.4846 3.88439 2.13613 0
M  V30 570 H 52.7046 0.646369 0.180132 0
M  V30 571 H 55.2486 2.04282 -0.0944721 0
M  V30 572 H 53.4036 3.2827 2.05712 0
M  V30 573 H 53.8176 5.1678 0.896597 0
M  V30 574 H 55.2916 4.8788 2.58219 0
M  V30 575 H 55.7686 3.22914 2.97696 0
M  V30 576 H 56.3746 3.98516 1.48543 0
M  V30 577 N 54.6897 -0.239769 1.55765 0
M  V30 578 C 55.6217 -1.32001 1.87372 0
M  V30 579 C 56.6347 -1.43944 0.760522 0
M  V30 580 O 57.8237 -1.45167 1.0387 0
M  V30 581 C 54.9237 -2.69779 2.05115 0
M  V30 582 C 54.0967 -2.80014 3.36022 0
M  V30 583 C 53.1557 -3.98684 3.4342 0
M  V30 584 O 52.1817 -3.87877 4.16582 0
M  V30 585 N 53.3837 -5.12176 2.73232 0
M  V30 586 H 56.1487 -1.0522 2.80622 0
M  V30 587 H 53.7097 -0.429857 1.56089 0
M  V30 588 H 55.7017 -3.47517 2.07399 0
M  V30 589 H 54.2717 -2.89237 1.18577 0
M  V30 590 H 53.4917 -1.88896 3.45994 0
M  V30 591 H 54.7797 -2.83808 4.22292 0
M  V30 592 H 54.1777 -5.2385 2.13536 0
M  V30 593 H 52.7347 -5.88022 2.81199 0
M  V30 594 N 56.1678 -1.49265 -0.50573 0
M  V30 595 C 57.0998 -1.617 -1.62437 0
M  V30 596 C 58.1128 -0.499924 -1.54934 0
M  V30 597 O 59.3018 -0.771785 -1.60953 0
M  V30 598 C 56.4018 -1.5533 -3.01207 0
M  V30 599 C 55.5748 -2.8249 -3.33943 0
M  V30 600 C 54.6338 -2.69238 -4.52103 0
M  V30 601 O 53.6598 -3.43167 -4.5412 0
M  V30 602 N 54.8618 -1.80468 -5.51735 0
M  V30 603 H 57.6268 -2.58177 -1.52199 0
M  V30 604 H 55.1878 -1.46294 -0.693511 0
M  V30 605 H 57.1798 -1.44125 -3.78167 0
M  V30 606 H 55.7498 -0.667297 -3.05395 0
M  V30 607 H 54.9698 -3.08081 -2.45926 0
M  V30 608 H 56.2578 -3.66802 -3.5261 0
M  V30 609 H 55.6558 -1.19653 -5.52901 0
M  V30 610 H 54.2128 -1.75188 -6.27816 0
M  V30 611 N 57.6459 0.756429 -1.3826 0
M  V30 612 C 58.8939 1.51248 -1.34047 0
M  V30 613 C 59.2149 1.94875 0.0698372 0
M  V30 614 O 58.4849 1.67436 1.01696 0
M  V30 615 H 57.0649 0.561018 -0.493222 0
M  V30 616 H 59.7269 0.899347 -1.7291 0
M  V30 617 H 58.8229 2.40472 -1.98947 0
M  V30 618 N 59.124 1.23083 0.984299 0
M  V30 619 C 60.056 0.96636 2.07832 0
M  V30 620 C 61.069 -0.0582135 1.62696 0
M  V30 621 O 62.258 0.176843 1.77622 0
M  V30 622 C 59.358 0.433397 3.36117 0
M  V30 623 C 58.531 1.51722 4.10243 0
M  V30 624 C 57.59 0.989821 5.16807 0
M  V30 625 O 56.616 1.67794 5.43906 0
M  V30 626 N 57.818 -0.184367 5.80207 0
M  V30 627 H 60.583 1.90824 2.31098 0
M  V30 628 H 58.144 1.13888 1.1507 0
M  V30 629 H 60.136 0.065699 4.04647 0
M  V30 630 H 58.706 -0.413806 3.09849 0
M  V30 631 H 57.926 2.05786 3.36223 0
M  V30 632 H 59.214 2.24619 4.56534 0
M  V30 633 H 58.612 -0.760062 5.60571 0
M  V30 634 H 57.169 -0.493366 6.4993 0
M  V30 635 N 60.6021 -1.18246 1.0419 0
M  V30 636 C 61.5651 -2.20128 0.638452 0
M  V30 637 C 62.5651 -1.57885 -0.304805 0
M  V30 638 O 63.7551 -1.73967 -0.0900369 0
M  V30 639 C 60.8871 -3.4084 -0.0637751 0
M  V30 640 H 62.0801 -2.57336 1.54007 0
M  V30 641 H 59.6331 -1.32152 0.834598 0
M  V30 642 H 60.3681 -3.09166 -0.979136 0
M  V30 643 H 60.1531 -3.8726 0.614198 0
M  V30 644 H 61.6431 -4.16274 -0.332512 0
M  V30 645 N 62.0802 -0.821533 -1.34494 0
M  V30 646 C 63.0272 -0.240397 -2.29545 0
M  V30 647 C 63.9972 0.634031 -1.53523 0
M  V30 648 O 65.1822 0.575966 -1.81899 0
M  V30 649 C 62.3222 0.592869 -3.39969 0
M  V30 650 C 61.4352 -0.30365 -4.30932 0
M  V30 651 C 60.5702 0.539049 -5.28458 0
M  V30 652 C 59.6092 -0.356942 -6.11058 0
M  V30 653 N 58.7462 0.446603 -7.00678 0
M  V30 654 H 63.5862 -1.05632 -2.7865 0
M  V30 655 H 61.1232 -0.532413 -1.37127 0
M  V30 656 H 63.0812 1.09129 -4.02675 0
M  V30 657 H 61.7112 1.37392 -2.92102 0
M  V30 658 H 60.7632 -0.920276 -3.691 0
M  V30 659 H 62.0752 -0.992661 -4.88823 0
M  V30 660 H 61.2292 1.102 -5.96608 0
M  V30 661 H 59.9682 1.26157 -4.71101 0
M  V30 662 H 58.9732 -0.932047 -5.41842 0
M  V30 663 H 60.1982 -1.07755 -6.70497 0
M  V30 664 H 58.1442 1.15282 -6.45791 0
M  V30 665 H 58.0612 -0.184048 -7.55776 0
M  V30 666 H 59.3292 0.992352 -7.73158 0
M  V30 667 N 63.5583 1.46682 -0.576371 0
M  V30 668 C 64.5213 2.28707 0.150239 0
M  V30 669 C 65.5213 1.38035 0.824794 0
M  V30 670 O 66.7113 1.60476 0.677719 0
M  V30 671 C 63.8433 3.18248 1.22192 0
M  V30 672 H 65.0363 2.94423 -0.570521 0
M  V30 673 H 62.5893 1.52688 -0.334078 0
M  V30 674 H 63.3243 2.57265 1.97447 0
M  V30 675 H 63.1093 3.85 0.742812 0
M  V30 676 H 64.5993 3.80001 1.73172 0
M  V30 677 N 65.0364 0.313813 1.54444 0
M  V30 678 C 66.2854 -0.292519 1.99568 0
M  V30 679 C 66.5984 -1.54011 1.20582 0
M  V30 680 O 67.8044 -2.22183 1.56035 0
M  V30 681 C 66.2604 -0.571752 3.55329 0
M  V30 682 C 65.8684 0.658229 4.43138 0
M  V30 683 C 67.6124 -1.13857 4.08946 0
M  V30 684 C 65.5194 0.351439 5.90355 0
M  V30 685 H 64.4494 -0.113079 0.745472 0
M  V30 686 H 67.1004 0.424518 1.78522 0
M  V30 687 H 65.4824 -1.34872 3.72325 0
M  V30 688 H 66.6564 1.43403 4.37918 0
M  V30 689 H 64.9714 1.14458 4.0036 0
M  V30 690 H 67.5684 -1.38257 5.16516 0
M  V30 691 H 67.9114 -2.08489 3.6033 0
M  V30 692 H 68.4444 -0.423015 3.95544 0
M  V30 693 H 65.1834 1.26667 6.43145 0
M  V30 694 H 64.7034 -0.386842 5.98551 0
M  V30 695 H 66.3824 -0.0423134 6.46986 0
M  V30 696 N 66.5145 -1.57545 0.0417849 0
M  V30 697 C 67.4775 -2.09885 -0.92093 0
M  V30 698 C 68.4775 -1.01648 -1.24596 0
M  V30 699 O 69.6675 -1.27759 -1.1842 0
M  V30 700 C 66.7995 -2.57527 -2.23367 0
M  V30 701 H 67.9925 -2.96236 -0.467382 0
M  V30 702 H 65.5455 -1.5493 -0.206467 0
M  V30 703 H 66.2805 -1.74542 -2.73323 0
M  V30 704 H 66.0655 -3.36613 -2.01083 0
M  V30 705 H 67.5555 -2.98201 -2.92346 0
M  V30 706 N 67.9926 0.231505 -1.5589 0
M  V30 707 C 68.9026 1.308 -1.94752 0
M  V30 708 C 69.9186 1.51826 -0.849989 0
M  V30 709 O 71.0946 1.6515 -1.15271 0
M  V30 710 C 68.1596 2.63968 -2.24771 0
M  V30 711 C 67.2206 2.51331 -3.48039 0
M  V30 712 C 66.4536 3.78148 -3.76616 0
M  V30 713 O 66.6766 4.80722 -3.07022 0
M  V30 714 O 65.6106 3.75857 -4.70123 0
M  V30 715 H 69.4366 1.0083 -2.86474 0
M  V30 716 H 67.0216 0.433547 -1.42971 0
M  V30 717 H 68.9036 3.42633 -2.45318 0
M  V30 718 H 67.5786 2.9364 -1.36225 0
M  V30 719 H 66.4856 1.709 -3.32782 0
M  V30 720 H 67.8186 2.26601 -4.36936 0
M  V30 721 N 69.4707 1.49531 0.497807 0
M  V30 722 C 70.3807 1.69176 1.62532 0
M  V30 723 C 71.3967 0.5744 1.64246 0
M  V30 724 O 72.5727 0.849497 1.82608 0
M  V30 725 C 69.6377 1.75695 2.98885 0
M  V30 726 C 68.6987 2.9929 3.07773 0
M  V30 727 C 67.9317 3.05488 4.37622 0
M  V30 728 O 68.1547 2.19192 5.26603 0
M  V30 729 O 67.0887 3.9798 4.51548 0
M  V30 730 H 70.9147 2.647 1.48887 0
M  V30 731 H 68.4997 1.3331 0.674441 0
M  V30 732 H 70.3817 1.82317 3.79919 0
M  V30 733 H 69.0567 0.8335 3.12785 0
M  V30 734 H 67.9637 2.98183 2.25915 0
M  V30 735 H 69.2967 3.91125 2.98801 0
M  V30 736 N 70.9488 -0.749086 1.3866 0
M  V30 737 C 72.1978 -1.50371 1.3443 0
M  V30 738 C 72.5108 -1.95503 -0.0616397 0
M  V30 739 O 73.7168 -2.70554 -0.226489 0
M  V30 740 C 72.1728 -2.71644 2.36088 0
M  V30 741 C 71.7808 -2.3352 3.82325 0
M  V30 742 C 73.5248 -3.49518 2.40909 0
M  V30 743 C 71.4318 -3.51431 4.75658 0
M  V30 744 H 70.3618 -0.564628 0.499712 0
M  V30 745 H 73.0128 -0.818449 1.64237 0
M  V30 746 H 71.3948 -3.42175 1.9933 0
M  V30 747 H 72.5688 -1.70627 4.28046 0
M  V30 748 H 70.8838 -1.6877 3.80665 0
M  V30 749 H 73.4808 -4.37197 3.07836 0
M  V30 750 H 73.8238 -3.90992 1.42937 0
M  V30 751 H 74.3568 -2.86005 2.76489 0
M  V30 752 H 71.0958 -3.15019 5.74842 0
M  V30 753 H 70.6158 -4.13352 4.34627 0
M  V30 754 H 72.2948 -4.17953 4.93887 0
M  V30 755 N 72.4269 -1.23603 -0.977757 0
M  V30 756 C 73.6669 -1.08148 -1.73446 0
M  V30 757 C 74.0309 0.374785 -1.88307 0
M  V30 758 O 75.2319 0.650588 -2.60808 0
M  V30 759 C 73.5029 -1.78991 -3.0935 0
M  V30 760 S 75.0619 -1.79141 -4.00567 0
M  V30 761 H 71.8799 -0.386987 -0.596458 0
M  V30 762 H 74.4819 -1.5678 -1.16792 0
M  V30 763 H 73.1859 -2.8408 -2.96187 0
M  V30 764 H 72.7169 -1.30651 -3.71071 0
M  V30 765 H 74.7319 -0.851892 -4.88833 0
M  V30 766 N 73.905 1.17692 -1.04816 0
M  V30 767 C 74.815 2.25229 -0.65643 0
M  V30 768 C 75.831 1.71018 0.320761 0
M  V30 769 O 77.007 2.00649 0.173805 0
M  V30 770 C 74.072 3.46684 -0.0332629 0
M  V30 771 C 73.133 4.15997 -1.06042 0
M  V30 772 C 72.366 5.31654 -0.466893 0
M  V30 773 O 72.589 5.65777 0.724758 0
M  V30 774 O 71.523 5.89831 -1.1993 0
M  V30 775 H 75.349 2.61016 -1.55255 0
M  V30 776 H 72.934 1.24919 -0.81949 0
M  V30 777 H 74.816 4.20234 0.313256 0
M  V30 778 H 73.491 3.12703 0.836566 0
M  V30 779 H 72.398 3.44482 -1.45886 0
M  V30 780 H 73.731 4.53996 -1.90127 0
M  V30 781 N 75.3831 0.828654 1.34056 0
M  V30 782 C 76.3151 0.212052 2.28217 0
M  V30 783 C 77.3281 -0.601362 1.51286 0
M  V30 784 O 78.5171 -0.430104 1.73241 0
M  V30 785 C 75.6171 -0.72088 3.31144 0
M  V30 786 C 74.7901 0.0509587 4.3737 0
M  V30 787 C 73.8491 -0.803766 5.20025 0
M  V30 788 O 72.8751 -0.246667 5.68665 0
M  V30 789 N 74.0771 -2.1227 5.40298 0
M  V30 790 H 76.8421 1.02105 2.81771 0
M  V30 791 H 74.4031 0.686153 1.46641 0
M  V30 792 H 76.3951 -1.29742 3.8334 0
M  V30 793 H 74.9651 -1.43061 2.77943 0
M  V30 794 H 74.1851 0.808831 3.85813 0
M  V30 795 H 75.4731 0.582065 5.0546 0
M  V30 796 H 74.8711 -2.59898 5.02464 0
M  V30 797 H 73.4281 -2.64796 5.95589 0
M  V30 798 N 76.8612 -1.46375 0.584142 0
M  V30 799 C 77.8242 -2.28784 -0.138108 0
M  V30 800 C 78.8242 -1.38471 -0.817462 0
M  V30 801 O 80.0142 -1.60833 -0.669199 0
M  V30 802 C 77.1462 -3.18892 -1.20503 0
M  V30 803 H 78.3392 -2.94117 0.586127 0
M  V30 804 H 75.8922 -1.52509 0.342171 0
M  V30 805 H 76.6272 -2.58309 -1.96079 0
M  V30 806 H 76.4122 -3.85388 -0.722384 0
M  V30 807 H 77.9022 -3.80914 -1.71155 0
M  V30 808 N 78.3393 -0.321999 -1.54275 0
M  V30 809 C 79.5853 0.281461 -2.00837 0
M  V30 810 C 79.9183 1.51909 -1.20985 0
M  V30 811 O 79.1933 1.923 -0.291733 0
M  V30 812 C 79.4763 0.617162 -3.54772 0
M  V30 813 C 79.3293 -0.631064 -4.45351 0
M  V30 814 C 80.6483 1.43542 -4.16033 0
M  V30 815 H 77.7673 0.100826 -0.730071 0
M  V30 816 H 80.4093 -0.438268 -1.84876 0
M  V30 817 H 78.5593 1.23034 -3.68504 0
M  V30 818 H 80.2313 -1.26934 -4.43492 0
M  V30 819 H 78.4743 -1.26025 -4.15091 0
M  V30 820 H 79.1453 -0.351735 -5.50878 0
M  V30 821 H 81.6213 0.917134 -4.05867 0
M  V30 822 H 80.4973 1.63907 -5.23856 0
M  V30 823 H 80.7583 2.43108 -3.69257 0
M  V30 824 N 79.8174 1.5752 -0.0501392 0
M  V30 825 C 81.0634 1.92936 0.624798 0
M  V30 826 C 81.3964 0.928685 1.70555 0
M  V30 827 O 80.6714 -0.0454779 1.94447 0
M  V30 828 C 80.9544 3.38737 1.22185 0
M  V30 829 C 80.8074 4.49552 0.149218 0
M  V30 830 C 82.1264 3.84913 2.13378 0
M  V30 831 H 79.2454 0.701604 0.225657 0
M  V30 832 H 81.8874 1.89671 -0.111693 0
M  V30 833 H 80.0374 3.4165 1.84953 0
M  V30 834 H 81.7094 4.58768 -0.482648 0
M  V30 835 H 79.9524 4.30638 -0.522841 0
M  V30 836 H 80.6234 5.48653 0.606966 0
M  V30 837 H 83.0994 3.8387 1.60572 0
M  V30 838 H 81.9754 4.87584 2.52097 0
M  V30 839 H 82.2364 3.21611 3.03346 0
M  V30 840 N 81.2955 -0.223234 1.56011 0
M  V30 841 C 82.2455 -1.28008 1.88674 0
M  V30 842 C 83.2295 -1.42369 0.749663 0
M  V30 843 O 84.4215 -1.45212 1.01205 0
M  V30 844 C 81.5505 -2.63084 2.20548 0
M  V30 845 C 80.6365 -2.52632 3.40643 0
M  V30 846 N 81.0275 -2.11829 4.59306 0
M  V30 847 C 79.3255 -2.83594 3.44224 0
M  V30 848 C 80.0265 -2.12587 5.41463 0
M  V30 849 N 79.0025 -2.5301 4.81131 0
M  V30 850 H 82.8045 -0.955487 2.77935 0
M  V30 851 H 80.3185 -0.431801 1.56554 0
M  V30 852 H 82.3155 -3.39385 2.42122 0
M  V30 853 H 80.9755 -2.96391 1.32599 0
M  V30 854 H 81.9865 -1.82988 4.84496 0
M  V30 855 H 78.6635 -3.21284 2.66614 0
M  V30 856 H 80.0535 -1.83179 6.46448 0
M  V30 857 N 82.7736 -1.49793 -0.48987 0
M  V30 858 C 84.0216 -1.59525 -1.24081 0
M  V30 859 C 84.3426 -0.288953 -1.92847 0
M  V30 860 O 83.6126 0.692436 -1.83254 0
M  V30 861 H 82.1926 -0.587796 -0.460983 0
M  V30 862 H 84.8546 -1.86477 -0.566778 0
M  V30 863 H 83.9506 -2.39696 -1.99881 0
M  V30 864 N 84.2517 0.741722 -1.39055 0
M  V30 865 C 85.4987 1.50114 -1.35912 0
M  V30 866 C 85.8267 1.94443 0.0470937 0
M  V30 867 O 85.0817 1.66612 1.02659 0
M  V30 868 C 85.3807 2.7592 -2.27163 0
M  V30 869 C 85.0467 2.50493 -3.74919 0
M  V30 870 C 83.7087 2.43267 -4.1518 0
M  V30 871 C 86.0607 2.28585 -4.684 0
M  V30 872 C 83.3887 2.12166 -5.46994 0
M  V30 873 C 85.7407 1.99002 -6.00484 0
M  V30 874 C 84.4047 1.90241 -6.39816 0
M  V30 875 H 83.6747 0.549306 -0.497336 0
M  V30 876 H 86.3217 0.851896 -1.71508 0
M  V30 877 H 84.6267 3.45553 -1.84663 0
M  V30 878 H 86.3237 3.33923 -2.22028 0
M  V30 879 H 82.9137 2.56992 -3.43006 0
M  V30 880 H 87.0977 2.33139 -4.38132 0
M  V30 881 H 82.3537 2.03901 -5.76398 0
M  V30 882 H 86.5277 1.81057 -6.72452 0
M  V30 883 H 84.1547 1.65907 -7.41875 0
M  V30 884 N 85.7298 1.2412 0.971189 0
M  V30 885 C 86.9548 1.10667 1.75407 0
M  V30 886 C 87.3798 -0.337048 1.85056 0
M  V30 887 O 86.7378 -1.24396 1.31892 0
M  V30 888 C 86.7858 1.74726 3.15441 0
M  V30 889 O 85.8898 1.01566 3.99697 0
M  V30 890 H 85.2308 0.387341 0.539317 0
M  V30 891 H 87.7608 1.64358 1.2185 0
M  V30 892 H 87.7708 1.80341 3.6598 0
M  V30 893 H 86.4458 2.79773 3.07734 0
M  V30 894 H 85.0228 1.03713 3.58187 0
M  V30 895 N 87.2079 -1.17134 1.05439 0
M  V30 896 C 88.1709 -2.19439 0.661764 0
M  V30 897 C 89.1709 -1.58199 -0.288042 0
M  V30 898 O 90.3609 -1.74053 -0.0715803 0
M  V30 899 C 87.4929 -3.40889 -0.0276209 0
M  V30 900 H 88.6859 -2.55688 1.56728 0
M  V30 901 H 86.2389 -1.31259 0.848567 0
M  V30 902 H 86.9739 -3.10187 -0.94629 0
M  V30 903 H 86.7589 -3.86586 0.655238 0
M  V30 904 H 88.2489 -4.16603 -0.288342 0
M  V30 905 N 88.686 -0.835752 -1.33615 0
M  V30 906 C 89.963 -0.352017 -1.92406 0
M  V30 907 C 90.343 1.16225 -1.76224 0
M  V30 908 O 89.691 1.97526 -1.14873 0
M  V30 909 C 89.901 -0.795485 -3.39813 0
M  V30 910 C 91.249 -0.801703 -4.16963 0
M  V30 911 O 92.273 -0.738889 -3.48452 0
M  V30 912 O 91.132 -0.886607 -5.3926 0
M  V30 913 H 88.226 -0.0989641 -0.821057 0
M  V30 914 H 90.772 -0.921397 -1.42507 0
M  V30 915 H 89.544 -1.83795 -3.45449 0
M  V30 916 H 89.167 -0.202505 -3.97084 0
M  V30 917 N 90.1641 1.46063 -0.591896 0
M  V30 918 C 91.0941 2.33172 0.123673 0
M  V30 919 C 92.0751 1.45897 0.87453 0
M  V30 920 O 93.2601 1.74698 0.848181 0
M  V30 921 C 90.3901 3.28336 1.13194 0
M  V30 922 C 89.3441 4.25124 0.495324 0
M  V30 923 C 88.6701 5.09863 1.61071 0
M  V30 924 C 89.9701 5.19143 -0.573425 0
M  V30 925 H 91.6641 2.93252 -0.603646 0
M  V30 926 H 89.2101 1.41014 -0.291741 0
M  V30 927 H 91.1631 3.88137 1.64097 0
M  V30 928 H 89.8871 2.66383 1.88965 0
M  V30 929 H 88.5461 3.66599 0.00729452 0
M  V30 930 H 88.1941 4.44288 2.35832 0
M  V30 931 H 87.8941 5.75417 1.19035 0
M  V30 932 H 89.4181 5.72529 2.12233 0
M  V30 933 H 90.8321 5.73106 -0.1491 0
M  V30 934 H 89.2291 5.93089 -0.914636 0
M  V30 935 H 90.2991 4.62519 -1.45617 0
M  V30 936 N 91.6422 0.330177 1.54103 0
M  V30 937 C 92.5922 -0.548456 2.21305 0
M  V30 938 C 93.5762 -1.07651 1.19583 0
M  V30 939 O 94.7682 -1.01243 1.45186 0
M  V30 940 C 91.8972 -1.70559 2.97934 0
M  V30 941 C 90.9832 -1.19212 4.07 0
M  V30 942 N 91.3742 -0.398831 5.04225 0
M  V30 943 C 89.6722 -1.47024 4.2107 0
M  V30 944 C 90.3732 -0.121761 5.81573 0
M  V30 945 N 89.3492 -0.709722 5.38947 0
M  V30 946 H 93.1512 0.0648483 2.93828 0
M  V30 947 H 90.6652 0.136363 1.61826 0
M  V30 948 H 92.6622 -2.34688 3.44568 0
M  V30 949 H 91.3222 -2.32231 2.26934 0
M  V30 950 H 92.3332 -0.0410869 5.17884 0
M  V30 951 H 89.0102 -2.09232 3.61287 0
M  V30 952 H 90.4002 0.517298 6.69906 0
M  V30 953 N 93.1203 -1.57491 0.0584922 0
M  V30 954 C 94.3603 -1.94851 -0.617458 0
M  V30 955 C 94.7243 -0.937165 -1.67575 0
M  V30 956 O 95.9253 -1.19795 -2.40629 0
M  V30 957 C 94.1963 -3.36955 -1.19147 0
M  V30 958 S 95.7553 -3.96277 -1.8844 0
M  V30 959 H 92.5733 -0.681539 -0.202547 0
M  V30 960 H 95.1753 -1.95073 0.129176 0
M  V30 961 H 93.8793 -4.08355 -0.409215 0
M  V30 962 H 93.4103 -3.40245 -1.97476 0
M  V30 963 H 95.4253 -3.82099 -3.16568 0
M  V30 964 N 94.5984 0.214957 -1.56127 0
M  V30 965 C 95.8474 0.936451 -1.78643 0
M  V30 966 C 96.1604 1.85237 -0.628229 0
M  V30 967 O 97.3664 2.613 -0.737186 0
M  V30 968 C 95.8224 1.7154 -3.16389 0
M  V30 969 C 95.4304 0.845299 -4.39953 0
M  V30 970 C 97.1744 2.42772 -3.48227 0
M  V30 971 C 95.0814 1.62198 -5.68723 0
M  V30 972 H 94.0114 0.353401 -0.666051 0
M  V30 973 H 96.6624 0.190169 -1.82512 0
M  V30 974 H 95.0444 2.50484 -3.06715 0
M  V30 975 H 96.2184 0.0959353 -4.607 0
M  V30 976 H 94.5334 0.244789 -4.1568 0
M  V30 977 H 97.1304 3.01394 -4.41663 0
M  V30 978 H 97.4734 3.15984 -2.71035 0
M  V30 979 H 98.0064 1.70813 -3.5926 0
M  V30 980 H 94.7454 0.933011 -6.48826 0
M  V30 981 H 94.2654 2.34579 -5.52026 0
M  V30 982 H 95.9444 2.18095 -6.09133 0
M  V30 983 N 96.0765 1.50051 0.48192 0
M  V30 984 C 97.3015 1.64508 1.26301 0
M  V30 985 C 97.7265 0.323851 1.85291 0
M  V30 986 O 97.0845 -0.710969 1.66778 0
M  V30 987 C 97.1325 2.7305 2.35533 0
M  V30 988 O 96.2365 2.3355 3.39895 0
M  V30 989 H 95.5775 0.549978 0.372048 0
M  V30 990 H 98.1075 1.9636 0.574786 0
M  V30 991 H 98.1175 2.95799 2.8101 0
M  V30 992 H 96.7925 3.68946 1.91967 0
M  V30 993 H 95.3695 2.21205 3.00204 0
M  V30 994 N 97.5546 -0.734337 1.39446 0
M  V30 995 C 98.4646 -1.87879 1.40495 0
M  V30 996 C 99.4806 -1.714 0.299672 0
M  V30 997 O 100.657 -1.93991 0.541249 0
M  V30 998 C 97.7216 -3.23477 1.24754 0
M  V30 999 C 96.7826 -3.52344 2.45259 0
M  V30 1000 C 96.0156 -4.81473 2.30259 0
M  V30 1001 O 96.2386 -5.55237 1.30643 0
M  V30 1002 O 95.1726 -5.10254 3.19256 0
M  V30 1003 H 98.9986 -1.89949 2.36966 0
M  V30 1004 H 96.5836 -0.882243 1.20569 0
M  V30 1005 H 98.4656 -4.04509 1.18111 0
M  V30 1006 H 97.1406 -3.22176 0.313781 0
M  V30 1007 H 96.0476 -2.71396 2.57478 0
M  V30 1008 H 97.3806 -3.58426 3.37331 0
M  V30 1009 N 99.0327 -1.24633 -0.964593 0
M  V30 1010 C 100.258 -1.11596 -1.74818 0
M  V30 1011 C 100.683 0.32723 -1.85232 0
M  V30 1012 O 100.041 1.23695 -1.32549 0
M  V30 1013 C 100.089 -1.76397 -3.1451 0
M  V30 1014 O 99.1927 -1.03685 -3.99153 0
M  V30 1015 H 98.5337 -0.390196 -0.537255 0
M  V30 1016 H 101.064 -1.65002 -1.20977 0
M  V30 1017 H 101.074 -1.8228 -3.65018 0
M  V30 1018 H 99.7487 -2.81401 -3.06246 0
M  V30 1019 H 98.3257 -1.05611 -3.57632 0
M  V30 1020 N 100.511 1.16574 -1.06058 0
M  V30 1021 C 101.788 1.83048 -0.689416 0
M  V30 1022 C 102.168 1.94122 0.829443 0
M  V30 1023 O 101.516 1.48249 1.7388 0
M  V30 1024 C 101.726 3.20186 -1.38859 0
M  V30 1025 C 103.074 3.95989 -1.53226 0
M  V30 1026 O 104.098 3.29696 -1.3483 0
M  V30 1027 O 102.957 5.14813 -1.83384 0
M  V30 1028 H 100.051 0.790258 -0.243764 0
M  V30 1029 H 102.597 1.23797 -1.16071 0
M  V30 1030 H 101.369 3.07146 -2.4244 0
M  V30 1031 H 100.992 3.87112 -0.907216 0
M  V30 1032 N 101.989 0.842826 1.3317 0
M  V30 1033 C 102.936 0.276885 2.29133 0
M  V30 1034 C 103.906 -0.609527 1.54512 0
M  V30 1035 O 105.091 -0.546955 1.82792 0
M  V30 1036 C 102.231 -0.538707 3.40869 0
M  V30 1037 C 101.344 0.372169 4.30394 0
M  V30 1038 C 100.479 -0.454908 5.29249 0
M  V30 1039 C 99.5179 0.45411 6.10413 0
M  V30 1040 N 98.6549 -0.335075 7.013 0
M  V30 1041 H 103.495 1.10052 2.76934 0
M  V30 1042 H 101.032 0.554161 1.36262 0
M  V30 1043 H 102.99 -1.02709 4.0436 0
M  V30 1044 H 101.62 -1.32727 2.9425 0
M  V30 1045 H 100.672 0.97888 3.6759 0
M  V30 1046 H 101.984 1.0703 4.87182 0
M  V30 1047 H 101.138 -1.00695 5.98285 0
M  V30 1048 H 99.8769 -1.18646 4.73048 0
M  V30 1049 H 98.8819 1.01813 5.40291 0
M  V30 1050 H 100.107 1.18409 6.68697 0
M  V30 1051 H 98.0529 -1.04994 6.47543 0
M  V30 1052 H 97.9699 0.304262 7.55387 0
M  V30 1053 H 99.2379 -0.869224 7.74638 0
M  V30 1054 N 103.467 -1.45747 0.599634 0
M  V30 1055 C 104.697 -2.06369 0.0977132 0
M  V30 1056 C 105.105 -1.44624 -1.21985 0
M  V30 1057 O 104.448 -0.551831 -1.75216 0
M  V30 1058 C 104.51 -3.59284 -0.124673 0
M  V30 1059 C 104.174 -4.43318 1.10987 0
M  V30 1060 C 105.171 -4.78796 2.02609 0
M  V30 1061 C 102.856 -4.84194 1.33647 0
M  V30 1062 C 104.85 -5.53997 3.15224 0
M  V30 1063 C 102.537 -5.5915 2.46565 0
M  V30 1064 C 103.535 -5.93968 3.37182 0
M  V30 1065 O 103.223 -6.67405 4.48136 0
M  V30 1066 H 102.955 -0.673122 0.0623153 0
M  V30 1067 H 105.509 -1.88104 0.824981 0
M  V30 1068 H 103.739 -3.75919 -0.906745 0
M  V30 1069 H 105.428 -4.01775 -0.577201 0
M  V30 1070 H 106.194 -4.47781 1.86325 0
M  V30 1071 H 102.073 -4.56534 0.64016 0
M  V30 1072 H 105.617 -5.81091 3.85978 0
M  V30 1073 H 101.514 -5.89579 2.62805 0
M  V30 1074 H 102.282 -6.85847 4.46717 0
M  V30 1075 N 104.945 -0.338344 -1.53925 0
M  V30 1076 C 106.222 0.314774 -1.93051 0
M  V30 1077 C 106.602 1.68669 -1.26941 0
M  V30 1078 O 105.95 2.24636 -0.418445 0
M  V30 1079 C 106.16 0.392249 -3.46789 0
M  V30 1080 C 107.508 0.645554 -4.19664 0
M  V30 1081 O 108.532 0.474575 -3.53024 0
M  V30 1082 O 107.391 0.976408 -5.37707 0
M  V30 1083 H 104.485 0.182598 -0.80659 0
M  V30 1084 H 107.031 -0.389141 -1.65178 0
M  V30 1085 H 105.803 -0.570702 -3.87116 0
M  V30 1086 H 105.426 1.14316 -3.80812 0
M  V30 1087 N 106.423 1.57458 -0.0668435 0
M  V30 1088 C 107.353 2.15468 0.899764 0
M  V30 1089 C 108.334 1.08042 1.31381 0
M  V30 1090 O 109.519 1.36054 1.38574 0
M  V30 1091 C 106.649 2.71232 2.16911 0
M  V30 1092 C 105.603 3.83781 1.89463 0
M  V30 1093 C 104.929 4.26127 3.22986 0
M  V30 1094 C 106.229 5.08238 1.20381 0
M  V30 1095 H 107.923 2.96488 0.416529 0
M  V30 1096 H 105.469 1.4262 0.198908 0
M  V30 1097 H 107.422 3.10458 2.84945 0
M  V30 1098 H 106.146 1.87426 2.67468 0
M  V30 1099 H 104.805 3.45051 1.23836 0
M  V30 1100 H 104.453 3.39249 3.71374 0
M  V30 1101 H 104.153 5.01993 3.05413 0
M  V30 1102 H 105.677 4.67966 3.92225 0
M  V30 1103 H 107.091 5.44811 1.78475 0
M  V30 1104 H 105.488 5.89349 1.13083 0
M  V30 1105 H 106.558 4.84558 0.182153 0
M  V30 1106 N 107.901 -0.206675 1.56239 0
M  V30 1107 C 108.848 -1.25617 1.93621 0
M  V30 1108 C 109.818 -1.45824 0.795274 0
M  V30 1109 O 111.003 -1.59148 1.05245 0
M  V30 1110 C 108.143 -2.59839 2.27107 0
M  V30 1111 C 107.256 -2.47308 3.54207 0
M  V30 1112 C 106.391 -3.74155 3.7707 0
M  V30 1113 C 105.43 -3.56407 4.97635 0
M  V30 1114 N 104.567 -4.75238 5.1681 0
M  V30 1115 H 109.407 -0.930383 2.83104 0
M  V30 1116 H 106.944 -0.448065 1.4011 0
M  V30 1117 H 108.902 -3.38021 2.44535 0
M  V30 1118 H 107.532 -2.90485 1.40778 0
M  V30 1119 H 106.584 -1.60483 3.4489 0
M  V30 1120 H 107.896 -2.30122 4.42544 0
M  V30 1121 H 107.05 -4.60778 3.94675 0
M  V30 1122 H 105.789 -3.94282 2.87042 0
M  V30 1123 H 104.794 -2.68168 4.79964 0
M  V30 1124 H 106.019 -3.37736 5.89161 0
M  V30 1125 H 103.965 -4.95651 4.29728 0
M  V30 1126 H 103.882 -4.60835 5.99306 0
M  V30 1127 H 105.15 -5.63246 5.38864 0
M  V30 1128 N 109.379 -1.50304 -0.473955 0
M  V30 1129 C 110.607 -1.64902 -1.24959 0
M  V30 1130 C 111.022 -0.331198 -1.85872 0
M  V30 1131 O 110.379 0.68652 -1.69095 0
M  V30 1132 C 110.43 -2.73803 -2.36038 0
M  V30 1133 O 110.151 -4.00477 -1.77624 0
M  V30 1134 C 111.652 -2.99349 -3.26964 0
M  V30 1135 H 108.872 -0.554383 -0.378022 0
M  V30 1136 H 111.416 -1.9651 -0.566054 0
M  V30 1137 H 109.571 -2.44898 -3.00173 0
M  V30 1138 H 109.985 -4.60678 -2.5075 0
M  V30 1139 H 111.459 -3.79217 -4.01121 0
M  V30 1140 H 111.936 -2.10307 -3.85574 0
M  V30 1141 H 112.542 -3.29774 -2.68569 0
M  V30 1142 N 110.857 0.726932 -1.39834 0
M  V30 1143 C 111.767 1.87131 -1.41489 0
M  V30 1144 C 112.783 1.71239 -0.308757 0
M  V30 1145 O 113.959 1.93701 -0.551529 0
M  V30 1146 C 111.024 3.22811 -1.26468 0
M  V30 1147 C 110.085 3.51039 -2.47124 0
M  V30 1148 C 109.318 4.80245 -2.3281 0
M  V30 1149 O 109.541 5.54537 -1.33585 0
M  V30 1150 O 108.475 5.08554 -3.21957 0
M  V30 1151 H 112.301 1.8869 -2.3797 0
M  V30 1152 H 109.886 0.875837 -1.21035 0
M  V30 1153 H 111.768 4.03877 -1.20255 0
M  V30 1154 H 110.443 3.22005 -0.330862 0
M  V30 1155 H 109.35 2.70027 -2.58914 0
M  V30 1156 H 110.683 3.56632 -3.39227 0
M  V30 1157 N 112.336 1.25143 0.95797 0
M  V30 1158 C 113.564 1.12424 1.73691 0
M  V30 1159 C 113.979 -0.322304 1.86029 0
M  V30 1160 O 113.336 -1.22186 1.35561 0
M  V30 1161 C 113.387 1.76933 3.15241 0
M  V30 1162 O 113.108 3.15932 3.03511 0
M  V30 1163 C 114.609 1.6995 4.09429 0
M  V30 1164 H 111.829 0.3923 0.544373 0
M  V30 1165 H 114.373 1.6544 1.20207 0
M  V30 1166 H 112.528 1.27895 3.6568 0
M  V30 1167 H 112.942 3.47598 3.9278 0
M  V30 1168 H 114.416 2.19753 5.06372 0
M  V30 1169 H 114.893 0.662619 4.34173 0
M  V30 1170 H 115.499 2.18461 3.64904 0
M  V30 1171 N 113.814 -1.1601 1.06675 0
M  V30 1172 C 114.777 -2.18724 0.685001 0
M  V30 1173 C 115.777 -1.58496 -0.271246 0
M  V30 1174 O 116.967 -1.74119 -0.0531156 0
M  V30 1175 C 114.099 -3.40899 0.00853648 0
M  V30 1176 H 115.292 -2.54011 1.59431 0
M  V30 1177 H 112.845 -1.30352 0.862441 0
M  V30 1178 H 113.58 -3.11173 -0.913337 0
M  V30 1179 H 113.365 -3.8587 0.696204 0
M  V30 1180 H 114.855 -4.16886 -0.24414 0
M  V30 1181 N 115.292 -0.849877 -1.32721 0
M  V30 1182 C 116.703 -0.506188 -1.79707 0
M  V30 1183 C 117.054 0.975627 -1.70223 0
M  V30 1184 O 116.179 1.76078 -1.25799 0
M  V30 1185 C 116.774 -0.912044 -3.26293 0
M  V30 1186 C 115.333 -0.620326 -3.71253 0
M  V30 1187 C 114.48 -1.11439 -2.53922 0
M  V30 1188 H 117.431 -1.03754 -1.20087 0
M  V30 1189 H 117.452 -0.226493 -3.79825 0
M  V30 1190 H 116.964 -1.99057 -3.33164 0
M  V30 1191 H 115.065 0.447674 -3.69901 0
M  V30 1192 H 115.178 -1.18327 -4.64258 0
M  V30 1193 H 113.542 -0.534834 -2.49021 0
M  V30 1194 H 114.325 -2.19992 -2.6355 0
M  V30 1195 N 116.77 1.45427 -0.607355 0
M  V30 1196 C 117.7 2.3329 0.0989352 0
M  V30 1197 C 118.681 1.46816 0.859007 0
M  V30 1198 O 119.866 1.75588 0.829604 0
M  V30 1199 C 116.996 3.29518 1.09705 0
M  V30 1200 C 115.95 4.25626 0.450206 0
M  V30 1201 C 115.276 5.11542 1.55655 0
M  V30 1202 C 116.576 5.18505 -0.628455 0
M  V30 1203 H 118.27 2.92595 -0.634716 0
M  V30 1204 H 115.816 1.40696 -0.306681 0
M  V30 1205 H 117.769 3.89855 1.59971 0
M  V30 1206 H 116.493 2.68372 1.86129 0
M  V30 1207 H 115.152 3.66586 -0.0315886 0
M  V30 1208 H 114.8 4.46765 2.31107 0
M  V30 1209 H 114.5 5.76647 1.12925 0
M  V30 1210 H 116.024 5.74748 2.06148 0
M  V30 1211 H 117.438 5.72916 -0.209877 0
M  V30 1212 H 115.835 5.92085 -0.977489 0
M  V30 1213 H 116.905 4.60948 -1.50514 0
M  V30 1214 N 118.248 0.346503 1.53744 0
M  V30 1215 C 119.494 -0.249473 2.0126 0
M  V30 1216 C 119.827 -1.49965 1.23386 0
M  V30 1217 O 119.102 -1.91811 0.32229 0
M  V30 1218 C 119.385 -0.560643 3.55709 0
M  V30 1219 C 119.238 0.701836 4.44291 0
M  V30 1220 C 120.557 -1.36905 4.18264 0
M  V30 1221 H 117.676 -0.0891987 0.731582 0
M  V30 1222 H 120.318 0.467624 1.84156 0
M  V30 1223 H 118.468 -1.17156 3.70414 0
M  V30 1224 H 120.14 1.33974 4.41417 0
M  V30 1225 H 118.383 1.32612 4.13033 0
M  V30 1226 H 119.054 0.43933 5.50249 0
M  V30 1227 H 121.53 -0.852448 4.07275 0
M  V30 1228 H 120.406 -1.55553 5.26398 0
M  V30 1229 H 120.667 -2.37203 3.73078 0
M  V30 1230 N 119.726 -1.57421 0.075193 0
M  V30 1231 C 120.972 -1.93905 -0.594025 0
M  V30 1232 C 121.305 -0.955701 -1.69056 0
M  V30 1233 O 120.58 0.0145373 -1.94495 0
M  V30 1234 C 120.863 -3.40638 -1.1678 0
M  V30 1235 C 120.716 -4.49733 -0.0776792 0
M  V30 1236 C 122.035 -3.88259 -2.07228 0
M  V30 1237 H 119.154 -0.705105 -0.214466 0
M  V30 1238 H 121.796 -1.8947 0.141854 0
M  V30 1239 H 119.946 -3.44549 -1.79494 0
M  V30 1240 H 121.618 -4.57942 0.555573 0
M  V30 1241 H 119.861 -4.29751 0.591286 0
M  V30 1242 H 120.532 -5.49549 -0.519603 0
M  V30 1243 H 123.008 -3.86376 -1.54445 0
M  V30 1244 H 121.884 -4.91533 -2.44308 0
M  V30 1245 H 122.145 -3.26396 -2.98191 0
M  V30 1246 N 121.204 0.198386 -1.56346 0
M  V30 1247 C 122.45 0.920648 -1.80698 0
M  V30 1248 C 122.783 1.83045 -0.648697 0
M  V30 1249 O 122.058 1.91308 0.350925 0
M  V30 1250 C 122.341 1.73971 -3.15287 0
M  V30 1251 C 122.194 0.85485 -4.41602 0
M  V30 1252 C 123.513 2.71296 -3.46535 0
M  V30 1253 H 120.632 0.333261 -0.657348 0
M  V30 1254 H 123.274 0.188198 -1.89066 0
M  V30 1255 H 121.424 2.36416 -3.08285 0
M  V30 1256 H 123.096 0.245362 -4.60647 0
M  V30 1257 H 121.339 0.161398 -4.335 0
M  V30 1258 H 122.01 1.46286 -5.32264 0
M  V30 1259 H 124.486 2.18983 -3.53816 0
M  V30 1260 H 123.362 3.2569 -4.41834 0
M  V30 1261 H 123.623 3.5018 -2.69864 0
M  V30 1262 N 122.682 1.50554 0.465978 0
M  V30 1263 C 123.928 1.62038 1.21949 0
M  V30 1264 C 124.261 0.322116 1.9151 0
M  V30 1265 O 123.536 -0.676723 1.82348 0
M  V30 1266 C 123.819 2.80421 2.25912 0
M  V30 1267 C 123.672 4.20144 1.60622 0
M  V30 1268 C 124.991 2.94354 3.27176 0
M  V30 1269 H 122.11 0.589752 0.441998 0
M  V30 1270 H 124.752 1.82956 0.51257 0
M  V30 1271 H 122.902 2.62717 2.86203 0
M  V30 1272 H 124.574 4.49449 1.03889 0
M  V30 1273 H 122.817 4.24165 0.909211 0
M  V30 1274 H 123.488 4.98914 2.36196 0
M  V30 1275 H 125.964 3.10578 2.76913 0
M  V30 1276 H 124.84 3.788 3.97242 0
M  V30 1277 H 125.101 2.05186 3.916 0
M  V30 1278 N 124.16 -0.719506 1.40217 0
M  V30 1279 C 125.385 -1.51371 1.4178 0
M  V30 1280 C 125.81 -1.88091 0.0182355 0
M  V30 1281 O 125.168 -1.52997 -0.972707 0
M  V30 1282 C 125.216 -2.768 2.31115 0
M  V30 1283 O 124.32 -3.73349 1.7517 0
M  V30 1284 H 123.661 -0.456529 0.482159 0
M  V30 1285 H 126.191 -0.88644 1.844 0
M  V30 1286 H 126.201 -3.25371 2.46167 0
M  V30 1287 H 124.876 -2.49407 3.3282 0
M  V30 1288 H 123.453 -3.32179 1.69444 0
M  V30 1289 N 125.638 -1.25649 -0.95132 0
M  V30 1290 C 126.866 -1.13343 -1.73092 0
M  V30 1291 C 127.281 0.312434 -1.86197 0
M  V30 1292 O 126.638 1.21465 -1.36207 0
M  V30 1293 C 126.689 -1.78602 -3.14299 0
M  V30 1294 O 126.41 -3.17537 -3.01831 0
M  V30 1295 C 127.911 -1.72119 -4.08522 0
M  V30 1296 H 125.131 -0.395181 -0.542285 0
M  V30 1297 H 127.675 -1.66076 -1.19328 0
M  V30 1298 H 125.83 -1.29832 -3.64996 0
M  V30 1299 H 126.244 -3.49676 -3.90931 0
M  V30 1300 H 127.718 -2.22435 -5.052 0
M  V30 1301 H 128.195 -0.685635 -4.33815 0
M  V30 1302 H 128.801 -2.20393 -3.63741 0
M  V30 1303 N 127.117 1.15442 -1.07289 0
M  V30 1304 C 128.345 1.90096 -0.81676 0
M  V30 1305 C 128.76 1.7798 0.629966 0
M  V30 1306 O 128.117 1.1313 1.43206 0
M  V30 1307 C 128.168 3.40466 -1.21512 0
M  V30 1308 O 127.889 3.52232 -2.60508 0
M  V30 1309 C 129.39 4.32145 -0.988198 0
M  V30 1310 H 126.61 0.602495 -0.295366 0
M  V30 1311 H 129.154 1.4627 -1.42918 0
M  V30 1312 H 127.309 3.81958 -0.647039 0
M  V30 1313 H 127.723 4.45549 -2.76742 0
M  V30 1314 H 129.197 5.36072 -1.31645 0
M  V30 1315 H 129.674 4.39135 0.0755063 0
M  V30 1316 H 130.28 3.96395 -1.54115 0
M  V30 1317 N 128.595 0.856903 1.32268 0
M  V30 1318 C 129.843 0.460474 1.96784 0
M  V30 1319 C 130.164 -0.987701 1.68135 0
M  V30 1320 O 129.434 -1.69058 0.989765 0
M  V30 1321 H 128.014 0.167289 0.728027 0
M  V30 1322 H 130.676 1.09383 1.61312 0
M  V30 1323 H 129.772 0.60739 3.06133 0
M  V30 1324 N 130.073 -1.45103 0.615059 0
M  V30 1325 C 131.301 -2.06553 0.11977 0
M  V30 1326 C 131.716 -1.45842 -1.19898 0
M  V30 1327 O 131.073 -0.575325 -1.73194 0
M  V30 1328 C 131.124 -3.61495 -0.018364 0
M  V30 1329 O 130.845 -4.19942 1.24822 0
M  V30 1330 C 132.346 -4.39947 -0.544237 0
M  V30 1331 H 129.566 -0.667096 0.0722739 0
M  V30 1332 H 132.11 -1.8623 0.84491 0
M  V30 1333 H 130.265 -3.81135 -0.693865 0
M  V30 1334 H 130.679 -5.13204 1.0827 0
M  V30 1335 H 132.153 -5.48838 -0.589953 0
M  V30 1336 H 132.63 -4.10255 -1.56805 0
M  V30 1337 H 133.236 -4.25188 0.0974703 0
M  V30 1338 N 131.551 -0.354651 -1.53558 0
M  V30 1339 C 132.799 0.237972 -2.00694 0
M  V30 1340 C 133.12 1.50173 -1.24391 0
M  V30 1341 O 132.39 1.92673 -0.354135 0
M  V30 1342 H 130.97 0.0909256 -0.741446 0
M  V30 1343 H 133.632 -0.478368 -1.88938 0
M  V30 1344 H 132.728 0.47264 -3.085 0
M  V30 1345 N 133.029 1.57378 -0.0835403 0
M  V30 1346 C 134.306 1.85363 0.624507 0
M  V30 1347 C 134.686 0.978239 1.87066 0
M  V30 1348 O 134.034 0.0475908 2.2845 0
M  V30 1349 C 134.244 3.35795 0.950947 0
M  V30 1350 C 135.592 4.03581 1.31939 0
M  V30 1351 O 136.616 3.40609 1.04232 0
M  V30 1352 O 135.475 5.14672 1.83779 0
M  V30 1353 H 132.569 0.766162 0.311329 0
M  V30 1354 H 135.115 1.69307 -0.115362 0
M  V30 1355 H 133.887 3.91244 0.0663899 0
M  V30 1356 H 133.51 3.57154 1.74719 0
M  V30 1357 N 134.507 -0.190092 1.56449 0
M  V30 1358 C 135.918 -0.754312 1.70784 0
M  V30 1359 C 136.269 -1.83631 0.690951 0
M  V30 1360 O 135.394 -2.15868 -0.151604 0
M  V30 1361 C 135.989 -1.37503 3.09642 0
M  V30 1362 C 134.548 -1.88628 3.25725 0
M  V30 1363 C 133.695 -0.758098 2.66736 0
M  V30 1364 H 136.646 0.0350524 1.58661 0
M  V30 1365 H 136.667 -2.2445 3.0725 0
M  V30 1366 H 136.179 -0.587302 3.83631 0
M  V30 1367 H 134.28 -2.70103 2.56661 0
M  V30 1368 H 134.393 -2.04462 4.3328 0
M  V30 1369 H 132.757 -1.17369 2.26046 0
M  V30 1370 H 133.54 0.0174705 3.43296 0
M  V30 1371 N 135.985 -1.50799 -0.457987 0
M  V30 1372 C 137.396 -1.55152 -1.0385 0
M  V30 1373 C 137.747 -0.362719 -1.92818 0
M  V30 1374 O 136.872 0.522915 -2.09987 0
M  V30 1375 C 137.467 -2.81173 -1.89017 0
M  V30 1376 C 136.026 -2.88164 -2.42154 0
M  V30 1377 C 135.173 -2.49591 -1.20829 0
M  V30 1378 H 138.124 -1.56874 -0.240068 0
M  V30 1379 H 138.145 -2.63769 -2.74238 0
M  V30 1380 H 137.657 -3.67677 -1.24238 0
M  V30 1381 H 135.758 -2.06042 -3.10447 0
M  V30 1382 H 135.871 -3.91356 -2.76364 0
M  V30 1383 H 134.235 -2.02322 -1.54719 0
M  V30 1384 H 135.018 -3.38418 -0.576927 0
M  V30 1385 N 137.463 0.71206 -1.40597 0
M  V30 1386 C 138.74 1.46536 -1.29563 0
M  V30 1387 C 139.12 2.10931 0.0844217 0
M  V30 1388 O 138.468 2.00418 1.0975 0
M  V30 1389 C 138.678 2.49821 -2.43701 0
M  V30 1390 C 140.026 3.15551 -2.841 0
M  V30 1391 O 141.05 2.60142 -2.4332 0
M  V30 1392 O 139.909 4.15867 -3.54566 0
M  V30 1393 H 137.003 0.651801 -0.509004 0
M  V30 1394 H 139.549 0.743935 -1.52524 0
M  V30 1395 H 138.321 2.00778 -3.35863 0
M  V30 1396 H 137.944 3.29495 -2.22528 0
M  V30 1397 N 138.941 1.26152 0.944643 0
M  V30 1398 C 140.169 1.14259 1.72489 0
M  V30 1399 C 140.584 -0.302555 1.8636 0
M  V30 1400 O 139.941 -1.20741 1.36849 0
M  V30 1401 C 139.992 1.80266 3.13347 0
M  V30 1402 O 139.713 3.19133 3.00143 0
M  V30 1403 C 141.214 1.74283 4.07603 0
M  V30 1404 H 138.434 0.398051 0.540181 0
M  V30 1405 H 140.978 1.66706 1.18446 0
M  V30 1406 H 139.133 1.31766 3.64303 0
M  V30 1407 H 139.547 3.51744 3.89071 0
M  V30 1408 H 141.021 2.25111 5.04013 0
M  V30 1409 H 141.498 0.708631 4.33446 0
M  V30 1410 H 142.104 2.22319 3.62567 0
M  V30 1411 N 140.419 -1.14872 1.07899 0
M  V30 1412 C 141.382 -2.17986 0.708161 0
M  V30 1413 C 142.382 -1.58775 -0.25442 0
M  V30 1414 O 143.572 -1.74166 -0.034645 0
M  V30 1415 C 140.704 -3.40871 0.0446929 0
M  V30 1416 H 141.897 -2.52306 1.62116 0
M  V30 1417 H 139.45 -1.2943 0.876218 0
M  V30 1418 H 140.185 -3.12124 -0.880281 0
M  V30 1419 H 139.97 -3.8511 0.737091 0
M  V30 1420 H 141.46 -4.17121 -0.19991 0
M  V30 1421 N 141.898 -0.863906 -1.31812 0
M  V30 1422 C 143.314 -0.555004 -1.49639 0
M  V30 1423 C 143.514 0.912266 -1.79666 0
M  V30 1424 O 142.57 1.69479 -1.87171 0
M  V30 1425 C 143.883 -1.44998 -2.63431 0
M  V30 1426 C 145.431 -1.45138 -2.77316 0
M  V30 1427 C 145.906 -2.33179 -3.94197 0
M  V30 1428 N 147.397 -2.31025 -4.01474 0
M  V30 1429 C 148.132 -2.95871 -4.9117 0
M  V30 1430 N 147.628 -3.69863 -5.8581 0
M  V30 1431 N 149.421 -2.85211 -4.84367 0
M  V30 1432 H 141.572 -1.81339 -1.10589 0
M  V30 1433 H 143.835 -0.77505 -0.545895 0
M  V30 1434 H 143.541 -2.49377 -2.48 0
M  V30 1435 H 143.415 -1.14409 -3.59431 0
M  V30 1436 H 145.802 -0.415201 -2.92164 0
M  V30 1437 H 145.883 -1.79747 -1.82001 0
M  V30 1438 H 145.527 -3.3687 -3.80107 0
M  V30 1439 H 145.457 -1.95897 -4.88807 0
M  V30 1440 H 147.948 -1.77238 -3.33759 0
M  V30 1441 H 148.261 -4.16486 -6.50968 0
M  V30 1442 H 146.606 -3.73971 -5.85808 0
M  V30 1443 H 149.797 -2.26948 -4.09405 0
M  V30 1444 H 149.97 -3.36027 -5.54066 0
M  V30 1445 N 143.376 1.44774 -0.622745 0
M  V30 1446 C 144.323 2.30635 0.0871679 0
M  V30 1447 C 145.293 1.42994 0.845097 0
M  V30 1448 O 146.478 1.71907 0.827812 0
M  V30 1449 C 143.618 3.28144 1.06844 0
M  V30 1450 C 142.731 4.30888 0.309809 0
M  V30 1451 C 141.866 5.15494 1.28215 0
M  V30 1452 C 140.905 6.09953 0.512198 0
M  V30 1453 N 140.042 6.87287 1.43458 0
M  V30 1454 H 144.882 2.90803 -0.650974 0
M  V30 1455 H 142.419 1.43286 -0.33281 0
M  V30 1456 H 144.377 3.83157 1.65066 0
M  V30 1457 H 143.007 2.69695 1.77382 0
M  V30 1458 H 142.059 3.78414 -0.388181 0
M  V30 1459 H 143.371 4.97955 -0.290254 0
M  V30 1460 H 142.525 5.74983 1.93596 0
M  V30 1461 H 141.264 4.48481 1.91614 0
M  V30 1462 H 140.269 5.49581 -0.155151 0
M  V30 1463 H 141.494 6.78999 -0.116958 0
M  V30 1464 H 139.44 6.2295 2.05594 0
M  V30 1465 H 139.357 7.50763 0.888335 0
M  V30 1466 H 140.625 7.51306 2.07749 0
M  V30 1467 N 144.854 0.36279 1.53368 0
M  V30 1468 C 146.101 -0.227776 2.01215 0
M  V30 1469 C 146.429 -1.49003 1.25014 0
M  V30 1470 O 145.684 -1.92876 0.331236 0
M  V30 1471 C 145.983 -0.568417 3.52851 0
M  V30 1472 C 145.649 0.59918 4.46901 0
M  V30 1473 C 144.311 0.919559 4.72332 0
M  V30 1474 C 146.663 1.38156 5.02556 0
M  V30 1475 C 143.991 2.02434 5.5067 0
M  V30 1476 C 146.343 2.47674 5.821 0
M  V30 1477 C 145.007 2.8025 6.05819 0
M  V30 1478 H 144.277 -0.083349 0.736297 0
M  V30 1479 H 146.924 0.494677 1.85001 0
M  V30 1480 H 145.229 -1.37185 3.66998 0
M  V30 1481 H 146.926 -1.03756 3.87344 0
M  V30 1482 H 143.516 0.339437 4.27254 0
M  V30 1483 H 147.7 1.14729 4.82857 0
M  V30 1484 H 142.956 2.28075 5.67267 0
M  V30 1485 H 147.13 3.08716 6.24234 0
M  V30 1486 H 144.757 3.65979 6.66306 0
M  V30 1487 N 146.332 -1.57332 0.0918853 0
M  V30 1488 C 147.578 -1.94524 -0.573425 0
M  V30 1489 C 147.911 -0.973578 -1.68033 0
M  V30 1490 O 147.186 -0.00609226 -1.94499 0
M  V30 1491 C 147.469 -3.41858 -1.13161 0
M  V30 1492 C 147.322 -4.4979 -0.0299747 0
M  V30 1493 C 148.641 -3.90435 -2.03098 0
M  V30 1494 H 145.76 -0.70734 -0.206975 0
M  V30 1495 H 148.402 -1.89309 0.161942 0
M  V30 1496 H 146.552 -3.46433 -1.7583 0
M  V30 1497 H 148.224 -4.57327 0.604112 0
M  V30 1498 H 146.467 -4.291 0.636833 0
M  V30 1499 H 147.138 -5.50069 -0.461287 0
M  V30 1500 H 149.614 -3.87992 -1.50338 0
M  V30 1501 H 148.49 -4.94097 -2.39081 0
M  V30 1502 H 148.751 -3.29541 -2.94712 0
M  V30 1503 N 147.81 0.181792 -1.56548 0
M  V30 1504 C 148.757 1.22521 -1.95595 0
M  V30 1505 C 149.727 1.4454 -0.818373 0
M  V30 1506 O 150.912 1.57454 -1.07763 0
M  V30 1507 C 148.052 2.56193 -2.31212 0
M  V30 1508 C 147.165 2.41641 -3.58097 0
M  V30 1509 C 146.3 3.68108 -3.82975 0
M  V30 1510 C 145.339 3.48445 -5.03242 0
M  V30 1511 N 144.476 4.66956 -5.24306 0
M  V30 1512 H 149.316 0.885226 -2.84548 0
M  V30 1513 H 146.853 0.425718 -1.40805 0
M  V30 1514 H 148.811 3.34088 -2.49882 0
M  V30 1515 H 147.441 2.88208 -1.45382 0
M  V30 1516 H 146.493 1.54976 -3.474 0
M  V30 1517 H 147.805 2.23052 -4.46149 0
M  V30 1518 H 146.959 4.54441 -4.01956 0
M  V30 1519 H 145.698 3.89666 -2.93278 0
M  V30 1520 H 144.703 2.60499 -4.8417 0
M  V30 1521 H 145.928 3.2832 -5.9446 0
M  V30 1522 H 143.874 4.88752 -4.37559 0
M  V30 1523 H 143.791 4.51242 -6.06561 0
M  V30 1524 H 145.059 5.54602 -5.47756 0
M  V30 1525 N 149.288 1.51039 0.449983 0
M  V30 1526 C 150.198 1.74261 1.57067 0
M  V30 1527 C 151.214 0.626363 1.62335 0
M  V30 1528 O 152.39 0.907162 1.79812 0
M  V30 1529 C 149.455 1.85114 2.93144 0
M  V30 1530 C 148.516 3.0893 2.98095 0
M  V30 1531 C 147.749 3.19256 4.27681 0
M  V30 1532 O 147.972 2.35835 5.19363 0
M  V30 1533 O 146.906 4.12144 4.38658 0
M  V30 1534 H 150.732 2.69303 1.40391 0
M  V30 1535 H 148.317 1.35389 0.631688 0
M  V30 1536 H 150.199 1.94311 3.73926 0
M  V30 1537 H 148.874 0.932588 3.09975 0
M  V30 1538 H 147.781 3.0522 2.16314 0
M  V30 1539 H 149.114 4.00433 2.86206 0
M  V30 1540 N 150.766 -0.704594 1.40972 0
M  V30 1541 C 152.015 -1.46018 1.39146 0
M  V30 1542 C 152.328 -1.956 0.000589254 0
M  V30 1543 O 153.534 -2.71137 -0.1403 0
M  V30 1544 C 151.99 -2.63996 2.4461 0
M  V30 1545 C 151.598 -2.21238 3.89561 0
M  V30 1546 C 153.342 -3.41677 2.51907 0
M  V30 1547 C 151.249 -3.3612 4.86598 0
M  V30 1548 H 150.179 -0.548444 0.517422 0
M  V30 1549 H 152.83 -0.765784 1.66757 0
M  V30 1550 H 151.212 -3.3566 2.10115 0
M  V30 1551 H 152.386 -1.56923 4.33257 0
M  V30 1552 H 150.701 -1.56574 3.85841 0
M  V30 1553 H 153.298 -4.27182 3.2159 0
M  V30 1554 H 153.641 -3.86247 1.55303 0
M  V30 1555 H 154.174 -2.77064 2.85448 0
M  V30 1556 H 150.913 -2.96572 5.84573 0
M  V30 1557 H 150.433 -3.99315 4.47557 0
M  V30 1558 H 152.112 -4.02029 5.06934 0
M  V30 1559 N 152.244 -1.26651 -0.937939 0
M  V30 1560 C 153.176 -1.04283 -2.04102 0
M  V30 1561 C 154.189 -0.00221014 -1.628 0
M  V30 1562 O 155.378 -0.242645 -1.76843 0
M  V30 1563 C 152.478 -0.557846 -3.34277 0
M  V30 1564 C 151.651 -1.66843 -4.04329 0
M  V30 1565 C 150.71 -1.18095 -5.12777 0
M  V30 1566 O 149.736 -1.87865 -5.37304 0
M  V30 1567 N 150.938 -0.0311006 -5.80492 0
M  V30 1568 H 153.703 -1.9927 -2.23856 0
M  V30 1569 H 151.264 -1.1808 -1.10764 0
M  V30 1570 H 153.256 -0.215836 -4.04124 0
M  V30 1571 H 151.826 0.298523 -3.11171 0
M  V30 1572 H 151.046 -2.18123 -3.28353 0
M  V30 1573 H 152.334 -2.41408 -4.47883 0
M  V30 1574 H 151.732 0.551486 -5.63005 0
M  V30 1575 H 150.289 0.251809 -6.51313 0
M  V30 1576 N 153.722 1.14298 -1.08507 0
M  V30 1577 C 154.67 2.21483 -0.710483 0
M  V30 1578 C 155.664 1.66998 0.284234 0
M  V30 1579 O 156.87 1.79401 0.146692 0
M  V30 1580 H 153.245 0.721578 -0.211729 0
M  V30 1581 H 155.216 2.50348 -1.62384 0
M  V30 1582 C 153.965 3.4743 -0.137007 0
M  V30 1583 H 153.288 3.89686 -0.893592 0
M  V30 1584 H 154.728 4.2391 0.0872789 0
M  V30 1585 C 153.187 3.17548 1.12538 0
M  V30 1586 O 153.717 3.35437 2.21009 0
M  V30 1587 N 151.923 2.71499 1.03617 0
M  V30 1588 H 151.47 2.57143 0.153403 0
M  V30 1589 H 151.428 2.51881 1.88158 0
M  V30 1590 N 155.201 0.870884 1.31352 0
M  V30 1591 C 156.133 0.28455 2.27427 0
M  V30 1592 C 157.146 -0.552927 1.53123 0
M  V30 1593 O 158.335 -0.374771 1.74521 0
M  V30 1594 C 155.435 -0.615164 3.3327 0
M  V30 1595 C 154.608 0.190079 4.36987 0
M  V30 1596 C 153.667 -0.637917 5.22319 0
M  V30 1597 O 152.693 -0.065626 5.69162 0
M  V30 1598 N 153.895 -1.94973 5.46778 0
M  V30 1599 H 156.66 1.11017 2.7838 0
M  V30 1600 H 154.221 0.732458 1.44384 0
M  V30 1601 H 156.213 -1.1748 3.87273 0
M  V30 1602 H 154.783 -1.34146 2.82354 0
M  V30 1603 H 154.003 0.931165 3.83044 0
M  V30 1604 H 155.291 0.742579 5.03352 0
M  V30 1605 H 154.689 -2.4378 5.10478 0
M  V30 1606 H 153.246 -2.45713 6.03712 0
M  V30 1607 N 156.679 -1.44442 0.630414 0
M  V30 1608 C 157.907 -2.06414 0.141671 0
M  V30 1609 C 158.322 -1.47105 -1.18345 0
M  V30 1610 O 157.679 -0.593662 -1.72574 0
M  V30 1611 C 157.73 -3.61494 0.0199784 0
M  V30 1612 O 157.451 -4.18594 1.29269 0
M  V30 1613 C 158.952 -4.40499 -0.497544 0
M  V30 1614 H 156.172 -0.666292 0.0793452 0
M  V30 1615 H 158.716 -1.85323 0.864614 0
M  V30 1616 H 156.871 -3.8185 -0.653402 0
M  V30 1617 H 157.285 -5.12026 1.13707 0
M  V30 1618 H 158.759 -5.49433 -0.531708 0
M  V30 1619 H 159.236 -4.11895 -1.52445 0
M  V30 1620 H 159.842 -4.25061 0.142562 0
M  V30 1621 N 158.157 -0.370918 -1.53173 0
M  V30 1622 C 159.087 0.464847 -2.28826 0
M  V30 1623 C 160.068 1.07936 -1.31468 0
M  V30 1624 O 161.253 1.0956 -1.60344 0
M  V30 1625 C 158.383 1.60196 -3.08147 0
M  V30 1626 C 157.337 1.11443 -4.13237 0
M  V30 1627 C 156.663 2.3422 -4.80672 0
M  V30 1628 C 157.963 0.195384 -5.21934 0
M  V30 1629 H 159.657 -0.166329 -2.98938 0
M  V30 1630 H 157.203 -0.0814359 -1.4377 0
M  V30 1631 H 159.156 2.19332 -3.59822 0
M  V30 1632 H 157.88 2.26045 -2.35735 0
M  V30 1633 H 156.539 0.545727 -3.62515 0
M  V30 1634 H 156.187 2.98537 -4.04827 0
M  V30 1635 H 155.887 2.02269 -5.51689 0
M  V30 1636 H 157.411 2.94032 -5.35143 0
M  V30 1637 H 158.825 0.694375 -5.69079 0
M  V30 1638 H 157.222 -0.0335027 -6.00091 0
M  V30 1639 H 158.292 -0.760961 -4.78892 0
M  V30 1640 N 159.635 1.57281 -0.100228 0
M  V30 1641 C 161.046 1.81725 0.428107 0
M  V30 1642 C 161.397 1.01619 1.67833 0
M  V30 1643 O 160.522 0.247098 2.14985 0
M  V30 1644 C 161.117 3.29617 0.78347 0
M  V30 1645 C 159.676 3.54808 1.25653 0
M  V30 1646 C 158.823 2.76118 0.255752 0
M  V30 1647 H 161.774 1.55324 -0.325608 0
M  V30 1648 H 161.795 3.4322 1.64256 0
M  V30 1649 H 161.307 3.87893 -0.12665 0
M  V30 1650 H 159.408 3.01868 2.18418 0
M  V30 1651 H 159.521 4.63443 1.21482 0
M  V30 1652 H 157.885 2.43745 0.738956 0
M  V30 1653 H 158.668 3.37145 -0.647136 0
M  V30 1654 N 161.113 -0.173488 1.56642 0
M  V30 1655 C 162.359 -0.891784 1.8214 0
M  V30 1656 C 162.692 -1.8199 0.677736 0
M  V30 1657 O 161.967 -1.91842 -0.320446 0
M  V30 1658 C 162.25 -1.68933 3.18015 0
M  V30 1659 C 162.103 -0.784487 4.42906 0
M  V30 1660 C 163.422 -2.65748 3.50808 0
M  V30 1661 H 160.541 -0.322761 0.662567 0
M  V30 1662 H 163.183 -0.158095 1.89341 0
M  V30 1663 H 161.333 -2.31482 3.12007 0
M  V30 1664 H 163.005 -0.172046 4.60979 0
M  V30 1665 H 161.248 -0.0924117 4.33702 0
M  V30 1666 H 161.919 -1.37799 5.34524 0
M  V30 1667 H 164.395 -2.13327 3.57255 0
M  V30 1668 H 163.271 -3.18619 4.4696 0
M  V30 1669 H 163.532 -3.45842 2.75401 0
M  V30 1670 N 162.591 -1.51276 -0.441967 0
M  V30 1671 C 163.868 -1.54252 -1.20273 0
M  V30 1672 C 164.248 -0.30408 -2.08898 0
M  V30 1673 O 163.596 0.711084 -2.17154 0
M  V30 1674 C 163.806 -2.85406 -2.00859 0
M  V30 1675 C 165.154 -3.37181 -2.58059 0
M  V30 1676 O 166.178 -2.86925 -2.11074 0
M  V30 1677 O 165.037 -4.24858 -3.43741 0
M  V30 1678 H 162.131 -0.619969 -0.547328 0
M  V30 1679 H 164.677 -1.63586 -0.451413 0
M  V30 1680 H 163.449 -3.67003 -1.35736 0
M  V30 1681 H 163.072 -2.79213 -2.83065 0
M  V30 1682 N 164.069 0.697108 -1.41344 0
M  V30 1683 C 165.316 1.45714 -1.40619 0
M  V30 1684 C 165.644 1.94494 -0.0147907 0
M  V30 1685 O 164.899 1.69794 0.973066 0
M  V30 1686 C 165.198 2.68553 -2.35826 0
M  V30 1687 C 164.864 2.38438 -3.82698 0
M  V30 1688 C 163.526 2.29936 -4.22709 0
M  V30 1689 C 165.878 2.13567 -4.75435 0
M  V30 1690 C 163.206 1.94656 -5.53467 0
M  V30 1691 C 165.558 1.79797 -6.06511 0
M  V30 1692 C 164.222 1.69789 -6.45545 0
M  V30 1693 H 163.492 0.533206 -0.51456 0
M  V30 1694 H 166.139 0.796901 -1.74131 0
M  V30 1695 H 164.444 3.39503 -1.95563 0
M  V30 1696 H 166.141 3.2669 -2.32539 0
M  V30 1697 H 162.731 2.4595 -3.51008 0
M  V30 1698 H 166.915 2.19082 -4.45328 0
M  V30 1699 H 162.171 1.8546 -5.82593 0
M  V30 1700 H 166.345 1.59572 -6.77872 0
M  V30 1701 H 163.972 1.4222 -7.46778 0
M  V30 1702 N 165.547 1.27147 0.931209 0
M  V30 1703 C 166.794 1.13278 1.67852 0
M  V30 1704 C 167.122 -0.32204 1.91815 0
M  V30 1705 O 166.377 -1.25224 1.50391 0
M  V30 1706 C 166.676 1.8579 3.05314 0
M  V30 1707 C 166.342 3.35657 3.01073 0
M  V30 1708 C 165.004 3.76536 2.99623 0
M  V30 1709 C 167.356 4.31299 2.92627 0
M  V30 1710 C 164.684 5.11426 2.87506 0
M  V30 1711 C 167.036 5.66242 2.82051 0
M  V30 1712 C 165.7 6.06418 2.7895 0
M  V30 1713 H 164.97 0.414515 0.614214 0
M  V30 1714 H 167.617 1.57712 1.08624 0
M  V30 1715 H 165.922 1.33854 3.68226 0
M  V30 1716 H 167.619 1.72491 3.62005 0
M  V30 1717 H 164.209 3.03146 3.02986 0
M  V30 1718 H 168.393 4.00692 2.92848 0
M  V30 1719 H 163.649 5.41705 2.83489 0
M  V30 1720 H 167.823 6.40026 2.74481 0
M  V30 1721 H 165.45 7.10895 2.69318 0
M  V30 1722 N 167.025 -1.13721 1.09112 0
M  V30 1723 C 167.988 -2.17222 0.731241 0
M  V30 1724 C 168.988 -1.59035 -0.237566 0
M  V30 1725 O 170.178 -1.74192 -0.0161704 0
M  V30 1726 C 167.31 -3.40804 0.0808443 0
M  V30 1727 H 168.503 -2.50573 1.64783 0
M  V30 1728 H 166.056 -1.28493 0.889897 0
M  V30 1729 H 166.791 -3.1304 -0.847127 0
M  V30 1730 H 166.576 -3.84306 0.777896 0
M  V30 1731 H 168.066 -4.1731 -0.155657 0
M  V30 1732 N 168.503 -0.877838 -1.30888 0
M  V30 1733 C 169.453 -0.310872 -2.25871 0
M  V30 1734 C 170.437 0.556596 -1.50966 0
M  V30 1735 O 171.629 0.402187 -1.7237 0
M  V30 1736 C 168.758 0.479821 -3.3993 0
M  V30 1737 C 167.844 -0.401333 -4.22197 0
M  V30 1738 N 168.235 -1.49848 -4.83093 0
M  V30 1739 C 166.533 -0.195167 -4.45573 0
M  V30 1740 C 167.234 -2.0425 -5.44662 0
M  V30 1741 N 166.21 -1.33843 -5.26865 0
M  V30 1742 H 170.012 -1.1493 -2.70496 0
M  V30 1743 H 167.526 -0.726458 -1.45246 0
M  V30 1744 H 169.523 0.902582 -4.07012 0
M  V30 1745 H 168.183 1.31577 -2.96846 0
M  V30 1746 H 169.194 -1.88137 -4.82519 0
M  V30 1747 H 165.871 0.604192 -4.13105 0
M  V30 1748 H 167.261 -2.96345 -6.03017 0
M  V30 1749 N 169.982 1.44106 -0.638065 0
M  V30 1750 C 170.912 2.33448 0.0494287 0
M  V30 1751 C 171.893 1.48606 0.827672 0
M  V30 1752 O 173.078 1.77308 0.792173 0
M  V30 1753 C 170.208 3.31771 1.02691 0
M  V30 1754 C 169.162 4.26485 0.359823 0
M  V30 1755 C 168.488 5.14729 1.44769 0
M  V30 1756 C 169.788 5.17056 -0.738296 0
M  V30 1757 H 171.482 2.91183 -0.696636 0
M  V30 1758 H 169.028 1.40014 -0.336456 0
M  V30 1759 H 170.981 3.93161 1.51666 0
M  V30 1760 H 169.705 2.7226 1.80395 0
M  V30 1761 H 168.364 3.66437 -0.10934 0
M  V30 1762 H 168.012 4.51566 2.21578 0
M  V30 1763 H 167.712 5.78913 1.00668 0
M  V30 1764 H 169.236 5.78991 1.93911 0
M  V30 1765 H 170.65 5.72342 -0.331354 0
M  V30 1766 H 169.047 5.89879 -1.10286 0
M  V30 1767 H 170.117 4.57652 -1.60258 0
M  V30 1768 N 171.46 0.379036 1.52974 0
M  V30 1769 C 172.876 0.0285448 1.59574 0
M  V30 1770 C 173.076 -1.45542 1.39355 0
M  V30 1771 O 172.132 -2.2187 1.20541 0
M  V30 1772 C 173.445 0.496535 2.96572 0
M  V30 1773 C 174.993 0.451909 3.0972 0
M  V30 1774 C 175.468 0.895924 4.49152 0
M  V30 1775 N 176.959 0.851522 4.55306 0
M  V30 1776 C 177.694 1.16661 5.61407 0
M  V30 1777 N 177.19 1.55166 6.752 0
M  V30 1778 N 178.983 1.08853 5.51459 0
M  V30 1779 H 171.134 1.34525 1.64367 0
M  V30 1780 H 173.397 0.550733 0.771619 0
M  V30 1781 H 173.103 1.53258 3.16552 0
M  V30 1782 H 172.977 -0.109802 3.7704 0
M  V30 1783 H 175.364 -0.575029 2.89443 0
M  V30 1784 H 175.445 1.09392 2.3123 0
M  V30 1785 H 175.089 1.92104 4.70168 0
M  V30 1786 H 175.019 0.23103 5.26093 0
M  V30 1787 H 177.51 0.568038 3.73606 0
M  V30 1788 H 177.823 1.776 7.52116 0
M  V30 1789 H 176.168 1.59044 6.76557 0
M  V30 1790 H 179.359 0.786803 4.6144 0
M  V30 1791 H 179.532 1.33742 6.34048 0
M  V30 1792 N 172.938 -1.57226 0.108567 0
M  V30 1793 C 174.168 -1.9889 -0.559142 0
M  V30 1794 C 174.576 -0.986889 -1.61422 0
M  V30 1795 O 173.919 0.0298705 -1.83676 0
M  V30 1796 C 173.981 -3.36952 -1.25315 0
M  V30 1797 C 173.645 -4.55679 -0.347248 0
M  V30 1798 C 174.642 -5.18281 0.409996 0
M  V30 1799 C 172.327 -5.0162 -0.261367 0
M  V30 1800 C 174.321 -6.25203 1.24096 0
M  V30 1801 C 172.008 -6.08405 0.573238 0
M  V30 1802 C 173.006 -6.70063 1.32304 0
M  V30 1803 O 172.694 -7.74788 2.14381 0
M  V30 1804 H 172.426 -0.658343 -0.153492 0
M  V30 1805 H 174.98 -2.04532 0.188584 0
M  V30 1806 H 173.21 -3.28032 -2.04773 0
M  V30 1807 H 174.899 -3.62974 -1.81673 0
M  V30 1808 H 175.665 -4.8371 0.353457 0
M  V30 1809 H 171.544 -4.53381 -0.834656 0
M  V30 1810 H 175.088 -6.73259 1.82669 0
M  V30 1811 H 170.985 -6.42406 0.631208 0
M  V30 1812 H 171.753 -7.91837 2.07209 0
M  V30 1813 N 174.416 0.165178 -1.56732 0
M  V30 1814 C 175.664 0.879068 -1.8198 0
M  V30 1815 C 175.985 1.82514 -0.686561 0
M  V30 1816 O 175.255 1.93694 0.293146 0
M  V30 1817 H 173.835 0.327608 -0.671329 0
M  V30 1818 H 176.497 0.163526 -1.94213 0
M  V30 1819 H 175.593 1.45228 -2.76252 0
M  V30 1820 N 175.894 1.51508 0.433938 0
M  V30 1821 C 176.824 1.76016 1.53429 0
M  V30 1822 C 177.805 0.610112 1.58782 0
M  V30 1823 O 178.99 0.853177 1.74455 0
M  V30 1824 C 176.12 1.88831 2.9148 0
M  V30 1825 C 175.074 3.04288 3.00987 0
M  V30 1826 C 174.4 3.0229 4.4105 0
M  V30 1827 C 175.7 4.44193 2.74754 0
M  V30 1828 H 177.394 2.68152 1.33171 0
M  V30 1829 H 174.94 1.29035 0.639214 0
M  V30 1830 H 176.893 2.04559 3.6842 0
M  V30 1831 H 175.617 0.933455 3.12976 0
M  V30 1832 H 174.276 2.8827 2.26486 0
M  V30 1833 H 173.924 2.04576 4.59519 0
M  V30 1834 H 173.624 3.79822 4.4834 0
M  V30 1835 H 175.148 3.20116 5.1996 0
M  V30 1836 H 176.562 4.60544 3.41426 0
M  V30 1837 H 174.959 5.23457 2.9345 0
M  V30 1838 H 176.029 4.53996 1.70339 0
M  V30 1839 N 177.372 -0.689602 1.41712 0
M  V30 1840 C 178.302 -1.81577 1.46806 0
M  V30 1841 C 179.283 -1.66945 0.326105 0
M  V30 1842 O 180.468 -1.86588 0.538377 0
M  V30 1843 C 177.598 -3.19762 1.35535 0
M  V30 1844 C 176.552 -3.49107 2.47605 0
M  V30 1845 C 175.878 -4.86711 2.21397 0
M  V30 1846 C 177.178 -3.47483 3.89939 0
M  V30 1847 H 178.872 -1.7757 2.41058 0
M  V30 1848 H 176.418 -0.852887 1.16025 0
M  V30 1849 H 178.371 -3.98263 1.3771 0
M  V30 1850 H 177.095 -3.24409 0.377708 0
M  V30 1851 H 175.754 -2.72959 2.44722 0
M  V30 1852 H 175.402 -4.8799 1.21961 0
M  V30 1853 H 175.102 -5.0731 2.96497 0
M  V30 1854 H 176.626 -5.67515 2.25297 0
M  V30 1855 H 178.04 -4.1598 3.94505 0
M  V30 1856 H 176.437 -3.79615 4.64771 0
M  V30 1857 H 177.507 -2.46341 4.17665 0
M  V30 1858 N 178.85 -1.27639 -0.924453 0
M  V30 1859 C 180.098 -1.13941 -1.66918 0
M  V30 1860 C 180.419 0.314589 -1.92446 0
M  V30 1861 O 179.689 1.21964 -1.53303 0
M  V30 1862 H 178.269 -0.418678 -0.618642 0
M  V30 1863 H 180.931 -1.60213 -1.10985 0
M  V30 1864 H 180.027 -1.67094 -2.63602 0
M  V30 1865 N 180.328 1.1314 -1.09713 0
M  V30 1866 C 181.258 2.20748 -0.761102 0
M  V30 1867 C 182.239 1.68061 0.262566 0
M  V30 1868 O 183.424 1.93765 0.129977 0
M  V30 1869 C 180.554 3.46812 -0.184054 0
M  V30 1870 C 179.508 4.12606 -1.13757 0
M  V30 1871 C 178.834 5.33031 -0.422083 0
M  V30 1872 C 180.134 4.59603 -2.48118 0
M  V30 1873 H 181.828 2.49113 -1.66082 0
M  V30 1874 H 179.374 1.19734 -0.799987 0
M  V30 1875 H 181.327 4.21353 0.0631215 0
M  V30 1876 H 180.051 3.17851 0.750868 0
M  V30 1877 H 178.71 3.40036 -1.37007 0
M  V30 1878 H 178.358 5.00335 0.517072 0
M  V30 1879 H 178.058 5.77999 -1.05788 0
M  V30 1880 H 179.582 6.10325 -0.183277 0
M  V30 1881 H 180.996 5.25552 -2.29059 0
M  V30 1882 H 179.393 5.15321 -3.07514 0
M  V30 1883 H 180.463 3.73971 -3.08665 0
M  V30 1884 N 181.806 0.884767 1.30421 0
M  V30 1885 C 183.054 0.502112 1.95763 0
M  V30 1886 C 183.375 -0.951815 1.70192 0
M  V30 1887 O 182.645 -1.6692 1.0254 0
M  V30 1888 H 181.225 0.182694 0.724315 0
M  V30 1889 H 183.887 1.1278 1.58955 0
M  V30 1890 H 182.983 0.672188 3.04775 0
M  V30 1891 N 183.284 -1.43765 0.645699 0
M  V30 1892 C 184.561 -1.9541 0.0862963 0
M  V30 1893 C 184.941 -1.58725 -1.39175 0
M  V30 1894 O 184.289 -0.868581 -2.11348 0
M  V30 1895 C 184.499 -3.47488 0.324565 0
M  V30 1896 C 185.847 -4.24001 0.225497 0
M  V30 1897 O 186.871 -3.55274 0.256715 0
M  V30 1898 O 185.73 -5.46313 0.142801 0
M  V30 1899 H 182.824 -0.826882 -0.0139483 0
M  V30 1900 H 185.37 -1.53743 0.718415 0
M  V30 1901 H 184.142 -3.67289 1.3496 0
M  V30 1902 H 183.765 -3.96135 -0.340987 0
M  V30 1903 N 184.763 -0.387143 -1.52771 0
M  V30 1904 C 185.988 0.198407 -2.06449 0
M  V30 1905 C 186.413 1.39918 -1.25716 0
M  V30 1906 O 185.771 1.79099 -0.281657 0
M  V30 1907 C 185.819 0.548893 -3.56398 0
M  V30 1908 O 184.923 1.64315 -3.78252 0
M  V30 1909 H 184.264 0.0237731 -0.663574 0
M  V30 1910 H 186.794 -0.553989 -1.96957 0
M  V30 1911 H 186.804 0.813812 -3.99801 0
M  V30 1912 H 185.479 -0.329005 -4.14597 0
M  V30 1913 H 184.056 1.37211 -3.46738 0
M  V30 1914 N 186.241 1.57166 -0.116904 0
M  V30 1915 C 187.151 2.18745 0.847812 0
M  V30 1916 C 188.167 1.163 1.29423 0
M  V30 1917 O 189.343 1.48761 1.35765 0
M  V30 1918 C 186.408 2.77307 2.0809 0
M  V30 1919 C 185.469 3.94781 1.68661 0
M  V30 1920 C 184.702 4.50541 2.86091 0
M  V30 1921 O 184.925 4.05202 4.01456 0
M  V30 1922 O 183.859 5.41256 2.63298 0
M  V30 1923 H 187.685 3.01632 0.353778 0
M  V30 1924 H 185.27 1.49005 0.108599 0
M  V30 1925 H 187.152 3.14647 2.80313 0
M  V30 1926 H 185.827 1.97452 2.56504 0
M  V30 1927 H 184.734 3.62214 0.935518 0
M  V30 1928 H 186.067 4.76065 1.24991 0
M  V30 1929 N 187.719 -0.156864 1.56817 0
M  V30 1930 C 188.949 -0.885031 1.86684 0
M  V30 1931 C 189.357 -1.75696 0.701954 0
M  V30 1932 O 188.7 -1.80569 -0.337732 0
M  V30 1933 C 188.762 -1.80092 3.11138 0
M  V30 1934 C 188.426 -1.10714 4.43386 0
M  V30 1935 C 189.423 -0.465714 5.1781 0
M  V30 1936 C 187.108 -1.09959 4.90117 0
M  V30 1937 C 189.102 0.174002 6.37162 0
M  V30 1938 C 186.789 -0.456055 6.09396 0
M  V30 1939 C 187.787 0.179622 6.82764 0
M  V30 1940 O 187.475 0.812975 7.99779 0
M  V30 1941 H 187.207 -0.261813 0.623242 0
M  V30 1942 H 189.761 -0.157383 2.04796 0
M  V30 1943 H 187.991 -2.56926 2.89009 0
M  V30 1944 H 189.68 -2.40018 3.27332 0
M  V30 1945 H 190.446 -0.463427 4.82781 0
M  V30 1946 H 186.325 -1.58378 4.3294 0
M  V30 1947 H 189.869 0.670765 6.94368 0
M  V30 1948 H 185.766 -0.455975 6.43888 0
M  V30 1949 H 186.534 0.71366 8.15383 0
M  V30 1950 N 189.197 -1.51736 -0.425897 0
M  V30 1951 C 190.425 -1.68794 -1.1965 0
M  V30 1952 C 190.84 -0.390164 -1.84725 0
M  V30 1953 O 190.197 0.632376 -1.71194 0
M  V30 1954 C 190.248 -2.81174 -2.27208 0
M  V30 1955 O 189.969 -4.05925 -1.64793 0
M  V30 1956 C 191.47 -3.09599 -3.17275 0
M  V30 1957 H 188.69 -0.566128 -0.360194 0
M  V30 1958 H 191.234 -1.98211 -0.503249 0
M  V30 1959 H 189.389 -2.54324 -2.9223 0
M  V30 1960 H 189.803 -4.68423 -2.35967 0
M  V30 1961 H 191.277 -3.91786 -3.88854 0
M  V30 1962 H 191.754 -2.22468 -3.78688 0
M  V30 1963 H 192.36 -3.38151 -2.57941 0
M  V30 1964 N 190.675 0.682077 -1.42076 0
M  V30 1965 C 191.905 1.46844 -1.45329 0
M  V30 1966 C 192.313 1.89102 -0.0609328 0
M  V30 1967 O 191.656 1.58238 0.933082 0
M  V30 1968 C 191.718 2.75375 -2.31104 0
M  V30 1969 C 191.382 2.55238 -3.79081 0
M  V30 1970 C 192.379 2.20309 -4.70914 0
M  V30 1971 C 190.064 2.70459 -4.2327 0
M  V30 1972 C 192.058 2.00859 -6.04925 0
M  V30 1973 C 189.745 2.50624 -5.57343 0
M  V30 1974 C 190.743 2.15876 -6.47986 0
M  V30 1975 O 190.431 1.96227 -7.79583 0
M  V30 1976 H 190.163 0.4586 -0.496651 0
M  V30 1977 H 192.717 0.846131 -1.87162 0
M  V30 1978 H 190.947 3.40061 -1.84107 0
M  V30 1979 H 192.636 3.37231 -2.25898 0
M  V30 1980 H 193.402 2.08153 -4.38061 0
M  V30 1981 H 189.281 2.96485 -3.53012 0
M  V30 1982 H 192.825 1.7366 -6.75639 0
M  V30 1983 H 188.722 2.62375 -5.89771 0
M  V30 1984 H 189.49 2.10883 -7.90867 0
M  V30 1985 N 192.153 1.28127 0.917671 0
M  V30 1986 C 193.4 1.15052 1.66641 0
M  V30 1987 C 193.728 -0.301677 1.92146 0
M  V30 1988 O 192.983 -1.23622 1.51711 0
M  V30 1989 C 193.282 1.89018 3.03327 0
M  V30 1990 C 192.948 3.38832 2.97496 0
M  V30 1991 C 191.61 3.79693 2.95613 0
M  V30 1992 C 193.962 4.34378 2.88036 0
M  V30 1993 C 191.29 5.14447 2.82066 0
M  V30 1994 C 193.642 5.69201 2.7603 0
M  V30 1995 C 192.306 6.09343 2.72502 0
M  V30 1996 H 191.576 0.421006 0.609783 0
M  V30 1997 H 194.223 1.58855 1.06945 0
M  V30 1998 H 192.528 1.37752 3.66785 0
M  V30 1999 H 194.225 1.76321 3.60156 0
M  V30 2000 H 190.815 3.06342 2.99754 0
M  V30 2001 H 194.999 4.03775 2.88581 0
M  V30 2002 H 190.255 5.44681 2.77728 0
M  V30 2003 H 194.429 6.42901 2.67678 0
M  V30 2004 H 192.056 7.13712 2.61762 0
M  V30 2005 N 193.631 -1.12557 1.10312 0
M  V30 2006 C 194.871 -1.8568 0.854543 0
M  V30 2007 C 195.235 -1.82091 -0.608843 0
M  V30 2008 O 196.436 -2.50544 -0.973717 0
M  V30 2009 C 194.707 -3.2942 1.38626 0
M  V30 2010 S 196.266 -4.19931 1.27293 0
M  V30 2011 H 193.084 -0.640427 0.308827 0
M  V30 2012 H 195.686 -1.35599 1.40831 0
M  V30 2013 H 194.39 -3.2959 2.44537 0
M  V30 2014 H 193.921 -3.84566 0.82902 0
M  V30 2015 H 195.936 -4.95668 0.229776 0
M  V30 2016 N 195.109 -0.891671 -1.2995 0
M  V30 2017 C 196.057 -0.353066 -2.29905 0
M  V30 2018 C 197.051 0.543509 -1.60444 0
M  V30 2019 O 198.257 0.4272 -1.74857 0
M  V30 2020 H 194.632 -0.095531 -0.745907 0
M  V30 2021 H 196.603 -1.20961 -2.72784 0
M  V30 2022 C 195.352 0.411475 -3.45257 0
M  V30 2023 H 194.675 -0.269182 -3.98893 0
M  V30 2024 H 196.115 0.753328 -4.17254 0
M  V30 2025 C 194.574 1.6111 -2.9588 0
M  V30 2026 O 195.104 2.71045 -2.96475 0
M  V30 2027 N 193.31 1.45054 -2.51809 0
M  V30 2028 H 192.857 0.556175 -2.51524 0
M  V30 2029 H 192.815 2.25453 -2.1913 0
M  V30 2030 N 196.587 1.43421 -0.653314 0
M  V30 2031 C 197.835 2.01414 -0.166415 0
M  V30 2032 C 198.156 1.51803 1.22397 0
M  V30 2033 O 197.426 0.730693 1.81763 0
M  V30 2034 H 196.006 0.744703 -0.0585319 0
M  V30 2035 H 198.668 1.75629 -0.845003 0
M  V30 2036 H 197.764 3.11734 -0.151111 0
M  V30 2037 N 198.065 0.39524 1.52563 0
M  V30 2038 C 199.313 -0.184678 2.01254 0
M  V30 2039 C 199.634 -1.46822 1.28329 0
M  V30 2040 O 198.904 -1.91666 0.405094 0
M  V30 2041 H 197.484 -0.0712355 0.743596 0
M  V30 2042 H 200.146 0.528293 1.87603 0
M  V30 2043 H 199.242 -0.390681 3.09645 0
M  V30 2044 N 199.544 -1.57102 0.125237 0
M  V30 2045 C 200.491 -2.15641 -0.822655 0
M  V30 2046 C 201.461 -1.08313 -1.25927 0
M  V30 2047 O 202.646 -1.36251 -1.33567 0
M  V30 2048 C 199.786 -2.76504 -2.06494 0
M  V30 2049 C 198.899 -3.98158 -1.67612 0
M  V30 2050 C 198.034 -4.47088 -2.86854 0
M  V30 2051 C 197.073 -5.6126 -2.44242 0
M  V30 2052 N 196.21 -6.04905 -3.56419 0
M  V30 2053 H 201.05 -2.96313 -0.316625 0
M  V30 2054 H 198.587 -1.46388 -0.144588 0
M  V30 2055 H 200.545 -3.09925 -2.79289 0
M  V30 2056 H 199.175 -1.98512 -2.54545 0
M  V30 2057 H 198.227 -3.70858 -0.846661 0
M  V30 2058 H 199.539 -4.80934 -1.32301 0
M  V30 2059 H 198.693 -4.82451 -3.67867 0
M  V30 2060 H 197.432 -3.63275 -3.25396 0
M  V30 2061 H 196.437 -5.25495 -1.61663 0
M  V30 2062 H 197.662 -6.46843 -2.0681 0
M  V30 2063 H 195.608 -5.24032 -3.94623 0
M  V30 2064 H 195.525 -6.82552 -3.25051 0
M  V30 2065 H 196.793 -6.44907 -4.37853 0
M  V30 2066 N 201.022 0.148545 -1.56898 0
M  V30 2067 C 202.271 0.85984 -1.82454 0
M  V30 2068 C 202.584 1.82406 -0.706229 0
M  V30 2069 O 203.79 2.57938 -0.847349 0
M  V30 2070 C 202.246 1.57967 -3.2338 0
M  V30 2071 C 201.854 0.65794 -4.43142 0
M  V30 2072 C 203.598 2.27784 -3.58211 0
M  V30 2073 C 201.505 1.3793 -5.75091 0
M  V30 2074 H 200.435 0.324834 -0.68044 0
M  V30 2075 H 203.086 0.112588 -1.83154 0
M  V30 2076 H 201.468 2.37249 -3.17063 0
M  V30 2077 H 202.642 -0.0995497 -4.60692 0
M  V30 2078 H 200.957 0.0682643 -4.16344 0
M  V30 2079 H 203.554 2.8239 -4.54048 0
M  V30 2080 H 203.897 3.04204 -2.84193 0
M  V30 2081 H 204.43 1.55421 -3.66182 0
M  V30 2082 H 201.169 0.656982 -6.52199 0
M  V30 2083 H 200.689 2.10954 -5.61479 0
M  V30 2084 H 202.368 1.92063 -6.17835 0
M  V30 2085 N 202.5 1.5196 0.417844 0
M  V30 2086 C 203.749 1.6482 1.16264 0
M  V30 2087 C 204.062 0.379886 1.91876 0
M  V30 2088 O 205.268 0.388154 2.68711 0
M  V30 2089 C 203.724 2.91161 2.1155 0
M  V30 2090 C 203.332 4.25068 1.41495 0
M  V30 2091 C 205.076 3.13383 2.86341 0
M  V30 2092 C 202.983 5.42541 2.35379 0
M  V30 2093 H 201.913 0.613954 0.437694 0
M  V30 2094 H 204.564 1.78442 0.427871 0
M  V30 2095 H 202.946 2.71218 2.88543 0
M  V30 2096 H 204.12 4.55463 0.699263 0
M  V30 2097 H 202.435 4.0888 0.787792 0
M  V30 2098 H 205.032 3.98324 3.5671 0
M  V30 2099 H 205.375 2.27256 3.48798 0
M  V30 2100 H 205.908 3.33757 2.1645 0
M  V30 2101 H 202.647 6.30987 1.77582 0
M  V30 2102 H 202.167 5.16497 3.04945 0
M  V30 2103 H 203.846 5.75272 2.96093 0
M  V30 2104 N 203.978 -0.674533 1.42435 0
M  V30 2105 C 205.255 -1.4305 1.33402 0
M  V30 2106 C 205.635 -2.11081 -0.0284674 0
M  V30 2107 O 204.983 -2.03257 -1.04397 0
M  V30 2108 C 205.193 -2.43272 2.50239 0
M  V30 2109 C 206.541 -3.07907 2.92367 0
M  V30 2110 O 207.565 -2.53599 2.50132 0
M  V30 2111 O 206.424 -4.0632 3.65467 0
M  V30 2112 H 203.518 -0.638076 0.526106 0
M  V30 2113 H 206.064 -0.703235 1.54443 0
M  V30 2114 H 204.836 -1.91803 3.41068 0
M  V30 2115 H 204.459 -3.23479 2.31186 0
M  V30 2116 N 205.456 -1.28612 -0.910864 0
M  V30 2117 C 206.403 -1.12786 -2.01365 0
M  V30 2118 C 207.373 -0.024201 -1.66082 0
M  V30 2119 O 208.558 -0.189667 -1.89855 0
M  V30 2120 C 205.698 -0.798743 -3.35729 0
M  V30 2121 C 204.811 -1.98173 -3.83864 0
M  V30 2122 C 203.946 -1.59298 -5.06752 0
M  V30 2123 C 202.985 -2.74245 -5.47226 0
M  V30 2124 N 202.122 -2.35842 -6.61304 0
M  V30 2125 H 206.962 -2.07142 -2.14234 0
M  V30 2126 H 204.499 -1.03093 -1.0493 0
M  V30 2127 H 206.457 -0.588662 -4.13026 0
M  V30 2128 H 205.087 0.10789 -3.2262 0
M  V30 2129 H 204.139 -2.30386 -3.02699 0
M  V30 2130 H 205.451 -2.84343 -4.09818 0
M  V30 2131 H 204.605 -1.34513 -5.916 0
M  V30 2132 H 203.344 -0.702618 -4.82612 0
M  V30 2133 H 202.349 -2.99725 -4.60918 0
M  V30 2134 H 203.574 -3.63928 -5.73353 0
M  V30 2135 H 201.52 -1.49279 -6.38789 0
M  V30 2136 H 201.437 -3.15546 -6.86998 0
M  V30 2137 H 202.705 -2.14348 -7.4945 0
M  V30 2138 N 206.934 1.1197 -1.10907 0
M  V30 2139 C 208.35 1.35591 -0.841852 0
M  V30 2140 C 208.55 1.94233 0.536246 0
M  V30 2141 O 207.606 2.1717 1.28816 0
M  V30 2142 C 208.919 2.29284 -1.94549 0
M  V30 2143 C 210.467 2.42862 -1.97451 0
M  V30 2144 C 210.942 3.39873 -3.07002 0
M  V30 2145 N 212.433 3.47433 -3.06341 0
M  V30 2146 C 213.168 4.22421 -3.87748 0
M  V30 2147 N 212.664 5.00432 -4.79103 0
M  V30 2148 N 214.457 4.17876 -3.75946 0
M  V30 2149 H 206.608 0.722664 -1.99728 0
M  V30 2150 H 208.871 0.380635 -0.868229 0
M  V30 2151 H 208.577 1.93378 -2.93765 0
M  V30 2152 H 208.451 3.29452 -1.83688 0
M  V30 2153 H 210.838 2.78046 -0.988645 0
M  V30 2154 H 210.919 1.42566 -2.12388 0
M  V30 2155 H 210.563 3.05417 -4.05811 0
M  V30 2156 H 210.493 4.40011 -2.89306 0
M  V30 2157 H 212.984 2.91784 -2.40147 0
M  V30 2158 H 213.297 5.55002 -5.37766 0
M  V30 2159 H 211.642 4.99612 -4.83128 0
M  V30 2160 H 214.833 3.56016 -3.03924 0
M  V30 2161 H 215.006 4.76061 -4.39624 0
M  V30 2162 N 208.412 0.89855 1.29475 0
M  V30 2163 C 209.342 0.39201 2.30186 0
M  V30 2164 C 210.323 -0.532359 1.61555 0
M  V30 2165 O 211.508 -0.443331 1.89072 0
M  V30 2166 C 208.638 -0.382353 3.45189 0
M  V30 2167 C 207.592 0.451483 4.25612 0
M  V30 2168 C 206.918 -0.450307 5.328 0
M  V30 2169 C 208.218 1.70079 4.93832 0
M  V30 2170 H 209.912 1.23362 2.72804 0
M  V30 2171 H 207.458 0.594638 1.31149 0
M  V30 2172 H 209.411 -0.747451 4.14718 0
M  V30 2173 H 208.135 -1.25774 3.01411 0
M  V30 2174 H 206.794 0.798897 3.57789 0
M  V30 2175 H 206.442 -1.32379 4.85268 0
M  V30 2176 H 206.142 0.103902 5.87508 0
M  V30 2177 H 207.666 -0.811623 6.05182 0
M  V30 2178 H 209.08 1.40549 5.55805 0
M  V30 2179 H 207.477 2.19623 5.58467 0
M  V30 2180 H 208.547 2.43744 4.19186 0
M  V30 2181 N 209.89 -1.43072 0.660911 0
M  V30 2182 C 210.822 -2.29108 -0.0647641 0
M  V30 2183 C 211.835 -1.42928 -0.779448 0
M  V30 2184 O 213.024 -1.66788 -0.635921 0
M  V30 2185 C 210.124 -3.20032 -1.11503 0
M  V30 2186 C 209.297 -4.34792 -0.476955 0
M  V30 2187 C 208.356 -5.06534 -1.42513 0
M  V30 2188 O 207.382 -5.61538 -0.930771 0
M  V30 2189 N 208.584 -5.1075 -2.75889 0
M  V30 2190 H 211.349 -2.92029 0.673731 0
M  V30 2191 H 208.91 -1.53846 0.50427 0
M  V30 2192 H 210.902 -3.64892 -1.75032 0
M  V30 2193 H 209.472 -2.58658 -1.75541 0
M  V30 2194 H 208.692 -3.92752 0.337572 0
M  V30 2195 H 209.98 -5.0879 -0.0318525 0
M  V30 2196 H 209.378 -4.67447 -3.18606 0
M  V30 2197 H 207.935 -5.59302 -3.347 0
M  V30 2198 N 211.368 -0.403325 -1.52352 0
M  V30 2199 C 212.278 0.432009 -2.30588 0
M  V30 2200 C 213.294 1.05884 -1.38075 0
M  V30 2201 O 214.47 1.06161 -1.71148 0
M  V30 2202 C 211.535 1.53669 -3.10784 0
M  V30 2203 C 210.596 0.933525 -4.19027 0
M  V30 2204 C 209.829 1.98557 -4.9539 0
M  V30 2205 O 210.052 3.20283 -4.71991 0
M  V30 2206 O 208.986 1.59504 -5.80381 0
M  V30 2207 H 212.812 -0.205739 -3.03002 0
M  V30 2208 H 210.397 -0.166675 -1.48467 0
M  V30 2209 H 212.279 2.17814 -3.60742 0
M  V30 2210 H 210.954 2.15915 -2.41169 0
M  V30 2211 H 209.861 0.254954 -3.7323 0
M  V30 2212 H 211.194 0.35508 -4.90918 0
M  V30 2213 N 212.846 1.57033 -0.133567 0
M  V30 2214 C 213.776 2.1909 0.807567 0
M  V30 2215 C 214.757 1.13517 1.26681 0
M  V30 2216 O 215.942 1.41809 1.32679 0
M  V30 2217 C 213.072 2.80188 2.05212 0
M  V30 2218 C 212.026 3.91471 1.73015 0
M  V30 2219 C 211.352 4.39443 3.04622 0
M  V30 2220 C 212.652 5.12886 0.987168 0
M  V30 2221 H 214.346 2.97988 0.290403 0
M  V30 2222 H 211.892 1.43335 0.138239 0
M  V30 2223 H 213.845 3.22264 2.71521 0
M  V30 2224 H 212.569 1.98601 2.59278 0
M  V30 2225 H 211.228 3.49993 1.0909 0
M  V30 2226 H 210.876 3.54695 3.56651 0
M  V30 2227 H 210.576 5.14495 2.83847 0
M  V30 2228 H 212.1 4.8418 3.72024 0
M  V30 2229 H 213.514 5.51891 1.55208 0
M  V30 2230 H 211.911 5.93615 0.87985 0
M  V30 2231 H 212.981 4.84894 -0.0235286 0
M  V30 2232 N 214.325 -0.140222 1.56975 0
M  V30 2233 C 215.573 -0.850005 1.83356 0
M  V30 2234 C 215.894 -1.81399 0.71551 0
M  V30 2235 O 215.164 -1.94136 -0.262294 0
M  V30 2236 H 213.744 -0.316886 0.676456 0
M  V30 2237 H 216.406 -0.132608 1.94448 0
M  V30 2238 H 215.502 -1.40814 2.78528 0
M  V30 2239 N 215.803 -1.52179 -0.40978 0
M  V30 2240 C 216.766 -1.74853 -1.48186 0
M  V30 2241 C 217.766 -0.618417 -1.48433 0
M  V30 2242 O 218.956 -0.886286 -1.49969 0
M  V30 2243 C 216.088 -1.8303 -2.87598 0
M  V30 2244 H 217.281 -2.70559 -1.29374 0
M  V30 2245 H 214.834 -1.42586 -0.640233 0
M  V30 2246 H 215.569 -0.89236 -3.11781 0
M  V30 2247 H 215.354 -2.65187 -2.88822 0
M  V30 2248 H 216.844 -2.02316 -3.65319 0
M  V30 2249 N 217.281 0.66697 -1.42791 0
M  V30 2250 C 218.697 0.981027 -1.25889 0
M  V30 2251 C 218.897 2.00793 -0.168695 0
M  V30 2252 O 217.953 2.48321 0.45747 0
M  V30 2253 C 219.266 1.47838 -2.61848 0
M  V30 2254 C 220.814 1.59575 -2.69267 0
M  V30 2255 C 221.289 2.12704 -4.05612 0
M  V30 2256 N 222.78 2.20026 -4.07606 0
M  V30 2257 C 223.515 2.62227 -5.09926 0
M  V30 2258 N 223.011 3.03824 -6.22626 0
M  V30 2259 N 224.804 2.62045 -4.97281 0
M  V30 2260 H 216.955 -0.0127891 -2.12396 0
M  V30 2261 H 219.218 0.0568258 -0.946295 0
M  V30 2262 H 218.924 0.798299 -3.4252 0
M  V30 2263 H 218.798 2.45579 -2.86305 0
M  V30 2264 H 221.185 2.26687 -1.88936 0
M  V30 2265 H 221.266 0.60302 -2.48591 0
M  V30 2266 H 220.91 1.46198 -4.86404 0
M  V30 2267 H 220.84 3.12782 -4.23645 0
M  V30 2268 H 223.331 1.90708 -3.2625 0
M  V30 2269 H 223.644 3.34734 -6.96544 0
M  V30 2270 H 221.989 3.01662 -6.26119 0
M  V30 2271 H 225.18 2.28916 -4.08308 0
M  V30 2272 H 225.353 2.94613 -5.77154 0
M  V30 2273 N 218.759 1.29093 0.90403 0
M  V30 2274 C 219.709 1.10482 1.99443 0
M  V30 2275 C 220.693 0.0255401 1.6088 0
M  V30 2276 O 221.885 0.24677 1.75271 0
M  V30 2277 C 219.014 0.778882 3.34348 0
M  V30 2278 C 218.1 1.89749 3.79284 0
M  V30 2279 N 218.491 3.14045 3.96497 0
M  V30 2280 C 216.789 1.78955 4.08523 0
M  V30 2281 C 217.49 3.86996 4.34292 0
M  V30 2282 N 216.466 3.14909 4.43095 0
M  V30 2283 H 220.268 2.04778 2.10815 0
M  V30 2284 H 217.782 1.20155 1.09255 0
M  V30 2285 H 219.779 0.62661 4.12164 0
M  V30 2286 H 218.439 -0.156205 3.24324 0
M  V30 2287 H 219.45 3.49548 3.82148 0
M  V30 2288 H 216.127 0.926886 4.07081 0
M  V30 2289 H 217.517 4.93941 4.55491 0
M  V30 2290 N 220.237 -1.11381 1.11499 0
M  V30 2291 C 221.484 -1.83132 0.864231 0
M  V30 2292 C 221.812 -1.84683 -0.610114 0
M  V30 2293 O 221.067 -1.29589 -1.46646 0
M  V30 2294 C 221.366 -3.30026 1.37177 0
M  V30 2295 C 221.032 -3.48634 2.85946 0
M  V30 2296 C 219.694 -3.53421 3.26569 0
M  V30 2297 C 222.046 -3.54837 3.81759 0
M  V30 2298 C 219.374 -3.61967 4.61733 0
M  V30 2299 C 221.726 -3.64915 5.1674 0
M  V30 2300 C 220.39 -3.67962 5.5692 0
M  V30 2301 H 219.66 -0.670127 0.316245 0
M  V30 2302 H 222.307 -1.31354 1.3935 0
M  V30 2303 H 220.612 -3.84304 0.762753 0
M  V30 2304 H 222.309 -3.84034 1.15408 0
M  V30 2305 H 218.899 -3.45579 2.53521 0
M  V30 2306 H 223.083 -3.50399 3.51474 0
M  V30 2307 H 218.339 -3.62603 4.92269 0
M  V30 2308 H 222.513 -3.68658 5.90816 0
M  V30 2309 H 220.14 -3.74336 6.61647 0
M  V30 2310 N 221.715 -0.905404 -1.28997 0
M  V30 2311 C 222.945 -0.549049 -1.99171 0
M  V30 2312 C 223.353 0.87203 -1.67906 0
M  V30 2313 O 222.696 1.58796 -0.923561 0
M  V30 2314 C 222.758 -0.668306 -3.53234 0
M  V30 2315 C 222.422 -2.0574 -4.08069 0
M  V30 2316 C 223.419 -3.0292 -4.22534 0
M  V30 2317 C 221.104 -2.36833 -4.42962 0
M  V30 2318 C 223.098 -4.29314 -4.71135 0
M  V30 2319 C 220.785 -3.63467 -4.91258 0
M  V30 2320 C 221.783 -4.59522 -5.053 0
M  V30 2321 O 221.471 -5.83907 -5.52546 0
M  V30 2322 H 221.203 -0.208784 -0.64295 0
M  V30 2323 H 223.757 -1.21836 -1.65363 0
M  V30 2324 H 221.987 0.0580547 -3.86656 0
M  V30 2325 H 223.676 -0.320273 -4.04634 0
M  V30 2326 H 224.442 -2.80216 -3.95859 0
M  V30 2327 H 220.321 -1.62824 -4.31288 0
M  V30 2328 H 223.865 -5.04293 -4.8201 0
M  V30 2329 H 219.762 -3.86 -5.17372 0
M  V30 2330 H 220.53 -5.86578 -5.70849 0
M  V30 2331 N 223.193 1.4272 -0.668489 0
M  V30 2332 C 224.47 1.95248 -0.117373 0
M  V30 2333 C 224.85 1.60919 1.36632 0
M  V30 2334 O 224.198 0.902095 2.09939 0
M  V30 2335 C 224.408 3.46927 -0.379806 0
M  V30 2336 C 225.756 4.23588 -0.292923 0
M  V30 2337 O 226.78 3.5482 -0.313204 0
M  V30 2338 O 225.639 5.46017 -0.229697 0
M  V30 2339 H 222.733 0.827 0.00079152 0
M  V30 2340 H 225.279 1.52581 -0.742783 0
M  V30 2341 H 224.051 3.65096 -1.40786 0
M  V30 2342 H 223.674 3.96627 0.277923 0
M  V30 2343 N 224.671 0.411399 1.52136 0
M  V30 2344 C 225.899 -0.163076 2.06256 0
M  V30 2345 C 226.314 -1.3867 1.28125 0
M  V30 2346 O 225.671 -1.79423 0.333721 0
M  V30 2347 C 225.722 -0.511252 3.57867 0
M  V30 2348 O 225.443 0.66378 4.33042 0
M  V30 2349 C 226.944 -1.13921 4.28412 0
M  V30 2350 H 224.164 -0.0193897 0.67072 0
M  V30 2351 H 226.708 0.583007 1.96013 0
M  V30 2352 H 224.863 -1.20723 3.6811 0
M  V30 2353 H 225.277 0.372601 5.23175 0
M  V30 2354 H 226.751 -1.33302 5.35663 0
M  V30 2355 H 227.228 -2.11296 3.85033 0
M  V30 2356 H 227.834 -0.483373 4.22544 0
M  V30 2357 N 226.149 -1.5696 0.141893 0
M  V30 2358 C 227.397 -1.95573 -0.509484 0
M  V30 2359 C 227.718 -1.02746 -1.65736 0
M  V30 2360 O 226.988 -0.0880311 -1.95702 0
M  V30 2361 H 225.568 -0.722115 -0.191205 0
M  V30 2362 H 228.23 -1.93697 0.216196 0
M  V30 2363 H 227.326 -2.99171 -0.889 0
M  V30 2364 N 227.627 0.131896 -1.57047 0
M  V30 2365 C 228.577 1.1679 -1.95816 0
M  V30 2366 C 229.561 1.37756 -0.831393 0
M  V30 2367 O 230.753 1.39065 -1.09499 0
M  V30 2368 C 227.882 2.49778 -2.35512 0
M  V30 2369 C 226.968 2.32342 -3.54793 0
M  V30 2370 N 227.359 1.8469 -4.70875 0
M  V30 2371 C 225.657 2.63043 -3.60173 0
M  V30 2372 C 226.358 1.80656 -5.52936 0
M  V30 2373 N 225.334 2.24528 -4.95064 0
M  V30 2374 H 229.136 0.791818 -2.83033 0
M  V30 2375 H 226.65 0.339791 -1.58805 0
M  V30 2376 H 228.647 3.24692 -2.61498 0
M  V30 2377 H 227.307 2.88156 -1.49654 0
M  V30 2378 H 228.318 1.54429 -4.9434 0
M  V30 2379 H 224.995 3.05193 -2.84892 0
M  V30 2380 H 226.385 1.45178 -6.56028 0
M  V30 2381 N 229.106 1.52395 0.401703 0
M  V30 2382 C 230.069 1.75636 1.47257 0
M  V30 2383 C 231.069 0.62628 1.48103 0
M  V30 2384 O 232.259 0.894227 1.49497 0
M  V30 2385 C 229.391 1.84553 2.86624 0
M  V30 2386 H 230.584 2.71241 1.27938 0
M  V30 2387 H 228.137 1.42923 0.632662 0
M  V30 2388 H 228.872 0.908882 3.11303 0
M  V30 2389 H 228.657 2.66715 2.87412 0
M  V30 2390 H 230.147 2.04251 3.64241 0
M  V30 2391 N 230.584 -0.659388 1.43143 0
M  V30 2392 C 231.861 -1.41627 1.34912 0
M  V30 2393 C 232.241 -2.11099 -0.00607785 0
M  V30 2394 O 231.589 -2.04353 -1.02236 0
M  V30 2395 C 231.799 -2.40604 2.52805 0
M  V30 2396 C 233.147 -3.04789 2.95616 0
M  V30 2397 O 234.171 -2.50932 2.52807 0
M  V30 2398 O 233.03 -4.02421 3.69756 0
M  V30 2399 H 230.124 -0.63246 0.532844 0
M  V30 2400 H 232.67 -0.686814 1.5518 0
M  V30 2401 H 231.442 -1.88174 3.43083 0
M  V30 2402 H 231.065 -3.21009 2.34604 0
M  V30 2403 N 232.062 -1.29571 -0.897171 0
M  V30 2404 C 233.339 -1.08365 -1.62839 0
M  V30 2405 C 233.719 0.371331 -2.07808 0
M  V30 2406 O 233.067 1.3606 -1.83576 0
M  V30 2407 C 233.277 -2.0735 -2.80726 0
M  V30 2408 C 234.625 -2.38406 -3.51351 0
M  V30 2409 O 235.649 -2.05564 -2.90898 0
M  V30 2410 O 234.508 -2.9453 -4.60341 0
M  V30 2411 H 231.602 -0.415345 -0.715134 0
M  V30 2412 H 234.148 -1.40952 -0.945018 0
M  V30 2413 H 232.92 -3.05339 -2.44711 0
M  V30 2414 H 232.543 -1.75507 -3.56767 0
M  V30 2415 N 233.54 1.10788 -1.12088 0
M  V30 2416 C 234.78 1.84297 -0.883974 0
M  V30 2417 C 235.144 1.83036 0.579797 0
M  V30 2418 O 236.345 2.52061 0.933734 0
M  V30 2419 C 234.616 3.27173 -1.43849 0
M  V30 2420 S 236.175 4.17853 -1.33957 0
M  V30 2421 H 232.993 0.635433 -0.318977 0
M  V30 2422 H 235.595 1.33341 -1.4297 0
M  V30 2423 H 234.299 3.25658 -2.49749 0
M  V30 2424 H 233.83 3.83198 -0.890096 0
M  V30 2425 H 235.845 4.95239 -0.308603 0
M  V30 2426 N 235.018 0.912232 1.28515 0
M  V30 2427 C 236.264 0.545405 1.95328 0
M  V30 2428 C 236.597 -0.908313 1.71649 0
M  V30 2429 O 235.872 -1.64575 1.03659 0
M  V30 2430 C 236.155 0.853483 3.4984 0
M  V30 2431 C 236.008 2.35982 3.82926 0
M  V30 2432 C 237.327 0.348589 4.38717 0
M  V30 2433 H 234.446 0.199626 0.709449 0
M  V30 2434 H 237.088 1.1412 1.5191 0
M  V30 2435 H 235.238 0.34643 3.86952 0
M  V30 2436 H 236.91 2.93738 3.55691 0
M  V30 2437 H 235.153 2.81543 3.30024 0
M  V30 2438 H 235.824 2.52593 4.90816 0
M  V30 2439 H 238.3 0.78294 4.08668 0
M  V30 2440 H 237.176 0.593242 5.45685 0
M  V30 2441 H 237.437 -0.751049 4.35674 0
M  V30 2442 N 236.496 -1.42363 0.676048 0
M  V30 2443 C 237.744 -2.01123 0.198437 0
M  V30 2444 C 238.065 -1.53731 -1.19966 0
M  V30 2445 O 237.335 -0.759518 -1.80577 0
M  V30 2446 H 235.915 -0.743678 0.0703721 0
M  V30 2447 H 238.577 -1.74263 0.872837 0
M  V30 2448 H 237.673 -3.11454 0.200686 0
M  V30 2449 N 237.974 -0.419461 -1.51915 0
M  V30 2450 C 238.904 0.391813 -2.30189 0
M  V30 2451 C 239.885 1.03699 -1.34836 0
M  V30 2452 O 241.07 1.04403 -1.63748 0
M  V30 2453 C 238.2 1.50312 -3.13087 0
M  V30 2454 C 237.154 0.9824 -4.16573 0
M  V30 2455 C 236.48 2.18809 -4.8788 0
M  V30 2456 C 237.78 0.0292356 -5.22292 0
M  V30 2457 H 239.474 -0.26135 -2.98257 0
M  V30 2458 H 237.02 -0.127134 -1.43438 0
M  V30 2459 H 238.973 2.07773 -3.66617 0
M  V30 2460 H 237.697 2.18431 -2.42807 0
M  V30 2461 H 236.356 0.430119 -3.64068 0
M  V30 2462 H 236.004 2.85507 -4.14119 0
M  V30 2463 H 235.704 1.84615 -5.57845 0
M  V30 2464 H 237.228 2.76858 -5.44226 0
M  V30 2465 H 238.642 0.512976 -5.71 0
M  V30 2466 H 237.039 -0.2244 -5.9968 0
M  V30 2467 H 238.109 -0.912931 -4.76228 0
M  V30 2468 N 239.452 1.56882 -0.150215 0
M  V30 2469 C 240.362 2.20494 0.801222 0
M  V30 2470 C 241.378 1.19019 1.26927 0
M  V30 2471 O 242.554 1.51607 1.32579 0
M  V30 2472 C 239.619 2.81659 2.02161 0
M  V30 2473 C 238.68 3.9827 1.60249 0
M  V30 2474 C 237.913 4.56508 2.7647 0
M  V30 2475 O 238.136 4.13627 3.92771 0
M  V30 2476 O 237.07 5.46719 2.51757 0
M  V30 2477 H 240.896 3.02315 0.289717 0
M  V30 2478 H 238.481 1.49202 0.0769684 0
M  V30 2479 H 240.363 3.20522 2.73576 0
M  V30 2480 H 239.038 2.02849 2.52258 0
M  V30 2481 H 237.945 3.64117 0.858477 0
M  V30 2482 H 239.278 4.78609 1.14864 0
M  V30 2483 N 240.93 -0.123565 1.57115 0
M  V30 2484 C 241.86 -1.15309 2.03042 0
M  V30 2485 C 242.841 -1.43454 0.914061 0
M  V30 2486 O 244.026 -1.53973 1.18347 0
M  V30 2487 C 241.156 -2.48043 2.43089 0
M  V30 2488 C 240.11 -2.3437 3.58127 0
M  V30 2489 C 239.436 -3.72026 3.84059 0
M  V30 2490 C 240.736 -1.80804 4.90007 0
M  V30 2491 H 242.43 -0.771102 2.893 0
M  V30 2492 H 239.976 -0.369479 1.39179 0
M  V30 2493 H 241.929 -3.20311 2.73823 0
M  V30 2494 H 240.653 -2.88122 1.53796 0
M  V30 2495 H 239.312 -1.64551 3.27595 0
M  V30 2496 H 238.96 -4.09582 2.91979 0
M  V30 2497 H 238.66 -3.63732 4.6149 0
M  V30 2498 H 240.184 -4.45806 4.1724 0
M  V30 2499 H 241.598 -2.42886 5.19307 0
M  V30 2500 H 239.995 -1.83343 5.71407 0
M  V30 2501 H 241.065 -0.76528 4.78823 0
M  V30 2502 N 242.408 -1.52605 -0.393616 0
M  V30 2503 C 243.654 -1.67672 -1.14079 0
M  V30 2504 C 243.987 -0.413121 -1.89755 0
M  V30 2505 O 243.262 0.588952 -1.85369 0
M  V30 2506 C 243.545 -2.9088 -2.12276 0
M  V30 2507 C 243.398 -4.27329 -1.40394 0
M  V30 2508 C 244.717 -3.09628 -3.12759 0
M  V30 2509 H 241.836 -0.610168 -0.413356 0
M  V30 2510 H 244.478 -1.85193 -0.424696 0
M  V30 2511 H 242.628 -2.76073 -2.73342 0
M  V30 2512 H 244.3 -4.53894 -0.82327 0
M  V30 2513 H 242.543 -4.2802 -0.705801 0
M  V30 2514 H 243.214 -5.09615 -2.12123 0
M  V30 2515 H 245.69 -3.23436 -2.61779 0
M  V30 2516 H 244.566 -3.97322 -3.78717 0
M  V30 2517 H 244.827 -2.23637 -3.81365 0
M  V30 2518 N 243.887 0.651787 -1.4349 0
M  V30 2519 C 245.133 1.41376 -1.45398 0
M  V30 2520 C 245.466 1.94041 -0.0784823 0
M  V30 2521 O 244.741 1.72379 0.900878 0
M  V30 2522 C 245.024 2.59414 -2.49752 0
M  V30 2523 C 244.877 2.12232 -3.96582 0
M  V30 2524 C 246.196 3.61626 -2.50827 0
M  V30 2525 H 243.315 0.512719 -0.529422 0
M  V30 2526 H 245.957 0.738796 -1.75048 0
M  V30 2527 H 244.107 3.16997 -2.246 0
M  V30 2528 H 245.779 1.59639 -4.32797 0
M  V30 2529 H 244.022 1.43592 -4.09346 0
M  V30 2530 H 244.693 2.9712 -4.65214 0
M  V30 2531 H 247.169 3.13805 -2.7325 0
M  V30 2532 H 246.045 4.41766 -3.25783 0
M  V30 2533 H 246.306 4.14314 -1.5426 0
M  V30 2534 N 245.365 1.30045 0.890287 0
M  V30 2535 C 246.275 1.17885 2.02831 0
M  V30 2536 C 247.291 0.0999609 1.73713 0
M  V30 2537 O 248.467 0.313867 1.98939 0
M  V30 2538 C 245.532 0.866079 3.35708 0
M  V30 2539 C 244.593 2.02979 3.78283 0
M  V30 2540 C 243.826 1.73184 5.0482 0
M  V30 2541 O 244.049 0.657237 5.66601 0
M  V30 2542 O 242.983 2.58267 5.43674 0
M  V30 2543 H 246.809 2.13474 2.16015 0
M  V30 2544 H 244.394 1.09587 1.01543 0
M  V30 2545 H 246.276 0.706623 4.15433 0
M  V30 2546 H 244.951 -0.0599443 3.23644 0
M  V30 2547 H 243.858 2.24454 2.99285 0
M  V30 2548 H 245.191 2.93734 3.94944 0
M  V30 2549 N 246.843 -1.10192 1.12674 0
M  V30 2550 C 248.254 -1.63707 0.897604 0
M  V30 2551 C 248.605 -1.87812 -0.567546 0
M  V30 2552 O 247.73 -1.62196 -1.43253 0
M  V30 2553 C 248.325 -2.974 1.62292 0
M  V30 2554 C 246.884 -3.47772 1.43986 0
M  V30 2555 C 246.031 -2.22332 1.65722 0
M  V30 2556 H 248.982 -0.936587 1.28116 0
M  V30 2557 H 249.003 -3.64986 1.07541 0
M  V30 2558 H 248.515 -2.79824 2.68924 0
M  V30 2559 H 246.616 -3.70487 0.396206 0
M  V30 2560 H 246.729 -4.25723 2.19765 0
M  V30 2561 H 245.093 -2.30599 1.08149 0
M  V30 2562 H 245.876 -2.07285 2.73657 0
M  V30 2563 N 248.321 -0.919034 -1.28029 0
M  V30 2564 C 249.567 -0.565221 -1.95389 0
M  V30 2565 C 249.922 0.882325 -1.70976 0
M  V30 2566 O 249.215 1.61988 -1.02325 0
M  V30 2567 C 249.409 -0.816855 -3.4794 0
M  V30 2568 C 249.238 -2.28731 -3.87185 0
M  V30 2569 C 248.008 -2.93841 -4.11079 0
M  V30 2570 C 250.206 -3.26415 -3.97439 0
M  V30 2571 N 248.188 -4.31129 -4.37037 0
M  V30 2572 C 249.559 -4.48884 -4.27672 0
M  V30 2573 C 251.614 -3.21742 -3.79982 0
M  V30 2574 C 250.317 -5.67268 -4.42266 0
M  V30 2575 C 252.343 -4.39431 -3.95796 0
M  V30 2576 C 251.705 -5.60675 -4.26407 0
M  V30 2577 H 247.804 -0.256797 -0.738633 0
M  V30 2578 H 250.388 -1.18386 -1.54573 0
M  V30 2579 H 248.559 -0.227445 -3.87733 0
M  V30 2580 H 250.291 -0.426542 -4.02446 0
M  V30 2581 H 247.046 -2.44547 -4.05578 0
M  V30 2582 H 247.47 -5.02127 -4.5409 0
M  V30 2583 H 252.112 -2.29079 -3.55363 0
M  V30 2584 H 249.83 -6.60406 -4.65714 0
M  V30 2585 H 253.416 -4.37323 -3.83719 0
M  V30 2586 H 252.296 -6.50223 -4.38383 0
M  V30 2587 N 249.799 1.42003 -0.683588 0
M  V30 2588 C 251.048 2.00638 -0.206681 0
M  V30 2589 C 251.361 1.5472 1.19671 0
M  V30 2590 O 252.567 2.05833 1.77045 0
M  V30 2591 C 251.023 3.58487 -0.318632 0
M  V30 2592 C 250.631 4.1339 -1.72663 0
M  V30 2593 C 252.375 4.24384 0.0991141 0
M  V30 2594 C 250.282 5.63633 -1.79087 0
M  V30 2595 H 249.212 0.750408 -0.0735107 0
M  V30 2596 H 251.863 1.62624 -0.850048 0
M  V30 2597 H 250.245 3.94047 0.392781 0
M  V30 2598 H 251.419 3.89273 -2.46583 0
M  V30 2599 H 249.734 3.59976 -2.09299 0
M  V30 2600 H 252.331 5.34652 0.0713833 0
M  V30 2601 H 252.674 4.00505 1.13586 0
M  V30 2602 H 253.207 3.93816 -0.561599 0
M  V30 2603 H 249.946 5.92323 -2.80774 0
M  V30 2604 H 249.466 5.89714 -1.09535 0
M  V30 2605 H 251.145 6.28201 -1.5483 0
M  V30 2606 N 251.277 0.427512 1.51691 0
M  V30 2607 C 252.24 -0.377132 2.26076 0
M  V30 2608 C 253.24 -0.958089 1.29141 0
M  V30 2609 O 254.43 -0.83408 1.52934 0
M  V30 2610 C 251.562 -1.53262 3.04506 0
M  V30 2611 H 252.755 0.27464 2.9864 0
M  V30 2612 H 250.308 0.180445 1.55255 0
M  V30 2613 H 251.043 -2.22072 2.36335 0
M  V30 2614 H 250.828 -1.12232 3.75694 0
M  V30 2615 H 252.318 -2.10135 3.60878 0
M  V30 2616 N 252.755 -1.56801 0.158532 0
M  V30 2617 C 254.003 -1.96102 -0.488712 0
M  V30 2618 C 254.324 -1.04498 -1.64636 0
M  V30 2619 O 253.594 -0.108783 -1.95598 0
M  V30 2620 H 252.174 -0.724102 -0.183535 0
M  V30 2621 H 254.836 -1.93457 0.236728 0
M  V30 2622 H 253.932 -3.00097 -0.857219 0
M  V30 2623 N 254.233 0.115231 -1.57178 0
M  V30 2624 C 255.163 1.1423 -2.03651 0
M  V30 2625 C 256.144 1.42967 -0.921655 0
M  V30 2626 O 257.329 1.53343 -1.19162 0
M  V30 2627 C 254.459 2.4675 -2.44401 0
M  V30 2628 C 253.413 2.32467 -3.59365 0
M  V30 2629 C 252.739 3.69984 -3.86026 0
M  V30 2630 C 254.039 1.78203 -4.90959 0
M  V30 2631 H 255.733 0.755749 -2.89705 0
M  V30 2632 H 253.279 0.362093 -1.39373 0
M  V30 2633 H 255.232 3.18854 -2.75517 0
M  V30 2634 H 253.956 2.87302 -1.55322 0
M  V30 2635 H 252.615 1.62811 -3.28463 0
M  V30 2636 H 252.263 4.08028 -2.94147 0
M  V30 2637 H 251.963 3.61279 -4.63412 0
M  V30 2638 H 253.487 4.43587 -4.19599 0
M  V30 2639 H 254.901 2.40128 -5.20587 0
M  V30 2640 H 253.298 1.8031 -5.72371 0
M  V30 2641 H 254.368 0.739876 -4.79222 0
M  V30 2642 N 255.711 1.52812 0.385517 0
M  V30 2643 C 256.957 1.69225 1.12847 0
M  V30 2644 C 257.312 0.42864 1.87564 0
M  V30 2645 O 256.605 -0.57779 1.8268 0
M  V30 2646 C 256.799 2.86856 2.13187 0
M  V30 2647 C 256.628 4.24535 1.48325 0
M  V30 2648 C 255.398 4.89701 1.24585 0
M  V30 2649 C 257.596 5.05794 0.931501 0
M  V30 2650 N 255.578 6.11353 0.558644 0
M  V30 2651 C 256.949 6.1888 0.372552 0
M  V30 2652 C 259.004 4.90963 0.828248 0
M  V30 2653 C 257.707 7.18757 -0.279556 0
M  V30 2654 C 259.733 5.91095 0.189956 0
M  V30 2655 C 259.095 7.03489 -0.358207 0
M  V30 2656 H 255.194 0.67268 0.39878 0
M  V30 2657 H 257.778 1.9017 0.417528 0
M  V30 2658 H 255.949 2.67484 2.81614 0
M  V30 2659 H 257.681 2.92188 2.80014 0
M  V30 2660 H 254.436 4.48485 1.52178 0
M  V30 2661 H 254.86 6.76606 0.230983 0
M  V30 2662 H 259.502 4.04274 1.23784 0
M  V30 2663 H 257.22 8.05052 -0.701152 0
M  V30 2664 H 260.806 5.81694 0.111264 0
M  V30 2665 H 259.686 7.79642 -0.844314 0
M  V30 2666 N 257.189 -0.644168 1.43834 0
M  V30 2667 C 258.6 -1.22554 1.40845 0
M  V30 2668 C 258.951 -1.9585 0.117115 0
M  V30 2669 O 258.076 -2.01734 -0.783086 0
M  V30 2670 C 258.671 -2.22907 2.55143 0
M  V30 2671 C 257.23 -2.76501 2.5539 0
M  V30 2672 C 256.377 -1.51287 2.32396 0
M  V30 2673 H 259.328 -0.43563 1.52604 0
M  V30 2674 H 259.349 -3.05259 2.2715 0
M  V30 2675 H 258.861 -1.69533 3.49114 0
M  V30 2676 H 256.962 -3.33914 1.65324 0
M  V30 2677 H 257.075 -3.23429 3.53455 0
M  V30 2678 H 255.439 -1.78957 1.81236 0
M  V30 2679 H 256.222 -0.998336 3.28463 0
M  V30 2680 N 258.668 -1.30515 -0.883378 0
M  V30 2681 C 259.631 -1.1701 -1.97082 0
M  V30 2682 C 260.631 -0.10089 -1.60483 0
M  V30 2683 O 261.821 -0.349127 -1.70666 0
M  V30 2684 C 258.953 -0.793045 -3.31547 0
M  V30 2685 H 260.146 -2.13622 -2.10489 0
M  V30 2686 H 257.699 -1.13935 -1.06998 0
M  V30 2687 H 258.434 0.172499 -3.23841 0
M  V30 2688 H 258.219 -1.56576 -3.5948 0
M  V30 2689 H 259.709 -0.722073 -4.1131 0
M  V30 2690 N 260.146 1.09593 -1.13257 0
M  V30 2691 C 261.076 2.18214 -0.830946 0
M  V30 2692 C 262.057 1.68812 0.208966 0
M  V30 2693 O 263.242 1.9408 0.0682666 0
M  V30 2694 C 260.372 3.46051 -0.294296 0
M  V30 2695 C 259.326 4.08778 -1.26826 0
M  V30 2696 C 258.652 5.31419 -0.591449 0
M  V30 2697 C 259.952 4.51476 -2.62615 0
M  V30 2698 H 261.646 2.43703 -1.73923 0
M  V30 2699 H 259.192 1.17128 -0.837675 0
M  V30 2700 H 261.145 4.2134 -0.0709606 0
M  V30 2701 H 259.869 3.20079 0.649366 0
M  V30 2702 H 258.528 3.35505 -1.47756 0
M  V30 2703 H 258.176 5.01727 0.357633 0
M  V30 2704 H 257.876 5.74341 -1.24123 0
M  V30 2705 H 259.4 6.09433 -0.377355 0
M  V30 2706 H 260.814 5.17999 -2.45663 0
M  V30 2707 H 259.211 5.05277 -3.23752 0
M  V30 2708 H 260.281 3.63962 -3.20406 0
M  V30 2709 N 261.624 0.925811 1.2754 0
M  V30 2710 C 263.04 0.625767 1.46821 0
M  V30 2711 C 263.24 -0.825506 1.83814 0
M  V30 2712 O 262.296 -1.60356 1.95044 0
M  V30 2713 C 263.609 1.57402 2.56213 0
M  V30 2714 C 265.157 1.58204 2.70075 0
M  V30 2715 C 265.632 2.51721 3.82623 0
M  V30 2716 N 267.123 2.49917 3.89994 0
M  V30 2717 C 267.858 3.18968 4.76494 0
M  V30 2718 N 267.354 3.97391 5.67496 0
M  V30 2719 N 269.147 3.07996 4.70208 0
M  V30 2720 H 261.298 1.86409 1.01811 0
M  V30 2721 H 263.561 0.800213 0.508295 0
M  V30 2722 H 263.267 2.60925 2.35819 0
M  V30 2723 H 263.141 1.31428 3.53563 0
M  V30 2724 H 265.528 0.554124 2.89851 0
M  V30 2725 H 265.609 1.88226 1.73218 0
M  V30 2726 H 265.253 3.54622 3.63601 0
M  V30 2727 H 265.183 2.18996 4.78903 0
M  V30 2728 H 267.674 1.9296 3.24923 0
M  V30 2729 H 267.987 4.4707 6.30356 0
M  V30 2730 H 266.332 4.01495 5.67298 0
M  V30 2731 H 269.523 2.46223 3.9811 0
M  V30 2732 H 269.696 3.6208 5.37403 0
M  V30 2733 N 263.102 -1.41638 0.69111 0
M  V30 2734 C 264.049 -2.30789 0.0229705 0
M  V30 2735 C 265.019 -1.46863 -0.775911 0
M  V30 2736 O 266.204 -1.75661 -0.74485 0
M  V30 2737 C 263.344 -3.32868 -0.910666 0
M  V30 2738 C 262.457 -4.31875 -0.103874 0
M  V30 2739 C 261.592 -5.21024 -1.03475 0
M  V30 2740 C 260.631 -6.11702 -0.220598 0
M  V30 2741 N 259.768 -6.93349 -1.10504 0
M  V30 2742 H 264.608 -2.87366 0.788978 0
M  V30 2743 H 262.145 -1.41535 0.400794 0
M  V30 2744 H 264.103 -3.90596 -1.46597 0
M  V30 2745 H 262.733 -2.77851 -1.64312 0
M  V30 2746 H 261.785 -3.76131 0.568285 0
M  V30 2747 H 263.097 -4.96003 0.527504 0
M  V30 2748 H 262.251 -5.83565 -1.65943 0
M  V30 2749 H 260.99 -4.57112 -1.69999 0
M  V30 2750 H 259.995 -5.48215 0.417187 0
M  V30 2751 H 261.22 -6.77668 0.440784 0
M  V30 2752 H 259.166 -6.3205 -1.75638 0
M  V30 2753 H 259.083 -7.54146 -0.529125 0
M  V30 2754 H 260.351 -7.60362 -1.71667 0
M  V30 2755 N 264.58 -0.43555 -1.51462 0
M  V30 2756 C 265.53 0.394701 -2.24558 0
M  V30 2757 C 266.514 0.99157 -1.26715 0
M  V30 2758 O 267.706 0.910007 -1.51815 0
M  V30 2759 C 264.835 1.4963 -3.08975 0
M  V30 2760 C 263.921 0.908912 -4.14246 0
M  V30 2761 N 264.312 0.0505335 -5.05775 0
M  V30 2762 C 262.61 1.17668 -4.30198 0
M  V30 2763 C 263.311 -0.279161 -5.8103 0
M  V30 2764 N 262.287 0.336767 -5.42556 0
M  V30 2765 H 266.089 -0.267106 -2.92684 0
M  V30 2766 H 263.603 -0.247518 -1.60503 0
M  V30 2767 H 265.6 2.10394 -3.59917 0
M  V30 2768 H 264.26 2.16046 -2.42393 0
M  V30 2769 H 265.271 -0.31577 -5.16936 0
M  V30 2770 H 261.948 1.83847 -3.74842 0
M  V30 2771 H 263.338 -0.977553 -6.64751 0
M  V30 2772 N 266.058 1.56714 -0.166846 0
M  V30 2773 C 267.305 1.96747 0.479252 0
M  V30 2774 C 267.633 1.05263 1.63554 0
M  V30 2775 O 266.888 0.0858098 1.95512 0
M  V30 2776 C 267.187 3.42889 1.00806 0
M  V30 2777 C 266.853 4.50889 -0.0318574 0
M  V30 2778 C 265.515 4.8015 -0.317675 0
M  V30 2779 C 267.867 5.15949 -0.737956 0
M  V30 2780 C 265.195 5.71772 -1.31506 0
M  V30 2781 C 267.547 6.08647 -1.72429 0
M  V30 2782 C 266.211 6.36277 -2.0176 0
M  V30 2783 H 265.481 0.719949 0.175371 0
M  V30 2784 H 268.128 1.89756 -0.257864 0
M  V30 2785 H 266.433 3.4681 1.82291 0
M  V30 2786 H 268.13 3.71203 1.51689 0
M  V30 2787 H 264.72 4.28128 0.201088 0
M  V30 2788 H 268.904 4.93458 -0.530351 0
M  V30 2789 H 264.16 5.91465 -1.54853 0
M  V30 2790 H 268.334 6.58129 -2.27682 0
M  V30 2791 H 265.961 7.07075 -2.79194 0
M  V30 2792 N 267.536 -0.106894 1.57237 0
M  V30 2793 C 268.952 -0.46078 1.52804 0
M  V30 2794 C 269.152 -1.81184 0.881746 0
M  V30 2795 O 268.208 -2.48102 0.469224 0
M  V30 2796 C 269.521 -0.434127 2.9755 0
M  V30 2797 C 271.069 -0.516821 3.08704 0
M  V30 2798 C 271.544 -0.520436 4.55033 0
M  V30 2799 N 273.035 -0.58153 4.59535 0
M  V30 2800 C 273.77 -0.605973 5.70189 0
M  V30 2801 N 273.266 -0.587331 6.90306 0
M  V30 2802 N 275.059 -0.649895 5.5833 0
M  V30 2803 H 267.21 0.778203 1.9763 0
M  V30 2804 H 269.473 0.288403 0.903066 0
M  V30 2805 H 269.179 0.491197 3.48253 0
M  V30 2806 H 269.053 -1.25748 3.55622 0
M  V30 2807 H 271.44 -1.43256 2.57995 0
M  V30 2808 H 271.521 0.334449 2.53604 0
M  V30 2809 H 271.165 0.391313 5.0639 0
M  V30 2810 H 271.095 -1.38876 5.07958 0
M  V30 2811 H 273.586 -0.60161 3.73081 0
M  V30 2812 H 273.899 -0.60894 7.70397 0
M  V30 2813 H 272.244 -0.554564 6.92784 0
M  V30 2814 H 275.435 -0.661907 4.63397 0
M  V30 2815 H 275.608 -0.665476 6.44574 0
M  V30 2816 N 269.014 -1.53014 -0.377408 0
M  V30 2817 C 270.239 -1.72818 -1.14668 0
M  V30 2818 C 270.664 -0.450725 -1.8262 0
M  V30 2819 O 270.022 0.59439 -1.7128 0
M  V30 2820 C 270.07 -2.88627 -2.16164 0
M  V30 2821 O 269.174 -2.56409 -3.22998 0
M  V30 2822 H 268.515 -0.574301 -0.333278 0
M  V30 2823 H 271.045 -1.99853 -0.438152 0
M  V30 2824 H 271.055 -3.14455 -2.59966 0
M  V30 2825 H 269.73 -3.81294 -1.66095 0
M  V30 2826 H 268.307 -2.4136 -2.84253 0
M  V30 2827 N 270.492 0.636531 -1.44174 0
M  V30 2828 C 271.717 1.42847 -1.50364 0
M  V30 2829 C 272.142 1.87665 -0.127867 0
M  V30 2830 O 271.5 1.58408 0.88185 0
M  V30 2831 C 271.548 2.62854 -2.4686 0
M  V30 2832 O 270.652 3.62501 -1.9664 0
M  V30 2833 H 269.993 0.427642 -0.507955 0
M  V30 2834 H 272.523 0.777422 -1.89255 0
M  V30 2835 H 272.533 3.10465 -2.64718 0
M  V30 2836 H 271.208 2.29578 -3.46795 0
M  V30 2837 H 269.785 3.21735 -1.88523 0
M  V30 2838 N 271.97 1.30982 0.876444 0
M  V30 2839 C 273.386 1.09498 1.16113 0
M  V30 2840 C 273.586 -0.13875 2.01022 0
M  V30 2841 O 272.642 -0.829935 2.38471 0
M  V30 2842 C 273.955 2.36308 1.85954 0
M  V30 2843 C 275.503 2.41856 1.98683 0
M  V30 2844 C 275.978 3.6853 2.71937 0
M  V30 2845 N 277.469 3.69387 2.79477 0
M  V30 2846 C 278.204 4.64096 3.36753 0
M  V30 2847 N 277.7 5.69155 3.95012 0
M  V30 2848 N 279.493 4.51626 3.3465 0
M  V30 2849 H 271.644 2.10118 0.310494 0
M  V30 2850 H 273.907 0.926634 0.200131 0
M  V30 2851 H 273.613 3.26388 1.31011 0
M  V30 2852 H 273.487 2.4561 2.86278 0
M  V30 2853 H 275.874 1.52249 2.52793 0
M  V30 2854 H 275.955 2.36523 0.9742 0
M  V30 2855 H 275.599 4.58499 2.18496 0
M  V30 2856 H 275.529 3.71127 3.73593 0
M  V30 2857 H 278.02 2.93438 2.38123 0
M  V30 2858 H 278.333 6.3751 4.36808 0
M  V30 2859 H 276.678 5.72937 3.93406 0
M  V30 2860 H 279.869 3.68728 2.8837 0
M  V30 2861 H 280.042 5.25614 3.7899 0
M  V30 2862 N 273.449 -1.08991 1.13837 0
M  V30 2863 C 274.697 -1.80899 0.901098 0
M  V30 2864 C 275.018 -1.86356 -0.574134 0
M  V30 2865 O 274.288 -1.35235 -1.41733 0
M  V30 2866 H 272.868 -0.669966 0.330386 0
M  V30 2867 H 275.53 -1.318 1.43578 0
M  V30 2868 H 274.626 -2.83929 1.29578 0
M  V30 2869 N 274.927 -0.932562 -1.27047 0
M  V30 2870 C 275.859 -0.392734 -2.2581 0
M  V30 2871 C 276.872 0.479241 -1.55586 0
M  V30 2872 O 278.061 0.291078 -1.76111 0
M  V30 2873 C 275.161 0.455456 -3.35826 0
M  V30 2874 C 274.334 -0.398355 -4.35582 0
M  V30 2875 C 273.393 0.387985 -5.24768 0
M  V30 2876 O 272.419 -0.206003 -5.68827 0
M  V30 2877 N 273.621 1.68664 -5.55457 0
M  V30 2878 H 276.386 -1.24173 -2.72766 0
M  V30 2879 H 273.947 -0.800511 -1.40725 0
M  V30 2880 H 275.939 0.988692 -3.92437 0
M  V30 2881 H 274.509 1.20522 -2.88432 0
M  V30 2882 H 273.729 -1.11286 -3.78165 0
M  V30 2883 H 275.017 -0.981889 -4.99236 0
M  V30 2884 H 274.415 2.19147 -5.21528 0
M  V30 2885 H 272.972 2.1663 -6.14748 0
M  V30 2886 N 276.405 1.4127 -0.698611 0
M  V30 2887 C 277.315 2.34573 -0.0357891 0
M  V30 2888 C 278.331 1.56393 0.762701 0
M  V30 2889 O 279.507 1.8886 0.699564 0
M  V30 2890 C 276.572 3.35159 0.887089 0
M  V30 2891 C 275.633 4.29225 0.0804634 0
M  V30 2892 C 274.866 5.25006 0.959387 0
M  V30 2893 O 275.089 5.26314 2.19886 0
M  V30 2894 O 274.023 6.00519 0.407439 0
M  V30 2895 H 277.849 2.92838 -0.804957 0
M  V30 2896 H 275.434 1.42175 -0.458966 0
M  V30 2897 H 277.316 3.9689 1.41621 0
M  V30 2898 H 275.991 2.79333 1.6357 0
M  V30 2899 H 274.898 3.70833 -0.493328 0
M  V30 2900 H 276.231 4.88157 -0.629547 0
M  V30 2901 N 277.883 0.443576 1.51229 0
M  V30 2902 C 278.793 -0.370721 2.31652 0
M  V30 2903 C 279.809 -1.02186 1.40833 0
M  V30 2904 O 280.985 -1.01586 1.73903 0
M  V30 2905 C 278.05 -1.45376 3.14749 0
M  V30 2906 C 277.111 -0.822099 4.21355 0
M  V30 2907 C 276.344 -1.85353 5.0048 0
M  V30 2908 O 276.567 -3.07656 4.80316 0
M  V30 2909 O 275.501 -1.4406 5.84406 0
M  V30 2910 H 279.327 0.286002 3.0235 0
M  V30 2911 H 276.912 0.20598 1.47973 0
M  V30 2912 H 278.794 -2.08173 3.66391 0
M  V30 2913 H 277.469 -2.09445 2.46809 0
M  V30 2914 H 276.376 -0.155909 3.73775 0
M  V30 2915 H 277.709 -0.224797 4.91686 0
M  V30 2916 N 279.361 -1.56624 0.175154 0
M  V30 2917 C 280.61 -1.96173 -0.468921 0
M  V30 2918 C 280.923 -1.06401 -1.64128 0
M  V30 2919 O 282.129 -1.35648 -2.35185 0
M  V30 2920 C 280.585 -3.48833 -0.885633 0
M  V30 2921 C 280.193 -4.47237 0.261343 0
M  V30 2922 C 281.937 -3.97194 -1.49791 0
M  V30 2923 C 279.844 -5.9114 -0.175214 0
M  V30 2924 H 278.774 -0.732455 -0.178958 0
M  V30 2925 H 281.425 -1.81591 0.263997 0
M  V30 2926 H 279.807 -3.58848 -1.67464 0
M  V30 2927 H 280.981 -4.4894 1.03871 0
M  V30 2928 H 279.296 -4.08956 0.783827 0
M  V30 2929 H 281.893 -5.02167 -1.83665 0
M  V30 2930 H 282.236 -3.40351 -2.39722 0
M  V30 2931 H 282.769 -3.90212 -0.773267 0
M  V30 2932 H 279.508 -6.51865 0.689414 0
M  V30 2933 H 279.028 -5.92735 -0.91786 0
M  V30 2934 H 280.707 -6.44044 -0.617792 0
M  V30 2935 N 280.839 0.0985539 -1.57292 0
M  V30 2936 C 282.064 0.820196 -1.90493 0
M  V30 2937 C 282.489 1.71658 -0.769094 0
M  V30 2938 O 281.847 1.79133 0.279495 0
M  V30 2939 C 281.895 1.61242 -3.22542 0
M  V30 2940 O 280.999 2.72108 -3.09888 0
M  V30 2941 H 280.34 0.225547 -0.62452 0
M  V30 2942 H 282.87 0.0748159 -2.04463 0
M  V30 2943 H 282.88 1.99737 -3.55766 0
M  V30 2944 H 281.555 0.954535 -4.04798 0
M  V30 2945 H 280.132 2.36667 -2.88172 0
M  V30 2946 N 282.317 1.53212 0.369288 0
M  V30 2947 C 283.565 1.68881 1.11012 0
M  V30 2948 C 283.886 0.441285 1.89941 0
M  V30 2949 O 283.156 -0.544623 1.88177 0
M  V30 2950 H 281.736 0.622569 0.412816 0
M  V30 2951 H 284.398 1.90391 0.416802 0
M  V30 2952 H 283.494 2.54822 1.80201 0
M  V30 2953 N 283.795 -0.628877 1.44509 0
M  V30 2954 C 284.758 -1.72263 1.51188 0
M  V30 2955 C 285.758 -1.55907 0.39367 0
M  V30 2956 O 286.948 -1.61361 0.656377 0
M  V30 2957 C 284.08 -3.11365 1.38798 0
M  V30 2958 H 285.273 -1.67714 2.4862 0
M  V30 2959 H 282.826 -0.842737 1.31634 0
M  V30 2960 H 283.561 -3.21507 0.424693 0
M  V30 2961 H 283.346 -3.24644 2.19884 0
M  V30 2962 H 284.836 -3.91075 1.46458 0
M  V30 2963 N 285.273 -1.31445 -0.869486 0
M  V30 2964 C 286.203 -1.21727 -1.99261 0
M  V30 2965 C 287.184 -0.104359 -1.6978 0
M  V30 2966 O 288.369 -0.289038 -1.92037 0
M  V30 2967 C 285.499 -0.924317 -3.34774 0
M  V30 2968 C 284.453 -1.99685 -3.78563 0
M  V30 2969 C 283.779 -1.55658 -5.11541 0
M  V30 2970 C 285.079 -3.41003 -3.95619 0
M  V30 2971 H 286.773 -2.1569 -2.07649 0
M  V30 2972 H 284.319 -1.03839 -0.997675 0
M  V30 2973 H 286.272 -0.842934 -4.12883 0
M  V30 2974 H 284.996 0.0509793 -3.2656 0
M  V30 2975 H 283.655 -2.06813 -3.02694 0
M  V30 2976 H 283.303 -0.569132 -4.9977 0
M  V30 2977 H 283.003 -2.27409 -5.41811 0
M  V30 2978 H 284.527 -1.48928 -5.92159 0
M  V30 2979 H 285.941 -3.36547 -4.64122 0
M  V30 2980 H 284.338 -4.10975 -4.37286 0
M  V30 2981 H 285.408 -3.81754 -2.98985 0
M  V30 2982 N 286.751 1.08385 -1.14413 0
M  V30 2983 C 288.162 1.62258 -0.923535 0
M  V30 2984 C 288.513 1.88691 0.537595 0
M  V30 2985 O 287.638 1.64454 1.40655 0
M  V30 2986 C 288.233 2.94781 -1.67002 0
M  V30 2987 C 286.792 3.45437 -1.495 0
M  V30 2988 C 285.939 2.19668 -1.69238 0
M  V30 2989 H 288.89 0.916086 -1.2959 0
M  V30 2990 H 288.911 3.63229 -1.13334 0
M  V30 2991 H 288.423 2.7551 -2.73342 0
M  V30 2992 H 286.524 3.6981 -0.455097 0
M  V30 2993 H 286.637 4.22173 -2.2651 0
M  V30 2994 H 285.001 2.28849 -1.11804 0
M  V30 2995 H 285.784 2.02905 -2.7692 0
M  V30 2996 N 288.23 0.939286 1.26551 0
M  V30 2997 C 289.476 0.586715 1.94128 0
M  V30 2998 C 289.809 -0.8717 1.73537 0
M  V30 2999 O 289.084 -1.62339 1.07127 0
M  V30 3000 C 289.367 0.927497 3.4795 0
M  V30 3001 C 289.22 2.44052 3.77834 0
M  V30 3002 C 290.539 0.441569 4.37879 0
M  V30 3003 H 287.658 0.21463 0.705055 0
M  V30 3004 H 290.3 1.17316 1.49455 0
M  V30 3005 H 288.45 0.428431 3.8613 0
M  V30 3006 H 290.122 3.01216 3.4938 0
M  V30 3007 H 288.365 2.8848 3.23978 0
M  V30 3008 H 289.036 2.62947 4.85348 0
M  V30 3009 H 291.512 0.869448 4.06915 0
M  V30 3010 H 290.388 0.708856 5.44304 0
M  V30 3011 H 290.649 -0.658467 4.37169 0
M  V30 3012 N 289.708 -1.40897 0.706093 0
M  V30 3013 C 290.671 -2.29131 0.0562841 0
M  V30 3014 C 291.671 -1.44901 -0.697166 0
M  V30 3015 O 292.861 -1.65926 -0.530484 0
M  V30 3016 C 289.993 -3.27957 -0.93043 0
M  V30 3017 H 291.186 -2.88091 0.833284 0
M  V30 3018 H 288.739 -1.4906 0.470192 0
M  V30 3019 H 289.474 -2.73997 -1.73482 0
M  V30 3020 H 289.259 -3.90124 -0.393166 0
M  V30 3021 H 290.749 -3.94049 -1.38256 0
M  V30 3022 N 291.186 -0.45159 -1.50991 0
M  V30 3023 C 292.411 0.110667 -2.07105 0
M  V30 3024 C 292.836 1.3446 -1.31538 0
M  V30 3025 O 292.194 1.77743 -0.357365 0
M  V30 3026 C 292.242 0.397238 -3.58405 0
M  V30 3027 O 291.346 1.48124 -3.84881 0
M  V30 3028 H 290.687 -0.00439271 -0.663985 0
M  V30 3029 H 293.217 -0.637026 -1.9443 0
M  V30 3030 H 293.227 0.64351 -4.02893 0
M  V30 3031 H 291.902 -0.504553 -4.12828 0
M  V30 3032 H 290.479 1.22381 -3.52246 0
M  V30 3033 N 292.664 1.56529 -0.183458 0
M  V30 3034 C 294.075 1.83739 0.331177 0
M  V30 3035 C 294.426 1.10373 1.62211 0
M  V30 3036 O 293.551 0.36071 2.13373 0
M  V30 3037 C 294.146 3.33306 0.607646 0
M  V30 3038 C 292.705 3.60969 1.06668 0
M  V30 3039 C 291.852 2.77086 0.109029 0
M  V30 3040 H 294.803 1.53379 -0.407484 0
M  V30 3041 H 294.824 3.51444 1.45832 0
M  V30 3042 H 294.336 3.86677 -0.332086 0
M  V30 3043 H 292.437 3.13021 2.0211 0
M  V30 3044 H 292.55 4.69231 0.967447 0
M  V30 3045 H 290.914 2.47319 0.608714 0
M  V30 3046 H 291.697 3.33241 -0.82494 0
M  V30 3047 N 294.142 -0.090211 1.57342 0
M  V30 3048 C 295.105 -1.09335 2.01441 0
M  V30 3049 C 296.105 -1.32666 0.908641 0
M  V30 3050 O 297.295 -1.28697 1.174 0
M  V30 3051 C 294.427 -2.44136 2.3793 0
M  V30 3052 H 295.62 -0.713662 2.91285 0
M  V30 3053 H 293.173 -0.335404 1.52659 0
M  V30 3054 H 293.908 -2.86972 1.51055 0
M  V30 3055 H 293.693 -2.28548 3.18603 0
M  V30 3056 H 295.183 -3.16277 2.72688 0
M  V30 3057 N 295.62 -1.53406 -0.361157 0
M  V30 3058 C 296.845 -1.74024 -1.12829 0
M  V30 3059 C 297.27 -0.470069 -1.82132 0
M  V30 3060 O 296.628 0.57619 -1.719 0
M  V30 3061 C 296.676 -2.90903 -2.13091 0
M  V30 3062 O 295.78 -2.59821 -3.20261 0
M  V30 3063 H 295.121 -0.577804 -0.327168 0
M  V30 3064 H 297.651 -2.00307 -0.41693 0
M  V30 3065 H 297.661 -3.17194 -2.56616 0
M  V30 3066 H 296.336 -3.83034 -1.62042 0
M  V30 3067 H 294.913 -2.44362 -2.81677 0
M  V30 3068 N 297.098 0.621204 -1.44841 0
M  V30 3069 C 298.323 1.41244 -1.51871 0
M  V30 3070 C 298.748 1.87519 -0.147764 0
M  V30 3071 O 298.106 1.59334 0.865 0
M  V30 3072 C 298.154 2.60221 -2.49634 0
M  V30 3073 O 297.258 3.60395 -2.00473 0
M  V30 3074 H 296.599 0.42223 -0.512463 0
M  V30 3075 H 299.129 0.757305 -1.90069 0
M  V30 3076 H 299.139 3.0764 -2.67996 0
M  V30 3077 H 297.814 2.25887 -3.4921 0
M  V30 3078 H 296.391 3.19717 -1.91925 0
M  V30 3079 N 298.576 1.31904 0.862503 0
M  V30 3080 C 299.992 1.10724 1.14945 0
M  V30 3081 C 300.192 -0.117421 2.01158 0
M  V30 3082 O 299.248 -0.804595 2.39338 0
M  V30 3083 C 300.561 2.38267 1.83437 0
M  V30 3084 C 302.109 2.43949 1.96106 0
M  V30 3085 C 302.584 3.71394 2.68013 0
M  V30 3086 N 304.075 3.72331 2.75543 0
M  V30 3087 C 304.81 4.67641 3.31812 0
M  V30 3088 N 304.306 5.73313 3.88953 0
M  V30 3089 N 306.099 4.5515 3.29841 0
M  V30 3090 H 298.25 2.10436 0.288191 0
M  V30 3091 H 300.513 0.928705 0.190292 0
M  V30 3092 H 300.219 3.27759 1.27542 0
M  V30 3093 H 300.093 2.48633 2.83657 0
M  V30 3094 H 302.48 1.54922 2.51164 0
M  V30 3095 H 302.561 2.37543 0.949059 0
M  V30 3096 H 302.205 4.60791 2.13621 0
M  V30 3097 H 302.135 3.75069 3.69636 0
M  V30 3098 H 304.626 2.95947 2.34997 0
M  V30 3099 H 304.939 6.42107 4.30022 0
M  V30 3100 H 303.284 5.77077 3.87308 0
M  V30 3101 H 306.475 3.71766 2.84443 0
M  V30 3102 H 306.648 5.29604 3.73394 0
M  V30 3103 N 300.054 -1.07777 1.14986 0
M  V30 3104 C 301.282 -1.84018 0.945773 0
M  V30 3105 C 301.697 -1.81897 -0.505863 0
M  V30 3106 O 301.054 -1.22726 -1.35072 0
M  V30 3107 C 301.105 -3.31287 1.44677 0
M  V30 3108 O 300.826 -3.33449 2.84154 0
M  V30 3109 C 302.327 -4.24311 1.28355 0
M  V30 3110 H 299.547 -0.580716 0.336169 0
M  V30 3111 H 302.091 -1.36077 1.52654 0
M  V30 3112 H 300.246 -3.76594 0.908625 0
M  V30 3113 H 300.66 -4.25427 3.06777 0
M  V30 3114 H 302.134 -5.2573 1.68261 0
M  V30 3115 H 302.611 -4.38612 0.227184 0
M  V30 3116 H 303.217 -3.84836 1.81056 0
M  V30 3117 N 301.532 -0.945985 -1.26051 0
M  V30 3118 C 302.809 -0.513816 -1.88731 0
M  V30 3119 C 303.189 1.00872 -1.8544 0
M  V30 3120 O 302.537 1.8708 -1.312 0
M  V30 3121 C 302.747 -1.08062 -3.31849 0
M  V30 3122 C 304.095 -1.1522 -4.08668 0
M  V30 3123 O 305.119 -1.03155 -3.40936 0
M  V30 3124 O 303.978 -1.34044 -5.29806 0
M  V30 3125 H 301.072 -0.168193 -0.809716 0
M  V30 3126 H 303.618 -1.03886 -1.34186 0
M  V30 3127 H 302.39 -2.1241 -3.2863 0
M  V30 3128 H 302.013 -0.538307 -3.93939 0
M  V30 3129 N 303.011 1.40521 -0.713556 0
M  V30 3130 C 303.941 2.33381 -0.0743864 0
M  V30 3131 C 304.922 1.52784 0.747735 0
M  V30 3132 O 306.107 1.81258 0.697071 0
M  V30 3133 C 303.237 3.36748 0.849598 0
M  V30 3134 C 302.191 4.27793 0.133247 0
M  V30 3135 C 301.517 5.21679 1.17281 0
M  V30 3136 C 302.817 5.12415 -1.01134 0
M  V30 3137 H 304.511 2.87081 -0.850007 0
M  V30 3138 H 302.057 1.38034 -0.410201 0
M  V30 3139 H 304.01 4.00648 1.30612 0
M  V30 3140 H 302.734 2.81439 1.65709 0
M  V30 3141 H 301.393 3.65342 -0.303426 0
M  V30 3142 H 301.041 4.62677 1.9733 0
M  V30 3143 H 300.741 5.83435 0.698397 0
M  V30 3144 H 302.265 5.88456 1.62947 0
M  V30 3145 H 303.679 5.69781 -0.634274 0
M  V30 3146 H 302.076 5.83203 -1.41399 0
M  V30 3147 H 303.146 4.48514 -1.84292 0
M  V30 3148 N 304.489 0.459591 1.5075 0
M  V30 3149 C 305.735 -0.0994966 2.02556 0
M  V30 3150 C 306.068 -1.40399 1.3417 0
M  V30 3151 O 305.343 -1.88892 0.463683 0
M  V30 3152 C 305.626 -0.295242 3.58888 0
M  V30 3153 C 305.479 1.02947 4.37861 0
M  V30 3154 C 306.798 -1.05502 4.27267 0
M  V30 3155 H 303.917 -0.034686 0.736183 0
M  V30 3156 H 306.559 0.602938 1.8018 0
M  V30 3157 H 304.709 -0.893563 3.78084 0
M  V30 3158 H 306.381 1.66348 4.30263 0
M  V30 3159 H 304.624 1.62885 4.02058 0
M  V30 3160 H 305.295 0.846281 5.45474 0
M  V30 3161 H 307.771 -0.547993 4.12476 0
M  V30 3162 H 306.647 -1.16077 5.36486 0
M  V30 3163 H 306.908 -2.08875 3.89645 0
M  V30 3164 N 305.967 -1.56429 0.191757 0
M  V30 3165 C 306.914 -2.18936 -0.730454 0
M  V30 3166 C 307.884 -1.13557 -1.21219 0
M  V30 3167 O 309.069 -1.41794 -1.27668 0
M  V30 3168 C 306.209 -2.85013 -1.9458 0
M  V30 3169 C 305.322 -4.04909 -1.50574 0
M  V30 3170 C 304.457 -4.58853 -2.67634 0
M  V30 3171 C 303.496 -5.71114 -2.20217 0
M  V30 3172 N 302.633 -6.19478 -3.30442 0
M  V30 3173 H 307.473 -2.97389 -0.190664 0
M  V30 3174 H 305.01 -1.46869 -0.0823694 0
M  V30 3175 H 306.968 -3.21492 -2.65893 0
M  V30 3176 H 305.598 -2.09129 -2.45896 0
M  V30 3177 H 304.65 -3.74115 -0.688605 0
M  V30 3178 H 305.962 -4.86113 -1.11784 0
M  V30 3179 H 305.116 -4.97619 -3.47074 0
M  V30 3180 H 303.855 -3.76749 -3.09696 0
M  V30 3181 H 302.86 -5.31879 -1.3923 0
M  V30 3182 H 304.085 -6.55033 -1.79189 0
M  V30 3183 H 302.031 -5.40297 -3.72041 0
M  V30 3184 H 301.948 -6.95725 -2.9581 0
M  V30 3185 H 303.216 -6.62898 -4.10106 0
M  V30 3186 N 307.445 0.0818655 -1.57387 0
M  V30 3187 C 308.67 0.799946 -1.91352 0
M  V30 3188 C 309.095 1.70833 -0.787258 0
M  V30 3189 O 308.453 1.79419 0.26048 0
M  V30 3190 C 308.501 1.57812 -3.24234 0
M  V30 3191 O 307.605 2.68806 -3.12757 0
M  V30 3192 H 306.946 0.21891 -0.626877 0
M  V30 3193 H 309.476 0.0531256 -2.04531 0
M  V30 3194 H 309.486 1.95952 -3.57864 0
M  V30 3195 H 308.161 0.911548 -4.05788 0
M  V30 3196 H 306.738 2.33597 -2.90666 0
M  V30 3197 N 308.923 1.53595 0.353017 0
M  V30 3198 C 309.833 1.83897 1.45667 0
M  V30 3199 C 310.849 0.728334 1.58023 0
M  V30 3200 O 312.025 1.01968 1.73679 0
M  V30 3201 C 309.09 2.03383 2.80778 0
M  V30 3202 C 308.151 3.27262 2.77845 0
M  V30 3203 C 307.384 3.45809 4.06512 0
M  V30 3204 O 307.607 2.68387 5.03314 0
M  V30 3205 O 306.541 4.39207 4.11559 0
M  V30 3206 H 310.367 2.77686 1.2298 0
M  V30 3207 H 307.952 1.39132 0.544308 0
M  V30 3208 H 309.834 2.17698 3.60812 0
M  V30 3209 H 308.509 1.12783 3.03417 0
M  V30 3210 H 307.416 3.18359 1.96465 0
M  V30 3211 H 308.749 4.17824 2.60161 0
M  V30 3212 N 310.401 -0.613514 1.45168 0
M  V30 3213 C 311.331 -1.7354 1.56225 0
M  V30 3214 C 312.312 -1.64981 0.41414 0
M  V30 3215 O 313.497 -1.83472 0.636526 0
M  V30 3216 C 310.627 -3.12128 1.52295 0
M  V30 3217 C 309.581 -3.35491 2.65762 0
M  V30 3218 C 308.907 -4.74291 2.46885 0
M  V30 3219 C 310.207 -3.26325 4.0781 0
M  V30 3220 H 311.901 -1.64543 2.50132 0
M  V30 3221 H 309.447 -0.790185 1.20383 0
M  V30 3222 H 311.4 -3.90404 1.58628 0
M  V30 3223 H 310.124 -3.2195 0.549139 0
M  V30 3224 H 308.783 -2.59603 2.58847 0
M  V30 3225 H 308.431 -4.80839 1.47657 0
M  V30 3226 H 308.131 -4.9088 3.22972 0
M  V30 3227 H 309.655 -5.54775 2.55063 0
M  V30 3228 H 311.069 -3.94483 4.16 0
M  V30 3229 H 309.466 -3.54445 4.8424 0
M  V30 3230 H 310.536 -2.23855 4.30136 0
M  V30 3231 N 311.879 -1.3236 -0.855495 0
M  V30 3232 C 312.809 -1.23833 -1.97958 0
M  V30 3233 C 313.79 -0.122361 -1.69659 0
M  V30 3234 O 314.975 -0.30939 -1.9172 0
M  V30 3235 C 312.105 -0.959772 -3.33775 0
M  V30 3236 C 311.059 -2.03689 -3.76424 0
M  V30 3237 C 310.385 -1.61075 -5.09862 0
M  V30 3238 C 311.685 -3.4518 -3.9198 0
M  V30 3239 H 313.379 -2.1788 -2.0535 0
M  V30 3240 H 310.925 -1.04891 -0.986605 0
M  V30 3241 H 312.878 -0.886678 -4.11966 0
M  V30 3242 H 311.602 0.0163404 -3.26596 0
M  V30 3243 H 310.261 -2.10012 -3.00484 0
M  V30 3244 H 309.909 -0.622107 -4.99138 0
M  V30 3245 H 309.609 -2.33143 -5.39368 0
M  V30 3246 H 311.133 -1.55201 -5.90546 0
M  V30 3247 H 312.547 -3.4145 -4.60526 0
M  V30 3248 H 310.944 -4.1559 -4.32903 0
M  V30 3249 H 312.014 -3.84903 -2.94919 0
M  V30 3250 N 313.357 1.07166 -1.15556 0
M  V30 3251 C 314.307 2.12649 -0.82247 0
M  V30 3252 C 315.291 1.59725 0.194129 0
M  V30 3253 O 316.483 1.76999 -0.00540402 0
M  V30 3254 C 313.612 3.41847 -0.315572 0
M  V30 3255 C 312.698 4.0162 -1.36244 0
M  V30 3256 N 313.089 4.35625 -2.5703 0
M  V30 3257 C 311.387 4.29114 -1.21562 0
M  V30 3258 C 312.088 4.83017 -3.24144 0
M  V30 3259 N 311.064 4.81906 -2.51531 0
M  V30 3260 H 314.866 2.36776 -1.74111 0
M  V30 3261 H 312.38 1.24622 -1.0413 0
M  V30 3262 H 314.377 4.16859 -0.0585855 0
M  V30 3263 H 313.037 3.19163 0.597105 0
M  V30 3264 H 314.048 4.26253 -2.94158 0
M  V30 3265 H 310.725 4.15919 -0.362988 0
M  V30 3266 H 312.115 5.18605 -4.27198 0
M  V30 3267 N 314.835 0.952656 1.25548 0
M  V30 3268 C 316.084 0.602053 1.92505 0
M  V30 3269 C 316.397 -0.864663 1.75451 0
M  V30 3270 O 317.603 -1.32514 2.36965 0
M  V30 3271 C 316.059 1.02607 3.44963 0
M  V30 3272 C 315.667 2.51519 3.70732 0
M  V30 3273 C 317.411 0.747905 4.1786 0
M  V30 3274 C 315.318 2.87732 5.16686 0
M  V30 3275 H 314.248 0.22146 0.720744 0
M  V30 3276 H 316.899 1.15684 1.42441 0
M  V30 3277 H 315.281 0.399712 3.93978 0
M  V30 3278 H 316.455 3.19157 3.32378 0
M  V30 3279 H 314.77 2.76786 3.11092 0
M  V30 3280 H 317.367 0.994647 5.25367 0
M  V30 3281 H 317.71 -0.315629 4.15102 0
M  V30 3282 H 318.243 1.33452 3.74747 0
M  V30 3283 H 314.982 3.93095 5.24554 0
M  V30 3284 H 314.502 2.24765 5.56094 0
M  V30 3285 H 316.181 2.76817 5.84792 0
M  V30 3286 N 316.313 -1.40141 0.720998 0
M  V30 3287 C 317.223 -2.34486 0.0731031 0
M  V30 3288 C 318.239 -1.57587 -0.737723 0
M  V30 3289 O 319.415 -1.89949 -0.669429 0
M  V30 3290 C 316.48 -3.36528 -0.833656 0
M  V30 3291 C 315.541 -4.29298 -0.0121673 0
M  V30 3292 C 314.774 -5.26466 -0.875742 0
M  V30 3293 O 314.997 -5.29745 -2.11485 0
M  V30 3294 O 313.931 -6.01092 -0.31185 0
M  V30 3295 H 317.757 -2.9152 0.851444 0
M  V30 3296 H 315.342 -1.41427 0.481527 0
M  V30 3297 H 317.224 -3.99093 -1.35289 0
M  V30 3298 H 315.899 -2.81899 -1.59105 0
M  V30 3299 H 314.806 -3.70001 0.552262 0
M  V30 3300 H 316.139 -4.87094 0.707129 0
M  V30 3301 N 317.792 -0.46758 -1.50504 0
M  V30 3302 C 319.017 0.0886943 -2.0721 0
M  V30 3303 C 319.442 1.33057 -1.32956 0
M  V30 3304 O 318.8 1.77354 -0.376197 0
M  V30 3305 C 318.848 0.359202 -3.58806 0
M  V30 3306 O 317.952 1.44034 -3.8643 0
M  V30 3307 H 317.293 -0.0114349 -0.663902 0
M  V30 3308 H 319.823 -0.657613 -1.93744 0
M  V30 3309 H 319.833 0.600742 -4.03553 0
M  V30 3310 H 318.508 -0.548311 -4.1227 0
M  V30 3311 H 317.085 1.18638 -3.53524 0
M  V30 3312 N 319.27 1.56325 -0.20005 0
M  V30 3313 C 320.202 2.16555 0.750771 0
M  V30 3314 C 321.215 1.12871 1.1732 0
M  V30 3315 O 322.404 1.39943 1.10807 0
M  V30 3316 C 319.504 2.71684 2.02586 0
M  V30 3317 C 318.677 4.00321 1.76244 0
M  V30 3318 C 317.736 4.40227 2.88248 0
M  V30 3319 O 316.762 5.07552 2.57642 0
M  V30 3320 N 317.964 4.04138 4.16717 0
M  V30 3321 H 320.729 2.98772 0.235685 0
M  V30 3322 H 318.29 1.6189 -0.0182594 0
M  V30 3323 H 320.282 2.95363 2.76664 0
M  V30 3324 H 318.852 1.93893 2.45202 0
M  V30 3325 H 318.072 3.84723 0.85919 0
M  V30 3326 H 319.36 4.84279 1.56048 0
M  V30 3327 H 318.758 3.49993 4.44434 0
M  V30 3328 H 317.315 4.32756 4.87407 0
M  V30 3329 N 320.748 -0.0735177 1.57428 0
M  V30 3330 C 321.994 -0.774145 1.87443 0
M  V30 3331 C 322.327 -1.77311 0.792103 0
M  V30 3332 O 321.602 -1.93492 -0.197793 0
M  V30 3333 C 321.885 -1.48367 3.28115 0
M  V30 3334 C 321.738 -0.501227 4.46999 0
M  V30 3335 C 323.057 -2.429 3.66998 0
M  V30 3336 H 320.176 -0.279971 0.681752 0
M  V30 3337 H 322.818 -0.0373616 1.89963 0
M  V30 3338 H 320.968 -2.11171 3.26097 0
M  V30 3339 H 322.64 0.121468 4.6114 0
M  V30 3340 H 320.883 0.183593 4.33411 0
M  V30 3341 H 321.554 -1.03526 5.42205 0
M  V30 3342 H 324.03 -1.90175 3.70098 0
M  V30 3343 H 322.906 -2.89549 4.66318 0
M  V30 3344 H 323.167 -3.27628 2.96837 0
M  V30 3345 N 322.226 -1.5378 -0.344866 0
M  V30 3346 C 323.136 -1.84667 -1.4469 0
M  V30 3347 C 324.152 -0.736704 -1.57635 0
M  V30 3348 O 325.328 -1.02888 -1.73136 0
M  V30 3349 C 322.393 -2.04869 -2.79696 0
M  V30 3350 C 321.454 -3.28731 -2.76106 0
M  V30 3351 C 320.687 -3.4796 -4.04673 0
M  V30 3352 O 320.91 -2.71052 -5.01883 0
M  V30 3353 O 319.844 -4.41383 -4.09224 0
M  V30 3354 H 323.67 -2.78334 -1.21506 0
M  V30 3355 H 321.255 -1.39418 -0.536921 0
M  V30 3356 H 323.137 -2.19609 -3.59652 0
M  V30 3357 H 321.812 -1.14391 -3.02814 0
M  V30 3358 H 320.719 -3.19396 -1.94774 0
M  V30 3359 H 322.052 -4.19198 -2.57941 0
M  V30 3360 N 323.704 0.605807 -1.45491 0
M  V30 3361 C 324.634 1.72709 -1.57143 0
M  V30 3362 C 325.615 1.6476 -0.422884 0
M  V30 3363 O 326.8 1.83132 -0.646247 0
M  V30 3364 C 323.93 3.11316 -1.53948 0
M  V30 3365 C 322.884 3.34077 -2.67537 0
M  V30 3366 C 322.21 4.72975 -2.49397 0
M  V30 3367 C 323.51 3.24158 -4.09535 0
M  V30 3368 H 325.204 1.63214 -2.51001 0
M  V30 3369 H 322.75 0.78379 -1.208 0
M  V30 3370 H 324.703 3.89557 -1.60696 0
M  V30 3371 H 323.427 3.21655 -0.566205 0
M  V30 3372 H 322.086 2.58227 -2.6022 0
M  V30 3373 H 321.734 4.8005 -1.50205 0
M  V30 3374 H 321.434 4.8916 -3.25571 0
M  V30 3375 H 322.958 5.53414 -2.58002 0
M  V30 3376 H 324.372 3.92271 -4.18086 0
M  V30 3377 H 322.769 3.51872 -4.86113 0
M  V30 3378 H 323.839 2.2157 -4.31317 0
M  V30 3379 N 325.182 1.32811 0.848464 0
M  V30 3380 C 326.112 1.24882 1.97299 0
M  V30 3381 C 327.093 0.131357 1.69592 0
M  V30 3382 O 328.278 0.319553 1.91553 0
M  V30 3383 C 325.408 0.97746 3.33261 0
M  V30 3384 C 324.362 2.05682 3.75338 0
M  V30 3385 C 323.688 1.63777 5.09 0
M  V30 3386 C 324.988 3.47254 3.90144 0
M  V30 3387 H 326.682 2.18966 2.04191 0
M  V30 3388 H 324.228 1.05413 0.981029 0
M  V30 3389 H 326.181 0.908513 4.1149 0
M  V30 3390 H 324.905 0.000980011 3.266 0
M  V30 3391 H 323.564 2.11603 2.99366 0
M  V30 3392 H 323.212 0.648569 4.98801 0
M  V30 3393 H 322.912 2.36 5.38124 0
M  V30 3394 H 324.436 1.5833 5.89715 0
M  V30 3395 H 325.85 3.43888 4.58709 0
M  V30 3396 H 324.247 4.1788 4.30693 0
M  V30 3397 H 325.317 3.86462 2.92874 0
M  V30 3398 N 326.66 -1.06551 1.16123 0
M  V30 3399 C 328.076 -1.3142 0.905585 0
M  V30 3400 C 328.276 -1.96571 -0.442964 0
M  V30 3401 O 327.332 -2.23068 -1.18308 0
M  V30 3402 C 328.645 -2.19741 2.05267 0
M  V30 3403 C 330.193 -2.33165 2.08813 0
M  V30 3404 C 330.668 -3.24838 3.22868 0
M  V30 3405 N 332.159 -3.32421 3.22568 0
M  V30 3406 C 332.894 -4.0344 4.0746 0
M  V30 3407 N 332.39 -4.77003 5.02434 0
M  V30 3408 N 334.183 -3.99464 3.95456 0
M  V30 3409 H 326.334 -0.626548 2.02949 0
M  V30 3410 H 328.597 -0.338777 0.8854 0
M  V30 3411 H 328.303 -1.79142 3.02657 0
M  V30 3412 H 328.177 -3.20313 1.99198 0
M  V30 3413 H 330.564 -2.73013 1.12018 0
M  V30 3414 H 330.645 -1.3227 2.18948 0
M  V30 3415 H 330.289 -2.85708 4.19921 0
M  V30 3416 H 330.219 -4.25707 3.0997 0
M  V30 3417 H 332.71 -2.79994 2.53795 0
M  V30 3418 H 333.023 -5.28712 5.63634 0
M  V30 3419 H 331.368 -4.75992 5.06415 0
M  V30 3420 H 334.559 -3.4111 3.20564 0
M  V30 3421 H 334.732 -4.54544 4.61837 0
M  V30 3422 N 328.138 -0.959301 -1.25041 0
M  V30 3423 C 329.385 -0.616611 -1.92884 0
M  V30 3424 C 329.713 0.847036 -1.75087 0
M  V30 3425 O 328.968 1.62374 -1.09239 0
M  V30 3426 C 329.267 -0.927136 -3.45165 0
M  V30 3427 C 328.933 -2.37757 -3.83122 0
M  V30 3428 C 327.595 -2.77402 -3.93194 0
M  V30 3429 C 329.947 -3.31929 -4.01836 0
M  V30 3430 C 327.275 -4.10277 -4.19392 0
M  V30 3431 C 329.627 -4.64423 -4.29528 0
M  V30 3432 C 328.291 -5.03857 -4.37818 0
M  V30 3433 H 327.561 -0.225634 -0.705812 0
M  V30 3434 H 330.208 -1.20921 -1.48493 0
M  V30 3435 H 328.513 -0.252195 -3.90987 0
M  V30 3436 H 330.21 -0.6405 -3.95852 0
M  V30 3437 H 326.8 -2.06013 -3.75841 0
M  V30 3438 H 330.984 -3.02488 -3.93465 0
M  V30 3439 H 326.24 -4.40467 -4.24027 0
M  V30 3440 H 330.414 -5.37369 -4.42953 0
M  V30 3441 H 328.041 -6.06843 -4.57871 0
M  V30 3442 N 329.616 1.39756 -0.72842 0
M  V30 3443 C 330.893 1.94574 -0.200079 0
M  V30 3444 C 331.273 1.66569 1.29684 0
M  V30 3445 O 330.621 0.990326 2.05924 0
M  V30 3446 C 330.831 3.45004 -0.526608 0
M  V30 3447 C 332.179 4.21965 -0.472318 0
M  V30 3448 O 333.203 3.53173 -0.463413 0
M  V30 3449 O 332.062 5.44552 -0.461075 0
M  V30 3450 H 329.156 0.826289 -0.0342851 0
M  V30 3451 H 331.702 1.49293 -0.806829 0
M  V30 3452 H 330.474 3.58796 -1.56144 0
M  V30 3453 H 330.097 3.97449 0.109449 0
M  V30 3454 N 331.094 0.475555 1.50254 0
M  V30 3455 C 332.371 -0.139685 1.95101 0
M  V30 3456 C 332.751 -1.56555 1.41611 0
M  V30 3457 O 332.099 -2.19956 0.618993 0
M  V30 3458 C 332.309 -0.0784298 3.48912 0
M  V30 3459 C 333.657 -0.265095 4.23772 0
M  V30 3460 O 334.681 -0.154808 3.55863 0
M  V30 3461 O 333.54 -0.488327 5.44314 0
M  V30 3462 H 330.634 -0.109236 0.819754 0
M  V30 3463 H 333.18 0.536276 1.61004 0
M  V30 3464 H 331.952 0.916918 3.80405 0
M  V30 3465 H 331.575 -0.795655 3.89558 0
M  V30 3466 N 332.573 -1.56217 0.208337 0
M  V30 3467 C 333.798 -2.02782 -0.435222 0
M  V30 3468 C 334.223 -1.08738 -1.53485 0
M  V30 3469 O 333.581 -0.0731855 -1.81152 0
M  V30 3470 C 333.629 -3.47687 -0.956335 0
M  V30 3471 O 332.733 -3.56773 -2.06849 0
M  V30 3472 H 332.074 -0.656403 -0.100158 0
M  V30 3473 H 334.604 -2.02033 0.3231 0
M  V30 3474 H 334.614 -3.87745 -1.26955 0
M  V30 3475 H 333.289 -4.15624 -0.15143 0
M  V30 3476 H 331.866 -3.28597 -1.76292 0
M  V30 3477 N 334.051 0.0651679 -1.57465 0
M  V30 3478 C 335.299 0.761555 -1.87202 0
M  V30 3479 C 335.62 1.77778 -0.801243 0
M  V30 3480 O 334.89 1.95166 0.16937 0
M  V30 3481 H 333.47 0.284251 -0.690804 0
M  V30 3482 H 336.132 0.0396827 -1.9486 0
M  V30 3483 H 335.228 1.27365 -2.84929 0
M  V30 3484 N 335.529 1.53961 0.336706 0
M  V30 3485 C 336.945 1.44378 0.680241 0
M  V30 3486 C 337.145 0.606034 1.9217 0
M  V30 3487 O 336.201 0.099688 2.52303 0
M  V30 3488 C 337.514 2.87945 0.8665 0
M  V30 3489 C 339.062 2.97763 0.964682 0
M  V30 3490 C 339.537 4.42453 1.18321 0
M  V30 3491 N 341.028 4.46008 1.25025 0
M  V30 3492 C 341.763 5.55102 1.43697 0
M  V30 3493 N 341.259 6.7419 1.59498 0
M  V30 3494 N 343.052 5.42727 1.463 0
M  V30 3495 H 335.203 2.06918 -0.479455 0
M  V30 3496 H 337.466 0.935634 -0.152619 0
M  V30 3497 H 337.172 3.51691 0.0256937 0
M  V30 3498 H 337.046 3.33293 1.76623 0
M  V30 3499 H 339.433 2.34153 1.796 0
M  V30 3500 H 339.514 2.55766 0.041708 0
M  V30 3501 H 339.158 5.06645 0.356788 0
M  V30 3502 H 339.088 4.82048 2.11985 0
M  V30 3503 H 341.579 3.60196 1.14312 0
M  V30 3504 H 341.892 7.53095 1.734 0
M  V30 3505 H 340.237 6.77123 1.56621 0
M  V30 3506 H 343.428 4.48647 1.33543 0
M  V30 3507 H 343.601 6.27806 1.6051 0
M  V30 3508 N 337.007 -0.598083 1.45811 0
M  V30 3509 C 337.954 -1.7082 1.55207 0
M  V30 3510 C 338.924 -1.61278 0.39732 0
M  V30 3511 O 340.109 -1.80717 0.612038 0
M  V30 3512 C 337.249 -3.09144 1.53376 0
M  V30 3513 C 336.362 -3.29423 2.79472 0
M  V30 3514 C 335.497 -4.57907 2.69248 0
M  V30 3515 C 334.536 -4.71476 3.90354 0
M  V30 3516 N 333.673 -5.9127 3.78608 0
M  V30 3517 H 338.513 -1.62125 2.50039 0
M  V30 3518 H 336.05 -0.790389 1.24062 0
M  V30 3519 H 338.008 -3.89186 1.50301 0
M  V30 3520 H 336.638 -3.16773 0.620876 0
M  V30 3521 H 335.69 -2.43091 2.92594 0
M  V30 3522 H 337.002 -3.3532 3.69272 0
M  V30 3523 H 336.156 -5.46157 2.64192 0
M  V30 3524 H 334.895 -4.54423 1.77063 0
M  V30 3525 H 333.9 -3.81648 3.95759 0
M  V30 3526 H 335.125 -4.76751 4.83617 0
M  V30 3527 H 333.071 -5.88813 2.89199 0
M  V30 3528 H 332.988 -5.98369 4.6205 0
M  V30 3529 H 334.256 -6.81992 3.77501 0
M  V30 3530 N 338.485 -1.33259 -0.841409 0
M  V30 3531 C 339.762 -1.15174 -1.58096 0
M  V30 3532 C 340.142 0.282858 -2.09196 0
M  V30 3533 O 339.49 1.28151 -1.89181 0
M  V30 3534 C 339.7 -2.1907 -2.71679 0
M  V30 3535 C 341.048 -2.53093 -3.40924 0
M  V30 3536 O 342.072 -2.17717 -2.81918 0
M  V30 3537 O 340.931 -3.1379 -4.47435 0
M  V30 3538 H 338.025 -0.445303 -0.696875 0
M  V30 3539 H 340.571 -1.44833 -0.884385 0
M  V30 3540 H 339.343 -3.15443 -2.31541 0
M  V30 3541 H 338.966 -1.90481 -3.49002 0
M  V30 3542 N 339.963 1.05934 -1.16686 0
M  V30 3543 C 341.188 1.83029 -0.975455 0
M  V30 3544 C 341.613 1.82096 0.471452 0
M  V30 3545 O 340.971 1.22443 1.33706 0
M  V30 3546 C 341.019 3.27372 -1.51195 0
M  V30 3547 O 340.123 4.06054 -0.720701 0
M  V30 3548 H 339.464 0.566194 -0.346872 0
M  V30 3549 H 341.994 1.33541 -1.55009 0
M  V30 3550 H 342.004 3.78186 -1.53099 0
M  V30 3551 H 340.679 3.27366 -2.56523 0
M  V30 3552 H 339.256 3.64812 -0.772458 0
M  V30 3553 N 341.441 0.965919 1.2453 0
M  V30 3554 C 342.351 0.502154 2.29163 0
M  V30 3555 C 343.367 -0.436017 1.68448 0
M  V30 3556 O 344.543 -0.309497 1.99008 0
M  V30 3557 C 341.608 -0.201956 3.46111 0
M  V30 3558 C 340.669 0.775821 4.22232 0
M  V30 3559 C 339.902 0.105217 5.33596 0
M  V30 3560 O 340.125 -1.10683 5.59558 0
M  V30 3561 O 339.059 0.796475 5.96607 0
M  V30 3562 H 342.885 1.37194 2.70946 0
M  V30 3563 H 340.47 0.732875 1.30189 0
M  V30 3564 H 342.352 -0.597564 4.17142 0
M  V30 3565 H 341.027 -1.04673 3.06309 0
M  V30 3566 H 339.934 1.22185 3.53584 0
M  V30 3567 H 341.267 1.58896 4.65846 0
M  V30 3568 N 342.919 -1.39368 0.735821 0
M  V30 3569 C 344.165 -2.00794 0.284544 0
M  V30 3570 C 344.498 -1.58255 -1.12557 0
M  V30 3571 O 343.773 -0.811819 -1.76748 0
M  V30 3572 C 344.056 -3.58011 0.387337 0
M  V30 3573 C 343.909 -4.10566 1.83728 0
M  V30 3574 C 345.228 -4.395 -0.22975 0
M  V30 3575 H 342.347 -0.729501 0.104866 0
M  V30 3576 H 344.989 -1.65564 0.93213 0
M  V30 3577 H 343.139 -3.88154 -0.164006 0
M  V30 3578 H 344.811 -3.91139 2.44556 0
M  V30 3579 H 343.054 -3.64095 2.35833 0
M  V30 3580 H 343.725 -5.19702 1.86047 0
M  V30 3581 H 346.201 -4.15406 0.240257 0
M  V30 3582 H 345.077 -5.48752 -0.127485 0
M  V30 3583 H 345.338 -4.22062 -1.3159 0
M  V30 3584 N 344.397 -0.483516 -1.5 0
M  V30 3585 C 345.327 0.293829 -2.31644 0
M  V30 3586 C 346.308 0.978864 -1.39112 0
M  V30 3587 O 347.493 0.973644 -1.68029 0
M  V30 3588 C 344.623 1.36897 -3.19181 0
M  V30 3589 C 343.577 0.804833 -4.20365 0
M  V30 3590 C 342.903 1.9792 -4.96721 0
M  V30 3591 C 344.203 -0.192313 -5.21946 0
M  V30 3592 H 345.897 -0.387616 -2.9688 0
M  V30 3593 H 343.443 -0.187856 -1.42769 0
M  V30 3594 H 345.396 1.92037 -3.751 0
M  V30 3595 H 344.12 2.07936 -2.51853 0
M  V30 3596 H 342.779 0.275319 -3.65565 0
M  V30 3597 H 342.427 2.67686 -4.25856 0
M  V30 3598 H 342.127 1.60789 -5.65173 0
M  V30 3599 H 343.651 2.53526 -5.55479 0
M  V30 3600 H 345.065 0.270333 -5.72662 0
M  V30 3601 H 343.462 -0.478543 -5.98189 0
M  V30 3602 H 344.532 -1.11409 -4.71928 0
M  V30 3603 N 345.875 1.56104 -0.216619 0
M  V30 3604 C 346.822 2.2007 0.695531 0
M  V30 3605 C 347.792 1.15471 1.19397 0
M  V30 3606 O 348.977 1.43807 1.25396 0
M  V30 3607 C 346.117 2.88073 1.90021 0
M  V30 3608 C 345.23 4.07253 1.44113 0
M  V30 3609 C 344.365 4.63052 2.603 0
M  V30 3610 C 343.404 5.74545 2.11103 0
M  V30 3611 N 342.541 6.24656 3.20545 0
M  V30 3612 H 347.381 2.97655 0.143327 0
M  V30 3613 H 344.918 1.46982 0.0589934 0
M  V30 3614 H 346.876 3.25681 2.60745 0
M  V30 3615 H 345.506 2.13015 2.42538 0
M  V30 3616 H 344.558 3.75164 0.628999 0
M  V30 3617 H 345.87 4.8783 1.04036 0
M  V30 3618 H 345.024 5.03078 3.39113 0
M  V30 3619 H 343.763 3.81628 3.03663 0
M  V30 3620 H 342.768 5.34027 1.3075 0
M  V30 3621 H 343.993 6.57801 1.68746 0
M  V30 3622 H 341.939 5.46148 3.63399 0
M  V30 3623 H 341.856 7.00343 2.84704 0
M  V30 3624 H 343.124 6.69338 3.99508 0
M  V30 3625 N 347.353 -0.0568162 1.57498 0
M  V30 3626 C 348.285 -1.09292 2.01464 0
M  V30 3627 C 349.298 -1.34112 0.922913 0
M  V30 3628 O 350.487 -1.32089 1.20062 0
M  V30 3629 C 347.587 -2.44068 2.35125 0
M  V30 3630 C 346.76 -2.38995 3.66333 0
M  V30 3631 C 345.819 -3.55997 3.87495 0
M  V30 3632 O 344.845 -3.36746 4.58901 0
M  V30 3633 N 346.047 -4.76888 3.30996 0
M  V30 3634 H 348.812 -0.718386 2.90963 0
M  V30 3635 H 346.373 -0.245235 1.60032 0
M  V30 3636 H 348.365 -3.21011 2.46443 0
M  V30 3637 H 346.935 -2.73468 1.5144 0
M  V30 3638 H 346.155 -1.47336 3.65631 0
M  V30 3639 H 347.443 -2.3272 4.52458 0
M  V30 3640 H 346.841 -4.95431 2.73065 0
M  V30 3641 H 345.398 -5.51291 3.47738 0
M  V30 3642 N 348.832 -1.54138 -0.328536 0
M  V30 3643 C 349.78 -1.83894 -1.42428 0
M  V30 3644 C 350.774 -0.710478 -1.53781 0
M  V30 3645 O 351.98 -0.894062 -1.56226 0
M  V30 3646 H 348.355 -0.582837 -0.475189 0
M  V30 3647 H 350.326 -2.75537 -1.14552 0
M  V30 3648 C 349.075 -2.07866 -2.78724 0
M  V30 3649 H 348.398 -2.94158 -2.7076 0
M  V30 3650 H 349.838 -2.32644 -3.54476 0
M  V30 3651 C 348.297 -0.868689 -3.25508 0
M  V30 3652 O 348.827 -0.0754908 -4.01629 0
M  V30 3653 N 347.033 -0.681711 -2.82491 0
M  V30 3654 H 346.58 -1.32838 -2.20708 0
M  V30 3655 H 346.538 0.126374 -3.14146 0
M  V30 3656 N 350.31 0.590341 -1.46126 0
M  V30 3657 C 351.273 1.68194 -1.55703 0
M  V30 3658 C 352.273 1.54808 -0.434868 0
M  V30 3659 O 353.463 1.59564 -0.698928 0
M  V30 3660 C 350.595 3.07575 -1.47005 0
M  V30 3661 H 351.788 1.61064 -2.52979 0
M  V30 3662 H 349.341 0.807541 -1.33823 0
M  V30 3663 H 350.076 3.20268 -0.509785 0
M  V30 3664 H 349.861 3.187 -2.28414 0
M  V30 3665 H 351.351 3.87055 -1.56776 0
M  V30 3666 N 351.788 1.33704 0.83433 0
M  V30 3667 C 353.034 1.25603 1.59222 0
M  V30 3668 C 353.367 -0.176659 1.93395 0
M  V30 3669 O 352.642 -1.11915 1.59076 0
M  V30 3670 C 352.925 2.13576 2.89926 0
M  V30 3671 C 352.778 3.65326 2.62406 0
M  V30 3672 C 354.097 2.01238 3.91397 0
M  V30 3673 H 351.216 0.457613 0.577719 0
M  V30 3674 H 353.858 1.63848 0.961972 0
M  V30 3675 H 352.008 1.8109 3.43713 0
M  V30 3676 H 353.68 4.08124 2.15017 0
M  V30 3677 H 351.923 3.8698 1.96033 0
M  V30 3678 H 352.594 4.22232 3.55562 0
M  V30 3679 H 355.07 2.29738 3.46929 0
M  V30 3680 H 353.946 2.65036 4.80673 0
M  V30 3681 H 354.207 0.985951 4.30966 0
M  V30 3682 N 353.266 -1.05314 1.17247 0
M  V30 3683 C 354.214 -2.15137 0.884238 0
M  V30 3684 C 355.208 -1.68729 -0.15063 0
M  V30 3685 O 356.414 -1.8 -0.00366673 0
M  V30 3686 H 352.789 -0.702471 0.2684 0
M  V30 3687 H 354.76 -2.36652 1.81764 0
M  V30 3688 C 353.509 -3.45243 0.412659 0
M  V30 3689 H 352.832 -3.81352 1.20043 0
M  V30 3690 H 354.272 -4.23263 0.249858 0
M  V30 3691 C 352.731 -3.25487 -0.86948 0
M  V30 3692 O 353.261 -3.51938 -1.93655 0
M  V30 3693 N 351.467 -2.78875 -0.817147 0
M  V30 3694 H 351.014 -2.57549 0.0514211 0
M  V30 3695 H 350.972 -2.66036 -1.67547 0
M  V30 3696 N 354.744 -0.972509 -1.24016 0
M  V30 3697 C 355.969 -0.654417 -1.96805 0
M  V30 3698 C 356.394 0.770398 -1.716 0
M  V30 3699 O 355.752 1.52361 -0.982647 0
M  V30 3700 C 355.8 -0.941031 -3.48105 0
M  V30 3701 O 354.904 -0.0289472 -4.1239 0
M  V30 3702 H 354.245 -0.24692 -0.616382 0
M  V30 3703 H 356.775 -1.30396 -1.57664 0
M  V30 3704 H 356.785 -0.87452 -3.98517 0
M  V30 3705 H 355.46 -1.97939 -3.65777 0
M  V30 3706 H 354.037 -0.149192 -3.72601 0
M  V30 3707 N 356.222 1.38976 -0.743202 0
M  V30 3708 C 357.17 2.32394 -0.0978389 0
M  V30 3709 C 358.164 1.53486 0.716824 0
M  V30 3710 O 359.37 1.69092 0.617088 0
M  V30 3711 H 355.745 0.75189 -0.0128402 0
M  V30 3712 H 357.716 2.84441 -0.901981 0
M  V30 3713 C 356.465 3.38629 0.789036 0
M  V30 3714 H 355.788 3.99432 0.171559 0
M  V30 3715 H 357.228 4.06426 1.20807 0
M  V30 3716 C 355.687 2.76347 1.92702 0
M  V30 3717 O 356.217 2.64836 3.02034 0
M  V30 3718 N 354.423 2.34311 1.71891 0
M  V30 3719 H 353.97 2.43873 0.829675 0
M  V30 3720 H 353.928 1.9298 2.48205 0
M  V30 3721 N 357.7 0.491464 1.49741 0
M  V30 3722 C 358.632 -0.328609 2.26832 0
M  V30 3723 C 359.645 -0.939113 1.32983 0
M  V30 3724 O 360.834 -0.824067 1.58339 0
M  V30 3725 C 357.934 -1.47675 3.05033 0
M  V30 3726 C 357.107 -0.975305 4.26388 0
M  V30 3727 C 356.166 -1.99991 4.86714 0
M  V30 3728 O 355.192 -1.57229 5.47054 0
M  V30 3729 N 356.394 -3.32962 4.75517 0
M  V30 3730 H 359.159 0.332377 2.97851 0
M  V30 3731 H 356.72 0.323441 1.58636 0
M  V30 3732 H 358.712 -2.15954 3.42266 0
M  V30 3733 H 357.282 -2.04206 2.36683 0
M  V30 3734 H 356.502 -0.117723 3.94024 0
M  V30 3735 H 357.79 -0.618531 5.05026 0
M  V30 3736 H 357.188 -3.70399 4.27576 0
M  V30 3737 H 355.745 -3.96982 5.16961 0
M  V30 3738 N 359.178 -1.55987 0.224894 0
M  V30 3739 C 360.403 -2.03232 -0.41369 0
M  V30 3740 C 360.828 -1.10359 -1.52323 0
M  V30 3741 O 360.186 -0.092395 -1.81064 0
M  V30 3742 C 360.234 -3.48682 -0.919405 0
M  V30 3743 O 359.338 -3.58947 -2.03054 0
M  V30 3744 H 358.679 -0.657428 -0.0931903 0
M  V30 3745 H 361.209 -2.01679 0.34451 0
M  V30 3746 H 361.219 -3.8907 -1.22835 0
M  V30 3747 H 359.894 -4.15761 -0.107339 0
M  V30 3748 H 358.471 -3.30448 -1.72796 0
M  V30 3749 N 360.656 0.0484629 -1.57525 0
M  V30 3750 C 361.604 1.07359 -2.06341 0
M  V30 3751 C 362.598 1.3865 -0.973269 0
M  V30 3752 O 363.804 1.37783 -1.15827 0
M  V30 3753 H 360.179 0.363662 -0.65822 0
M  V30 3754 H 362.15 0.635916 -2.91545 0
M  V30 3755 C 360.899 2.37198 -2.54229 0
M  V30 3756 H 360.222 2.13977 -3.37719 0
M  V30 3757 H 361.662 3.07319 -2.92115 0
M  V30 3758 C 360.121 3.04805 -1.43511 0
M  V30 3759 O 360.651 3.93848 -0.79034 0
M  V30 3760 N 358.857 2.65811 -1.17444 0
M  V30 3761 H 358.404 1.93488 -1.70059 0
M  V30 3762 H 358.362 3.11366 -0.435737 0
M  V30 3763 N 362.134 1.5431 0.320358 0
M  V30 3764 C 363.38 1.72924 1.05949 0
M  V30 3765 C 363.713 0.503185 1.87568 0
M  V30 3766 O 362.988 -0.499839 1.87968 0
M  V30 3767 C 363.271 3.00676 1.98156 0
M  V30 3768 C 363.124 4.3354 1.19845 0
M  V30 3769 C 364.443 3.24198 2.9763 0
M  V30 3770 H 361.562 0.629195 0.383774 0
M  V30 3771 H 364.204 1.87008 0.335854 0
M  V30 3772 H 362.354 2.888 2.59859 0
M  V30 3773 H 364.026 4.57305 0.605773 0
M  V30 3774 H 362.269 4.309 0.500784 0
M  V30 3775 H 362.94 5.19156 1.87567 0
M  V30 3776 H 365.416 3.35557 2.4605 0
M  V30 3777 H 364.292 4.14938 3.59329 0
M  V30 3778 H 364.553 2.41577 3.7026 0
M  V30 3779 N 363.613 -0.582584 1.46437 0
M  V30 3780 C 364.859 -1.34278 1.51978 0
M  V30 3781 C 365.192 -1.93446 0.170973 0
M  V30 3782 O 364.467 -1.76481 -0.817608 0
M  V30 3783 C 364.75 -2.47203 2.61845 0
M  V30 3784 C 364.603 -1.93069 4.06257 0
M  V30 3785 C 365.922 -3.49247 2.67795 0
M  V30 3786 H 363.041 -0.486876 0.553282 0
M  V30 3787 H 365.683 -0.654437 1.78374 0
M  V30 3788 H 363.833 -3.0592 2.39469 0
M  V30 3789 H 365.505 -1.38808 4.3992 0
M  V30 3790 H 363.748 -1.23898 4.1573 0
M  V30 3791 H 364.419 -2.74586 4.7886 0
M  V30 3792 H 366.895 -3.00411 2.8791 0
M  V30 3793 H 365.771 -4.25719 3.46489 0
M  V30 3794 H 366.032 -4.06482 1.73852 0
M  V30 3795 N 365.091 -1.34144 -0.827227 0
M  V30 3796 C 366.34 -1.25602 -1.5782 0
M  V30 3797 C 366.653 0.173445 -1.94829 0
M  V30 3798 O 367.859 0.380984 -2.68814 0
M  V30 3799 C 366.315 -2.20151 -2.84713 0
M  V30 3800 C 365.923 -3.68331 -2.55021 0
M  V30 3801 C 367.667 -2.20508 -3.62735 0
M  V30 3802 C 365.574 -4.54762 -3.78082 0
M  V30 3803 H 364.504 -0.466573 -0.592306 0
M  V30 3804 H 367.155 -1.59283 -0.911116 0
M  V30 3805 H 365.537 -1.79417 -3.53023 0
M  V30 3806 H 366.711 -4.17577 -1.94849 0
M  V30 3807 H 365.026 -3.7038 -1.90283 0
M  V30 3808 H 367.623 -2.82306 -4.54101 0
M  V30 3809 H 367.966 -1.20322 -3.98533 0
M  V30 3810 H 368.499 -2.59664 -3.01362 0
M  V30 3811 H 365.238 -5.55867 -3.47407 0
M  V30 3812 H 364.758 -4.10254 -4.37552 0
M  V30 3813 H 366.437 -4.69153 -4.45538 0
M  V30 3814 N 366.569 1.04691 -1.17803 0
M  V30 3815 C 367.479 2.16057 -0.914151 0
M  V30 3816 C 368.495 1.73589 0.119503 0
M  V30 3817 O 369.671 2.01308 -0.0609468 0
M  V30 3818 C 366.736 3.4394 -0.436603 0
M  V30 3819 C 365.797 4.00825 -1.53746 0
M  V30 3820 C 365.03 5.22604 -1.0826 0
M  V30 3821 O 365.253 5.70367 0.0612244 0
M  V30 3822 O 364.187 5.7186 -1.87775 0
M  V30 3823 H 368.013 2.41169 -1.84584 0
M  V30 3824 H 365.598 1.1453 -0.959334 0
M  V30 3825 H 367.48 4.21024 -0.178057 0
M  V30 3826 H 366.155 3.20316 0.466869 0
M  V30 3827 H 365.062 3.25158 -1.84995 0
M  V30 3828 H 366.395 4.28778 -2.41683 0
M  V30 3829 N 368.047 0.979072 1.23499 0
M  V30 3830 C 369.324 0.563674 1.87302 0
M  V30 3831 C 369.704 -0.959199 1.88049 0
M  V30 3832 O 369.052 -1.83535 1.36114 0
M  V30 3833 C 369.262 1.16822 3.28867 0
M  V30 3834 C 370.61 1.26014 4.0547 0
M  V30 3835 O 371.634 1.12158 3.38082 0
M  V30 3836 O 370.493 1.48044 5.26066 0
M  V30 3837 H 367.587 0.189602 0.804972 0
M  V30 3838 H 370.133 1.07407 1.31384 0
M  V30 3839 H 368.905 2.21049 3.22883 0
M  V30 3840 H 368.528 0.642564 3.92373 0
M  V30 3841 N 369.525 -1.3858 0.750561 0
M  V30 3842 C 370.772 -2.00184 0.305373 0
M  V30 3843 C 371.1 -1.59575 -1.11203 0
M  V30 3844 O 370.355 -0.823236 -1.77542 0
M  V30 3845 C 370.654 -3.55455 0.372373 0
M  V30 3846 C 370.32 -4.15765 1.745 0
M  V30 3847 C 368.982 -4.31951 2.12065 0
M  V30 3848 C 371.334 -4.49067 2.64553 0
M  V30 3849 C 368.662 -4.78734 3.39162 0
M  V30 3850 C 371.014 -4.97265 3.91038 0
M  V30 3851 C 369.678 -5.11658 4.28676 0
M  V30 3852 H 368.948 -0.732526 0.111744 0
M  V30 3853 H 371.595 -1.65673 0.960451 0
M  V30 3854 H 369.9 -3.90084 -0.366272 0
M  V30 3855 H 371.597 -4.00999 0.00953918 0
M  V30 3856 H 368.187 -4.03579 1.44297 0
M  V30 3857 H 372.371 -4.36166 2.36796 0
M  V30 3858 H 367.627 -4.88062 3.68246 0
M  V30 3859 H 371.801 -5.22003 4.60962 0
M  V30 3860 H 369.428 -5.47668 5.27222 0
M  V30 3861 N 371.003 -0.499398 -1.49478 0
M  V30 3862 C 371.913 0.284489 -2.32869 0
M  V30 3863 C 372.929 0.968885 -1.44529 0
M  V30 3864 O 374.105 0.95062 -1.77553 0
M  V30 3865 C 371.17 1.33594 -3.19928 0
M  V30 3866 C 370.231 0.665149 -4.24116 0
M  V30 3867 C 369.464 1.6665 -5.07014 0
M  V30 3868 O 369.687 2.89618 -4.91404 0
M  V30 3869 O 368.621 1.22271 -5.8935 0
M  V30 3870 H 372.447 -0.39802 -3.01081 0
M  V30 3871 H 370.032 -0.260758 -1.47107 0
M  V30 3872 H 371.914 1.94431 -3.73864 0
M  V30 3873 H 370.589 2.0014 -2.54412 0
M  V30 3874 H 369.496 0.0170769 -3.74096 0
M  V30 3875 H 370.829 0.0421555 -4.92182 0
M  V30 3876 N 372.481 1.55866 -0.233164 0
M  V30 3877 C 373.706 2.03449 0.402906 0
M  V30 3878 C 374.131 1.11166 1.51736 0
M  V30 3879 O 373.489 0.101996 1.81013 0
M  V30 3880 C 373.537 3.49165 0.9009 0
M  V30 3881 O 372.641 3.60019 2.01147 0
M  V30 3882 H 371.982 0.657913 0.0897025 0
M  V30 3883 H 374.512 2.01493 -0.355201 0
M  V30 3884 H 374.522 3.89716 1.2077 0
M  V30 3885 H 373.197 4.15813 0.0852889 0
M  V30 3886 H 371.774 3.3136 1.71042 0
M  V30 3887 N 373.959 -0.0401083 1.57549 0
M  V30 3888 C 375.184 -0.748931 1.93406 0
M  V30 3889 C 375.609 -1.68686 0.832274 0
M  V30 3890 O 374.967 -1.80047 -0.212818 0
M  V30 3891 C 375.015 -1.4916 3.28304 0
M  V30 3892 O 374.119 -2.6042 3.19774 0
M  V30 3893 H 373.46 -0.202212 0.63246 0
M  V30 3894 H 375.99 0.00112086 2.046 0
M  V30 3895 H 376 -1.86395 3.62934 0
M  V30 3896 H 374.675 -0.80364 4.08062 0
M  V30 3897 H 373.252 -2.25808 2.96758 0
M  V30 3898 N 375.437 -1.54477 -0.31217 0
M  V30 3899 C 376.367 -1.87652 -1.38957 0
M  V30 3900 C 377.348 -0.734358 -1.53431 0
M  V30 3901 O 378.533 -0.98911 -1.67123 0
M  V30 3902 C 375.663 -2.11396 -2.75552 0
M  V30 3903 C 374.617 -3.27243 -2.75855 0
M  V30 3904 C 373.943 -3.36382 -4.15633 0
M  V30 3905 C 375.243 -4.64622 -2.38587 0
M  V30 3906 H 376.937 -2.77887 -1.11442 0
M  V30 3907 H 374.483 -1.33707 -0.534655 0
M  V30 3908 H 376.436 -2.33189 -3.51 0
M  V30 3909 H 375.16 -1.17921 -3.04569 0
M  V30 3910 H 373.819 -3.05356 -2.02863 0
M  V30 3911 H 373.467 -2.40445 -4.41809 0
M  V30 3912 H 373.167 -4.14249 -4.1674 0
M  V30 3913 H 374.691 -3.60422 -4.92877 0
M  V30 3914 H 376.105 -4.86219 -3.03749 0
M  V30 3915 H 374.502 -5.45121 -2.50925 0
M  V30 3916 H 375.572 -4.66097 -1.33723 0
M  V30 3917 N 376.915 0.57481 -1.46744 0
M  V30 3918 C 378.143 1.35856 -1.56047 0
M  V30 3919 C 378.558 1.87691 -0.204365 0
M  V30 3920 O 377.915 1.64049 0.79963 0
M  V30 3921 C 377.966 2.54066 -2.57163 0
M  V30 3922 O 377.687 2.04377 -3.87507 0
M  V30 3923 C 379.188 3.46514 -2.76483 0
M  V30 3924 H 376.408 0.414754 -0.527466 0
M  V30 3925 H 378.952 0.698035 -1.92218 0
M  V30 3926 H 377.107 3.16092 -2.23974 0
M  V30 3927 H 377.521 2.81419 -4.4261 0
M  V30 3928 H 378.995 4.25919 -3.51137 0
M  V30 3929 H 379.472 3.98951 -1.83671 0
M  V30 3930 H 380.078 2.90318 -3.10799 0
M  V30 3931 N 378.394 1.34581 0.820102 0
M  V30 3932 C 379.81 1.14325 1.11364 0
M  V30 3933 C 380.01 -0.0533648 2.01429 0
M  V30 3934 O 379.066 -0.728044 2.41776 0
M  V30 3935 C 380.379 2.43983 1.75764 0
M  V30 3936 C 381.927 2.50065 1.88246 0
M  V30 3937 C 382.402 3.79732 2.56061 0
M  V30 3938 N 383.893 3.80908 2.63558 0
M  V30 3939 C 384.628 4.77961 3.16766 0
M  V30 3940 N 384.124 5.85397 3.70517 0
M  V30 3941 N 385.917 4.65413 3.15194 0
M  V30 3942 H 378.068 2.11246 0.221096 0
M  V30 3943 H 380.331 0.934289 0.160649 0
M  V30 3944 H 380.037 3.31651 1.1705 0
M  V30 3945 H 379.911 2.57531 2.75604 0
M  V30 3946 H 382.298 1.62834 2.46108 0
M  V30 3947 H 382.379 2.40442 0.873006 0
M  V30 3948 H 382.023 4.67354 1.98853 0
M  V30 3949 H 381.953 3.86639 3.57516 0
M  V30 3950 H 384.444 3.03274 2.25463 0
M  V30 3951 H 384.757 6.55463 4.09376 0
M  V30 3952 H 383.102 5.89107 3.68752 0
M  V30 3953 H 386.293 3.80627 2.72471 0
M  V30 3954 H 386.466 5.41216 3.56356 0
M  V30 3955 N 379.872 -1.04064 1.18357 0
M  V30 3956 C 381.097 -1.81454 1.00445 0
M  V30 3957 C 381.522 -1.82823 -0.442423 0
M  V30 3958 O 380.88 -1.24555 -1.31741 0
M  V30 3959 C 380.928 -3.24925 1.56384 0
M  V30 3960 O 380.032 -4.04856 0.785209 0
M  V30 3961 H 379.373 -0.560604 0.355835 0
M  V30 3962 H 381.903 -1.31059 1.57114 0
M  V30 3963 H 381.913 -3.75702 1.59097 0
M  V30 3964 H 380.588 -3.23244 2.61699 0
M  V30 3965 H 379.165 -3.63537 0.830399 0
M  V30 3966 N 381.35 -0.985608 -1.22978 0
M  V30 3967 C 382.596 -0.65836 -1.91816 0
M  V30 3968 C 382.929 0.806692 -1.76653 0
M  V30 3969 O 382.204 1.58252 -1.13078 0
M  V30 3970 C 382.487 -1.056 -3.44268 0
M  V30 3971 C 382.34 -2.57906 -3.68516 0
M  V30 3972 C 383.659 -0.603781 -4.35939 0
M  V30 3973 H 380.778 -0.24065 -0.696604 0
M  V30 3974 H 383.42 -1.22783 -1.44998 0
M  V30 3975 H 381.57 -0.571445 -3.84274 0
M  V30 3976 H 383.242 -3.13976 -3.3796 0
M  V30 3977 H 381.485 -3.00305 -3.13048 0
M  V30 3978 H 382.156 -2.80779 -4.75255 0
M  V30 3979 H 384.632 -1.01987 -4.03408 0
M  V30 3980 H 383.508 -0.910383 -5.41298 0
M  V30 3981 H 383.769 0.495761 -4.39312 0
M  V30 3982 N 382.828 1.3818 -0.7579 0
M  V30 3983 C 384.239 1.82726 -0.383134 0
M  V30 3984 C 384.59 1.63214 1.08884 0
M  V30 3985 O 383.715 1.13566 1.84205 0
M  V30 3986 C 384.31 3.31728 -0.688631 0
M  V30 3987 C 382.869 3.74606 -0.367091 0
M  V30 3988 C 382.016 2.60896 -0.939599 0
M  V30 3989 H 384.967 1.26847 -0.953699 0
M  V30 3990 H 384.988 3.80487 0.0316492 0
M  V30 3991 H 384.5 3.45898 -1.76001 0
M  V30 3992 H 382.601 3.66013 0.697532 0
M  V30 3993 H 382.714 4.71215 -0.865658 0
M  V30 3994 H 381.078 2.52075 -0.3647 0
M  V30 3995 H 381.861 2.77864 -2.0161 0
M  V30 3996 N 384.306 0.507319 1.49211 0
M  V30 3997 C 385.717 0.0611118 1.866 0
M  V30 3998 C 386.068 -1.35488 1.41907 0
M  V30 3999 O 385.193 -2.0108 0.799726 0
M  V30 4000 C 385.788 0.104125 3.3864 0
M  V30 4001 C 384.347 -0.28677 3.75306 0
M  V30 4002 C 383.494 0.473893 2.73221 0
M  V30 4003 H 386.445 0.719775 1.41439 0
M  V30 4004 H 386.466 -0.689672 3.74198 0
M  V30 4005 H 385.978 1.13482 3.71138 0
M  V30 4006 H 384.079 -1.32046 3.48417 0
M  V30 4007 H 384.192 0.0370745 4.79086 0
M  V30 4008 H 382.556 -0.0770644 2.54583 0
M  V30 4009 H 383.339 1.50478 3.08563 0
M  V30 4010 N 385.784 -1.5574 0.241426 0
M  V30 4011 C 386.714 -2.24133 -0.654722 0
M  V30 4012 C 387.695 -1.21974 -1.1856 0
M  V30 4013 O 388.88 -1.50612 -1.22595 0
M  V30 4014 C 386.01 -2.93659 -1.85423 0
M  V30 4015 C 384.964 -4.0246 -1.45636 0
M  V30 4016 C 384.29 -4.59383 -2.73626 0
M  V30 4017 C 385.59 -5.18468 -0.631506 0
M  V30 4018 H 387.284 -2.99281 -0.0844353 0
M  V30 4019 H 384.83 -1.43947 -0.0391707 0
M  V30 4020 H 386.783 -3.40203 -2.48676 0
M  V30 4021 H 385.507 -2.15991 -2.44981 0
M  V30 4022 H 384.166 -3.56676 -0.847202 0
M  V30 4023 H 383.814 -3.78422 -3.3137 0
M  V30 4024 H 383.514 -5.32826 -2.4773 0
M  V30 4025 H 385.038 -5.08658 -3.37786 0
M  V30 4026 H 386.452 -5.61272 -1.1682 0
M  V30 4027 H 384.849 -5.98266 -0.468831 0
M  V30 4028 H 385.919 -4.8358 0.357506 0
M  V30 4029 N 387.262 0.0317525 -1.57568 0
M  V30 4030 C 388.487 0.738664 -1.938 0
M  V30 4031 C 388.912 1.68242 -0.841208 0
M  V30 4032 O 388.27 1.80157 0.203267 0
M  V30 4033 C 388.318 1.47417 -3.29091 0
M  V30 4034 O 387.422 2.5872 -3.2115 0
M  V30 4035 H 386.763 0.198856 -0.633524 0
M  V30 4036 H 389.293 -0.0119713 -2.04596 0
M  V30 4037 H 389.303 1.84468 -3.63917 0
M  V30 4038 H 387.978 0.781988 -4.08482 0
M  V30 4039 H 386.555 2.24231 -2.97951 0
M  V30 4040 N 388.74 1.54641 0.303973 0
M  V30 4041 C 389.672 1.81754 1.39636 0
M  V30 4042 C 390.685 0.70035 1.46966 0
M  V30 4043 O 391.874 0.97778 1.49338 0
M  V30 4044 C 388.974 1.93785 2.7803 0
M  V30 4045 C 388.147 3.24156 2.93669 0
M  V30 4046 C 387.206 3.26641 4.12544 0
M  V30 4047 O 386.232 4.00187 4.04771 0
M  V30 4048 N 387.434 2.5182 5.23036 0
M  V30 4049 H 390.199 2.76031 1.16734 0
M  V30 4050 H 387.76 1.54178 0.494033 0
M  V30 4051 H 389.752 1.92852 3.55795 0
M  V30 4052 H 388.322 1.06515 2.93893 0
M  V30 4053 H 387.542 3.37887 2.03042 0
M  V30 4054 H 388.83 4.10195 3.01027 0
M  V30 4055 H 388.228 1.91692 5.32232 0
M  V30 4056 H 386.785 2.56644 5.99147 0
M  V30 4057 N 390.218 -0.567019 1.47046 0
M  V30 4058 C 391.181 -1.65696 1.58359 0
M  V30 4059 C 392.181 -1.54097 0.459441 0
M  V30 4060 O 393.371 -1.58432 0.724225 0
M  V30 4061 C 390.503 -3.05197 1.51879 0
M  V30 4062 H 391.696 -1.57019 2.5551 0
M  V30 4063 H 389.249 -0.786148 1.3509 0
M  V30 4064 H 389.984 -3.19417 0.560673 0
M  V30 4065 H 389.769 -3.15025 2.33455 0
M  V30 4066 H 391.259 -3.84511 1.62913 0
M  V30 4067 N 391.696 -1.35014 -0.812953 0
M  V30 4068 C 392.921 -1.31187 -1.60639 0
M  V30 4069 C 393.346 0.109382 -1.87782 0
M  V30 4070 O 392.704 1.07424 -1.46047 0
M  V30 4071 C 392.752 -2.11809 -2.91838 0
M  V30 4072 O 391.856 -1.49444 -3.8437 0
M  V30 4073 H 391.197 -0.450084 -0.488181 0
M  V30 4074 H 393.727 -1.77963 -1.00947 0
M  V30 4075 H 393.737 -2.23531 -3.41318 0
M  V30 4076 H 392.412 -3.15137 -2.71407 0
M  V30 4077 H 390.989 -1.46524 -3.42907 0
M  V30 4078 N 393.175 1.03435 -1.18907 0
M  V30 4079 C 394.105 2.13503 -0.945448 0
M  V30 4080 C 395.086 1.69682 0.119189 0
M  V30 4081 O 396.271 1.94169 -0.034707 0
M  V30 4082 C 393.401 3.44004 -0.477316 0
M  V30 4083 C 392.355 4.0148 -1.48316 0
M  V30 4084 C 391.681 5.27537 -0.872311 0
M  V30 4085 C 392.981 4.36921 -2.86177 0
M  V30 4086 H 394.675 2.34141 -1.86597 0
M  V30 4087 H 392.221 1.12523 -0.898584 0
M  V30 4088 H 394.174 4.20372 -0.294204 0
M  V30 4089 H 392.898 3.23072 0.478786 0
M  V30 4090 H 391.557 3.27201 -1.65332 0
M  V30 4091 H 391.205 5.02917 0.0911752 0
M  V30 4092 H 390.905 5.66954 -1.54393 0
M  V30 4093 H 392.429 6.06576 -0.699871 0
M  V30 4094 H 393.843 5.04248 -2.72776 0
M  V30 4095 H 392.24 4.87405 -3.50081 0
M  V30 4096 H 393.31 3.46466 -3.39248 0
M  V30 4097 N 394.653 0.992116 1.22453 0
M  V30 4098 C 395.601 0.534644 2.26372 0
M  V30 4099 C 396.595 -0.414293 1.64256 0
M  V30 4100 O 397.801 -0.286899 1.77699 0
M  V30 4101 H 394.176 0.154502 0.735957 0
M  V30 4102 H 396.147 1.42256 2.62309 0
M  V30 4103 C 394.896 -0.135815 3.47435 0
M  V30 4104 H 394.219 0.585311 3.95492 0
M  V30 4105 H 395.659 -0.419374 4.21921 0
M  V30 4106 C 394.118 -1.37089 3.07747 0
M  V30 4107 O 394.648 -2.46629 3.17076 0
M  V30 4108 N 392.854 -1.24585 2.62539 0
M  V30 4109 H 392.401 -0.354542 2.55149 0
M  V30 4110 H 392.359 -2.07327 2.36353 0
M  V30 4111 N 396.131 -1.37776 0.765217 0
M  V30 4112 C 397.38 -1.99092 0.323307 0
M  V30 4113 C 397.693 -1.61434 -1.10446 0
M  V30 4114 O 398.899 -2.15805 -1.64743 0
M  V30 4115 C 397.355 -3.56019 0.527098 0
M  V30 4116 C 396.963 -4.0262 1.96471 0
M  V30 4117 C 398.707 -4.2424 0.148483 0
M  V30 4118 C 396.614 -5.52233 2.11644 0
M  V30 4119 H 395.544 -0.744846 0.117137 0
M  V30 4120 H 398.195 -1.57391 0.943417 0
M  V30 4121 H 396.577 -3.95667 -0.162372 0
M  V30 4122 H 397.751 -3.74234 2.68859 0
M  V30 4123 H 396.066 -3.47161 2.29931 0
M  V30 4124 H 398.663 -5.34159 0.240456 0
M  V30 4125 H 399.006 -4.06446 -0.900422 0
M  V30 4126 H 399.539 -3.89872 0.79025 0
M  V30 4127 H 396.278 -5.74945 3.1483 0
M  V30 4128 H 395.798 -5.82324 1.4373 0
M  V30 4129 H 397.477 -6.18106 1.91193 0
M  V30 4130 N 397.609 -0.515225 -1.4894 0
M  V30 4131 C 399.02 -0.0710067 -1.86565 0
M  V30 4132 C 399.371 1.34733 -1.42623 0
M  V30 4133 O 398.496 2.00653 -0.810379 0
M  V30 4134 C 399.091 -0.122083 -3.3858 0
M  V30 4135 C 397.65 0.266863 -3.75453 0
M  V30 4136 C 396.797 -0.488376 -2.72966 0
M  V30 4137 H 399.748 -0.727266 -1.41055 0
M  V30 4138 H 399.769 0.669818 -3.74558 0
M  V30 4139 H 399.281 -1.15448 -3.70531 0
M  V30 4140 H 397.382 1.30196 -3.49113 0
M  V30 4141 H 397.495 -0.0624811 -4.79059 0
M  V30 4142 H 395.859 0.0635622 -2.54621 0
M  V30 4143 H 396.642 -1.52113 -3.07761 0
M  V30 4144 N 399.087 1.5561 -0.249682 0
M  V30 4145 C 400.335 1.98618 0.373548 0
M  V30 4146 C 400.656 1.13919 1.58264 0
M  V30 4147 O 399.926 0.222637 1.94631 0
M  V30 4148 H 398.506 0.733571 0.141006 0
M  V30 4149 H 401.168 1.91748 -0.349117 0
M  V30 4150 H 400.264 3.04584 0.680796 0
M  V30 4151 N 400.565 -0.0233959 1.57583 0
M  V30 4152 C 401.495 -1.02162 2.09965 0
M  V30 4153 C 402.476 -1.3735 1.00344 0
M  V30 4154 O 403.661 -1.46135 1.27899 0
M  V30 4155 C 400.791 -2.32081 2.58371 0
M  V30 4156 C 399.745 -2.1112 3.72307 0
M  V30 4157 C 399.071 -3.46848 4.06941 0
M  V30 4158 C 400.371 -1.49276 5.00514 0
M  V30 4159 H 402.065 -0.585557 2.93618 0
M  V30 4160 H 399.611 -0.280218 1.41247 0
M  V30 4161 H 401.564 -3.02249 2.93639 0
M  V30 4162 H 400.288 -2.77758 1.71808 0
M  V30 4163 H 398.947 -1.43384 3.37397 0
M  V30 4164 H 398.595 -3.90184 3.17436 0
M  V30 4165 H 398.295 -3.33646 4.83688 0
M  V30 4166 H 399.819 -4.18369 4.44747 0
M  V30 4167 H 401.233 -2.09368 5.33702 0
M  V30 4168 H 399.63 -1.46632 5.8191 0
M  V30 4169 H 400.7 -0.459217 4.82721 0
M  V30 4170 N 402.043 -1.548 -0.295768 0
M  V30 4171 C 403.454 -1.65274 -0.868411 0
M  V30 4172 C 403.805 -0.56481 -1.87894 0
M  V30 4173 O 402.93 0.29767 -2.14343 0
M  V30 4174 C 403.525 -2.99603 -1.58188 0
M  V30 4175 C 402.084 -3.12181 -2.10286 0
M  V30 4176 C 401.231 -2.6098 -0.93727 0
M  V30 4177 H 404.182 -1.58534 -0.0726422 0
M  V30 4178 H 404.203 -2.91319 -2.44772 0
M  V30 4179 H 403.715 -3.78764 -0.846151 0
M  V30 4180 H 401.816 -2.3775 -2.8689 0
M  V30 4181 H 401.929 -4.18415 -2.33379 0
M  V30 4182 H 400.293 -2.17564 -1.32431 0
M  V30 4183 H 401.076 -3.42623 -0.215414 0
M  V30 4184 N 403.521 0.559213 -1.47345 0
M  V30 4185 C 404.932 1.14134 -1.47751 0
M  V30 4186 C 405.283 1.94834 -0.231103 0
M  V30 4187 O 404.408 2.05957 0.664137 0
M  V30 4188 C 405.003 2.07653 -2.67705 0
M  V30 4189 C 403.562 2.61141 -2.71076 0
M  V30 4190 C 402.709 1.3748 -2.40821 0
M  V30 4191 H 405.66 0.345917 -1.54884 0
M  V30 4192 H 405.681 2.91497 -2.44561 0
M  V30 4193 H 405.193 1.4889 -3.58404 0
M  V30 4194 H 403.294 3.23707 -1.84511 0
M  V30 4195 H 403.407 3.02272 -3.7171 0
M  V30 4196 H 401.771 1.68086 -1.91362 0
M  V30 4197 H 402.554 0.805135 -3.33725 0
M  V30 4198 N 404.999 1.35443 0.805782 0
M  V30 4199 C 405.909 1.30546 1.94923 0
M  V30 4200 C 406.925 0.210233 1.72725 0
M  V30 4201 O 408.101 0.43975 1.9654 0
M  V30 4202 C 405.166 1.07782 3.29521 0
M  V30 4203 C 404.227 2.26625 3.64609 0
M  V30 4204 C 403.46 2.04938 4.92784 0
M  V30 4205 O 403.683 1.01624 5.61274 0
M  V30 4206 O 402.617 2.9232 5.26149 0
M  V30 4207 H 406.443 2.26779 2.02002 0
M  V30 4208 H 404.028 1.15823 0.943682 0
M  V30 4209 H 405.91 0.969392 4.10098 0
M  V30 4210 H 404.585 0.146003 3.23371 0
M  V30 4211 H 403.492 2.43033 2.84404 0
M  V30 4212 H 404.825 3.18257 3.75464 0
M  V30 4213 N 406.477 -1.02803 1.19454 0
M  V30 4214 C 407.707 -1.79581 1.02149 0
M  V30 4215 C 408.115 -1.84182 -0.432851 0
M  V30 4216 O 407.458 -1.28534 -1.31243 0
M  V30 4217 C 407.52 -3.25993 1.51554 0
M  V30 4218 C 407.184 -3.45025 2.99678 0
M  V30 4219 C 408.181 -3.35175 3.97434 0
M  V30 4220 C 405.866 -3.71212 3.38389 0
M  V30 4221 C 407.86 -3.51238 5.31893 0
M  V30 4222 C 405.547 -3.8692 4.73008 0
M  V30 4223 C 406.545 -3.76936 5.69569 0
M  V30 4224 O 406.233 -3.92179 7.01748 0
M  V30 4225 H 405.965 -0.571962 0.360327 0
M  V30 4226 H 408.519 -1.30367 1.58725 0
M  V30 4227 H 406.749 -3.76235 0.893543 0
M  V30 4228 H 408.438 -3.84368 1.30444 0
M  V30 4229 H 409.204 -3.14895 3.68872 0
M  V30 4230 H 405.083 -3.78075 2.6378 0
M  V30 4231 H 408.627 -3.43362 6.07247 0
M  V30 4232 H 404.524 -4.06699 5.01265 0
M  V30 4233 H 405.292 -4.09265 7.08833 0
M  V30 4234 N 407.956 -0.998596 -1.21925 0
M  V30 4235 C 408.886 -0.573688 -2.26343 0
M  V30 4236 C 409.867 0.402296 -1.65274 0
M  V30 4237 O 411.052 0.291683 -1.91997 0
M  V30 4238 C 408.182 0.106839 -3.47136 0
M  V30 4239 C 407.136 -0.788269 -4.20678 0
M  V30 4240 C 406.462 0.0254927 -5.34694 0
M  V30 4241 C 407.762 -2.08784 -4.78755 0
M  V30 4242 H 409.456 -1.44651 -2.62138 0
M  V30 4243 H 407.002 -0.696975 -1.26009 0
M  V30 4244 H 408.955 0.415531 -4.19346 0
M  V30 4245 H 407.679 1.01424 -3.10452 0
M  V30 4246 H 406.338 -1.08069 -3.50309 0
M  V30 4247 H 405.986 0.933989 -4.94253 0
M  V30 4248 H 405.686 -0.570437 -5.84825 0
M  V30 4249 H 407.21 0.328147 -6.09718 0
M  V30 4250 H 408.624 -1.84272 -5.42878 0
M  V30 4251 H 407.021 -2.63307 -5.39249 0
M  V30 4252 H 408.091 -2.76284 -3.98491 0
M  V30 4253 N 409.434 1.37368 -0.772513 0
M  V30 4254 C 410.366 2.28899 -0.117502 0
M  V30 4255 C 411.379 1.4867 0.663405 0
M  V30 4256 O 412.568 1.71314 0.501372 0
M  V30 4257 C 409.668 3.2788 0.857192 0
M  V30 4258 C 408.841 4.37207 0.129938 0
M  V30 4259 C 407.9 5.16257 1.01811 0
M  V30 4260 O 406.926 5.67159 0.481601 0
M  V30 4261 N 408.128 5.31058 2.3443 0
M  V30 4262 H 410.893 2.85752 -0.903662 0
M  V30 4263 H 408.454 1.49353 -0.62493 0
M  V30 4264 H 410.446 3.77647 1.45482 0
M  V30 4265 H 409.016 2.7179 1.54432 0
M  V30 4266 H 408.236 3.88827 -0.648605 0
M  V30 4267 H 409.524 5.07434 -0.372559 0
M  V30 4268 H 408.922 4.91287 2.80452 0
M  V30 4269 H 407.479 5.84131 2.89197 0
M  V30 4270 N 410.912 0.523116 1.48665 0
M  V30 4271 C 412.158 -0.0134963 2.02796 0
M  V30 4272 C 412.491 -1.34582 1.40004 0
M  V30 4273 O 411.766 -1.86756 0.543381 0
M  V30 4274 C 412.049 -0.14276 3.59817 0
M  V30 4275 C 411.902 1.21425 4.331 0
M  V30 4276 C 413.221 -0.872856 4.31357 0
M  V30 4277 H 410.34 -0.00343074 0.736992 0
M  V30 4278 H 412.982 0.678816 1.7746 0
M  V30 4279 H 411.132 -0.732401 3.81534 0
M  V30 4280 H 412.804 1.84447 4.2282 0
M  V30 4281 H 411.047 1.79791 3.94788 0
M  V30 4282 H 411.718 1.07687 5.41394 0
M  V30 4283 H 414.194 -0.372555 4.14429 0
M  V30 4284 H 413.07 -0.932185 5.40927 0
M  V30 4285 H 413.331 -1.92161 3.98154 0
M  V30 4286 N 412.39 -1.55475 0.257931 0
M  V30 4287 C 413.34 -2.18506 -0.651094 0
M  V30 4288 C 414.324 -1.14431 -1.13112 0
M  V30 4289 O 415.516 -1.40305 -1.07905 0
M  V30 4290 C 412.645 -2.89653 -1.84272 0
M  V30 4291 C 411.731 -4.00996 -1.38068 0
M  V30 4292 N 412.122 -5.01816 -0.633609 0
M  V30 4293 C 410.42 -4.13753 -1.66506 0
M  V30 4294 C 411.121 -5.80371 -0.392922 0
M  V30 4295 N 410.097 -5.3505 -0.960359 0
M  V30 4296 H 413.899 -2.93811 -0.0722883 0
M  V30 4297 H 411.413 -1.62286 0.0607256 0
M  V30 4298 H 413.41 -3.33245 -2.50506 0
M  V30 4299 H 412.07 -2.15854 -2.42564 0
M  V30 4300 H 413.081 -5.17128 -0.282626 0
M  V30 4301 H 409.758 -3.51133 -2.25858 0
M  V30 4302 H 411.148 -6.7159 0.204235 0
M  V30 4303 N 413.868 0.0150385 -1.57593 0
M  V30 4304 C 414.798 1.01047 -2.10503 0
M  V30 4305 C 415.779 1.36816 -1.01071 0
M  V30 4306 O 416.964 1.45455 -1.28672 0
M  V30 4307 C 414.094 2.30708 -2.59598 0
M  V30 4308 C 413.048 2.09142 -3.73421 0
M  V30 4309 C 412.374 3.44685 -4.08774 0
M  V30 4310 C 413.674 1.46619 -5.01298 0
M  V30 4311 H 415.368 0.569978 -2.93925 0
M  V30 4312 H 412.914 0.272724 -1.41394 0
M  V30 4313 H 414.867 3.00687 -2.95238 0
M  V30 4314 H 413.591 2.76843 -1.73279 0
M  V30 4315 H 412.25 1.41592 -3.38153 0
M  V30 4316 H 411.898 3.88495 -3.195 0
M  V30 4317 H 411.598 3.31077 -4.8545 0
M  V30 4318 H 413.122 4.16004 -4.4696 0
M  V30 4319 H 414.536 2.06535 -5.34805 0
M  V30 4320 H 412.933 1.43544 -5.82679 0
M  V30 4321 H 414.003 0.433611 -4.82957 0
M  V30 4322 N 415.346 1.54954 0.287554 0
M  V30 4323 C 416.278 1.83224 1.37701 0
M  V30 4324 C 417.291 0.715898 1.46215 0
M  V30 4325 O 418.48 0.993565 1.48292 0
M  V30 4326 C 415.58 1.96723 2.75959 0
M  V30 4327 C 414.753 3.27253 2.90215 0
M  V30 4328 C 413.812 3.30998 4.09056 0
M  V30 4329 O 412.838 4.04457 4.00503 0
M  V30 4330 N 414.04 2.57353 5.20336 0
M  V30 4331 H 416.805 2.77254 1.138 0
M  V30 4332 H 414.366 1.54694 0.477652 0
M  V30 4333 H 416.358 1.96615 3.5373 0
M  V30 4334 H 414.928 1.09626 2.92747 0
M  V30 4335 H 414.148 3.40022 1.99447 0
M  V30 4336 H 415.436 4.13365 2.96659 0
M  V30 4337 H 414.834 1.97327 5.30169 0
M  V30 4338 H 413.391 2.62984 5.96391 0
M  V30 4339 N 416.824 -0.551391 1.4764 0
M  V30 4340 C 417.734 -1.68525 1.63207 0
M  V30 4341 C 418.75 -1.6621 0.514815 0
M  V30 4342 O 419.926 -1.85551 0.783113 0
M  V30 4343 C 416.991 -3.05025 1.64805 0
M  V30 4344 C 416.052 -3.18362 2.88 0
M  V30 4345 C 415.285 -4.4835 2.89513 0
M  V30 4346 O 415.508 -5.34163 2.00065 0
M  V30 4347 O 414.442 -4.65602 3.81443 0
M  V30 4348 H 418.268 -1.58333 2.59161 0
M  V30 4349 H 415.853 -0.722063 1.30792 0
M  V30 4350 H 417.735 -3.86245 1.68502 0
M  V30 4351 H 416.41 -3.15587 0.720197 0
M  V30 4352 H 415.317 -2.36518 2.89845 0
M  V30 4353 H 416.65 -3.12707 3.80099 0
M  V30 4354 N 418.302 -1.35869 -0.798587 0
M  V30 4355 C 419.527 -1.32883 -1.59238 0
M  V30 4356 C 419.952 0.0894587 -1.87887 0
M  V30 4357 O 419.31 1.05869 -1.47178 0
M  V30 4358 C 419.358 -2.14892 -2.89575 0
M  V30 4359 O 418.462 -1.53512 -3.82763 0
M  V30 4360 H 417.803 -0.455236 -0.48338 0
M  V30 4361 H 420.333 -1.79024 -0.990539 0
M  V30 4362 H 420.343 -2.27139 -3.38928 0
M  V30 4363 H 419.018 -3.17998 -2.68049 0
M  V30 4364 H 417.595 -1.50153 -3.41334 0
M  V30 4365 N 419.78 1.02168 -1.19998 0
M  V30 4366 C 420.71 2.12488 -0.96804 0
M  V30 4367 C 421.691 1.69799 0.101185 0
M  V30 4368 O 422.876 1.94121 -0.0552993 0
M  V30 4369 C 420.006 3.43479 -0.513776 0
M  V30 4370 C 418.96 3.99884 -1.52566 0
M  V30 4371 C 418.286 5.26582 -0.928214 0
M  V30 4372 C 419.586 4.33861 -2.90795 0
M  V30 4373 H 421.28 2.32149 -1.89069 0
M  V30 4374 H 418.826 1.11564 -0.910468 0
M  V30 4375 H 420.779 4.20036 -0.338774 0
M  V30 4376 H 419.503 3.23561 0.444493 0
M  V30 4377 H 418.162 3.25429 -1.68794 0
M  V30 4378 H 417.81 5.02986 0.0378289 0
M  V30 4379 H 417.51 5.65284 -1.60397 0
M  V30 4380 H 419.034 6.05799 -0.764167 0
M  V30 4381 H 420.448 5.01327 -2.78109 0
M  V30 4382 H 418.845 4.83664 -3.55231 0
M  V30 4383 H 419.915 3.42848 -3.42904 0
M  V30 4384 N 421.258 1.00505 1.21394 0
M  V30 4385 C 422.506 0.686415 1.90086 0
M  V30 4386 C 422.827 -0.785264 1.7849 0
M  V30 4387 O 422.097 -1.56387 1.17983 0
M  V30 4388 H 420.677 0.2509 0.703604 0
M  V30 4389 H 423.339 1.27417 1.47482 0
M  V30 4390 H 422.435 0.959621 2.96981 0
M  V30 4391 N 422.737 -1.36956 0.779787 0
M  V30 4392 C 423.669 -2.28833 0.129639 0
M  V30 4393 C 424.682 -1.4902 -0.655511 0
M  V30 4394 O 425.871 -1.71578 -0.492279 0
M  V30 4395 C 422.971 -3.2833 -0.839792 0
M  V30 4396 C 422.144 -4.3727 -0.10675 0
M  V30 4397 C 421.203 -5.16789 -0.990717 0
M  V30 4398 O 420.229 -5.67406 -0.451516 0
M  V30 4399 N 421.431 -5.32294 -2.3161 0
M  V30 4400 H 424.196 -2.85268 0.918803 0
M  V30 4401 H 421.757 -1.49019 0.632841 0
M  V30 4402 H 423.749 -3.78413 -1.43477 0
M  V30 4403 H 422.319 -2.72605 -1.52988 0
M  V30 4404 H 421.539 -3.88478 0.669216 0
M  V30 4405 H 422.827 -5.07229 0.399464 0
M  V30 4406 H 422.225 -4.92768 -2.77843 0
M  V30 4407 H 420.782 -5.85656 -2.86095 0
M  V30 4408 N 424.215 -0.530993 -1.48385 0
M  V30 4409 C 425.125 0.23503 -2.3342 0
M  V30 4410 C 426.141 0.93801 -1.46552 0
M  V30 4411 O 427.317 0.912745 -1.7953 0
M  V30 4412 C 424.382 1.26778 -3.22689 0
M  V30 4413 C 423.443 0.575038 -4.25431 0
M  V30 4414 C 422.676 1.55858 -5.10435 0
M  V30 4415 O 422.899 2.79129 -4.97437 0
M  V30 4416 O 421.833 1.09742 -5.91811 0
M  V30 4417 H 425.659 -0.461794 -3.00169 0
M  V30 4418 H 423.244 -0.291903 -1.46521 0
M  V30 4419 H 425.126 1.86457 -3.77904 0
M  V30 4420 H 423.801 1.94699 -2.586 0
M  V30 4421 H 422.708 -0.0622782 -3.74048 0
M  V30 4422 H 424.041 -0.062253 -4.92161 0
M  V30 4423 N 425.693 1.55336 -0.266172 0
M  V30 4424 C 426.603 2.2583 0.635458 0
M  V30 4425 C 427.619 1.28106 1.17749 0
M  V30 4426 O 428.795 1.61024 1.20968 0
M  V30 4427 C 425.86 2.95879 1.80712 0
M  V30 4428 C 424.921 4.09059 1.30265 0
M  V30 4429 C 424.154 4.75759 2.41846 0
M  V30 4430 O 424.377 4.41622 3.61007 0
M  V30 4431 O 423.311 5.63888 2.1051 0
M  V30 4432 H 427.137 3.03631 0.0646693 0
M  V30 4433 H 424.722 1.49361 -0.0339177 0
M  V30 4434 H 426.604 3.39932 2.49047 0
M  V30 4435 H 425.279 2.21002 2.36516 0
M  V30 4436 H 424.186 3.69482 0.586019 0
M  V30 4437 H 425.519 4.85811 0.790458 0
M  V30 4438 N 427.171 -0.0066808 1.57599 0
M  V30 4439 C 428.396 -0.707738 1.94951 0
M  V30 4440 C 428.821 -1.66882 0.867868 0
M  V30 4441 O 428.179 -1.80457 -0.17458 0
M  V30 4442 C 428.227 -1.42162 3.31394 0
M  V30 4443 O 427.331 -2.53578 3.25226 0
M  V30 4444 H 426.672 -0.188752 0.636607 0
M  V30 4445 H 429.202 0.0445193 2.04552 0
M  V30 4446 H 429.212 -1.78655 3.66806 0
M  V30 4447 H 427.887 -0.716903 4.09675 0
M  V30 4448 H 426.464 -2.19463 3.01481 0
M  V30 4449 N 428.649 -1.55105 -0.279332 0
M  V30 4450 C 429.581 -1.83952 -1.36727 0
M  V30 4451 C 430.594 -0.723642 -1.45833 0
M  V30 4452 O 431.783 -1.00141 -1.47763 0
M  V30 4453 C 428.883 -1.98183 -2.74912 0
M  V30 4454 C 428.056 -3.28787 -2.88475 0
M  V30 4455 C 427.115 -3.33162 -4.07295 0
M  V30 4456 O 426.141 -4.06576 -3.98353 0
M  V30 4457 N 427.343 -2.60109 -5.18964 0
M  V30 4458 H 430.108 -2.77853 -1.12328 0
M  V30 4459 H 427.669 -1.54945 -0.469442 0
M  V30 4460 H 429.661 -1.98488 -3.52682 0
M  V30 4461 H 428.231 -1.11177 -2.92162 0
M  V30 4462 H 427.451 -3.41075 -1.97641 0
M  V30 4463 H 428.739 -4.14933 -2.94463 0
M  V30 4464 H 428.137 -2.00136 -5.29115 0
M  V30 4465 H 426.694 -2.66143 -5.94988 0
M  V30 4466 N 430.127 0.543554 -1.4793 0
M  V30 4467 C 431.373 1.30201 -1.55485 0
M  V30 4468 C 431.706 1.92925 -0.222201 0
M  V30 4469 O 430.981 1.78586 0.77053 0
M  V30 4470 C 431.264 2.40174 -2.68307 0
M  V30 4471 C 431.117 1.8223 -4.11233 0
M  V30 4472 C 432.436 3.42024 -2.76961 0
M  V30 4473 H 429.555 0.472036 -0.565996 0
M  V30 4474 H 432.197 0.606914 -1.80046 0
M  V30 4475 H 430.347 2.99463 -2.47495 0
M  V30 4476 H 432.019 1.27096 -4.43446 0
M  V30 4477 H 430.262 1.12832 -4.18869 0
M  V30 4478 H 430.933 2.61793 -4.85972 0
M  V30 4479 H 433.409 2.92672 -2.95774 0
M  V30 4480 H 432.285 4.16383 -3.57654 0
M  V30 4481 H 432.546 4.0173 -1.84568 0
M  V30 4482 N 431.605 1.3629 0.791371 0
M  V30 4483 C 432.83 1.33726 1.58531 0
M  V30 4484 C 433.255 -0.0794933 1.87932 0
M  V30 4485 O 432.613 -1.05087 1.47738 0
M  V30 4486 C 432.661 2.16425 2.88431 0
M  V30 4487 O 431.765 1.5554 3.81944 0
M  V30 4488 H 431.106 0.457793 0.480959 0
M  V30 4489 H 433.636 1.79547 0.981031 0
M  V30 4490 H 433.646 2.28933 3.37718 0
M  V30 4491 H 432.321 3.19415 2.66359 0
M  V30 4492 H 430.898 1.51961 3.40532 0
M  V30 4493 N 433.083 -1.0153 1.20538 0
M  V30 4494 C 434.329 -1.75408 1.01783 0
M  V30 4495 C 434.662 -1.88943 -0.448814 0
M  V30 4496 O 433.937 -1.4162 -1.33319 0
M  V30 4497 C 434.22 -3.17255 1.70356 0
M  V30 4498 C 434.073 -3.11508 3.24473 0
M  V30 4499 C 435.392 -4.15955 1.43769 0
M  V30 4500 H 432.511 -0.636713 0.371167 0
M  V30 4501 H 435.153 -1.18436 1.4857 0
M  V30 4502 H 433.303 -3.65898 1.30578 0
M  V30 4503 H 434.975 -2.70658 3.73553 0
M  V30 4504 H 433.218 -2.4887 3.55311 0
M  V30 4505 H 433.889 -4.11784 3.67611 0
M  V30 4506 H 436.365 -3.75973 1.7828 0
M  V30 4507 H 435.241 -5.13368 1.94279 0
M  V30 4508 H 435.502 -4.40586 0.365564 0
M  V30 4509 N 434.561 -1.01147 -1.20859 0
M  V30 4510 C 435.789 -0.716911 -1.94082 0
M  V30 4511 C 436.204 0.721568 -1.74467 0
M  V30 4512 O 435.561 1.48889 -1.05539 0
M  V30 4513 C 435.612 -1.03662 -3.46318 0
M  V30 4514 O 435.333 -2.4186 -3.65288 0
M  V30 4515 C 436.834 -0.762386 -4.36695 0
M  V30 4516 H 434.054 -0.26367 -0.617024 0
M  V30 4517 H 436.598 -1.35127 -1.53496 0
M  V30 4518 H 434.753 -0.447757 -3.84804 0
M  V30 4519 H 435.167 -2.53224 -4.59323 0
M  V30 4520 H 436.641 -1.03621 -5.42187 0
M  V30 4521 H 437.118 0.303514 -4.3815 0
M  V30 4522 H 437.724 -1.33316 -4.03865 0
M  V30 4523 N 436.039 1.36541 -0.78704 0
M  V30 4524 C 437.264 2.0409 -0.369053 0
M  V30 4525 C 437.689 1.58957 1.00569 0
M  V30 4526 O 437.047 0.756926 1.64743 0
M  V30 4527 C 437.095 3.57924 -0.438466 0
M  V30 4528 O 436.199 4.08642 0.555479 0
M  V30 4529 H 435.54 0.645142 -0.157122 0
M  V30 4530 H 438.07 1.74545 -1.06749 0
M  V30 4531 H 438.08 4.06887 -0.301218 0
M  V30 4532 H 436.755 3.90127 -1.44132 0
M  V30 4533 H 435.332 3.70958 0.380088 0
M  V30 4534 N 437.518 0.538854 1.48102 0
M  V30 4535 C 438.481 -0.208395 2.28251 0
M  V30 4536 C 439.481 -0.859656 1.35892 0
M  V30 4537 O 440.671 -0.71834 1.58699 0
M  V30 4538 C 437.803 -1.30252 3.15035 0
M  V30 4539 H 438.996 0.495407 2.9578 0
M  V30 4540 H 436.549 0.295112 1.53489 0
M  V30 4541 H 437.284 -2.0393 2.52157 0
M  V30 4542 H 437.069 -0.840551 3.82985 0
M  V30 4543 H 438.559 -1.82787 3.75471 0
M  V30 4544 N 438.996 -1.55193 0.274407 0
M  V30 4545 C 440.273 -1.91584 -0.394331 0
M  V30 4546 C 440.653 -1.19858 -1.73774 0
M  V30 4547 O 440.001 -0.3252 -2.26174 0
M  V30 4548 C 440.211 -3.4487 -0.535311 0
M  V30 4549 C 441.559 -4.16636 -0.818534 0
M  V30 4550 O 442.583 -3.5076 -0.620146 0
M  V30 4551 O 441.442 -5.33209 -1.19792 0
M  V30 4552 H 438.536 -0.798349 -0.215794 0
M  V30 4553 H 441.082 -1.66646 0.320507 0
M  V30 4554 H 439.854 -3.89145 0.410141 0
M  V30 4555 H 439.477 -3.75759 -1.29964 0
M  V30 4556 N 440.474 -0.00167713 -1.576 0
M  V30 4557 C 441.885 0.54091 -1.78693 0
M  V30 4558 C 442.236 1.7386 -0.909247 0
M  V30 4559 O 441.361 2.16109 -0.112176 0
M  V30 4560 C 441.956 0.98806 -3.24072 0
M  V30 4561 C 440.515 1.47594 -3.46256 0
M  V30 4562 C 439.662 0.42792 -2.73978 0
M  V30 4563 H 442.613 -0.22784 -1.57056 0
M  V30 4564 H 442.634 1.85398 -3.32277 0
M  V30 4565 H 442.146 0.116164 -3.87926 0
M  V30 4566 H 440.247 2.36868 -2.87618 0
M  V30 4567 H 440.36 1.50225 -4.54939 0
M  V30 4568 H 438.724 0.889934 -2.38647 0
M  V30 4569 H 439.507 -0.435038 -3.40532 0
M  V30 4570 N 441.952 1.55251 0.271103 0
M  V30 4571 C 443.198 1.76207 1.00394 0
M  V30 4572 C 443.531 0.562604 1.85872 0
M  V30 4573 O 442.806 -0.439785 1.89463 0
M  V30 4574 C 443.089 3.06828 1.8849 0
M  V30 4575 C 442.942 4.37134 1.05992 0
M  V30 4576 C 444.261 3.33503 2.87165 0
M  V30 4577 H 441.38 0.641086 0.363562 0
M  V30 4578 H 444.022 1.87982 0.276189 0
M  V30 4579 H 442.172 2.96921 2.5054 0
M  V30 4580 H 443.844 4.59001 0.459978 0
M  V30 4581 H 442.087 4.32275 0.363443 0
M  V30 4582 H 442.758 5.2486 1.70955 0
M  V30 4583 H 445.234 3.43215 2.3525 0
M  V30 4584 H 444.11 4.2616 3.45946 0
M  V30 4585 H 444.371 2.53235 3.62387 0
M  V30 4586 N 443.43 -0.535701 1.48216 0
M  V30 4587 C 444.677 -1.29183 1.55942 0
M  V30 4588 C 445.005 -1.93125 0.230857 0
M  V30 4589 O 444.26 -1.79556 -0.778331 0
M  V30 4590 C 444.559 -2.4068 2.64212 0
M  V30 4591 C 444.225 -1.94428 4.06827 0
M  V30 4592 C 442.887 -1.81532 4.45645 0
M  V30 4593 C 445.239 -1.59405 4.96225 0
M  V30 4594 C 442.567 -1.31939 5.71672 0
M  V30 4595 C 444.919 -1.11276 6.22736 0
M  V30 4596 C 443.583 -0.969924 6.60416 0
M  V30 4597 H 442.853 -0.472715 0.570632 0
M  V30 4598 H 445.5 -0.598437 1.81909 0
M  V30 4599 H 443.805 -3.15666 2.32083 0
M  V30 4600 H 445.502 -2.98822 2.67407 0
M  V30 4601 H 442.092 -2.05415 3.76168 0
M  V30 4602 H 446.276 -1.68231 4.66917 0
M  V30 4603 H 441.532 -1.19562 5.99596 0
M  V30 4604 H 445.706 -0.832453 6.91407 0
M  V30 4605 H 443.333 -0.583436 7.57958 0
M  V30 4606 N 444.908 -1.36708 -0.784132 0
M  V30 4607 C 445.84 -1.27333 -1.90575 0
M  V30 4608 C 446.853 -0.191706 -1.61667 0
M  V30 4609 O 448.042 -0.446854 -1.72816 0
M  V30 4610 C 445.142 -0.943177 -3.25511 0
M  V30 4611 C 444.315 -2.12776 -3.82158 0
M  V30 4612 C 443.374 -1.76983 -4.95544 0
M  V30 4613 O 442.4 -2.49134 -5.11782 0
M  V30 4614 N 443.602 -0.706624 -5.76183 0
M  V30 4615 H 446.367 -2.23974 -1.99138 0
M  V30 4616 H 443.928 -1.30171 -0.962656 0
M  V30 4617 H 445.92 -0.684799 -3.98864 0
M  V30 4618 H 444.49 -0.0657333 -3.12531 0
M  V30 4619 H 443.71 -2.54863 -3.0073 0
M  V30 4620 H 444.998 -2.91904 -4.16737 0
M  V30 4621 H 444.396 -0.107643 -5.65598 0
M  V30 4622 H 442.953 -0.50808 -6.49817 0
M  V30 4623 N 446.386 1.0089 -1.21074 0
M  V30 4624 C 447.632 1.74866 -1.02712 0
M  V30 4625 C 447.965 1.89178 0.438787 0
M  V30 4626 O 447.24 1.42325 1.32567 0
M  V30 4627 C 447.523 3.16347 -1.72036 0
M  V30 4628 C 447.376 3.09782 -3.26121 0
M  V30 4629 C 448.695 4.15187 -1.45973 0
M  V30 4630 H 445.814 0.634736 -0.374539 0
M  V30 4631 H 448.456 1.17646 -1.49196 0
M  V30 4632 H 446.606 3.65201 -1.32517 0
M  V30 4633 H 448.278 2.68673 -3.74983 0
M  V30 4634 H 446.521 2.46982 -3.56626 0
M  V30 4635 H 447.192 4.09829 -3.6979 0
M  V30 4636 H 449.668 3.75022 -1.80272 0
M  V30 4637 H 448.544 5.12331 -1.96999 0
M  V30 4638 H 448.805 4.40386 -0.388924 0
M  V30 4639 N 447.864 1.01787 1.20321 0
M  V30 4640 C 449.275 0.739307 1.71438 0
M  V30 4641 C 449.626 -0.742041 1.81627 0
M  V30 4642 O 448.751 -1.57903 1.47971 0
M  V30 4643 C 449.346 1.33538 3.11373 0
M  V30 4644 C 447.905 1.10566 3.59795 0
M  V30 4645 C 447.052 1.44028 2.36962 0
M  V30 4646 H 450.003 1.18718 1.05317 0
M  V30 4647 H 450.024 0.726611 3.73498 0
M  V30 4648 H 449.536 2.41352 3.03926 0
M  V30 4649 H 447.637 0.0452405 3.72573 0
M  V30 4650 H 447.75 1.78661 4.44542 0
M  V30 4651 H 446.114 0.85933 2.39766 0
M  V30 4652 H 446.897 2.52901 2.32155 0
M  V30 4653 N 449.342 -1.36122 0.79427 0
M  V30 4654 C 450.591 -1.98361 0.365464 0
M  V30 4655 C 450.904 -1.6374 -1.06997 0
M  V30 4656 O 452.11 -2.19251 -1.60129 0
M  V30 4657 C 450.566 -3.54821 0.602496 0
M  V30 4658 C 450.174 -3.98362 2.04967 0
M  V30 4659 C 451.918 -4.2383 0.238437 0
M  V30 4660 C 449.825 -5.47619 2.2331 0
M  V30 4661 H 448.755 -0.742193 0.13291 0
M  V30 4662 H 451.406 -1.55354 0.976589 0
M  V30 4663 H 449.788 -3.95922 -0.078409 0
M  V30 4664 H 450.962 -3.68447 2.76737 0
M  V30 4665 H 449.277 -3.42206 2.37243 0
M  V30 4666 H 451.874 -5.33529 0.353705 0
M  V30 4667 H 452.217 -4.08264 -0.814006 0
M  V30 4668 H 452.75 -3.88108 0.872769 0
M  V30 4669 H 449.489 -5.68138 3.26955 0
M  V30 4670 H 449.009 -5.79145 1.5605 0
M  V30 4671 H 450.688 -6.13911 2.0426 0
M  V30 4672 N 450.82 -0.546701 -1.47814 0
M  V30 4673 C 452.045 -0.021268 -2.07389 0
M  V30 4674 C 452.47 1.25822 -1.39822 0
M  V30 4675 O 451.828 1.75111 -0.46968 0
M  V30 4676 C 451.876 0.168502 -3.60206 0
M  V30 4677 O 450.98 1.23347 -3.93522 0
M  V30 4678 H 450.321 -0.0466108 -0.662362 0
M  V30 4679 H 452.851 -0.759387 -1.89985 0
M  V30 4680 H 452.861 0.385982 -4.0617 0
M  V30 4681 H 451.536 -0.766075 -4.08784 0
M  V30 4682 H 450.113 0.997319 -3.59316 0
M  V30 4683 N 452.299 1.55045 -0.282633 0
M  V30 4684 C 453.246 2.22822 0.601566 0
M  V30 4685 C 454.216 1.20431 1.14392 0
M  V30 4686 O 455.401 1.48996 1.19184 0
M  V30 4687 C 452.541 2.95873 1.77632 0
M  V30 4688 C 451.654 4.12999 1.26711 0
M  V30 4689 C 450.789 4.73676 2.40426 0
M  V30 4690 C 449.828 5.82981 1.86545 0
M  V30 4691 N 448.965 6.3769 2.93762 0
M  V30 4692 H 453.805 2.97995 0.0169528 0
M  V30 4693 H 451.342 1.471 -0.00339964 0
M  V30 4694 H 453.3 3.36447 2.46697 0
M  V30 4695 H 451.93 2.2311 2.33285 0
M  V30 4696 H 450.982 3.77494 0.469314 0
M  V30 4697 H 452.294 4.91803 0.832518 0
M  V30 4698 H 451.448 5.17008 3.17471 0
M  V30 4699 H 450.187 3.94164 2.87203 0
M  V30 4700 H 449.192 5.39092 1.07983 0
M  V30 4701 H 450.417 6.64366 1.40694 0
M  V30 4702 H 448.363 5.61069 3.39908 0
M  V30 4703 H 448.28 7.11788 2.54744 0
M  V30 4704 H 449.548 6.8568 3.7076 0
M  V30 4705 N 453.777 0.010035 1.57597 0
M  V30 4706 C 454.74 -0.963029 2.07986 0
M  V30 4707 C 455.74 -1.26619 0.991173 0
M  V30 4708 O 456.93 -1.2097 1.25347 0
M  V30 4709 C 454.062 -2.2851 2.52974 0
M  V30 4710 H 455.255 -0.526971 2.95234 0
M  V30 4711 H 452.808 -0.237639 1.54483 0
M  V30 4712 H 453.543 -2.76784 1.69 0
M  V30 4713 H 453.328 -2.07824 3.32493 0
M  V30 4714 H 454.818 -2.98294 2.9225 0
M  V30 4715 N 455.255 -1.55392 -0.262866 0
M  V30 4716 C 456.501 -1.76737 -0.99458 0
M  V30 4717 C 456.834 -0.572453 -1.85571 0
M  V30 4718 O 456.109 0.429732 -1.89693 0
M  V30 4719 C 456.392 -3.07824 -1.8686 0
M  V30 4720 C 456.245 -4.3769 -1.03672 0
M  V30 4721 C 457.564 -3.35021 -2.85393 0
M  V30 4722 H 454.683 -0.643005 -0.360157 0
M  V30 4723 H 457.325 -1.88126 -0.266216 0
M  V30 4724 H 455.475 -2.98245 -2.48962 0
M  V30 4725 H 457.147 -4.59238 -0.43563 0
M  V30 4726 H 455.39 -4.32461 -0.340513 0
M  V30 4727 H 456.061 -5.25759 -1.6817 0
M  V30 4728 H 458.537 -3.44458 -2.33426 0
M  V30 4729 H 457.413 -4.27989 -3.43681 0
M  V30 4730 H 457.674 -2.55153 -3.61039 0
M  V30 4731 N 456.733 0.527833 -1.48498 0
M  V30 4732 C 457.665 1.6482 -1.5927 0
M  V30 4733 C 458.678 1.55659 -0.476869 0
M  V30 4734 O 459.867 1.62081 -0.747806 0
M  V30 4735 C 456.967 3.0348 -1.50842 0
M  V30 4736 C 456.14 3.381 -2.77502 0
M  V30 4737 C 455.199 4.5605 -2.62497 0
M  V30 4738 O 454.225 4.59165 -3.36387 0
M  V30 4739 N 455.427 5.54353 -1.72257 0
M  V30 4740 H 458.192 1.56015 -2.55889 0
M  V30 4741 H 455.753 0.715152 -1.45249 0
M  V30 4742 H 457.745 3.80264 -1.38496 0
M  V30 4743 H 456.315 3.06352 -0.621887 0
M  V30 4744 H 455.535 2.50473 -3.04396 0
M  V30 4745 H 456.823 3.58017 -3.61527 0
M  V30 4746 H 456.221 5.54617 -1.11431 0
M  V30 4747 H 454.778 6.30347 -1.65849 0
M  V30 4748 N 458.211 1.37122 0.776871 0
M  V30 4749 C 459.141 1.35164 1.90402 0
M  V30 4750 C 460.122 0.221069 1.68657 0
M  V30 4751 O 461.307 0.420642 1.8959 0
M  V30 4752 C 458.437 1.15274 3.27611 0
M  V30 4753 C 457.391 2.25289 3.63908 0
M  V30 4754 C 456.717 1.90527 4.99603 0
M  V30 4755 C 458.017 3.67446 3.71188 0
M  V30 4756 H 459.711 2.29482 1.92297 0
M  V30 4757 H 457.257 1.10465 0.923773 0
M  V30 4758 H 459.21 1.12536 4.06096 0
M  V30 4759 H 457.934 0.174102 3.26136 0
M  V30 4760 H 456.593 2.27174 2.87728 0
M  V30 4761 H 456.241 0.91206 4.94662 0
M  V30 4762 H 455.941 2.64193 5.24858 0
M  V30 4763 H 457.465 1.89367 5.80493 0
M  V30 4764 H 458.879 3.67719 4.39836 0
M  V30 4765 H 457.276 4.40123 4.07936 0
M  V30 4766 H 458.346 4.01443 2.71977 0
M  V30 4767 N 459.689 -1.00246 1.21608 0
M  V30 4768 C 460.917 -1.77631 1.06089 0
M  V30 4769 C 461.332 -1.84746 -0.38916 0
M  V30 4770 O 460.689 -1.31068 -1.26994 0
M  V30 4771 C 460.74 -3.21415 1.65453 0
M  V30 4772 O 460.461 -3.14703 3.04785 0
M  V30 4773 C 461.962 -4.15289 1.55079 0
M  V30 4774 H 459.182 -0.558162 0.37242 0
M  V30 4775 H 461.726 -1.26093 1.60999 0
M  V30 4776 H 459.881 -3.70053 1.14629 0
M  V30 4777 H 460.295 -4.05056 3.33212 0
M  V30 4778 H 461.769 -5.13965 2.01355 0
M  V30 4779 H 462.246 -4.36279 0.505665 0
M  V30 4780 H 462.852 -3.72543 2.05163 0
M  V30 4781 N 461.167 -1.02423 -1.1978 0
M  V30 4782 C 462.395 -0.737456 -1.93311 0
M  V30 4783 C 462.81 0.703023 -1.75223 0
M  V30 4784 O 462.167 1.47761 -1.07112 0
M  V30 4785 C 462.218 -1.0733 -3.45199 0
M  V30 4786 O 461.939 -2.4572 -3.62702 0
M  V30 4787 C 463.44 -0.80866 -4.35862 0
M  V30 4788 H 460.66 -0.2702 -0.614193 0
M  V30 4789 H 463.204 -1.36747 -1.52054 0
M  V30 4790 H 461.359 -0.488545 -3.84307 0
M  V30 4791 H 461.773 -2.58081 -4.56612 0
M  V30 4792 H 463.247 -1.09365 -5.41057 0
M  V30 4793 H 463.724 0.257025 -4.38447 0
M  V30 4794 H 464.33 -1.37592 -4.02428 0
M  V30 4795 N 462.645 1.35699 -0.801477 0
M  V30 4796 C 463.593 2.3177 -0.196317 0
M  V30 4797 C 464.587 1.56388 0.651081 0
M  V30 4798 O 465.793 1.71557 0.544815 0
M  V30 4799 H 462.168 0.750669 -0.0447189 0
M  V30 4800 H 464.139 2.8036 -1.02181 0
M  V30 4801 C 462.888 3.41671 0.644702 0
M  V30 4802 H 462.211 3.998 0.0019921 0
M  V30 4803 H 463.651 4.11184 1.0346 0
M  V30 4804 C 462.11 2.84271 1.80808 0
M  V30 4805 O 462.64 2.77408 2.9053 0
M  V30 4806 N 460.846 2.41391 1.61799 0
M  V30 4807 H 460.393 2.47173 0.725493 0
M  V30 4808 H 460.351 2.03334 2.39797 0
M  V30 4809 N 464.123 0.554532 1.47522 0
M  V30 4810 C 465.4 -0.0360704 1.95567 0
M  V30 4811 C 465.78 -1.48828 1.49711 0
M  V30 4812 O 465.128 -2.16366 0.734717 0
M  V30 4813 C 465.338 0.106631 3.48837 0
M  V30 4814 C 466.686 -0.0400899 4.24581 0
M  V30 4815 O 467.71 0.0340453 3.56184 0
M  V30 4816 O 466.569 -0.199111 5.46137 0
M  V30 4817 H 463.663 -0.0656294 0.824392 0
M  V30 4818 H 466.209 0.620867 1.57935 0
M  V30 4819 H 464.981 1.11727 3.7501 0
M  V30 4820 H 464.604 -0.58804 3.93227 0
M  V30 4821 N 465.601 -1.54893 0.290851 0
M  V30 4822 C 466.564 -2.21824 -0.576784 0
M  V30 4823 C 467.564 -1.20104 -1.06919 0
M  V30 4824 O 468.754 -1.44906 -0.966843 0
M  V30 4825 C 465.886 -2.89662 -1.79747 0
M  V30 4826 H 467.079 -2.99899 0.00784051 0
M  V30 4827 H 464.632 -1.56245 0.0415934 0
M  V30 4828 H 465.367 -2.15639 -2.42219 0
M  V30 4829 H 465.152 -3.64219 -1.45214 0
M  V30 4830 H 466.642 -3.4075 -2.4141 0
M  V30 4831 N 467.08 -0.0183926 -1.57589 0
M  V30 4832 C 468.329 0.66185 -1.90532 0
M  V30 4833 C 468.642 1.73904 -0.895366 0
M  V30 4834 O 469.848 2.47518 -1.11566 0
M  V30 4835 C 468.304 1.22844 -3.38286 0
M  V30 4836 C 467.912 0.185103 -4.47617 0
M  V30 4837 C 469.656 1.88581 -3.80312 0
M  V30 4838 C 467.563 0.762723 -5.86461 0
M  V30 4839 H 466.493 0.250972 -0.711006 0
M  V30 4840 H 469.144 -0.0819435 -1.83317 0
M  V30 4841 H 467.526 2.0235 -3.40398 0
M  V30 4842 H 468.7 -0.58671 -4.5705 0
M  V30 4843 H 467.015 -0.372889 -4.14727 0
M  V30 4844 H 469.612 2.32735 -4.81392 0
M  V30 4845 H 469.955 2.72408 -3.14801 0
M  V30 4846 H 470.488 1.15782 -3.80578 0
M  V30 4847 H 467.227 -0.0371713 -6.55489 0
M  V30 4848 H 466.747 1.50327 -5.80656 0
M  V30 4849 H 468.426 1.25576 -6.34697 0
M  V30 4850 N 468.558 1.5553 0.254621 0
M  V30 4851 C 469.505 1.89666 1.31512 0
M  V30 4852 C 470.475 0.750057 1.482 0
M  V30 4853 O 471.66 1.00301 1.62309 0
M  V30 4854 C 468.8 2.19009 2.667 0
M  V30 4855 C 467.913 3.46435 2.58083 0
M  V30 4856 C 467.048 3.65386 3.85573 0
M  V30 4857 C 466.087 4.8644 3.71541 0
M  V30 4858 N 465.224 5.01952 4.90906 0
M  V30 4859 H 470.064 2.80109 1.017 0
M  V30 4860 H 467.601 1.38666 0.490938 0
M  V30 4861 H 469.559 2.34025 3.45381 0
M  V30 4862 H 468.189 1.31779 2.94676 0
M  V30 4863 H 467.241 3.39792 1.71013 0
M  V30 4864 H 468.553 4.35258 2.43622 0
M  V30 4865 H 467.707 3.80319 4.72697 0
M  V30 4866 H 466.446 2.74781 4.02922 0
M  V30 4867 H 465.451 4.71491 2.82801 0
M  V30 4868 H 466.676 5.78497 3.55694 0
M  V30 4869 H 464.622 4.14283 5.08631 0
M  V30 4870 H 464.539 5.84851 4.79046 0
M  V30 4871 H 465.807 5.21289 5.7955 0
M  V30 4872 N 470.036 -0.519951 1.48776 0
M  V30 4873 C 471.264 -1.29971 1.60982 0
M  V30 4874 C 471.679 -1.86803 0.273885 0
M  V30 4875 O 471.036 -1.66904 -0.738193 0
M  V30 4876 C 471.087 -2.44346 2.66415 0
M  V30 4877 O 470.808 -1.89855 3.94825 0
M  V30 4878 C 472.309 -3.36014 2.89153 0
M  V30 4879 H 469.529 -0.394891 0.542496 0
M  V30 4880 H 472.073 -0.626214 1.94676 0
M  V30 4881 H 470.228 -3.07562 2.35552 0
M  V30 4882 H 470.642 -2.64798 4.5275 0
M  V30 4883 H 472.116 -4.12593 3.66703 0
M  V30 4884 H 472.593 -3.91859 1.98351 0
M  V30 4885 H 473.199 -2.78582 3.21359 0
M  V30 4886 N 471.514 -1.37532 -0.769588 0
M  V30 4887 C 472.742 -1.36059 -1.55871 0
M  V30 4888 C 473.157 0.053544 -1.88724 0
M  V30 4889 O 472.514 1.01591 -1.5161 0
M  V30 4890 C 472.565 -2.20107 -2.86767 0
M  V30 4891 O 472.286 -3.56009 -2.55321 0
M  V30 4892 C 473.787 -2.26636 -3.80987 0
M  V30 4893 H 471.007 -0.465967 -0.482821 0
M  V30 4894 H 473.551 -1.80901 -0.953686 0
M  V30 4895 H 471.706 -1.78768 -3.43687 0
M  V30 4896 H 472.12 -4.0009 -3.39158 0
M  V30 4897 H 473.594 -2.89763 -4.69831 0
M  V30 4898 H 474.071 -1.2754 -4.20274 0
M  V30 4899 H 474.677 -2.68296 -3.29996 0
M  V30 4900 N 472.992 0.995999 -1.22138 0
M  V30 4901 C 473.922 2.10387 -1.01289 0
M  V30 4902 C 474.903 1.69975 0.0651454 0
M  V30 4903 O 476.088 1.9396 -0.0964628 0
M  V30 4904 C 473.218 3.42312 -0.586517 0
M  V30 4905 C 472.172 3.96558 -1.61014 0
M  V30 4906 C 471.498 5.24494 -1.0397 0
M  V30 4907 C 472.798 4.27595 -2.99933 0
M  V30 4908 H 474.492 2.28086 -1.93951 0
M  V30 4909 H 472.038 1.09607 -0.933928 0
M  V30 4910 H 473.991 4.19223 -0.427793 0
M  V30 4911 H 472.715 3.24431 0.375761 0
M  V30 4912 H 471.374 3.21776 -1.75658 0
M  V30 4913 H 471.022 5.02953 -0.0688703 0
M  V30 4914 H 470.722 5.61755 -1.72352 0
M  V30 4915 H 472.246 6.04042 -0.892494 0
M  V30 4916 H 473.66 4.95315 -2.8868 0
M  V30 4917 H 472.057 4.76021 -3.6541 0
M  V30 4918 H 473.127 3.35498 -3.50099 0
M  V30 4919 N 474.47 1.03057 1.19235 0
M  V30 4920 C 475.4 0.633497 2.24742 0
M  V30 4921 C 476.381 -0.358335 1.66283 0
M  V30 4922 O 477.566 -0.240676 1.92703 0
M  V30 4923 C 474.696 -0.0147648 3.47297 0
M  V30 4924 C 473.65 0.899527 4.18441 0
M  V30 4925 C 472.976 0.116281 5.34574 0
M  V30 4926 C 474.276 2.21404 4.73051 0
M  V30 4927 H 475.97 1.5155 2.58211 0
M  V30 4928 H 473.516 0.73014 1.24117 0
M  V30 4929 H 475.469 -0.304202 4.20301 0
M  V30 4930 H 474.193 -0.931577 3.13032 0
M  V30 4931 H 472.852 1.17319 3.47321 0
M  V30 4932 H 472.5 -0.802619 4.96555 0
M  V30 4933 H 472.2 0.725293 5.83107 0
M  V30 4934 H 473.724 -0.166376 6.10373 0
M  V30 4935 H 475.138 1.98601 5.37802 0
M  V30 4936 H 473.535 2.77512 5.32078 0
M  V30 4937 H 474.605 2.86752 3.91026 0
M  V30 4938 N 475.948 -1.35272 0.808662 0
M  V30 4939 C 477.194 -1.99003 0.390581 0
M  V30 4940 C 477.527 -1.63999 -1.0401 0
M  V30 4941 O 476.802 -0.904368 -1.72196 0
M  V30 4942 C 477.085 -3.55454 0.576566 0
M  V30 4943 C 476.938 -4.00249 2.05233 0
M  V30 4944 C 478.257 -4.401 0.00354277 0
M  V30 4945 H 475.376 -0.722917 0.143388 0
M  V30 4946 H 478.018 -1.6039 1.01858 0
M  V30 4947 H 476.168 -3.88477 0.0419766 0
M  V30 4948 H 477.84 -3.77626 2.64946 0
M  V30 4949 H 476.083 -3.51082 2.54801 0
M  V30 4950 H 476.754 -5.0911 2.13333 0
M  V30 4951 H 479.23 -4.13548 0.460117 0
M  V30 4952 H 478.106 -5.48656 0.163575 0
M  V30 4953 H 478.367 -4.28444 -1.09032 0
M  V30 4954 N 477.426 -0.562348 -1.47226 0
M  V30 4955 C 478.336 0.185466 -2.33866 0
M  V30 4956 C 479.352 0.906713 -1.48508 0
M  V30 4957 O 480.528 0.874458 -1.81425 0
M  V30 4958 C 477.593 1.19904 -3.25306 0
M  V30 4959 C 476.654 0.484669 -4.26555 0
M  V30 4960 C 475.887 1.44996 -5.13626 0
M  V30 4961 O 476.11 2.68515 -5.03245 0
M  V30 4962 O 475.044 0.971642 -5.94006 0
M  V30 4963 H 478.87 -0.525361 -2.99121 0
M  V30 4964 H 476.455 -0.322916 -1.45868 0
M  V30 4965 H 478.337 1.78399 -3.81774 0
M  V30 4966 H 477.012 1.8917 -2.62672 0
M  V30 4967 H 475.919 -0.141605 -3.73832 0
M  V30 4968 H 477.252 -0.166634 -4.91918 0
M  V30 4969 N 478.904 1.54736 -0.299062 0
M  V30 4970 C 479.834 2.26409 0.571085 0
M  V30 4971 C 480.815 1.2629 1.13951 0
M  V30 4972 O 482 1.55059 1.16921 0
M  V30 4973 C 479.13 3.00338 1.74396 0
M  V30 4974 C 478.084 4.07588 1.30599 0
M  V30 4975 C 477.41 4.69222 2.56387 0
M  V30 4976 C 478.71 5.20455 0.438645 0
M  V30 4977 H 480.404 2.99388 -0.0266991 0
M  V30 4978 H 477.95 1.43993 -0.0142812 0
M  V30 4979 H 479.903 3.49198 2.35878 0
M  V30 4980 H 478.627 2.24934 2.36796 0
M  V30 4981 H 477.286 3.59575 0.71424 0
M  V30 4982 H 476.934 3.9046 3.17097 0
M  V30 4983 H 476.634 5.41653 2.27784 0
M  V30 4984 H 478.158 5.20844 3.18675 0
M  V30 4985 H 479.572 5.65221 0.959085 0
M  V30 4986 H 477.969 5.99594 0.246466 0
M  V30 4987 H 479.039 4.8192 -0.536738 0
M  V30 4988 N 480.382 0.0267497 1.57577 0
M  V30 4989 C 481.659 -0.690926 1.82991 0
M  V30 4990 C 482.039 -1.90471 0.910164 0
M  V30 4991 O 481.387 -2.28474 -0.0347985 0
M  V30 4992 C 481.597 -1.07139 3.32148 0
M  V30 4993 C 482.945 -1.46402 3.98562 0
M  V30 4994 O 483.969 -1.16443 3.36629 0
M  V30 4995 O 482.828 -2.02214 5.07712 0
M  V30 4996 H 479.922 -0.338747 0.75444 0
M  V30 4997 H 482.468 0.0542506 1.69613 0
M  V30 4998 H 481.24 -0.207394 3.9075 0
M  V30 4999 H 480.863 -1.87481 3.50623 0
M  V30 5000 N 481.861 -1.55662 -0.24637 0
M  V30 5001 C 483.11 -1.7672 -0.972254 0
M  V30 5002 C 483.423 -0.59078 -1.86465 0
M  V30 5003 O 484.629 -0.684391 -2.62732 0
M  V30 5004 C 483.085 -3.12869 -1.7788 0
M  V30 5005 C 482.693 -4.38161 -0.933768 0
M  V30 5006 C 484.437 -3.43265 -2.49738 0
M  V30 5007 C 482.344 -5.6534 -1.73623 0
M  V30 5008 H 481.274 -0.658795 -0.366749 0
M  V30 5009 H 483.925 -1.82092 -0.226902 0
M  V30 5010 H 482.307 -3.01606 -2.56612 0
M  V30 5011 H 483.481 -4.60413 -0.188736 0
M  V30 5012 H 481.796 -4.15102 -0.328488 0
M  V30 5013 H 484.393 -4.35501 -3.10231 0
M  V30 5014 H 484.736 -2.64614 -3.2138 0
M  V30 5015 H 485.269 -3.55746 -1.78016 0
M  V30 5016 H 482.008 -6.46814 -1.06354 0
M  V30 5017 H 481.528 -5.47188 -2.45653 0
M  V30 5018 H 483.207 -6.04616 -2.30323 0
M  V30 5019 N 483.339 0.512053 -1.4905 0
M  V30 5020 C 484.564 1.2959 -1.6193 0
M  V30 5021 C 484.989 1.85906 -0.286454 0
M  V30 5022 O 484.347 1.65312 0.744426 0
M  V30 5023 C 484.395 2.40987 -2.68249 0
M  V30 5024 O 483.499 3.44531 -2.26654 0
M  V30 5025 H 482.84 0.383053 -0.542371 0
M  V30 5026 H 485.37 0.614231 -1.95162 0
M  V30 5027 H 485.38 2.86913 -2.90078 0
M  V30 5028 H 484.055 1.99361 -3.65004 0
M  V30 5029 H 482.632 3.046 -2.15112 0
M  V30 5030 N 484.817 1.37938 0.762283 0
M  V30 5031 C 485.765 1.34569 1.89721 0
M  V30 5032 C 486.759 0.232929 1.67791 0
M  V30 5033 O 487.965 0.401485 1.75465 0
M  V30 5034 H 484.34 0.419594 0.624055 0
M  V30 5035 H 486.311 2.30357 1.8968 0
M  V30 5036 C 485.06 1.17898 3.27101 0
M  V30 5037 H 484.383 2.02781 3.44558 0
M  V30 5038 H 485.823 1.19593 4.06784 0
M  V30 5039 C 484.282 -0.114728 3.36705 0
M  V30 5040 O 484.812 -1.0949 3.8649 0
M  V30 5041 N 483.018 -0.16863 2.9011 0
M  V30 5042 H 482.565 0.62967 2.49786 0
M  V30 5043 H 482.523 -1.03383 2.96916 0
M  V30 5044 N 486.295 -0.989507 1.22664 0
M  V30 5045 C 487.523 -1.76496 1.07967 0
M  V30 5046 C 487.938 -1.85148 -0.369543 0
M  V30 5047 O 487.295 -1.32408 -1.25596 0
M  V30 5048 C 487.346 -3.19642 1.68853 0
M  V30 5049 O 487.067 -3.11453 3.08105 0
M  V30 5050 C 488.568 -4.13621 1.59475 0
M  V30 5051 H 485.788 -0.55418 0.378319 0
M  V30 5052 H 488.332 -1.24378 1.62328 0
M  V30 5053 H 486.487 -3.68816 1.18547 0
M  V30 5054 H 486.901 -4.01499 3.37489 0
M  V30 5055 H 488.375 -5.11801 2.06795 0
M  V30 5056 H 488.852 -4.35718 0.55191 0
M  V30 5057 H 489.458 -3.70346 2.09103 0
M  V30 5058 N 487.773 -1.03688 -1.18687 0
M  V30 5059 C 489.05 -0.652397 -1.84399 0
M  V30 5060 C 489.43 0.868386 -1.92412 0
M  V30 5061 O 488.778 1.76832 -1.44716 0
M  V30 5062 C 488.988 -1.3238 -3.22919 0
M  V30 5063 C 490.336 -1.45216 -3.98996 0
M  V30 5064 O 491.36 -1.2816 -3.32345 0
M  V30 5065 O 490.219 -1.72975 -5.18403 0
M  V30 5066 H 487.313 -0.227793 -0.795009 0
M  V30 5067 H 489.859 -1.13553 -1.2611 0
M  V30 5068 H 488.631 -2.36202 -3.11968 0
M  V30 5069 H 488.254 -0.829039 -3.88861 0
M  V30 5070 N 489.251 1.34841 -0.815825 0
M  V30 5071 C 490.498 1.98499 -0.400535 0
M  V30 5072 C 490.826 1.64699 1.03463 0
M  V30 5073 O 490.081 0.907006 1.73412 0
M  V30 5074 C 490.38 3.53273 -0.541541 0
M  V30 5075 C 490.046 4.06966 -1.94138 0
M  V30 5076 C 488.708 4.21341 -2.32433 0
M  V30 5077 C 491.06 4.35933 -2.85677 0
M  V30 5078 C 488.388 4.62007 -3.61617 0
M  V30 5079 C 490.74 4.78042 -4.14317 0
M  V30 5080 C 489.404 4.90622 -4.52599 0
M  V30 5081 H 488.674 0.72636 -0.146566 0
M  V30 5082 H 491.321 1.60902 -1.0384 0
M  V30 5083 H 489.626 3.91387 0.179741 0
M  V30 5084 H 491.323 4.00497 -0.20085 0
M  V30 5085 H 487.913 3.96235 -1.63388 0
M  V30 5086 H 492.097 4.24372 -2.57337 0
M  V30 5087 H 487.353 4.69937 -3.91113 0
M  V30 5088 H 491.527 4.99415 -4.85342 0
M  V30 5089 H 489.154 5.2189 -5.52752 0
M  V30 5090 N 490.729 0.570148 1.46925 0
M  V30 5091 C 491.954 0.0542592 2.07329 0
M  V30 5092 C 492.379 -1.23582 1.41806 0
M  V30 5093 O 491.737 -1.74341 0.497479 0
M  V30 5094 C 491.785 -0.111175 3.60429 0
M  V30 5095 O 490.889 -1.17071 3.95434 0
M  V30 5096 H 490.23 0.0571425 0.661537 0
M  V30 5097 H 492.76 0.789516 1.88753 0
M  V30 5098 H 492.77 -0.321315 4.06733 0
M  V30 5099 H 491.445 0.831012 4.07513 0
M  V30 5100 H 490.022 -0.940029 3.60857 0
M  V30 5101 N 492.207 -1.54576 0.307264 0
M  V30 5102 C 493.437 -2.04378 -0.302158 0
M  V30 5103 C 493.845 -1.18381 -1.47589 0
M  V30 5104 O 493.188 -0.20352 -1.82569 0
M  V30 5105 C 493.25 -3.50133 -0.815305 0
M  V30 5106 C 492.914 -4.56401 0.233977 0
M  V30 5107 C 493.911 -5.08884 1.06456 0
M  V30 5108 C 491.596 -5.0088 0.377478 0
M  V30 5109 C 493.59 -6.04394 2.02452 0
M  V30 5110 C 491.277 -5.96208 1.34088 0
M  V30 5111 C 492.275 -6.47849 2.16288 0
M  V30 5112 O 491.963 -7.41308 3.10994 0
M  V30 5113 H 491.695 -0.672502 -0.0686839 0
M  V30 5114 H 494.249 -2.00484 0.446682 0
M  V30 5115 H 492.479 -3.51371 -1.61478 0
M  V30 5116 H 494.168 -3.83098 -1.34129 0
M  V30 5117 H 494.934 -4.75311 0.964596 0
M  V30 5118 H 490.813 -4.60309 -0.252405 0
M  V30 5119 H 494.357 -6.44626 2.66652 0
M  V30 5120 H 490.254 -6.29198 1.44154 0
M  V30 5121 H 491.022 -7.5913 3.06045 0
M  V30 5122 N 493.685 -0.035106 -1.57561 0
M  V30 5123 C 494.617 0.973604 -2.07494 0
M  V30 5124 C 495.63 1.28504 -0.999534 0
M  V30 5125 O 496.819 1.24864 -1.27559 0
M  V30 5126 C 493.919 2.29945 -2.48955 0
M  V30 5127 C 493.092 2.1723 -3.79644 0
M  V30 5128 C 492.151 3.328 -4.07592 0
M  V30 5129 O 491.177 3.09418 -4.77754 0
M  V30 5130 N 492.379 4.56779 -3.58236 0
M  V30 5131 H 495.144 0.547525 -2.94656 0
M  V30 5132 H 492.705 0.151515 -1.61189 0
M  V30 5133 H 494.697 3.06097 -2.64739 0
M  V30 5134 H 493.267 2.64173 -1.67126 0
M  V30 5135 H 492.487 1.25768 -3.73599 0
M  V30 5136 H 493.775 2.05945 -4.65257 0
M  V30 5137 H 493.173 4.78668 -3.01485 0
M  V30 5138 H 491.73 5.30079 -3.79288 0
M  V30 5139 N 495.163 1.55791 0.238111 0
M  V30 5140 C 496.574 1.68383 0.806472 0
M  V30 5141 C 496.925 0.634157 1.85669 0
M  V30 5142 O 496.05 -0.217913 2.153 0
M  V30 5143 C 496.645 3.05268 1.46959 0
M  V30 5144 C 495.204 3.1977 1.98555 0
M  V30 5145 C 494.351 2.64279 0.839763 0
M  V30 5146 H 497.302 1.58694 0.0137535 0
M  V30 5147 H 497.323 3.00203 2.33792 0
M  V30 5148 H 496.835 3.81643 0.704993 0
M  V30 5149 H 494.936 2.48234 2.77868 0
M  V30 5150 H 495.049 4.26788 2.17689 0
M  V30 5151 H 493.413 2.22329 1.24265 0
M  V30 5152 H 494.196 3.43187 0.0881032 0
M  V30 5153 N 496.642 -0.504142 1.49319 0
M  V30 5154 C 497.89 -1.25598 1.58334 0
M  V30 5155 C 498.211 -1.93114 0.270538 0
M  V30 5156 O 497.481 -1.82585 -0.709891 0
M  V30 5157 H 496.061 -0.466571 0.58337 0
M  V30 5158 H 498.723 -0.584547 1.85928 0
M  V30 5159 H 497.819 -2.02159 2.37778 0
M  V30 5160 N 498.12 -1.38341 -0.754957 0
M  V30 5161 C 499.397 -1.24995 -1.50451 0
M  V30 5162 C 499.777 0.149244 -2.10572 0
M  V30 5163 O 499.125 1.15861 -1.96948 0
M  V30 5164 C 499.335 -2.35904 -2.57197 0
M  V30 5165 C 500.683 -2.74262 -3.24138 0
M  V30 5166 O 501.707 -2.35205 -2.67501 0
M  V30 5167 O 500.566 -3.4161 -4.26574 0
M  V30 5168 H 497.66 -0.48872 -0.667144 0
M  V30 5169 H 500.206 -1.50165 -0.790486 0
M  V30 5170 H 498.978 -3.2953 -2.11011 0
M  V30 5171 H 498.601 -2.12291 -3.36182 0
M  V30 5172 N 499.598 0.982988 -1.23187 0
M  V30 5173 C 500.561 2.05649 -1.01198 0
M  V30 5174 C 501.561 1.6078 0.0252464 0
M  V30 5175 O 502.751 1.72878 -0.214243 0
M  V30 5176 C 499.883 3.36744 -0.530656 0
M  V30 5177 H 501.076 2.2659 -1.96461 0
M  V30 5178 H 498.629 1.15602 -1.05195 0
M  V30 5179 H 499.364 3.21492 0.425873 0
M  V30 5180 H 499.149 3.7065 -1.2791 0
M  V30 5181 H 500.639 4.15705 -0.397366 0
M  V30 5182 N 501.076 1.04316 1.18135 0
M  V30 5183 C 502.323 0.74802 1.88178 0
M  V30 5184 C 502.651 -0.72441 1.80506 0
M  V30 5185 O 501.906 -1.54463 1.20165 0
M  V30 5186 C 502.205 1.16271 3.37958 0
M  V30 5187 C 501.871 2.63585 3.65833 0
M  V30 5188 C 500.533 3.03829 3.73151 0
M  V30 5189 C 502.885 3.58822 3.78016 0
M  V30 5190 C 500.213 4.38194 3.90132 0
M  V30 5191 C 502.565 4.92909 3.96514 0
M  V30 5192 C 501.229 5.3282 4.02068 0
M  V30 5193 H 500.499 0.27372 0.688592 0
M  V30 5194 H 503.146 1.30863 1.39811 0
M  V30 5195 H 501.451 0.520938 3.88321 0
M  V30 5196 H 503.148 0.911672 3.90499 0
M  V30 5197 H 499.738 2.31414 3.60757 0
M  V30 5198 H 503.922 3.28875 3.71692 0
M  V30 5199 H 499.178 4.68631 3.92677 0
M  V30 5200 H 503.352 5.66606 4.04883 0
M  V30 5201 H 500.979 6.36943 4.14979 0
M  V30 5202 N 502.554 -1.34406 0.822964 0
M  V30 5203 C 503.779 -2.0304 0.423034 0
M  V30 5204 C 504.204 -1.61568 -0.963196 0
M  V30 5205 O 503.562 -0.800339 -1.62678 0
M  V30 5206 C 503.61 -3.56636 0.53321 0
M  V30 5207 O 502.714 -4.09971 -0.446939 0
M  V30 5208 H 502.055 -0.64075 0.174171 0
M  V30 5209 H 504.585 -1.71653 1.11339 0
M  V30 5210 H 504.595 -4.05945 0.408991 0
M  V30 5211 H 503.27 -3.86168 1.54425 0
M  V30 5212 H 501.847 -3.71835 -0.281601 0
M  V30 5213 N 504.032 -0.577932 -1.46621 0
M  V30 5214 C 505.278 -0.0617793 -2.02706 0
M  V30 5215 C 505.611 1.29294 -1.44903 0
M  V30 5216 O 504.886 1.8461 -0.61232 0
M  V30 5217 C 505.169 0.00911824 -3.60099 0
M  V30 5218 C 505.022 -1.37416 -4.28295 0
M  V30 5219 C 506.341 0.712159 -4.343 0
M  V30 5220 H 503.46 -0.0239246 -0.736612 0
M  V30 5221 H 506.102 -0.744211 -1.74818 0
M  V30 5222 H 504.252 0.590292 -3.83989 0
M  V30 5223 H 505.924 -2.00013 -4.15683 0
M  V30 5224 H 504.167 -1.94319 -3.87843 0
M  V30 5225 H 504.838 -1.27707 -5.37024 0
M  V30 5226 H 507.314 0.218486 -4.15526 0
M  V30 5227 H 506.19 0.730782 -5.44014 0
M  V30 5228 H 506.451 1.77251 -4.05012 0
M  V30 5229 N 505.51 1.54411 -0.315457 0
M  V30 5230 C 506.759 1.99599 0.290395 0
M  V30 5231 C 507.072 1.20746 1.53882 0
M  V30 5232 O 508.278 1.56272 2.22017 0
M  V30 5233 C 506.734 3.5539 0.56797 0
M  V30 5234 C 506.342 4.43068 -0.662945 0
M  V30 5235 C 508.086 4.09067 1.13422 0
M  V30 5236 C 505.993 5.90317 -0.357722 0
M  V30 5237 H 504.923 0.745592 0.112286 0
M  V30 5238 H 507.574 1.78477 -0.426418 0
M  V30 5239 H 505.956 3.72468 1.34476 0
M  V30 5240 H 507.13 4.37765 -1.43869 0
M  V30 5241 H 505.445 4.00238 -1.14884 0
M  V30 5242 H 508.042 5.16663 1.37707 0
M  V30 5243 H 508.385 3.60552 2.08106 0
M  V30 5244 H 508.918 3.95589 0.418805 0
M  V30 5245 H 505.657 6.4301 -1.27351 0
M  V30 5246 H 505.177 5.98592 0.380472 0
M  V30 5247 H 506.856 6.4699 0.0354284 0
M  V30 5248 N 506.988 0.0434614 1.5754 0
M  V30 5249 C 508.228 -0.636023 1.94253 0
M  V30 5250 C 508.592 -1.68461 0.921132 0
M  V30 5251 O 509.793 -2.41762 1.17494 0
M  V30 5252 C 508.064 -1.22357 3.35803 0
M  V30 5253 S 509.623 -1.92213 3.94461 0
M  V30 5254 H 506.441 -0.209041 0.679575 0
M  V30 5255 H 509.043 0.110556 1.95187 0
M  V30 5256 H 507.747 -0.448162 4.07946 0
M  V30 5257 H 507.278 -2.00713 3.38346 0
M  V30 5258 H 509.293 -3.20199 3.79061 0
M  V30 5259 N 508.466 -1.55915 -0.229846 0
M  V30 5260 C 509.877 -1.68809 -0.797531 0
M  V30 5261 C 510.228 -0.643995 -1.8533 0
M  V30 5262 O 509.353 0.206492 -2.15413 0
M  V30 5263 C 509.948 -3.06043 -1.45338 0
M  V30 5264 C 508.507 -3.20819 -1.96856 0
M  V30 5265 C 507.654 -2.6472 -0.825736 0
M  V30 5266 H 510.605 -1.58699 -0.00533733 0
M  V30 5267 H 510.626 -3.01438 -2.32196 0
M  V30 5268 H 510.138 -3.82012 -0.684743 0
M  V30 5269 H 508.239 -2.49704 -2.76548 0
M  V30 5270 H 508.352 -4.27937 -2.15423 0
M  V30 5271 H 506.716 -2.22985 -1.23084 0
M  V30 5272 H 507.499 -3.43229 -0.0699019 0
M  V30 5273 N 509.944 0.496216 -1.49584 0
M  V30 5274 C 510.892 1.61805 -1.67098 0
M  V30 5275 C 511.886 1.60667 -0.536877 0
M  V30 5276 O 513.092 1.65118 -0.716654 0
M  V30 5277 H 509.467 0.53646 -0.526986 0
M  V30 5278 H 511.438 1.44187 -2.61252 0
M  V30 5279 C 510.187 2.99912 -1.75921 0
M  V30 5280 H 509.51 3.01496 -2.62565 0
M  V30 5281 H 510.95 3.77931 -1.92209 0
M  V30 5282 C 509.409 3.33092 -0.505088 0
M  V30 5283 O 509.939 4.00019 0.367085 0
M  V30 5284 N 508.145 2.88278 -0.366599 0
M  V30 5285 H 507.692 2.33989 -1.07735 0
M  V30 5286 H 507.65 3.10846 0.47142 0
M  V30 5287 N 511.423 1.38739 0.74761 0
M  V30 5288 C 512.648 1.38702 1.54197 0
M  V30 5289 C 513.073 -0.019664 1.8809 0
M  V30 5290 O 512.431 -1.00333 1.51006 0
M  V30 5291 C 512.479 2.25492 2.814 0
M  V30 5292 O 511.583 1.67613 3.76802 0
M  V30 5293 H 510.924 0.472863 0.466151 0
M  V30 5294 H 513.454 1.82577 0.923413 0
M  V30 5295 H 513.464 2.39561 3.30264 0
M  V30 5296 H 512.139 3.27727 2.56062 0
M  V30 5297 H 510.716 1.62718 3.35526 0
M  V30 5298 N 512.901 -0.976442 1.23707 0
M  V30 5299 C 514.178 -1.69296 0.979699 0
M  V30 5300 C 514.558 -2.0508 -0.500555 0
M  V30 5301 O 513.906 -1.74708 -1.47273 0
M  V30 5302 C 514.116 -2.93143 1.89389 0
M  V30 5303 C 515.464 -3.65572 2.15968 0
M  V30 5304 O 516.488 -3.03184 1.86971 0
M  V30 5305 O 515.347 -4.77859 2.65167 0
M  V30 5306 H 512.441 -0.739708 0.369812 0
M  V30 5307 H 514.987 -1.03131 1.34767 0
M  V30 5308 H 513.759 -2.63327 2.89439 0
M  V30 5309 H 513.382 -3.67044 1.52854 0
M  V30 5310 N 514.379 -1.04941 -1.1758 0
M  V30 5311 C 515.604 -0.778253 -1.92245 0
M  V30 5312 C 516.029 0.659707 -1.76152 0
M  V30 5313 O 515.387 1.45803 -1.07755 0
M  V30 5314 C 515.435 -1.16051 -3.41416 0
M  V30 5315 O 514.539 -0.291153 -4.11371 0
M  V30 5316 H 513.88 -0.285619 -0.599431 0
M  V30 5317 H 516.41 -1.40159 -1.49052 0
M  V30 5318 H 516.42 -1.12619 -3.92149 0
M  V30 5319 H 515.095 -2.208 -3.52449 0
M  V30 5320 H 513.672 -0.385851 -3.70898 0
M  V30 5321 N 515.857 1.33968 -0.830081 0
M  V30 5322 C 516.767 2.33164 -0.259207 0
M  V30 5323 C 517.783 1.62951 0.610164 0
M  V30 5324 O 518.959 1.94668 0.516369 0
M  V30 5325 C 516.024 3.42088 0.563598 0
M  V30 5326 C 515.085 4.28037 -0.329014 0
M  V30 5327 C 514.318 5.3176 0.454616 0
M  V30 5328 O 514.541 5.44876 1.6872 0
M  V30 5329 O 513.475 6.01669 -0.166794 0
M  V30 5330 H 517.301 2.83832 -1.08041 0
M  V30 5331 H 514.886 1.37154 -0.59239 0
M  V30 5332 H 516.768 4.08581 1.03147 0
M  V30 5333 H 515.443 2.93651 1.36201 0
M  V30 5334 H 514.35 3.64443 -0.844538 0
M  V30 5335 H 515.683 4.79934 -1.09196 0
M  V30 5336 N 517.335 0.585699 1.46312 0
M  V30 5337 C 518.581 0.0725284 2.0267 0
M  V30 5338 C 518.914 -1.28523 1.45586 0
M  V30 5339 O 518.189 -1.84283 0.622101 0
M  V30 5340 C 518.472 0.0099788 3.60099 0
M  V30 5341 C 518.325 1.39685 4.27561 0
M  V30 5342 C 519.644 -0.689117 4.34671 0
M  V30 5343 H 516.763 0.0278307 0.736474 0
M  V30 5344 H 519.405 0.753472 1.74421 0
M  V30 5345 H 517.555 -0.56992 3.84297 0
M  V30 5346 H 519.227 2.02215 4.14617 0
M  V30 5347 H 517.47 1.96374 3.86807 0
M  V30 5348 H 518.141 1.30553 5.36339 0
M  V30 5349 H 520.617 -0.196446 4.15636 0
M  V30 5350 H 519.493 -0.701921 5.44393 0
M  V30 5351 H 519.754 -1.75101 4.05946 0
M  V30 5352 N 518.813 -1.54241 0.323641 0
M  V30 5353 C 519.745 -2.21836 -0.576311 0
M  V30 5354 C 520.758 -1.21837 -1.07979 0
M  V30 5355 O 521.947 -1.48306 -0.99336 0
M  V30 5356 C 519.047 -2.86923 -1.80356 0
M  V30 5357 C 518.22 -4.1306 -1.43875 0
M  V30 5358 C 517.279 -4.6174 -2.52353 0
M  V30 5359 O 516.305 -5.26421 -2.16494 0
M  V30 5360 N 517.507 -4.35974 -3.83284 0
M  V30 5361 H 520.272 -2.997 0.00247987 0
M  V30 5362 H 517.833 -1.61233 0.146848 0
M  V30 5363 H 519.825 -3.16414 -2.52318 0
M  V30 5364 H 518.395 -2.12765 -2.29019 0
M  V30 5365 H 517.615 -3.90334 -0.550752 0
M  V30 5366 H 518.903 -4.95148 -1.17071 0
M  V30 5367 H 518.301 -3.84203 -4.15216 0
M  V30 5368 H 516.858 -4.70119 -4.51477 0
M  V30 5369 N 520.291 -0.0518155 -1.57515 0
M  V30 5370 C 521.516 0.634896 -1.97443 0
M  V30 5371 C 521.941 1.63546 -0.929207 0
M  V30 5372 O 521.299 1.80981 0.107484 0
M  V30 5373 C 521.347 1.29765 -3.36442 0
M  V30 5374 O 520.451 2.41333 -3.34413 0
M  V30 5375 H 519.792 0.164994 -0.643174 0
M  V30 5376 H 522.322 -0.120407 -2.04245 0
M  V30 5377 H 522.332 1.64918 -3.73184 0
M  V30 5378 H 521.007 0.564361 -4.12053 0
M  V30 5379 H 519.584 2.08122 -3.09418 0
M  V30 5380 N 521.769 1.56035 0.221574 0
M  V30 5381 C 522.699 1.95434 1.2778 0
M  V30 5382 C 523.68 0.822564 1.48889 0
M  V30 5383 O 524.865 1.08486 1.61072 0
M  V30 5384 C 521.995 2.27102 2.62759 0
M  V30 5385 C 520.949 3.4277 2.56306 0
M  V30 5386 C 520.275 3.60043 3.95314 0
M  V30 5387 C 521.575 4.77742 2.11093 0
M  V30 5388 H 523.269 2.83912 0.950504 0
M  V30 5389 H 520.815 1.36596 0.455791 0
M  V30 5390 H 522.768 2.53256 3.36807 0
M  V30 5391 H 521.492 1.35478 2.97176 0
M  V30 5392 H 520.151 3.16664 1.84715 0
M  V30 5393 H 519.799 2.65794 4.27039 0
M  V30 5394 H 519.499 4.37841 3.91879 0
M  V30 5395 H 521.023 3.88545 4.71025 0
M  V30 5396 H 522.437 5.03102 2.74885 0
M  V30 5397 H 520.834 5.58823 2.18716 0
M  V30 5398 H 521.904 4.731 1.06321 0
M  V30 5399 N 523.247 -0.488276 1.49845 0
M  V30 5400 C 524.177 -1.59675 1.70371 0
M  V30 5401 C 525.158 -1.60878 0.552473 0
M  V30 5402 O 526.343 -1.77417 0.78973 0
M  V30 5403 C 523.473 -2.98098 1.782 0
M  V30 5404 C 522.427 -3.11761 2.93239 0
M  V30 5405 C 521.753 -4.51661 2.86193 0
M  V30 5406 C 523.053 -2.90589 4.33999 0
M  V30 5407 H 524.747 -1.42752 2.63177 0
M  V30 5408 H 522.293 -0.685317 1.26647 0
M  V30 5409 H 524.246 -3.75555 1.91144 0
M  V30 5410 H 522.97 -3.16138 0.820018 0
M  V30 5411 H 521.629 -2.36732 2.79917 0
M  V30 5412 H 521.277 -4.66595 1.87877 0
M  V30 5413 H 520.977 -4.61742 3.63412 0
M  V30 5414 H 522.501 -5.31162 3.01163 0
M  V30 5415 H 523.915 -3.57807 4.47936 0
M  V30 5416 H 522.312 -3.1213 5.12538 0
M  V30 5417 H 523.382 -1.86595 4.4756 0
M  V30 5418 N 524.725 -1.39134 -0.740242 0
M  V30 5419 C 525.657 -1.33332 -1.86428 0
M  V30 5420 C 526.67 -0.243042 -1.60976 0
M  V30 5421 O 527.859 -0.501608 -1.71307 0
M  V30 5422 C 524.959 -1.04626 -3.22346 0
M  V30 5423 C 524.132 -2.24826 -3.75196 0
M  V30 5424 C 523.191 -1.92659 -4.89662 0
M  V30 5425 O 522.217 -2.6529 -5.03597 0
M  V30 5426 N 523.419 -0.889575 -5.73643 0
M  V30 5427 H 526.184 -2.30196 -1.91911 0
M  V30 5428 H 523.745 -1.33168 -0.920756 0
M  V30 5429 H 525.737 -0.811347 -3.96484 0
M  V30 5430 H 524.307 -0.165129 -3.12164 0
M  V30 5431 H 523.527 -2.64301 -2.9247 0
M  V30 5432 H 524.815 -3.05015 -4.07239 0
M  V30 5433 H 524.213 -0.287529 -5.64969 0
M  V30 5434 H 522.77 -0.714557 -6.47871 0
M  V30 5435 N 526.204 0.969867 -1.24223 0
M  V30 5436 C 527.62 1.23809 -1.00716 0
M  V30 5437 C 527.82 1.99469 0.285358 0
M  V30 5438 O 526.876 2.31764 1.00207 0
M  V30 5439 C 528.189 2.02734 -2.2208 0
M  V30 5440 C 529.737 2.15834 -2.26681 0
M  V30 5441 C 530.212 2.98154 -3.47661 0
M  V30 5442 N 531.703 3.05737 -3.47964 0
M  V30 5443 C 532.438 3.69785 -4.38231 0
M  V30 5444 N 531.934 4.35569 -5.3875 0
M  V30 5445 N 533.727 3.66775 -4.25949 0
M  V30 5446 H 525.878 0.463294 -2.07286 0
M  V30 5447 H 528.141 0.267348 -0.909521 0
M  V30 5448 H 527.847 1.54524 -3.15935 0
M  V30 5449 H 527.721 3.0347 -2.24021 0
M  V30 5450 H 530.108 2.63248 -1.33359 0
M  V30 5451 H 530.189 1.14453 -2.28767 0
M  V30 5452 H 529.833 2.51435 -4.41297 0
M  V30 5453 H 529.763 3.99729 -3.42818 0
M  V30 5454 H 532.254 2.58941 -2.75242 0
M  V30 5455 H 532.567 4.82251 -6.03866 0
M  V30 5456 H 530.912 4.34244 -5.42639 0
M  V30 5457 H 534.103 3.14558 -3.46657 0
M  V30 5458 H 534.276 4.16407 -4.96497 0
M  V30 5459 N 527.682 1.05563 1.17022 0
M  V30 5460 C 528.612 0.681026 2.23348 0
M  V30 5461 C 529.593 -0.322983 1.67005 0
M  V30 5462 O 530.778 -0.199746 1.9317 0
M  V30 5463 C 527.908 0.0589053 3.4725 0
M  V30 5464 C 526.862 0.988082 4.16438 0
M  V30 5465 C 526.188 0.229646 5.34207 0
M  V30 5466 C 527.488 2.31388 4.68249 0
M  V30 5467 H 529.182 1.56993 2.54938 0
M  V30 5468 H 526.728 0.756302 1.2254 0
M  V30 5469 H 528.681 -0.214982 4.20851 0
M  V30 5470 H 527.405 -0.864968 3.14938 0
M  V30 5471 H 526.064 1.24659 3.44754 0
M  V30 5472 H 525.712 -0.697111 4.98146 0
M  V30 5473 H 525.412 0.848815 5.81437 0
M  V30 5474 H 526.936 -0.0368694 6.10589 0
M  V30 5475 H 528.35 2.09964 5.33468 0
M  V30 5476 H 526.747 2.88736 5.26072 0
M  V30 5477 H 527.817 2.94982 3.84855 0
M  V30 5478 N 529.16 -1.33526 0.837174 0
M  V30 5479 C 530.092 -2.28077 0.226579 0
M  V30 5480 C 531.105 -1.51666 -0.591717 0
M  V30 5481 O 532.294 -1.73511 -0.419064 0
M  V30 5482 C 529.394 -3.31597 -0.69978 0
M  V30 5483 C 528.567 -4.37329 0.0788067 0
M  V30 5484 C 527.626 -5.20526 -0.770637 0
M  V30 5485 O 526.652 -5.68811 -0.210453 0
M  V30 5486 N 527.854 -5.41639 -2.08825 0
M  V30 5487 H 530.619 -2.81115 1.03897 0
M  V30 5488 H 528.18 -1.46201 0.695476 0
M  V30 5489 H 530.172 -3.84158 -1.27298 0
M  V30 5490 H 528.742 -2.78848 -1.41288 0
M  V30 5491 H 527.962 -3.8529 0.833381 0
M  V30 5492 H 529.25 -5.05079 0.614238 0
M  V30 5493 H 528.648 -5.04108 -2.56693 0
M  V30 5494 H 527.205 -5.97263 -2.60998 0
M  V30 5495 N 530.638 -0.59345 -1.46 0
M  V30 5496 C 531.568 0.121192 -2.33185 0
M  V30 5497 C 532.549 0.872977 -1.4599 0
M  V30 5498 O 533.734 0.846321 -1.74789 0
M  V30 5499 C 530.864 1.12844 -3.28456 0
M  V30 5500 C 529.818 0.4908 -4.25177 0
M  V30 5501 C 529.144 1.60529 -5.10034 0
M  V30 5502 C 530.444 -0.578949 -5.19081 0
M  V30 5503 H 532.138 -0.606767 -2.93187 0
M  V30 5504 H 529.684 -0.293242 -1.40983 0
M  V30 5505 H 531.637 1.63684 -3.88311 0
M  V30 5506 H 530.361 1.88681 -2.66584 0
M  V30 5507 H 529.02 0.00339328 -3.666 0
M  V30 5508 H 528.668 2.35359 -4.44539 0
M  V30 5509 H 528.368 1.18422 -5.75543 0
M  V30 5510 H 529.892 2.11623 -5.72755 0
M  V30 5511 H 531.306 -0.155199 -5.7309 0
M  V30 5512 H 529.703 -0.920947 -5.92991 0
M  V30 5513 H 530.773 -1.46109 -4.62364 0
M  V30 5514 N 532.116 1.54067 -0.331816 0
M  V30 5515 C 533.026 2.28322 0.539104 0
M  V30 5516 C 534.042 1.32985 1.1221 0
M  V30 5517 O 535.218 1.6601 1.1403 0
M  V30 5518 C 532.283 3.03277 1.68 0
M  V30 5519 C 531.344 4.14216 1.12798 0
M  V30 5520 C 530.577 4.85588 2.2145 0
M  V30 5521 O 530.8 4.56536 3.41952 0
M  V30 5522 O 529.734 5.72309 1.86404 0
M  V30 5523 H 533.56 3.03632 -0.0641692 0
M  V30 5524 H 531.145 1.49083 -0.0972365 0
M  V30 5525 H 533.027 3.50189 2.34405 0
M  V30 5526 H 531.702 2.30834 2.2693 0
M  V30 5527 H 530.609 3.71635 0.428782 0
M  V30 5528 H 531.942 4.88727 0.583698 0
M  V30 5529 N 533.594 0.0601682 1.57485 0
M  V30 5530 C 534.871 -0.651956 1.84415 0
M  V30 5531 C 535.251 -1.88498 0.950361 0
M  V30 5532 O 534.599 -2.28496 0.0136719 0
M  V30 5533 C 534.809 -1.00069 3.34346 0
M  V30 5534 C 536.157 -1.37915 4.01578 0
M  V30 5535 O 537.181 -1.09277 3.39024 0
M  V30 5536 O 536.04 -1.91399 5.11887 0
M  V30 5537 H 533.134 -0.322668 0.761455 0
M  V30 5538 H 535.68 0.0902159 1.6946 0
M  V30 5539 H 534.452 -0.124463 3.91102 0
M  V30 5540 H 534.075 -1.80001 3.54521 0
M  V30 5541 N 535.072 -1.5615 -0.213296 0
M  V30 5542 C 536.019 -1.93086 -1.26437 0
M  V30 5543 C 536.989 -0.789086 -1.4616 0
M  V30 5544 O 538.174 -1.04569 -1.59593 0
M  V30 5545 C 535.314 -2.26003 -2.608 0
M  V30 5546 C 534.427 -3.53156 -2.48807 0
M  V30 5547 C 533.562 -3.7548 -3.7575 0
M  V30 5548 C 532.601 -4.96119 -3.58514 0
M  V30 5549 N 531.738 -5.14791 -4.77425 0
M  V30 5550 H 536.578 -2.82707 -0.942376 0
M  V30 5551 H 534.115 -1.39919 -0.454001 0
M  V30 5552 H 536.073 -2.431 -3.39055 0
M  V30 5553 H 534.703 -1.39546 -2.91079 0
M  V30 5554 H 533.755 -3.44207 -1.61944 0
M  V30 5555 H 535.067 -4.41565 -2.31996 0
M  V30 5556 H 534.221 -3.92718 -4.62447 0
M  V30 5557 H 532.96 -2.85368 -3.95495 0
M  V30 5558 H 531.965 -4.78823 -2.70201 0
M  V30 5559 H 533.19 -5.87724 -3.40231 0
M  V30 5560 H 531.136 -4.27623 -4.97468 0
M  V30 5561 H 531.053 -5.97347 -4.63371 0
M  V30 5562 H 532.321 -5.36471 -5.65525 0
M  V30 5563 N 536.55 0.480323 -1.50102 0
M  V30 5564 C 537.966 0.813295 -1.37323 0
M  V30 5565 C 538.166 1.97027 -0.422206 0
M  V30 5566 O 537.222 2.5212 0.138563 0
M  V30 5567 C 538.535 1.13404 -2.78496 0
M  V30 5568 C 540.083 1.24104 -2.87345 0
M  V30 5569 C 540.558 1.59497 -4.29331 0
M  V30 5570 N 542.049 1.66507 -4.32238 0
M  V30 5571 C 542.784 1.95378 -5.39087 0
M  V30 5572 N 542.28 2.22333 -6.56155 0
M  V30 5573 N 544.073 1.96803 -5.26522 0
M  V30 5574 H 536.224 -0.282291 -2.10516 0
M  V30 5575 H 538.487 -0.063752 -0.945854 0
M  V30 5576 H 538.193 0.357064 -3.49883 0
M  V30 5577 H 538.067 2.07251 -3.15162 0
M  V30 5578 H 540.454 2.00871 -2.16183 0
M  V30 5579 H 540.535 0.282593 -2.54234 0
M  V30 5580 H 540.179 0.832736 -5.01027 0
M  V30 5581 H 540.109 2.56477 -4.59921 0
M  V30 5582 H 542.6 1.47753 -3.47818 0
M  V30 5583 H 542.913 2.43611 -7.33399 0
M  V30 5584 H 541.258 2.19745 -6.59346 0
M  V30 5585 H 544.449 1.75235 -4.34062 0
M  V30 5586 H 544.622 2.18969 -6.09883 0
M  V30 5587 N 538.028 1.39524 0.732853 0
M  V30 5588 C 538.938 1.40695 1.87729 0
M  V30 5589 C 539.954 0.301496 1.71368 0
M  V30 5590 O 541.13 0.543313 1.93933 0
M  V30 5591 C 538.195 1.25098 3.23344 0
M  V30 5592 C 537.256 2.45634 3.52083 0
M  V30 5593 C 536.489 2.30772 4.81228 0
M  V30 5594 O 536.712 1.31233 5.55098 0
M  V30 5595 O 535.646 3.19799 5.09914 0
M  V30 5596 H 539.472 2.37168 1.89697 0
M  V30 5597 H 537.057 1.20663 0.880959 0
M  V30 5598 H 538.939 1.18541 4.04383 0
M  V30 5599 H 537.614 0.317209 3.22142 0
M  V30 5600 H 536.521 2.57767 2.71122 0
M  V30 5601 H 537.854 3.37712 3.58066 0
M  V30 5602 N 539.506 -0.963266 1.24736 0
M  V30 5603 C 540.456 -2.0438 1.01058 0
M  V30 5604 C 541.44 -1.60824 -0.0495354 0
M  V30 5605 O 542.632 -1.76232 0.164741 0
M  V30 5606 C 539.761 -3.37617 0.622067 0
M  V30 5607 C 538.847 -3.87722 1.7185 0
M  V30 5608 N 539.238 -4.10715 2.95207 0
M  V30 5609 C 537.536 -4.16426 1.59703 0
M  V30 5610 C 538.237 -4.51872 3.66315 0
M  V30 5611 N 537.213 -4.57302 2.93897 0
M  V30 5612 H 541.015 -2.20138 1.94721 0
M  V30 5613 H 538.529 -1.14741 1.14927 0
M  V30 5614 H 540.526 -4.14638 0.43366 0
M  V30 5615 H 539.186 -3.23242 -0.307327 0
M  V30 5616 H 540.197 -3.98037 3.31341 0
M  V30 5617 H 536.874 -4.10962 0.73598 0
M  V30 5618 H 538.264 -4.78037 4.72155 0
M  V30 5619 N 540.985 -1.06182 -1.16461 0
M  V30 5620 C 542.225 -0.787048 -1.8864 0
M  V30 5621 C 542.589 0.674093 -1.79778 0
M  V30 5622 O 543.79 1.06341 -2.46871 0
M  V30 5623 C 542.061 -1.2666 -3.34203 0
M  V30 5624 S 543.62 -1.12071 -4.24247 0
M  V30 5625 H 540.438 -0.285539 -0.651144 0
M  V30 5626 H 543.04 -1.35851 -1.40587 0
M  V30 5627 H 541.744 -2.32496 -3.38192 0
M  V30 5628 H 541.275 -0.689841 -3.87304 0
M  V30 5629 H 543.29 -0.0509341 -4.96174 0
M  V30 5630 N 542.463 1.3308 -0.844243 0
M  V30 5631 C 543.709 1.97898 -0.443206 0
M  V30 5632 C 544.042 1.66699 0.99625 0
M  V30 5633 O 543.317 0.949704 1.69738 0
M  V30 5634 C 543.6 3.53801 -0.670606 0
M  V30 5635 C 543.453 3.94667 -2.15772 0
M  V30 5636 C 544.772 4.39936 -0.120226 0
M  V30 5637 H 541.891 0.718861 -0.162504 0
M  V30 5638 H 544.533 1.57633 -1.06075 0
M  V30 5639 H 542.683 3.88229 -0.14496 0
M  V30 5640 H 544.355 3.70469 -2.74865 0
M  V30 5641 H 542.598 3.44203 -2.6402 0
M  V30 5642 H 543.269 5.03275 -2.26757 0
M  V30 5643 H 545.745 4.12183 -0.5696 0
M  V30 5644 H 544.621 5.4803 -0.308984 0
M  V30 5645 H 544.882 4.31184 0.976347 0
M  V30 5646 N 543.941 0.601185 1.45683 0
M  V30 5647 C 544.871 -0.108824 2.33246 0
M  V30 5648 C 545.852 -0.865223 1.46451 0
M  V30 5649 O 547.037 -0.83704 1.75235 0
M  V30 5650 C 544.167 -1.11101 3.2905 0
M  V30 5651 C 543.121 -0.468244 4.25431 0
M  V30 5652 C 542.447 -1.57822 5.10878 0
M  V30 5653 C 543.747 0.606469 5.18767 0
M  V30 5654 H 545.441 0.622306 2.92861 0
M  V30 5655 H 542.987 0.300714 1.40825 0
M  V30 5656 H 544.94 -1.61622 3.89174 0
M  V30 5657 H 543.664 -1.87265 2.67581 0
M  V30 5658 H 542.323 0.0160484 3.66596 0
M  V30 5659 H 541.971 -2.32998 4.45781 0
M  V30 5660 H 541.671 -1.15369 5.76163 0
M  V30 5661 H 543.195 -2.08583 5.73869 0
M  V30 5662 H 544.609 0.185589 5.73 0
M  V30 5663 H 543.006 0.952381 5.92494 0
M  V30 5664 H 544.076 1.48559 4.61582 0
M  V30 5665 N 545.419 -1.53889 0.339982 0
M  V30 5666 C 546.349 -2.27843 -0.510856 0
M  V30 5667 C 547.33 -1.29267 -1.10563 0
M  V30 5668 O 548.515 -1.58104 -1.12768 0
M  V30 5669 C 545.645 -3.04857 -1.66372 0
M  V30 5670 C 544.599 -4.10907 -1.19746 0
M  V30 5671 C 543.925 -4.75855 -2.43857 0
M  V30 5672 C 545.225 -5.21435 -0.300501 0
M  V30 5673 H 546.919 -2.99212 0.106067 0
M  V30 5674 H 544.465 -1.43904 0.0524533 0
M  V30 5675 H 546.418 -3.5533 -2.26537 0
M  V30 5676 H 545.142 -2.31133 -2.30749 0
M  V30 5677 H 543.801 -3.61342 -0.618654 0
M  V30 5678 H 543.449 -3.9873 -3.06633 0
M  V30 5679 H 543.149 -5.47502 -2.13343 0
M  V30 5680 H 544.673 -5.2911 -3.04754 0
M  V30 5681 H 546.087 -5.67565 -0.80889 0
M  V30 5682 H 544.484 -6.00036 -0.0874076 0
M  V30 5683 H 545.554 -4.80328 0.664321 0
M  V30 5684 N 546.897 -0.0685191 -1.57451 0
M  V30 5685 C 547.844 0.899861 -2.12535 0
M  V30 5686 C 548.814 1.29749 -1.03703 0
M  V30 5687 O 549.999 1.38392 -1.31348 0
M  V30 5688 C 547.139 2.16328 -2.6888 0
M  V30 5689 C 546.252 1.81857 -3.91857 0
M  V30 5690 C 545.387 3.02786 -4.36457 0
M  V30 5691 C 544.426 2.64317 -5.5209 0
M  V30 5692 N 543.563 3.77994 -5.91663 0
M  V30 5693 H 548.403 0.423243 -2.94979 0
M  V30 5694 H 545.94 0.197268 -1.45771 0
M  V30 5695 H 547.898 2.90281 -2.99655 0
M  V30 5696 H 546.528 2.61536 -1.89206 0
M  V30 5697 H 545.58 0.979808 -3.67565 0
M  V30 5698 H 546.892 1.49553 -4.75852 0
M  V30 5699 H 546.046 3.85021 -4.68875 0
M  V30 5700 H 544.785 3.38281 -3.51308 0
M  V30 5701 H 543.79 1.80503 -5.19325 0
M  V30 5702 H 545.015 2.29995 -6.38967 0
M  V30 5703 H 542.961 4.13258 -5.09464 0
M  V30 5704 H 542.878 3.49447 -6.7039 0
M  V30 5705 H 544.146 4.60818 -6.28703 0
M  V30 5706 N 548.375 1.56261 0.205012 0
M  V30 5707 C 549.624 1.79236 0.925058 0
M  V30 5708 C 549.937 0.640011 1.84833 0
M  V30 5709 O 551.143 0.753809 2.60826 0
M  V30 5710 C 549.599 3.17475 1.69522 0
M  V30 5711 C 549.207 4.40482 0.817269 0
M  V30 5712 C 550.951 3.49766 2.4055 0
M  V30 5713 C 548.858 5.69744 1.58573 0
M  V30 5714 H 547.788 0.668287 0.349153 0
M  V30 5715 H 550.439 1.82629 0.178544 0
M  V30 5716 H 548.821 3.08304 2.48526 0
M  V30 5717 H 549.995 4.60752 0.0665988 0
M  V30 5718 H 548.31 4.15827 0.218316 0
M  V30 5719 H 550.907 4.43573 2.98575 0
M  V30 5720 H 551.25 2.73041 3.14252 0
M  V30 5721 H 551.783 3.60341 1.68522 0
M  V30 5722 H 548.522 6.49407 0.891679 0
M  V30 5723 H 548.042 5.53509 2.31059 0
M  V30 5724 H 549.721 6.1051 2.14212 0
M  V30 5725 N 549.853 -0.472356 1.50355 0
M  V30 5726 C 550.8 -1.57051 1.69126 0
M  V30 5727 C 551.77 -1.5733 0.532574 0
M  V30 5728 O 552.955 -1.7488 0.762994 0
M  V30 5729 C 550.095 -2.95033 1.79024 0
M  V30 5730 C 549.208 -3.04552 3.06386 0
M  V30 5731 C 548.343 -4.33441 3.07087 0
M  V30 5732 C 547.382 -4.36697 4.28908 0
M  V30 5733 N 546.519 -5.57056 4.27356 0
M  V30 5734 H 551.359 -1.40351 2.62879 0
M  V30 5735 H 548.896 -0.682403 1.30314 0
M  V30 5736 H 550.854 -3.75048 1.82744 0
M  V30 5737 H 549.484 -3.10371 0.887109 0
M  V30 5738 H 548.536 -2.17419 3.12143 0
M  V30 5739 H 549.848 -3.02818 3.96362 0
M  V30 5740 H 549.002 -5.21801 3.09529 0
M  V30 5741 H 547.741 -4.37782 2.14939 0
M  V30 5742 H 546.746 -3.46734 4.2668 0
M  V30 5743 H 547.971 -4.34049 5.22282 0
M  V30 5744 H 545.917 -5.62184 3.3806 0
M  V30 5745 H 545.834 -5.57058 5.111 0
M  V30 5746 H 547.102 -6.47545 4.33942 0
M  V30 5747 N 551.331 -1.39911 -0.725443 0
M  V30 5748 C 552.294 -1.39156 -1.82121 0
M  V30 5749 C 553.294 -0.287018 -1.58218 0
M  V30 5750 O 554.484 -0.545421 -1.65441 0
M  V30 5751 C 551.616 -1.1736 -3.20062 0
M  V30 5752 H 552.809 -2.36672 -1.84191 0
M  V30 5753 H 550.362 -1.25615 -0.930079 0
M  V30 5754 H 551.097 -0.205648 -3.23647 0
M  V30 5755 H 550.882 -1.97358 -3.3881 0
M  V30 5756 H 552.372 -1.19596 -4.00108 0
M  V30 5757 N 552.809 0.956637 -1.25245 0
M  V30 5758 C 554.086 1.67716 -1.00651 0
M  V30 5759 C 554.466 2.0585 0.467866 0
M  V30 5760 O 553.814 1.77029 1.44475 0
M  V30 5761 C 554.024 2.90093 -1.94028 0
M  V30 5762 C 555.372 3.6209 -2.21756 0
M  V30 5763 O 556.396 3.00171 -1.9177 0
M  V30 5764 O 555.255 4.7358 -2.72735 0
M  V30 5765 H 552.349 0.733731 -0.381533 0
M  V30 5766 H 554.895 1.00974 -1.3639 0
M  V30 5767 H 553.667 2.58689 -2.93591 0
M  V30 5768 H 553.29 3.64566 -1.58674 0
M  V30 5769 N 554.287 1.06798 1.15896 0
M  V30 5770 C 555.515 0.808694 1.90441 0
M  V30 5771 C 555.93 -0.637506 1.77711 0
M  V30 5772 O 555.287 -1.43684 1.12522 0
M  V30 5773 C 555.338 1.20068 3.40978 0
M  V30 5774 O 555.059 2.59013 3.53333 0
M  V30 5775 C 556.56 0.96987 4.3256 0
M  V30 5776 H 553.78 0.292809 0.603742 0
M  V30 5777 H 556.324 1.42296 1.46874 0
M  V30 5778 H 554.479 0.630842 3.82229 0
M  V30 5779 H 554.893 2.7485 4.46719 0
M  V30 5780 H 556.367 1.29371 5.36626 0
M  V30 5781 H 556.844 -0.0941209 4.39099 0
M  V30 5782 H 557.45 1.52433 3.97044 0
M  V30 5783 N 555.766 -1.3263 0.851289 0
M  V30 5784 C 556.713 -2.28952 0.291469 0
M  V30 5785 C 557.683 -1.54897 -0.599676 0
M  V30 5786 O 558.868 -1.83137 -0.535305 0
M  V30 5787 C 556.008 -3.41206 -0.516992 0
M  V30 5788 C 555.121 -4.30148 0.399566 0
M  V30 5789 C 554.256 -5.29527 -0.4212 0
M  V30 5790 C 553.295 -6.10112 0.492969 0
M  V30 5791 N 552.432 -7.01499 -0.290414 0
M  V30 5792 H 557.272 -2.76228 1.11813 0
M  V30 5793 H 554.809 -1.35907 0.562826 0
M  V30 5794 H 556.767 -4.05005 -1.00132 0
M  V30 5795 H 555.397 -2.9509 -1.30851 0
M  V30 5796 H 554.449 -3.66959 1.00227 0
M  V30 5797 H 555.761 -4.8649 1.1013 0
M  V30 5798 H 554.915 -5.98914 -0.968832 0
M  V30 5799 H 553.654 -4.73794 -1.15632 0
M  V30 5800 H 552.659 -5.39632 1.05251 0
M  V30 5801 H 553.884 -6.6793 1.22664 0
M  V30 5802 H 551.83 -6.48199 -1.00868 0
M  V30 5803 H 551.747 -7.55178 0.352354 0
M  V30 5804 H 553.015 -7.75176 -0.819882 0
M  V30 5805 N 557.244 -0.608902 -1.45362 0
M  V30 5806 C 558.191 0.109172 -2.30542 0
M  V30 5807 C 559.161 0.858704 -1.42181 0
M  V30 5808 O 560.346 0.844178 -1.71109 0
M  V30 5809 C 557.486 1.09971 -3.27109 0
M  V30 5810 C 556.599 0.350911 -4.30572 0
M  V30 5811 C 555.734 1.33129 -5.14247 0
M  V30 5812 C 554.773 0.570377 -6.09437 0
M  V30 5813 N 553.91 1.5001 -6.85887 0
M  V30 5814 H 558.75 -0.623195 -2.91411 0
M  V30 5815 H 556.287 -0.319122 -1.43597 0
M  V30 5816 H 558.245 1.68714 -3.81564 0
M  V30 5817 H 556.875 1.79947 -2.67991 0
M  V30 5818 H 555.927 -0.352054 -3.78767 0
M  V30 5819 H 557.239 -0.242725 -4.98209 0
M  V30 5820 H 556.393 1.99074 -5.73109 0
M  V30 5821 H 555.132 1.95885 -4.46632 0
M  V30 5822 H 554.137 -0.102702 -5.49704 0
M  V30 5823 H 555.362 -0.0521607 -6.7908 0
M  V30 5824 H 553.308 2.11529 -6.2096 0
M  V30 5825 H 553.225 0.959934 -7.49881 0
M  V30 5826 H 554.493 2.14909 -7.49289 0
M  V30 5827 N 558.722 1.53707 -0.348139 0
M  V30 5828 C 559.669 2.25173 0.506518 0
M  V30 5829 C 560.639 1.25174 1.09182 0
M  V30 5830 O 561.824 1.53917 1.12757 0
M  V30 5831 C 558.964 3.03141 1.64923 0
M  V30 5832 C 558.077 4.18002 1.0908 0
M  V30 5833 C 557.212 4.83447 2.20119 0
M  V30 5834 C 556.251 5.90369 1.61651 0
M  V30 5835 N 555.388 6.49575 2.66451 0
M  V30 5836 H 560.228 2.97799 -0.109452 0
M  V30 5837 H 557.765 1.46953 -0.0657866 0
M  V30 5838 H 559.723 3.46607 2.32205 0
M  V30 5839 H 558.353 2.32803 2.23612 0
M  V30 5840 H 557.405 3.79145 0.308783 0
M  V30 5841 H 558.717 4.94892 0.623178 0
M  V30 5842 H 557.871 5.30008 2.95257 0
M  V30 5843 H 556.61 4.05991 2.70227 0
M  V30 5844 H 555.615 5.43186 0.850209 0
M  V30 5845 H 556.84 6.69735 1.1239 0
M  V30 5846 H 554.786 5.74981 3.15805 0
M  V30 5847 H 554.703 7.21952 2.24325 0
M  V30 5848 H 555.971 7.00789 3.41344 0
M  V30 5849 N 560.2 0.0768682 1.57412 0
M  V30 5850 C 561.448 -0.589918 1.93299 0
M  V30 5851 C 561.769 -1.69842 0.958049 0
M  V30 5852 O 561.039 -1.95899 0.00703261 0
M  V30 5853 H 559.619 -0.220901 0.713591 0
M  V30 5854 H 562.281 0.135917 1.94425 0
M  V30 5855 H 561.377 -1.01195 2.95239 0
M  V30 5856 N 561.678 -1.56367 -0.196722 0
M  V30 5857 C 562.641 -1.93561 -1.22746 0
M  V30 5858 C 563.641 -0.816566 -1.38524 0
M  V30 5859 O 564.831 -1.084 -1.36363 0
M  V30 5860 C 561.963 -2.20823 -2.59712 0
M  V30 5861 H 563.156 -2.85774 -0.909586 0
M  V30 5862 H 560.709 -1.50032 -0.438174 0
M  V30 5863 H 561.444 -1.31243 -2.96557 0
M  V30 5864 H 561.229 -3.02368 -2.49632 0
M  V30 5865 H 562.719 -2.50608 -3.34044 0
M  V30 5866 N 563.156 0.464375 -1.50603 0
M  V30 5867 C 564.384 1.23907 -1.65695 0
M  V30 5868 C 564.799 1.85658 -0.343027 0
M  V30 5869 O 564.156 1.69529 0.675739 0
M  V30 5870 C 564.207 2.3429 -2.75301 0
M  V30 5871 O 563.928 1.7507 -4.01599 0
M  V30 5872 C 565.429 3.25051 -3.01424 0
M  V30 5873 H 562.649 0.374485 -0.556778 0
M  V30 5874 H 565.193 0.55353 -1.96866 0
M  V30 5875 H 563.348 2.98607 -2.46804 0
M  V30 5876 H 563.762 2.47812 -4.62266 0
M  V30 5877 H 565.236 3.98699 -3.81763 0
M  V30 5878 H 565.713 3.84227 -2.12758 0
M  V30 5879 H 566.319 2.66463 -3.31477 0
M  V30 5880 N 564.634 1.40294 0.718013 0
M  V30 5881 C 565.564 1.43118 1.84498 0
M  V30 5882 C 566.545 0.292403 1.67568 0
M  V30 5883 O 567.73 0.500675 1.87635 0
M  V30 5884 C 564.86 1.29065 3.22427 0
M  V30 5885 C 563.814 2.40521 3.54025 0
M  V30 5886 C 563.14 2.11546 4.91073 0
M  V30 5887 C 564.44 3.82859 3.55269 0
M  V30 5888 H 566.134 2.37432 1.82391 0
M  V30 5889 H 563.68 1.14283 0.87609 0
M  V30 5890 H 565.633 1.29658 4.00957 0
M  V30 5891 H 564.357 0.312271 3.25104 0
M  V30 5892 H 563.016 2.39173 2.77834 0
M  V30 5893 H 562.664 1.12104 4.90348 0
M  V30 5894 H 562.364 2.86216 5.1318 0
M  V30 5895 H 563.888 2.13817 5.71939 0
M  V30 5896 H 565.302 3.86044 4.23843 0
M  V30 5897 H 563.699 4.57029 3.88902 0
M  V30 5898 H 564.769 4.12617 2.54706 0
M  V30 5899 N 566.112 -0.949982 1.2575 0
M  V30 5900 C 567.523 -1.50989 1.09815 0
M  V30 5901 C 567.874 -1.93497 -0.324556 0
M  V30 5902 O 566.999 -1.79068 -1.21506 0
M  V30 5903 C 567.594 -2.74394 1.98729 0
M  V30 5904 C 566.153 -3.26682 1.86965 0
M  V30 5905 C 565.3 -1.99498 1.92603 0
M  V30 5906 H 568.251 -0.766387 1.38968 0
M  V30 5907 H 568.272 -3.48383 1.53001 0
M  V30 5908 H 567.784 -2.43425 3.02268 0
M  V30 5909 H 565.885 -3.62461 0.863279 0
M  V30 5910 H 565.998 -3.94383 2.72027 0
M  V30 5911 H 564.362 -2.15005 1.36546 0
M  V30 5912 H 565.145 -1.70871 2.97755 0
M  V30 5913 N 567.59 -1.07411 -1.15328 0
M  V30 5914 C 568.522 -0.652924 -2.19703 0
M  V30 5915 C 569.535 0.294869 -1.60107 0
M  V30 5916 O 570.724 0.0840932 -1.78302 0
M  V30 5917 C 567.824 0.061434 -3.38844 0
M  V30 5918 C 566.997 -0.902696 -4.27984 0
M  V30 5919 C 566.056 -0.225521 -5.25717 0
M  V30 5920 O 565.082 -0.86676 -5.62562 0
M  V30 5921 N 566.284 1.02858 -5.71315 0
M  V30 5922 H 569.049 -1.55081 -2.56457 0
M  V30 5923 H 566.61 -0.958883 -1.30449 0
M  V30 5924 H 568.602 0.525145 -4.01278 0
M  V30 5925 H 567.172 0.861269 -3.00501 0
M  V30 5926 H 566.392 -1.54551 -3.6264 0
M  V30 5927 H 567.68 -1.55636 -4.84412 0
M  V30 5928 H 567.078 1.56948 -5.43492 0
M  V30 5929 H 565.635 1.43596 -6.35786 0
M  V30 5930 N 569.068 1.32177 -0.85831 0
M  V30 5931 C 570.018 2.26307 -0.277307 0
M  V30 5932 C 571.002 1.50123 0.578946 0
M  V30 5933 O 572.194 1.71754 0.427731 0
M  V30 5934 C 569.323 3.39181 0.530232 0
M  V30 5935 C 568.409 4.22746 -0.338613 0
M  V30 5936 N 568.8 4.85265 -1.4266 0
M  V30 5937 C 567.098 4.45813 -0.129 0
M  V30 5938 C 567.799 5.47634 -1.96142 0
M  V30 5939 N 566.775 5.28794 -1.26007 0
M  V30 5940 H 570.577 2.72173 -1.10902 0
M  V30 5941 H 568.091 1.46308 -0.704816 0
M  V30 5942 H 570.088 4.05628 0.962904 0
M  V30 5943 H 568.748 2.9486 1.35969 0
M  V30 5944 H 569.759 4.85259 -1.80953 0
M  V30 5945 H 566.436 4.12163 0.665451 0
M  V30 5946 H 567.826 6.0735 -2.8736 0
M  V30 5947 N 570.547 0.616602 1.45037 0
M  V30 5948 C 571.796 0.112861 2.01384 0
M  V30 5949 C 572.109 -1.26758 1.48969 0
M  V30 5950 O 573.315 -1.86454 1.9735 0
M  V30 5951 C 571.771 0.151057 3.59583 0
M  V30 5952 C 571.379 1.53191 4.20995 0
M  V30 5953 C 573.123 -0.296974 4.2346 0
M  V30 5954 C 571.03 1.526 5.71373 0
M  V30 5955 H 569.96 0.0384254 0.75302 0
M  V30 5956 H 572.611 0.773262 1.66412 0
M  V30 5957 H 570.993 -0.57617 3.91786 0
M  V30 5958 H 572.167 2.28156 4.00352 0
M  V30 5959 H 570.482 1.92279 3.69348 0
M  V30 5960 H 573.079 -0.320712 5.33737 0
M  V30 5961 H 573.422 -1.32145 3.9477 0
M  V30 5962 H 573.955 0.377279 3.96007 0
M  V30 5963 H 570.694 2.52837 6.04776 0
M  V30 5964 H 570.214 0.819064 5.94181 0
M  V30 5965 H 571.893 1.25357 6.3474 0
M  V30 5966 N 572.025 -1.5352 0.356285 0
M  V30 5967 C 573.436 -1.86282 -0.12492 0
M  V30 5968 C 573.787 -1.27717 -1.48939 0
M  V30 5969 O 572.912 -0.595614 -2.08042 0
M  V30 5970 C 573.507 -3.37995 -0.23345 0
M  V30 5971 C 572.066 -3.70588 -0.658899 0
M  V30 5972 C 571.213 -2.76581 0.199596 0
M  V30 5973 H 574.164 -1.47901 0.575423 0
M  V30 5974 H 574.185 -3.65475 -1.0587 0
M  V30 5975 H 573.697 -3.8059 0.759776 0
M  V30 5976 H 571.798 -3.33544 -1.66069 0
M  V30 5977 H 571.911 -4.77076 -0.439957 0
M  V30 5978 H 570.275 -2.52552 -0.330076 0
M  V30 5979 H 571.058 -3.22008 1.19019 0
M  V30 5980 N 573.503 -0.0852151 -1.57369 0
M  V30 5981 C 574.466 0.8627 -2.12344 0
M  V30 5982 C 575.466 1.21746 -1.05046 0
M  V30 5983 O 576.656 1.14852 -1.30976 0
M  V30 5984 C 573.788 2.1618 -2.63589 0
M  V30 5985 H 574.981 0.385511 -2.97412 0
M  V30 5986 H 572.534 0.163663 -1.55441 0
M  V30 5987 H 573.269 2.68406 -1.82013 0
M  V30 5988 H 573.054 1.91723 -3.4203 0
M  V30 5989 H 574.544 2.84011 -3.06149 0
M  V30 5990 N 574.981 1.5647 0.188427 0
M  V30 5991 C 576.229 1.80655 0.905986 0
M  V30 5992 C 576.55 0.659391 1.83513 0
M  V30 5993 O 575.82 -0.321868 1.93238 0
M  V30 5994 H 574.4 0.666391 0.337538 0
M  V30 5995 H 577.062 1.93949 0.192339 0
M  V30 5996 H 576.158 2.74066 1.49313 0
M  V30 5997 N 576.459 -0.456382 1.50847 0
M  V30 5998 C 577.699 -1.21704 1.64218 0
M  V30 5999 C 578.063 -1.88932 0.341859 0
M  V30 6000 O 579.264 -2.66497 0.351137 0
M  V30 6001 C 577.535 -2.22162 2.79962 0
M  V30 6002 S 579.094 -3.0697 3.13552 0
M  V30 6003 H 575.912 -0.412995 0.578754 0
M  V30 6004 H 578.514 -0.511637 1.88686 0
M  V30 6005 H 577.218 -1.71379 3.72904 0
M  V30 6006 H 576.749 -2.9731 2.57624 0
M  V30 6007 H 578.764 -4.23539 2.58513 0
M  V30 6008 N 577.937 -1.40673 -0.710563 0
M  V30 6009 C 579.162 -1.42741 -1.50465 0
M  V30 6010 C 579.587 -0.0302116 -1.88076 0
M  V30 6011 O 578.945 0.962945 -1.53613 0
M  V30 6012 C 578.993 -2.32873 -2.75322 0
M  V30 6013 O 578.097 -1.77544 -3.72226 0
M  V30 6014 H 577.438 -0.485056 -0.45345 0
M  V30 6015 H 579.968 -1.84961 -0.874681 0
M  V30 6016 H 579.978 -2.48233 -3.23797 0
M  V30 6017 H 578.653 -3.34401 -2.47283 0
M  V30 6018 H 577.23 -1.71556 -3.31093 0
M  V30 6019 N 579.415 0.9433 -1.26252 0
M  V30 6020 C 580.345 2.05902 -1.10122 0
M  V30 6021 C 581.326 1.70099 -0.00700552 0
M  V30 6022 O 582.511 1.93377 -0.178641 0
M  V30 6023 C 579.641 3.39516 -0.731175 0
M  V30 6024 C 578.595 3.89372 -1.77688 0
M  V30 6025 C 577.921 5.19613 -1.26122 0
M  V30 6026 C 579.221 4.14489 -3.17799 0
M  V30 6027 H 580.915 2.19655 -2.03451 0
M  V30 6028 H 578.461 1.05548 -0.979576 0
M  V30 6029 H 580.414 4.17031 -0.605215 0
M  V30 6030 H 579.138 3.25733 0.23782 0
M  V30 6031 H 577.797 3.14036 -1.89148 0
M  V30 6032 H 577.445 5.02208 -0.282128 0
M  V30 6033 H 577.145 5.53939 -1.96023 0
M  V30 6034 H 578.669 5.99713 -1.14789 0
M  V30 6035 H 580.083 4.82625 -3.09428 0
M  V30 6036 H 578.48 4.60094 -3.85271 0
M  V30 6037 H 579.55 3.20347 -3.64014 0
M  V30 6038 N 580.893 1.08022 1.14757 0
M  V30 6039 C 581.825 0.664566 2.19354 0
M  V30 6040 C 582.838 -0.286374 1.60261 0
M  V30 6041 O 584.027 -0.0746362 1.78344 0
M  V30 6042 C 581.127 -0.0434634 3.38872 0
M  V30 6043 C 580.3 0.925381 4.27499 0
M  V30 6044 C 579.359 0.253398 5.2559 0
M  V30 6045 O 578.385 0.896581 5.62094 0
M  V30 6046 N 579.587 -0.998263 5.71852 0
M  V30 6047 H 582.352 1.56438 2.55631 0
M  V30 6048 H 579.913 0.965788 1.29939 0
M  V30 6049 H 581.905 -0.503857 4.01551 0
M  V30 6050 H 580.475 -0.845321 3.00954 0
M  V30 6051 H 579.695 1.56472 3.61815 0
M  V30 6052 H 580.983 1.58203 4.8358 0
M  V30 6053 H 580.381 -1.54063 5.44317 0
M  V30 6054 H 578.938 -1.40222 6.36538 0
M  V30 6055 N 582.371 -1.3172 0.865308 0
M  V30 6056 C 583.618 -1.96876 0.473931 0
M  V30 6057 C 583.946 -1.68425 -0.972786 0
M  V30 6058 O 583.201 -0.970742 -1.69927 0
M  V30 6059 C 583.5 -3.5102 0.672283 0
M  V30 6060 C 583.166 -3.9948 2.09108 0
M  V30 6061 C 581.828 -4.12425 2.4791 0
M  V30 6062 C 584.18 -4.2503 3.0166 0
M  V30 6063 C 581.508 -4.48267 3.78515 0
M  V30 6064 C 583.86 -4.62335 4.31774 0
M  V30 6065 C 582.524 -4.73486 4.70497 0
M  V30 6066 H 581.794 -0.72042 0.173424 0
M  V30 6067 H 584.441 -1.56937 1.0974 0
M  V30 6068 H 582.746 -3.91785 -0.034356 0
M  V30 6069 H 584.443 -3.99475 0.349353 0
M  V30 6070 H 581.033 -3.89898 1.77981 0
M  V30 6071 H 585.217 -4.14529 2.7291 0
M  V30 6072 H 580.473 -4.55097 4.08285 0
M  V30 6073 H 584.647 -4.81058 5.03543 0
M  V30 6074 H 582.274 -5.01016 5.71741 0
M  V30 6075 N 583.85 -0.624285 -1.44708 0
M  V30 6076 C 585.099 -0.123539 -2.01321 0
M  V30 6077 C 585.412 1.25966 -1.49639 0
M  V30 6078 O 586.618 1.85405 -1.98336 0
M  V30 6079 C 585.074 -0.170124 -3.59498 0
M  V30 6080 C 584.682 -1.55421 -4.20176 0
M  V30 6081 C 586.426 0.274513 -4.23611 0
M  V30 6082 C 584.332 -1.55628 -5.70556 0
M  V30 6083 H 583.263 -0.0424183 -0.752806 0
M  V30 6084 H 585.913 -0.782076 -1.65999 0
M  V30 6085 H 584.296 0.555385 -3.92086 0
M  V30 6086 H 585.47 -2.30276 -3.99136 0
M  V30 6087 H 583.784 -1.94235 -3.68323 0
M  V30 6088 H 586.382 0.292402 -5.339 0
M  V30 6089 H 586.725 1.3005 -3.95465 0
M  V30 6090 H 587.258 -0.398275 -3.95801 0
M  V30 6091 H 583.997 -2.56041 -6.03426 0
M  V30 6092 H 583.517 -0.850563 -5.93739 0
M  V30 6093 H 585.196 -1.28721 -6.34066 0
M  V30 6094 N 585.328 1.53329 -0.364422 0
M  V30 6095 C 586.575 2.01239 0.225634 0
M  V30 6096 C 586.903 1.25172 1.48869 0
M  V30 6097 O 586.158 0.333289 1.92841 0
M  V30 6098 C 586.457 3.52911 0.564661 0
M  V30 6099 C 586.123 4.46837 -0.603936 0
M  V30 6100 C 584.785 4.72234 -0.924585 0
M  V30 6101 C 587.137 5.02409 -1.38691 0
M  V30 6102 C 584.465 5.50454 -2.0302 0
M  V30 6103 C 586.817 5.81836 -2.48293 0
M  V30 6104 C 585.481 6.0552 -2.80894 0
M  V30 6105 H 584.751 0.736386 0.0825654 0
M  V30 6106 H 587.398 1.84948 -0.496645 0
M  V30 6107 H 585.703 3.67144 1.36794 0
M  V30 6108 H 587.4 3.87455 1.03344 0
M  V30 6109 H 583.99 4.27217 -0.343983 0
M  V30 6110 H 588.174 4.82735 -1.15243 0
M  V30 6111 H 583.43 5.67024 -2.28678 0
M  V30 6112 H 587.604 6.23905 -3.0938 0
M  V30 6113 H 585.231 6.65916 -3.66688 0
M  V30 6114 N 586.806 0.0935595 1.57322 0
M  V30 6115 C 588.034 -0.578934 1.98635 0
M  V30 6116 C 588.449 -1.61819 0.972626 0
M  V30 6117 O 587.806 -1.82461 -0.0379638 0
M  V30 6118 C 587.857 -1.22802 3.40003 0
M  V30 6119 O 587.578 -0.230334 4.37494 0
M  V30 6120 C 589.079 -1.98627 3.96311 0
M  V30 6121 H 586.299 -0.155324 0.652775 0
M  V30 6122 H 588.843 0.172393 2.03772 0
M  V30 6123 H 586.998 -1.93029 3.35885 0
M  V30 6124 H 587.412 -0.698649 5.19826 0
M  V30 6125 H 588.886 -2.39405 4.97382 0
M  V30 6126 H 589.363 -2.85151 3.34044 0
M  V30 6127 H 589.969 -1.3322 4.03897 0
M  V30 6128 N 588.284 -1.56567 -0.180126 0
M  V30 6129 C 589.53 -1.82658 -0.894859 0
M  V30 6130 C 589.885 -0.672826 -1.80252 0
M  V30 6131 O 589.178 0.331227 -1.88715 0
M  V30 6132 C 589.372 -3.1252 -1.73395 0
M  V30 6133 C 589.201 -4.40417 -0.909028 0
M  V30 6134 C 587.971 -5.01872 -0.587562 0
M  V30 6135 C 590.169 -5.13669 -0.254698 0
M  V30 6136 N 588.151 -6.13373 0.254428 0
M  V30 6137 C 589.522 -6.18373 0.448837 0
M  V30 6138 C 591.577 -4.97603 -0.171958 0
M  V30 6139 C 590.28 -7.08753 1.22725 0
M  V30 6140 C 592.306 -5.88418 0.593101 0
M  V30 6141 C 591.668 -6.92579 1.28503 0
M  V30 6142 H 587.767 -0.719493 -0.306356 0
M  V30 6143 H 590.351 -1.94021 -0.16247 0
M  V30 6144 H 588.522 -3.02365 -2.43783 0
M  V30 6145 H 590.254 -3.2664 -2.38931 0
M  V30 6146 H 587.009 -4.64666 -0.915557 0
M  V30 6147 H 587.433 -6.73721 0.665474 0
M  V30 6148 H 592.075 -4.17089 -0.692555 0
M  V30 6149 H 589.793 -7.88718 1.75923 0
M  V30 6150 H 593.379 -5.78059 0.658674 0
M  V30 6151 H 592.259 -7.61638 1.86754 0
M  V30 6152 N 589.762 0.448376 -1.51087 0
M  V30 6153 C 591.002 1.20832 -1.64861 0
M  V30 6154 C 591.366 1.88748 -0.351873 0
M  V30 6155 O 592.567 2.66307 -0.365265 0
M  V30 6156 C 590.838 2.20674 -2.81137 0
M  V30 6157 S 592.397 3.05303 -3.15176 0
M  V30 6158 H 589.215 0.40992 -0.580936 0
M  V30 6159 H 591.817 0.501624 -1.88955 0
M  V30 6160 H 590.521 1.69399 -3.73808 0
M  V30 6161 H 590.052 2.9594 -2.59198 0
M  V30 6162 H 592.067 4.22162 -2.60756 0
M  V30 6163 N 591.24 1.41047 0.703093 0
M  V30 6164 C 592.17 1.45067 1.82969 0
M  V30 6165 C 593.151 0.31016 1.67248 0
M  V30 6166 O 594.336 0.520548 1.87093 0
M  V30 6167 C 591.466 1.32478 3.2104 0
M  V30 6168 C 590.42 2.44262 3.51454 0
M  V30 6169 C 589.746 2.16742 4.88801 0
M  V30 6170 C 591.046 3.86606 3.51189 0
M  V30 6171 H 592.74 2.39353 1.79863 0
M  V30 6172 H 590.286 1.15206 0.863919 0
M  V30 6173 H 592.239 1.33904 3.99559 0
M  V30 6174 H 590.963 0.346735 3.24754 0
M  V30 6175 H 589.622 2.42107 2.75282 0
M  V30 6176 H 589.27 1.17299 4.89132 0
M  V30 6177 H 588.97 2.91643 5.10116 0
M  V30 6178 H 590.494 2.19872 5.69639 0
M  V30 6179 H 591.908 3.90517 4.19725 0
M  V30 6180 H 590.305 4.61128 3.84033 0
M  V30 6181 H 591.375 4.15296 2.50315 0
M  V30 6182 N 592.718 -0.936591 1.26751 0
M  V30 6183 C 593.628 -2.06949 1.10496 0
M  V30 6184 C 594.644 -1.7396 0.037271 0
M  V30 6185 O 595.82 -1.99941 0.241944 0
M  V30 6186 C 592.885 -3.38612 0.744491 0
M  V30 6187 C 591.946 -3.85355 1.89209 0
M  V30 6188 C 591.179 -5.10735 1.54873 0
M  V30 6189 O 591.402 -5.68602 0.452546 0
M  V30 6190 O 590.336 -5.52632 2.38499 0
M  V30 6191 H 594.162 -2.23571 2.05547 0
M  V30 6192 H 591.747 -1.05428 1.05855 0
M  V30 6193 H 593.629 -4.17711 0.556396 0
M  V30 6194 H 592.304 -3.23218 -0.176582 0
M  V30 6195 H 591.211 -3.07182 2.13518 0
M  V30 6196 H 592.544 -4.05277 2.79305 0
M  V30 6197 N 594.196 -1.08629 -1.14182 0
M  V30 6198 C 595.445 -0.812271 -1.84621 0
M  V30 6199 C 595.758 0.664313 -1.83973 0
M  V30 6200 O 596.964 1.05357 -2.50224 0
M  V30 6201 C 595.42 -1.4031 -3.31423 0
M  V30 6202 C 595.028 -2.91164 -3.40481 0
M  V30 6203 C 596.772 -1.20767 -4.06959 0
M  V30 6204 C 594.679 -3.43373 -4.81507 0
M  V30 6205 H 593.609 -0.30019 -0.691666 0
M  V30 6206 H 596.26 -1.30798 -1.28701 0
M  V30 6207 H 594.642 -0.835096 -3.87094 0
M  V30 6208 H 595.816 -3.5412 -2.94848 0
M  V30 6209 H 594.131 -3.09646 -2.78403 0
M  V30 6210 H 596.728 -1.57237 -5.11058 0
M  V30 6211 H 597.071 -0.147664 -4.16038 0
M  V30 6212 H 597.604 -1.74274 -3.57594 0
M  V30 6213 H 594.343 -4.48958 -4.77616 0
M  V30 6214 H 593.863 -2.85176 -5.27669 0
M  V30 6215 H 595.542 -3.40095 -5.50404 0
M  V30 6216 N 595.674 1.31259 -0.872281 0
M  V30 6217 C 597.09 1.49283 -0.564521 0
M  V30 6218 C 597.29 1.80243 0.900807 0
M  V30 6219 O 596.346 1.88246 1.68284 0
M  V30 6220 C 597.659 2.62503 -1.46673 0
M  V30 6221 C 599.207 2.76386 -1.46901 0
M  V30 6222 C 599.682 3.92705 -2.35684 0
M  V30 6223 N 601.173 3.99995 -2.33577 0
M  V30 6224 C 601.908 4.89276 -2.98992 0
M  V30 6225 N 601.404 5.83443 -3.73585 0
M  V30 6226 N 603.197 4.82541 -2.88289 0
M  V30 6227 H 595.348 1.09432 -1.82039 0
M  V30 6228 H 597.611 0.540949 -0.77851 0
M  V30 6229 H 597.317 2.46407 -2.50951 0
M  V30 6230 H 597.191 3.58695 -1.16696 0
M  V30 6231 H 599.578 2.91894 -0.433796 0
M  V30 6232 H 599.659 1.80853 -1.80903 0
M  V30 6233 H 599.303 3.77954 -3.39283 0
M  V30 6234 H 599.233 4.87549 -1.99006 0
M  V30 6235 H 601.724 3.32624 -1.7936 0
M  V30 6236 H 602.037 6.48303 -4.20622 0
M  V30 6237 H 600.382 5.83415 -3.77694 0
M  V30 6238 H 603.573 4.07951 -2.2955 0
M  V30 6239 H 603.746 5.51916 -3.39549 0
M  V30 6240 N 597.152 0.631951 1.44375 0
M  V30 6241 C 598.115 -0.0628142 2.29114 0
M  V30 6242 C 599.115 -0.771494 1.41084 0
M  V30 6243 O 600.305 -0.615959 1.62947 0
M  V30 6244 C 597.437 -1.09953 3.22681 0
M  V30 6245 H 598.63 0.682509 2.92031 0
M  V30 6246 H 596.183 0.392128 1.51301 0
M  V30 6247 H 596.918 -1.87481 2.64616 0
M  V30 6248 H 596.703 -0.595286 3.87555 0
M  V30 6249 H 598.193 -1.58538 3.86336 0
M  V30 6250 N 598.631 -1.53133 0.372548 0
M  V30 6251 C 599.88 -2.00539 -0.216115 0
M  V30 6252 C 600.193 -1.26374 -1.49295 0
M  V30 6253 O 601.399 -1.64404 -2.16064 0
M  V30 6254 C 599.855 -3.57253 -0.435678 0
M  V30 6255 C 599.463 -4.40302 0.82693 0
M  V30 6256 C 601.207 -4.12995 -0.981618 0
M  V30 6257 C 599.114 -5.88583 0.576567 0
M  V30 6258 H 598.044 -0.749246 -0.084536 0
M  V30 6259 H 600.695 -1.76771 0.492364 0
M  V30 6260 H 599.077 -3.77202 -1.20559 0
M  V30 6261 H 600.251 -4.32124 1.60017 0
M  V30 6262 H 598.566 -3.95699 1.29659 0
M  V30 6263 H 601.163 -5.21418 -1.18436 0
M  V30 6264 H 601.506 -3.68027 -1.94581 0
M  V30 6265 H 602.039 -3.96871 -0.271696 0
M  V30 6266 H 598.778 -6.37841 1.51128 0
M  V30 6267 H 598.298 -5.99592 -0.158047 0
M  V30 6268 H 599.977 -6.46676 0.204722 0
M  V30 6269 N 600.109 -0.101901 -1.5727 0
M  V30 6270 C 601.52 0.426173 -1.81771 0
M  V30 6271 C 601.871 1.67725 -1.01797 0
M  V30 6272 O 600.996 2.14958 -0.249386 0
M  V30 6273 C 601.591 0.779962 -3.297 0
M  V30 6274 C 600.15 1.25275 -3.54941 0
M  V30 6275 C 599.297 0.252814 -2.76145 0
M  V30 6276 H 602.248 -0.32726 -1.55289 0
M  V30 6277 H 602.269 1.63891 -3.43395 0
M  V30 6278 H 601.781 -0.130778 -3.8788 0
M  V30 6279 H 599.882 2.18097 -3.021 0
M  V30 6280 H 599.995 1.20988 -4.63572 0
M  V30 6281 H 598.359 0.736362 -2.43823 0
M  V30 6282 H 599.142 -0.650724 -3.37076 0
M  V30 6283 N 601.587 1.56661 0.17182 0
M  V30 6284 C 602.534 1.96371 1.21273 0
M  V30 6285 C 603.504 0.82756 1.44016 0
M  V30 6286 O 604.689 1.08764 1.56764 0
M  V30 6287 C 601.829 2.32838 2.54716 0
M  V30 6288 C 600.942 3.59628 2.39356 0
M  V30 6289 C 600.077 3.85311 3.65662 0
M  V30 6290 C 599.116 5.0545 3.45234 0
M  V30 6291 N 598.253 5.27268 4.63608 0
M  V30 6292 H 603.093 2.85106 0.86709 0
M  V30 6293 H 600.63 1.41073 0.416744 0
M  V30 6294 H 602.588 2.52004 3.3249 0
M  V30 6295 H 601.218 1.47214 2.87277 0
M  V30 6296 H 600.27 3.4838 1.52761 0
M  V30 6297 H 601.582 4.4756 2.20207 0
M  V30 6298 H 600.736 4.04841 4.51872 0
M  V30 6299 H 599.475 2.95753 3.8779 0
M  V30 6300 H 598.48 4.85819 2.5741 0
M  V30 6301 H 599.705 5.96538 3.24529 0
M  V30 6302 H 597.651 4.40662 4.85956 0
M  V30 6303 H 597.568 6.09422 4.4737 0
M  V30 6304 H 598.836 5.51277 5.51103 0
M  V30 6305 N 603.065 -0.440357 1.51323 0
M  V30 6306 C 604.012 -1.53429 1.72419 0
M  V30 6307 C 604.982 -1.56165 0.565826 0
M  V30 6308 O 606.167 -1.73222 0.799917 0
M  V30 6309 C 603.307 -2.91169 1.85242 0
M  V30 6310 C 602.42 -2.97985 3.12777 0
M  V30 6311 C 601.555 -4.26829 3.16212 0
M  V30 6312 C 600.594 -4.27501 4.38074 0
M  V30 6313 N 599.731 -5.47866 4.39076 0
M  V30 6314 H 604.571 -1.34743 2.65797 0
M  V30 6315 H 602.108 -0.654608 1.31732 0
M  V30 6316 H 604.066 -3.71087 1.90658 0
M  V30 6317 H 602.696 -3.0842 0.952744 0
M  V30 6318 H 601.748 -2.10749 3.16685 0
M  V30 6319 H 603.06 -2.94342 4.02696 0
M  V30 6320 H 602.214 -5.15118 3.20527 0
M  V30 6321 H 600.953 -4.33124 2.24176 0
M  V30 6322 H 599.958 -3.37606 4.33938 0
M  V30 6323 H 601.183 -4.22873 5.31371 0
M  V30 6324 H 599.129 -5.54887 3.49909 0
M  V30 6325 H 599.046 -5.46091 5.22801 0
M  V30 6326 H 600.314 -6.38195 4.4758 0
M  V30 6327 N 604.543 -1.41418 -0.695603 0
M  V30 6328 C 605.506 -1.42988 -1.79129 0
M  V30 6329 C 606.506 -0.320514 -1.57573 0
M  V30 6330 O 607.696 -0.58039 -1.64247 0
M  V30 6331 C 604.828 -1.24122 -3.175 0
M  V30 6332 H 606.021 -2.40526 -1.7913 0
M  V30 6333 H 603.574 -1.2756 -0.903225 0
M  V30 6334 H 604.309 -0.274253 -3.23138 0
M  V30 6335 H 604.094 -2.045 -3.34547 0
M  V30 6336 H 605.584 -1.28056 -3.97481 0
M  V30 6337 N 606.021 0.929856 -1.27246 0
M  V30 6338 C 607.268 1.67731 -1.13457 0
M  V30 6339 C 607.596 1.9185 0.319998 0
M  V30 6340 O 606.851 1.50524 1.25064 0
M  V30 6341 C 607.15 3.05116 -1.86115 0
M  V30 6342 C 606.816 3.00715 -3.35978 0
M  V30 6343 C 605.478 2.99222 -3.76855 0
M  V30 6344 C 607.83 2.92168 -4.3161 0
M  V30 6345 C 605.158 2.86962 -5.11732 0
M  V30 6346 C 607.51 2.81449 -5.66542 0
M  V30 6347 C 606.174 2.78305 -6.06715 0
M  V30 6348 H 605.444 0.613772 -0.415168 0
M  V30 6349 H 608.091 1.08456 -1.57827 0
M  V30 6350 H 606.396 3.68083 -1.34246 0
M  V30 6351 H 608.093 3.61822 -1.72876 0
M  V30 6352 H 604.683 3.02664 -3.03468 0
M  V30 6353 H 608.867 2.92421 -4.01003 0
M  V30 6354 H 604.123 2.82913 -5.42006 0
M  V30 6355 H 608.297 2.738 -6.40317 0
M  V30 6356 H 605.924 2.68561 -7.11181 0
M  V30 6357 N 607.499 1.09233 1.13605 0
M  V30 6358 C 608.429 0.751738 2.21068 0
M  V30 6359 C 609.41 -0.269688 1.67948 0
M  V30 6360 O 610.595 -0.13819 1.93708 0
M  V30 6361 C 607.725 0.16935 3.46887 0
M  V30 6362 C 606.679 1.12007 4.13084 0
M  V30 6363 C 606.005 0.399483 5.33206 0
M  V30 6364 C 607.305 2.46168 4.6065 0
M  V30 6365 H 608.999 1.65024 2.49815 0
M  V30 6366 H 606.545 0.794905 1.20072 0
M  V30 6367 H 608.498 -0.0809824 4.21322 0
M  V30 6368 H 607.222 -0.764335 3.1753 0
M  V30 6369 H 605.881 1.35564 3.40614 0
M  V30 6370 H 605.529 -0.538277 5.00112 0
M  V30 6371 H 605.229 1.03337 5.78442 0
M  V30 6372 H 606.753 0.157403 6.10397 0
M  V30 6373 H 608.167 2.26829 5.26518 0
M  V30 6374 H 606.564 3.05326 5.1662 0
M  V30 6375 H 607.634 3.07076 3.75276 0
M  V30 6376 N 608.977 -1.30795 0.87923 0
M  V30 6377 C 610.393 -1.48981 0.57243 0
M  V30 6378 C 610.593 -1.80719 -0.891236 0
M  V30 6379 O 609.649 -1.89136 -1.67283 0
M  V30 6380 C 610.962 -2.61721 1.48063 0
M  V30 6381 C 612.51 -2.75603 1.48365 0
M  V30 6382 C 612.985 -3.91449 2.37763 0
M  V30 6383 N 614.476 -3.98751 2.35695 0
M  V30 6384 C 615.211 -4.87684 3.01583 0
M  V30 6385 N 614.707 -5.81454 3.76674 0
M  V30 6386 N 616.5 -4.81005 2.90844 0
M  V30 6387 H 608.651 -1.08465 1.82617 0
M  V30 6388 H 610.914 -0.536813 0.781368 0
M  V30 6389 H 610.62 -2.45073 2.52254 0
M  V30 6390 H 610.494 -3.58071 1.18596 0
M  V30 6391 H 612.881 -2.9166 0.44927 0
M  V30 6392 H 612.962 -1.79891 1.81859 0
M  V30 6393 H 612.606 -3.76149 3.41283 0
M  V30 6394 H 612.536 -4.86487 2.01589 0
M  V30 6395 H 615.027 -3.31668 1.81121 0
M  V30 6396 H 615.34 -6.46063 4.24054 0
M  V30 6397 H 613.685 -5.81403 3.80782 0
M  V30 6398 H 616.876 -4.06728 2.31711 0
M  V30 6399 H 617.049 -5.50107 3.42471 0
M  V30 6400 N 610.455 -0.639598 -1.44038 0
M  V30 6401 C 611.418 0.0506628 -2.29144 0
M  V30 6402 C 612.418 0.764001 -1.41491 0
M  V30 6403 O 613.608 0.607309 -1.63271 0
M  V30 6404 C 610.74 1.0824 -3.2326 0
M  V30 6405 H 611.933 -0.697987 -2.91664 0
M  V30 6406 H 609.486 -0.400146 -1.51091 0
M  V30 6407 H 610.221 1.86075 -2.65606 0
M  V30 6408 H 610.006 0.574725 -3.87865 0
M  V30 6409 H 611.496 1.56487 -3.87171 0
M  V30 6410 N 611.933 1.52934 -0.380664 0
M  V30 6411 C 612.863 2.29118 0.450268 0
M  V30 6412 C 613.844 1.32153 1.07096 0
M  V30 6413 O 615.029 1.61038 1.08537 0
M  V30 6414 C 612.159 3.09161 1.58231 0
M  V30 6415 C 611.113 4.13938 1.0881 0
M  V30 6416 C 610.439 4.82153 2.31155 0
M  V30 6417 C 611.739 5.22048 0.162146 0
M  V30 6418 H 613.433 2.98826 -0.185361 0
M  V30 6419 H 610.979 1.43715 -0.0905886 0
M  V30 6420 H 612.932 3.61211 2.17036 0
M  V30 6421 H 611.656 2.3717 2.2454 0
M  V30 6422 H 610.315 3.62855 0.522633 0
M  V30 6423 H 609.963 4.06719 2.95953 0
M  V30 6424 H 609.663 5.52966 1.98752 0
M  V30 6425 H 611.187 5.37004 2.90618 0
M  V30 6426 H 612.601 5.6951 0.658126 0
M  V30 6427 H 610.998 6.00057 -0.0717122 0
M  V30 6428 H 612.068 4.78398 -0.791438 0
M  V30 6429 N 613.412 0.11024 1.57214 0
M  V30 6430 C 614.658 -0.550684 1.9518 0
M  V30 6431 C 614.991 -1.66885 0.993122 0
M  V30 6432 O 614.266 -1.94479 0.0287907 0
M  V30 6433 C 614.549 -1.09163 3.43155 0
M  V30 6434 C 614.402 0.0225198 4.49794 0
M  V30 6435 C 615.721 -1.98527 3.92778 0
M  V30 6436 H 612.84 -0.198706 0.709708 0
M  V30 6437 H 615.482 0.184024 1.89107 0
M  V30 6438 H 613.632 -1.71775 3.48462 0
M  V30 6439 H 615.304 0.657443 4.56591 0
M  V30 6440 H 613.547 0.686868 4.28328 0
M  V30 6441 H 614.218 -0.39706 5.5057 0
M  V30 6442 H 616.694 -1.458 3.8972 0
M  V30 6443 H 615.57 -2.33298 4.96853 0
M  V30 6444 H 615.831 -2.90846 3.32958 0
M  V30 6445 N 614.89 -1.56749 -0.16351 0
M  V30 6446 C 616.167 -1.73321 -0.906599 0
M  V30 6447 C 616.547 -0.673779 -2.00059 0
M  V30 6448 O 615.895 0.310121 -2.26386 0
M  V30 6449 C 616.105 -3.168 -1.46419 0
M  V30 6450 C 617.453 -3.77993 -1.93407 0
M  V30 6451 O 618.477 -3.20127 -1.56196 0
M  V30 6452 O 617.336 -4.79615 -2.61976 0
M  V30 6453 H 614.43 -0.708073 -0.427272 0
M  V30 6454 H 616.976 -1.69029 -0.150727 0
M  V30 6455 H 615.748 -3.85396 -0.677189 0
M  V30 6456 H 615.371 -3.2545 -2.28403 0
M  V30 6457 N 616.368 0.432326 -1.51554 0
M  V30 6458 C 617.598 1.2019 -1.68042 0
M  V30 6459 C 618.006 1.85356 -0.379434 0
M  V30 6460 O 617.349 1.71724 0.652427 0
M  V30 6461 C 617.411 2.32387 -2.74292 0
M  V30 6462 C 617.075 1.87548 -4.16743 0
M  V30 6463 C 618.072 1.37611 -5.01357 0
M  V30 6464 C 615.757 1.95087 -4.62868 0
M  V30 6465 C 617.751 0.958069 -6.30159 0
M  V30 6466 C 615.438 1.52894 -5.91664 0
M  V30 6467 C 616.436 1.03336 -6.75137 0
M  V30 6468 O 616.124 0.617435 -8.01525 0
M  V30 6469 H 615.856 0.368132 -0.56697 0
M  V30 6470 H 618.41 0.517875 -1.98764 0
M  V30 6471 H 616.64 3.04082 -2.38895 0
M  V30 6472 H 618.329 2.94235 -2.79608 0
M  V30 6473 H 619.095 1.31178 -4.66923 0
M  V30 6474 H 614.974 2.32606 -3.98015 0
M  V30 6475 H 618.518 0.570562 -6.95263 0
M  V30 6476 H 614.415 1.58999 -6.25611 0
M  V30 6477 H 615.183 0.742835 -8.15122 0
M  V30 6478 N 617.846 1.41785 0.688094 0
M  V30 6479 C 619.074 1.44915 1.47673 0
M  V30 6480 C 619.489 0.0565786 1.88715 0
M  V30 6481 O 618.846 -0.92579 1.57275 0
M  V30 6482 C 618.897 2.36452 2.73446 0
M  V30 6483 O 618.618 3.7029 2.34131 0
M  V30 6484 C 620.119 2.48463 3.67125 0
M  V30 6485 H 617.339 0.493324 0.454832 0
M  V30 6486 H 619.883 1.86153 0.846594 0
M  V30 6487 H 618.038 1.98502 3.3268 0
M  V30 6488 H 618.452 4.19183 3.15255 0
M  V30 6489 H 619.926 3.16662 4.52138 0
M  V30 6490 H 620.403 1.51826 4.12123 0
M  V30 6491 H 621.009 2.8708 3.13792 0
M  V30 6492 N 619.324 -0.923095 1.27737 0
M  V30 6493 C 620.549 -1.71054 1.17283 0
M  V30 6494 C 620.974 -1.86208 -0.266153 0
M  V30 6495 O 620.332 -1.36545 -1.1927 0
M  V30 6496 C 620.38 -3.0854 1.86642 0
M  V30 6497 O 619.484 -3.95528 1.16752 0
M  V30 6498 H 618.825 -0.524136 0.407649 0
M  V30 6499 H 621.355 -1.15487 1.6889 0
M  V30 6500 H 621.365 -3.58828 1.94182 0
M  V30 6501 H 620.04 -2.96828 2.91317 0
M  V30 6502 H 618.617 -3.53967 1.17312 0
M  V30 6503 N 620.802 -1.09834 -1.13024 0
M  V30 6504 C 622.079 -0.749225 -1.80682 0
M  V30 6505 C 622.459 0.765171 -1.96744 0
M  V30 6506 O 621.807 1.68912 -1.53886 0
M  V30 6507 C 622.017 -1.49311 -3.15448 0
M  V30 6508 C 623.365 -1.66162 -3.90737 0
M  V30 6509 O 624.389 -1.45597 -3.25085 0
M  V30 6510 O 623.248 -2.00211 -5.08505 0
M  V30 6511 H 620.342 -0.269614 -0.781817 0
M  V30 6512 H 622.888 -1.20078 -1.19914 0
M  V30 6513 H 621.66 -2.52407 -2.99009 0
M  V30 6514 H 621.283 -1.034 -3.8392 0
M  V30 6515 N 622.28 1.30327 -0.886154 0
M  V30 6516 C 623.505 2.0079 -0.519425 0
M  V30 6517 C 623.93 1.65979 0.885013 0
M  V30 6518 O 623.288 0.877043 1.58675 0
M  V30 6519 C 623.336 3.53686 -0.702758 0
M  V30 6520 O 622.44 4.11637 0.250828 0
M  V30 6521 H 621.781 0.63171 -0.204544 0
M  V30 6522 H 624.311 1.66145 -1.19402 0
M  V30 6523 H 624.321 4.03531 -0.602207 0
M  V30 6524 H 622.996 3.78361 -1.72673 0
M  V30 6525 H 621.573 3.72755 0.103873 0
M  V30 6526 N 623.758 0.647228 1.43697 0
M  V30 6527 C 624.721 -0.0385101 2.29168 0
M  V30 6528 C 625.721 -0.756487 1.41894 0
M  V30 6529 O 626.911 -0.598641 1.63591 0
M  V30 6530 C 624.043 -1.06524 3.23829 0
M  V30 6531 H 625.236 0.713445 2.9129 0
M  V30 6532 H 622.789 0.408153 1.50877 0
M  V30 6533 H 623.524 -1.84664 2.66589 0
M  V30 6534 H 623.309 -0.554147 3.88164 0
M  V30 6535 H 624.799 -1.54432 3.87996 0
M  V30 6536 N 625.236 -1.5273 0.388769 0
M  V30 6537 C 626.146 -2.30165 -0.453993 0
M  V30 6538 C 627.162 -1.37058 -1.07197 0
M  V30 6539 O 628.338 -1.70127 -1.0779 0
M  V30 6540 C 625.403 -3.09303 -1.56628 0
M  V30 6541 C 624.464 -4.18117 -0.973467 0
M  V30 6542 C 623.697 -4.93472 -2.03275 0
M  V30 6543 O 623.92 -4.68913 -3.24772 0
M  V30 6544 O 622.854 -5.78833 -1.65034 0
M  V30 6545 H 626.68 -3.03185 0.176816 0
M  V30 6546 H 624.265 -1.4862 0.152501 0
M  V30 6547 H 626.147 -3.58648 -2.21246 0
M  V30 6548 H 624.822 -2.39098 -2.18206 0
M  V30 6549 H 623.729 -3.7297 -0.290556 0
M  V30 6550 H 625.062 -4.90556 -0.401908 0
M  V30 6551 N 626.714 -0.118576 -1.57153 0
M  V30 6552 C 627.661 0.831789 -2.1529 0
M  V30 6553 C 628.631 1.26385 -1.07778 0
M  V30 6554 O 629.816 1.34144 -1.35684 0
M  V30 6555 C 626.956 2.07664 -2.75626 0
M  V30 6556 C 626.069 1.69298 -3.97444 0
M  V30 6557 C 625.204 2.88747 -4.45868 0
M  V30 6558 C 624.243 2.46619 -5.60219 0
M  V30 6559 N 623.38 3.5898 -6.03389 0
M  V30 6560 H 628.22 0.329183 -2.96176 0
M  V30 6561 H 625.757 0.150792 -1.46325 0
M  V30 6562 H 627.715 2.80601 -3.08738 0
M  V30 6563 H 626.345 2.55384 -1.97431 0
M  V30 6564 H 625.397 0.862374 -3.70496 0
M  V30 6565 H 626.709 1.34338 -4.80369 0
M  V30 6566 H 625.863 3.69909 -4.80887 0
M  V30 6567 H 624.602 3.26933 -3.61892 0
M  V30 6568 H 623.607 1.63889 -5.24805 0
M  V30 6569 H 624.832 2.0955 -6.45961 0
M  V30 6570 H 622.778 3.9684 -5.22354 0
M  V30 6571 H 622.695 3.27942 -6.81168 0
M  V30 6572 H 623.963 4.40583 -6.43045 0
M  V30 6573 N 628.193 1.56834 0.155195 0
M  V30 6574 C 629.609 1.51315 0.50755 0
M  V30 6575 C 629.809 0.825614 1.83809 0
M  V30 6576 O 628.865 0.39271 2.49427 0
M  V30 6577 C 630.178 2.96074 0.52542 0
M  V30 6578 C 631.726 3.06968 0.611505 0
M  V30 6579 C 632.201 4.53218 0.660115 0
M  V30 6580 N 633.692 4.5753 0.722564 0
M  V30 6581 C 634.427 5.68056 0.781023 0
M  V30 6582 N 633.923 6.88173 0.799327 0
M  V30 6583 N 635.716 5.56068 0.821278 0
M  V30 6584 H 627.867 1.9993 -0.717063 0
M  V30 6585 H 630.13 0.911507 -0.260496 0
M  V30 6586 H 629.836 3.49599 -0.383875 0
M  V30 6587 H 629.71 3.51587 1.36624 0
M  V30 6588 H 632.097 2.53468 1.51122 0
M  V30 6589 H 632.178 2.54513 -0.256306 0
M  V30 6590 H 631.822 5.07354 -0.23541 0
M  V30 6591 H 631.752 5.03447 1.5443 0
M  V30 6592 H 634.243 3.71054 0.716049 0
M  V30 6593 H 634.556 7.6816 0.845553 0
M  V30 6594 H 632.901 6.90751 0.767337 0
M  V30 6595 H 636.092 4.61142 0.804091 0
M  V30 6596 H 636.265 6.42223 0.863372 0
M  V30 6597 N 629.671 -0.424282 1.51781 0
M  V30 6598 C 631.087 -0.761768 1.40247 0
M  V30 6599 C 631.287 -1.95324 0.495041 0
M  V30 6600 O 630.343 -2.5246 -0.0448949 0
M  V30 6601 C 631.656 -1.0299 2.82513 0
M  V30 6602 C 633.204 -1.13354 2.91753 0
M  V30 6603 C 633.679 -1.43453 4.34954 0
M  V30 6604 N 635.17 -1.5035 4.3812 0
M  V30 6605 C 635.905 -1.75236 5.45967 0
M  V30 6606 N 635.401 -1.97827 6.63955 0
M  V30 6607 N 637.194 -1.77126 5.33463 0
M  V30 6608 H 629.345 0.360228 2.09323 0
M  V30 6609 H 631.608 0.0988128 0.942836 0
M  V30 6610 H 631.314 -0.226961 3.50967 0
M  V30 6611 H 631.188 -1.95411 3.22637 0
M  V30 6612 H 633.575 -1.92709 2.23489 0
M  V30 6613 H 633.656 -0.188041 2.55108 0
M  V30 6614 H 633.3 -0.646209 5.03772 0
M  V30 6615 H 633.23 -2.3923 4.69123 0
M  V30 6616 H 635.721 -1.34742 3.53062 0
M  V30 6617 H 636.034 -2.16223 7.41935 0
M  V30 6618 H 634.379 -1.95123 6.67047 0
M  V30 6619 H 637.57 -1.59005 4.40267 0
M  V30 6620 H 637.743 -1.96182 6.17589 0
M  V30 6621 N 631.149 -1.42148 -0.680565 0
M  V30 6622 C 632.079 -1.4796 -1.80638 0
M  V30 6623 C 633.06 -0.336728 -1.66734 0
M  V30 6624 O 634.245 -0.550247 -1.86242 0
M  V30 6625 C 631.375 -1.37569 -3.18892 0
M  V30 6626 C 630.329 -2.49823 -3.47524 0
M  V30 6627 C 629.655 -2.24491 -4.85291 0
M  V30 6628 C 630.955 -3.92144 -3.44994 0
M  V30 6629 H 632.649 -2.42184 -1.76032 0
M  V30 6630 H 630.195 -1.16566 -0.845481 0
M  V30 6631 H 632.148 -1.40243 -3.97379 0
M  V30 6632 H 630.872 -0.398357 -3.24162 0
M  V30 6633 H 629.531 -2.46455 -2.71395 0
M  V30 6634 H 629.179 -1.25066 -4.87204 0
M  V30 6635 H 628.879 -2.99722 -5.05411 0
M  V30 6636 H 630.403 -2.28906 -5.66069 0
M  V30 6637 H 631.817 -3.97145 -4.13459 0
M  V30 6638 H 630.214 -4.67179 -3.76648 0
M  V30 6639 H 631.284 -4.19225 -2.43676 0
M  V30 6640 N 632.627 0.916307 -1.28225 0
M  V30 6641 C 633.559 2.02303 -1.07732 0
M  V30 6642 C 634.572 1.62773 -0.0298421 0
M  V30 6643 O 635.761 1.76406 -0.272626 0
M  V30 6644 C 632.861 3.33282 -0.614504 0
M  V30 6645 C 632.034 4.01439 -1.73682 0
M  V30 6646 C 631.093 5.10698 -1.26781 0
M  V30 6647 O 630.119 5.34038 -1.96958 0
M  V30 6648 N 631.321 5.80355 -0.129624 0
M  V30 6649 H 634.086 2.20442 -2.03041 0
M  V30 6650 H 631.647 1.08744 -1.19943 0
M  V30 6651 H 633.639 4.03699 -0.284397 0
M  V30 6652 H 632.209 3.11633 0.245664 0
M  V30 6653 H 631.429 3.24604 -2.23665 0
M  V30 6654 H 632.717 4.43721 -2.48976 0
M  V30 6655 H 632.115 5.6386 0.455847 0
M  V30 6656 H 630.672 6.51647 0.141224 0
M  V30 6657 N 634.105 1.10431 1.1244 0
M  V30 6658 C 635.015 0.765502 2.21759 0
M  V30 6659 C 636.031 -0.236966 1.72379 0
M  V30 6660 O 637.207 -0.0757329 2.01258 0
M  V30 6661 C 634.272 0.202316 3.46109 0
M  V30 6662 C 633.333 1.26205 4.1033 0
M  V30 6663 C 632.566 0.725648 5.28744 0
M  V30 6664 O 632.789 -0.447942 5.68638 0
M  V30 6665 O 631.723 1.48555 5.83279 0
M  V30 6666 H 635.549 1.67801 2.53133 0
M  V30 6667 H 633.134 0.879443 1.20773 0
M  V30 6668 H 635.016 -0.107918 4.21262 0
M  V30 6669 H 633.691 -0.683052 3.16411 0
M  V30 6670 H 632.598 1.62514 3.36957 0
M  V30 6671 H 633.931 2.12044 4.44183 0
M  V30 6672 N 635.583 -1.29855 0.893053 0
M  V30 6673 C 636.513 -2.3035 0.382249 0
M  V30 6674 C 637.494 -1.61328 -0.539203 0
M  V30 6675 O 638.679 -1.88882 -0.451342 0
M  V30 6676 C 635.809 -3.45024 -0.396983 0
M  V30 6677 C 634.763 -4.258 0.433437 0
M  V30 6678 C 634.089 -5.32605 -0.472889 0
M  V30 6679 C 635.389 -4.94549 1.67984 0
M  V30 6680 H 637.083 -2.73325 1.22205 0
M  V30 6681 H 634.629 -1.314 0.589073 0
M  V30 6682 H 636.582 -4.14398 -0.765024 0
M  V30 6683 H 635.306 -3.00875 -1.2705 0
M  V30 6684 H 633.965 -3.58125 0.783723 0
M  V30 6685 H 633.613 -4.84702 -1.34435 0
M  V30 6686 H 633.313 -5.87547 0.0789958 0
M  V30 6687 H 634.837 -6.04832 -0.837269 0
M  V30 6688 H 636.251 -5.56395 1.38192 0
M  V30 6689 H 634.648 -5.59393 2.17254 0
M  V30 6690 H 635.718 -4.20215 2.41965 0
M  V30 6691 N 637.061 -0.65484 -1.43351 0
M  V30 6692 C 638.301 -0.172514 -2.03671 0
M  V30 6693 C 638.665 1.19154 -1.50553 0
M  V30 6694 O 639.866 1.76737 -2.02528 0
M  V30 6695 C 638.137 -0.183982 -3.56926 0
M  V30 6696 S 639.696 0.230262 -4.38195 0
M  V30 6697 H 636.514 -0.0727503 -0.707268 0
M  V30 6698 H 639.116 -0.863537 -1.75395 0
M  V30 6699 H 637.82 -1.17945 -3.93087 0
M  V30 6700 H 637.351 0.527527 -3.89847 0
M  V30 6701 H 639.366 1.46874 -4.73965 0
M  V30 6702 N 638.539 1.52521 -0.396863 0
M  V30 6703 C 639.764 2.06571 0.185258 0
M  V30 6704 C 640.189 1.26605 1.39115 0
M  V30 6705 O 639.547 0.293055 1.78916 0
M  V30 6706 C 639.595 3.5674 0.526189 0
M  V30 6707 O 638.699 3.7929 1.61903 0
M  V30 6708 H 638.04 0.663712 0.0195474 0
M  V30 6709 H 640.57 1.966 -0.566519 0
M  V30 6710 H 640.58 4.00311 0.788338 0
M  V30 6711 H 639.255 4.14379 -0.355397 0
M  V30 6712 H 637.832 3.47605 1.35 0
M  V30 6713 N 640.017 0.126909 1.57088 0
M  V30 6714 C 640.964 -0.82036 2.15728 0
M  V30 6715 C 641.934 -1.25811 1.08447 0
M  V30 6716 O 643.119 -1.33422 1.36393 0
M  V30 6717 C 640.259 -2.06199 2.76724 0
M  V30 6718 C 639.372 -1.67188 3.98337 0
M  V30 6719 C 638.507 -2.86378 4.47393 0
M  V30 6720 C 637.546 -2.43644 5.61519 0
M  V30 6721 N 636.683 -3.55775 6.05284 0
M  V30 6722 H 641.523 -0.313472 2.96347 0
M  V30 6723 H 639.06 -0.14303 1.46403 0
M  V30 6724 H 641.018 -2.78959 3.10222 0
M  V30 6725 H 639.648 -2.54333 1.98782 0
M  V30 6726 H 638.7 -0.842714 3.70948 0
M  V30 6727 H 640.012 -1.31789 4.81075 0
M  V30 6728 H 639.166 -3.67353 4.82842 0
M  V30 6729 H 637.905 -3.25009 3.63621 0
M  V30 6730 H 636.91 -1.61104 5.25667 0
M  V30 6731 H 638.135 -2.06122 6.47063 0
M  V30 6732 H 636.081 -3.94065 5.24451 0
M  V30 6733 H 635.998 -3.24325 6.82898 0
M  V30 6734 H 637.266 -4.37166 6.45373 0
M  V30 6735 N 641.495 -1.56914 -0.146875 0
M  V30 6736 C 642.427 -1.94878 -1.20645 0
M  V30 6737 C 643.44 -0.844633 -1.39175 0
M  V30 6738 O 644.629 -1.12304 -1.38744 0
M  V30 6739 C 641.729 -2.20769 -2.57127 0
M  V30 6740 C 640.902 -3.52053 -2.59572 0
M  V30 6741 C 639.961 -3.66482 -3.77594 0
M  V30 6742 O 638.987 -4.38873 -3.62462 0
M  V30 6743 N 640.189 -3.03156 -4.95052 0
M  V30 6744 H 642.954 -2.86374 -0.883757 0
M  V30 6745 H 640.515 -1.58366 -0.336436 0
M  V30 6746 H 642.507 -2.27664 -3.34591 0
M  V30 6747 H 641.077 -1.35538 -2.81688 0
M  V30 6748 H 640.297 -3.56598 -1.68023 0
M  V30 6749 H 641.585 -4.38396 -2.58238 0
M  V30 6750 H 640.983 -2.44258 -5.10249 0
M  V30 6751 H 639.54 -3.15611 -5.70292 0
M  V30 6752 N 642.974 0.416227 -1.52004 0
M  V30 6753 C 644.222 1.16153 -1.65387 0
M  V30 6754 C 644.543 1.91208 -0.382669 0
M  V30 6755 O 643.813 1.86413 0.602231 0
M  V30 6756 H 642.393 0.431765 -0.60958 0
M  V30 6757 H 645.055 0.475151 -1.89019 0
M  V30 6758 H 644.151 1.87952 -2.4916 0
M  V30 6759 N 644.452 1.42507 0.673017 0
M  V30 6760 C 645.415 1.4582 1.76831 0
M  V30 6761 C 646.415 0.345542 1.57043 0
M  V30 6762 O 647.605 0.606447 1.63303 0
M  V30 6763 C 644.737 1.29158 3.15485 0
M  V30 6764 H 645.93 2.43345 1.7528 0
M  V30 6765 H 643.483 1.28981 0.882817 0
M  V30 6766 H 644.218 0.325626 3.22661 0
M  V30 6767 H 644.003 2.09797 3.31252 0
M  V30 6768 H 645.493 1.34363 3.95394 0
M  V30 6769 N 645.93 -0.909495 1.28709 0
M  V30 6770 C 646.893 -1.99399 1.13016 0
M  V30 6771 C 647.893 -1.60654 0.068536 0
M  V30 6772 O 649.083 -1.71334 0.314671 0
M  V30 6773 C 646.215 -3.33078 0.726085 0
M  V30 6774 H 647.408 -2.14751 2.09338 0
M  V30 6775 H 644.961 -1.09272 1.11756 0
M  V30 6776 H 645.696 -3.23428 -0.23771 0
M  V30 6777 H 645.481 -3.62562 1.49302 0
M  V30 6778 H 646.971 -4.12681 0.639058 0
M  V30 6779 N 647.408 -1.11026 -1.11852 0
M  V30 6780 C 648.685 -0.768347 -1.79877 0
M  V30 6781 C 649.065 0.744261 -1.97545 0
M  V30 6782 O 648.413 1.67271 -1.55669 0
M  V30 6783 C 648.623 -1.52648 -3.13846 0
M  V30 6784 C 649.971 -1.70297 -3.88953 0
M  V30 6785 O 650.995 -1.49037 -3.23522 0
M  V30 6786 O 649.854 -2.05593 -5.06353 0
M  V30 6787 H 646.948 -0.277891 -0.778913 0
M  V30 6788 H 649.494 -1.21343 -1.18633 0
M  V30 6789 H 648.266 -2.55564 -2.96315 0
M  V30 6790 H 647.889 -1.07466 -3.82801 0
M  V30 6791 N 648.886 1.2938 -0.899927 0
M  V30 6792 C 650.116 1.99402 -0.540601 0
M  V30 6793 C 650.524 1.67534 0.87914 0
M  V30 6794 O 649.867 0.916821 1.59186 0
M  V30 6795 C 649.929 3.53514 -0.653326 0
M  V30 6796 C 649.593 4.08937 -2.04009 0
M  V30 6797 C 650.59 4.23815 -3.01126 0
M  V30 6798 C 648.275 4.43962 -2.34953 0
M  V30 6799 C 650.269 4.72951 -4.27313 0
M  V30 6800 C 647.956 4.92795 -3.61382 0
M  V30 6801 C 648.954 5.07244 -4.57376 0
M  V30 6802 O 648.642 5.55017 -5.8156 0
M  V30 6803 H 648.374 0.64383 -0.206057 0
M  V30 6804 H 650.928 1.65878 -1.21134 0
M  V30 6805 H 649.158 3.86628 0.0744449 0
M  V30 6806 H 650.847 4.04767 -0.303118 0
M  V30 6807 H 651.613 3.97043 -2.78535 0
M  V30 6808 H 647.492 4.31974 -1.60994 0
M  V30 6809 H 651.036 4.84144 -5.02245 0
M  V30 6810 H 646.933 5.19004 -3.83804 0
M  V30 6811 H 647.701 5.73331 -5.84153 0
M  V30 6812 N 650.364 0.662433 1.43002 0
M  V30 6813 C 651.589 0.186003 2.06564 0
M  V30 6814 C 652.014 -1.14314 1.49379 0
M  V30 6815 O 651.372 -1.70824 0.607346 0
M  V30 6816 C 651.42 0.118269 3.60406 0
M  V30 6817 O 650.524 -0.916859 4.02079 0
M  V30 6818 H 649.865 0.0990981 0.656563 0
M  V30 6819 H 652.395 0.907958 1.8335 0
M  V30 6820 H 652.405 -0.0619981 4.07953 0
M  V30 6821 H 651.08 1.08849 4.01403 0
M  V30 6822 H 649.657 -0.708635 3.66105 0
M  V30 6823 N 651.842 -1.52309 0.404946 0
M  V30 6824 C 653.258 -1.59503 0.0556255 0
M  V30 6825 C 653.458 -1.41805 -1.43156 0
M  V30 6826 O 652.514 -1.2429 -2.19792 0
M  V30 6827 C 653.827 -2.95687 0.546801 0
M  V30 6828 C 655.375 -3.08909 0.504413 0
M  V30 6829 C 655.85 -4.47566 0.97203 0
M  V30 6830 N 657.341 -4.53795 0.928679 0
M  V30 6831 C 658.076 -5.59346 1.26174 0
M  V30 6832 N 657.572 -6.72469 1.66604 0
M  V30 6833 N 659.365 -5.49532 1.18198 0
M  V30 6834 H 651.516 -1.6206 1.37296 0
M  V30 6835 H 653.779 -0.762161 0.563751 0
M  V30 6836 H 653.485 -3.13905 1.58609 0
M  V30 6837 H 653.359 -3.77172 -0.0457905 0
M  V30 6838 H 655.746 -2.90378 -0.525819 0
M  V30 6839 H 655.827 -2.2934 1.13301 0
M  V30 6840 H 655.471 -4.6684 2.00057 0
M  V30 6841 H 655.401 -5.25625 0.320292 0
M  V30 6842 H 657.892 -3.72588 0.631369 0
M  V30 6843 H 658.205 -7.48993 1.9034 0
M  V30 6844 H 656.55 -6.73761 1.70504 0
M  V30 6845 H 659.741 -4.60038 0.865011 0
M  V30 6846 H 659.914 -6.31687 1.44485 0
M  V30 6847 N 653.32 -0.135238 -1.57019 0
M  V30 6848 C 654.567 0.518794 -1.95742 0
M  V30 6849 C 654.895 1.65642 -1.01947 0
M  V30 6850 O 654.15 1.95645 -0.0464016 0
M  V30 6851 C 654.449 1.07694 -3.40788 0
M  V30 6852 C 654.115 0.058992 -4.50861 0
M  V30 6853 C 652.777 -0.220872 -4.80693 0
M  V30 6854 C 655.129 -0.633856 -5.17331 0
M  V30 6855 C 652.457 -1.19959 -5.74305 0
M  V30 6856 C 654.809 -1.60131 -6.11997 0
M  V30 6857 C 653.473 -1.889 -6.40213 0
M  V30 6858 H 652.743 0.18984 -0.716269 0
M  V30 6859 H 655.39 -0.219581 -1.90237 0
M  V30 6860 H 653.695 1.89241 -3.43067 0
M  V30 6861 H 655.392 1.59137 -3.68071 0
M  V30 6862 H 651.982 0.287304 -4.27636 0
M  V30 6863 H 656.166 -0.430823 -4.94427 0
M  V30 6864 H 651.422 -1.42905 -5.94465 0
M  V30 6865 H 655.596 -2.14376 -6.62583 0
M  V30 6866 H 653.223 -2.64891 -7.12556 0
M  V30 6867 N 654.798 1.5699 0.138552 0
M  V30 6868 C 656.044 1.84081 0.85099 0
M  V30 6869 C 656.377 0.718107 1.80435 0
M  V30 6870 O 655.652 -0.277633 1.92508 0
M  V30 6871 C 655.935 3.21699 1.61808 0
M  V30 6872 C 655.788 4.44544 0.685633 0
M  V30 6873 C 657.107 3.5664 2.57868 0
M  V30 6874 H 654.226 0.669592 0.307922 0
M  V30 6875 H 656.868 1.89646 0.11588 0
M  V30 6876 H 655.018 3.17086 2.24474 0
M  V30 6877 H 656.69 4.61248 0.0693179 0
M  V30 6878 H 654.933 4.338 -0.00421993 0
M  V30 6879 H 655.604 5.3746 1.25858 0
M  V30 6880 H 658.08 3.61918 2.05316 0
M  V30 6881 H 656.956 4.53946 3.08584 0
M  V30 6882 H 657.217 2.83036 3.39622 0
M  V30 6883 N 656.276 -0.40816 1.52223 0
M  V30 6884 C 657.692 -0.74685 1.41047 0
M  V30 6885 C 657.892 -1.94788 0.51573 0
M  V30 6886 O 656.948 -2.52494 -0.0181156 0
M  V30 6887 C 658.261 -0.999878 2.83589 0
M  V30 6888 C 659.809 -1.10253 2.92939 0
M  V30 6889 C 660.284 -1.38832 4.36451 0
M  V30 6890 N 661.775 -1.45694 4.3969 0
M  V30 6891 C 662.51 -1.69435 5.47795 0
M  V30 6892 N 662.006 -1.90774 6.66016 0
M  V30 6893 N 663.799 -1.71458 5.35312 0
M  V30 6894 H 655.95 0.382409 2.08929 0
M  V30 6895 H 658.213 0.108807 0.941735 0
M  V30 6896 H 657.919 -0.189723 3.51188 0
M  V30 6897 H 657.793 -1.91978 3.24691 0
M  V30 6898 H 660.18 -1.90328 2.2552 0
M  V30 6899 H 660.261 -0.160973 2.55293 0
M  V30 6900 H 659.905 -0.592741 5.04429 0
M  V30 6901 H 659.835 -2.34241 4.71634 0
M  V30 6902 H 662.326 -1.3099 3.54472 0
M  V30 6903 H 662.639 -2.08342 7.44186 0
M  V30 6904 H 660.984 -1.88037 6.69079 0
M  V30 6905 H 664.175 -1.54326 4.41929 0
M  V30 6906 H 664.348 -1.89621 6.19635 0
M  V30 6907 N 657.755 -1.42862 -0.66545 0
M  V30 6908 C 659.032 -1.3431 -1.42197 0
M  V30 6909 C 659.412 0.0150265 -2.11095 0
M  V30 6910 O 658.76 1.03101 -2.03918 0
M  V30 6911 C 658.97 -2.51783 -2.41674 0
M  V30 6912 C 660.318 -2.94321 -3.0604 0
M  V30 6913 O 661.342 -2.51741 -2.52001 0
M  V30 6914 O 660.201 -3.68047 -4.03985 0
M  V30 6915 H 657.295 -0.530159 -0.634713 0
M  V30 6916 H 659.841 -1.54888 -0.693386 0
M  V30 6917 H 658.613 -3.42282 -1.89627 0
M  V30 6918 H 658.236 -2.33241 -3.22001 0
M  V30 6919 N 659.233 0.902656 -1.29189 0
M  V30 6920 C 660.196 1.98797 -1.14071 0
M  V30 6921 C 661.196 1.60615 -0.0770549 0
M  V30 6922 O 662.386 1.71165 -0.323753 0
M  V30 6923 C 659.518 3.32688 -0.743739 0
M  V30 6924 H 660.711 2.13637 -2.10473 0
M  V30 6925 H 658.264 1.08678 -1.12334 0
M  V30 6926 H 658.999 3.23549 0.220554 0
M  V30 6927 H 658.784 3.61765 -1.51223 0
M  V30 6928 H 660.274 4.12337 -0.660935 0
M  V30 6929 N 660.711 1.11618 1.11262 0
M  V30 6930 C 661.951 0.876154 1.8467 0
M  V30 6931 C 662.315 -0.587551 1.82789 0
M  V30 6932 O 663.516 -0.944411 2.51663 0
M  V30 6933 C 661.787 1.42461 3.2778 0
M  V30 6934 S 663.346 1.32185 4.18417 0
M  V30 6935 H 660.164 0.31628 0.636779 0
M  V30 6936 H 662.766 1.42404 1.33946 0
M  V30 6937 H 661.47 2.48367 3.26714 0
M  V30 6938 H 661.001 0.873844 3.83572 0
M  V30 6939 H 663.016 0.287607 4.95366 0
M  V30 6940 N 662.189 -1.289 0.906776 0
M  V30 6941 C 663.152 -2.25777 0.394656 0
M  V30 6942 C 664.152 -1.53621 -0.475119 0
M  V30 6943 O 665.342 -1.71949 -0.279165 0
M  V30 6944 C 662.474 -3.38113 -0.43499 0
M  V30 6945 H 663.667 -2.72592 1.25033 0
M  V30 6946 H 661.22 -1.40463 0.685547 0
M  V30 6947 H 661.955 -2.96648 -1.31036 0
M  V30 6948 H 661.74 -3.91647 0.188334 0
M  V30 6949 H 663.23 -4.10168 -0.784365 0
M  V30 6950 N 663.667 -0.670007 -1.42649 0
M  V30 6951 C 664.907 -0.194106 -2.03476 0
M  V30 6952 C 665.271 1.1755 -1.51809 0
M  V30 6953 O 666.472 1.74579 -2.04391 0
M  V30 6954 C 664.743 -0.221828 -3.56711 0
M  V30 6955 S 666.302 0.183772 -4.38415 0
M  V30 6956 H 663.12 -0.0802478 -0.706457 0
M  V30 6957 H 665.722 -0.882092 -1.74469 0
M  V30 6958 H 664.426 -1.22107 -3.91814 0
M  V30 6959 H 663.957 0.486149 -3.90385 0
M  V30 6960 H 665.972 1.41839 -4.75496 0
M  V30 6961 N 665.145 1.52092 -0.413018 0
M  V30 6962 C 666.075 2.30021 0.401567 0
M  V30 6963 C 667.056 1.34395 1.04269 0
M  V30 6964 O 668.241 1.63304 1.05097 0
M  V30 6965 C 665.371 3.12447 1.51638 0
M  V30 6966 C 664.325 4.16153 1.00005 0
M  V30 6967 C 663.651 4.86948 2.20875 0
M  V30 6968 C 664.951 5.22275 0.0513757 0
M  V30 6969 H 666.645 2.98365 -0.248704 0
M  V30 6970 H 664.191 1.4349 -0.121052 0
M  V30 6971 H 666.144 3.65733 2.09326 0
M  V30 6972 H 664.868 2.41879 2.19458 0
M  V30 6973 H 663.527 3.63882 0.445549 0
M  V30 6974 H 663.175 4.12905 2.8726 0
M  V30 6975 H 662.875 5.57057 1.86978 0
M  V30 6976 H 664.399 5.43048 2.79162 0
M  V30 6977 H 665.813 5.70778 0.537176 0
M  V30 6978 H 664.21 5.9977 -0.198977 0
M  V30 6979 H 665.28 4.76611 -0.892736 0
M  V30 6980 N 666.623 0.143563 1.56945 0
M  V30 6981 C 667.553 -0.7936 2.196 0
M  V30 6982 C 668.534 -1.25955 1.14321 0
M  V30 6983 O 669.719 -1.31773 1.42651 0
M  V30 6984 C 666.849 -2.03424 2.81489 0
M  V30 6985 C 665.803 -1.70519 3.92565 0
M  V30 6986 C 665.129 -3.01817 4.41373 0
M  V30 6987 C 666.429 -0.95449 5.13504 0
M  V30 6988 H 668.123 -0.271423 2.98167 0
M  V30 6989 H 665.669 -0.12911 1.4342 0
M  V30 6990 H 667.622 -2.69463 3.23987 0
M  V30 6991 H 666.346 -2.58008 2.00248 0
M  V30 6992 H 665.005 -1.06859 3.5068 0
M  V30 6993 H 664.653 -3.54386 3.56959 0
M  V30 6994 H 664.353 -2.80565 5.16292 0
M  V30 6995 H 665.877 -3.68934 4.86539 0
M  V30 6996 H 667.291 -1.5169 5.52868 0
M  V30 6997 H 665.688 -0.842035 5.94163 0
M  V30 6998 H 666.758 0.0544033 4.84869 0
M  V30 6999 N 668.101 -1.57061 -0.130224 0
M  V30 7000 C 669.378 -1.75205 -0.869631 0
M  V30 7001 C 669.758 -0.716063 -1.98584 0
M  V30 7002 O 669.106 0.262032 -2.26993 0
M  V30 7003 C 669.316 -3.19835 -1.39666 0
M  V30 7004 C 670.664 -3.82011 -1.85345 0
M  V30 7005 O 671.688 -3.23368 -1.49371 0
M  V30 7006 O 670.547 -4.85064 -2.51744 0
M  V30 7007 H 667.641 -0.716977 -0.412157 0
M  V30 7008 H 670.187 -1.69311 -0.11484 0
M  V30 7009 H 668.959 -3.86745 -0.595288 0
M  V30 7010 H 668.582 -3.30222 -2.21448 0
M  V30 7011 N 669.579 0.400081 -1.52437 0
M  V30 7012 C 670.509 1.4947 -1.7939 0
M  V30 7013 C 671.49 1.57383 -0.645329 0
M  V30 7014 O 672.675 1.72511 -0.891826 0
M  V30 7015 C 669.805 2.87201 -1.95276 0
M  V30 7016 C 668.759 2.94134 -3.10917 0
M  V30 7017 C 668.085 4.34207 -3.1204 0
M  V30 7018 C 669.385 2.64791 -4.50203 0
M  V30 7019 H 671.079 1.27165 -2.71052 0
M  V30 7020 H 668.625 0.610312 -1.30427 0
M  V30 7021 H 670.578 3.63772 -2.12715 0
M  V30 7022 H 669.302 3.10819 -1.00294 0
M  V30 7023 H 667.961 2.20009 -2.93243 0
M  V30 7024 H 667.609 4.54848 -2.14761 0
M  V30 7025 H 667.309 4.39768 -3.89715 0
M  V30 7026 H 668.833 5.127 -3.31619 0
M  V30 7027 H 670.247 3.31083 -4.68035 0
M  V30 7028 H 668.644 2.81717 -5.29864 0
M  V30 7029 H 669.714 1.60184 -4.57678 0
M  V30 7030 N 671.057 1.43213 0.657864 0
M  V30 7031 C 671.987 1.50815 1.78262 0
M  V30 7032 C 672.968 0.363211 1.66177 0
M  V30 7033 O 674.153 0.579806 1.85343 0
M  V30 7034 C 671.283 1.42625 3.16663 0
M  V30 7035 C 670.237 2.5532 3.43505 0
M  V30 7036 C 669.563 2.32184 4.81658 0
M  V30 7037 C 670.863 3.97583 3.38711 0
M  V30 7038 H 672.557 2.44954 1.72157 0
M  V30 7039 H 670.103 1.17896 0.82683 0
M  V30 7040 H 672.056 1.46548 3.95097 0
M  V30 7041 H 670.78 0.449877 3.23487 0
M  V30 7042 H 669.439 2.50742 2.6744 0
M  V30 7043 H 669.087 1.32801 4.85153 0
M  V30 7044 H 668.787 3.07724 5.00579 0
M  V30 7045 H 670.311 2.37883 5.62356 0
M  V30 7046 H 671.725 4.03673 4.07089 0
M  V30 7047 H 670.122 4.73112 3.69168 0
M  V30 7048 H 671.192 4.23049 2.36976 0
M  V30 7049 N 672.536 -0.895792 1.29666 0
M  V30 7050 C 673.466 -2.01673 1.17688 0
M  V30 7051 C 674.447 -1.69955 0.0701317 0
M  V30 7052 O 675.632 -1.9258 0.250289 0
M  V30 7053 C 672.762 -3.36568 0.856681 0
M  V30 7054 C 671.716 -3.82509 1.92017 0
M  V30 7055 C 671.042 -5.14574 1.4532 0
M  V30 7056 C 672.342 -4.02409 3.32963 0
M  V30 7057 H 674.036 -2.11953 2.11463 0
M  V30 7058 H 671.582 -1.01839 1.01807 0
M  V30 7059 H 673.535 -4.14498 0.759577 0
M  V30 7060 H 672.259 -3.26391 -0.116763 0
M  V30 7061 H 670.918 -3.068 2.00673 0
M  V30 7062 H 670.566 -5.00815 0.468325 0
M  V30 7063 H 670.266 -5.46283 2.16447 0
M  V30 7064 H 671.79 -5.9504 1.36968 0
M  V30 7065 H 673.204 -4.70808 3.27127 0
M  V30 7066 H 671.601 -4.45478 4.02082 0
M  V30 7067 H 672.671 -3.06616 3.75652 0
M  V30 7068 N 674.014 -1.12206 -1.10668 0
M  V30 7069 C 674.977 -0.790867 -2.15123 0
M  V30 7070 C 675.977 0.193618 -1.5963 0
M  V30 7071 O 677.167 -0.0318728 -1.74171 0
M  V30 7072 C 674.299 -0.174797 -3.40452 0
M  V30 7073 H 675.492 -1.7163 -2.45933 0
M  V30 7074 H 673.045 -0.924993 -1.2599 0
M  V30 7075 H 673.78 0.760478 -3.15257 0
M  V30 7076 H 673.565 -0.88358 -3.82015 0
M  V30 7077 H 675.055 0.0405162 -4.1758 0
M  V30 7078 N 675.492 1.28418 -0.913599 0
M  V30 7079 C 676.739 1.94981 -0.546674 0
M  V30 7080 C 677.067 1.7192 0.909606 0
M  V30 7081 O 676.322 1.03314 1.66207 0
M  V30 7082 C 676.621 3.48283 -0.802099 0
M  V30 7083 C 676.287 3.91444 -2.2379 0
M  V30 7084 C 674.949 4.02939 -2.63046 0
M  V30 7085 C 677.301 4.13542 -3.17227 0
M  V30 7086 C 674.629 4.3391 -3.94891 0
M  V30 7087 C 676.981 4.45992 -4.48636 0
M  V30 7088 C 675.645 4.55698 -4.87746 0
M  V30 7089 H 674.915 0.713487 -0.200042 0
M  V30 7090 H 677.562 1.52756 -1.15489 0
M  V30 7091 H 675.867 3.91643 -0.111076 0
M  V30 7092 H 677.564 3.97903 -0.497375 0
M  V30 7093 H 674.154 3.83024 -1.9233 0
M  V30 7094 H 678.338 4.04114 -2.88107 0
M  V30 7095 H 673.594 4.39631 -4.24894 0
M  V30 7096 H 677.768 4.62038 -5.21051 0
M  V30 7097 H 675.395 4.79451 -5.89942 0
M  V30 7098 N 676.97 0.677563 1.42291 0
M  V30 7099 C 678.381 0.277912 1.8462 0
M  V30 7100 C 678.732 -1.18048 1.56714 0
M  V30 7101 O 677.857 -1.90404 1.02836 0
M  V30 7102 C 678.452 0.497619 3.35126 0
M  V30 7103 C 677.011 0.152063 3.76093 0
M  V30 7104 C 676.158 0.78872 2.65847 0
M  V30 7105 H 679.109 0.879527 1.32098 0
M  V30 7106 H 679.13 -0.24939 3.79682 0
M  V30 7107 H 678.642 1.55913 3.55405 0
M  V30 7108 H 676.743 -0.905896 3.6142 0
M  V30 7109 H 676.856 0.594514 4.75397 0
M  V30 7110 H 675.22 0.219813 2.5375 0
M  V30 7111 H 676.003 1.85374 2.88949 0
M  V30 7112 N 678.448 -1.51871 0.421078 0
M  V30 7113 C 679.673 -2.0684 -0.152371 0
M  V30 7114 C 680.098 -1.28802 -1.37083 0
M  V30 7115 O 679.456 -0.321482 -1.78427 0
M  V30 7116 C 679.504 -3.57532 -0.469368 0
M  V30 7117 O 678.608 -3.81818 -1.55848 0
M  V30 7118 H 677.949 -0.663939 -0.00898586 0
M  V30 7119 H 680.479 -1.95674 0.597724 0
M  V30 7120 H 680.489 -4.01515 -0.724553 0
M  V30 7121 H 679.164 -4.13761 0.421276 0
M  V30 7122 H 677.741 -3.49709 -1.29453 0
M  V30 7123 N 679.926 -0.151884 -1.56866 0
M  V30 7124 C 681.166 0.500695 -1.98173 0
M  V30 7125 C 681.53 1.61715 -1.03499 0
M  V30 7126 O 682.731 2.33093 -1.33869 0
M  V30 7127 C 681.002 0.989333 -3.43434 0
M  V30 7128 S 682.561 1.64583 -4.06765 0
M  V30 7129 H 679.379 0.16173 -0.692361 0
M  V30 7130 H 681.981 -0.244754 -1.93962 0
M  V30 7131 H 680.685 0.166072 -4.10064 0
M  V30 7132 H 680.216 1.76929 -3.51368 0
M  V30 7133 H 682.231 2.93326 -4.00218 0
M  V30 7134 N 681.404 1.57128 0.121893 0
M  V30 7135 C 682.336 1.96773 1.17529 0
M  V30 7136 C 683.349 0.866668 1.37814 0
M  V30 7137 O 684.538 1.14497 1.3694 0
M  V30 7138 C 681.638 2.24832 2.53582 0
M  V30 7139 C 680.811 3.56138 2.53939 0
M  V30 7140 C 679.87 3.72443 3.71716 0
M  V30 7141 O 678.896 4.44584 3.55434 0
M  V30 7142 N 680.098 3.10993 4.90167 0
M  V30 7143 H 682.863 2.87743 0.838086 0
M  V30 7144 H 680.424 1.58881 0.311199 0
M  V30 7145 H 682.416 2.32958 3.30927 0
M  V30 7146 H 680.986 1.40002 2.79496 0
M  V30 7147 H 680.206 3.59226 1.62329 0
M  V30 7148 H 681.494 4.42448 2.51231 0
M  V30 7149 H 680.892 2.52345 5.06299 0
M  V30 7150 H 679.449 3.24644 5.65198 0
M  V30 7151 N 682.882 -0.391992 1.52647 0
M  V30 7152 C 684.293 -0.970064 1.5952 0
M  V30 7153 C 684.644 -1.91059 0.446207 0
M  V30 7154 O 683.769 -2.12062 -0.431125 0
M  V30 7155 C 684.364 -1.76614 2.89125 0
M  V30 7156 C 682.923 -2.29396 2.9842 0
M  V30 7157 C 682.07 -1.09864 2.54608 0
M  V30 7158 H 685.021 -0.171638 1.57769 0
M  V30 7159 H 685.042 -2.62511 2.75442 0
M  V30 7160 H 684.554 -1.08135 3.72731 0
M  V30 7161 H 682.655 -3.01196 2.19344 0
M  V30 7162 H 682.768 -2.59088 4.03002 0
M  V30 7163 H 681.132 -1.45777 2.08857 0
M  V30 7164 H 681.915 -0.429249 3.40606 0
M  V30 7165 N 684.36 -1.4356 -0.65026 0
M  V30 7166 C 685.771 -1.40324 -1.2315 0
M  V30 7167 C 686.122 -0.108812 -1.95898 0
M  V30 7168 O 685.247 0.79163 -2.01401 0
M  V30 7169 C 685.842 -2.54195 -2.23987 0
M  V30 7170 C 684.401 -2.54215 -2.77582 0
M  V30 7171 C 683.548 -2.31752 -1.5227 0
M  V30 7172 H 686.499 -1.52418 -0.442095 0
M  V30 7173 H 686.52 -2.25854 -3.0622 0
M  V30 7174 H 686.032 -3.48392 -1.71011 0
M  V30 7175 H 684.133 -1.63907 -3.34612 0
M  V30 7176 H 684.246 -3.52081 -3.24925 0
M  V30 7177 H 682.61 -1.80476 -1.79723 0
M  V30 7178 H 683.393 -3.28037 -1.01225 0
M  V30 7179 N 685.838 0.888903 -1.30139 0
M  V30 7180 C 686.768 2.01046 -1.18755 0
M  V30 7181 C 687.749 1.69916 -0.0791438 0
M  V30 7182 O 688.934 1.92445 -0.260498 0
M  V30 7183 C 686.064 3.36109 -0.874518 0
M  V30 7184 C 685.018 3.81486 -1.94043 0
M  V30 7185 C 684.344 5.13796 -1.48047 0
M  V30 7186 C 685.644 4.00637 -3.35093 0
M  V30 7187 H 687.338 2.10828 -2.12584 0
M  V30 7188 H 684.884 1.01298 -1.02346 0
M  V30 7189 H 686.837 4.14089 -0.781548 0
M  V30 7190 H 685.561 3.26449 0.0994519 0
M  V30 7191 H 684.22 3.05731 -2.02297 0
M  V30 7192 H 683.868 5.0056 -0.494878 0
M  V30 7193 H 683.568 5.45127 -2.19341 0
M  V30 7194 H 685.092 5.94305 -1.40121 0
M  V30 7195 H 686.506 4.69067 -3.2962 0
M  V30 7196 H 684.903 4.43339 -4.04438 0
M  V30 7197 H 685.973 3.0462 -3.77273 0
M  V30 7198 N 687.317 1.12792 1.10072 0
M  V30 7199 C 688.542 0.908838 1.86427 0
M  V30 7200 C 688.967 -0.536793 1.80278 0
M  V30 7201 O 688.325 -1.38033 1.17543 0
M  V30 7202 C 688.373 1.39295 3.3261 0
M  V30 7203 O 687.477 0.573846 4.08388 0
M  V30 7204 H 686.818 0.326234 0.578331 0
M  V30 7205 H 689.348 1.50094 1.39043 0
M  V30 7206 H 689.358 1.39366 3.83459 0
M  V30 7207 H 688.033 2.44555 3.36401 0
M  V30 7208 H 686.61 0.640438 3.67359 0
M  V30 7209 N 688.795 -1.27931 0.920396 0
M  V30 7210 C 689.725 -2.29487 0.431024 0
M  V30 7211 C 690.706 -1.62435 -0.504861 0
M  V30 7212 O 691.891 -1.89797 -0.411176 0
M  V30 7213 C 689.021 -3.45788 -0.323709 0
M  V30 7214 C 687.975 -4.24784 0.523658 0
M  V30 7215 C 687.301 -5.33488 -0.359809 0
M  V30 7216 C 688.601 -4.90874 1.78437 0
M  V30 7217 H 690.295 -2.70671 1.27975 0
M  V30 7218 H 687.841 -1.30121 0.616813 0
M  V30 7219 H 689.794 -4.15927 -0.676952 0
M  V30 7220 H 688.518 -3.03502 -1.2064 0
M  V30 7221 H 687.177 -3.56382 0.85951 0
M  V30 7222 H 686.825 -4.87445 -1.24124 0
M  V30 7223 H 686.525 -5.87247 0.203605 0
M  V30 7224 H 688.049 -6.06472 -0.708787 0
M  V30 7225 H 689.463 -5.53339 1.49963 0
M  V30 7226 H 687.86 -5.54659 2.29071 0
M  V30 7227 H 688.93 -4.14988 2.50824 0
M  V30 7228 N 690.273 -0.685099 -1.4193 0
M  V30 7229 C 691.203 -0.0273506 -2.33484 0
M  V30 7230 C 692.184 0.778366 -1.51246 0
M  V30 7231 O 693.369 0.733449 -1.79817 0
M  V30 7232 C 690.499 0.917272 -3.34968 0
M  V30 7233 C 689.453 0.21941 -4.27437 0
M  V30 7234 C 688.779 1.27768 -5.1921 0
M  V30 7235 C 690.079 -0.907894 -5.14349 0
M  V30 7236 H 691.773 -0.791994 -2.88735 0
M  V30 7237 H 689.319 -0.382308 -1.38832 0
M  V30 7238 H 691.272 1.38657 -3.97935 0
M  V30 7239 H 689.996 1.71346 -2.78043 0
M  V30 7240 H 688.655 -0.229757 -3.65879 0
M  V30 7241 H 688.303 2.06612 -4.58607 0
M  V30 7242 H 688.003 0.815803 -5.81909 0
M  V30 7243 H 689.527 1.7477 -5.85054 0
M  V30 7244 H 690.941 -0.519348 -5.70943 0
M  V30 7245 H 689.338 -1.2962 -5.85934 0
M  V30 7246 H 690.408 -1.75218 -4.52136 0
M  V30 7247 N 691.751 1.51645 -0.429126 0
M  V30 7248 C 692.681 2.30434 0.377148 0
M  V30 7249 C 693.662 1.35493 1.02838 0
M  V30 7250 O 694.847 1.6441 1.03359 0
M  V30 7251 C 691.977 3.14038 1.48315 0
M  V30 7252 C 690.931 4.1719 0.955855 0
M  V30 7253 C 690.257 4.89263 2.15698 0
M  V30 7254 C 691.557 5.223 -0.00402136 0
M  V30 7255 H 693.251 2.98085 -0.280336 0
M  V30 7256 H 690.797 1.43354 -0.136265 0
M  V30 7257 H 692.75 3.67933 2.05435 0
M  V30 7258 H 691.474 2.44193 2.16881 0
M  V30 7259 H 690.133 3.64335 0.406929 0
M  V30 7260 H 689.781 4.15929 2.82864 0
M  V30 7261 H 689.481 5.59009 1.81059 0
M  V30 7262 H 691.005 5.45978 2.73387 0
M  V30 7263 H 692.419 5.71315 0.476607 0
M  V30 7264 H 690.816 5.99525 -0.26258 0
M  V30 7265 H 691.886 4.75638 -0.943236 0
M  V30 7266 N 693.229 0.160201 1.56784 0
M  V30 7267 C 694.139 -0.787167 2.21 0
M  V30 7268 C 695.155 -1.26167 1.19825 0
M  V30 7269 O 696.331 -1.31611 1.52448 0
M  V30 7270 C 693.396 -2.00364 2.8294 0
M  V30 7271 C 692.457 -1.5771 3.99282 0
M  V30 7272 C 691.69 -2.73558 4.58259 0
M  V30 7273 O 691.913 -3.90129 4.16119 0
M  V30 7274 O 690.847 -2.48271 5.48311 0
M  V30 7275 H 694.673 -0.270462 3.02493 0
M  V30 7276 H 692.258 -0.0674666 1.49248 0
M  V30 7277 H 694.14 -2.71529 3.22257 0
M  V30 7278 H 692.815 -2.50961 2.04451 0
M  V30 7279 H 691.722 -0.835274 3.64656 0
M  V30 7280 H 693.055 -1.11815 4.79331 0
M  V30 7281 N 694.707 -1.5719 -0.113559 0
M  V30 7282 C 695.657 -1.97166 -1.14497 0
M  V30 7283 C 696.641 -0.847413 -1.36776 0
M  V30 7284 O 697.833 -1.11114 -1.37777 0
M  V30 7285 C 694.962 -2.38411 -2.47013 0
M  V30 7286 C 694.048 -3.5748 -2.28185 0
M  V30 7287 N 694.439 -4.72998 -1.79182 0
M  V30 7288 C 692.737 -3.63218 -2.58821 0
M  V30 7289 C 693.438 -5.55007 -1.74191 0
M  V30 7290 N 692.414 -4.9765 -2.18735 0
M  V30 7291 H 696.216 -2.83937 -0.758733 0
M  V30 7292 H 693.73 -1.59191 -0.321234 0
M  V30 7293 H 695.727 -2.65269 -3.21618 0
M  V30 7294 H 694.387 -1.53007 -2.8639 0
M  V30 7295 H 695.398 -4.96109 -1.48649 0
M  V30 7296 H 692.075 -2.88434 -3.01847 0
M  V30 7297 H 693.465 -6.57678 -1.37512 0
M  V30 7298 N 696.185 0.383891 -1.52853 0
M  V30 7299 C 697.115 1.47559 -1.80965 0
M  V30 7300 C 698.096 1.5669 -0.661986 0
M  V30 7301 O 699.281 1.71556 -0.910072 0
M  V30 7302 C 696.411 2.85114 -1.98312 0
M  V30 7303 C 695.365 2.9082 -3.14019 0
M  V30 7304 C 694.691 4.30873 -3.16627 0
M  V30 7305 C 695.991 2.60001 -4.52986 0
M  V30 7306 H 697.685 1.24283 -2.72386 0
M  V30 7307 H 695.231 0.596445 -1.31067 0
M  V30 7308 H 697.184 3.61496 -2.16561 0
M  V30 7309 H 695.908 3.09738 -1.03585 0
M  V30 7310 H 694.567 2.16886 -2.9556 0
M  V30 7311 H 694.215 4.52545 -2.19573 0
M  V30 7312 H 693.915 4.3561 -3.94357 0
M  V30 7313 H 695.439 5.09154 -3.37038 0
M  V30 7314 H 696.853 3.261 -4.71521 0
M  V30 7315 H 695.25 2.76081 -5.32822 0
M  V30 7316 H 696.32 1.5532 -4.59351 0
M  V30 7317 N 697.663 1.43903 0.642637 0
M  V30 7318 C 699.074 1.40975 1.22404 0
M  V30 7319 C 699.425 0.1192 1.95838 0
M  V30 7320 O 698.55 -0.780939 2.01818 0
M  V30 7321 C 699.145 2.5538 2.22636 0
M  V30 7322 C 697.704 2.55684 2.76229 0
M  V30 7323 C 696.851 2.32556 1.51039 0
M  V30 7324 H 699.802 1.5265 0.434006 0
M  V30 7325 H 699.823 2.27474 3.05017 0
M  V30 7326 H 699.335 3.49294 1.69161 0
M  V30 7327 H 697.436 1.65679 3.33738 0
M  V30 7328 H 697.549 3.53799 3.23053 0
M  V30 7329 H 695.913 1.81427 1.78764 0
M  V30 7330 H 696.696 3.28569 0.99484 0
M  V30 7331 N 699.141 -0.881989 1.30609 0
M  V30 7332 C 700.088 -1.98803 1.17244 0
M  V30 7333 C 701.058 -1.65987 0.0611905 0
M  V30 7334 O 702.243 -1.89385 0.231911 0
M  V30 7335 C 699.383 -3.33867 0.87333 0
M  V30 7336 C 698.496 -3.79354 2.06675 0
M  V30 7337 C 697.631 -5.03078 1.70547 0
M  V30 7338 C 696.67 -5.40981 2.86366 0
M  V30 7339 N 695.807 -6.55886 2.50514 0
M  V30 7340 H 700.647 -2.09566 2.11863 0
M  V30 7341 H 698.184 -1.02607 1.05405 0
M  V30 7342 H 700.142 -4.11612 0.680519 0
M  V30 7343 H 698.772 -3.2278 -0.0359983 0
M  V30 7344 H 697.824 -2.97492 2.37071 0
M  V30 7345 H 699.136 -4.03382 2.93401 0
M  V30 7346 H 698.29 -5.88457 1.47658 0
M  V30 7347 H 697.029 -4.80927 0.809947 0
M  V30 7348 H 696.034 -4.54127 3.09917 0
M  V30 7349 H 697.259 -5.65104 3.76609 0
M  V30 7350 H 695.205 -6.35306 1.63471 0
M  V30 7351 H 695.122 -6.79799 3.30771 0
M  V30 7352 H 696.39 -7.44489 2.30989 0
M  V30 7353 N 700.619 -1.13374 -1.09472 0
M  V30 7354 C 701.549 -0.833268 -2.18126 0
M  V30 7355 C 702.53 0.207169 -1.68834 0
M  V30 7356 O 703.715 0.0662012 -1.94087 0
M  V30 7357 C 700.845 -0.297979 -3.46019 0
M  V30 7358 C 699.799 -1.27261 -4.08642 0
M  V30 7359 C 699.125 -0.597104 -5.31356 0
M  V30 7360 C 700.425 -2.63095 -4.51197 0
M  V30 7361 H 702.119 -1.74182 -2.43518 0
M  V30 7362 H 699.665 -0.838921 -1.17039 0
M  V30 7363 H 701.618 -0.0754444 -4.21332 0
M  V30 7364 H 700.342 0.645959 -3.20148 0
M  V30 7365 H 699.001 -1.48113 -3.35348 0
M  V30 7366 H 698.649 0.352293 -5.01765 0
M  V30 7367 H 698.349 -1.24734 -5.74208 0
M  V30 7368 H 699.873 -0.38384 -6.09392 0
M  V30 7369 H 701.287 -2.46214 -5.17737 0
M  V30 7370 H 699.684 -3.2429 -5.04932 0
M  V30 7371 H 700.754 -3.20793 -3.6362 0
M  V30 7372 N 702.098 1.27442 -0.927168 0
M  V30 7373 C 703.03 2.25975 -0.383158 0
M  V30 7374 C 704.043 1.55382 0.485832 0
M  V30 7375 O 705.232 1.75986 0.298541 0
M  V30 7376 C 702.332 3.35629 0.469688 0
M  V30 7377 C 701.505 4.35747 -0.379886 0
M  V30 7378 C 700.564 5.24598 0.410227 0
M  V30 7379 O 699.59 5.68909 -0.181888 0
M  V30 7380 N 700.792 5.54737 1.71017 0
M  V30 7381 H 703.557 2.7329 -1.23015 0
M  V30 7382 H 701.118 1.41063 -0.794539 0
M  V30 7383 H 703.11 3.92015 1.00532 0
M  V30 7384 H 701.68 2.87919 1.21744 0
M  V30 7385 H 700.9 3.78634 -1.09682 0
M  V30 7386 H 702.188 4.99648 -0.960717 0
M  V30 7387 H 701.586 5.20594 2.21356 0
M  V30 7388 H 700.143 6.13824 2.19234 0
M  V30 7389 N 703.576 0.692616 1.41565 0
M  V30 7390 C 704.987 0.297478 1.84315 0
M  V30 7391 C 705.338 -1.16379 1.57957 0
M  V30 7392 O 704.463 -1.89303 1.0485 0
M  V30 7393 C 705.058 0.533136 3.34579 0
M  V30 7394 C 703.617 0.191944 3.7591 0
M  V30 7395 C 702.764 0.816873 2.64995 0
M  V30 7396 H 705.715 0.893488 1.31158 0
M  V30 7397 H 705.736 -0.209105 3.79925 0
M  V30 7398 H 705.248 1.59674 3.53731 0
M  V30 7399 H 703.349 -0.867512 3.6236 0
M  V30 7400 H 703.462 0.644902 4.7474 0
M  V30 7401 H 701.826 0.246715 2.53502 0
M  V30 7402 H 702.609 1.88429 2.86966 0
M  V30 7403 N 705.054 -1.51416 0.437162 0
M  V30 7404 C 706.47 -1.59349 0.0894459 0
M  V30 7405 C 706.67 -1.44809 -1.40116 0
M  V30 7406 O 705.726 -1.28924 -2.17106 0
M  V30 7407 C 707.039 -2.9446 0.609398 0
M  V30 7408 C 708.587 -3.07769 0.569824 0
M  V30 7409 C 709.062 -4.45404 1.06675 0
M  V30 7410 N 710.553 -4.51723 1.02473 0
M  V30 7411 C 711.288 -5.56544 1.3801 0
M  V30 7412 N 710.784 -6.68784 1.80831 0
M  V30 7413 N 712.577 -5.46901 1.29828 0
M  V30 7414 H 704.728 -1.59112 1.40703 0
M  V30 7415 H 706.991 -0.750031 0.579791 0
M  V30 7416 H 706.697 -3.1047 1.65231 0
M  V30 7417 H 706.571 -3.77184 0.0342236 0
M  V30 7418 H 708.958 -2.91428 -0.464107 0
M  V30 7419 H 709.039 -2.26885 1.1814 0
M  V30 7420 H 708.683 -4.62492 2.09914 0
M  V30 7421 H 708.613 -5.24827 0.431712 0
M  V30 7422 H 711.104 -3.71165 0.710258 0
M  V30 7423 H 711.417 -7.44787 2.06185 0
M  V30 7424 H 709.762 -6.69992 1.84757 0
M  V30 7425 H 712.953 -4.581 0.962397 0
M  V30 7426 H 713.126 -6.2848 1.57851 0
M  V30 7427 N 706.532 -0.168513 -1.56696 0
M  V30 7428 C 707.943 0.348694 -1.83415 0
M  V30 7429 C 708.294 1.63257 -1.0882 0
M  V30 7430 O 707.419 2.13707 -0.340333 0
M  V30 7431 C 708.014 0.639423 -3.32711 0
M  V30 7432 C 706.573 1.10108 -3.59935 0
M  V30 7433 C 705.72 0.135464 -2.76969 0
M  V30 7434 H 708.671 -0.392829 -1.53761 0
M  V30 7435 H 708.692 1.49179 -3.50037 0
M  V30 7436 H 708.204 -0.295173 -3.86976 0
M  V30 7437 H 706.305 2.05088 -3.11079 0
M  V30 7438 H 706.418 1.01218 -4.68286 0
M  V30 7439 H 704.782 0.632286 -2.46727 0
M  V30 7440 H 705.565 -0.793104 -3.34013 0
M  V30 7441 N 708.01 1.57248 0.105221 0
M  V30 7442 C 709.24 1.89492 0.823175 0
M  V30 7443 C 709.648 0.75934 1.73294 0
M  V30 7444 O 708.991 -0.278182 1.81581 0
M  V30 7445 C 709.053 3.16891 1.69765 0
M  V30 7446 C 708.717 4.46787 0.960769 0
M  V30 7447 C 709.714 5.19061 0.295218 0
M  V30 7448 C 707.399 4.93467 0.937854 0
M  V30 7449 C 709.393 6.36246 -0.383393 0
M  V30 7450 C 707.08 6.10566 0.255452 0
M  V30 7451 C 708.078 6.81804 -0.404003 0
M  V30 7452 O 707.766 7.96673 -1.07549 0
M  V30 7453 H 707.498 0.631512 0.24118 0
M  V30 7454 H 710.052 2.05203 0.0899655 0
M  V30 7455 H 708.282 2.973 2.47285 0
M  V30 7456 H 709.971 3.35046 2.29126 0
M  V30 7457 H 710.737 4.84044 0.304448 0
M  V30 7458 H 706.616 4.37913 1.44058 0
M  V30 7459 H 710.16 6.91787 -0.898696 0
M  V30 7460 H 706.057 6.45039 0.244032 0
M  V30 7461 H 706.825 8.12596 -0.981355 0
M  V30 7462 N 709.488 -0.375779 1.53054 0
M  V30 7463 C 710.713 -1.14484 1.7294 0
M  V30 7464 C 711.138 -1.82572 0.452668 0
M  V30 7465 O 710.496 -1.71343 -0.592567 0
M  V30 7466 C 710.544 -2.15857 2.88857 0
M  V30 7467 O 709.648 -3.22725 2.56753 0
M  V30 7468 H 708.989 -0.332666 0.574656 0
M  V30 7469 H 711.519 -0.436025 1.999 0
M  V30 7470 H 711.529 -2.59631 3.14731 0
M  V30 7471 H 710.204 -1.65689 3.81471 0
M  V30 7472 H 708.781 -2.83996 2.41663 0
M  V30 7473 N 710.966 -1.44241 -0.634997 0
M  V30 7474 C 712.206 -1.48339 -1.40623 0
M  V30 7475 C 712.57 -0.111479 -1.91676 0
M  V30 7476 O 713.771 -0.0271345 -2.68786 0
M  V30 7477 C 712.042 -2.51122 -2.54308 0
M  V30 7478 S 713.601 -2.74237 -3.42548 0
M  V30 7479 H 710.419 -0.524715 -0.479787 0
M  V30 7480 H 713.021 -1.81138 -0.735489 0
M  V30 7481 H 711.725 -3.49511 -2.15106 0
M  V30 7482 H 711.256 -2.19883 -3.26213 0
M  V30 7483 H 713.271 -2.0554 -4.51628 0
M  V30 7484 N 712.444 0.87505 -1.31075 0
M  V30 7485 C 713.407 1.96333 -1.18263 0
M  V30 7486 C 714.407 1.60416 -0.111106 0
M  V30 7487 O 715.597 1.7044 -0.359987 0
M  V30 7488 C 712.729 3.31036 -0.81414 0
M  V30 7489 H 713.922 2.09125 -2.14958 0
M  V30 7490 H 711.475 1.06271 -1.14614 0
M  V30 7491 H 712.21 3.23944 0.151875 0
M  V30 7492 H 711.995 3.58476 -1.58862 0
M  V30 7493 H 713.485 4.10842 -0.748249 0
M  V30 7494 N 713.922 1.13953 1.08869 0
M  V30 7495 C 715.147 0.928559 1.85452 0
M  V30 7496 C 715.572 -0.517642 1.80837 0
M  V30 7497 O 714.93 -1.36779 1.19001 0
M  V30 7498 C 714.978 1.42814 3.31114 0
M  V30 7499 O 714.082 0.617129 4.07756 0
M  V30 7500 H 713.423 0.33235 0.574839 0
M  V30 7501 H 715.953 1.5156 1.37443 0
M  V30 7502 H 715.963 1.43425 3.8196 0
M  V30 7503 H 714.638 2.48109 3.33788 0
M  V30 7504 H 713.215 0.679365 3.66659 0
M  V30 7505 N 715.4 -1.26948 0.933913 0
M  V30 7506 C 716.625 -1.98724 0.593589 0
M  V30 7507 C 717.05 -1.6915 -0.822801 0
M  V30 7508 O 716.408 -0.93533 -1.5531 0
M  V30 7509 C 716.456 -3.50834 0.833542 0
M  V30 7510 O 715.56 -4.12284 -0.0978788 0
M  V30 7511 H 714.901 -0.623683 0.227849 0
M  V30 7512 H 717.431 -1.61599 1.25486 0
M  V30 7513 H 717.441 -4.01018 0.75156 0
M  V30 7514 H 716.116 -3.71691 1.86597 0
M  V30 7515 H 714.693 -3.72884 0.0345443 0
M  V30 7516 N 716.879 -0.700114 -1.41195 0
M  V30 7517 C 718.104 -0.240704 -2.05998 0
M  V30 7518 C 718.529 1.10313 -1.52357 0
M  V30 7519 O 717.887 1.69154 -0.652424 0
M  V30 7520 C 717.935 -0.213783 -3.59966 0
M  V30 7521 O 717.039 0.809933 -4.04368 0
M  V30 7522 H 716.38 -0.116471 -0.653705 0
M  V30 7523 H 718.91 -0.956251 -1.80878 0
M  V30 7524 H 718.92 -0.0461852 -4.07974 0
M  V30 7525 H 717.595 -1.19454 -3.98376 0
M  V30 7526 H 716.172 0.611319 -3.67855 0
M  V30 7527 N 718.357 1.51182 -0.445186 0
M  V30 7528 C 719.287 2.30821 0.352686 0
M  V30 7529 C 720.268 1.36576 1.01395 0
M  V30 7530 O 721.453 1.65497 1.01609 0
M  V30 7531 C 718.583 3.15593 1.44976 0
M  V30 7532 C 717.537 4.1818 0.911553 0
M  V30 7533 C 716.863 4.91523 2.10497 0
M  V30 7534 C 718.163 5.22266 -0.059418 0
M  V30 7535 H 719.857 2.97771 -0.311936 0
M  V30 7536 H 717.403 1.43201 -0.151461 0
M  V30 7537 H 719.356 3.70091 2.01521 0
M  V30 7538 H 718.08 2.4648 2.14278 0
M  V30 7539 H 716.739 3.64746 0.368264 0
M  V30 7540 H 716.387 4.18906 2.78437 0
M  V30 7541 H 716.087 5.60898 1.7512 0
M  V30 7542 H 717.611 5.48847 2.6758 0
M  V30 7543 H 719.025 5.71789 0.415985 0
M  V30 7544 H 717.422 5.99213 -0.326152 0
M  V30 7545 H 718.492 4.7461 -0.993631 0
M  V30 7546 N 719.835 0.176821 1.56605 0
M  V30 7547 C 721.082 -0.466715 1.97048 0
M  V30 7548 C 721.41 -1.6288 1.06302 0
M  V30 7549 O 720.665 -1.95453 0.0982571 0
M  V30 7550 C 720.964 -0.986208 3.43524 0
M  V30 7551 C 720.63 0.0605667 4.50859 0
M  V30 7552 C 719.292 0.348242 4.79938 0
M  V30 7553 C 721.644 0.770794 5.15469 0
M  V30 7554 C 718.972 1.35144 5.70923 0
M  V30 7555 C 721.324 1.76301 6.07537 0
M  V30 7556 C 719.988 2.05808 6.3498 0
M  V30 7557 H 719.258 -0.170783 0.721051 0
M  V30 7558 H 721.905 0.269942 1.89588 0
M  V30 7559 H 720.21 -1.80079 3.47964 0
M  V30 7560 H 721.907 -1.49323 3.72161 0
M  V30 7561 H 718.497 -0.173823 4.28247 0
M  V30 7562 H 722.681 0.56176 4.9311 0
M  V30 7563 H 717.937 1.58616 5.90467 0
M  V30 7564 H 722.111 2.31868 6.56666 0
M  V30 7565 H 719.738 2.8369 7.05283 0
M  V30 7566 N 721.313 -1.57302 -0.09688 0
M  V30 7567 C 722.263 -1.98369 -1.12399 0
M  V30 7568 C 723.247 -0.861872 -1.3587 0
M  V30 7569 O 724.439 -1.1257 -1.36591 0
M  V30 7570 C 721.568 -2.41017 -2.4447 0
M  V30 7571 C 720.654 -3.59881 -2.24381 0
M  V30 7572 N 721.045 -4.74872 -1.74155 0
M  V30 7573 C 719.343 -3.65943 -2.54954 0
M  V30 7574 C 720.044 -5.56823 -1.68294 0
M  V30 7575 N 719.02 -4.99942 -2.13444 0
M  V30 7576 H 722.822 -2.84726 -0.728575 0
M  V30 7577 H 720.336 -1.59523 -0.304332 0
M  V30 7578 H 722.333 -2.68665 -3.18786 0
M  V30 7579 H 720.993 -1.56036 -2.84751 0
M  V30 7580 H 722.004 -4.97657 -1.43379 0
M  V30 7581 H 718.681 -2.9162 -2.98771 0
M  V30 7582 H 720.071 -6.59099 -1.30528 0
M  V30 7583 N 722.791 0.367657 -1.53252 0
M  V30 7584 C 724.202 0.944563 -1.61043 0
M  V30 7585 C 724.553 1.90325 -0.476546 0
M  V30 7586 O 723.678 2.12721 0.397333 0
M  V30 7587 C 724.273 1.71992 -2.91898 0
M  V30 7588 C 722.832 2.2462 -3.02031 0
M  V30 7589 C 721.979 1.05799 -2.56324 0
M  V30 7590 H 724.93 0.146516 -1.58022 0
M  V30 7591 H 724.951 2.58095 -2.79584 0
M  V30 7592 H 724.463 1.02192 -3.74404 0
M  V30 7593 H 722.564 2.97668 -2.24108 0
M  V30 7594 H 722.677 2.52644 -4.07073 0
M  V30 7595 H 721.041 1.42435 -2.1115 0
M  V30 7596 H 721.824 0.375008 -3.41246 0
M  V30 7597 N 724.269 1.44576 0.627338 0
M  V30 7598 C 725.517 1.47267 1.38408 0
M  V30 7599 C 725.838 0.107971 1.94701 0
M  V30 7600 O 725.108 -0.860206 1.76004 0
M  V30 7601 H 723.688 0.542276 0.513756 0
M  V30 7602 H 726.35 1.80383 0.738099 0
M  V30 7603 H 725.446 2.20025 2.21349 0
M  V30 7604 N 725.747 -0.868086 1.31537 0
M  V30 7605 C 726.694 -1.97548 1.19346 0
M  V30 7606 C 727.664 -1.65913 0.0787922 0
M  V30 7607 O 728.849 -1.89129 0.251985 0
M  V30 7608 C 725.989 -3.32922 0.908692 0
M  V30 7609 C 725.102 -3.77141 2.10687 0
M  V30 7610 C 724.237 -5.01241 1.75873 0
M  V30 7611 C 723.276 -5.37914 2.92088 0
M  V30 7612 N 722.413 -6.53192 2.57457 0
M  V30 7613 H 727.253 -2.07307 2.14074 0
M  V30 7614 H 724.79 -1.01483 1.06487 0
M  V30 7615 H 726.748 -4.10867 0.724138 0
M  V30 7616 H 725.378 -3.228 -0.0017611 0
M  V30 7617 H 724.43 -2.94961 2.40213 0
M  V30 7618 H 725.742 -4.00248 2.97663 0
M  V30 7619 H 724.896 -5.86858 1.53891 0
M  V30 7620 H 723.635 -4.80041 0.86091 0
M  V30 7621 H 722.64 -4.50814 3.14717 0
M  V30 7622 H 723.865 -5.61077 3.82582 0
M  V30 7623 H 721.811 -6.33536 1.702 0
M  V30 7624 H 721.728 -6.76252 3.37963 0
M  V30 7625 H 722.996 -7.41997 2.38873 0
M  V30 7626 N 727.225 -1.14528 -1.08264 0
M  V30 7627 C 728.155 -0.856356 -2.1723 0
M  V30 7628 C 729.136 0.189251 -1.69044 0
M  V30 7629 O 730.321 0.0456119 -1.94146 0
M  V30 7630 C 727.451 -0.334662 -3.45684 0
M  V30 7631 C 726.405 -1.31588 -4.0727 0
M  V30 7632 C 725.731 -0.653428 -5.30692 0
M  V30 7633 C 727.031 -2.67866 -4.48381 0
M  V30 7634 H 728.725 -1.76755 -2.41657 0
M  V30 7635 H 726.271 -0.851287 -1.16143 0
M  V30 7636 H 728.224 -0.120128 -4.21229 0
M  V30 7637 H 726.948 0.611967 -3.20815 0
M  V30 7638 H 725.607 -1.51661 -3.33758 0
M  V30 7639 H 725.255 0.299054 -5.0211 0
M  V30 7640 H 724.955 -1.30817 -5.72853 0
M  V30 7641 H 726.479 -0.448453 -6.08951 0
M  V30 7642 H 727.893 -2.51692 -5.15096 0
M  V30 7643 H 726.29 -3.29627 -5.01464 0
M  V30 7644 H 727.36 -3.24632 -3.60198 0
M  V30 7645 N 728.703 1.26451 -0.940633 0
M  V30 7646 C 729.653 2.24086 -0.420669 0
M  V30 7647 C 730.637 1.53501 0.482301 0
M  V30 7648 O 731.829 1.74127 0.317636 0
M  V30 7649 C 728.958 3.41866 0.313452 0
M  V30 7650 C 728.044 4.19737 -0.606779 0
M  V30 7651 N 728.435 4.7521 -1.73232 0
M  V30 7652 C 726.733 4.44091 -0.41226 0
M  V30 7653 C 727.434 5.34052 -2.30572 0
M  V30 7654 N 726.41 5.1971 -1.59381 0
M  V30 7655 H 730.212 2.64569 -1.27986 0
M  V30 7656 H 727.726 1.4153 -0.796436 0
M  V30 7657 H 729.723 4.1093 0.702991 0
M  V30 7658 H 728.383 3.0291 1.16942 0
M  V30 7659 H 729.394 4.72769 -2.11447 0
M  V30 7660 H 726.071 4.1556 0.401984 0
M  V30 7661 H 727.461 5.87845 -3.25404 0
M  V30 7662 N 730.181 0.707592 1.40822 0
M  V30 7663 C 731.428 0.243671 2.01029 0
M  V30 7664 C 731.756 -1.16057 1.5608 0
M  V30 7665 O 731.011 -1.7999 0.768251 0
M  V30 7666 C 731.31 0.262892 3.56432 0
M  V30 7667 C 730.976 1.61632 4.20935 0
M  V30 7668 C 729.638 1.98682 4.38268 0
M  V30 7669 C 731.99 2.50619 4.5699 0
M  V30 7670 C 729.318 3.2428 4.88937 0
M  V30 7671 C 731.67 3.75562 5.09054 0
M  V30 7672 C 730.334 4.12739 5.24598 0
M  V30 7673 H 729.604 0.0891654 0.735616 0
M  V30 7674 H 732.251 0.909051 1.68548 0
M  V30 7675 H 730.556 -0.486052 3.88773 0
M  V30 7676 H 732.253 -0.113775 4.00839 0
M  V30 7677 H 728.843 1.31818 4.07826 0
M  V30 7678 H 733.027 2.23272 4.43242 0
M  V30 7679 H 728.283 3.53064 4.99155 0
M  V30 7680 H 732.457 4.44692 5.35931 0
M  V30 7681 H 730.084 5.10132 5.63622 0
M  V30 7682 N 731.66 -1.50943 0.453197 0
M  V30 7683 C 732.906 -2.02512 -0.108082 0
M  V30 7684 C 733.239 -1.33574 -1.40967 0
M  V30 7685 O 732.514 -0.455671 -1.89087 0
M  V30 7686 C 732.797 -3.58759 -0.310453 0
M  V30 7687 C 732.65 -4.38293 1.0109 0
M  V30 7688 C 733.969 -4.26816 -1.07313 0
M  V30 7689 H 731.088 -0.73603 -0.0378064 0
M  V30 7690 H 733.73 -1.80433 0.595295 0
M  V30 7691 H 731.88 -3.77702 -0.909582 0
M  V30 7692 H 733.552 -4.30964 1.64523 0
M  V30 7693 H 731.795 -4.02745 1.61179 0
M  V30 7694 H 732.466 -5.45828 0.82315 0
M  V30 7695 H 734.942 -4.1224 -0.565473 0
M  V30 7696 H 733.818 -5.35989 -1.1835 0
M  V30 7697 H 734.079 -3.88757 -2.10525 0
M  V30 7698 N 733.138 -0.185124 -1.56509 0
M  V30 7699 C 734.385 0.456258 -1.97293 0
M  V30 7700 C 734.713 1.62314 -1.07165 0
M  V30 7701 O 733.968 1.95398 -0.108621 0
M  V30 7702 C 734.267 0.967977 -3.44042 0
M  V30 7703 C 733.933 -0.084476 -4.50821 0
M  V30 7704 C 732.595 -0.373689 -4.79747 0
M  V30 7705 C 734.947 -0.79812 -5.15053 0
M  V30 7706 C 732.275 -1.3817 -5.70198 0
M  V30 7707 C 734.627 -1.79521 -6.06593 0
M  V30 7708 C 733.291 -2.09172 -6.3388 0
M  V30 7709 H 732.561 0.166957 -0.721946 0
M  V30 7710 H 735.208 -0.279992 -1.89442 0
M  V30 7711 H 733.513 1.78231 -3.48914 0
M  V30 7712 H 735.21 1.47347 -3.72948 0
M  V30 7713 H 731.8 0.15111 -4.28334 0
M  V30 7714 H 735.984 -0.587903 -4.92806 0
M  V30 7715 H 731.24 -1.61745 -5.89617 0
M  V30 7716 H 735.414 -2.35347 -6.55427 0
M  V30 7717 H 733.041 -2.87427 -7.03768 0
M  V30 7718 N 734.616 1.57351 0.0885366 0
M  V30 7719 C 735.564 2.03542 1.12576 0
M  V30 7720 C 736.558 0.937668 1.41082 0
M  V30 7721 O 737.764 1.12283 1.40686 0
M  V30 7722 H 734.139 0.648752 0.380296 0
M  V30 7723 H 736.11 2.89833 0.709906 0
M  V30 7724 C 734.859 2.4811 2.43591 0
M  V30 7725 H 734.182 3.32164 2.22502 0
M  V30 7726 H 735.622 2.842 3.14653 0
M  V30 7727 C 734.081 1.35708 3.08359 0
M  V30 7728 O 734.611 0.689852 3.95732 0
M  V30 7729 N 732.817 1.10641 2.68713 0
M  V30 7730 H 732.364 1.6508 1.97753 0
M  V30 7731 H 732.322 0.356355 3.12374 0
M  V30 7732 N 736.094 -0.359525 1.53444 0
M  V30 7733 C 737.343 -1.09886 1.69139 0
M  V30 7734 C 737.656 -1.90285 0.452863 0
M  V30 7735 O 738.862 -2.67033 0.490459 0
M  V30 7736 C 737.318 -2.0028 2.99025 0
M  V30 7737 C 736.926 -1.25164 4.30161 0
M  V30 7738 C 738.67 -2.74168 3.24086 0
M  V30 7739 C 736.577 -2.14494 5.51132 0
M  V30 7740 H 735.507 -0.413936 0.630217 0
M  V30 7741 H 738.158 -0.359434 1.79945 0
M  V30 7742 H 736.54 -2.77978 2.82036 0
M  V30 7743 H 737.714 -0.524867 4.57801 0
M  V30 7744 H 736.029 -0.631116 4.11589 0
M  V30 7745 H 738.626 -3.41243 4.11652 0
M  V30 7746 H 738.969 -3.39868 2.40407 0
M  V30 7747 H 739.502 -2.0355 3.41778 0
M  V30 7748 H 736.241 -1.53362 6.37307 0
M  V30 7749 H 735.761 -2.85004 5.27762 0
M  V30 7750 H 737.44 -2.73914 5.86157 0
M  V30 7751 N 737.572 -1.44907 -0.619662 0
M  V30 7752 C 738.818 -1.48512 -1.38102 0
M  V30 7753 C 739.151 -0.121686 -1.93818 0
M  V30 7754 O 738.426 0.862256 -1.74343 0
M  V30 7755 C 738.709 -2.55469 -2.53787 0
M  V30 7756 C 738.562 -4.01212 -2.03345 0
M  V30 7757 C 739.881 -2.58821 -3.55949 0
M  V30 7758 H 737 -0.540712 -0.500799 0
M  V30 7759 H 739.642 -1.7665 -0.69962 0
M  V30 7760 H 737.792 -2.31606 -3.11915 0
M  V30 7761 H 739.464 -4.36245 -1.49959 0
M  V30 7762 H 737.707 -4.12443 -1.34438 0
M  V30 7763 H 738.378 -4.71717 -2.86683 0
M  V30 7764 H 740.854 -2.80172 -3.07641 0
M  V30 7765 H 739.73 -3.35542 -4.34399 0
M  V30 7766 H 739.991 -1.63451 -4.10775 0
M  V30 7767 N 739.05 0.861098 -1.31996 0
M  V30 7768 C 739.96 2.00154 -1.22374 0
M  V30 7769 C 740.976 1.73447 -0.138631 0
M  V30 7770 O 742.152 1.98191 -0.358104 0
M  V30 7771 C 739.217 3.33696 -0.940645 0
M  V30 7772 C 738.278 3.73668 -2.11355 0
M  V30 7773 C 737.511 5.00837 -1.84386 0
M  V30 7774 O 737.734 5.64996 -0.783287 0
M  V30 7775 O 736.668 5.37787 -2.70313 0
M  V30 7776 H 740.494 2.11207 -2.18233 0
M  V30 7777 H 738.079 0.990768 -1.11822 0
M  V30 7778 H 739.961 4.13756 -0.798987 0
M  V30 7779 H 738.636 3.23698 -0.0121636 0
M  V30 7780 H 737.543 2.94211 -2.31065 0
M  V30 7781 H 738.876 3.88303 -3.02459 0
M  V30 7782 N 740.528 1.15101 1.07655 0
M  V30 7783 C 741.775 0.923974 1.80191 0
M  V30 7784 C 742.103 -0.549065 1.86589 0
M  V30 7785 O 741.358 -1.42307 1.3434 0
M  V30 7786 C 741.657 1.47954 3.25337 0
M  V30 7787 C 741.323 2.97253 3.39044 0
M  V30 7788 C 739.985 3.38012 3.42493 0
M  V30 7789 C 742.337 3.93219 3.42094 0
M  V30 7790 C 739.665 4.73384 3.4659 0
M  V30 7791 C 742.017 5.28458 3.47728 0
M  V30 7792 C 740.681 5.68717 3.49453 0
M  V30 7793 H 739.951 0.338106 0.659367 0
M  V30 7794 H 742.598 1.43594 1.26701 0
M  V30 7795 H 740.903 0.888691 3.81588 0
M  V30 7796 H 742.6 1.27972 3.80032 0
M  V30 7797 H 739.19 2.64746 3.37057 0
M  V30 7798 H 743.374 3.62805 3.38654 0
M  V30 7799 H 738.63 5.03925 3.46222 0
M  V30 7800 H 742.804 6.02618 3.49034 0
M  V30 7801 H 740.431 6.73596 3.5238 0
M  V30 7802 N 742.006 -1.2595 0.947325 0
M  V30 7803 C 742.936 -2.28521 0.479604 0
M  V30 7804 C 743.917 -1.63469 -0.470293 0
M  V30 7805 O 745.102 -1.90627 -0.370824 0
M  V30 7806 C 742.232 -3.46397 -0.250289 0
M  V30 7807 C 741.186 -4.23578 0.613643 0
M  V30 7808 C 740.512 -5.34131 -0.246568 0
M  V30 7809 C 741.812 -4.86979 1.88809 0
M  V30 7810 H 743.506 -2.67895 1.33688 0
M  V30 7811 H 741.052 -1.28783 0.644274 0
M  V30 7812 H 743.005 -4.17269 -0.588576 0
M  V30 7813 H 741.729 -3.05993 -1.14175 0
M  V30 7814 H 740.388 -3.54478 0.93491 0
M  V30 7815 H 740.036 -4.89968 -1.13756 0
M  V30 7816 H 739.736 -5.86683 0.328123 0
M  V30 7817 H 741.26 -6.07839 -0.579986 0
M  V30 7818 H 742.674 -5.50034 1.61666 0
M  V30 7819 H 741.071 -5.49675 2.40784 0
M  V30 7820 H 742.141 -4.09575 2.5957 0
M  V30 7821 N 743.484 -0.715051 -1.40445 0
M  V30 7822 C 744.709 -0.26254 -2.05732 0
M  V30 7823 C 745.134 1.08691 -1.53519 0
M  V30 7824 O 744.492 1.68453 -0.670328 0
M  V30 7825 C 744.54 -0.25195 -3.59719 0
M  V30 7826 O 743.644 0.766998 -4.05205 0
M  V30 7827 H 742.985 -0.123398 -0.652433 0
M  V30 7828 H 745.515 -0.975382 -1.79854 0
M  V30 7829 H 745.525 -0.0894537 -4.07902 0
M  V30 7830 H 744.2 -1.23672 -3.97087 0
M  V30 7831 H 742.777 0.572269 -3.68483 0
M  V30 7832 N 744.962 1.50701 -0.461195 0
M  V30 7833 C 746.19 2.06681 0.0951756 0
M  V30 7834 C 746.605 1.32615 1.34382 0
M  V30 7835 O 745.962 0.392531 1.78229 0
M  V30 7836 C 746.013 3.59354 0.393316 0
M  V30 7837 O 745.734 4.30626 -0.805797 0
M  V30 7838 C 747.235 4.31926 0.997744 0
M  V30 7839 H 744.455 0.670995 -0.00267259 0
M  V30 7840 H 746.999 1.93991 -0.647137 0
M  V30 7841 H 745.154 3.7188 1.08555 0
M  V30 7842 H 745.568 5.21667 -0.544409 0
M  V30 7843 H 747.042 5.39756 1.15619 0
M  V30 7844 H 747.519 3.91772 1.98523 0
M  V30 7845 H 748.125 4.23905 0.344188 0
M  V30 7846 N 746.441 0.193421 1.56409 0
M  V30 7847 C 747.404 -0.714371 2.17783 0
M  V30 7848 C 748.404 -1.1422 1.13183 0
M  V30 7849 O 749.594 -1.05557 1.38576 0
M  V30 7850 C 746.726 -1.97509 2.77855 0
M  V30 7851 H 747.919 -0.179714 2.99361 0
M  V30 7852 H 745.472 -0.0561944 1.56199 0
M  V30 7853 H 746.207 -2.5523 2.0007 0
M  V30 7854 H 745.992 -1.67706 3.54425 0
M  V30 7855 H 747.482 -2.62246 3.24987 0
M  V30 7856 N 747.919 -1.57396 -0.0801906 0
M  V30 7857 C 749.147 -1.91055 -0.794075 0
M  V30 7858 C 749.562 -0.788583 -1.71542 0
M  V30 7859 O 748.919 0.238587 -1.80934 0
M  V30 7860 C 748.97 -3.24418 -1.59484 0
M  V30 7861 O 748.691 -4.323 -0.710532 0
M  V30 7862 C 750.192 -3.72037 -2.41046 0
M  V30 7863 H 747.412 -0.63171 -0.226238 0
M  V30 7864 H 749.956 -2.04431 -0.0529685 0
M  V30 7865 H 748.111 -3.12595 -2.2883 0
M  V30 7866 H 748.525 -5.08976 -1.26663 0
M  V30 7867 H 749.999 -4.68006 -2.92702 0
M  V30 7868 H 750.476 -3.00624 -3.2019 0
M  V30 7869 H 751.082 -3.86777 -1.76871 0
M  V30 7870 N 749.397 0.351382 -1.53633 0
M  V30 7871 C 750.625 1.11275 -1.74429 0
M  V30 7872 C 751.04 1.82602 -0.479798 0
M  V30 7873 O 750.397 1.74074 0.548125 0
M  V30 7874 C 750.448 2.13223 -2.91921 0
M  V30 7875 O 750.169 1.44798 -4.13479 0
M  V30 7876 C 751.67 3.01797 -3.24706 0
M  V30 7877 H 748.89 0.332153 -0.583023 0
M  V30 7878 H 751.434 0.405974 -2.0043 0
M  V30 7879 H 749.589 2.79477 -2.68274 0
M  V30 7880 H 750.003 2.12839 -4.79374 0
M  V30 7881 H 751.477 3.69282 -4.10286 0
M  V30 7882 H 751.954 3.67387 -2.40673 0
M  V30 7883 H 752.56 2.41141 -3.5033 0
M  V30 7884 N 750.875 1.45233 0.611969 0
M  V30 7885 C 751.785 1.56098 1.7513 0
M  V30 7886 C 752.801 0.445646 1.68196 0
M  V30 7887 O 753.977 0.705718 1.88631 0
M  V30 7888 C 751.042 1.52052 3.11579 0
M  V30 7889 C 750.103 2.74589 3.29999 0
M  V30 7890 C 749.336 2.70726 4.59938 0
M  V30 7891 O 749.559 1.77806 5.41979 0
M  V30 7892 O 748.493 3.61864 4.80976 0
M  V30 7893 H 752.319 2.52392 1.68914 0
M  V30 7894 H 749.904 1.27695 0.775528 0
M  V30 7895 H 751.786 1.52387 3.92882 0
M  V30 7896 H 750.461 0.589085 3.18295 0
M  V30 7897 H 749.368 2.79817 2.48301 0
M  V30 7898 H 750.701 3.66843 3.28157 0
M  V30 7899 N 752.353 -0.854086 1.3245 0
M  V30 7900 C 753.599 -1.61069 1.23225 0
M  V30 7901 C 753.932 -1.93111 -0.205349 0
M  V30 7902 O 753.207 -1.57397 -1.14265 0
M  V30 7903 C 753.49 -2.93065 2.09249 0
M  V30 7904 C 753.343 -2.67801 3.6139 0
M  V30 7905 C 754.662 -3.94341 1.95406 0
M  V30 7906 H 751.781 -0.584449 0.448986 0
M  V30 7907 H 754.423 -0.986189 1.62402 0
M  V30 7908 H 752.573 -3.46364 1.75967 0
M  V30 7909 H 754.245 -2.21052 4.04887 0
M  V30 7910 H 752.488 -2.01756 3.84027 0
M  V30 7911 H 753.159 -3.6179 4.16907 0
M  V30 7912 H 755.635 -3.50301 2.24562 0
M  V30 7913 H 754.511 -4.84555 2.57872 0
M  V30 7914 H 754.772 -4.32382 0.921865 0
M  V30 7915 N 753.831 -1.1567 -1.07043 0
M  V30 7916 C 754.761 -0.879348 -2.16309 0
M  V30 7917 C 755.742 0.171311 -1.69235 0
M  V30 7918 O 756.927 0.0250175 -1.94184 0
M  V30 7919 C 754.057 -0.371307 -3.45309 0
M  V30 7920 C 753.011 -1.359 -4.05851 0
M  V30 7921 C 752.337 -0.709678 -5.29969 0
M  V30 7922 C 753.637 -2.72606 -4.45514 0
M  V30 7923 H 755.331 -1.79308 -2.39768 0
M  V30 7924 H 752.877 -0.863558 -1.15233 0
M  V30 7925 H 754.83 -0.164798 -4.21078 0
M  V30 7926 H 753.554 0.577906 -3.21446 0
M  V30 7927 H 752.213 -1.55193 -3.32131 0
M  V30 7928 H 751.861 0.245782 -5.02399 0
M  V30 7929 H 751.561 -1.36886 -5.71433 0
M  V30 7930 H 753.085 -0.513015 -6.08441 0
M  V30 7931 H 754.499 -2.57141 -5.12398 0
M  V30 7932 H 752.896 -3.34927 -4.97939 0
M  V30 7933 H 753.966 -3.28434 -3.56734 0
M  V30 7934 N 755.309 1.25446 -0.953992 0
M  V30 7935 C 756.725 1.4539 -0.658316 0
M  V30 7936 C 756.925 1.85607 0.784356 0
M  V30 7937 O 755.981 1.98568 1.55972 0
M  V30 7938 C 757.294 2.52643 -1.6307 0
M  V30 7939 C 758.842 2.66484 -1.64181 0
M  V30 7940 C 759.317 3.76921 -2.60182 0
M  V30 7941 N 760.808 3.84331 -2.58542 0
M  V30 7942 C 761.543 4.69271 -3.29503 0
M  V30 7943 N 761.039 5.58503 -4.09934 0
M  V30 7944 N 762.832 4.6323 -3.18393 0
M  V30 7945 H 754.983 0.976337 -1.8863 0
M  V30 7946 H 757.246 0.490343 -0.811337 0
M  V30 7947 H 756.952 2.29949 -2.66114 0
M  V30 7948 H 756.826 3.50547 -1.39271 0
M  V30 7949 H 759.213 2.88545 -0.618552 0
M  V30 7950 H 759.294 1.68982 -1.92038 0
M  V30 7951 H 758.938 3.55612 -3.62633 0
M  V30 7952 H 758.868 4.73906 -2.29609 0
M  V30 7953 H 761.359 3.20544 -2.0015 0
M  V30 7954 H 761.672 6.20241 -4.61 0
M  V30 7955 H 760.017 5.58214 -4.14032 0
M  V30 7956 H 763.208 3.92527 -2.5503 0
M  V30 7957 H 763.381 5.29204 -3.73961 0
M  V30 7958 N 756.787 0.722489 1.40064 0
M  V30 7959 C 757.734 0.0743738 2.3068 0
M  V30 7960 C 758.704 -0.743004 1.48555 0
M  V30 7961 O 759.889 -0.705536 1.77276 0
M  V30 7962 C 757.029 -0.836292 3.34814 0
M  V30 7963 C 756.142 -0.00764663 4.31999 0
M  V30 7964 C 755.277 -0.918428 5.232 0
M  V30 7965 C 754.316 -0.0842838 6.12042 0
M  V30 7966 N 753.453 -0.950316 6.95639 0
M  V30 7967 H 758.293 0.852794 2.85537 0
M  V30 7968 H 755.83 0.432222 1.40607 0
M  V30 7969 H 757.788 -1.3786 3.93765 0
M  V30 7970 H 756.418 -1.58082 2.81443 0
M  V30 7971 H 755.47 0.651928 3.74772 0
M  V30 7972 H 756.782 0.63786 4.94705 0
M  V30 7973 H 755.936 -1.52902 5.87116 0
M  V30 7974 H 754.675 -1.59774 4.60786 0
M  V30 7975 H 753.68 0.5392 5.4715 0
M  V30 7976 H 754.905 0.591628 6.76518 0
M  V30 7977 H 752.851 -1.61515 6.35806 0
M  V30 7978 H 752.768 -0.361004 7.55138 0
M  V30 7979 H 754.036 -1.54687 7.63997 0
M  V30 7980 N 758.265 -1.50454 0.469181 0
M  V30 7981 C 759.513 -2.01916 -0.0862982 0
M  V30 7982 C 759.834 -1.35337 -1.40388 0
M  V30 7983 O 759.104 -0.498096 -1.89462 0
M  V30 7984 H 757.684 -0.746185 -0.0348825 0
M  V30 7985 H 760.346 -1.84804 0.619167 0
M  V30 7986 H 759.442 -3.11182 -0.239189 0
M  V30 7987 N 759.743 -0.201713 -1.56304 0
M  V30 7988 C 760.989 0.435952 -1.98059 0
M  V30 7989 C 761.322 1.60811 -1.08873 0
M  V30 7990 O 760.597 1.9398 -0.142128 0
M  V30 7991 C 760.88 0.889706 -3.48936 0
M  V30 7992 C 760.733 -0.284725 -4.48898 0
M  V30 7993 C 762.052 1.7529 -4.03685 0
M  V30 7994 H 759.171 0.15699 -0.720085 0
M  V30 7995 H 761.813 -0.293965 -1.87712 0
M  V30 7996 H 759.963 1.51166 -3.57884 0
M  V30 7997 H 761.635 -0.922531 -4.51981 0
M  V30 7998 H 759.878 -0.935427 -4.23594 0
M  V30 7999 H 760.549 0.0753865 -5.51949 0
M  V30 8000 H 763.025 1.2283 -3.97558 0
M  V30 8001 H 761.901 2.03933 -5.0961 0
M  V30 8002 H 762.162 2.70939 -3.49348 0
M  V30 8003 N 761.222 1.57436 0.0718424 0
M  V30 8004 C 762.462 1.89082 0.776351 0
M  V30 8005 C 762.826 0.795494 1.74745 0
M  V30 8006 O 764.027 0.995025 2.49705 0
M  V30 8007 C 762.298 3.25958 1.46582 0
M  V30 8008 S 763.857 3.79352 2.2054 0
M  V30 8009 H 760.675 0.662472 0.25817 0
M  V30 8010 H 763.277 1.95473 0.0324536 0
M  V30 8011 H 761.981 4.03577 0.745237 0
M  V30 8012 H 761.512 3.22764 2.24915 0
M  V30 8013 H 763.527 3.54634 3.47058 0
M  V30 8014 N 762.7 -0.34323 1.53817 0
M  V30 8015 C 763.928 -1.10348 1.75017 0
M  V30 8016 C 764.343 -1.82345 0.489475 0
M  V30 8017 O 763.7 -1.74362 -0.538886 0
M  V30 8018 C 763.751 -2.11672 2.93048 0
M  V30 8019 O 763.472 -1.42603 4.14241 0
M  V30 8020 C 764.973 -3.0007 3.26301 0
M  V30 8021 H 762.193 -0.329056 0.584776 0
M  V30 8022 H 764.737 -0.395339 2.00642 0
M  V30 8023 H 762.892 -2.78051 2.69753 0
M  V30 8024 H 763.306 -2.10294 4.80496 0
M  V30 8025 H 764.78 -3.67101 4.12239 0
M  V30 8026 H 765.257 -3.66105 2.42618 0
M  V30 8027 H 765.863 -2.3928 3.51604 0
M  V30 8028 N 764.178 -1.45556 -0.604258 0
M  V30 8029 C 765.426 -1.4945 -1.36048 0
M  V30 8030 C 765.747 -0.138933 -1.94504 0
M  V30 8031 O 765.017 0.832097 -1.7735 0
M  V30 8032 H 763.597 -0.550381 -0.505064 0
M  V30 8033 H 766.259 -1.81535 -0.709308 0
M  V30 8034 H 765.355 -2.23519 -2.17821 0
M  V30 8035 N 765.656 0.84705 -1.32902 0
M  V30 8036 C 766.902 1.60389 -1.25088 0
M  V30 8037 C 767.257 1.91521 0.183723 0
M  V30 8038 O 766.55 1.55197 1.12359 0
M  V30 8039 C 766.744 2.92663 -2.05142 0
M  V30 8040 C 766.573 2.74449 -3.56241 0
M  V30 8041 C 765.343 2.72434 -4.25567 0
M  V30 8042 C 767.541 2.47666 -4.5074 0
M  V30 8043 N 765.523 2.45512 -5.62669 0
M  V30 8044 C 766.894 2.30219 -5.75673 0
M  V30 8045 C 768.949 2.33196 -4.39914 0
M  V30 8046 C 767.652 1.99772 -6.91002 0
M  V30 8047 C 769.678 2.0414 -5.5505 0
M  V30 8048 C 769.04 1.875 -6.78987 0
M  V30 8049 H 765.139 0.590296 -0.512908 0
M  V30 8050 H 767.723 0.995058 -1.67352 0
M  V30 8051 H 765.894 3.51511 -1.65211 0
M  V30 8052 H 767.626 3.5777 -1.89163 0
M  V30 8053 H 764.381 2.85647 -3.7776 0
M  V30 8054 H 764.805 2.34958 -6.3492 0
M  V30 8055 H 769.447 2.44777 -3.44738 0
M  V30 8056 H 767.165 1.86928 -7.86183 0
M  V30 8057 H 770.751 1.93711 -5.48605 0
M  V30 8058 H 769.631 1.65339 -7.66572 0
M  V30 8059 N 767.134 1.16236 1.06428 0
M  V30 8060 C 768.064 0.890807 2.1584 0
M  V30 8061 C 769.045 -0.162333 1.69324 0
M  V30 8062 O 770.23 -0.0147191 1.94194 0
M  V30 8063 C 767.36 0.389615 3.45108 0
M  V30 8064 C 766.314 1.38051 4.05125 0
M  V30 8065 C 765.64 0.737773 5.29586 0
M  V30 8066 C 766.94 2.74965 4.44062 0
M  V30 8067 H 768.634 1.80577 2.38814 0
M  V30 8068 H 766.18 0.869657 1.14774 0
M  V30 8069 H 768.133 0.187127 4.20984 0
M  V30 8070 H 766.857 -0.560851 3.21748 0
M  V30 8071 H 765.516 1.56952 3.31303 0
M  V30 8072 H 765.164 -0.219135 5.02522 0
M  V30 8073 H 764.864 1.39914 5.70699 0
M  V30 8074 H 766.388 0.545275 6.0816 0
M  V30 8075 H 767.802 2.59855 5.11027 0
M  V30 8076 H 766.199 3.37563 4.96156 0
M  V30 8077 H 767.269 3.30321 3.54987 0
M  V30 8078 N 768.612 -1.24939 0.960631 0
M  V30 8079 C 769.575 -2.239 0.49006 0
M  V30 8080 C 770.575 -1.55497 -0.409535 0
M  V30 8081 O 771.765 -1.72978 -0.205984 0
M  V30 8082 C 768.897 -3.39654 -0.291193 0
M  V30 8083 H 770.09 -2.67044 1.36482 0
M  V30 8084 H 767.643 -1.37429 0.744505 0
M  V30 8085 H 768.378 -3.01939 -1.18336 0
M  V30 8086 H 768.163 -3.90496 0.354276 0
M  V30 8087 H 769.653 -4.13125 -0.609693 0
M  V30 8088 N 770.09 -0.729906 -1.39679 0
M  V30 8089 C 771.02 -0.101618 -2.33279 0
M  V30 8090 C 772.001 0.729854 -1.53646 0
M  V30 8091 O 773.186 0.67587 -1.82059 0
M  V30 8092 C 770.316 0.81024 -3.37716 0
M  V30 8093 C 769.27 0.0833126 -4.27919 0
M  V30 8094 C 768.596 1.11185 -5.23012 0
M  V30 8095 C 769.896 -1.07107 -5.112 0
M  V30 8096 H 771.59 -0.883452 -2.86069 0
M  V30 8097 H 769.136 -0.426283 -1.37546 0
M  V30 8098 H 771.089 1.25927 -4.02145 0
M  V30 8099 H 769.813 1.62413 -2.83354 0
M  V30 8100 H 768.472 -0.346043 -3.64963 0
M  V30 8101 H 768.12 1.91917 -4.64948 0
M  V30 8102 H 767.82 0.63026 -5.8421 0
M  V30 8103 H 769.344 1.56068 -5.90318 0
M  V30 8104 H 770.758 -0.700726 -5.69002 0
M  V30 8105 H 769.155 -1.48196 -5.81514 0
M  V30 8106 H 770.225 -1.89513 -4.46332 0
M  V30 8107 N 771.568 1.50203 -0.477153 0
M  V30 8108 C 772.498 2.31517 0.303646 0
M  V30 8109 C 773.479 1.38696 0.984753 0
M  V30 8110 O 774.664 1.67615 0.980758 0
M  V30 8111 C 771.794 3.18598 1.38249 0
M  V30 8112 C 770.748 4.2002 0.822645 0
M  V30 8113 C 770.074 4.95878 2.00024 0
M  V30 8114 C 771.374 5.22023 -0.170185 0
M  V30 8115 H 773.068 2.97042 -0.375027 0
M  V30 8116 H 770.614 1.42848 -0.181802 0
M  V30 8117 H 772.567 3.74282 1.93625 0
M  V30 8118 H 771.291 2.5097 2.09002 0
M  V30 8119 H 769.95 3.65445 0.290813 0
M  V30 8120 H 769.598 4.24717 2.69489 0
M  V30 8121 H 769.298 5.64487 1.63183 0
M  V30 8122 H 770.822 5.54399 2.55878 0
M  V30 8123 H 772.236 5.72543 0.294606 0
M  V30 8124 H 770.633 5.98386 -0.453181 0
M  V30 8125 H 771.703 4.72396 -1.09408 0
M  V30 8126 N 773.046 0.209999 1.56195 0
M  V30 8127 C 774.292 -0.425442 1.98287 0
M  V30 8128 C 774.625 -1.60232 1.09724 0
M  V30 8129 O 773.9 -1.93902 0.152414 0
M  V30 8130 C 774.183 -0.871189 3.49403 0
M  V30 8131 C 774.036 0.308527 4.48741 0
M  V30 8132 C 775.355 -1.73146 4.04609 0
M  V30 8133 H 772.474 -0.153169 0.720908 0
M  V30 8134 H 775.116 0.303916 1.87554 0
M  V30 8135 H 773.266 -1.49266 3.58681 0
M  V30 8136 H 774.938 0.946487 4.51486 0
M  V30 8137 H 773.181 0.957878 4.23092 0
M  V30 8138 H 773.852 -0.0461143 5.51981 0
M  V30 8139 H 776.328 -1.2072 3.98203 0
M  V30 8140 H 775.204 -2.01228 5.10684 0
M  V30 8141 H 775.465 -2.69083 3.5078 0
M  V30 8142 N 774.524 -1.57472 -0.0634922 0
M  V30 8143 C 775.487 -2.03268 -1.059 0
M  V30 8144 C 776.487 -0.931028 -1.31105 0
M  V30 8145 O 777.677 -1.19567 -1.26686 0
M  V30 8146 C 774.809 -2.42039 -2.40062 0
M  V30 8147 H 776.002 -2.92454 -0.664119 0
M  V30 8148 H 773.555 -1.53206 -0.309444 0
M  V30 8149 H 774.29 -1.55904 -2.84367 0
M  V30 8150 H 774.075 -3.22437 -2.23108 0
M  V30 8151 H 775.565 -2.78017 -3.11603 0
M  V30 8152 N 776.003 0.335068 -1.53997 0
M  V30 8153 C 777.228 1.09859 -1.75914 0
M  V30 8154 C 777.653 1.81308 -0.500915 0
M  V30 8155 O 777.011 1.72854 0.54693 0
M  V30 8156 C 777.059 2.08122 -2.94478 0
M  V30 8157 O 776.163 3.15805 -2.65219 0
M  V30 8158 H 775.504 0.317313 -0.583274 0
M  V30 8159 H 778.034 0.382872 -2.00986 0
M  V30 8160 H 778.044 2.51195 -3.21504 0
M  V30 8161 H 776.719 1.55517 -3.8573 0
M  V30 8162 H 775.296 2.77489 -2.49107 0
M  V30 8163 N 777.481 1.45874 0.596531 0
M  V30 8164 C 778.727 1.5069 1.35722 0
M  V30 8165 C 779.06 0.152506 1.936 0
M  V30 8166 O 778.335 -0.834411 1.75692 0
M  V30 8167 C 778.618 2.59474 2.4969 0
M  V30 8168 C 778.471 4.04396 1.96937 0
M  V30 8169 C 779.79 2.64451 3.51787 0
M  V30 8170 H 776.909 0.548611 0.492133 0
M  V30 8171 H 779.551 1.77741 0.671428 0
M  V30 8172 H 777.701 2.36539 3.08191 0
M  V30 8173 H 779.373 4.38576 1.43 0
M  V30 8174 H 777.616 4.14529 1.27859 0
M  V30 8175 H 778.287 4.76218 2.79143 0
M  V30 8176 H 780.763 2.85031 3.03145 0
M  V30 8177 H 779.639 3.42411 4.29006 0
M  V30 8178 H 779.9 1.69965 4.08123 0
M  V30 8179 N 778.959 -0.83999 1.33349 0
M  V30 8180 C 779.889 -1.965 1.26135 0
M  V30 8181 C 780.87 -1.69505 0.142152 0
M  V30 8182 O 782.055 -1.91346 0.331743 0
M  V30 8183 C 779.185 -3.32632 0.99866 0
M  V30 8184 C 778.139 -3.74021 2.08068 0
M  V30 8185 C 777.465 -5.07947 1.67014 0
M  V30 8186 C 778.765 -3.87925 3.49731 0
M  V30 8187 H 780.459 -2.02793 2.20262 0
M  V30 8188 H 778.005 -0.974297 1.06035 0
M  V30 8189 H 779.958 -4.10903 0.934696 0
M  V30 8190 H 778.682 -3.26593 0.0217759 0
M  V30 8191 H 777.341 -2.98012 2.13505 0
M  V30 8192 H 776.989 -4.98378 0.680316 0
M  V30 8193 H 776.689 -5.36611 2.39422 0
M  V30 8194 H 778.213 -5.88695 1.62082 0
M  V30 8195 H 779.627 -4.5651 3.46802 0
M  V30 8196 H 778.024 -4.28023 4.20614 0
M  V30 8197 H 779.094 -2.90407 3.88319 0
M  V30 8198 N 780.437 -1.16799 -1.0581 0
M  V30 8199 C 781.369 -0.836774 -2.13379 0
M  V30 8200 C 782.382 0.158116 -1.6203 0
M  V30 8201 O 783.571 -0.0673211 -1.78373 0
M  V30 8202 C 780.671 -0.225959 -3.38146 0
M  V30 8203 C 779.844 -1.26217 -4.18794 0
M  V30 8204 C 778.903 -0.670257 -5.21914 0
M  V30 8205 O 777.929 -1.34042 -5.53192 0
M  V30 8206 N 779.131 0.540683 -5.77977 0
M  V30 8207 H 781.896 -1.76257 -2.42391 0
M  V30 8208 H 779.457 -1.06599 -1.21853 0
M  V30 8209 H 781.449 0.18317 -4.04285 0
M  V30 8210 H 780.019 0.603494 -3.06719 0
M  V30 8211 H 779.239 -1.84729 -3.48237 0
M  V30 8212 H 780.527 -1.9613 -4.69479 0
M  V30 8213 H 779.925 1.10322 -5.54838 0
M  V30 8214 H 778.482 0.891958 -6.45668 0
M  V30 8215 N 781.915 1.24427 -0.967243 0
M  V30 8216 C 783.326 1.74349 -0.667785 0
M  V30 8217 C 783.677 1.78403 0.816509 0
M  V30 8218 O 782.802 1.41315 1.63887 0
M  V30 8219 C 783.397 3.16628 -1.20548 0
M  V30 8220 C 781.956 3.64059 -0.955934 0
M  V30 8221 C 781.103 2.42715 -1.34106 0
M  V30 8222 H 784.054 1.10136 -1.14262 0
M  V30 8223 H 784.075 3.76183 -0.571547 0
M  V30 8224 H 783.587 3.13646 -2.28578 0
M  V30 8225 H 781.688 3.72441 0.108858 0
M  V30 8226 H 781.801 4.51549 -1.60126 0
M  V30 8227 H 780.165 2.43114 -0.759452 0
M  V30 8228 H 780.948 2.42414 -2.43085 0
M  V30 8229 N 783.393 0.737304 1.3929 0
M  V30 8230 C 784.341 0.0879867 2.32434 0
M  V30 8231 C 785.335 -0.723324 1.53181 0
M  V30 8232 O 786.541 -0.624251 1.68829 0
M  V30 8233 H 782.916 0.00965277 0.751938 0
M  V30 8234 H 784.887 0.889915 2.84821 0
M  V30 8235 C 783.636 -0.803384 3.38291 0
M  V30 8236 H 782.959 -0.18849 3.99355 0
M  V30 8237 H 784.399 -1.22528 4.0591 0
M  V30 8238 C 782.858 -1.93872 2.75527 0
M  V30 8239 O 783.388 -3.03154 2.63553 0
M  V30 8240 N 781.594 -1.72883 2.3358 0
M  V30 8241 H 781.141 -0.840005 2.43519 0
M  V30 8242 H 781.099 -2.49021 1.91927 0
M  V30 8243 N 784.871 -1.49948 0.485112 0
M  V30 8244 C 786.12 -2.01589 -0.066765 0
M  V30 8245 C 786.433 -1.371 -1.39509 0
M  V30 8246 O 787.639 -1.79978 -2.03274 0
M  V30 8247 C 786.095 -3.59501 -0.169476 0
M  V30 8248 C 785.703 -4.32955 1.15126 0
M  V30 8249 C 787.447 -4.19138 -0.672564 0
M  V30 8250 C 785.354 -5.82684 1.01158 0
M  V30 8251 H 784.284 -0.753453 -0.0287259 0
M  V30 8252 H 786.935 -1.72632 0.622132 0
M  V30 8253 H 785.317 -3.85106 -0.922471 0
M  V30 8254 H 786.491 -4.19064 1.9163 0
M  V30 8255 H 784.806 -3.84991 1.58654 0
M  V30 8256 H 787.403 -5.28767 -0.794325 0
M  V30 8257 H 787.746 -3.81447 -1.66745 0
M  V30 8258 H 788.279 -3.97793 0.0234415 0
M  V30 8259 H 785.018 -6.24873 1.98025 0
M  V30 8260 H 784.538 -5.99112 0.287151 0
M  V30 8261 H 786.217 -6.43376 0.683847 0
M  V30 8262 N 786.349 -0.21828 -1.56081 0
M  V30 8263 C 787.299 0.706492 -2.16778 0
M  V30 8264 C 788.283 1.15987 -1.11516 0
M  V30 8265 O 789.475 1.11441 -1.37513 0
M  V30 8266 C 786.604 1.91583 -2.8487 0
M  V30 8267 C 785.69 1.48228 -3.97353 0
M  V30 8268 N 786.081 0.761113 -5.00041 0
M  V30 8269 C 784.379 1.76982 -4.09382 0
M  V30 8270 C 785.08 0.540496 -5.79184 0
M  V30 8271 N 784.056 1.09622 -5.32432 0
M  V30 8272 H 787.858 0.147038 -2.93532 0
M  V30 8273 H 785.372 -0.0194049 -1.62388 0
M  V30 8274 H 787.369 2.58906 -3.26762 0
M  V30 8275 H 786.029 2.47979 -2.09611 0
M  V30 8276 H 787.04 0.414141 -5.16241 0
M  V30 8277 H 783.717 2.34721 -3.45271 0
M  V30 8278 H 785.107 -0.0332531 -6.71892 0
M  V30 8279 N 787.827 1.57504 0.0551401 0
M  V30 8280 C 788.79 2.03826 1.04821 0
M  V30 8281 C 789.79 0.937968 1.30609 0
M  V30 8282 O 790.98 1.20237 1.2605 0
M  V30 8283 C 788.112 2.43309 2.38775 0
M  V30 8284 H 789.305 2.92802 0.6486 0
M  V30 8285 H 786.858 1.53368 0.301315 0
M  V30 8286 H 787.593 1.5741 2.83536 0
M  V30 8287 H 787.378 3.23615 2.21395 0
M  V30 8288 H 788.868 2.79666 3.10124 0
M  V30 8289 N 789.305 -0.326896 1.54172 0
M  V30 8290 C 790.53 -1.08924 1.76494 0
M  V30 8291 C 790.955 -1.81039 0.510523 0
M  V30 8292 O 790.313 -1.73141 -0.537756 0
M  V30 8293 C 790.361 -2.06558 2.95578 0
M  V30 8294 O 789.465 -3.14394 2.6689 0
M  V30 8295 H 788.806 -0.314216 0.584948 0
M  V30 8296 H 791.336 -0.372207 2.01186 0
M  V30 8297 H 791.346 -2.49487 3.22832 0
M  V30 8298 H 790.021 -1.53469 3.86549 0
M  V30 8299 H 788.598 -2.76164 2.50576 0
M  V30 8300 N 790.784 -1.46188 -0.588786 0
M  V30 8301 C 791.734 -1.5271 -1.69303 0
M  V30 8302 C 792.718 -0.388578 -1.56137 0
M  V30 8303 O 793.91 -0.636616 -1.65155 0
M  V30 8304 C 791.039 -1.51457 -3.08084 0
M  V30 8305 C 790.125 -2.70581 -3.26568 0
M  V30 8306 N 790.516 -3.9555 -3.15236 0
M  V30 8307 C 788.814 -2.66676 -3.57491 0
M  V30 8308 C 789.515 -4.75157 -3.35561 0
M  V30 8309 N 788.491 -4.06927 -3.60432 0
M  V30 8310 H 792.293 -2.47136 -1.59063 0
M  V30 8311 H 789.807 -1.41743 -0.792632 0
M  V30 8312 H 791.804 -1.54216 -3.87328 0
M  V30 8313 H 790.464 -0.581036 -3.19459 0
M  V30 8314 H 791.475 -4.2689 -2.93232 0
M  V30 8315 H 788.152 -1.82317 -3.75588 0
M  V30 8316 H 789.542 -5.84126 -3.32034 0
M  V30 8317 N 792.262 0.832906 -1.33792 0
M  V30 8318 C 793.172 1.97514 -1.26592 0
M  V30 8319 C 794.188 1.73114 -0.175391 0
M  V30 8320 O 795.364 1.97387 -0.400062 0
M  V30 8321 C 792.429 3.31625 -1.01121 0
M  V30 8322 C 791.49 3.69101 -2.19233 0
M  V30 8323 C 790.723 4.96813 -1.94968 0
M  V30 8324 O 790.946 5.63208 -0.902955 0
M  V30 8325 O 789.88 5.31932 -2.8166 0
M  V30 8326 H 793.706 2.0653 -2.22664 0
M  V30 8327 H 791.291 0.966826 -1.13898 0
M  V30 8328 H 793.173 4.11968 -0.886571 0
M  V30 8329 H 791.848 3.23599 -0.080822 0
M  V30 8330 H 790.755 2.89243 -2.37253 0
M  V30 8331 H 792.088 3.818 -3.10628 0
M  V30 8332 N 793.74 1.17359 1.05189 0
M  V30 8333 C 795.017 0.871914 1.75091 0
M  V30 8334 C 795.397 -0.627821 2.01548 0
M  V30 8335 O 794.745 -1.5791 1.65156 0
M  V30 8336 C 794.955 1.70687 3.04413 0
M  V30 8337 C 796.303 1.92684 3.78362 0
M  V30 8338 O 797.327 1.67645 3.14282 0
M  V30 8339 O 796.186 2.34765 4.93505 0
M  V30 8340 H 793.28 0.322831 0.761386 0
M  V30 8341 H 795.826 1.28054 1.11357 0
M  V30 8342 H 794.598 2.72405 2.80911 0
M  V30 8343 H 794.221 1.29602 3.75884 0
M  V30 8344 N 795.218 -1.23913 0.973828 0
M  V30 8345 C 796.443 -1.96735 0.656511 0
M  V30 8346 C 796.868 -1.71682 -0.768571 0
M  V30 8347 O 796.226 -0.984267 -1.52256 0
M  V30 8348 C 796.274 -3.48004 0.944735 0
M  V30 8349 O 795.378 -4.12387 0.0333357 0
M  V30 8350 H 794.719 -0.616119 0.247575 0
M  V30 8351 H 797.249 -1.57525 1.30564 0
M  V30 8352 H 797.259 -3.98424 0.87876 0
M  V30 8353 H 795.934 -3.65567 1.98328 0
M  V30 8354 H 794.511 -3.72585 0.153157 0
M  V30 8355 N 796.696 -0.74468 -1.38897 0
M  V30 8356 C 797.944 -0.296298 -1.99916 0
M  V30 8357 C 798.265 1.12325 -1.59399 0
M  V30 8358 O 797.535 1.76658 -0.846689 0
M  V30 8359 H 796.115 -0.106561 -0.73936 0
M  V30 8360 H 798.777 -0.956793 -1.69798 0
M  V30 8361 H 797.873 -0.352356 -3.10105 0
M  V30 8362 N 798.174 1.49689 -0.493057 0
M  V30 8363 C 799.121 2.28976 0.28959 0
M  V30 8364 C 800.091 1.35011 0.967536 0
M  V30 8365 O 801.276 1.63964 0.975736 0
M  V30 8366 C 798.416 3.1748 1.35279 0
M  V30 8367 C 797.529 4.26496 0.687418 0
M  V30 8368 C 796.664 5.02226 1.73038 0
M  V30 8369 C 795.703 6.03089 1.04645 0
M  V30 8370 N 794.84 6.72014 2.03325 0
M  V30 8371 H 799.68 2.954 -0.392798 0
M  V30 8372 H 797.217 1.45657 -0.205554 0
M  V30 8373 H 799.175 3.67162 1.98111 0
M  V30 8374 H 797.805 2.53057 2.00405 0
M  V30 8375 H 796.857 3.80362 -0.0540001 0
M  V30 8376 H 798.169 4.98578 0.14864 0
M  V30 8377 H 797.323 5.55737 2.43395 0
M  V30 8378 H 796.062 4.29899 2.303 0
M  V30 8379 H 795.067 5.48817 0.328606 0
M  V30 8380 H 796.292 6.77398 0.480428 0
M  V30 8381 H 794.238 6.02464 2.59564 0
M  V30 8382 H 794.155 7.40046 1.54492 0
M  V30 8383 H 795.423 7.30133 2.72995 0
M  V30 8384 N 799.652 0.226554 1.55963 0
M  V30 8385 C 800.615 -0.668015 2.19249 0
M  V30 8386 C 801.615 -1.11794 1.1558 0
M  V30 8387 O 802.805 -1.02593 1.40784 0
M  V30 8388 C 799.937 -1.91571 2.81981 0
M  V30 8389 H 801.13 -0.116175 2.99675 0
M  V30 8390 H 798.683 -0.0230497 1.56283 0
M  V30 8391 H 799.418 -2.50929 2.05439 0
M  V30 8392 H 799.203 -1.6015 3.57903 0
M  V30 8393 H 800.693 -2.55294 3.30477 0
M  V30 8394 N 801.13 -1.57531 -0.0467866 0
M  V30 8395 C 802.06 -2.08425 -1.05268 0
M  V30 8396 C 803.041 -0.982941 -1.38825 0
M  V30 8397 O 804.226 -1.25716 -1.48018 0
M  V30 8398 C 801.356 -2.54897 -2.35891 0
M  V30 8399 C 800.31 -3.69132 -2.16623 0
M  V30 8400 C 799.636 -4.01747 -3.52851 0
M  V30 8401 C 800.936 -4.98243 -1.56689 0
M  V30 8402 H 802.63 -2.92716 -0.62908 0
M  V30 8403 H 800.176 -1.40816 -0.301156 0
M  V30 8404 H 802.129 -2.8912 -3.06574 0
M  V30 8405 H 800.853 -1.67666 -2.80278 0
M  V30 8406 H 799.512 -3.35231 -1.48377 0
M  V30 8407 H 799.16 -3.11608 -3.94853 0
M  V30 8408 H 798.86 -4.78681 -3.4079 0
M  V30 8409 H 800.384 -4.38487 -4.24925 0
M  V30 8410 H 801.798 -5.30535 -2.17268 0
M  V30 8411 H 800.195 -5.79669 -1.55255 0
M  V30 8412 H 801.265 -4.81986 -0.530827 0
M  V30 8413 N 802.608 0.318715 -1.54344 0
M  V30 8414 C 803.571 1.37545 -1.83342 0
M  V30 8415 C 804.571 1.445 -0.705444 0
M  V30 8416 O 805.761 1.44443 -0.973752 0
M  V30 8417 C 802.893 2.76225 -1.99781 0
M  V30 8418 H 804.086 1.13084 -2.77762 0
M  V30 8419 H 801.639 0.554457 -1.46135 0
M  V30 8420 H 802.374 3.05934 -1.07588 0
M  V30 8421 H 802.159 2.7257 -2.81865 0
M  V30 8422 H 803.649 3.52664 -2.23647 0
M  V30 8423 N 804.086 1.46499 0.581025 0
M  V30 8424 C 805.497 1.4604 1.16315 0
M  V30 8425 C 805.848 0.202154 1.95156 0
M  V30 8426 O 804.973 -0.694638 2.04948 0
M  V30 8427 C 805.568 2.64593 2.11604 0
M  V30 8428 C 804.127 2.6717 2.65136 0
M  V30 8429 C 803.274 2.38753 1.4104 0
M  V30 8430 H 806.225 1.54354 0.368871 0
M  V30 8431 H 806.246 2.40207 2.95095 0
M  V30 8432 H 805.758 3.56154 1.54194 0
M  V30 8433 H 803.859 1.79685 3.26411 0
M  V30 8434 H 803.972 3.67182 3.07757 0
M  V30 8435 H 802.336 1.88845 1.70908 0
M  V30 8436 H 803.119 3.32493 0.854588 0
M  V30 8437 N 805.565 -0.825799 1.34232 0
M  V30 8438 C 806.512 -1.93651 1.2557 0
M  V30 8439 C 807.482 -1.65578 0.131536 0
M  V30 8440 O 808.667 -1.88231 0.312027 0
M  V30 8441 C 805.807 -3.29862 1.01415 0
M  V30 8442 C 804.92 -3.70247 2.22579 0
M  V30 8443 C 804.055 -4.95392 1.91731 0
M  V30 8444 C 803.094 -5.28349 3.09053 0
M  V30 8445 N 802.231 -6.44671 2.78107 0
M  V30 8446 H 807.071 -2.00392 2.20561 0
M  V30 8447 H 804.608 -0.980441 1.09662 0
M  V30 8448 H 806.566 -4.08356 0.854485 0
M  V30 8449 H 805.196 -3.22642 0.100936 0
M  V30 8450 H 804.248 -2.87169 2.49476 0
M  V30 8451 H 805.56 -3.90575 3.10246 0
M  V30 8452 H 804.714 -5.81665 1.72484 0
M  V30 8453 H 803.453 -4.77059 1.0132 0
M  V30 8454 H 802.458 -4.40574 3.289 0
M  V30 8455 H 803.683 -5.48622 4.00239 0
M  V30 8456 H 801.629 -6.278 1.9027 0
M  V30 8457 H 801.546 -6.65158 3.59306 0
M  V30 8458 H 802.814 -7.34022 2.62358 0
M  V30 8459 N 807.043 -1.17915 -1.04565 0
M  V30 8460 C 808.292 -0.965816 -1.77073 0
M  V30 8461 C 808.605 0.506005 -1.88942 0
M  V30 8462 O 809.811 0.837717 -2.58253 0
M  V30 8463 C 808.267 -1.67894 -3.18339 0
M  V30 8464 C 807.875 -3.18972 -3.1458 0
M  V30 8465 C 809.619 -1.54823 -3.9526 0
M  V30 8466 C 807.526 -3.82946 -4.50674 0
M  V30 8467 H 806.456 -0.357729 -0.663736 0
M  V30 8468 H 809.107 -1.41235 -1.17153 0
M  V30 8469 H 807.489 -1.16016 -3.78624 0
M  V30 8470 H 808.663 -3.77835 -2.63776 0
M  V30 8471 H 806.978 -3.32127 -2.51159 0
M  V30 8472 H 809.575 -1.99984 -4.95894 0
M  V30 8473 H 809.918 -0.499727 -4.1329 0
M  V30 8474 H 810.451 -2.03953 -3.41538 0
M  V30 8475 H 807.19 -4.8782 -4.37849 0
M  V30 8476 H 806.71 -3.2887 -5.01602 0
M  V30 8477 H 808.389 -3.85518 -5.196 0
M  V30 8478 N 808.521 1.23394 -0.980386 0
M  V30 8479 C 809.746 1.96384 -0.666935 0
M  V30 8480 C 810.171 1.72087 0.759456 0
M  V30 8481 O 809.529 0.992328 1.51732 0
M  V30 8482 C 809.577 3.47499 -0.963177 0
M  V30 8483 O 808.681 4.12363 -0.0552051 0
M  V30 8484 H 808.022 0.614797 -0.250839 0
M  V30 8485 H 810.552 1.56831 -1.31398 0
M  V30 8486 H 810.562 3.97953 -0.899877 0
M  V30 8487 H 809.237 3.6451 -2.00264 0
M  V30 8488 H 807.814 3.72499 -0.172914 0
M  V30 8489 N 809.999 0.752036 1.385 0
M  V30 8490 C 811.248 0.304294 1.99391 0
M  V30 8491 C 811.561 -1.11982 1.60373 0
M  V30 8492 O 812.767 -1.66795 2.14223 0
M  V30 8493 C 811.223 0.493101 3.56506 0
M  V30 8494 C 810.831 1.9262 4.04477 0
M  V30 8495 C 812.575 0.107994 4.24363 0
M  V30 8496 C 810.482 2.06365 5.54227 0
M  V30 8497 H 809.412 0.110024 0.745929 0
M  V30 8498 H 812.063 0.928355 1.58284 0
M  V30 8499 H 810.445 -0.20012 3.95494 0
M  V30 8500 H 811.619 2.65276 3.76783 0
M  V30 8501 H 809.934 2.26608 3.49339 0
M  V30 8502 H 812.531 0.189474 5.34364 0
M  V30 8503 H 812.874 -0.939165 4.05568 0
M  V30 8504 H 813.407 0.753011 3.90608 0
M  V30 8505 H 810.146 3.0933 5.77923 0
M  V30 8506 H 809.666 1.38167 5.83669 0
M  V30 8507 H 811.345 1.85286 6.19902 0
M  V30 8508 N 811.477 -1.49425 0.500989 0
M  V30 8509 C 812.702 -2.07356 -0.0425154 0
M  V30 8510 C 813.127 -1.35887 -1.30063 0
M  V30 8511 O 812.485 -0.41561 -1.76472 0
M  V30 8512 C 812.533 -3.59518 -0.279188 0
M  V30 8513 O 811.637 -3.89542 -1.3539 0
M  V30 8514 H 810.978 -0.663482 0.0262207 0
M  V30 8515 H 813.508 -1.92231 0.700607 0
M  V30 8516 H 813.518 -4.04791 -0.5107 0
M  V30 8517 H 812.193 -4.10946 0.640009 0
M  V30 8518 H 810.77 -3.56079 -1.10734 0
M  V30 8519 N 812.955 -0.234822 -1.55841 0
M  V30 8520 C 814.366 0.270588 -1.84729 0
M  V30 8521 C 814.717 1.58494 -1.15646 0
M  V30 8522 O 813.842 2.12071 -0.430667 0
M  V30 8523 C 814.437 0.497733 -3.35124 0
M  V30 8524 C 812.996 0.947428 -3.64281 0
M  V30 8525 C 812.143 0.01787 -2.77294 0
M  V30 8526 H 815.094 -0.457691 -1.51957 0
M  V30 8527 H 815.115 1.34199 -3.56049 0
M  V30 8528 H 814.627 -0.459037 -3.85376 0
M  V30 8529 H 812.728 1.91709 -3.19497 0
M  V30 8530 H 812.841 0.812651 -4.72158 0
M  V30 8531 H 811.205 0.527071 -2.49187 0
M  V30 8532 H 811.988 -0.934056 -3.30349 0
M  V30 8533 N 814.433 1.57553 0.0384317 0
M  V30 8534 C 815.849 1.54663 0.39391 0
M  V30 8535 C 816.049 0.959685 1.77179 0
M  V30 8536 O 815.105 0.576647 2.45827 0
M  V30 8537 C 816.418 2.99156 0.304352 0
M  V30 8538 C 817.966 3.10659 0.382119 0
M  V30 8539 C 818.441 4.56866 0.322111 0
M  V30 8540 N 819.932 4.61629 0.38119 0
M  V30 8541 C 820.667 5.72284 0.357501 0
M  V30 8542 N 820.163 6.92207 0.286654 0
M  V30 8543 N 821.956 5.60628 0.406538 0
M  V30 8544 H 814.107 1.9406 -0.86339 0
M  V30 8545 H 816.37 0.889673 -0.327392 0
M  V30 8546 H 816.076 3.45788 -0.642141 0
M  V30 8547 H 815.95 3.60753 1.10168 0
M  V30 8548 H 818.337 2.6398 1.31904 0
M  V30 8549 H 818.418 2.5191 -0.444391 0
M  V30 8550 H 818.062 5.0421 -0.611104 0
M  V30 8551 H 817.992 5.13515 1.1666 0
M  V30 8552 H 820.483 3.75343 0.438838 0
M  V30 8553 H 820.796 7.72316 0.273421 0
M  V30 8554 H 819.141 6.9454 0.252841 0
M  V30 8555 H 822.332 4.65836 0.459812 0
M  V30 8556 H 822.505 6.46858 0.384608 0
M  V30 8557 N 815.911 -0.310526 1.54511 0
M  V30 8558 C 817.139 -1.06611 1.77318 0
M  V30 8559 C 817.554 -1.81265 0.528043 0
M  V30 8560 O 816.911 -1.75466 -0.50178 0
M  V30 8561 C 816.962 -2.05409 2.97472 0
M  V30 8562 O 816.683 -1.33785 4.17173 0
M  V30 8563 C 818.184 -2.93082 3.32593 0
M  V30 8564 H 815.404 -0.316578 0.591624 0
M  V30 8565 H 817.948 -0.352691 2.01436 0
M  V30 8566 H 816.103 -2.72266 2.7559 0
M  V30 8567 H 816.517 -2.00055 4.84849 0
M  V30 8568 H 817.991 -3.58274 4.19933 0
M  V30 8569 H 818.468 -3.60877 2.50329 0
M  V30 8570 H 819.074 -2.31768 3.566 0
M  V30 8571 N 817.389 -1.46805 -0.573248 0
M  V30 8572 C 818.617 -1.56191 -1.3569 0
M  V30 8573 C 819.032 -0.206362 -1.87669 0
M  V30 8574 O 818.389 0.797883 -1.64134 0
M  V30 8575 C 818.44 -2.57433 -2.53792 0
M  V30 8576 O 818.161 -3.87724 -2.03965 0
M  V30 8577 C 819.662 -2.76851 -3.4622 0
M  V30 8578 H 816.882 -0.527907 -0.414192 0
M  V30 8579 H 819.426 -1.92292 -0.695989 0
M  V30 8580 H 817.581 -2.24311 -3.15854 0
M  V30 8581 H 817.995 -4.42909 -2.80948 0
M  V30 8582 H 819.469 -3.5159 -4.25545 0
M  V30 8583 H 819.946 -1.84095 -3.98755 0
M  V30 8584 H 820.552 -3.11107 -2.89987 0
M  V30 8585 N 818.867 0.818669 -1.34668 0
M  V30 8586 C 819.815 1.95123 -1.26609 0
M  V30 8587 C 820.809 1.68611 -0.163348 0
M  V30 8588 O 822.015 1.76975 -0.328586 0
M  V30 8589 H 818.39 0.640871 -0.393431 0
M  V30 8590 H 820.361 1.99043 -2.22316 0
M  V30 8591 C 819.11 3.31697 -1.04272 0
M  V30 8592 H 818.433 3.52648 -1.8836 0
M  V30 8593 H 819.873 4.11382 -1.0267 0
M  V30 8594 C 818.332 3.35942 0.253858 0
M  V30 8595 O 818.862 3.81632 1.25378 0
M  V30 8596 N 817.068 2.89165 0.288447 0
M  V30 8597 H 816.615 2.52176 -0.525845 0
M  V30 8598 H 816.573 2.92387 1.15572 0
M  V30 8599 N 820.346 1.18468 1.03938 0
M  V30 8600 C 821.571 1.00638 1.81347 0
M  V30 8601 C 821.996 -0.440477 1.8287 0
M  V30 8602 O 821.354 -1.31609 1.24695 0
M  V30 8603 C 821.402 1.5673 3.24759 0
M  V30 8604 O 820.506 0.789517 4.04772 0
M  V30 8605 H 819.847 0.356432 0.560225 0
M  V30 8606 H 822.377 1.57253 1.30891 0
M  V30 8607 H 822.387 1.59496 3.75533 0
M  V30 8608 H 821.062 2.62043 3.22965 0
M  V30 8609 H 819.639 0.834267 3.63448 0
M  V30 8610 N 821.824 -1.22873 0.986916 0
M  V30 8611 C 823.071 -1.91462 0.659424 0
M  V30 8612 C 823.399 -1.76931 -0.807825 0
M  V30 8613 O 822.654 -1.12829 -1.59901 0
M  V30 8614 C 822.953 -3.43014 1.00379 0
M  V30 8615 C 822.619 -3.77731 2.46232 0
M  V30 8616 C 821.281 -3.86918 2.86091 0
M  V30 8617 C 823.633 -3.94343 3.40798 0
M  V30 8618 C 820.961 -4.10149 4.19518 0
M  V30 8619 C 823.313 -4.19076 4.73875 0
M  V30 8620 C 821.977 -4.26486 5.13484 0
M  V30 8621 H 821.247 -0.700611 0.2413 0
M  V30 8622 H 823.894 -1.45763 1.24199 0
M  V30 8623 H 822.199 -3.90329 0.339226 0
M  V30 8624 H 823.896 -3.94327 0.728518 0
M  V30 8625 H 820.486 -3.71159 2.14334 0
M  V30 8626 H 824.67 -3.86629 3.11178 0
M  V30 8627 H 819.926 -4.1411 4.49803 0
M  V30 8628 H 824.1 -4.30873 5.47102 0
M  V30 8629 H 821.727 -4.4424 6.16891 0
M  V30 8630 N 823.302 -0.75937 -1.38099 0
M  V30 8631 C 824.252 -0.111098 -2.27729 0
M  V30 8632 C 825.236 0.687161 -1.45489 0
M  V30 8633 O 826.428 0.552167 -1.68167 0
M  V30 8634 C 823.557 0.776809 -3.34396 0
M  V30 8635 C 822.643 -0.0286108 -4.2409 0
M  V30 8636 N 823.034 -1.06797 -4.94397 0
M  V30 8637 C 821.332 0.197307 -4.45563 0
M  V30 8638 C 822.033 -1.55576 -5.6051 0
M  V30 8639 N 821.009 -0.870059 -5.36592 0
M  V30 8640 H 824.811 -0.907047 -2.79553 0
M  V30 8641 H 822.325 -0.595954 -1.5107 0
M  V30 8642 H 824.322 1.25691 -3.97502 0
M  V30 8643 H 822.982 1.57164 -2.84129 0
M  V30 8644 H 823.993 -1.44988 -4.97191 0
M  V30 8645 H 820.67 0.965028 -4.06194 0
M  V30 8646 H 822.06 -2.42184 -6.26735 0
M  V30 8647 N 824.78 1.49157 -0.508906 0
M  V30 8648 C 825.71 2.32109 0.254469 0
M  V30 8649 C 826.691 1.40754 0.955111 0
M  V30 8650 O 827.876 1.69658 0.944983 0
M  V30 8651 C 825.006 3.21458 1.3146 0
M  V30 8652 C 823.96 4.2167 0.733368 0
M  V30 8653 C 823.286 5.00009 1.8946 0
M  V30 8654 C 824.586 5.21544 -0.280875 0
M  V30 8655 H 826.28 2.9618 -0.43795 0
M  V30 8656 H 823.826 1.4243 -0.212062 0
M  V30 8657 H 825.779 3.78305 1.85643 0
M  V30 8658 H 824.503 2.55346 2.03632 0
M  V30 8659 H 823.162 3.65979 0.213231 0
M  V30 8660 H 822.81 4.30338 2.60419 0
M  V30 8661 H 822.51 5.67821 1.51173 0
M  V30 8662 H 824.034 5.59702 2.44061 0
M  V30 8663 H 825.448 5.73039 0.173095 0
M  V30 8664 H 823.845 5.97291 -0.580006 0
M  V30 8665 H 824.915 4.69969 -1.19404 0
M  V30 8666 N 826.258 0.243083 1.55714 0
M  V30 8667 C 827.669 -0.260788 1.8487 0
M  V30 8668 C 828.02 -1.57879 1.16485 0
M  V30 8669 O 827.145 -2.1184 0.441908 0
M  V30 8670 C 827.74 -0.479954 3.35383 0
M  V30 8671 C 826.299 -0.928096 3.64778 0
M  V30 8672 C 825.446 -0.00316416 2.773 0
M  V30 8673 H 828.397 0.465743 1.51712 0
M  V30 8674 H 828.418 -1.32308 3.56756 0
M  V30 8675 H 827.93 0.479468 3.85127 0
M  V30 8676 H 826.031 -1.90012 3.20509 0
M  V30 8677 H 826.144 -0.7876 4.72582 0
M  V30 8678 H 824.508 -0.513849 2.49463 0
M  V30 8679 H 825.291 0.951562 3.29849 0
M  V30 8680 N 827.736 -1.57571 -0.0300757 0
M  V30 8681 C 829.013 -1.80381 -0.756447 0
M  V30 8682 C 829.393 -0.840906 -1.93628 0
M  V30 8683 O 828.741 0.117143 -2.282 0
M  V30 8684 C 828.951 -3.2807 -1.19043 0
M  V30 8685 C 830.299 -3.93025 -1.60676 0
M  V30 8686 O 831.323 -3.32213 -1.28503 0
M  V30 8687 O 830.182 -5.00092 -2.20386 0
M  V30 8688 H 827.276 -0.741737 -0.365725 0
M  V30 8689 H 829.822 -1.69699 -0.00693177 0
M  V30 8690 H 828.594 -3.89748 -0.348128 0
M  V30 8691 H 828.217 -3.43637 -1.99999 0
M  V30 8692 N 829.214 0.302327 -1.54673 0
M  V30 8693 C 830.491 1.05721 -1.64567 0
M  V30 8694 C 830.871 2.0526 -0.493108 0
M  V30 8695 O 830.219 2.22729 0.510315 0
M  V30 8696 C 830.429 1.74025 -3.02517 0
M  V30 8697 C 831.777 2.26271 -3.59286 0
M  V30 8698 O 832.801 1.8406 -3.0496 0
M  V30 8699 O 831.66 3.0361 -4.54404 0
M  V30 8700 H 828.754 0.488577 -0.667249 0
M  V30 8701 H 831.3 0.300521 -1.67018 0
M  V30 8702 H 830.072 1.0174 -3.77842 0
M  V30 8703 H 829.695 2.56454 -3.03838 0
M  V30 8704 N 830.692 1.47107 0.565454 0
M  V30 8705 C 832.103 1.47266 1.1476 0
M  V30 8706 C 832.454 0.222841 1.9493 0
M  V30 8707 O 831.579 -0.672862 2.05673 0
M  V30 8708 C 832.174 2.66822 2.08785 0
M  V30 8709 C 830.733 2.69967 2.62288 0
M  V30 8710 C 829.88 2.40236 1.38499 0
M  V30 8711 H 832.831 1.54736 0.352479 0
M  V30 8712 H 832.852 2.43323 2.92531 0
M  V30 8713 H 832.364 3.5777 1.50408 0
M  V30 8714 H 830.465 1.83137 3.24487 0
M  V30 8715 H 830.578 3.70426 3.03845 0
M  V30 8716 H 828.942 1.90648 1.68895 0
M  V30 8717 H 829.725 3.33381 0.819274 0
M  V30 8718 N 832.17 -0.811516 1.35101 0
M  V30 8719 C 833.395 -1.60499 1.31358 0
M  V30 8720 C 833.82 -1.87793 -0.107383 0
M  V30 8721 O 833.178 -1.46161 -1.07268 0
M  V30 8722 C 833.226 -2.91612 2.12119 0
M  V30 8723 O 832.33 -3.84211 1.49853 0
M  V30 8724 H 831.671 -0.487702 0.450603 0
M  V30 8725 H 834.201 -1.00758 1.7807 0
M  V30 8726 H 834.211 -3.4108 2.23894 0
M  V30 8727 H 832.886 -2.71071 3.15426 0
M  V30 8728 H 831.463 -3.42751 1.46889 0
M  V30 8729 N 833.648 -1.19017 -1.03309 0
M  V30 8730 C 834.897 -0.984542 -1.76039 0
M  V30 8731 C 835.21 0.485937 -1.89468 0
M  V30 8732 O 836.416 0.810278 -2.59127 0
M  V30 8733 C 834.872 -1.71261 -3.1654 0
M  V30 8734 C 834.48 -3.22291 -3.11179 0
M  V30 8735 C 836.224 -1.59007 -3.93595 0
M  V30 8736 C 834.131 -3.87704 -4.46587 0
M  V30 8737 H 833.061 -0.364749 -0.659905 0
M  V30 8738 H 835.712 -1.4247 -1.15649 0
M  V30 8739 H 834.094 -1.20025 -3.77373 0
M  V30 8740 H 835.268 -3.80611 -2.59753 0
M  V30 8741 H 833.583 -3.34772 -2.47622 0
M  V30 8742 H 836.18 -2.05232 -4.93745 0
M  V30 8743 H 836.523 -0.543534 -4.12736 0
M  V30 8744 H 837.056 -2.07564 -3.39355 0
M  V30 8745 H 833.795 -4.92437 -4.3265 0
M  V30 8746 H 833.315 -3.34172 -4.98085 0
M  V30 8747 H 834.994 -3.91008 -5.15482 0
M  V30 8748 N 835.127 1.22348 -0.993418 0
M  V30 8749 C 836.538 1.72893 -0.704616 0
M  V30 8750 C 836.889 1.80095 0.778483 0
M  V30 8751 O 836.014 1.4476 1.60853 0
M  V30 8752 C 836.609 3.14 -1.27237 0
M  V30 8753 C 835.168 3.61949 -1.03294 0
M  V30 8754 C 834.315 2.39816 -1.39225 0
M  V30 8755 H 837.266 1.07688 -1.16572 0
M  V30 8756 H 837.287 3.74886 -0.651212 0
M  V30 8757 H 836.799 3.08727 -2.3518 0
M  V30 8758 H 834.9 3.72588 0.0298329 0
M  V30 8759 H 835.013 4.48051 -1.69668 0
M  V30 8760 H 833.377 2.41448 -0.810849 0
M  V30 8761 H 834.16 2.37203 -2.48172 0
M  V30 8762 N 836.605 0.766683 1.37694 0
M  V30 8763 C 837.854 0.325425 1.99057 0
M  V30 8764 C 838.167 -1.10275 1.61551 0
M  V30 8765 O 839.373 -1.64513 2.1598 0
M  V30 8766 C 837.829 0.530886 3.55963 0
M  V30 8767 C 837.437 1.96899 4.02411 0
M  V30 8768 C 839.181 0.152997 4.24224 0
M  V30 8769 C 837.088 2.12232 5.52007 0
M  V30 8770 H 836.018 0.117929 0.744721 0
M  V30 8771 H 838.669 0.945091 1.5729 0
M  V30 8772 H 837.051 -0.158162 3.95684 0
M  V30 8773 H 838.225 2.69258 3.73948 0
M  V30 8774 H 836.54 2.303 3.46916 0
M  V30 8775 H 839.137 0.24614 5.34133 0
M  V30 8776 H 839.48 -0.896096 4.06541 0
M  V30 8777 H 840.013 0.794398 3.89787 0
M  V30 8778 H 836.752 3.15442 5.7461 0
M  V30 8779 H 836.272 1.4435 5.82171 0
M  V30 8780 H 837.951 1.9185 6.17902 0
M  V30 8781 N 838.083 -1.48885 0.516809 0
M  V30 8782 C 839.332 -2.01686 -0.0239899 0
M  V30 8783 C 839.645 -1.40029 -1.3657 0
M  V30 8784 O 840.851 -1.84249 -1.9941 0
M  V30 8785 C 839.307 -3.59779 -0.0931825 0
M  V30 8786 C 838.915 -4.30416 1.24283 0
M  V30 8787 C 840.659 -4.20471 -0.583507 0
M  V30 8788 C 838.566 -5.80408 1.13494 0
M  V30 8789 H 837.496 -0.753892 -0.0127376 0
M  V30 8790 H 840.147 -1.71273 0.65861 0
M  V30 8791 H 838.529 -3.86976 -0.840577 0
M  V30 8792 H 839.703 -4.14905 2.00476 0
M  V30 8793 H 838.018 -3.81539 1.66785 0
M  V30 8794 H 840.615 -5.30333 -0.681987 0
M  V30 8795 H 840.958 -3.84898 -1.58617 0
M  V30 8796 H 841.491 -3.97654 0.107814 0
M  V30 8797 H 838.23 -6.20532 2.11235 0
M  V30 8798 H 837.75 -5.98368 0.414167 0
M  V30 8799 H 839.429 -6.41781 0.820162 0
M  V30 8800 N 839.561 -0.251338 -1.55583 0
M  V30 8801 C 840.494 0.687092 -2.1761 0
M  V30 8802 C 841.472 1.16963 -1.12953 0
M  V30 8803 O 842.656 1.24696 -1.41362 0
M  V30 8804 C 839.783 1.93429 -2.78034 0
M  V30 8805 C 838.829 1.58925 -3.95784 0
M  V30 8806 S 839.662 0.688019 -5.31062 0
M  V30 8807 C 840.818 1.94413 -5.94941 0
M  V30 8808 H 841.051 0.159982 -2.96869 0
M  V30 8809 H 838.584 -0.0357593 -1.54359 0
M  V30 8810 H 840.542 2.65028 -3.13481 0
M  V30 8811 H 839.203 2.43253 -1.98713 0
M  V30 8812 H 838.396 2.51668 -4.36668 0
M  V30 8813 H 837.998 0.953664 -3.61637 0
M  V30 8814 H 840.29 2.89087 -6.12727 0
M  V30 8815 H 841.233 1.5787 -6.90277 0
M  V30 8816 H 841.641 2.09824 -5.24056 0
M  V30 8817 N 841.039 1.57585 0.0217189 0
M  V30 8818 C 842.285 1.89887 0.712099 0
M  V30 8819 C 842.618 0.849971 1.74611 0
M  V30 8820 O 841.893 -0.13407 1.94037 0
M  V30 8821 C 842.176 3.32815 1.37499 0
M  V30 8822 C 842.029 4.48405 0.353993 0
M  V30 8823 C 843.348 3.74786 2.30703 0
M  V30 8824 H 840.467 0.690588 0.257405 0
M  V30 8825 H 843.109 1.89983 -0.0251145 0
M  V30 8826 H 841.259 3.32863 2.00335 0
M  V30 8827 H 842.931 4.60491 -0.273015 0
M  V30 8828 H 841.174 4.32573 -0.32599 0
M  V30 8829 H 841.845 5.45316 0.85644 0
M  V30 8830 H 844.321 3.76151 1.77904 0
M  V30 8831 H 843.197 4.75585 2.74061 0
M  V30 8832 H 843.458 3.07449 3.17691 0
M  V30 8833 N 842.517 -0.29412 1.54831 0
M  V30 8834 C 843.765 -1.02643 1.74094 0
M  V30 8835 C 844.086 -1.87563 0.533402 0
M  V30 8836 O 843.356 -1.9061 -0.452192 0
M  V30 8837 H 841.936 -0.381959 0.641963 0
M  V30 8838 H 844.598 -0.323444 1.92197 0
M  V30 8839 H 843.694 -1.67558 2.63307 0
M  V30 8840 N 843.995 -1.47404 -0.557645 0
M  V30 8841 C 845.406 -1.47872 -1.13977 0
M  V30 8842 C 845.757 -0.233176 -1.94809 0
M  V30 8843 O 844.882 0.661945 -2.06027 0
M  V30 8844 C 845.477 -2.67926 -2.07368 0
M  V30 8845 C 844.036 -2.71354 -2.60852 0
M  V30 8846 C 843.183 -2.40967 -1.37223 0
M  V30 8847 H 846.134 -1.54921 -0.344268 0
M  V30 8848 H 846.155 -2.44871 -2.91236 0
M  V30 8849 H 845.667 -3.58562 -1.48509 0
M  V30 8850 H 843.768 -1.84855 -3.23511 0
M  V30 8851 H 843.881 -3.72032 -3.01876 0
M  V30 8852 H 842.245 -1.91541 -1.67882 0
M  V30 8853 H 843.028 -3.33811 -0.801583 0
M  V30 8854 N 845.473 0.80434 -1.35529 0
M  V30 8855 C 846.721 1.55845 -1.28673 0
M  V30 8856 C 847.042 1.94511 0.137976 0
M  V30 8857 O 846.312 1.63775 1.07492 0
M  V30 8858 H 844.892 0.577931 -0.473291 0
M  V30 8859 H 847.554 0.959293 -1.69657 0
M  V30 8860 H 846.65 2.47285 -1.90411 0
M  V30 8861 N 846.951 1.19563 1.02676 0
M  V30 8862 C 848.179 1.02488 1.79732 0
M  V30 8863 C 848.594 -0.426302 1.83924 0
M  V30 8864 O 847.951 -1.29609 1.28483 0
M  V30 8865 C 848.002 1.58944 3.24683 0
M  V30 8866 O 847.723 2.98382 3.2078 0
M  V30 8867 C 849.224 1.46681 4.1833 0
M  V30 8868 H 846.444 0.361098 0.565552 0
M  V30 8869 H 848.988 1.58426 1.29311 0
M  V30 8870 H 847.143 1.0715 3.72287 0
M  V30 8871 H 847.557 3.24983 4.11687 0
M  V30 8872 H 849.031 1.90959 5.17918 0
M  V30 8873 H 849.508 0.417663 4.3721 0
M  V30 8874 H 850.114 1.97616 3.76601 0
M  V30 8875 N 848.429 -1.21819 0.999893 0
M  V30 8876 C 849.677 -1.90375 0.678351 0
M  V30 8877 C 849.998 -1.78155 -0.792824 0
M  V30 8878 O 849.268 -1.17319 -1.56885 0
M  V30 8879 H 847.848 -0.704661 0.247915 0
M  V30 8880 H 850.51 -1.48021 1.2679 0
M  V30 8881 H 849.606 -2.97385 0.947023 0
M  V30 8882 N 849.908 -0.773975 -1.37286 0
M  V30 8883 C 851.157 -0.335977 -1.98882 0
M  V30 8884 C 851.47 1.09416 -1.62134 0
M  V30 8885 O 852.676 1.63366 -2.1685 0
M  V30 8886 C 851.132 -0.549756 -3.55676 0
M  V30 8887 C 850.74 -1.9903 -4.01361 0
M  V30 8888 C 852.484 -0.175493 -4.24137 0
M  V30 8889 C 850.391 -2.15156 -5.50874 0
M  V30 8890 H 849.321 -0.121877 -0.744085 0
M  V30 8891 H 851.972 -0.953419 -1.56787 0
M  V30 8892 H 850.354 0.137175 -3.95762 0
M  V30 8893 H 851.528 -2.71237 -3.72515 0
M  V30 8894 H 849.843 -2.32137 -3.4569 0
M  V30 8895 H 852.44 -0.274463 -5.33995 0
M  V30 8896 H 852.783 0.874524 -4.07011 0
M  V30 8897 H 853.316 -0.815058 -3.89361 0
M  V30 8898 H 850.055 -3.18485 -5.72929 0
M  V30 8899 H 849.575 -1.47435 -5.81397 0
M  V30 8900 H 851.254 -1.95124 -6.16876 0
M  V30 8901 N 851.386 1.48609 -0.524698 0
M  V30 8902 C 852.349 2.28041 0.230166 0
M  V30 8903 C 853.349 1.35065 0.872584 0
M  V30 8904 O 854.539 1.58007 0.73345 0
M  V30 8905 C 851.671 3.13778 1.33252 0
M  V30 8906 H 852.864 2.96239 -0.467161 0
M  V30 8907 H 850.417 1.53763 -0.280452 0
M  V30 8908 H 851.152 2.502 2.06327 0
M  V30 8909 H 850.937 3.82165 0.877058 0
M  V30 8910 H 852.427 3.7371 1.86362 0
M  V30 8911 N 852.864 0.259585 1.55447 0
M  V30 8912 C 854.275 -0.241165 1.85136 0
M  V30 8913 C 854.626 -1.56634 1.18153 0
M  V30 8914 O 853.751 -2.11359 0.464351 0
M  V30 8915 C 854.346 -0.444355 3.35873 0
M  V30 8916 C 852.905 -0.889354 3.65742 0
M  V30 8917 C 852.052 0.0262474 2.77288 0
M  V30 8918 H 855.003 0.481808 1.51209 0
M  V30 8919 H 855.024 -1.28517 3.58139 0
M  V30 8920 H 854.536 0.520289 3.84597 0
M  V30 8921 H 852.637 -1.86602 3.22507 0
M  V30 8922 H 852.75 -0.737432 4.73391 0
M  V30 8923 H 851.114 -0.487361 2.49994 0
M  V30 8924 H 851.897 0.986494 3.28821 0
M  V30 8925 N 854.342 -1.57594 -0.0133615 0
M  V30 8926 C 855.589 -1.8998 -0.70098 0
M  V30 8927 C 855.917 -0.858802 -1.74513 0
M  V30 8928 O 855.172 0.138209 -1.95211 0
M  V30 8929 C 855.471 -3.29121 -1.39336 0
M  V30 8930 C 855.137 -4.48298 -0.483687 0
M  V30 8931 C 853.799 -4.80635 -0.233186 0
M  V30 8932 C 856.151 -5.21003 0.143426 0
M  V30 8933 C 853.479 -5.83055 0.652943 0
M  V30 8934 C 855.831 -6.24366 1.01735 0
M  V30 8935 C 854.495 -6.55168 1.27716 0
M  V30 8936 H 853.765 -0.695187 -0.256507 0
M  V30 8937 H 856.412 -1.9146 0.0392965 0
M  V30 8938 H 854.717 -3.23703 -2.20735 0
M  V30 8939 H 856.414 -3.51433 -1.93121 0
M  V30 8940 H 853.004 -4.23024 -0.689092 0
M  V30 8941 H 857.188 -4.96286 -0.0371139 0
M  V30 8942 H 852.444 -6.05288 0.862379 0
M  V30 8943 H 856.618 -6.79839 1.5097 0
M  V30 8944 H 854.245 -7.34351 1.9655 0
M  V30 8945 N 855.82 0.285905 -1.54985 0
M  V30 8946 C 857.069 1.01691 -1.74189 0
M  V30 8947 C 857.382 1.87908 -0.543135 0
M  V30 8948 O 858.588 2.64389 -0.617305 0
M  V30 8949 C 857.044 1.85785 -3.0824 0
M  V30 8950 C 856.652 1.04497 -4.35642 0
M  V30 8951 C 858.396 2.58393 -3.36798 0
M  V30 8952 C 856.303 1.87955 -5.60738 0
M  V30 8953 H 855.233 0.383396 -0.649248 0
M  V30 8954 H 857.884 0.27317 -1.81455 0
M  V30 8955 H 856.266 2.64205 -2.94978 0
M  V30 8956 H 857.44 0.305847 -4.59784 0
M  V30 8957 H 855.755 0.434023 -4.14132 0
M  V30 8958 H 858.352 3.21214 -4.27464 0
M  V30 8959 H 858.695 3.28011 -2.56349 0
M  V30 8960 H 859.228 1.87012 -3.511 0
M  V30 8961 H 855.967 1.22781 -6.43898 0
M  V30 8962 H 855.487 2.59499 -5.40759 0
M  V30 8963 H 857.166 2.45636 -5.98558 0
M  V30 8964 N 857.298 1.47698 0.54982 0
M  V30 8965 C 858.546 1.54397 1.30407 0
M  V30 8966 C 858.867 0.211026 1.93855 0
M  V30 8967 O 858.137 -0.765701 1.80316 0
M  V30 8968 H 856.717 0.568747 0.484289 0
M  V30 8969 H 859.379 1.84042 0.641444 0
M  V30 8970 H 858.475 2.31449 2.09375 0
M  V30 8971 N 858.776 -0.797141 1.35954 0
M  V30 8972 C 860.023 -1.55468 1.29754 0
M  V30 8973 C 860.351 -1.94095 -0.125391 0
M  V30 8974 O 859.606 -1.62341 -1.09288 0
M  V30 8975 C 859.905 -2.84847 2.15863 0
M  V30 8976 C 859.571 -2.65394 3.64523 0
M  V30 8977 C 858.233 -2.59796 4.05042 0
M  V30 8978 C 860.585 -2.4727 4.58811 0
M  V30 8979 C 857.913 -2.3403 5.38002 0
M  V30 8980 C 860.265 -2.23032 5.91979 0
M  V30 8981 C 858.929 -2.15862 6.31633 0
M  V30 8982 H 858.199 -0.568897 0.474803 0
M  V30 8983 H 860.846 -0.920299 1.67937 0
M  V30 8984 H 859.151 -3.52712 1.70591 0
M  V30 8985 H 860.848 -3.42597 2.08395 0
M  V30 8986 H 857.438 -2.70602 3.32374 0
M  V30 8987 H 861.622 -2.506 4.28384 0
M  V30 8988 H 856.878 -2.26956 5.67715 0
M  V30 8989 H 861.052 -2.08001 6.64612 0
M  V30 8990 H 858.679 -1.9566 7.34589 0
M  V30 8991 N 860.254 -1.20106 -1.0204 0
M  V30 8992 C 861.184 -0.970301 -2.12385 0
M  V30 8993 C 862.165 0.099378 -1.69809 0
M  V30 8994 O 863.35 -0.057365 -1.94115 0
M  V30 8995 C 860.48 -0.517431 -3.43424 0
M  V30 8996 C 859.434 -1.52992 -3.99722 0
M  V30 8997 C 858.76 -0.933817 -5.26483 0
M  V30 8998 C 860.06 -2.91257 -4.33551 0
M  V30 8999 H 861.754 -1.89316 -2.31948 0
M  V30 9000 H 859.3 -0.911655 -1.11467 0
M  V30 9001 H 861.253 -0.343243 -4.2 0
M  V30 9002 H 859.977 0.441049 -3.23608 0
M  V30 9003 H 858.636 -1.6914 -3.2525 0
M  V30 9004 H 858.284 0.0324763 -5.0299 0
M  V30 9005 H 857.984 -1.60999 -5.65113 0
M  V30 9006 H 859.508 -0.770614 -6.05718 0
M  V30 9007 H 860.922 -2.78642 -5.0103 0
M  V30 9008 H 859.319 -3.55745 -4.83286 0
M  V30 9009 H 860.389 -3.43269 -3.42483 0
M  V30 9010 N 861.732 1.21287 -1.00634 0
M  V30 9011 C 862.664 2.2308 -0.526094 0
M  V30 9012 C 863.677 1.58157 0.386031 0
M  V30 9013 O 864.866 1.77528 0.186016 0
M  V30 9014 C 861.966 3.37937 0.255289 0
M  V30 9015 C 861.139 4.32449 -0.656236 0
M  V30 9016 C 860.198 5.26145 0.0757714 0
M  V30 9017 O 859.224 5.66601 -0.543325 0
M  V30 9018 N 860.426 5.6449 1.35391 0
M  V30 9019 H 863.191 2.64913 -1.40147 0
M  V30 9020 H 860.752 1.35724 -0.882641 0
M  V30 9021 H 862.744 3.97614 0.753977 0
M  V30 9022 H 861.314 2.95078 1.03187 0
M  V30 9023 H 860.534 3.70892 -1.3354 0
M  V30 9024 H 861.822 4.92526 -1.27653 0
M  V30 9025 H 861.22 5.33617 1.878 0
M  V30 9026 H 859.777 6.26524 1.79753 0
M  V30 9027 N 863.21 0.781244 1.36873 0
M  V30 9028 C 864.16 0.147313 2.27524 0
M  V30 9029 C 865.144 -0.663928 1.46563 0
M  V30 9030 O 866.336 -0.525343 1.69024 0
M  V30 9031 C 863.465 -0.723511 3.35589 0
M  V30 9032 C 862.551 0.0960763 4.23991 0
M  V30 9033 N 862.942 1.14649 4.92635 0
M  V30 9034 C 861.24 -0.126397 4.45821 0
M  V30 9035 C 861.941 1.64474 5.57964 0
M  V30 9036 N 860.917 0.955316 5.3514 0
M  V30 9037 H 864.719 0.951406 2.78075 0
M  V30 9038 H 862.233 0.619913 1.50103 0
M  V30 9039 H 864.23 -1.19351 3.99451 0
M  V30 9040 H 862.89 -1.52624 2.86594 0
M  V30 9041 H 863.901 1.5288 4.94821 0
M  V30 9042 H 860.578 -0.900284 4.07678 0
M  V30 9043 H 861.968 2.52124 6.22803 0
M  V30 9044 N 864.689 -1.48329 0.532571 0
M  V30 9045 C 866.105 -1.58458 0.190605 0
M  V30 9046 C 866.305 -1.53427 -1.30623 0
M  V30 9047 O 865.361 -1.4247 -2.08467 0
M  V30 9048 C 866.674 -2.89989 0.79543 0
M  V30 9049 C 868.222 -3.03523 0.7644 0
M  V30 9050 C 868.697 -4.37718 1.34785 0
M  V30 9051 N 870.188 -4.44292 1.30993 0
M  V30 9052 C 870.923 -5.4664 1.73124 0
M  V30 9053 N 870.419 -6.5593 2.22997 0
M  V30 9054 N 872.212 -5.37538 1.64346 0
M  V30 9055 H 864.363 -1.49842 1.50537 0
M  V30 9056 H 866.626 -0.71164 0.626316 0
M  V30 9057 H 866.332 -2.99333 1.84642 0
M  V30 9058 H 866.206 -3.76203 0.27403 0
M  V30 9059 H 868.593 -2.93789 -0.277831 0
M  V30 9060 H 868.674 -2.18912 1.3233 0
M  V30 9061 H 868.318 -4.48206 2.38902 0
M  V30 9062 H 868.248 -5.21019 0.764609 0
M  V30 9063 H 870.739 -3.65897 0.944868 0
M  V30 9064 H 871.052 -7.30167 2.53133 0
M  V30 9065 H 869.397 -6.56886 2.26992 0
M  V30 9066 H 872.588 -4.51052 1.25178 0
M  V30 9067 H 872.761 -6.17169 1.97501 0
M  V30 9068 N 866.167 -0.267825 -1.55308 0
M  V30 9069 C 867.077 0.633055 -2.25897 0
M  V30 9070 C 868.093 1.17613 -1.28231 0
M  V30 9071 O 869.269 1.20797 -1.61153 0
M  V30 9072 C 866.334 1.80397 -2.96071 0
M  V30 9073 C 865.395 1.29829 -4.09198 0
M  V30 9074 C 864.628 2.4134 -4.76016 0
M  V30 9075 O 864.851 3.60537 -4.42006 0
M  V30 9076 O 863.785 2.09909 -5.64111 0
M  V30 9077 H 867.611 0.0614381 -3.03638 0
M  V30 9078 H 865.196 -0.0355072 -1.49358 0
M  V30 9079 H 867.078 2.48685 -3.40197 0
M  V30 9080 H 865.753 2.36281 -2.21253 0
M  V30 9081 H 864.66 0.582086 -3.69544 0
M  V30 9082 H 865.993 0.785288 -4.85895 0
M  V30 9083 N 867.645 1.57599 0.00500368 0
M  V30 9084 C 868.592 2.08106 0.998025 0
M  V30 9085 C 869.562 0.975374 1.34446 0
M  V30 9086 O 870.747 1.24749 1.44369 0
M  V30 9087 C 867.887 2.58496 2.28635 0
M  V30 9088 C 867 3.82947 1.99939 0
M  V30 9089 C 866.135 4.21857 3.22816 0
M  V30 9090 C 865.174 5.39159 2.89783 0
M  V30 9091 N 864.311 5.73386 4.05183 0
M  V30 9092 H 869.151 2.92684 0.560385 0
M  V30 9093 H 866.688 1.44692 0.265053 0
M  V30 9094 H 868.646 2.85787 3.03943 0
M  V30 9095 H 867.276 1.768 2.70077 0
M  V30 9096 H 866.328 3.62594 1.1502 0
M  V30 9097 H 867.64 4.68358 1.71588 0
M  V30 9098 H 866.794 4.50404 4.06474 0
M  V30 9099 H 865.533 3.35145 3.54301 0
M  V30 9100 H 864.538 5.1034 2.04532 0
M  V30 9101 H 865.763 6.27543 2.59551 0
M  V30 9102 H 863.709 4.89632 4.36574 0
M  V30 9103 H 863.626 6.53359 3.80339 0
M  V30 9104 H 864.894 6.06522 4.89644 0
M  V30 9105 N 869.123 -0.277682 1.55134 0
M  V30 9106 C 870.053 -1.34742 1.90701 0
M  V30 9107 C 871.034 -1.51757 0.768354 0
M  V30 9108 O 872.219 -1.64879 1.02609 0
M  V30 9109 C 869.349 -2.70775 2.17481 0
M  V30 9110 C 868.303 -2.68497 3.33307 0
M  V30 9111 C 867.629 -4.08037 3.45557 0
M  V30 9112 C 868.929 -2.28178 4.69821 0
M  V30 9113 H 870.623 -1.05224 2.803 0
M  V30 9114 H 868.169 -0.504738 1.34864 0
M  V30 9115 H 870.122 -3.45719 2.40949 0
M  V30 9116 H 868.846 -3.01867 1.24676 0
M  V30 9117 H 867.505 -1.9601 3.09799 0
M  V30 9118 H 867.153 -4.36344 2.50226 0
M  V30 9119 H 866.853 -4.07409 4.23429 0
M  V30 9120 H 868.377 -4.84726 3.71312 0
M  V30 9121 H 869.791 -2.92843 4.92865 0
M  V30 9122 H 868.188 -2.3872 5.50575 0
M  V30 9123 H 869.258 -1.23308 4.6896 0
M  V30 9124 N 870.601 -1.47988 -0.541979 0
M  V30 9125 C 871.533 -1.5769 -1.66332 0
M  V30 9126 C 872.546 -0.461994 -1.56107 0
M  V30 9127 O 873.735 -0.732306 -1.62787 0
M  V30 9128 C 870.835 -1.47939 -3.04905 0
M  V30 9129 C 870.008 -2.74263 -3.40733 0
M  V30 9130 C 869.067 -2.58133 -4.58534 0
M  V30 9131 O 868.093 -3.31991 -4.62354 0
M  V30 9132 N 869.295 -1.6696 -5.55972 0
M  V30 9133 H 872.06 -2.54389 -1.5845 0
M  V30 9134 H 869.621 -1.4456 -0.728979 0
M  V30 9135 H 871.613 -1.34861 -3.81569 0
M  V30 9136 H 870.183 -0.592626 -3.06931 0
M  V30 9137 H 869.403 -3.01992 -2.53366 0
M  V30 9138 H 870.691 -3.58094 -3.6145 0
M  V30 9139 H 870.089 -1.06134 -5.55655 0
M  V30 9140 H 868.646 -1.59826 -6.31901 0
M  V30 9141 N 872.079 0.78992 -1.36375 0
M  V30 9142 C 872.989 1.93386 -1.32812 0
M  V30 9143 C 874.005 1.72468 -0.230377 0
M  V30 9144 O 875.181 1.96014 -0.462657 0
M  V30 9145 C 872.246 3.2824 -1.11621 0
M  V30 9146 C 871.307 3.61939 -2.30865 0
M  V30 9147 C 870.54 4.90359 -2.10675 0
M  V30 9148 O 870.763 5.6005 -1.08168 0
M  V30 9149 O 869.697 5.22702 -2.9844 0
M  V30 9150 H 873.523 1.99342 -2.29121 0
M  V30 9151 H 871.108 0.9301 -1.16917 0
M  V30 9152 H 872.99 4.08939 -1.01719 0
M  V30 9153 H 871.665 3.23178 -0.183732 0
M  V30 9154 H 870.572 2.81549 -2.46335 0
M  V30 9155 H 871.905 3.71725 -3.22617 0
M  V30 9156 N 873.557 1.20646 1.01402 0
M  V30 9157 C 874.489 0.915392 2.10127 0
M  V30 9158 C 875.502 -0.0978705 1.62506 0
M  V30 9159 O 876.691 0.133477 1.78 0
M  V30 9160 C 873.791 0.351304 3.37074 0
M  V30 9161 C 872.964 1.41673 4.13821 0
M  V30 9162 C 872.023 0.8635 5.19067 0
M  V30 9163 O 871.049 1.54481 5.47836 0
M  V30 9164 N 872.251 -0.325799 5.79585 0
M  V30 9165 H 875.016 1.85132 2.35682 0
M  V30 9166 H 872.577 1.11048 1.17813 0
M  V30 9167 H 874.569 -0.032996 4.04687 0
M  V30 9168 H 873.139 -0.489242 3.08748 0
M  V30 9169 H 872.359 1.97526 3.41141 0
M  V30 9170 H 873.647 2.1342 4.61876 0
M  V30 9171 H 873.045 -0.896534 5.58551 0
M  V30 9172 H 871.602 -0.651708 6.48534 0
M  V30 9173 N 875.035 -1.20752 1.01276 0
M  V30 9174 C 875.985 -2.21252 0.550602 0
M  V30 9175 C 876.969 -1.56052 -0.391985 0
M  V30 9176 O 878.161 -1.75682 -0.215575 0
M  V30 9177 C 875.29 -3.43112 -0.113601 0
M  V30 9178 C 874.376 -4.15485 0.850465 0
M  V30 9179 N 874.767 -4.64301 2.00643 0
M  V30 9180 C 873.065 -4.40932 0.670476 0
M  V30 9181 C 873.766 -5.197 2.61317 0
M  V30 9182 N 872.742 -5.09534 1.8941 0
M  V30 9183 H 876.544 -2.56657 1.43194 0
M  V30 9184 H 874.058 -1.36646 0.877597 0
M  V30 9185 H 876.055 -4.1433 -0.462211 0
M  V30 9186 H 874.715 -3.09213 -0.990825 0
M  V30 9187 H 875.726 -4.59637 2.38651 0
M  V30 9188 H 872.403 -4.17197 -0.159016 0
M  V30 9189 H 873.793 -5.67873 3.59123 0
M  V30 9190 N 876.513 -0.788492 -1.36457 0
M  V30 9191 C 877.924 -0.423742 -1.81828 0
M  V30 9192 C 878.275 1.05221 -1.65599 0
M  V30 9193 O 877.4 1.8163 -1.17641 0
M  V30 9194 C 877.995 -0.762354 -3.30112 0
M  V30 9195 C 876.554 -0.450445 -3.73695 0
M  V30 9196 C 875.701 -0.997482 -2.58738 0
M  V30 9197 H 878.652 -0.981718 -1.24692 0
M  V30 9198 H 878.673 -0.0531136 -3.80463 0
M  V30 9199 H 878.185 -1.83662 -3.41891 0
M  V30 9200 H 876.286 0.615829 -3.67476 0
M  V30 9201 H 876.399 -0.970408 -4.69169 0
M  V30 9202 H 874.763 -0.420761 -2.51201 0
M  V30 9203 H 875.546 -2.07749 -2.73304 0
M  V30 9204 N 877.991 1.48044 -0.54043 0
M  V30 9205 C 879.268 1.95523 0.0547302 0
M  V30 9206 C 879.648 1.48284 1.5025 0
M  V30 9207 O 878.996 0.714037 2.17057 0
M  V30 9208 C 879.206 3.48923 -0.0733393 0
M  V30 9209 C 880.554 4.24523 0.0806026 0
M  V30 9210 O 881.578 3.562 -5.58687e-05 0
M  V30 9211 O 880.437 5.45922 0.251216 0
M  V30 9212 H 877.531 0.823728 0.073493 0
M  V30 9213 H 880.077 1.5852 -0.605768 0
M  V30 9214 H 878.849 3.76059 -1.08144 0
M  V30 9215 H 878.472 3.92648 0.625536 0
M  V30 9216 N 879.47 0.276058 1.55163 0
M  V30 9217 C 880.718 -0.339782 1.99223 0
M  V30 9218 C 881.039 -1.56307 1.16589 0
M  V30 9219 O 880.309 -1.94225 0.25564 0
M  V30 9220 H 878.889 -0.128534 0.735859 0
M  V30 9221 H 881.551 0.381612 1.91128 0
M  V30 9222 H 880.647 -0.629 3.05696 0
M  V30 9223 N 880.948 -1.576 0.00335426 0
M  V30 9224 C 881.896 -2.09759 -1.00517 0
M  V30 9225 C 882.89 -1.01833 -1.35375 0
M  V30 9226 O 884.096 -1.20294 -1.339 0
M  V30 9227 H 880.471 -0.669821 -0.341825 0
M  V30 9228 H 882.442 -2.93478 -0.539718 0
M  V30 9229 C 881.191 -2.6189 -2.28711 0
M  V30 9230 H 880.514 -3.44571 -2.02758 0
M  V30 9231 H 881.954 -3.02061 -2.97548 0
M  V30 9232 C 880.413 -1.53455 -2.99922 0
M  V30 9233 O 880.943 -0.919402 -3.91037 0
M  V30 9234 N 879.149 -1.2612 -2.61806 0
M  V30 9235 H 878.696 -1.76329 -1.87792 0
M  V30 9236 H 878.654 -0.537872 -3.09765 0
M  V30 9237 N 882.426 0.269451 -1.5528 0
M  V30 9238 C 883.673 1.00058 -1.76053 0
M  V30 9239 C 884.001 1.86156 -0.563592 0
M  V30 9240 O 883.256 1.90366 0.453806 0
M  V30 9241 C 883.555 1.91 -3.02082 0
M  V30 9242 C 883.221 1.20623 -4.34466 0
M  V30 9243 C 881.883 1.01165 -4.70446 0
M  V30 9244 C 884.235 0.705695 -5.164 0
M  V30 9245 C 881.563 0.303865 -5.85913 0
M  V30 9246 C 883.915 0.0114838 -6.32599 0
M  V30 9247 C 882.579 -0.19478 -6.67216 0
M  V30 9248 H 881.849 0.366138 -0.644223 0
M  V30 9249 H 884.496 0.272563 -1.8955 0
M  V30 9250 H 882.801 2.70435 -2.835 0
M  V30 9251 H 884.498 2.47698 -3.15352 0
M  V30 9252 H 881.088 1.36781 -4.06188 0
M  V30 9253 H 885.272 0.84364 -4.89077 0
M  V30 9254 H 880.528 0.133368 -6.11255 0
M  V30 9255 H 884.702 -0.384111 -6.9534 0
M  V30 9256 H 882.329 -0.745201 -7.56539 0
M  V30 9257 N 883.904 1.48273 0.534124 0
M  V30 9258 C 885.152 1.55771 1.28762 0
M  V30 9259 C 885.473 0.231575 1.9362 0
M  V30 9260 O 884.743 -0.746533 1.81118 0
M  V30 9261 H 883.323 0.573851 0.47823 0
M  V30 9262 H 885.985 1.84712 0.621888 0
M  V30 9263 H 885.081 2.33657 2.06908 0
M  V30 9264 N 885.382 -0.782676 1.36792 0
M  V30 9265 C 886.345 -1.8772 1.31507 0
M  V30 9266 C 887.345 -1.59269 0.221349 0
M  V30 9267 O 888.535 -1.67555 0.476544 0
M  V30 9268 C 885.667 -3.24641 1.04025 0
M  V30 9269 H 886.86 -1.9382 2.28853 0
M  V30 9270 H 884.413 -0.981226 1.21662 0
M  V30 9271 H 885.148 -3.24221 0.0716439 0
M  V30 9272 H 884.933 -3.46681 1.8318 0
M  V30 9273 H 886.423 -4.04711 1.02949 0
M  V30 9274 N 886.86 -1.21182 -1.00761 0
M  V30 9275 C 887.793 -0.912033 -2.09182 0
M  V30 9276 C 888.771 0.139421 -1.62001 0
M  V30 9277 O 889.955 0.0110272 -1.88497 0
M  V30 9278 C 887.082 -0.368957 -3.36684 0
M  V30 9279 C 886.128 -1.4028 -4.0277 0
M  V30 9280 S 886.961 -2.97108 -4.45519 0
M  V30 9281 C 888.117 -2.444 -5.76211 0
M  V30 9282 H 888.35 -1.83019 -2.34289 0
M  V30 9283 H 885.883 -1.04127 -1.14004 0
M  V30 9284 H 887.841 -0.0621883 -4.10453 0
M  V30 9285 H 886.502 0.527841 -3.09633 0
M  V30 9286 H 885.695 -0.97238 -4.94531 0
M  V30 9287 H 885.297 -1.65752 -3.35265 0
M  V30 9288 H 887.589 -1.84723 -6.51831 0
M  V30 9289 H 888.532 -3.34593 -6.24062 0
M  V30 9290 H 888.94 -1.86203 -5.32906 0
M  V30 9291 N 888.338 1.20213 -1.01915 0
M  V30 9292 C 889.584 1.90203 -0.720724 0
M  V30 9293 C 889.939 1.77526 0.74178 0
M  V30 9294 O 889.232 1.15037 1.53222 0
M  V30 9295 C 889.426 3.40232 -1.09438 0
M  V30 9296 C 889.255 3.67509 -2.59167 0
M  V30 9297 C 888.025 3.86082 -3.25989 0
M  V30 9298 C 890.223 3.69863 -3.5736 0
M  V30 9299 N 888.205 4.009 -4.64922 0
M  V30 9300 C 889.576 3.90136 -4.81865 0
M  V30 9301 C 891.631 3.52839 -3.51296 0
M  V30 9302 C 890.334 3.9515 -6.0104 0
M  V30 9303 C 892.36 3.59125 -4.69875 0
M  V30 9304 C 891.722 3.79874 -5.93191 0
M  V30 9305 H 887.821 0.715556 -0.315442 0
M  V30 9306 H 890.405 1.44538 -1.30449 0
M  V30 9307 H 888.576 3.84643 -0.538933 0
M  V30 9308 H 890.308 3.97704 -0.74923 0
M  V30 9309 H 887.063 3.84569 -2.76413 0
M  V30 9310 H 887.487 4.12181 -5.37062 0
M  V30 9311 H 892.129 3.35762 -2.56951 0
M  V30 9312 H 889.847 4.11022 -6.95763 0
M  V30 9313 H 893.433 3.47257 -4.66802 0
M  V30 9314 H 892.313 3.846 -6.83412 0
M  V30 9315 N 889.816 0.795718 1.36037 0
M  V30 9316 C 890.746 0.212803 2.32528 0
M  V30 9317 C 891.727 -0.655716 1.56953 0
M  V30 9318 O 892.912 -0.588238 1.85077 0
M  V30 9319 C 890.042 -0.648189 3.41198 0
M  V30 9320 C 888.996 0.120948 4.27829 0
M  V30 9321 C 888.322 -0.861044 5.27722 0
M  V30 9322 C 889.622 1.31375 5.05508 0
M  V30 9323 H 891.316 1.01893 2.81528 0
M  V30 9324 H 888.862 0.491422 1.35355 0
M  V30 9325 H 890.815 -1.06597 4.07695 0
M  V30 9326 H 889.539 -1.48709 2.9078 0
M  V30 9327 H 888.198 0.519777 3.62897 0
M  V30 9328 H 887.846 -1.69515 4.73575 0
M  V30 9329 H 887.546 -0.350808 5.86552 0
M  V30 9330 H 889.07 -1.27726 5.97092 0
M  V30 9331 H 890.484 0.971406 5.6501 0
M  V30 9332 H 888.881 1.75772 5.73781 0
M  V30 9333 H 889.951 2.10593 4.36782 0
M  V30 9334 N 891.294 -1.47756 0.548274 0
M  V30 9335 C 892.541 -2.02489 0.0208955 0
M  V30 9336 C 892.869 -1.42356 -1.32533 0
M  V30 9337 O 892.124 -0.565448 -1.87353 0
M  V30 9338 C 892.423 -3.5716 -0.131069 0
M  V30 9339 C 892.089 -4.36169 1.14313 0
M  V30 9340 C 890.751 -4.57476 1.4923 0
M  V30 9341 C 893.103 -4.81801 1.9879 0
M  V30 9342 C 890.431 -5.21662 2.68487 0
M  V30 9343 C 892.783 -5.47303 3.17242 0
M  V30 9344 C 891.447 -5.66844 3.52483 0
M  V30 9345 H 890.717 -0.740961 0.00764621 0
M  V30 9346 H 893.364 -1.77531 0.717987 0
M  V30 9347 H 891.669 -3.8106 -0.911063 0
M  V30 9348 H 893.366 -3.9715 -0.55433 0
M  V30 9349 H 889.956 -4.19858 0.861235 0
M  V30 9350 H 894.14 -4.65126 1.73123 0
M  V30 9351 H 889.396 -5.34987 2.95971 0
M  V30 9352 H 893.57 -5.81626 3.82994 0
M  V30 9353 H 891.197 -6.16352 4.44988 0
M  V30 9354 N 892.772 -0.284283 -1.55015 0
M  V30 9355 C 894.019 0.329864 -1.99795 0
M  V30 9356 C 894.347 1.55171 -1.1727 0
M  V30 9357 O 893.602 1.94312 -0.232667 0
M  V30 9358 C 893.901 0.747219 -3.49502 0
M  V30 9359 C 893.567 -0.37101 -4.49371 0
M  V30 9360 C 892.229 -0.678034 -4.76399 0
M  V30 9361 C 894.581 -1.12406 -5.08935 0
M  V30 9362 C 891.909 -1.74152 -5.60257 0
M  V30 9363 C 894.261 -2.17734 -5.93948 0
M  V30 9364 C 892.925 -2.49061 -6.19294 0
M  V30 9365 H 892.195 0.120706 -0.731103 0
M  V30 9366 H 894.842 -0.399904 -1.87278 0
M  V30 9367 H 893.147 1.55681 -3.59542 0
M  V30 9368 H 894.844 1.2333 -3.81563 0
M  V30 9369 H 891.434 -0.1216 -4.28427 0
M  V30 9370 H 895.618 -0.900119 -4.88069 0
M  V30 9371 H 890.874 -1.98915 -5.78137 0
M  V30 9372 H 895.048 -2.76553 -6.39133 0
M  V30 9373 H 892.675 -3.31602 -6.84064 0
M  V30 9374 N 894.251 1.57596 -0.0117121 0
M  V30 9375 C 895.499 1.90694 0.669342 0
M  V30 9376 C 895.82 0.886999 1.73659 0
M  V30 9377 O 895.09 -0.0739779 1.9576 0
M  V30 9378 H 893.67 0.703846 0.250219 0
M  V30 9379 H 896.332 1.94821 -0.0554057 0
M  V30 9380 H 895.428 2.90802 1.13316 0
M  V30 9381 N 895.729 -0.261212 1.5542 0
M  V30 9382 C 896.969 -0.998748 1.78338 0
M  V30 9383 C 897.333 -1.83064 0.578914 0
M  V30 9384 O 898.534 -2.59884 0.686575 0
M  V30 9385 C 896.805 -1.84828 3.05898 0
M  V30 9386 S 898.364 -2.64686 3.49981 0
M  V30 9387 H 895.182 -0.33619 0.626496 0
M  V30 9388 H 897.784 -0.26799 1.93655 0
M  V30 9389 H 896.488 -1.22658 3.91642 0
M  V30 9390 H 896.019 -2.62203 2.9328 0
M  V30 9391 H 898.034 -3.87299 3.10184 0
M  V30 9392 N 897.207 -1.48554 -0.526253 0
M  V30 9393 C 898.623 -1.34757 -0.855138 0
M  V30 9394 C 898.823 -0.36142 -1.98232 0
M  V30 9395 O 897.879 0.216026 -2.51574 0
M  V30 9396 C 899.192 -2.74877 -1.21915 0
M  V30 9397 C 900.74 -2.83393 -1.32882 0
M  V30 9398 C 901.215 -4.24223 -1.72624 0
M  V30 9399 N 902.706 -4.26913 -1.7972 0
M  V30 9400 C 903.441 -5.32824 -2.11863 0
M  V30 9401 N 902.937 -6.49008 -2.42405 0
M  V30 9402 N 904.73 -5.20221 -2.12901 0
M  V30 9403 H 896.881 -2.11284 0.217422 0
M  V30 9404 H 899.144 -0.947367 0.0346362 0
M  V30 9405 H 898.85 -3.48619 -0.464486 0
M  V30 9406 H 898.724 -3.0864 -2.16844 0
M  V30 9407 H 901.111 -2.09904 -2.07424 0
M  V30 9408 H 901.192 -2.53245 -0.360638 0
M  V30 9409 H 900.836 -4.98229 -0.986411 0
M  V30 9410 H 900.766 -4.51817 -2.70498 0
M  V30 9411 H 903.257 -3.4311 -1.58379 0
M  V30 9412 H 903.57 -7.25561 -2.66048 0
M  V30 9413 H 901.915 -6.52277 -2.39917 0
M  V30 9414 H 905.106 -4.28469 -1.885 0
M  V30 9415 H 905.279 -6.02861 -2.37619 0
M  V30 9416 N 898.685 0.775411 -1.37205 0
M  V30 9417 C 899.635 1.87867 -1.29189 0
M  V30 9418 C 900.619 1.59885 -0.180466 0
M  V30 9419 O 901.811 1.72077 -0.414536 0
M  V30 9420 C 898.94 3.25285 -1.09748 0
M  V30 9421 C 898.026 3.59231 -2.25419 0
M  V30 9422 N 898.417 3.64386 -3.50795 0
M  V30 9423 C 896.715 3.89375 -2.17492 0
M  V30 9424 C 897.416 3.94974 -4.27048 0
M  V30 9425 N 896.392 4.10684 -3.56146 0
M  V30 9426 H 900.194 1.90099 -2.24142 0
M  V30 9427 H 897.708 0.971667 -1.30125 0
M  V30 9428 H 899.705 4.04207 -1.02091 0
M  V30 9429 H 898.365 3.2432 -0.157083 0
M  V30 9430 H 899.376 3.46682 -3.8475 0
M  V30 9431 H 896.053 3.96254 -1.31489 0
M  V30 9432 H 897.443 4.05768 -5.35539 0
M  V30 9433 N 900.163 1.21714 1.00117 0
M  V30 9434 C 901.11 0.979837 2.08968 0
M  V30 9435 C 902.08 -0.0955324 1.65825 0
M  V30 9436 O 903.265 0.0523742 1.90728 0
M  V30 9437 C 900.405 0.554758 3.40612 0
M  V30 9438 C 899.518 1.69999 3.97145 0
M  V30 9439 C 898.653 1.2237 5.16913 0
M  V30 9440 C 897.692 2.34101 5.65564 0
M  V30 9441 N 896.829 1.87579 6.76579 0
M  V30 9442 H 901.669 1.91167 2.28602 0
M  V30 9443 H 899.206 0.952645 1.12085 0
M  V30 9444 H 901.164 0.289526 4.16194 0
M  V30 9445 H 899.794 -0.340073 3.21004 0
M  V30 9446 H 898.846 2.07976 3.18512 0
M  V30 9447 H 900.158 2.54074 4.29241 0
M  V30 9448 H 899.312 0.915358 5.99755 0
M  V30 9449 H 898.051 0.353045 4.8642 0
M  V30 9450 H 897.056 2.65734 4.81316 0
M  V30 9451 H 898.281 3.21669 5.98085 0
M  V30 9452 H 896.227 1.02863 6.47885 0
M  V30 9453 H 896.144 2.65225 7.07949 0
M  V30 9454 H 897.412 1.5979 7.62947 0
M  V30 9455 N 901.641 -1.19671 1.02551 0
M  V30 9456 C 902.918 -1.85014 0.634771 0
M  V30 9457 C 903.298 -1.91574 -0.886706 0
M  V30 9458 O 902.646 -1.43022 -1.78205 0
M  V30 9459 C 902.856 -3.24167 1.29292 0
M  V30 9460 C 904.204 -4.00363 1.41402 0
M  V30 9461 O 905.228 -3.33553 1.24983 0
M  V30 9462 O 904.087 -5.2003 1.6802 0
M  V30 9463 H 901.181 -0.797147 0.220196 0
M  V30 9464 H 903.727 -1.27188 1.12345 0
M  V30 9465 H 902.499 -3.14208 2.33215 0
M  V30 9466 H 902.122 -3.89634 0.791895 0
M  V30 9467 N 903.119 -0.802921 -1.35613 0
M  V30 9468 C 904.535 -0.486214 -1.52014 0
M  V30 9469 C 904.735 0.993219 -1.75321 0
M  V30 9470 O 903.791 1.77835 -1.79251 0
M  V30 9471 C 905.104 -1.32839 -2.69767 0
M  V30 9472 C 906.652 -1.32346 -2.83643 0
M  V30 9473 C 907.127 -2.14967 -4.04417 0
M  V30 9474 N 908.618 -2.12484 -4.11588 0
M  V30 9475 C 909.353 -2.73173 -5.04147 0
M  V30 9476 N 908.849 -3.42774 -6.02061 0
M  V30 9477 N 910.642 -2.62834 -4.96865 0
M  V30 9478 H 902.793 -1.76109 -1.18741 0
M  V30 9479 H 905.056 -0.74936 -0.580658 0
M  V30 9480 H 904.762 -2.37813 -2.5911 0
M  V30 9481 H 904.636 -0.979058 -3.64272 0
M  V30 9482 H 907.023 -0.281586 -2.93753 0
M  V30 9483 H 907.104 -1.71264 -1.90006 0
M  V30 9484 H 906.748 -3.19193 -3.95068 0
M  V30 9485 H 906.678 -1.73411 -4.97228 0
M  V30 9486 H 909.169 -1.61839 -3.41492 0
M  V30 9487 H 909.482 -3.86378 -6.69277 0
M  V30 9488 H 907.827 -3.46878 -6.02246 0
M  V30 9489 H 911.018 -2.08049 -4.19325 0
M  V30 9490 H 911.191 -3.10421 -5.68808 0
M  V30 9491 N 904.597 1.47463 -0.556102 0
M  V30 9492 C 905.874 1.9557 0.0339892 0
M  V30 9493 C 906.254 1.49869 1.48669 0
M  V30 9494 O 905.602 0.737019 2.16288 0
M  V30 9495 C 905.812 3.48826 -0.110343 0
M  V30 9496 C 907.16 4.24585 0.0355716 0
M  V30 9497 O 908.184 3.5618 -0.0378356 0
M  V30 9498 O 907.043 5.46158 0.193299 0
M  V30 9499 H 904.137 0.824461 0.0647521 0
M  V30 9500 H 906.683 1.57868 -0.622547 0
M  V30 9501 H 905.455 3.74891 -1.12126 0
M  V30 9502 H 905.078 3.9329 0.583855 0
M  V30 9503 N 906.075 0.2925 1.54862 0
M  V30 9504 C 907.305 -0.321646 2.04081 0
M  V30 9505 C 907.713 -1.48712 1.16967 0
M  V30 9506 O 907.056 -1.82755 0.18609 0
M  V30 9507 C 907.118 -0.848678 3.49339 0
M  V30 9508 C 906.782 0.190416 4.56603 0
M  V30 9509 C 907.779 1.01595 5.09877 0
M  V30 9510 C 905.464 0.329666 5.01217 0
M  V30 9511 C 907.458 1.96676 6.06298 0
M  V30 9512 C 905.145 1.28393 5.9746 0
M  V30 9513 C 906.143 2.10097 6.49883 0
M  V30 9514 O 905.831 3.03907 7.44242 0
M  V30 9515 H 905.563 -0.075098 0.671816 0
M  V30 9516 H 908.117 0.427531 2.00901 0
M  V30 9517 H 906.347 -1.64823 3.49815 0
M  V30 9518 H 908.036 -1.37779 3.81801 0
M  V30 9519 H 908.802 0.919197 4.7621 0
M  V30 9520 H 904.681 -0.296317 4.60047 0
M  V30 9521 H 908.225 2.60488 6.47141 0
M  V30 9522 H 904.122 1.38144 6.30545 0
M  V30 9523 H 904.89 2.98787 7.62016 0
M  V30 9524 N 907.553 -1.57587 0.0200696 0
M  V30 9525 C 908.483 -2.12702 -0.963333 0
M  V30 9526 C 909.464 -1.04094 -1.34531 0
M  V30 9527 O 910.649 -1.31881 -1.42552 0
M  V30 9528 C 907.779 -2.64673 -2.24868 0
M  V30 9529 C 906.733 -3.77987 -2.00772 0
M  V30 9530 C 906.059 -4.16351 -3.35494 0
M  V30 9531 C 907.359 -5.0444 -1.35416 0
M  V30 9532 H 909.053 -2.95121 -0.504363 0
M  V30 9533 H 906.599 -1.41966 -0.24116 0
M  V30 9534 H 908.552 -3.01862 -2.94036 0
M  V30 9535 H 907.276 -1.79403 -2.72914 0
M  V30 9536 H 905.935 -3.41223 -1.34025 0
M  V30 9537 H 905.583 -3.28075 -3.81282 0
M  V30 9538 H 905.283 -4.92705 -3.20181 0
M  V30 9539 H 906.807 -4.56115 -4.05945 0
M  V30 9540 H 908.221 -5.39273 -1.94571 0
M  V30 9541 H 906.618 -5.85732 -1.30529 0
M  V30 9542 H 907.688 -4.83803 -0.325923 0
M  V30 9543 N 909.032 0.252966 -1.55557 0
M  V30 9544 C 910.279 0.981852 -1.77104 0
M  V30 9545 C 910.607 1.85547 -0.583305 0
M  V30 9546 O 909.862 1.90836 0.43359 0
M  V30 9547 C 910.161 1.87785 -3.04091 0
M  V30 9548 C 909.827 1.16009 -4.35721 0
M  V30 9549 C 908.489 0.961697 -4.71492 0
M  V30 9550 C 910.841 0.650884 -5.1712 0
M  V30 9551 C 908.169 0.241704 -5.86202 0
M  V30 9552 C 910.521 -0.0556124 -6.32576 0
M  V30 9553 C 909.185 -0.265536 -6.66972 0
M  V30 9554 H 908.455 0.359285 -0.64807 0
M  V30 9555 H 911.102 0.252443 -1.89829 0
M  V30 9556 H 909.407 2.67412 -2.86353 0
M  V30 9557 H 911.104 2.44339 -3.17961 0
M  V30 9558 H 907.694 1.32465 -4.07616 0
M  V30 9559 H 911.878 0.791719 -4.89944 0
M  V30 9560 H 907.134 0.0685292 -6.11362 0
M  V30 9561 H 911.308 -0.457839 -6.94893 0
M  V30 9562 H 908.935 -0.8254 -7.55706 0
M  V30 9563 N 910.51 1.48831 0.518367 0
M  V30 9564 C 911.926 1.35209 0.847979 0
M  V30 9565 C 912.126 0.371927 1.98038 0
M  V30 9566 O 911.182 -0.202681 2.51685 0
M  V30 9567 C 912.495 2.7552 1.20455 0
M  V30 9568 C 914.043 2.84094 1.31377 0
M  V30 9569 C 914.518 4.25132 1.70372 0
M  V30 9570 N 916.009 4.27861 1.77453 0
M  V30 9571 C 916.744 5.3394 2.09035 0
M  V30 9572 N 916.24 6.50285 2.3896 0
M  V30 9573 N 918.033 5.21343 2.10139 0
M  V30 9574 H 910.184 2.11166 -0.228624 0
M  V30 9575 H 912.447 0.94717 -0.0396599 0
M  V30 9576 H 912.153 3.48861 0.445991 0
M  V30 9577 H 912.027 3.09785 2.15204 0
M  V30 9578 H 914.414 2.11001 2.06307 0
M  V30 9579 H 914.495 2.53433 0.347203 0
M  V30 9580 H 914.139 4.98745 0.959975 0
M  V30 9581 H 914.069 4.53245 2.68098 0
M  V30 9582 H 916.56 3.43945 1.56557 0
M  V30 9583 H 916.873 7.26961 2.62196 0
M  V30 9584 H 915.218 6.5354 2.36454 0
M  V30 9585 H 918.409 4.29462 1.86225 0
M  V30 9586 H 918.582 6.04112 2.34419 0
M  V30 9587 N 911.988 -0.768124 1.37614 0
M  V30 9588 C 912.935 -1.88151 1.33671 0
M  V30 9589 C 913.905 -1.64871 0.201645 0
M  V30 9590 O 915.09 -1.86739 0.391582 0
M  V30 9591 C 912.23 -3.25264 1.15314 0
M  V30 9592 C 911.343 -3.60473 2.38082 0
M  V30 9593 C 910.478 -4.86814 2.12569 0
M  V30 9594 C 909.517 -5.14765 3.31184 0
M  V30 9595 N 908.654 -6.32295 3.052 0
M  V30 9596 H 913.494 -1.90857 2.28862 0
M  V30 9597 H 911.031 -0.933048 1.13722 0
M  V30 9598 H 912.989 -4.04364 1.02691 0
M  V30 9599 H 911.619 -3.21924 0.237689 0
M  V30 9600 H 910.671 -2.7633 2.61431 0
M  V30 9601 H 911.983 -3.77065 3.26532 0
M  V30 9602 H 911.137 -5.73826 1.96999 0
M  V30 9603 H 909.876 -4.72333 1.21462 0
M  V30 9604 H 908.881 -4.26227 3.4729 0
M  V30 9605 H 910.106 -5.31153 4.23147 0
M  V30 9606 H 908.052 -6.19166 2.16726 0
M  V30 9607 H 907.969 -6.4932 3.87195 0
M  V30 9608 H 909.237 -7.22234 2.93254 0
M  V30 9609 N 913.466 -1.22244 -0.994698 0
M  V30 9610 C 914.376 -1.00722 -2.11878 0
M  V30 9611 C 915.392 0.043919 -1.73945 0
M  V30 9612 O 916.568 -0.148411 -2.00852 0
M  V30 9613 C 913.633 -0.585723 -3.41717 0
M  V30 9614 C 912.694 -1.71027 -3.93762 0
M  V30 9615 C 911.927 -1.30879 -5.17403 0
M  V30 9616 O 912.15 -0.18681 -5.70094 0
M  V30 9617 O 911.084 -2.1246 -5.63156 0
M  V30 9618 H 914.91 -1.94894 -2.32916 0
M  V30 9619 H 912.495 -1.00822 -1.10251 0
M  V30 9620 H 914.377 -0.360935 -4.19851 0
M  V30 9621 H 913.052 0.327166 -3.22042 0
M  V30 9622 H 911.959 -1.98956 -3.16808 0
M  V30 9623 H 913.292 -2.60096 -4.17865 0
M  V30 9624 N 914.944 1.19125 -1.03184 0
M  V30 9625 C 915.874 2.24675 -0.635889 0
M  V30 9626 C 916.855 1.66321 0.356565 0
M  V30 9627 O 918.04 1.92728 0.238625 0
M  V30 9628 C 915.17 3.47298 0.011069 0
M  V30 9629 C 914.124 4.18345 -0.903979 0
M  V30 9630 C 913.45 5.34561 -0.12197 0
M  V30 9631 C 914.75 4.72816 -2.21907 0
M  V30 9632 H 916.444 2.5805 -1.51825 0
M  V30 9633 H 913.99 1.24039 -0.73146 0
M  V30 9634 H 915.943 4.20333 0.299729 0
M  V30 9635 H 914.667 3.13131 0.928245 0
M  V30 9636 H 913.326 3.47196 -1.17688 0
M  V30 9637 H 912.974 4.9664 0.797334 0
M  V30 9638 H 912.674 5.83029 -0.731498 0
M  V30 9639 H 914.198 6.10391 0.159881 0
M  V30 9640 H 915.612 5.3759 -1.99173 0
M  V30 9641 H 914.009 5.31782 -2.78078 0
M  V30 9642 H 915.079 3.9072 -2.87168 0
M  V30 9643 N 916.422 0.810101 1.35185 0
M  V30 9644 C 917.838 0.494269 1.51754 0
M  V30 9645 C 918.038 -0.983907 1.75845 0
M  V30 9646 O 917.094 -1.76882 1.80191 0
M  V30 9647 C 918.407 1.34268 2.69059 0
M  V30 9648 C 919.955 1.33848 2.82938 0
M  V30 9649 C 920.43 2.17109 4.03271 0
M  V30 9650 N 921.921 2.14664 4.10456 0
M  V30 9651 C 922.656 2.75843 5.02691 0
M  V30 9652 N 922.152 3.45962 6.00235 0
M  V30 9653 N 923.945 2.65465 4.95464 0
M  V30 9654 H 916.096 1.76736 1.17805 0
M  V30 9655 H 918.359 0.752429 0.576676 0
M  V30 9656 H 918.065 2.39183 2.57845 0
M  V30 9657 H 917.939 0.998362 3.63748 0
M  V30 9658 H 920.326 0.29716 2.936 0
M  V30 9659 H 920.407 1.72269 1.89095 0
M  V30 9660 H 920.051 3.21283 3.93369 0
M  V30 9661 H 919.981 1.76046 4.96302 0
M  V30 9662 H 922.472 1.63648 3.40628 0
M  V30 9663 H 922.785 3.89922 6.67219 0
M  V30 9664 H 921.13 3.50067 6.00398 0
M  V30 9665 H 924.321 2.1027 4.18215 0
M  V30 9666 H 924.494 3.13433 5.67154 0
M  V30 9667 N 917.9 -1.47166 0.563914 0
M  V30 9668 C 918.85 -2.27116 -0.20055 0
M  V30 9669 C 919.834 -1.34756 -0.879177 0
M  V30 9670 O 921.026 -1.59064 -0.776377 0
M  V30 9671 C 918.155 -3.20676 -1.22565 0
M  V30 9672 C 917.241 -4.20517 -0.550092 0
M  V30 9673 N 917.632 -5.04343 0.383662 0
M  V30 9674 C 915.93 -4.38708 -0.803186 0
M  V30 9675 C 916.631 -5.76491 0.776718 0
M  V30 9676 N 915.607 -5.43444 0.130047 0
M  V30 9677 H 919.409 -2.89312 0.517275 0
M  V30 9678 H 916.923 -1.57787 0.384334 0
M  V30 9679 H 918.92 -3.76643 -1.78733 0
M  V30 9680 H 917.58 -2.60038 -1.94449 0
M  V30 9681 H 918.591 -5.1232 0.758192 0
M  V30 9682 H 915.268 -3.89235 -1.51003 0
M  V30 9683 H 916.658 -6.5391 1.54437 0
M  V30 9684 N 919.378 -0.300708 -1.54705 0
M  V30 9685 C 920.625 0.308654 -2.00134 0
M  V30 9686 C 920.953 1.53918 -1.1891 0
M  V30 9687 O 920.208 1.94054 -0.253263 0
M  V30 9688 C 920.507 0.710108 -3.50275 0
M  V30 9689 C 920.173 -0.418651 -4.48952 0
M  V30 9690 C 918.835 -0.728524 -4.75653 0
M  V30 9691 C 921.187 -1.17797 -5.07714 0
M  V30 9692 C 918.515 -1.80085 -5.58378 0
M  V30 9693 C 920.867 -2.24022 -5.91606 0
M  V30 9694 C 919.531 -2.55616 -6.16617 0
M  V30 9695 H 918.801 0.112945 -0.732342 0
M  V30 9696 H 921.448 -0.419744 -1.86843 0
M  V30 9697 H 919.753 1.51859 -3.61173 0
M  V30 9698 H 921.45 1.19277 -3.8285 0
M  V30 9699 H 918.04 -0.167034 -4.28274 0
M  V30 9700 H 922.224 -0.951835 -4.87087 0
M  V30 9701 H 917.48 -2.05036 -5.75995 0
M  V30 9702 H 921.654 -2.83317 -6.36164 0
M  V30 9703 H 919.281 -3.38839 -6.80509 0
M  V30 9704 N 920.856 1.57574 -0.0284266 0
M  V30 9705 C 921.786 2.1321 0.952039 0
M  V30 9706 C 922.767 1.04806 1.33977 0
M  V30 9707 O 923.952 1.32635 1.41851 0
M  V30 9708 C 921.082 2.65862 2.23461 0
M  V30 9709 C 920.036 3.79047 1.98765 0
M  V30 9710 C 919.362 4.18124 3.33281 0
M  V30 9711 C 920.662 5.05151 1.32739 0
M  V30 9712 H 922.356 2.95385 0.488705 0
M  V30 9713 H 919.902 1.42092 0.233628 0
M  V30 9714 H 921.855 3.03417 2.92431 0
M  V30 9715 H 920.579 1.80848 2.71959 0
M  V30 9716 H 919.238 3.41929 1.32213 0
M  V30 9717 H 918.886 3.30092 3.79537 0
M  V30 9718 H 918.586 4.94396 3.17563 0
M  V30 9719 H 920.11 4.58262 4.0352 0
M  V30 9720 H 921.524 5.40297 1.91708 0
M  V30 9721 H 919.921 5.86416 1.27421 0
M  V30 9722 H 920.991 4.83969 0.300261 0
M  V30 9723 N 922.334 -0.244713 1.55689 0
M  V30 9724 C 923.281 -1.30301 1.905 0
M  V30 9725 C 924.251 -1.4772 0.759478 0
M  V30 9726 O 925.436 -1.61667 1.01333 0
M  V30 9727 C 922.576 -2.653 2.20703 0
M  V30 9728 C 921.689 -2.55872 3.48071 0
M  V30 9729 C 920.824 -3.83238 3.67834 0
M  V30 9730 C 919.863 -3.68436 4.88796 0
M  V30 9731 N 919 -4.877 5.05068 0
M  V30 9732 H 923.84 -0.999143 2.80751 0
M  V30 9733 H 921.377 -0.482099 1.38976 0
M  V30 9734 H 923.335 -3.43884 2.36219 0
M  V30 9735 H 921.965 -2.93831 1.33653 0
M  V30 9736 H 921.017 -1.68846 3.40874 0
M  V30 9737 H 922.329 -2.40845 4.36801 0
M  V30 9738 H 921.483 -4.70266 3.83321 0
M  V30 9739 H 920.222 -4.01165 2.77341 0
M  V30 9740 H 919.227 -2.79793 4.73282 0
M  V30 9741 H 920.452 -3.52003 5.8075 0
M  V30 9742 H 918.398 -5.05983 4.17513 0
M  V30 9743 H 918.315 -4.75312 5.8789 0
M  V30 9744 H 919.583 -5.76219 5.24969 0
M  V30 9745 N 923.813 -1.49104 -0.510467 0
M  V30 9746 C 924.763 -1.6147 -1.6097 0
M  V30 9747 C 925.747 -0.470797 -1.53858 0
M  V30 9748 O 926.939 -0.723266 -1.61548 0
M  V30 9749 C 924.068 -1.67575 -2.99622 0
M  V30 9750 C 923.154 -2.87511 -3.11766 0
M  V30 9751 N 923.545 -4.11704 -2.93826 0
M  V30 9752 C 921.843 -2.85251 -3.42852 0
M  V30 9753 C 922.544 -4.92276 -3.09902 0
M  V30 9754 N 921.52 -4.2546 -3.38355 0
M  V30 9755 H 925.322 -2.5522 -1.45739 0
M  V30 9756 H 922.836 -1.45745 -0.716383 0
M  V30 9757 H 924.833 -1.74531 -3.78609 0
M  V30 9758 H 923.493 -0.749557 -3.1593 0
M  V30 9759 H 924.504 -4.41834 -2.70191 0
M  V30 9760 H 921.181 -2.0197 -3.65396 0
M  V30 9761 H 922.571 -6.00905 -3.00604 0
M  V30 9762 N 925.291 0.760815 -1.38019 0
M  V30 9763 C 926.539 1.51673 -1.33566 0
M  V30 9764 C 926.86 1.94852 0.076024 0
M  V30 9765 O 926.13 1.67112 1.02227 0
M  V30 9766 H 924.71 0.562581 -0.491438 0
M  V30 9767 H 927.372 0.904832 -1.72623 0
M  V30 9768 H 926.468 2.41102 -1.98182 0
M  V30 9769 N 926.769 1.22769 0.988202 0
M  V30 9770 C 928.018 1.0492 1.72263 0
M  V30 9771 C 928.331 -0.415282 1.91141 0
M  V30 9772 O 929.537 -0.713547 2.61956 0
M  V30 9773 C 927.993 1.82891 3.09966 0
M  V30 9774 C 927.601 3.33618 2.99003 0
M  V30 9775 C 929.345 1.73505 3.87423 0
M  V30 9776 C 927.252 4.04012 4.3189 0
M  V30 9777 H 926.182 0.38899 0.645912 0
M  V30 9778 H 928.833 1.46664 1.10281 0
M  V30 9779 H 927.215 1.33948 3.72658 0
M  V30 9780 H 928.389 3.8999 2.45448 0
M  V30 9781 H 926.704 3.43732 2.35027 0
M  V30 9782 H 929.301 2.23416 4.85787 0
M  V30 9783 H 929.644 0.696344 4.10435 0
M  V30 9784 H 930.177 2.20016 3.31418 0
M  V30 9785 H 926.916 5.08155 4.14075 0
M  V30 9786 H 926.436 3.52428 4.8534 0
M  V30 9787 H 928.115 4.0987 5.00615 0
M  V30 9788 N 928.247 -1.18576 1.03814 0
M  V30 9789 C 929.177 -2.24334 0.647795 0
M  V30 9790 C 930.158 -1.66508 -0.34774 0
M  V30 9791 O 931.343 -1.92852 -0.228401 0
M  V30 9792 C 928.473 -3.47299 0.00734922 0
M  V30 9793 C 927.427 -4.17859 0.926152 0
M  V30 9794 C 926.753 -5.34489 0.150317 0
M  V30 9795 C 928.053 -4.71632 2.24411 0
M  V30 9796 H 929.747 -2.57241 1.53191 0
M  V30 9797 H 927.293 -1.23649 0.738028 0
M  V30 9798 H 929.246 -4.20486 -0.277434 0
M  V30 9799 H 927.97 -3.13619 -0.911626 0
M  V30 9800 H 926.629 -3.46567 1.19528 0
M  V30 9801 H 926.277 -4.97056 -0.770985 0
M  V30 9802 H 925.977 -5.82633 0.762407 0
M  V30 9803 H 927.501 -6.10467 -0.127508 0
M  V30 9804 H 928.915 -5.36526 2.02021 0
M  V30 9805 H 927.312 -5.303 2.80894 0
M  V30 9806 H 928.382 -3.89192 2.89236 0
M  V30 9807 N 929.725 -0.817259 -1.34754 0
M  V30 9808 C 930.953 -0.415451 -2.02686 0
M  V30 9809 C 931.368 0.97688 -1.61563 0
M  V30 9810 O 930.725 1.63125 -0.818321 0
M  V30 9811 C 930.776 -0.501486 -3.58005 0
M  V30 9812 O 930.497 -1.83893 -3.97637 0
M  V30 9813 C 931.998 -0.0938504 -4.43201 0
M  V30 9814 H 929.218 -0.16742 -0.649778 0
M  V30 9815 H 931.762 -1.10384 -1.7215 0
M  V30 9816 H 929.917 0.138766 -3.87151 0
M  V30 9817 H 930.331 -1.8092 -4.92309 0
M  V30 9818 H 931.805 -0.205145 -5.51619 0
M  V30 9819 H 932.282 0.962011 -4.28535 0
M  V30 9820 H 932.888 -0.707677 -4.19371 0
M  V30 9821 N 931.203 1.46865 -0.571711 0
M  V30 9822 C 932.153 2.27219 0.188503 0
M  V30 9823 C 933.137 1.35221 0.872019 0
M  V30 9824 O 934.329 1.59474 0.76793 0
M  V30 9825 C 931.458 3.21321 1.20862 0
M  V30 9826 C 930.544 4.20803 0.527783 0
M  V30 9827 N 930.935 5.04132 -0.410403 0
M  V30 9828 C 929.233 4.39128 0.779909 0
M  V30 9829 C 929.934 5.76071 -0.80728 0
M  V30 9830 N 928.91 5.43368 -0.158865 0
M  V30 9831 H 932.712 2.89034 -0.532611 0
M  V30 9832 H 930.226 1.57581 -0.392696 0
M  V30 9833 H 932.223 3.77586 1.76733 0
M  V30 9834 H 930.883 2.61065 1.93067 0
M  V30 9835 H 931.894 5.11911 -0.785351 0
M  V30 9836 H 928.571 3.90031 1.48937 0
M  V30 9837 H 929.961 6.53082 -1.57903 0
M  V30 9838 N 932.681 0.308908 1.54543 0
M  V30 9839 C 933.611 -0.556657 2.26768 0
M  V30 9840 C 934.592 -1.13145 1.27013 0
M  V30 9841 O 935.777 -1.15931 1.558 0
M  V30 9842 C 932.907 -1.72481 3.01443 0
M  V30 9843 C 931.861 -1.28001 4.08411 0
M  V30 9844 C 931.187 -2.53395 4.70845 0
M  V30 9845 C 932.487 -0.405497 5.20724 0
M  V30 9846 H 934.181 0.0457618 2.99365 0
M  V30 9847 H 931.727 0.0234495 1.43981 0
M  V30 9848 H 933.68 -2.3365 3.50693 0
M  V30 9849 H 932.404 -2.35359 2.26437 0
M  V30 9850 H 931.063 -0.69133 3.60022 0
M  V30 9851 H 930.711 -3.14604 3.92471 0
M  V30 9852 H 930.411 -2.2433 5.43093 0
M  V30 9853 H 931.935 -3.15352 5.22863 0
M  V30 9854 H 933.349 -0.923076 5.6582 0
M  V30 9855 H 931.746 -0.208282 5.99738 0
M  V30 9856 H 932.816 0.567412 4.81569 0
M  V30 9857 N 934.159 -1.57557 0.0367827 0
M  V30 9858 C 935.106 -2.10679 -0.942499 0
M  V30 9859 C 936.076 -1.01068 -1.31812 0
M  V30 9860 O 937.261 -1.28533 -1.41011 0
M  V30 9861 C 934.401 -2.64467 -2.21701 0
M  V30 9862 C 933.514 -3.88114 -1.89715 0
M  V30 9863 C 932.649 -4.30268 -3.11518 0
M  V30 9864 C 931.688 -5.46652 -2.75387 0
M  V30 9865 N 930.825 -5.83927 -3.89838 0
M  V30 9866 H 935.665 -2.94066 -0.482588 0
M  V30 9867 H 933.202 -1.45344 -0.226597 0
M  V30 9868 H 935.16 -2.93745 -2.96259 0
M  V30 9869 H 933.79 -1.83898 -2.65295 0
M  V30 9870 H 932.842 -3.65516 -1.05366 0
M  V30 9871 H 934.154 -4.72743 -1.5911 0
M  V30 9872 H 933.308 -4.61023 -3.94389 0
M  V30 9873 H 932.047 -3.44421 -3.4529 0
M  V30 9874 H 931.052 -5.15583 -1.90929 0
M  V30 9875 H 932.277 -6.34204 -2.42822 0
M  V30 9876 H 930.223 -5.01035 -4.23438 0
M  V30 9877 H 930.14 -6.63214 -3.62883 0
M  V30 9878 H 931.408 -6.19291 -4.73391 0
M  V30 9879 N 935.637 0.236453 -1.55816 0
M  V30 9880 C 936.883 0.964439 -1.784 0
M  V30 9881 C 937.216 1.84573 -0.603868 0
M  V30 9882 O 936.491 1.90395 0.397473 0
M  V30 9883 C 936.774 1.81608 -3.10951 0
M  V30 9884 C 936.627 0.962283 -4.39386 0
M  V30 9885 C 937.946 2.79665 -3.39817 0
M  V30 9886 H 935.065 0.349192 -0.649026 0
M  V30 9887 H 937.707 0.234247 -1.8855 0
M  V30 9888 H 935.857 2.43864 -3.02428 0
M  V30 9889 H 937.529 0.35762 -4.59912 0
M  V30 9890 H 935.772 0.267062 -4.32977 0
M  V30 9891 H 936.443 1.59222 -5.28538 0
M  V30 9892 H 938.919 2.27546 -3.4837 0
M  V30 9893 H 937.795 3.36367 -4.33761 0
M  V30 9894 H 938.056 3.56657 -2.61244 0
M  V30 9895 N 937.115 1.49373 0.502552 0
M  V30 9896 C 938.34 1.62752 1.28556 0
M  V30 9897 C 938.765 0.298285 1.8572 0
M  V30 9898 O 938.123 -0.733885 1.65782 0
M  V30 9899 C 938.171 2.69778 2.39274 0
M  V30 9900 O 937.275 2.28843 3.43081 0
M  V30 9901 H 936.616 0.544799 0.379592 0
M  V30 9902 H 939.146 1.9555 0.601792 0
M  V30 9903 H 939.156 2.91899 2.8506 0
M  V30 9904 H 937.831 3.66266 1.97033 0
M  V30 9905 H 936.408 2.17047 3.03224 0
M  V30 9906 N 938.594 -0.753485 1.38421 0
M  V30 9907 C 939.841 -1.51261 1.34634 0
M  V30 9908 C 940.169 -1.94396 -0.0635771 0
M  V30 9909 O 939.424 -1.65736 -1.04068 0
M  V30 9910 C 939.723 -2.77836 2.24816 0
M  V30 9911 C 939.389 -2.53662 3.72782 0
M  V30 9912 C 938.051 -2.46779 4.13103 0
M  V30 9913 C 940.403 -2.32548 4.66445 0
M  V30 9914 C 937.731 -2.16796 5.45176 0
M  V30 9915 C 940.083 -2.04085 5.98775 0
M  V30 9916 C 938.747 -1.95658 6.3818 0
M  V30 9917 H 938.017 -0.553503 0.492661 0
M  V30 9918 H 940.664 -0.866406 1.7078 0
M  V30 9919 H 938.969 -3.47106 1.81726 0
M  V30 9920 H 940.666 -3.35793 2.19189 0
M  V30 9921 H 937.256 -2.59891 3.40815 0
M  V30 9922 H 941.44 -2.36845 4.3614 0
M  V30 9923 H 936.696 -2.0878 5.74648 0
M  V30 9924 H 940.87 -1.86751 6.70893 0
M  V30 9925 H 938.497 -1.7219 7.40442 0
M  V30 9926 N 940.072 -1.23292 -0.981677 0
M  V30 9927 C 941.297 -1.09176 -1.76339 0
M  V30 9928 C 941.722 0.352726 -1.84763 0
M  V30 9929 O 941.08 1.25509 -1.30832 0
M  V30 9930 C 941.128 -1.72046 -3.16911 0
M  V30 9931 O 940.232 -0.98174 -4.00544 0
M  V30 9932 H 939.573 -0.382755 -0.542581 0
M  V30 9933 H 942.103 -1.63319 -1.23239 0
M  V30 9934 H 942.113 -1.77232 -3.67495 0
M  V30 9935 H 940.788 -2.77154 -3.10095 0
M  V30 9936 H 939.365 -1.00672 -3.59054 0
M  V30 9937 N 941.55 1.18024 -1.04442 0
M  V30 9938 C 942.966 1.40107 -0.76435 0
M  V30 9939 C 943.166 1.90914 0.644516 0
M  V30 9940 O 942.222 2.0959 1.40813 0
M  V30 9941 C 943.535 2.39851 -1.81361 0
M  V30 9942 C 945.083 2.53571 -1.83496 0
M  V30 9943 C 945.558 3.56583 -2.87424 0
M  V30 9944 N 947.049 3.64094 -2.86339 0
M  V30 9945 C 947.784 4.43537 -3.63405 0
M  V30 9946 N 947.28 5.26557 -4.50233 0
M  V30 9947 N 949.073 4.38336 -3.51877 0
M  V30 9948 H 941.224 0.833726 -1.95353 0
M  V30 9949 H 943.487 0.42881 -0.845474 0
M  V30 9950 H 943.193 2.09576 -2.82438 0
M  V30 9951 H 943.067 3.39251 -1.6489 0
M  V30 9952 H 945.454 2.83161 -0.830883 0
M  V30 9953 H 945.535 1.54272 -2.04044 0
M  V30 9954 H 945.179 3.27733 -3.88012 0
M  V30 9955 H 945.109 4.55569 -2.6413 0
M  V30 9956 H 947.6 3.04814 -2.23376 0
M  V30 9957 H 947.913 5.84336 -5.05738 0
M  V30 9958 H 946.258 5.25964 -4.54298 0
M  V30 9959 H 949.449 3.72528 -2.83444 0
M  V30 9960 H 949.622 5.00007 -4.12186 0
M  V30 9961 N 943.028 0.824394 1.34319 0
M  V30 9962 C 944.305 0.335692 1.92698 0
M  V30 9963 C 944.685 -1.17715 1.75232 0
M  V30 9964 O 944.033 -1.98493 1.13194 0
M  V30 9965 C 944.243 0.766647 3.40475 0
M  V30 9966 C 945.591 0.766323 4.17627 0
M  V30 9967 O 946.615 0.709321 3.49066 0
M  V30 9968 O 945.474 0.840856 5.39992 0
M  V30 9969 H 942.568 0.0919996 0.821867 0
M  V30 9970 H 945.114 0.909282 1.43283 0
M  V30 9971 H 943.886 1.80859 3.46995 0
M  V30 9972 H 943.509 0.168833 3.97241 0
M  V30 9973 N 944.506 -1.46559 0.579492 0
M  V30 9974 C 945.469 -2.28739 -0.145371 0
M  V30 9975 C 946.469 -1.38211 -0.821854 0
M  V30 9976 O 947.659 -1.6062 -0.674302 0
M  V30 9977 C 944.791 -3.18507 -1.21515 0
M  V30 9978 H 945.984 -2.94301 0.576786 0
M  V30 9979 H 943.537 -1.52616 0.337327 0
M  V30 9980 H 944.272 -2.57685 -1.96899 0
M  V30 9981 H 944.057 -3.85157 -0.734616 0
M  V30 9982 H 945.547 -3.80369 -1.72363 0
M  V30 9983 N 945.984 -0.3171 -1.54377 0
M  V30 9984 C 947.395 0.172287 -1.85903 0
M  V30 9985 C 947.746 1.52141 -1.23885 0
M  V30 9986 O 946.871 2.0949 -0.542476 0
M  V30 9987 C 947.466 0.319392 -3.37291 0
M  V30 9988 C 946.025 0.752998 -3.68791 0
M  V30 9989 C 945.172 -0.129143 -2.76999 0
M  V30 9990 H 948.123 -0.537597 -1.49317 0
M  V30 9991 H 948.144 1.15137 -3.62662 0
M  V30 9992 H 947.656 -0.662671 -3.82401 0
M  V30 9993 H 945.757 1.74504 -3.2921 0
M  V30 9994 H 945.87 0.561228 -4.75801 0
M  V30 9995 H 944.234 0.394242 -2.5163 0
M  V30 9996 H 945.017 -1.10785 -3.24933 0
M  V30 9997 N 947.462 1.57535 -0.0451378 0
M  V30 9998 C 948.708 1.92736 0.630921 0
M  V30 9999 C 949.041 0.923265 1.70849 0
M  V30 10000 O 948.316 -0.0516512 1.94431 0
M  V30 10001 C 948.599 3.38348 1.23259 0
M  V30 10002 C 948.452 4.49503 0.16349 0
M  V30 10003 C 949.771 3.84233 2.14599 0
M  V30 10004 H 946.89 0.700884 0.227883 0
M  V30 10005 H 949.532 1.89706 -0.10567 0
M  V30 10006 H 947.682 3.41061 1.86037 0
M  V30 10007 H 949.354 4.58919 -0.46808 0
M  V30 10008 H 947.597 4.30802 -0.509166 0
M  V30 10009 H 948.268 5.48457 0.624382 0
M  V30 10010 H 950.744 3.83358 1.6179 0
M  V30 10011 H 949.62 4.86781 2.53644 0
M  V30 10012 H 949.881 3.20646 3.04366 0
M  V30 10013 N 948.94 -0.228186 1.55939 0
M  V30 10014 C 950.188 -0.951668 1.78291 0
M  V30 10015 C 950.509 -1.85132 0.612474 0
M  V30 10016 O 949.779 -1.92356 -0.370942 0
M  V30 10017 H 948.359 -0.354388 0.657585 0
M  V30 10018 H 951.021 -0.241635 1.93396 0
M  V30 10019 H 950.117 -1.56239 2.70177 0
M  V30 10020 N 950.418 -1.49637 -0.494624 0
M  V30 10021 C 951.328 -1.69522 -1.62172 0
M  V30 10022 C 952.344 -0.577894 -1.64123 0
M  V30 10023 O 953.52 -0.853382 -1.82426 0
M  V30 10024 C 950.585 -1.7633 -2.9851 0
M  V30 10025 C 949.646 -2.99944 -3.07135 0
M  V30 10026 C 948.879 -3.06419 -4.36971 0
M  V30 10027 O 949.102 -2.20312 -5.26136 0
M  V30 10028 O 948.036 -3.9894 -4.507 0
M  V30 10029 H 951.862 -2.65017 -1.48324 0
M  V30 10030 H 949.447 -1.33454 -0.671603 0
M  V30 10031 H 951.329 -1.83125 -3.7953 0
M  V30 10032 H 950.004 -0.840155 -3.12607 0
M  V30 10033 H 948.911 -2.98664 -2.2528 0
M  V30 10034 H 950.244 -3.9176 -2.97968 0
M  V30 10035 N 951.896 0.746133 -1.38819 0
M  V30 10036 C 952.806 1.89063 -1.38897 0
M  V30 10037 C 953.822 1.71648 -0.28513 0
M  V30 10038 O 954.998 1.94443 -0.524783 0
M  V30 10039 C 952.063 3.24523 -1.22007 0
M  V30 10040 C 951.124 3.54411 -2.42263 0
M  V30 10041 C 950.357 4.83408 -2.26169 0
M  V30 10042 O 950.58 5.56325 -1.25931 0
M  V30 10043 O 949.514 5.12943 -3.14918 0
M  V30 10044 H 953.34 1.91951 -2.35347 0
M  V30 10045 H 950.925 0.892433 -1.19816 0
M  V30 10046 H 952.807 4.05496 -1.14677 0
M  V30 10047 H 951.482 3.2243 -0.286455 0
M  V30 10048 H 950.389 2.73569 -2.55168 0
M  V30 10049 H 951.722 3.61273 -3.3428 0
M  V30 10050 N 953.375 1.23811 0.975125 0
M  V30 10051 C 954.285 1.0408 2.10249 0
M  V30 10052 C 955.301 -0.0162404 1.73992 0
M  V30 10053 O 956.477 0.180346 2.00591 0
M  V30 10054 C 953.542 0.640013 3.40741 0
M  V30 10055 C 952.603 1.7727 3.90991 0
M  V30 10056 C 951.836 1.39094 5.15256 0
M  V30 10057 O 952.059 0.277483 5.69725 0
M  V30 10058 O 950.993 2.21392 5.59704 0
M  V30 10059 H 954.819 1.98575 2.29786 0
M  V30 10060 H 952.404 1.02563 1.08633 0
M  V30 10061 H 954.286 0.427684 4.19224 0
M  V30 10062 H 952.961 -0.27589 3.22522 0
M  V30 10063 H 951.868 2.03971 3.13602 0
M  V30 10064 H 953.201 2.66711 4.13674 0
M  V30 10065 N 954.853 -1.17469 1.05066 0
M  V30 10066 C 955.816 -2.19648 0.654793 0
M  V30 10067 C 956.816 -1.58107 -0.293063 0
M  V30 10068 O 958.006 -1.74029 -0.077106 0
M  V30 10069 C 955.138 -3.40878 -0.0384437 0
M  V30 10070 H 956.331 -2.56184 1.55915 0
M  V30 10071 H 953.884 -1.31528 0.844396 0
M  V30 10072 H 954.619 -3.09885 -0.956133 0
M  V30 10073 H 954.404 -3.86792 0.642961 0
M  V30 10074 H 955.894 -4.1651 -0.301568 0
M  V30 10075 N 956.331 -0.831506 -1.3388 0
M  V30 10076 C 957.742 -0.481375 -1.80388 0
M  V30 10077 C 958.093 0.998993 -1.68863 0
M  V30 10078 O 957.218 1.77795 -1.2336 0
M  V30 10079 C 957.813 -0.86699 -3.27519 0
M  V30 10080 C 956.372 -0.569105 -3.72073 0
M  V30 10081 C 955.519 -1.07929 -2.55434 0
M  V30 10082 H 958.47 -1.02089 -1.21505 0
M  V30 10083 H 958.491 -0.174128 -3.80101 0
M  V30 10084 H 958.003 -1.94447 -3.35875 0
M  V30 10085 H 956.104 0.498607 -3.69249 0
M  V30 10086 H 956.217 -1.11918 -4.65845 0
M  V30 10087 H 954.581 -0.500465 -2.49735 0
M  V30 10088 H 955.364 -2.16339 -2.66556 0
M  V30 10089 N 957.809 1.4625 -0.587256 0
M  V30 10090 C 958.772 2.28812 0.133238 0
M  V30 10091 C 959.772 1.38645 0.814513 0
M  V30 10092 O 960.962 1.60975 0.665774 0
M  V30 10093 C 958.094 3.19147 1.19824 0
M  V30 10094 H 959.287 2.93991 -0.592386 0
M  V30 10095 H 956.84 1.52435 -0.345416 0
M  V30 10096 H 957.575 2.58725 1.95529 0
M  V30 10097 H 957.36 3.85541 0.71418 0
M  V30 10098 H 958.85 3.81278 1.70344 0
M  V30 10099 N 959.287 0.325282 1.54207 0
M  V30 10100 C 960.234 -0.539889 2.24397 0
M  V30 10101 C 961.204 -1.11028 1.2354 0
M  V30 10102 O 962.389 -1.1503 1.52226 0
M  V30 10103 C 959.529 -1.69405 3.00659 0
M  V30 10104 C 958.642 -1.15273 4.16337 0
M  V30 10105 C 957.777 -2.27272 4.80126 0
M  V30 10106 C 956.816 -1.70397 5.87904 0
M  V30 10107 N 955.953 -2.76065 6.45548 0
M  V30 10108 H 960.793 0.0652318 2.97929 0
M  V30 10109 H 958.33 0.043964 1.47034 0
M  V30 10110 H 960.288 -2.37325 3.43122 0
M  V30 10111 H 958.918 -2.27043 2.29458 0
M  V30 10112 H 957.97 -0.365034 3.78645 0
M  V30 10113 H 959.282 -0.696576 4.93912 0
M  V30 10114 H 958.436 -3.03092 5.25566 0
M  V30 10115 H 957.175 -2.76224 4.01935 0
M  V30 10116 H 956.18 -0.930752 5.41864 0
M  V30 10117 H 957.405 -1.22319 6.67993 0
M  V30 10118 H 955.351 -3.24306 5.7023 0
M  V30 10119 H 955.268 -2.35018 7.18542 0
M  V30 10120 H 956.536 -3.5171 6.95644 0
M  V30 10121 N 960.765 -1.57509 0.0534917 0
M  V30 10122 C 961.995 -1.96812 -0.628386 0
M  V30 10123 C 962.403 -0.929808 -1.64776 0
M  V30 10124 O 961.746 0.0941155 -1.83459 0
M  V30 10125 C 961.808 -3.32361 -1.37027 0
M  V30 10126 C 961.472 -4.54185 -0.506465 0
M  V30 10127 C 962.469 -5.19398 0.228412 0
M  V30 10128 C 960.154 -5.00398 -0.43671 0
M  V30 10129 C 962.148 -6.29162 1.02146 0
M  V30 10130 C 959.835 -6.10039 0.360022 0
M  V30 10131 C 960.833 -6.74282 1.08779 0
M  V30 10132 O 960.521 -7.81814 1.87142 0
M  V30 10133 H 960.253 -0.65257 -0.176432 0
M  V30 10134 H 962.807 -2.05067 0.116908 0
M  V30 10135 H 961.037 -3.20667 -2.16125 0
M  V30 10136 H 962.726 -3.56395 -1.94261 0
M  V30 10137 H 963.492 -4.84651 0.184003 0
M  V30 10138 H 959.371 -4.50183 -0.992772 0
M  V30 10139 H 962.915 -6.79238 1.59002 0
M  V30 10140 H 958.812 -6.44222 0.406061 0
M  V30 10141 H 959.58 -7.98602 1.79378 0
M  V30 10142 N 962.243 0.219913 -1.56058 0
M  V30 10143 C 963.489 0.945463 -1.79412 0
M  V30 10144 C 963.822 1.83922 -0.62341 0
M  V30 10145 O 963.097 1.90806 0.377256 0
M  V30 10146 C 963.38 1.783 -3.1286 0
M  V30 10147 C 963.233 0.915626 -4.40382 0
M  V30 10148 C 964.552 2.76045 -3.42764 0
M  V30 10149 H 961.671 0.342288 -0.652693 0
M  V30 10150 H 964.313 0.214235 -1.88788 0
M  V30 10151 H 962.463 2.40642 -3.04998 0
M  V30 10152 H 964.135 0.30882 -4.60265 0
M  V30 10153 H 962.378 0.221124 -4.33236 0
M  V30 10154 H 963.049 1.53607 -5.30197 0
M  V30 10155 H 965.525 2.23838 -3.50764 0
M  V30 10156 H 964.401 3.31748 -4.37304 0
M  V30 10157 H 964.662 3.53866 -2.65012 0
M  V30 10158 N 963.721 1.49897 0.486681 0
M  V30 10159 C 964.653 1.63755 1.60365 0
M  V30 10160 C 965.666 0.519614 1.54285 0
M  V30 10161 O 966.855 0.792219 1.59957 0
M  V30 10162 C 963.955 1.59153 2.99205 0
M  V30 10163 C 963.128 2.8672 3.30319 0
M  V30 10164 C 962.187 2.74974 4.48638 0
M  V30 10165 O 961.213 3.48922 4.49714 0
M  V30 10166 N 962.415 1.87479 5.49392 0
M  V30 10167 H 965.18 2.60094 1.48899 0
M  V30 10168 H 962.741 1.47166 0.674825 0
M  V30 10169 H 964.733 1.4893 3.76301 0
M  V30 10170 H 963.303 0.706133 3.0452 0
M  V30 10171 H 962.523 3.11188 2.41983 0
M  V30 10172 H 963.811 3.71262 3.47911 0
M  V30 10173 H 963.209 1.26684 5.51333 0
M  V30 10174 H 961.766 1.83169 6.25534 0
M  V30 10175 N 965.199 -0.738761 1.39212 0
M  V30 10176 C 966.476 -1.48982 1.26742 0
M  V30 10177 C 966.856 -2.10732 -0.12466 0
M  V30 10178 O 966.204 -1.98287 -1.13554 0
M  V30 10179 C 966.414 -2.54427 2.38889 0
M  V30 10180 C 967.762 -3.20915 2.78027 0
M  V30 10181 O 968.786 -2.64738 2.38311 0
M  V30 10182 O 967.645 -4.22558 3.46565 0
M  V30 10183 H 964.739 -0.661395 0.496473 0
M  V30 10184 H 967.285 -0.772907 1.51077 0
M  V30 10185 H 966.057 -2.07151 3.3197 0
M  V30 10186 H 965.68 -3.33682 2.162 0
M  V30 10187 N 966.677 -1.24326 -0.968545 0
M  V30 10188 C 967.625 -1.03256 -2.08425 0
M  V30 10189 C 968.619 0.0322356 -1.69369 0
M  V30 10190 O 969.825 -0.122251 -1.79584 0
M  V30 10191 H 966.2 -0.31688 -0.681976 0
M  V30 10192 H 968.171 -1.97873 -2.23358 0
M  V30 10193 C 966.92 -0.653144 -3.4151 0
M  V30 10194 H 966.243 -1.46424 -3.72021 0
M  V30 10195 H 967.683 -0.545316 -4.20479 0
M  V30 10196 C 966.142 0.639674 -3.30771 0
M  V30 10197 O 966.672 1.68563 -3.64622 0
M  V30 10198 N 964.878 0.620074 -2.83907 0
M  V30 10199 H 964.425 -0.231449 -2.56558 0
M  V30 10200 H 964.383 1.48528 -2.77104 0
M  V30 10201 N 968.156 1.1691 -1.05688 0
M  V30 10202 C 969.405 1.86629 -0.765022 0
M  V30 10203 C 969.718 1.82223 0.710918 0
M  V30 10204 O 970.924 2.47462 1.11691 0
M  V30 10205 C 969.38 3.34886 -1.3183 0
M  V30 10206 C 968.988 3.47781 -2.82404 0
M  V30 10207 C 970.732 4.099 -1.10372 0
M  V30 10208 C 968.639 4.9009 -3.31008 0
M  V30 10209 H 967.569 0.699082 -0.282491 0
M  V30 10210 H 970.22 1.31989 -1.27481 0
M  V30 10211 H 968.602 3.89094 -0.736312 0
M  V30 10212 H 969.776 3.03765 -3.46502 0
M  V30 10213 H 968.091 2.86193 -3.02461 0
M  V30 10214 H 970.688 5.14894 -1.4418 0
M  V30 10215 H 971.031 4.16279 -0.0417372 0
M  V30 10216 H 971.564 3.61913 -1.65117 0
M  V30 10217 H 968.303 4.88887 -4.36657 0
M  V30 10218 H 967.823 5.34756 -2.71655 0
M  V30 10219 H 969.502 5.58881 -3.25977 0
M  V30 10220 N 969.634 0.838594 1.33437 0
M  V30 10221 C 970.566 0.229006 2.28053 0
M  V30 10222 C 971.579 -0.590103 1.51729 0
M  V30 10223 O 972.768 -0.417218 1.73556 0
M  V30 10224 C 969.868 -0.696251 3.31671 0
M  V30 10225 C 969.041 0.0834606 4.3732 0
M  V30 10226 C 968.1 -0.765097 5.20608 0
M  V30 10227 O 967.126 -0.2044 5.68833 0
M  V30 10228 N 968.328 -2.08249 5.4186 0
M  V30 10229 H 971.093 1.04196 2.81004 0
M  V30 10230 H 968.654 0.697031 1.46127 0
M  V30 10231 H 970.646 -1.26889 3.84293 0
M  V30 10232 H 969.216 -1.40992 2.78998 0
M  V30 10233 H 968.436 0.837481 3.85201 0
M  V30 10234 H 969.724 0.619613 5.05013 0
M  V30 10235 H 969.122 -2.56156 5.04381 0
M  V30 10236 H 967.679 -2.60362 5.97541 0
M  V30 10237 N 971.112 -1.45937 0.595003 0
M  V30 10238 C 972.042 -2.33198 -0.11871 0
M  V30 10239 C 973.023 -1.46083 -0.871423 0
M  V30 10240 O 974.208 -1.74879 -0.844461 0
M  V30 10241 C 971.338 -3.28576 -1.12495 0
M  V30 10242 C 970.292 -4.25229 -0.486275 0
M  V30 10243 C 969.618 -5.10204 -1.59986 0
M  V30 10244 C 970.918 -5.19019 0.584473 0
M  V30 10245 H 972.612 -2.93122 0.609886 0
M  V30 10246 H 970.158 -1.40951 0.294742 0
M  V30 10247 H 972.111 -3.88485 -1.6327 0
M  V30 10248 H 970.835 -2.66784 -1.88398 0
M  V30 10249 H 969.494 -3.666 0.000507962 0
M  V30 10250 H 969.142 -4.44789 -2.34886 0
M  V30 10251 H 968.842 -5.75669 -1.1781 0
M  V30 10252 H 970.366 -5.7298 -2.11014 0
M  V30 10253 H 971.78 -5.73073 0.161297 0
M  V30 10254 H 970.177 -5.92893 0.927256 0
M  V30 10255 H 971.247 -4.62208 1.46601 0
M  V30 10256 N 972.59 -0.333456 -1.54032 0
M  V30 10257 C 973.54 0.543745 -2.21421 0
M  V30 10258 C 974.524 1.07396 -1.19812 0
M  V30 10259 O 975.716 1.00934 -1.45401 0
M  V30 10260 C 972.845 1.69925 -2.98296 0
M  V30 10261 C 971.931 1.18345 -4.07253 0
M  V30 10262 N 972.322 0.388098 -5.04309 0
M  V30 10263 C 970.62 1.46128 -4.21382 0
M  V30 10264 C 971.321 0.109383 -5.81597 0
M  V30 10265 N 970.297 0.69825 -5.39097 0
M  V30 10266 H 974.099 -0.0711018 -2.93814 0
M  V30 10267 H 971.613 -0.139807 -1.61797 0
M  V30 10268 H 973.61 2.33954 -3.45067 0
M  V30 10269 H 972.27 2.31747 -2.27428 0
M  V30 10270 H 973.281 0.0300645 -5.17891 0
M  V30 10271 H 969.958 2.08463 -3.61731 0
M  V30 10272 H 971.348 -0.531554 -6.69794 0
M  V30 10273 N 974.068 1.57479 -0.061844 0
M  V30 10274 C 975.316 1.92727 0.608336 0
M  V30 10275 C 975.637 0.941799 1.70749 0
M  V30 10276 O 974.907 -0.0116608 1.95897 0
M  V30 10277 H 973.487 0.71145 0.2277 0
M  V30 10278 H 976.149 1.94546 -0.117359 0
M  V30 10279 H 975.245 2.9426 1.04007 0
M  V30 10280 N 975.546 -0.211634 1.56173 0
M  V30 10281 C 976.478 -1.286 1.89723 0
M  V30 10282 C 977.491 -1.42549 0.786361 0
M  V30 10283 O 978.68 -1.4327 1.06471 0
M  V30 10284 C 975.78 -2.66036 2.09948 0
M  V30 10285 C 974.953 -2.73908 3.41018 0
M  V30 10286 C 974.012 -3.92425 3.50555 0
M  V30 10287 O 973.038 -3.803 4.2351 0
M  V30 10288 N 974.24 -5.07165 2.82426 0
M  V30 10289 H 977.005 -1.00142 2.82474 0
M  V30 10290 H 974.566 -0.401633 1.56839 0
M  V30 10291 H 976.558 -3.43719 2.13634 0
M  V30 10292 H 975.128 -2.87052 1.23774 0
M  V30 10293 H 974.348 -1.82625 3.49345 0
M  V30 10294 H 975.636 -2.76145 4.27342 0
M  V30 10295 H 975.034 -5.19913 2.2295 0
M  V30 10296 H 973.591 -5.82855 2.9176 0
M  V30 10297 N 977.024 -1.50153 -0.478725 0
M  V30 10298 C 977.956 -1.64603 -1.59494 0
M  V30 10299 C 978.969 -0.527789 -1.54007 0
M  V30 10300 O 980.158 -0.80069 -1.59534 0
M  V30 10301 C 977.258 -1.60738 -2.98356 0
M  V30 10302 C 976.431 -2.88468 -3.28794 0
M  V30 10303 C 975.49 -2.77349 -4.47173 0
M  V30 10304 O 974.516 -3.51302 -4.47857 0
M  V30 10305 N 975.718 -1.9039 -5.4839 0
M  V30 10306 H 978.483 -2.6088 -1.47518 0
M  V30 10307 H 976.044 -1.47521 -0.667011 0
M  V30 10308 H 978.036 -1.50923 -3.75505 0
M  V30 10309 H 976.606 -0.722273 -3.04141 0
M  V30 10310 H 975.826 -3.12467 -2.40329 0
M  V30 10311 H 977.114 -3.73102 -3.45937 0
M  V30 10312 H 976.512 -1.29606 -5.50653 0
M  V30 10313 H 975.069 -1.86484 -6.24553 0
M  V30 10314 N 978.502 0.731368 -1.39602 0
M  V30 10315 C 979.748 1.49321 -1.37227 0
M  V30 10316 C 980.081 1.94176 0.0306502 0
M  V30 10317 O 979.356 1.67046 0.996294 0
M  V30 10318 C 979.639 2.73035 -2.34784 0
M  V30 10319 C 979.492 2.34176 -3.84033 0
M  V30 10320 C 980.811 3.75146 -2.30116 0
M  V30 10321 H 977.93 0.541652 -0.499783 0
M  V30 10322 H 980.572 0.835968 -1.70621 0
M  V30 10323 H 978.722 3.29114 -2.06437 0
M  V30 10324 H 980.394 1.83701 -4.23145 0
M  V30 10325 H 978.637 1.66361 -4.00633 0
M  V30 10326 H 979.308 3.22786 -4.47787 0
M  V30 10327 H 981.784 3.28661 -2.55189 0
M  V30 10328 H 980.66 4.5937 -3.00451 0
M  V30 10329 H 980.921 4.22326 -1.30741 0
M  V30 10330 N 979.98 1.24838 0.961938 0
M  V30 10331 C 980.943 1.04674 2.03902 0
M  V30 10332 C 981.943 0.00204674 1.608 0
M  V30 10333 O 983.133 0.243555 1.72489 0
M  V30 10334 C 980.265 0.587736 3.35795 0
M  V30 10335 H 981.458 2.00278 2.23223 0
M  V30 10336 H 979.011 1.07142 1.138 0
M  V30 10337 H 979.746 -0.371244 3.22168 0
M  V30 10338 H 979.531 1.34182 3.68426 0
M  V30 10339 H 981.021 0.467867 4.14971 0
M  V30 10340 N 981.458 -1.16348 1.06306 0
M  V30 10341 C 982.874 -1.38873 0.786543 0
M  V30 10342 C 983.074 -1.91915 -0.614061 0
M  V30 10343 O 982.13 -2.11804 -1.3746 0
M  V30 10344 C 983.443 -2.36936 1.85154 0
M  V30 10345 C 984.991 -2.5062 1.87506 0
M  V30 10346 C 985.466 -3.51965 2.9306 0
M  V30 10347 N 986.957 -3.59492 2.92095 0
M  V30 10348 C 987.692 -4.37699 3.70415 0
M  V30 10349 N 987.188 -5.19327 4.58553 0
M  V30 10350 N 988.981 -4.32683 3.58806 0
M  V30 10351 H 981.132 -0.802542 1.96655 0
M  V30 10352 H 983.395 -0.415304 0.852189 0
M  V30 10353 H 983.101 -2.05056 2.85736 0
M  V30 10354 H 982.975 -3.36585 1.70267 0
M  V30 10355 H 985.362 -2.81804 0.875827 0
M  V30 10356 H 985.443 -1.51006 2.06472 0
M  V30 10357 H 985.087 -3.21518 3.93177 0
M  V30 10358 H 985.017 -4.51309 2.71344 0
M  V30 10359 H 987.508 -3.01222 2.28197 0
M  V30 10360 H 987.821 -5.76216 5.1497 0
M  V30 10361 H 986.166 -5.1867 4.62608 0
M  V30 10362 H 989.357 -3.67971 2.89335 0
M  V30 10363 H 989.53 -4.93386 4.20088 0
M  V30 10364 N 982.937 -0.845659 -1.3299 0
M  V30 10365 C 984.186 -0.440928 -1.96822 0
M  V30 10366 C 984.499 1.00668 -1.67706 0
M  V30 10367 O 985.705 1.51641 -2.25205 0
M  V30 10368 C 984.161 -0.73752 -3.52262 0
M  V30 10369 C 983.769 -2.20026 -3.90247 0
M  V30 10370 C 985.513 -0.400072 -4.22611 0
M  V30 10371 C 983.42 -2.44054 -5.38694 0
M  V30 10372 H 982.35 -0.161148 -0.736578 0
M  V30 10373 H 985.001 -1.03519 -1.51513 0
M  V30 10374 H 983.383 -0.0728025 -3.95933 0
M  V30 10375 H 984.557 -2.90602 -3.57613 0
M  V30 10376 H 982.872 -2.50135 -3.32899 0
M  V30 10377 H 985.469 -0.557136 -5.3179 0
M  V30 10378 H 985.812 0.657547 -4.11074 0
M  V30 10379 H 986.345 -1.0203 -3.84493 0
M  V30 10380 H 983.084 -3.48407 -5.55241 0
M  V30 10381 H 982.604 -1.78047 -5.72765 0
M  V30 10382 H 984.283 -2.27549 -6.05665 0
M  V30 10383 N 984.415 1.45619 -0.602734 0
M  V30 10384 C 985.345 2.33258 0.106342 0
M  V30 10385 C 986.326 1.46543 0.863664 0
M  V30 10386 O 987.511 1.75324 0.835175 0
M  V30 10387 C 984.641 3.29168 1.10751 0
M  V30 10388 C 983.595 4.25481 0.463717 0
M  V30 10389 C 982.921 5.11046 1.57278 0
M  V30 10390 C 984.221 5.18702 -0.61199 0
M  V30 10391 H 985.915 2.92795 -0.625423 0
M  V30 10392 H 983.461 1.40793 -0.302213 0
M  V30 10393 H 985.414 3.89346 1.61208 0
M  V30 10394 H 984.138 2.6778 1.8698 0
M  V30 10395 H 982.797 3.66595 -0.0199496 0
M  V30 10396 H 982.445 4.46029 2.32524 0
M  V30 10397 H 982.145 5.76286 1.14755 0
M  V30 10398 H 983.669 5.74091 2.07972 0
M  V30 10399 H 985.083 5.72979 -0.191686 0
M  V30 10400 H 983.48 5.92393 -0.958686 0
M  V30 10401 H 984.55 4.61424 -1.4905 0
M  V30 10402 N 985.893 0.34162 1.53853 0
M  V30 10403 C 986.823 -0.508431 2.27897 0
M  V30 10404 C 987.804 -1.10425 1.29384 0
M  V30 10405 O 988.989 -1.126 1.58224 0
M  V30 10406 C 986.119 -1.66048 3.05034 0
M  V30 10407 C 985.073 -1.19309 4.11035 0
M  V30 10408 C 984.399 -2.4335 4.76114 0
M  V30 10409 C 985.699 -0.294952 5.21467 0
M  V30 10410 H 987.393 0.109251 2.99201 0
M  V30 10411 H 984.939 0.0539847 1.43899 0
M  V30 10412 H 986.892 -2.26158 3.5557 0
M  V30 10413 H 985.616 -2.30503 2.31379 0
M  V30 10414 H 984.275 -0.614809 3.61408 0
M  V30 10415 H 983.923 -3.06208 3.99056 0
M  V30 10416 H 983.623 -2.1276 5.47729 0
M  V30 10417 H 985.147 -3.0419 5.29434 0
M  V30 10418 H 986.561 -0.80285 5.67651 0
M  V30 10419 H 984.958 -0.0810221 6.00045 0
M  V30 10420 H 986.028 0.669433 4.80257 0
M  V30 10421 N 987.371 -1.57444 0.0701946 0
M  V30 10422 C 988.303 -2.09611 -0.927142 0
M  V30 10423 C 989.316 -1.02791 -1.26245 0
M  V30 10424 O 990.505 -1.30309 -1.21992 0
M  V30 10425 C 987.605 -2.54015 -2.24342 0
M  V30 10426 C 986.778 -3.84389 -2.08719 0
M  V30 10427 C 985.837 -4.14904 -3.23638 0
M  V30 10428 O 984.863 -4.84528 -2.98699 0
M  V30 10429 N 986.065 -3.68322 -4.48686 0
M  V30 10430 H 988.83 -2.95803 -0.481753 0
M  V30 10431 H 986.391 -1.61487 -0.115572 0
M  V30 10432 H 988.383 -2.71492 -3.00124 0
M  V30 10433 H 986.953 -1.72969 -2.60385 0
M  V30 10434 H 986.173 -3.76308 -1.17415 0
M  V30 10435 H 987.461 -4.69729 -1.9553 0
M  V30 10436 H 986.859 -3.12073 -4.71834 0
M  V30 10437 H 985.416 -3.91002 -5.21499 0
M  V30 10438 N 988.849 0.203349 -1.56283 0
M  V30 10439 C 989.759 1.27266 -1.9708 0
M  V30 10440 C 990.775 1.50268 -0.877236 0
M  V30 10441 O 991.951 1.63044 -1.18231 0
M  V30 10442 C 989.016 2.59871 -2.29495 0
M  V30 10443 C 988.077 2.45012 -3.52516 0
M  V30 10444 C 987.31 3.71293 -3.83376 0
M  V30 10445 O 987.533 4.75106 -3.15643 0
M  V30 10446 O 986.467 3.67316 -4.76826 0
M  V30 10447 H 990.293 0.956461 -2.88246 0
M  V30 10448 H 987.878 0.407688 -1.4373 0
M  V30 10449 H 989.76 3.38152 -2.51458 0
M  V30 10450 H 988.435 2.91135 -1.415 0
M  V30 10451 H 987.342 1.6487 -3.35811 0
M  V30 10452 H 988.675 2.18683 -4.40952 0
M  V30 10453 N 990.327 1.50405 0.470755 0
M  V30 10454 C 991.275 1.6982 1.58946 0
M  V30 10455 C 992.269 0.56407 1.59733 0
M  V30 10456 O 993.475 0.744576 1.63878 0
M  V30 10457 H 989.85 0.536016 0.527438 0
M  V30 10458 H 991.821 2.63662 1.39732 0
M  V30 10459 C 990.57 1.80986 2.96883 0
M  V30 10460 H 989.893 2.67645 2.96996 0
M  V30 10461 H 991.333 1.98596 3.74614 0
M  V30 10462 C 989.792 0.561551 3.32187 0
M  V30 10463 O 990.322 -0.299136 4.00585 0
M  V30 10464 N 988.528 0.415476 2.87615 0
M  V30 10465 H 988.075 1.11691 2.32127 0
M  V30 10466 H 988.033 -0.418592 3.11601 0
M  V30 10467 N 991.805 -0.723954 1.39988 0
M  V30 10468 C 993.053 -1.48078 1.3754 0
M  V30 10469 C 993.374 -1.94985 -0.0243358 0
M  V30 10470 O 992.644 -1.69764 -0.977602 0
M  V30 10471 H 991.224 -0.549354 0.506181 0
M  V30 10472 H 993.886 -0.858746 1.74962 0
M  V30 10473 H 992.982 -2.35763 2.04505 0
M  V30 10474 N 993.283 -1.25346 -0.955304 0
M  V30 10475 C 994.233 -1.02358 -2.03732 0
M  V30 10476 C 995.217 0.0392941 -1.60852 0
M  V30 10477 O 996.409 -0.175959 -1.76123 0
M  V30 10478 C 993.538 -0.643552 -3.37214 0
M  V30 10479 C 992.624 -1.74315 -3.8662 0
M  V30 10480 N 993.015 -2.97816 -4.08827 0
M  V30 10481 C 991.313 -1.62351 -4.15401 0
M  V30 10482 C 992.014 -3.69185 -4.4953 0
M  V30 10483 N 990.99 -2.96803 -4.55422 0
M  V30 10484 H 994.792 -1.96119 -2.18894 0
M  V30 10485 H 992.306 -1.15655 -1.14007 0
M  V30 10486 H 994.303 -0.460053 -4.14354 0
M  V30 10487 H 992.963 0.286738 -3.23431 0
M  V30 10488 H 993.974 -3.33868 -3.95919 0
M  V30 10489 H 990.651 -0.762133 -4.10485 0
M  V30 10490 H 992.041 -4.7519 -4.7502 0
M  V30 10491 N 994.761 1.15782 -1.06922 0
M  V30 10492 C 996.01 1.85807 -0.784774 0
M  V30 10493 C 996.323 1.82967 0.691551 0
M  V30 10494 O 997.529 2.48632 1.0906 0
M  V30 10495 C 995.985 3.33469 -1.35375 0
M  V30 10496 C 995.593 3.44766 -2.86077 0
M  V30 10497 C 997.337 4.08707 -1.14713 0
M  V30 10498 C 995.244 4.86551 -3.36187 0
M  V30 10499 H 994.174 0.696046 -0.28989 0
M  V30 10500 H 996.825 1.30629 -1.28873 0
M  V30 10501 H 995.207 3.88292 -0.77754 0
M  V30 10502 H 996.381 3.00073 -3.49704 0
M  V30 10503 H 994.696 2.82969 -3.05479 0
M  V30 10504 H 997.293 5.13336 -1.49633 0
M  V30 10505 H 997.636 4.16211 -0.0858868 0
M  V30 10506 H 998.169 3.60142 -1.68946 0
M  V30 10507 H 994.908 4.84229 -4.41818 0
M  V30 10508 H 994.428 5.31844 -2.77312 0
M  V30 10509 H 996.107 5.55392 -3.31887 0
M  V30 10510 N 996.239 0.8527 1.3254 0
M  V30 10511 C 997.469 0.468363 2.01221 0
M  V30 10512 C 997.877 -0.938966 1.64256 0
M  V30 10513 O 997.22 -1.62387 0.858837 0
M  V30 10514 C 997.282 0.525457 3.55639 0
M  V30 10515 C 996.946 1.89133 4.16026 0
M  V30 10516 C 997.943 2.85652 4.34395 0
M  V30 10517 C 995.628 2.18795 4.52144 0
M  V30 10518 C 997.622 4.09985 4.88048 0
M  V30 10519 C 995.309 3.43381 5.05502 0
M  V30 10520 C 996.307 4.38792 5.23403 0
M  V30 10521 O 995.995 5.61173 5.75622 0
M  V30 10522 H 995.727 0.182712 0.65084 0
M  V30 10523 H 998.281 1.15076 1.70138 0
M  V30 10524 H 996.511 -0.213779 3.86109 0
M  V30 10525 H 998.2 0.156999 4.05596 0
M  V30 10526 H 998.966 2.6404 4.06827 0
M  V30 10527 H 994.845 1.45317 4.37498 0
M  V30 10528 H 998.389 4.84465 5.01936 0
M  V30 10529 H 994.286 3.64844 5.32503 0
M  V30 10530 H 995.054 5.63104 5.94017 0
M  V30 10531 N 997.718 -1.45297 0.610449 0
M  V30 10532 C 998.964 -2.02518 0.106917 0
M  V30 10533 C 999.297 -1.47747 -1.26034 0
M  V30 10534 O 998.572 -0.65329 -1.832 0
M  V30 10535 C 998.855 -3.6003 0.0710975 0
M  V30 10536 C 998.708 -4.25128 1.46922 0
M  V30 10537 C 1000.03 -4.35778 -0.61524 0
M  V30 10538 H 997.146 -0.735896 0.040327 0
M  V30 10539 H 999.788 -1.73117 0.782968 0
M  V30 10540 H 997.938 -3.85209 -0.504611 0
M  V30 10541 H 999.61 -4.11125 2.09223 0
M  V30 10542 H 997.853 -3.83418 2.02911 0
M  V30 10543 H 998.524 -5.34046 1.39637 0
M  V30 10544 H 1001 -4.1591 -0.125871 0
M  V30 10545 H 999.876 -5.45506 -0.609419 0
M  V30 10546 H 1000.14 -4.08859 -1.68186 0
M  V30 10547 N 999.196 -0.349774 -1.5367 0
M  V30 10548 C 1000.44 0.245095 -2.02925 0
M  V30 10549 C 1000.8 1.4727 -1.23189 0
M  V30 10550 O 1002 2.14215 -1.62374 0
M  V30 10551 C 1000.27 0.545392 -3.53214 0
M  V30 10552 S 1001.83 1.11619 -4.24366 0
M  V30 10553 H 998.649 0.0725368 -0.70729 0
M  V30 10554 H 1001.25 -0.488979 -1.89286 0
M  V30 10555 H 999.955 -0.355786 -4.08855 0
M  V30 10556 H 999.486 1.30897 -3.70985 0
M  V30 10557 H 1001.5 2.40151 -4.34214 0
M  V30 10558 N 1000.67 1.57404 -0.0785433 0
M  V30 10559 C 1001.92 1.93361 0.58786 0
M  V30 10560 C 1002.24 0.959856 1.6974 0
M  V30 10561 O 1001.51 0.0091173 1.95898 0
M  V30 10562 H 1000.09 0.713825 0.220141 0
M  V30 10563 H 1002.75 1.94411 -0.137986 0
M  V30 10564 H 1001.85 2.95346 1.00881 0
M  V30 10565 N 1002.15 -0.195058 1.56388 0
M  V30 10566 C 1003.43 -0.941335 1.71459 0
M  V30 10567 C 1003.81 -2.01375 0.633336 0
M  V30 10568 O 1003.16 -2.25715 -0.35567 0
M  V30 10569 C 1003.37 -1.52772 3.13786 0
M  V30 10570 C 1004.71 -2.00983 3.7402 0
M  V30 10571 O 1005.74 -1.62614 3.16915 0
M  V30 10572 O 1004.6 -2.71586 4.7424 0
M  V30 10573 H 1001.69 -0.441451 0.699321 0
M  V30 10574 H 1004.24 -0.184752 1.68691 0
M  V30 10575 H 1003.01 -0.754699 3.83953 0
M  V30 10576 H 1002.63 -2.34914 3.20782 0
M  V30 10577 N 1003.63 -1.50653 -0.462772 0
M  V30 10578 C 1004.59 -1.69561 -1.54213 0
M  V30 10579 C 1005.59 -0.566106 -1.50505 0
M  V30 10580 O 1006.78 -0.833273 -1.52978 0
M  V30 10581 C 1003.91 -1.72856 -2.93826 0
M  V30 10582 H 1005.11 -2.65867 -1.38761 0
M  V30 10583 H 1002.66 -1.40259 -0.689728 0
M  V30 10584 H 1003.4 -0.78273 -3.14712 0
M  V30 10585 H 1003.18 -2.54919 -2.97924 0
M  V30 10586 H 1004.67 -1.89411 -3.72174 0
M  V30 10587 N 1005.11 0.71652 -1.4037 0
M  V30 10588 C 1006.06 1.8306 -1.40562 0
M  V30 10589 C 1007.03 1.64009 -0.262697 0
M  V30 10590 O 1008.21 1.85157 -0.460619 0
M  V30 10591 C 1005.35 3.2076 -1.27307 0
M  V30 10592 C 1004.46 3.51389 -2.51296 0
M  V30 10593 C 1003.6 4.78589 -2.30491 0
M  V30 10594 C 1002.64 5.02119 -3.50061 0
M  V30 10595 N 1001.77 6.20533 -3.28457 0
M  V30 10596 H 1006.61 1.82231 -2.35788 0
M  V30 10597 H 1004.15 0.890198 -1.17106 0
M  V30 10598 H 1006.11 4.00274 -1.17628 0
M  V30 10599 H 1004.74 3.2082 -0.357005 0
M  V30 10600 H 1003.79 2.66436 -2.71507 0
M  V30 10601 H 1005.1 3.64686 -3.40302 0
M  V30 10602 H 1004.26 5.66119 -2.1816 0
M  V30 10603 H 1003 4.67499 -1.38909 0
M  V30 10604 H 1002 4.13044 -3.6287 0
M  V30 10605 H 1003.23 5.15082 -4.42569 0
M  V30 10606 H 1001.17 6.10695 -2.39556 0
M  V30 10607 H 1001.09 6.34502 -4.11027 0
M  V30 10608 H 1002.36 7.10853 -3.19857 0
M  V30 10609 N 1006.59 1.25851 0.948643 0
M  V30 10610 C 1007.53 1.06559 2.06756 0
M  V30 10611 C 1008.53 -0.00528632 1.69399 0
M  V30 10612 O 1009.73 0.150806 1.79367 0
M  V30 10613 H 1006.11 0.327689 0.676848 0
M  V30 10614 H 1008.08 2.01401 2.20182 0
M  V30 10615 C 1006.83 0.707392 3.40428 0
M  V30 10616 H 1006.15 1.52324 3.69645 0
M  V30 10617 H 1007.59 0.612142 4.19558 0
M  V30 10618 C 1006.05 -0.58697 3.31747 0
M  V30 10619 O 1006.58 -1.62741 3.67258 0
M  V30 10620 N 1004.79 -0.574828 2.84858 0
M  V30 10621 H 1004.33 0.272236 2.56157 0
M  V30 10622 H 1004.29 -1.441 2.79432 0
M  V30 10623 N 1008.06 -1.15214 1.07534 0
M  V30 10624 C 1009 -2.18999 0.641461 0
M  V30 10625 C 1009.98 -1.58958 -0.342238 0
M  V30 10626 O 1011.16 -1.86859 -0.248218 0
M  V30 10627 C 1008.29 -3.38651 -0.0577939 0
M  V30 10628 C 1007.33 -4.17225 0.884641 0
M  V30 10629 S 1008.17 -4.79375 2.38663 0
M  V30 10630 C 1009.32 -6.02393 1.69923 0
M  V30 10631 H 1009.55 -2.55464 1.52071 0
M  V30 10632 H 1007.09 -1.26205 0.889481 0
M  V30 10633 H 1009.05 -4.07971 -0.454982 0
M  V30 10634 H 1007.71 -3.00526 -0.913407 0
M  V30 10635 H 1006.9 -5.02837 0.342133 0
M  V30 10636 H 1006.5 -3.53463 1.2223 0
M  V30 10637 H 1008.79 -6.69899 1.01201 0
M  V30 10638 H 1009.74 -6.61216 2.53375 0
M  V30 10639 H 1010.14 -5.52106 1.1764 0
M  V30 10640 N 1009.54 -0.859717 -1.32086 0
M  V30 10641 C 1010.51 -0.313005 -2.27053 0
M  V30 10642 C 1011.51 0.530191 -1.51808 0
M  V30 10643 O 1012.7 0.340972 -1.7083 0
M  V30 10644 C 1009.83 0.5566 -3.36325 0
M  V30 10645 H 1011.02 -1.15125 -2.76923 0
M  V30 10646 H 1008.57 -0.634463 -1.42843 0
M  V30 10647 H 1009.31 1.41645 -2.91731 0
M  V30 10648 H 1009.09 -0.0470197 -3.92072 0
M  V30 10649 H 1010.58 0.931725 -4.07073 0
M  V30 10650 N 1011.02 1.44971 -0.618145 0
M  V30 10651 C 1011.97 2.30606 0.09449 0
M  V30 10652 C 1012.94 1.42725 0.849633 0
M  V30 10653 O 1014.12 1.71643 0.833266 0
M  V30 10654 C 1011.26 3.27803 1.07886 0
M  V30 10655 C 1010.38 4.30787 0.323488 0
M  V30 10656 C 1009.51 5.15085 1.29851 0
M  V30 10657 C 1008.55 6.09788 0.531561 0
M  V30 10658 N 1007.69 6.86829 1.4564 0
M  V30 10659 H 1012.53 2.91008 -0.641738 0
M  V30 10660 H 1010.06 1.43391 -0.328259 0
M  V30 10661 H 1012.02 3.82631 1.66281 0
M  V30 10662 H 1010.65 2.69131 1.78237 0
M  V30 10663 H 1009.7 3.78536 -0.376164 0
M  V30 10664 H 1011.02 4.98044 -0.274443 0
M  V30 10665 H 1010.17 5.74365 1.95421 0
M  V30 10666 H 1008.91 4.4787 1.93037 0
M  V30 10667 H 1007.91 5.49628 -0.137702 0
M  V30 10668 H 1009.14 6.79033 -0.0953993 0
M  V30 10669 H 1007.08 6.22295 2.07571 0
M  V30 10670 H 1007 7.50477 0.912167 0
M  V30 10671 H 1008.27 7.50642 2.10134 0
M  V30 10672 N 1012.5 0.357919 1.53482 0
M  V30 10673 C 1013.78 -0.290164 1.93436 0
M  V30 10674 C 1014.16 -1.67039 1.29079 0
M  V30 10675 O 1013.5 -2.24085 0.447017 0
M  V30 10676 C 1013.71 -0.348055 3.4726 0
M  V30 10677 C 1015.06 -0.59206 4.20452 0
M  V30 10678 O 1016.09 -0.429581 3.536 0
M  V30 10679 O 1014.94 -0.907855 5.38907 0
M  V30 10680 H 1012.04 -0.172312 0.80885 0
M  V30 10681 H 1014.58 0.410144 1.64669 0
M  V30 10682 H 1013.36 0.619953 3.86358 0
M  V30 10683 H 1012.98 -1.09457 3.82237 0
M  V30 10684 N 1013.98 -1.5736 0.0868897 0
M  V30 10685 C 1015.22 -1.94341 -0.579598 0
M  V30 10686 C 1015.56 -0.968238 -1.68341 0
M  V30 10687 O 1014.83 8.29649e-05 -1.945 0
M  V30 10688 C 1015.11 -3.41497 -1.14245 0
M  V30 10689 C 1014.97 -4.49778 -0.044255 0
M  V30 10690 C 1016.29 -3.89788 -2.04336 0
M  V30 10691 H 1013.4 -0.70668 -0.20922 0
M  V30 10692 H 1016.05 -1.89359 0.15593 0
M  V30 10693 H 1014.2 -3.45873 -1.76929 0
M  V30 10694 H 1015.87 -4.57517 0.58959 0
M  V30 10695 H 1014.11 -4.293 0.623207 0
M  V30 10696 H 1014.78 -5.4992 -0.478749 0
M  V30 10697 H 1017.26 -3.87513 -1.51569 0
M  V30 10698 H 1016.13 -4.93335 -2.40648 0
M  V30 10699 H 1016.4 -3.28603 -2.95757 0
M  V30 10700 N 1015.45 0.186762 -1.56489 0
M  V30 10701 C 1016.4 1.2357 -1.9161 0
M  V30 10702 C 1017.39 1.4058 -0.782686 0
M  V30 10703 O 1018.58 1.42811 -1.04566 0
M  V30 10704 C 1015.71 2.57865 -2.26628 0
M  V30 10705 C 1014.8 2.44613 -3.46447 0
M  V30 10706 N 1015.19 2.01052 -4.64125 0
M  V30 10707 C 1013.48 2.75483 -3.50749 0
M  V30 10708 C 1014.19 1.99891 -5.46277 0
M  V30 10709 N 1013.16 2.41711 -4.86905 0
M  V30 10710 H 1016.96 0.890359 -2.80089 0
M  V30 10711 H 1014.48 0.395144 -1.57519 0
M  V30 10712 H 1016.47 3.33642 -2.49977 0
M  V30 10713 H 1015.13 2.93215 -1.39481 0
M  V30 10714 H 1016.15 1.7163 -4.88634 0
M  V30 10715 H 1012.82 3.14974 -2.7404 0
M  V30 10716 H 1014.21 1.68042 -6.50547 0
M  V30 10717 N 1016.93 1.50896 0.454776 0
M  V30 10718 C 1018.21 1.53227 1.21576 0
M  V30 10719 C 1018.59 0.286358 2.09149 0
M  V30 10720 O 1017.94 -0.729469 2.16543 0
M  V30 10721 C 1018.15 2.83693 2.03271 0
M  V30 10722 C 1019.5 3.34981 2.60908 0
M  V30 10723 O 1020.52 2.85126 2.13499 0
M  V30 10724 O 1019.38 4.21929 3.4733 0
M  V30 10725 H 1016.47 0.615306 0.552564 0
M  V30 10726 H 1019.02 1.63197 0.465266 0
M  V30 10727 H 1017.79 3.65839 1.38843 0
M  V30 10728 H 1017.41 2.76803 2.85422 0
M  V30 10729 N 1018.41 -0.709066 1.40748 0
M  V30 10730 C 1019.37 -1.80485 1.41272 0
M  V30 10731 C 1020.37 -1.57872 0.305463 0
M  V30 10732 O 1021.56 -1.64793 0.564691 0
M  V30 10733 C 1018.7 -3.1867 1.21087 0
M  V30 10734 H 1019.89 -1.81417 2.38805 0
M  V30 10735 H 1017.44 -0.915356 1.26692 0
M  V30 10736 H 1018.18 -3.23385 0.243406 0
M  V30 10737 H 1017.96 -3.36484 2.01299 0
M  V30 10738 H 1019.45 -3.98685 1.24257 0
M  V30 10739 N 1019.89 -1.26353 -0.941956 0
M  V30 10740 C 1020.82 -1.10341 -2.05784 0
M  V30 10741 C 1021.8 -0.00881565 -1.70098 0
M  V30 10742 O 1022.99 -0.180699 -1.93357 0
M  V30 10743 C 1020.12 -0.734788 -3.39438 0
M  V30 10744 C 1019.07 -1.78103 -3.89183 0
M  V30 10745 C 1018.4 -1.26675 -5.19478 0
M  V30 10746 C 1019.7 -3.1824 -4.14151 0
M  V30 10747 H 1021.39 -2.03684 -2.19438 0
M  V30 10748 H 1018.94 -0.980698 -1.05443 0
M  V30 10749 H 1020.89 -0.609653 -4.16967 0
M  V30 10750 H 1019.61 0.234354 -3.25758 0
M  V30 10751 H 1018.27 -1.89482 -3.13835 0
M  V30 10752 H 1017.92 -0.287472 -5.02178 0
M  V30 10753 H 1017.62 -1.96612 -5.53731 0
M  V30 10754 H 1019.14 -1.15427 -5.99591 0
M  V30 10755 H 1020.56 -3.09942 -4.82296 0
M  V30 10756 H 1018.95 -3.8576 -4.59684 0
M  V30 10757 H 1020.02 -3.64354 -3.19959 0
M  V30 10758 N 1021.37 1.14642 -1.08144 0
M  V30 10759 C 1022.61 1.85892 -0.810683 0
M  V30 10760 C 1022.95 1.82575 0.661821 0
M  V30 10761 O 1022.22 1.25454 1.48632 0
M  V30 10762 C 1022.5 3.34647 -1.32979 0
M  V30 10763 C 1022.36 3.46551 -2.86744 0
M  V30 10764 C 1023.68 4.29661 -0.952864 0
M  V30 10765 H 1020.8 0.674963 -0.295963 0
M  V30 10766 H 1023.44 1.3464 -1.3406 0
M  V30 10767 H 1021.59 3.78425 -0.87903 0
M  V30 10768 H 1023.26 3.11579 -3.40171 0
M  V30 10769 H 1021.5 2.87849 -3.24539 0
M  V30 10770 H 1022.17 4.51101 -3.18138 0
M  V30 10771 H 1024.65 3.93885 -1.34141 0
M  V30 10772 H 1023.53 5.32209 -1.34331 0
M  V30 10773 H 1023.79 4.41877 0.140392 0
M  V30 10774 N 1022.85 0.866709 1.31628 0
M  V30 10775 C 1023.78 0.277328 2.27516 0
M  V30 10776 C 1024.79 -0.557786 1.52946 0
M  V30 10777 O 1025.98 -0.38031 1.74402 0
M  V30 10778 C 1023.08 -0.625742 3.33073 0
M  V30 10779 C 1022.25 0.176204 4.37045 0
M  V30 10780 C 1021.31 -0.654497 5.22114 0
M  V30 10781 O 1020.34 -0.0836961 5.69138 0
M  V30 10782 N 1021.54 -1.96708 5.46156 0
M  V30 10783 H 1024.3 1.10133 2.78731 0
M  V30 10784 H 1021.87 0.72787 1.44616 0
M  V30 10785 H 1023.86 -1.18709 3.86898 0
M  V30 10786 H 1022.43 -1.35042 2.81926 0
M  V30 10787 H 1021.65 0.918999 3.83338 0
M  V30 10788 H 1022.94 0.726594 5.03585 0
M  V30 10789 H 1022.33 -2.454 5.09701 0
M  V30 10790 H 1020.89 -2.47629 6.02929 0
M  V30 10791 N 1024.32 -1.44642 0.625825 0
M  V30 10792 C 1025.57 -2.01308 0.125682 0
M  V30 10793 C 1025.89 -1.49773 -1.25807 0
M  V30 10794 O 1027.09 -1.98533 -1.85194 0
M  V30 10795 C 1025.55 -3.59479 0.17395 0
M  V30 10796 C 1025.16 -4.20011 1.55868 0
M  V30 10797 C 1026.9 -4.2364 -0.270005 0
M  V30 10798 C 1024.81 -5.7039 1.56235 0
M  V30 10799 H 1023.74 -0.75276 0.0432194 0
M  V30 10800 H 1026.39 -1.65916 0.783842 0
M  V30 10801 H 1024.77 -3.92145 -0.551212 0
M  V30 10802 H 1025.94 -3.98891 2.307 0
M  V30 10803 H 1024.26 -3.68116 1.94627 0
M  V30 10804 H 1026.86 -5.33931 -0.28672 0
M  V30 10805 H 1027.2 -3.95603 -1.29629 0
M  V30 10806 H 1027.73 -3.95759 0.402487 0
M  V30 10807 H 1024.47 -6.03154 2.56683 0
M  V30 10808 H 1023.99 -5.93648 0.856881 0
M  V30 10809 H 1025.67 -6.33929 1.29396 0
M  V30 10810 N 1025.8 -0.366053 -1.5329 0
M  V30 10811 C 1027.05 0.224614 -2.00445 0
M  V30 10812 C 1027.36 1.49829 -1.2574 0
M  V30 10813 O 1028.57 2.16759 -1.63487 0
M  V30 10814 C 1027.03 0.450818 -3.57065 0
M  V30 10815 C 1026.63 -0.808257 -4.40649 0
M  V30 10816 C 1028.38 0.999116 -4.12575 0
M  V30 10817 C 1026.28 -0.551612 -5.88822 0
M  V30 10818 H 1025.21 0.0877114 -0.748881 0
M  V30 10819 H 1027.87 -0.484866 -1.76978 0
M  V30 10820 H 1026.25 1.22157 -3.76688 0
M  V30 10821 H 1027.42 -1.58184 -4.32798 0
M  V30 10822 H 1025.74 -1.27981 -3.96245 0
M  V30 10823 H 1028.33 1.20646 -5.20911 0
M  V30 10824 H 1028.68 1.96139 -3.67199 0
M  V30 10825 H 1029.21 0.288518 -3.96752 0
M  V30 10826 H 1025.95 -1.48423 -6.38475 0
M  V30 10827 H 1025.47 0.183462 -5.99519 0
M  V30 10828 H 1027.15 -0.177307 -6.46757 0
M  V30 10829 N 1027.28 1.57312 -0.0952337 0
M  V30 10830 C 1028.5 1.99119 0.580206 0
M  V30 10831 C 1028.93 0.973955 1.60922 0
M  V30 10832 O 1028.29 -0.0575338 1.81209 0
M  V30 10833 C 1028.34 3.39893 1.20438 0
M  V30 10834 O 1027.44 3.40941 2.32019 0
M  V30 10835 H 1026.78 0.64748 0.147195 0
M  V30 10836 H 1029.31 2.03836 -0.176686 0
M  V30 10837 H 1029.32 3.7759 1.54564 0
M  V30 10838 H 1028 4.13453 0.450514 0
M  V30 10839 H 1026.57 3.1504 1.9951 0
M  V30 10840 N 1028.76 -0.17846 1.56586 0
M  V30 10841 C 1029.7 -1.22104 1.95855 0
M  V30 10842 C 1030.67 -1.44366 0.821447 0
M  V30 10843 O 1031.86 -1.57224 1.08098 0
M  V30 10844 C 1029 -2.55701 2.31757 0
M  V30 10845 C 1028.11 -2.40879 3.5861 0
M  V30 10846 C 1027.25 -3.67293 3.83757 0
M  V30 10847 C 1026.29 -3.47373 5.03982 0
M  V30 10848 N 1025.42 -4.65839 5.25298 0
M  V30 10849 H 1030.26 -0.879168 2.84736 0
M  V30 10850 H 1027.8 -0.422721 1.40895 0
M  V30 10851 H 1029.76 -3.33556 2.50592 0
M  V30 10852 H 1028.39 -2.87898 1.45995 0
M  V30 10853 H 1027.44 -1.54236 3.47729 0
M  V30 10854 H 1028.75 -2.22102 4.46623 0
M  V30 10855 H 1027.91 -4.53584 4.02922 0
M  V30 10856 H 1026.65 -3.89041 2.94107 0
M  V30 10857 H 1025.65 -2.59467 4.84723 0
M  V30 10858 H 1026.88 -3.27055 5.95157 0
M  V30 10859 H 1024.82 -4.8782 4.38598 0
M  V30 10860 H 1024.74 -4.4995 6.0752 0
M  V30 10861 H 1026.01 -5.53435 5.48936 0
M  V30 10862 N 1030.24 -1.51135 -0.446768 0
M  V30 10863 C 1031.15 -1.74595 -1.56696 0
M  V30 10864 C 1032.16 -0.629816 -1.62201 0
M  V30 10865 O 1033.34 -0.910987 -1.79619 0
M  V30 10866 C 1030.4 -1.85738 -2.9275 0
M  V30 10867 C 1029.46 -3.09564 -2.97437 0
M  V30 10868 C 1028.7 -3.20165 -4.27001 0
M  V30 10869 O 1028.92 -2.36939 -5.1886 0
M  V30 10870 O 1027.85 -4.13077 -4.3778 0
M  V30 10871 H 1031.68 -2.69601 -1.39817 0
M  V30 10872 H 1029.26 -1.35523 -0.628805 0
M  V30 10873 H 1031.15 -1.95107 -3.73512 0
M  V30 10874 H 1029.82 -0.939184 -3.09776 0
M  V30 10875 H 1028.73 -3.05679 -2.15664 0
M  V30 10876 H 1030.06 -4.01041 -2.85353 0
M  V30 10877 N 1031.71 0.701592 -1.41122 0
M  V30 10878 C 1032.96 1.46376 -1.40363 0
M  V30 10879 C 1033.29 1.94197 -0.0105442 0
M  V30 10880 O 1032.57 1.69121 0.960637 0
M  V30 10881 C 1032.85 2.67994 -2.40523 0
M  V30 10882 C 1032.7 2.25977 -3.88914 0
M  V30 10883 C 1034.02 3.70181 -2.38022 0
M  V30 10884 H 1031.14 0.530929 -0.511159 0
M  V30 10885 H 1033.78 0.799588 -1.72356 0
M  V30 10886 H 1031.93 3.24661 -2.13372 0
M  V30 10887 H 1033.61 1.74684 -4.26946 0
M  V30 10888 H 1031.85 1.57826 -4.04071 0
M  V30 10889 H 1032.52 3.13215 -4.54533 0
M  V30 10890 H 1035 3.23174 -2.62103 0
M  V30 10891 H 1033.87 4.52894 -3.10127 0
M  V30 10892 H 1034.13 4.19458 -1.3967 0
M  V30 10893 N 1033.19 1.2685 0.935242 0
M  V30 10894 C 1034.44 1.12522 1.67878 0
M  V30 10895 C 1034.76 -0.330894 1.92172 0
M  V30 10896 O 1034.03 -1.23259 1.52263 0
M  V30 10897 H 1032.61 0.413418 0.622169 0
M  V30 10898 H 1035.27 1.59267 1.12339 0
M  V30 10899 H 1034.37 1.64853 2.65009 0
M  V30 10900 N 1034.67 -1.14067 1.0875 0
M  V30 10901 C 1035.92 -1.85459 0.82053 0
M  V30 10902 C 1036.25 -1.82923 -0.65213 0
M  V30 10903 O 1035.52 -1.26241 -1.47965 0
M  V30 10904 C 1035.81 -3.33937 1.34752 0
M  V30 10905 C 1035.66 -3.45026 2.88578 0
M  V30 10906 C 1036.98 -4.2915 0.975636 0
M  V30 10907 H 1034.1 -0.673384 0.299538 0
M  V30 10908 H 1036.74 -1.33927 1.34772 0
M  V30 10909 H 1034.89 -3.77953 0.899086 0
M  V30 10910 H 1036.56 -3.09771 3.41818 0
M  V30 10911 H 1034.81 -2.86124 3.26061 0
M  V30 10912 H 1035.48 -4.49408 3.20526 0
M  V30 10913 H 1037.95 -3.93168 1.36228 0
M  V30 10914 H 1036.83 -5.31489 1.37152 0
M  V30 10915 H 1037.09 -4.41945 -0.116956 0
M  V30 10916 N 1036.15 -0.873678 -1.31166 0
M  V30 10917 C 1037.06 -0.335726 -2.32185 0
M  V30 10918 C 1038.07 0.556259 -1.64869 0
M  V30 10919 O 1039.25 0.452087 -1.9626 0
M  V30 10920 C 1036.32 0.450822 -3.43756 0
M  V30 10921 C 1035.38 -0.469565 -4.26724 0
M  V30 10922 C 1034.61 0.279538 -5.32967 0
M  V30 10923 O 1034.83 1.50715 -5.50128 0
M  V30 10924 O 1033.77 -0.36452 -6.00795 0
M  V30 10925 H 1037.59 -1.17314 -2.80127 0
M  V30 10926 H 1035.18 -0.637163 -1.35132 0
M  V30 10927 H 1037.06 0.896582 -4.11752 0
M  V30 10928 H 1035.73 1.26472 -2.9797 0
M  V30 10929 H 1034.64 -0.963902 -3.61469 0
M  V30 10930 H 1035.97 -1.24916 -4.76085 0
M  V30 10931 N 1037.63 1.44308 -0.633487 0
M  V30 10932 C 1038.57 2.30694 0.0700257 0
M  V30 10933 C 1039.54 1.43618 0.834447 0
M  V30 10934 O 1040.73 1.72517 0.815014 0
M  V30 10935 C 1037.87 3.28929 1.04403 0
M  V30 10936 C 1036.98 4.31106 0.277779 0
M  V30 10937 C 1036.12 5.16433 1.24381 0
M  V30 10938 C 1035.16 6.10317 0.466855 0
M  V30 10939 N 1034.29 6.88335 1.38347 0
M  V30 10940 H 1039.13 2.90311 -0.672567 0
M  V30 10941 H 1036.67 1.43034 -0.343449 0
M  V30 10942 H 1038.63 3.84373 1.62214 0
M  V30 10943 H 1037.26 2.71006 1.75372 0
M  V30 10944 H 1036.31 3.78115 -0.416292 0
M  V30 10945 H 1037.62 4.97725 -0.327251 0
M  V30 10946 H 1036.78 5.76406 1.89318 0
M  V30 10947 H 1035.51 4.49893 1.88276 0
M  V30 10948 H 1034.52 5.49451 -0.195989 0
M  V30 10949 H 1035.74 6.78894 -0.167414 0
M  V30 10950 H 1033.69 6.24461 2.00959 0
M  V30 10951 H 1033.61 7.51402 0.832517 0
M  V30 10952 H 1034.88 7.52829 2.0216 0
M  V30 10953 N 1039.1 0.374177 1.53094 0
M  V30 10954 C 1040.03 -0.459976 2.28925 0
M  V30 10955 C 1041.02 -1.07656 1.31698 0
M  V30 10956 O 1042.2 -1.09219 1.60577 0
M  V30 10957 C 1039.33 -1.5954 3.08487 0
M  V30 10958 C 1038.28 -1.10563 4.13473 0
M  V30 10959 C 1037.61 -2.33196 4.81169 0
M  V30 10960 C 1038.91 -0.184275 5.21975 0
M  V30 10961 H 1040.6 0.172692 2.98902 0
M  V30 10962 H 1038.15 0.0844956 1.43752 0
M  V30 10963 H 1040.1 -2.18565 3.60288 0
M  V30 10964 H 1038.83 -2.25543 2.36216 0
M  V30 10965 H 1037.49 -0.53801 3.62631 0
M  V30 10966 H 1037.13 -2.97675 4.05461 0
M  V30 10967 H 1036.83 -2.01094 5.52119 0
M  V30 10968 H 1038.36 -2.92892 5.35767 0
M  V30 10969 H 1039.77 -0.682262 5.69226 0
M  V30 10970 H 1038.17 0.0462746 6.00082 0
M  V30 10971 H 1039.24 0.771152 4.78729 0
M  V30 10972 N 1040.58 -1.57259 0.103575 0
M  V30 10973 C 1041.49 -2.18018 -0.866327 0
M  V30 10974 C 1042.51 -1.15198 -1.30404 0
M  V30 10975 O 1043.68 -1.47605 -1.37021 0
M  V30 10976 C 1040.75 -2.75533 -2.10434 0
M  V30 10977 C 1039.81 -3.93337 -1.72002 0
M  V30 10978 C 1039.04 -4.481 -2.89901 0
M  V30 10979 O 1039.27 -4.01784 -4.04877 0
M  V30 10980 O 1038.2 -5.39004 -2.67877 0
M  V30 10981 H 1042.03 -3.01322 -0.379338 0
M  V30 10982 H 1039.61 -1.48907 -0.121228 0
M  V30 10983 H 1041.49 -3.12259 -2.8297 0
M  V30 10984 H 1040.17 -1.9527 -2.58169 0
M  V30 10985 H 1039.08 -3.61408 -0.966193 0
M  V30 10986 H 1040.41 -4.74989 -1.29022 0
M  V30 10987 N 1042.06 0.170153 -1.56679 0
M  V30 10988 C 1043.02 1.19443 -1.95617 0
M  V30 10989 C 1044.02 1.37118 -0.83996 0
M  V30 10990 O 1045.21 1.34504 -1.10699 0
M  V30 10991 C 1042.35 2.55926 -2.25199 0
M  V30 10992 H 1043.54 0.86095 -2.87276 0
M  V30 10993 H 1041.09 0.412646 -1.50755 0
M  V30 10994 H 1041.83 2.94286 -1.36257 0
M  V30 10995 H 1041.61 2.44464 -3.06562 0
M  V30 10996 H 1043.1 3.29742 -2.56242 0
M  V30 10997 N 1043.54 1.5137 0.438746 0
M  V30 10998 C 1044.47 1.67264 1.55236 0
M  V30 10999 C 1045.45 0.520238 1.54053 0
M  V30 11000 O 1046.63 0.743897 1.73201 0
M  V30 11001 C 1043.76 1.68492 2.93816 0
M  V30 11002 C 1042.81 2.8968 3.1303 0
M  V30 11003 S 1043.64 4.50514 2.89478 0
M  V30 11004 C 1044.8 4.54485 4.30342 0
M  V30 11005 H 1045.03 2.61456 1.4152 0
M  V30 11006 H 1042.56 1.41036 0.628341 0
M  V30 11007 H 1044.52 1.69884 3.73697 0
M  V30 11008 H 1043.18 0.754787 3.04896 0
M  V30 11009 H 1042.37 2.86936 4.14347 0
M  V30 11010 H 1041.98 2.86022 2.40972 0
M  V30 11011 H 1044.27 4.30039 5.2352 0
M  V30 11012 H 1045.21 5.56288 4.3812 0
M  V30 11013 H 1045.62 3.83824 4.13931 0
M  V30 11014 N 1045.02 -0.694098 1.41492 0
M  V30 11015 C 1045.96 -1.80801 1.43456 0
M  V30 11016 C 1046.93 -1.63571 0.288757 0
M  V30 11017 O 1048.12 -1.844 0.490017 0
M  V30 11018 C 1045.26 -3.18694 1.32394 0
M  V30 11019 C 1044.37 -3.47346 2.56855 0
M  V30 11020 C 1043.51 -4.74862 2.38075 0
M  V30 11021 C 1042.55 -4.96486 3.58005 0
M  V30 11022 N 1041.68 -6.15229 3.38287 0
M  V30 11023 H 1046.52 -1.78457 2.38657 0
M  V30 11024 H 1044.06 -0.871455 1.18508 0
M  V30 11025 H 1046.02 -3.98352 1.23982 0
M  V30 11026 H 1044.65 -3.20211 0.407999 0
M  V30 11027 H 1043.7 -2.62083 2.75711 0
M  V30 11028 H 1045.01 -3.59226 3.4606 0
M  V30 11029 H 1044.17 -5.62577 2.27139 0
M  V30 11030 H 1042.9 -4.6523 1.46329 0
M  V30 11031 H 1041.91 -4.07219 3.69395 0
M  V30 11032 H 1043.13 -5.07976 4.50708 0
M  V30 11033 H 1041.08 -6.06807 2.49242 0
M  V30 11034 H 1041 -6.27883 4.21069 0
M  V30 11035 H 1042.27 -7.05674 3.31126 0
M  V30 11036 N 1046.49 -1.27344 -0.928501 0
M  V30 11037 C 1047.72 -1.16447 -1.7102 0
M  V30 11038 C 1048.14 0.278799 -1.8673 0
M  V30 11039 O 1047.49 1.18989 -1.38376 0
M  V30 11040 C 1047.55 -1.84242 -3.11026 0
M  V30 11041 O 1047.27 -3.2293 -2.96054 0
M  V30 11042 C 1048.77 -1.7946 -4.05351 0
M  V30 11043 H 1045.99 -0.404898 -0.535069 0
M  V30 11044 H 1048.53 -1.68201 -1.16313 0
M  V30 11045 H 1046.69 -1.36395 -3.62595 0
M  V30 11046 H 1047.1 -3.5667 -3.8456 0
M  V30 11047 H 1048.57 -2.31511 -5.01105 0
M  V30 11048 H 1049.05 -0.763771 -4.32508 0
M  V30 11049 H 1049.66 -2.26918 -3.59706 0
M  V30 11050 N 1047.97 1.13488 -1.09353 0
M  V30 11051 C 1048.9 2.20988 -0.75409 0
M  V30 11052 C 1049.88 1.67977 0.267901 0
M  V30 11053 O 1051.07 1.93722 0.136128 0
M  V30 11054 C 1048.2 3.46869 -0.173042 0
M  V30 11055 C 1047.15 4.12965 -1.12446 0
M  V30 11056 C 1046.48 5.33163 -0.405157 0
M  V30 11057 C 1047.78 4.60388 -2.46658 0
M  V30 11058 H 1049.47 2.49639 -1.6529 0
M  V30 11059 H 1047.02 1.19987 -0.796182 0
M  V30 11060 H 1048.97 4.21331 0.0764988 0
M  V30 11061 H 1047.7 3.17611 0.760956 0
M  V30 11062 H 1046.35 3.40469 -1.35927 0
M  V30 11063 H 1046 5.00169 0.532955 0
M  V30 11064 H 1045.7 5.78332 -1.03952 0
M  V30 11065 H 1047.23 6.1038 -0.163899 0
M  V30 11066 H 1048.64 5.26276 -2.27389 0
M  V30 11067 H 1047.04 5.16294 -3.05876 0
M  V30 11068 H 1048.11 3.74949 -3.07476 0
M  V30 11069 N 1049.45 0.880621 1.30701 0
M  V30 11070 C 1050.41 0.349087 2.26526 0
M  V30 11071 C 1051.41 -0.505973 1.52632 0
M  V30 11072 O 1052.6 -0.313751 1.71351 0
M  V30 11073 C 1049.74 -0.503023 3.37168 0
M  V30 11074 H 1050.93 1.19516 2.75056 0
M  V30 11075 H 1048.48 0.657107 1.41816 0
M  V30 11076 H 1049.22 -1.36986 2.93948 0
M  V30 11077 H 1049 0.109389 3.91947 0
M  V30 11078 H 1050.49 -0.866845 4.08504 0
M  V30 11079 N 1050.93 -1.4397 0.641131 0
M  V30 11080 C 1052.16 -2.06303 0.157006 0
M  V30 11081 C 1052.57 -1.47981 -1.17248 0
M  V30 11082 O 1051.93 -0.606471 -1.72128 0
M  V30 11083 C 1051.98 -3.6147 0.0468425 0
M  V30 11084 O 1051.7 -4.17622 1.32376 0
M  V30 11085 C 1053.2 -4.40857 -0.464795 0
M  V30 11086 H 1050.42 -0.665684 0.0842946 0
M  V30 11087 H 1052.97 -1.84675 0.878363 0
M  V30 11088 H 1051.12 -3.82325 -0.625006 0
M  V30 11089 H 1051.54 -5.11167 1.17509 0
M  V30 11090 H 1053.01 -5.49813 -0.490862 0
M  V30 11091 H 1053.49 -4.13016 -1.4938 0
M  V30 11092 H 1054.09 -4.24943 0.174146 0
M  V30 11093 N 1052.41 -0.382291 -1.52893 0
M  V30 11094 C 1053.34 0.447829 -2.29165 0
M  V30 11095 C 1054.32 1.06956 -1.32267 0
M  V30 11096 O 1055.5 1.08365 -1.61154 0
M  V30 11097 C 1052.63 1.57902 -3.09329 0
M  V30 11098 C 1051.59 1.08369 -4.14053 0
M  V30 11099 C 1050.91 2.30641 -4.82399 0
M  V30 11100 C 1052.21 0.156591 -5.22065 0
M  V30 11101 H 1053.91 -0.188541 -2.98806 0
M  V30 11102 H 1051.45 -0.0921179 -1.43705 0
M  V30 11103 H 1053.41 2.16652 -3.61442 0
M  V30 11104 H 1052.13 2.24287 -2.37409 0
M  V30 11105 H 1050.79 0.518772 -3.62911 0
M  V30 11106 H 1050.44 2.9552 -4.07034 0
M  V30 11107 H 1050.14 1.98163 -5.53177 0
M  V30 11108 H 1051.66 2.90047 -5.37313 0
M  V30 11109 H 1053.08 0.652065 -5.6958 0
M  V30 11110 H 1051.47 -0.0780978 -6.00049 0
M  V30 11111 H 1052.54 -0.796529 -4.78313 0
M  V30 11112 N 1053.89 1.57202 -0.111913 0
M  V30 11113 C 1054.83 2.14936 0.840908 0
M  V30 11114 C 1055.8 1.07242 1.2684 0
M  V30 11115 O 1056.99 1.35114 1.34718 0
M  V30 11116 C 1054.13 2.74743 2.0883 0
M  V30 11117 C 1053.24 3.96723 1.70982 0
M  V30 11118 C 1052.38 4.4464 2.90634 0
M  V30 11119 C 1051.41 5.59169 2.48992 0
M  V30 11120 N 1050.55 6.01862 3.61534 0
M  V30 11121 H 1055.39 2.96034 0.341735 0
M  V30 11122 H 1052.93 1.4626 0.156993 0
M  V30 11123 H 1054.89 3.07546 2.81907 0
M  V30 11124 H 1053.52 1.96346 2.56218 0
M  V30 11125 H 1052.57 3.70127 0.878072 0
M  V30 11126 H 1053.88 4.79795 1.36373 0
M  V30 11127 H 1053.03 4.79315 3.71944 0
M  V30 11128 H 1051.77 3.60503 3.28464 0
M  V30 11129 H 1050.78 5.24106 1.66113 0
M  V30 11130 H 1052 6.45067 2.12287 0
M  V30 11131 H 1049.95 5.20667 3.99051 0
M  V30 11132 H 1049.87 6.79772 3.30827 0
M  V30 11133 H 1051.13 6.41172 4.43305 0
M  V30 11134 N 1055.36 -0.161842 1.56767 0
M  V30 11135 C 1056.27 -1.21996 2.00385 0
M  V30 11136 C 1057.29 -1.4789 0.916768 0
M  V30 11137 O 1058.47 -1.59852 1.22513 0
M  V30 11138 C 1055.53 -2.53695 2.36305 0
M  V30 11139 C 1054.59 -2.3558 3.58888 0
M  V30 11140 C 1053.82 -3.60998 3.93085 0
M  V30 11141 O 1054.05 -4.6657 3.28129 0
M  V30 11142 O 1052.98 -3.54544 4.86397 0
M  V30 11143 H 1056.81 -0.879701 2.9068 0
M  V30 11144 H 1054.39 -0.369437 1.4476 0
M  V30 11145 H 1056.27 -3.31366 2.60335 0
M  V30 11146 H 1054.95 -2.87281 1.49169 0
M  V30 11147 H 1053.86 -1.55908 3.40064 0
M  V30 11148 H 1055.19 -2.06915 4.46595 0
M  V30 11149 N 1056.84 -1.516 -0.430713 0
M  V30 11150 C 1057.75 -1.76247 -1.54836 0
M  V30 11151 C 1058.77 -0.646985 -1.61524 0
M  V30 11152 O 1059.94 -0.929987 -1.78643 0
M  V30 11153 C 1057.01 -1.88833 -2.90763 0
M  V30 11154 C 1056.07 -3.12701 -2.94137 0
M  V30 11155 C 1055.3 -3.24676 -4.23581 0
M  V30 11156 O 1055.53 -2.42429 -5.16318 0
M  V30 11157 O 1054.46 -4.17697 -4.33374 0
M  V30 11158 H 1058.29 -2.71069 -1.3695 0
M  V30 11159 H 1055.87 -1.36182 -0.614396 0
M  V30 11160 H 1057.75 -1.99057 -3.71422 0
M  V30 11161 H 1056.43 -0.971987 -3.08762 0
M  V30 11162 H 1055.33 -3.0795 -2.1241 0
M  V30 11163 H 1056.67 -4.04045 -2.81084 0
M  V30 11164 N 1058.32 0.686584 -1.41858 0
M  V30 11165 C 1059.27 1.80038 -1.44413 0
M  V30 11166 C 1060.24 1.63415 -0.297427 0
M  V30 11167 O 1061.42 1.84138 -0.499789 0
M  V30 11168 C 1058.56 3.17988 -1.34082 0
M  V30 11169 C 1057.67 3.45979 -2.58693 0
M  V30 11170 C 1056.81 4.73592 -2.4059 0
M  V30 11171 C 1055.85 4.94581 -3.60633 0
M  V30 11172 N 1054.99 6.13426 -3.41545 0
M  V30 11173 H 1059.83 1.77189 -2.396 0
M  V30 11174 H 1057.36 0.865158 -1.18968 0
M  V30 11175 H 1059.32 3.97689 -1.26092 0
M  V30 11176 H 1057.95 3.1999 -0.424975 0
M  V30 11177 H 1057 2.60617 -2.77097 0
M  V30 11178 H 1058.31 3.57386 -3.47961 0
M  V30 11179 H 1057.47 5.61364 -2.30119 0
M  V30 11180 H 1056.21 4.64448 -1.48794 0
M  V30 11181 H 1055.21 4.05254 -3.71549 0
M  V30 11182 H 1056.44 5.05578 -4.53395 0
M  V30 11183 H 1054.38 6.05477 -2.52456 0
M  V30 11184 H 1054.3 6.25641 -4.24393 0
M  V30 11185 H 1055.57 7.03908 -3.34864 0
M  V30 11186 N 1059.8 1.27835 0.921735 0
M  V30 11187 C 1061.21 1.05369 1.19873 0
M  V30 11188 C 1061.41 -0.208997 2.00413 0
M  V30 11189 O 1060.47 -0.912861 2.35421 0
M  V30 11190 C 1061.78 2.29658 1.94108 0
M  V30 11191 C 1063.33 2.34756 2.07023 0
M  V30 11192 C 1063.81 3.5879 2.84664 0
M  V30 11193 N 1065.3 3.59383 2.9223 0
M  V30 11194 C 1066.03 4.52029 3.52785 0
M  V30 11195 N 1065.53 5.54986 4.14683 0
M  V30 11196 N 1067.32 4.39641 3.50246 0
M  V30 11197 H 1059.47 2.08903 0.383819 0
M  V30 11198 H 1061.73 0.919065 0.232429 0
M  V30 11199 H 1061.44 3.21604 1.4235 0
M  V30 11200 H 1061.31 2.35444 2.94696 0
M  V30 11201 H 1063.7 1.43312 2.57965 0
M  V30 11202 H 1063.78 2.32969 1.05636 0
M  V30 11203 H 1063.43 4.50574 2.34404 0
M  V30 11204 H 1063.36 3.57829 3.86349 0
M  V30 11205 H 1065.85 2.84927 2.48244 0
M  V30 11206 H 1066.16 6.21837 4.58845 0
M  V30 11207 H 1064.51 5.58822 4.13211 0
M  V30 11208 H 1067.7 3.58413 3.01094 0
M  V30 11209 H 1067.87 5.12033 3.97148 0
M  V30 11210 N 1061.28 -1.12907 1.09954 0
M  V30 11211 C 1062.51 -1.87866 0.859656 0
M  V30 11212 C 1062.91 -1.79664 -0.593096 0
M  V30 11213 O 1062.26 -1.16499 -1.42034 0
M  V30 11214 C 1062.32 -3.38055 1.22308 0
M  V30 11215 C 1061.98 -3.70035 2.68185 0
M  V30 11216 C 1062.98 -3.68817 3.66428 0
M  V30 11217 C 1060.66 -3.99523 3.04444 0
M  V30 11218 C 1062.66 -3.96639 4.98955 0
M  V30 11219 C 1060.35 -4.27006 4.37161 0
M  V30 11220 C 1061.34 -4.25549 5.34225 0
M  V30 11221 O 1061.03 -4.52354 6.64553 0
M  V30 11222 H 1060.76 -0.601425 0.308649 0
M  V30 11223 H 1063.32 -1.43817 1.46649 0
M  V30 11224 H 1061.55 -3.82634 0.559322 0
M  V30 11225 H 1063.24 -3.94348 0.961479 0
M  V30 11226 H 1064 -3.46104 3.3976 0
M  V30 11227 H 1059.88 -3.99801 2.29521 0
M  V30 11228 H 1063.43 -3.95418 5.74709 0
M  V30 11229 H 1059.32 -4.49192 4.6357 0
M  V30 11230 H 1060.09 -4.69997 6.70108 0
M  V30 11231 N 1062.75 -0.88754 -1.30232 0
M  V30 11232 C 1063.68 -0.372481 -2.3051 0
M  V30 11233 C 1064.66 0.546037 -1.61098 0
M  V30 11234 O 1065.85 0.459345 -1.88689 0
M  V30 11235 C 1062.98 0.411605 -3.44852 0
M  V30 11236 C 1061.93 -0.415383 -4.2598 0
M  V30 11237 C 1061.26 0.495463 -5.324 0
M  V30 11238 C 1062.56 -1.65886 -4.95257 0
M  V30 11239 H 1064.25 -1.21045 -2.7384 0
M  V30 11240 H 1061.8 -0.583498 -1.31648 0
M  V30 11241 H 1063.75 0.782584 -4.1407 0
M  V30 11242 H 1062.48 1.28325 -3.00334 0
M  V30 11243 H 1061.14 -0.768534 -3.58454 0
M  V30 11244 H 1060.78 1.36489 -4.84128 0
M  V30 11245 H 1060.48 -0.0540885 -5.87575 0
M  V30 11246 H 1062.01 0.862901 -6.04472 0
M  V30 11247 H 1063.42 -1.35832 -5.56976 0
M  V30 11248 H 1061.82 -2.14881 -5.60309 0
M  V30 11249 H 1062.89 -2.40181 -4.21237 0
M  V30 11250 N 1064.23 1.43628 -0.648757 0
M  V30 11251 C 1065.16 2.29045 0.0841858 0
M  V30 11252 C 1066.18 1.42262 0.791537 0
M  V30 11253 O 1067.37 1.66243 0.650039 0
M  V30 11254 C 1064.47 3.19075 1.14212 0
M  V30 11255 C 1063.64 4.34372 0.513799 0
M  V30 11256 C 1062.7 5.05307 1.46803 0
M  V30 11257 O 1061.72 5.60729 0.978346 0
M  V30 11258 N 1062.93 5.08393 2.80209 0
M  V30 11259 H 1065.69 2.9259 -0.648948 0
M  V30 11260 H 1063.25 1.54268 -0.491209 0
M  V30 11261 H 1065.24 3.63395 1.78119 0
M  V30 11262 H 1063.81 2.57161 1.77728 0
M  V30 11263 H 1063.03 3.93024 -0.304262 0
M  V30 11264 H 1064.32 5.08745 0.0749871 0
M  V30 11265 H 1063.72 4.64729 3.22557 0
M  V30 11266 H 1062.28 5.56445 3.3943 0
M  V30 11267 N 1065.71 0.390394 1.52688 0
M  V30 11268 C 1066.99 -0.249068 1.94008 0
M  V30 11269 C 1067.37 -1.64263 1.32593 0
M  V30 11270 O 1066.72 -2.23086 0.494448 0
M  V30 11271 C 1066.93 -0.274318 3.4792 0
M  V30 11272 C 1068.27 -0.502743 4.21613 0
M  V30 11273 O 1069.3 -0.35448 3.54432 0
M  V30 11274 O 1068.16 -0.79334 5.40711 0
M  V30 11275 H 1065.25 -0.155116 0.812323 0
M  V30 11276 H 1067.8 0.44498 1.63762 0
M  V30 11277 H 1066.57 0.701766 3.84956 0
M  V30 11278 H 1066.19 -1.01324 3.84473 0
M  V30 11279 N 1067.19 -1.57141 0.120249 0
M  V30 11280 C 1068.44 -1.94413 -0.53727 0
M  V30 11281 C 1068.75 -1.00594 -1.67751 0
M  V30 11282 O 1069.96 -1.27336 -2.39787 0
M  V30 11283 C 1068.41 -3.45521 -1.00714 0
M  V30 11284 C 1068.02 -4.47878 0.104706 0
M  V30 11285 C 1069.76 -3.9171 -1.63596 0
M  V30 11286 C 1067.67 -5.90165 -0.381932 0
M  V30 11287 H 1066.6 -0.725745 -0.204475 0
M  V30 11288 H 1069.25 -1.82404 0.200302 0
M  V30 11289 H 1067.63 -3.52769 -1.79917 0
M  V30 11290 H 1068.81 -4.523 0.881002 0
M  V30 11291 H 1067.12 -4.11448 0.640264 0
M  V30 11292 H 1069.72 -4.95433 -2.01122 0
M  V30 11293 H 1070.06 -3.31756 -2.51483 0
M  V30 11294 H 1070.6 -3.87268 -0.909319 0
M  V30 11295 H 1067.34 -6.53877 0.460921 0
M  V30 11296 H 1066.86 -5.89161 -1.12468 0
M  V30 11297 H 1068.53 -6.41488 -0.842748 0
M  V30 11298 N 1068.67 0.153526 -1.5685 0
M  V30 11299 C 1069.91 0.863728 -1.8415 0
M  V30 11300 C 1070.27 1.79084 -0.703324 0
M  V30 11301 O 1069.56 1.8925 0.299149 0
M  V30 11302 C 1069.75 1.68066 -3.15418 0
M  V30 11303 C 1069.58 0.834145 -4.41896 0
M  V30 11304 C 1068.35 0.502294 -5.02797 0
M  V30 11305 C 1070.55 0.167476 -5.14027 0
M  V30 11306 N 1068.53 -0.3585 -6.12852 0
M  V30 11307 C 1069.9 -0.55373 -6.17522 0
M  V30 11308 C 1071.96 0.0874745 -4.97823 0
M  V30 11309 C 1070.66 -1.34737 -7.06568 0
M  V30 11310 C 1072.69 -0.692888 -5.87327 0
M  V30 11311 C 1072.05 -1.4024 -6.90299 0
M  V30 11312 H 1068.15 0.2941 -0.724589 0
M  V30 11313 H 1070.73 0.129515 -1.94269 0
M  V30 11314 H 1068.9 2.38616 -3.06459 0
M  V30 11315 H 1070.64 2.33353 -3.30649 0
M  V30 11316 H 1067.39 0.836557 -4.66153 0
M  V30 11317 H 1067.82 -0.77973 -6.72495 0
M  V30 11318 H 1072.46 0.621662 -4.18205 0
M  V30 11319 H 1070.18 -1.89284 -7.85619 0
M  V30 11320 H 1073.76 -0.756694 -5.76858 0
M  V30 11321 H 1072.64 -1.99655 -7.58359 0
M  V30 11322 N 1070.14 1.51827 0.422667 0
M  V30 11323 C 1071.37 1.69337 1.19748 0
M  V30 11324 C 1071.79 0.396312 1.83878 0
M  V30 11325 O 1071.15 -0.644976 1.6944 0
M  V30 11326 C 1071.2 2.82082 2.24637 0
M  V30 11327 O 1070.3 2.46708 3.30468 0
M  V30 11328 H 1069.65 0.564154 0.35018 0
M  V30 11329 H 1072.18 1.98465 0.497289 0
M  V30 11330 H 1072.19 3.06599 2.69186 0
M  V30 11331 H 1070.86 3.76195 1.77341 0
M  V30 11332 H 1069.44 2.32815 2.91293 0
M  V30 11333 O 1071.66 -0.568495 1.51163 0
M  V30 11334 H 1072.35 -1.22356 1.50162 0
M  V30 END ATOM
M  V30 BEGIN BOND
M  V30 END BOND
M  V30 END CTAB
M  END
$$$$
