drugbank_target|P07108 Acyl-CoA-binding protein (DB01992; DB03381)
 OpenBabel12092120533D

  0  0  0     0  0            999 V3000
M  V30 BEGIN CTAB
M  V30 COUNTS 1404 1418 0 0 0
M  V30 BEGIN ATOM
M  V30 1 H -0.908 1.98254 -0.117106 0
M  V30 2 N 0 1.576 0 0
M  V30 3 C 0.933 2.03868 1.02534 0
M  V30 4 C 1.911 0.928543 1.3348 0
M  V30 5 O 3.095 1.19667 1.45644 0
M  V30 6 C 0.222 2.43627 2.35294 0
M  V30 7 C -0.732 3.65373 2.2001 0
M  V30 8 S 0.101 5.13292 1.52614 0
M  V30 9 C 1.257 5.56322 2.86805 0
M  V30 10 H 1.49 2.90518 0.631377 0
M  V30 11 H -0.977 1.52953 0.210867 0
M  V30 12 H 0.981 2.67203 3.11629 0
M  V30 13 H -0.358 1.57376 2.7183 0
M  V30 14 H -1.165 3.90944 3.18086 0
M  V30 15 H -1.563 3.418 1.51819 0
M  V30 16 H 0.729 5.58782 3.83104 0
M  V30 17 H 1.672 6.56266 2.65933 0
M  V30 18 H 2.08 4.83886 2.90714 0
M  V30 19 N 1.4781 -0.272755 1.55222 0
M  V30 20 C 2.7031 -1.02683 1.80197 0
M  V30 21 C 3.1281 -1.79142 0.573551 0
M  V30 22 O 2.4861 -1.74917 -0.476849 0
M  V30 23 C 2.5341 -1.9609 3.02624 0
M  V30 24 O 1.6381 -3.04863 2.77727 0
M  V30 25 H 0.9791 -0.293557 0.595584 0
M  V30 26 H 3.5091 -0.30159 2.02365 0
M  V30 27 H 3.5191 -2.38039 3.31363 0
M  V30 28 H 2.1941 -1.39851 3.91682 0
M  V30 29 H 0.7711 -2.67228 2.60084 0
M  V30 30 N 2.9562 -1.48159 -0.537278 0
M  V30 31 C 3.8882 -1.58218 -1.65831 0
M  V30 32 C 4.9012 -0.466948 -1.5596 0
M  V30 33 O 6.0902 -0.73747 -1.62553 0
M  V30 34 C 3.1902 -1.48906 -3.04434 0
M  V30 35 C 2.3632 -2.75343 -3.3986 0
M  V30 36 C 1.4222 -2.59588 -4.57712 0
M  V30 37 O 0.4482 -3.33457 -4.61297 0
M  V30 38 N 1.6502 -1.68724 -5.55439 0
M  V30 39 H 4.4152 -2.54891 -1.57641 0
M  V30 40 H 1.9762 -1.4479 -0.724386 0
M  V30 41 H 3.9682 -1.36072 -3.81139 0
M  V30 42 H 2.5382 -0.602368 -3.06741 0
M  V30 43 H 1.7582 -3.02795 -2.52406 0
M  V30 44 H 3.0462 -3.5924 -3.60311 0
M  V30 45 H 2.4442 -1.07898 -5.55315 0
M  V30 46 H 1.0012 -1.61832 -6.3139 0
M  V30 47 N 4.4343 0.785586 -1.36625 0
M  V30 48 C 5.3973 1.87999 -1.31107 0
M  V30 49 C 6.3973 1.59316 -0.217959 0
M  V30 50 O 7.5873 1.67656 -0.472977 0
M  V30 51 C 4.7193 3.24861 -1.03334 0
M  V30 52 H 5.9123 1.94307 -2.2844 0
M  V30 53 H 3.4653 0.983813 -1.21453 0
M  V30 54 H 4.2003 3.24235 -0.0647432 0
M  V30 55 H 3.9853 3.4707 -1.82441 0
M  V30 56 H 5.4753 4.04929 -1.02088 0
M  V30 57 N 5.9124 1.20967 1.01018 0
M  V30 58 C 6.8224 0.980157 2.13143 0
M  V30 59 C 7.8384 -0.0660665 1.73875 0
M  V30 60 O 9.0144 0.122821 2.01025 0
M  V30 61 C 6.0794 0.54216 3.42435 0
M  V30 62 C 5.1404 1.65999 3.95908 0
M  V30 63 C 4.3734 1.2428 5.19028 0
M  V30 64 O 4.5964 0.114196 5.70286 0
M  V30 65 O 3.5304 2.05271 5.65816 0
M  V30 66 H 7.3564 1.91913 2.35379 0
M  V30 67 H 4.9414 0.994099 1.11526 0
M  V30 68 H 6.8234 0.30744 4.20277 0
M  V30 69 H 5.4984 -0.36815 3.216 0
M  V30 70 H 4.4054 1.94906 3.19316 0
M  V30 71 H 5.7384 2.54753 4.21143 0
M  V30 72 N 7.3905 -1.2043 1.01659 0
M  V30 73 C 8.6375 -1.89797 0.705917 0
M  V30 74 C 8.9655 -1.78848 -0.764439 0
M  V30 75 O 8.2205 -1.16694 -1.57102 0
M  V30 76 C 8.5195 -3.40464 1.08714 0
M  V30 77 C 8.1855 -3.71614 2.5537 0
M  V30 78 C 6.8475 -3.79826 2.95441 0
M  V30 79 C 9.1995 -3.85915 3.50313 0
M  V30 80 C 6.5275 -3.99797 4.29394 0
M  V30 81 C 8.8795 -4.07396 4.83954 0
M  V30 82 C 7.5435 -4.13837 5.23732 0
M  V30 83 H 6.8135 -0.694518 0.258313 0
M  V30 84 H 9.4605 -1.42691 1.27717 0
M  V30 85 H 7.7655 -3.89385 0.434309 0
M  V30 86 H 9.4625 -3.92433 0.824461 0
M  V30 87 H 6.0525 -3.65822 2.23321 0
M  V30 88 H 10.2365 -3.78926 3.20513 0
M  V30 89 H 5.4925 -4.03018 4.59768 0
M  V30 90 H 9.6665 -4.17404 5.57447 0
M  V30 91 H 7.2935 -4.29064 6.27541 0
M  V30 92 N 8.8686 -0.792821 -1.36206 0
M  V30 93 C 9.7786 -0.194808 -2.3379 0
M  V30 94 C 10.7946 0.654869 -1.61206 0
M  V30 95 O 11.9706 0.569856 -1.9317 0
M  V30 96 C 9.0356 0.657721 -3.40404 0
M  V30 97 C 8.0966 -0.210849 -4.28782 0
M  V30 98 C 7.3296 0.601086 -5.30304 0
M  V30 99 O 7.5526 1.83682 -5.40016 0
M  V30 100 O 6.4866 -0.000808277 -6.019 0
M  V30 101 H 10.3126 -1.00172 -2.86704 0
M  V30 102 H 7.8976 -0.554341 -1.38735 0
M  V30 103 H 9.7796 1.14375 -4.05581 0
M  V30 104 H 8.4546 1.44247 -2.89784 0
M  V30 105 H 7.3616 -0.743714 -3.66633 0
M  V30 106 H 8.6946 -0.959195 -4.82763 0
M  V30 107 N 10.3467 1.47872 -0.545128 0
M  V30 108 C 11.2937 2.29849 0.2093 0
M  V30 109 C 12.2637 1.38313 0.919707 0
M  V30 110 O 13.4487 1.67277 0.917772 0
M  V30 111 C 10.5887 3.22019 1.24088 0
M  V30 112 C 9.7017 4.2864 0.537778 0
M  V30 113 C 8.8367 5.07973 1.5536 0
M  V30 114 C 7.8757 6.06381 0.8348 0
M  V30 115 N 7.0127 6.78717 1.79688 0
M  V30 116 H 11.8527 2.93845 -0.49591 0
M  V30 117 H 9.3897 1.44848 -0.256389 0
M  V30 118 H 11.3477 3.73868 1.85144 0
M  V30 119 H 9.9777 2.59914 1.91428 0
M  V30 120 H 9.0297 3.7994 -0.187046 0
M  V30 121 H 10.3417 4.98793 -0.0258907 0
M  V30 122 H 9.4957 5.63912 2.23803 0
M  V30 123 H 8.2347 4.37693 2.15118 0
M  V30 124 H 7.2397 5.49631 0.136388 0
M  V30 125 H 8.4647 6.78665 0.24313 0
M  V30 126 H 6.4107 6.11177 2.38326 0
M  V30 127 H 6.3277 7.44998 1.28505 0
M  V30 128 H 7.5957 7.39237 2.47282 0
M  V30 129 N 11.8248 0.280983 1.55075 0
M  V30 130 C 12.7878 -0.590896 2.21452 0
M  V30 131 C 13.7878 -1.07682 1.19421 0
M  V30 132 O 14.9778 -0.97605 1.44288 0
M  V30 133 C 12.1098 -1.81587 2.88511 0
M  V30 134 H 13.3028 -0.0112554 2.99898 0
M  V30 135 H 10.8558 0.0316438 1.56268 0
M  V30 136 H 11.5908 -2.43587 2.14093 0
M  V30 137 H 11.3758 -1.4753 3.63287 0
M  V30 138 H 12.8658 -2.43575 3.39206 0
M  V30 139 N 13.3029 -1.57598 0.00835791 0
M  V30 140 C 14.2659 -2.07884 -0.965242 0
M  V30 141 C 15.2659 -0.989825 -1.26725 0
M  V30 142 O 16.4559 -1.25218 -1.21104 0
M  V30 143 C 13.5879 -2.52731 -2.28779 0
M  V30 144 H 14.7809 -2.95178 -0.530112 0
M  V30 145 H 12.3339 -1.54458 -0.239283 0
M  V30 146 H 13.0689 -1.68705 -2.76964 0
M  V30 147 H 12.8539 -3.32272 -2.08177 0
M  V30 148 H 14.3439 -2.91933 -2.98605 0
M  V30 149 N 14.781 0.264519 -1.55364 0
M  V30 150 C 15.691 1.34902 -1.91934 0
M  V30 151 C 16.707 1.53595 -0.817593 0
M  V30 152 O 17.883 1.67558 -1.11742 0
M  V30 153 C 14.948 2.68676 -2.19121 0
M  V30 154 C 14.009 2.58657 -3.4263 0
M  V30 155 C 13.242 3.86051 -3.68511 0
M  V30 156 O 13.465 4.87126 -2.96757 0
M  V30 157 O 12.399 3.85744 -4.62045 0
M  V30 158 H 16.225 1.06883 -2.8427 0
M  V30 159 H 13.81 0.463775 -1.42019 0
M  V30 160 H 15.692 3.47759 -2.37995 0
M  V30 161 H 14.367 2.96463 -1.29966 0
M  V30 162 H 13.274 1.7792 -3.29082 0
M  V30 163 H 14.607 2.35818 -4.32031 0
M  V30 164 N 16.2591 1.48442 0.529413 0
M  V30 165 C 17.1691 1.6569 1.66084 0
M  V30 166 C 18.1851 0.539432 1.65427 0
M  V30 167 O 19.3611 0.810572 1.84368 0
M  V30 168 C 16.4261 1.69315 3.02545 0
M  V30 169 C 15.4871 2.92694 3.14052 0
M  V30 170 C 14.7201 2.96137 4.44003 0
M  V30 171 O 14.9431 2.07973 5.31134 0
M  V30 172 O 13.8771 3.88312 4.59888 0
M  V30 173 H 17.7031 2.61483 1.54469 0
M  V30 174 H 15.2881 1.3185 0.702567 0
M  V30 175 H 17.1701 1.74217 3.83701 0
M  V30 176 H 15.8451 0.766966 3.14483 0
M  V30 177 H 14.7521 2.93324 2.32189 0
M  V30 178 H 16.0851 3.84699 3.0703 0
M  V30 179 N 17.7372 -0.778329 1.37039 0
M  V30 180 C 18.9832 -1.53892 1.32079 0
M  V30 181 C 19.3162 -1.9396 -0.0965386 0
M  V30 182 O 18.5912 -1.63568 -1.05242 0
M  V30 183 C 18.8742 -2.80847 2.25382 0
M  V30 184 C 18.7272 -2.47076 3.75864 0
M  V30 185 C 20.0462 -3.82741 2.1725 0
M  V30 186 H 17.1652 -0.558303 0.48111 0
M  V30 187 H 19.8072 -0.893397 1.67685 0
M  V30 188 H 17.9572 -3.35931 1.95148 0
M  V30 189 H 19.6292 -1.97957 4.16666 0
M  V30 190 H 17.8722 -1.79863 3.94755 0
M  V30 191 H 18.5432 -3.37798 4.36574 0
M  V30 192 H 21.0192 -3.37133 2.43887 0
M  V30 193 H 19.8952 -4.69303 2.84686 0
M  V30 194 H 20.1562 -4.2652 1.16331 0
M  V30 195 N 19.2153 -1.21501 -1.00376 0
M  V30 196 C 20.6313 -0.972629 -1.26539 0
M  V30 197 C 20.8313 0.340257 -1.98606 0
M  V30 198 O 19.8873 1.06561 -2.28913 0
M  V30 199 C 21.2003 -2.16404 -2.08781 0
M  V30 200 C 22.7483 -2.20643 -2.22004 0
M  V30 201 C 23.2233 -3.39306 -3.07629 0
M  V30 202 N 24.7143 -3.39401 -3.15217 0
M  V30 203 C 25.4493 -4.27867 -3.81729 0
M  V30 204 N 24.9453 -5.26533 -4.5026 0
M  V30 205 N 26.7383 -4.15672 -3.78382 0
M  V30 206 H 18.8893 -2.05929 -0.520281 0
M  V30 207 H 21.1523 -0.901803 -0.292328 0
M  V30 208 H 20.8583 -3.11554 -1.63178 0
M  V30 209 H 20.7323 -2.15567 -3.09533 0
M  V30 210 H 23.1193 -1.26048 -2.66825 0
M  V30 211 H 23.2003 -2.25523 -1.20718 0
M  V30 212 H 22.8443 -4.34195 -2.63509 0
M  V30 213 H 22.7743 -3.31665 -4.09031 0
M  V30 214 H 25.2653 -2.67997 -2.66432 0
M  V30 215 H 25.5783 -5.90337 -4.98721 0
M  V30 216 H 23.9233 -5.30457 -4.49044 0
M  V30 217 H 27.1143 -3.3785 -3.23998 0
M  V30 218 H 27.2873 -4.84825 -4.2994 0
M  V30 219 N 20.6934 1.19889 -1.02296 0
M  V30 220 C 21.6434 2.20777 -0.56934 0
M  V30 221 C 22.6274 1.56379 0.378741 0
M  V30 222 O 23.8194 1.75859 0.200673 0
M  V30 223 C 20.9484 3.43196 0.0845077 0
M  V30 224 C 20.0344 4.14749 -0.88566 0
M  V30 225 N 20.4254 4.62584 -2.04573 0
M  V30 226 C 18.7234 4.40347 -0.707835 0
M  V30 227 C 19.4244 5.17466 -2.65714 0
M  V30 228 N 18.4004 5.0791 -1.93723 0
M  V30 229 H 22.2024 2.55434 -1.45365 0
M  V30 230 H 19.7164 1.35897 -0.88915 0
M  V30 231 H 21.7134 4.14707 0.427067 0
M  V30 232 H 20.3734 3.10042 0.964574 0
M  V30 233 H 21.3844 4.57597 -2.4254 0
M  V30 234 H 18.0614 4.17317 0.12364 0
M  V30 235 H 19.4514 5.64808 -3.63925 0
M  V30 236 N 22.1715 0.800033 1.35784 0
M  V30 237 C 23.1015 0.220184 2.3246 0
M  V30 238 C 24.0825 -0.65073 1.57161 0
M  V30 239 O 25.2675 -0.582359 1.85263 0
M  V30 240 C 22.3975 -0.637353 3.41402 0
M  V30 241 C 21.3515 0.134531 4.27789 0
M  V30 242 C 20.6775 -0.844285 5.27992 0
M  V30 243 C 21.9775 1.32979 5.05088 0
M  V30 244 H 23.6715 1.02787 2.81203 0
M  V30 245 H 21.2175 0.495717 1.35199 0
M  V30 246 H 23.1705 -1.05302 4.08031 0
M  V30 247 H 21.8945 -1.47785 2.91251 0
M  V30 248 H 20.5535 0.531296 3.6273 0
M  V30 249 H 20.2015 -1.68011 4.74111 0
M  V30 250 H 19.9015 -0.332184 5.8666 0
M  V30 251 H 21.4255 -1.2583 5.97494 0
M  V30 252 H 22.8395 0.98934 5.64699 0
M  V30 253 H 21.2365 1.77593 5.7322 0
M  V30 254 H 22.3065 2.11978 4.36111 0
M  V30 255 N 23.6496 -1.47581 0.552962 0
M  V30 256 C 24.5966 -2.29957 -0.197108 0
M  V30 257 C 25.5666 -1.38799 -0.912359 0
M  V30 258 O 26.7516 -1.67761 -0.908888 0
M  V30 259 C 23.8916 -3.22672 -1.22379 0
M  V30 260 C 23.0046 -4.28919 -0.515038 0
M  V30 261 C 22.1396 -5.0879 -1.52664 0
M  V30 262 C 21.1786 -6.06815 -0.802631 0
M  V30 263 N 20.3156 -6.7966 -1.76086 0
M  V30 264 H 25.1556 -2.93578 0.511486 0
M  V30 265 H 22.6926 -1.4471 0.264067 0
M  V30 266 H 24.6506 -3.74845 -1.83159 0
M  V30 267 H 23.2806 -2.60925 -1.90047 0
M  V30 268 H 22.3326 -3.79835 0.207192 0
M  V30 269 H 23.6446 -4.98773 0.0523425 0
M  V30 270 H 22.7986 -5.65091 -2.20809 0
M  V30 271 H 21.5376 -4.38828 -2.12794 0
M  V30 272 H 20.5426 -5.49695 -0.107238 0
M  V30 273 H 21.7676 -6.78784 -0.207135 0
M  V30 274 H 19.7136 -6.12432 -2.35081 0
M  V30 275 H 19.6306 -7.45669 -1.24552 0
M  V30 276 H 20.8986 -7.40538 -2.43359 0
M  V30 277 N 25.1277 -0.289203 -1.54924 0
M  V30 278 C 26.3557 0.326463 -2.04308 0
M  V30 279 C 26.7707 1.48413 -1.16701 0
M  V30 280 O 26.1277 1.81507 -0.190087 0
M  V30 281 C 26.1787 0.794014 -3.52672 0
M  V30 282 O 25.8997 -0.317564 -4.36948 0
M  V30 283 C 27.4007 1.47605 -4.18004 0
M  V30 284 H 24.6207 0.0726272 -0.667058 0
M  V30 285 H 27.1647 -0.425401 -2.00026 0
M  V30 286 H 25.3197 1.49593 -3.57352 0
M  V30 287 H 25.7337 0.0443186 -5.24481 0
M  V30 288 H 27.2077 1.75447 -5.23376 0
M  V30 289 H 27.6847 2.41224 -3.67025 0
M  V30 290 H 28.2907 0.81762 -4.17367 0
M  V30 291 N 26.6058 1.57591 -0.0167156 0
M  V30 292 C 27.5528 2.09462 0.969251 0
M  V30 293 C 28.5228 0.99381 1.33089 0
M  V30 294 O 29.7078 1.26726 1.42636 0
M  V30 295 C 26.8478 2.61622 2.25051 0
M  V30 296 C 25.9608 3.85666 1.94642 0
M  V30 297 C 25.0958 4.26266 3.16972 0
M  V30 298 C 24.1348 5.43101 2.82326 0
M  V30 299 N 23.2718 5.78915 3.97243 0
M  V30 300 H 28.1118 2.93428 0.519997 0
M  V30 301 H 25.6488 1.45044 0.245087 0
M  V30 302 H 27.6068 2.89949 2.99976 0
M  V30 303 H 26.2368 1.80505 2.67615 0
M  V30 304 H 25.2888 3.64145 1.10013 0
M  V30 305 H 26.6008 4.70678 1.65117 0
M  V30 306 H 25.7548 4.55963 4.00228 0
M  V30 307 H 24.4938 3.39996 3.49648 0
M  V30 308 H 23.4988 5.1311 1.97479 0
M  V30 309 H 24.7238 6.3106 2.50879 0
M  V30 310 H 22.6698 4.95602 4.29785 0
M  V30 311 H 22.5868 6.58539 3.71299 0
M  V30 312 H 23.8548 6.13212 4.81239 0
M  V30 313 N 28.0839 -0.256276 1.55502 0
M  V30 314 C 29.4949 -0.826068 1.67431 0
M  V30 315 C 29.8459 -1.86396 0.612446 0
M  V30 316 O 28.9709 -2.15031 -0.243025 0
M  V30 317 C 29.5659 -1.50512 3.03532 0
M  V30 318 C 28.1249 -2.02273 3.17431 0
M  V30 319 C 27.2719 -0.870548 2.63281 0
M  V30 320 H 30.2229 -0.0322728 1.58667 0
M  V30 321 H 30.2439 -2.37279 2.97454 0
M  V30 322 H 29.7559 -0.749484 3.80794 0
M  V30 323 H 27.8569 -2.80746 2.44974 0
M  V30 324 H 27.9699 -2.22655 4.24219 0
M  V30 325 H 26.3339 -1.26851 2.20864 0
M  V30 326 H 27.1169 -0.128149 3.43061 0
M  V30 327 N 29.562 -1.4872 -0.521534 0
M  V30 328 C 30.787 -1.61101 -1.30618 0
M  V30 329 C 31.212 -0.274611 -1.86085 0
M  V30 330 O 30.57 0.754937 -1.64834 0
M  V30 331 C 30.618 -2.66709 -2.4269 0
M  V30 332 O 29.722 -2.24456 -3.45967 0
M  V30 333 H 29.063 -0.539921 -0.386499 0
M  V30 334 H 31.593 -1.94767 -0.626645 0
M  V30 335 H 31.603 -2.88245 -2.88754 0
M  V30 336 H 30.278 -3.63727 -2.01682 0
M  V30 337 H 28.855 -2.13168 -3.05964 0
M  V30 338 N 31.0401 0.771051 -1.3745 0
M  V30 339 C 32.3171 1.519 -1.23231 0
M  V30 340 C 32.6971 2.10383 0.173809 0
M  V30 341 O 32.0451 1.95583 1.18151 0
M  V30 342 C 32.2551 2.59933 -2.32886 0
M  V30 343 C 33.6031 3.27316 -2.70461 0
M  V30 344 O 34.6271 2.70228 -2.32068 0
M  V30 345 O 33.4861 4.30531 -3.36608 0
M  V30 346 H 30.5801 0.672803 -0.480901 0
M  V30 347 H 33.1261 0.807957 -1.49232 0
M  V30 348 H 31.8981 2.14842 -3.27045 0
M  V30 349 H 31.5211 3.38637 -2.08353 0
M  V30 350 N 32.5182 1.22032 0.997298 0
M  V30 351 C 33.4282 1.00271 2.12092 0
M  V30 352 C 34.4442 -0.047621 1.73935 0
M  V30 353 O 35.6202 0.144136 2.00884 0
M  V30 354 C 32.6852 0.578449 3.4184 0
M  V30 355 C 31.7462 1.70189 3.94125 0
M  V30 356 C 30.9792 1.29778 5.17681 0
M  V30 357 O 31.2022 0.174676 5.70132 0
M  V30 358 O 30.1362 2.11261 5.63607 0
M  V30 359 H 33.9622 1.94398 2.3333 0
M  V30 360 H 31.5472 1.00587 1.10465 0
M  V30 361 H 33.4292 0.351998 4.19927 0
M  V30 362 H 32.1042 -0.334019 3.21972 0
M  V30 363 H 31.0112 1.98282 3.1723 0
M  V30 364 H 32.3442 2.59206 4.18417 0
M  V30 365 N 33.9963 -1.19345 1.0293 0
M  V30 366 C 34.9063 -2.26245 0.620515 0
M  V30 367 C 35.9223 -1.70486 -0.347928 0
M  V30 368 O 37.0983 -2.00347 -0.205704 0
M  V30 369 C 34.1633 -3.46693 -0.0218957 0
M  V30 370 C 33.2243 -4.17632 0.994102 0
M  V30 371 C 32.4573 -5.32329 0.382253 0
M  V30 372 O 32.6803 -5.64552 -0.814676 0
M  V30 373 O 31.6143 -5.91664 1.10531 0
M  V30 374 H 35.4403 -2.63453 1.51083 0
M  V30 375 H 33.0253 -1.26207 0.799513 0
M  V30 376 H 34.9073 -4.19683 -0.380072 0
M  V30 377 H 33.5823 -3.11333 -0.886209 0
M  V30 378 H 32.4893 -3.4676 1.40387 0
M  V30 379 H 33.8223 -4.56964 1.8288 0
M  V30 380 N 35.4744 -0.807222 -1.35358 0
M  V30 381 C 36.4074 -0.163572 -2.27613 0
M  V30 382 C 37.3854 0.670817 -1.48118 0
M  V30 383 O 38.5694 0.63796 -1.77376 0
M  V30 384 C 35.6964 0.773015 -3.29761 0
M  V30 385 C 34.7424 0.0181653 -4.26496 0
M  V30 386 S 35.5754 -1.31831 -5.19019 0
M  V30 387 C 36.7314 -0.38619 -6.24707 0
M  V30 388 H 36.9644 -0.945757 -2.81856 0
M  V30 389 H 34.4974 -0.602315 -1.42167 0
M  V30 390 H 36.4554 1.30788 -3.89108 0
M  V30 391 H 35.1164 1.52859 -2.74396 0
M  V30 392 H 34.3094 0.729534 -4.98692 0
M  V30 393 H 33.9114 -0.446761 -3.71322 0
M  V30 394 H 36.2034 0.428295 -6.76145 0
M  V30 395 H 37.1464 -1.07736 -6.99856 0
M  V30 396 H 37.5544 0.018398 -5.64497 0
M  V30 397 N 36.9525 1.47285 -0.560781 0
M  V30 398 C 37.8825 2.32857 0.173105 0
M  V30 399 C 38.8635 1.44009 0.905281 0
M  V30 400 O 40.0485 1.7286 0.885046 0
M  V30 401 C 37.1785 3.25861 1.20133 0
M  V30 402 C 36.1325 4.23978 0.585388 0
M  V30 403 C 35.4585 5.06332 1.7185 0
M  V30 404 C 36.7585 5.20242 -0.463178 0
M  V30 405 H 38.4525 2.94466 -0.541307 0
M  V30 406 H 35.9985 1.41601 -0.261764 0
M  V30 407 H 37.9515 3.84569 1.72293 0
M  V30 408 H 36.6755 2.62315 1.94573 0
M  V30 409 H 35.3345 3.66501 0.085054 0
M  V30 410 H 34.9825 4.39186 2.45203 0
M  V30 411 H 34.6825 5.72762 1.31213 0
M  V30 412 H 36.2065 5.67899 2.24329 0
M  V30 413 H 37.6205 5.73293 -0.027502 0
M  V30 414 H 36.0175 5.94896 -0.788627 0
M  V30 415 H 37.0875 4.65504 -1.35773 0
M  V30 416 N 38.4306 0.297415 1.54768 0
M  V30 417 C 39.6776 -0.312913 2.00068 0
M  V30 418 C 40.0056 -1.54171 1.18582 0
M  V30 419 O 39.2606 -1.94108 0.249133 0
M  V30 420 C 39.5596 -0.717561 3.50123 0
M  V30 421 C 39.2256 0.409095 4.4904 0
M  V30 422 C 37.8876 0.718399 4.75807 0
M  V30 423 C 40.2396 1.16717 5.07963 0
M  V30 424 C 37.5676 1.78896 5.5876 0
M  V30 425 C 39.9196 2.22762 5.92081 0
M  V30 426 C 38.5836 2.54303 6.1716 0
M  V30 427 H 37.8536 -0.114503 0.7321 0
M  V30 428 H 40.5006 0.415767 1.86932 0
M  V30 429 H 38.8056 -1.52627 3.60849 0
M  V30 430 H 40.5026 -1.20091 3.82595 0
M  V30 431 H 37.0926 0.157918 4.28309 0
M  V30 432 H 41.2766 0.941466 4.87289 0
M  V30 433 H 36.5326 2.0381 5.7643 0
M  V30 434 H 40.7066 2.81962 6.36765 0
M  V30 435 H 38.3336 3.3739 6.81229 0
M  V30 436 N 39.9087 -1.5758 0.0250728 0
M  V30 437 C 41.1577 -1.90811 -0.653767 0
M  V30 438 C 41.4707 -0.90273 -1.73523 0
M  V30 439 O 42.6767 -1.12614 -2.47043 0
M  V30 440 C 41.1327 -3.38804 -1.21409 0
M  V30 441 C 40.7407 -4.47692 -0.166126 0
M  V30 442 C 42.4847 -3.81108 -1.86967 0
M  V30 443 C 40.3917 -5.86779 -0.737856 0
M  V30 444 H 39.3217 -0.712063 -0.247956 0
M  V30 445 H 41.9727 -1.83281 0.0897137 0
M  V30 446 H 40.3547 -3.41252 -2.00905 0
M  V30 447 H 41.5287 -4.56797 0.606079 0
M  V30 448 H 39.8437 -4.14565 0.390466 0
M  V30 449 H 42.4407 -4.82375 -2.30692 0
M  V30 450 H 42.7837 -3.15953 -2.71071 0
M  V30 451 H 43.3167 -3.81065 -1.14167 0
M  V30 452 H 40.0557 -6.55468 0.0649577 0
M  V30 453 H 39.5757 -5.81288 -1.47864 0
M  V30 454 H 41.2547 -6.35223 -1.22884 0
M  V30 455 N 41.3868 0.248026 -1.55636 0
M  V30 456 C 42.6168 0.992367 -1.81206 0
M  V30 457 C 43.0248 1.7949 -0.598324 0
M  V30 458 O 42.3678 1.78292 0.442434 0
M  V30 459 C 42.4298 1.97926 -3.00109 0
M  V30 460 C 42.0938 1.36377 -4.36177 0
M  V30 461 C 43.0908 0.76682 -5.14214 0
M  V30 462 C 40.7758 1.38347 -4.82872 0
M  V30 463 C 42.7698 0.197778 -6.37093 0
M  V30 464 C 40.4568 0.810574 -6.057 0
M  V30 465 C 41.4548 0.218754 -6.8265 0
M  V30 466 O 41.1428 -0.345298 -8.03158 0
M  V30 467 H 40.8748 0.297704 -0.606917 0
M  V30 468 H 43.4288 0.276517 -2.0353 0
M  V30 469 H 41.6588 2.73339 -2.73538 0
M  V30 470 H 43.3478 2.58694 -3.12781 0
M  V30 471 H 44.1138 0.744114 -4.79258 0
M  V30 472 H 39.9928 1.8335 -4.2297 0
M  V30 473 H 43.5368 -0.264788 -6.97097 0
M  V30 474 H 39.4338 0.830604 -6.40134 0
M  V30 475 H 40.2018 -0.237055 -8.18157 0
M  V30 476 N 42.8649 1.48995 0.513639 0
M  V30 477 C 44.1129 1.57531 1.26604 0
M  V30 478 C 44.4339 0.258236 1.93283 0
M  V30 479 O 43.7039 -0.721502 1.8213 0
M  V30 480 H 42.2839 0.580387 0.470276 0
M  V30 481 H 44.9459 1.85552 0.596373 0
M  V30 482 H 44.0419 2.36486 2.03669 0
M  V30 483 N 44.343 -0.763751 1.37857 0
M  V30 484 C 45.293 -1.86765 1.30777 0
M  V30 485 C 46.277 -1.59726 0.194015 0
M  V30 486 O 47.469 -1.7172 0.42911 0
M  V30 487 C 44.598 -3.24343 1.12502 0
M  V30 488 C 43.684 -3.57307 2.28456 0
M  V30 489 N 44.075 -3.61398 3.53871 0
M  V30 490 C 42.373 -3.87517 2.20786 0
M  V30 491 C 43.074 -3.91339 4.30382 0
M  V30 492 N 42.05 -4.07649 3.59615 0
M  V30 493 H 45.852 -1.88191 2.25746 0
M  V30 494 H 43.366 -0.9606 1.30944 0
M  V30 495 H 45.363 -4.03327 1.05514 0
M  V30 496 H 44.023 -3.24175 0.184574 0
M  V30 497 H 45.034 -3.43407 3.87675 0
M  V30 498 H 41.711 -3.95125 1.34844 0
M  V30 499 H 43.101 -4.01213 5.3896 0
M  V30 500 N 45.8211 -1.22559 -0.990812 0
M  V30 501 C 47.0511 -1.07623 -1.76355 0
M  V30 502 C 47.4591 0.37601 -1.85426 0
M  V30 503 O 46.8021 1.27228 -1.32509 0
M  V30 504 C 46.8641 -1.61507 -3.21179 0
M  V30 505 C 46.5281 -3.10146 -3.35646 0
M  V30 506 C 47.5251 -4.07553 -3.22796 0
M  V30 507 C 45.2101 -3.49644 -3.60631 0
M  V30 508 C 47.2041 -5.42442 -3.34716 0
M  V30 509 C 44.8911 -4.84682 -3.72192 0
M  V30 510 C 45.8891 -5.8089 -3.59243 0
M  V30 511 O 45.5771 -7.13476 -3.70415 0
M  V30 512 H 45.3091 -0.377745 -0.560611 0
M  V30 513 H 47.8631 -1.62658 -1.25425 0
M  V30 514 H 46.0931 -1.00881 -3.73309 0
M  V30 515 H 47.7821 -1.42202 -3.80175 0
M  V30 516 H 48.5481 -3.78381 -3.03403 0
M  V30 517 H 44.4271 -2.75282 -3.69785 0
M  V30 518 H 47.9711 -6.17518 -3.24526 0
M  V30 519 H 43.8681 -5.13534 -3.91092 0
M  V30 520 H 44.6361 -7.21083 -3.87275 0
M  V30 521 N 47.2992 1.18797 -1.03562 0
M  V30 522 C 48.2462 2.22253 -0.622259 0
M  V30 523 C 49.2162 1.61987 0.36736 0
M  V30 524 O 50.4012 1.88986 0.262492 0
M  V30 525 C 47.5412 3.45097 0.0138462 0
M  V30 526 C 46.6542 4.19722 -1.02263 0
M  V30 527 C 45.7892 5.30009 -0.355573 0
M  V30 528 C 44.8282 5.96399 -1.37749 0
M  V30 529 N 43.9652 6.98234 -0.735766 0
M  V30 530 H 48.8052 2.56968 -1.50903 0
M  V30 531 H 46.3422 1.26245 -0.755017 0
M  V30 532 H 48.3002 4.15279 0.399948 0
M  V30 533 H 46.9302 3.11018 0.864158 0
M  V30 534 H 45.9822 3.48418 -1.52673 0
M  V30 535 H 47.2942 4.65227 -1.79903 0
M  V30 536 H 46.4482 6.0664 0.0850095 0
M  V30 537 H 45.1872 4.85592 0.452967 0
M  V30 538 H 44.1922 5.18512 -1.82826 0
M  V30 539 H 45.4172 6.42899 -2.18764 0
M  V30 540 H 43.3632 6.55979 0.0525597 0
M  V30 541 H 43.2802 7.41965 -1.44995 0
M  V30 542 H 44.5482 7.78845 -0.31941 0
M  V30 543 N 48.7773 0.814389 1.34928 0
M  V30 544 C 49.7093 0.187834 2.28429 0
M  V30 545 C 50.7223 -0.617374 1.5064 0
M  V30 546 O 51.9113 -0.448454 1.72775 0
M  V30 547 C 49.0113 -0.755962 3.30361 0
M  V30 548 C 48.1843 0.00456686 4.374 0
M  V30 549 C 47.2433 -0.858876 5.19143 0
M  V30 550 O 46.2693 -0.306968 5.68372 0
M  V30 551 N 47.4713 -2.17988 5.38016 0
M  V30 552 H 50.2363 0.991105 2.82838 0
M  V30 553 H 47.7973 0.670561 1.4736 0
M  V30 554 H 49.7893 -1.338 3.81942 0
M  V30 555 H 48.3593 -1.46001 2.7641 0
M  V30 556 H 47.5793 0.767865 3.86649 0
M  V30 557 H 48.8673 0.528422 5.06049 0
M  V30 558 H 48.2653 -2.65212 4.99679 0
M  V30 559 H 46.8223 -2.71098 5.92747 0
M  V30 560 N 50.2554 -1.46986 0.568584 0
M  V30 561 C 51.2184 -2.28624 -0.162366 0
M  V30 562 C 52.2184 -1.37596 -0.832103 0
M  V30 563 O 53.4084 -1.60115 -0.68622 0
M  V30 564 C 50.5404 -3.17596 -1.23878 0
M  V30 565 H 51.7334 -2.94722 0.554899 0
M  V30 566 H 49.2864 -1.52863 0.325976 0
M  V30 567 H 50.0214 -2.56214 -1.98808 0
M  V30 568 H 49.8064 -3.846 -0.763219 0
M  V30 569 H 51.2964 -3.79078 -1.75185 0
M  V30 570 N 51.7335 -0.305618 -1.54608 0
M  V30 571 C 52.9615 0.304775 -2.04643 0
M  V30 572 C 53.3765 1.47167 -1.18268 0
M  V30 573 O 52.7335 1.81296 -0.209328 0
M  V30 574 C 52.7845 0.756564 -3.53495 0
M  V30 575 O 52.5055 -0.36389 -4.36586 0
M  V30 576 C 54.0065 1.43163 -4.19546 0
M  V30 577 H 51.2265 0.0655481 -0.667791 0
M  V30 578 H 53.7705 -0.446592 -1.99564 0
M  V30 579 H 51.9255 1.45794 -3.58919 0
M  V30 580 H 52.3395 -0.0113121 -5.24499 0
M  V30 581 H 53.8135 1.69886 -5.25207 0
M  V30 582 H 54.2905 2.37318 -3.69563 0
M  V30 583 H 54.8965 0.773307 -4.18211 0
M  V30 584 N 53.2116 1.57565 -0.0334293 0
M  V30 585 C 54.4576 1.92262 0.645226 0
M  V30 586 C 54.7906 0.910543 1.71531 0
M  V30 587 O 54.0656 -0.066099 1.94388 0
M  V30 588 C 54.3486 3.37422 1.2577 0
M  V30 589 C 54.2016 4.49369 0.196891 0
M  V30 590 C 55.5206 3.82628 2.17449 0
M  V30 591 H 52.6396 0.699171 0.233085 0
M  V30 592 H 55.2816 1.89779 -0.0915694 0
M  V30 593 H 53.4316 3.39669 1.88566 0
M  V30 594 H 55.1036 4.59254 -0.433962 0
M  V30 595 H 53.3466 4.31168 -0.477137 0
M  V30 596 H 54.0176 5.47978 0.665124 0
M  V30 597 H 56.4936 3.82145 1.64634 0
M  V30 598 H 55.3696 4.84883 2.57254 0
M  V30 599 H 55.6306 3.18376 3.0674 0
M  V30 600 N 54.6897 -0.239769 1.55765 0
M  V30 601 C 55.9377 -0.964892 1.77579 0
M  V30 602 C 56.2587 -1.85582 0.598699 0
M  V30 603 O 55.5287 -1.92075 -0.385226 0
M  V30 604 H 54.1087 -0.359265 0.654933 0
M  V30 605 H 56.7707 -0.256001 1.93211 0
M  V30 606 H 55.8667 -1.58243 2.69009 0
M  V30 607 N 56.1678 -1.49265 -0.50573 0
M  V30 608 C 57.4448 -1.49012 -1.26707 0
M  V30 609 C 57.8248 -0.215205 -2.1 0
M  V30 610 O 57.1728 0.802547 -2.13943 0
M  V30 611 C 57.3828 -2.7663 -2.12783 0
M  V30 612 C 58.7308 -3.25932 -2.72127 0
M  V30 613 O 59.7548 -2.77715 -2.23054 0
M  V30 614 O 58.6138 -4.09897 -3.61451 0
M  V30 615 H 55.7078 -0.596197 -0.57313 0
M  V30 616 H 58.2538 -1.61524 -0.52039 0
M  V30 617 H 57.0258 -3.60916 -1.5118 0
M  V30 618 H 56.6488 -2.66956 -2.94653 0
M  V30 619 N 57.6459 0.756429 -1.3826 0
M  V30 620 C 58.8949 1.51082 -1.3363 0
M  V30 621 C 59.2079 1.95467 0.0720068 0
M  V30 622 O 60.4139 2.7043 0.240834 0
M  V30 623 C 58.8699 2.72893 -2.34644 0
M  V30 624 C 58.4779 2.35544 -3.81081 0
M  V30 625 C 60.2219 3.50791 -2.39052 0
M  V30 626 C 58.1289 3.53948 -4.73787 0
M  V30 627 H 57.0589 0.56727 -0.49671 0
M  V30 628 H 59.7099 0.827147 -1.638 0
M  V30 629 H 58.0919 3.43227 -1.97513 0
M  V30 630 H 59.2659 1.72894 -4.27135 0
M  V30 631 H 57.5809 1.70786 -3.79764 0
M  V30 632 H 60.1779 4.38823 -3.05513 0
M  V30 633 H 60.5209 3.91745 -1.40861 0
M  V30 634 H 61.0539 2.87467 -2.74968 0
M  V30 635 H 57.7929 3.18064 -5.73163 0
M  V30 636 H 57.3129 4.15651 -4.32428 0
M  V30 637 H 58.9919 4.20566 -4.91663 0
M  V30 638 N 59.124 1.23083 0.984299 0
M  V30 639 C 60.072 1.00593 2.09723 0
M  V30 640 C 61.066 -0.0538014 1.69315 0
M  V30 641 O 62.272 0.0993719 1.79725 0
M  V30 642 H 58.647 0.30817 0.685956 0
M  V30 643 H 60.618 1.95012 2.2586 0
M  V30 644 C 59.367 0.609601 3.42314 0
M  V30 645 H 58.69 1.41675 3.73856 0
M  V30 646 H 60.13 0.491726 4.21139 0
M  V30 647 C 58.589 -0.681745 3.2993 0
M  V30 648 O 59.119 -1.73192 3.62446 0
M  V30 649 N 57.325 -0.656178 2.83095 0
M  V30 650 H 56.872 0.198759 2.56832 0
M  V30 651 H 56.83 -1.52044 2.75191 0
M  V30 652 N 60.6021 -1.18246 1.0419 0
M  V30 653 C 61.8301 -1.92195 0.766072 0
M  V30 654 C 62.2451 -1.76247 -0.676933 0
M  V30 655 O 61.6021 -1.09293 -1.46155 0
M  V30 656 C 61.6531 -3.43568 1.12442 0
M  V30 657 O 61.3741 -3.59015 2.51078 0
M  V30 658 C 62.8751 -4.34613 0.873275 0
M  V30 659 H 60.0951 -0.610114 0.279288 0
M  V30 660 H 62.6391 -1.50007 1.38989 0
M  V30 661 H 60.7941 -3.8354 0.545542 0
M  V30 662 H 61.2081 -4.5273 2.64831 0
M  V30 663 H 62.6821 -5.39374 1.17385 0
M  V30 664 H 63.1591 -4.38781 -0.191909 0
M  V30 665 H 63.7651 -4.00341 1.43551 0
M  V30 666 N 62.0802 -0.821533 -1.34494 0
M  V30 667 C 62.9902 -0.244355 -2.33324 0
M  V30 668 C 64.0062 0.620527 -1.62559 0
M  V30 669 O 65.1822 0.528754 -1.94335 0
M  V30 670 C 62.2472 0.585368 -3.41723 0
M  V30 671 C 61.3082 -0.301752 -4.28238 0
M  V30 672 C 60.5412 0.488466 -5.3146 0
M  V30 673 O 60.7642 1.72186 -5.4379 0
M  V30 674 O 59.6982 -0.12848 -6.01763 0
M  V30 675 H 63.5242 -1.06231 -2.84515 0
M  V30 676 H 61.1092 -0.583645 -1.37528 0
M  V30 677 H 62.9912 1.05747 -4.07916 0
M  V30 678 H 61.6662 1.38068 -2.92778 0
M  V30 679 H 60.5732 -0.821315 -3.64973 0
M  V30 680 H 61.9062 -1.06138 -4.8062 0
M  V30 681 N 63.5583 1.46682 -0.576371 0
M  V30 682 C 64.9743 1.57822 -0.237562 0
M  V30 683 C 65.1743 1.57237 1.26011 0
M  V30 684 O 64.2303 1.48596 2.04146 0
M  V30 685 C 65.5433 2.87499 -0.881168 0
M  V30 686 C 67.0913 3.01119 -0.85417 0
M  V30 687 C 67.5663 4.33524 -1.4772 0
M  V30 688 N 69.0573 4.40207 -1.44125 0
M  V30 689 C 69.7923 5.4126 -1.89276 0
M  V30 690 N 69.2883 6.49021 -2.42371 0
M  V30 691 N 71.0813 5.32422 -1.80231 0
M  V30 692 H 63.2323 1.45306 -1.54919 0
M  V30 693 H 65.4953 0.692733 -0.647167 0
M  V30 694 H 65.2013 2.9372 -1.93447 0
M  V30 695 H 65.0753 3.75224 -0.385592 0
M  V30 696 H 67.4623 2.94485 0.190491 0
M  V30 697 H 67.5433 2.14887 -1.3877 0
M  V30 698 H 67.1873 4.40916 -2.52103 0
M  V30 699 H 67.1173 5.1852 -0.918947 0
M  V30 700 H 69.6083 3.62931 -1.05307 0
M  V30 701 H 69.9213 7.2233 -2.74698 0
M  V30 702 H 68.2663 6.49858 -2.46393 0
M  V30 703 H 71.4573 4.47137 -1.38514 0
M  V30 704 H 71.6303 6.11034 -2.15735 0
M  V30 705 N 65.0364 0.313813 1.54444 0
M  V30 706 C 66.4474 -0.176243 1.85866 0
M  V30 707 C 66.7984 -1.52405 1.23561 0
M  V30 708 O 65.9234 -2.09605 0.538016 0
M  V30 709 C 66.5184 -0.32657 3.37222 0
M  V30 710 C 65.0774 -0.760846 3.6863 0
M  V30 711 C 64.2244 0.123247 2.77026 0
M  V30 712 H 67.1754 0.534418 1.49431 0
M  V30 713 H 67.1964 -1.15908 3.62416 0
M  V30 714 H 66.7084 0.654531 3.82541 0
M  V30 715 H 64.8094 -1.75204 3.28838 0
M  V30 716 H 64.9224 -0.571353 4.75681 0
M  V30 717 H 63.2864 -0.399597 2.51546 0
M  V30 718 H 64.0694 1.10094 3.25168 0
M  V30 719 N 66.5145 -1.57545 0.0417849 0
M  V30 720 C 67.7625 -1.91937 -0.632829 0
M  V30 721 C 68.0835 -0.919978 -1.71934 0
M  V30 722 O 67.3535 0.0366064 -1.95866 0
M  V30 723 H 65.9335 -0.708493 -0.236742 0
M  V30 724 H 68.5955 -1.9468 0.0925745 0
M  V30 725 H 67.6915 -2.92912 -1.07746 0
M  V30 726 N 67.9926 0.231505 -1.5589 0
M  V30 727 C 68.9256 1.31369 -1.86595 0
M  V30 728 C 69.9036 1.45671 -0.722397 0
M  V30 729 O 71.0876 1.61642 -0.969743 0
M  V30 730 C 68.2146 2.68529 -2.06421 0
M  V30 731 C 67.2606 2.71295 -3.29092 0
M  V30 732 S 68.0936 2.26358 -4.85306 0
M  V30 733 C 69.2496 3.65414 -5.08157 0
M  V30 734 H 69.4826 1.05128 -2.78092 0
M  V30 735 H 67.0156 0.433259 -1.48197 0
M  V30 736 H 68.9736 3.47499 -2.18528 0
M  V30 737 H 67.6346 2.91999 -1.15738 0
M  V30 738 H 66.8276 3.72063 -3.39978 0
M  V30 739 H 66.4296 2.0038 -3.15791 0
M  V30 740 H 68.7216 4.6103 -4.96445 0
M  V30 741 H 69.6646 3.5945 -6.10083 0
M  V30 742 H 70.0726 3.5864 -4.35933 0
M  V30 743 N 69.4707 1.49531 0.497807 0
M  V30 744 C 70.4007 1.6935 1.60757 0
M  V30 745 C 71.3817 0.542218 1.61227 0
M  V30 746 O 72.5667 0.778417 1.77917 0
M  V30 747 C 69.6967 1.76298 2.99226 0
M  V30 748 C 68.6507 2.91248 3.13622 0
M  V30 749 C 67.9767 2.83312 4.53474 0
M  V30 750 C 69.2767 4.3214 2.93346 0
M  V30 751 H 70.9707 2.62263 1.44425 0
M  V30 752 H 68.5167 1.26208 0.693367 0
M  V30 753 H 70.4697 1.88749 3.76765 0
M  V30 754 H 69.1937 0.799871 3.16654 0
M  V30 755 H 67.8527 2.78404 2.38509 0
M  V30 756 H 67.5007 1.84902 4.67782 0
M  V30 757 H 67.2007 3.60465 4.64046 0
M  V30 758 H 68.7247 2.97775 5.33069 0
M  V30 759 H 70.1387 4.45649 3.60652 0
M  V30 760 H 68.5357 5.1054 3.15387 0
M  V30 761 H 69.6057 4.46363 1.89441 0
M  V30 762 N 70.9488 -0.749086 1.3866 0
M  V30 763 C 72.2258 -1.4992 1.25632 0
M  V30 764 C 72.6058 -2.10633 -0.140317 0
M  V30 765 O 71.9538 -1.97437 -1.15025 0
M  V30 766 C 72.1638 -2.56195 2.36992 0
M  V30 767 C 73.5118 -3.22972 2.75634 0
M  V30 768 O 74.5358 -2.66502 2.36337 0
M  V30 769 O 73.3948 -4.25122 3.43415 0
M  V30 770 H 70.4888 -0.665067 0.491544 0
M  V30 771 H 73.0348 -0.784113 1.50498 0
M  V30 772 H 71.8068 -2.09612 3.30422 0
M  V30 773 H 71.4298 -3.35279 2.13714 0
M  V30 774 N 72.4269 -1.23603 -0.977757 0
M  V30 775 C 73.6739 -1.06971 -1.71941 0
M  V30 776 C 74.0019 0.393009 -1.90488 0
M  V30 777 O 73.2569 1.30719 -1.4564 0
M  V30 778 C 73.5559 -1.7433 -3.11999 0
M  V30 779 C 73.2219 -3.24252 -3.13323 0
M  V30 780 C 71.8839 -3.65156 -3.13392 0
M  V30 781 C 74.2359 -4.20141 -3.08433 0
M  V30 782 C 71.5639 -5.00403 -3.0629 0
M  V30 783 C 73.9159 -5.55384 -3.02873 0
M  V30 784 C 72.5799 -5.95647 -3.01265 0
M  V30 785 H 71.8499 -0.391433 -0.629175 0
M  V30 786 H 74.4969 -1.53572 -1.14403 0
M  V30 787 H 72.8019 -1.20096 -3.7294 0
M  V30 788 H 74.4989 -1.58936 -3.68158 0
M  V30 789 H 71.0889 -2.91692 -3.14029 0
M  V30 790 H 75.2729 -3.89547 -3.07517 0
M  V30 791 H 70.5289 -5.3081 -3.03399 0
M  V30 792 H 74.7029 -6.29398 -2.98046 0
M  V30 793 H 72.3299 -7.0041 -2.95516 0
M  V30 794 N 73.905 1.17692 -1.04816 0
M  V30 795 C 75.133 1.91786 -0.776254 0
M  V30 796 C 75.548 1.76604 0.667577 0
M  V30 797 O 74.905 1.10067 1.45573 0
M  V30 798 C 74.956 3.42967 -1.14263 0
M  V30 799 O 74.677 3.57678 -2.52978 0
M  V30 800 C 76.178 4.34144 -0.896311 0
M  V30 801 H 73.398 0.608624 -0.282519 0
M  V30 802 H 75.942 1.49268 -1.39783 0
M  V30 803 H 74.097 3.83245 -0.565874 0
M  V30 804 H 74.511 4.51319 -2.67229 0
M  V30 805 H 75.985 5.38744 -1.20244 0
M  V30 806 H 76.462 4.38876 0.168636 0
M  V30 807 H 77.068 3.99574 -1.45672 0
M  V30 808 N 75.3831 0.828654 1.34056 0
M  V30 809 C 76.6311 0.41863 1.97717 0
M  V30 810 C 76.9521 -1.02314 1.66002 0
M  V30 811 O 76.2221 -1.71119 0.953683 0
M  V30 812 H 74.8021 0.151809 0.731412 0
M  V30 813 H 77.4641 1.05936 1.63596 0
M  V30 814 H 76.5601 0.542318 3.07352 0
M  V30 815 N 76.8612 -1.46375 0.584142 0
M  V30 816 C 77.8082 -2.30323 -0.148286 0
M  V30 817 C 78.7782 -1.40703 -0.882713 0
M  V30 818 O 79.9632 -1.69651 -0.873099 0
M  V30 819 C 77.1032 -3.25196 -1.15507 0
M  V30 820 C 76.2162 -4.29915 -0.423943 0
M  V30 821 C 75.3512 -5.11914 -1.41838 0
M  V30 822 C 74.3902 -6.08381 -0.673736 0
M  V30 823 N 73.5272 -6.83242 -1.6163 0
M  V30 824 H 78.3672 -2.92427 0.573644 0
M  V30 825 H 75.9042 -1.44118 0.294703 0
M  V30 826 H 77.8622 -3.78646 -1.75166 0
M  V30 827 H 76.4922 -2.64898 -1.8447 0
M  V30 828 H 75.5442 -3.7931 0.287714 0
M  V30 829 H 76.8562 -4.98549 0.158128 0
M  V30 830 H 76.0102 -5.69648 -2.08773 0
M  V30 831 H 74.7492 -4.43243 -2.03438 0
M  V30 832 H 73.7542 -5.49799 0.00938483 0
M  V30 833 H 74.9792 -6.79071 -0.0631082 0
M  V30 834 H 72.9252 -6.1728 -2.22038 0
M  V30 835 H 72.8422 -7.48144 -1.08707 0
M  V30 836 H 74.1102 -7.45534 -2.27596 0
M  V30 837 N 78.3393 -0.321999 -1.54275 0
M  V30 838 C 79.3023 0.531975 -2.22941 0
M  V30 839 C 80.3023 1.04478 -1.22234 0
M  V30 840 O 81.4923 0.937452 -1.46825 0
M  V30 841 C 78.6243 1.73874 -2.93224 0
M  V30 842 H 79.8173 -0.0682612 -2.99822 0
M  V30 843 H 77.3703 -0.0730644 -1.56129 0
M  V30 844 H 78.1053 2.37825 -2.20476 0
M  V30 845 H 77.8903 1.37847 -3.6707 0
M  V30 846 H 79.3803 2.34496 -3.45545 0
M  V30 847 N 79.8174 1.5752 -0.0501392 0
M  V30 848 C 80.7644 2.1147 0.924603 0
M  V30 849 C 81.7344 1.02182 1.30951 0
M  V30 850 O 82.9194 1.29723 1.39916 0
M  V30 851 C 80.0594 2.66337 2.19451 0
M  V30 852 C 79.1724 3.89708 1.86418 0
M  V30 853 C 78.3074 4.32893 3.07859 0
M  V30 854 C 77.3464 5.48967 2.70742 0
M  V30 855 N 76.4834 5.87211 3.84874 0
M  V30 856 H 81.3234 2.94465 0.457639 0
M  V30 857 H 78.8604 1.45531 0.214266 0
M  V30 858 H 80.8184 2.96247 2.93758 0
M  V30 859 H 79.4484 1.86141 2.63726 0
M  V30 860 H 78.5004 3.66396 1.02264 0
M  V30 861 H 79.8124 4.74074 1.55096 0
M  V30 862 H 78.9664 4.6435 3.90466 0
M  V30 863 H 77.7054 3.47336 3.42358 0
M  V30 864 H 76.7104 5.17183 1.86551 0
M  V30 865 H 77.9354 6.3624 2.37436 0
M  V30 866 H 75.8814 5.04607 4.19175 0
M  V30 867 H 75.7984 6.66266 3.57247 0
M  V30 868 H 77.0664 6.23282 4.68123 0
M  V30 869 N 81.2955 -0.223234 1.56011 0
M  V30 870 C 82.5415 -0.944891 1.8012 0
M  V30 871 C 82.8965 -1.82039 0.622862 0
M  V30 872 O 82.1895 -1.8773 -0.383143 0
M  V30 873 C 82.3835 -1.81948 3.0762 0
M  V30 874 C 82.2125 -1.03014 4.37742 0
M  V30 875 C 80.9825 -0.72574 5.00061 0
M  V30 876 C 83.1805 -0.396256 5.12771 0
M  V30 877 N 81.1625 0.0851816 6.13841 0
M  V30 878 C 82.5335 0.278137 6.19376 0
M  V30 879 C 84.5885 -0.309117 4.9694 0
M  V30 880 C 83.2915 1.03133 7.11868 0
M  V30 881 C 85.3175 0.430607 5.8983 0
M  V30 882 C 84.6795 1.09355 6.9586 0
M  V30 883 H 80.7785 -0.326081 0.710771 0
M  V30 884 H 83.3625 -0.215914 1.93499 0
M  V30 885 H 81.5335 -2.52029 2.95527 0
M  V30 886 H 83.2655 -2.47848 3.19927 0
M  V30 887 H 80.0205 -1.04335 4.61964 0
M  V30 888 H 80.4445 0.479428 6.753 0
M  V30 889 H 85.0865 -0.807313 4.15021 0
M  V30 890 H 82.8045 1.54105 7.9327 0
M  V30 891 H 86.3905 0.499012 5.79656 0
M  V30 892 H 85.2705 1.65679 7.66499 0
M  V30 893 N 82.7736 -1.49793 -0.48987 0
M  V30 894 C 84.0506 -1.50348 -1.25119 0
M  V30 895 C 84.4306 -0.237466 -2.0976 0
M  V30 896 O 83.7786 0.77981 -2.14782 0
M  V30 897 C 83.9886 -2.78872 -2.09837 0
M  V30 898 C 85.3366 -3.288 -2.68655 0
M  V30 899 O 86.3606 -2.80065 -2.20096 0
M  V30 900 O 85.2196 -4.13707 -3.57083 0
M  V30 901 H 82.3136 -0.602242 -0.566775 0
M  V30 902 H 84.8596 -1.62067 -0.503229 0
M  V30 903 H 83.6316 -3.62499 -1.47343 0
M  V30 904 H 83.2546 -2.70066 -2.91805 0
M  V30 905 N 84.2517 0.741722 -1.39055 0
M  V30 906 C 85.2147 1.83733 -1.37021 0
M  V30 907 C 86.2147 1.58542 -0.268534 0
M  V30 908 O 87.4047 1.66067 -0.526076 0
M  V30 909 C 84.5367 3.2141 -1.13617 0
M  V30 910 H 85.7297 1.86941 -2.34506 0
M  V30 911 H 83.2827 0.944676 -1.24521 0
M  V30 912 H 84.0177 3.23865 -0.167863 0
M  V30 913 H 83.8027 3.4109 -1.93391 0
M  V30 914 H 85.2927 4.01477 -1.14918 0
M  V30 915 N 85.7298 1.2412 0.971189 0
M  V30 916 C 86.9758 1.09048 1.71698 0
M  V30 917 C 87.3308 -0.367442 1.88859 0
M  V30 918 O 86.6238 -1.26792 1.43646 0
M  V30 919 C 86.8178 1.75983 3.11071 0
M  V30 920 C 86.6468 3.28133 3.07504 0
M  V30 921 C 85.4168 3.97331 3.1218 0
M  V30 922 C 87.6148 4.24773 2.89952 0
M  V30 923 N 85.5968 5.3639 2.98596 0
M  V30 924 C 86.9678 5.50806 2.84627 0
M  V30 925 C 89.0228 4.15392 2.74506 0
M  V30 926 C 87.7258 6.68533 2.65437 0
M  V30 927 C 89.7518 5.32793 2.56682 0
M  V30 928 C 89.1138 6.57756 2.52063 0
M  V30 929 H 85.2128 0.453632 0.636979 0
M  V30 930 H 87.7968 1.56983 1.15171 0
M  V30 931 H 85.9678 1.30566 3.65796 0
M  V30 932 H 87.6998 1.53803 3.74335 0
M  V30 933 H 84.4548 3.48473 3.20724 0
M  V30 934 H 84.8788 6.09321 2.95054 0
M  V30 935 H 89.5208 3.19543 2.76861 0
M  V30 936 H 87.2388 7.64509 2.61825 0
M  V30 937 H 90.8248 5.27383 2.4568 0
M  V30 938 H 89.7048 7.4707 2.38446 0
M  V30 939 N 87.2079 -1.17134 1.05439 0
M  V30 940 C 88.1559 -2.23289 0.651511 0
M  V30 941 C 89.1499 -1.66186 -0.328411 0
M  V30 942 O 90.3559 -1.78949 -0.194206 0
M  V30 943 H 86.7309 -0.726938 0.192523 0
M  V30 944 H 88.7019 -2.54565 1.55689 0
M  V30 945 C 87.4509 -3.47671 0.0448436 0
M  V30 946 H 86.7739 -3.91918 0.78996 0
M  V30 947 H 88.2139 -4.2353 -0.19964 0
M  V30 948 C 86.6729 -3.14453 -1.20918 0
M  V30 949 O 87.2029 -3.29459 -2.29825 0
M  V30 950 N 85.4089 -2.68657 -1.10779 0
M  V30 951 H 84.9559 -2.56646 -0.221526 0
M  V30 952 H 84.9139 -2.46804 -1.9477 0
M  V30 953 N 88.686 -0.835752 -1.33615 0
M  V30 954 C 89.596 -0.269088 -2.33052 0
M  V30 955 C 90.612 0.603251 -1.63208 0
M  V30 956 O 91.788 0.508112 -1.94885 0
M  V30 957 C 88.853 0.549091 -3.42324 0
M  V30 958 C 87.914 -0.347156 -4.27894 0
M  V30 959 C 87.147 0.43207 -5.31948 0
M  V30 960 O 87.37 1.66409 -5.45586 0
M  V30 961 O 86.304 -0.192298 -6.01593 0
M  V30 962 H 90.13 -1.09243 -2.83372 0
M  V30 963 H 87.715 -0.598198 -1.36901 0
M  V30 964 H 89.597 1.01414 -4.09015 0
M  V30 965 H 88.272 1.34955 -2.94226 0
M  V30 966 H 87.179 -0.859979 -3.64081 0
M  V30 967 H 88.512 -1.1123 -4.79467 0
M  V30 968 N 90.1641 1.46063 -0.591896 0
M  V30 969 C 91.0941 2.33172 0.123673 0
M  V30 970 C 92.0751 1.45897 0.87453 0
M  V30 971 O 93.2601 1.74698 0.848181 0
M  V30 972 C 90.3901 3.28336 1.13194 0
M  V30 973 C 89.3441 4.25124 0.495324 0
M  V30 974 C 88.6701 5.09863 1.61071 0
M  V30 975 C 89.9701 5.19143 -0.573425 0
M  V30 976 H 91.6641 2.93252 -0.603646 0
M  V30 977 H 89.2101 1.41014 -0.291741 0
M  V30 978 H 91.1631 3.88137 1.64097 0
M  V30 979 H 89.8871 2.66383 1.88965 0
M  V30 980 H 88.5461 3.66599 0.00729452 0
M  V30 981 H 88.1941 4.44288 2.35832 0
M  V30 982 H 87.8941 5.75417 1.19035 0
M  V30 983 H 89.4181 5.72529 2.12233 0
M  V30 984 H 90.8321 5.73106 -0.1491 0
M  V30 985 H 89.2291 5.93089 -0.914636 0
M  V30 986 H 90.2991 4.62519 -1.45617 0
M  V30 987 N 91.6422 0.330177 1.54103 0
M  V30 988 C 92.5892 -0.532762 2.24567 0
M  V30 989 C 93.5592 -1.10635 1.23892 0
M  V30 990 O 94.7442 -1.14546 1.5259 0
M  V30 991 C 91.8842 -1.6845 3.01195 0
M  V30 992 C 90.9972 -1.13951 4.167 0
M  V30 993 C 90.1322 -2.25746 4.80845 0
M  V30 994 C 89.1712 -1.6853 5.88442 0
M  V30 995 N 88.3082 -2.74014 6.46421 0
M  V30 996 H 93.1482 0.0746905 2.97906 0
M  V30 997 H 90.6852 0.048632 1.4702 0
M  V30 998 H 92.6432 -2.36234 3.43874 0
M  V30 999 H 91.2732 -2.26314 2.30178 0
M  V30 1000 H 90.3252 -0.35301 3.78758 0
M  V30 1001 H 91.6372 -0.680892 4.94131 0
M  V30 1002 H 90.7912 -3.01422 5.26526 0
M  V30 1003 H 89.5302 -2.74947 4.0281 0
M  V30 1004 H 88.5352 -0.913543 5.42157 0
M  V30 1005 H 89.7602 -1.20198 6.68378 0
M  V30 1006 H 87.7062 -3.22494 5.71256 0
M  V30 1007 H 87.6232 -2.32735 7.19285 0
M  V30 1008 H 88.8912 -3.49499 6.96757 0
M  V30 1009 N 93.1203 -1.57491 0.0584922 0
M  V30 1010 C 94.3683 -1.92597 -0.612436 0
M  V30 1011 C 94.6893 -0.938162 -1.70949 0
M  V30 1012 O 93.9593 0.0158301 -1.95894 0
M  V30 1013 H 92.5393 -0.710964 -0.229214 0
M  V30 1014 H 95.2013 -1.94571 0.113218 0
M  V30 1015 H 94.2973 -2.94038 -1.04633 0
M  V30 1016 N 94.5984 0.214957 -1.56127 0
M  V30 1017 C 95.8264 0.955092 -1.83536 0
M  V30 1018 C 96.2414 1.77677 -0.638472 0
M  V30 1019 O 95.5984 1.78219 0.392968 0
M  V30 1020 C 95.6494 1.86734 -3.09536 0
M  V30 1021 O 95.3704 1.07887 -4.24608 0
M  V30 1022 C 96.8714 2.72082 -3.4998 0
M  V30 1023 H 94.0914 0.279611 -0.609966 0
M  V30 1024 H 96.6354 0.228197 -2.03223 0
M  V30 1025 H 94.7904 2.5481 -2.91806 0
M  V30 1026 H 95.2044 1.69872 -4.9623 0
M  V30 1027 H 96.6784 3.31782 -4.41163 0
M  V30 1028 H 97.1554 3.44806 -2.7204 0
M  V30 1029 H 97.7614 2.09409 -3.70173 0
M  V30 1030 N 96.0765 1.50051 0.48192 0
M  V30 1031 C 97.3015 1.64508 1.26301 0
M  V30 1032 C 97.7265 0.323851 1.85291 0
M  V30 1033 O 97.0845 -0.710969 1.66778 0
M  V30 1034 C 97.1325 2.7305 2.35533 0
M  V30 1035 O 96.2365 2.3355 3.39895 0
M  V30 1036 H 95.5775 0.549978 0.372048 0
M  V30 1037 H 98.1075 1.9636 0.574786 0
M  V30 1038 H 98.1175 2.95799 2.8101 0
M  V30 1039 H 96.7925 3.68946 1.91967 0
M  V30 1040 H 95.3695 2.21205 3.00204 0
M  V30 1041 N 97.5546 -0.734337 1.39446 0
M  V30 1042 C 98.5016 -1.84835 1.38219 0
M  V30 1043 C 99.4716 -1.64331 0.24179 0
M  V30 1044 O 100.657 -1.85728 0.437002 0
M  V30 1045 C 97.7966 -3.22355 1.23212 0
M  V30 1046 C 96.9096 -3.5456 2.46801 0
M  V30 1047 C 96.0446 -4.81485 2.24377 0
M  V30 1048 C 95.0836 -5.06536 3.43639 0
M  V30 1049 N 94.2206 -6.24665 3.20528 0
M  V30 1050 H 99.0606 -1.85219 2.33448 0
M  V30 1051 H 96.5976 -0.905039 1.15963 0
M  V30 1052 H 98.5556 -4.0174 1.12522 0
M  V30 1053 H 97.1856 -3.21248 0.316121 0
M  V30 1054 H 96.2376 -2.69872 2.68092 0
M  V30 1055 H 97.5496 -3.6899 3.3563 0
M  V30 1056 H 96.7036 -5.68852 2.10933 0
M  V30 1057 H 95.4426 -4.6923 1.32944 0
M  V30 1058 H 94.4476 -4.17632 3.5758 0
M  V30 1059 H 95.6726 -5.20676 4.35974 0
M  V30 1060 H 93.6186 -6.13696 2.3176 0
M  V30 1061 H 93.5356 -6.39685 4.02913 0
M  V30 1062 H 94.8036 -7.14868 3.10779 0
M  V30 1063 N 99.0327 -1.24633 -0.964593 0
M  V30 1064 C 99.9427 -1.05859 -2.09359 0
M  V30 1065 C 100.959 0.00148855 -1.74 0
M  V30 1066 O 102.135 -0.197346 -2.00431 0
M  V30 1067 C 99.1997 -0.668879 -3.40187 0
M  V30 1068 C 98.2607 -1.80578 -3.89474 0
M  V30 1069 C 97.4937 -1.43457 -5.14058 0
M  V30 1070 O 97.7167 -0.325775 -5.69469 0
M  V30 1071 O 96.6507 -2.2613 -5.57807 0
M  V30 1072 H 100.477 -2.00516 -2.28094 0
M  V30 1073 H 98.0617 -1.03481 -1.0776 0
M  V30 1074 H 99.9437 -0.463211 -4.18846 0
M  V30 1075 H 98.6187 0.248536 -3.22744 0
M  V30 1076 H 97.5257 -2.06623 -3.11862 0
M  V30 1077 H 98.8587 -2.70208 -4.11398 0
M  V30 1078 N 100.511 1.16574 -1.06058 0
M  V30 1079 C 101.788 1.83048 -0.689416 0
M  V30 1080 C 102.168 1.94122 0.829443 0
M  V30 1081 O 101.516 1.48249 1.7388 0
M  V30 1082 C 101.726 3.20186 -1.38859 0
M  V30 1083 C 103.074 3.95989 -1.53226 0
M  V30 1084 O 104.098 3.29696 -1.3483 0
M  V30 1085 O 102.957 5.14813 -1.83384 0
M  V30 1086 H 100.051 0.790258 -0.243764 0
M  V30 1087 H 102.597 1.23797 -1.16071 0
M  V30 1088 H 101.369 3.07146 -2.4244 0
M  V30 1089 H 100.992 3.87112 -0.907216 0
M  V30 1090 N 101.989 0.842826 1.3317 0
M  V30 1091 C 102.952 0.284065 2.27433 0
M  V30 1092 C 103.952 -0.54948 1.5112 0
M  V30 1093 O 105.142 -0.362699 1.70382 0
M  V30 1094 C 102.274 -0.599384 3.35589 0
M  V30 1095 H 103.467 1.11589 2.78366 0
M  V30 1096 H 101.02 0.616221 1.4364 0
M  V30 1097 H 101.755 -1.45349 2.89904 0
M  V30 1098 H 101.54 -0.00291266 3.921 0
M  V30 1099 H 103.03 -0.983488 4.05854 0
M  V30 1100 N 103.467 -1.45747 0.599634 0
M  V30 1101 C 104.4 -2.27547 -0.172552 0
M  V30 1102 C 105.378 -1.36657 -0.881116 0
M  V30 1103 O 106.562 -1.66081 -0.891595 0
M  V30 1104 C 103.689 -3.14829 -1.24903 0
M  V30 1105 C 102.735 -4.21603 -0.644465 0
M  V30 1106 S 103.568 -5.32754 0.541606 0
M  V30 1107 C 104.724 -6.23604 -0.535656 0
M  V30 1108 H 104.957 -2.92691 0.521468 0
M  V30 1109 H 102.49 -1.49473 0.386947 0
M  V30 1110 H 104.448 -3.65675 -1.86527 0
M  V30 1111 H 103.109 -2.48965 -1.91508 0
M  V30 1112 H 102.302 -4.82566 -1.45417 0
M  V30 1113 H 101.904 -3.73857 -0.103534 0
M  V30 1114 H 104.196 -6.62519 -1.41686 0
M  V30 1115 H 105.139 -7.0809 0.0376246 0
M  V30 1116 H 105.547 -5.58103 -0.84741 0
M  V30 1117 N 104.945 -0.338344 -1.53925 0
M  V30 1118 C 105.892 0.520845 -2.24846 0
M  V30 1119 C 106.862 1.09976 -1.24477 0
M  V30 1120 O 108.047 1.13735 -1.53196 0
M  V30 1121 C 105.187 1.6685 -3.02084 0
M  V30 1122 C 104.3 1.11739 -4.17299 0
M  V30 1123 C 103.435 2.23193 -4.82036 0
M  V30 1124 C 102.474 1.65407 -5.89328 0
M  V30 1125 N 101.611 2.70582 -6.47866 0
M  V30 1126 H 106.451 -0.0904881 -2.97863 0
M  V30 1127 H 103.988 -0.0564282 -1.46992 0
M  V30 1128 H 105.946 2.34407 -3.45122 0
M  V30 1129 H 104.576 2.2509 -2.31375 0
M  V30 1130 H 103.628 0.332919 -3.7894 0
M  V30 1131 H 104.94 0.654677 -4.94485 0
M  V30 1132 H 104.094 2.98626 -5.28117 0
M  V30 1133 H 102.833 2.72807 -4.04262 0
M  V30 1134 H 101.838 0.884779 -5.42634 0
M  V30 1135 H 103.063 1.16652 -6.69006 0
M  V30 1136 H 101.009 3.1946 -5.72959 0
M  V30 1137 H 100.926 2.28917 -7.20509 0
M  V30 1138 H 102.194 3.45799 -6.98601 0
M  V30 1139 N 106.423 1.57458 -0.0668435 0
M  V30 1140 C 107.386 2.11323 0.887422 0
M  V30 1141 C 108.386 1.03618 1.22964 0
M  V30 1142 O 109.576 1.29626 1.16373 0
M  V30 1143 C 106.708 2.61048 2.19242 0
M  V30 1144 H 107.901 2.96942 0.420194 0
M  V30 1145 H 105.454 1.55239 0.181793 0
M  V30 1146 H 106.189 1.78868 2.70512 0
M  V30 1147 H 105.974 3.39769 1.95702 0
M  V30 1148 H 107.464 3.02814 2.87565 0
M  V30 1149 N 107.901 -0.206675 1.56239 0
M  V30 1150 C 109.131 -0.943975 1.83773 0
M  V30 1151 C 109.539 -1.77841 0.645703 0
M  V30 1152 O 108.882 -1.79403 -0.395008 0
M  V30 1153 C 108.944 -1.899 3.05251 0
M  V30 1154 C 108.608 -1.24764 4.39639 0
M  V30 1155 C 109.605 -0.630216 5.16066 0
M  V30 1156 C 107.29 -1.25496 4.8637 0
M  V30 1157 C 109.284 -0.0287946 6.37393 0
M  V30 1158 C 106.971 -0.649698 6.07637 0
M  V30 1159 C 107.969 -0.0376845 6.8299 0
M  V30 1160 O 107.657 0.55812 8.0196 0
M  V30 1161 H 107.389 -0.281508 0.614597 0
M  V30 1162 H 109.943 -0.222458 2.04192 0
M  V30 1163 H 108.173 -2.6599 2.80689 0
M  V30 1164 H 109.862 -2.5031 3.1953 0
M  V30 1165 H 110.628 -0.616785 4.81062 0
M  V30 1166 H 106.507 -1.72072 4.27683 0
M  V30 1167 H 110.051 0.449518 6.9615 0
M  V30 1168 H 105.948 -0.660592 6.42111 0
M  V30 1169 H 106.716 0.453891 8.17241 0
M  V30 1170 N 109.379 -1.50304 -0.473955 0
M  V30 1171 C 110.628 -1.60392 -1.22301 0
M  V30 1172 C 110.941 -0.308411 -1.93153 0
M  V30 1173 O 112.147 -0.288156 -2.69966 0
M  V30 1174 C 110.603 -2.83109 -2.2221 0
M  V30 1175 C 110.211 -4.19524 -1.57173 0
M  V30 1176 C 111.955 -3.0254 -2.97775 0
M  V30 1177 C 109.862 -5.33431 -2.55353 0
M  V30 1178 H 108.792 -0.597286 -0.460179 0
M  V30 1179 H 111.443 -1.76731 -0.493803 0
M  V30 1180 H 109.825 -2.60322 -2.9841 0
M  V30 1181 H 110.999 -4.52554 -0.867824 0
M  V30 1182 H 109.314 -4.05674 -0.939002 0
M  V30 1183 H 111.911 -3.84811 -3.71248 0
M  V30 1184 H 112.254 -2.14154 -3.56992 0
M  V30 1185 H 112.787 -3.25494 -2.28688 0
M  V30 1186 H 109.526 -6.23962 -2.00878 0
M  V30 1187 H 109.046 -5.04823 -3.23904 0
M  V30 1188 H 110.725 -5.63887 -3.17239 0
M  V30 1189 N 110.857 0.726932 -1.39834 0
M  V30 1190 C 111.805 1.86235 -1.39353 0
M  V30 1191 C 112.799 1.67144 -0.275555 0
M  V30 1192 O 114.005 1.74387 -0.44601 0
M  V30 1193 H 110.38 0.613174 -0.43534 0
M  V30 1194 H 112.351 1.83756 -2.35109 0
M  V30 1195 C 111.1 3.23995 -1.26185 0
M  V30 1196 H 110.423 3.39285 -2.11484 0
M  V30 1197 H 111.863 4.03609 -1.29907 0
M  V30 1198 C 110.322 3.36888 0.0290018 0
M  V30 1199 O 110.852 3.89152 0.99619 0
M  V30 1200 N 109.058 2.90446 0.0947437 0
M  V30 1201 H 108.605 2.48102 -0.693035 0
M  V30 1202 H 108.563 2.99451 0.957932 0
M  V30 1203 N 112.336 1.25143 0.95797 0
M  V30 1204 C 113.283 1.05235 2.05412 0
M  V30 1205 C 114.253 -0.0374561 1.66058 0
M  V30 1206 O 115.438 0.119073 1.90428 0
M  V30 1207 C 112.578 0.673589 3.38462 0
M  V30 1208 C 111.691 1.8379 3.90954 0
M  V30 1209 C 110.826 1.40381 5.12315 0
M  V30 1210 C 109.865 2.53746 5.57027 0
M  V30 1211 N 109.002 2.11136 6.69601 0
M  V30 1212 H 113.842 1.99048 2.21774 0
M  V30 1213 H 111.379 0.991277 1.08683 0
M  V30 1214 H 113.337 0.434964 4.14926 0
M  V30 1215 H 111.967 -0.227554 3.21997 0
M  V30 1216 H 111.019 2.18992 3.11041 0
M  V30 1217 H 112.331 2.68937 4.20089 0
M  V30 1218 H 111.485 1.12464 5.96185 0
M  V30 1219 H 110.224 0.523015 4.84887 0
M  V30 1220 H 109.229 2.82412 4.71724 0
M  V30 1221 H 110.454 3.42398 5.86464 0
M  V30 1222 H 108.4 1.25468 6.4389 0
M  V30 1223 H 108.317 2.89832 6.98236 0
M  V30 1224 H 109.585 1.86385 7.56889 0
M  V30 1225 N 113.814 -1.1601 1.06675 0
M  V30 1226 C 115.06 -1.86909 0.786945 0
M  V30 1227 C 115.393 -1.81717 -0.685018 0
M  V30 1228 O 114.668 -1.23551 -1.50218 0
M  V30 1229 C 114.951 -3.36313 1.28707 0
M  V30 1230 C 114.804 -3.50175 2.82308 0
M  V30 1231 C 116.123 -4.3084 0.898071 0
M  V30 1232 H 113.242 -0.678677 0.287343 0
M  V30 1233 H 115.884 -1.36336 1.32334 0
M  V30 1234 H 114.034 -3.79513 0.830768 0
M  V30 1235 H 115.706 -3.15886 3.36175 0
M  V30 1236 H 113.949 -2.91959 3.20847 0
M  V30 1237 H 114.62 -4.55116 3.12368 0
M  V30 1238 H 117.096 -3.95561 1.29114 0
M  V30 1239 H 115.972 -5.33876 1.27543 0
M  V30 1240 H 116.233 -4.41662 -0.196651 0
M  V30 1241 N 115.292 -0.849877 -1.32721 0
M  V30 1242 C 116.202 -0.293791 -2.32753 0
M  V30 1243 C 117.218 0.585906 -1.63839 0
M  V30 1244 O 118.394 0.487413 -1.95413 0
M  V30 1245 C 115.459 0.512752 -3.42887 0
M  V30 1246 C 114.52 -0.39252 -4.27502 0
M  V30 1247 C 113.753 0.375625 -5.32377 0
M  V30 1248 O 113.976 1.60613 -5.4732 0
M  V30 1249 O 112.91 -0.256094 -6.01355 0
M  V30 1250 H 116.736 -1.12242 -2.82197 0
M  V30 1251 H 114.321 -0.612685 -1.36259 0
M  V30 1252 H 116.203 0.970704 -4.10067 0
M  V30 1253 H 114.878 1.31826 -2.95641 0
M  V30 1254 H 113.785 -0.898547 -3.63149 0
M  V30 1255 H 115.118 -1.16309 -4.7826 0
M  V30 1256 N 116.77 1.45427 -0.607355 0
M  V30 1257 C 117.68 2.34325 0.113463 0
M  V30 1258 C 118.696 1.51226 0.860617 0
M  V30 1259 O 119.872 1.84029 0.818255 0
M  V30 1260 C 116.937 3.28839 1.09844 0
M  V30 1261 C 115.998 4.27844 0.353271 0
M  V30 1262 C 115.231 5.17842 1.29133 0
M  V30 1263 O 115.454 5.11264 2.52913 0
M  V30 1264 O 114.388 5.96713 0.788523 0
M  V30 1265 H 118.214 2.97364 -0.617094 0
M  V30 1266 H 115.799 1.44807 -0.367619 0
M  V30 1267 H 117.681 3.8708 1.66575 0
M  V30 1268 H 116.356 2.68365 1.81003 0
M  V30 1269 H 115.263 3.7322 -0.256494 0
M  V30 1270 H 116.596 4.91173 -0.317822 0
M  V30 1271 N 118.248 0.346503 1.53744 0
M  V30 1272 C 119.178 -0.501193 2.28058 0
M  V30 1273 C 120.159 -1.10014 1.29734 0
M  V30 1274 O 121.344 -1.12097 1.58581 0
M  V30 1275 C 118.474 -1.65078 3.05559 0
M  V30 1276 C 117.428 -1.18003 4.11411 0
M  V30 1277 C 116.754 -2.41837 4.76884 0
M  V30 1278 C 118.054 -0.278394 5.21558 0
M  V30 1279 H 119.748 0.11875 2.99164 0
M  V30 1280 H 117.294 0.0585531 1.43881 0
M  V30 1281 H 119.247 -2.25028 3.56287 0
M  V30 1282 H 117.971 -2.29767 2.32109 0
M  V30 1283 H 116.63 -0.603331 3.61601 0
M  V30 1284 H 116.278 -3.0494 4.00026 0
M  V30 1285 H 115.978 -2.1102 5.48402 0
M  V30 1286 H 117.502 -3.02508 5.30397 0
M  V30 1287 H 118.916 -0.784823 5.67903 0
M  V30 1288 H 117.313 -0.0619707 6.00068 0
M  V30 1289 H 118.383 0.684677 4.80042 0
M  V30 1290 N 119.726 -1.57421 0.075193 0
M  V30 1291 C 120.673 -2.12915 -0.890843 0
M  V30 1292 C 121.643 -1.04252 -1.29309 0
M  V30 1293 O 122.828 -1.31933 -1.37834 0
M  V30 1294 C 119.968 -2.69795 -2.15186 0
M  V30 1295 C 119.081 -3.92624 -1.80194 0
M  V30 1296 C 118.216 -4.37736 -3.00933 0
M  V30 1297 C 117.255 -5.53205 -2.61974 0
M  V30 1298 N 116.392 -5.9326 -3.75483 0
M  V30 1299 H 121.232 -2.95156 -0.410735 0
M  V30 1300 H 118.769 -1.45854 -0.191086 0
M  V30 1301 H 120.727 -3.00883 -2.89008 0
M  V30 1302 H 119.357 -1.90313 -2.60731 0
M  V30 1303 H 118.409 -3.67977 -0.964218 0
M  V30 1304 H 119.721 -4.76482 -1.47534 0
M  V30 1305 H 118.875 -4.70503 -3.8303 0
M  V30 1306 H 117.614 -3.52739 -3.36789 0
M  V30 1307 H 116.619 -5.20086 -1.783 0
M  V30 1308 H 117.844 -6.39936 -2.27284 0
M  V30 1309 H 115.79 -5.11212 -4.11094 0
M  V30 1310 H 115.707 -6.71865 -3.46602 0
M  V30 1311 H 116.975 -6.30651 -4.58148 0
M  V30 1312 N 121.204 0.198386 -1.56346 0
M  V30 1313 C 122.151 1.24589 -1.94284 0
M  V30 1314 C 123.121 1.454 -0.802997 0
M  V30 1315 O 124.306 1.58588 -1.06087 0
M  V30 1316 C 121.446 2.58631 -2.28482 0
M  V30 1317 C 120.559 2.45426 -3.55514 0
M  V30 1318 C 119.694 3.7215 -3.79049 0
M  V30 1319 C 118.733 3.53763 -4.99518 0
M  V30 1320 N 117.87 4.72491 -5.19323 0
M  V30 1321 H 122.71 0.915356 -2.83593 0
M  V30 1322 H 120.247 0.440629 -1.40346 0
M  V30 1323 H 122.205 3.3672 -2.46324 0
M  V30 1324 H 120.835 2.89734 -1.42317 0
M  V30 1325 H 119.887 1.58652 -3.45737 0
M  V30 1326 H 121.199 2.27772 -4.43758 0
M  V30 1327 H 120.353 4.58679 -3.97113 0
M  V30 1328 H 119.092 3.92754 -2.89129 0
M  V30 1329 H 118.097 2.65619 -4.8138 0
M  V30 1330 H 119.322 3.34607 -5.90944 0
M  V30 1331 H 117.268 4.93365 -4.3235 0
M  V30 1332 H 117.185 4.5765 -6.01741 0
M  V30 1333 H 118.453 5.6038 -5.41843 0
M  V30 1334 N 122.682 1.50554 0.465978 0
M  V30 1335 C 123.629 1.6979 1.56333 0
M  V30 1336 C 124.599 0.539239 1.57103 0
M  V30 1337 O 125.784 0.770401 1.74555 0
M  V30 1338 C 122.924 1.80273 2.94271 0
M  V30 1339 C 122.037 3.07674 3.0325 0
M  V30 1340 C 121.172 3.08922 4.32135 0
M  V30 1341 C 120.211 4.30755 4.34875 0
M  V30 1342 N 119.348 4.29714 5.55239 0
M  V30 1343 H 124.188 2.63472 1.39235 0
M  V30 1344 H 121.725 1.30602 0.676873 0
M  V30 1345 H 123.683 1.84332 3.74269 0
M  V30 1346 H 122.313 0.900258 3.09992 0
M  V30 1347 H 121.365 3.13062 2.16094 0
M  V30 1348 H 122.677 3.97642 3.01135 0
M  V30 1349 H 121.831 3.11738 5.20485 0
M  V30 1350 H 120.57 2.16792 4.36866 0
M  V30 1351 H 119.575 4.28146 3.44922 0
M  V30 1352 H 120.8 5.24117 4.31831 0
M  V30 1353 H 118.746 3.4044 5.60746 0
M  V30 1354 H 118.663 5.13456 5.54886 0
M  V30 1355 H 119.931 4.36683 6.457 0
M  V30 1356 N 124.16 -0.719506 1.40217 0
M  V30 1357 C 125.39 -1.50646 1.41384 0
M  V30 1358 C 125.798 -1.89197 0.0107743 0
M  V30 1359 O 125.141 -1.55709 -0.974708 0
M  V30 1360 C 125.203 -2.81405 2.23722 0
M  V30 1361 C 124.867 -2.65199 3.72181 0
M  V30 1362 C 125.864 -2.32717 4.64907 0
M  V30 1363 C 123.549 -2.81586 4.1595 0
M  V30 1364 C 125.543 -2.16827 5.99387 0
M  V30 1365 C 123.23 -2.65313 5.50502 0
M  V30 1366 C 124.228 -2.32981 6.42035 0
M  V30 1367 O 123.916 -2.16827 7.74107 0
M  V30 1368 H 123.648 -0.471606 0.484318 0
M  V30 1369 H 126.202 -0.895456 1.84853 0
M  V30 1370 H 124.432 -3.44823 1.75026 0
M  V30 1371 H 126.121 -3.43102 2.16878 0
M  V30 1372 H 126.887 -2.19694 4.32388 0
M  V30 1373 H 122.766 -3.0574 3.45027 0
M  V30 1374 H 126.31 -1.91513 6.70797 0
M  V30 1375 H 122.207 -2.7792 5.82607 0
M  V30 1376 H 122.975 -2.31778 7.84998 0
M  V30 1377 N 125.638 -1.25649 -0.95132 0
M  V30 1378 C 126.886 -1.10375 -1.69298 0
M  V30 1379 C 127.207 0.355339 -1.91735 0
M  V30 1380 O 126.477 1.25188 -1.50681 0
M  V30 1381 H 125.057 -0.405461 -0.627384 0
M  V30 1382 H 127.719 -1.57823 -1.14358 0
M  V30 1383 H 126.815 -1.61465 -2.67087 0
M  V30 1384 N 127.117 1.15442 -1.07289 0
M  V30 1385 C 128.366 1.85557 -0.790669 0
M  V30 1386 C 128.679 1.83186 0.685739 0
M  V30 1387 O 129.885 2.48977 1.0827 0
M  V30 1388 C 128.341 3.33038 -1.36433 0
M  V30 1389 C 127.949 3.43856 -2.8717 0
M  V30 1390 C 129.693 4.0834 -1.1601 0
M  V30 1391 C 127.6 4.85482 -3.3773 0
M  V30 1392 H 126.53 0.695122 -0.292098 0
M  V30 1393 H 129.181 1.30219 -1.29287 0
M  V30 1394 H 127.563 3.88043 -0.789864 0
M  V30 1395 H 128.737 2.98961 -3.50655 0
M  V30 1396 H 127.052 2.81998 -3.06376 0
M  V30 1397 H 129.649 5.12859 -1.51262 0
M  V30 1398 H 129.992 4.16182 -0.0991007 0
M  V30 1399 H 130.525 3.59603 -1.70089 0
M  V30 1400 H 127.264 4.82823 -4.43353 0
M  V30 1401 H 126.784 5.30961 -2.78999 0
M  V30 1402 H 128.463 5.54335 -3.33648 0
M  V30 1403 O 128.634 0.990954 1.27524 0
M  V30 1404 H 129.325 0.639759 1.8283 0
M  V30 END ATOM
M  V30 BEGIN BOND
M  V30 END BOND
M  V30 END CTAB
M  END
$$$$
