drugbank_target|P00156 Cytochrome b (DB04141; DB04799; DB07401; DB07636; DB07763; DB07778; DB08330; DB08453; DB08690)
 OpenBabel12092119433D

  0  0  0     0  0            999 V3000
M  V30 BEGIN CTAB
M  V30 COUNTS 6104 6203 0 0 0
M  V30 BEGIN ATOM
M  V30 1 H -0.908 1.98254 -0.117106 0
M  V30 2 N 0 1.576 0 0
M  V30 3 C 0.933 2.03868 1.02534 0
M  V30 4 C 1.911 0.928543 1.3348 0
M  V30 5 O 3.095 1.19667 1.45644 0
M  V30 6 C 0.222 2.43627 2.35294 0
M  V30 7 C -0.732 3.65373 2.2001 0
M  V30 8 S 0.101 5.13292 1.52614 0
M  V30 9 C 1.257 5.56322 2.86805 0
M  V30 10 H 1.49 2.90518 0.631377 0
M  V30 11 H -0.977 1.52953 0.210867 0
M  V30 12 H 0.981 2.67203 3.11629 0
M  V30 13 H -0.358 1.57376 2.7183 0
M  V30 14 H -1.165 3.90944 3.18086 0
M  V30 15 H -1.563 3.418 1.51819 0
M  V30 16 H 0.729 5.58782 3.83104 0
M  V30 17 H 1.672 6.56266 2.65933 0
M  V30 18 H 2.08 4.83886 2.90714 0
M  V30 19 N 1.4781 -0.272755 1.55222 0
M  V30 20 C 2.7061 -1.02255 1.79865 0
M  V30 21 C 3.1211 -1.79924 0.572088 0
M  V30 22 O 2.4781 -1.76638 -0.458842 0
M  V30 23 C 2.5291 -1.98094 3.02392 0
M  V30 24 O 2.2501 -1.23572 4.20311 0
M  V30 25 C 3.7511 -2.84884 3.39641 0
M  V30 26 H 0.9711 -0.302057 0.599168 0
M  V30 27 H 3.5151 -0.303465 2.02236 0
M  V30 28 H 1.6701 -2.65465 2.82147 0
M  V30 29 H 2.0841 -1.88172 4.89583 0
M  V30 30 H 3.5581 -3.47927 4.28545 0
M  V30 31 H 4.0351 -3.54665 2.59055 0
M  V30 32 H 4.6411 -2.23003 3.62146 0
M  V30 33 N 2.9562 -1.48159 -0.537278 0
M  V30 34 C 4.3672 -1.49429 -1.11928 0
M  V30 35 C 4.7182 -0.26 -1.9447 0
M  V30 36 O 3.8432 0.633489 -2.0692 0
M  V30 37 C 4.4382 -2.70758 -2.03656 0
M  V30 38 C 2.9972 -2.74923 -2.57088 0
M  V30 39 C 2.1442 -2.42835 -1.3389 0
M  V30 40 H 5.0952 -1.55381 -0.322886 0
M  V30 41 H 5.1162 -2.48861 -2.87834 0
M  V30 42 H 4.6282 -3.60575 -1.43553 0
M  V30 43 H 2.7292 -1.89296 -3.20933 0
M  V30 44 H 2.8422 -3.76157 -2.9672 0
M  V30 45 H 1.2062 -1.93836 -1.65226 0
M  V30 46 H 1.9892 -3.34884 -0.755504 0
M  V30 47 N 4.4343 0.785586 -1.36625 0
M  V30 48 C 5.3673 1.90509 -1.25625 0
M  V30 49 C 6.3453 1.62 -0.139607 0
M  V30 50 O 7.5293 1.8591 -0.31141 0
M  V30 51 C 4.6563 3.25419 -0.939158 0
M  V30 52 C 3.7023 3.72856 -2.07077 0
M  V30 53 S 4.5353 3.88162 -3.68904 0
M  V30 54 C 5.6913 5.25942 -3.39317 0
M  V30 55 H 5.9243 1.99549 -2.20381 0
M  V30 56 H 3.4573 0.945226 -1.22085 0
M  V30 57 H 5.4153 4.03346 -0.763029 0
M  V30 58 H 4.0763 3.14099 -0.00931402 0
M  V30 59 H 3.2693 4.70624 -1.80357 0
M  V30 60 H 2.8713 3.01989 -2.20632 0
M  V30 61 H 5.1633 6.10651 -2.93447 0
M  V30 62 H 6.1063 5.57668 -4.36363 0
M  V30 63 H 6.5143 4.93224 -2.74573 0
M  V30 64 N 5.9124 1.20967 1.01018 0
M  V30 65 C 7.3284 0.965905 1.27053 0
M  V30 66 C 7.5284 -0.350785 1.98423 0
M  V30 67 O 6.5844 -1.07773 2.28344 0
M  V30 68 C 7.8974 2.15294 2.09926 0
M  V30 69 C 9.4454 2.19463 2.23171 0
M  V30 70 C 9.9204 3.3767 3.09424 0
M  V30 71 N 11.4114 3.37724 3.17012 0
M  V30 72 C 12.1464 4.25837 3.83993 0
M  V30 73 N 11.6424 5.24138 4.53047 0
M  V30 74 N 13.4354 4.1366 3.80581 0
M  V30 75 H 5.5864 2.0565 0.531194 0
M  V30 76 H 7.8494 0.90024 0.297106 0
M  V30 77 H 7.5554 3.10684 1.64828 0
M  V30 78 H 7.4294 2.13923 3.10672 0
M  V30 79 H 9.8164 1.24632 2.6749 0
M  V30 80 H 9.8974 2.2488 1.21912 0
M  V30 81 H 9.5414 4.32791 2.65808 0
M  V30 82 H 9.4714 3.29491 4.10784 0
M  V30 83 H 11.9624 2.6658 2.6785 0
M  V30 84 H 12.2754 5.87684 5.01844 0
M  V30 85 H 10.6204 5.28068 4.5185 0
M  V30 86 H 13.8114 3.36127 3.25785 0
M  V30 87 H 13.9844 4.82538 4.32505 0
M  V30 88 N 7.3905 -1.2043 1.01659 0
M  V30 89 C 8.3375 -2.23215 0.586822 0
M  V30 90 C 9.3075 -1.61382 -0.393085 0
M  V30 91 O 10.4925 -1.88544 -0.292525 0
M  V30 92 C 7.6325 -3.45032 -0.0687464 0
M  V30 93 C 6.7455 -4.21296 0.955724 0
M  V30 94 C 5.8805 -5.30507 0.271208 0
M  V30 95 C 4.9195 -5.98515 1.28244 0
M  V30 96 N 4.0565 -6.99316 0.62459 0
M  V30 97 H 8.8965 -2.59336 1.46796 0
M  V30 98 H 6.4335 -1.27431 0.734836 0
M  V30 99 H 8.3915 -4.1459 -0.465965 0
M  V30 100 H 7.0215 -3.09604 -0.913529 0
M  V30 101 H 6.0735 -3.50803 1.4711 0
M  V30 102 H 7.3855 -4.6803 1.72479 0
M  V30 103 H 6.5395 -6.06428 -0.18151 0
M  V30 104 H 5.2785 -4.8481 -0.530163 0
M  V30 105 H 4.2835 -5.21355 1.74554 0
M  V30 106 H 5.5085 -6.46298 2.08509 0
M  V30 107 H 3.4545 -6.55812 -0.156914 0
M  V30 108 H 3.3715 -7.44178 1.33172 0
M  V30 109 H 4.6395 -7.79255 0.195462 0
M  V30 110 N 8.8686 -0.792821 -1.36206 0
M  V30 111 C 10.0966 -0.378825 -2.03402 0
M  V30 112 C 10.5116 1.00586 -1.59774 0
M  V30 113 O 9.8686 1.64574 -0.788764 0
M  V30 114 C 9.9196 -0.43683 -3.58851 0
M  V30 115 O 9.6406 -1.76691 -4.00889 0
M  V30 116 C 11.1416 -0.0138943 -4.43298 0
M  V30 117 H 8.3616 -0.155673 -0.652692 0
M  V30 118 H 10.9056 -1.07261 -1.74113 0
M  V30 119 H 9.0606 0.208575 -3.86838 0
M  V30 120 H 9.4746 -1.72011 -4.95492 0
M  V30 121 H 10.9486 -0.105615 -5.51899 0
M  V30 122 H 11.4256 1.03915 -4.2673 0
M  V30 123 H 12.0316 -0.63192 -4.20579 0
M  V30 124 N 10.3467 1.47872 -0.545128 0
M  V30 125 C 11.2947 2.31533 0.222512 0
M  V30 126 C 12.2887 1.42177 0.920985 0
M  V30 127 O 13.4947 1.59005 0.843645 0
M  V30 128 H 9.8697 0.746519 0.0906278 0
M  V30 129 H 11.8407 2.94139 -0.50246 0
M  V30 130 C 10.5897 3.2457 1.24699 0
M  V30 131 H 9.9127 3.93283 0.718944 0
M  V30 132 H 11.3527 3.85963 1.75523 0
M  V30 133 C 9.8117 2.47237 2.28856 0
M  V30 134 O 10.3417 2.20808 3.35569 0
M  V30 135 N 8.5477 2.08461 2.02466 0
M  V30 136 H 8.0947 2.30155 1.157 0
M  V30 137 H 8.0527 1.57033 2.72375 0
M  V30 138 N 11.8248 0.280983 1.55075 0
M  V30 139 C 13.2358 -0.215629 1.85451 0
M  V30 140 C 13.5868 -1.54991 1.203 0
M  V30 141 O 12.7118 -2.10699 0.493435 0
M  V30 142 C 13.3068 -0.398026 3.36454 0
M  V30 143 C 11.8658 -0.838866 3.66933 0
M  V30 144 C 11.0128 0.064458 2.77225 0
M  V30 145 H 13.9638 0.502601 1.50531 0
M  V30 146 H 13.9848 -1.23569 3.59876 0
M  V30 147 H 13.4968 0.573241 3.83843 0
M  V30 148 H 11.5978 -1.8214 3.25048 0
M  V30 149 H 11.7108 -0.672123 4.74362 0
M  V30 150 H 10.0748 -0.452863 2.50642 0
M  V30 151 H 10.8578 1.03172 3.2743 0
M  V30 152 N 13.3029 -1.57598 0.00835791 0
M  V30 153 C 14.2329 -2.1198 -0.979113 0
M  V30 154 C 15.2139 -1.03091 -1.35301 0
M  V30 155 O 16.3989 -1.30818 -1.43528 0
M  V30 156 C 13.5289 -2.62995 -2.26828 0
M  V30 157 C 12.4829 -3.76485 -2.03576 0
M  V30 158 C 11.8089 -4.13846 -3.38579 0
M  V30 159 C 13.1089 -5.0342 -1.39161 0
M  V30 160 H 14.8029 -2.94738 -0.526281 0
M  V30 161 H 12.3489 -1.41783 -0.251704 0
M  V30 162 H 14.3019 -2.99669 -2.96271 0
M  V30 163 H 13.0259 -1.7737 -2.7424 0
M  V30 164 H 11.6849 -3.40217 -1.36557 0
M  V30 165 H 11.3329 -3.25232 -3.83709 0
M  V30 166 H 11.0329 -4.90312 -3.23834 0
M  V30 167 H 12.5569 -4.53086 -4.09323 0
M  V30 168 H 13.9709 -5.37812 -1.98573 0
M  V30 169 H 12.3679 -5.84746 -1.34878 0
M  V30 170 H 13.4379 -4.83548 -0.361868 0
M  V30 171 N 14.781 0.264519 -1.55364 0
M  V30 172 C 15.714 1.35297 -1.83766 0
M  V30 173 C 16.692 1.47171 -0.691336 0
M  V30 174 O 17.876 1.63663 -0.935238 0
M  V30 175 C 15.003 2.72847 -2.00679 0
M  V30 176 C 14.049 2.78214 -3.23263 0
M  V30 177 S 14.882 2.36601 -4.80396 0
M  V30 178 C 16.038 3.7611 -5.00292 0
M  V30 179 H 16.271 1.11003 -2.758 0
M  V30 180 H 13.804 0.464596 -1.47244 0
M  V30 181 H 15.762 3.52057 -2.11108 0
M  V30 182 H 14.423 2.94388 -1.09518 0
M  V30 183 H 13.616 3.7919 -3.3201 0
M  V30 184 H 13.218 2.07034 -3.11469 0
M  V30 185 H 15.51 4.71457 -4.86554 0
M  V30 186 H 16.453 3.7231 -6.02321 0
M  V30 187 H 16.861 3.67806 -4.28228 0
M  V30 188 N 16.2591 1.48442 0.529413 0
M  V30 189 C 17.2061 1.63007 1.63394 0
M  V30 190 C 18.1761 0.47212 1.59249 0
M  V30 191 O 19.3611 0.695673 1.77666 0
M  V30 192 C 16.5011 1.6763 3.01653 0
M  V30 193 C 15.6141 2.94535 3.16027 0
M  V30 194 C 14.7491 2.90316 4.44849 0
M  V30 195 C 13.7881 4.11923 4.52754 0
M  V30 196 N 12.9251 4.05777 5.72965 0
M  V30 197 H 17.7651 2.5733 1.50285 0
M  V30 198 H 15.3021 1.27613 0.731656 0
M  V30 199 H 17.2601 1.68292 3.81751 0
M  V30 200 H 15.8901 0.76797 3.13532 0
M  V30 201 H 14.9421 3.03615 2.29177 0
M  V30 202 H 16.2541 3.84512 3.17729 0
M  V30 203 H 15.4081 2.89382 5.33238 0
M  V30 204 H 14.1471 1.98068 4.45668 0
M  V30 205 H 13.1521 4.13131 3.62771 0
M  V30 206 H 14.3771 5.0533 4.53672 0
M  V30 207 H 12.3231 3.16351 5.74681 0
M  V30 208 H 12.2401 4.8946 5.76164 0
M  V30 209 H 13.5081 4.08904 6.6364 0
M  V30 210 N 17.7372 -0.778329 1.37039 0
M  V30 211 C 18.6672 -1.90546 1.34962 0
M  V30 212 C 19.6482 -1.68681 0.219274 0
M  V30 213 O 20.8332 -1.89634 0.418624 0
M  V30 214 C 17.9632 -3.27734 1.14925 0
M  V30 215 C 16.9172 -3.64147 2.24902 0
M  V30 216 C 16.2432 -4.99806 1.89996 0
M  V30 217 C 17.5432 -3.71579 3.67051 0
M  V30 218 H 19.2372 -1.92541 2.29277 0
M  V30 219 H 16.7832 -0.924948 1.10366 0
M  V30 220 H 18.7362 -4.06215 1.12104 0
M  V30 221 H 17.4602 -3.26154 0.170631 0
M  V30 222 H 16.1192 -2.8797 2.26868 0
M  V30 223 H 15.7672 -4.94759 0.906796 0
M  V30 224 H 15.4672 -5.25139 2.63634 0
M  V30 225 H 16.9912 -5.80694 1.88749 0
M  V30 226 H 18.4052 -4.40227 3.67251 0
M  V30 227 H 16.8022 -4.08405 4.39688 0
M  V30 228 H 17.8722 -2.72404 4.01154 0
M  V30 229 N 19.2153 -1.21501 -1.00376 0
M  V30 230 C 20.4643 -1.02718 -1.73586 0
M  V30 231 C 20.7773 0.439589 -1.90596 0
M  V30 232 O 21.9833 0.746848 -2.61026 0
M  V30 233 C 20.4393 -1.78929 -3.1227 0
M  V30 234 C 20.0473 -3.29783 -3.03228 0
M  V30 235 C 21.7913 -1.68557 -3.89601 0
M  V30 236 C 19.6983 -3.98479 -4.36999 0
M  V30 237 H 18.6283 -0.380733 -0.650814 0
M  V30 238 H 21.2793 -1.45248 -1.1214 0
M  V30 239 H 19.6613 -1.29192 -3.74333 0
M  V30 240 H 20.8353 -3.86832 -2.50395 0
M  V30 241 H 19.1503 -3.40711 -2.39385 0
M  V30 242 H 21.7473 -2.17211 -4.88593 0
M  V30 243 H 22.0903 -0.644021 -4.11288 0
M  V30 244 H 22.6233 -2.15778 -3.34193 0
M  V30 245 H 19.3623 -5.02841 -4.20513 0
M  V30 246 H 18.8823 -3.46219 -4.89788 0
M  V30 247 H 20.5613 -4.03462 -5.05794 0
M  V30 248 N 20.6934 1.19889 -1.02296 0
M  V30 249 C 21.6414 2.24938 -0.592081 0
M  V30 250 C 22.6354 1.65257 0.372357 0
M  V30 251 O 23.8414 1.78371 0.241583 0
M  V30 252 H 20.2164 0.731787 -0.173182 0
M  V30 253 H 22.1874 2.58603 -1.48885 0
M  V30 254 C 20.9364 3.47668 0.047351 0
M  V30 255 H 20.2594 3.93875 -0.685772 0
M  V30 256 H 21.6994 4.22852 0.311862 0
M  V30 257 C 20.1584 3.11136 1.29212 0
M  V30 258 O 20.6884 3.2325 2.38479 0
M  V30 259 N 18.8944 2.65625 1.17863 0
M  V30 260 H 18.4414 2.55968 0.289493 0
M  V30 261 H 18.3994 2.41553 2.01245 0
M  V30 262 N 22.1715 0.800033 1.35784 0
M  V30 263 C 23.1215 0.178654 2.27299 0
M  V30 264 C 24.1055 -0.643667 1.47464 0
M  V30 265 O 25.2975 -0.502 1.69732 0
M  V30 266 C 22.4265 -0.677194 3.36555 0
M  V30 267 C 21.5125 0.154497 4.23818 0
M  V30 268 N 21.9035 1.21427 4.91008 0
M  V30 269 C 20.2015 -0.0649462 4.45953 0
M  V30 270 C 20.9025 1.72147 5.55644 0
M  V30 271 N 19.8785 1.02897 5.33773 0
M  V30 272 H 23.6805 0.989637 2.76737 0
M  V30 273 H 21.1945 0.64054 1.49234 0
M  V30 274 H 23.1915 -1.13835 4.01058 0
M  V30 275 H 21.8515 -1.4866 2.8867 0
M  V30 276 H 22.8625 1.59684 4.92668 0
M  V30 277 H 19.5395 -0.844016 4.0888 0
M  V30 278 H 20.9295 2.60683 6.19269 0
M  V30 279 N 23.6496 -1.47581 0.552962 0
M  V30 280 C 24.8746 -2.07378 0.0300593 0
M  V30 281 C 25.2996 -1.40355 -1.25229 0
M  V30 282 O 24.6576 -0.477099 -1.7491 0
M  V30 283 C 24.7056 -3.60274 -0.153231 0
M  V30 284 O 23.8096 -3.94041 -1.21678 0
M  V30 285 H 23.1506 -0.662158 0.0494182 0
M  V30 286 H 25.6806 -1.89662 0.767434 0
M  V30 287 H 25.6906 -4.0633 -0.368761 0
M  V30 288 H 24.3656 -4.08455 0.783397 0
M  V30 289 H 22.9426 -3.59735 -0.982079 0
M  V30 290 N 25.1277 -0.289203 -1.54924 0
M  V30 291 C 26.3747 0.323519 -1.99899 0
M  V30 292 C 26.7027 1.54797 -1.17762 0
M  V30 293 O 25.9577 1.94237 -0.238835 0
M  V30 294 C 26.2567 0.736119 -3.49737 0
M  V30 295 C 25.9227 -0.385276 -4.49251 0
M  V30 296 C 24.5847 -0.693156 -4.76181 0
M  V30 297 C 26.9367 -1.14021 -5.08575 0
M  V30 298 C 24.2647 -1.7593 -5.59701 0
M  V30 299 C 26.6167 -2.19619 -5.93254 0
M  V30 300 C 25.2807 -2.51026 -6.185 0
M  V30 301 H 24.5507 0.118384 -0.731482 0
M  V30 302 H 27.1977 -0.405847 -1.8715 0
M  V30 303 H 25.5027 1.54539 -3.60035 0
M  V30 304 H 27.1997 1.22118 -3.81953 0
M  V30 305 H 23.7897 -0.135202 -4.28387 0
M  V30 306 H 27.9737 -0.915611 -4.87781 0
M  V30 307 H 23.2297 -2.0075 -5.77503 0
M  V30 308 H 27.4037 -2.78581 -6.38252 0
M  V30 309 H 25.0307 -3.33772 -6.83008 0
M  V30 310 N 26.6058 1.57591 -0.0167156 0
M  V30 311 C 27.8548 1.90461 0.663877 0
M  V30 312 C 28.1678 0.893515 1.73999 0
M  V30 313 O 29.3738 1.11302 2.47637 0
M  V30 314 C 27.8298 3.38155 1.23204 0
M  V30 315 C 27.4378 4.47597 0.189866 0
M  V30 316 C 29.1818 3.80111 1.88986 0
M  V30 317 C 27.0888 5.86379 0.768964 0
M  V30 318 H 26.0188 0.710738 0.251729 0
M  V30 319 H 28.6698 1.83326 -0.0799926 0
M  V30 320 H 27.0518 3.40182 2.02712 0
M  V30 321 H 28.2258 4.57112 -0.581846 0
M  V30 322 H 26.5408 4.14766 -0.368475 0
M  V30 323 H 29.1378 4.81145 2.33247 0
M  V30 324 H 29.4808 3.14511 2.72743 0
M  V30 325 H 30.0138 3.80454 1.16187 0
M  V30 326 H 26.7528 6.55493 -0.0301957 0
M  V30 327 H 26.2728 5.80496 1.50945 0
M  V30 328 H 27.9518 6.34563 1.26251 0
M  V30 329 N 28.0839 -0.256276 1.55502 0
M  V30 330 C 29.3609 -1.00789 1.67633 0
M  V30 331 C 29.7409 -2.03706 0.553826 0
M  V30 332 O 29.0889 -2.24145 -0.443969 0
M  V30 333 C 29.2989 -1.64968 3.07549 0
M  V30 334 C 30.6469 -2.15505 3.65845 0
M  V30 335 O 31.6709 -1.74925 3.1029 0
M  V30 336 O 30.5299 -2.89986 4.63217 0
M  V30 337 H 27.6239 -0.468553 0.681459 0
M  V30 338 H 30.1699 -0.250806 1.67836 0
M  V30 339 H 28.9419 -0.904785 3.80696 0
M  V30 340 H 28.5649 -2.47321 3.11317 0
M  V30 341 N 29.562 -1.4872 -0.521534 0
M  V30 342 C 30.492 -1.66771 -1.63431 0
M  V30 343 C 31.473 -0.516499 -1.62069 0
M  V30 344 O 32.658 -0.750013 -1.79132 0
M  V30 345 C 29.788 -1.71515 -3.01993 0
M  V30 346 C 28.742 -2.86222 -3.18216 0
M  V30 347 C 28.068 -2.76061 -4.57924 0
M  V30 348 C 29.368 -4.27419 -3.00184 0
M  V30 349 H 31.062 -2.59932 -1.48579 0
M  V30 350 H 28.608 -1.25089 -0.713358 0
M  V30 351 H 30.561 -1.82731 -3.7972 0
M  V30 352 H 29.285 -0.749393 -3.17886 0
M  V30 353 H 27.944 -2.74575 -2.42908 0
M  V30 354 H 27.592 -1.77437 -4.70665 0
M  V30 355 H 27.292 -3.53037 -4.69722 0
M  V30 356 H 28.816 -2.89256 -5.37739 0
M  V30 357 H 30.23 -4.39855 -3.67697 0
M  V30 358 H 28.627 -5.05458 -3.2347 0
M  V30 359 H 29.697 -4.43293 -1.96518 0
M  V30 360 N 31.0401 0.771051 -1.3745 0
M  V30 361 C 32.4511 1.34737 -1.29239 0
M  V30 362 C 32.8021 1.96109 0.0596908 0
M  V30 363 O 31.9271 1.93865 0.961534 0
M  V30 364 C 32.5221 2.44973 -2.34037 0
M  V30 365 C 31.0811 2.98372 -2.29458 0
M  V30 366 C 30.2281 1.71595 -2.17831 0
M  V30 367 H 33.1791 0.571256 -1.48062 0
M  V30 368 H 33.2001 3.24471 -1.98744 0
M  V30 369 H 32.7121 2.00276 -3.32432 0
M  V30 370 H 30.8131 3.47443 -1.34589 0
M  V30 371 H 30.9261 3.53939 -3.229 0
M  V30 372 H 29.2901 1.94547 -1.64388 0
M  V30 373 H 30.0731 1.29001 -3.18141 0
M  V30 374 N 32.5182 1.22032 0.997298 0
M  V30 375 C 33.7462 1.06841 1.7718 0
M  V30 376 C 34.1612 -0.381325 1.84909 0
M  V30 377 O 33.5182 -1.26437 1.31605 0
M  V30 378 C 33.5692 1.66814 3.20711 0
M  V30 379 O 33.2902 3.06116 3.13408 0
M  V30 380 C 34.7912 1.56838 4.14628 0
M  V30 381 H 32.0112 0.374782 0.556578 0
M  V30 382 H 34.5552 1.61532 1.2541 0
M  V30 383 H 32.7102 1.16196 3.69564 0
M  V30 384 H 33.1242 3.34926 4.0364 0
M  V30 385 H 34.5982 2.03532 5.13107 0
M  V30 386 H 35.0752 0.524155 4.36061 0
M  V30 387 H 35.6812 2.06741 3.7167 0
M  V30 388 N 33.9963 -1.19345 1.0293 0
M  V30 389 C 35.4073 -1.70725 0.755633 0
M  V30 390 C 35.7583 -1.82326 -0.724676 0
M  V30 391 O 34.8833 -1.49471 -1.56484 0
M  V30 392 C 35.4783 -3.10084 1.36503 0
M  V30 393 C 34.0373 -3.58723 1.13994 0
M  V30 394 C 33.1843 -2.35577 1.46283 0
M  V30 395 H 36.1353 -1.0418 1.19718 0
M  V30 396 H 36.1563 -3.72787 0.762217 0
M  V30 397 H 35.6683 -3.01609 2.44241 0
M  V30 398 H 33.7693 -3.72512 0.0807901 0
M  V30 399 H 33.8823 -4.42816 1.82894 0
M  V30 400 H 32.2463 -2.38935 0.88217 0
M  V30 401 H 33.0293 -2.29731 2.55105 0
M  V30 402 N 35.4744 -0.807222 -1.35358 0
M  V30 403 C 36.6994 -0.399309 -2.0352 0
M  V30 404 C 37.1244 0.981986 -1.60433 0
M  V30 405 O 36.4824 1.63601 -0.781299 0
M  V30 406 C 36.5304 -0.491552 -3.57234 0
M  V30 407 O 35.6344 0.494754 -4.09421 0
M  V30 408 H 34.9754 -0.166682 -0.642739 0
M  V30 409 H 37.5054 -1.09328 -1.72941 0
M  V30 410 H 37.5154 -0.361588 -4.06395 0
M  V30 411 H 36.1904 -1.49907 -3.87944 0
M  V30 412 H 34.7674 0.324977 -3.71481 0
M  V30 413 N 36.9525 1.47285 -0.560781 0
M  V30 414 C 37.9005 2.31756 0.197942 0
M  V30 415 C 38.8945 1.43146 0.905854 0
M  V30 416 O 40.1005 1.59891 0.826733 0
M  V30 417 H 36.4755 0.747438 0.0827049 0
M  V30 418 H 38.4465 2.9359 -0.533629 0
M  V30 419 C 37.1955 3.25874 1.21249 0
M  V30 420 H 36.5185 3.94023 0.67719 0
M  V30 421 H 37.9585 3.87803 1.71419 0
M  V30 422 C 36.4175 2.49651 2.26221 0
M  V30 423 O 36.9475 2.24355 3.33208 0
M  V30 424 N 35.1535 2.10597 2.00243 0
M  V30 425 H 34.7005 2.31369 1.13252 0
M  V30 426 H 34.6585 1.59913 2.70694 0
M  V30 427 N 38.4306 0.297415 1.54768 0
M  V30 428 C 39.6796 -0.313669 1.99246 0
M  V30 429 C 39.9926 -1.55281 1.18942 0
M  V30 430 O 41.1986 -2.23825 1.5367 0
M  V30 431 C 39.6546 -0.609407 3.54703 0
M  V30 432 C 39.2626 0.611192 4.43811 0
M  V30 433 C 41.0066 -1.18188 4.07715 0
M  V30 434 C 38.9136 0.288805 5.90694 0
M  V30 435 H 37.8436 -0.120979 0.744231 0
M  V30 436 H 40.4946 0.40556 1.78962 0
M  V30 437 H 38.8766 -1.38813 3.70873 0
M  V30 438 H 40.0506 1.3875 4.39414 0
M  V30 439 H 38.3656 1.10205 4.01552 0
M  V30 440 H 40.9626 -1.43727 5.15021 0
M  V30 441 H 41.3056 -2.12299 3.58099 0
M  V30 442 H 41.8386 -0.464944 3.95074 0
M  V30 443 H 38.5776 1.19838 6.44453 0
M  V30 444 H 38.0976 -0.450305 5.98107 0
M  V30 445 H 39.7766 -0.110933 6.46905 0
M  V30 446 N 39.9087 -1.5758 0.0250728 0
M  V30 447 C 41.1337 -1.96337 -0.668317 0
M  V30 448 C 41.5587 -0.901314 -1.651 0
M  V30 449 O 40.9167 0.138187 -1.80773 0
M  V30 450 C 40.9647 -3.34191 -1.35457 0
M  V30 451 O 40.0687 -3.30269 -2.46974 0
M  V30 452 H 39.4097 -0.640281 -0.175887 0
M  V30 453 H 41.9397 -2.0442 0.0857224 0
M  V30 454 H 41.9497 -3.70331 -1.71228 0
M  V30 455 H 40.6247 -4.11036 -0.634218 0
M  V30 456 H 39.2017 -3.05841 -2.13344 0
M  V30 457 N 41.3868 0.248026 -1.55636 0
M  V30 458 C 42.3498 1.29044 -1.89421 0
M  V30 459 C 43.3498 1.41134 -0.770581 0
M  V30 460 O 44.5398 1.39854 -1.03858 0
M  V30 461 C 41.6718 2.66831 -2.12165 0
M  V30 462 H 42.8648 1.00305 -2.82629 0
M  V30 463 H 40.4178 0.487265 -1.48511 0
M  V30 464 H 41.1528 3.00711 -1.21422 0
M  V30 465 H 40.9378 2.59438 -2.93997 0
M  V30 466 H 42.4278 3.42103 -2.3949 0
M  V30 467 N 42.8649 1.48995 0.513639 0
M  V30 468 C 44.1109 1.59053 1.26783 0
M  V30 469 C 44.4659 0.268136 1.90522 0
M  V30 470 O 43.7589 -0.730534 1.77126 0
M  V30 471 C 43.9529 2.67756 2.36731 0
M  V30 472 C 43.7819 4.10437 1.83771 0
M  V30 473 C 42.5519 4.7738 1.65639 0
M  V30 474 C 44.7499 4.9608 1.35681 0
M  V30 475 N 42.7319 6.04419 1.07476 0
M  V30 476 C 44.1029 6.13496 0.895715 0
M  V30 477 C 46.1579 4.82177 1.24136 0
M  V30 478 C 44.8609 7.1854 0.3306 0
M  V30 479 C 46.8869 5.87358 0.690229 0
M  V30 480 C 46.2489 7.03993 0.239292 0
M  V30 481 H 42.3479 0.636463 0.454355 0
M  V30 482 H 44.9319 1.85948 0.577196 0
M  V30 483 H 43.1029 2.42655 3.03271 0
M  V30 484 H 44.8349 2.67406 3.0377 0
M  V30 485 H 41.5899 4.33974 1.8964 0
M  V30 486 H 42.0139 6.72214 0.803579 0
M  V30 487 H 46.6559 3.92329 1.57601 0
M  V30 488 H 44.3739 8.08098 -0.0163435 0
M  V30 489 H 47.9599 5.78658 0.603852 0
M  V30 490 H 46.8399 7.83992 -0.180526 0
M  V30 491 N 44.343 -0.763751 1.37857 0
M  V30 492 C 45.589 -1.52396 1.3471 0
M  V30 493 C 45.944 -1.92288 -0.0656435 0
M  V30 494 O 45.237 -1.6181 -1.02606 0
M  V30 495 C 45.431 -2.79499 2.22745 0
M  V30 496 C 45.26 -2.52031 3.72438 0
M  V30 497 C 44.03 -2.45759 4.4151 0
M  V30 498 C 46.228 -2.19489 4.65112 0
M  V30 499 N 44.21 -2.1046 5.76697 0
M  V30 500 C 45.581 -1.94396 5.88736 0
M  V30 501 C 47.636 -2.05712 4.53417 0
M  V30 502 C 46.339 -1.56917 7.01975 0
M  V30 503 C 48.365 -1.69634 5.66549 0
M  V30 504 C 47.727 -1.45407 6.89229 0
M  V30 505 H 43.826 -0.55765 0.548225 0
M  V30 506 H 46.41 -0.890302 1.73152 0
M  V30 507 H 44.581 -3.4069 1.86507 0
M  V30 508 H 46.313 -3.45465 2.10798 0
M  V30 509 H 43.068 -2.61885 3.94605 0
M  V30 510 H 43.492 -1.95484 6.48163 0
M  V30 511 H 48.134 -2.23123 3.59133 0
M  V30 512 H 45.852 -1.38246 7.96187 0
M  V30 513 H 49.438 -1.59621 5.59475 0
M  V30 514 H 48.318 -1.17904 7.75286 0
M  V30 515 N 45.8211 -1.22559 -0.990812 0
M  V30 516 C 46.7691 -0.994798 -2.10253 0
M  V30 517 C 47.7631 0.0627798 -1.69284 0
M  V30 518 O 48.9691 -0.0898392 -1.79776 0
M  V30 519 H 45.3441 -0.304527 -0.687581 0
M  V30 520 H 47.3151 -1.93812 -2.26891 0
M  V30 521 C 46.0641 -0.591439 -3.42633 0
M  V30 522 H 45.3871 -1.3969 -3.74602 0
M  V30 523 H 46.8271 -0.469385 -4.21394 0
M  V30 524 C 45.2861 0.699232 -3.29564 0
M  V30 525 O 45.8161 1.75112 -3.61523 0
M  V30 526 N 44.0221 0.671182 -2.82743 0
M  V30 527 H 43.5691 -0.185136 -2.56934 0
M  V30 528 H 43.5271 1.53502 -2.7438 0
M  V30 529 N 47.2992 1.18797 -1.03562 0
M  V30 530 C 48.5462 1.8865 -0.736023 0
M  V30 531 C 48.8742 1.80041 0.735889 0
M  V30 532 O 48.1292 1.19179 1.55225 0
M  V30 533 C 48.4282 3.38692 -1.14117 0
M  V30 534 C 48.0942 3.67504 -2.6125 0
M  V30 535 C 46.7562 3.75078 -3.01447 0
M  V30 536 C 49.1082 3.80293 -3.56408 0
M  V30 537 C 46.4362 3.92915 -4.35701 0
M  V30 538 C 48.7882 3.99645 -4.90374 0
M  V30 539 C 47.4522 4.05453 -5.30249 0
M  V30 540 H 46.7222 0.690321 -0.26933 0
M  V30 541 H 49.3692 1.40641 -1.29971 0
M  V30 542 H 47.6742 3.88645 -0.496202 0
M  V30 543 H 49.3712 3.91072 -0.886789 0
M  V30 544 H 45.9612 3.62223 -2.29113 0
M  V30 545 H 50.1452 3.73779 -3.26501 0
M  V30 546 H 45.4012 3.95653 -4.66121 0
M  V30 547 H 49.5752 4.08482 -5.64017 0
M  V30 548 H 47.2022 4.19027 -6.34288 0
M  V30 549 N 48.7773 0.814389 1.34928 0
M  V30 550 C 50.0253 0.397636 1.9815 0
M  V30 551 C 50.3463 -1.04069 1.64908 0
M  V30 552 O 49.6163 -1.72121 0.93548 0
M  V30 553 H 48.1963 0.144043 0.732981 0
M  V30 554 H 50.8583 1.04195 1.6471 0
M  V30 555 H 49.9543 0.509688 3.0791 0
M  V30 556 N 50.2554 -1.46986 0.568584 0
M  V30 557 C 51.4804 -2.07335 0.0520528 0
M  V30 558 C 51.9054 -1.41675 -1.23733 0
M  V30 559 O 51.2634 -0.495623 -1.74394 0
M  V30 560 C 51.3114 -3.60417 -0.11501 0
M  V30 561 O 50.4154 -3.95309 -1.17492 0
M  V30 562 H 49.7564 -0.661597 0.0564385 0
M  V30 563 H 52.2864 -1.88837 0.787507 0
M  V30 564 H 52.2964 -4.06698 -0.325644 0
M  V30 565 H 50.9714 -4.07601 0.826675 0
M  V30 566 H 49.5484 -3.60757 -0.943869 0
M  V30 567 N 51.7335 -0.305618 -1.54608 0
M  V30 568 C 52.6635 0.561482 -2.26649 0
M  V30 569 C 53.6445 1.13415 -1.26772 0
M  V30 570 O 54.8295 1.16262 -1.55553 0
M  V30 571 C 51.9595 1.73122 -3.01075 0
M  V30 572 C 50.9135 1.2887 -4.08138 0
M  V30 573 C 50.2395 2.54396 -4.70305 0
M  V30 574 C 51.5395 0.416578 -5.20636 0
M  V30 575 H 53.2335 -0.0393902 -2.99374 0
M  V30 576 H 50.7795 -0.020385 -1.43986 0
M  V30 577 H 52.7325 2.34396 -3.50195 0
M  V30 578 H 51.4565 2.3584 -2.25936 0
M  V30 579 H 50.1155 0.698991 -3.59875 0
M  V30 580 H 49.7635 3.15439 -3.918 0
M  V30 581 H 49.4635 2.25486 -5.42614 0
M  V30 582 H 50.9875 3.16464 -5.2219 0
M  V30 583 H 52.4015 0.935116 -5.65622 0
M  V30 584 H 50.7985 0.221046 -5.99693 0
M  V30 585 H 51.8685 -0.557162 -4.81688 0
M  V30 586 N 53.2116 1.57565 -0.0334293 0
M  V30 587 C 54.1416 2.13511 0.945265 0
M  V30 588 C 55.1226 1.05231 1.33643 0
M  V30 589 O 56.3076 1.33084 1.41429 0
M  V30 590 C 53.4376 2.6657 2.22616 0
M  V30 591 C 52.3916 3.79676 1.97561 0
M  V30 592 C 51.7176 4.1918 3.31952 0
M  V30 593 C 53.0176 5.0557 1.31135 0
M  V30 594 H 54.7116 2.95538 0.479325 0
M  V30 595 H 52.2576 1.42166 0.229115 0
M  V30 596 H 54.2106 3.04344 2.91466 0
M  V30 597 H 52.9346 1.8171 2.71384 0
M  V30 598 H 51.5936 3.42347 1.31127 0
M  V30 599 H 51.2416 3.31296 3.78487 0
M  V30 600 H 50.9416 4.95402 3.15992 0
M  V30 601 H 52.4656 4.59541 4.02063 0
M  V30 602 H 53.8796 5.40903 1.89992 0
M  V30 603 H 52.2766 5.86818 1.25559 0
M  V30 604 H 53.3466 4.84062 0.284894 0
M  V30 605 N 54.6897 -0.239769 1.55765 0
M  V30 606 C 55.9377 -0.964892 1.77579 0
M  V30 607 C 56.2587 -1.85582 0.598699 0
M  V30 608 O 55.5287 -1.92075 -0.385226 0
M  V30 609 H 54.1087 -0.359265 0.654933 0
M  V30 610 H 56.7707 -0.256001 1.93211 0
M  V30 611 H 55.8667 -1.58243 2.69009 0
M  V30 612 N 56.1678 -1.49265 -0.50573 0
M  V30 613 C 57.1308 -1.65075 -1.59006 0
M  V30 614 C 58.1308 -0.522768 -1.52065 0
M  V30 615 O 59.3208 -0.789117 -1.55302 0
M  V30 616 C 56.4528 -1.64369 -2.98656 0
M  V30 617 H 57.6458 -2.61784 -1.46319 0
M  V30 618 H 55.1988 -1.38226 -0.729616 0
M  V30 619 H 55.9338 -0.692272 -3.16825 0
M  V30 620 H 55.7188 -2.46282 -3.05103 0
M  V30 621 H 57.2088 -1.78674 -3.77446 0
M  V30 622 N 57.6459 0.756429 -1.3826 0
M  V30 623 C 58.8859 1.52833 -1.35725 0
M  V30 624 C 59.2499 1.91926 0.0534106 0
M  V30 625 O 60.4509 2.68028 0.203613 0
M  V30 626 C 58.7219 2.74919 -2.28373 0
M  V30 627 S 60.2809 3.64817 -2.43832 0
M  V30 628 H 57.0989 0.523043 -0.481608 0
M  V30 629 H 59.7009 0.888212 -1.74158 0
M  V30 630 H 58.4049 2.44304 -3.29763 0
M  V30 631 H 57.9359 3.43878 -1.91079 0
M  V30 632 H 59.9509 4.676 -1.66027 0
M  V30 633 N 59.124 1.23083 0.984299 0
M  V30 634 C 60.054 1.03292 2.09411 0
M  V30 635 C 61.035 -0.048923 1.7003 0
M  V30 636 O 62.22 0.114967 1.93859 0
M  V30 637 C 59.35 0.619155 3.41736 0
M  V30 638 C 58.304 1.64791 3.95004 0
M  V30 639 C 57.63 1.0897 5.23478 0
M  V30 640 C 58.93 3.03999 4.24714 0
M  V30 641 H 60.624 1.96119 2.26225 0
M  V30 642 H 58.17 0.944344 1.08711 0
M  V30 643 H 60.123 0.467777 4.18796 0
M  V30 644 H 58.847 -0.344786 3.24775 0
M  V30 645 H 57.506 1.78721 3.20085 0
M  V30 646 H 57.154 0.11686 5.02864 0
M  V30 647 H 56.854 1.77704 5.60085 0
M  V30 648 H 58.378 0.950093 6.03163 0
M  V30 649 H 59.792 2.93393 4.92538 0
M  V30 650 H 58.189 3.69936 4.72512 0
M  V30 651 H 59.259 3.53285 3.32142 0
M  V30 652 N 60.6021 -1.18246 1.0419 0
M  V30 653 C 61.8511 -1.87588 0.741194 0
M  V30 654 C 62.1641 -1.81303 -0.734066 0
M  V30 655 O 63.3701 -2.46019 -1.14834 0
M  V30 656 C 61.8261 -3.36538 1.27555 0
M  V30 657 C 61.4341 -3.51349 2.77953 0
M  V30 658 C 63.1781 -4.11273 1.05143 0
M  V30 659 C 61.0851 -4.94265 3.2474 0
M  V30 660 H 60.0151 -0.702622 0.273565 0
M  V30 661 H 62.6661 -1.33601 1.25789 0
M  V30 662 H 61.0481 -3.9 0.686703 0
M  V30 663 H 62.2221 -3.08153 3.42605 0
M  V30 664 H 60.5371 -2.90022 2.98791 0
M  V30 665 H 63.1341 -5.16689 1.37611 0
M  V30 666 H 63.4771 -4.16298 -0.0112774 0
M  V30 667 H 64.0101 -3.63987 1.60495 0
M  V30 668 H 60.7491 -4.94408 4.30396 0
M  V30 669 H 60.2691 -5.38172 2.64823 0
M  V30 670 H 61.9481 -5.62987 3.18834 0
M  V30 671 N 62.0802 -0.821533 -1.34494 0
M  V30 672 C 63.0102 -0.257138 -2.3208 0
M  V30 673 C 63.9912 0.625645 -1.58176 0
M  V30 674 O 65.1762 0.552811 -1.86166 0
M  V30 675 C 62.3062 0.582958 -3.42372 0
M  V30 676 C 61.2602 -0.202571 -4.2752 0
M  V30 677 C 60.5862 0.760179 -5.29269 0
M  V30 678 C 61.8862 -1.40998 -5.02908 0
M  V30 679 H 63.5802 -1.07247 -2.79532 0
M  V30 680 H 61.1262 -0.517163 -1.34393 0
M  V30 681 H 63.0792 0.987972 -4.09655 0
M  V30 682 H 61.8032 1.43133 -2.93565 0
M  V30 683 H 60.4622 -0.588936 -3.61838 0
M  V30 684 H 60.1102 1.60447 -4.76724 0
M  V30 685 H 59.8102 0.238809 -5.87115 0
M  V30 686 H 61.3342 1.16308 -5.9942 0
M  V30 687 H 62.7482 -1.07905 -5.63054 0
M  V30 688 H 61.1452 -1.86689 -5.70322 0
M  V30 689 H 62.2152 -2.1889 -4.32684 0
M  V30 690 N 63.5583 1.46682 -0.576371 0
M  V30 691 C 64.4903 2.28341 0.198231 0
M  V30 692 C 65.5033 1.38141 0.861453 0
M  V30 693 O 66.6923 1.62797 0.732082 0
M  V30 694 C 63.7923 3.12986 1.29972 0
M  V30 695 C 62.9653 4.31271 0.729639 0
M  V30 696 C 62.0243 4.97363 1.71803 0
M  V30 697 O 61.0503 5.55156 1.25658 0
M  V30 698 N 62.2523 4.93796 3.05198 0
M  V30 699 H 65.0173 2.9546 -0.502324 0
M  V30 700 H 62.5783 1.56525 -0.413715 0
M  V30 701 H 64.5703 3.54066 1.96008 0
M  V30 702 H 63.1403 2.47984 1.90323 0
M  V30 703 H 62.3603 3.94052 -0.108012 0
M  V30 704 H 63.6483 5.07739 0.328438 0
M  V30 705 H 63.0463 4.48077 3.45317 0
M  V30 706 H 61.6033 5.38837 3.6674 0
M  V30 707 N 65.0364 0.313813 1.54444 0
M  V30 708 C 66.2854 -0.292519 1.99568 0
M  V30 709 C 66.5984 -1.54011 1.20582 0
M  V30 710 O 67.8044 -2.22183 1.56035 0
M  V30 711 C 66.2604 -0.571752 3.55329 0
M  V30 712 C 65.8684 0.658229 4.43138 0
M  V30 713 C 67.6124 -1.13857 4.08946 0
M  V30 714 C 65.5194 0.351439 5.90355 0
M  V30 715 H 64.4494 -0.113079 0.745472 0
M  V30 716 H 67.1004 0.424518 1.78522 0
M  V30 717 H 65.4824 -1.34872 3.72325 0
M  V30 718 H 66.6564 1.43403 4.37918 0
M  V30 719 H 64.9714 1.14458 4.0036 0
M  V30 720 H 67.5684 -1.38257 5.16516 0
M  V30 721 H 67.9114 -2.08489 3.6033 0
M  V30 722 H 68.4444 -0.423015 3.95544 0
M  V30 723 H 65.1834 1.26667 6.43145 0
M  V30 724 H 64.7034 -0.386842 5.98551 0
M  V30 725 H 66.3824 -0.0423134 6.46986 0
M  V30 726 N 66.5145 -1.57545 0.0417849 0
M  V30 727 C 67.7425 -1.96624 -0.643928 0
M  V30 728 C 68.1575 -0.918897 -1.64929 0
M  V30 729 O 67.5145 0.0979323 -1.82237 0
M  V30 730 C 67.5655 -3.35781 -1.33914 0
M  V30 731 O 67.2865 -4.365 -0.374048 0
M  V30 732 C 68.7875 -3.89566 -2.1155 0
M  V30 733 H 66.0075 -0.647316 -0.176702 0
M  V30 734 H 68.5515 -2.04229 0.105304 0
M  V30 735 H 66.7065 -3.29357 -2.03968 0
M  V30 736 H 67.1205 -5.17248 -0.869179 0
M  V30 737 H 68.5945 -4.89242 -2.55628 0
M  V30 738 H 69.0715 -3.24488 -2.9598 0
M  V30 739 H 69.6775 -3.99298 -1.46427 0
M  V30 740 N 67.9926 0.231505 -1.5589 0
M  V30 741 C 69.2206 0.974505 -1.82513 0
M  V30 742 C 69.6356 1.78344 -0.619591 0
M  V30 743 O 68.9926 1.77792 0.411848 0
M  V30 744 C 69.0436 1.90007 -3.07538 0
M  V30 745 O 68.7646 1.12385 -4.2344 0
M  V30 746 C 70.2656 2.75779 -3.47075 0
M  V30 747 H 67.4856 0.286065 -0.606966 0
M  V30 748 H 70.0296 0.249739 -2.02969 0
M  V30 749 H 68.1846 2.57891 -2.89086 0
M  V30 750 H 68.5986 1.75125 -4.944 0
M  V30 751 H 70.0726 3.36443 -4.37619 0
M  V30 752 H 70.5496 3.47672 -2.68367 0
M  V30 753 H 71.1556 2.13323 -3.67931 0
M  V30 754 N 69.4707 1.49531 0.497807 0
M  V30 755 C 70.7187 1.58865 1.24926 0
M  V30 756 C 71.0397 0.278721 1.92998 0
M  V30 757 O 70.3097 -0.702144 1.82885 0
M  V30 758 H 68.8897 0.585343 0.464094 0
M  V30 759 H 71.5517 1.86174 0.57666 0
M  V30 760 H 70.6477 2.38633 2.01149 0
M  V30 761 N 70.9488 -0.749086 1.3866 0
M  V30 762 C 71.8788 -1.8764 1.38973 0
M  V30 763 C 72.8598 -1.68178 0.255004 0
M  V30 764 O 74.0448 -1.88704 0.458754 0
M  V30 765 C 71.1748 -3.25222 1.21851 0
M  V30 766 C 70.1288 -3.59295 2.32575 0
M  V30 767 C 69.4548 -4.95663 2.00555 0
M  V30 768 C 70.7548 -3.63709 3.7485 0
M  V30 769 H 72.4488 -1.87635 2.3331 0
M  V30 770 H 69.9948 -0.901329 1.12303 0
M  V30 771 H 71.9478 -4.03746 1.20695 0
M  V30 772 H 70.6718 -3.25719 0.239775 0
M  V30 773 H 69.3308 -2.83093 2.32925 0
M  V30 774 H 68.9788 -4.92724 1.01154 0
M  V30 775 H 68.6788 -5.19429 2.74714 0
M  V30 776 H 70.2028 -5.7656 2.01024 0
M  V30 777 H 71.6168 -4.32338 3.76506 0
M  V30 778 H 70.0138 -3.98986 4.48252 0
M  V30 779 H 71.0838 -2.63834 4.06841 0
M  V30 780 N 72.4269 -1.23603 -0.977757 0
M  V30 781 C 73.6739 -1.06971 -1.71941 0
M  V30 782 C 74.0019 0.393009 -1.90488 0
M  V30 783 O 73.2569 1.30719 -1.4564 0
M  V30 784 C 73.5559 -1.7433 -3.11999 0
M  V30 785 C 73.2219 -3.24252 -3.13323 0
M  V30 786 C 71.8839 -3.65156 -3.13392 0
M  V30 787 C 74.2359 -4.20141 -3.08433 0
M  V30 788 C 71.5639 -5.00403 -3.0629 0
M  V30 789 C 73.9159 -5.55384 -3.02873 0
M  V30 790 C 72.5799 -5.95647 -3.01265 0
M  V30 791 H 71.8499 -0.391433 -0.629175 0
M  V30 792 H 74.4969 -1.53572 -1.14403 0
M  V30 793 H 72.8019 -1.20096 -3.7294 0
M  V30 794 H 74.4989 -1.58936 -3.68158 0
M  V30 795 H 71.0889 -2.91692 -3.14029 0
M  V30 796 H 75.2729 -3.89547 -3.07517 0
M  V30 797 H 70.5289 -5.3081 -3.03399 0
M  V30 798 H 74.7029 -6.29398 -2.98046 0
M  V30 799 H 72.3299 -7.0041 -2.95516 0
M  V30 800 N 73.905 1.17692 -1.04816 0
M  V30 801 C 74.835 2.23777 -0.666791 0
M  V30 802 C 75.816 1.66796 0.33361 0
M  V30 803 O 77.001 1.93039 0.212042 0
M  V30 804 C 74.131 3.47281 -0.0367933 0
M  V30 805 C 73.085 4.17059 -0.961546 0
M  V30 806 C 72.411 5.34342 -0.195626 0
M  V30 807 C 73.711 4.69713 -2.28402 0
M  V30 808 H 75.405 2.55933 -1.55367 0
M  V30 809 H 72.951 1.23019 -0.748484 0
M  V30 810 H 74.904 4.20706 0.241775 0
M  V30 811 H 73.628 3.14381 0.885004 0
M  V30 812 H 72.287 3.45541 -1.22462 0
M  V30 813 H 71.935 4.97692 0.728816 0
M  V30 814 H 71.635 5.81966 -0.811775 0
M  V30 815 H 73.159 6.10553 0.0757473 0
M  V30 816 H 74.573 5.34794 -2.06563 0
M  V30 817 H 72.97 5.279 -2.8538 0
M  V30 818 H 74.04 3.86726 -2.92525 0
M  V30 819 N 75.3831 0.828654 1.34056 0
M  V30 820 C 76.3461 0.259927 2.27721 0
M  V30 821 C 77.3461 -0.565478 1.50529 0
M  V30 822 O 78.5361 -0.38075 1.69988 0
M  V30 823 C 75.6681 -0.634944 3.34935 0
M  V30 824 H 76.8611 1.0863 2.79534 0
M  V30 825 H 74.4141 0.600951 1.44285 0
M  V30 826 H 75.1491 -1.48416 2.88346 0
M  V30 827 H 74.9341 -0.0444999 3.92075 0
M  V30 828 H 76.4241 -1.02648 4.04788 0
M  V30 829 N 76.8612 -1.46375 0.584142 0
M  V30 830 C 77.7942 -2.27351 -0.196676 0
M  V30 831 C 78.7722 -1.35715 -0.895561 0
M  V30 832 O 79.9562 -1.65126 -0.90916 0
M  V30 833 C 77.0832 -3.13486 -1.28235 0
M  V30 834 C 76.1292 -4.20896 -0.689145 0
M  V30 835 S 76.9622 -5.33299 0.48507 0
M  V30 836 C 78.1182 -6.23 -0.601767 0
M  V30 837 H 78.3512 -2.93228 0.490395 0
M  V30 838 H 75.8842 -1.49875 0.371071 0
M  V30 839 H 77.8422 -3.63676 -1.90395 0
M  V30 840 H 76.5032 -2.4692 -1.94138 0
M  V30 841 H 75.6962 -4.80997 -1.50527 0
M  V30 842 H 75.2982 -3.73726 -0.143181 0
M  V30 843 H 77.5902 -6.60979 -1.48705 0
M  V30 844 H 78.5332 -7.0809 -0.0374799 0
M  V30 845 H 78.9412 -5.57173 -0.906557 0
M  V30 846 N 78.3393 -0.321999 -1.54275 0
M  V30 847 C 79.2893 0.560185 -2.21011 0
M  V30 848 C 80.2733 1.08283 -1.19011 0
M  V30 849 O 81.4653 1.02011 -1.44647 0
M  V30 850 C 78.5943 1.72137 -2.97025 0
M  V30 851 C 77.6803 1.21369 -4.06363 0
M  V30 852 N 78.0713 0.425566 -5.04007 0
M  V30 853 C 76.3693 1.49255 -4.20284 0
M  V30 854 C 77.0703 0.152601 -5.815 0
M  V30 855 N 76.0463 0.738294 -5.38563 0
M  V30 856 H 79.8483 -0.049265 -2.93859 0
M  V30 857 H 77.3623 -0.127779 -1.61897 0
M  V30 858 H 79.3593 2.36512 -3.43319 0
M  V30 859 H 78.0193 2.33431 -2.25699 0
M  V30 860 H 79.0303 0.068551 -5.17855 0
M  V30 861 H 75.7073 2.11145 -3.60172 0
M  V30 862 H 77.0973 -0.481764 -6.70171 0
M  V30 863 N 79.8174 1.5752 -0.0501392 0
M  V30 864 C 81.0474 1.96678 0.632573 0
M  V30 865 C 81.4554 0.926298 1.64974 0
M  V30 866 O 80.7984 -0.09802 1.83438 0
M  V30 867 C 80.8604 3.32068 1.37735 0
M  V30 868 C 80.5244 4.54076 0.516131 0
M  V30 869 C 81.5214 5.19445 -0.217357 0
M  V30 870 C 79.2064 5.00304 0.44736 0
M  V30 871 C 81.2004 6.29378 -1.00807 0
M  V30 872 C 78.8874 6.10114 -0.347038 0
M  V30 873 C 79.8854 6.74512 -1.07344 0
M  V30 874 O 79.5734 7.82211 -1.85477 0
M  V30 875 H 79.3054 0.652193 0.177821 0
M  V30 876 H 81.8594 2.05091 -0.112543 0
M  V30 877 H 80.0894 3.20206 2.16807 0
M  V30 878 H 81.7784 3.55981 1.95019 0
M  V30 879 H 82.5444 4.84689 -0.173688 0
M  V30 880 H 78.4234 4.49971 1.00235 0
M  V30 881 H 81.9674 6.79575 -1.57556 0
M  V30 882 H 77.8644 6.44307 -0.392349 0
M  V30 883 H 78.6324 7.98982 -1.77678 0
M  V30 884 N 81.2955 -0.223234 1.56011 0
M  V30 885 C 82.5205 -0.968978 1.83373 0
M  V30 886 C 82.9455 -1.77227 0.630254 0
M  V30 887 O 82.3035 -1.76345 -0.420959 0
M  V30 888 C 82.3515 -1.86363 3.08709 0
M  V30 889 O 81.4555 -2.95873 2.87285 0
M  V30 890 H 80.7965 -0.274461 0.604622 0
M  V30 891 H 83.3265 -0.237056 2.03222 0
M  V30 892 H 83.3365 -2.27376 3.38768 0
M  V30 893 H 82.0115 -1.27319 3.95933 0
M  V30 894 H 80.5885 -2.58818 2.68454 0
M  V30 895 N 82.7736 -1.49793 -0.48987 0
M  V30 896 C 84.1846 -1.52914 -1.07118 0
M  V30 897 C 84.5356 -0.321738 -1.93544 0
M  V30 898 O 83.6606 0.567338 -2.08831 0
M  V30 899 C 84.2556 -2.771 -1.94938 0
M  V30 900 C 82.8146 -2.82963 -2.48212 0
M  V30 901 C 81.9616 -2.46972 -1.26096 0
M  V30 902 H 84.9126 -1.56329 -0.273289 0
M  V30 903 H 84.9336 -2.57892 -2.79771 0
M  V30 904 H 84.4456 -3.64959 -1.32009 0
M  V30 905 H 82.5466 -1.99411 -3.14748 0
M  V30 906 H 82.6596 -3.85406 -2.84603 0
M  V30 907 H 81.0236 -1.98994 -1.58976 0
M  V30 908 H 81.8066 -3.37118 -0.648581 0
M  V30 909 N 84.2517 0.741722 -1.39055 0
M  V30 910 C 85.5287 1.49252 -1.26425 0
M  V30 911 C 85.9087 2.10705 0.129144 0
M  V30 912 O 85.2567 1.98045 1.13976 0
M  V30 913 C 85.4667 2.54934 -2.38347 0
M  V30 914 C 86.8147 3.21506 -2.77343 0
M  V30 915 O 87.8387 2.65245 -2.37747 0
M  V30 916 O 86.6977 4.23294 -3.45665 0
M  V30 917 H 83.7917 0.662451 -0.495064 0
M  V30 918 H 86.3377 0.776121 -1.50912 0
M  V30 919 H 85.1097 2.07857 -3.31529 0
M  V30 920 H 84.7327 3.34141 -2.15489 0
M  V30 921 N 85.7298 1.2412 0.971189 0
M  V30 922 C 86.6928 1.03156 2.04674 0
M  V30 923 C 87.6928 -0.00990322 1.60797 0
M  V30 924 O 88.8828 0.230729 1.72665 0
M  V30 925 C 86.0148 0.562765 3.36223 0
M  V30 926 H 87.2078 1.98614 2.24705 0
M  V30 927 H 84.7608 1.06293 1.14593 0
M  V30 928 H 85.4958 -0.395176 3.21883 0
M  V30 929 H 85.2808 1.31441 3.69413 0
M  V30 930 H 86.7708 0.437015 4.15307 0
M  V30 931 N 87.2079 -1.17134 1.05439 0
M  V30 932 C 88.4329 -1.91913 0.786396 0
M  V30 933 C 88.8579 -1.7643 -0.652234 0
M  V30 934 O 88.2159 -1.08372 -1.45345 0
M  V30 935 C 88.2639 -3.40921 1.17497 0
M  V30 936 O 87.3679 -4.11244 0.308589 0
M  V30 937 H 86.7089 -0.598215 0.288158 0
M  V30 938 H 89.2389 -1.48457 1.4079 0
M  V30 939 H 89.2489 -3.91668 1.14281 0
M  V30 940 H 87.9239 -3.5151 2.22292 0
M  V30 941 H 86.5009 -3.70731 0.40157 0
M  V30 942 N 88.686 -0.835752 -1.33615 0
M  V30 943 C 89.914 -0.443344 -2.02094 0
M  V30 944 C 90.329 0.954522 -1.62894 0
M  V30 945 O 89.686 1.61982 -0.840723 0
M  V30 946 C 89.737 -0.550775 -3.5728 0
M  V30 947 O 89.458 -1.89356 -3.95065 0
M  V30 948 C 90.959 -0.154919 -4.43029 0
M  V30 949 H 88.179 -0.176359 -0.647409 0
M  V30 950 H 90.723 -1.12746 -1.70612 0
M  V30 951 H 88.878 0.0853997 -3.87306 0
M  V30 952 H 89.292 -1.87687 -4.89769 0
M  V30 953 H 90.766 -0.281144 -5.51284 0
M  V30 954 H 91.243 0.902863 -4.2982 0
M  V30 955 H 91.849 -0.765404 -4.18356 0
M  V30 956 N 90.1641 1.46063 -0.591896 0
M  V30 957 C 91.1271 2.28854 0.125973 0
M  V30 958 C 92.1271 1.38903 0.810107 0
M  V30 959 O 93.3171 1.61186 0.66066 0
M  V30 960 C 90.4491 3.19526 1.1881 0
M  V30 961 H 91.6421 2.93802 -0.601717 0
M  V30 962 H 89.1951 1.52325 -0.350254 0
M  V30 963 H 89.9301 2.59345 1.94707 0
M  V30 964 H 89.7151 3.85766 0.701936 0
M  V30 965 H 91.2051 3.81817 1.69132 0
M  V30 966 N 91.6422 0.330177 1.54103 0
M  V30 967 C 92.8892 -0.270405 2.00686 0
M  V30 968 C 93.2172 -1.51621 1.21825 0
M  V30 969 O 92.4722 -1.93536 0.29025 0
M  V30 970 C 92.7712 -0.643134 3.51566 0
M  V30 971 C 92.4372 0.504251 4.48072 0
M  V30 972 C 91.0992 0.819163 4.74176 0
M  V30 973 C 93.4512 1.27465 5.05373 0
M  V30 974 C 90.7792 1.90708 5.5484 0
M  V30 975 C 93.1312 2.35271 5.87223 0
M  V30 976 C 91.7952 2.67336 6.11627 0
M  V30 977 H 91.0652 -0.0989482 0.734364 0
M  V30 978 H 93.7122 0.455324 1.86008 0
M  V30 979 H 92.0172 -1.44938 3.64006 0
M  V30 980 H 93.7142 -1.11949 3.85056 0
M  V30 981 H 90.3042 0.248733 4.27878 0
M  V30 982 H 94.4882 1.04462 4.85182 0
M  V30 983 H 89.7442 2.15991 5.71977 0
M  V30 984 H 93.9182 2.95405 6.30641 0
M  V30 985 H 91.5452 3.51763 6.73919 0
M  V30 986 N 93.1203 -1.57491 0.0584922 0
M  V30 987 C 94.3453 -1.97711 -0.62652 0
M  V30 988 C 94.7703 -0.936132 -1.63151 0
M  V30 989 O 94.1283 0.099811 -1.81025 0
M  V30 990 C 94.1763 -3.36989 -1.28338 0
M  V30 991 O 93.2803 -3.35433 -2.39913 0
M  V30 992 H 92.6213 -0.643868 -0.162266 0
M  V30 993 H 95.1513 -2.04193 0.129064 0
M  V30 994 H 95.1613 -3.73879 -1.63335 0
M  V30 995 H 93.8363 -4.12289 -0.546889 0
M  V30 996 H 92.4133 -3.10298 -2.06809 0
M  V30 997 N 94.5984 0.214957 -1.56127 0
M  V30 998 C 95.8234 0.95924 -1.83884 0
M  V30 999 C 96.2484 1.7689 -0.639644 0
M  V30 1000 O 95.6064 1.76566 0.411601 0
M  V30 1001 C 95.6544 1.84723 -3.09693 0
M  V30 1002 O 94.7584 2.94346 -2.8885 0
M  V30 1003 H 94.0994 0.27125 -0.606069 0
M  V30 1004 H 96.6294 0.226276 -2.03345 0
M  V30 1005 H 96.6394 2.25576 -3.39969 0
M  V30 1006 H 95.3144 1.25218 -3.96602 0
M  V30 1007 H 93.8914 2.57391 -2.69823 0
M  V30 1008 N 96.0765 1.50051 0.48192 0
M  V30 1009 C 97.3255 1.59741 1.23149 0
M  V30 1010 C 97.6385 0.298163 1.93314 0
M  V30 1011 O 98.8445 0.273835 2.70116 0
M  V30 1012 C 97.3005 2.81926 2.23708 0
M  V30 1013 C 96.9085 4.18685 1.59396 0
M  V30 1014 C 98.6525 3.00956 2.99375 0
M  V30 1015 C 96.5595 5.3207 2.58178 0
M  V30 1016 H 95.4895 0.594838 0.46334 0
M  V30 1017 H 98.1405 1.76467 0.503169 0
M  V30 1018 H 96.5225 2.58736 2.99786 0
M  V30 1019 H 97.6965 4.52088 0.891811 0
M  V30 1020 H 96.0115 4.05171 0.960503 0
M  V30 1021 H 98.6085 3.82836 3.73283 0
M  V30 1022 H 98.9515 2.12258 3.58123 0
M  V30 1023 H 99.4845 3.24277 2.30411 0
M  V30 1024 H 96.2235 6.22888 2.04184 0
M  V30 1025 H 95.7435 5.03098 3.26577 0
M  V30 1026 H 97.4225 5.62196 3.20225 0
M  V30 1027 N 97.5546 -0.734337 1.39446 0
M  V30 1028 C 98.5176 -1.83004 1.37994 0
M  V30 1029 C 99.5176 -1.58397 0.276938 0
M  V30 1030 O 100.708 -1.65785 0.534875 0
M  V30 1031 C 97.8396 -3.20802 1.1532 0
M  V30 1032 H 99.0326 -1.85694 2.35494 0
M  V30 1033 H 96.5856 -0.938059 1.25021 0
M  V30 1034 H 97.3206 -3.23772 0.185036 0
M  V30 1035 H 97.1056 -3.4006 1.95197 0
M  V30 1036 H 98.5956 -4.00862 1.17046 0
M  V30 1037 N 99.0327 -1.24633 -0.964593 0
M  V30 1038 C 99.9827 -1.00841 -2.04487 0
M  V30 1039 C 100.967 0.0512468 -1.60818 0
M  V30 1040 O 102.159 -0.162865 -1.76249 0
M  V30 1041 C 99.2877 -0.618474 -3.37683 0
M  V30 1042 C 98.3737 -1.71437 -3.87905 0
M  V30 1043 N 98.7647 -2.9477 -4.11029 0
M  V30 1044 C 97.0627 -1.5926 -4.16596 0
M  V30 1045 C 97.7637 -3.65834 -4.52261 0
M  V30 1046 N 96.7397 -2.9341 -4.57615 0
M  V30 1047 H 100.542 -1.94487 -2.20345 0
M  V30 1048 H 98.0557 -1.14805 -1.14863 0
M  V30 1049 H 100.053 -0.429247 -4.14684 0
M  V30 1050 H 98.7127 0.310766 -3.23209 0
M  V30 1051 H 99.7237 -3.30917 -3.9839 0
M  V30 1052 H 96.4007 -0.731606 -4.1104 0
M  V30 1053 H 97.7907 -4.71646 -4.78539 0
M  V30 1054 N 100.511 1.16574 -1.06058 0
M  V30 1055 C 101.76 1.86385 -0.770944 0
M  V30 1056 C 102.073 1.82448 0.705129 0
M  V30 1057 O 103.279 2.47815 1.10905 0
M  V30 1058 C 101.735 3.34466 -1.32893 0
M  V30 1059 C 101.343 3.46883 -2.83507 0
M  V30 1060 C 103.087 4.09548 -1.11672 0
M  V30 1061 C 100.994 4.89036 -3.32562 0
M  V30 1062 H 99.9238 0.698181 -0.284709 0
M  V30 1063 H 102.575 1.31583 -1.27899 0
M  V30 1064 H 100.957 3.88859 -0.748662 0
M  V30 1065 H 102.131 3.02663 -3.47465 0
M  V30 1066 H 100.446 2.85232 -3.03368 0
M  V30 1067 H 103.043 5.14434 -1.45814 0
M  V30 1068 H 103.386 4.16264 -0.0549535 0
M  V30 1069 H 103.919 3.61387 -1.66265 0
M  V30 1070 H 100.658 4.87499 -4.38207 0
M  V30 1071 H 100.178 5.3389 -2.73351 0
M  V30 1072 H 101.857 5.57843 -3.2775 0
M  V30 1073 N 101.989 0.842826 1.3317 0
M  V30 1074 C 103.217 0.454055 2.01856 0
M  V30 1075 C 103.632 -0.94587 1.63397 0
M  V30 1076 O 102.989 -1.61534 0.849302 0
M  V30 1077 C 103.04 0.569715 3.56982 0
M  V30 1078 O 102.761 1.91448 3.94055 0
M  V30 1079 C 104.262 0.178412 4.42941 0
M  V30 1080 H 101.482 0.17979 0.646465 0
M  V30 1081 H 104.026 1.1365 1.70012 0
M  V30 1082 H 102.181 -0.0648587 3.87346 0
M  V30 1083 H 102.595 1.90282 4.88767 0
M  V30 1084 H 104.069 0.310376 5.51127 0
M  V30 1085 H 104.546 -0.880056 4.30293 0
M  V30 1086 H 105.152 0.787579 4.17944 0
M  V30 1087 N 103.467 -1.45747 0.599634 0
M  V30 1088 C 104.883 -1.57424 0.26264 0
M  V30 1089 C 105.083 -1.59222 -1.23493 0
M  V30 1090 O 104.139 -1.51825 -2.01756 0
M  V30 1091 C 105.452 -2.86061 0.926795 0
M  V30 1092 C 107 -2.99722 0.901967 0
M  V30 1093 C 107.475 -4.31119 1.54598 0
M  V30 1094 N 108.966 -4.37858 1.5111 0
M  V30 1095 C 109.701 -5.3818 1.97863 0
M  V30 1096 N 109.197 -6.45083 2.52666 0
M  V30 1097 N 110.99 -5.29487 1.88679 0
M  V30 1098 H 103.141 -1.42823 1.57211 0
M  V30 1099 H 105.404 -0.68235 0.658105 0
M  V30 1100 H 105.11 -2.90605 1.98095 0
M  V30 1101 H 104.984 -3.74563 0.445238 0
M  V30 1102 H 107.371 -2.9475 -0.143617 0
M  V30 1103 H 107.452 -2.12652 1.42171 0
M  V30 1104 H 107.096 -4.36849 2.59085 0
M  V30 1105 H 107.026 -5.16992 1.00132 0
M  V30 1106 H 109.517 -3.61209 1.11068 0
M  V30 1107 H 109.83 -7.17869 2.86155 0
M  V30 1108 H 108.175 -6.45856 2.56701 0
M  V30 1109 H 111.366 -4.44877 1.4561 0
M  V30 1110 H 111.539 -6.07524 2.25429 0
M  V30 1111 N 104.945 -0.338344 -1.53925 0
M  V30 1112 C 106.222 0.314774 -1.93051 0
M  V30 1113 C 106.602 1.68669 -1.26941 0
M  V30 1114 O 105.95 2.24636 -0.418445 0
M  V30 1115 C 106.16 0.392249 -3.46789 0
M  V30 1116 C 107.508 0.645554 -4.19664 0
M  V30 1117 O 108.532 0.474575 -3.53024 0
M  V30 1118 O 107.391 0.976408 -5.37707 0
M  V30 1119 H 104.485 0.182598 -0.80659 0
M  V30 1120 H 107.031 -0.389141 -1.65178 0
M  V30 1121 H 105.803 -0.570702 -3.87116 0
M  V30 1122 H 105.426 1.14316 -3.80812 0
M  V30 1123 N 106.423 1.57458 -0.0668435 0
M  V30 1124 C 107.669 1.93587 0.6043 0
M  V30 1125 C 108.002 0.946722 1.69561 0
M  V30 1126 O 107.277 -0.0248516 1.94484 0
M  V30 1127 C 107.56 3.40014 1.18585 0
M  V30 1128 C 107.413 4.49685 0.101529 0
M  V30 1129 C 108.732 3.87154 2.09284 0
M  V30 1130 H 105.851 0.703958 0.218202 0
M  V30 1131 H 108.493 1.89542 -0.131804 0
M  V30 1132 H 106.643 3.43592 1.81319 0
M  V30 1133 H 108.315 4.5823 -0.531279 0
M  V30 1134 H 106.558 4.30059 -0.568487 0
M  V30 1135 H 107.229 5.49266 0.54874 0
M  V30 1136 H 109.705 3.85551 1.56491 0
M  V30 1137 H 108.581 4.90231 2.46911 0
M  V30 1138 H 108.842 3.2481 2.99918 0
M  V30 1139 N 107.901 -0.206675 1.56239 0
M  V30 1140 C 108.849 -1.27571 1.94495 0
M  V30 1141 C 109.843 -1.47737 0.828862 0
M  V30 1142 O 111.049 -1.48735 1.0138 0
M  V30 1143 H 107.424 -0.428029 0.6183 0
M  V30 1144 H 109.395 -0.925961 2.8367 0
M  V30 1145 C 108.144 -2.61568 2.29079 0
M  V30 1146 H 107.467 -2.46863 3.14482 0
M  V30 1147 H 108.907 -3.35144 2.5972 0
M  V30 1148 C 107.366 -3.17695 1.12123 0
M  V30 1149 O 107.896 -3.99801 0.390153 0
M  V30 1150 N 106.102 -2.76276 0.901097 0
M  V30 1151 H 105.649 -2.09613 1.49733 0
M  V30 1152 H 105.607 -3.1417 0.120319 0
M  V30 1153 N 109.379 -1.50304 -0.473955 0
M  V30 1154 C 110.609 -1.64663 -1.24778 0
M  V30 1155 C 111.017 -0.328174 -1.86332 0
M  V30 1156 O 110.36 0.699536 -1.69859 0
M  V30 1157 C 110.422 -2.6778 -2.39863 0
M  V30 1158 C 110.086 -4.11413 -1.98969 0
M  V30 1159 C 111.083 -4.97372 -1.51385 0
M  V30 1160 C 108.768 -4.57312 -2.07777 0
M  V30 1161 C 110.762 -6.27277 -1.13148 0
M  V30 1162 C 108.449 -5.87223 -1.69152 0
M  V30 1163 C 109.447 -6.72031 -1.21915 0
M  V30 1164 O 109.135 -7.99518 -0.838237 0
M  V30 1165 H 108.867 -0.556602 -0.383627 0
M  V30 1166 H 111.421 -1.9726 -0.572491 0
M  V30 1167 H 109.651 -2.30419 -3.10554 0
M  V30 1168 H 111.34 -2.71388 -3.01833 0
M  V30 1169 H 112.106 -4.63128 -1.44004 0
M  V30 1170 H 107.985 -3.91449 -2.43493 0
M  V30 1171 H 111.529 -6.93425 -0.762077 0
M  V30 1172 H 107.426 -6.20989 -1.76191 0
M  V30 1173 H 108.194 -8.12764 -0.967339 0
M  V30 1174 N 110.857 0.726932 -1.39834 0
M  V30 1175 C 112.105 1.4837 -1.37225 0
M  V30 1176 C 112.426 1.94979 0.0284857 0
M  V30 1177 O 111.696 1.69555 0.981213 0
M  V30 1178 H 110.276 0.55043 -0.505011 0
M  V30 1179 H 112.938 0.862468 -1.74778 0
M  V30 1180 H 112.034 2.36198 -2.04003 0
M  V30 1181 N 112.336 1.25143 0.95797 0
M  V30 1182 C 113.582 1.10863 1.70531 0
M  V30 1183 C 113.937 -0.347391 1.89238 0
M  V30 1184 O 113.23 -1.25262 1.44983 0
M  V30 1185 C 113.424 1.79272 3.09187 0
M  V30 1186 C 113.253 3.31376 3.04006 0
M  V30 1187 C 112.023 4.0062 3.07948 0
M  V30 1188 C 114.221 4.27825 2.8543 0
M  V30 1189 N 112.203 5.39526 2.9289 0
M  V30 1190 C 113.574 5.53794 2.78769 0
M  V30 1191 C 115.629 4.1828 2.70085 0
M  V30 1192 C 114.332 6.7131 2.58331 0
M  V30 1193 C 116.358 5.35485 2.51017 0
M  V30 1194 C 115.72 6.60393 2.45073 0
M  V30 1195 H 111.819 0.460362 0.632132 0
M  V30 1196 H 114.403 1.58196 1.13499 0
M  V30 1197 H 112.574 1.34439 3.64391 0
M  V30 1198 H 114.306 1.57764 3.72683 0
M  V30 1199 H 111.061 3.51855 3.17009 0
M  V30 1200 H 111.485 6.12416 2.88574 0
M  V30 1201 H 116.127 3.22461 2.73457 0
M  V30 1202 H 113.845 7.67243 2.53701 0
M  V30 1203 H 117.431 5.29959 2.40073 0
M  V30 1204 H 116.311 7.49557 2.30509 0
M  V30 1205 N 113.814 -1.1601 1.06675 0
M  V30 1206 C 115.063 -1.85973 0.780818 0
M  V30 1207 C 115.376 -1.82819 -0.695444 0
M  V30 1208 O 116.582 -2.484 -1.09589 0
M  V30 1209 C 115.038 -3.33757 1.34665 0
M  V30 1210 C 114.646 -3.45374 2.85343 0
M  V30 1211 C 116.39 -4.0895 1.13843 0
M  V30 1212 C 114.297 -4.87266 3.35151 0
M  V30 1213 H 113.227 -0.696661 0.288407 0
M  V30 1214 H 115.878 -1.30903 1.28595 0
M  V30 1215 H 114.26 -3.88456 0.769274 0
M  V30 1216 H 115.434 -3.00816 3.49065 0
M  V30 1217 H 113.749 -2.83619 3.04876 0
M  V30 1218 H 116.346 -5.13654 1.4854 0
M  V30 1219 H 116.689 -4.16229 0.0770282 0
M  V30 1220 H 117.222 -3.605 1.68179 0
M  V30 1221 H 113.961 -4.85168 4.40786 0
M  V30 1222 H 113.481 -5.32433 2.76179 0
M  V30 1223 H 115.16 -5.56097 3.30704 0
M  V30 1224 N 115.292 -0.849877 -1.32721 0
M  V30 1225 C 116.541 -0.447175 -1.96681 0
M  V30 1226 C 116.854 1.00135 -1.68025 0
M  V30 1227 O 118.06 1.50926 -2.25685 0
M  V30 1228 C 116.516 -0.7487 -3.52026 0
M  V30 1229 C 116.124 -2.21264 -3.89546 0
M  V30 1230 C 117.868 -0.413487 -4.22481 0
M  V30 1231 C 115.775 -2.45763 -5.37917 0
M  V30 1232 H 114.705 -0.163486 -0.736063 0
M  V30 1233 H 117.356 -1.03999 -1.51183 0
M  V30 1234 H 115.738 -0.0853727 -3.95908 0
M  V30 1235 H 116.912 -2.91736 -3.56689 0
M  V30 1236 H 115.227 -2.5119 -3.32103 0
M  V30 1237 H 117.824 -0.574017 -5.3161 0
M  V30 1238 H 118.167 0.644492 -4.11281 0
M  V30 1239 H 118.7 -1.03251 -3.84167 0
M  V30 1240 H 115.439 -3.50168 -5.54132 0
M  V30 1241 H 114.959 -1.79864 -5.72197 0
M  V30 1242 H 116.638 -2.29471 -6.0494 0
M  V30 1243 N 116.77 1.45427 -0.607355 0
M  V30 1244 C 118.186 1.57283 -0.270985 0
M  V30 1245 C 118.386 1.59875 1.22647 0
M  V30 1246 O 117.442 1.52893 2.00948 0
M  V30 1247 C 118.755 2.85566 -0.941952 0
M  V30 1248 C 120.303 2.9924 -0.917849 0
M  V30 1249 C 120.778 4.30293 -1.56882 0
M  V30 1250 N 122.269 4.37051 -1.5343 0
M  V30 1251 C 123.004 5.37123 -2.00715 0
M  V30 1252 N 122.5 6.43734 -2.56084 0
M  V30 1253 N 124.293 5.28479 -1.91484 0
M  V30 1254 H 116.444 1.41988 -1.57966 0
M  V30 1255 H 118.707 0.67885 -0.661715 0
M  V30 1256 H 118.413 2.8955 -1.99633 0
M  V30 1257 H 118.287 3.74322 -0.465096 0
M  V30 1258 H 120.674 2.94822 0.127984 0
M  V30 1259 H 120.755 2.11895 -1.43297 0
M  V30 1260 H 120.399 4.35469 -2.61398 0
M  V30 1261 H 120.329 5.16454 -1.02873 0
M  V30 1262 H 122.82 3.60615 -1.12982 0
M  V30 1263 H 123.133 7.16341 -2.89958 0
M  V30 1264 H 121.478 6.44485 -2.60122 0
M  V30 1265 H 124.669 4.44098 -1.47967 0
M  V30 1266 H 124.842 6.0632 -2.28648 0
M  V30 1267 N 118.248 0.346503 1.53744 0
M  V30 1268 C 119.478 -0.250047 2.05081 0
M  V30 1269 C 119.886 -1.44529 1.22098 0
M  V30 1270 O 119.229 -1.81992 0.249917 0
M  V30 1271 C 119.291 -0.725934 3.52094 0
M  V30 1272 C 118.955 0.350053 4.55657 0
M  V30 1273 C 119.952 1.19372 5.0601 0
M  V30 1274 C 117.637 0.504827 4.99757 0
M  V30 1275 C 119.631 2.17768 5.99046 0
M  V30 1276 C 117.318 1.49218 5.92602 0
M  V30 1277 C 118.316 2.32706 6.42135 0
M  V30 1278 O 118.004 3.2976 7.33153 0
M  V30 1279 H 117.736 -0.0515469 0.674032 0
M  V30 1280 H 120.29 0.497559 1.99282 0
M  V30 1281 H 118.52 -1.52483 3.55367 0
M  V30 1282 H 120.209 -1.24336 3.86388 0
M  V30 1283 H 120.975 1.08525 4.72702 0
M  V30 1284 H 116.854 -0.135178 4.60802 0
M  V30 1285 H 120.398 2.82971 6.37631 0
M  V30 1286 H 116.295 1.6012 6.25325 0
M  V30 1287 H 117.063 3.25265 7.51096 0
M  V30 1288 N 119.726 -1.57421 0.075193 0
M  V30 1289 C 120.656 -2.15942 -0.888324 0
M  V30 1290 C 121.637 -1.08737 -1.30806 0
M  V30 1291 O 122.822 -1.36787 -1.37851 0
M  V30 1292 C 119.952 -2.72379 -2.1547 0
M  V30 1293 C 118.906 -3.8478 -1.87425 0
M  V30 1294 C 118.232 -4.27834 -3.20721 0
M  V30 1295 C 119.532 -5.08869 -1.17684 0
M  V30 1296 H 121.226 -2.96705 -0.400799 0
M  V30 1297 H 118.772 -1.42723 -0.191342 0
M  V30 1298 H 120.725 -3.11965 -2.83295 0
M  V30 1299 H 119.449 -1.88841 -2.6647 0
M  V30 1300 H 118.108 -3.45703 -1.22004 0
M  V30 1301 H 117.756 -3.41214 -3.6957 0
M  V30 1302 H 117.456 -5.03605 -3.02746 0
M  V30 1303 H 118.98 -4.70039 -3.89738 0
M  V30 1304 H 120.394 -5.4575 -1.75584 0
M  V30 1305 H 118.791 -5.8994 -1.09956 0
M  V30 1306 H 119.861 -4.84648 -0.156453 0
M  V30 1307 N 121.204 0.198386 -1.56346 0
M  V30 1308 C 122.154 1.2499 -1.90687 0
M  V30 1309 C 123.138 1.41158 -0.772217 0
M  V30 1310 O 124.33 1.43584 -1.03502 0
M  V30 1311 C 121.459 2.59542 -2.24706 0
M  V30 1312 C 120.545 2.47181 -3.44619 0
M  V30 1313 N 120.936 2.04495 -4.62618 0
M  V30 1314 C 119.234 2.78082 -3.48692 0
M  V30 1315 C 119.935 2.03945 -5.44776 0
M  V30 1316 N 118.911 2.45323 -4.85095 0
M  V30 1317 H 122.713 0.911149 -2.7942 0
M  V30 1318 H 120.227 0.40684 -1.57221 0
M  V30 1319 H 122.224 3.3549 -2.47491 0
M  V30 1320 H 120.884 2.94244 -1.37298 0
M  V30 1321 H 121.895 1.75256 -4.87345 0
M  V30 1322 H 118.572 3.17002 -2.71691 0
M  V30 1323 H 119.962 1.72872 -6.4928 0
M  V30 1324 N 122.682 1.50554 0.465978 0
M  V30 1325 C 123.645 1.69233 1.54574 0
M  V30 1326 C 124.645 0.562901 1.50626 0
M  V30 1327 O 125.835 0.830016 1.53155 0
M  V30 1328 C 122.967 1.7223 2.94193 0
M  V30 1329 H 124.16 2.65571 1.39327 0
M  V30 1330 H 121.713 1.40111 0.692711 0
M  V30 1331 H 122.448 0.77603 3.14878 0
M  V30 1332 H 122.233 2.54285 2.98466 0
M  V30 1333 H 123.723 1.88618 3.72576 0
M  V30 1334 N 124.16 -0.719506 1.40217 0
M  V30 1335 C 125.108 -1.85493 1.40339 0
M  V30 1336 C 126.102 -1.66995 0.284415 0
M  V30 1337 O 127.308 -1.74148 0.455252 0
M  V30 1338 H 123.683 -0.610857 0.438586 0
M  V30 1339 H 125.654 -1.82506 2.36081 0
M  V30 1340 C 124.403 -3.23321 1.27901 0
M  V30 1341 H 123.726 -3.38159 2.1328 0
M  V30 1342 H 125.166 -4.02914 1.32045 0
M  V30 1343 C 123.625 -3.36898 -0.0111355 0
M  V30 1344 O 124.155 -3.89674 -0.975538 0
M  V30 1345 N 122.361 -2.90492 -0.0793393 0
M  V30 1346 H 121.908 -2.47731 0.706183 0
M  V30 1347 H 121.866 -2.99955 -0.942038 0
M  V30 1348 N 125.638 -1.25649 -0.95132 0
M  V30 1349 C 126.886 -1.10375 -1.69298 0
M  V30 1350 C 127.207 0.355339 -1.91735 0
M  V30 1351 O 126.477 1.25188 -1.50681 0
M  V30 1352 H 125.057 -0.405461 -0.627384 0
M  V30 1353 H 127.719 -1.57823 -1.14358 0
M  V30 1354 H 126.815 -1.61465 -2.67087 0
M  V30 1355 N 127.117 1.15442 -1.07289 0
M  V30 1356 C 128.08 2.18358 -0.696591 0
M  V30 1357 C 129.08 1.58637 0.262837 0
M  V30 1358 O 130.27 1.74145 0.0438809 0
M  V30 1359 C 127.402 3.4089 -0.0266151 0
M  V30 1360 H 128.595 2.53162 -1.60776 0
M  V30 1361 H 126.148 1.29893 -0.869342 0
M  V30 1362 H 126.883 3.11653 0.896822 0
M  V30 1363 H 126.668 3.85495 -0.716657 0
M  V30 1364 H 128.158 4.17009 0.222028 0
M  V30 1365 N 128.595 0.856903 1.32268 0
M  V30 1366 C 129.82 0.474569 2.01897 0
M  V30 1367 C 130.245 -0.921766 1.63967 0
M  V30 1368 O 129.603 -1.60589 0.84148 0
M  V30 1369 C 129.651 0.623799 3.55164 0
M  V30 1370 O 128.755 -0.342459 4.10976 0
M  V30 1371 H 128.096 0.190422 0.63611 0
M  V30 1372 H 130.626 1.15672 1.68764 0
M  V30 1373 H 130.636 0.512169 4.04773 0
M  V30 1374 H 129.311 1.64202 3.82113 0
M  V30 1375 H 127.888 -0.18688 3.72431 0
M  V30 1376 N 130.073 -1.45103 0.615059 0
M  V30 1377 C 131.006 -2.27717 -0.148408 0
M  V30 1378 C 131.984 -1.37584 -0.866572 0
M  V30 1379 O 133.168 -1.67017 -0.87393 0
M  V30 1380 C 130.295 -3.16136 -1.21557 0
M  V30 1381 C 129.341 -4.22263 -0.599712 0
M  V30 1382 S 130.174 -5.3215 0.598081 0
M  V30 1383 C 131.33 -6.24137 -0.469484 0
M  V30 1384 H 131.563 -2.92121 0.552483 0
M  V30 1385 H 129.096 -1.49054 0.402778 0
M  V30 1386 H 131.054 -3.67633 -1.82638 0
M  V30 1387 H 129.715 -2.50982 -1.88857 0
M  V30 1388 H 128.908 -4.84081 -1.4029 0
M  V30 1389 H 128.51 -3.73945 -0.063876 0
M  V30 1390 H 130.802 -6.63984 -1.34652 0
M  V30 1391 H 131.745 -7.0801 0.112725 0
M  V30 1392 H 132.153 -5.58971 -0.788168 0
M  V30 1393 N 131.551 -0.354651 -1.53558 0
M  V30 1394 C 132.798 0.238443 -2.01091 0
M  V30 1395 C 133.126 1.49663 -1.24222 0
M  V30 1396 O 132.381 1.93049 -0.321003 0
M  V30 1397 C 132.68 0.587121 -3.52545 0
M  V30 1398 C 132.346 -0.575472 -4.47213 0
M  V30 1399 C 131.008 -0.894497 -4.72813 0
M  V30 1400 C 133.36 -1.35489 -5.03281 0
M  V30 1401 C 130.688 -1.99511 -5.51736 0
M  V30 1402 C 133.04 -2.44583 -5.83405 0
M  V30 1403 C 131.704 -2.77033 -6.07296 0
M  V30 1404 H 130.974 0.0872526 -0.735845 0
M  V30 1405 H 133.621 -0.484859 -1.8526 0
M  V30 1406 H 131.926 1.39129 -3.66265 0
M  V30 1407 H 133.623 1.05809 -3.86789 0
M  V30 1408 H 130.213 -0.316774 -4.27428 0
M  V30 1409 H 134.397 -1.12167 -4.83459 0
M  V30 1410 H 129.653 -2.25063 -5.68469 0
M  V30 1411 H 133.827 -3.05401 -6.25862 0
M  V30 1412 H 131.454 -3.6244 -6.68237 0
M  V30 1413 N 133.029 1.57378 -0.0835403 0
M  V30 1414 C 134.276 1.9393 0.58287 0
M  V30 1415 C 134.604 0.964455 1.68904 0
M  V30 1416 O 133.859 -0.0179474 1.95692 0
M  V30 1417 C 134.158 3.37063 1.1884 0
M  V30 1418 C 133.824 4.50424 0.207194 0
M  V30 1419 C 132.486 4.81159 -0.0627115 0
M  V30 1420 C 134.838 5.19136 -0.463426 0
M  V30 1421 C 132.166 5.77939 -1.01012 0
M  V30 1422 C 134.518 6.16931 -1.39924 0
M  V30 1423 C 133.182 6.46078 -1.67749 0
M  V30 1424 H 132.452 0.70964 0.213287 0
M  V30 1425 H 135.099 1.90856 -0.156916 0
M  V30 1426 H 133.404 3.3666 2.00418 0
M  V30 1427 H 135.101 3.6264 1.71153 0
M  V30 1428 H 131.691 4.2646 0.427747 0
M  V30 1429 H 135.875 4.95576 -0.268034 0
M  V30 1430 H 131.131 5.98842 -1.23283 0
M  V30 1431 H 135.305 6.69273 -1.92476 0
M  V30 1432 H 132.932 7.2088 -2.41321 0
M  V30 1433 N 134.507 -0.190092 1.56449 0
M  V30 1434 C 135.756 -0.907912 1.80111 0
M  V30 1435 C 136.069 -1.84214 0.657619 0
M  V30 1436 O 137.275 -2.60094 0.778663 0
M  V30 1437 C 135.731 -1.66485 3.19078 0
M  V30 1438 C 135.339 -0.7752 4.41242 0
M  V30 1439 C 137.083 -2.37201 3.52045 0
M  V30 1440 C 134.99 -1.53129 5.71231 0
M  V30 1441 H 133.92 -0.34276 0.671589 0
M  V30 1442 H 136.571 -0.161109 1.82791 0
M  V30 1443 H 134.953 -2.45572 3.10661 0
M  V30 1444 H 136.127 -0.0226298 4.60794 0
M  V30 1445 H 134.442 -0.178627 4.16017 0
M  V30 1446 H 137.039 -2.94329 4.46402 0
M  V30 1447 H 137.382 -3.11632 2.76028 0
M  V30 1448 H 137.915 -1.65075 3.61932 0
M  V30 1449 H 134.654 -0.82967 6.50228 0
M  V30 1450 H 134.174 -2.25767 5.55688 0
M  V30 1451 H 135.853 -2.08377 6.12526 0
M  V30 1452 N 135.985 -1.50799 -0.457987 0
M  V30 1453 C 137.225 -1.64088 -1.21879 0
M  V30 1454 C 137.589 -0.339848 -1.88968 0
M  V30 1455 O 138.79 -0.348301 -2.66534 0
M  V30 1456 C 137.061 -2.79726 -2.2246 0
M  V30 1457 S 138.62 -3.13225 -3.07303 0
M  V30 1458 H 135.438 -0.578314 -0.41361 0
M  V30 1459 H 138.04 -1.88632 -0.513645 0
M  V30 1460 H 136.744 -3.72722 -1.71775 0
M  V30 1461 H 136.275 -2.57308 -2.97584 0
M  V30 1462 H 138.29 -2.58062 -4.23814 0
M  V30 1463 N 137.463 0.71206 -1.40597 0
M  V30 1464 C 138.393 1.83889 -1.43899 0
M  V30 1465 C 139.374 1.67442 -0.299504 0
M  V30 1466 O 140.559 1.87421 -0.508624 0
M  V30 1467 C 137.689 3.21877 -1.30431 0
M  V30 1468 C 136.643 3.53002 -2.42019 0
M  V30 1469 C 135.969 4.90172 -2.13626 0
M  V30 1470 C 137.269 3.53643 -3.84362 0
M  V30 1471 H 138.963 1.81383 -2.38203 0
M  V30 1472 H 136.509 0.871237 -1.14654 0
M  V30 1473 H 138.462 4.00404 -1.31357 0
M  V30 1474 H 137.186 3.24968 -0.326049 0
M  V30 1475 H 135.845 2.76818 -2.40349 0
M  V30 1476 H 135.493 4.89869 -1.14182 0
M  V30 1477 H 135.193 5.11962 -2.88389 0
M  V30 1478 H 136.717 5.71028 -2.1624 0
M  V30 1479 H 138.131 4.22203 -3.87837 0
M  V30 1480 H 136.528 3.86961 -4.58673 0
M  V30 1481 H 137.598 2.52954 -4.13693 0
M  V30 1482 N 138.941 1.26152 0.944643 0
M  V30 1483 C 140.188 1.11492 1.69044 0
M  V30 1484 C 140.516 -0.342366 1.91463 0
M  V30 1485 O 139.771 -1.26812 1.49054 0
M  V30 1486 C 140.07 1.82541 3.07268 0
M  V30 1487 C 139.736 3.32445 3.04616 0
M  V30 1488 C 138.398 3.73337 3.036 0
M  V30 1489 C 140.75 4.28171 2.97185 0
M  V30 1490 C 138.078 5.08348 2.92915 0
M  V30 1491 C 140.43 5.63218 2.88041 0
M  V30 1492 C 139.094 6.03426 2.85366 0
M  V30 1493 H 138.364 0.407977 0.618576 0
M  V30 1494 H 141.011 1.56551 1.10291 0
M  V30 1495 H 139.316 1.29941 3.69625 0
M  V30 1496 H 141.013 1.68642 3.63815 0
M  V30 1497 H 137.603 2.99915 3.06185 0
M  V30 1498 H 141.787 3.97563 2.97081 0
M  V30 1499 H 137.043 5.38667 2.89219 0
M  V30 1500 H 141.217 6.37078 2.81254 0
M  V30 1501 H 138.844 7.07999 2.76842 0
M  V30 1502 N 140.419 -1.14872 1.07899 0
M  V30 1503 C 141.349 -2.2193 0.725887 0
M  V30 1504 C 142.33 -1.67622 -0.28927 0
M  V30 1505 O 143.515 -1.93533 -0.160787 0
M  V30 1506 C 140.645 -3.47061 0.128856 0
M  V30 1507 C 139.599 -4.14363 1.07178 0
M  V30 1508 C 138.925 -5.33636 0.337229 0
M  V30 1509 C 140.225 -4.63492 2.40775 0
M  V30 1510 H 141.919 -2.51724 1.62097 0
M  V30 1511 H 139.465 -1.20991 0.780838 0
M  V30 1512 H 141.418 -4.21199 -0.130147 0
M  V30 1513 H 140.142 -3.16617 -0.80134 0
M  V30 1514 H 138.801 -3.42173 1.3158 0
M  V30 1515 H 138.449 -4.99449 -0.596606 0
M  V30 1516 H 138.149 -5.79609 0.965788 0
M  V30 1517 H 139.673 -6.10539 0.0861567 0
M  V30 1518 H 141.087 -5.2913 2.20669 0
M  V30 1519 H 139.484 -5.20148 2.99276 0
M  V30 1520 H 140.554 -3.78834 3.02676 0
M  V30 1521 N 141.898 -0.863906 -1.31812 0
M  V30 1522 C 142.848 -0.286898 -2.26188 0
M  V30 1523 C 143.832 0.572577 -1.50367 0
M  V30 1524 O 145.024 0.420447 -1.71934 0
M  V30 1525 C 142.153 0.515849 -3.39402 0
M  V30 1526 C 141.239 -0.356531 -4.22599 0
M  V30 1527 N 141.63 -1.44716 -4.84656 0
M  V30 1528 C 139.928 -0.147898 -4.45755 0
M  V30 1529 C 140.629 -1.98462 -5.46798 0
M  V30 1530 N 139.605 -1.28247 -5.28255 0
M  V30 1531 H 143.407 -1.12055 -2.717 0
M  V30 1532 H 140.921 -0.711012 -1.46008 0
M  V30 1533 H 142.918 0.945701 -4.06032 0
M  V30 1534 H 141.578 1.34718 -2.95434 0
M  V30 1535 H 142.589 -1.83008 -4.84488 0
M  V30 1536 H 139.266 0.647973 -4.12441 0
M  V30 1537 H 140.656 -2.89932 -6.06126 0
M  V30 1538 N 143.376 1.44774 -0.622745 0
M  V30 1539 C 144.625 2.01334 -0.121397 0
M  V30 1540 C 144.938 1.49505 1.26125 0
M  V30 1541 O 146.144 1.98139 1.85616 0
M  V30 1542 C 144.6 3.59516 -0.166298 0
M  V30 1543 C 144.208 4.20342 -1.54974 0
M  V30 1544 C 145.952 4.23582 0.279021 0
M  V30 1545 C 143.859 5.70721 -1.55021 0
M  V30 1546 H 142.789 0.752851 -0.0416172 0
M  V30 1547 H 145.44 1.66083 -0.780309 0
M  V30 1548 H 143.822 3.92027 0.559557 0
M  V30 1549 H 144.996 3.99381 -2.29851 0
M  V30 1550 H 143.311 3.68529 -1.93843 0
M  V30 1551 H 145.908 5.33868 0.298083 0
M  V30 1552 H 146.251 3.95327 1.30471 0
M  V30 1553 H 146.784 3.95843 -0.394063 0
M  V30 1554 H 143.523 6.03698 -2.55399 0
M  V30 1555 H 143.043 5.93829 -0.844245 0
M  V30 1556 H 144.722 6.34203 -1.28047 0
M  V30 1557 N 144.854 0.36279 1.53368 0
M  V30 1558 C 146.102 -0.227326 2.00817 0
M  V30 1559 C 146.423 -1.49511 1.25186 0
M  V30 1560 O 145.693 -1.92482 0.364348 0
M  V30 1561 H 144.273 -0.0869923 0.741917 0
M  V30 1562 H 146.935 0.488381 1.88682 0
M  V30 1563 H 146.031 -0.456273 3.08747 0
M  V30 1564 N 146.332 -1.57332 0.0918853 0
M  V30 1565 C 147.748 -1.57389 -0.264766 0
M  V30 1566 C 147.948 -1.10281 -1.68643 0
M  V30 1567 O 147.004 -0.777801 -2.40222 0
M  V30 1568 C 148.317 -3.00648 -0.0561195 0
M  V30 1569 C 149.865 -3.12754 -0.124116 0
M  V30 1570 C 150.34 -4.57965 0.0564972 0
M  V30 1571 N 151.831 -4.632 0.00155611 0
M  V30 1572 C 152.566 -5.73281 0.116598 0
M  V30 1573 N 152.062 -6.92208 0.286294 0
M  V30 1574 N 153.855 -5.6207 0.0580973 0
M  V30 1575 H 146.006 -1.86262 1.02079 0
M  V30 1576 H 148.269 -0.859579 0.399786 0
M  V30 1577 H 147.975 -3.393 0.925669 0
M  V30 1578 H 147.849 -3.68623 -0.799823 0
M  V30 1579 H 150.236 -2.73976 -1.09641 0
M  V30 1580 H 150.317 -2.47377 0.651024 0
M  V30 1581 H 149.961 -4.97436 1.02564 0
M  V30 1582 H 149.891 -5.21399 -0.738297 0
M  V30 1583 H 152.382 -3.77686 -0.127192 0
M  V30 1584 H 152.695 -7.71934 0.365676 0
M  V30 1585 H 151.04 -6.94254 0.32192 0
M  V30 1586 H 154.231 -4.68043 -0.0733204 0
M  V30 1587 H 154.404 -6.47824 0.151203 0
M  V30 1588 N 147.81 0.181792 -1.56548 0
M  V30 1589 C 149.058 0.89832 -1.81038 0
M  V30 1590 C 149.379 1.83232 -0.667164 0
M  V30 1591 O 148.649 1.93372 0.313673 0
M  V30 1592 H 147.229 0.33471 -0.667816 0
M  V30 1593 H 149.891 0.184116 -1.94028 0
M  V30 1594 H 148.987 1.4815 -2.74696 0
M  V30 1595 N 149.288 1.51039 0.449983 0
M  V30 1596 C 150.218 1.74379 1.55288 0
M  V30 1597 C 151.199 0.593236 1.5942 0
M  V30 1598 O 152.384 0.834625 1.7535 0
M  V30 1599 C 149.514 1.85728 2.93466 0
M  V30 1600 C 148.468 3.01078 3.04197 0
M  V30 1601 C 147.794 2.97595 4.44231 0
M  V30 1602 C 149.094 4.41254 2.7945 0
M  V30 1603 H 150.788 2.66725 1.36008 0
M  V30 1604 H 148.334 1.2835 0.652864 0
M  V30 1605 H 150.287 2.0064 3.70569 0
M  V30 1606 H 149.011 0.900207 3.13949 0
M  V30 1607 H 147.67 2.85851 2.29531 0
M  V30 1608 H 147.318 1.99691 4.61663 0
M  V30 1609 H 147.018 3.75046 4.52343 0
M  V30 1610 H 148.542 3.14583 5.23326 0
M  V30 1611 H 149.956 4.56897 3.46292 0
M  V30 1612 H 148.353 5.20315 2.98985 0
M  V30 1613 H 149.423 4.52164 1.75144 0
M  V30 1614 N 150.766 -0.704594 1.40972 0
M  V30 1615 C 151.996 -1.49138 1.42974 0
M  V30 1616 C 152.404 -1.89175 0.0308406 0
M  V30 1617 O 151.747 -1.56734 -0.958138 0
M  V30 1618 C 151.809 -2.79016 2.26694 0
M  V30 1619 C 151.473 -2.61236 3.74973 0
M  V30 1620 C 152.47 -2.27773 4.67349 0
M  V30 1621 C 150.155 -2.77158 4.18914 0
M  V30 1622 C 152.149 -2.10457 6.01653 0
M  V30 1623 C 149.836 -2.59459 5.53285 0
M  V30 1624 C 150.834 -2.26158 6.4447 0
M  V30 1625 O 150.522 -2.08605 7.76363 0
M  V30 1626 H 150.254 -0.466443 0.489292 0
M  V30 1627 H 152.808 -0.8758 1.85793 0
M  V30 1628 H 151.038 -3.42947 1.78673 0
M  V30 1629 H 152.727 -3.40782 2.20504 0
M  V30 1630 H 153.493 -2.15095 4.34694 0
M  V30 1631 H 149.372 -3.02064 3.48251 0
M  V30 1632 H 152.916 -1.84387 6.72791 0
M  V30 1633 H 148.813 -2.71725 5.85522 0
M  V30 1634 H 149.581 -2.23439 7.87412 0
M  V30 1635 N 152.244 -1.26651 -0.937939 0
M  V30 1636 C 153.474 -1.15006 -1.71631 0
M  V30 1637 C 153.882 0.297026 -1.86854 0
M  V30 1638 O 153.225 1.21493 -1.37786 0
M  V30 1639 C 153.287 -1.74984 -3.14039 0
M  V30 1640 C 152.951 -3.24103 -3.2219 0
M  V30 1641 C 153.948 -4.20877 -3.05219 0
M  V30 1642 C 151.633 -3.64625 -3.45476 0
M  V30 1643 C 153.627 -5.56151 -3.11408 0
M  V30 1644 C 151.314 -5.00032 -3.513 0
M  V30 1645 C 152.312 -5.95604 -3.34282 0
M  V30 1646 O 152 -7.28545 -3.3982 0
M  V30 1647 H 151.732 -0.401183 -0.544085 0
M  V30 1648 H 154.286 -1.67832 -1.18413 0
M  V30 1649 H 152.516 -1.16624 -3.68695 0
M  V30 1650 H 154.205 -1.58199 -3.73802 0
M  V30 1651 H 154.971 -3.90908 -2.87081 0
M  V30 1652 H 150.85 -2.90718 -3.57777 0
M  V30 1653 H 154.394 -6.30727 -2.98043 0
M  V30 1654 H 150.291 -5.29659 -3.68959 0
M  V30 1655 H 151.059 -7.3686 -3.56343 0
M  V30 1656 N 153.722 1.14298 -1.08507 0
M  V30 1657 C 154.97 1.84993 -0.813763 0
M  V30 1658 C 155.291 1.83405 0.662393 0
M  V30 1659 O 154.561 1.28319 1.48024 0
M  V30 1660 H 153.141 0.684966 -0.298045 0
M  V30 1661 H 155.803 1.385 -1.37126 0
M  V30 1662 H 154.899 2.89788 -1.15884 0
M  V30 1663 N 155.201 0.870884 1.31352 0
M  V30 1664 C 156.426 0.495957 2.01383 0
M  V30 1665 C 156.851 -0.904324 1.64935 0
M  V30 1666 O 156.209 -1.59687 0.858466 0
M  V30 1667 C 156.257 0.661433 3.54482 0
M  V30 1668 O 155.361 -0.298851 4.11316 0
M  V30 1669 H 154.702 0.197158 0.634054 0
M  V30 1670 H 157.232 1.17455 1.67527 0
M  V30 1671 H 157.242 0.555072 4.04207 0
M  V30 1672 H 155.917 1.68246 3.8035 0
M  V30 1673 H 154.494 -0.147368 3.72609 0
M  V30 1674 N 156.679 -1.44442 0.630414 0
M  V30 1675 C 157.926 -2.02052 0.134617 0
M  V30 1676 C 158.254 -1.49576 -1.24327 0
M  V30 1677 O 157.509 -0.669806 -1.83881 0
M  V30 1678 C 157.808 -3.57332 0.0697835 0
M  V30 1679 C 157.474 -4.29058 1.38635 0
M  V30 1680 C 156.136 -4.4837 1.74694 0
M  V30 1681 C 158.488 -4.69872 2.25543 0
M  V30 1682 C 155.816 -5.05756 2.97369 0
M  V30 1683 C 158.168 -5.28616 3.47487 0
M  V30 1684 C 156.832 -5.46147 3.8377 0
M  V30 1685 H 156.102 -0.739361 0.0492598 0
M  V30 1686 H 158.749 -1.73217 0.816586 0
M  V30 1687 H 157.054 -3.85577 -0.695553 0
M  V30 1688 H 158.751 -3.99637 -0.330344 0
M  V30 1689 H 155.341 -4.14357 1.09574 0
M  V30 1690 H 159.525 -4.54666 1.98979 0
M  V30 1691 H 154.781 -5.17515 3.25558 0
M  V30 1692 H 158.955 -5.59192 4.15063 0
M  V30 1693 H 156.582 -5.9038 4.7891 0
M  V30 1694 N 158.157 -0.370918 -1.53173 0
M  V30 1695 C 159.087 0.464847 -2.28826 0
M  V30 1696 C 160.068 1.07936 -1.31468 0
M  V30 1697 O 161.253 1.0956 -1.60344 0
M  V30 1698 C 158.383 1.60196 -3.08147 0
M  V30 1699 C 157.337 1.11443 -4.13237 0
M  V30 1700 C 156.663 2.3422 -4.80672 0
M  V30 1701 C 157.963 0.195384 -5.21934 0
M  V30 1702 H 159.657 -0.166329 -2.98938 0
M  V30 1703 H 157.203 -0.0814359 -1.4377 0
M  V30 1704 H 159.156 2.19332 -3.59822 0
M  V30 1705 H 157.88 2.26045 -2.35735 0
M  V30 1706 H 156.539 0.545727 -3.62515 0
M  V30 1707 H 156.187 2.98537 -4.04827 0
M  V30 1708 H 155.887 2.02269 -5.51689 0
M  V30 1709 H 157.411 2.94032 -5.35143 0
M  V30 1710 H 158.825 0.694375 -5.69079 0
M  V30 1711 H 157.222 -0.0335027 -6.00091 0
M  V30 1712 H 158.292 -0.760961 -4.78892 0
M  V30 1713 N 159.635 1.57281 -0.100228 0
M  V30 1714 C 160.865 1.98591 0.569681 0
M  V30 1715 C 161.273 0.978315 1.61943 0
M  V30 1716 O 160.616 -0.0396108 1.83657 0
M  V30 1717 C 160.678 3.36282 1.271 0
M  V30 1718 C 160.342 4.55488 0.371409 0
M  V30 1719 C 161.339 5.18491 -0.382504 0
M  V30 1720 C 159.024 5.01474 0.287965 0
M  V30 1721 C 161.018 6.25852 -1.20779 0
M  V30 1722 C 158.705 6.08701 -0.540965 0
M  V30 1723 C 159.703 6.70755 -1.28749 0
M  V30 1724 O 159.391 7.75914 -2.10269 0
M  V30 1725 H 159.123 0.65752 0.156982 0
M  V30 1726 H 161.677 2.0463 -0.177734 0
M  V30 1727 H 159.907 3.26941 2.0651 0
M  V30 1728 H 161.596 3.62005 1.83595 0
M  V30 1729 H 162.362 4.83891 -0.3278 0
M  V30 1730 H 158.241 4.52932 0.858689 0
M  V30 1731 H 161.785 6.74218 -1.79096 0
M  V30 1732 H 157.682 6.42732 -0.597131 0
M  V30 1733 H 158.45 7.92925 -2.03007 0
M  V30 1734 N 161.113 -0.173488 1.56642 0
M  V30 1735 C 162.338 -0.910149 1.86363 0
M  V30 1736 C 162.763 -1.75132 0.686318 0
M  V30 1737 O 162.121 -1.77595 -0.364643 0
M  V30 1738 C 162.169 -1.76447 3.14482 0
M  V30 1739 O 161.273 -2.86584 2.96553 0
M  V30 1740 H 160.614 -0.255086 0.613047 0
M  V30 1741 H 163.144 -0.172283 2.03873 0
M  V30 1742 H 163.154 -2.16483 3.45831 0
M  V30 1743 H 161.829 -1.14658 3.99783 0
M  V30 1744 H 160.406 -2.50146 2.76553 0
M  V30 1745 N 162.591 -1.51276 -0.441967 0
M  V30 1746 C 163.501 -1.75092 -1.56141 0
M  V30 1747 C 164.517 -0.634963 -1.62001 0
M  V30 1748 O 165.693 -0.916686 -1.79329 0
M  V30 1749 C 162.758 -1.86666 -2.92158 0
M  V30 1750 C 161.819 -3.10506 -2.96453 0
M  V30 1751 C 161.052 -3.21519 -4.25982 0
M  V30 1752 O 161.275 -2.38586 -5.18105 0
M  V30 1753 O 160.209 -4.14465 -4.36466 0
M  V30 1754 H 164.035 -2.70044 -1.38961 0
M  V30 1755 H 161.62 -1.35722 -0.624499 0
M  V30 1756 H 163.502 -1.96292 -3.72891 0
M  V30 1757 H 162.177 -0.949014 -3.09476 0
M  V30 1758 H 161.084 -3.06363 -2.14692 0
M  V30 1759 H 162.417 -4.01945 -2.84079 0
M  V30 1760 N 164.069 0.697108 -1.41344 0
M  V30 1761 C 165.297 1.48593 -1.43972 0
M  V30 1762 C 165.712 1.88747 -0.0445612 0
M  V30 1763 O 165.069 1.56682 0.935785 0
M  V30 1764 C 165.12 2.74946 -2.34706 0
M  V30 1765 O 164.841 2.36484 -3.68791 0
M  V30 1766 C 166.342 3.687 -2.46121 0
M  V30 1767 H 163.562 0.457964 -0.490418 0
M  V30 1768 H 166.106 0.858429 -1.8561 0
M  V30 1769 H 164.261 3.33937 -1.9638 0
M  V30 1770 H 164.675 3.17918 -4.17167 0
M  V30 1771 H 166.149 4.54145 -3.13777 0
M  V30 1772 H 166.626 4.13081 -1.49199 0
M  V30 1773 H 167.232 3.15613 -2.85076 0
M  V30 1774 N 165.547 1.27147 0.931209 0
M  V30 1775 C 166.793 1.14455 1.68141 0
M  V30 1776 C 167.148 -0.307172 1.89932 0
M  V30 1777 O 166.441 -1.22158 1.47607 0
M  V30 1778 C 166.635 1.8579 3.05314 0
M  V30 1779 C 166.464 3.3775 2.96909 0
M  V30 1780 C 165.234 4.07062 2.99381 0
M  V30 1781 C 167.432 4.33783 2.76291 0
M  V30 1782 N 165.414 5.45618 2.8138 0
M  V30 1783 C 166.785 5.59582 2.6696 0
M  V30 1784 C 168.84 4.23915 2.61152 0
M  V30 1785 C 167.543 6.76639 2.44033 0
M  V30 1786 C 169.569 5.40689 2.39602 0
M  V30 1787 C 168.931 6.65443 2.3101 0
M  V30 1788 H 165.03 0.473667 0.622225 0
M  V30 1789 H 167.614 1.60568 1.10118 0
M  V30 1790 H 165.785 1.42138 3.61457 0
M  V30 1791 H 167.517 1.65634 3.69253 0
M  V30 1792 H 164.272 3.585 3.09475 0
M  V30 1793 H 164.696 6.184 2.75519 0
M  V30 1794 H 169.338 3.28189 2.66555 0
M  V30 1795 H 167.056 7.72451 2.3737 0
M  V30 1796 H 170.642 5.34932 2.28778 0
M  V30 1797 H 169.522 7.54277 2.14558 0
M  V30 1798 N 167.025 -1.13721 1.09112 0
M  V30 1799 C 167.973 -2.21103 0.722219 0
M  V30 1800 C 168.967 -1.67147 -0.275374 0
M  V30 1801 O 170.173 -1.79477 -0.137176 0
M  V30 1802 H 166.548 -0.720445 0.215553 0
M  V30 1803 H 168.519 -2.49483 1.63709 0
M  V30 1804 C 167.268 -3.47352 0.15543 0
M  V30 1805 H 166.591 -3.89206 0.914246 0
M  V30 1806 H 168.031 -4.2395 -0.0647967 0
M  V30 1807 C 166.49 -3.1814 -1.10852 0
M  V30 1808 O 167.02 -3.36604 -2.19227 0
M  V30 1809 N 165.226 -2.72045 -1.02176 0
M  V30 1810 H 164.773 -2.57221 -0.139764 0
M  V30 1811 H 164.731 -2.52875 -1.8682 0
M  V30 1812 N 168.503 -0.877838 -1.30888 0
M  V30 1813 C 169.752 -0.488793 -1.95688 0
M  V30 1814 C 170.065 0.965485 -1.70111 0
M  V30 1815 O 171.271 1.46104 -2.28836 0
M  V30 1816 C 169.727 -0.823201 -3.50359 0
M  V30 1817 C 169.335 -2.29477 -3.84765 0
M  V30 1818 C 171.079 -0.503009 -4.21509 0
M  V30 1819 C 168.986 -2.57118 -5.32583 0
M  V30 1820 H 167.916 -0.179062 -0.732429 0
M  V30 1821 H 170.567 -1.07183 -1.48943 0
M  V30 1822 H 168.949 -0.169331 -3.95638 0
M  V30 1823 H 170.123 -2.99236 -3.5042 0
M  V30 1824 H 168.438 -2.58178 -3.267 0
M  V30 1825 H 171.035 -0.68665 -5.30273 0
M  V30 1826 H 171.378 0.557109 -4.12555 0
M  V30 1827 H 171.911 -1.11376 -3.8189 0
M  V30 1828 H 168.65 -3.61843 -5.4658 0
M  V30 1829 H 168.17 -1.91961 -5.68253 0
M  V30 1830 H 169.849 -2.42251 -5.99936 0
M  V30 1831 N 169.982 1.44106 -0.638065 0
M  V30 1832 C 171.23 2.01579 -0.145043 0
M  V30 1833 C 171.551 1.50496 1.24 0
M  V30 1834 O 170.821 0.711374 1.82527 0
M  V30 1835 H 169.401 0.745282 -0.05063 0
M  V30 1836 H 172.063 1.76516 -0.826327 0
M  V30 1837 H 171.159 3.11877 -0.118039 0
M  V30 1838 N 171.46 0.379036 1.52974 0
M  V30 1839 C 172.709 -0.207612 2.00629 0
M  V30 1840 C 173.022 -1.48758 1.27006 0
M  V30 1841 O 174.228 -2.15365 1.65318 0
M  V30 1842 C 172.684 -0.42053 3.57435 0
M  V30 1843 C 172.292 0.845587 4.39948 0
M  V30 1844 C 174.036 -0.964102 4.13407 0
M  V30 1845 C 171.943 0.601513 5.88333 0
M  V30 1846 H 170.873 -0.0813591 0.749598 0
M  V30 1847 H 173.524 0.499853 1.76561 0
M  V30 1848 H 171.906 -1.18959 3.7771 0
M  V30 1849 H 173.08 1.61848 4.31442 0
M  V30 1850 H 171.395 1.31336 3.95145 0
M  V30 1851 H 173.992 -1.16225 5.21916 0
M  V30 1852 H 174.335 -1.93019 3.68849 0
M  V30 1853 H 174.868 -0.25487 3.96983 0
M  V30 1854 H 171.607 1.53831 6.37194 0
M  V30 1855 H 171.127 -0.132628 5.99653 0
M  V30 1856 H 172.806 0.232134 6.46583 0
M  V30 1857 N 172.938 -1.57226 0.108567 0
M  V30 1858 C 174.187 -1.94008 -0.551703 0
M  V30 1859 C 174.5 -0.993442 -1.68494 0
M  V30 1860 O 175.706 -1.25551 -2.40726 0
M  V30 1861 C 174.162 -3.44763 -1.03279 0
M  V30 1862 C 173.77 -4.47943 0.0714193 0
M  V30 1863 C 175.514 -3.90483 -1.66503 0
M  V30 1864 C 173.421 -5.89865 -0.425779 0
M  V30 1865 H 172.351 -0.724206 -0.209863 0
M  V30 1866 H 175.002 -1.82547 0.186741 0
M  V30 1867 H 173.384 -3.51422 -1.82533 0
M  V30 1868 H 174.558 -4.52942 0.847365 0
M  V30 1869 H 172.873 -4.11913 0.609669 0
M  V30 1870 H 175.47 -4.93925 -2.04798 0
M  V30 1871 H 175.813 -3.29877 -2.53942 0
M  V30 1872 H 176.346 -3.86581 -0.938074 0
M  V30 1873 H 173.085 -6.54202 0.412316 0
M  V30 1874 H 172.605 -5.88309 -1.16843 0
M  V30 1875 H 174.284 -6.40844 -0.890397 0
M  V30 1876 N 174.416 0.165178 -1.56732 0
M  V30 1877 C 175.346 1.20651 -1.99914 0
M  V30 1878 C 176.327 1.45827 -0.875705 0
M  V30 1879 O 177.512 1.57057 -1.14223 0
M  V30 1880 C 174.642 2.54401 -2.36427 0
M  V30 1881 C 173.596 2.43782 -3.51787 0
M  V30 1882 C 172.922 3.82078 -3.7406 0
M  V30 1883 C 174.222 1.93732 -4.85041 0
M  V30 1884 H 175.916 0.847534 -2.87154 0
M  V30 1885 H 173.462 0.40625 -1.38151 0
M  V30 1886 H 175.415 3.27458 -2.65234 0
M  V30 1887 H 174.139 2.92098 -1.46103 0
M  V30 1888 H 172.798 1.73178 -3.23117 0
M  V30 1889 H 172.446 4.17179 -2.81017 0
M  V30 1890 H 172.146 3.7584 -4.51684 0
M  V30 1891 H 173.67 4.56712 -4.05274 0
M  V30 1892 H 175.084 2.56569 -5.12684 0
M  V30 1893 H 173.481 1.98428 -5.66345 0
M  V30 1894 H 174.551 0.891962 -4.76626 0
M  V30 1895 N 175.894 1.51508 0.433938 0
M  V30 1896 C 176.824 1.76016 1.53429 0
M  V30 1897 C 177.805 0.610112 1.58782 0
M  V30 1898 O 178.99 0.853177 1.74455 0
M  V30 1899 C 176.12 1.88831 2.9148 0
M  V30 1900 C 175.074 3.04288 3.00987 0
M  V30 1901 C 174.4 3.0229 4.4105 0
M  V30 1902 C 175.7 4.44193 2.74754 0
M  V30 1903 H 177.394 2.68152 1.33171 0
M  V30 1904 H 174.94 1.29035 0.639214 0
M  V30 1905 H 176.893 2.04559 3.6842 0
M  V30 1906 H 175.617 0.933455 3.12976 0
M  V30 1907 H 174.276 2.8827 2.26486 0
M  V30 1908 H 173.924 2.04576 4.59519 0
M  V30 1909 H 173.624 3.79822 4.4834 0
M  V30 1910 H 175.148 3.20116 5.1996 0
M  V30 1911 H 176.562 4.60544 3.41426 0
M  V30 1912 H 174.959 5.23457 2.9345 0
M  V30 1913 H 176.029 4.53996 1.70339 0
M  V30 1914 N 177.372 -0.689602 1.41712 0
M  V30 1915 C 178.302 -1.81577 1.46806 0
M  V30 1916 C 179.283 -1.66945 0.326105 0
M  V30 1917 O 180.468 -1.86588 0.538377 0
M  V30 1918 C 177.598 -3.19762 1.35535 0
M  V30 1919 C 176.552 -3.49107 2.47605 0
M  V30 1920 C 175.878 -4.86711 2.21397 0
M  V30 1921 C 177.178 -3.47483 3.89939 0
M  V30 1922 H 178.872 -1.7757 2.41058 0
M  V30 1923 H 176.418 -0.852887 1.16025 0
M  V30 1924 H 178.371 -3.98263 1.3771 0
M  V30 1925 H 177.095 -3.24409 0.377708 0
M  V30 1926 H 175.754 -2.72959 2.44722 0
M  V30 1927 H 175.402 -4.8799 1.21961 0
M  V30 1928 H 175.102 -5.0731 2.96497 0
M  V30 1929 H 176.626 -5.67515 2.25297 0
M  V30 1930 H 178.04 -4.1598 3.94505 0
M  V30 1931 H 176.437 -3.79615 4.64771 0
M  V30 1932 H 177.507 -2.46341 4.17665 0
M  V30 1933 N 178.85 -1.27639 -0.924453 0
M  V30 1934 C 179.813 -1.10681 -2.00705 0
M  V30 1935 C 180.813 -0.0497823 -1.60723 0
M  V30 1936 O 182.003 -0.294654 -1.7169 0
M  V30 1937 C 179.135 -0.687164 -3.33902 0
M  V30 1938 H 180.328 -2.06817 -2.17179 0
M  V30 1939 H 177.881 -1.10473 -1.10569 0
M  V30 1940 H 178.616 0.275439 -3.23128 0
M  V30 1941 H 178.401 -1.45061 -3.6428 0
M  V30 1942 H 179.891 -0.590853 -4.13399 0
M  V30 1943 N 180.328 1.1314 -1.09713 0
M  V30 1944 C 181.556 1.88321 -0.856898 0
M  V30 1945 C 181.971 1.79276 0.592073 0
M  V30 1946 O 181.328 1.16142 1.40774 0
M  V30 1947 C 181.379 3.37812 -1.28706 0
M  V30 1948 O 181.1 3.46627 -2.67921 0
M  V30 1949 C 182.601 4.29952 -1.07964 0
M  V30 1950 H 179.821 0.596094 -0.308079 0
M  V30 1951 H 182.365 1.43205 -1.45988 0
M  V30 1952 H 180.52 3.805 -0.727912 0
M  V30 1953 H 180.934 4.39579 -2.8613 0
M  V30 1954 H 182.408 5.33159 -1.42986 0
M  V30 1955 H 182.885 4.39196 -0.0176577 0
M  V30 1956 H 183.491 3.93036 -1.62489 0
M  V30 1957 N 181.806 0.884767 1.30421 0
M  V30 1958 C 182.739 0.295999 2.26272 0
M  V30 1959 C 183.717 -0.58332 1.51777 0
M  V30 1960 O 184.901 -0.53346 1.80794 0
M  V30 1961 C 182.028 -0.57944 3.33707 0
M  V30 1962 C 181.074 0.230525 4.25877 0
M  V30 1963 S 181.907 1.61867 5.1045 0
M  V30 1964 C 183.063 0.749756 6.21393 0
M  V30 1965 H 183.296 1.10848 2.75862 0
M  V30 1966 H 180.829 0.684178 1.38414 0
M  V30 1967 H 182.787 -1.07879 3.96071 0
M  V30 1968 H 181.448 -1.36601 2.82841 0
M  V30 1969 H 180.641 -0.437542 5.02097 0
M  V30 1970 H 180.243 0.662493 3.68086 0
M  V30 1971 H 182.535 -0.0333547 6.77492 0
M  V30 1972 H 183.478 1.48356 6.92384 0
M  V30 1973 H 183.886 0.310751 5.63644 0
M  V30 1974 N 183.284 -1.43765 0.645699 0
M  V30 1975 C 184.247 -2.29163 -0.0409488 0
M  V30 1976 C 185.247 -1.41813 -0.757996 0
M  V30 1977 O 186.437 -1.63527 -0.600382 0
M  V30 1978 C 183.569 -3.23716 -1.06869 0
M  V30 1979 H 184.762 -2.91366 0.710345 0
M  V30 1980 H 182.315 -1.5092 0.406547 0
M  V30 1981 H 183.05 -2.66393 -1.84947 0
M  V30 1982 H 182.835 -3.88105 -0.558277 0
M  V30 1983 H 184.325 -3.87831 -1.54845 0
M  V30 1984 N 184.763 -0.387143 -1.52771 0
M  V30 1985 C 185.991 0.195869 -2.05971 0
M  V30 1986 C 186.406 1.40691 -1.25903 0
M  V30 1987 O 185.763 1.79931 -0.305134 0
M  V30 1988 C 185.814 0.56812 -3.57008 0
M  V30 1989 O 185.535 -0.594803 -4.34043 0
M  V30 1990 C 187.036 1.20723 -4.26545 0
M  V30 1991 H 184.256 0.0300578 -0.670326 0
M  V30 1992 H 186.8 -0.551749 -1.96916 0
M  V30 1993 H 184.955 1.26564 -3.66143 0
M  V30 1994 H 185.369 -0.289322 -5.23701 0
M  V30 1995 H 186.843 1.41807 -5.33474 0
M  V30 1996 H 187.32 2.17395 -3.81623 0
M  V30 1997 H 187.926 0.550535 -4.21722 0
M  V30 1998 N 186.241 1.57166 -0.116904 0
M  V30 1999 C 187.204 2.14039 0.819742 0
M  V30 2000 C 188.204 1.07477 1.19605 0
M  V30 2001 O 189.394 1.33263 1.1219 0
M  V30 2002 C 186.526 2.67891 2.10826 0
M  V30 2003 H 187.719 2.98128 0.325511 0
M  V30 2004 H 185.272 1.55739 0.132312 0
M  V30 2005 H 186.007 1.87384 2.64685 0
M  V30 2006 H 185.792 3.45823 1.84793 0
M  V30 2007 H 187.282 3.11809 2.77785 0
M  V30 2008 N 187.719 -0.156864 1.56817 0
M  V30 2009 C 188.966 -0.871125 1.82805 0
M  V30 2010 C 189.294 -1.81611 0.696262 0
M  V30 2011 O 188.549 -1.93141 -0.315459 0
M  V30 2012 C 188.848 -1.68737 3.1506 0
M  V30 2013 C 188.514 -0.890045 4.42028 0
M  V30 2014 C 187.176 -0.670042 4.76512 0
M  V30 2015 C 189.528 -0.331769 5.20143 0
M  V30 2016 C 186.856 0.119104 5.86579 0
M  V30 2017 C 189.208 0.444365 6.31037 0
M  V30 2018 C 187.872 0.675035 6.64078 0
M  V30 2019 H 187.142 -0.318767 0.668931 0
M  V30 2020 H 189.789 -0.135274 1.91022 0
M  V30 2021 H 188.094 -2.49304 3.0225 0
M  V30 2022 H 189.791 -2.24331 3.3238 0
M  V30 2023 H 186.381 -1.07157 4.14988 0
M  V30 2024 H 190.565 -0.489043 4.93885 0
M  V30 2025 H 185.821 0.307417 6.10627 0
M  V30 2026 H 189.995 0.884139 6.90765 0
M  V30 2027 H 187.622 1.28839 7.49203 0
M  V30 2028 N 189.197 -1.51736 -0.425897 0
M  V30 2029 C 190.13 -1.68574 -1.53812 0
M  V30 2030 C 191.108 -0.53328 -1.53606 0
M  V30 2031 O 192.292 -0.758555 -1.72564 0
M  V30 2032 C 189.419 -1.70977 -2.92377 0
M  V30 2033 C 188.465 -2.92324 -3.10563 0
M  V30 2034 S 189.298 -4.52952 -2.85648 0
M  V30 2035 C 190.454 -4.58117 -4.26474 0
M  V30 2036 H 190.687 -2.62647 -1.39298 0
M  V30 2037 H 188.22 -1.41564 -0.616361 0
M  V30 2038 H 190.178 -1.73047 -3.72243 0
M  V30 2039 H 188.839 -0.78061 -3.04245 0
M  V30 2040 H 188.032 -2.90439 -4.11899 0
M  V30 2041 H 187.634 -2.88055 -2.38538 0
M  V30 2042 H 189.926 -4.34462 -5.19855 0
M  V30 2043 H 190.869 -5.59983 -4.33388 0
M  V30 2044 H 191.277 -3.8732 -4.10662 0
M  V30 2045 N 190.675 0.682077 -1.42076 0
M  V30 2046 C 191.923 1.4393 -1.41876 0
M  V30 2047 C 192.244 1.94971 -0.0335599 0
M  V30 2048 O 191.514 1.72591 0.926773 0
M  V30 2049 H 190.094 0.534085 -0.522267 0
M  V30 2050 H 192.756 0.806427 -1.77434 0
M  V30 2051 H 191.852 2.29588 -2.11414 0
M  V30 2052 N 192.153 1.28127 0.917671 0
M  V30 2053 C 193.383 1.17722 1.6978 0
M  V30 2054 C 193.791 -0.267261 1.87303 0
M  V30 2055 O 193.134 -1.19286 1.39702 0
M  V30 2056 C 193.196 1.79958 3.11216 0
M  V30 2057 C 192.86 3.29187 3.16993 0
M  V30 2058 C 193.857 4.25679 2.98485 0
M  V30 2059 C 191.542 3.70075 3.39632 0
M  V30 2060 C 193.536 5.61035 3.02521 0
M  V30 2061 C 191.223 5.05557 3.433 0
M  V30 2062 C 192.221 6.00847 3.24764 0
M  V30 2063 O 191.909 7.33859 3.28187 0
M  V30 2064 H 191.641 0.409788 0.537634 0
M  V30 2065 H 194.195 1.69694 1.15728 0
M  V30 2066 H 192.425 1.22475 3.66793 0
M  V30 2067 H 194.114 1.64125 3.71238 0
M  V30 2068 H 194.88 3.95426 2.80826 0
M  V30 2069 H 190.759 2.96373 3.53106 0
M  V30 2070 H 194.303 6.35388 2.87971 0
M  V30 2071 H 190.2 5.35462 3.60486 0
M  V30 2072 H 190.968 7.42436 3.44575 0
M  V30 2073 N 193.631 -1.12557 1.10312 0
M  V30 2074 C 194.877 -1.84311 0.846011 0
M  V30 2075 C 195.21 -1.83805 -0.626859 0
M  V30 2076 O 194.485 -1.28268 -1.46211 0
M  V30 2077 C 194.768 -3.32048 1.39341 0
M  V30 2078 C 194.621 -3.41016 2.93305 0
M  V30 2079 C 195.94 -4.27764 1.03468 0
M  V30 2080 H 193.059 -0.669192 0.30879 0
M  V30 2081 H 195.701 -1.32057 1.36605 0
M  V30 2082 H 193.851 -3.76678 0.951087 0
M  V30 2083 H 195.523 -3.05031 3.46055 0
M  V30 2084 H 193.766 -2.81603 3.29973 0
M  V30 2085 H 194.437 -4.44948 3.26689 0
M  V30 2086 H 196.913 -3.91253 1.41633 0
M  V30 2087 H 195.789 -5.29549 1.44463 0
M  V30 2088 H 196.05 -4.42064 -0.0560404 0
M  V30 2089 N 195.109 -0.891671 -1.2995 0
M  V30 2090 C 196.039 -0.379797 -2.30391 0
M  V30 2091 C 197.02 0.540919 -1.6127 0
M  V30 2092 O 198.205 0.453352 -1.88834 0
M  V30 2093 C 195.335 0.400654 -3.44981 0
M  V30 2094 C 194.289 -0.428905 -4.25846 0
M  V30 2095 C 193.615 0.478557 -5.32554 0
M  V30 2096 C 194.915 -1.67458 -4.94727 0
M  V30 2097 H 196.609 -1.21914 -2.73454 0
M  V30 2098 H 194.155 -0.587675 -1.31462 0
M  V30 2099 H 196.108 0.769434 -4.14316 0
M  V30 2100 H 194.832 1.27371 -3.0074 0
M  V30 2101 H 193.491 -0.779911 -3.58208 0
M  V30 2102 H 193.139 1.34951 -4.84559 0
M  V30 2103 H 192.839 -0.0727433 -5.87555 0
M  V30 2104 H 194.363 0.843705 -6.04743 0
M  V30 2105 H 195.777 -1.376 -5.56542 0
M  V30 2106 H 194.174 -2.16659 -5.59624 0
M  V30 2107 H 195.244 -2.41518 -4.20473 0
M  V30 2108 N 196.587 1.43421 -0.653314 0
M  V30 2109 C 197.998 1.85065 -0.246537 0
M  V30 2110 C 198.349 1.54688 1.2069 0
M  V30 2111 O 197.474 0.995896 1.92122 0
M  V30 2112 C 198.069 3.35922 -0.440666 0
M  V30 2113 C 196.628 3.76297 -0.0882064 0
M  V30 2114 C 195.775 2.67147 -0.743484 0
M  V30 2115 H 198.726 1.33572 -0.856979 0
M  V30 2116 H 198.747 3.79204 0.313798 0
M  V30 2117 H 198.259 3.58 -1.49858 0
M  V30 2118 H 196.36 3.5983 0.96711 0
M  V30 2119 H 196.473 4.76338 -0.513738 0
M  V30 2120 H 194.837 2.54086 -0.176712 0
M  V30 2121 H 195.62 2.92053 -1.80443 0
M  V30 2122 N 198.065 0.39524 1.52563 0
M  V30 2123 C 199.311 -0.177763 2.02622 0
M  V30 2124 C 199.666 -1.43974 1.27629 0
M  V30 2125 O 198.959 -1.87995 0.36992 0
M  V30 2126 C 199.153 -0.493444 3.53977 0
M  V30 2127 C 198.982 0.736392 4.4363 0
M  V30 2128 C 197.752 1.25744 4.89404 0
M  V30 2129 C 199.95 1.61046 4.88435 0
M  V30 2130 N 197.932 2.44421 5.63145 0
M  V30 2131 C 199.303 2.64359 5.60816 0
M  V30 2132 C 201.358 1.62985 4.70468 0
M  V30 2133 C 200.061 3.69505 6.17137 0
M  V30 2134 C 202.087 2.67042 5.27677 0
M  V30 2135 C 201.449 3.69077 5.99968 0
M  V30 2136 H 197.548 -0.0269794 0.781534 0
M  V30 2137 H 200.132 0.546466 1.86874 0
M  V30 2138 H 198.303 -1.18672 3.69826 0
M  V30 2139 H 200.035 -1.05412 3.90731 0
M  V30 2140 H 196.79 0.817546 4.6649 0
M  V30 2141 H 197.214 3.04485 6.04663 0
M  V30 2142 H 201.856 0.854442 4.14076 0
M  V30 2143 H 199.574 4.4791 6.72608 0
M  V30 2144 H 203.16 2.69433 5.15652 0
M  V30 2145 H 202.04 4.48273 6.43444 0
M  V30 2146 N 199.544 -1.57102 0.125237 0
M  V30 2147 C 200.792 -1.95021 -0.530198 0
M  V30 2148 C 201.113 -1.00982 -1.66816 0
M  V30 2149 O 200.383 -0.0672693 -1.95784 0
M  V30 2150 H 198.963 -0.720046 -0.198853 0
M  V30 2151 H 201.625 -1.93916 0.19564 0
M  V30 2152 H 200.721 -2.98211 -0.920681 0
M  V30 2153 N 201.022 0.148545 -1.56898 0
M  V30 2154 C 201.954 1.20852 -1.9475 0
M  V30 2155 C 202.967 1.39265 -0.843152 0
M  V30 2156 O 204.156 1.38864 -1.12156 0
M  V30 2157 C 201.256 2.57362 -2.20495 0
M  V30 2158 C 200.429 2.59947 -3.51776 0
M  V30 2159 C 199.488 3.77984 -3.6608 0
M  V30 2160 O 198.514 3.62929 -4.38487 0
M  V30 2161 N 199.716 4.95375 -3.02629 0
M  V30 2162 H 202.481 0.886804 -2.86279 0
M  V30 2163 H 200.042 0.338121 -1.5833 0
M  V30 2164 H 202.034 3.34833 -2.27307 0
M  V30 2165 H 200.604 2.81832 -1.35238 0
M  V30 2166 H 199.824 1.68403 -3.56419 0
M  V30 2167 H 201.112 2.58704 -4.38121 0
M  V30 2168 H 200.51 5.10509 -2.43715 0
M  V30 2169 H 199.067 5.70627 -3.15004 0
M  V30 2170 N 202.5 1.5196 0.417844 0
M  V30 2171 C 203.433 1.69387 1.52916 0
M  V30 2172 C 204.411 0.541419 1.53321 0
M  V30 2173 O 205.595 0.767695 1.72159 0
M  V30 2174 C 202.722 1.72525 2.91467 0
M  V30 2175 C 201.768 2.93967 3.09008 0
M  V30 2176 S 202.601 4.54461 2.83242 0
M  V30 2177 C 203.757 4.60372 4.24038 0
M  V30 2178 H 203.99 2.63382 1.37903 0
M  V30 2179 H 201.523 1.41889 0.608845 0
M  V30 2180 H 203.481 1.75018 3.7132 0
M  V30 2181 H 202.142 0.796733 3.03827 0
M  V30 2182 H 201.335 2.92619 4.10353 0
M  V30 2183 H 200.937 2.89316 2.37007 0
M  V30 2184 H 203.229 4.37213 5.17544 0
M  V30 2185 H 204.172 5.62273 4.30412 0
M  V30 2186 H 204.58 3.89492 4.08602 0
M  V30 2187 N 203.978 -0.674533 1.42435 0
M  V30 2188 C 205.203 -1.46784 1.46524 0
M  V30 2189 C 205.628 -1.87938 0.078066 0
M  V30 2190 O 204.986 -1.56014 -0.92354 0
M  V30 2191 C 205.034 -2.69307 2.39805 0
M  V30 2192 O 204.138 -3.67587 1.86959 0
M  V30 2193 H 203.479 -0.440959 0.496439 0
M  V30 2194 H 206.009 -0.827326 1.87127 0
M  V30 2195 H 206.019 -3.17374 2.56393 0
M  V30 2196 H 204.694 -2.38692 3.40586 0
M  V30 2197 H 203.271 -3.2662 1.79927 0
M  V30 2198 N 205.456 -1.28612 -0.910864 0
M  V30 2199 C 206.703 -1.15934 -1.66029 0
M  V30 2200 C 207.031 0.291483 -1.92303 0
M  V30 2201 O 206.286 1.22816 -1.52364 0
M  V30 2202 C 206.585 -1.90624 -3.0232 0
M  V30 2203 C 206.251 -3.40405 -2.95695 0
M  V30 2204 C 204.913 -3.81255 -2.93595 0
M  V30 2205 C 207.265 -4.359 -2.85728 0
M  V30 2206 C 204.593 -5.15936 -2.79334 0
M  V30 2207 C 206.945 -5.70657 -2.73007 0
M  V30 2208 C 205.609 -6.10779 -2.69267 0
M  V30 2209 H 204.879 -0.424234 -0.607541 0
M  V30 2210 H 207.526 -1.5942 -1.06101 0
M  V30 2211 H 205.831 -1.39696 -3.6605 0
M  V30 2212 H 207.528 -1.78228 -3.59215 0
M  V30 2213 H 204.118 -3.07927 -2.98125 0
M  V30 2214 H 208.302 -4.053 -2.86436 0
M  V30 2215 H 203.558 -5.46146 -2.74835 0
M  V30 2216 H 207.732 -6.44311 -2.64264 0
M  V30 2217 H 205.359 -7.1509 -2.57974 0
M  V30 2218 N 206.934 1.1197 -1.10907 0
M  V30 2219 C 208.18 1.84059 -0.865674 0
M  V30 2220 C 208.535 1.82731 0.602254 0
M  V30 2221 O 207.828 1.26543 1.43866 0
M  V30 2222 C 208.022 3.30749 -1.35425 0
M  V30 2223 C 207.851 3.46363 -2.86815 0
M  V30 2224 C 206.621 3.59712 -3.54874 0
M  V30 2225 C 208.819 3.41116 -3.84895 0
M  V30 2226 N 206.801 3.63741 -4.94536 0
M  V30 2227 C 208.172 3.51698 -5.10596 0
M  V30 2228 C 210.227 3.24612 -3.77533 0
M  V30 2229 C 208.93 3.4748 -6.29802 0
M  V30 2230 C 210.956 3.21708 -4.96244 0
M  V30 2231 C 210.318 3.32856 -6.20795 0
M  V30 2232 H 206.417 0.689015 -0.369841 0
M  V30 2233 H 209.001 1.34016 -1.41237 0
M  V30 2234 H 207.172 3.79322 -0.834814 0
M  V30 2235 H 208.904 3.90718 -1.05458 0
M  V30 2236 H 205.659 3.62038 -3.05329 0
M  V30 2237 H 206.083 3.69408 -5.67333 0
M  V30 2238 H 210.725 3.14883 -2.8215 0
M  V30 2239 H 208.443 3.55978 -7.25469 0
M  V30 2240 H 212.029 3.10113 -4.92261 0
M  V30 2241 H 210.909 3.3059 -7.11112 0
M  V30 2242 N 208.412 0.89855 1.29475 0
M  V30 2243 C 209.66 0.522847 1.9522 0
M  V30 2244 C 209.981 -0.93371 1.71192 0
M  V30 2245 O 209.251 -1.65823 1.04305 0
M  V30 2246 H 207.831 0.190366 0.722336 0
M  V30 2247 H 210.493 1.14459 1.5775 0
M  V30 2248 H 209.589 0.704476 3.04045 0
M  V30 2249 N 209.89 -1.43072 0.660911 0
M  V30 2250 C 210.853 -2.29194 -0.0166406 0
M  V30 2251 C 211.853 -1.42609 -0.742912 0
M  V30 2252 O 213.043 -1.64155 -0.583004 0
M  V30 2253 C 210.175 -3.24831 -1.0343 0
M  V30 2254 H 211.368 -2.90596 0.741208 0
M  V30 2255 H 208.921 -1.5048 0.422532 0
M  V30 2256 H 209.656 -2.68339 -1.82111 0
M  V30 2257 H 209.441 -3.88676 -0.517082 0
M  V30 2258 H 210.931 -3.89451 -1.50723 0
M  V30 2259 N 211.368 -0.403325 -1.52352 0
M  V30 2260 C 212.596 0.174012 -2.06167 0
M  V30 2261 C 213.011 1.39347 -1.27388 0
M  V30 2262 O 212.368 1.79597 -0.324201 0
M  V30 2263 C 212.419 0.530223 -3.5759 0
M  V30 2264 O 212.14 -0.640806 -4.33388 0
M  V30 2265 C 213.641 1.16192 -4.27802 0
M  V30 2266 H 210.861 0.0229464 -0.670608 0
M  V30 2267 H 213.405 -0.572604 -1.9632 0
M  V30 2268 H 211.56 1.22673 -3.67464 0
M  V30 2269 H 211.974 -0.344851 -5.23365 0
M  V30 2270 H 213.448 1.36141 -5.34948 0
M  V30 2271 H 213.925 2.13335 -3.83907 0
M  V30 2272 H 214.531 0.505775 -4.22282 0
M  V30 2273 N 212.846 1.57033 -0.133567 0
M  V30 2274 C 214.092 1.95976 0.521649 0
M  V30 2275 C 214.425 1.01779 1.65393 0
M  V30 2276 O 213.7 0.0576581 1.94415 0
M  V30 2277 C 213.983 3.44738 1.04057 0
M  V30 2278 C 213.836 4.49711 -0.0892897 0
M  V30 2279 C 215.155 3.95682 1.92675 0
M  V30 2280 H 212.274 0.712579 0.188149 0
M  V30 2281 H 214.916 1.88813 -0.212076 0
M  V30 2282 H 213.066 3.50973 1.66583 0
M  V30 2283 H 214.738 4.55565 -0.725152 0
M  V30 2284 H 212.981 4.27261 -0.750378 0
M  V30 2285 H 213.652 5.51099 0.315284 0
M  V30 2286 H 216.128 3.91841 1.39998 0
M  V30 2287 H 215.004 5.00262 2.25897 0
M  V30 2288 H 215.265 3.37239 2.85872 0
M  V30 2289 N 214.325 -0.140222 1.56975 0
M  V30 2290 C 215.574 -0.850152 1.82908 0
M  V30 2291 C 215.887 -1.82028 0.715892 0
M  V30 2292 O 217.093 -2.57485 0.861016 0
M  V30 2293 C 215.549 -1.5625 3.24213 0
M  V30 2294 C 215.157 -0.63443 4.43485 0
M  V30 2295 C 216.901 -2.25881 3.59413 0
M  V30 2296 C 214.808 -1.34879 5.75814 0
M  V30 2297 H 213.738 -0.321221 0.682153 0
M  V30 2298 H 216.389 -0.102874 1.83211 0
M  V30 2299 H 214.771 -2.35565 3.18316 0
M  V30 2300 H 215.945 0.12398 4.60633 0
M  V30 2301 H 214.26 -0.0461836 4.16374 0
M  V30 2302 H 216.857 -2.79978 4.5554 0
M  V30 2303 H 217.2 -3.02693 2.85802 0
M  V30 2304 H 217.733 -1.53477 3.67001 0
M  V30 2305 H 214.472 -0.622385 6.52539 0
M  V30 2306 H 213.992 -2.07974 5.6259 0
M  V30 2307 H 215.671 -1.88784 6.18845 0
M  V30 2308 N 215.803 -1.52179 -0.40978 0
M  V30 2309 C 217.031 -1.70054 -1.17853 0
M  V30 2310 C 217.446 -0.409735 -1.843 0
M  V30 2311 O 216.803 0.614183 -1.71855 0
M  V30 2312 C 216.854 -2.83568 -2.24213 0
M  V30 2313 O 216.575 -4.0765 -1.60478 0
M  V30 2314 C 218.076 -3.12947 -3.13973 0
M  V30 2315 H 215.296 -0.569917 -0.354169 0
M  V30 2316 H 217.84 -1.98734 -0.482198 0
M  V30 2317 H 215.995 -2.57409 -2.89516 0
M  V30 2318 H 216.409 -4.70899 -2.30986 0
M  V30 2319 H 217.883 -3.95889 -3.84677 0
M  V30 2320 H 218.36 -2.26472 -3.76307 0
M  V30 2321 H 218.966 -3.40868 -2.5434 0
M  V30 2322 N 217.281 0.66697 -1.42791 0
M  V30 2323 C 218.229 1.80157 -1.47127 0
M  V30 2324 C 219.223 1.65825 -0.346199 0
M  V30 2325 O 220.429 1.72338 -0.519572 0
M  V30 2326 H 216.804 0.594158 -0.460956 0
M  V30 2327 H 218.775 1.73619 -2.42692 0
M  V30 2328 C 217.524 3.18351 -1.39813 0
M  V30 2329 H 216.847 3.3001 -2.25684 0
M  V30 2330 H 218.287 3.97736 -1.46908 0
M  V30 2331 C 216.746 3.36707 -0.11391 0
M  V30 2332 O 217.276 3.93027 0.830241 0
M  V30 2333 N 215.482 2.90586 -0.0285295 0
M  V30 2334 H 215.029 2.4494 -0.79764 0
M  V30 2335 H 214.987 3.03245 0.830063 0
M  V30 2336 N 218.759 1.29093 0.90403 0
M  V30 2337 C 219.689 1.16401 2.02418 0
M  V30 2338 C 220.67 0.0593085 1.69997 0
M  V30 2339 O 221.855 0.238021 1.92736 0
M  V30 2340 C 218.985 0.835233 3.37107 0
M  V30 2341 C 217.939 1.89578 3.83724 0
M  V30 2342 C 217.265 1.42041 5.15489 0
M  V30 2343 C 218.565 3.30394 4.04521 0
M  V30 2344 H 220.259 2.10109 2.13295 0
M  V30 2345 H 217.805 1.01157 1.02486 0
M  V30 2346 H 219.758 0.733169 4.14973 0
M  V30 2347 H 218.482 -0.137543 3.2631 0
M  V30 2348 H 217.141 1.98715 3.08071 0
M  V30 2349 H 216.789 0.436426 5.01103 0
M  V30 2350 H 216.489 2.12964 5.4765 0
M  V30 2351 H 218.013 1.33176 5.959 0
M  V30 2352 H 219.427 3.24123 4.72882 0
M  V30 2353 H 217.824 3.99237 4.48029 0
M  V30 2354 H 218.894 3.73692 3.09002 0
M  V30 2355 N 220.237 -1.11381 1.11499 0
M  V30 2356 C 221.167 -2.19509 0.796125 0
M  V30 2357 C 222.148 -1.68458 -0.235796 0
M  V30 2358 O 223.333 -1.93947 -0.0991344 0
M  V30 2359 C 220.463 -3.46475 0.239205 0
M  V30 2360 C 219.417 -4.10744 1.20307 0
M  V30 2361 C 218.743 -5.32293 0.50683 0
M  V30 2362 C 220.043 -4.55597 2.55399 0
M  V30 2363 H 221.737 -2.46439 1.70024 0
M  V30 2364 H 219.283 -1.18446 0.818935 0
M  V30 2365 H 221.236 -4.214 0.00392006 0
M  V30 2366 H 219.96 -3.19006 -0.700206 0
M  V30 2367 H 218.619 -3.37813 1.42399 0
M  V30 2368 H 218.267 -5.01095 -0.437408 0
M  V30 2369 H 217.967 -5.76243 1.1497 0
M  V30 2370 H 219.491 -6.09956 0.280351 0
M  V30 2371 H 220.905 -5.21841 2.37391 0
M  V30 2372 H 219.302 -5.10363 3.15673 0
M  V30 2373 H 220.372 -3.69013 3.14575 0
M  V30 2374 N 221.715 -0.905404 -1.28997 0
M  V30 2375 C 222.94 -0.549175 -1.99997 0
M  V30 2376 C 223.365 0.860276 -1.67275 0
M  V30 2377 O 222.723 1.57355 -0.900502 0
M  V30 2378 C 222.771 -0.755185 -3.52604 0
M  V30 2379 O 221.875 0.189692 -4.11964 0
M  V30 2380 H 221.216 -0.213899 -0.628604 0
M  V30 2381 H 223.746 -1.21856 -1.64354 0
M  V30 2382 H 223.756 -0.662045 -4.02593 0
M  V30 2383 H 222.431 -1.78271 -3.75755 0
M  V30 2384 H 221.008 0.0485257 -3.72868 0
M  V30 2385 N 223.193 1.4272 -0.668489 0
M  V30 2386 C 224.156 2.292 0.00448567 0
M  V30 2387 C 225.156 1.43001 0.735339 0
M  V30 2388 O 226.346 1.64461 0.57429 0
M  V30 2389 C 223.478 3.25375 1.01705 0
M  V30 2390 H 224.671 2.90199 -0.756608 0
M  V30 2391 H 222.224 1.50254 -0.430506 0
M  V30 2392 H 222.959 2.69301 1.80686 0
M  V30 2393 H 222.744 3.88944 0.496463 0
M  V30 2394 H 224.234 3.90245 1.48655 0
M  V30 2395 N 224.671 0.411399 1.52136 0
M  V30 2396 C 225.92 -0.165009 2.01024 0
M  V30 2397 C 226.233 -1.4603 1.30133 0
M  V30 2398 O 227.439 -2.1181 1.69849 0
M  V30 2399 C 225.895 -0.344618 3.58246 0
M  V30 2400 C 225.503 0.938716 4.38055 0
M  V30 2401 C 227.247 -0.876195 4.15359 0
M  V30 2402 C 225.154 0.726172 5.86925 0
M  V30 2403 H 224.084 -0.0654407 0.751155 0
M  V30 2404 H 226.735 0.537192 1.75461 0
M  V30 2405 H 225.117 -1.10921 3.80148 0
M  V30 2406 H 226.291 1.70963 4.27912 0
M  V30 2407 H 224.606 1.39688 3.92271 0
M  V30 2408 H 227.203 -1.05128 5.24263 0
M  V30 2409 H 227.546 -1.85152 3.7286 0
M  V30 2410 H 228.079 -0.170607 3.97434 0
M  V30 2411 H 224.818 1.67312 6.33788 0
M  V30 2412 H 224.338 -0.00540283 5.998 0
M  V30 2413 H 226.017 0.369231 6.45946 0
M  V30 2414 N 226.149 -1.5696 0.141893 0
M  V30 2415 C 227.56 -1.82797 -0.379776 0
M  V30 2416 C 227.911 -1.06033 -1.6508 0
M  V30 2417 O 227.036 -0.304011 -2.14254 0
M  V30 2418 C 227.631 -3.31578 -0.695802 0
M  V30 2419 C 226.19 -3.58014 -1.16201 0
M  V30 2420 C 225.337 -2.76699 -0.182455 0
M  V30 2421 H 228.288 -1.54406 0.366675 0
M  V30 2422 H 228.309 -3.47454 -1.55099 0
M  V30 2423 H 227.821 -3.87421 0.229449 0
M  V30 2424 H 225.922 -3.07553 -2.10338 0
M  V30 2425 H 226.035 -4.66501 -1.09151 0
M  V30 2426 H 224.399 -2.45618 -0.674072 0
M  V30 2427 H 225.182 -3.35311 0.736297 0
M  V30 2428 N 227.627 0.131896 -1.57047 0
M  V30 2429 C 228.857 0.855219 -1.88068 0
M  V30 2430 C 229.265 1.74557 -0.729817 0
M  V30 2431 O 228.608 1.81083 0.308962 0
M  V30 2432 C 228.67 1.75119 -3.13964 0
M  V30 2433 C 228.334 1.03646 -4.45091 0
M  V30 2434 C 229.331 0.383276 -5.18485 0
M  V30 2435 C 227.016 1.02148 -4.91804 0
M  V30 2436 C 229.01 -0.275347 -6.36805 0
M  V30 2437 C 226.697 0.359047 -6.10044 0
M  V30 2438 C 227.695 -0.288222 -6.82392 0
M  V30 2439 O 227.383 -0.94011 -7.98384 0
M  V30 2440 H 227.115 0.251864 -0.627328 0
M  V30 2441 H 229.669 0.124782 -2.05021 0
M  V30 2442 H 227.899 2.52295 -2.9306 0
M  V30 2443 H 229.588 2.3478 -3.31109 0
M  V30 2444 H 230.354 0.386562 -4.83457 0
M  V30 2445 H 226.233 1.5147 -4.35405 0
M  V30 2446 H 229.777 -0.781148 -6.93213 0
M  V30 2447 H 225.674 0.35348 -6.44531 0
M  V30 2448 H 226.442 -0.84329 -8.14144 0
M  V30 2449 N 229.106 1.52395 0.401703 0
M  V30 2450 C 230.355 1.66044 1.14509 0
M  V30 2451 C 230.668 0.400216 1.91462 0
M  V30 2452 O 231.874 0.416632 2.68284 0
M  V30 2453 C 230.33 2.93388 2.0845 0
M  V30 2454 C 229.938 4.26545 1.36978 0
M  V30 2455 C 231.682 3.16402 2.83001 0
M  V30 2456 C 229.589 5.45007 2.29611 0
M  V30 2457 H 228.519 0.618562 0.431158 0
M  V30 2458 H 231.17 1.78886 0.40892 0
M  V30 2459 H 229.552 2.74263 2.8565 0
M  V30 2460 H 230.726 4.56179 0.650916 0
M  V30 2461 H 229.041 4.09692 0.74438 0
M  V30 2462 H 231.638 4.02085 3.52465 0
M  V30 2463 H 231.981 2.30943 3.46368 0
M  V30 2464 H 232.514 3.36034 2.12898 0
M  V30 2465 H 229.253 6.32835 1.70879 0
M  V30 2466 H 228.773 5.19702 2.9945 0
M  V30 2467 H 230.452 5.7838 2.89974 0
M  V30 2468 N 230.584 -0.659388 1.43143 0
M  V30 2469 C 231.832 -1.41654 1.44147 0
M  V30 2470 C 232.153 -1.94893 0.0645739 0
M  V30 2471 O 231.423 -1.74044 -0.899198 0
M  V30 2472 H 230.003 -0.525708 0.530697 0
M  V30 2473 H 232.665 -0.778097 1.78694 0
M  V30 2474 H 231.761 -2.26195 2.1504 0
M  V30 2475 N 232.062 -1.29571 -0.897171 0
M  V30 2476 C 233.29 -1.20583 -1.68129 0
M  V30 2477 C 233.705 0.233181 -1.87354 0
M  V30 2478 O 233.062 1.15579 -1.41236 0
M  V30 2479 C 233.113 -1.91772 -3.06441 0
M  V30 2480 O 232.834 -3.30053 -2.88091 0
M  V30 2481 C 234.335 -1.89291 -4.00854 0
M  V30 2482 H 231.555 -0.417826 -0.525036 0
M  V30 2483 H 234.099 -1.70987 -1.12177 0
M  V30 2484 H 232.254 -1.45196 -3.59161 0
M  V30 2485 H 232.668 -3.65942 -3.75748 0
M  V30 2486 H 234.142 -2.43662 -4.95311 0
M  V30 2487 H 234.619 -0.869014 -4.30517 0
M  V30 2488 H 235.225 -2.35622 -3.54066 0
M  V30 2489 N 233.54 1.10788 -1.12088 0
M  V30 2490 C 234.817 1.79136 -0.785476 0
M  V30 2491 C 235.197 1.98246 0.725377 0
M  V30 2492 O 234.545 1.57258 1.65778 0
M  V30 2493 C 234.755 3.12375 -1.55636 0
M  V30 2494 C 236.103 3.8731 -1.74001 0
M  V30 2495 O 237.127 3.22085 -1.52117 0
M  V30 2496 O 235.986 5.04369 -2.10415 0
M  V30 2497 H 233.08 0.776226 -0.285311 0
M  V30 2498 H 235.626 1.1747 -1.2247 0
M  V30 2499 H 234.398 2.93863 -2.5838 0
M  V30 2500 H 234.021 3.81758 -1.11114 0
M  V30 2501 N 235.018 0.912232 1.28515 0
M  V30 2502 C 235.948 0.416403 2.29757 0
M  V30 2503 C 236.929 -0.515194 1.6211 0
M  V30 2504 O 238.114 -0.423253 1.89532 0
M  V30 2505 C 235.244 -0.34572 3.45575 0
M  V30 2506 C 234.198 0.496599 4.25109 0
M  V30 2507 C 233.524 -0.393771 5.33248 0
M  V30 2508 C 234.824 1.75307 4.92001 0
M  V30 2509 H 236.518 1.26249 2.7148 0
M  V30 2510 H 234.064 0.608515 1.30511 0
M  V30 2511 H 236.017 -0.703422 4.15488 0
M  V30 2512 H 234.741 -1.2257 3.02728 0
M  V30 2513 H 233.4 0.8368 3.56922 0
M  V30 2514 H 233.048 -1.27225 4.86644 0
M  V30 2515 H 232.748 0.166209 5.87365 0
M  V30 2516 H 234.272 -0.747389 6.06009 0
M  V30 2517 H 235.686 1.46437 5.54283 0
M  V30 2518 H 234.083 2.25534 5.56106 0
M  V30 2519 H 235.153 2.48176 4.16577 0
M  V30 2520 N 236.496 -1.42363 0.676048 0
M  V30 2521 C 237.742 -2.0182 0.199125 0
M  V30 2522 C 238.075 -1.53339 -1.19168 0
M  V30 2523 O 237.35 -0.736124 -1.80032 0
M  V30 2524 C 237.633 -3.59331 0.235144 0
M  V30 2525 C 237.486 -4.17989 1.66149 0
M  V30 2526 C 238.805 -4.3813 -0.41595 0
M  V30 2527 H 235.924 -0.733293 0.0738311 0
M  V30 2528 H 238.566 -1.69368 0.86107 0
M  V30 2529 H 236.716 -3.87109 -0.328487 0
M  V30 2530 H 238.388 -4.0116 2.27747 0
M  V30 2531 H 236.631 -3.7377 2.20178 0
M  V30 2532 H 237.302 -5.27126 1.63837 0
M  V30 2533 H 239.778 -4.16051 0.0638529 0
M  V30 2534 H 238.654 -5.47717 -0.360115 0
M  V30 2535 H 238.915 -4.16101 -1.49373 0
M  V30 2536 N 237.974 -0.419461 -1.51915 0
M  V30 2537 C 238.906 0.43646 -2.25006 0
M  V30 2538 C 239.919 1.00149 -1.28351 0
M  V30 2539 O 241.108 0.898674 -1.54227 0
M  V30 2540 C 238.208 1.6206 -2.9764 0
M  V30 2541 C 237.381 1.17763 -4.21249 0
M  V30 2542 C 236.44 2.22985 -4.76617 0
M  V30 2543 O 235.466 1.83151 -5.38929 0
M  V30 2544 N 236.668 3.55271 -4.59089 0
M  V30 2545 H 239.433 -0.18989 -2.99098 0
M  V30 2546 H 236.994 -0.247386 -1.59999 0
M  V30 2547 H 238.986 2.32038 -3.31573 0
M  V30 2548 H 237.556 2.15266 -2.2667 0
M  V30 2549 H 236.776 0.305582 -3.93014 0
M  V30 2550 H 238.064 0.858781 -5.015 0
M  V30 2551 H 237.462 3.90377 -4.09417 0
M  V30 2552 H 236.019 4.21195 -4.97432 0
M  V30 2553 N 239.452 1.56882 -0.150215 0
M  V30 2554 C 240.698 1.97299 0.494427 0
M  V30 2555 C 241.053 1.0338 1.62266 0
M  V30 2556 O 240.346 0.0694497 1.91474 0
M  V30 2557 C 240.54 3.41801 1.04437 0
M  V30 2558 C 240.369 4.49691 -0.0290451 0
M  V30 2559 C 239.139 5.03095 -0.47156 0
M  V30 2560 C 241.337 5.07693 -0.821703 0
M  V30 2561 N 239.319 5.94593 -1.52749 0
M  V30 2562 C 240.69 5.95431 -1.72805 0
M  V30 2563 C 242.745 4.90256 -0.869134 0
M  V30 2564 C 241.448 6.67599 -2.67777 0
M  V30 2565 C 243.474 5.63127 -1.8067 0
M  V30 2566 C 242.836 6.50576 -2.70057 0
M  V30 2567 H 238.935 0.76755 0.149639 0
M  V30 2568 H 241.519 1.93145 -0.24556 0
M  V30 2569 H 239.69 3.46541 1.75396 0
M  V30 2570 H 241.422 3.69272 1.6559 0
M  V30 2571 H 238.177 4.73543 -0.0732101 0
M  V30 2572 H 238.601 6.45047 -2.05531 0
M  V30 2573 H 243.243 4.22363 -0.192134 0
M  V30 2574 H 240.961 7.34717 -3.36476 0
M  V30 2575 H 244.547 5.51629 -1.84924 0
M  V30 2576 H 243.427 7.05974 -3.41424 0
M  V30 2577 N 240.93 -0.123565 1.57115 0
M  V30 2578 C 242.179 -0.830704 1.83799 0
M  V30 2579 C 242.492 -1.81259 0.735158 0
M  V30 2580 O 243.698 -2.56558 0.888278 0
M  V30 2581 C 242.154 -1.52802 3.25852 0
M  V30 2582 C 241.762 -0.587356 4.44133 0
M  V30 2583 C 243.506 -2.22056 3.61789 0
M  V30 2584 C 241.413 -1.28764 5.77212 0
M  V30 2585 H 240.343 -0.313967 0.685522 0
M  V30 2586 H 242.994 -0.0834359 1.8331 0
M  V30 2587 H 241.376 -2.32175 3.20797 0
M  V30 2588 H 242.55 0.172829 4.60476 0
M  V30 2589 H 240.865 -0.00201892 4.164 0
M  V30 2590 H 243.462 -2.75131 4.58483 0
M  V30 2591 H 243.805 -2.99644 2.88997 0
M  V30 2592 H 244.338 -1.49576 3.68608 0
M  V30 2593 H 241.077 -0.55314 6.53162 0
M  V30 2594 H 240.597 -2.01995 5.64764 0
M  V30 2595 H 242.276 -1.8221 6.20813 0
M  V30 2596 N 242.408 -1.52605 -0.393616 0
M  V30 2597 C 243.654 -1.68624 -1.13743 0
M  V30 2598 C 244.009 -0.418687 -1.87789 0
M  V30 2599 O 243.302 0.58747 -1.82371 0
M  V30 2600 C 243.496 -2.85721 -2.14705 0
M  V30 2601 C 243.325 -4.23742 -1.50575 0
M  V30 2602 C 242.095 -4.89033 -1.2718 0
M  V30 2603 C 244.293 -5.05293 -0.958311 0
M  V30 2604 N 242.275 -6.11048 -0.591058 0
M  V30 2605 C 243.646 -6.18673 -0.405367 0
M  V30 2606 C 245.701 -4.90517 -0.854274 0
M  V30 2607 C 244.404 -7.18895 0.241434 0
M  V30 2608 C 246.43 -5.90986 -0.221301 0
M  V30 2609 C 245.792 -7.03669 0.320894 0
M  V30 2610 H 241.891 -0.670556 -0.402342 0
M  V30 2611 H 244.475 -1.89946 -0.427607 0
M  V30 2612 H 242.646 -2.65987 -2.83029 0
M  V30 2613 H 244.378 -2.90699 -2.8156 0
M  V30 2614 H 241.133 -4.47672 -1.54554 0
M  V30 2615 H 241.557 -6.76474 -0.266862 0
M  V30 2616 H 246.199 -4.03612 -1.25926 0
M  V30 2617 H 243.917 -8.05413 0.658448 0
M  V30 2618 H 247.503 -5.81626 -0.142111 0
M  V30 2619 H 246.383 -7.80078 0.802956 0
M  V30 2620 N 243.887 0.651787 -1.4349 0
M  V30 2621 C 245.135 1.40888 -1.44897 0
M  V30 2622 C 245.456 1.94856 -0.0749086 0
M  V30 2623 O 244.726 1.74518 0.889956 0
M  V30 2624 H 243.306 0.522887 -0.533478 0
M  V30 2625 H 245.968 0.768609 -1.79104 0
M  V30 2626 H 245.064 2.25052 -2.16236 0
M  V30 2627 N 245.365 1.30045 0.890287 0
M  V30 2628 C 246.613 1.18327 1.63839 0
M  V30 2629 C 246.934 -0.263455 1.93212 0
M  V30 2630 O 246.204 -1.17856 1.56482 0
M  V30 2631 H 244.784 0.434933 0.607324 0
M  V30 2632 H 247.446 1.631 1.06698 0
M  V30 2633 H 246.542 1.74024 2.59079 0
M  V30 2634 N 246.843 -1.10192 1.12674 0
M  V30 2635 C 248.073 -1.85713 0.905213 0
M  V30 2636 C 248.481 -1.81056 -0.549108 0
M  V30 2637 O 247.824 -1.19927 -1.39151 0
M  V30 2638 C 247.886 -3.34972 1.30516 0
M  V30 2639 C 247.55 -3.63385 2.77129 0
M  V30 2640 C 248.547 -3.59772 3.75313 0
M  V30 2641 C 246.232 -3.91981 3.14096 0
M  V30 2642 C 248.226 -3.84354 5.08479 0
M  V30 2643 C 245.913 -4.16218 4.47443 0
M  V30 2644 C 246.911 -4.12395 5.44444 0
M  V30 2645 O 246.599 -4.36014 6.75387 0
M  V30 2646 H 246.331 -0.593719 0.323223 0
M  V30 2647 H 248.885 -1.40198 1.50112 0
M  V30 2648 H 247.115 -3.81156 0.652463 0
M  V30 2649 H 248.804 -3.91886 1.05736 0
M  V30 2650 H 249.57 -3.37716 3.48099 0
M  V30 2651 H 245.449 -3.94085 2.39202 0
M  V30 2652 H 248.993 -3.81285 5.84181 0
M  V30 2653 H 244.89 -4.37754 4.74386 0
M  V30 2654 H 245.658 -4.53516 6.8137 0
M  V30 2655 N 248.321 -0.919034 -1.28029 0
M  V30 2656 C 249.546 -0.570357 -1.99403 0
M  V30 2657 C 249.971 0.842486 -1.68178 0
M  V30 2658 O 249.329 1.56391 -0.917141 0
M  V30 2659 C 249.377 -0.792541 -3.51783 0
M  V30 2660 O 248.481 0.145988 -4.12142 0
M  V30 2661 H 247.822 -0.220555 -0.6263 0
M  V30 2662 H 250.352 -1.23592 -1.63053 0
M  V30 2663 H 250.362 -0.704708 -4.01868 0
M  V30 2664 H 249.037 -1.82247 -3.73844 0
M  V30 2665 H 247.614 0.00897528 -3.72899 0
M  V30 2666 N 249.799 1.42003 -0.683588 0
M  V30 2667 C 251.045 2.01712 -0.209825 0
M  V30 2668 C 251.378 1.53968 1.18353 0
M  V30 2669 O 250.653 0.745661 1.79639 0
M  V30 2670 C 250.936 3.59202 -0.254197 0
M  V30 2671 C 250.789 4.17102 -1.68363 0
M  V30 2672 C 252.108 4.38344 0.392709 0
M  V30 2673 H 249.227 0.732891 -0.0777189 0
M  V30 2674 H 251.869 1.68909 -0.87004 0
M  V30 2675 H 250.019 3.87278 0.307954 0
M  V30 2676 H 251.691 3.99946 -2.29871 0
M  V30 2677 H 249.934 3.72597 -2.22157 0
M  V30 2678 H 250.605 5.26249 -1.6663 0
M  V30 2679 H 253.081 4.16011 -0.0859162 0
M  V30 2680 H 251.957 5.47901 0.331063 0
M  V30 2681 H 252.218 4.16887 1.47164 0
M  V30 2682 N 251.277 0.427512 1.51691 0
M  V30 2683 C 252.554 -0.201684 1.94557 0
M  V30 2684 C 252.934 -1.60981 1.36559 0
M  V30 2685 O 252.282 -2.21814 0.548702 0
M  V30 2686 C 252.492 -0.189394 3.48486 0
M  V30 2687 C 253.84 -0.39978 4.22714 0
M  V30 2688 O 254.864 -0.267945 3.55191 0
M  V30 2689 O 253.723 -0.661249 5.42485 0
M  V30 2690 H 250.817 -0.135261 0.815864 0
M  V30 2691 H 253.363 0.484782 1.62628 0
M  V30 2692 H 252.135 0.795431 3.8313 0
M  V30 2693 H 251.758 -0.919187 3.86829 0
M  V30 2694 N 252.755 -1.56801 0.158532 0
M  V30 2695 C 253.98 -2.01295 -0.499516 0
M  V30 2696 C 254.405 -1.03799 -1.56867 0
M  V30 2697 O 253.763 -0.0155162 -1.81293 0
M  V30 2698 C 253.811 -3.44469 -1.06647 0
M  V30 2699 O 252.915 -3.50012 -2.18095 0
M  V30 2700 H 252.256 -0.652884 -0.12099 0
M  V30 2701 H 254.786 -2.02958 0.258661 0
M  V30 2702 H 254.796 -3.8351 -1.39227 0
M  V30 2703 H 253.471 -4.14932 -0.283581 0
M  V30 2704 H 252.048 -3.22822 -1.86656 0
M  V30 2705 N 254.233 0.115231 -1.57178 0
M  V30 2706 C 255.644 0.67197 -1.74188 0
M  V30 2707 C 255.995 1.80125 -0.777777 0
M  V30 2708 O 255.12 2.16346 0.0484376 0
M  V30 2709 C 255.715 1.22573 -3.1585 0
M  V30 2710 C 254.274 1.72872 -3.34353 0
M  V30 2711 C 253.421 0.629972 -2.70049 0
M  V30 2712 H 256.372 -0.110712 -1.58313 0
M  V30 2713 H 256.393 2.09535 -3.17609 0
M  V30 2714 H 255.905 0.403598 -3.85996 0
M  V30 2715 H 254.006 2.5755 -2.69256 0
M  V30 2716 H 254.119 1.83557 -4.42542 0
M  V30 2717 H 252.483 1.0645 -2.31388 0
M  V30 2718 H 253.266 -0.181241 -3.42821 0
M  V30 2719 N 255.711 1.52812 0.385517 0
M  V30 2720 C 256.939 1.71907 1.15133 0
M  V30 2721 C 257.354 0.439004 1.83625 0
M  V30 2722 O 256.711 -0.586765 1.7281 0
M  V30 2723 C 256.762 2.87099 2.19673 0
M  V30 2724 O 256.483 4.10151 1.53973 0
M  V30 2725 C 257.984 3.17902 3.08955 0
M  V30 2726 H 255.204 0.575479 0.345057 0
M  V30 2727 H 257.748 1.99476 0.45052 0
M  V30 2728 H 255.903 2.61982 2.85384 0
M  V30 2729 H 256.317 4.74514 2.23465 0
M  V30 2730 H 257.791 4.01959 3.7833 0
M  V30 2731 H 258.268 2.3243 3.72657 0
M  V30 2732 H 258.874 3.44871 2.48885 0
M  V30 2733 N 257.189 -0.644168 1.43834 0
M  V30 2734 C 258.119 -1.76814 1.52509 0
M  V30 2735 C 259.1 -1.65823 0.379052 0
M  V30 2736 O 260.285 -1.84781 0.597466 0
M  V30 2737 C 257.415 -3.15288 1.4564 0
M  V30 2738 C 256.369 -3.41053 2.58586 0
M  V30 2739 C 255.695 -4.79421 2.36769 0
M  V30 2740 C 256.995 -3.34902 4.00797 0
M  V30 2741 H 258.689 -1.69812 2.46586 0
M  V30 2742 H 256.235 -0.815542 1.1868 0
M  V30 2743 H 258.188 -3.93681 1.50311 0
M  V30 2744 H 256.912 -3.23043 0.480725 0
M  V30 2745 H 255.571 -2.65035 2.53282 0
M  V30 2746 H 255.219 -4.83863 1.37424 0
M  V30 2747 H 254.919 -4.9762 3.12487 0
M  V30 2748 H 256.443 -5.6006 2.43238 0
M  V30 2749 H 257.857 -4.03218 4.07539 0
M  V30 2750 H 256.254 -3.64637 4.76613 0
M  V30 2751 H 257.324 -2.32928 4.25291 0
M  V30 2752 N 258.668 -1.30515 -0.883378 0
M  V30 2753 C 259.896 -1.22359 -1.66841 0
M  V30 2754 C 260.311 0.213296 -1.87591 0
M  V30 2755 O 259.668 1.14075 -1.42454 0
M  V30 2756 C 259.719 -1.95011 -3.04389 0
M  V30 2757 O 259.44 -3.3309 -2.84575 0
M  V30 2758 C 260.941 -1.93532 -3.98824 0
M  V30 2759 H 258.161 -0.423371 -0.520575 0
M  V30 2760 H 260.705 -1.72167 -1.10357 0
M  V30 2761 H 258.86 -1.48997 -3.57601 0
M  V30 2762 H 259.274 -3.69907 -3.71846 0
M  V30 2763 H 260.748 -2.48902 -4.92699 0
M  V30 2764 H 261.225 -0.914627 -4.29571 0
M  V30 2765 H 261.831 -2.39364 -3.51547 0
M  V30 2766 N 260.146 1.09593 -1.13257 0
M  V30 2767 C 261.562 1.33775 -0.870423 0
M  V30 2768 C 261.762 1.95327 0.494926 0
M  V30 2769 O 260.818 2.19853 1.2418 0
M  V30 2770 C 262.131 2.25106 -1.99369 0
M  V30 2771 C 263.679 2.3862 -2.02558 0
M  V30 2772 C 264.154 3.33285 -3.14142 0
M  V30 2773 N 265.645 3.40857 -3.13641 0
M  V30 2774 C 266.38 4.14101 -3.96621 0
M  V30 2775 N 265.876 4.90157 -4.8961 0
M  V30 2776 N 267.669 4.09808 -3.84726 0
M  V30 2777 H 259.82 0.680136 -2.01216 0
M  V30 2778 H 262.083 0.362133 -0.876107 0
M  V30 2779 H 261.789 1.87103 -2.97801 0
M  V30 2780 H 261.663 3.25481 -1.90635 0
M  V30 2781 H 264.05 2.75887 -1.0474 0
M  V30 2782 H 264.131 1.38028 -2.15364 0
M  V30 2783 H 263.775 2.96741 -4.12198 0
M  V30 2784 H 263.705 4.33776 -2.98574 0
M  V30 2785 H 266.196 2.86624 -2.46282 0
M  V30 2786 H 266.509 5.4347 -5.49418 0
M  V30 2787 H 264.854 4.89251 -4.93617 0
M  V30 2788 H 268.045 3.4949 -3.11408 0
M  V30 2789 H 268.218 4.66629 -4.49623 0
M  V30 2790 N 261.624 0.925811 1.2754 0
M  V30 2791 C 262.871 0.565255 1.94451 0
M  V30 2792 C 263.199 -0.89316 1.7278 0
M  V30 2793 O 262.454 -1.65213 1.04895 0
M  V30 2794 C 262.753 0.835296 3.47502 0
M  V30 2795 C 262.419 2.27515 3.89291 0
M  V30 2796 C 261.081 2.66879 4.00411 0
M  V30 2797 C 263.433 3.21158 4.10496 0
M  V30 2798 C 260.761 3.99014 4.30122 0
M  V30 2799 C 263.113 4.52871 4.4169 0
M  V30 2800 C 261.777 4.92072 4.51023 0
M  V30 2801 H 261.047 0.206841 0.711546 0
M  V30 2802 H 263.694 1.16942 1.51647 0
M  V30 2803 H 261.999 0.148442 3.91519 0
M  V30 2804 H 263.696 0.535322 3.97411 0
M  V30 2805 H 260.286 1.95976 3.81171 0
M  V30 2806 H 264.47 2.9195 4.01346 0
M  V30 2807 H 259.726 4.2907 4.35556 0
M  V30 2808 H 263.9 5.25436 4.57045 0
M  V30 2809 H 261.527 5.9449 4.738 0
M  V30 2810 N 263.102 -1.41638 0.69111 0
M  V30 2811 C 264.349 -2.01299 0.220193 0
M  V30 2812 C 264.677 -1.54715 -1.17871 0
M  V30 2813 O 263.932 -0.747193 -1.80874 0
M  V30 2814 C 264.231 -3.56714 0.221277 0
M  V30 2815 C 263.897 -4.22792 1.56709 0
M  V30 2816 C 262.559 -4.40557 1.93554 0
M  V30 2817 C 264.911 -4.59883 2.45268 0
M  V30 2818 C 262.239 -4.92688 3.18552 0
M  V30 2819 C 264.591 -5.13403 3.69595 0
M  V30 2820 C 263.255 -5.29379 4.06589 0
M  V30 2821 H 262.525 -0.736606 0.0805743 0
M  V30 2822 H 265.172 -1.69598 0.889319 0
M  V30 2823 H 263.477 -3.8818 -0.531391 0
M  V30 2824 H 265.174 -4.00678 -0.160547 0
M  V30 2825 H 261.764 -4.09336 1.2705 0
M  V30 2826 H 265.948 -4.45817 2.18084 0
M  V30 2827 H 261.204 -5.03242 3.47214 0
M  V30 2828 H 265.378 -5.41084 4.38407 0
M  V30 2829 H 263.005 -5.69537 5.03519 0
M  V30 2830 N 264.58 -0.43555 -1.51462 0
M  V30 2831 C 265.808 0.130242 -2.0649 0
M  V30 2832 C 266.223 1.36614 -1.30315 0
M  V30 2833 O 265.58 1.78869 -0.362223 0
M  V30 2834 C 265.631 0.454253 -3.58635 0
M  V30 2835 O 265.352 -0.73259 -4.31931 0
M  V30 2836 C 266.853 1.07091 -4.3017 0
M  V30 2837 H 264.073 0.00871669 -0.670943 0
M  V30 2838 H 266.617 -0.614117 -1.95061 0
M  V30 2839 H 264.772 1.14851 -3.69984 0
M  V30 2840 H 265.186 -0.455787 -5.22516 0
M  V30 2841 H 266.66 1.24764 -5.37716 0
M  V30 2842 H 267.137 2.05144 -3.88346 0
M  V30 2843 H 267.743 0.416089 -4.2326 0
M  V30 2844 N 266.058 1.56714 -0.166846 0
M  V30 2845 C 267.305 1.96747 0.479252 0
M  V30 2846 C 267.633 1.05263 1.63554 0
M  V30 2847 O 266.888 0.0858098 1.95512 0
M  V30 2848 C 267.187 3.42889 1.00806 0
M  V30 2849 C 266.853 4.50889 -0.0318574 0
M  V30 2850 C 265.515 4.8015 -0.317675 0
M  V30 2851 C 267.867 5.15949 -0.737956 0
M  V30 2852 C 265.195 5.71772 -1.31506 0
M  V30 2853 C 267.547 6.08647 -1.72429 0
M  V30 2854 C 266.211 6.36277 -2.0176 0
M  V30 2855 H 265.481 0.719949 0.175371 0
M  V30 2856 H 268.128 1.89756 -0.257864 0
M  V30 2857 H 266.433 3.4681 1.82291 0
M  V30 2858 H 268.13 3.71203 1.51689 0
M  V30 2859 H 264.72 4.28128 0.201088 0
M  V30 2860 H 268.904 4.93458 -0.530351 0
M  V30 2861 H 264.16 5.91465 -1.54853 0
M  V30 2862 H 268.334 6.58129 -2.27682 0
M  V30 2863 H 265.961 7.07075 -2.79194 0
M  V30 2864 N 267.536 -0.106894 1.57237 0
M  V30 2865 C 268.486 -1.1366 1.9765 0
M  V30 2866 C 269.47 -1.36416 0.853203 0
M  V30 2867 O 270.662 -1.37305 1.11697 0
M  V30 2868 C 267.791 -2.46 2.39455 0
M  V30 2869 C 266.877 -2.26668 3.58445 0
M  V30 2870 N 267.268 -1.77176 4.73754 0
M  V30 2871 C 265.566 -2.57279 3.64312 0
M  V30 2872 C 266.267 -1.71836 5.5574 0
M  V30 2873 N 265.243 -2.16623 4.98573 0
M  V30 2874 H 269.045 -0.74669 2.84256 0
M  V30 2875 H 266.559 -0.314483 1.59326 0
M  V30 2876 H 268.556 -3.2049 2.6663 0
M  V30 2877 H 267.216 -2.85738 1.54219 0
M  V30 2878 H 268.227 -1.46545 4.96734 0
M  V30 2879 H 264.904 -3.00622 2.89711 0
M  V30 2880 H 266.294 -1.34723 6.58255 0
M  V30 2881 N 269.014 -1.53014 -0.377408 0
M  V30 2882 C 270.261 -1.68623 -1.12128 0
M  V30 2883 C 270.589 -0.431997 -1.89642 0
M  V30 2884 O 269.844 0.585855 -1.86725 0
M  V30 2885 C 270.143 -2.87982 -2.11663 0
M  V30 2886 C 269.809 -4.24964 -1.50719 0
M  V30 2887 C 268.471 -4.62217 -1.33825 0
M  V30 2888 C 270.823 -5.10199 -1.06519 0
M  V30 2889 C 268.151 -5.82352 -0.712963 0
M  V30 2890 C 270.503 -6.30969 -0.453955 0
M  V30 2891 C 269.167 -6.66944 -0.272411 0
M  V30 2892 H 268.437 -0.617034 -0.410305 0
M  V30 2893 H 271.084 -1.8718 -0.404484 0
M  V30 2894 H 269.389 -2.63889 -2.89603 0
M  V30 2895 H 271.086 -2.97253 -2.6915 0
M  V30 2896 H 267.676 -3.95626 -1.64858 0
M  V30 2897 H 271.86 -4.81978 -1.18368 0
M  V30 2898 H 267.116 -6.08824 -0.560611 0
M  V30 2899 H 271.29 -6.96324 -0.103217 0
M  V30 2900 H 268.917 -7.59898 0.214181 0
M  V30 2901 N 270.492 0.636531 -1.44174 0
M  V30 2902 C 271.741 1.39213 -1.45954 0
M  V30 2903 C 272.054 1.95374 -0.0939119 0
M  V30 2904 O 273.26 2.71498 0.0107767 0
M  V30 2905 C 271.716 2.52025 -2.56927 0
M  V30 2906 C 271.324 2.024 -3.99673 0
M  V30 2907 C 273.068 3.29269 -2.67922 0
M  V30 2908 C 270.975 3.12521 -5.0208 0
M  V30 2909 H 269.905 0.523132 -0.542999 0
M  V30 2910 H 272.556 0.685349 -1.70221 0
M  V30 2911 H 270.938 3.25253 -2.25891 0
M  V30 2912 H 272.112 1.36073 -4.40251 0
M  V30 2913 H 270.427 1.37987 -3.92872 0
M  V30 2914 H 273.024 4.11352 -3.41605 0
M  V30 2915 H 273.367 3.78397 -1.73555 0
M  V30 2916 H 273.9 2.63129 -2.98342 0
M  V30 2917 H 270.639 2.68343 -5.98057 0
M  V30 2918 H 270.159 3.77507 -4.66099 0
M  V30 2919 H 271.838 3.77385 -5.25538 0
M  V30 2920 N 271.97 1.30982 0.876444 0
M  V30 2921 C 272.9 1.20668 1.99903 0
M  V30 2922 C 273.881 0.095354 1.69833 0
M  V30 2923 O 275.066 0.27885 1.92188 0
M  V30 2924 C 272.196 0.90655 3.3526 0
M  V30 2925 C 271.15 1.97675 3.79617 0
M  V30 2926 C 270.476 1.52943 5.1236 0
M  V30 2927 C 271.776 3.389 3.97422 0
M  V30 2928 H 273.47 2.14586 2.0879 0
M  V30 2929 H 271.016 1.03308 1.00317 0
M  V30 2930 H 272.969 0.821025 4.13324 0
M  V30 2931 H 271.693 -0.0682969 3.26529 0
M  V30 2932 H 270.352 2.05205 3.03787 0
M  V30 2933 H 270 0.54262 5.00065 0
M  V30 2934 H 269.7 2.24532 5.43009 0
M  V30 2935 H 271.224 1.45786 5.92941 0
M  V30 2936 H 272.638 3.34081 4.659 0
M  V30 2937 H 271.035 4.0865 4.3946 0
M  V30 2938 H 272.105 3.80163 3.01006 0
M  V30 2939 N 273.449 -1.08991 1.13837 0
M  V30 2940 C 274.86 -1.62746 0.914917 0
M  V30 2941 C 275.211 -1.88403 -0.547594 0
M  V30 2942 O 274.336 -1.63706 -1.41525 0
M  V30 2943 C 274.931 -2.95662 1.65437 0
M  V30 2944 C 273.49 -3.46225 1.47666 0
M  V30 2945 C 272.637 -2.20562 1.6807 0
M  V30 2946 H 275.588 -0.922946 1.29102 0
M  V30 2947 H 275.609 -3.63825 1.11407 0
M  V30 2948 H 275.121 -2.76956 2.71877 0
M  V30 2949 H 273.222 -3.70046 0.435478 0
M  V30 2950 H 273.335 -4.23368 2.24268 0
M  V30 2951 H 271.699 -2.29439 1.10589 0
M  V30 2952 H 272.482 -2.0437 2.7584 0
M  V30 2953 N 274.927 -0.932562 -1.27047 0
M  V30 2954 C 276.174 -0.575559 -1.94148 0
M  V30 2955 C 276.502 0.883984 -1.73251 0
M  V30 2956 O 275.757 1.64655 -1.0577 0
M  V30 2957 C 276.056 -0.853713 -3.47054 0
M  V30 2958 C 275.722 -2.29577 -3.88079 0
M  V30 2959 C 274.384 -2.68999 -3.9899 0
M  V30 2960 C 276.736 -3.23331 -4.08787 0
M  V30 2961 C 274.064 -4.01289 -4.28 0
M  V30 2962 C 276.416 -4.55207 -4.39282 0
M  V30 2963 C 275.08 -4.94457 -4.48407 0
M  V30 2964 H 274.35 -0.210612 -0.710439 0
M  V30 2965 H 276.997 -1.17744 -1.51025 0
M  V30 2966 H 275.302 -0.169204 -3.91434 0
M  V30 2967 H 276.999 -0.55639 -3.97121 0
M  V30 2968 H 273.589 -1.97994 -3.80127 0
M  V30 2969 H 277.773 -2.94074 -3.99793 0
M  V30 2970 H 273.029 -4.31374 -4.33275 0
M  V30 2971 H 277.203 -5.27852 -4.54252 0
M  V30 2972 H 274.83 -5.96994 -4.7064 0
M  V30 2973 N 276.405 1.4127 -0.698611 0
M  V30 2974 C 277.654 2.00408 -0.227949 0
M  V30 2975 C 277.967 1.55981 1.18023 0
M  V30 2976 O 279.173 2.07699 1.74852 0
M  V30 2977 C 277.629 3.58129 -0.356636 0
M  V30 2978 C 277.237 4.11536 -1.77037 0
M  V30 2979 C 278.981 4.24466 0.0540969 0
M  V30 2980 C 276.888 5.61701 -1.85055 0
M  V30 2981 H 275.818 0.749586 -0.0814657 0
M  V30 2982 H 278.469 1.61713 -0.867249 0
M  V30 2983 H 276.851 3.94442 0.350965 0
M  V30 2984 H 278.025 3.86636 -2.50698 0
M  V30 2985 H 276.34 3.57736 -2.13105 0
M  V30 2986 H 278.937 5.34698 0.0146723 0
M  V30 2987 H 279.28 4.01687 1.09332 0
M  V30 2988 H 279.813 3.93198 -0.603337 0
M  V30 2989 H 276.552 5.89312 -2.8704 0
M  V30 2990 H 276.072 5.88519 -1.15783 0
M  V30 2991 H 277.751 6.26524 -1.61484 0
M  V30 2992 N 277.883 0.443576 1.51229 0
M  V30 2993 C 279.132 -0.122332 2.01329 0
M  V30 2994 C 279.445 -1.43237 1.33201 0
M  V30 2995 O 280.651 -2.0816 1.74304 0
M  V30 2996 C 279.107 -0.268551 3.58897 0
M  V30 2997 C 278.715 1.03142 4.35965 0
M  V30 2998 C 280.459 -0.787894 4.17124 0
M  V30 2999 C 278.366 0.850504 5.85252 0
M  V30 3000 H 277.296 -0.0494929 0.752374 0
M  V30 3001 H 279.947 0.574289 1.74282 0
M  V30 3002 H 278.329 -1.02832 3.82415 0
M  V30 3003 H 279.503 1.80001 4.24189 0
M  V30 3004 H 277.818 1.47977 3.89219 0
M  V30 3005 H 280.415 -0.939841 5.26375 0
M  V30 3006 H 280.758 -1.77201 3.76703 0
M  V30 3007 H 281.291 -0.0862669 3.97706 0
M  V30 3008 H 278.03 1.80718 6.30096 0
M  V30 3009 H 277.55 0.121825 5.99676 0
M  V30 3010 H 279.229 0.506163 6.45017 0
M  V30 3011 N 279.361 -1.56624 0.175154 0
M  V30 3012 C 280.324 -2.16934 -0.739738 0
M  V30 3013 C 281.324 -1.11842 -1.15533 0
M  V30 3014 O 282.514 -1.37335 -1.07167 0
M  V30 3015 C 279.646 -2.75531 -2.00738 0
M  V30 3016 H 280.839 -2.99131 -0.214639 0
M  V30 3017 H 278.392 -1.56123 -0.0744197 0
M  V30 3018 H 279.127 -1.97078 -2.57548 0
M  V30 3019 H 278.912 -3.52444 -1.71831 0
M  V30 3020 H 280.402 -3.21904 -2.66021 0
M  V30 3021 N 280.839 0.0985539 -1.57292 0
M  V30 3022 C 281.802 1.10402 -2.00858 0
M  V30 3023 C 282.802 1.33146 -0.901593 0
M  V30 3024 O 283.992 1.29318 -1.16716 0
M  V30 3025 C 281.124 2.45394 -2.36632 0
M  V30 3026 H 282.317 0.729099 -2.90902 0
M  V30 3027 H 279.87 0.343495 -1.52479 0
M  V30 3028 H 280.605 2.87769 -1.49531 0
M  V30 3029 H 280.39 2.30235 -3.17387 0
M  V30 3030 H 281.88 3.17718 -2.71007 0
M  V30 3031 N 282.317 1.53212 0.369288 0
M  V30 3032 C 283.247 1.82365 1.45826 0
M  V30 3033 C 284.228 0.676907 1.56051 0
M  V30 3034 O 285.413 0.926401 1.70679 0
M  V30 3035 C 282.543 2.01023 2.83208 0
M  V30 3036 C 281.497 3.1678 2.8781 0
M  V30 3037 C 280.823 3.20724 4.27832 0
M  V30 3038 C 282.123 4.55447 2.55667 0
M  V30 3039 H 283.817 2.73559 1.21678 0
M  V30 3040 H 281.363 1.3163 0.583911 0
M  V30 3041 H 283.316 2.20001 3.59413 0
M  V30 3042 H 282.04 1.06536 3.08736 0
M  V30 3043 H 280.699 2.97616 2.14056 0
M  V30 3044 H 280.347 2.23882 4.50429 0
M  V30 3045 H 280.047 3.98496 4.31827 0
M  V30 3046 H 281.571 3.41881 5.05915 0
M  V30 3047 H 282.985 4.74611 3.21586 0
M  V30 3048 H 281.382 5.35432 2.70984 0
M  V30 3049 H 282.452 4.60812 1.5093 0
M  V30 3050 N 283.795 -0.628877 1.44509 0
M  V30 3051 C 284.758 -1.72263 1.51188 0
M  V30 3052 C 285.758 -1.55907 0.39367 0
M  V30 3053 O 286.948 -1.61361 0.656377 0
M  V30 3054 C 284.08 -3.11365 1.38798 0
M  V30 3055 H 285.273 -1.67714 2.4862 0
M  V30 3056 H 282.826 -0.842737 1.31634 0
M  V30 3057 H 283.561 -3.21507 0.424693 0
M  V30 3058 H 283.346 -3.24644 2.19884 0
M  V30 3059 H 284.836 -3.91075 1.46458 0
M  V30 3060 N 285.273 -1.31445 -0.869486 0
M  V30 3061 C 286.501 -1.24122 -1.65534 0
M  V30 3062 C 286.916 0.193387 -1.87807 0
M  V30 3063 O 286.273 1.12557 -1.43656 0
M  V30 3064 C 286.324 -1.98229 -3.02304 0
M  V30 3065 O 286.045 -3.3609 -2.81026 0
M  V30 3066 C 287.546 -1.97751 -3.96749 0
M  V30 3067 H 284.766 -0.428868 -0.516055 0
M  V30 3068 H 287.31 -1.73328 -1.08525 0
M  V30 3069 H 285.465 -1.52782 -3.56001 0
M  V30 3070 H 285.879 -3.7383 -3.67902 0
M  V30 3071 H 287.353 -2.54114 -4.90031 0
M  V30 3072 H 287.83 -0.960137 -4.28577 0
M  V30 3073 H 288.436 -2.43079 -3.48988 0
M  V30 3074 N 286.751 1.08385 -1.14413 0
M  V30 3075 C 287.681 2.17321 -0.854044 0
M  V30 3076 C 288.662 1.69024 0.191049 0
M  V30 3077 O 289.847 1.94141 0.0476779 0
M  V30 3078 C 286.977 3.45719 -0.330983 0
M  V30 3079 C 285.931 4.07409 -1.31155 0
M  V30 3080 C 285.257 5.30762 -0.64778 0
M  V30 3081 C 286.557 4.48665 -2.67388 0
M  V30 3082 H 288.251 2.41845 -1.76498 0
M  V30 3083 H 285.797 1.16233 -0.850051 0
M  V30 3084 H 287.75 4.21241 -0.115645 0
M  V30 3085 H 286.474 3.2075 0.615381 0
M  V30 3086 H 285.133 3.33919 -1.51306 0
M  V30 3087 H 284.781 5.02078 0.304398 0
M  V30 3088 H 284.481 5.72992 -1.30207 0
M  V30 3089 H 286.005 6.08998 -0.441972 0
M  V30 3090 H 287.419 5.15364 -2.51143 0
M  V30 3091 H 285.816 5.01814 -3.29093 0
M  V30 3092 H 286.886 3.60543 -3.24248 0
M  V30 3093 N 288.23 0.939286 1.26551 0
M  V30 3094 C 289.18 0.418284 2.2413 0
M  V30 3095 C 290.164 -0.483935 1.5345 0
M  V30 3096 O 291.356 -0.319489 1.74093 0
M  V30 3097 C 288.485 -0.31709 3.41832 0
M  V30 3098 C 287.571 0.602311 4.19801 0
M  V30 3099 N 287.962 1.72726 4.75394 0
M  V30 3100 C 286.26 0.407534 4.44134 0
M  V30 3101 C 286.961 2.30004 5.34297 0
M  V30 3102 N 285.937 1.58828 5.1988 0
M  V30 3103 H 289.739 1.27705 2.64705 0
M  V30 3104 H 287.253 0.794929 1.41614 0
M  V30 3105 H 289.25 -0.707364 4.10855 0
M  V30 3106 H 287.91 -1.17264 3.02786 0
M  V30 3107 H 288.921 2.10944 4.72994 0
M  V30 3108 H 285.598 -0.406406 4.15517 0
M  V30 3109 H 286.988 3.24778 5.88191 0
M  V30 3110 N 289.708 -1.40897 0.706093 0
M  V30 3111 C 290.638 -2.33418 0.0620085 0
M  V30 3112 C 291.619 -1.52385 -0.755827 0
M  V30 3113 O 292.804 -1.80886 -0.706674 0
M  V30 3114 C 289.934 -3.36293 -0.867445 0
M  V30 3115 C 288.888 -4.27716 -0.155932 0
M  V30 3116 C 288.214 -5.2105 -1.20046 0
M  V30 3117 C 289.514 -5.12944 0.984149 0
M  V30 3118 H 291.208 -2.87527 0.83477 0
M  V30 3119 H 288.754 -1.38249 0.402875 0
M  V30 3120 H 290.707 -3.99949 -1.32735 0
M  V30 3121 H 289.431 -2.80556 -1.67199 0
M  V30 3122 H 288.09 -3.65498 0.284047 0
M  V30 3123 H 287.738 -4.61624 -1.99781 0
M  V30 3124 H 287.438 -5.83056 -0.729328 0
M  V30 3125 H 288.962 -5.87584 -1.66066 0
M  V30 3126 H 290.376 -5.70109 0.604048 0
M  V30 3127 H 288.773 -5.83945 1.38304 0
M  V30 3128 H 289.843 -4.49485 1.81911 0
M  V30 3129 N 291.186 -0.45159 -1.50991 0
M  V30 3130 C 292.116 0.342898 -2.30969 0
M  V30 3131 C 293.097 1.00815 -1.37005 0
M  V30 3132 O 294.282 1.00907 -1.65926 0
M  V30 3133 C 291.412 1.43637 -3.16205 0
M  V30 3134 C 290.366 0.893818 -4.18563 0
M  V30 3135 C 289.692 2.08411 -4.92411 0
M  V30 3136 C 290.992 -0.0815568 -5.22236 0
M  V30 3137 H 292.686 -0.324556 -2.97636 0
M  V30 3138 H 290.232 -0.157531 -1.43136 0
M  V30 3139 H 292.185 1.9995 -3.70942 0
M  V30 3140 H 290.909 2.13232 -2.47386 0
M  V30 3141 H 289.568 0.352798 -3.64898 0
M  V30 3142 H 289.216 2.76658 -4.20082 0
M  V30 3143 H 288.916 1.72741 -5.61636 0
M  V30 3144 H 290.44 2.65251 -5.49976 0
M  V30 3145 H 291.854 0.391742 -5.7196 0
M  V30 3146 H 290.251 -0.351551 -5.99069 0
M  V30 3147 H 291.321 -1.01374 -4.74185 0
M  V30 3148 N 292.664 1.56529 -0.183458 0
M  V30 3149 C 293.911 1.97244 0.458357 0
M  V30 3150 C 294.239 1.06992 1.62428 0
M  V30 3151 O 293.494 0.106542 1.9541 0
M  V30 3152 C 293.793 3.43939 0.971637 0
M  V30 3153 C 293.459 4.5083 -0.0796784 0
M  V30 3154 C 292.121 4.79786 -0.368584 0
M  V30 3155 C 294.473 5.15138 -0.792638 0
M  V30 3156 C 291.801 5.70345 -1.37563 0
M  V30 3157 C 294.153 6.06784 -1.78875 0
M  V30 3158 C 292.817 6.34102 -2.08497 0
M  V30 3159 H 292.087 0.721768 0.167725 0
M  V30 3160 H 294.734 1.89472 -0.277976 0
M  V30 3161 H 293.039 3.48724 1.78602 0
M  V30 3162 H 294.736 3.72791 1.47744 0
M  V30 3163 H 291.326 4.28317 0.155668 0
M  V30 3164 H 295.51 4.92868 -0.582659 0
M  V30 3165 H 290.766 5.89789 -1.61118 0
M  V30 3166 H 294.94 6.55677 -2.3465 0
M  V30 3167 H 292.567 7.04074 -2.86678 0
M  V30 3168 N 294.142 -0.090211 1.57342 0
M  V30 3169 C 295.072 -1.10976 2.05443 0
M  V30 3170 C 296.053 -1.41482 0.944284 0
M  V30 3171 O 297.238 -1.51428 1.21586 0
M  V30 3172 C 294.368 -2.42831 2.48295 0
M  V30 3173 C 293.322 -2.26721 3.63018 0
M  V30 3174 C 292.648 -3.63796 3.91863 0
M  V30 3175 C 293.948 -1.7037 4.93732 0
M  V30 3176 H 295.642 -0.709564 2.9087 0
M  V30 3177 H 293.188 -0.339874 1.39932 0
M  V30 3178 H 295.141 -3.14431 2.80555 0
M  V30 3179 H 293.865 -2.84795 1.59873 0
M  V30 3180 H 292.524 -1.57565 3.31012 0
M  V30 3181 H 292.172 -4.03297 3.00601 0
M  V30 3182 H 291.872 -3.53861 4.69101 0
M  V30 3183 H 293.396 -4.36855 4.26603 0
M  V30 3184 H 294.81 -2.31816 5.24342 0
M  V30 3185 H 293.207 -1.71181 5.75167 0
M  V30 3186 H 294.277 -0.663542 4.80339 0
M  V30 3187 N 295.62 -1.53406 -0.361157 0
M  V30 3188 C 296.57 -1.76536 -1.44287 0
M  V30 3189 C 297.554 -0.620019 -1.48474 0
M  V30 3190 O 298.746 -0.878834 -1.53641 0
M  V30 3191 C 295.875 -1.96266 -2.81664 0
M  V30 3192 C 294.961 -3.16815 -2.81938 0
M  V30 3193 N 295.352 -4.38637 -2.51855 0
M  V30 3194 C 293.65 -3.17627 -3.13096 0
M  V30 3195 C 294.351 -5.20401 -2.59919 0
M  V30 3196 N 293.327 -4.56712 -2.94814 0
M  V30 3197 H 297.129 -2.68331 -1.19899 0
M  V30 3198 H 294.643 -1.52091 -0.56938 0
M  V30 3199 H 296.64 -2.10966 -3.59582 0
M  V30 3200 H 295.3 -1.05702 -3.07013 0
M  V30 3201 H 296.311 -4.66293 -2.25369 0
M  V30 3202 H 292.988 -2.36971 -3.43731 0
M  V30 3203 H 294.378 -6.27586 -2.39969 0
M  V30 3204 N 297.098 0.621204 -1.44841 0
M  V30 3205 C 298.008 1.7612 -1.5498 0
M  V30 3206 C 299.024 1.68477 -0.434927 0
M  V30 3207 O 300.2 1.89076 -0.693693 0
M  V30 3208 C 297.265 3.1254 -1.50065 0
M  V30 3209 C 296.326 3.31741 -2.72482 0
M  V30 3210 C 295.559 4.61653 -2.67792 0
M  V30 3211 O 295.782 5.431 -1.74352 0
M  V30 3212 O 294.716 4.83271 -3.58794 0
M  V30 3213 H 298.542 1.70518 -2.51311 0
M  V30 3214 H 296.127 0.783643 -1.27198 0
M  V30 3215 H 298.009 3.93844 -1.49882 0
M  V30 3216 H 296.684 3.18663 -0.568806 0
M  V30 3217 H 295.591 2.50077 -2.7823 0
M  V30 3218 H 296.924 3.30486 -3.64746 0
M  V30 3219 N 298.576 1.31904 0.862503 0
M  V30 3220 C 299.804 1.24998 1.64873 0
M  V30 3221 C 300.219 -0.183425 1.87907 0
M  V30 3222 O 299.576 -1.11794 1.44251 0
M  V30 3223 C 299.627 1.99829 3.01248 0
M  V30 3224 O 299.348 3.37575 2.79239 0
M  V30 3225 C 300.849 1.99852 3.95694 0
M  V30 3226 H 298.069 0.431599 0.513773 0
M  V30 3227 H 300.613 1.73901 1.07604 0
M  V30 3228 H 298.768 1.54668 3.55185 0
M  V30 3229 H 299.182 3.75776 3.65914 0
M  V30 3230 H 300.656 2.56709 4.88676 0
M  V30 3231 H 301.133 0.982852 4.28062 0
M  V30 3232 H 301.739 2.44926 3.47694 0
M  V30 3233 N 300.054 -1.07777 1.14986 0
M  V30 3234 C 301.302 -1.79934 0.920235 0
M  V30 3235 C 301.623 -1.86955 -0.554336 0
M  V30 3236 O 300.893 -1.36731 -1.40291 0
M  V30 3237 H 299.473 -0.666424 0.337473 0
M  V30 3238 H 302.135 -1.3027 1.44968 0
M  V30 3239 H 301.231 -2.82539 1.32583 0
M  V30 3240 N 301.532 -0.945985 -1.26051 0
M  V30 3241 C 302.757 -0.612525 -1.98149 0
M  V30 3242 C 303.182 0.806623 -1.69927 0
M  V30 3243 O 302.54 1.54411 -0.950108 0
M  V30 3244 C 302.588 -0.866981 -3.50023 0
M  V30 3245 O 301.692 0.0585333 -4.12358 0
M  V30 3246 H 301.033 -0.23379 -0.621481 0
M  V30 3247 H 303.563 -1.27023 -1.60395 0
M  V30 3248 H 303.573 -0.789792 -4.00283 0
M  V30 3249 H 302.248 -1.90135 -3.69894 0
M  V30 3250 H 300.825 -0.0701241 -3.72834 0
M  V30 3251 N 303.011 1.40521 -0.713556 0
M  V30 3252 C 303.959 2.32549 -0.0485227 0
M  V30 3253 C 304.953 1.51931 0.74922 0
M  V30 3254 O 306.159 1.67745 0.652816 0
M  V30 3255 H 302.534 0.751994 0.00311138 0
M  V30 3256 H 304.505 2.86291 -0.841443 0
M  V30 3257 C 303.254 3.36879 0.860687 0
M  V30 3258 H 302.577 3.98978 0.256246 0
M  V30 3259 H 304.017 4.03772 1.294 0
M  V30 3260 C 302.476 2.72197 1.9852 0
M  V30 3261 O 303.006 2.5837 3.07584 0
M  V30 3262 N 301.212 2.30612 1.76823 0
M  V30 3263 H 300.759 2.42059 0.881217 0
M  V30 3264 H 300.717 1.87672 2.52243 0
M  V30 3265 N 304.489 0.459591 1.5075 0
M  V30 3266 C 305.437 -0.354678 2.2988 0
M  V30 3267 C 306.431 -1.00086 1.36672 0
M  V30 3268 O 307.637 -0.933277 1.53915 0
M  V30 3269 H 304.012 -0.13321 0.740107 0
M  V30 3270 H 305.983 0.333269 2.96533 0
M  V30 3271 C 304.732 -1.43073 3.169 0
M  V30 3272 H 304.055 -0.942882 3.88523 0
M  V30 3273 H 305.495 -1.97328 3.75284 0
M  V30 3274 C 303.954 -2.42633 2.33732 0
M  V30 3275 O 304.484 -3.47658 2.01238 0
M  V30 3276 N 302.69 -2.14066 1.9653 0
M  V30 3277 H 302.237 -1.28685 2.23155 0
M  V30 3278 H 302.195 -2.80917 1.41185 0
M  V30 3279 N 305.967 -1.56429 0.191757 0
M  V30 3280 C 307.378 -1.83912 -0.321428 0
M  V30 3281 C 307.729 -1.11231 -1.61623 0
M  V30 3282 O 306.854 -0.37202 -2.13178 0
M  V30 3283 C 307.449 -3.33624 -0.589961 0
M  V30 3284 C 306.008 -3.6153 -1.04753 0
M  V30 3285 C 305.155 -2.7714 -0.0943327 0
M  V30 3286 H 308.106 -1.53161 0.415612 0
M  V30 3287 H 308.127 -3.52213 -1.43966 0
M  V30 3288 H 307.639 -3.86495 0.352588 0
M  V30 3289 H 305.74 -3.14089 -2.00447 0
M  V30 3290 H 305.853 -4.69737 -0.942549 0
M  V30 3291 H 304.217 -2.47638 -0.595589 0
M  V30 3292 H 305 -3.32799 0.842601 0
M  V30 3293 N 307.445 0.0818655 -1.57387 0
M  V30 3294 C 308.375 1.09885 -2.06028 0
M  V30 3295 C 309.356 1.4098 -0.951774 0
M  V30 3296 O 310.541 1.50781 -1.22387 0
M  V30 3297 C 307.671 2.4151 -2.4958 0
M  V30 3298 C 306.625 2.24792 -3.64215 0
M  V30 3299 C 305.951 3.61712 -3.93787 0
M  V30 3300 C 307.251 1.67749 -4.94629 0
M  V30 3301 H 308.945 0.694128 -2.91243 0
M  V30 3302 H 306.491 0.332448 -1.4011 0
M  V30 3303 H 308.444 3.12939 -2.82219 0
M  V30 3304 H 307.168 2.83943 -1.61381 0
M  V30 3305 H 305.827 1.55807 -3.31843 0
M  V30 3306 H 305.475 4.01697 -3.02735 0
M  V30 3307 H 305.175 3.51368 -4.70971 0
M  V30 3308 H 306.699 4.34587 -4.28913 0
M  V30 3309 H 308.113 2.29032 -5.25564 0
M  V30 3310 H 306.51 1.68128 -5.76067 0
M  V30 3311 H 307.58 0.638059 -4.80684 0
M  V30 3312 N 308.923 1.53595 0.353017 0
M  V30 3313 C 310.171 1.70049 1.09215 0
M  V30 3314 C 310.492 0.461406 1.89463 0
M  V30 3315 O 309.762 -0.524633 1.88744 0
M  V30 3316 H 308.342 0.626912 0.40619 0
M  V30 3317 H 311.004 1.90822 0.396585 0
M  V30 3318 H 310.1 2.56718 1.77488 0
M  V30 3319 N 310.401 -0.613514 1.45168 0
M  V30 3320 C 311.65 -1.36874 1.4815 0
M  V30 3321 C 311.963 -1.952 0.124982 0
M  V30 3322 O 313.169 -2.71481 0.0324176 0
M  V30 3323 C 311.625 -2.47905 2.60904 0
M  V30 3324 C 311.233 -1.96016 4.02842 0
M  V30 3325 C 312.977 -3.24965 2.73126 0
M  V30 3326 C 310.884 -3.04494 5.06988 0
M  V30 3327 H 309.814 -0.514428 0.551253 0
M  V30 3328 H 312.465 -0.658182 1.7129 0
M  V30 3329 H 310.847 -3.21618 2.31037 0
M  V30 3330 H 312.021 -1.29051 4.4236 0
M  V30 3331 H 310.336 -1.31719 3.95018 0
M  V30 3332 H 312.933 -4.05865 3.48106 0
M  V30 3333 H 313.276 -3.75588 1.79553 0
M  V30 3334 H 313.809 -2.5835 3.0249 0
M  V30 3335 H 310.548 -2.58795 6.0225 0
M  V30 3336 H 310.068 -3.70044 4.72046 0
M  V30 3337 H 311.747 -3.68976 5.31475 0
M  V30 3338 N 311.879 -1.3236 -0.855495 0
M  V30 3339 C 313.107 -1.2587 -1.64208 0
M  V30 3340 C 313.522 0.173457 -1.88002 0
M  V30 3341 O 312.879 1.11027 -1.44842 0
M  V30 3342 C 312.93 -2.01424 -3.00184 0
M  V30 3343 O 312.651 -3.39051 -2.77445 0
M  V30 3344 C 314.152 -2.01948 -3.94629 0
M  V30 3345 H 311.372 -0.434318 -0.511477 0
M  V30 3346 H 313.916 -1.74469 -1.0668 0
M  V30 3347 H 312.071 -1.56549 -3.5436 0
M  V30 3348 H 312.485 -3.77711 -3.63916 0
M  V30 3349 H 313.959 -2.59297 -4.87308 0
M  V30 3350 H 314.436 -1.00554 -4.27534 0
M  V30 3351 H 315.042 -2.46767 -3.4639 0
M  V30 3352 N 313.357 1.07166 -1.15556 0
M  V30 3353 C 314.582 1.84053 -0.955988 0
M  V30 3354 C 315.007 1.81586 0.490739 0
M  V30 3355 O 314.365 1.21018 1.34997 0
M  V30 3356 C 314.413 3.28957 -1.47714 0
M  V30 3357 O 313.517 4.06795 -0.677593 0
M  V30 3358 H 312.858 0.569842 -0.340847 0
M  V30 3359 H 315.388 1.35178 -1.53584 0
M  V30 3360 H 315.398 3.79788 -1.4908 0
M  V30 3361 H 314.073 3.30068 -2.53037 0
M  V30 3362 H 312.65 3.6561 -0.733721 0
M  V30 3363 N 314.835 0.952656 1.25548 0
M  V30 3364 C 315.785 0.442033 2.23674 0
M  V30 3365 C 316.769 -0.467632 1.53955 0
M  V30 3366 O 317.961 -0.301006 1.74422 0
M  V30 3367 C 315.09 -0.280816 3.4215 0
M  V30 3368 C 314.176 0.646803 4.19139 0
M  V30 3369 N 314.567 1.77759 4.73535 0
M  V30 3370 C 312.865 0.454617 4.43677 0
M  V30 3371 C 313.566 2.35658 5.31827 0
M  V30 3372 N 312.542 1.64333 5.18166 0
M  V30 3373 H 316.344 1.30505 2.63336 0
M  V30 3374 H 313.858 0.809904 1.40763 0
M  V30 3375 H 315.855 -0.663747 4.11582 0
M  V30 3376 H 314.515 -1.14046 3.04012 0
M  V30 3377 H 315.526 2.15949 4.7073 0
M  V30 3378 H 312.203 -0.362312 4.15925 0
M  V30 3379 H 313.593 3.30998 5.84713 0
M  V30 3380 N 316.313 -1.40141 0.720998 0
M  V30 3381 C 317.538 -2.05618 0.271258 0
M  V30 3382 C 317.963 -1.53978 -1.08039 0
M  V30 3383 O 317.321 -0.677463 -1.68167 0
M  V30 3384 C 317.369 -3.59609 0.267197 0
M  V30 3385 O 316.473 -4.05526 -0.749814 0
M  V30 3386 H 315.814 -0.651904 0.126162 0
M  V30 3387 H 318.344 -1.79439 0.982997 0
M  V30 3388 H 318.354 -4.0786 0.106744 0
M  V30 3389 H 317.029 -3.96559 1.25354 0
M  V30 3390 H 315.606 -3.68722 -0.556644 0
M  V30 3391 N 317.792 -0.46758 -1.50504 0
M  V30 3392 C 319.069 0.15003 -1.95024 0
M  V30 3393 C 319.449 1.57304 -1.40779 0
M  V30 3394 O 318.797 2.20281 -0.607319 0
M  V30 3395 C 319.007 0.0969324 -3.48865 0
M  V30 3396 C 320.355 0.287565 -4.23625 0
M  V30 3397 O 321.379 0.173678 -3.55776 0
M  V30 3398 O 320.238 0.517186 -5.44047 0
M  V30 3399 H 317.332 0.113582 -0.819163 0
M  V30 3400 H 319.878 -0.52773 -1.61286 0
M  V30 3401 H 318.65 -0.896732 -3.80886 0
M  V30 3402 H 318.273 0.816303 -3.8913 0
M  V30 3403 N 319.27 1.56325 -0.20005 0
M  V30 3404 C 320.217 2.1932 0.718833 0
M  V30 3405 C 321.187 1.14198 1.20615 0
M  V30 3406 O 322.372 1.42469 1.26914 0
M  V30 3407 C 319.512 2.86041 1.93066 0
M  V30 3408 C 318.625 4.05702 1.48425 0
M  V30 3409 C 317.76 4.60266 2.65196 0
M  V30 3410 C 316.799 5.72273 2.17185 0
M  V30 3411 N 315.936 6.21221 3.27152 0
M  V30 3412 H 320.776 2.97486 0.17489 0
M  V30 3413 H 318.313 1.46911 0.0745794 0
M  V30 3414 H 320.271 3.22897 2.64184 0
M  V30 3415 H 318.901 2.1043 2.44783 0
M  V30 3416 H 317.953 3.74475 0.668755 0
M  V30 3417 H 319.265 4.86699 1.09204 0
M  V30 3418 H 318.419 4.99453 3.4443 0
M  V30 3419 H 317.158 3.78386 3.07693 0
M  V30 3420 H 316.163 5.3261 1.36407 0
M  V30 3421 H 317.388 6.55974 1.75713 0
M  V30 3422 H 315.334 5.42263 3.69171 0
M  V30 3423 H 315.251 6.97284 2.92116 0
M  V30 3424 H 316.519 6.65063 4.06585 0
M  V30 3425 N 320.748 -0.0735177 1.57428 0
M  V30 3426 C 321.997 -0.771809 1.86349 0
M  V30 3427 C 322.31 -1.78828 0.792452 0
M  V30 3428 O 323.516 -2.53602 0.96945 0
M  V30 3429 C 321.972 -1.42358 3.30548 0
M  V30 3430 C 321.58 -0.445761 4.45777 0
M  V30 3431 C 323.324 -2.10434 3.6867 0
M  V30 3432 C 321.231 -1.10335 5.81016 0
M  V30 3433 H 320.161 -0.291999 0.695164 0
M  V30 3434 H 322.812 -0.0250749 1.83483 0
M  V30 3435 H 321.194 -2.21852 3.28021 0
M  V30 3436 H 322.368 0.319239 4.59693 0
M  V30 3437 H 320.683 0.130457 4.16196 0
M  V30 3438 H 323.28 -2.60405 4.67004 0
M  V30 3439 H 323.623 -2.90298 2.98383 0
M  V30 3440 H 324.156 -1.37773 3.7318 0
M  V30 3441 H 320.895 -0.345061 6.54591 0
M  V30 3442 H 320.415 -1.83925 5.70904 0
M  V30 3443 H 322.094 -1.62367 6.26295 0
M  V30 3444 N 322.226 -1.5378 -0.344866 0
M  V30 3445 C 323.454 -1.74899 -1.10534 0
M  V30 3446 C 323.869 -0.487534 -1.82397 0
M  V30 3447 O 323.226 0.540741 -1.74305 0
M  V30 3448 C 323.277 -2.92822 -2.11984 0
M  V30 3449 O 322.998 -4.14089 -1.43044 0
M  V30 3450 C 324.499 -3.25982 -3.00417 0
M  V30 3451 H 321.719 -0.584426 -0.329678 0
M  V30 3452 H 324.263 -2.006 -0.397474 0
M  V30 3453 H 322.418 -2.69457 -2.78338 0
M  V30 3454 H 322.832 -4.80272 -2.10805 0
M  V30 3455 H 324.306 -4.11848 -3.67539 0
M  V30 3456 H 324.783 -2.42228 -3.66363 0
M  V30 3457 H 325.389 -3.51349 -2.39654 0
M  V30 3458 N 323.704 0.605807 -1.45491 0
M  V30 3459 C 324.951 1.36476 -1.49601 0
M  V30 3460 C 325.279 1.94007 -0.138452 0
M  V30 3461 O 324.534 1.75638 0.863114 0
M  V30 3462 C 324.833 2.53012 -2.52428 0
M  V30 3463 C 324.499 2.13617 -3.97087 0
M  V30 3464 C 323.161 2.02587 -4.36477 0
M  V30 3465 C 325.513 1.82899 -4.88055 0
M  V30 3466 C 322.841 1.59064 -5.64726 0
M  V30 3467 C 325.193 1.40861 -6.16718 0
M  V30 3468 C 323.857 1.28391 -6.55036 0
M  V30 3469 H 323.127 0.499402 -0.547429 0
M  V30 3470 H 325.774 0.684546 -1.78847 0
M  V30 3471 H 324.079 3.26379 -2.16758 0
M  V30 3472 H 325.776 3.1124 -2.52845 0
M  V30 3473 H 322.366 2.23129 -3.65939 0
M  V30 3474 H 326.55 1.90317 -4.58359 0
M  V30 3475 H 321.806 1.48034 -5.93208 0
M  V30 3476 H 325.98 1.16138 -6.86648 0
M  V30 3477 H 323.607 0.944403 -7.54311 0
M  V30 3478 N 325.182 1.32811 0.848464 0
M  V30 3479 C 326.132 1.18842 1.94578 0
M  V30 3480 C 327.116 0.0937517 1.60627 0
M  V30 3481 O 328.308 0.320887 1.74067 0
M  V30 3482 C 325.437 0.91999 3.30743 0
M  V30 3483 C 324.523 2.05665 3.70894 0
M  V30 3484 N 324.914 3.30579 3.8282 0
M  V30 3485 C 323.212 1.9612 4.00566 0
M  V30 3486 C 323.913 4.05067 4.17487 0
M  V30 3487 N 322.889 3.33419 4.2934 0
M  V30 3488 H 326.691 2.13536 2.0194 0
M  V30 3489 H 324.205 1.2468 1.0406 0
M  V30 3490 H 326.202 0.800859 4.09136 0
M  V30 3491 H 324.862 -0.0185076 3.24695 0
M  V30 3492 H 325.873 3.65441 3.66978 0
M  V30 3493 H 322.55 1.09871 4.02784 0
M  V30 3494 H 323.94 5.12815 4.34131 0
M  V30 3495 N 326.66 -1.06551 1.16123 0
M  V30 3496 C 328.071 -1.60768 0.949232 0
M  V30 3497 C 328.422 -1.89523 -0.507508 0
M  V30 3498 O 327.547 -1.66671 -1.38021 0
M  V30 3499 C 328.142 -2.92086 1.71671 0
M  V30 3500 C 326.701 -3.43015 1.54977 0
M  V30 3501 C 325.848 -2.16947 1.72711 0
M  V30 3502 H 328.799 -0.895354 1.31031 0
M  V30 3503 H 328.82 -3.6138 1.19099 0
M  V30 3504 H 328.332 -2.71127 2.7769 0
M  V30 3505 H 326.433 -3.69039 0.513873 0
M  V30 3506 H 326.546 -4.18516 2.33198 0
M  V30 3507 H 324.91 -2.27041 1.15431 0
M  V30 3508 H 325.693 -1.98473 2.80113 0
M  V30 3509 N 328.138 -0.959301 -1.25041 0
M  V30 3510 C 329.368 -0.63303 -1.96663 0
M  V30 3511 C 329.776 0.800031 -1.71453 0
M  V30 3512 O 329.119 1.54736 -0.99008 0
M  V30 3513 C 329.181 -0.817523 -3.50081 0
M  V30 3514 C 328.845 -2.22863 -3.98975 0
M  V30 3515 C 329.842 -3.20569 -4.09306 0
M  V30 3516 C 327.527 -2.55407 -4.32519 0
M  V30 3517 C 329.521 -4.4891 -4.52503 0
M  V30 3518 C 327.208 -3.83976 -4.754 0
M  V30 3519 C 328.206 -4.8054 -4.85356 0
M  V30 3520 O 327.894 -6.06817 -5.27284 0
M  V30 3521 H 327.626 -0.235866 -0.633516 0
M  V30 3522 H 330.18 -1.2874 -1.60047 0
M  V30 3523 H 328.41 -0.105992 -3.86555 0
M  V30 3524 H 330.099 -0.491604 -4.02912 0
M  V30 3525 H 330.865 -2.96753 -3.83618 0
M  V30 3526 H 326.744 -1.8097 -4.23994 0
M  V30 3527 H 330.288 -5.24283 -4.60188 0
M  V30 3528 H 326.185 -4.07596 -5.00535 0
M  V30 3529 H 326.953 -6.10262 -5.45457 0
M  V30 3530 N 329.616 1.39756 -0.72842 0
M  V30 3531 C 330.846 2.04651 -0.283117 0
M  V30 3532 C 331.254 1.5502 1.08469 0
M  V30 3533 O 330.597 0.707343 1.69536 0
M  V30 3534 C 330.659 3.58947 -0.199309 0
M  V30 3535 C 330.323 4.31525 -1.5045 0
M  V30 3536 C 331.32 4.5861 -2.44894 0
M  V30 3537 C 329.005 4.70195 -1.76698 0
M  V30 3538 C 330.999 5.23366 -3.63822 0
M  V30 3539 C 328.686 5.3468 -2.95906 0
M  V30 3540 C 329.684 5.61198 -3.89289 0
M  V30 3541 O 329.372 6.24347 -5.06404 0
M  V30 3542 H 329.104 0.664777 -0.122666 0
M  V30 3543 H 331.658 1.79913 -0.990987 0
M  V30 3544 H 329.888 3.82556 0.56461 0
M  V30 3545 H 331.577 4.0534 0.213125 0
M  V30 3546 H 332.343 4.29187 -2.25883 0
M  V30 3547 H 328.222 4.48916 -1.04859 0
M  V30 3548 H 331.766 5.4398 -4.36728 0
M  V30 3549 H 327.663 5.63524 -3.14819 0
M  V30 3550 H 328.431 6.42842 -5.06652 0
M  V30 3551 N 331.094 0.475555 1.50254 0
M  V30 3552 C 332.322 -0.0754493 2.06762 0
M  V30 3553 C 332.737 -1.33111 1.33891 0
M  V30 3554 O 332.094 -1.77846 0.40952 0
M  V30 3555 C 332.145 -0.359008 3.59713 0
M  V30 3556 O 331.866 0.846851 4.29837 0
M  V30 3557 C 333.367 -0.956484 4.32858 0
M  V30 3558 H 330.587 0.00907525 0.670939 0
M  V30 3559 H 333.131 0.665618 1.93364 0
M  V30 3560 H 331.286 -1.05001 3.72899 0
M  V30 3561 H 331.7 0.594162 5.21124 0
M  V30 3562 H 333.174 -1.10463 5.40834 0
M  V30 3563 H 333.651 -1.94775 3.93649 0
M  V30 3564 H 334.257 -0.303723 4.24214 0
M  V30 3565 N 332.573 -1.56217 0.208337 0
M  V30 3566 C 333.822 -1.97124 -0.427204 0
M  V30 3567 C 334.135 -1.09859 -1.61835 0
M  V30 3568 O 335.341 -1.40606 -2.32255 0
M  V30 3569 C 333.797 -3.50633 -0.811442 0
M  V30 3570 C 333.405 -4.46582 0.35615 0
M  V30 3571 C 335.149 -4.00282 -1.41332 0
M  V30 3572 C 333.056 -5.91379 -0.0497852 0
M  V30 3573 H 331.986 -0.736086 -0.163381 0
M  V30 3574 H 334.637 -1.8099 0.302456 0
M  V30 3575 H 333.019 -3.62319 -1.59815 0
M  V30 3576 H 334.193 -4.46636 1.1337 0
M  V30 3577 H 332.508 -4.07202 0.870396 0
M  V30 3578 H 335.105 -5.0595 -1.72972 0
M  V30 3579 H 335.448 -3.45359 -2.32449 0
M  V30 3580 H 335.981 -3.91764 -0.690323 0
M  V30 3581 H 332.72 -6.50255 0.827529 0
M  V30 3582 H 332.24 -5.94549 -0.791926 0
M  V30 3583 H 333.919 -6.45209 -0.481042 0
M  V30 3584 N 334.051 0.0651679 -1.57465 0
M  V30 3585 C 334.998 1.07675 -2.04144 0
M  V30 3586 C 335.968 1.38071 -0.923335 0
M  V30 3587 O 337.153 1.49026 -1.19146 0
M  V30 3588 C 334.293 2.38337 -2.49579 0
M  V30 3589 C 333.406 2.14413 -3.75035 0
M  V30 3590 C 332.541 3.38686 -4.09225 0
M  V30 3591 C 331.58 3.10156 -5.27702 0
M  V30 3592 N 330.717 4.26778 -5.57499 0
M  V30 3593 H 335.557 0.671716 -2.90331 0
M  V30 3594 H 333.094 0.3201 -1.43575 0
M  V30 3595 H 335.052 3.14632 -2.73975 0
M  V30 3596 H 333.682 2.7663 -1.6636 0
M  V30 3597 H 332.734 1.2878 -3.57939 0
M  V30 3598 H 334.046 1.89344 -4.61466 0
M  V30 3599 H 333.2 4.23373 -4.34558 0
M  V30 3600 H 331.939 3.66837 -3.21374 0
M  V30 3601 H 330.944 2.23866 -5.02159 0
M  V30 3602 H 332.169 2.8332 -6.17176 0
M  V30 3603 H 330.115 4.54948 -4.72608 0
M  V30 3604 H 330.032 4.05005 -6.38362 0
M  V30 3605 H 331.3 5.12443 -5.87386 0
M  V30 3606 N 335.529 1.53961 0.336706 0
M  V30 3607 C 336.806 1.62171 1.09361 0
M  V30 3608 C 337.186 0.447263 2.06307 0
M  V30 3609 O 336.534 -0.559802 2.21537 0
M  V30 3610 C 336.744 2.98565 1.80721 0
M  V30 3611 C 338.092 3.54157 2.34218 0
M  V30 3612 O 339.116 3.00784 1.90807 0
M  V30 3613 O 337.975 4.47528 3.13657 0
M  V30 3614 H 335.069 0.6562 0.503319 0
M  V30 3615 H 337.615 1.66307 0.33765 0
M  V30 3616 H 336.387 3.75482 1.10132 0
M  V30 3617 H 336.01 2.9805 2.63158 0
M  V30 3618 N 337.007 -0.598083 1.45811 0
M  V30 3619 C 337.97 -1.69018 1.54808 0
M  V30 3620 C 338.97 -1.55037 0.426652 0
M  V30 3621 O 340.16 -1.59932 0.690456 0
M  V30 3622 C 337.292 -3.0835 1.45371 0
M  V30 3623 H 338.485 -1.62403 2.52121 0
M  V30 3624 H 336.038 -0.814626 1.33392 0
M  V30 3625 H 336.773 -3.20534 0.492793 0
M  V30 3626 H 336.558 -3.19907 2.26721 0
M  V30 3627 H 338.048 -3.8788 1.54721 0
M  V30 3628 N 338.485 -1.33259 -0.841409 0
M  V30 3629 C 339.415 -1.25926 -1.96634 0
M  V30 3630 C 340.396 -0.140349 -1.6952 0
M  V30 3631 O 341.581 -0.329707 -1.91381 0
M  V30 3632 C 338.711 -0.99512 -3.32738 0
M  V30 3633 C 337.665 -2.0767 -3.74242 0
M  V30 3634 C 336.991 -1.66474 -5.08125 0
M  V30 3635 C 338.291 -3.49318 -3.88297 0
M  V30 3636 H 339.985 -2.20046 -2.03027 0
M  V30 3637 H 337.531 -1.05931 -0.975425 0
M  V30 3638 H 339.484 -0.930323 -4.11002 0
M  V30 3639 H 338.208 -0.0183004 -3.26595 0
M  V30 3640 H 336.867 -2.13187 -2.98239 0
M  V30 3641 H 336.515 -0.675012 -4.9845 0
M  V30 3642 H 336.215 -2.3885 -5.36865 0
M  V30 3643 H 337.739 -1.61455 -5.88867 0
M  V30 3644 H 339.153 -3.46316 -4.56879 0
M  V30 3645 H 337.55 -4.20158 -4.28471 0
M  V30 3646 H 338.62 -3.8801 -2.9082 0
M  V30 3647 N 339.963 1.05934 -1.16686 0
M  V30 3648 C 341.211 1.78447 -0.948744 0
M  V30 3649 C 341.532 1.87813 0.524523 0
M  V30 3650 O 340.802 1.38945 1.38098 0
M  V30 3651 H 339.382 0.660971 -0.348033 0
M  V30 3652 H 342.044 1.27947 -1.47022 0
M  V30 3653 H 341.14 2.80394 -1.37061 0
M  V30 3654 N 341.441 0.965919 1.2453 0
M  V30 3655 C 342.371 0.513476 2.27784 0
M  V30 3656 C 343.352 -0.445974 1.6415 0
M  V30 3657 O 344.537 -0.342485 1.91156 0
M  V30 3658 C 341.667 -0.198839 3.4673 0
M  V30 3659 C 340.621 0.676456 4.2262 0
M  V30 3660 C 339.947 -0.167248 5.34438 0
M  V30 3661 C 341.247 1.96017 4.84123 0
M  V30 3662 H 342.941 1.3765 2.65881 0
M  V30 3663 H 340.487 0.663321 1.27813 0
M  V30 3664 H 342.44 -0.526567 4.18097 0
M  V30 3665 H 341.164 -1.0962 3.07654 0
M  V30 3666 H 339.823 0.98743 3.53052 0
M  V30 3667 H 339.471 -1.0647 4.91603 0
M  V30 3668 H 339.171 0.415181 5.86131 0
M  V30 3669 H 340.695 -0.489688 6.08633 0
M  V30 3670 H 342.109 1.69814 5.47573 0
M  V30 3671 H 340.506 2.48918 5.4604 0
M  V30 3672 H 341.576 2.65622 4.05676 0
M  V30 3673 N 342.919 -1.39368 0.735821 0
M  V30 3674 C 343.849 -2.33234 0.111506 0
M  V30 3675 C 344.83 -1.53954 -0.723334 0
M  V30 3676 O 346.015 -1.82344 -0.668147 0
M  V30 3677 C 343.145 -3.38057 -0.795917 0
M  V30 3678 C 342.099 -4.2795 -0.065172 0
M  V30 3679 C 341.425 -5.23479 -1.08967 0
M  V30 3680 C 342.725 -5.10741 1.09273 0
M  V30 3681 H 344.419 -2.85692 0.895571 0
M  V30 3682 H 341.965 -1.37364 0.432109 0
M  V30 3683 H 343.918 -4.02675 -1.24221 0
M  V30 3684 H 342.642 -2.8404 -1.61211 0
M  V30 3685 H 341.301 -3.64813 0.361511 0
M  V30 3686 H 340.949 -4.65758 -1.89944 0
M  V30 3687 H 340.649 -5.84472 -0.605489 0
M  V30 3688 H 342.173 -5.90974 -1.53565 0
M  V30 3689 H 343.587 -5.68699 0.724841 0
M  V30 3690 H 341.984 -5.8088 1.50659 0
M  V30 3691 H 343.054 -4.45525 1.91404 0
M  V30 3692 N 344.397 -0.483516 -1.5 0
M  V30 3693 C 345.327 0.293829 -2.31644 0
M  V30 3694 C 346.308 0.978864 -1.39112 0
M  V30 3695 O 347.493 0.973644 -1.68029 0
M  V30 3696 C 344.623 1.36897 -3.19181 0
M  V30 3697 C 343.577 0.804833 -4.20365 0
M  V30 3698 C 342.903 1.9792 -4.96721 0
M  V30 3699 C 344.203 -0.192313 -5.21946 0
M  V30 3700 H 345.897 -0.387616 -2.9688 0
M  V30 3701 H 343.443 -0.187856 -1.42769 0
M  V30 3702 H 345.396 1.92037 -3.751 0
M  V30 3703 H 344.12 2.07936 -2.51853 0
M  V30 3704 H 342.779 0.275319 -3.65565 0
M  V30 3705 H 342.427 2.67686 -4.25856 0
M  V30 3706 H 342.127 1.60789 -5.65173 0
M  V30 3707 H 343.651 2.53526 -5.55479 0
M  V30 3708 H 345.065 0.270333 -5.72662 0
M  V30 3709 H 343.462 -0.478543 -5.98189 0
M  V30 3710 H 344.532 -1.11409 -4.71928 0
M  V30 3711 N 345.875 1.56104 -0.216619 0
M  V30 3712 C 347.122 1.98172 0.416416 0
M  V30 3713 C 347.45 1.10413 1.60122 0
M  V30 3714 O 346.705 0.147967 1.9514 0
M  V30 3715 C 347.004 3.45923 0.898464 0
M  V30 3716 C 346.67 4.50559 -0.175288 0
M  V30 3717 C 345.332 4.78897 -0.470271 0
M  V30 3718 C 347.684 5.1334 -0.901728 0
M  V30 3719 C 345.012 5.67299 -1.4963 0
M  V30 3720 C 347.364 6.02853 -1.91705 0
M  V30 3721 C 346.028 6.29537 -2.21901 0
M  V30 3722 H 345.298 0.725164 0.152377 0
M  V30 3723 H 347.945 1.88839 -0.318103 0
M  V30 3724 H 346.25 3.52434 1.71165 0
M  V30 3725 H 347.947 3.75841 1.39803 0
M  V30 3726 H 344.537 4.28551 0.0647806 0
M  V30 3727 H 348.721 4.91521 -0.687072 0
M  V30 3728 H 343.977 5.86239 -1.73592 0
M  V30 3729 H 348.151 6.50552 -2.48505 0
M  V30 3730 H 345.778 6.97835 -3.01548 0
M  V30 3731 N 347.353 -0.0568162 1.57498 0
M  V30 3732 C 348.283 -1.06593 2.0775 0
M  V30 3733 C 349.264 -1.39448 0.974082 0
M  V30 3734 O 350.449 -1.48815 1.24771 0
M  V30 3735 C 347.579 -2.37509 2.5339 0
M  V30 3736 C 346.533 -2.1897 3.67745 0
M  V30 3737 C 345.859 -3.55402 3.99492 0
M  V30 3738 C 347.159 -1.59859 4.97235 0
M  V30 3739 H 348.853 -0.647706 2.9231 0
M  V30 3740 H 346.399 -0.310116 1.40621 0
M  V30 3741 H 348.352 -3.08409 2.87162 0
M  V30 3742 H 347.076 -2.8134 1.65878 0
M  V30 3743 H 345.735 -1.50508 3.3428 0
M  V30 3744 H 345.383 -3.9683 3.09088 0
M  V30 3745 H 345.083 -3.43831 4.76502 0
M  V30 3746 H 346.607 -4.27708 4.35773 0
M  V30 3747 H 348.021 -2.20642 5.29141 0
M  V30 3748 H 346.418 -1.58942 5.78669 0
M  V30 3749 H 347.488 -0.561506 4.81638 0
M  V30 3750 N 348.832 -1.54138 -0.328536 0
M  V30 3751 C 349.762 -1.86167 -1.40939 0
M  V30 3752 C 350.743 -0.718044 -1.54202 0
M  V30 3753 O 351.928 -0.971328 -1.68163 0
M  V30 3754 C 349.058 -2.08461 -2.77779 0
M  V30 3755 C 348.012 -3.24299 -2.7931 0
M  V30 3756 C 347.338 -3.31955 -4.19178 0
M  V30 3757 C 348.638 -4.62065 -2.43502 0
M  V30 3758 H 350.332 -2.76689 -1.14383 0
M  V30 3759 H 347.878 -1.33132 -0.548806 0
M  V30 3760 H 349.831 -2.29453 -3.53454 0
M  V30 3761 H 348.555 -1.14684 -3.05802 0
M  V30 3762 H 347.214 -3.03187 -2.0609 0
M  V30 3763 H 346.862 -2.35745 -4.44335 0
M  V30 3764 H 346.562 -4.09805 -4.2111 0
M  V30 3765 H 348.086 -3.55175 -4.96672 0
M  V30 3766 H 349.5 -4.8297 -3.08889 0
M  V30 3767 H 347.897 -5.42429 -2.56693 0
M  V30 3768 H 348.967 -4.64652 -1.38659 0
M  V30 3769 N 350.31 0.590341 -1.46126 0
M  V30 3770 C 351.535 1.37991 -1.54833 0
M  V30 3771 C 351.96 1.87163 -0.187506 0
M  V30 3772 O 351.318 1.61133 0.831008 0
M  V30 3773 C 351.366 2.54867 -2.55098 0
M  V30 3774 O 350.47 3.56061 -2.08073 0
M  V30 3775 H 349.811 0.411265 -0.521303 0
M  V30 3776 H 352.341 0.716819 -1.91632 0
M  V30 3777 H 352.351 3.01886 -2.74461 0
M  V30 3778 H 351.026 2.18429 -3.53923 0
M  V30 3779 H 349.603 3.15574 -1.98664 0
M  V30 3780 N 351.788 1.33704 0.83433 0
M  V30 3781 C 352.718 1.26967 1.95963 0
M  V30 3782 C 353.699 0.149337 1.69443 0
M  V30 3783 O 354.884 0.339852 1.91203 0
M  V30 3784 C 352.014 1.01275 3.32206 0
M  V30 3785 C 350.968 2.09652 3.73136 0
M  V30 3786 C 350.294 1.69166 5.07235 0
M  V30 3787 C 351.594 3.51372 3.86439 0
M  V30 3788 H 353.288 2.2112 2.01857 0
M  V30 3789 H 350.834 1.06447 0.969793 0
M  V30 3790 H 352.787 0.952106 4.10503 0
M  V30 3791 H 351.511 0.0356203 3.26581 0
M  V30 3792 H 350.17 2.14766 2.97104 0
M  V30 3793 H 349.818 0.701437 4.98085 0
M  V30 3794 H 349.518 2.41694 5.35591 0
M  V30 3795 H 351.042 1.64576 5.88003 0
M  V30 3796 H 352.456 3.48734 4.55036 0
M  V30 3797 H 350.853 4.22425 4.26236 0
M  V30 3798 H 351.923 3.89546 2.88759 0
M  V30 3799 N 353.266 -1.05314 1.17247 0
M  V30 3800 C 354.199 -2.12512 0.831507 0
M  V30 3801 C 355.177 -1.61351 -0.201168 0
M  V30 3802 O 356.361 -1.88317 -0.0829831 0
M  V30 3803 C 353.488 -3.37848 0.24015 0
M  V30 3804 C 352.534 -4.07832 1.24801 0
M  V30 3805 S 353.367 -4.56537 2.79882 0
M  V30 3806 C 354.523 -5.85122 2.22223 0
M  V30 3807 H 354.756 -2.41106 1.7394 0
M  V30 3808 H 352.289 -1.17896 0.996988 0
M  V30 3809 H 354.247 -4.10391 -0.0945588 0
M  V30 3810 H 352.908 -3.07392 -0.645668 0
M  V30 3811 H 352.101 -4.97883 0.78287 0
M  V30 3812 H 351.703 -3.41348 1.52831 0
M  V30 3813 H 353.995 -6.58408 1.59703 0
M  V30 3814 H 354.938 -6.36381 3.10523 0
M  V30 3815 H 355.346 -5.39626 1.65722 0
M  V30 3816 N 354.744 -0.972509 -1.24016 0
M  V30 3817 C 355.972 -0.654803 -1.96265 0
M  V30 3818 C 356.387 0.776708 -1.72083 0
M  V30 3819 O 355.744 1.52171 -1.00748 0
M  V30 3820 C 355.795 -0.92592 -3.49441 0
M  V30 3821 O 355.516 -2.30116 -3.72798 0
M  V30 3822 C 357.017 -0.623068 -4.38899 0
M  V30 3823 H 354.237 -0.243907 -0.6251 0
M  V30 3824 H 356.781 -1.30175 -1.57717 0
M  V30 3825 H 354.936 -0.325108 -3.86033 0
M  V30 3826 H 355.35 -2.38483 -4.67147 0
M  V30 3827 H 356.824 -0.863189 -5.45209 0
M  V30 3828 H 357.301 0.442754 -4.36963 0
M  V30 3829 H 357.907 -1.204 -4.07902 0
M  V30 3830 N 356.222 1.38976 -0.743202 0
M  V30 3831 C 357.152 2.33171 -0.123873 0
M  V30 3832 C 358.133 1.54336 0.71516 0
M  V30 3833 O 359.318 1.82696 0.658467 0
M  V30 3834 C 356.448 3.38474 0.777978 0
M  V30 3835 C 355.402 4.27979 0.0424758 0
M  V30 3836 C 354.728 5.2405 1.06189 0
M  V30 3837 C 356.028 5.10155 -1.1198 0
M  V30 3838 H 357.722 2.85213 -0.910709 0
M  V30 3839 H 355.268 1.37133 -0.439388 0
M  V30 3840 H 357.221 4.03328 1.22084 0
M  V30 3841 H 355.945 2.84891 1.59702 0
M  V30 3842 H 354.604 3.64616 -0.380853 0
M  V30 3843 H 354.252 4.66758 1.87472 0
M  V30 3844 H 353.952 5.84785 0.574485 0
M  V30 3845 H 355.476 5.9178 1.50428 0
M  V30 3846 H 356.89 5.68307 -0.75499 0
M  V30 3847 H 355.287 5.80073 -1.53738 0
M  V30 3848 H 356.357 4.44504 -1.93764 0
M  V30 3849 N 357.7 0.491464 1.49741 0
M  V30 3850 C 358.928 -0.0535151 2.06831 0
M  V30 3851 C 359.343 -1.31683 1.35296 0
M  V30 3852 O 358.7 -1.77402 0.42836 0
M  V30 3853 C 358.751 -0.320835 3.60073 0
M  V30 3854 O 358.472 0.892394 4.28915 0
M  V30 3855 C 359.973 -0.910519 4.33848 0
M  V30 3856 H 357.193 0.0161909 0.670805 0
M  V30 3857 H 359.737 0.68609 1.92647 0
M  V30 3858 H 357.892 -1.0104 3.73991 0
M  V30 3859 H 358.306 0.649401 5.20464 0
M  V30 3860 H 359.78 -1.04721 5.41976 0
M  V30 3861 H 360.257 -1.90589 3.95692 0
M  V30 3862 H 360.863 -0.258712 4.24512 0
M  V30 3863 N 359.178 -1.55987 0.224894 0
M  V30 3864 C 360.108 -2.23426 -0.678457 0
M  V30 3865 C 361.089 -1.20709 -1.19847 0
M  V30 3866 O 362.274 -1.49304 -1.24186 0
M  V30 3867 C 359.404 -2.91676 -1.88527 0
M  V30 3868 C 358.358 -4.00893 -1.49896 0
M  V30 3869 C 357.684 -4.56455 -2.78483 0
M  V30 3870 C 358.984 -5.17769 -0.686461 0
M  V30 3871 H 360.678 -2.99175 -0.116173 0
M  V30 3872 H 358.224 -1.43897 -0.054436 0
M  V30 3873 H 360.177 -3.37547 -2.5227 0
M  V30 3874 H 358.901 -2.1338 -2.47258 0
M  V30 3875 H 357.56 -3.55758 -0.884985 0
M  V30 3876 H 357.208 -3.74886 -3.35365 0
M  V30 3877 H 356.908 -5.30169 -2.53368 0
M  V30 3878 H 358.432 -5.05047 -3.43162 0
M  V30 3879 H 359.846 -5.60001 -1.22767 0
M  V30 3880 H 358.243 -5.97735 -0.532259 0
M  V30 3881 H 359.313 -4.83932 0.306196 0
M  V30 3882 N 360.656 0.0484629 -1.57525 0
M  V30 3883 C 361.903 0.743125 -1.88372 0
M  V30 3884 C 362.231 1.76383 -0.819715 0
M  V30 3885 O 361.486 1.94855 0.181659 0
M  V30 3886 C 361.785 1.46632 -3.25935 0
M  V30 3887 C 361.451 0.583427 -4.4711 0
M  V30 3888 C 360.113 0.340191 -4.79996 0
M  V30 3889 C 362.465 -0.0273345 -5.21193 0
M  V30 3890 C 359.793 -0.522903 -5.84365 0
M  V30 3891 C 362.145 -0.878017 -6.26477 0
M  V30 3892 C 360.809 -1.1309 -6.5785 0
M  V30 3893 H 360.079 0.271929 -0.689301 0
M  V30 3894 H 362.726 0.00336166 -1.915 0
M  V30 3895 H 361.031 2.2789 -3.18706 0
M  V30 3896 H 362.728 2.00902 -3.47044 0
M  V30 3897 H 359.318 0.783151 -4.21384 0
M  V30 3898 H 363.502 0.147654 -4.9608 0
M  V30 3899 H 358.758 -0.727335 -6.07058 0
M  V30 3900 H 362.932 -1.35789 -6.83033 0
M  V30 3901 H 360.559 -1.80144 -7.38547 0
M  V30 3902 N 362.134 1.5431 0.320358 0
M  V30 3903 C 363.359 1.76954 1.08175 0
M  V30 3904 C 363.784 0.518193 1.80821 0
M  V30 3905 O 363.142 -0.530411 1.73368 0
M  V30 3906 C 363.19 2.96451 2.05303 0
M  V30 3907 O 362.294 2.68221 3.13259 0
M  V30 3908 H 361.635 0.586275 0.311733 0
M  V30 3909 H 364.165 2.01342 0.363676 0
M  V30 3910 H 364.175 3.23887 2.48116 0
M  V30 3911 H 362.85 3.87196 1.51829 0
M  V30 3912 H 361.427 2.51744 2.75099 0
M  V30 3913 N 363.613 -0.582584 1.46437 0
M  V30 3914 C 365.024 -1.1647 1.45916 0
M  V30 3915 C 365.375 -1.95177 0.200077 0
M  V30 3916 O 364.5 -2.04874 -0.696819 0
M  V30 3917 C 365.095 -2.11885 2.64367 0
M  V30 3918 C 363.654 -2.65421 2.66887 0
M  V30 3919 C 362.801 -1.41294 2.38603 0
M  V30 3920 H 365.752 -0.370514 1.54314 0
M  V30 3921 H 365.773 -2.9535 2.39892 0
M  V30 3922 H 365.285 -1.54573 3.5599 0
M  V30 3923 H 363.386 -3.26602 1.79338 0
M  V30 3924 H 363.499 -3.08147 3.66854 0
M  V30 3925 H 361.863 -1.71109 1.88663 0
M  V30 3926 H 362.646 -0.858125 3.32402 0
M  V30 3927 N 365.091 -1.34144 -0.827227 0
M  V30 3928 C 366.368 -1.16844 -1.56865 0
M  V30 3929 C 366.748 0.260654 -2.09485 0
M  V30 3930 O 366.096 1.26138 -1.9053 0
M  V30 3931 C 366.306 -2.21939 -2.6934 0
M  V30 3932 C 367.654 -2.56695 -3.3822 0
M  V30 3933 O 368.678 -2.20695 -2.79593 0
M  V30 3934 O 367.537 -3.18518 -4.44082 0
M  V30 3935 H 364.631 -0.452669 -0.692112 0
M  V30 3936 H 367.177 -1.45763 -0.868973 0
M  V30 3937 H 365.949 -3.17882 -2.28182 0
M  V30 3938 H 365.572 -1.94172 -3.46962 0
M  V30 3939 N 366.569 1.04691 -1.17803 0
M  V30 3940 C 367.499 2.14494 -0.92275 0
M  V30 3941 C 368.48 1.69546 0.137179 0
M  V30 3942 O 369.665 1.94195 -0.0141108 0
M  V30 3943 C 366.795 3.44491 -0.440803 0
M  V30 3944 C 365.749 4.03031 -1.4405 0
M  V30 3945 C 365.075 5.28432 -0.81631 0
M  V30 3946 C 366.375 4.39932 -2.81527 0
M  V30 3947 H 368.069 2.36107 -1.84103 0
M  V30 3948 H 365.615 1.1347 -0.886599 0
M  V30 3949 H 367.568 4.2066 -0.249602 0
M  V30 3950 H 366.292 3.22546 0.513025 0
M  V30 3951 H 364.951 3.28937 -1.61853 0
M  V30 3952 H 364.599 5.02792 0.144511 0
M  V30 3953 H 364.299 5.68559 -1.48371 0
M  V30 3954 H 365.823 6.07284 -0.635496 0
M  V30 3955 H 367.237 5.07113 -2.67412 0
M  V30 3956 H 365.634 4.9109 -3.44892 0
M  V30 3957 H 366.704 3.50045 -3.35554 0
M  V30 3958 N 368.047 0.979072 1.23499 0
M  V30 3959 C 368.977 0.537606 2.27227 0
M  V30 3960 C 369.958 -0.428539 1.64613 0
M  V30 3961 O 371.143 -0.322191 1.91509 0
M  V30 3962 C 368.273 -0.162052 3.46922 0
M  V30 3963 C 367.227 0.721242 4.21879 0
M  V30 3964 C 366.553 -0.110555 5.34586 0
M  V30 3965 C 367.853 2.01141 4.82016 0
M  V30 3966 H 369.547 1.40462 2.64406 0
M  V30 3967 H 367.093 0.67684 1.27102 0
M  V30 3968 H 369.046 -0.482192 4.18632 0
M  V30 3969 H 367.77 -1.06351 3.08799 0
M  V30 3970 H 366.429 1.02482 3.51984 0
M  V30 3971 H 366.077 -1.0125 4.92704 0
M  V30 3972 H 365.777 0.477325 5.85658 0
M  V30 3973 H 367.301 -0.425107 6.09118 0
M  V30 3974 H 368.715 1.75612 5.45741 0
M  V30 3975 H 367.112 2.54695 5.43369 0
M  V30 3976 H 368.182 2.69909 4.02836 0
M  V30 3977 N 369.525 -1.3858 0.750561 0
M  V30 3978 C 370.773 -1.99789 0.30477 0
M  V30 3979 C 371.094 -1.59874 -1.11649 0
M  V30 3980 O 370.364 -0.85417 -1.76297 0
M  V30 3981 H 368.944 -0.738902 0.109694 0
M  V30 3982 H 371.606 -1.69391 0.963983 0
M  V30 3983 H 370.702 -3.09952 0.365499 0
M  V30 3984 N 371.003 -0.499398 -1.49478 0
M  V30 3985 C 372.28 0.108629 -1.95298 0
M  V30 3986 C 372.66 1.54282 -1.44084 0
M  V30 3987 O 372.008 2.18944 -0.653908 0
M  V30 3988 C 372.218 0.0229111 -3.48992 0
M  V30 3989 C 373.566 0.197643 -4.2414 0
M  V30 3990 O 374.59 0.0981735 -3.56065 0
M  V30 3991 O 373.449 0.401669 -5.45022 0
M  V30 3992 H 370.543 0.096181 -0.821388 0
M  V30 3993 H 373.089 -0.561822 -1.6013 0
M  V30 3994 H 371.861 -0.977321 -3.78899 0
M  V30 3995 H 371.484 0.733579 -3.90774 0
M  V30 3996 N 372.481 1.55866 -0.233164 0
M  V30 3997 C 373.892 1.847 0.272554 0
M  V30 3998 C 374.243 1.15477 1.58617 0
M  V30 3999 O 373.368 0.42841 2.12117 0
M  V30 4000 C 373.963 3.35071 0.501299 0
M  V30 4001 C 372.522 3.6418 0.951304 0
M  V30 4002 C 371.669 2.77292 0.0208209 0
M  V30 4003 H 374.62 1.52005 -0.456074 0
M  V30 4004 H 374.641 3.55906 1.34577 0
M  V30 4005 H 374.153 3.85424 -0.454936 0
M  V30 4006 H 372.254 3.19293 1.92049 0
M  V30 4007 H 372.367 4.72071 0.817675 0
M  V30 4008 H 370.731 2.49131 0.529723 0
M  V30 4009 H 371.514 3.30448 -0.93054 0
M  V30 4010 N 373.959 -0.0401083 1.57549 0
M  V30 4011 C 375.236 -0.767917 1.79896 0
M  V30 4012 C 375.616 -1.9416 0.82856 0
M  V30 4013 O 374.964 -2.2812 -0.131671 0
M  V30 4014 C 375.174 -1.2113 3.27305 0
M  V30 4015 C 376.522 -1.63175 3.91994 0
M  V30 4016 O 377.546 -1.30616 3.31388 0
M  V30 4017 O 376.405 -2.23565 4.98679 0
M  V30 4018 H 373.499 -0.370441 0.739393 0
M  V30 4019 H 376.045 -0.017737 1.69691 0
M  V30 4020 H 374.817 -0.372937 3.89519 0
M  V30 4021 H 374.44 -2.02183 3.42356 0
M  V30 4022 N 375.437 -1.54477 -0.31217 0
M  V30 4023 C 376.385 -1.85395 -1.40469 0
M  V30 4024 C 377.379 -0.726749 -1.53019 0
M  V30 4025 O 378.585 -0.910582 -1.55269 0
M  V30 4026 H 374.96 -0.587845 -0.46898 0
M  V30 4027 H 376.931 -2.76736 -1.11623 0
M  V30 4028 C 375.68 -2.10811 -2.76503 0
M  V30 4029 H 375.003 -2.97014 -2.67625 0
M  V30 4030 H 376.443 -2.3639 -3.51988 0
M  V30 4031 C 374.902 -0.903165 -3.24568 0
M  V30 4032 O 375.432 -0.118085 -4.01526 0
M  V30 4033 N 373.638 -0.711634 -2.81752 0
M  V30 4034 H 373.185 -1.35171 -2.19286 0
M  V30 4035 H 373.143 0.0930473 -3.14262 0
M  V30 4036 N 376.915 0.57481 -1.46744 0
M  V30 4037 C 378.145 1.35659 -1.55821 0
M  V30 4038 C 378.553 1.88129 -0.201036 0
M  V30 4039 O 377.896 1.64723 0.813134 0
M  V30 4040 C 377.958 2.57473 -2.50894 0
M  V30 4041 C 377.622 2.26415 -3.9697 0
M  V30 4042 C 378.619 1.84771 -4.85958 0
M  V30 4043 C 376.304 2.38316 -4.42166 0
M  V30 4044 C 378.298 1.55434 -6.18158 0
M  V30 4045 C 375.985 2.08591 -5.74398 0
M  V30 4046 C 376.983 1.67216 -6.62214 0
M  V30 4047 O 376.671 1.37859 -7.91991 0
M  V30 4048 H 376.403 0.420496 -0.529301 0
M  V30 4049 H 378.957 0.704967 -1.92923 0
M  V30 4050 H 377.187 3.25468 -2.08824 0
M  V30 4051 H 378.876 3.19546 -2.50291 0
M  V30 4052 H 379.642 1.75085 -4.52295 0
M  V30 4053 H 375.521 2.69483 -3.74032 0
M  V30 4054 H 379.065 1.23065 -6.86659 0
M  V30 4055 H 374.962 2.17905 -6.07608 0
M  V30 4056 H 375.73 1.51638 -8.04331 0
M  V30 4057 N 378.394 1.34581 0.820102 0
M  V30 4058 C 379.622 1.3018 1.60813 0
M  V30 4059 C 380.037 -0.123551 1.88395 0
M  V30 4060 O 379.394 -1.07148 1.47735 0
M  V30 4061 C 379.445 2.09312 2.94739 0
M  V30 4062 O 379.166 3.46288 2.68358 0
M  V30 4063 C 380.667 2.1234 3.89136 0
M  V30 4064 H 377.887 0.447726 0.499782 0
M  V30 4065 H 380.431 1.77237 1.02017 0
M  V30 4066 H 378.586 1.65889 3.50085 0
M  V30 4067 H 379 3.87227 3.53774 0
M  V30 4068 H 380.474 2.72126 4.80262 0
M  V30 4069 H 380.951 1.11854 4.24718 0
M  V30 4070 H 381.557 2.55864 3.39726 0
M  V30 4071 N 379.872 -1.04064 1.18357 0
M  V30 4072 C 380.802 -2.14001 0.934113 0
M  V30 4073 C 381.783 -1.69616 -0.128186 0
M  V30 4074 O 382.968 -1.94185 0.0244093 0
M  V30 4075 C 380.098 -3.44253 0.459066 0
M  V30 4076 C 379.052 -4.02261 1.46185 0
M  V30 4077 C 378.378 -5.27992 0.844322 0
M  V30 4078 C 379.678 -4.38432 2.83856 0
M  V30 4079 H 381.372 -2.35127 1.85352 0
M  V30 4080 H 378.918 -1.12998 0.892604 0
M  V30 4081 H 380.871 -4.20522 0.271907 0
M  V30 4082 H 379.595 -3.22813 -0.495912 0
M  V30 4083 H 378.254 -3.28074 1.63595 0
M  V30 4084 H 377.902 -5.02862 -0.117845 0
M  V30 4085 H 377.602 -5.67765 1.51384 0
M  V30 4086 H 379.126 -6.06938 0.667693 0
M  V30 4087 H 380.54 -5.05688 2.70098 0
M  V30 4088 H 378.937 -4.89254 3.47491 0
M  V30 4089 H 380.007 -3.4826 3.37406 0
M  V30 4090 N 381.35 -0.985608 -1.22978 0
M  V30 4091 C 382.313 -0.535071 -2.22867 0
M  V30 4092 C 383.313 0.378123 -1.56291 0
M  V30 4093 O 384.503 0.171092 -1.73358 0
M  V30 4094 C 381.635 0.222702 -3.40172 0
M  V30 4095 H 382.828 -1.41835 -2.6424 0
M  V30 4096 H 380.381 -0.772042 -1.35901 0
M  V30 4097 H 381.116 1.12229 -3.04262 0
M  V30 4098 H 380.901 -0.43288 -3.89703 0
M  V30 4099 H 382.391 0.526335 -4.1427 0
M  V30 4100 N 382.828 1.3818 -0.7579 0
M  V30 4101 C 383.776 2.32277 -0.122482 0
M  V30 4102 C 384.77 1.54238 0.700505 0
M  V30 4103 O 385.976 1.69737 0.599119 0
M  V30 4104 H 382.351 0.751712 -0.0208143 0
M  V30 4105 H 384.322 2.83469 -0.932099 0
M  V30 4106 C 383.071 3.39447 0.753076 0
M  V30 4107 H 382.394 3.99591 0.129184 0
M  V30 4108 H 383.834 4.07684 1.16489 0
M  V30 4109 C 382.293 2.78375 1.8976 0
M  V30 4110 O 382.823 2.68025 2.99208 0
M  V30 4111 N 381.029 2.36121 1.69397 0
M  V30 4112 H 380.576 2.4474 0.803762 0
M  V30 4113 H 380.534 1.95602 2.46145 0
M  V30 4114 N 384.306 0.507319 1.49211 0
M  V30 4115 C 385.717 0.0611118 1.866 0
M  V30 4116 C 386.068 -1.35488 1.41907 0
M  V30 4117 O 385.193 -2.0108 0.799726 0
M  V30 4118 C 385.788 0.104125 3.3864 0
M  V30 4119 C 384.347 -0.28677 3.75306 0
M  V30 4120 C 383.494 0.473893 2.73221 0
M  V30 4121 H 386.445 0.719775 1.41439 0
M  V30 4122 H 386.466 -0.689672 3.74198 0
M  V30 4123 H 385.978 1.13482 3.71138 0
M  V30 4124 H 384.079 -1.32046 3.48417 0
M  V30 4125 H 384.192 0.0370745 4.79086 0
M  V30 4126 H 382.556 -0.0770644 2.54583 0
M  V30 4127 H 383.339 1.50478 3.08563 0
M  V30 4128 N 385.784 -1.5574 0.241426 0
M  V30 4129 C 386.714 -2.24133 -0.654722 0
M  V30 4130 C 387.695 -1.21974 -1.1856 0
M  V30 4131 O 388.88 -1.50612 -1.22595 0
M  V30 4132 C 386.01 -2.93659 -1.85423 0
M  V30 4133 C 384.964 -4.0246 -1.45636 0
M  V30 4134 C 384.29 -4.59383 -2.73626 0
M  V30 4135 C 385.59 -5.18468 -0.631506 0
M  V30 4136 H 387.284 -2.99281 -0.0844353 0
M  V30 4137 H 384.83 -1.43947 -0.0391707 0
M  V30 4138 H 386.783 -3.40203 -2.48676 0
M  V30 4139 H 385.507 -2.15991 -2.44981 0
M  V30 4140 H 384.166 -3.56676 -0.847202 0
M  V30 4141 H 383.814 -3.78422 -3.3137 0
M  V30 4142 H 383.514 -5.32826 -2.4773 0
M  V30 4143 H 385.038 -5.08658 -3.37786 0
M  V30 4144 H 386.452 -5.61272 -1.1682 0
M  V30 4145 H 384.849 -5.98266 -0.468831 0
M  V30 4146 H 385.919 -4.8358 0.357506 0
M  V30 4147 N 387.262 0.0317525 -1.57568 0
M  V30 4148 C 388.21 1.05165 -2.07468 0
M  V30 4149 C 389.204 1.3761 -0.98792 0
M  V30 4150 O 390.41 1.36546 -1.17282 0
M  V30 4151 H 386.785 0.35666 -0.66204 0
M  V30 4152 H 388.756 0.604958 -2.92203 0
M  V30 4153 C 387.505 2.34488 -2.56731 0
M  V30 4154 H 386.828 2.10383 -3.39969 0
M  V30 4155 H 388.268 3.04203 -2.95358 0
M  V30 4156 C 386.727 3.03266 -1.46736 0
M  V30 4157 O 387.257 3.92988 -0.832069 0
M  V30 4158 N 385.463 2.6455 -1.20256 0
M  V30 4159 H 385.01 1.91674 -1.72102 0
M  V30 4160 H 384.968 3.10886 -0.468737 0
M  V30 4161 N 388.74 1.54641 0.303973 0
M  V30 4162 C 389.968 1.77768 1.05858 0
M  V30 4163 C 390.383 0.535722 1.8104 0
M  V30 4164 O 389.74 -0.494337 1.75677 0
M  V30 4165 C 389.791 2.9834 2.04146 0
M  V30 4166 O 389.512 4.17736 1.32015 0
M  V30 4167 C 391.013 3.33832 2.91669 0
M  V30 4168 H 388.233 0.592961 0.314067 0
M  V30 4169 H 390.777 2.01583 0.344149 0
M  V30 4170 H 388.932 2.76742 2.71096 0
M  V30 4171 H 389.346 4.85693 1.97998 0
M  V30 4172 H 390.82 4.21448 3.56491 0
M  V30 4173 H 391.297 2.51857 3.59812 0
M  V30 4174 H 391.903 3.57579 2.30254 0
M  V30 4175 N 390.218 -0.567019 1.47046 0
M  V30 4176 C 391.629 -1.14916 1.47143 0
M  V30 4177 C 391.98 -1.94954 0.220767 0
M  V30 4178 O 391.105 -2.05602 -0.67505 0
M  V30 4179 C 391.7 -2.09069 2.666 0
M  V30 4180 C 390.259 -2.62575 2.69687 0
M  V30 4181 C 389.406 -1.38755 2.40088 0
M  V30 4182 H 392.357 -0.354126 1.54699 0
M  V30 4183 H 392.378 -2.92789 2.43011 0
M  V30 4184 H 391.89 -1.50789 3.57609 0
M  V30 4185 H 389.991 -3.24681 1.82792 0
M  V30 4186 H 390.104 -3.04239 3.70102 0
M  V30 4187 H 388.468 -1.69098 1.90468 0
M  V30 4188 H 389.251 -0.822822 3.33293 0
M  V30 4189 N 391.696 -1.35014 -0.812953 0
M  V30 4190 C 393.107 -1.25035 -1.38648 0
M  V30 4191 C 393.458 0.119967 -1.95833 0
M  V30 4192 O 392.583 1.02069 -1.90816 0
M  V30 4193 C 393.178 -2.26394 -2.52054 0
M  V30 4194 C 391.737 -2.20175 -3.05287 0
M  V30 4195 C 390.884 -2.12451 -1.78213 0
M  V30 4196 H 393.835 -1.46235 -0.616516 0
M  V30 4197 H 393.856 -1.88672 -3.30429 0
M  V30 4198 H 393.368 -3.26116 -2.10404 0
M  V30 4199 H 391.469 -1.23841 -3.51417 0
M  V30 4200 H 391.582 -3.11863 -3.63701 0
M  V30 4201 H 389.946 -1.58328 -1.9951 0
M  V30 4202 H 390.729 -3.14024 -1.38723 0
M  V30 4203 N 393.175 1.03435 -1.18907 0
M  V30 4204 C 394.125 2.09924 -0.889706 0
M  V30 4205 C 395.109 1.60261 0.143216 0
M  V30 4206 O 396.301 1.76892 -0.0617122 0
M  V30 4207 C 393.43 3.40669 -0.424168 0
M  V30 4208 C 392.516 3.97082 -1.48952 0
M  V30 4209 N 392.907 4.27227 -2.70759 0
M  V30 4210 C 391.205 4.25029 -1.35152 0
M  V30 4211 C 391.906 4.7246 -3.39347 0
M  V30 4212 N 390.882 4.7366 -2.66735 0
M  V30 4213 H 394.684 2.31116 -1.81555 0
M  V30 4214 H 392.198 1.21246 -1.08042 0
M  V30 4215 H 394.195 4.16461 -0.191176 0
M  V30 4216 H 392.855 3.20901 0.495263 0
M  V30 4217 H 393.866 4.16678 -3.0757 0
M  V30 4218 H 390.543 4.14554 -0.495126 0
M  V30 4219 H 391.933 5.04751 -4.43481 0
M  V30 4220 N 394.653 0.992116 1.22453 0
M  V30 4221 C 395.902 0.662992 1.90492 0
M  V30 4222 C 396.215 -0.808407 1.78113 0
M  V30 4223 O 397.421 -1.24908 2.41061 0
M  V30 4224 C 395.877 1.1353 3.41524 0
M  V30 4225 C 395.485 2.63187 3.62542 0
M  V30 4226 C 397.229 0.880465 4.15269 0
M  V30 4227 C 395.136 3.04024 5.0727 0
M  V30 4228 H 394.066 0.244278 0.713333 0
M  V30 4229 H 396.717 1.20157 1.38688 0
M  V30 4230 H 395.099 0.52485 3.92506 0
M  V30 4231 H 396.273 3.2957 3.22056 0
M  V30 4232 H 394.588 2.86543 3.02129 0
M  V30 4233 H 397.185 1.16128 5.21937 0
M  V30 4234 H 397.528 -0.183408 4.15896 0
M  V30 4235 H 398.061 1.45307 3.70312 0
M  V30 4236 H 394.8 4.09584 5.11782 0
M  V30 4237 H 394.32 2.42343 5.48662 0
M  V30 4238 H 395.999 2.95282 5.75689 0
M  V30 4239 N 396.131 -1.37776 0.765217 0
M  V30 4240 C 397.078 -2.30342 0.145274 0
M  V30 4241 C 398.048 -1.5077 -0.696971 0
M  V30 4242 O 399.233 -1.79362 -0.650689 0
M  V30 4243 C 396.373 -3.37227 -0.732939 0
M  V30 4244 C 395.486 -4.31819 0.125199 0
M  V30 4245 C 394.621 -5.25777 -0.757107 0
M  V30 4246 C 393.66 -6.12012 0.103963 0
M  V30 4247 N 392.797 -6.98232 -0.735953 0
M  V30 4248 H 397.637 -2.8278 0.940195 0
M  V30 4249 H 395.174 -1.39211 0.475255 0
M  V30 4250 H 397.132 -3.97818 -1.25686 0
M  V30 4251 H 395.762 -2.86171 -1.49353 0
M  V30 4252 H 394.814 -3.7259 0.766865 0
M  V30 4253 H 396.126 -4.92509 0.789683 0
M  V30 4254 H 395.28 -5.91541 -1.34776 0
M  V30 4255 H 394.019 -4.65481 -1.45529 0
M  V30 4256 H 393.024 -5.45233 0.707197 0
M  V30 4257 H 394.249 -6.74379 0.799381 0
M  V30 4258 H 392.195 -6.40472 -1.41887 0
M  V30 4259 H 392.112 -7.55891 -0.128624 0
M  V30 4260 H 393.38 -7.68393 -1.31121 0
M  V30 4261 N 397.609 -0.515225 -1.4894 0
M  V30 4262 C 399.02 -0.0710067 -1.86565 0
M  V30 4263 C 399.371 1.34733 -1.42623 0
M  V30 4264 O 398.496 2.00653 -0.810379 0
M  V30 4265 C 399.091 -0.122083 -3.3858 0
M  V30 4266 C 397.65 0.266863 -3.75453 0
M  V30 4267 C 396.797 -0.488376 -2.72966 0
M  V30 4268 H 399.748 -0.727266 -1.41055 0
M  V30 4269 H 399.769 0.669818 -3.74558 0
M  V30 4270 H 399.281 -1.15448 -3.70531 0
M  V30 4271 H 397.382 1.30196 -3.49113 0
M  V30 4272 H 397.495 -0.0624811 -4.79059 0
M  V30 4273 H 395.859 0.0635622 -2.54621 0
M  V30 4274 H 396.642 -1.52113 -3.07761 0
M  V30 4275 N 399.087 1.5561 -0.249682 0
M  V30 4276 C 399.997 2.25143 0.659375 0
M  V30 4277 C 401.013 1.2685 1.19101 0
M  V30 4278 O 402.189 1.59732 1.22669 0
M  V30 4279 C 399.254 2.93945 1.8384 0
M  V30 4280 C 398.315 4.07655 1.34596 0
M  V30 4281 C 397.548 4.73167 2.46878 0
M  V30 4282 O 397.771 4.37768 3.65671 0
M  V30 4283 O 396.705 5.61623 2.16478 0
M  V30 4284 H 400.531 3.03545 0.0968698 0
M  V30 4285 H 398.116 1.49389 -0.018074 0
M  V30 4286 H 399.998 3.37271 2.52638 0
M  V30 4287 H 398.673 2.18481 2.38847 0
M  V30 4288 H 397.58 3.68839 0.625174 0
M  V30 4289 H 398.913 4.84946 0.841941 0
M  V30 4290 N 400.565 -0.0233959 1.57583 0
M  V30 4291 C 401.811 -0.708611 1.90657 0
M  V30 4292 C 402.166 -1.7266 0.848895 0
M  V30 4293 O 401.459 -1.91075 -0.141749 0
M  V30 4294 C 401.653 -1.41428 3.28227 0
M  V30 4295 C 401.482 -0.466155 4.47277 0
M  V30 4296 C 400.252 -0.085117 5.05228 0
M  V30 4297 C 402.45 0.257836 5.13653 0
M  V30 4298 N 400.432 0.863672 6.07794 0
M  V30 4299 C 401.803 1.06209 6.10835 0
M  V30 4300 C 403.858 0.324174 4.96844 0
M  V30 4301 C 402.561 1.9266 6.93018 0
M  V30 4302 C 404.587 1.17583 5.79593 0
M  V30 4303 C 403.949 1.96799 6.7635 0
M  V30 4304 H 400.048 -0.233222 0.746412 0
M  V30 4305 H 402.632 0.0314512 1.94675 0
M  V30 4306 H 400.803 -2.12477 3.25128 0
M  V30 4307 H 402.535 -2.05233 3.488 0
M  V30 4308 H 399.29 -0.448516 4.71471 0
M  V30 4309 H 399.714 1.33274 6.63752 0
M  V30 4310 H 404.356 -0.273975 4.21911 0
M  V30 4311 H 402.074 2.53552 7.67292 0
M  V30 4312 H 405.66 1.23076 5.68633 0
M  V30 4313 H 404.54 2.61635 7.39268 0
M  V30 4314 N 402.043 -1.548 -0.295768 0
M  V30 4315 C 403.273 -1.78069 -1.04762 0
M  V30 4316 C 403.681 -0.542847 -1.81245 0
M  V30 4317 O 403.024 0.497051 -1.76848 0
M  V30 4318 C 403.086 -2.93881 -2.07061 0
M  V30 4319 C 402.75 -4.31777 -1.49725 0
M  V30 4320 C 403.747 -5.11613 -0.924581 0
M  V30 4321 C 401.432 -4.78389 -1.5313 0
M  V30 4322 C 403.426 -6.36184 -0.393594 0
M  V30 4323 C 401.113 -6.02921 -0.996447 0
M  V30 4324 C 402.111 -6.81654 -0.428569 0
M  V30 4325 O 401.799 -8.0384 0.0981593 0
M  V30 4326 H 401.531 -0.597475 -0.316226 0
M  V30 4327 H 404.085 -2.02584 -0.338973 0
M  V30 4328 H 402.315 -2.65003 -2.81621 0
M  V30 4329 H 404.004 -3.04679 -2.6819 0
M  V30 4330 H 404.77 -4.76743 -0.891136 0
M  V30 4331 H 400.649 -4.17132 -1.9627 0
M  V30 4332 H 404.193 -6.97582 0.0503014 0
M  V30 4333 H 400.09 -6.37277 -1.02706 0
M  V30 4334 H 400.858 -8.18499 -0.0146455 0
M  V30 4335 N 403.521 0.559213 -1.47345 0
M  V30 4336 C 404.768 1.31648 -1.53867 0
M  V30 4337 C 405.096 1.93468 -0.200104 0
M  V30 4338 O 404.351 1.78295 0.806799 0
M  V30 4339 C 404.65 2.44853 -2.6035 0
M  V30 4340 C 404.316 2.00876 -4.03683 0
M  V30 4341 C 402.978 1.88599 -4.42701 0
M  V30 4342 C 405.33 1.67279 -4.93626 0
M  V30 4343 C 402.658 1.41017 -5.69501 0
M  V30 4344 C 405.01 1.21169 -6.20887 0
M  V30 4345 C 403.674 1.07487 -6.58789 0
M  V30 4346 H 402.944 0.481734 -0.56304 0
M  V30 4347 H 405.591 0.627301 -1.80934 0
M  V30 4348 H 403.896 3.19318 -2.27032 0
M  V30 4349 H 405.593 3.03039 -2.62619 0
M  V30 4350 H 402.183 2.11374 -3.72853 0
M  V30 4351 H 406.367 1.75638 -4.64182 0
M  V30 4352 H 401.623 1.29086 -5.97618 0
M  V30 4353 H 405.797 0.942345 -6.89995 0
M  V30 4354 H 403.424 0.703946 -7.56934 0
M  V30 4355 N 404.999 1.35443 0.805782 0
M  V30 4356 C 405.929 1.31095 1.93226 0
M  V30 4357 C 406.91 0.185244 1.69088 0
M  V30 4358 O 408.095 0.380332 1.90439 0
M  V30 4359 C 405.225 1.08299 3.29983 0
M  V30 4360 C 404.179 2.17519 3.68605 0
M  V30 4361 C 403.505 1.79887 5.03532 0
M  V30 4362 C 404.805 3.5949 3.78898 0
M  V30 4363 H 406.499 2.25352 1.97122 0
M  V30 4364 H 404.045 1.0848 0.946996 0
M  V30 4365 H 405.998 1.03897 4.08391 0
M  V30 4366 H 404.722 0.104885 3.26432 0
M  V30 4367 H 403.381 2.2102 2.92482 0
M  V30 4368 H 403.029 0.80693 4.96485 0
M  V30 4369 H 402.729 2.53001 5.30344 0
M  V30 4370 H 404.253 1.77011 5.84379 0
M  V30 4371 H 405.667 3.58307 4.47536 0
M  V30 4372 H 404.064 4.31371 4.1718 0
M  V30 4373 H 405.134 3.95584 2.80431 0
M  V30 4374 N 406.477 -1.02803 1.19454 0
M  V30 4375 C 407.724 -1.76217 0.997693 0
M  V30 4376 C 408.052 -1.887 -0.47144 0
M  V30 4377 O 407.307 -1.4011 -1.3663 0
M  V30 4378 C 407.606 -3.18941 1.6128 0
M  V30 4379 C 407.272 -3.26463 3.11019 0
M  V30 4380 C 405.934 -3.28223 3.51885 0
M  V30 4381 C 408.286 -3.25542 4.07028 0
M  V30 4382 C 405.614 -3.26719 4.8731 0
M  V30 4383 C 407.966 -3.25579 5.42385 0
M  V30 4384 C 406.63 -3.25637 5.82681 0
M  V30 4385 H 405.9 -0.644823 0.365082 0
M  V30 4386 H 408.547 -1.20655 1.4871 0
M  V30 4387 H 406.852 -3.77587 1.04572 0
M  V30 4388 H 408.549 -3.74415 1.43577 0
M  V30 4389 H 405.139 -3.25822 2.78457 0
M  V30 4390 H 409.323 -3.23362 3.76498 0
M  V30 4391 H 404.579 -3.25089 5.1781 0
M  V30 4392 H 408.753 -3.23817 6.16535 0
M  V30 4393 H 406.38 -3.24226 6.87591 0
M  V30 4394 N 407.956 -0.998596 -1.21925 0
M  V30 4395 C 408.919 -0.558679 -2.22287 0
M  V30 4396 C 409.919 0.361525 -1.56683 0
M  V30 4397 O 411.109 0.152695 -1.73529 0
M  V30 4398 C 408.241 0.18661 -3.40389 0
M  V30 4399 H 409.434 -1.4463 -2.62721 0
M  V30 4400 H 406.987 -0.786413 -1.35075 0
M  V30 4401 H 407.722 1.08996 -3.05435 0
M  V30 4402 H 407.507 -0.474188 -3.89222 0
M  V30 4403 H 408.997 0.482367 -4.14805 0
M  V30 4404 N 409.434 1.37368 -0.772513 0
M  V30 4405 C 410.664 2.03647 -0.348082 0
M  V30 4406 C 411.072 1.58392 1.03482 0
M  V30 4407 O 410.415 0.760921 1.672 0
M  V30 4408 C 410.477 3.58131 -0.313404 0
M  V30 4409 C 410.141 4.2652 -1.64102 0
M  V30 4410 C 411.138 4.50587 -2.5936 0
M  V30 4411 C 408.823 4.64335 -1.91567 0
M  V30 4412 C 410.817 5.11526 -3.80289 0
M  V30 4413 C 408.504 5.24996 -3.12766 0
M  V30 4414 C 409.502 5.48529 -4.06946 0
M  V30 4415 O 409.19 6.07921 -5.26011 0
M  V30 4416 H 408.922 0.660538 -0.143753 0
M  V30 4417 H 411.476 1.76669 -1.04772 0
M  V30 4418 H 409.706 3.84159 0.442617 0
M  V30 4419 H 411.395 4.05813 0.0840613 0
M  V30 4420 H 412.161 4.21784 -2.39423 0
M  V30 4421 H 408.04 4.45353 -1.19088 0
M  V30 4422 H 411.584 5.29811 -4.53813 0
M  V30 4423 H 407.481 5.53223 -3.32588 0
M  V30 4424 H 408.249 6.26398 -5.26847 0
M  V30 4425 N 410.912 0.523116 1.48665 0
M  V30 4426 C 412.14 -0.0096312 2.06898 0
M  V30 4427 C 412.555 -1.28784 1.38059 0
M  V30 4428 O 411.912 -1.76453 0.465893 0
M  V30 4429 C 411.963 -0.244386 3.60673 0
M  V30 4430 O 411.684 0.983172 4.26925 0
M  V30 4431 C 413.185 -0.818289 4.35682 0
M  V30 4432 H 410.405 0.0304161 0.67031 0
M  V30 4433 H 412.949 0.726799 1.91149 0
M  V30 4434 H 411.104 -0.930847 3.76051 0
M  V30 4435 H 411.518 0.759653 5.1897 0
M  V30 4436 H 412.992 -0.93201 5.44075 0
M  V30 4437 H 413.469 -1.82153 3.99646 0
M  V30 4438 H 414.075 -0.168609 4.24966 0
M  V30 4439 N 412.39 -1.55475 0.257931 0
M  V30 4440 C 413.639 -1.98383 -0.364275 0
M  V30 4441 C 413.952 -1.14952 -1.58258 0
M  V30 4442 O 415.158 -1.47924 -2.27664 0
M  V30 4443 C 413.614 -3.53037 -0.699479 0
M  V30 4444 C 413.222 -4.45223 0.498046 0
M  V30 4445 C 414.966 -4.04575 -1.28526 0
M  V30 4446 C 412.873 -5.91238 0.138383 0
M  V30 4447 H 411.803 -0.740911 -0.13988 0
M  V30 4448 H 414.454 -1.79936 0.359883 0
M  V30 4449 H 412.836 -3.6722 -1.48207 0
M  V30 4450 H 414.01 -4.42803 1.27522 0
M  V30 4451 H 412.325 -4.04226 0.999503 0
M  V30 4452 H 414.922 -5.11196 -1.56788 0
M  V30 4453 H 415.265 -3.5258 -2.21344 0
M  V30 4454 H 415.798 -3.93762 -0.565337 0
M  V30 4455 H 412.537 -6.47294 1.03398 0
M  V30 4456 H 412.057 -5.96768 -0.602374 0
M  V30 4457 H 413.736 -6.46413 -0.27553 0
M  V30 4458 N 413.868 0.0150385 -1.57593 0
M  V30 4459 C 414.798 1.01047 -2.10503 0
M  V30 4460 C 415.779 1.36816 -1.01071 0
M  V30 4461 O 416.964 1.45455 -1.28672 0
M  V30 4462 C 414.094 2.30708 -2.59598 0
M  V30 4463 C 413.048 2.09142 -3.73421 0
M  V30 4464 C 412.374 3.44685 -4.08774 0
M  V30 4465 C 413.674 1.46619 -5.01298 0
M  V30 4466 H 415.368 0.569978 -2.93925 0
M  V30 4467 H 412.914 0.272724 -1.41394 0
M  V30 4468 H 414.867 3.00687 -2.95238 0
M  V30 4469 H 413.591 2.76843 -1.73279 0
M  V30 4470 H 412.25 1.41592 -3.38153 0
M  V30 4471 H 411.898 3.88495 -3.195 0
M  V30 4472 H 411.598 3.31077 -4.8545 0
M  V30 4473 H 413.122 4.16004 -4.4696 0
M  V30 4474 H 414.536 2.06535 -5.34805 0
M  V30 4475 H 412.933 1.43544 -5.82679 0
M  V30 4476 H 414.003 0.433611 -4.82957 0
M  V30 4477 N 415.346 1.54954 0.287554 0
M  V30 4478 C 416.762 1.46469 0.633964 0
M  V30 4479 C 416.962 0.666865 1.90145 0
M  V30 4480 O 416.018 0.179906 2.51858 0
M  V30 4481 C 417.331 2.90556 0.774454 0
M  V30 4482 C 418.879 3.00681 0.869462 0
M  V30 4483 C 419.354 4.45993 1.04184 0
M  V30 4484 N 420.845 4.4976 1.10772 0
M  V30 4485 C 421.58 5.59393 1.25964 0
M  V30 4486 N 421.076 6.78923 1.37968 0
M  V30 4487 N 422.869 5.47107 1.28959 0
M  V30 4488 H 415.02 2.05288 -0.545041 0
M  V30 4489 H 417.283 0.930305 -0.182308 0
M  V30 4490 H 416.989 3.51594 -0.086207 0
M  V30 4491 H 416.863 3.38743 1.6593 0
M  V30 4492 H 419.25 2.39749 1.7206 0
M  V30 4493 H 419.331 2.55769 -0.0396831 0
M  V30 4494 H 418.975 5.07524 0.195422 0
M  V30 4495 H 418.905 4.88548 1.96542 0
M  V30 4496 H 421.396 3.63651 1.02794 0
M  V30 4497 H 421.709 7.58231 1.49353 0
M  V30 4498 H 420.054 6.81763 1.34999 0
M  V30 4499 H 423.245 4.52668 1.19202 0
M  V30 4500 H 423.418 6.32595 1.40455 0
M  V30 4501 N 416.824 -0.551391 1.4764 0
M  V30 4502 C 418.049 -1.33837 1.58437 0
M  V30 4503 C 418.474 -1.866 0.237063 0
M  V30 4504 O 417.832 -1.6328 -0.787994 0
M  V30 4505 C 417.88 -2.48014 2.61766 0
M  V30 4506 O 416.984 -3.50419 2.1744 0
M  V30 4507 H 416.325 -0.397299 0.532024 0
M  V30 4508 H 418.855 -0.665759 1.93465 0
M  V30 4509 H 418.865 -2.94503 2.82369 0
M  V30 4510 H 417.54 -2.08969 3.5959 0
M  V30 4511 H 416.117 -3.10196 2.06961 0
M  V30 4512 N 418.302 -1.35869 -0.798587 0
M  V30 4513 C 419.548 -1.2978 -1.55836 0
M  V30 4514 C 419.881 0.125322 -1.93795 0
M  V30 4515 O 419.156 1.07658 -1.61987 0
M  V30 4516 C 419.439 -2.21188 -2.84162 0
M  V30 4517 C 419.292 -3.72155 -2.52628 0
M  V30 4518 C 420.611 -2.11545 -3.85923 0
M  V30 4519 H 417.73 -0.472769 -0.565383 0
M  V30 4520 H 420.372 -1.66341 -0.918192 0
M  V30 4521 H 418.522 -1.90139 -3.38791 0
M  V30 4522 H 420.194 -4.13682 -2.04121 0
M  V30 4523 H 418.437 -3.92042 -1.85704 0
M  V30 4524 H 419.108 -4.31511 -3.44242 0
M  V30 4525 H 421.584 -2.38855 -3.40716 0
M  V30 4526 H 420.46 -2.77688 -4.73477 0
M  V30 4527 H 420.721 -1.09987 -4.282 0
M  V30 4528 N 419.78 1.02168 -1.19998 0
M  V30 4529 C 421.191 1.57135 -1.00825 0
M  V30 4530 C 421.542 1.91276 0.436818 0
M  V30 4531 O 420.667 1.71679 1.3174 0
M  V30 4532 C 421.262 2.85514 -1.82393 0
M  V30 4533 C 419.821 3.37027 -1.67601 0
M  V30 4534 C 418.968 2.10388 -1.80644 0
M  V30 4535 H 421.919 0.846106 -1.34264 0
M  V30 4536 H 421.94 3.56711 -1.32429 0
M  V30 4537 H 421.452 2.60634 -2.87561 0
M  V30 4538 H 419.553 3.66878 -0.650485 0
M  V30 4539 H 419.666 4.09572 -2.4857 0
M  V30 4540 H 418.03 2.22601 -1.23778 0
M  V30 4541 H 418.813 1.8794 -2.87286 0
M  V30 4542 N 421.258 1.00505 1.21394 0
M  V30 4543 C 422.206 0.558623 2.25792 0
M  V30 4544 C 423.2 -0.396848 1.64686 0
M  V30 4545 O 424.406 -0.268035 1.77993 0
M  V30 4546 H 420.781 0.1623 0.734277 0
M  V30 4547 H 422.752 1.4503 2.60785 0
M  V30 4548 C 421.501 -0.0989574 3.47559 0
M  V30 4549 H 420.824 0.627225 3.94849 0
M  V30 4550 H 422.264 -0.3746 4.22342 0
M  V30 4551 C 420.723 -1.33817 3.09184 0
M  V30 4552 O 421.253 -2.43252 3.19674 0
M  V30 4553 N 419.459 -1.21793 2.63846 0
M  V30 4554 H 419.006 -0.32746 2.5551 0
M  V30 4555 H 418.964 -2.04809 2.38539 0
M  V30 4556 N 422.737 -1.36956 0.779787 0
M  V30 4557 C 423.684 -2.30175 0.169697 0
M  V30 4558 C 424.654 -1.51501 -0.68094 0
M  V30 4559 O 425.839 -1.80042 -0.631629 0
M  V30 4560 C 422.979 -3.37985 -0.697131 0
M  V30 4561 C 422.092 -4.31661 0.170992 0
M  V30 4562 C 421.227 -5.2655 -0.701298 0
M  V30 4563 C 420.266 -6.11867 0.168869 0
M  V30 4564 N 419.403 -6.98973 -0.661855 0
M  V30 4565 H 424.243 -2.81767 0.970135 0
M  V30 4566 H 421.78 -1.38699 0.489994 0
M  V30 4567 H 423.738 -3.99128 -1.2146 0
M  V30 4568 H 422.368 -2.87739 -1.46309 0
M  V30 4569 H 421.42 -3.71756 0.80634 0
M  V30 4570 H 422.732 -4.91644 0.841875 0
M  V30 4571 H 421.886 -5.92937 -1.28494 0
M  V30 4572 H 420.625 -4.66998 -1.40584 0
M  V30 4573 H 419.63 -5.44452 0.764986 0
M  V30 4574 H 420.855 -6.73493 0.870863 0
M  V30 4575 H 418.801 -6.41941 -1.35086 0
M  V30 4576 H 418.718 -7.55984 -0.0484447 0
M  V30 4577 H 419.986 -7.6974 -1.22963 0
M  V30 4578 N 424.215 -0.530993 -1.48385 0
M  V30 4579 C 425.145 0.219985 -2.32461 0
M  V30 4580 C 426.126 0.934111 -1.42156 0
M  V30 4581 O 427.311 0.919694 -1.71042 0
M  V30 4582 C 424.441 1.26674 -3.23375 0
M  V30 4583 C 423.395 0.67069 -4.22712 0
M  V30 4584 C 422.721 1.82017 -5.02766 0
M  V30 4585 C 424.021 -0.358268 -5.2107 0
M  V30 4586 H 425.715 -0.48187 -2.95497 0
M  V30 4587 H 423.261 -0.233182 -1.42099 0
M  V30 4588 H 425.214 1.80006 -3.81019 0
M  V30 4589 H 423.938 1.99818 -2.58341 0
M  V30 4590 H 422.597 0.158878 -3.66256 0
M  V30 4591 H 422.245 2.54002 -4.34157 0
M  V30 4592 H 421.945 1.42727 -5.70003 0
M  V30 4593 H 423.469 2.35725 -5.63264 0
M  V30 4594 H 424.883 0.0880081 -5.73232 0
M  V30 4595 H 423.28 -0.66861 -5.96364 0
M  V30 4596 H 424.35 -1.26367 -4.68145 0
M  V30 4597 N 425.693 1.55336 -0.266172 0
M  V30 4598 C 426.941 1.99003 0.35246 0
M  V30 4599 C 427.262 1.15591 1.57047 0
M  V30 4600 O 426.532 0.243268 1.94384 0
M  V30 4601 H 425.112 0.735025 0.133217 0
M  V30 4602 H 427.774 1.91367 -0.369434 0
M  V30 4603 H 426.87 3.05289 0.648453 0
M  V30 4604 N 427.171 -0.0066808 1.57599 0
M  V30 4605 C 428.419 -0.691552 1.899 0
M  V30 4606 C 428.74 -1.74682 0.866672 0
M  V30 4607 O 428.01 -1.95661 -0.0968189 0
M  V30 4608 H 426.59 -0.258416 0.700878 0
M  V30 4609 H 429.252 0.0326655 1.94873 0
M  V30 4610 H 428.348 -1.16702 2.8946 0
M  V30 4611 N 428.649 -1.55105 -0.279332 0
M  V30 4612 C 429.895 -1.75672 -1.01327 0
M  V30 4613 C 430.228 -0.552739 -1.86168 0
M  V30 4614 O 429.503 0.449827 -1.89227 0
M  V30 4615 C 429.786 -3.05825 -1.90114 0
M  V30 4616 C 429.639 -4.36565 -1.08309 0
M  V30 4617 C 430.958 -3.31975 -2.8893 0
M  V30 4618 H 428.077 -0.639149 -0.366957 0
M  V30 4619 H 430.719 -1.87833 -0.286154 0
M  V30 4620 H 428.869 -2.95588 -2.52111 0
M  V30 4621 H 430.541 -4.58751 -0.484314 0
M  V30 4622 H 428.784 -4.32076 -0.386362 0
M  V30 4623 H 429.455 -5.23946 -1.73737 0
M  V30 4624 H 431.931 -3.41963 -2.37067 0
M  V30 4625 H 430.807 -4.2432 -3.48201 0
M  V30 4626 H 431.068 -2.51309 -3.63725 0
M  V30 4627 N 430.127 0.543554 -1.4793 0
M  V30 4628 C 431.057 1.65888 -1.64327 0
M  V30 4629 C 432.038 1.62818 -0.492383 0
M  V30 4630 O 433.223 1.80226 -0.723338 0
M  V30 4631 C 430.353 3.04506 -1.67013 0
M  V30 4632 C 429.307 3.2243 -2.81466 0
M  V30 4633 C 428.633 4.61972 -2.69233 0
M  V30 4634 C 429.933 3.06496 -4.22915 0
M  V30 4635 H 431.627 1.52421 -2.57698 0
M  V30 4636 H 429.173 0.731849 -1.24016 0
M  V30 4637 H 431.126 3.82391 -1.77074 0
M  V30 4638 H 429.85 3.18964 -0.70212 0
M  V30 4639 H 428.509 2.46957 -2.70938 0
M  V30 4640 H 428.157 4.73247 -1.7043 0
M  V30 4641 H 427.857 4.74911 -3.46025 0
M  V30 4642 H 429.381 5.41974 -2.81242 0
M  V30 4643 H 430.795 3.74186 -4.34348 0
M  V30 4644 H 429.192 3.30938 -5.006 0
M  V30 4645 H 430.262 2.03077 -4.40327 0
M  V30 4646 N 431.605 1.3629 0.791371 0
M  V30 4647 C 432.568 1.30309 1.88553 0
M  V30 4648 C 433.568 0.211204 1.59407 0
M  V30 4649 O 434.758 0.465865 1.67855 0
M  V30 4650 C 431.89 1.01956 3.25297 0
M  V30 4651 H 433.083 2.27614 1.95273 0
M  V30 4652 H 430.636 1.21035 0.988953 0
M  V30 4653 H 431.371 0.050998 3.2426 0
M  V30 4654 H 431.156 1.80968 3.4784 0
M  V30 4655 H 432.646 1.0037 4.05359 0
M  V30 4656 N 433.083 -1.0153 1.20538 0
M  V30 4657 C 434.013 -2.11972 0.979295 0
M  V30 4658 C 434.994 -1.6985 -0.0921787 0
M  V30 4659 O 436.179 -1.94089 0.0655932 0
M  V30 4660 C 433.309 -3.43201 0.531984 0
M  V30 4661 C 432.263 -3.9907 1.54685 0
M  V30 4662 C 431.589 -5.26082 0.956127 0
M  V30 4663 C 432.889 -4.32313 2.93092 0
M  V30 4664 H 434.583 -2.31143 1.90298 0
M  V30 4665 H 432.129 -1.11079 0.916372 0
M  V30 4666 H 434.082 -4.1985 0.361044 0
M  V30 4667 H 432.806 -3.23792 -0.427327 0
M  V30 4668 H 431.465 -3.2453 1.70517 0
M  V30 4669 H 431.113 -5.02999 -0.0111538 0
M  V30 4670 H 430.813 -5.64426 1.63393 0
M  V30 4671 H 432.337 -6.05386 0.796284 0
M  V30 4672 H 433.751 -4.99845 2.80763 0
M  V30 4673 H 432.148 -4.81774 3.57791 0
M  V30 4674 H 433.218 -3.41025 3.44717 0
M  V30 4675 N 434.561 -1.01147 -1.20859 0
M  V30 4676 C 435.491 -0.597663 -2.25722 0
M  V30 4677 C 436.472 0.384744 -1.65692 0
M  V30 4678 O 437.657 0.271303 -1.92296 0
M  V30 4679 C 434.787 0.0700149 -3.47229 0
M  V30 4680 C 433.741 -0.832843 -4.19819 0
M  V30 4681 C 433.067 -0.0312202 -5.34691 0
M  V30 4682 C 434.367 -2.1385 -4.76514 0
M  V30 4683 H 436.061 -1.47423 -2.60589 0
M  V30 4684 H 433.607 -0.710301 -1.25263 0
M  V30 4685 H 435.56 0.37103 -4.19763 0
M  V30 4686 H 434.284 0.981259 -3.11511 0
M  V30 4687 H 432.943 -1.11778 -3.49144 0
M  V30 4688 H 432.591 0.881515 -4.95215 0
M  V30 4689 H 432.291 -0.632434 -5.84187 0
M  V30 4690 H 433.815 0.26346 -6.10031 0
M  V30 4691 H 435.229 -1.9002 -5.40893 0
M  V30 4692 H 433.626 -2.69012 -5.36426 0
M  V30 4693 H 434.696 -2.80495 -3.95538 0
M  V30 4694 N 436.039 1.36541 -0.78704 0
M  V30 4695 C 436.969 2.32659 -0.197992 0
M  V30 4696 C 437.95 1.56533 0.665697 0
M  V30 4697 O 439.135 1.84698 0.60001 0
M  V30 4698 C 436.265 3.40778 0.669901 0
M  V30 4699 C 435.219 4.27897 -0.0937039 0
M  V30 4700 C 434.545 5.27163 0.894629 0
M  V30 4701 C 435.845 5.06334 -1.28154 0
M  V30 4702 H 437.539 2.82171 -1.00099 0
M  V30 4703 H 435.085 1.35665 -0.482793 0
M  V30 4704 H 437.038 4.07008 1.09191 0
M  V30 4705 H 435.762 2.89827 1.50558 0
M  V30 4706 H 434.421 3.6322 -0.49666 0
M  V30 4707 H 434.069 4.72486 1.72527 0
M  V30 4708 H 433.769 5.86317 0.388149 0
M  V30 4709 H 435.293 5.96266 1.31525 0
M  V30 4710 H 436.707 5.65617 -0.93541 0
M  V30 4711 H 435.104 5.74888 -1.72115 0
M  V30 4712 H 436.174 4.38114 -2.07807 0
M  V30 4713 N 437.518 0.538854 1.48102 0
M  V30 4714 C 438.743 0.0102694 2.07397 0
M  V30 4715 C 439.168 -1.26562 1.39153 0
M  V30 4716 O 438.526 -1.75357 0.460387 0
M  V30 4717 C 438.574 -0.187602 3.60112 0
M  V30 4718 O 437.678 -1.25432 3.92862 0
M  V30 4719 H 437.019 0.0430975 0.6626 0
M  V30 4720 H 439.549 0.749301 1.90385 0
M  V30 4721 H 439.559 -0.407517 4.0596 0
M  V30 4722 H 438.234 0.744386 4.09184 0
M  V30 4723 H 436.811 -1.01636 3.58782 0
M  V30 4724 N 438.996 -1.55193 0.274407 0
M  V30 4725 C 440.245 -1.98758 -0.343213 0
M  V30 4726 C 440.558 -1.16624 -1.5703 0
M  V30 4727 O 441.764 -1.5033 -2.26082 0
M  V30 4728 C 440.22 -3.53759 -0.661996 0
M  V30 4729 C 439.828 -4.4467 0.54524 0
M  V30 4730 C 441.572 -4.05916 -1.24228 0
M  V30 4731 C 439.479 -5.91058 0.201084 0
M  V30 4732 H 438.409 -0.742353 -0.132014 0
M  V30 4733 H 441.06 -1.79545 0.378948 0
M  V30 4734 H 439.442 -3.68772 -1.44304 0
M  V30 4735 H 440.616 -4.41426 1.32212 0
M  V30 4736 H 438.931 -4.03143 1.04232 0
M  V30 4737 H 441.528 -5.12831 -1.51357 0
M  V30 4738 H 441.871 -3.54908 -2.17592 0
M  V30 4739 H 442.404 -3.9434 -0.523542 0
M  V30 4740 H 439.143 -6.46161 1.10258 0
M  V30 4741 H 438.663 -5.97373 -0.539045 0
M  V30 4742 H 440.342 -6.46669 -0.206954 0
M  V30 4743 N 440.474 -0.00167713 -1.576 0
M  V30 4744 C 441.404 0.988091 -2.11563 0
M  V30 4745 C 442.385 1.35736 -1.02517 0
M  V30 4746 O 443.57 1.44082 -1.30208 0
M  V30 4747 C 440.7 2.27941 -2.62031 0
M  V30 4748 C 439.654 2.0517 -3.75619 0
M  V30 4749 C 438.98 3.4033 -4.12407 0
M  V30 4750 C 440.28 1.41294 -5.02825 0
M  V30 4751 H 441.974 0.538771 -2.94513 0
M  V30 4752 H 439.52 0.257712 -1.41675 0
M  V30 4753 H 441.473 2.97539 -2.9841 0
M  V30 4754 H 440.197 2.74989 -1.76205 0
M  V30 4755 H 438.856 1.37998 -3.39635 0
M  V30 4756 H 438.504 3.85085 -3.23603 0
M  V30 4757 H 438.204 3.25909 -4.88935 0
M  V30 4758 H 439.728 4.1124 -4.51347 0
M  V30 4759 H 441.142 2.00851 -5.36965 0
M  V30 4760 H 439.539 1.37356 -5.84169 0
M  V30 4761 H 440.609 0.382362 -4.8339 0
M  V30 4762 N 441.952 1.55251 0.271103 0
M  V30 4763 C 443.201 1.75151 1.00025 0
M  V30 4764 C 443.514 0.561041 1.87381 0
M  V30 4765 O 444.72 0.642506 2.63788 0
M  V30 4766 C 443.176 3.09999 1.82835 0
M  V30 4767 C 442.784 4.3662 1.00336 0
M  V30 4768 C 444.528 3.39249 2.55168 0
M  V30 4769 C 442.435 5.62506 1.82595 0
M  V30 4770 H 441.365 0.652877 0.377183 0
M  V30 4771 H 444.016 1.81708 0.255843 0
M  V30 4772 H 442.398 2.97485 2.61378 0
M  V30 4773 H 443.572 4.60055 0.261959 0
M  V30 4774 H 441.887 4.14527 0.394486 0
M  V30 4775 H 444.484 4.3051 3.1712 0
M  V30 4776 H 444.827 2.59467 3.2555 0
M  V30 4777 H 445.36 3.52869 1.83653 0
M  V30 4778 H 442.099 6.45041 1.16631 0
M  V30 4779 H 441.619 5.43211 2.54327 0
M  V30 4780 H 443.298 6.00875 2.39913 0
M  V30 4781 N 443.43 -0.535701 1.48216 0
M  V30 4782 C 444.36 -1.65014 1.65204 0
M  V30 4783 C 445.341 -1.62554 0.501011 0
M  V30 4784 O 446.526 -1.7984 0.732886 0
M  V30 4785 C 443.656 -3.03616 1.68626 0
M  V30 4786 C 442.61 -3.20932 2.83172 0
M  V30 4787 C 441.936 -4.60537 2.71679 0
M  V30 4788 C 443.236 -3.04249 4.24535 0
M  V30 4789 H 444.93 -1.51053 2.58502 0
M  V30 4790 H 442.476 -0.725262 1.24402 0
M  V30 4791 H 444.429 -3.81446 1.79099 0
M  V30 4792 H 443.153 -3.18587 0.719026 0
M  V30 4793 H 441.812 -2.45517 2.72244 0
M  V30 4794 H 441.46 -4.72336 1.72937 0
M  V30 4795 H 441.16 -4.73069 3.48538 0
M  V30 4796 H 442.684 -5.40475 2.84112 0
M  V30 4797 H 444.098 -3.71877 4.36326 0
M  V30 4798 H 442.495 -3.28278 5.02348 0
M  V30 4799 H 443.565 -2.00739 4.41397 0
M  V30 4800 N 444.908 -1.36708 -0.784132 0
M  V30 4801 C 445.871 -1.31307 -1.87859 0
M  V30 4802 C 446.871 -0.219654 -1.59293 0
M  V30 4803 O 448.061 -0.47476 -1.67606 0
M  V30 4804 C 445.193 -1.03679 -3.24751 0
M  V30 4805 H 446.386 -2.28647 -1.94064 0
M  V30 4806 H 443.939 -1.21558 -0.98252 0
M  V30 4807 H 444.674 -0.0681936 -3.24228 0
M  V30 4808 H 444.459 -1.82811 -3.46876 0
M  V30 4809 H 445.949 -1.02518 -4.04821 0
M  V30 4810 N 446.386 1.0089 -1.21074 0
M  V30 4811 C 447.319 2.09279 -0.909806 0
M  V30 4812 C 448.297 1.61986 0.141145 0
M  V30 4813 O 449.481 1.88495 0.0130332 0
M  V30 4814 C 446.608 3.36723 -0.365374 0
M  V30 4815 C 445.654 4.02919 -1.39852 0
M  V30 4816 S 446.487 4.45835 -2.96633 0
M  V30 4817 C 447.643 5.76471 -2.43786 0
M  V30 4818 H 447.876 2.34484 -1.82769 0
M  V30 4819 H 445.409 1.14115 -1.04006 0
M  V30 4820 H 447.367 4.10459 -0.0578203 0
M  V30 4821 H 446.028 3.09577 0.531136 0
M  V30 4822 H 445.221 4.94634 -0.967117 0
M  V30 4823 H 444.823 3.35441 -1.65395 0
M  V30 4824 H 447.115 6.52027 -1.84029 0
M  V30 4825 H 448.058 6.24418 -3.33928 0
M  V30 4826 H 448.466 5.33104 -1.85636 0
M  V30 4827 N 447.864 1.01787 1.20321 0
M  V30 4828 C 449.113 0.703249 1.89043 0
M  V30 4829 C 449.426 -0.770445 1.79787 0
M  V30 4830 O 450.632 -1.19767 2.43656 0
M  V30 4831 C 449.088 1.20749 3.3904 0
M  V30 4832 C 448.696 2.70817 3.56878 0
M  V30 4833 C 450.44 0.968352 4.13308 0
M  V30 4834 C 448.347 3.14716 5.00708 0
M  V30 4835 H 447.277 0.259354 0.707991 0
M  V30 4836 H 449.928 1.23072 1.36108 0
M  V30 4837 H 448.31 0.607989 3.91305 0
M  V30 4838 H 449.484 3.36327 3.14993 0
M  V30 4839 H 447.799 2.92888 2.95983 0
M  V30 4840 H 450.396 1.27173 5.19356 0
M  V30 4841 H 450.739 -0.095149 4.16191 0
M  V30 4842 H 451.272 1.53129 3.67146 0
M  V30 4843 H 448.011 4.20347 5.02979 0
M  V30 4844 H 447.531 2.53927 5.43398 0
M  V30 4845 H 449.21 3.07426 5.69296 0
M  V30 4846 N 449.342 -1.36122 0.79427 0
M  V30 4847 C 450.753 -1.81646 0.431446 0
M  V30 4848 C 451.104 -1.66043 -1.04518 0
M  V30 4849 O 450.229 -1.1841 -1.8113 0
M  V30 4850 C 450.824 -3.29785 0.776341 0
M  V30 4851 C 449.383 -3.73501 0.466282 0
M  V30 4852 C 448.53 -2.58313 1.00844 0
M  V30 4853 H 451.481 -1.24274 0.986995 0
M  V30 4854 H 451.502 -3.80437 0.0692413 0
M  V30 4855 H 451.014 -3.4111 1.8511 0
M  V30 4856 H 449.115 -3.67733 -0.600245 0
M  V30 4857 H 449.228 -4.68754 0.990288 0
M  V30 4858 H 447.592 -2.5102 0.431406 0
M  V30 4859 H 448.375 -2.72421 2.08906 0
M  V30 4860 N 450.82 -0.546701 -1.47814 0
M  V30 4861 C 452.069 -0.0166497 -2.01693 0
M  V30 4862 C 452.382 1.33721 -1.42752 0
M  V30 4863 O 453.588 1.95658 -1.8823 0
M  V30 4864 C 452.044 0.0206769 -3.59894 0
M  V30 4865 C 451.652 -1.3293 -4.27824 0
M  V30 4866 C 453.396 0.498674 -4.21561 0
M  V30 4867 C 451.303 -1.25165 -5.78003 0
M  V30 4868 H 450.233 -0.0024541 -0.753996 0
M  V30 4869 H 452.884 -0.692984 -1.69912 0
M  V30 4870 H 451.266 0.76244 -3.88591 0
M  V30 4871 H 452.44 -2.08795 -4.10781 0
M  V30 4872 H 450.755 -1.74438 -3.78101 0
M  V30 4873 H 453.352 0.575 -5.31599 0
M  V30 4874 H 453.695 1.5083 -3.88016 0
M  V30 4875 H 454.228 -0.18791 -3.97356 0
M  V30 4876 H 450.967 -2.23695 -6.1615 0
M  V30 4877 H 450.487 -0.53464 -5.97412 0
M  V30 4878 H 452.166 -0.949299 -6.39998 0
M  V30 4879 N 452.299 1.55045 -0.282633 0
M  V30 4880 C 453.229 2.2579 0.595066 0
M  V30 4881 C 454.21 1.25074 1.15284 0
M  V30 4882 O 455.395 1.5381 1.18559 0
M  V30 4883 C 452.525 2.98472 1.77572 0
M  V30 4884 C 451.479 4.0618 1.34914 0
M  V30 4885 C 450.805 4.66477 2.6135 0
M  V30 4886 C 452.105 5.1996 0.493821 0
M  V30 4887 H 453.799 2.994 0.00505653 0
M  V30 4888 H 451.345 1.44 0.000992001 0
M  V30 4889 H 453.298 3.46677 2.39568 0
M  V30 4890 H 452.022 2.2241 2.39168 0
M  V30 4891 H 450.681 3.58797 0.752338 0
M  V30 4892 H 450.329 3.87074 3.2122 0
M  V30 4893 H 450.029 5.39207 2.33516 0
M  V30 4894 H 451.553 5.17435 3.24181 0
M  V30 4895 H 452.967 5.64172 1.01898 0
M  V30 4896 H 451.364 5.99299 0.310047 0
M  V30 4897 H 452.434 4.82462 -0.485593 0
M  V30 4898 N 453.777 0.010035 1.57597 0
M  V30 4899 C 454.727 -0.986858 2.05536 0
M  V30 4900 C 455.711 -1.29711 0.952042 0
M  V30 4901 O 456.903 -1.28641 1.21575 0
M  V30 4902 C 454.032 -2.2756 2.57043 0
M  V30 4903 C 453.118 -1.99455 3.74271 0
M  V30 4904 N 453.509 -1.41546 4.85591 0
M  V30 4905 C 451.807 -2.29547 3.82393 0
M  V30 4906 C 452.508 -1.3014 5.66956 0
M  V30 4907 N 451.484 -1.79044 5.13268 0
M  V30 4908 H 455.286 -0.533778 2.89012 0
M  V30 4909 H 452.8 -0.195432 1.6122 0
M  V30 4910 H 454.797 -2.99829 2.89669 0
M  V30 4911 H 453.457 -2.73512 1.7499 0
M  V30 4912 H 454.468 -1.09294 5.06236 0
M  V30 4913 H 451.145 -2.78304 3.11213 0
M  V30 4914 H 452.535 -0.855237 6.66435 0
M  V30 4915 N 455.255 -1.55392 -0.262866 0
M  V30 4916 C 456.188 -1.8391 -1.35101 0
M  V30 4917 C 457.166 -0.692901 -1.47097 0
M  V30 4918 O 458.35 -0.936979 -1.63563 0
M  V30 4919 C 455.477 -2.00969 -2.72634 0
M  V30 4920 C 454.523 -3.23559 -2.7787 0
M  V30 4921 S 455.356 -4.80647 -2.3609 0
M  V30 4922 C 456.512 -5.00692 -3.75578 0
M  V30 4923 H 456.745 -2.75918 -1.1071 0
M  V30 4924 H 454.278 -1.47294 -0.463029 0
M  V30 4925 H 456.236 -2.11482 -3.51832 0
M  V30 4926 H 454.897 -1.09832 -2.94272 0
M  V30 4927 H 454.09 -3.32413 -3.78837 0
M  V30 4928 H 453.692 -3.11689 -2.06702 0
M  V30 4929 H 455.984 -4.87055 -4.70939 0
M  V30 4930 H 456.927 -6.02717 -3.71669 0
M  V30 4931 H 457.335 -4.28619 -3.6735 0
M  V30 4932 N 456.733 0.527833 -1.48498 0
M  V30 4933 C 457.958 1.313 -1.60546 0
M  V30 4934 C 458.383 1.86199 -0.26672 0
M  V30 4935 O 457.741 1.64513 0.761918 0
M  V30 4936 C 457.789 2.43818 -2.65678 0
M  V30 4937 O 456.893 3.46916 -2.22987 0
M  V30 4938 H 456.234 0.388784 -0.538277 0
M  V30 4939 H 458.764 0.634896 -1.945 0
M  V30 4940 H 458.774 2.89973 -2.87018 0
M  V30 4941 H 457.449 2.03222 -3.62869 0
M  V30 4942 H 456.026 3.06864 -2.11869 0
M  V30 4943 N 458.211 1.37122 0.776871 0
M  V30 4944 C 459.158 1.3247 1.88998 0
M  V30 4945 C 460.128 0.191143 1.64997 0
M  V30 4946 O 461.313 0.379683 1.86984 0
M  V30 4947 C 458.453 1.13241 3.25992 0
M  V30 4948 C 457.566 2.35782 3.61982 0
M  V30 4949 C 456.701 2.09465 4.88158 0
M  V30 4950 C 455.74 3.279 5.16864 0
M  V30 4951 N 454.877 3.01167 6.34226 0
M  V30 4952 H 459.717 2.27642 1.9231 0
M  V30 4953 H 457.254 1.13125 0.94027 0
M  V30 4954 H 459.212 1.00115 4.0501 0
M  V30 4955 H 457.842 0.217186 3.22069 0
M  V30 4956 H 456.894 2.59666 2.77989 0
M  V30 4957 H 458.206 3.24125 3.79137 0
M  V30 4958 H 457.36 1.93341 5.75069 0
M  V30 4959 H 456.099 1.18452 4.73097 0
M  V30 4960 H 455.104 3.44569 4.2843 0
M  V30 4961 H 456.329 4.19757 5.33836 0
M  V30 4962 H 454.275 2.12779 6.20533 0
M  V30 4963 H 454.192 3.83052 6.51772 0
M  V30 4964 H 455.46 2.88649 7.24087 0
M  V30 4965 N 459.689 -1.00246 1.21608 0
M  V30 4966 C 460.621 -2.09244 0.935401 0
M  V30 4967 C 461.634 -1.62592 -0.0823594 0
M  V30 4968 O 462.823 -1.77865 0.150456 0
M  V30 4969 C 459.923 -3.36724 0.383453 0
M  V30 4970 C 459.096 -4.1245 1.45615 0
M  V30 4971 C 458.155 -5.18219 0.912991 0
M  V30 4972 O 457.181 -5.46337 1.59701 0
M  V30 4973 N 458.383 -5.7987 -0.270478 0
M  V30 4974 H 461.148 -2.33905 1.87373 0
M  V30 4975 H 458.709 -1.16748 1.12167 0
M  V30 4976 H 460.701 -4.047 0.00562157 0
M  V30 4977 H 459.271 -3.09201 -0.459758 0
M  V30 4978 H 458.491 -3.39241 2.00772 0
M  V30 4979 H 459.779 -4.59819 2.17817 0
M  V30 4980 H 459.177 -5.59381 -0.843195 0
M  V30 4981 H 457.734 -6.49126 -0.589794 0
M  V30 4982 N 461.167 -1.02423 -1.1978 0
M  V30 4983 C 462.099 -0.559152 -2.22275 0
M  V30 4984 C 463.112 0.36251 -1.58713 0
M  V30 4985 O 464.301 0.159641 -1.77785 0
M  V30 4986 C 461.401 0.205094 -3.38279 0
M  V30 4987 C 460.574 -0.720361 -4.31427 0
M  V30 4988 C 459.633 -0.00234368 -5.262 0
M  V30 4989 O 458.659 -0.627378 -5.65732 0
M  V30 4990 N 459.861 1.26996 -5.66438 0
M  V30 4991 H 462.626 -1.44064 -2.62804 0
M  V30 4992 H 460.187 -0.902692 -1.34399 0
M  V30 4993 H 462.179 0.694868 -3.9869 0
M  V30 4994 H 460.749 0.987947 -2.96578 0
M  V30 4995 H 459.969 -1.39031 -3.68869 0
M  V30 4996 H 461.257 -1.3495 -4.90577 0
M  V30 4997 H 460.655 1.79858 -5.36347 0
M  V30 4998 H 459.212 1.70432 -6.29123 0
M  V30 4999 N 462.645 1.35699 -0.801477 0
M  V30 5000 C 463.87 2.03687 -0.390678 0
M  V30 5001 C 464.295 1.60015 0.988778 0
M  V30 5002 O 463.653 0.774357 1.63931 0
M  V30 5003 C 463.701 3.57439 -0.476404 0
M  V30 5004 O 462.805 4.09208 0.512106 0
M  V30 5005 H 462.146 0.64344 -0.163956 0
M  V30 5006 H 464.676 1.73403 -1.08594 0
M  V30 5007 H 464.686 4.06544 -0.344357 0
M  V30 5008 H 463.361 3.88576 -1.48262 0
M  V30 5009 H 461.938 3.7134 0.340721 0
M  V30 5010 N 464.123 0.554532 1.47522 0
M  V30 5011 C 465.056 -0.242442 2.26908 0
M  V30 5012 C 466.034 -0.922722 1.33883 0
M  V30 5013 O 467.218 -0.942244 1.63261 0
M  V30 5014 C 464.345 -1.34525 3.10839 0
M  V30 5015 C 463.391 -0.773805 4.19422 0
M  V30 5016 S 464.224 0.377525 5.34168 0
M  V30 5017 C 465.38 -0.727164 6.21662 0
M  V30 5018 H 465.613 0.431218 2.94156 0
M  V30 5019 H 463.146 0.3408 1.50592 0
M  V30 5020 H 465.104 -1.97683 3.59766 0
M  V30 5021 H 463.765 -1.99073 2.42958 0
M  V30 5022 H 462.958 -1.60187 4.77866 0
M  V30 5023 H 462.56 -0.218448 3.73361 0
M  V30 5024 H 464.852 -1.61992 6.57849 0
M  V30 5025 H 465.795 -0.180135 7.07871 0
M  V30 5026 H 466.203 -1.01863 5.55233 0
M  V30 5027 N 465.601 -1.54893 0.290851 0
M  V30 5028 C 466.534 -2.19289 -0.631489 0
M  V30 5029 C 467.512 -1.15893 -1.14051 0
M  V30 5030 O 468.696 -1.4449 -1.21058 0
M  V30 5031 C 465.823 -2.82866 -1.86291 0
M  V30 5032 C 464.869 -3.997 -1.48801 0
M  V30 5033 S 465.702 -5.32641 -0.552644 0
M  V30 5034 C 466.858 -5.99696 -1.79209 0
M  V30 5035 H 467.091 -2.9718 -0.0843791 0
M  V30 5036 H 464.624 -1.54218 0.075031 0
M  V30 5037 H 466.582 -3.20124 -2.56964 0
M  V30 5038 H 465.243 -2.04839 -2.38117 0
M  V30 5039 H 464.436 -4.42932 -2.40473 0
M  V30 5040 H 464.038 -3.63947 -0.861321 0
M  V30 5041 H 466.33 -6.19886 -2.734 0
M  V30 5042 H 467.273 -6.94071 -1.40251 0
M  V30 5043 H 467.681 -5.29226 -1.96419 0
M  V30 5044 N 467.08 -0.0183926 -1.57589 0
M  V30 5045 C 468.327 0.662562 -1.91354 0
M  V30 5046 C 468.655 1.72747 -0.893788 0
M  V30 5047 O 467.91 1.9545 0.0988509 0
M  V30 5048 C 468.209 1.32676 -3.31861 0
M  V30 5049 C 467.875 0.393267 -4.49182 0
M  V30 5050 C 466.537 0.136302 -4.81007 0
M  V30 5051 C 468.889 -0.248366 -5.20608 0
M  V30 5052 C 466.217 -0.770282 -5.81621 0
M  V30 5053 C 468.569 -1.14294 -6.22189 0
M  V30 5054 C 467.233 -1.4089 -6.52462 0
M  V30 5055 H 466.503 0.242448 -0.700214 0
M  V30 5056 H 469.15 -0.0778629 -1.91342 0
M  V30 5057 H 467.455 2.14168 -3.28084 0
M  V30 5058 H 469.152 1.86001 -3.55253 0
M  V30 5059 H 465.742 0.603723 -4.24327 0
M  V30 5060 H 469.926 -0.062883 -4.9626 0
M  V30 5061 H 465.182 -0.984154 -6.03427 0
M  V30 5062 H 469.356 -1.64637 -6.76659 0
M  V30 5063 H 466.983 -2.11306 -7.30242 0
M  V30 5064 N 468.558 1.5553 0.254621 0
M  V30 5065 C 469.974 1.4778 0.602753 0
M  V30 5066 C 470.174 0.707047 1.88688 0
M  V30 5067 O 469.23 0.233288 2.5142 0
M  V30 5068 C 470.543 2.92133 0.712648 0
M  V30 5069 C 472.091 3.02458 0.805488 0
M  V30 5070 C 472.566 4.48102 0.947009 0
M  V30 5071 N 474.057 4.52008 1.01207 0
M  V30 5072 C 474.792 5.61939 1.1407 0
M  V30 5073 N 474.288 6.81697 1.23536 0
M  V30 5074 N 476.081 5.49719 1.17325 0
M  V30 5075 H 468.232 2.04085 -0.588463 0
M  V30 5076 H 470.495 0.926229 -0.202001 0
M  V30 5077 H 470.201 3.51332 -0.160766 0
M  V30 5078 H 470.075 3.42187 1.58707 0
M  V30 5079 H 472.462 2.43344 1.66936 0
M  V30 5080 H 472.543 2.55627 -0.0939266 0
M  V30 5081 H 472.187 5.07824 0.087725 0
M  V30 5082 H 472.117 4.92607 1.86135 0
M  V30 5083 H 474.608 3.65749 0.950577 0
M  V30 5084 H 474.921 7.61228 1.33236 0
M  V30 5085 H 473.266 6.84473 1.20508 0
M  V30 5086 H 476.457 4.55095 1.09573 0
M  V30 5087 H 476.63 6.35432 1.27005 0
M  V30 5088 N 470.036 -0.519951 1.48776 0
M  V30 5089 C 471.447 -1.10177 1.50725 0
M  V30 5090 C 471.798 -1.94153 0.282678 0
M  V30 5091 O 470.923 -2.07645 -0.609298 0
M  V30 5092 C 471.518 -2.00482 2.73116 0
M  V30 5093 C 470.077 -2.53862 2.77905 0
M  V30 5094 C 469.224 -1.31047 2.44381 0
M  V30 5095 H 472.175 -0.30473 1.55747 0
M  V30 5096 H 472.196 -2.8491 2.52203 0
M  V30 5097 H 471.708 -1.39335 3.62225 0
M  V30 5098 H 469.809 -3.18702 1.93029 0
M  V30 5099 H 469.922 -2.9231 3.79594 0
M  V30 5100 H 468.286 -1.62953 1.95751 0
M  V30 5101 H 469.069 -0.71637 3.35743 0
M  V30 5102 N 471.514 -1.37532 -0.769588 0
M  V30 5103 C 472.444 -1.36172 -1.89682 0
M  V30 5104 C 473.425 -0.23001 -1.68538 0
M  V30 5105 O 474.61 -0.43069 -1.89364 0
M  V30 5106 C 471.74 -1.1701 -3.26995 0
M  V30 5107 C 470.694 -2.27216 -3.62708 0
M  V30 5108 C 470.02 -1.93174 -4.98586 0
M  V30 5109 C 471.32 -3.6941 -3.69234 0
M  V30 5110 H 473.014 -2.30499 -1.91078 0
M  V30 5111 H 470.56 -1.10953 -0.917902 0
M  V30 5112 H 472.513 -1.14688 -4.05493 0
M  V30 5113 H 471.237 -0.191395 -3.26039 0
M  V30 5114 H 469.896 -2.28697 -2.86519 0
M  V30 5115 H 469.544 -0.938281 -4.94171 0
M  V30 5116 H 469.244 -2.66973 -5.23449 0
M  V30 5117 H 470.768 -1.92443 -5.79481 0
M  V30 5118 H 472.182 -3.70047 -4.37879 0
M  V30 5119 H 470.579 -4.4228 -4.05597 0
M  V30 5120 H 471.649 -4.0288 -2.69844 0
M  V30 5121 N 472.992 0.995999 -1.22138 0
M  V30 5122 C 474.217 1.77601 -1.0711 0
M  V30 5123 C 474.642 1.84339 0.374264 0
M  V30 5124 O 474 1.29359 1.27028 0
M  V30 5125 C 474.048 3.18897 -1.68336 0
M  V30 5126 O 473.152 4.01663 -0.934928 0
M  V30 5127 H 472.493 0.547011 -0.376397 0
M  V30 5128 H 475.023 1.25137 -1.6187 0
M  V30 5129 H 475.033 3.69539 -1.72931 0
M  V30 5130 H 473.708 3.13308 -2.73516 0
M  V30 5131 H 472.285 3.60204 -0.964751 0
M  V30 5132 N 474.47 1.03057 1.19235 0
M  V30 5133 C 475.402 0.570932 2.21975 0
M  V30 5134 C 476.415 -0.354088 1.58903 0
M  V30 5135 O 477.604 -0.150211 1.77867 0
M  V30 5136 C 474.704 -0.187152 3.38383 0
M  V30 5137 C 473.877 0.743231 4.31039 0
M  V30 5138 C 472.936 0.0302493 5.26191 0
M  V30 5139 O 471.962 0.657371 5.65391 0
M  V30 5140 N 473.164 -1.23991 5.67104 0
M  V30 5141 H 475.929 1.45456 2.62036 0
M  V30 5142 H 473.49 0.909807 1.33918 0
M  V30 5143 H 475.482 -0.673715 3.99053 0
M  V30 5144 H 474.052 -0.972205 2.97098 0
M  V30 5145 H 473.272 1.40985 3.68126 0
M  V30 5146 H 474.56 1.3755 4.89854 0
M  V30 5147 H 473.958 -1.77011 5.37293 0
M  V30 5148 H 472.515 -1.67093 6.30018 0
M  V30 5149 N 475.948 -1.35272 0.808662 0
M  V30 5150 C 477.173 -2.03477 0.401475 0
M  V30 5151 C 477.598 -1.60537 -0.980279 0
M  V30 5152 O 476.956 -0.78304 -1.63518 0
M  V30 5153 C 477.004 -3.57181 0.495354 0
M  V30 5154 O 476.108 -4.09474 -0.490397 0
M  V30 5155 H 475.449 -0.642561 0.167366 0
M  V30 5156 H 477.979 -1.72824 1.09512 0
M  V30 5157 H 477.989 -4.06356 0.365912 0
M  V30 5158 H 476.664 -3.87784 1.5032 0
M  V30 5159 H 475.241 -3.71516 -0.321023 0
M  V30 5160 N 477.426 -0.562348 -1.47226 0
M  V30 5161 C 478.356 0.170627 -2.32876 0
M  V30 5162 C 479.337 0.903748 -1.44106 0
M  V30 5163 O 480.522 0.883206 -1.72954 0
M  V30 5164 C 477.652 1.19786 -3.25989 0
M  V30 5165 C 476.606 0.580875 -4.2404 0
M  V30 5166 C 475.932 1.71311 -5.06514 0
M  V30 5167 C 477.232 -0.468714 -5.20193 0
M  V30 5168 H 478.926 -0.544441 -2.94408 0
M  V30 5169 H 476.472 -0.263271 -1.41573 0
M  V30 5170 H 478.425 1.71884 -3.84752 0
M  V30 5171 H 477.149 1.94294 -2.62521 0
M  V30 5172 H 475.808 0.0811538 -3.6651 0
M  V30 5173 H 475.456 2.44736 -4.39447 0
M  V30 5174 H 475.156 1.30604 -5.72902 0
M  V30 5175 H 476.68 2.23725 -5.68137 0
M  V30 5176 H 478.094 -0.0336028 -5.7329 0
M  V30 5177 H 476.491 -0.794957 -5.94811 0
M  V30 5178 H 477.561 -1.36269 -4.65359 0
M  V30 5179 N 478.904 1.54736 -0.299062 0
M  V30 5180 C 480.134 2.04215 0.312992 0
M  V30 5181 C 480.542 1.17596 1.48215 0
M  V30 5182 O 479.885 0.193835 1.82674 0
M  V30 5183 C 479.947 3.49696 0.833862 0
M  V30 5184 C 479.611 4.56518 -0.20977 0
M  V30 5185 C 480.608 5.09442 -1.03756 0
M  V30 5186 C 478.293 5.01073 -0.35091 0
M  V30 5187 C 480.287 6.05459 -1.99244 0
M  V30 5188 C 477.974 5.9691 -1.30924 0
M  V30 5189 C 478.972 6.48987 -2.1285 0
M  V30 5190 O 478.66 7.42947 -3.07059 0
M  V30 5191 H 478.392 0.672128 0.0722494 0
M  V30 5192 H 480.946 2.00718 -0.436043 0
M  V30 5193 H 479.176 3.5051 1.63339 0
M  V30 5194 H 480.865 3.82381 1.36159 0
M  V30 5195 H 481.631 4.75816 -0.939376 0
M  V30 5196 H 477.51 4.60168 0.276813 0
M  V30 5197 H 481.054 6.46031 -2.63229 0
M  V30 5198 H 476.951 6.29953 -1.40815 0
M  V30 5199 H 477.719 7.60743 -3.02015 0
M  V30 5200 N 480.382 0.0267497 1.57577 0
M  V30 5201 C 481.628 -0.647596 1.92815 0
M  V30 5202 C 481.983 -1.69872 0.903396 0
M  V30 5203 O 481.276 -1.91429 -0.0808881 0
M  V30 5204 C 481.47 -1.30914 3.3256 0
M  V30 5205 C 481.299 -0.323621 4.48534 0
M  V30 5206 C 480.069 0.0756607 5.05243 0
M  V30 5207 C 482.267 0.42112 5.12573 0
M  V30 5208 N 480.249 1.0566 6.04739 0
M  V30 5209 C 481.62 1.25589 6.07147 0
M  V30 5210 C 483.675 0.482077 4.95561 0
M  V30 5211 C 482.378 2.1461 6.86538 0
M  V30 5212 C 484.404 1.35962 5.75559 0
M  V30 5213 C 483.766 2.18217 6.69747 0
M  V30 5214 H 479.865 -0.209357 0.753454 0
M  V30 5215 H 482.449 0.0933695 1.94476 0
M  V30 5216 H 480.62 -2.02026 3.31723 0
M  V30 5217 H 482.352 -1.94033 3.55153 0
M  V30 5218 H 479.107 -0.298294 4.7266 0
M  V30 5219 H 479.531 1.54324 6.59176 0
M  V30 5220 H 484.173 -0.139609 4.22569 0
M  V30 5221 H 481.891 2.77835 7.58837 0
M  V30 5222 H 485.477 1.41105 5.6443 0
M  V30 5223 H 484.357 2.85022 7.3057 0
M  V30 5224 N 481.861 -1.55662 -0.24637 0
M  V30 5225 C 482.791 -1.93377 -1.30873 0
M  V30 5226 C 483.772 -0.798773 -1.50179 0
M  V30 5227 O 484.957 -1.0591 -1.62778 0
M  V30 5228 C 482.087 -2.22893 -2.66338 0
M  V30 5229 C 481.041 -3.38649 -2.61727 0
M  V30 5230 C 480.367 -3.53708 -4.00992 0
M  V30 5231 C 481.667 -4.74323 -2.18666 0
M  V30 5232 H 483.361 -2.82363 -0.995552 0
M  V30 5233 H 480.907 -1.35854 -0.477464 0
M  V30 5234 H 482.86 -2.47866 -3.40794 0
M  V30 5235 H 481.584 -1.30733 -2.99293 0
M  V30 5236 H 480.243 -3.13685 -1.89729 0
M  V30 5237 H 479.891 -2.58967 -4.31214 0
M  V30 5238 H 479.591 -4.31551 -3.98795 0
M  V30 5239 H 481.115 -3.81003 -4.77147 0
M  V30 5240 H 482.529 -4.98665 -2.82854 0
M  V30 5241 H 480.926 -5.55273 -2.27579 0
M  V30 5242 H 481.996 -4.71349 -1.13834 0
M  V30 5243 N 483.339 0.512053 -1.4905 0
M  V30 5244 C 484.269 1.62365 -1.67809 0
M  V30 5245 C 485.25 1.61737 -0.526809 0
M  V30 5246 O 486.435 1.78651 -0.761404 0
M  V30 5247 C 483.565 3.00895 -1.73435 0
M  V30 5248 C 482.519 3.16387 -2.88242 0
M  V30 5249 C 481.845 4.56157 -2.78971 0
M  V30 5250 C 483.145 2.97457 -4.29321 0
M  V30 5251 H 484.839 1.46921 -2.60873 0
M  V30 5252 H 482.385 0.705379 -1.2554 0
M  V30 5253 H 484.338 3.78549 -1.85145 0
M  V30 5254 H 483.062 3.17403 -0.769619 0
M  V30 5255 H 481.721 2.41155 -2.76116 0
M  V30 5256 H 481.369 4.69525 -1.8043 0
M  V30 5257 H 481.069 4.67465 -3.5602 0
M  V30 5258 H 482.593 5.35886 -2.92675 0
M  V30 5259 H 484.007 3.64888 -4.42187 0
M  V30 5260 H 482.404 3.20245 -5.07507 0
M  V30 5261 H 483.474 1.93692 -4.44535 0
M  V30 5262 N 484.817 1.37938 0.762283 0
M  V30 5263 C 485.78 1.34279 1.85747 0
M  V30 5264 C 486.78 0.244969 1.58923 0
M  V30 5265 O 487.97 0.501365 1.66829 0
M  V30 5266 C 485.102 1.08833 3.23061 0
M  V30 5267 H 486.295 2.31705 1.90401 0
M  V30 5268 H 483.848 1.23105 0.963057 0
M  V30 5269 H 484.583 0.119767 3.24079 0
M  V30 5270 H 484.368 1.88306 3.43923 0
M  V30 5271 H 485.858 1.08946 4.03138 0
M  V30 5272 N 486.295 -0.989507 1.22664 0
M  V30 5273 C 487.258 -2.06183 1.00106 0
M  V30 5274 C 488.258 -1.60765 -0.0337726 0
M  V30 5275 O 489.448 -1.72989 0.205072 0
M  V30 5276 C 486.58 -3.37021 0.51279 0
M  V30 5277 H 487.773 -2.27629 1.95256 0
M  V30 5278 H 485.326 -1.16158 1.0458 0
M  V30 5279 H 486.061 -3.21261 -0.442917 0
M  V30 5280 H 485.846 -3.71323 1.25942 0
M  V30 5281 H 487.336 -4.1591 0.375315 0
M  V30 5282 N 487.773 -1.03688 -1.18687 0
M  V30 5283 C 489.05 -0.652397 -1.84399 0
M  V30 5284 C 489.43 0.868386 -1.92412 0
M  V30 5285 O 488.778 1.76832 -1.44716 0
M  V30 5286 C 488.988 -1.3238 -3.22919 0
M  V30 5287 C 490.336 -1.45216 -3.98996 0
M  V30 5288 O 491.36 -1.2816 -3.32345 0
M  V30 5289 O 490.219 -1.72975 -5.18403 0
M  V30 5290 H 487.313 -0.227793 -0.795009 0
M  V30 5291 H 489.859 -1.13553 -1.2611 0
M  V30 5292 H 488.631 -2.36202 -3.11968 0
M  V30 5293 H 488.254 -0.829039 -3.88861 0
M  V30 5294 N 489.251 1.34841 -0.815825 0
M  V30 5295 C 490.181 2.32187 -0.247298 0
M  V30 5296 C 491.162 1.5791 0.632344 0
M  V30 5297 O 492.347 1.8593 0.560698 0
M  V30 5298 C 489.477 3.42122 0.597466 0
M  V30 5299 C 488.431 4.27602 -0.184446 0
M  V30 5300 C 487.757 5.28942 0.782609 0
M  V30 5301 C 489.057 5.03502 -1.38865 0
M  V30 5302 H 490.751 2.79985 -1.06061 0
M  V30 5303 H 488.297 1.34611 -0.511461 0
M  V30 5304 H 490.25 4.09232 1.00533 0
M  V30 5305 H 488.974 2.92956 1.44376 0
M  V30 5306 H 487.633 3.62085 -0.573592 0
M  V30 5307 H 487.281 4.7604 1.62466 0
M  V30 5308 H 486.981 5.87008 0.263695 0
M  V30 5309 H 488.505 5.98922 1.18848 0
M  V30 5310 H 489.919 5.63506 -1.05518 0
M  V30 5311 H 488.316 5.71108 -1.8427 0
M  V30 5312 H 489.386 4.33608 -2.17054 0
M  V30 5313 N 490.729 0.570148 1.46925 0
M  V30 5314 C 491.659 -0.158274 2.32963 0
M  V30 5315 C 492.64 -0.896093 1.44583 0
M  V30 5316 O 493.825 -0.874022 1.7342 0
M  V30 5317 C 490.955 -1.18055 3.26619 0
M  V30 5318 C 489.909 -0.558379 4.24342 0
M  V30 5319 C 489.235 -1.68623 5.07415 0
M  V30 5320 C 490.535 0.496295 5.19937 0
M  V30 5321 H 492.229 0.560046 2.94115 0
M  V30 5322 H 489.775 0.270775 1.41431 0
M  V30 5323 H 491.728 -1.69841 3.85658 0
M  V30 5324 H 490.452 -1.92899 2.63548 0
M  V30 5325 H 489.111 -0.0617157 3.66548 0
M  V30 5326 H 488.759 -2.42402 4.40738 0
M  V30 5327 H 488.459 -1.27564 5.73586 0
M  V30 5328 H 489.983 -2.20709 5.69315 0
M  V30 5329 H 491.397 0.0640052 5.73264 0
M  V30 5330 H 489.794 0.82649 5.94381 0
M  V30 5331 H 490.864 1.38735 4.6463 0
M  V30 5332 N 492.207 -1.54576 0.307264 0
M  V30 5333 C 493.456 -1.99442 -0.300976 0
M  V30 5334 C 493.769 -1.19928 -1.5452 0
M  V30 5335 O 494.975 -1.55092 -2.22842 0
M  V30 5336 C 493.431 -3.55084 -0.586809 0
M  V30 5337 C 493.039 -4.43413 0.639438 0
M  V30 5338 C 494.783 -4.0846 -1.1559 0
M  V30 5339 C 492.69 -5.90499 0.326411 0
M  V30 5340 H 491.62 -0.744986 -0.116238 0
M  V30 5341 H 494.271 -1.787 0.416947 0
M  V30 5342 H 492.653 -3.71749 -1.36449 0
M  V30 5343 H 493.827 -4.38522 1.41545 0
M  V30 5344 H 492.142 -4.00842 1.1276 0
M  V30 5345 H 494.739 -5.15926 -1.40445 0
M  V30 5346 H 495.082 -3.59443 -2.10015 0
M  V30 5347 H 495.615 -3.95362 -0.439778 0
M  V30 5348 H 492.354 -6.43676 1.23939 0
M  V30 5349 H 491.874 -5.98382 -0.412212 0
M  V30 5350 H 493.553 -6.46962 -0.0697393 0
M  V30 5351 N 493.685 -0.035106 -1.57561 0
M  V30 5352 C 494.615 0.942993 -2.13612 0
M  V30 5353 C 495.596 1.33531 -1.05373 0
M  V30 5354 O 496.781 1.41287 -1.33235 0
M  V30 5355 C 493.911 2.22332 -2.66807 0
M  V30 5356 C 492.865 1.97156 -3.79886 0
M  V30 5357 C 492.191 3.31506 -4.19533 0
M  V30 5358 C 493.491 1.30596 -5.05709 0
M  V30 5359 H 495.185 0.476179 -2.95589 0
M  V30 5360 H 492.731 0.227602 -1.4219 0
M  V30 5361 H 494.684 2.91142 -3.04654 0
M  V30 5362 H 493.408 2.7119 -1.81999 0
M  V30 5363 H 492.067 1.30763 -3.42486 0
M  V30 5364 H 491.715 3.78134 -3.31698 0
M  V30 5365 H 491.415 3.15465 -4.95738 0
M  V30 5366 H 492.939 4.01574 -4.59968 0
M  V30 5367 H 494.353 1.89416 -5.41105 0
M  V30 5368 H 492.75 1.24934 -5.86951 0
M  V30 5369 H 493.82 0.279742 -4.84092 0
M  V30 5370 N 495.163 1.55791 0.238111 0
M  V30 5371 C 496.391 1.82098 0.982233 0
M  V30 5372 C 496.806 0.612025 1.78605 0
M  V30 5373 O 496.163 -0.419381 1.77616 0
M  V30 5374 C 496.214 3.0673 1.91309 0
M  V30 5375 O 495.935 4.2296 1.14179 0
M  V30 5376 C 497.436 3.45903 2.77248 0
M  V30 5377 H 494.656 0.605748 0.288635 0
M  V30 5378 H 497.2 2.02862 0.258341 0
M  V30 5379 H 495.355 2.87991 2.59114 0
M  V30 5380 H 495.769 4.93653 1.7722 0
M  V30 5381 H 497.243 4.36189 3.38295 0
M  V30 5382 H 497.72 2.66891 3.48806 0
M  V30 5383 H 498.326 3.67024 2.14881 0
M  V30 5384 N 496.642 -0.504142 1.49319 0
M  V30 5385 C 497.888 -1.25767 1.59857 0
M  V30 5386 C 498.243 -1.90348 0.280262 0
M  V30 5387 O 497.536 -1.77588 -0.719241 0
M  V30 5388 C 497.73 -2.35021 2.69258 0
M  V30 5389 C 497.559 -1.81154 4.11598 0
M  V30 5390 C 496.329 -1.62596 4.78425 0
M  V30 5391 C 498.527 -1.3252 4.96934 0
M  V30 5392 N 496.509 -1.03625 6.05091 0
M  V30 5393 C 497.88 -0.856633 6.14054 0
M  V30 5394 C 499.935 -1.21063 4.82958 0
M  V30 5395 C 498.638 -0.284841 7.18736 0
M  V30 5396 C 500.664 -0.652815 5.87786 0
M  V30 5397 C 500.026 -0.194461 7.04132 0
M  V30 5398 H 496.125 -0.450293 0.639343 0
M  V30 5399 H 498.709 -0.565344 1.86311 0
M  V30 5400 H 496.88 -3.01719 2.44581 0
M  V30 5401 H 498.612 -3.02061 2.69335 0
M  V30 5402 H 495.367 -1.86873 4.35173 0
M  V30 5403 H 495.791 -0.76076 6.72712 0
M  V30 5404 H 500.433 -1.551 3.93324 0
M  V30 5405 H 498.151 0.0677979 8.08072 0
M  V30 5406 H 501.737 -0.566994 5.79031 0
M  V30 5407 H 500.617 0.230442 7.83861 0
M  V30 5408 N 498.12 -1.38341 -0.754957 0
M  V30 5409 C 499.369 -1.33791 -1.5094 0
M  V30 5410 C 499.682 0.0699267 -1.95475 0
M  V30 5411 O 500.888 0.237956 -2.70455 0
M  V30 5412 C 499.344 -2.34934 -2.72643 0
M  V30 5413 C 498.952 -3.81332 -2.35138 0
M  V30 5414 C 500.696 -2.39425 -3.50536 0
M  V30 5415 C 498.603 -4.74164 -3.53444 0
M  V30 5416 H 497.533 -0.497314 -0.566741 0
M  V30 5417 H 500.184 -1.63888 -0.825403 0
M  V30 5418 H 498.566 -1.97878 -3.43017 0
M  V30 5419 H 499.74 -4.27319 -1.7244 0
M  V30 5420 H 498.055 -3.79946 -1.70382 0
M  V30 5421 H 500.652 -3.0598 -4.38498 0
M  V30 5422 H 500.995 -1.41278 -3.91594 0
M  V30 5423 H 501.528 -2.75274 -2.87174 0
M  V30 5424 H 498.267 -5.73501 -3.17453 0
M  V30 5425 H 497.787 -4.3287 -4.15191 0
M  V30 5426 H 499.466 -4.92111 -4.20043 0
M  V30 5427 N 499.598 0.982988 -1.23187 0
M  V30 5428 C 500.846 1.72052 -1.06031 0
M  V30 5429 C 501.167 1.90769 0.404019 0
M  V30 5430 O 500.437 1.47446 1.28982 0
M  V30 5431 H 499.017 0.637499 -0.389363 0
M  V30 5432 H 501.679 1.18338 -1.54862 0
M  V30 5433 H 500.775 2.7111 -1.54615 0
M  V30 5434 N 501.076 1.04316 1.18135 0
M  V30 5435 C 502.324 0.746542 1.87806 0
M  V30 5436 C 502.645 -0.728082 1.80898 0
M  V30 5437 O 501.915 -1.52554 1.22899 0
M  V30 5438 H 500.495 0.273157 0.695265 0
M  V30 5439 H 503.157 1.32044 1.43354 0
M  V30 5440 H 502.253 1.05362 2.93778 0
M  V30 5441 N 502.554 -1.34406 0.822964 0
M  V30 5442 C 503.486 -2.28305 0.202375 0
M  V30 5443 C 504.499 -1.5103 -0.60777 0
M  V30 5444 O 505.688 -1.73057 -0.437444 0
M  V30 5445 C 502.788 -3.30836 -0.734911 0
M  V30 5446 C 501.961 -4.37388 0.0324177 0
M  V30 5447 C 501.02 -5.1968 -0.825803 0
M  V30 5448 O 500.046 -5.68556 -0.270771 0
M  V30 5449 N 501.248 -5.39393 -2.14558 0
M  V30 5450 H 504.013 -2.82201 1.00909 0
M  V30 5451 H 501.574 -1.4693 0.67993 0
M  V30 5452 H 503.566 -3.82786 -1.31365 0
M  V30 5453 H 502.136 -2.77334 -1.44238 0
M  V30 5454 H 501.356 -3.86152 0.792469 0
M  V30 5455 H 502.644 -5.05702 0.560633 0
M  V30 5456 H 502.042 -5.01357 -2.62025 0
M  V30 5457 H 500.599 -5.94461 -2.67318 0
M  V30 5458 N 504.032 -0.577932 -1.46621 0
M  V30 5459 C 505.443 -0.150071 -1.86096 0
M  V30 5460 C 505.794 1.28563 -1.48209 0
M  V30 5461 O 504.919 1.97036 -0.894754 0
M  V30 5462 C 505.514 -0.265576 -3.37758 0
M  V30 5463 C 504.073 0.10738 -3.76247 0
M  V30 5464 C 503.22 -0.603711 -2.70649 0
M  V30 5465 H 506.171 -0.786438 -1.37844 0
M  V30 5466 H 506.192 0.510352 -3.77062 0
M  V30 5467 H 505.704 -1.3106 -3.65301 0
M  V30 5468 H 503.805 1.15272 -3.54321 0
M  V30 5469 H 503.918 -0.26561 -4.78363 0
M  V30 5470 H 502.282 -0.0444884 -2.54661 0
M  V30 5471 H 503.065 -1.65029 -3.01032 0
M  V30 5472 N 505.51 1.54411 -0.315457 0
M  V30 5473 C 506.756 2.00716 0.289972 0
M  V30 5474 C 507.089 1.2034 1.5242 0
M  V30 5475 O 506.364 0.283579 1.92422 0
M  V30 5476 C 506.647 3.54507 0.632196 0
M  V30 5477 C 506.5 4.45615 -0.61218 0
M  V30 5478 C 507.819 4.15421 1.45305 0
M  V30 5479 H 504.938 0.729637 0.10392 0
M  V30 5480 H 507.58 1.8506 -0.430427 0
M  V30 5481 H 505.73 3.67979 1.24595 0
M  V30 5482 H 507.402 4.44026 -1.25053 0
M  V30 5483 H 505.645 4.15621 -1.24264 0
M  V30 5484 H 506.316 5.51022 -0.328379 0
M  V30 5485 H 508.792 4.05474 0.934331 0
M  V30 5486 H 507.668 5.23157 1.66127 0
M  V30 5487 H 507.929 3.68223 2.44671 0
M  V30 5488 N 506.988 0.0434614 1.5754 0
M  V30 5489 C 508.213 -0.645358 1.97104 0
M  V30 5490 C 508.638 -1.64037 0.920521 0
M  V30 5491 O 507.996 -1.80922 -0.11708 0
M  V30 5492 C 508.044 -1.31547 3.35749 0
M  V30 5493 O 507.148 -2.43103 3.33129 0
M  V30 5494 H 506.489 -0.168403 0.64229 0
M  V30 5495 H 509.019 0.109573 2.04306 0
M  V30 5496 H 509.029 -1.66895 3.72304 0
M  V30 5497 H 507.704 -0.586205 4.11748 0
M  V30 5498 H 506.281 -2.0976 3.0831 0
M  V30 5499 N 508.466 -1.55915 -0.229846 0
M  V30 5500 C 509.696 -1.82352 -0.971152 0
M  V30 5501 C 510.104 -0.619231 -1.7878 0
M  V30 5502 O 509.447 0.421597 -1.78797 0
M  V30 5503 C 509.509 -3.02399 -1.9441 0
M  V30 5504 C 509.173 -4.37739 -1.31277 0
M  V30 5505 C 510.17 -5.15074 -0.706757 0
M  V30 5506 C 507.855 -4.84454 -1.32702 0
M  V30 5507 C 509.849 -6.37281 -0.123413 0
M  V30 5508 C 507.536 -6.06605 -0.739831 0
M  V30 5509 C 508.534 -6.82858 -0.139071 0
M  V30 5510 O 508.222 -8.027 0.439007 0
M  V30 5511 H 507.954 -0.61035 -0.290601 0
M  V30 5512 H 510.508 -2.03839 -0.252746 0
M  V30 5513 H 508.738 -2.76709 -2.70128 0
M  V30 5514 H 510.427 -3.15779 -2.55026 0
M  V30 5515 H 511.193 -4.80093 -0.688131 0
M  V30 5516 H 507.072 -4.25081 -1.78402 0
M  V30 5517 H 510.616 -6.96741 0.346124 0
M  V30 5518 H 506.513 -6.4106 -0.755841 0
M  V30 5519 H 507.281 -8.17824 0.332521 0
M  V30 5520 N 509.944 0.496216 -1.49584 0
M  V30 5521 C 511.355 1.07765 -1.52459 0
M  V30 5522 C 511.706 1.93679 -0.31353 0
M  V30 5523 O 510.831 2.08588 0.576186 0
M  V30 5524 C 511.426 1.96111 -2.76271 0
M  V30 5525 C 509.985 2.49409 -2.81908 0
M  V30 5526 C 509.132 1.27142 -2.46435 0
M  V30 5527 H 512.083 0.279914 -1.56212 0
M  V30 5528 H 512.104 2.80862 -2.56704 0
M  V30 5529 H 511.616 1.33555 -3.64396 0
M  V30 5530 H 509.717 3.1559 -1.98074 0
M  V30 5531 H 509.83 2.86234 -3.84196 0
M  V30 5532 H 508.194 1.59818 -1.98319 0
M  V30 5533 H 508.977 0.662866 -3.3684 0
M  V30 5534 N 511.423 1.38739 0.74761 0
M  V30 5535 C 512.67 1.35274 1.50689 0
M  V30 5536 C 512.998 -0.0553359 1.94421 0
M  V30 5537 O 512.253 -1.03365 1.66175 0
M  V30 5538 C 512.552 2.25992 2.7688 0
M  V30 5539 C 512.218 3.73854 2.5208 0
M  V30 5540 C 510.88 4.14145 2.45025 0
M  V30 5541 C 513.232 4.67427 2.30568 0
M  V30 5542 C 510.56 5.4609 2.14483 0
M  V30 5543 C 512.912 5.99635 2.01545 0
M  V30 5544 C 511.576 6.39004 1.92951 0
M  V30 5545 H 510.846 0.495003 0.55141 0
M  V30 5546 H 513.493 1.71145 0.859158 0
M  V30 5547 H 511.798 1.83196 3.46333 0
M  V30 5548 H 513.495 2.20611 3.34861 0
M  V30 5549 H 510.085 3.41913 2.58444 0
M  V30 5550 H 514.269 4.3714 2.34994 0
M  V30 5551 H 509.525 5.75528 2.06342 0
M  V30 5552 H 513.699 6.71678 1.83906 0
M  V30 5553 H 511.326 7.41165 1.6905 0
M  V30 5554 N 512.901 -0.976442 1.23707 0
M  V30 5555 C 514.129 -1.75341 1.09833 0
M  V30 5556 C 514.544 -1.8553 -0.349885 0
M  V30 5557 O 513.901 -1.33732 -1.24185 0
M  V30 5558 C 513.952 -3.17833 1.72233 0
M  V30 5559 O 513.673 -3.08167 3.11391 0
M  V30 5560 C 515.174 -4.11906 1.63853 0
M  V30 5561 H 512.394 -0.550137 0.384175 0
M  V30 5562 H 514.938 -1.2265 1.63638 0
M  V30 5563 H 513.093 -3.67538 1.22452 0
M  V30 5564 H 513.507 -3.97897 3.41729 0
M  V30 5565 H 514.981 -5.09579 2.12211 0
M  V30 5566 H 515.458 -4.35109 0.598092 0
M  V30 5567 H 516.064 -3.68107 2.13019 0
M  V30 5568 N 514.379 -1.04941 -1.1758 0
M  V30 5569 C 515.628 -0.753124 -1.87112 0
M  V30 5570 C 515.941 0.722507 -1.81767 0
M  V30 5571 O 517.147 1.13265 -2.46746 0
M  V30 5572 C 515.603 -1.29695 -3.35719 0
M  V30 5573 C 515.211 -2.80184 -3.49572 0
M  V30 5574 C 516.955 -1.07759 -4.10595 0
M  V30 5575 C 514.862 -3.2788 -4.92187 0
M  V30 5576 H 513.792 -0.278034 -0.700866 0
M  V30 5577 H 516.443 -1.26637 -1.32798 0
M  V30 5578 H 514.825 -0.711522 -3.89555 0
M  V30 5579 H 515.999 -3.44561 -3.05965 0
M  V30 5580 H 514.314 -3.00632 -2.88113 0
M  V30 5581 H 516.911 -1.40899 -5.15802 0
M  V30 5582 H 517.254 -0.0152302 -4.16297 0
M  V30 5583 H 517.787 -1.62809 -3.62957 0
M  V30 5584 H 514.526 -4.33535 -4.91658 0
M  V30 5585 H 514.046 -2.68245 -5.36475 0
M  V30 5586 H 515.725 -3.22412 -5.60945 0
M  V30 5587 N 515.857 1.33968 -0.830081 0
M  V30 5588 C 517.106 1.97323 -0.417928 0
M  V30 5589 C 517.419 1.6652 1.02618 0
M  V30 5590 O 518.625 2.2342 1.54259 0
M  V30 5591 C 517.081 3.53099 -0.696359 0
M  V30 5592 C 516.689 3.92788 -2.15457 0
M  V30 5593 C 518.433 4.23049 -0.350724 0
M  V30 5594 C 516.34 5.41506 -2.37751 0
M  V30 5595 H 515.27 0.738409 -0.152541 0
M  V30 5596 H 517.921 1.52711 -1.01744 0
M  V30 5597 H 516.303 3.95991 -0.0265904 0
M  V30 5598 H 517.477 3.6098 -2.86408 0
M  V30 5599 H 515.792 3.35795 -2.46232 0
M  V30 5600 H 518.389 5.32403 -0.495036 0
M  V30 5601 H 518.732 4.10279 0.705476 0
M  V30 5602 H 519.265 3.85657 -0.975362 0
M  V30 5603 H 516.004 5.5927 -3.41903 0
M  V30 5604 H 515.524 5.74804 -1.7135 0
M  V30 5605 H 517.203 6.0828 -2.20465 0
M  V30 5606 N 517.335 0.585699 1.46312 0
M  V30 5607 C 518.583 0.072278 2.01971 0
M  V30 5608 C 518.904 -1.29345 1.45928 0
M  V30 5609 O 518.174 -1.84973 0.645109 0
M  V30 5610 H 516.754 0.023729 0.746623 0
M  V30 5611 H 519.416 0.762155 1.7938 0
M  V30 5612 H 518.512 0.00552767 3.121 0
M  V30 5613 N 518.813 -1.54241 0.323641 0
M  V30 5614 C 519.745 -2.21836 -0.576311 0
M  V30 5615 C 520.758 -1.21837 -1.07979 0
M  V30 5616 O 521.947 -1.48306 -0.99336 0
M  V30 5617 C 519.047 -2.86923 -1.80356 0
M  V30 5618 C 518.22 -4.1306 -1.43875 0
M  V30 5619 C 517.279 -4.6174 -2.52353 0
M  V30 5620 O 516.305 -5.26421 -2.16494 0
M  V30 5621 N 517.507 -4.35974 -3.83284 0
M  V30 5622 H 520.272 -2.997 0.00247987 0
M  V30 5623 H 517.833 -1.61233 0.146848 0
M  V30 5624 H 519.825 -3.16414 -2.52318 0
M  V30 5625 H 518.395 -2.12765 -2.29019 0
M  V30 5626 H 517.615 -3.90334 -0.550752 0
M  V30 5627 H 518.903 -4.95148 -1.17071 0
M  V30 5628 H 518.301 -3.84203 -4.15216 0
M  V30 5629 H 516.858 -4.70119 -4.51477 0
M  V30 5630 N 520.291 -0.0518155 -1.57515 0
M  V30 5631 C 521.537 0.622745 -1.93002 0
M  V30 5632 C 521.87 1.70456 -0.930499 0
M  V30 5633 O 521.145 1.94452 0.0434086 0
M  V30 5634 C 521.428 1.21824 -3.38867 0
M  V30 5635 C 521.281 0.144434 -4.49568 0
M  V30 5636 C 522.6 2.12968 -3.8514 0
M  V30 5637 H 519.719 0.22491 -0.701844 0
M  V30 5638 H 522.361 -0.113711 -1.89659 0
M  V30 5639 H 520.511 1.8459 -3.41846 0
M  V30 5640 H 522.183 -0.48753 -4.58717 0
M  V30 5641 H 520.426 -0.527424 -4.30582 0
M  V30 5642 H 521.097 0.601127 -5.48717 0
M  V30 5643 H 523.573 1.60163 -3.8404 0
M  V30 5644 H 522.449 2.51578 -4.87852 0
M  V30 5645 H 522.71 3.03004 -3.21934 0
M  V30 5646 N 521.769 1.56035 0.221574 0
M  V30 5647 C 522.732 1.91584 1.2581 0
M  V30 5648 C 523.732 0.794425 1.39805 0
M  V30 5649 O 524.922 1.06217 1.38071 0
M  V30 5650 C 522.054 2.16663 2.63192 0
M  V30 5651 H 523.247 2.8429 0.954935 0
M  V30 5652 H 520.8 1.49316 0.461988 0
M  V30 5653 H 521.535 1.26508 2.98607 0
M  V30 5654 H 521.32 2.98358 2.5441 0
M  V30 5655 H 522.81 2.45262 3.37988 0
M  V30 5656 N 523.247 -0.488276 1.49845 0
M  V30 5657 C 524.472 -1.26997 1.63971 0
M  V30 5658 C 524.897 -1.85427 0.315994 0
M  V30 5659 O 524.255 -1.66475 -0.718032 0
M  V30 5660 C 524.303 -2.36689 2.72049 0
M  V30 5661 O 523.407 -3.40882 2.32107 0
M  V30 5662 H 522.748 -0.374376 0.548396 0
M  V30 5663 H 525.278 -0.583104 1.96115 0
M  V30 5664 H 525.288 -2.82262 2.94605 0
M  V30 5665 H 523.963 -1.93529 3.68129 0
M  V30 5666 H 522.54 -3.01139 2.19931 0
M  V30 5667 N 524.725 -1.39134 -0.740242 0
M  V30 5668 C 525.971 -1.36273 -1.50192 0
M  V30 5669 C 526.304 0.0430136 -1.94152 0
M  V30 5670 O 525.579 1.00691 -1.66408 0
M  V30 5671 C 525.862 -2.33041 -2.74525 0
M  V30 5672 C 525.715 -3.82535 -2.36617 0
M  V30 5673 C 527.034 -2.27723 -3.76604 0
M  V30 5674 H 524.153 -0.496323 -0.544823 0
M  V30 5675 H 526.795 -1.70085 -0.846815 0
M  V30 5676 H 524.945 -2.04337 -3.30422 0
M  V30 5677 H 526.617 -4.21967 -1.86391 0
M  V30 5678 H 524.86 -3.99565 -1.68909 0
M  V30 5679 H 525.531 -4.45723 -3.2563 0
M  V30 5680 H 528.007 -2.53091 -3.30279 0
M  V30 5681 H 526.883 -2.97519 -4.61274 0
M  V30 5682 H 527.144 -1.28049 -4.2315 0
M  V30 5683 N 526.204 0.969867 -1.24223 0
M  V30 5684 C 527.134 2.08191 -1.05729 0
M  V30 5685 C 528.115 1.70075 0.0290765 0
M  V30 5686 O 529.3 1.93712 -0.137583 0
M  V30 5687 C 526.43 3.40991 -0.658995 0
M  V30 5688 C 525.384 3.93054 -1.69389 0
M  V30 5689 C 524.71 5.22171 -1.15072 0
M  V30 5690 C 526.01 4.21137 -3.08935 0
M  V30 5691 H 527.704 2.23921 -1.98746 0
M  V30 5692 H 525.25 1.07602 -0.956967 0
M  V30 5693 H 527.203 4.18221 -0.51662 0
M  V30 5694 H 525.927 3.25155 0.30686 0
M  V30 5695 H 524.586 3.17977 -1.82444 0
M  V30 5696 H 524.234 5.02694 -0.175539 0
M  V30 5697 H 523.934 5.57973 -1.84229 0
M  V30 5698 H 525.458 6.02013 -1.02042 0
M  V30 5699 H 526.872 4.8908 -2.99121 0
M  V30 5700 H 525.269 4.68163 -3.75425 0
M  V30 5701 H 526.339 3.27996 -3.57137 0
M  V30 5702 N 527.682 1.05563 1.17022 0
M  V30 5703 C 528.912 0.787307 1.91011 0
M  V30 5704 C 529.32 -0.661256 1.77268 0
M  V30 5705 O 528.663 -1.46379 1.10991 0
M  V30 5706 C 528.725 1.09313 3.42478 0
M  V30 5707 C 528.389 2.53863 3.80004 0
M  V30 5708 C 529.386 3.52081 3.82538 0
M  V30 5709 C 527.071 2.88969 4.10855 0
M  V30 5710 C 529.065 4.83449 4.15399 0
M  V30 5711 C 526.752 4.2054 4.43384 0
M  V30 5712 C 527.75 5.17589 4.45635 0
M  V30 5713 O 527.438 6.46799 4.77395 0
M  V30 5714 H 527.17 0.285463 0.61277 0
M  V30 5715 H 529.724 1.41051 1.49311 0
M  V30 5716 H 527.954 0.412833 3.8449 0
M  V30 5717 H 529.643 0.810224 3.97731 0
M  V30 5718 H 530.409 3.26299 3.58823 0
M  V30 5719 H 526.288 2.1409 4.08272 0
M  V30 5720 H 529.832 5.59194 4.1707 0
M  V30 5721 H 525.729 4.46083 4.66563 0
M  V30 5722 H 526.497 6.51677 4.95237 0
M  V30 5723 N 529.16 -1.33526 0.837174 0
M  V30 5724 C 530.407 -1.97837 0.432064 0
M  V30 5725 C 530.735 -1.66324 -1.00829 0
M  V30 5726 O 529.99 -0.93448 -1.71948 0
M  V30 5727 C 530.289 -3.52367 0.597675 0
M  V30 5728 C 529.955 -4.03826 2.00587 0
M  V30 5729 C 528.617 -4.1759 2.39106 0
M  V30 5730 C 530.969 -4.31333 2.92576 0
M  V30 5731 C 528.297 -4.56195 3.68921 0
M  V30 5732 C 530.649 -4.7139 4.2187 0
M  V30 5733 C 529.313 -4.8336 4.60347 0
M  V30 5734 H 528.583 -0.723937 0.158104 0
M  V30 5735 H 531.23 -1.5923 1.06387 0
M  V30 5736 H 529.535 -3.91624 -0.117452 0
M  V30 5737 H 531.232 -4.00126 0.26454 0
M  V30 5738 H 527.822 -3.93586 1.69671 0
M  V30 5739 H 532.006 -4.20224 2.64056 0
M  V30 5740 H 527.262 -4.63655 3.9854 0
M  V30 5741 H 531.436 -4.91631 4.93226 0
M  V30 5742 H 529.063 -5.1303 5.60985 0
M  V30 5743 N 530.638 -0.59345 -1.46 0
M  V30 5744 C 531.866 -0.0890934 -2.06708 0
M  V30 5745 C 532.281 1.2205 -1.44046 0
M  V30 5746 O 531.638 1.74029 -0.549551 0
M  V30 5747 C 531.689 0.0720263 -3.61428 0
M  V30 5748 O 531.41 -1.18574 -4.21748 0
M  V30 5749 C 532.911 0.609487 -4.3909 0
M  V30 5750 H 530.131 -0.0623628 -0.668096 0
M  V30 5751 H 532.675 -0.817171 -1.87464 0
M  V30 5752 H 530.83 0.750369 -3.80063 0
M  V30 5753 H 531.244 -1.0064 -5.14754 0
M  V30 5754 H 532.718 0.671363 -5.47902 0
M  V30 5755 H 533.195 1.62878 -4.07882 0
M  V30 5756 H 533.801 -0.03434 -4.25286 0
M  V30 5757 N 532.116 1.54067 -0.331816 0
M  V30 5758 C 533.344 2.05131 0.269996 0
M  V30 5759 C 533.759 1.20749 1.45138 0
M  V30 5760 O 533.116 0.240069 1.80914 0
M  V30 5761 C 533.167 3.54728 0.696456 0
M  V30 5762 O 532.888 4.35906 -0.43794 0
M  V30 5763 C 534.389 4.21916 1.36021 0
M  V30 5764 H 531.609 0.668807 0.0542042 0
M  V30 5765 H 534.153 1.98777 -0.4804 0
M  V30 5766 H 532.308 3.61342 1.39681 0
M  V30 5767 H 532.722 5.24404 -0.100334 0
M  V30 5768 H 534.196 5.28015 1.60947 0
M  V30 5769 H 534.673 3.73538 2.31011 0
M  V30 5770 H 535.279 4.19463 0.702212 0
M  V30 5771 N 533.594 0.0601682 1.57485 0
M  V30 5772 C 534.843 -0.611101 1.9222 0
M  V30 5773 C 535.156 -1.71469 0.941159 0
M  V30 5774 O 536.362 -2.44473 1.18089 0
M  V30 5775 C 534.818 -1.13832 3.41424 0
M  V30 5776 C 534.426 -0.0663596 4.47951 0
M  V30 5777 C 536.17 -1.78432 3.85178 0
M  V30 5778 C 534.077 -0.606965 5.88277 0
M  V30 5779 H 533.007 -0.232033 0.71741 0
M  V30 5780 H 535.658 0.130518 1.83035 0
M  V30 5781 H 534.04 -1.93254 3.45643 0
M  V30 5782 H 535.214 0.707682 4.55333 0
M  V30 5783 H 533.529 0.482715 4.13593 0
M  V30 5784 H 536.126 -2.1989 4.87394 0
M  V30 5785 H 536.469 -2.63966 3.21913 0
M  V30 5786 H 537.002 -1.05651 3.83514 0
M  V30 5787 H 533.741 0.21095 6.5516 0
M  V30 5788 H 533.261 -1.34879 5.84438 0
M  V30 5789 H 534.94 -1.08704 6.37803 0
M  V30 5790 N 535.072 -1.5615 -0.213296 0
M  V30 5791 C 536.002 -1.96109 -1.26742 0
M  V30 5792 C 536.983 -0.830448 -1.48451 0
M  V30 5793 O 538.168 -1.09339 -1.60495 0
M  V30 5794 C 535.298 -2.28492 -2.61551 0
M  V30 5795 C 534.252 -3.44124 -2.54485 0
M  V30 5796 C 533.578 -3.62134 -3.93399 0
M  V30 5797 C 534.878 -4.78855 -2.08556 0
M  V30 5798 H 536.572 -2.84412 -0.935434 0
M  V30 5799 H 534.118 -1.36836 -0.44854 0
M  V30 5800 H 536.071 -2.55039 -3.3546 0
M  V30 5801 H 534.795 -1.37052 -2.96453 0
M  V30 5802 H 533.454 -3.17639 -1.83033 0
M  V30 5803 H 533.102 -2.68055 -4.25623 0
M  V30 5804 H 532.802 -4.39913 -3.89551 0
M  V30 5805 H 534.326 -3.91038 -4.68958 0
M  V30 5806 H 535.74 -5.04552 -2.72213 0
M  V30 5807 H 534.137 -5.59975 -2.1575 0
M  V30 5808 H 535.207 -4.73657 -1.03811 0
M  V30 5809 N 536.55 0.480323 -1.50102 0
M  V30 5810 C 537.799 1.22979 -1.59872 0
M  V30 5811 C 538.112 1.93282 -0.30022 0
M  V30 5812 O 539.318 2.70086 -0.276709 0
M  V30 5813 C 537.774 2.23408 -2.82164 0
M  V30 5814 C 537.382 1.5895 -4.18854 0
M  V30 5815 C 539.126 2.99055 -3.01275 0
M  V30 5816 C 537.033 2.57611 -5.32344 0
M  V30 5817 H 535.963 0.462707 -0.59533 0
M  V30 5818 H 538.614 0.501291 -1.7652 0
M  V30 5819 H 536.996 2.99511 -2.59055 0
M  V30 5820 H 538.17 0.887 -4.52182 0
M  V30 5821 H 536.485 0.956191 -4.05273 0
M  V30 5822 H 539.082 3.72876 -3.83233 0
M  V30 5823 H 539.425 3.57897 -2.12639 0
M  V30 5824 H 539.958 2.30066 -3.24522 0
M  V30 5825 H 536.697 2.03521 -6.23105 0
M  V30 5826 H 536.217 3.26041 -5.03445 0
M  V30 5827 H 537.896 3.19627 -5.62537 0
M  V30 5828 N 538.028 1.39524 0.732853 0
M  V30 5829 C 538.958 1.41153 1.86005 0
M  V30 5830 C 539.939 0.274614 1.67869 0
M  V30 5831 O 541.124 0.480745 1.88155 0
M  V30 5832 C 538.254 1.25638 3.23778 0
M  V30 5833 C 537.208 2.36752 3.56556 0
M  V30 5834 C 536.534 2.06326 4.93289 0
M  V30 5835 C 537.834 3.79069 3.5931 0
M  V30 5836 H 539.528 2.35484 1.84899 0
M  V30 5837 H 537.074 1.13348 0.888162 0
M  V30 5838 H 539.027 1.25398 4.0231 0
M  V30 5839 H 537.751 0.277772 3.25417 0
M  V30 5840 H 536.41 2.36213 2.80355 0
M  V30 5841 H 536.058 1.06897 4.9151 0
M  V30 5842 H 535.758 2.80757 5.16187 0
M  V30 5843 H 537.282 2.07739 5.74175 0
M  V30 5844 H 538.696 3.81526 4.27914 0
M  V30 5845 H 537.093 4.52878 3.93728 0
M  V30 5846 H 538.163 4.09893 2.59068 0
M  V30 5847 N 539.506 -0.963266 1.24736 0
M  V30 5848 C 540.439 -2.05758 0.986852 0
M  V30 5849 C 541.417 -1.62398 -0.0809272 0
M  V30 5850 O 542.601 -1.88414 0.0569347 0
M  V30 5851 C 539.728 -3.35135 0.490095 0
M  V30 5852 C 538.774 -3.97451 1.54709 0
M  V30 5853 S 539.607 -4.34519 3.12976 0
M  V30 5854 C 540.763 -5.67026 2.65014 0
M  V30 5855 H 540.996 -2.27539 1.91346 0
M  V30 5856 H 538.529 -1.10176 1.08169 0
M  V30 5857 H 540.487 -4.09962 0.21012 0
M  V30 5858 H 539.148 -3.11335 -0.415873 0
M  V30 5859 H 538.341 -4.90704 1.15003 0
M  V30 5860 H 537.943 -3.29071 1.77731 0
M  V30 5861 H 540.235 -6.44748 2.08102 0
M  V30 5862 H 541.178 -6.11594 3.56873 0
M  V30 5863 H 541.586 -5.25847 2.05294 0
M  V30 5864 N 540.985 -1.06182 -1.16461 0
M  V30 5865 C 542.396 -0.802426 -1.68576 0
M  V30 5866 C 542.747 0.67412 -1.84255 0
M  V30 5867 O 541.872 1.52303 -1.5373 0
M  V30 5868 C 542.467 -1.45002 -3.06202 0
M  V30 5869 C 541.026 -1.23843 -3.55443 0
M  V30 5870 C 540.173 -1.52724 -2.31454 0
M  V30 5871 H 543.124 -1.22545 -1.00839 0
M  V30 5872 H 543.145 -0.864731 -3.70544 0
M  V30 5873 H 542.657 -2.52466 -2.94759 0
M  V30 5874 H 540.758 -0.183487 -3.72148 0
M  V30 5875 H 540.871 -1.95036 -4.37604 0
M  V30 5876 H 539.235 -0.947726 -2.36411 0
M  V30 5877 H 540.018 -2.61343 -2.22609 0
M  V30 5878 N 542.463 1.3308 -0.844243 0
M  V30 5879 C 543.691 2.01808 -0.456203 0
M  V30 5880 C 544.106 1.63498 0.944131 0
M  V30 5881 O 543.463 0.85102 1.61443 0
M  V30 5882 C 543.514 3.56922 -0.573513 0
M  V30 5883 O 543.235 3.93851 -1.91868 0
M  V30 5884 C 544.736 4.42922 -0.183125 0
M  V30 5885 H 541.956 0.646273 -0.180477 0
M  V30 5886 H 544.5 1.69891 -1.1383 0
M  V30 5887 H 542.655 3.87352 0.0607367 0
M  V30 5888 H 543.069 4.88564 -1.90802 0
M  V30 5889 H 544.543 5.51093 -0.316241 0
M  V30 5890 H 545.02 4.30386 0.875477 0
M  V30 5891 H 545.626 4.1786 -0.792027 0
M  V30 5892 N 543.941 0.601185 1.45683 0
M  V30 5893 C 545.19 0.0914953 2.01492 0
M  V30 5894 C 545.503 -1.28331 1.47616 0
M  V30 5895 O 546.709 -1.88537 1.95362 0
M  V30 5896 C 545.165 0.11291 3.59723 0
M  V30 5897 C 544.773 1.48717 4.22596 0
M  V30 5898 C 546.517 -0.341871 4.23121 0
M  V30 5899 C 544.424 1.46531 5.7296 0
M  V30 5900 H 543.354 0.0304365 0.753385 0
M  V30 5901 H 546.005 0.755568 1.67223 0
M  V30 5902 H 544.387 -0.617692 3.91153 0
M  V30 5903 H 545.561 2.23897 4.02749 0
M  V30 5904 H 543.876 1.88351 3.71366 0
M  V30 5905 H 546.473 -0.377304 5.33367 0
M  V30 5906 H 546.816 -1.36325 3.93346 0
M  V30 5907 H 547.349 0.335256 3.96385 0
M  V30 5908 H 544.088 2.46408 6.07423 0
M  V30 5909 H 543.608 0.755997 5.95017 0
M  V30 5910 H 545.287 1.18618 6.36034 0
M  V30 5911 N 545.419 -1.53889 0.339982 0
M  V30 5912 C 546.644 -2.05741 -0.261798 0
M  V30 5913 C 547.069 -1.21354 -1.43718 0
M  V30 5914 O 546.427 -0.22645 -1.7988 0
M  V30 5915 C 546.475 -3.54542 -0.658228 0
M  V30 5916 O 545.579 -3.7302 -1.75869 0
M  V30 5917 H 544.92 -0.662529 -0.0441672 0
M  V30 5918 H 547.45 -1.98568 0.493161 0
M  V30 5919 H 547.46 -3.9711 -0.936368 0
M  V30 5920 H 546.135 -4.15412 0.201358 0
M  V30 5921 H 544.712 -3.42355 -1.47809 0
M  V30 5922 N 546.897 -0.0685191 -1.57451 0
M  V30 5923 C 547.827 0.89747 -2.15564 0
M  V30 5924 C 548.808 1.31266 -1.08181 0
M  V30 5925 O 549.993 1.38429 -1.36202 0
M  V30 5926 C 547.123 2.16623 -2.71463 0
M  V30 5927 C 546.077 1.89054 -3.83982 0
M  V30 5928 C 545.403 3.22532 -4.26471 0
M  V30 5929 C 546.703 1.1984 -5.08366 0
M  V30 5930 H 548.397 0.413373 -2.96533 0
M  V30 5931 H 545.943 0.197391 -1.42641 0
M  V30 5932 H 547.896 2.84614 -3.10761 0
M  V30 5933 H 546.62 2.67269 -1.8771 0
M  V30 5934 H 545.279 1.23469 -3.45183 0
M  V30 5935 H 544.927 3.71013 -3.39644 0
M  V30 5936 H 544.627 3.04879 -5.02317 0
M  V30 5937 H 546.151 3.91727 -4.68383 0
M  V30 5938 H 547.565 1.77896 -5.45001 0
M  V30 5939 H 545.962 1.12456 -5.89469 0
M  V30 5940 H 547.032 0.176996 -4.84577 0
M  V30 5941 N 548.375 1.56261 0.205012 0
M  V30 5942 C 549.624 1.79236 0.925058 0
M  V30 5943 C 549.937 0.640011 1.84833 0
M  V30 5944 O 551.143 0.753809 2.60826 0
M  V30 5945 C 549.599 3.17475 1.69522 0
M  V30 5946 C 549.207 4.40482 0.817269 0
M  V30 5947 C 550.951 3.49766 2.4055 0
M  V30 5948 C 548.858 5.69744 1.58573 0
M  V30 5949 H 547.788 0.668287 0.349153 0
M  V30 5950 H 550.439 1.82629 0.178544 0
M  V30 5951 H 548.821 3.08304 2.48526 0
M  V30 5952 H 549.995 4.60752 0.0665988 0
M  V30 5953 H 548.31 4.15827 0.218316 0
M  V30 5954 H 550.907 4.43573 2.98575 0
M  V30 5955 H 551.25 2.73041 3.14252 0
M  V30 5956 H 551.783 3.60341 1.68522 0
M  V30 5957 H 548.522 6.49407 0.891679 0
M  V30 5958 H 548.042 5.53509 2.31059 0
M  V30 5959 H 549.721 6.1051 2.14212 0
M  V30 5960 N 549.853 -0.472356 1.50355 0
M  V30 5961 C 550.763 -1.59637 1.7191 0
M  V30 5962 C 551.779 -1.63247 0.602195 0
M  V30 5963 O 552.955 -1.81139 0.880369 0
M  V30 5964 C 550.02 -2.9586 1.80742 0
M  V30 5965 C 549.081 -3.02649 3.04471 0
M  V30 5966 C 548.314 -4.32374 3.12872 0
M  V30 5967 O 548.537 -5.22807 2.28099 0
M  V30 5968 O 547.471 -4.44728 4.05587 0
M  V30 5969 H 551.297 -1.44373 2.67189 0
M  V30 5970 H 548.882 -0.651717 1.34436 0
M  V30 5971 H 550.764 -3.7677 1.88739 0
M  V30 5972 H 549.439 -3.11325 0.88647 0
M  V30 5973 H 548.346 -2.20821 3.01975 0
M  V30 5974 H 549.679 -2.92119 3.9614 0
M  V30 5975 N 551.331 -1.39911 -0.725443 0
M  V30 5976 C 552.279 -1.39552 -1.86086 0
M  V30 5977 C 553.273 -0.277334 -1.67114 0
M  V30 5978 O 554.479 -0.447865 -1.74339 0
M  V30 5979 H 550.854 -0.435993 -0.612711 0
M  V30 5980 H 552.825 -2.35305 -1.83505 0
M  V30 5981 C 551.574 -1.26529 -3.2386 0
M  V30 5982 H 550.897 -2.11845 -3.3906 0
M  V30 5983 H 552.337 -1.30336 -4.03471 0
M  V30 5984 C 550.796 0.0254168 -3.3689 0
M  V30 5985 O 551.326 0.992048 -3.89257 0
M  V30 5986 N 549.532 0.0916528 -2.90455 0
M  V30 5987 H 549.079 -0.695675 -2.48028 0
M  V30 5988 H 549.037 0.954745 -2.99553 0
M  V30 5989 N 552.809 0.956637 -1.25245 0
M  V30 5990 C 553.756 2.053 -1.05454 0
M  V30 5991 C 554.726 1.66062 0.0356889 0
M  V30 5992 O 555.911 1.90415 -0.121099 0
M  V30 5993 C 553.051 3.38391 -0.677191 0
M  V30 5994 C 552.164 3.90758 -1.84206 0
M  V30 5995 C 551.299 5.12165 -1.40926 0
M  V30 5996 C 550.338 5.56757 -2.54338 0
M  V30 5997 N 549.475 6.69376 -2.11848 0
M  V30 5998 H 554.315 2.21562 -1.99284 0
M  V30 5999 H 551.852 1.08578 -0.992434 0
M  V30 6000 H 553.81 4.1488 -0.43938 0
M  V30 6001 H 552.44 3.22021 0.224127 0
M  V30 6002 H 551.492 3.10808 -2.19323 0
M  V30 6003 H 552.804 4.19802 -2.69383 0
M  V30 6004 H 551.958 5.96065 -1.13098 0
M  V30 6005 H 550.697 4.84832 -0.528175 0
M  V30 6006 H 549.702 4.71423 -2.82913 0
M  V30 6007 H 550.927 5.861 -3.43022 0
M  V30 6008 H 548.873 6.43756 -1.26153 0
M  V30 6009 H 548.79 6.97927 -2.90574 0
M  V30 6010 H 550.058 7.5669 -1.87191 0
M  V30 6011 N 554.287 1.06798 1.15896 0
M  V30 6012 C 555.22 0.627503 2.19403 0
M  V30 6013 C 556.198 -0.352352 1.58736 0
M  V30 6014 O 557.382 -0.260111 1.86697 0
M  V30 6015 C 554.509 -0.079356 3.38607 0
M  V30 6016 C 553.555 0.858057 4.17779 0
M  V30 6017 S 554.388 2.35605 4.80885 0
M  V30 6018 C 555.544 1.66083 6.03463 0
M  V30 6019 H 555.777 1.50441 2.56427 0
M  V30 6020 H 553.31 0.881427 1.26768 0
M  V30 6021 H 555.268 -0.48095 4.07673 0
M  V30 6022 H 553.929 -0.932524 2.99938 0
M  V30 6023 H 553.122 0.310108 5.03045 0
M  V30 6024 H 552.724 1.19977 3.54234 0
M  V30 6025 H 555.016 0.969337 6.7053 0
M  V30 6026 H 555.959 2.49159 6.62816 0
M  V30 6027 H 556.367 1.14122 5.52844 0
M  V30 6028 N 555.766 -1.3263 0.851289 0
M  V30 6029 C 556.696 -2.31449 0.308771 0
M  V30 6030 C 557.677 -1.59531 -0.590255 0
M  V30 6031 O 558.862 -1.87351 -0.511205 0
M  V30 6032 C 555.992 -3.43586 -0.506548 0
M  V30 6033 C 554.946 -4.26963 0.297753 0
M  V30 6034 C 554.272 -5.30831 -0.642094 0
M  V30 6035 C 555.572 -4.99643 1.52166 0
M  V30 6036 H 557.266 -2.77074 1.13447 0
M  V30 6037 H 554.812 -1.33207 0.546971 0
M  V30 6038 H 556.765 -4.11754 -0.896474 0
M  V30 6039 H 555.489 -2.96681 -1.36558 0
M  V30 6040 H 554.148 -3.60437 0.669391 0
M  V30 6041 H 553.796 -4.8018 -1.49788 0
M  V30 6042 H 553.496 -5.87501 -0.107968 0
M  V30 6043 H 555.02 -6.01862 -1.02927 0
M  V30 6044 H 556.434 -5.6051 1.20421 0
M  V30 6045 H 554.831 -5.66022 1.99347 0
M  V30 6046 H 555.901 -4.27701 2.28474 0
M  V30 6047 N 557.244 -0.608902 -1.45362 0
M  V30 6048 C 558.191 0.109172 -2.30542 0
M  V30 6049 C 559.161 0.858704 -1.42181 0
M  V30 6050 O 560.346 0.844178 -1.71109 0
M  V30 6051 C 557.486 1.09971 -3.27109 0
M  V30 6052 C 556.599 0.350911 -4.30572 0
M  V30 6053 C 555.734 1.33129 -5.14247 0
M  V30 6054 C 554.773 0.570377 -6.09437 0
M  V30 6055 N 553.91 1.5001 -6.85887 0
M  V30 6056 H 558.75 -0.623195 -2.91411 0
M  V30 6057 H 556.287 -0.319122 -1.43597 0
M  V30 6058 H 558.245 1.68714 -3.81564 0
M  V30 6059 H 556.875 1.79947 -2.67991 0
M  V30 6060 H 555.927 -0.352054 -3.78767 0
M  V30 6061 H 557.239 -0.242725 -4.98209 0
M  V30 6062 H 556.393 1.99074 -5.73109 0
M  V30 6063 H 555.132 1.95885 -4.46632 0
M  V30 6064 H 554.137 -0.102702 -5.49704 0
M  V30 6065 H 555.362 -0.0521607 -6.7908 0
M  V30 6066 H 553.308 2.11529 -6.2096 0
M  V30 6067 H 553.225 0.959934 -7.49881 0
M  V30 6068 H 554.493 2.14909 -7.49289 0
M  V30 6069 N 558.722 1.53707 -0.348139 0
M  V30 6070 C 559.968 2.01979 0.239986 0
M  V30 6071 C 560.323 1.23141 1.47831 0
M  V30 6072 O 559.616 0.311936 1.89044 0
M  V30 6073 C 559.81 3.52292 0.602061 0
M  V30 6074 C 559.639 4.45684 -0.599625 0
M  V30 6075 C 558.409 4.9304 -1.10635 0
M  V30 6076 C 560.607 4.93156 -1.4595 0
M  V30 6077 N 558.589 5.70394 -2.26988 0
M  V30 6078 C 559.96 5.6868 -2.46988 0
M  V30 6079 C 562.015 4.75257 -1.48441 0
M  V30 6080 C 560.718 6.28208 -3.50353 0
M  V30 6081 C 562.744 5.35639 -2.50689 0
M  V30 6082 C 562.106 6.11034 -3.50453 0
M  V30 6083 H 558.205 0.780335 0.0509992 0
M  V30 6084 H 560.789 1.88466 -0.488742 0
M  V30 6085 H 558.96 3.66002 1.29989 0
M  V30 6086 H 560.692 3.87304 1.17377 0
M  V30 6087 H 557.447 4.68784 -0.67371 0
M  V30 6088 H 557.871 6.13741 -2.85747 0
M  V30 6089 H 562.513 4.16508 -0.726707 0
M  V30 6090 H 560.231 6.86064 -4.27015 0
M  V30 6091 H 563.817 5.23693 -2.53449 0
M  V30 6092 H 562.697 6.56925 -4.28275 0
M  V30 6093 N 560.2 0.0768682 1.57412 0
M  V30 6094 C 561.163 -0.873949 2.11884 0
M  V30 6095 C 562.163 -1.22301 1.04398 0
M  V30 6096 O 563.353 -1.15545 1.30365 0
M  V30 6097 C 560.485 -2.17575 2.62438 0
M  V30 6098 H 561.678 -0.401278 2.97203 0
M  V30 6099 H 559.231 -0.171904 1.55352 0
M  V30 6100 H 559.966 -2.69368 1.80587 0
M  V30 6101 H 559.751 -1.93534 3.41009 0
M  V30 6102 H 561.241 -2.85631 3.04639 0
M  V30 6103 O 561.717 -1.61375 -0.0636308 0
M  V30 6104 H 562.408 -1.81049 -0.688533 0
M  V30 END ATOM
M  V30 BEGIN BOND
M  V30 END BOND
M  V30 END CTAB
M  END
$$$$
