drugbank_target|P49821 NADH dehydrogenase [ubiquinone] flavoprotein 1, mitochondrial (DB00157)
 OpenBabel12092119323D

  0  0  0     0  0            999 V3000
M  V30 BEGIN CTAB
M  V30 COUNTS 7123 7203 0 0 0
M  V30 BEGIN ATOM
M  V30 1 H -0.908 1.98254 -0.117106 0
M  V30 2 N 0 1.576 0 0
M  V30 3 C 0.933 2.03868 1.02534 0
M  V30 4 C 1.911 0.928543 1.3348 0
M  V30 5 O 3.095 1.19667 1.45644 0
M  V30 6 C 0.222 2.43627 2.35294 0
M  V30 7 C -0.732 3.65373 2.2001 0
M  V30 8 S 0.101 5.13292 1.52614 0
M  V30 9 C 1.257 5.56322 2.86805 0
M  V30 10 H 1.49 2.90518 0.631377 0
M  V30 11 H -0.977 1.52953 0.210867 0
M  V30 12 H 0.981 2.67203 3.11629 0
M  V30 13 H -0.358 1.57376 2.7183 0
M  V30 14 H -1.165 3.90944 3.18086 0
M  V30 15 H -1.563 3.418 1.51819 0
M  V30 16 H 0.729 5.58782 3.83104 0
M  V30 17 H 1.672 6.56266 2.65933 0
M  V30 18 H 2.08 4.83886 2.90714 0
M  V30 19 N 1.4781 -0.272755 1.55222 0
M  V30 20 C 2.4081 -1.34136 1.91127 0
M  V30 21 C 3.3891 -1.51513 0.773168 0
M  V30 22 O 4.5741 -1.64552 1.03132 0
M  V30 23 C 1.7041 -2.70083 2.1834 0
M  V30 24 C 0.6581 -2.67437 3.34158 0
M  V30 25 C -0.0159 -4.06938 3.46851 0
M  V30 26 C 1.2841 -2.26686 4.70543 0
M  V30 27 H 2.9781 -1.04333 2.80633 0
M  V30 28 H 0.5241 -0.500454 1.35024 0
M  V30 29 H 2.4771 -3.44952 2.42046 0
M  V30 30 H 1.2011 -3.01469 1.25634 0
M  V30 31 H -0.1399 -1.95026 3.1042 0
M  V30 32 H -0.4919 -4.35547 2.51611 0
M  V30 33 H -0.7919 -4.06062 4.2472 0
M  V30 34 H 0.7321 -4.83545 3.72849 0
M  V30 35 H 2.1461 -2.91277 4.93792 0
M  V30 36 H 0.5431 -2.36971 5.5133 0
M  V30 37 H 1.6131 -1.21818 4.69349 0
M  V30 38 N 2.9562 -1.48159 -0.537278 0
M  V30 39 C 3.9192 -1.61665 -1.62472 0
M  V30 40 C 4.9192 -0.490395 -1.5314 0
M  V30 41 O 6.1092 -0.755998 -1.5694 0
M  V30 42 C 3.2412 -1.57997 -3.02076 0
M  V30 43 H 4.4342 -2.58621 -1.51839 0
M  V30 44 H 1.9872 -1.36647 -0.758771 0
M  V30 45 H 2.7222 -0.624913 -3.18222 0
M  V30 46 H 2.5072 -2.39755 -3.10258 0
M  V30 47 H 3.9972 -1.70627 -3.81151 0
M  V30 48 N 4.4343 0.785586 -1.36625 0
M  V30 49 C 5.6623 1.57448 -1.3423 0
M  V30 50 C 6.0773 1.88649 0.0755653 0
M  V30 51 O 5.4343 1.50414 1.03354 0
M  V30 52 C 5.4853 2.89316 -2.16745 0
M  V30 53 O 5.2063 2.59459 -3.53005 0
M  V30 54 C 6.7073 3.83606 -2.22174 0
M  V30 55 H 3.9273 0.488226 -0.4603 0
M  V30 56 H 6.4713 0.974733 -1.79775 0
M  V30 57 H 4.6263 3.4575 -1.74745 0
M  V30 58 H 5.0403 3.43804 -3.96105 0
M  V30 59 H 6.5143 4.73181 -2.8426 0
M  V30 60 H 6.9913 4.21734 -1.22627 0
M  V30 61 H 7.5973 3.33104 -2.64427 0
M  V30 62 N 5.9124 1.20967 1.01018 0
M  V30 63 C 7.3284 0.965905 1.27053 0
M  V30 64 C 7.5284 -0.350785 1.98423 0
M  V30 65 O 6.5844 -1.07773 2.28344 0
M  V30 66 C 7.8974 2.15294 2.09926 0
M  V30 67 C 9.4454 2.19463 2.23171 0
M  V30 68 C 9.9204 3.3767 3.09424 0
M  V30 69 N 11.4114 3.37724 3.17012 0
M  V30 70 C 12.1464 4.25837 3.83993 0
M  V30 71 N 11.6424 5.24138 4.53047 0
M  V30 72 N 13.4354 4.1366 3.80581 0
M  V30 73 H 5.5864 2.0565 0.531194 0
M  V30 74 H 7.8494 0.90024 0.297106 0
M  V30 75 H 7.5554 3.10684 1.64828 0
M  V30 76 H 7.4294 2.13923 3.10672 0
M  V30 77 H 9.8164 1.24632 2.6749 0
M  V30 78 H 9.8974 2.2488 1.21912 0
M  V30 79 H 9.5414 4.32791 2.65808 0
M  V30 80 H 9.4714 3.29491 4.10784 0
M  V30 81 H 11.9624 2.6658 2.6785 0
M  V30 82 H 12.2754 5.87684 5.01844 0
M  V30 83 H 10.6204 5.28068 4.5185 0
M  V30 84 H 13.8114 3.36127 3.25785 0
M  V30 85 H 13.9844 4.82538 4.32505 0
M  V30 86 N 7.3905 -1.2043 1.01659 0
M  V30 87 C 8.8065 -1.41852 0.731442 0
M  V30 88 C 9.0065 -1.89358 -0.688898 0
M  V30 89 O 8.0625 -2.06247 -1.45666 0
M  V30 90 C 9.3755 -2.44019 1.75714 0
M  V30 91 C 10.9235 -2.57785 1.77527 0
M  V30 92 C 11.3985 -3.63194 2.79023 0
M  V30 93 N 12.8895 -3.70678 2.77763 0
M  V30 94 C 13.6245 -4.51897 3.52954 0
M  V30 95 N 13.1205 -5.36921 4.37821 0
M  V30 96 N 14.9135 -4.4643 3.41551 0
M  V30 97 H 7.0645 -0.879093 1.93354 0
M  V30 98 H 9.3275 -0.448425 0.835236 0
M  V30 99 H 9.0335 -2.1611 2.77469 0
M  V30 100 H 8.9075 -3.43007 1.56927 0
M  V30 101 H 11.2945 -2.85023 0.764569 0
M  V30 102 H 11.3755 -1.58992 2.00387 0
M  V30 103 H 11.0195 -3.36699 3.80258 0
M  V30 104 H 10.9495 -4.61609 2.53425 0
M  V30 105 H 13.4405 -3.09944 2.16201 0
M  V30 106 H 13.7535 -5.95981 4.91962 0
M  V30 107 H 12.0985 -5.36424 4.41899 0
M  V30 108 H 15.2895 -3.79042 2.74672 0
M  V30 109 H 15.4625 -5.09491 4.00404 0
M  V30 110 N 8.8686 -0.792821 -1.36206 0
M  V30 111 C 9.7986 -0.207853 -2.32573 0
M  V30 112 C 10.7796 0.659055 -1.56813 0
M  V30 113 O 11.9646 0.592176 -1.84951 0
M  V30 114 C 9.0946 0.655449 -3.41059 0
M  V30 115 C 8.0486 -0.111842 -4.27854 0
M  V30 116 C 7.3746 0.872274 -5.27537 0
M  V30 117 C 8.6746 -1.30299 -5.05786 0
M  V30 118 H 10.3686 -1.01294 -2.81744 0
M  V30 119 H 7.9146 -0.48854 -1.3546 0
M  V30 120 H 9.8676 1.07464 -4.07467 0
M  V30 121 H 8.5916 1.49328 -2.90463 0
M  V30 122 H 7.2506 -0.512053 -3.63006 0
M  V30 123 H 6.8986 1.70523 -4.73214 0
M  V30 124 H 6.5986 0.363291 -5.86476 0
M  V30 125 H 8.1226 1.28996 -5.96818 0
M  V30 126 H 9.5366 -0.959379 -5.65216 0
M  V30 127 H 7.9336 -1.7455 -5.74154 0
M  V30 128 H 9.0036 -2.09663 -4.37229 0
M  V30 129 N 10.3467 1.47872 -0.545128 0
M  V30 130 C 11.2767 2.32661 0.197793 0
M  V30 131 C 12.2577 1.43041 0.920504 0
M  V30 132 O 13.4427 1.71912 0.90333 0
M  V30 133 C 10.5727 3.24569 1.23582 0
M  V30 134 C 9.5267 4.23333 0.630323 0
M  V30 135 C 8.8527 5.0448 1.77211 0
M  V30 136 C 10.1527 5.20704 -0.407974 0
M  V30 137 H 11.8467 2.95024 -0.510045 0
M  V30 138 H 9.3927 1.4187 -0.246731 0
M  V30 139 H 11.3457 3.8272 1.76362 0
M  V30 140 H 10.0697 2.60236 1.97344 0
M  V30 141 H 8.7287 3.6639 0.123922 0
M  V30 142 H 8.3767 4.36561 2.49847 0
M  V30 143 H 8.0767 5.71339 1.37281 0
M  V30 144 H 9.6007 5.65487 2.3034 0
M  V30 145 H 11.0147 5.7329 0.033305 0
M  V30 146 H 9.4117 5.95699 -0.725486 0
M  V30 147 H 10.4817 4.66917 -1.30828 0
M  V30 148 N 11.8248 0.280983 1.55075 0
M  V30 149 C 13.0728 -0.333455 1.9933 0
M  V30 150 C 13.3938 -1.55937 1.17085 0
M  V30 151 O 12.6638 -1.94143 0.261805 0
M  V30 152 H 11.2438 -0.126197 0.736263 0
M  V30 153 H 13.9058 0.387678 1.91005 0
M  V30 154 H 13.0018 -0.619292 3.05894 0
M  V30 155 N 13.3029 -1.57598 0.00835791 0
M  V30 156 C 14.5489 -1.92046 -0.670055 0
M  V30 157 C 14.9039 -0.88351 -1.70915 0
M  V30 158 O 14.1969 0.103223 -1.91322 0
M  V30 159 C 14.3909 -3.3101 -1.34787 0
M  V30 160 C 14.2199 -4.48126 -0.375945 0
M  V30 161 C 12.9899 -5.05297 0.0166914 0
M  V30 162 C 15.1879 -5.1303 0.361272 0
M  V30 163 N 13.1699 -6.05931 0.985952 0
M  V30 164 C 14.5409 -6.08571 1.18495 0
M  V30 165 C 16.5959 -4.9609 0.42421 0
M  V30 166 C 15.2989 -6.88996 2.06584 0
M  V30 167 C 17.3249 -5.77107 1.29236 0
M  V30 168 C 16.6869 -6.72248 2.10386 0
M  V30 169 H 12.7859 -0.75096 -0.218136 0
M  V30 170 H 15.3699 -1.94572 0.0706669 0
M  V30 171 H 13.5409 -3.29342 -2.05884 0
M  V30 172 H 15.2729 -3.52864 -1.98164 0
M  V30 173 H 12.0279 -4.72279 -0.353435 0
M  V30 174 H 12.4519 -6.60932 1.4662 0
M  V30 175 H 17.0939 -4.22378 -0.188915 0
M  V30 176 H 14.8119 -7.62028 2.6896 0
M  V30 177 H 18.3979 -5.66038 1.34508 0
M  V30 178 H 17.2779 -7.33846 2.76476 0
M  V30 179 N 14.781 0.264519 -1.55364 0
M  V30 180 C 16.006 1.01726 -1.80739 0
M  V30 181 C 16.431 1.78836 -0.583044 0
M  V30 182 O 15.789 1.75167 0.467566 0
M  V30 183 C 15.837 1.94482 -3.03659 0
M  V30 184 O 14.941 3.03386 -2.7934 0
M  V30 185 H 14.282 0.290395 -0.597132 0
M  V30 186 H 16.812 0.290854 -2.02522 0
M  V30 187 H 16.822 2.36278 -3.32621 0
M  V30 188 H 15.497 1.37772 -3.92418 0
M  V30 189 H 14.074 2.65844 -2.61498 0
M  V30 190 N 16.2591 1.48442 0.529413 0
M  V30 191 C 17.1891 1.65902 1.64313 0
M  V30 192 C 18.1701 0.507897 1.6234 0
M  V30 193 O 19.3551 0.740503 1.79528 0
M  V30 194 C 16.4851 1.69911 3.02898 0
M  V30 195 C 15.4391 2.8453 3.19729 0
M  V30 196 C 14.7651 2.73629 4.59381 0
M  V30 197 C 16.0651 4.25821 3.02447 0
M  V30 198 H 17.7591 2.5914 1.49955 0
M  V30 199 H 15.3051 1.24709 0.719982 0
M  V30 200 H 17.2581 1.80715 3.80684 0
M  V30 201 H 15.9821 0.732524 3.18279 0
M  V30 202 H 14.6411 2.73283 2.44361 0
M  V30 203 H 14.2891 1.74938 4.71599 0
M  V30 204 H 13.9891 3.50541 4.71588 0
M  V30 205 H 15.5131 2.86401 5.39265 0
M  V30 206 H 16.9271 4.37898 3.70024 0
M  V30 207 H 15.3241 5.03735 3.26146 0
M  V30 208 H 16.3941 4.42244 1.98867 0
M  V30 209 N 17.7372 -0.778329 1.37039 0
M  V30 210 C 19.1482 -1.35421 1.28523 0
M  V30 211 C 19.4992 -1.96075 -0.0700901 0
M  V30 212 O 18.6242 -1.93352 -0.971801 0
M  V30 213 C 19.2192 -2.46211 2.32735 0
M  V30 214 C 17.7782 -2.99585 2.27873 0
M  V30 215 C 16.9252 -1.72748 2.16918 0
M  V30 216 H 19.8762 -0.5791 1.47757 0
M  V30 217 H 19.8972 -3.2552 1.9702 0
M  V30 218 H 19.4092 -2.02036 3.31365 0
M  V30 219 H 17.5102 -3.48152 1.32745 0
M  V30 220 H 17.6232 -3.55646 3.21018 0
M  V30 221 H 15.9872 -1.95416 1.63354 0
M  V30 222 H 16.7702 -1.30686 3.17452 0
M  V30 223 N 19.2153 -1.21501 -1.00376 0
M  V30 224 C 20.1783 -0.976927 -2.07337 0
M  V30 225 C 21.1783 0.0525322 -1.60714 0
M  V30 226 O 22.3683 -0.184869 -1.73216 0
M  V30 227 C 19.5003 -0.473423 -3.37597 0
M  V30 228 H 20.6933 -1.92587 -2.29892 0
M  V30 229 H 18.2463 -1.03217 -1.17371 0
M  V30 230 H 18.9813 0.480379 -3.20722 0
M  V30 231 H 18.7663 -1.216 -3.72768 0
M  V30 232 H 20.2563 -0.32675 -4.1632 0
M  V30 233 N 20.6934 1.19889 -1.02296 0
M  V30 234 C 22.1094 1.41462 -0.738954 0
M  V30 235 C 22.3094 1.89721 0.678846 0
M  V30 236 O 21.3654 2.07016 1.4457 0
M  V30 237 C 22.6784 2.43083 -1.77005 0
M  V30 238 C 24.2264 2.5684 -1.78892 0
M  V30 239 C 24.7014 3.61709 -2.80945 0
M  V30 240 N 26.1924 3.69199 -2.79725 0
M  V30 241 C 26.9274 4.50019 -3.55345 0
M  V30 242 N 26.4234 5.34592 -4.40662 0
M  V30 243 N 28.2164 4.44612 -3.43914 0
M  V30 244 H 20.3674 0.868827 -1.93817 0
M  V30 245 H 22.6304 0.44399 -0.837602 0
M  V30 246 H 22.3364 2.14636 -2.78612 0
M  V30 247 H 22.2104 3.4217 -1.58744 0
M  V30 248 H 24.5974 2.84614 -0.779674 0
M  V30 249 H 24.6784 1.57927 -2.01228 0
M  V30 250 H 24.3224 3.34678 -3.82038 0
M  V30 251 H 24.2524 4.60259 -2.5587 0
M  V30 252 H 26.7434 3.08794 -2.17842 0
M  V30 253 H 27.0564 5.93363 -4.95116 0
M  V30 254 H 25.4014 5.34073 -4.44737 0
M  V30 255 H 28.5924 3.7758 -2.76679 0
M  V30 256 H 28.7654 5.0736 -4.031 0
M  V30 257 N 22.1715 0.800033 1.35784 0
M  V30 258 C 23.4175 0.377901 1.99248 0
M  V30 259 C 23.7505 -1.05052 1.63333 0
M  V30 260 O 23.0255 -1.72768 0.893385 0
M  V30 261 C 23.3085 0.553922 3.55814 0
M  V30 262 C 23.1615 2.0268 4.01548 0
M  V30 263 C 24.4805 -0.0244802 4.40093 0
M  V30 264 H 21.5995 0.138782 0.723815 0
M  V30 265 H 24.2415 1.00835 1.61035 0
M  V30 266 H 22.3915 0.0172398 3.88496 0
M  V30 267 H 24.0635 2.62536 3.79305 0
M  V30 268 H 22.3065 2.5256 3.52698 0
M  V30 269 H 22.9775 2.10087 5.10458 0
M  V30 270 H 25.4535 0.433775 4.13833 0
M  V30 271 H 24.3295 0.128637 5.48749 0
M  V30 272 H 24.5905 -1.11758 4.27741 0
M  V30 273 N 23.6496 -1.47581 0.552962 0
M  V30 274 C 24.8746 -2.07378 0.0300593 0
M  V30 275 C 25.2996 -1.40355 -1.25229 0
M  V30 276 O 24.6576 -0.477099 -1.7491 0
M  V30 277 C 24.7056 -3.60274 -0.153231 0
M  V30 278 O 23.8096 -3.94041 -1.21678 0
M  V30 279 H 23.1506 -0.662158 0.0494182 0
M  V30 280 H 25.6806 -1.89662 0.767434 0
M  V30 281 H 25.6906 -4.0633 -0.368761 0
M  V30 282 H 24.3656 -4.08455 0.783397 0
M  V30 283 H 22.9426 -3.59735 -0.982079 0
M  V30 284 N 25.1277 -0.289203 -1.54924 0
M  V30 285 C 26.3737 0.323998 -2.00195 0
M  V30 286 C 26.7067 1.54441 -1.17735 0
M  V30 287 O 25.9817 1.92875 -0.250878 0
M  V30 288 C 26.2647 0.692276 -3.53383 0
M  V30 289 C 26.1177 -0.536457 -4.46589 0
M  V30 290 C 27.4367 1.52335 -4.12895 0
M  V30 291 H 24.5557 0.116289 -0.727768 0
M  V30 292 H 27.1977 -0.398954 -1.85764 0
M  V30 293 H 25.3477 1.30822 -3.65811 0
M  V30 294 H 27.0197 -1.17499 -4.46085 0
M  V30 295 H 25.2627 -1.17192 -4.1767 0
M  V30 296 H 25.9337 -0.234806 -5.515 0
M  V30 297 H 28.4097 1.00302 -4.0383 0
M  V30 298 H 27.2857 1.74982 -5.20262 0
M  V30 299 H 27.5467 2.50886 -3.64018 0
M  V30 300 N 26.6058 1.57591 -0.0167156 0
M  V30 301 C 28.0218 1.55946 0.339557 0
M  V30 302 C 28.2218 1.02109 1.73713 0
M  V30 303 O 27.2778 0.662303 2.43659 0
M  V30 304 C 28.5908 3.00037 0.199499 0
M  V30 305 C 30.1388 3.11805 0.273193 0
M  V30 306 C 30.6138 4.57713 0.162068 0
M  V30 307 N 32.1048 4.6268 0.219444 0
M  V30 308 C 32.8398 5.73185 0.157054 0
M  V30 309 N 32.3358 6.92786 0.0442936 0
M  V30 310 N 34.1288 5.61707 0.21014 0
M  V30 311 H 26.2798 1.90921 -0.930758 0
M  V30 312 H 28.5428 0.877674 -0.358319 0
M  V30 313 H 28.2488 3.4333 -0.76273 0
M  V30 314 H 28.1228 3.64387 0.974786 0
M  V30 315 H 30.5098 2.68433 1.22587 0
M  V30 316 H 30.5908 2.50201 -0.532256 0
M  V30 317 H 30.2348 5.01763 -0.78714 0
M  V30 318 H 30.1648 5.17283 0.986222 0
M  V30 319 H 32.6558 3.76649 0.307246 0
M  V30 320 H 32.9688 7.728 0.00304069 0
M  V30 321 H 31.3138 6.94999 0.00968457 0
M  V30 322 H 34.5048 4.6716 0.296546 0
M  V30 323 H 34.6778 6.47807 0.158054 0
M  V30 324 N 28.0839 -0.256276 1.55502 0
M  V30 325 C 29.3309 -0.985619 1.76895 0
M  V30 326 C 29.6589 -1.85671 0.579355 0
M  V30 327 O 28.9139 -1.90744 -0.437651 0
M  V30 328 C 29.2129 -1.88432 3.03691 0
M  V30 329 C 28.8789 -1.16936 4.35473 0
M  V30 330 C 27.5409 -0.97173 4.71286 0
M  V30 331 C 29.8929 -0.661889 5.1698 0
M  V30 332 C 27.2209 -0.254179 5.86149 0
M  V30 333 C 29.5729 0.042149 6.32586 0
M  V30 334 C 28.2369 0.25134 6.67027 0
M  V30 335 H 27.5069 -0.360663 0.647304 0
M  V30 336 H 30.1539 -0.256483 1.89775 0
M  V30 337 H 28.4589 -2.68021 2.85783 0
M  V30 338 H 30.1559 -2.45015 3.1744 0
M  V30 339 H 26.7459 -1.33332 4.07333 0
M  V30 340 H 30.9299 -0.802145 4.89775 0
M  V30 341 H 26.1859 -0.0815408 6.11346 0
M  V30 342 H 30.3599 0.443049 6.94989 0
M  V30 343 H 27.9869 0.809314 7.5588 0
M  V30 344 N 29.562 -1.4872 -0.521534 0
M  V30 345 C 30.787 -1.61101 -1.30618 0
M  V30 346 C 31.212 -0.274611 -1.86085 0
M  V30 347 O 30.57 0.754937 -1.64834 0
M  V30 348 C 30.618 -2.66709 -2.4269 0
M  V30 349 O 29.722 -2.24456 -3.45967 0
M  V30 350 H 29.063 -0.539921 -0.386499 0
M  V30 351 H 31.593 -1.94767 -0.626645 0
M  V30 352 H 31.603 -2.88245 -2.88754 0
M  V30 353 H 30.278 -3.63727 -2.01682 0
M  V30 354 H 28.855 -2.13168 -3.05964 0
M  V30 355 N 31.0401 0.771051 -1.3745 0
M  V30 356 C 32.2881 1.52661 -1.32435 0
M  V30 357 C 32.6091 1.9479 0.0905024 0
M  V30 358 O 31.8791 1.66348 1.03466 0
M  V30 359 H 30.4591 0.566218 -0.487244 0
M  V30 360 H 33.1211 0.917636 -1.71946 0
M  V30 361 H 32.2171 2.42568 -1.96385 0
M  V30 362 N 32.5182 1.22032 0.997298 0
M  V30 363 C 33.7952 0.950823 1.70935 0
M  V30 364 C 34.1752 -0.535292 2.042 0
M  V30 365 O 33.5232 -1.50217 1.72183 0
M  V30 366 C 33.7332 1.84386 2.96315 0
M  V30 367 C 35.0812 2.09732 3.69185 0
M  V30 368 O 36.1052 1.81798 3.06314 0
M  V30 369 O 34.9642 2.57018 4.82291 0
M  V30 370 H 32.0582 0.357204 0.745878 0
M  V30 371 H 34.6042 1.32997 1.05404 0
M  V30 372 H 33.3762 2.84928 2.68201 0
M  V30 373 H 32.9992 1.46602 3.69586 0
M  V30 374 N 33.9963 -1.19345 1.0293 0
M  V30 375 C 35.2243 -1.92997 0.745644 0
M  V30 376 C 35.6393 -1.75519 -0.695589 0
M  V30 377 O 34.9963 -1.07737 -1.47306 0
M  V30 378 C 35.0473 -3.44741 1.08792 0
M  V30 379 O 34.7683 -3.61658 2.47256 0
M  V30 380 C 36.2693 -4.35515 0.827129 0
M  V30 381 H 33.4893 -0.613042 0.272801 0
M  V30 382 H 36.0333 -1.51473 1.3739 0
M  V30 383 H 34.1883 -3.84097 0.504832 0
M  V30 384 H 34.6023 -4.55514 2.60015 0
M  V30 385 H 36.0763 -5.40589 1.11658 0
M  V30 386 H 36.5533 -4.38552 -0.238436 0
M  V30 387 H 37.1593 -4.01841 1.39297 0
M  V30 388 N 35.4744 -0.807222 -1.35358 0
M  V30 389 C 36.7024 -0.400377 -2.02989 0
M  V30 390 C 37.1174 0.988859 -1.60832 0
M  V30 391 O 36.4744 1.63729 -0.806175 0
M  V30 392 C 36.5254 -0.474867 -3.58368 0
M  V30 393 O 36.2464 -1.80933 -3.98992 0
M  V30 394 C 37.7474 -0.0609112 -4.43258 0
M  V30 395 H 34.9674 -0.162587 -0.651004 0
M  V30 396 H 37.5114 -1.09102 -1.72965 0
M  V30 397 H 35.6664 0.167534 -3.87038 0
M  V30 398 H 36.0804 -1.77256 -4.9364 0
M  V30 399 H 37.5544 -0.164145 -5.51756 0
M  V30 400 H 38.0314 0.993831 -4.27808 0
M  V30 401 H 38.6374 -0.676492 -4.19885 0
M  V30 402 N 36.9525 1.47285 -0.560781 0
M  V30 403 C 37.9155 2.28535 0.174488 0
M  V30 404 C 38.9155 1.37153 0.839388 0
M  V30 405 O 40.1055 1.59748 0.694702 0
M  V30 406 C 37.2375 3.16934 1.25561 0
M  V30 407 H 38.4305 2.95012 -0.539262 0
M  V30 408 H 35.9835 1.53034 -0.317865 0
M  V30 409 H 36.7185 2.55157 2.00164 0
M  V30 410 H 36.5035 3.8419 0.783604 0
M  V30 411 H 37.9935 3.78143 1.77193 0
M  V30 412 N 38.4306 0.297415 1.54768 0
M  V30 413 C 39.8416 -0.195947 1.85669 0
M  V30 414 C 40.1926 -1.53707 1.21937 0
M  V30 415 O 39.3176 -2.10164 0.515754 0
M  V30 416 C 39.9126 -0.362318 3.36857 0
M  V30 417 C 38.4716 -0.799901 3.67802 0
M  V30 418 C 37.6186 0.0938578 2.77141 0
M  V30 419 H 40.5696 0.518538 1.4999 0
M  V30 420 H 40.5906 -1.19745 3.61167 0
M  V30 421 H 40.1026 0.613921 3.83214 0
M  V30 422 H 38.2036 -1.78682 3.26961 0
M  V30 423 H 38.3166 -0.621773 4.75048 0
M  V30 424 H 36.6806 -0.426254 2.51108 0
M  V30 425 H 37.4636 1.06639 3.26318 0
M  V30 426 N 39.9087 -1.5758 0.0250728 0
M  V30 427 C 40.8557 -2.09973 -0.958129 0
M  V30 428 C 41.8257 -1.00085 -1.3256 0
M  V30 429 O 43.0107 -1.27481 -1.41962 0
M  V30 430 C 40.1507 -2.62812 -2.2366 0
M  V30 431 C 39.2637 -3.86693 -1.92594 0
M  V30 432 C 38.3987 -4.27941 -3.14707 0
M  V30 433 C 37.4377 -5.44591 -2.79442 0
M  V30 434 N 36.5747 -5.81014 -3.94167 0
M  V30 435 H 41.4147 -2.937 -0.504428 0
M  V30 436 H 38.9517 -1.45172 -0.237392 0
M  V30 437 H 40.9097 -2.91536 -2.98434 0
M  V30 438 H 39.5397 -1.81922 -2.66654 0
M  V30 439 H 38.5917 -3.64723 -1.0808 0
M  V30 440 H 39.9037 -4.71547 -1.62619 0
M  V30 441 H 39.0577 -4.58079 -3.97804 0
M  V30 442 H 37.7967 -3.41845 -3.4784 0
M  V30 443 H 36.8017 -5.1415 -1.94755 0
M  V30 444 H 38.0267 -6.32382 -2.47528 0
M  V30 445 H 35.9727 -4.97874 -4.2715 0
M  V30 446 H 35.8897 -6.60498 -3.67801 0
M  V30 447 H 37.1577 -6.15756 -4.7798 0
M  V30 448 N 41.3868 0.248026 -1.55636 0
M  V30 449 C 42.3338 1.30707 -1.90222 0
M  V30 450 C 43.3038 1.47881 -0.756332 0
M  V30 451 O 44.4888 1.61883 -1.00988 0
M  V30 452 C 41.6288 2.65769 -2.20138 0
M  V30 453 C 40.7418 2.56612 -3.47526 0
M  V30 454 C 39.8768 3.8402 -3.67017 0
M  V30 455 C 38.9158 3.69476 -4.8801 0
M  V30 456 N 38.0528 4.88774 -5.04029 0
M  V30 457 H 42.8928 1.00512 -2.80538 0
M  V30 458 H 40.4298 0.485055 -1.38873 0
M  V30 459 H 42.3878 3.44386 -2.35487 0
M  V30 460 H 41.0178 2.94115 -1.33027 0
M  V30 461 H 40.0698 1.69571 -3.40514 0
M  V30 462 H 41.3818 2.41774 -4.36287 0
M  V30 463 H 40.5358 4.7108 -3.8232 0
M  V30 464 H 39.2748 4.01754 -2.76487 0
M  V30 465 H 38.2798 2.80799 -4.72686 0
M  V30 466 H 39.5048 3.53238 -5.8 0
M  V30 467 H 37.4508 5.0687 -4.16435 0
M  V30 468 H 37.3678 4.76562 -5.86877 0
M  V30 469 H 38.6358 5.77335 -5.23741 0
M  V30 470 N 42.8649 1.48995 0.513639 0
M  V30 471 C 44.0929 1.61531 1.29288 0
M  V30 472 C 44.5079 0.281801 1.86685 0
M  V30 473 O 43.8649 -0.731111 1.67215 0
M  V30 474 C 43.9159 2.67449 2.43215 0
M  V30 475 O 43.6369 3.95626 1.88179 0
M  V30 476 C 45.1379 2.90575 3.34785 0
M  V30 477 H 42.3579 0.544165 0.392588 0
M  V30 478 H 44.9019 1.9494 0.617956 0
M  V30 479 H 43.0569 2.36853 3.0656 0
M  V30 480 H 43.4709 4.53868 2.62876 0
M  V30 481 H 44.9449 3.68449 4.11035 0
M  V30 482 H 45.4219 2.00011 3.91015 0
M  V30 483 H 46.0279 3.22538 2.77218 0
M  V30 484 N 44.343 -0.763751 1.37857 0
M  V30 485 C 45.568 -1.55805 1.36893 0
M  V30 486 C 45.993 -1.88054 -0.0416135 0
M  V30 487 O 45.351 -1.49825 -1.02089 0
M  V30 488 C 45.399 -2.84012 2.22192 0
M  V30 489 O 44.503 -3.78732 1.63204 0
M  V30 490 H 43.844 -0.471638 0.46739 0
M  V30 491 H 46.374 -0.944657 1.81487 0
M  V30 492 H 46.384 -3.33037 2.35691 0
M  V30 493 H 45.059 -2.59869 3.24716 0
M  V30 494 H 43.636 -3.37402 1.58791 0
M  V30 495 N 45.8211 -1.22559 -0.990812 0
M  V30 496 C 47.0681 -1.05141 -1.73065 0
M  V30 497 C 47.3961 0.413191 -1.9006 0
M  V30 498 O 46.6511 1.32257 -1.44245 0
M  V30 499 C 46.9501 -1.71011 -3.13831 0
M  V30 500 C 46.6161 -3.20911 -3.16745 0
M  V30 501 C 45.2781 -3.61812 -3.17247 0
M  V30 502 C 47.6301 -4.16846 -3.12872 0
M  V30 503 C 44.9581 -4.97127 -3.1158 0
M  V30 504 C 47.3101 -5.5214 -3.08746 0
M  V30 505 C 45.9741 -5.92419 -3.07565 0
M  V30 506 H 45.2441 -0.384738 -0.633291 0
M  V30 507 H 47.8911 -1.5235 -1.16025 0
M  V30 508 H 46.1961 -1.16133 -3.74193 0
M  V30 509 H 47.8931 -1.55023 -3.69823 0
M  V30 510 H 44.4831 -2.88344 -3.17105 0
M  V30 511 H 48.6671 -3.86263 -3.11632 0
M  V30 512 H 43.9231 -5.27562 -3.09012 0
M  V30 513 H 48.0971 -6.26201 -3.04705 0
M  V30 514 H 45.7241 -6.97236 -3.02929 0
M  V30 515 N 47.2992 1.18797 -1.03562 0
M  V30 516 C 48.5472 1.88278 -0.734569 0
M  V30 517 C 48.8682 1.8043 0.739586 0
M  V30 518 O 48.1382 1.21925 1.53333 0
M  V30 519 H 46.7182 0.696991 -0.268725 0
M  V30 520 H 49.3802 1.44192 -1.31129 0
M  V30 521 H 48.4762 2.94443 -1.03489 0
M  V30 522 N 48.7773 0.814389 1.34928 0
M  V30 523 C 50.0023 0.410097 2.03305 0
M  V30 524 C 50.4273 -0.973464 1.60951 0
M  V30 525 O 49.7853 -1.63185 0.789964 0
M  V30 526 C 49.8333 0.51049 3.56968 0
M  V30 527 O 48.9373 -0.473035 4.09678 0
M  V30 528 H 48.2783 0.170088 0.641846 0
M  V30 529 H 50.8083 1.10244 1.72358 0
M  V30 530 H 50.8183 0.383135 4.06197 0
M  V30 531 H 49.4933 1.51963 3.87144 0
M  V30 532 H 48.0703 -0.305272 3.71648 0
M  V30 533 N 50.2554 -1.46986 0.568584 0
M  V30 534 C 51.1854 -2.32946 -0.160753 0
M  V30 535 C 52.1664 -1.44487 -0.897631 0
M  V30 536 O 53.3514 -1.73327 -0.875867 0
M  V30 537 C 50.4814 -3.26494 -1.18403 0
M  V30 538 C 49.4354 -4.24282 -0.562895 0
M  V30 539 C 48.7614 -5.07236 -1.69163 0
M  V30 540 C 50.0614 -5.19989 0.490761 0
M  V30 541 H 51.7554 -2.94175 0.556916 0
M  V30 542 H 49.3014 -1.4146 0.26927 0
M  V30 543 H 51.2544 -3.85477 -1.70251 0
M  V30 544 H 49.9784 -2.63343 -1.93179 0
M  V30 545 H 48.6374 -3.66541 -0.0656164 0
M  V30 546 H 48.2854 -4.4048 -2.42871 0
M  V30 547 H 47.9854 -5.7345 -1.28174 0
M  V30 548 H 49.5094 -5.6908 -2.21314 0
M  V30 549 H 50.9234 -5.73271 0.0579047 0
M  V30 550 H 49.3204 -5.94469 0.820165 0
M  V30 551 H 50.3904 -4.64777 1.3824 0
M  V30 552 N 51.7335 -0.305618 -1.54608 0
M  V30 553 C 52.6805 0.568421 -2.23691 0
M  V30 554 C 53.6505 1.12592 -1.22116 0
M  V30 555 O 54.8355 1.16959 -1.50749 0
M  V30 556 C 51.9755 1.7322 -2.98477 0
M  V30 557 C 51.0885 1.20566 -4.14835 0
M  V30 558 C 50.2235 2.33368 -4.77193 0
M  V30 559 C 49.2625 1.7787 -5.85686 0
M  V30 560 N 48.3995 2.84263 -6.4198 0
M  V30 561 H 53.2395 -0.0272867 -2.97988 0
M  V30 562 H 50.7765 -0.0252363 -1.47078 0
M  V30 563 H 52.7345 2.41675 -3.40072 0
M  V30 564 H 51.3645 2.29947 -2.26548 0
M  V30 565 H 50.4165 0.413223 -3.78149 0
M  V30 566 H 51.7285 0.759417 -4.92985 0
M  V30 567 H 50.8825 3.09761 -5.21664 0
M  V30 568 H 49.6215 2.8132 -3.98385 0
M  V30 569 H 48.6265 0.99968 -5.40635 0
M  V30 570 H 49.8515 1.30816 -6.66381 0
M  V30 571 H 47.7975 3.31541 -5.66053 0
M  V30 572 H 47.7145 2.44149 -7.15491 0
M  V30 573 H 48.9825 3.6054 -6.91109 0
M  V30 574 N 53.2116 1.57565 -0.0334293 0
M  V30 575 C 54.4886 1.83282 0.683163 0
M  V30 576 C 54.8686 0.91823 1.90084 0
M  V30 577 O 54.2166 -0.025113 2.28486 0
M  V30 578 C 54.4266 3.32599 1.0573 0
M  V30 579 C 55.7746 3.99179 1.44711 0
M  V30 580 O 56.7986 3.3712 1.15015 0
M  V30 581 O 55.6576 5.08565 2.0006 0
M  V30 582 H 52.7516 0.755869 0.335546 0
M  V30 583 H 55.2976 1.69589 -0.0614402 0
M  V30 584 H 54.0696 3.90834 0.190828 0
M  V30 585 H 53.6926 3.51415 1.85993 0
M  V30 586 N 54.6897 -0.239769 1.55765 0
M  V30 587 C 55.5997 -1.31831 1.94056 0
M  V30 588 C 56.6157 -1.52275 0.841925 0
M  V30 589 O 57.7917 -1.65759 1.14394 0
M  V30 590 C 54.8567 -2.65156 2.23368 0
M  V30 591 C 53.9177 -2.53173 3.46701 0
M  V30 592 C 53.1507 -3.8014 3.74606 0
M  V30 593 O 53.3737 -4.82343 3.04469 0
M  V30 594 O 52.3077 -3.78344 4.68123 0
M  V30 595 H 56.1337 -1.02347 2.85935 0
M  V30 596 H 53.7187 -0.441123 1.42739 0
M  V30 597 H 55.6007 -3.43929 2.43497 0
M  V30 598 H 54.2757 -2.94358 1.34666 0
M  V30 599 H 53.1827 -1.72662 3.31871 0
M  V30 600 H 54.5157 -2.28915 4.35728 0
M  V30 601 N 56.1678 -1.49265 -0.50573 0
M  V30 602 C 57.4448 -1.49012 -1.26707 0
M  V30 603 C 57.8248 -0.215205 -2.1 0
M  V30 604 O 57.1728 0.802547 -2.13943 0
M  V30 605 C 57.3828 -2.7663 -2.12783 0
M  V30 606 C 58.7308 -3.25932 -2.72127 0
M  V30 607 O 59.7548 -2.77715 -2.23054 0
M  V30 608 O 58.6138 -4.09897 -3.61451 0
M  V30 609 H 55.7078 -0.596197 -0.57313 0
M  V30 610 H 58.2538 -1.61524 -0.52039 0
M  V30 611 H 57.0258 -3.60916 -1.5118 0
M  V30 612 H 56.6488 -2.66956 -2.94653 0
M  V30 613 N 57.6459 0.756429 -1.3826 0
M  V30 614 C 59.0619 1.0591 -1.19395 0
M  V30 615 C 59.2619 2.01459 -0.0406567 0
M  V30 616 O 58.3179 2.44909 0.614467 0
M  V30 617 C 59.6309 1.64191 -2.51916 0
M  V30 618 C 61.1789 1.76376 -2.58574 0
M  V30 619 C 61.6539 2.38069 -3.91264 0
M  V30 620 N 63.1449 2.45503 -3.92788 0
M  V30 621 C 63.8799 2.94126 -4.92217 0
M  V30 622 N 63.3759 3.42805 -6.02043 0
M  V30 623 N 65.1689 2.9314 -4.7961 0
M  V30 624 H 57.3199 0.122313 -2.12048 0
M  V30 625 H 59.5829 0.116892 -0.940766 0
M  V30 626 H 59.2889 1.01451 -3.3675 0
M  V30 627 H 59.1629 2.6329 -2.70108 0
M  V30 628 H 61.5499 2.38244 -1.74137 0
M  V30 629 H 61.6309 0.759894 -2.44252 0
M  V30 630 H 61.2749 1.76835 -4.76121 0
M  V30 631 H 61.2049 3.39091 -4.02895 0
M  V30 632 H 63.6959 2.1107 -3.13461 0
M  V30 633 H 64.0089 3.78354 -6.73846 0
M  V30 634 H 62.3539 3.4087 -6.05667 0
M  V30 635 H 65.5449 2.54419 -3.92923 0
M  V30 636 H 65.7179 3.30721 -5.5725 0
M  V30 637 N 59.124 1.23083 0.984299 0
M  V30 638 C 60.373 1.05466 1.71929 0
M  V30 639 C 60.686 -0.409211 1.91272 0
M  V30 640 O 61.892 -0.705226 2.62181 0
M  V30 641 C 60.348 1.83874 3.09384 0
M  V30 642 C 59.956 3.34566 2.97943 0
M  V30 643 C 61.7 1.74734 3.8687 0
M  V30 644 C 59.607 4.05381 4.30605 0
M  V30 645 H 58.537 0.391039 0.644674 0
M  V30 646 H 61.188 1.47013 1.09815 0
M  V30 647 H 59.57 1.35131 3.72231 0
M  V30 648 H 60.744 3.90767 2.44209 0
M  V30 649 H 59.059 3.44476 2.33934 0
M  V30 650 H 61.656 2.24957 4.85076 0
M  V30 651 H 61.999 0.709372 4.10212 0
M  V30 652 H 62.532 2.21067 3.30717 0
M  V30 653 H 59.271 5.09467 4.1246 0
M  V30 654 H 58.791 3.53967 4.84218 0
M  V30 655 H 60.47 4.11458 4.99311 0
M  V30 656 N 60.6021 -1.18246 1.0419 0
M  V30 657 C 61.8491 -1.88257 0.746017 0
M  V30 658 C 62.1771 -1.80429 -0.726331 0
M  V30 659 O 61.4321 -1.2 -1.54591 0
M  V30 660 C 61.7311 -3.38082 1.15911 0
M  V30 661 C 61.3971 -3.66114 2.63195 0
M  V30 662 C 60.0591 -3.73474 3.03432 0
M  V30 663 C 62.4111 -3.78398 3.5842 0
M  V30 664 C 59.7391 -3.90599 4.37778 0
M  V30 665 C 62.0911 -3.97039 4.92487 0
M  V30 666 C 60.7551 -4.02635 5.32392 0
M  V30 667 H 60.0251 -0.688883 0.272987 0
M  V30 668 H 62.6721 -1.3995 1.30715 0
M  V30 669 H 60.9771 -3.88377 0.516806 0
M  V30 670 H 62.6741 -3.90596 0.907516 0
M  V30 671 H 59.2641 -3.61003 2.3103 0
M  V30 672 H 63.4481 -3.72042 3.28479 0
M  V30 673 H 58.7041 -3.93175 4.68213 0
M  V30 674 H 62.8781 -4.05486 5.66175 0
M  V30 675 H 60.5051 -4.15657 6.36501 0
M  V30 676 N 62.0802 -0.821533 -1.34494 0
M  V30 677 C 63.3082 -0.421884 -2.02553 0
M  V30 678 C 63.7232 0.971745 -1.61872 0
M  V30 679 O 63.0802 1.62864 -0.823496 0
M  V30 680 C 63.1312 -0.51285 -3.57844 0
M  V30 681 O 62.8522 -1.85155 -3.97051 0
M  V30 682 C 64.3532 -0.107921 -4.43169 0
M  V30 683 H 61.5732 -0.169482 -0.649243 0
M  V30 684 H 64.1172 -1.1093 -1.71798 0
M  V30 685 H 62.2722 0.126474 -3.87193 0
M  V30 686 H 62.6862 -1.82482 -4.91732 0
M  V30 687 H 64.1602 -0.222657 -5.51551 0
M  V30 688 H 64.6372 0.948401 -4.28838 0
M  V30 689 H 65.2432 -0.720989 -4.19144 0
M  V30 690 N 63.5583 1.46682 -0.576371 0
M  V30 691 C 64.5063 2.31953 0.17335 0
M  V30 692 C 65.5003 1.44098 0.89062 0
M  V30 693 O 66.7063 1.60759 0.809728 0
M  V30 694 H 63.0813 0.748273 0.0747727 0
M  V30 695 H 65.0523 2.93007 -0.564738 0
M  V30 696 C 63.8013 3.27142 1.17786 0
M  V30 697 H 63.1243 3.94719 0.635361 0
M  V30 698 H 64.5643 3.896 1.67296 0
M  V30 699 C 63.0233 2.52036 2.23561 0
M  V30 700 O 63.5533 2.27877 3.3081 0
M  V30 701 N 61.7593 2.12709 1.97998 0
M  V30 702 H 61.3063 2.32557 1.10792 0
M  V30 703 H 61.2643 1.62776 2.68982 0
M  V30 704 N 65.0364 0.313813 1.54444 0
M  V30 705 C 65.9664 -0.549454 2.26943 0
M  V30 706 C 66.9474 -1.12741 1.27372 0
M  V30 707 O 68.1324 -1.15436 1.56167 0
M  V30 708 C 65.2624 -1.71523 3.01989 0
M  V30 709 C 64.2164 -1.26703 4.08816 0
M  V30 710 C 63.5424 -2.51898 4.71647 0
M  V30 711 C 64.8424 -0.388962 5.2085 0
M  V30 712 H 66.5364 0.0552661 2.99349 0
M  V30 713 H 64.0824 0.0280207 1.43973 0
M  V30 714 H 66.0354 -2.32535 3.51433 0
M  V30 715 H 64.7594 -2.34639 2.27183 0
M  V30 716 H 63.4184 -0.679896 3.6024 0
M  V30 717 H 63.0664 -3.13356 3.93468 0
M  V30 718 H 62.7664 -2.22605 5.43802 0
M  V30 719 H 64.2904 -3.1369 5.23861 0
M  V30 720 H 65.7044 -0.905107 5.6611 0
M  V30 721 H 64.1014 -0.18924 5.99802 0
M  V30 722 H 65.1714 0.582699 4.81386 0
M  V30 723 N 66.5145 -1.57545 0.0417849 0
M  V30 724 C 67.7445 -1.96339 -0.642995 0
M  V30 725 C 68.1525 -0.917536 -1.65463 0
M  V30 726 O 67.4955 0.107747 -1.83384 0
M  V30 727 C 67.5575 -3.31333 -1.39494 0
M  V30 728 C 67.2215 -4.53796 -0.540204 0
M  V30 729 C 68.2185 -5.19553 0.189806 0
M  V30 730 C 65.9035 -5.0006 -0.473886 0
M  V30 731 C 67.8975 -6.29904 0.974674 0
M  V30 732 C 65.5845 -6.10289 0.314677 0
M  V30 733 C 66.5825 -6.75072 1.03765 0
M  V30 734 O 66.2705 -7.83183 1.81327 0
M  V30 735 H 66.0025 -0.651241 -0.181277 0
M  V30 736 H 68.5565 -2.05148 0.101665 0
M  V30 737 H 66.7865 -3.19052 -2.18502 0
M  V30 738 H 68.4755 -3.54942 -1.96904 0
M  V30 739 H 69.2415 -4.84774 0.147981 0
M  V30 740 H 65.1205 -4.49433 -1.0262 0
M  V30 741 H 68.6645 -6.80401 1.5395 0
M  V30 742 H 64.5615 -6.44506 0.358174 0
M  V30 743 H 65.3295 -7.99913 1.73438 0
M  V30 744 N 67.9926 0.231505 -1.5589 0
M  V30 745 C 69.2406 0.955461 -1.78088 0
M  V30 746 C 69.5616 1.85262 -0.608533 0
M  V30 747 O 68.8316 1.92277 0.375035 0
M  V30 748 H 67.4116 0.355787 -0.656829 0
M  V30 749 H 70.0736 0.245751 -1.93344 0
M  V30 750 H 69.1696 1.56814 -2.69844 0
M  V30 751 N 69.4707 1.49531 0.497807 0
M  V30 752 C 70.8867 1.36365 0.829266 0
M  V30 753 C 71.0867 0.399184 1.97506 0
M  V30 754 O 70.1427 -0.167977 2.51941 0
M  V30 755 C 71.4557 2.77153 1.16647 0
M  V30 756 C 73.0037 2.85877 1.27449 0
M  V30 757 C 73.4787 4.2744 1.64497 0
M  V30 758 N 74.9697 4.30265 1.7154 0
M  V30 759 C 75.7047 5.3677 2.01656 0
M  V30 760 N 75.2007 6.53516 2.29976 0
M  V30 761 N 76.9937 5.24189 2.02934 0
M  V30 762 H 69.1447 2.10831 -0.257703 0
M  V30 763 H 71.4077 0.946534 -0.0527091 0
M  V30 764 H 71.1137 3.49442 0.397872 0
M  V30 765 H 70.9877 3.12722 2.10915 0
M  V30 766 H 73.3747 2.13824 2.0338 0
M  V30 767 H 73.4557 2.53887 0.312244 0
M  V30 768 H 73.0997 5.00021 0.891151 0
M  V30 769 H 73.0297 4.56896 2.61827 0
M  V30 770 H 75.5207 3.4607 1.51802 0
M  V30 771 H 75.8337 7.30506 2.52153 0
M  V30 772 H 74.1787 6.56737 2.27425 0
M  V30 773 H 77.3697 4.31988 1.80289 0
M  V30 774 H 77.5427 6.07286 2.26071 0
M  V30 775 N 70.9488 -0.749086 1.3866 0
M  V30 776 C 71.8988 -1.85368 1.32751 0
M  V30 777 C 72.8828 -1.59511 0.210945 0
M  V30 778 O 74.0748 -1.71255 0.447299 0
M  V30 779 C 71.2038 -3.23131 1.15935 0
M  V30 780 C 70.2898 -3.54864 2.32233 0
M  V30 781 N 70.6808 -3.57625 3.57684 0
M  V30 782 C 68.9788 -3.85154 2.24883 0
M  V30 783 C 69.6798 -3.86753 4.34508 0
M  V30 784 N 68.6558 -4.03812 3.63918 0
M  V30 785 H 72.4578 -1.85787 2.27729 0
M  V30 786 H 69.9718 -0.946658 1.31955 0
M  V30 787 H 71.9688 -4.02185 1.09786 0
M  V30 788 H 70.6288 -3.23961 0.218947 0
M  V30 789 H 71.6398 -3.39276 3.91295 0
M  V30 790 H 68.3168 -3.93672 1.39027 0
M  V30 791 H 69.7068 -3.95474 5.43185 0
M  V30 792 N 72.4269 -1.23603 -0.977757 0
M  V30 793 C 73.7039 -0.977897 -1.69401 0
M  V30 794 C 74.0839 0.502738 -2.05026 0
M  V30 795 O 73.4319 1.47459 -1.74551 0
M  V30 796 C 73.6419 -1.89077 -2.93345 0
M  V30 797 C 74.9899 -2.15579 -3.65802 0
M  V30 798 O 76.0139 -1.86648 -3.03383 0
M  V30 799 O 74.8729 -2.64658 -4.78141 0
M  V30 800 H 71.9669 -0.369025 -0.740101 0
M  V30 801 H 74.5129 -1.34657 -1.03274 0
M  V30 802 H 73.2849 -2.89158 -2.63634 0
M  V30 803 H 72.9079 -1.52463 -3.67207 0
M  V30 804 N 73.905 1.17692 -1.04816 0
M  V30 805 C 75.151 1.88389 -0.766892 0
M  V30 806 C 75.506 1.79282 0.698269 0
M  V30 807 O 74.799 1.18739 1.50372 0
M  V30 808 C 74.993 3.37462 -1.17703 0
M  V30 809 C 74.822 3.6108 -2.68051 0
M  V30 810 C 73.592 3.78018 -3.35307 0
M  V30 811 C 75.79 3.61039 -3.66273 0
M  V30 812 N 73.772 3.89444 -4.74559 0
M  V30 813 C 75.143 3.78269 -4.91235 0
M  V30 814 C 77.198 3.44168 -3.59796 0
M  V30 815 C 75.901 3.80376 -6.10497 0
M  V30 816 C 77.927 3.4756 -4.78493 0
M  V30 817 C 77.289 3.65295 -6.02278 0
M  V30 818 H 73.388 0.707651 -0.332798 0
M  V30 819 H 75.972 1.41314 -1.33934 0
M  V30 820 H 74.143 3.83214 -0.63257 0
M  V30 821 H 75.875 3.95759 -0.845989 0
M  V30 822 H 72.63 3.77714 -2.85708 0
M  V30 823 H 73.054 3.98962 -5.46954 0
M  V30 824 H 77.696 3.29396 -2.65062 0
M  V30 825 H 75.414 3.93933 -7.05579 0
M  V30 826 H 79 3.3577 -4.75131 0
M  V30 827 H 77.88 3.6782 -6.92588 0
M  V30 828 N 75.3831 0.828654 1.34056 0
M  V30 829 C 76.7991 0.515135 1.51058 0
M  V30 830 C 76.9991 -0.959581 1.77184 0
M  V30 831 O 76.0551 -1.74382 1.82612 0
M  V30 832 C 77.3681 1.37963 2.67183 0
M  V30 833 C 78.9161 1.37735 2.81066 0
M  V30 834 C 79.3911 2.22645 4.00241 0
M  V30 835 N 80.8821 2.203 4.07458 0
M  V30 836 C 81.6171 2.82744 4.98842 0
M  V30 837 N 81.1131 3.54201 5.9541 0
M  V30 838 N 82.9061 2.72268 4.91759 0
M  V30 839 H 75.0571 1.78343 1.15358 0
M  V30 840 H 77.3201 0.760304 0.566252 0
M  V30 841 H 77.0261 2.42714 2.54525 0
M  V30 842 H 76.9001 1.0484 3.62338 0
M  V30 843 H 79.2871 0.337593 2.93163 0
M  V30 844 H 79.3681 1.74859 1.86703 0
M  V30 845 H 79.0121 3.26674 3.88905 0
M  V30 846 H 78.9421 1.82869 4.93829 0
M  V30 847 H 81.4331 1.68327 3.38341 0
M  V30 848 H 81.7461 3.9908 6.61782 0
M  V30 849 H 80.0911 3.58308 5.95517 0
M  V30 850 H 83.2821 2.16014 4.15278 0
M  V30 851 H 83.4551 3.21219 5.62781 0
M  V30 852 N 76.8612 -1.46375 0.584142 0
M  V30 853 C 77.7912 -2.33103 -0.136037 0
M  V30 854 C 78.7722 -1.45431 -0.882255 0
M  V30 855 O 79.9572 -1.74246 -0.857434 0
M  V30 856 C 77.0872 -3.27731 -1.14933 0
M  V30 857 C 76.0412 -4.24855 -0.517862 0
M  V30 858 C 75.3672 -5.09001 -1.63773 0
M  V30 859 C 76.6672 -5.19439 0.545886 0
M  V30 860 H 78.3612 -2.93568 0.588086 0
M  V30 861 H 75.9072 -1.41166 0.284259 0
M  V30 862 H 77.8602 -3.87261 -1.66153 0
M  V30 863 H 76.5842 -2.65377 -1.90375 0
M  V30 864 H 75.2432 -3.6659 -0.0267361 0
M  V30 865 H 74.8912 -4.43031 -2.38185 0
M  V30 866 H 74.5912 -5.74777 -1.22085 0
M  V30 867 H 76.1152 -5.71396 -2.15266 0
M  V30 868 H 77.5292 -5.73177 0.118704 0
M  V30 869 H 75.9262 -5.93566 0.88317 0
M  V30 870 H 76.9962 -4.63285 1.43162 0
M  V30 871 N 78.3393 -0.321999 -1.54275 0
M  V30 872 C 79.2863 0.544664 -2.24281 0
M  V30 873 C 80.2563 1.1129 -1.23303 0
M  V30 874 O 81.4413 1.15354 -1.51981 0
M  V30 875 C 78.5813 1.70045 -3.00298 0
M  V30 876 C 77.6943 1.16159 -4.1609 0
M  V30 877 C 76.8293 2.28293 -4.79641 0
M  V30 878 C 75.8683 1.71648 -5.8754 0
M  V30 879 N 75.0053 2.77438 -6.44959 0
M  V30 880 H 79.8453 -0.0588907 -2.97942 0
M  V30 881 H 77.3823 -0.0408345 -1.47043 0
M  V30 882 H 79.3403 2.38054 -3.42616 0
M  V30 883 H 77.9703 2.27531 -2.28975 0
M  V30 884 H 77.0223 0.373092 -3.78566 0
M  V30 885 H 78.3343 0.707087 -4.93763 0
M  V30 886 H 77.4883 3.0421 -5.2492 0
M  V30 887 H 76.2273 2.77079 -4.01346 0
M  V30 888 H 75.2323 0.942282 -5.41665 0
M  V30 889 H 76.4573 1.23741 -6.67731 0
M  V30 890 H 74.4033 3.25519 -5.69538 0
M  V30 891 H 74.3203 2.36547 -7.1804 0
M  V30 892 H 75.5883 3.53189 -6.94894 0
M  V30 893 N 79.8174 1.5752 -0.0501392 0
M  V30 894 C 81.0654 1.9227 0.622642 0
M  V30 895 C 81.3864 0.929083 1.71444 0
M  V30 896 O 80.6564 -0.0262186 1.95882 0
M  V30 897 H 79.2364 0.709739 0.232981 0
M  V30 898 H 81.8984 1.94628 -0.102898 0
M  V30 899 H 80.9944 2.93479 1.06191 0
M  V30 900 N 81.2955 -0.223234 1.56011 0
M  V30 901 C 82.5205 -0.968978 1.83373 0
M  V30 902 C 82.9455 -1.77227 0.630254 0
M  V30 903 O 82.3035 -1.76345 -0.420959 0
M  V30 904 C 82.3515 -1.86363 3.08709 0
M  V30 905 O 81.4555 -2.95873 2.87285 0
M  V30 906 H 80.7965 -0.274461 0.604622 0
M  V30 907 H 83.3265 -0.237056 2.03222 0
M  V30 908 H 83.3365 -2.27376 3.38768 0
M  V30 909 H 82.0115 -1.27319 3.95933 0
M  V30 910 H 80.5885 -2.58818 2.68454 0
M  V30 911 N 82.7736 -1.49793 -0.48987 0
M  V30 912 C 83.7036 -1.70201 -1.59856 0
M  V30 913 C 84.6846 -0.55076 -1.60937 0
M  V30 914 O 85.8696 -0.787841 -1.77501 0
M  V30 915 C 82.9996 -1.77882 -2.98287 0
M  V30 916 C 81.9536 -2.92907 -3.12073 0
M  V30 917 C 81.2796 -2.85712 -4.51965 0
M  V30 918 C 82.5796 -4.3369 -2.91051 0
M  V30 919 H 84.2736 -2.63025 -1.43032 0
M  V30 920 H 81.8196 -1.26574 -0.686664 0
M  V30 921 H 83.7726 -1.90744 -3.75759 0
M  V30 922 H 82.4966 -0.816653 -3.16225 0
M  V30 923 H 81.1556 -2.79665 -2.37029 0
M  V30 924 H 80.8036 -1.8738 -4.66795 0
M  V30 925 H 80.5036 -3.62921 -4.62128 0
M  V30 926 H 82.0276 -3.00598 -5.31482 0
M  V30 927 H 83.4416 -4.47555 -3.58284 0
M  V30 928 H 81.8386 -5.12205 -3.12675 0
M  V30 929 H 82.9086 -4.47362 -1.87071 0
M  V30 930 N 84.2517 0.741722 -1.39055 0
M  V30 931 C 85.4767 1.53607 -1.39354 0
M  V30 932 C 85.9017 1.88096 0.0116905 0
M  V30 933 O 85.2597 1.5143 0.996924 0
M  V30 934 C 85.3077 2.80441 -2.26682 0
M  V30 935 O 84.4117 3.76088 -1.69208 0
M  V30 936 H 83.7527 0.464142 -0.474835 0
M  V30 937 H 86.2827 0.915665 -1.82967 0
M  V30 938 H 86.2927 3.29246 -2.40959 0
M  V30 939 H 84.9677 2.5467 -3.2881 0
M  V30 940 H 83.5447 3.34833 -1.64138 0
M  V30 941 N 85.7298 1.2412 0.971189 0
M  V30 942 C 87.1458 1.00584 1.23916 0
M  V30 943 C 87.3458 -0.287481 1.99439 0
M  V30 944 O 86.4018 -1.00454 2.31658 0
M  V30 945 C 87.7148 2.21864 2.0297 0
M  V30 946 C 89.2628 2.26452 2.16076 0
M  V30 947 C 89.7378 3.47343 2.98524 0
M  V30 948 N 91.2288 3.47639 3.06107 0
M  V30 949 C 91.9638 4.37837 3.70251 0
M  V30 950 N 91.4598 5.38286 4.36142 0
M  V30 951 N 93.2528 4.25558 3.67228 0
M  V30 952 H 85.4038 2.07236 0.465499 0
M  V30 953 H 87.6668 0.909236 0.268315 0
M  V30 954 H 87.3728 3.15771 1.54861 0
M  V30 955 H 87.2468 2.23698 3.03709 0
M  V30 956 H 89.6338 1.33078 2.6339 0
M  V30 957 H 89.7148 2.28645 1.14696 0
M  V30 958 H 89.3588 4.41029 2.51905 0
M  V30 959 H 89.2888 3.42393 4.00093 0
M  V30 960 H 91.7798 2.74966 2.59233 0
M  V30 961 H 92.0928 6.03352 4.82894 0
M  V30 962 H 90.4378 5.42176 4.34822 0
M  V30 963 H 93.6288 3.46322 3.14927 0
M  V30 964 H 93.8018 4.96054 4.16935 0
M  V30 965 N 87.2079 -1.17134 1.05439 0
M  V30 966 C 88.4559 -1.87085 0.764429 0
M  V30 967 C 88.7769 -1.81584 -0.710787 0
M  V30 968 O 88.0469 -1.24349 -1.51374 0
M  V30 969 H 86.6269 -0.692627 0.279779 0
M  V30 970 H 89.2889 -1.42087 1.33406 0
M  V30 971 H 88.3849 -2.92759 1.0816 0
M  V30 972 N 88.686 -0.835752 -1.33615 0
M  V30 973 C 89.963 -0.352017 -1.92406 0
M  V30 974 C 90.343 1.16225 -1.76224 0
M  V30 975 O 89.691 1.97526 -1.14873 0
M  V30 976 C 89.901 -0.795485 -3.39813 0
M  V30 977 C 91.249 -0.801703 -4.16963 0
M  V30 978 O 92.273 -0.738889 -3.48452 0
M  V30 979 O 91.132 -0.886607 -5.3926 0
M  V30 980 H 88.226 -0.0989641 -0.821057 0
M  V30 981 H 90.772 -0.921397 -1.42507 0
M  V30 982 H 89.544 -1.83795 -3.45449 0
M  V30 983 H 89.167 -0.202505 -3.97084 0
M  V30 984 N 90.1641 1.46063 -0.591896 0
M  V30 985 C 91.4101 2.03203 -0.0894879 0
M  V30 986 C 91.7651 1.45407 1.25994 0
M  V30 987 O 91.0581 0.61326 1.8152 0
M  V30 988 C 91.2521 3.57391 0.0249813 0
M  V30 989 C 91.0811 4.30142 -1.3118 0
M  V30 990 C 89.8511 4.68688 -1.88838 0
M  V30 991 C 92.0491 4.63098 -2.23708 0
M  V30 992 N 90.0311 5.26228 -3.1616 0
M  V30 993 C 91.4021 5.21305 -3.3562 0
M  V30 994 C 93.4571 4.45031 -2.23274 0
M  V30 995 C 92.1601 5.63351 -4.47245 0
M  V30 996 C 94.1861 4.881 -3.33935 0
M  V30 997 C 93.5481 5.46386 -4.44569 0
M  V30 998 H 89.6471 0.778323 -0.0757431 0
M  V30 999 H 92.2311 1.78094 -0.78681 0
M  V30 1000 H 90.4021 3.82195 0.69149 0
M  V30 1001 H 92.1341 4.0118 0.532613 0
M  V30 1002 H 88.8891 4.5174 -1.42223 0
M  V30 1003 H 89.3131 5.59512 -3.8115 0
M  V30 1004 H 93.9551 3.99295 -1.39008 0
M  V30 1005 H 91.6731 6.08061 -5.32247 0
M  V30 1006 H 95.2591 4.75866 -3.34728 0
M  V30 1007 H 94.1391 5.79102 -5.28782 0
M  V30 1008 N 91.6422 0.330177 1.54103 0
M  V30 1009 C 92.8722 -0.271784 2.04805 0
M  V30 1010 C 93.2802 -1.45816 1.20559 0
M  V30 1011 O 92.6232 -1.82247 0.2306 0
M  V30 1012 C 92.6852 -0.763238 3.51305 0
M  V30 1013 C 92.3492 0.301705 4.56003 0
M  V30 1014 C 93.3462 1.13999 5.07248 0
M  V30 1015 C 91.0312 0.451793 5.00264 0
M  V30 1016 C 93.0252 2.11402 6.01322 0
M  V30 1017 C 90.7122 1.42924 5.94151 0
M  V30 1018 C 91.7102 2.25882 6.44567 0
M  V30 1019 O 91.3982 3.21965 7.3661 0
M  V30 1020 H 91.1302 -0.058693 0.673447 0
M  V30 1021 H 93.6842 0.476395 1.99799 0
M  V30 1022 H 91.9142 -1.56244 3.5373 0
M  V30 1023 H 93.6032 -1.28427 3.85047 0
M  V30 1024 H 94.3692 1.03505 4.73827 0
M  V30 1025 H 90.2482 -0.184044 4.60632 0
M  V30 1026 H 93.7922 2.76192 6.40596 0
M  V30 1027 H 89.6892 1.53479 6.26988 0
M  V30 1028 H 90.4572 3.17281 7.54503 0
M  V30 1029 N 93.1203 -1.57491 0.0584922 0
M  V30 1030 C 94.0673 -2.11958 -0.913376 0
M  V30 1031 C 95.0373 -1.02875 -1.30407 0
M  V30 1032 O 96.2223 -1.30464 -1.39226 0
M  V30 1033 C 93.3623 -2.67497 -2.18035 0
M  V30 1034 C 92.4753 -3.90691 -1.84349 0
M  V30 1035 C 91.6103 -4.3452 -3.05559 0
M  V30 1036 C 90.6493 -5.50395 -2.67827 0
M  V30 1037 N 89.7863 -5.89244 -3.81754 0
M  V30 1038 H 94.6263 -2.94704 -0.442017 0
M  V30 1039 H 92.1633 -1.45643 -0.206545 0
M  V30 1040 H 94.1213 -2.978 -2.92183 0
M  V30 1041 H 92.7513 -1.87537 -2.62735 0
M  V30 1042 H 91.8033 -3.66934 -1.00319 0
M  V30 1043 H 93.1153 -4.7489 -1.5258 0
M  V30 1044 H 92.2693 -4.66414 -3.87998 0
M  V30 1045 H 91.0083 -3.49147 -3.40511 0
M  V30 1046 H 90.0133 -5.18165 -1.83806 0
M  V30 1047 H 91.2383 -6.3749 -2.34059 0
M  V30 1048 H 89.1843 -5.06823 -4.16493 0
M  V30 1049 H 89.1013 -6.68151 -3.53708 0
M  V30 1050 H 90.3693 -6.25756 -4.64811 0
M  V30 1051 N 94.5984 0.214957 -1.56127 0
M  V30 1052 C 95.8264 0.955092 -1.83536 0
M  V30 1053 C 96.2414 1.77677 -0.638472 0
M  V30 1054 O 95.5984 1.78219 0.392968 0
M  V30 1055 C 95.6494 1.86734 -3.09536 0
M  V30 1056 O 95.3704 1.07887 -4.24608 0
M  V30 1057 C 96.8714 2.72082 -3.4998 0
M  V30 1058 H 94.0914 0.279611 -0.609966 0
M  V30 1059 H 96.6354 0.228197 -2.03223 0
M  V30 1060 H 94.7904 2.5481 -2.91806 0
M  V30 1061 H 95.2044 1.69872 -4.9623 0
M  V30 1062 H 96.6784 3.31782 -4.41163 0
M  V30 1063 H 97.1554 3.44806 -2.7204 0
M  V30 1064 H 97.7614 2.09409 -3.70173 0
M  V30 1065 N 96.0765 1.50051 0.48192 0
M  V30 1066 C 97.0235 1.68122 1.58125 0
M  V30 1067 C 97.9935 0.522545 1.57666 0
M  V30 1068 O 99.1785 0.751844 1.75362 0
M  V30 1069 C 96.3185 1.77142 2.96167 0
M  V30 1070 C 95.4315 3.0444 3.06497 0
M  V30 1071 C 94.5665 3.04321 4.35387 0
M  V30 1072 C 93.6055 4.26118 4.3942 0
M  V30 1073 N 92.7425 4.238 5.59766 0
M  V30 1074 H 97.5825 2.6198 1.42022 0
M  V30 1075 H 95.1195 1.29877 0.690687 0
M  V30 1076 H 97.0775 1.80352 3.76203 0
M  V30 1077 H 95.7075 0.867329 3.1093 0
M  V30 1078 H 94.7595 3.10752 2.19402 0
M  V30 1079 H 96.0715 3.94426 3.05336 0
M  V30 1080 H 95.2255 3.062 5.23762 0
M  V30 1081 H 93.9645 2.12147 4.39141 0
M  V30 1082 H 92.9695 4.24463 3.49444 0
M  V30 1083 H 94.1945 5.19507 4.37366 0
M  V30 1084 H 92.1405 3.34474 5.64326 0
M  V30 1085 H 92.0575 5.07542 5.60301 0
M  V30 1086 H 93.3255 4.2981 6.50295 0
M  V30 1087 N 97.5546 -0.734337 1.39446 0
M  V30 1088 C 98.4646 -1.87879 1.40495 0
M  V30 1089 C 99.4806 -1.714 0.299672 0
M  V30 1090 O 100.657 -1.93991 0.541249 0
M  V30 1091 C 97.7216 -3.23477 1.24754 0
M  V30 1092 C 96.7826 -3.52344 2.45259 0
M  V30 1093 C 96.0156 -4.81473 2.30259 0
M  V30 1094 O 96.2386 -5.55237 1.30643 0
M  V30 1095 O 95.1726 -5.10254 3.19256 0
M  V30 1096 H 98.9986 -1.89949 2.36966 0
M  V30 1097 H 96.5836 -0.882243 1.20569 0
M  V30 1098 H 98.4656 -4.04509 1.18111 0
M  V30 1099 H 97.1406 -3.22176 0.313781 0
M  V30 1100 H 96.0476 -2.71396 2.57478 0
M  V30 1101 H 97.3806 -3.58426 3.37331 0
M  V30 1102 N 99.0327 -1.24633 -0.964593 0
M  V30 1103 C 100.282 -1.08188 -1.7023 0
M  V30 1104 C 100.595 0.37873 -1.91898 0
M  V30 1105 O 101.801 0.663427 -2.6327 0
M  V30 1106 C 100.257 -1.88773 -3.06419 0
M  V30 1107 C 99.8647 -3.39263 -2.92582 0
M  V30 1108 C 101.609 -1.80867 -3.84041 0
M  V30 1109 C 99.5157 -4.1218 -4.24101 0
M  V30 1110 H 98.4457 -0.401245 -0.638372 0
M  V30 1111 H 101.097 -1.48742 -1.07462 0
M  V30 1112 H 99.4787 -1.41035 -3.70034 0
M  V30 1113 H 100.653 -3.94603 -2.37961 0
M  V30 1114 H 98.9677 -3.48154 -2.28424 0
M  V30 1115 H 101.565 -2.32646 -4.81435 0
M  V30 1116 H 101.908 -0.774543 -4.09031 0
M  V30 1117 H 102.441 -2.26301 -3.27159 0
M  V30 1118 H 99.1797 -5.15965 -4.04303 0
M  V30 1119 H 98.6997 -3.61626 -4.78526 0
M  V30 1120 H 100.379 -4.19349 -4.92702 0
M  V30 1121 N 100.511 1.16574 -1.06058 0
M  V30 1122 C 101.441 2.23057 -0.690488 0
M  V30 1123 C 102.422 1.67141 0.315901 0
M  V30 1124 O 103.607 1.93253 0.191556 0
M  V30 1125 C 100.737 3.47222 -0.073625 0
M  V30 1126 C 99.6908 4.16016 -1.00573 0
M  V30 1127 C 99.0168 5.34104 -0.252289 0
M  V30 1128 C 100.317 4.67264 -2.33371 0
M  V30 1129 H 102.011 2.54271 -1.58072 0
M  V30 1130 H 99.5568 1.22218 -0.76149 0
M  V30 1131 H 101.51 4.20939 0.19714 0
M  V30 1132 H 100.234 3.15302 0.85161 0
M  V30 1133 H 98.8928 3.44223 -1.2612 0
M  V30 1134 H 98.5408 4.98437 0.675988 0
M  V30 1135 H 98.2408 5.81072 -0.873455 0
M  V30 1136 H 99.7648 6.10599 0.0109857 0
M  V30 1137 H 101.179 5.32573 -2.12223 0
M  V30 1138 H 99.5758 5.24843 -2.90963 0
M  V30 1139 H 100.646 3.83602 -2.96611 0
M  V30 1140 N 101.989 0.842826 1.3317 0
M  V30 1141 C 102.919 0.294028 2.31641 0
M  V30 1142 C 103.9 -0.600401 1.59151 0
M  V30 1143 O 105.085 -0.523124 1.87022 0
M  V30 1144 C 102.215 -0.528416 3.43257 0
M  V30 1145 C 101.169 0.27056 4.27144 0
M  V30 1146 C 100.495 -0.675881 5.30411 0
M  V30 1147 C 101.795 1.48981 5.00602 0
M  V30 1148 H 103.489 1.11681 2.77791 0
M  V30 1149 H 101.035 0.538478 1.33553 0
M  V30 1150 H 102.988 -0.922674 4.11175 0
M  V30 1151 H 101.712 -1.38445 2.95805 0
M  V30 1152 H 100.371 0.646427 3.60856 0
M  V30 1153 H 100.019 -1.52842 4.79216 0
M  V30 1154 H 99.7189 -0.145374 5.8742 0
M  V30 1155 H 101.243 -1.06757 6.01195 0
M  V30 1156 H 102.657 1.16849 5.61266 0
M  V30 1157 H 101.054 1.95739 5.6728 0
M  V30 1158 H 102.124 2.25746 4.29147 0
M  V30 1159 N 103.467 -1.45747 0.599634 0
M  V30 1160 C 104.414 -2.30467 -0.123849 0
M  V30 1161 C 105.384 -1.41632 -0.86774 0
M  V30 1162 O 106.569 -1.70568 -0.855056 0
M  V30 1163 C 103.709 -3.26402 -1.12051 0
M  V30 1164 C 102.822 -4.3034 -0.37832 0
M  V30 1165 C 101.957 -5.13389 -1.364 0
M  V30 1166 C 100.996 -6.09061 -0.609171 0
M  V30 1167 N 100.133 -6.84918 -1.54374 0
M  V30 1168 H 104.973 -2.91802 0.604627 0
M  V30 1169 H 102.51 -1.43797 0.309972 0
M  V30 1170 H 104.468 -3.80482 -1.7114 0
M  V30 1171 H 103.098 -2.66839 -1.8165 0
M  V30 1172 H 102.15 -3.78984 0.327929 0
M  V30 1173 H 103.462 -4.98354 0.210997 0
M  V30 1174 H 102.616 -5.7183 -2.02719 0
M  V30 1175 H 101.355 -4.45376 -1.98725 0
M  V30 1176 H 100.36 -5.49758 0.0676979 0
M  V30 1177 H 101.585 -6.79099 0.00891991 0
M  V30 1178 H 99.531 -6.19601 -2.15478 0
M  V30 1179 H 99.448 -7.49254 -1.00766 0
M  V30 1180 H 100.716 -7.47906 -2.19676 0
M  V30 1181 N 104.945 -0.338344 -1.53925 0
M  V30 1182 C 106.193 0.259245 -2.0043 0
M  V30 1183 C 106.514 1.51484 -1.22791 0
M  V30 1184 O 105.784 1.93037 -0.33368 0
M  V30 1185 H 104.364 0.0987845 -0.740439 0
M  V30 1186 H 107.026 -0.458302 -1.89435 0
M  V30 1187 H 106.122 0.505334 -3.07982 0
M  V30 1188 N 106.423 1.57458 -0.0668435 0
M  V30 1189 C 107.834 1.80776 0.466558 0
M  V30 1190 C 108.185 0.980361 1.69951 0
M  V30 1191 O 107.31 0.201441 2.1546 0
M  V30 1192 C 107.905 3.27881 0.85321 0
M  V30 1193 C 106.464 3.52062 1.3315 0
M  V30 1194 C 105.611 2.75513 0.314264 0
M  V30 1195 H 108.562 1.5598 -0.292588 0
M  V30 1196 H 108.583 3.39659 1.715 0
M  V30 1197 H 108.095 3.88075 -0.0443439 0
M  V30 1198 H 106.196 2.97167 2.24772 0
M  V30 1199 H 106.309 4.60762 1.31285 0
M  V30 1200 H 104.673 2.42123 0.790492 0
M  V30 1201 H 105.456 3.38442 -0.575477 0
M  V30 1202 N 107.901 -0.206675 1.56239 0
M  V30 1203 C 109.178 -0.954051 1.70755 0
M  V30 1204 C 109.558 -2.01841 0.618353 0
M  V30 1205 O 108.906 -2.25444 -0.372434 0
M  V30 1206 C 109.116 -1.551 3.12642 0
M  V30 1207 C 110.464 -2.03757 3.72516 0
M  V30 1208 O 111.488 -1.64965 3.15698 0
M  V30 1209 O 110.347 -2.75103 4.72208 0
M  V30 1210 H 107.441 -0.446636 0.696021 0
M  V30 1211 H 109.987 -0.197283 1.68549 0
M  V30 1212 H 108.759 -0.783212 3.83382 0
M  V30 1213 H 108.382 -2.37291 3.19028 0
M  V30 1214 N 109.379 -1.50304 -0.473955 0
M  V30 1215 C 110.625 -1.62358 -1.22521 0
M  V30 1216 C 110.98 -0.318555 -1.89745 0
M  V30 1217 O 110.273 0.683315 -1.79001 0
M  V30 1218 C 110.467 -2.73938 -2.29549 0
M  V30 1219 C 110.296 -4.15165 -1.72825 0
M  V30 1220 C 109.066 -4.81604 -1.52924 0
M  V30 1221 C 111.264 -4.99503 -1.22481 0
M  V30 1222 N 109.246 -6.07056 -0.91413 0
M  V30 1223 C 110.617 -6.15655 -0.732743 0
M  V30 1224 C 112.672 -4.85299 -1.11308 0
M  V30 1225 C 111.375 -7.19164 -0.139976 0
M  V30 1226 C 113.401 -5.88982 -0.534258 0
M  V30 1227 C 112.763 -7.0438 -0.0525562 0
M  V30 1228 H 108.862 -0.648286 -0.437321 0
M  V30 1229 H 111.446 -1.87413 -0.527692 0
M  V30 1230 H 109.617 -2.50611 -2.9673 0
M  V30 1231 H 111.349 -2.75366 -2.96573 0
M  V30 1232 H 108.104 -4.3885 -1.78067 0
M  V30 1233 H 108.528 -6.74108 -0.625071 0
M  V30 1234 H 113.17 -3.96369 -1.47144 0
M  V30 1235 H 110.888 -8.07771 0.230591 0
M  V30 1236 H 114.474 -5.80055 -0.450219 0
M  V30 1237 H 113.354 -7.83238 0.388324 0
M  V30 1238 N 110.857 0.726932 -1.39834 0
M  V30 1239 C 112.106 1.48214 -1.36805 0
M  V30 1240 C 112.419 1.95576 0.0305291 0
M  V30 1241 O 113.625 2.7088 0.183417 0
M  V30 1242 C 112.081 2.67854 -2.40379 0
M  V30 1243 C 111.689 2.27408 -3.85992 0
M  V30 1244 C 113.433 3.45641 -2.46439 0
M  V30 1245 C 111.34 3.43819 -4.81189 0
M  V30 1246 H 110.27 0.556606 -0.508631 0
M  V30 1247 H 112.921 0.792216 -1.65518 0
M  V30 1248 H 111.303 3.3896 -2.04749 0
M  V30 1249 H 112.477 1.63795 -4.30706 0
M  V30 1250 H 110.792 1.62692 -3.83302 0
M  V30 1251 H 113.389 4.32244 -3.14753 0
M  V30 1252 H 113.732 3.88669 -1.49139 0
M  V30 1253 H 114.265 2.8157 -2.81004 0
M  V30 1254 H 111.004 3.05834 -5.79781 0
M  V30 1255 H 110.524 4.06385 -4.41148 0
M  V30 1256 H 112.203 4.10043 -5.00474 0
M  V30 1257 N 112.336 1.25143 0.95797 0
M  V30 1258 C 113.266 1.07711 2.07173 0
M  V30 1259 C 114.247 -0.0128462 1.70095 0
M  V30 1260 O 115.432 0.156061 1.93572 0
M  V30 1261 C 112.562 0.691503 3.40346 0
M  V30 1262 C 111.516 1.73132 3.9142 0
M  V30 1263 C 110.842 1.20049 5.21049 0
M  V30 1264 C 112.142 3.1294 4.1817 0
M  V30 1265 H 113.836 2.00873 2.22014 0
M  V30 1266 H 111.382 0.967191 1.06684 0
M  V30 1267 H 113.335 0.556505 4.17709 0
M  V30 1268 H 112.059 -0.275819 3.25433 0
M  V30 1269 H 110.718 1.8547 3.16222 0
M  V30 1270 H 110.366 0.223499 5.02503 0
M  V30 1271 H 110.066 1.89545 5.56189 0
M  V30 1272 H 111.59 1.07782 6.01012 0
M  V30 1273 H 113.004 3.03775 4.86203 0
M  V30 1274 H 111.401 3.79875 4.64559 0
M  V30 1275 H 112.471 3.6025 3.24573 0
M  V30 1276 N 113.814 -1.1601 1.06675 0
M  V30 1277 C 115.062 -1.86264 0.784229 0
M  V30 1278 C 115.383 -1.82328 -0.691488 0
M  V30 1279 O 114.653 -1.25947 -1.50047 0
M  V30 1280 H 113.233 -0.689621 0.28711 0
M  V30 1281 H 115.895 -1.40664 1.34906 0
M  V30 1282 H 114.991 -2.91595 1.11259 0
M  V30 1283 N 115.292 -0.849877 -1.32721 0
M  V30 1284 C 116.202 -0.293791 -2.32753 0
M  V30 1285 C 117.218 0.585906 -1.63839 0
M  V30 1286 O 118.394 0.487413 -1.95413 0
M  V30 1287 C 115.459 0.512752 -3.42887 0
M  V30 1288 C 114.52 -0.39252 -4.27502 0
M  V30 1289 C 113.753 0.375625 -5.32377 0
M  V30 1290 O 113.976 1.60613 -5.4732 0
M  V30 1291 O 112.91 -0.256094 -6.01355 0
M  V30 1292 H 116.736 -1.12242 -2.82197 0
M  V30 1293 H 114.321 -0.612685 -1.36259 0
M  V30 1294 H 116.203 0.970704 -4.10067 0
M  V30 1295 H 114.878 1.31826 -2.95641 0
M  V30 1296 H 113.785 -0.898547 -3.63149 0
M  V30 1297 H 115.118 -1.16309 -4.7826 0
M  V30 1298 N 116.77 1.45427 -0.607355 0
M  V30 1299 C 118.019 2.01452 -0.100036 0
M  V30 1300 C 118.332 1.48159 1.27704 0
M  V30 1301 O 119.538 1.96159 1.87707 0
M  V30 1302 C 117.994 3.59672 -0.128158 0
M  V30 1303 C 117.602 4.21962 -1.50507 0
M  V30 1304 C 119.346 4.23262 0.323932 0
M  V30 1305 C 117.253 5.72333 -1.48959 0
M  V30 1306 H 116.183 0.75325 -0.0336299 0
M  V30 1307 H 118.834 1.66901 -0.76265 0
M  V30 1308 H 117.216 3.91411 0.601105 0
M  V30 1309 H 118.39 4.01796 -2.25602 0
M  V30 1310 H 116.705 3.70565 -1.89923 0
M  V30 1311 H 119.302 5.33522 0.354691 0
M  V30 1312 H 119.645 3.93921 1.34656 0
M  V30 1313 H 120.178 3.96239 -0.352056 0
M  V30 1314 H 116.917 6.06373 -2.48981 0
M  V30 1315 H 116.437 5.94691 -0.781214 0
M  V30 1316 H 118.116 6.35525 -1.21313 0
M  V30 1317 N 118.248 0.346503 1.53744 0
M  V30 1318 C 119.195 -0.508914 2.25119 0
M  V30 1319 C 120.165 -1.09315 1.25058 0
M  V30 1320 O 121.35 -1.12921 1.53797 0
M  V30 1321 C 118.49 -1.65246 3.02965 0
M  V30 1322 C 117.603 -1.09525 4.17886 0
M  V30 1323 C 116.738 -2.20634 4.83212 0
M  V30 1324 C 115.777 -1.62279 5.90196 0
M  V30 1325 N 114.914 -2.67143 6.49291 0
M  V30 1326 H 119.754 0.106283 2.9781 0
M  V30 1327 H 117.291 0.0642227 1.4696 0
M  V30 1328 H 119.249 -2.32574 3.4636 0
M  V30 1329 H 117.879 -2.2386 2.32565 0
M  V30 1330 H 116.931 -0.312818 3.79112 0
M  V30 1331 H 118.243 -0.628444 4.94825 0
M  V30 1332 H 117.397 -2.95821 5.29693 0
M  V30 1333 H 116.136 -2.70659 4.05703 0
M  V30 1334 H 115.141 -0.855989 5.43096 0
M  V30 1335 H 116.366 -1.13102 6.69615 0
M  V30 1336 H 114.312 -3.16417 5.74645 0
M  V30 1337 H 114.229 -2.25093 7.21713 0
M  V30 1338 H 115.497 -3.4209 7.00425 0
M  V30 1339 N 119.726 -1.57421 0.075193 0
M  V30 1340 C 120.954 -1.97946 -0.602076 0
M  V30 1341 C 121.369 -0.953674 -1.62943 0
M  V30 1342 O 120.726 0.0592551 -1.82404 0
M  V30 1343 C 120.777 -3.38546 -1.26762 0
M  V30 1344 O 120.498 -4.37195 -0.281376 0
M  V30 1345 C 121.999 -3.93966 -2.03239 0
M  V30 1346 H 119.219 -0.650918 -0.162931 0
M  V30 1347 H 121.763 -2.03959 0.148601 0
M  V30 1348 H 119.918 -3.33609 -1.96936 0
M  V30 1349 H 120.332 -5.18975 -0.759267 0
M  V30 1350 H 121.806 -4.94555 -2.45193 0
M  V30 1351 H 122.283 -3.30693 -2.8903 0
M  V30 1352 H 122.889 -4.02315 -1.37924 0
M  V30 1353 N 121.204 0.198386 -1.56346 0
M  V30 1354 C 122.429 0.939682 -1.84891 0
M  V30 1355 C 122.854 1.76202 -0.658369 0
M  V30 1356 O 122.212 1.76993 0.392851 0
M  V30 1357 C 122.26 1.81428 -3.11635 0
M  V30 1358 O 121.364 2.91265 -2.91956 0
M  V30 1359 H 120.705 0.264807 -0.608912 0
M  V30 1360 H 123.235 0.204695 -2.03573 0
M  V30 1361 H 123.245 2.21958 -3.42343 0
M  V30 1362 H 121.92 1.21004 -3.97908 0
M  V30 1363 H 120.497 2.54514 -2.72538 0
M  V30 1364 N 122.682 1.50554 0.465978 0
M  V30 1365 C 123.93 1.61479 1.21528 0
M  V30 1366 C 124.251 0.319596 1.92363 0
M  V30 1367 O 123.521 -0.663194 1.84333 0
M  V30 1368 H 122.101 0.595055 0.451573 0
M  V30 1369 H 124.763 1.87355 0.53704 0
M  V30 1370 H 123.859 2.42846 1.96042 0
M  V30 1371 N 124.16 -0.719506 1.40217 0
M  V30 1372 C 125.09 -1.8465 1.42922 0
M  V30 1373 C 126.071 -1.67599 0.29062 0
M  V30 1374 O 127.256 -1.87688 0.498677 0
M  V30 1375 C 124.386 -3.22565 1.28722 0
M  V30 1376 C 123.34 -3.54281 2.40144 0
M  V30 1377 C 122.666 -4.91298 2.11023 0
M  V30 1378 C 123.966 -3.55676 3.82481 0
M  V30 1379 H 125.66 -1.82644 2.37237 0
M  V30 1380 H 123.206 -0.877305 1.1419 0
M  V30 1381 H 125.159 -4.01095 1.29232 0
M  V30 1382 H 123.883 -3.25137 0.308811 0
M  V30 1383 H 122.542 -2.78088 2.38877 0
M  V30 1384 H 122.19 -4.90468 1.11582 0
M  V30 1385 H 121.89 -5.13485 2.8567 0
M  V30 1386 H 123.414 -5.72166 2.13209 0
M  V30 1387 H 124.828 -4.24254 3.85592 0
M  V30 1388 H 123.225 -3.89388 4.56614 0
M  V30 1389 H 124.295 -2.55144 4.12346 0
M  V30 1390 N 125.638 -1.25649 -0.95132 0
M  V30 1391 C 127.054 -1.02542 -1.223 0
M  V30 1392 C 127.254 0.255715 -1.99871 0
M  V30 1393 O 126.31 0.967558 -2.33226 0
M  V30 1394 C 127.623 -2.25065 -1.99415 0
M  V30 1395 C 129.171 -2.29861 -2.12446 0
M  V30 1396 C 129.646 -3.52048 -2.92961 0
M  V30 1397 N 131.137 -3.52465 -3.00538 0
M  V30 1398 C 131.872 -4.43672 -3.63239 0
M  V30 1399 N 131.368 -5.45157 -4.27523 0
M  V30 1400 N 133.161 -4.31346 -3.60412 0
M  V30 1401 H 125.312 -2.07951 -0.432471 0
M  V30 1402 H 127.575 -0.91339 -0.253816 0
M  V30 1403 H 127.281 -3.18194 -1.49817 0
M  V30 1404 H 127.155 -2.28502 -3.00111 0
M  V30 1405 H 129.542 -1.37252 -2.61239 0
M  V30 1406 H 129.623 -2.3044 -1.11044 0
M  V30 1407 H 129.267 -4.44981 -2.44856 0
M  V30 1408 H 129.197 -3.48715 -3.94596 0
M  V30 1409 H 131.688 -2.79056 -2.54826 0
M  V30 1410 H 132.001 -6.10958 -4.73234 0
M  V30 1411 H 130.346 -5.49025 -4.26141 0
M  V30 1412 H 133.537 -3.51288 -3.09377 0
M  V30 1413 H 133.71 -5.02624 -4.0899 0
M  V30 1414 N 127.117 1.15442 -1.07289 0
M  V30 1415 C 128.365 1.85845 -0.794096 0
M  V30 1416 C 128.686 1.82692 0.681809 0
M  V30 1417 O 127.956 1.26741 1.49377 0
M  V30 1418 H 126.536 0.688089 -0.290763 0
M  V30 1419 H 129.198 1.39947 -1.3565 0
M  V30 1420 H 128.294 2.91001 -1.12804 0
M  V30 1421 N 128.595 0.856903 1.32268 0
M  V30 1422 C 130.011 0.547061 1.49931 0
M  V30 1423 C 130.211 -0.921781 1.7918 0
M  V30 1424 O 129.267 -1.70469 1.8627 0
M  V30 1425 C 130.58 1.43599 2.64196 0
M  V30 1426 C 132.128 1.43665 2.78081 0
M  V30 1427 C 132.603 2.31085 3.95428 0
M  V30 1428 N 134.094 2.28893 4.02694 0
M  V30 1429 C 134.829 2.93262 4.92732 0
M  V30 1430 N 134.325 3.66751 5.87763 0
M  V30 1431 N 136.118 2.82638 4.85873 0
M  V30 1432 H 128.269 1.8075 1.11549 0
M  V30 1433 H 130.532 0.772144 0.549997 0
M  V30 1434 H 130.238 2.48058 2.49319 0
M  V30 1435 H 130.112 1.12502 3.60032 0
M  V30 1436 H 132.499 0.399701 2.92381 0
M  V30 1437 H 132.58 1.7878 1.82952 0
M  V30 1438 H 132.224 3.34849 3.81888 0
M  V30 1439 H 132.154 1.93302 4.89839 0
M  V30 1440 H 134.645 1.75466 3.34694 0
M  V30 1441 H 134.958 4.13027 6.53168 0
M  V30 1442 H 133.303 3.70859 5.87783 0
M  V30 1443 H 136.494 2.24774 4.10602 0
M  V30 1444 H 136.667 3.33084 5.55841 0
M  V30 1445 N 130.073 -1.45103 0.615059 0
M  V30 1446 C 131.321 -2.01784 0.112955 0
M  V30 1447 C 131.642 -1.48504 -1.26378 0
M  V30 1448 O 130.912 -0.682245 -1.83636 0
M  V30 1449 H 129.492 -0.745993 0.0387668 0
M  V30 1450 H 132.154 -1.77808 0.798141 0
M  V30 1451 H 131.25 -3.12025 0.0684069 0
M  V30 1452 N 131.551 -0.354651 -1.53558 0
M  V30 1453 C 132.799 0.237972 -2.00694 0
M  V30 1454 C 133.12 1.50173 -1.24391 0
M  V30 1455 O 132.39 1.92673 -0.354135 0
M  V30 1456 H 130.97 0.0909256 -0.741446 0
M  V30 1457 H 133.632 -0.478368 -1.88938 0
M  V30 1458 H 132.728 0.47264 -3.085 0
M  V30 1459 N 133.029 1.57378 -0.0835403 0
M  V30 1460 C 133.992 2.12252 0.864959 0
M  V30 1461 C 134.992 1.04916 1.21858 0
M  V30 1462 O 136.182 1.30853 1.14991 0
M  V30 1463 C 133.314 2.63358 2.16461 0
M  V30 1464 H 134.507 2.97371 0.388676 0
M  V30 1465 H 132.06 1.55423 0.165317 0
M  V30 1466 H 132.795 1.81727 2.686 0
M  V30 1467 H 132.58 3.41826 1.92087 0
M  V30 1468 H 134.07 3.05847 2.84337 0
M  V30 1469 N 134.507 -0.190092 1.56449 0
M  V30 1470 C 135.755 -0.907908 1.80559 0
M  V30 1471 C 136.076 -1.83583 0.657438 0
M  V30 1472 O 135.346 -1.93203 -0.323924 0
M  V30 1473 H 133.926 -0.338247 0.666032 0
M  V30 1474 H 136.588 -0.194403 1.93928 0
M  V30 1475 H 135.684 -1.49604 2.73907 0
M  V30 1476 N 135.985 -1.50799 -0.457987 0
M  V30 1477 C 137.232 -1.62442 -1.20908 0
M  V30 1478 C 137.56 -0.330865 -1.91665 0
M  V30 1479 O 136.815 0.68401 -1.83357 0
M  V30 1480 C 137.114 -2.76358 -2.2663 0
M  V30 1481 C 136.78 -4.16378 -1.73033 0
M  V30 1482 C 135.442 -4.54473 -1.58138 0
M  V30 1483 C 137.794 -5.03836 -1.33413 0
M  V30 1484 C 135.122 -5.77754 -1.02065 0
M  V30 1485 C 137.474 -6.27676 -0.78778 0
M  V30 1486 C 136.138 -6.64562 -0.625561 0
M  V30 1487 H 135.408 -0.594417 -0.442435 0
M  V30 1488 H 138.055 -1.84772 -0.503136 0
M  V30 1489 H 136.36 -2.48167 -3.03184 0
M  V30 1490 H 138.057 -2.82568 -2.84528 0
M  V30 1491 H 134.647 -3.86331 -1.85598 0
M  V30 1492 H 138.831 -4.75026 -1.4375 0
M  V30 1493 H 134.087 -6.04997 -0.882547 0
M  V30 1494 H 138.261 -6.94797 -0.472177 0
M  V30 1495 H 135.888 -7.59965 -0.188926 0
M  V30 1496 N 137.463 0.71206 -1.40597 0
M  V30 1497 C 138.874 1.29135 -1.34837 0
M  V30 1498 C 139.225 1.96186 -0.0235395 0
M  V30 1499 O 138.35 1.97768 0.878444 0
M  V30 1500 C 138.945 2.34827 -2.44217 0
M  V30 1501 C 137.504 2.88371 -2.41907 0
M  V30 1502 C 136.651 1.62202 -2.24913 0
M  V30 1503 H 139.602 0.507944 -1.50352 0
M  V30 1504 H 139.623 3.15749 -2.12327 0
M  V30 1505 H 139.135 1.85996 -3.40627 0
M  V30 1506 H 137.236 3.41422 -1.49204 0
M  V30 1507 H 137.349 3.39925 -3.37621 0
M  V30 1508 H 135.713 1.874 -1.72492 0
M  V30 1509 H 136.496 1.15391 -3.23326 0
M  V30 1510 N 138.941 1.26152 0.944643 0
M  V30 1511 C 140.169 1.14259 1.72489 0
M  V30 1512 C 140.584 -0.302555 1.8636 0
M  V30 1513 O 139.941 -1.20741 1.36849 0
M  V30 1514 C 139.992 1.80266 3.13347 0
M  V30 1515 O 139.713 3.19133 3.00143 0
M  V30 1516 C 141.214 1.74283 4.07603 0
M  V30 1517 H 138.434 0.398051 0.540181 0
M  V30 1518 H 140.978 1.66706 1.18446 0
M  V30 1519 H 139.133 1.31766 3.64303 0
M  V30 1520 H 139.547 3.51744 3.89071 0
M  V30 1521 H 141.021 2.25111 5.04013 0
M  V30 1522 H 141.498 0.708631 4.33446 0
M  V30 1523 H 142.104 2.22319 3.62567 0
M  V30 1524 N 140.419 -1.14872 1.07899 0
M  V30 1525 C 141.667 -1.85422 0.803941 0
M  V30 1526 C 141.988 -1.83051 -0.67211 0
M  V30 1527 O 141.258 -1.27532 -1.48703 0
M  V30 1528 H 139.838 -0.686537 0.294408 0
M  V30 1529 H 142.5 -1.39226 1.3639 0
M  V30 1530 H 141.596 -2.90399 1.14346 0
M  V30 1531 N 141.898 -0.863906 -1.31812 0
M  V30 1532 C 142.828 -0.330843 -2.31144 0
M  V30 1533 C 143.809 0.575005 -1.60087 0
M  V30 1534 O 144.994 0.493304 -1.8783 0
M  V30 1535 C 142.124 0.47374 -3.44054 0
M  V30 1536 C 141.078 -0.338481 -4.26659 0
M  V30 1537 C 140.404 0.591412 -5.31419 0
M  V30 1538 C 141.704 -1.56926 -4.98168 0
M  V30 1539 H 143.398 -1.16086 -2.75979 0
M  V30 1540 H 140.944 -0.559657 -1.32679 0
M  V30 1541 H 142.897 0.857143 -4.12591 0
M  V30 1542 H 141.621 1.33721 -2.9797 0
M  V30 1543 H 140.28 -0.703754 -3.59782 0
M  V30 1544 H 139.928 1.45199 -4.81587 0
M  V30 1545 H 139.628 0.0519022 -5.87577 0
M  V30 1546 H 141.152 0.97179 -6.02817 0
M  V30 1547 H 142.566 -1.25764 -5.59336 0
M  V30 1548 H 140.963 -2.04739 -5.64094 0
M  V30 1549 H 142.033 -2.32544 -4.25501 0
M  V30 1550 N 143.376 1.44774 -0.622745 0
M  V30 1551 C 144.323 2.30635 0.0871679 0
M  V30 1552 C 145.293 1.42994 0.845097 0
M  V30 1553 O 146.478 1.71907 0.827812 0
M  V30 1554 C 143.618 3.28144 1.06844 0
M  V30 1555 C 142.731 4.30888 0.309809 0
M  V30 1556 C 141.866 5.15494 1.28215 0
M  V30 1557 C 140.905 6.09953 0.512198 0
M  V30 1558 N 140.042 6.87287 1.43458 0
M  V30 1559 H 144.882 2.90803 -0.650974 0
M  V30 1560 H 142.419 1.43286 -0.33281 0
M  V30 1561 H 144.377 3.83157 1.65066 0
M  V30 1562 H 143.007 2.69695 1.77382 0
M  V30 1563 H 142.059 3.78414 -0.388181 0
M  V30 1564 H 143.371 4.97955 -0.290254 0
M  V30 1565 H 142.525 5.74983 1.93596 0
M  V30 1566 H 141.264 4.48481 1.91614 0
M  V30 1567 H 140.269 5.49581 -0.155151 0
M  V30 1568 H 141.494 6.78999 -0.116958 0
M  V30 1569 H 139.44 6.2295 2.05594 0
M  V30 1570 H 139.357 7.50763 0.888335 0
M  V30 1571 H 140.625 7.51306 2.07749 0
M  V30 1572 N 144.854 0.36279 1.53368 0
M  V30 1573 C 146.1 -0.220702 2.02199 0
M  V30 1574 C 146.455 -1.46649 1.24546 0
M  V30 1575 O 145.748 -1.88737 0.32996 0
M  V30 1576 C 145.942 -0.568417 3.52851 0
M  V30 1577 C 145.771 0.642126 4.45092 0
M  V30 1578 C 144.541 1.15335 4.91961 0
M  V30 1579 C 146.739 1.50649 4.91741 0
M  V30 1580 N 144.721 2.3242 5.68202 0
M  V30 1581 C 146.092 2.52404 5.66297 0
M  V30 1582 C 148.147 1.52969 4.73819 0
M  V30 1583 C 146.85 3.56331 6.24836 0
M  V30 1584 C 148.876 2.55789 5.33222 0
M  V30 1585 C 148.238 3.56268 6.07662 0
M  V30 1586 H 144.337 -0.0435508 0.780786 0
M  V30 1587 H 146.921 0.506704 1.87991 0
M  V30 1588 H 145.092 -1.2649 3.67226 0
M  V30 1589 H 146.824 -1.13676 3.88407 0
M  V30 1590 H 143.579 0.718412 4.68119 0
M  V30 1591 H 144.003 2.91591 6.10986 0
M  V30 1592 H 148.645 0.766418 4.15795 0
M  V30 1593 H 146.363 4.33543 6.81958 0
M  V30 1594 H 149.949 2.58435 5.21251 0
M  V30 1595 H 148.829 4.34524 6.52808 0
M  V30 1596 N 146.332 -1.57332 0.0918853 0
M  V30 1597 C 147.557 -1.98995 -0.584442 0
M  V30 1598 C 147.982 -0.970528 -1.61128 0
M  V30 1599 O 147.34 0.0613904 -1.81196 0
M  V30 1600 C 147.388 -3.39636 -1.21161 0
M  V30 1601 O 146.492 -3.40447 -2.32744 0
M  V30 1602 H 145.833 -0.647165 -0.148572 0
M  V30 1603 H 148.363 -2.03873 0.172347 0
M  V30 1604 H 148.373 -3.7726 -1.55367 0
M  V30 1605 H 147.048 -4.13356 -0.459313 0
M  V30 1606 H 145.625 -3.14614 -2.0018 0
M  V30 1607 N 147.81 0.181792 -1.56548 0
M  V30 1608 C 149.057 0.900097 -1.81396 0
M  V30 1609 C 149.385 1.82695 -0.667281 0
M  V30 1610 O 148.64 1.92614 0.346146 0
M  V30 1611 C 148.939 1.73728 -3.12335 0
M  V30 1612 C 148.605 0.960255 -4.40556 0
M  V30 1613 C 147.267 0.745766 -4.75386 0
M  V30 1614 C 149.619 0.414477 -5.19549 0
M  V30 1615 C 146.947 -0.0257694 -5.86694 0
M  V30 1616 C 149.299 -0.343916 -6.31664 0
M  V30 1617 C 147.963 -0.569301 -6.65068 0
M  V30 1618 H 147.233 0.329369 -0.663775 0
M  V30 1619 H 149.88 0.165647 -1.90782 0
M  V30 1620 H 148.185 2.54081 -2.98245 0
M  V30 1621 H 149.882 2.29591 -3.28769 0
M  V30 1622 H 146.472 1.13746 -4.13231 0
M  V30 1623 H 150.656 0.567554 -4.93044 0
M  V30 1624 H 145.912 -0.210233 -6.11038 0
M  V30 1625 H 150.086 -0.774133 -6.92084 0
M  V30 1626 H 147.713 -1.16903 -7.51158 0
M  V30 1627 N 149.288 1.51039 0.449983 0
M  V30 1628 C 150.221 1.66105 1.56474 0
M  V30 1629 C 151.199 0.508776 1.54435 0
M  V30 1630 O 152.383 0.731005 1.73749 0
M  V30 1631 C 149.51 1.66304 2.9506 0
M  V30 1632 C 148.556 2.87346 3.15174 0
M  V30 1633 S 149.389 4.4835 2.92818 0
M  V30 1634 C 150.545 4.51274 4.33708 0
M  V30 1635 H 150.778 2.60397 1.43459 0
M  V30 1636 H 148.311 1.40565 0.638805 0
M  V30 1637 H 150.269 1.67103 3.74949 0
M  V30 1638 H 148.93 0.732108 3.05449 0
M  V30 1639 H 148.123 2.83849 4.16468 0
M  V30 1640 H 147.725 2.84223 2.43091 0
M  V30 1641 H 150.017 4.26136 5.26701 0
M  V30 1642 H 150.96 5.53017 4.42242 0
M  V30 1643 H 151.368 3.80738 4.16772 0
M  V30 1644 N 150.766 -0.704594 1.40972 0
M  V30 1645 C 151.714 -1.83994 1.42299 0
M  V30 1646 C 152.708 -1.66684 0.302111 0
M  V30 1647 O 153.914 -1.73655 0.473697 0
M  V30 1648 H 150.289 -0.606171 0.44504 0
M  V30 1649 H 152.26 -1.79992 2.38003 0
M  V30 1650 C 151.009 -3.21946 1.31323 0
M  V30 1651 H 150.332 -3.35878 2.16855 0
M  V30 1652 H 151.772 -4.01491 1.36311 0
M  V30 1653 C 150.231 -3.36891 0.0245977 0
M  V30 1654 O 150.761 -3.90687 -0.934153 0
M  V30 1655 N 148.967 -2.90559 -0.0485243 0
M  V30 1656 H 148.514 -2.46968 0.732419 0
M  V30 1657 H 148.472 -3.00937 -0.910171 0
M  V30 1658 N 152.244 -1.26651 -0.937939 0
M  V30 1659 C 153.191 -1.0849 -2.03712 0
M  V30 1660 C 154.161 0.011033 -1.66096 0
M  V30 1661 O 155.346 -0.149353 -1.90215 0
M  V30 1662 C 152.486 -0.72735 -3.37348 0
M  V30 1663 C 151.599 -1.89986 -3.87981 0
M  V30 1664 C 150.734 -1.48513 -5.10017 0
M  V30 1665 C 149.773 -2.62575 -5.5292 0
M  V30 1666 N 148.91 -2.21762 -6.66158 0
M  V30 1667 H 153.75 -2.02551 -2.18579 0
M  V30 1668 H 151.287 -1.00844 -1.07093 0
M  V30 1669 H 153.245 -0.50092 -4.14182 0
M  V30 1670 H 151.875 0.176298 -3.22318 0
M  V30 1671 H 150.927 -2.23913 -3.07518 0
M  V30 1672 H 152.239 -2.75586 -4.15757 0
M  V30 1673 H 151.393 -1.21934 -5.94321 0
M  V30 1674 H 150.132 -0.60009 -4.83994 0
M  V30 1675 H 149.137 -2.8988 -4.67172 0
M  V30 1676 H 150.362 -3.51685 -5.80943 0
M  V30 1677 H 148.308 -1.35696 -6.41812 0
M  V30 1678 H 148.225 -3.00903 -6.93537 0
M  V30 1679 H 149.493 -1.98403 -7.53828 0
M  V30 1680 N 153.722 1.14298 -1.08507 0
M  V30 1681 C 155.133 1.66926 -0.836227 0
M  V30 1682 C 155.484 1.85576 0.63686 0
M  V30 1683 O 154.609 1.56767 1.49175 0
M  V30 1684 C 155.204 3.03219 -1.51142 0
M  V30 1685 C 153.763 3.52876 -1.30979 0
M  V30 1686 C 152.91 2.2833 -1.57356 0
M  V30 1687 H 155.861 0.983491 -1.24552 0
M  V30 1688 H 155.882 3.68726 -0.939211 0
M  V30 1689 H 155.394 2.89612 -2.58353 0
M  V30 1690 H 153.495 3.71703 -0.258429 0
M  V30 1691 H 153.608 4.33586 -2.03814 0
M  V30 1692 H 151.972 2.34454 -0.995164 0
M  V30 1693 H 152.755 2.17298 -2.65775 0
M  V30 1694 N 155.201 0.870884 1.31352 0
M  V30 1695 C 156.426 0.495957 2.01383 0
M  V30 1696 C 156.851 -0.904324 1.64935 0
M  V30 1697 O 156.209 -1.59687 0.858466 0
M  V30 1698 C 156.257 0.661433 3.54482 0
M  V30 1699 O 155.361 -0.298851 4.11316 0
M  V30 1700 H 154.702 0.197158 0.634054 0
M  V30 1701 H 157.232 1.17455 1.67527 0
M  V30 1702 H 157.242 0.555072 4.04207 0
M  V30 1703 H 155.917 1.68246 3.8035 0
M  V30 1704 H 154.494 -0.147368 3.72609 0
M  V30 1705 N 156.679 -1.44442 0.630414 0
M  V30 1706 C 157.956 -1.9549 0.0655657 0
M  V30 1707 C 158.336 -1.5724 -1.40851 0
M  V30 1708 O 157.684 -0.846116 -2.12257 0
M  V30 1709 C 157.894 -3.47812 0.287691 0
M  V30 1710 C 159.242 -4.24216 0.180513 0
M  V30 1711 O 160.266 -3.55526 0.219019 0
M  V30 1712 O 159.125 -5.46434 0.0848493 0
M  V30 1713 H 156.219 -0.826688 -0.0227177 0
M  V30 1714 H 158.765 -1.54496 0.702068 0
M  V30 1715 H 157.537 -3.687 1.31056 0
M  V30 1716 H 157.16 -3.95751 -0.382984 0
M  V30 1717 N 158.157 -0.370918 -1.53173 0
M  V30 1718 C 159.405 0.216673 -2.00935 0
M  V30 1719 C 159.726 1.48845 -1.25977 0
M  V30 1720 O 158.996 1.92286 -0.374551 0
M  V30 1721 H 157.576 0.0830565 -0.742368 0
M  V30 1722 H 160.238 -0.49838 -1.8842 0
M  V30 1723 H 159.334 0.439893 -3.08984 0
M  V30 1724 N 159.635 1.57281 -0.100228 0
M  V30 1725 C 161.051 1.57527 0.256416 0
M  V30 1726 C 161.251 1.11173 1.68056 0
M  V30 1727 O 160.307 0.79053 2.39806 0
M  V30 1728 C 161.62 3.00673 0.0401747 0
M  V30 1729 C 163.168 3.12815 0.107528 0
M  V30 1730 C 163.643 4.57929 -0.0807834 0
M  V30 1731 N 165.134 4.63193 -0.0261207 0
M  V30 1732 C 165.869 5.73212 -0.146999 0
M  V30 1733 N 165.365 6.92047 -0.322999 0
M  V30 1734 N 167.158 5.62031 -0.0879044 0
M  V30 1735 H 159.309 1.85718 -1.03065 0
M  V30 1736 H 161.572 0.857446 -0.404339 0
M  V30 1737 H 161.278 3.38804 -0.943649 0
M  V30 1738 H 161.152 3.69042 0.780262 0
M  V30 1739 H 163.539 2.74554 1.08186 0
M  V30 1740 H 163.62 2.47028 -0.664134 0
M  V30 1741 H 163.264 4.96886 -1.05201 0
M  V30 1742 H 163.194 5.21783 0.710635 0
M  V30 1743 H 165.685 3.77748 0.107161 0
M  V30 1744 H 165.998 7.7173 -0.406608 0
M  V30 1745 H 164.343 6.94074 -0.358733 0
M  V30 1746 H 167.534 4.68075 0.048498 0
M  V30 1747 H 167.707 6.47734 -0.185557 0
M  V30 1748 N 161.113 -0.173488 1.56642 0
M  V30 1749 C 162.524 -0.736155 1.71574 0
M  V30 1750 C 162.875 -1.82888 0.710389 0
M  V30 1751 O 162 -2.16017 -0.1287 0
M  V30 1752 C 162.595 -1.34211 3.11083 0
M  V30 1753 C 161.154 -1.85162 3.27707 0
M  V30 1754 C 160.301 -0.729765 2.67525 0
M  V30 1755 H 163.252 0.0518786 1.58615 0
M  V30 1756 H 163.273 -2.21178 3.09613 0
M  V30 1757 H 162.785 -0.546579 3.84232 0
M  V30 1758 H 160.886 -2.67366 2.59512 0
M  V30 1759 H 160.999 -1.99855 4.35425 0
M  V30 1760 H 159.363 -1.14965 2.27278 0
M  V30 1761 H 160.146 0.0538806 3.43258 0
M  V30 1762 N 162.591 -1.51276 -0.441967 0
M  V30 1763 C 163.538 -1.72256 -1.53612 0
M  V30 1764 C 164.508 -0.564164 -1.56225 0
M  V30 1765 O 165.693 -0.798074 -1.73307 0
M  V30 1766 C 162.833 -1.84932 -2.91366 0
M  V30 1767 C 161.946 -3.12459 -2.98317 0
M  V30 1768 C 161.081 -3.15758 -4.27166 0
M  V30 1769 C 160.12 -4.37619 -4.27967 0
M  V30 1770 N 159.257 -4.38493 -5.48333 0
M  V30 1771 H 164.097 -2.65654 -1.35026 0
M  V30 1772 H 161.634 -1.31662 -0.656009 0
M  V30 1773 H 163.592 -1.90263 -3.7129 0
M  V30 1774 H 162.222 -0.949461 -3.08521 0
M  V30 1775 H 161.274 -3.1646 -2.11086 0
M  V30 1776 H 162.586 -4.02382 -2.94771 0
M  V30 1777 H 161.74 -3.19979 -5.15459 0
M  V30 1778 H 160.479 -2.23715 -4.33362 0
M  V30 1779 H 159.484 -4.33579 -3.38067 0
M  V30 1780 H 160.709 -5.30921 -4.23438 0
M  V30 1781 H 158.655 -3.49318 -5.55259 0
M  V30 1782 H 158.572 -5.22219 -5.46647 0
M  V30 1783 H 159.84 -4.469 -6.38671 0
M  V30 1784 N 164.069 0.697108 -1.41344 0
M  V30 1785 C 165.299 1.48377 -1.43763 0
M  V30 1786 C 165.707 1.89156 -0.0408726 0
M  V30 1787 O 165.05 1.57239 0.949812 0
M  V30 1788 C 165.112 2.7781 -2.2817 0
M  V30 1789 C 164.776 2.59244 -3.76353 0
M  V30 1790 C 165.773 2.25292 -4.68551 0
M  V30 1791 C 163.458 2.74933 -4.20378 0
M  V30 1792 C 165.452 2.07264 -6.02761 0
M  V30 1793 C 163.139 2.56521 -5.54653 0
M  V30 1794 C 164.137 2.22737 -6.4566 0
M  V30 1795 O 163.825 2.04485 -7.77458 0
M  V30 1796 H 163.557 0.463842 -0.491759 0
M  V30 1797 H 166.111 0.865934 -1.86255 0
M  V30 1798 H 164.341 3.41995 -1.8049 0
M  V30 1799 H 166.03 3.39608 -2.22309 0
M  V30 1800 H 166.796 2.12787 -4.35829 0
M  V30 1801 H 162.675 3.00213 -3.49848 0
M  V30 1802 H 166.219 1.80817 -6.73759 0
M  V30 1803 H 162.116 2.68616 -5.86955 0
M  V30 1804 H 162.884 2.1926 -7.88586 0
M  V30 1805 N 165.547 1.27147 0.931209 0
M  V30 1806 C 166.477 1.12081 2.04842 0
M  V30 1807 C 167.458 0.0232364 1.70084 0
M  V30 1808 O 168.643 0.197085 1.93197 0
M  V30 1809 C 165.773 0.76354 3.38803 0
M  V30 1810 C 164.727 1.81396 3.87659 0
M  V30 1811 C 164.053 1.31075 5.18385 0
M  V30 1812 C 165.353 3.21739 4.11438 0
M  V30 1813 H 167.047 2.05537 2.17703 0
M  V30 1814 H 164.593 0.989603 1.04608 0
M  V30 1815 H 166.546 0.644982 4.16435 0
M  V30 1816 H 165.27 -0.206727 3.25945 0
M  V30 1817 H 163.929 1.92136 3.12217 0
M  V30 1818 H 163.577 0.330037 5.01916 0
M  V30 1819 H 163.277 2.013 5.52044 0
M  V30 1820 H 164.801 1.20506 5.98591 0
M  V30 1821 H 166.215 3.14019 4.79651 0
M  V30 1822 H 164.612 3.89644 4.56397 0
M  V30 1823 H 165.682 3.67054 3.16859 0
M  V30 1824 N 167.025 -1.13721 1.09112 0
M  V30 1825 C 168.271 -1.85198 0.826414 0
M  V30 1826 C 168.604 -1.83129 -0.646319 0
M  V30 1827 O 167.879 -1.2671 -1.47563 0
M  V30 1828 C 168.162 -3.33507 1.35812 0
M  V30 1829 C 168.015 -3.44108 2.89672 0
M  V30 1830 C 169.334 -4.28838 0.989256 0
M  V30 1831 H 166.453 -0.67243 0.301675 0
M  V30 1832 H 169.095 -1.33499 1.35197 0
M  V30 1833 H 167.245 -3.77666 0.911082 0
M  V30 1834 H 168.917 -3.08684 3.428 0
M  V30 1835 H 167.16 -2.85087 3.26967 0
M  V30 1836 H 167.831 -4.48388 3.21951 0
M  V30 1837 H 170.307 -3.92734 1.37475 0
M  V30 1838 H 169.183 -5.31051 1.38838 0
M  V30 1839 H 169.444 -4.4198 -0.102924 0
M  V30 1840 N 168.503 -0.877838 -1.30888 0
M  V30 1841 C 169.749 -0.493426 -1.96706 0
M  V30 1842 C 170.082 0.953504 -1.6918 0
M  V30 1843 O 169.357 1.67266 -0.992594 0
M  V30 1844 C 169.64 -0.760429 -3.51979 0
M  V30 1845 C 169.493 -2.25747 -3.89048 0
M  V30 1846 C 170.812 -0.232148 -4.39487 0
M  V30 1847 H 167.931 -0.180746 -0.714493 0
M  V30 1848 H 170.573 -1.10052 -1.54882 0
M  V30 1849 H 168.723 -0.243715 -3.87735 0
M  V30 1850 H 170.395 -2.84204 -3.63354 0
M  V30 1851 H 168.638 -2.72694 -3.37373 0
M  V30 1852 H 169.309 -2.39491 -4.97341 0
M  V30 1853 H 171.785 -0.674314 -4.106 0
M  V30 1854 H 170.661 -0.448355 -5.47066 0
M  V30 1855 H 170.922 0.866297 -4.33529 0
M  V30 1856 N 169.982 1.44106 -0.638065 0
M  V30 1857 C 170.93 2.3248 0.0748149 0
M  V30 1858 C 171.924 1.47746 0.828702 0
M  V30 1859 O 173.13 1.64049 0.740816 0
M  V30 1860 H 169.505 0.750771 0.0429686 0
M  V30 1861 H 171.476 2.90348 -0.688504 0
M  V30 1862 C 170.225 3.31843 1.03805 0
M  V30 1863 H 169.548 3.97059 0.467375 0
M  V30 1864 H 170.988 3.96345 1.50622 0
M  V30 1865 C 169.447 2.61291 2.1267 0
M  V30 1866 O 169.977 2.41702 3.20847 0
M  V30 1867 N 168.183 2.20915 1.88798 0
M  V30 1868 H 167.73 2.37047 1.00829 0
M  V30 1869 H 167.688 1.74038 2.61836 0
M  V30 1870 N 171.46 0.379036 1.52974 0
M  V30 1871 C 172.423 -0.448865 2.24762 0
M  V30 1872 C 173.423 -0.998689 1.26027 0
M  V30 1873 O 174.613 -0.882313 1.50203 0
M  V30 1874 C 171.745 -1.62872 2.99476 0
M  V30 1875 H 172.938 0.179491 2.99362 0
M  V30 1876 H 170.491 0.13096 1.5575 0
M  V30 1877 H 171.226 -2.29479 2.29151 0
M  V30 1878 H 171.011 -1.24128 3.71934 0
M  V30 1879 H 172.501 -2.2151 3.5401 0
M  V30 1880 N 172.938 -1.57226 0.108567 0
M  V30 1881 C 174.215 -1.86333 -0.594939 0
M  V30 1882 C 174.595 -1.00788 -1.85486 0
M  V30 1883 O 173.943 -0.0839293 -2.28346 0
M  V30 1884 C 174.153 -3.37265 -0.897405 0
M  V30 1885 C 175.501 -4.05629 -1.25501 0
M  V30 1886 O 176.525 -3.42224 -0.987998 0
M  V30 1887 O 175.384 -5.17531 -1.75567 0
M  V30 1888 H 172.478 -0.771018 -0.2991 0
M  V30 1889 H 175.024 -1.69102 0.142283 0
M  V30 1890 H 173.796 -3.913 -0.00413806 0
M  V30 1891 H 173.419 -3.59889 -1.69014 0
M  V30 1892 N 174.416 0.165178 -1.56732 0
M  V30 1893 C 175.326 1.22423 -2.00125 0
M  V30 1894 C 176.342 1.48084 -0.913619 0
M  V30 1895 O 177.518 1.60112 -1.22172 0
M  V30 1896 C 174.583 2.54197 -2.35764 0
M  V30 1897 C 173.644 2.36343 -3.58386 0
M  V30 1898 C 172.877 3.61834 -3.92316 0
M  V30 1899 O 173.1 4.67267 -3.27135 0
M  V30 1900 O 172.034 3.55579 -4.85641 0
M  V30 1901 H 175.86 0.885886 -2.90492 0
M  V30 1902 H 173.445 0.372518 -1.44681 0
M  V30 1903 H 175.327 3.3192 -2.59629 0
M  V30 1904 H 174.002 2.87598 -1.48557 0
M  V30 1905 H 172.909 1.56632 -3.39731 0
M  V30 1906 H 174.242 2.07865 -4.46154 0
M  V30 1907 N 175.894 1.51508 0.433938 0
M  V30 1908 C 177.142 1.6402 1.18075 0
M  V30 1909 C 177.463 0.360328 1.91642 0
M  V30 1910 O 176.733 -0.623945 1.85698 0
M  V30 1911 H 175.313 0.6045 0.43885 0
M  V30 1912 H 177.975 1.88452 0.497178 0
M  V30 1913 H 177.071 2.46949 1.90847 0
M  V30 1914 N 177.372 -0.689602 1.41712 0
M  V30 1915 C 178.282 -1.83314 1.46401 0
M  V30 1916 C 179.298 -1.7036 0.35405 0
M  V30 1917 O 180.474 -1.92171 0.602692 0
M  V30 1918 C 177.539 -3.19344 1.34982 0
M  V30 1919 C 176.6 -3.44363 2.56344 0
M  V30 1920 C 175.833 -4.73904 2.45461 0
M  V30 1921 O 176.056 -5.508 1.48241 0
M  V30 1922 O 174.99 -4.99839 3.35328 0
M  V30 1923 H 178.816 -1.82314 2.42889 0
M  V30 1924 H 176.401 -0.843438 1.23315 0
M  V30 1925 H 178.283 -4.00547 1.3092 0
M  V30 1926 H 176.958 -3.21014 0.41612 0
M  V30 1927 H 175.865 -2.63067 2.65982 0
M  V30 1928 H 177.198 -3.47512 3.48563 0
M  V30 1929 N 178.85 -1.27639 -0.924453 0
M  V30 1930 C 180.261 -1.12834 -1.48746 0
M  V30 1931 C 180.612 0.285505 -1.94112 0
M  V30 1932 O 179.737 1.17874 -1.81479 0
M  V30 1933 C 180.332 -2.04217 -2.70334 0
M  V30 1934 C 178.891 -1.93509 -3.22848 0
M  V30 1935 C 178.038 -1.96583 -1.95577 0
M  V30 1936 H 180.989 -1.40484 -0.738233 0
M  V30 1937 H 181.01 -1.59989 -3.4523 0
M  V30 1938 H 180.522 -3.07111 -2.37285 0
M  V30 1939 H 178.623 -0.936131 -3.60649 0
M  V30 1940 H 178.736 -2.79917 -3.88823 0
M  V30 1941 H 177.1 -1.4085 -2.12211 0
M  V30 1942 H 177.883 -3.01137 -1.64837 0
M  V30 1943 N 180.328 1.1314 -1.09713 0
M  V30 1944 C 181.576 1.84119 -0.833338 0
M  V30 1945 C 181.897 1.84097 0.642904 0
M  V30 1946 O 181.167 1.29881 1.46655 0
M  V30 1947 H 179.747 0.681766 -0.305293 0
M  V30 1948 H 182.409 1.37038 -1.38588 0
M  V30 1949 H 181.505 2.88543 -1.18951 0
M  V30 1950 N 181.806 0.884767 1.30421 0
M  V30 1951 C 183.034 0.518044 2.0031 0
M  V30 1952 C 183.449 -0.893408 1.66324 0
M  V30 1953 O 182.806 -1.5875 0.900262 0
M  V30 1954 C 182.857 0.682997 3.54989 0
M  V30 1955 O 182.578 2.03888 3.87764 0
M  V30 1956 C 184.079 0.31924 4.42149 0
M  V30 1957 H 181.299 0.200265 0.640418 0
M  V30 1958 H 183.843 1.19001 1.6631 0
M  V30 1959 H 181.998 0.0584052 3.87356 0
M  V30 1960 H 182.412 2.05735 4.82466 0
M  V30 1961 H 183.886 0.485555 5.4986 0
M  V30 1962 H 184.363 -0.742717 4.32875 0
M  V30 1963 H 184.969 0.920147 4.15227 0
M  V30 1964 N 183.284 -1.43765 0.645699 0
M  V30 1965 C 184.524 -2.03776 0.159542 0
M  V30 1966 C 184.888 -1.49792 -1.2011 0
M  V30 1967 O 186.089 -2.01398 -1.78023 0
M  V30 1968 C 184.36 -3.57036 0.161251 0
M  V30 1969 S 185.919 -4.3804 -0.258159 0
M  V30 1970 H 182.737 -0.707717 0.0682454 0
M  V30 1971 H 185.339 -1.75941 0.852352 0
M  V30 1972 H 184.043 -3.9383 1.15439 0
M  V30 1973 H 183.574 -3.89503 -0.552339 0
M  V30 1974 H 185.589 -4.7302 -1.49889 0
M  V30 1975 N 184.763 -0.387143 -1.52771 0
M  V30 1976 C 185.71 0.449048 -2.26389 0
M  V30 1977 C 186.68 1.05961 -1.27912 0
M  V30 1978 O 187.865 1.08804 -1.56737 0
M  V30 1979 C 185.005 1.57155 -3.0724 0
M  V30 1980 C 184.118 0.984066 -4.20643 0
M  V30 1981 C 183.253 2.07745 -4.88892 0
M  V30 1982 C 182.292 1.46574 -5.94292 0
M  V30 1983 N 181.429 2.49834 -6.56146 0
M  V30 1984 H 186.269 -0.185205 -2.97424 0
M  V30 1985 H 183.806 -0.103164 -1.46738 0
M  V30 1986 H 185.764 2.23309 -3.52405 0
M  V30 1987 H 184.394 2.17615 -2.38419 0
M  V30 1988 H 183.446 0.212193 -3.79808 0
M  V30 1989 H 184.758 0.497029 -4.96318 0
M  V30 1990 H 183.912 2.81673 -5.3735 0
M  V30 1991 H 182.651 2.59807 -4.12737 0
M  V30 1992 H 181.656 0.711696 -5.45174 0
M  V30 1993 H 182.881 0.953088 -6.72379 0
M  V30 1994 H 180.827 3.0107 -5.82832 0
M  V30 1995 H 180.744 2.05879 -7.27427 0
M  V30 1996 H 182.012 3.23399 -7.09249 0
M  V30 1997 N 186.241 1.57166 -0.116904 0
M  V30 1998 C 187.518 1.86645 0.585049 0
M  V30 1999 C 187.898 1.0177 1.84949 0
M  V30 2000 O 187.246 0.0960379 2.28298 0
M  V30 2001 C 187.456 3.37736 0.879507 0
M  V30 2002 C 188.804 4.06289 1.23348 0
M  V30 2003 O 189.828 3.42743 0.969836 0
M  V30 2004 O 188.687 5.18455 1.7282 0
M  V30 2005 H 185.781 0.772593 0.295007 0
M  V30 2006 H 188.327 1.69025 -0.151249 0
M  V30 2007 H 187.099 3.91296 -0.0166136 0
M  V30 2008 H 186.722 3.6078 1.67103 0
M  V30 2009 N 187.719 -0.156864 1.56817 0
M  V30 2010 C 189.135 -0.50916 1.5126 0
M  V30 2011 C 189.335 -1.83897 0.823658 0
M  V30 2012 O 188.391 -2.49469 0.390055 0
M  V30 2013 C 189.704 -0.52857 2.96018 0
M  V30 2014 C 191.252 -0.614771 3.06903 0
M  V30 2015 C 191.727 -0.664938 4.53147 0
M  V30 2016 N 193.218 -0.727433 4.57452 0
M  V30 2017 C 193.953 -0.787067 5.67973 0
M  V30 2018 N 193.449 -0.806649 6.88088 0
M  V30 2019 N 195.242 -0.827195 5.5598 0
M  V30 2020 H 187.393 0.714935 2.00006 0
M  V30 2021 H 189.656 0.259526 0.911784 0
M  V30 2022 H 189.362 0.380154 3.49639 0
M  V30 2023 H 189.236 -1.36998 3.51442 0
M  V30 2024 H 191.623 -1.51392 2.53307 0
M  V30 2025 H 191.704 0.253597 2.5454 0
M  V30 2026 H 191.348 0.230011 5.07379 0
M  V30 2027 H 191.278 -1.54966 5.03282 0
M  V30 2028 H 193.769 -0.719998 3.70978 0
M  V30 2029 H 194.082 -0.853727 7.6807 0
M  V30 2030 H 192.427 -0.774687 6.90669 0
M  V30 2031 H 195.618 -0.808998 4.61056 0
M  V30 2032 H 195.791 -0.870206 6.4213 0
M  V30 2033 N 189.197 -1.51736 -0.425897 0
M  V30 2034 C 190.107 -1.76738 -1.54275 0
M  V30 2035 C 191.123 -0.65211 -1.61318 0
M  V30 2036 O 192.299 -0.935654 -1.78346 0
M  V30 2037 C 189.364 -1.89755 -2.90162 0
M  V30 2038 C 188.425 -3.13633 -2.93143 0
M  V30 2039 C 187.658 -3.2602 -4.22548 0
M  V30 2040 O 187.881 -2.44067 -5.15546 0
M  V30 2041 O 186.815 -4.19071 -4.32046 0
M  V30 2042 H 190.641 -2.71502 -1.36089 0
M  V30 2043 H 188.226 -1.36376 -0.610069 0
M  V30 2044 H 190.108 -2.00236 -3.70788 0
M  V30 2045 H 188.783 -0.981785 -3.08452 0
M  V30 2046 H 187.69 -3.08622 -2.11431 0
M  V30 2047 H 189.023 -4.04936 -2.798 0
M  V30 2048 N 190.675 0.682077 -1.42076 0
M  V30 2049 C 191.924 1.43786 -1.41451 0
M  V30 2050 C 192.237 1.95574 -0.0317074 0
M  V30 2051 O 193.443 2.71326 0.0971462 0
M  V30 2052 C 191.899 2.60071 -2.48779 0
M  V30 2053 C 191.507 2.15013 -3.93031 0
M  V30 2054 C 193.251 3.37626 -2.57311 0
M  V30 2055 C 191.158 3.28336 -4.91883 0
M  V30 2056 H 190.088 0.540143 -0.526082 0
M  V30 2057 H 192.739 0.739157 -1.67955 0
M  V30 2058 H 191.121 3.32275 -2.15429 0
M  V30 2059 H 192.295 1.5001 -4.35699 0
M  V30 2060 H 190.61 1.50416 -3.88284 0
M  V30 2061 H 193.207 4.22012 -3.28345 0
M  V30 2062 H 193.55 3.83727 -1.61429 0
M  V30 2063 H 194.083 2.72488 -2.89819 0
M  V30 2064 H 190.822 2.87234 -5.89217 0
M  V30 2065 H 190.342 3.92145 -4.53853 0
M  V30 2066 H 192.021 3.93913 -5.13265 0
M  V30 2067 N 192.153 1.28127 0.917671 0
M  V30 2068 C 193.083 1.14248 2.03641 0
M  V30 2069 C 194.064 0.0412748 1.7005 0
M  V30 2070 O 195.249 0.217566 1.92977 0
M  V30 2071 C 192.379 0.799431 3.37974 0
M  V30 2072 C 191.333 1.85497 3.85713 0
M  V30 2073 C 190.659 1.36565 5.16966 0
M  V30 2074 C 191.959 3.26085 4.08002 0
M  V30 2075 H 193.653 2.07835 2.15511 0
M  V30 2076 H 191.199 1.00064 1.03553 0
M  V30 2077 H 193.152 0.689114 4.15727 0
M  V30 2078 H 191.876 -0.172145 3.26146 0
M  V30 2079 H 190.535 1.95437 3.10161 0
M  V30 2080 H 190.183 0.383253 5.01538 0
M  V30 2081 H 189.883 2.07143 5.49878 0
M  V30 2082 H 191.407 1.26848 5.97279 0
M  V30 2083 H 192.821 3.19089 4.76293 0
M  V30 2084 H 191.218 3.94462 4.52238 0
M  V30 2085 H 192.288 3.70394 3.12948 0
M  V30 2086 N 193.631 -1.12557 1.10312 0
M  V30 2087 C 195.047 -1.36036 0.834649 0
M  V30 2088 C 195.247 -1.93946 -0.546539 0
M  V30 2089 O 194.303 -2.16484 -1.29966 0
M  V30 2090 C 195.616 -2.30312 1.9333 0
M  V30 2091 C 197.164 -2.43906 1.9616 0
M  V30 2092 C 197.639 -3.41496 3.05195 0
M  V30 2093 N 199.13 -3.49053 3.04494 0
M  V30 2094 C 199.865 -4.24471 3.85502 0
M  V30 2095 N 199.361 -5.02966 4.76442 0
M  V30 2096 N 201.154 -4.19864 3.73725 0
M  V30 2097 H 193.305 -0.733246 1.99342 0
M  V30 2098 H 195.568 -0.385234 0.866198 0
M  V30 2099 H 195.274 -1.94933 2.92735 0
M  V30 2100 H 195.148 -3.30421 1.81939 0
M  V30 2101 H 197.535 -2.78567 0.973886 0
M  V30 2102 H 197.616 -1.4369 2.11629 0
M  V30 2103 H 197.26 -3.07565 4.04186 0
M  V30 2104 H 197.19 -4.41539 2.86968 0
M  V30 2105 H 199.681 -2.93053 2.38596 0
M  V30 2106 H 199.994 -5.57846 5.34815 0
M  V30 2107 H 198.339 -5.02167 4.80472 0
M  V30 2108 H 201.53 -3.57623 3.02032 0
M  V30 2109 H 201.703 -4.78386 4.37093 0
M  V30 2110 N 195.109 -0.891671 -1.2995 0
M  V30 2111 C 196.059 -0.334811 -2.25528 0
M  V30 2112 C 197.043 0.540553 -1.51548 0
M  V30 2113 O 198.235 0.383882 -1.72787 0
M  V30 2114 C 195.364 0.44374 -3.4042 0
M  V30 2115 C 194.45 -0.44609 -4.21747 0
M  V30 2116 N 194.841 -1.54963 -4.81477 0
M  V30 2117 C 193.139 -0.242415 -4.45341 0
M  V30 2118 C 193.84 -2.10015 -5.42465 0
M  V30 2119 N 192.816 -1.39423 -5.25416 0
M  V30 2120 H 196.618 -1.17792 -2.69262 0
M  V30 2121 H 194.132 -0.741822 -1.44467 0
M  V30 2122 H 196.129 0.859362 -4.07947 0
M  V30 2123 H 194.789 1.28421 -2.98225 0
M  V30 2124 H 195.8 -1.93244 -4.80497 0
M  V30 2125 H 192.477 0.560342 -4.13723 0
M  V30 2126 H 193.867 -3.02724 -5.9984 0
M  V30 2127 N 196.587 1.43421 -0.653314 0
M  V30 2128 C 197.864 1.95361 -0.0966581 0
M  V30 2129 C 198.244 1.59461 1.38331 0
M  V30 2130 O 197.592 0.879777 2.10884 0
M  V30 2131 C 197.802 3.47311 -0.342988 0
M  V30 2132 C 199.15 4.23875 -0.24798 0
M  V30 2133 O 200.174 3.55133 -0.275553 0
M  V30 2134 O 199.033 5.4623 -0.171771 0
M  V30 2135 H 196.127 0.826945 0.00956291 0
M  V30 2136 H 198.673 1.5336 -0.726558 0
M  V30 2137 H 197.445 3.66569 -1.36906 0
M  V30 2138 H 197.068 3.9631 0.319975 0
M  V30 2139 N 198.065 0.39524 1.52563 0
M  V30 2140 C 199.476 -0.0774719 1.86539 0
M  V30 2141 C 199.827 -1.45641 1.31466 0
M  V30 2142 O 198.952 -2.06459 0.648367 0
M  V30 2143 C 199.547 -0.147356 3.38479 0
M  V30 2144 C 198.106 -0.564373 3.72145 0
M  V30 2145 C 197.253 0.269919 2.75983 0
M  V30 2146 H 200.204 0.612876 1.46388 0
M  V30 2147 H 200.225 -0.965343 3.68051 0
M  V30 2148 H 199.737 0.856387 3.78534 0
M  V30 2149 H 197.838 -1.57527 3.37663 0
M  V30 2150 H 197.951 -0.318402 4.78041 0
M  V30 2151 H 196.315 -0.265696 2.5331 0
M  V30 2152 H 197.098 1.27175 3.18875 0
M  V30 2153 N 199.544 -1.57102 0.125237 0
M  V30 2154 C 200.494 -2.12202 -0.833936 0
M  V30 2155 C 201.478 -1.04433 -1.22403 0
M  V30 2156 O 202.67 -1.30655 -1.19408 0
M  V30 2157 C 199.799 -2.72994 -2.08157 0
M  V30 2158 C 198.885 -3.87852 -1.71556 0
M  V30 2159 N 199.276 -4.9464 -1.05662 0
M  V30 2160 C 197.574 -3.98153 -2.00973 0
M  V30 2161 C 198.275 -5.74953 -0.883376 0
M  V30 2162 N 197.251 -5.24985 -1.41036 0
M  V30 2163 H 201.053 -2.92141 -0.321035 0
M  V30 2164 H 198.567 -1.62217 -0.0770315 0
M  V30 2165 H 200.564 -3.10816 -2.77847 0
M  V30 2166 H 199.224 -1.9452 -2.59985 0
M  V30 2167 H 200.235 -5.12872 -0.719878 0
M  V30 2168 H 196.912 -3.30728 -2.54804 0
M  V30 2169 H 198.302 -6.70904 -0.365675 0
M  V30 2170 N 201.022 0.148545 -1.56898 0
M  V30 2171 C 201.969 1.18345 -1.98149 0
M  V30 2172 C 202.939 1.42772 -0.848848 0
M  V30 2173 O 204.124 1.55132 -1.11079 0
M  V30 2174 C 201.264 2.51231 -2.36594 0
M  V30 2175 C 200.377 2.33991 -3.63142 0
M  V30 2176 C 199.512 3.59902 -3.90697 0
M  V30 2177 C 198.551 3.37692 -5.1052 0
M  V30 2178 N 197.688 4.5573 -5.34092 0
M  V30 2179 H 202.528 0.82467 -2.86362 0
M  V30 2180 H 200.065 0.395756 -1.41676 0
M  V30 2181 H 202.023 3.28713 -2.56912 0
M  V30 2182 H 200.653 2.85059 -1.51463 0
M  V30 2183 H 199.705 1.47572 -3.50609 0
M  V30 2184 H 201.017 2.13539 -4.5078 0
M  V30 2185 H 200.171 4.45813 -4.11505 0
M  V30 2186 H 198.91 3.83357 -3.01477 0
M  V30 2187 H 197.915 2.5017 -4.89587 0
M  V30 2188 H 199.14 3.15637 -6.0129 0
M  V30 2189 H 197.086 4.79361 -4.47827 0
M  V30 2190 H 197.003 4.38274 -6.15996 0
M  V30 2191 H 198.271 5.42858 -5.59397 0
M  V30 2192 N 202.5 1.5196 0.417844 0
M  V30 2193 C 203.43 1.77634 1.51554 0
M  V30 2194 C 204.411 0.626918 1.58126 0
M  V30 2195 O 205.596 0.871632 1.7354 0
M  V30 2196 C 202.726 1.91911 2.8946 0
M  V30 2197 C 201.68 3.07463 2.97743 0
M  V30 2198 C 201.006 3.06951 4.37819 0
M  V30 2199 C 202.306 4.47082 2.70027 0
M  V30 2200 H 204 2.6955 1.3032 0
M  V30 2201 H 201.546 1.29706 0.625492 0
M  V30 2202 H 203.499 2.08455 3.6623 0
M  V30 2203 H 202.223 0.966598 3.11969 0
M  V30 2204 H 200.882 2.90656 2.23416 0
M  V30 2205 H 200.53 2.09438 4.57323 0
M  V30 2206 H 200.23 3.84556 4.44286 0
M  V30 2207 H 201.754 3.25613 5.16535 0
M  V30 2208 H 203.168 4.6414 3.36522 0
M  V30 2209 H 201.565 5.2654 2.87881 0
M  V30 2210 H 202.635 4.55777 1.65514 0
M  V30 2211 N 203.978 -0.674533 1.42435 0
M  V30 2212 C 204.908 -1.80009 1.48724 0
M  V30 2213 C 205.889 -1.6659 0.343793 0
M  V30 2214 O 207.074 -1.86007 0.558137 0
M  V30 2215 C 204.204 -3.18306 1.38919 0
M  V30 2216 C 203.158 -3.46461 2.51294 0
M  V30 2217 C 202.484 -4.84335 2.26547 0
M  V30 2218 C 203.784 -3.43328 3.93603 0
M  V30 2219 H 205.478 -1.75004 2.42928 0
M  V30 2220 H 203.024 -0.840533 1.16923 0
M  V30 2221 H 204.977 -3.9678 1.41927 0
M  V30 2222 H 203.701 -3.2399 0.412094 0
M  V30 2223 H 202.36 -2.70348 2.47604 0
M  V30 2224 H 202.008 -4.86669 1.2713 0
M  V30 2225 H 201.708 -5.04136 3.01861 0
M  V30 2226 H 203.232 -5.65094 2.31304 0
M  V30 2227 H 204.646 -4.11772 3.98894 0
M  V30 2228 H 203.043 -3.74664 4.68771 0
M  V30 2229 H 204.113 -2.41897 4.20255 0
M  V30 2230 N 205.456 -1.28612 -0.910864 0
M  V30 2231 C 206.366 -1.14643 -2.0468 0
M  V30 2232 C 207.382 -0.0723121 -1.7385 0
M  V30 2233 O 208.558 -0.282178 -1.99413 0
M  V30 2234 C 205.623 -0.812561 -3.37044 0
M  V30 2235 C 204.684 -1.96935 -3.81465 0
M  V30 2236 C 203.917 -1.65131 -5.07511 0
M  V30 2237 O 204.14 -0.567013 -5.67575 0
M  V30 2238 O 203.074 -2.49585 -5.47714 0
M  V30 2239 H 206.9 -2.1001 -2.19384 0
M  V30 2240 H 204.485 -1.07958 -1.03274 0
M  V30 2241 H 206.367 -0.640441 -4.16505 0
M  V30 2242 H 205.042 0.111426 -3.23508 0
M  V30 2243 H 203.949 -2.19664 -3.02818 0
M  V30 2244 H 205.282 -2.87414 -3.99567 0
M  V30 2245 N 206.934 1.1197 -1.10907 0
M  V30 2246 C 208.182 1.83225 -0.852819 0
M  V30 2247 C 208.503 1.84769 0.623341 0
M  V30 2248 O 207.773 1.3143 1.45269 0
M  V30 2249 H 206.353 0.67849 -0.312507 0
M  V30 2250 H 209.015 1.3556 -1.40033 0
M  V30 2251 H 208.111 2.87265 -1.22005 0
M  V30 2252 N 208.412 0.89855 1.29475 0
M  V30 2253 C 209.652 0.530771 1.97388 0
M  V30 2254 C 210.016 -0.905832 1.69289 0
M  V30 2255 O 211.217 -1.38042 2.30646 0
M  V30 2256 C 209.488 0.81369 3.48014 0
M  V30 2257 S 211.047 0.550048 4.35339 0
M  V30 2258 H 207.865 0.196956 0.683176 0
M  V30 2259 H 210.467 1.16074 1.57312 0
M  V30 2260 H 209.171 1.85749 3.65958 0
M  V30 2261 H 208.702 0.171795 3.93025 0
M  V30 2262 H 210.717 -0.605423 4.92493 0
M  V30 2263 N 209.89 -1.43072 0.660911 0
M  V30 2264 C 210.82 -2.33497 -0.0122829 0
M  V30 2265 C 211.801 -1.49903 -0.803925 0
M  V30 2266 O 212.986 -1.78546 -0.763864 0
M  V30 2267 C 210.116 -3.33363 -0.973994 0
M  V30 2268 C 209.07 -4.27003 -0.291928 0
M  V30 2269 C 208.396 -5.16967 -1.36562 0
M  V30 2270 C 209.696 -5.15816 0.820462 0
M  V30 2271 H 211.39 -2.90038 0.742873 0
M  V30 2272 H 208.936 -1.39461 0.358688 0
M  V30 2273 H 210.889 -3.95524 -1.45392 0
M  V30 2274 H 209.613 -2.75095 -1.7604 0
M  V30 2275 H 208.272 -3.66217 0.167623 0
M  V30 2276 H 207.92 -4.55034 -2.14366 0
M  V30 2277 H 207.62 -5.80441 -0.914454 0
M  V30 2278 H 209.144 -5.82003 -1.84675 0
M  V30 2279 H 210.558 -5.71742 0.422366 0
M  V30 2280 H 208.955 -5.8805 1.19656 0
M  V30 2281 H 210.025 -4.55045 1.67518 0
M  V30 2282 N 211.368 -0.403325 -1.52352 0
M  V30 2283 C 212.614 0.174605 -2.02047 0
M  V30 2284 C 212.947 1.45282 -1.28867 0
M  V30 2285 O 212.222 1.90483 -0.393257 0
M  V30 2286 C 212.505 0.428238 -3.57545 0
M  V30 2287 C 212.358 -0.866248 -4.4138 0
M  V30 2288 C 213.677 1.21287 -4.23057 0
M  V30 2289 H 210.796 0.0619851 -0.734389 0
M  V30 2290 H 213.438 -0.53565 -1.82293 0
M  V30 2291 H 211.588 1.03327 -3.74507 0
M  V30 2292 H 213.26 -1.50265 -4.3614 0
M  V30 2293 H 211.503 -1.47851 -4.07827 0
M  V30 2294 H 212.174 -0.643249 -5.48239 0
M  V30 2295 H 214.65 0.700703 -4.10158 0
M  V30 2296 H 213.526 1.35909 -5.31808 0
M  V30 2297 H 213.787 2.23193 -3.81625 0
M  V30 2298 N 212.846 1.57033 -0.133567 0
M  V30 2299 C 214.094 1.953 0.519848 0
M  V30 2300 C 214.415 1.01866 1.66278 0
M  V30 2301 O 213.685 0.0776513 1.95746 0
M  V30 2302 H 212.265 0.721091 0.195032 0
M  V30 2303 H 214.927 1.93809 -0.205921 0
M  V30 2304 H 214.023 2.98695 0.904854 0
M  V30 2305 N 214.325 -0.140222 1.56975 0
M  V30 2306 C 215.573 -0.850005 1.83356 0
M  V30 2307 C 215.894 -1.81399 0.71551 0
M  V30 2308 O 215.164 -1.94136 -0.262294 0
M  V30 2309 H 213.744 -0.316886 0.676456 0
M  V30 2310 H 216.406 -0.132608 1.94448 0
M  V30 2311 H 215.502 -1.40814 2.78528 0
M  V30 2312 N 215.803 -1.52179 -0.40978 0
M  V30 2313 C 217.219 -1.40968 -0.74835 0
M  V30 2314 C 217.419 -0.513657 -1.94843 0
M  V30 2315 O 216.475 0.0208026 -2.52491 0
M  V30 2316 C 217.788 -2.83483 -1.0029 0
M  V30 2317 C 219.336 -2.92821 -1.10565 0
M  V30 2318 C 219.811 -4.36303 -1.39296 0
M  V30 2319 N 221.302 -4.39535 -1.46162 0
M  V30 2320 C 222.037 -5.47614 -1.70018 0
M  V30 2321 N 221.533 -6.65812 -1.91483 0
M  V30 2322 N 223.326 -5.35129 -1.72027 0
M  V30 2323 H 215.477 -2.0897 0.380186 0
M  V30 2324 H 217.74 -0.94185 0.107805 0
M  V30 2325 H 217.446 -3.51168 -0.193461 0
M  V30 2326 H 217.32 -3.24487 -1.92323 0
M  V30 2327 H 219.707 -2.25318 -1.90568 0
M  V30 2328 H 219.788 -2.55276 -0.16369 0
M  V30 2329 H 219.432 -5.04366 -0.598109 0
M  V30 2330 H 219.362 -4.71385 -2.34743 0
M  V30 2331 H 221.853 -3.54332 -1.31367 0
M  V30 2332 H 222.166 -7.43964 -2.09134 0
M  V30 2333 H 220.511 -6.68879 -1.88749 0
M  V30 2334 H 223.702 -4.41764 -1.54796 0
M  V30 2335 H 223.875 -6.19433 -1.9028 0
M  V30 2336 N 217.281 0.66697 -1.42791 0
M  V30 2337 C 218.244 1.76211 -1.46568 0
M  V30 2338 C 219.244 1.56896 -0.352196 0
M  V30 2339 O 220.434 1.63044 -0.613364 0
M  V30 2340 C 217.566 3.14935 -1.30494 0
M  V30 2341 H 218.759 1.74247 -2.44086 0
M  V30 2342 H 216.312 0.877342 -1.29354 0
M  V30 2343 H 217.047 3.2252 -0.339301 0
M  V30 2344 H 216.832 3.30359 -2.11199 0
M  V30 2345 H 218.322 3.94821 -1.36038 0
M  V30 2346 N 218.759 1.29093 0.90403 0
M  V30 2347 C 219.692 1.08176 2.00931 0
M  V30 2348 C 220.67 -0.005083 1.62599 0
M  V30 2349 O 221.854 0.144765 1.87943 0
M  V30 2350 C 218.981 0.645897 3.32484 0
M  V30 2351 C 218.027 1.73081 3.89801 0
M  V30 2352 S 218.86 3.32905 4.19446 0
M  V30 2353 C 220.016 2.91176 5.54046 0
M  V30 2354 H 220.249 2.01752 2.18365 0
M  V30 2355 H 217.782 1.13191 1.0501 0
M  V30 2356 H 219.74 0.401131 4.08535 0
M  V30 2357 H 218.401 -0.270188 3.12936 0
M  V30 2358 H 217.594 1.37768 4.84805 0
M  V30 2359 H 217.196 1.92888 3.20422 0
M  V30 2360 H 219.488 2.37952 6.34338 0
M  V30 2361 H 220.431 3.85014 5.94281 0
M  V30 2362 H 220.839 2.296 5.15698 0
M  V30 2363 N 220.237 -1.11381 1.11499 0
M  V30 2364 C 221.485 -1.8277 0.862524 0
M  V30 2365 C 221.806 -1.85097 -0.613534 0
M  V30 2366 O 221.076 -1.32198 -1.4457 0
M  V30 2367 H 219.656 -0.676823 0.316101 0
M  V30 2368 H 222.318 -1.34816 1.4075 0
M  V30 2369 H 221.414 -2.86614 1.23527 0
M  V30 2370 N 221.715 -0.905404 -1.28997 0
M  V30 2371 C 222.678 -0.392253 -2.25819 0
M  V30 2372 C 223.678 0.476753 -1.5357 0
M  V30 2373 O 224.868 0.280994 -1.71919 0
M  V30 2374 C 222 0.438588 -3.38067 0
M  V30 2375 H 223.193 -1.24743 -2.72725 0
M  V30 2376 H 220.746 -0.684051 -1.40536 0
M  V30 2377 H 221.481 1.31352 -2.96508 0
M  V30 2378 H 221.266 -0.184167 -3.91667 0
M  V30 2379 H 222.756 0.78873 -4.10084 0
M  V30 2380 N 223.193 1.4272 -0.668489 0
M  V30 2381 C 224.609 1.55992 -0.33745 0
M  V30 2382 C 224.809 1.64933 1.15756 0
M  V30 2383 O 223.865 1.61278 1.94282 0
M  V30 2384 C 225.178 2.81314 -1.06222 0
M  V30 2385 C 226.726 2.95078 -1.04394 0
M  V30 2386 C 227.201 4.23252 -1.74991 0
M  V30 2387 N 228.692 4.3015 -1.71829 0
M  V30 2388 C 229.427 5.28127 -2.23315 0
M  V30 2389 N 228.923 6.32293 -2.83156 0
M  V30 2390 N 230.716 5.19882 -2.13726 0
M  V30 2391 H 222.867 1.3516 -1.63846 0
M  V30 2392 H 225.13 0.650174 -0.689912 0
M  V30 2393 H 224.836 2.80823 -2.11734 0
M  V30 2394 H 224.71 3.72012 -0.62344 0
M  V30 2395 H 227.097 2.951 0.0028244 0
M  V30 2396 H 227.178 2.05627 -1.52155 0
M  V30 2397 H 226.822 4.2399 -2.79633 0
M  V30 2398 H 226.752 5.11626 -1.24685 0
M  V30 2399 H 229.243 3.55499 -1.28175 0
M  V30 2400 H 229.556 7.03398 -3.20079 0
M  V30 2401 H 227.901 6.32873 -2.87223 0
M  V30 2402 H 231.092 4.37423 -1.66669 0
M  V30 2403 H 231.265 5.96077 -2.54158 0
M  V30 2404 N 224.671 0.411399 1.52136 0
M  V30 2405 C 225.634 -0.401089 2.25663 0
M  V30 2406 C 226.634 -0.971732 1.28117 0
M  V30 2407 O 227.824 -0.850254 1.52041 0
M  V30 2408 C 224.956 -1.56483 3.02863 0
M  V30 2409 H 226.149 0.24295 2.98914 0
M  V30 2410 H 223.702 0.163968 1.55438 0
M  V30 2411 H 224.437 -2.24567 2.33967 0
M  V30 2412 H 224.222 -1.16211 3.74483 0
M  V30 2413 H 225.712 -2.13951 3.58629 0
M  V30 2414 N 226.149 -1.5696 0.141893 0
M  V30 2415 C 227.112 -2.15316 -0.785587 0
M  V30 2416 C 228.112 -1.09366 -1.1788 0
M  V30 2417 O 229.302 -1.35031 -1.10056 0
M  V30 2418 C 226.434 -2.71211 -2.06537 0
M  V30 2419 H 227.627 -2.98608 -0.278041 0
M  V30 2420 H 225.18 -1.5593 -0.107519 0
M  V30 2421 H 225.915 -1.91571 -2.6167 0
M  V30 2422 H 225.7 -3.4872 -1.79268 0
M  V30 2423 H 227.19 -3.16189 -2.72789 0
M  V30 2424 N 227.627 0.131896 -1.57047 0
M  V30 2425 C 228.857 0.855219 -1.88068 0
M  V30 2426 C 229.265 1.74557 -0.729817 0
M  V30 2427 O 228.608 1.81083 0.308962 0
M  V30 2428 C 228.67 1.75119 -3.13964 0
M  V30 2429 C 228.334 1.03646 -4.45091 0
M  V30 2430 C 229.331 0.383276 -5.18485 0
M  V30 2431 C 227.016 1.02148 -4.91804 0
M  V30 2432 C 229.01 -0.275347 -6.36805 0
M  V30 2433 C 226.697 0.359047 -6.10044 0
M  V30 2434 C 227.695 -0.288222 -6.82392 0
M  V30 2435 O 227.383 -0.94011 -7.98384 0
M  V30 2436 H 227.115 0.251864 -0.627328 0
M  V30 2437 H 229.669 0.124782 -2.05021 0
M  V30 2438 H 227.899 2.52295 -2.9306 0
M  V30 2439 H 229.588 2.3478 -3.31109 0
M  V30 2440 H 230.354 0.386562 -4.83457 0
M  V30 2441 H 226.233 1.5147 -4.35405 0
M  V30 2442 H 229.777 -0.781148 -6.93213 0
M  V30 2443 H 225.674 0.35348 -6.44531 0
M  V30 2444 H 226.442 -0.84329 -8.14144 0
M  V30 2445 N 229.106 1.52395 0.401703 0
M  V30 2446 C 230.355 1.66044 1.14509 0
M  V30 2447 C 230.668 0.400216 1.91462 0
M  V30 2448 O 231.874 0.416632 2.68284 0
M  V30 2449 C 230.33 2.93388 2.0845 0
M  V30 2450 C 229.938 4.26545 1.36978 0
M  V30 2451 C 231.682 3.16402 2.83001 0
M  V30 2452 C 229.589 5.45007 2.29611 0
M  V30 2453 H 228.519 0.618562 0.431158 0
M  V30 2454 H 231.17 1.78886 0.40892 0
M  V30 2455 H 229.552 2.74263 2.8565 0
M  V30 2456 H 230.726 4.56179 0.650916 0
M  V30 2457 H 229.041 4.09692 0.74438 0
M  V30 2458 H 231.638 4.02085 3.52465 0
M  V30 2459 H 231.981 2.30943 3.46368 0
M  V30 2460 H 232.514 3.36034 2.12898 0
M  V30 2461 H 229.253 6.32835 1.70879 0
M  V30 2462 H 228.773 5.19702 2.9945 0
M  V30 2463 H 230.452 5.7838 2.89974 0
M  V30 2464 N 230.584 -0.659388 1.43143 0
M  V30 2465 C 231.814 -1.44513 1.47646 0
M  V30 2466 C 232.222 -1.88981 0.0910095 0
M  V30 2467 O 231.565 -1.59702 -0.907789 0
M  V30 2468 C 231.627 -2.71663 2.35456 0
M  V30 2469 C 231.291 -2.49175 3.83094 0
M  V30 2470 C 232.288 -2.1279 4.74359 0
M  V30 2471 C 229.973 -2.63691 4.27519 0
M  V30 2472 C 231.967 -1.9121 6.08044 0
M  V30 2473 C 229.654 -2.41726 5.61259 0
M  V30 2474 C 230.652 -2.0554 6.51339 0
M  V30 2475 O 230.34 -1.838 7.82606 0
M  V30 2476 H 230.072 -0.45064 0.503884 0
M  V30 2477 H 232.626 -0.816248 1.88485 0
M  V30 2478 H 230.856 -3.37089 1.89493 0
M  V30 2479 H 232.545 -3.33595 2.31235 0
M  V30 2480 H 233.311 -2.01157 4.41317 0
M  V30 2481 H 229.19 -2.90832 3.57684 0
M  V30 2482 H 232.734 -1.62889 6.78316 0
M  V30 2483 H 228.631 -2.52959 5.9387 0
M  V30 2484 H 229.399 -1.98275 7.94122 0
M  V30 2485 N 232.062 -1.29571 -0.897171 0
M  V30 2486 C 233.311 -1.1706 -1.64256 0
M  V30 2487 C 233.624 0.276476 -1.93636 0
M  V30 2488 O 234.83 0.52294 -2.66416 0
M  V30 2489 C 233.286 -2.0475 -2.95982 0
M  V30 2490 C 232.894 -3.54295 -2.74187 0
M  V30 2491 C 234.638 -2.0097 -3.73914 0
M  V30 2492 C 232.545 -4.34081 -4.01656 0
M  V30 2493 H 231.475 -0.43452 -0.616205 0
M  V30 2494 H 234.126 -1.54229 -0.994268 0
M  V30 2495 H 232.508 -1.60452 -3.62038 0
M  V30 2496 H 233.682 -4.06662 -2.1671 0
M  V30 2497 H 231.997 -3.59773 -2.09648 0
M  V30 2498 H 234.594 -2.57838 -4.68427 0
M  V30 2499 H 234.937 -0.990273 -4.0435 0
M  V30 2500 H 235.47 -2.43325 -3.14703 0
M  V30 2501 H 232.209 -5.36671 -3.76384 0
M  V30 2502 H 231.729 -3.86483 -4.58684 0
M  V30 2503 H 233.408 -4.44877 -4.69781 0
M  V30 2504 N 233.54 1.10788 -1.12088 0
M  V30 2505 C 234.956 1.34691 -0.856186 0
M  V30 2506 C 235.156 1.94791 0.515615 0
M  V30 2507 O 234.212 2.18524 1.26505 0
M  V30 2508 C 235.525 2.27208 -1.9697 0
M  V30 2509 C 237.073 2.40755 -2.00016 0
M  V30 2510 C 237.548 3.36598 -3.1059 0
M  V30 2511 N 239.039 3.44164 -3.10008 0
M  V30 2512 C 239.774 4.18284 -3.92206 0
M  V30 2513 N 239.27 4.95322 -4.84384 0
M  V30 2514 N 241.063 4.13865 -3.80357 0
M  V30 2515 H 233.214 0.70144 -2.00483 0
M  V30 2516 H 235.477 0.371405 -0.872217 0
M  V30 2517 H 235.183 1.90251 -2.958 0
M  V30 2518 H 235.057 3.27485 -1.87172 0
M  V30 2519 H 237.444 2.76982 -1.01808 0
M  V30 2520 H 237.525 1.40305 -2.13888 0
M  V30 2521 H 237.169 3.01096 -4.09028 0
M  V30 2522 H 237.099 4.36918 -2.93956 0
M  V30 2523 H 239.59 2.8922 -2.43228 0
M  V30 2524 H 239.903 5.49267 -5.43623 0
M  V30 2525 H 238.248 4.94459 -4.884 0
M  V30 2526 H 241.439 3.52773 -3.07683 0
M  V30 2527 H 241.612 4.71372 -4.44649 0
M  V30 2528 N 235.018 0.912232 1.28515 0
M  V30 2529 C 236.266 0.543523 1.94654 0
M  V30 2530 C 236.587 -0.9155 1.72173 0
M  V30 2531 O 235.857 -1.64708 1.06058 0
M  V30 2532 H 234.437 0.198017 0.720277 0
M  V30 2533 H 237.099 1.16126 1.56527 0
M  V30 2534 H 236.195 0.736684 3.03281 0
M  V30 2535 N 236.496 -1.42363 0.676048 0
M  V30 2536 C 237.406 -2.346 -0.00153389 0
M  V30 2537 C 238.422 -1.5516 -0.787485 0
M  V30 2538 O 239.598 -1.87723 -0.729521 0
M  V30 2539 C 236.663 -3.33705 -0.940298 0
M  V30 2540 C 235.724 -4.29042 -0.148739 0
M  V30 2541 C 234.957 -5.23413 -1.04279 0
M  V30 2542 O 235.18 -5.22749 -2.28232 0
M  V30 2543 O 234.114 -5.99795 -0.502925 0
M  V30 2544 H 237.94 -2.94082 0.758268 0
M  V30 2545 H 235.525 -1.42888 0.436289 0
M  V30 2546 H 237.407 -3.94586 -1.47917 0
M  V30 2547 H 236.082 -2.76695 -1.67993 0
M  V30 2548 H 234.989 -3.71571 0.43427 0
M  V30 2549 H 236.322 -4.89097 0.551805 0
M  V30 2550 N 237.974 -0.419461 -1.51915 0
M  V30 2551 C 239.221 0.152939 -2.01922 0
M  V30 2552 C 239.549 1.4426 -1.30458 0
M  V30 2553 O 238.804 1.91514 -0.402593 0
M  V30 2554 C 239.103 0.437067 -3.54717 0
M  V30 2555 C 238.769 -0.764632 -4.44369 0
M  V30 2556 C 237.431 -1.09423 -4.68594 0
M  V30 2557 C 239.783 -1.56713 -4.97082 0
M  V30 2558 C 237.111 -2.22732 -5.42777 0
M  V30 2559 C 239.463 -2.69107 -5.72507 0
M  V30 2560 C 238.127 -3.02541 -5.95 0
M  V30 2561 H 237.397 0.0559644 -0.738884 0
M  V30 2562 H 240.044 -0.562998 -1.83037 0
M  V30 2563 H 238.349 1.23469 -3.71837 0
M  V30 2564 H 240.046 0.893083 -3.90928 0
M  V30 2565 H 236.636 -0.497775 -4.257 0
M  V30 2566 H 240.82 -1.32571 -4.78266 0
M  V30 2567 H 236.076 -2.48971 -5.58411 0
M  V30 2568 H 240.25 -3.31671 -6.12346 0
M  V30 2569 H 237.877 -3.90457 -6.52264 0
M  V30 2570 N 239.452 1.56882 -0.150215 0
M  V30 2571 C 240.682 2.00302 0.506213 0
M  V30 2572 C 241.09 1.02934 1.58749 0
M  V30 2573 O 240.433 0.0188384 1.8369 0
M  V30 2574 C 240.495 3.40156 1.16337 0
M  V30 2575 C 240.159 4.56439 0.226311 0
M  V30 2576 C 241.156 5.17012 -0.547265 0
M  V30 2577 C 238.841 5.02136 0.128279 0
M  V30 2578 C 240.835 6.21693 -1.40629 0
M  V30 2579 C 238.522 6.06672 -0.734345 0
M  V30 2580 C 239.52 6.6632 -1.50023 0
M  V30 2581 O 239.208 7.68831 -2.34848 0
M  V30 2582 H 238.94 0.662182 0.135984 0
M  V30 2583 H 241.494 2.03961 -0.242746 0
M  V30 2584 H 239.724 3.33346 1.96004 0
M  V30 2585 H 241.413 3.67663 1.71985 0
M  V30 2586 H 242.179 4.82603 -0.48158 0
M  V30 2587 H 238.058 4.55435 0.714157 0
M  V30 2588 H 241.602 6.68179 -2.00455 0
M  V30 2589 H 237.499 6.40507 -0.801309 0
M  V30 2590 H 238.267 7.86065 -2.28131 0
M  V30 2591 N 240.93 -0.123565 1.57115 0
M  V30 2592 C 241.878 -1.17082 2.00984 0
M  V30 2593 C 242.872 -1.43136 0.906009 0
M  V30 2594 O 244.078 -1.43152 1.09121 0
M  V30 2595 H 240.453 -0.394653 0.64012 0
M  V30 2596 H 242.424 -0.774292 2.88179 0
M  V30 2597 C 241.173 -2.49057 2.42623 0
M  V30 2598 H 240.496 -2.29846 3.27125 0
M  V30 2599 H 241.936 -3.20906 2.7712 0
M  V30 2600 C 240.395 -3.11305 1.28805 0
M  V30 2601 O 240.925 -3.97171 0.60153 0
M  V30 2602 N 239.131 -2.71111 1.04628 0
M  V30 2603 H 238.678 -2.01382 1.60634 0
M  V30 2604 H 238.636 -3.1309 0.286685 0
M  V30 2605 N 242.408 -1.52605 -0.393616 0
M  V30 2606 C 243.318 -1.79971 -1.50492 0
M  V30 2607 C 244.334 -0.686181 -1.59899 0
M  V30 2608 O 245.51 -0.973274 -1.76322 0
M  V30 2609 C 242.575 -1.95867 -2.86072 0
M  V30 2610 C 241.636 -3.19781 -2.86424 0
M  V30 2611 C 240.869 -3.34909 -4.15538 0
M  V30 2612 O 241.092 -2.54948 -5.10253 0
M  V30 2613 O 240.026 -4.28141 -4.23059 0
M  V30 2614 H 243.852 -2.74328 -1.30299 0
M  V30 2615 H 241.437 -1.3764 -0.581005 0
M  V30 2616 H 243.319 -2.08056 -3.66457 0
M  V30 2617 H 241.994 -1.04699 -3.063 0
M  V30 2618 H 240.901 -3.13038 -2.04837 0
M  V30 2619 H 242.234 -4.1078 -2.71147 0
M  V30 2620 N 243.887 0.651787 -1.4349 0
M  V30 2621 C 244.85 1.74647 -1.48429 0
M  V30 2622 C 245.85 1.56513 -0.368817 0
M  V30 2623 O 247.04 1.62385 -0.630623 0
M  V30 2624 C 244.172 3.13533 -1.33827 0
M  V30 2625 H 245.365 1.71649 -2.4592 0
M  V30 2626 H 242.918 0.863573 -1.30277 0
M  V30 2627 H 243.653 3.22142 -0.37349 0
M  V30 2628 H 243.438 3.28101 -2.14691 0
M  V30 2629 H 244.928 3.93356 -1.40218 0
M  V30 2630 N 245.365 1.30045 0.890287 0
M  V30 2631 C 246.59 1.21598 1.68014 0
M  V30 2632 C 247.015 -0.218678 1.86825 0
M  V30 2633 O 246.373 -1.15756 1.39536 0
M  V30 2634 C 246.421 1.94434 3.03691 0
M  V30 2635 O 245.525 1.2678 3.92429 0
M  V30 2636 H 244.866 0.420856 0.513592 0
M  V30 2637 H 247.396 1.71775 1.11151 0
M  V30 2638 H 247.406 2.03251 3.5377 0
M  V30 2639 H 246.081 2.98777 2.89318 0
M  V30 2640 H 244.658 1.26282 3.50866 0
M  V30 2641 N 246.843 -1.10192 1.12674 0
M  V30 2642 C 247.791 -2.18694 0.792196 0
M  V30 2643 C 248.785 -1.67938 -0.222058 0
M  V30 2644 O 249.991 -1.79822 -0.0800074 0
M  V30 2645 H 246.366 -0.713223 0.238364 0
M  V30 2646 H 248.337 -2.44149 1.71564 0
M  V30 2647 C 247.086 -3.46682 0.265859 0
M  V30 2648 H 246.409 -3.86101 1.03761 0
M  V30 2649 H 247.849 -4.23942 0.0701128 0
M  V30 2650 C 246.308 -3.21506 -1.00675 0
M  V30 2651 O 246.838 -3.43408 -2.08408 0
M  V30 2652 N 245.044 -2.75158 -0.934692 0
M  V30 2653 H 244.591 -2.57535 -0.0578604 0
M  V30 2654 H 244.549 -2.58691 -1.7868 0
M  V30 2655 N 248.321 -0.919034 -1.28029 0
M  V30 2656 C 249.251 -0.428581 -2.29533 0
M  V30 2657 C 250.232 0.50659 -1.62381 0
M  V30 2658 O 251.417 0.413195 -1.89753 0
M  V30 2659 C 248.547 0.327388 -3.45753 0
M  V30 2660 C 247.501 -0.519137 -4.2484 0
M  V30 2661 C 246.827 0.365486 -5.33449 0
M  V30 2662 C 248.127 -1.77914 -4.91064 0
M  V30 2663 H 249.821 -1.27687 -2.70807 0
M  V30 2664 H 247.367 -0.615428 -1.30186 0
M  V30 2665 H 249.32 0.681378 -4.15855 0
M  V30 2666 H 248.044 1.20963 -3.03374 0
M  V30 2667 H 246.703 -0.855717 -3.56473 0
M  V30 2668 H 246.351 1.24642 -4.87312 0
M  V30 2669 H 246.051 -0.197356 -5.87268 0
M  V30 2670 H 247.575 0.715241 -6.06396 0
M  V30 2671 H 248.989 -1.49374 -5.53498 0
M  V30 2672 H 247.386 -2.2848 -5.54903 0
M  V30 2673 H 248.456 -2.50382 -4.15255 0
M  V30 2674 N 249.799 1.42003 -0.683588 0
M  V30 2675 C 250.731 2.29183 0.0283068 0
M  V30 2676 C 251.744 1.4415 0.756611 0
M  V30 2677 O 252.933 1.67779 0.609306 0
M  V30 2678 C 250.033 3.21765 1.06398 0
M  V30 2679 C 249.206 4.35496 0.407723 0
M  V30 2680 C 248.265 5.08737 1.34437 0
M  V30 2681 O 247.291 5.62948 0.841318 0
M  V30 2682 N 248.493 5.15075 2.67728 0
M  V30 2683 H 251.258 2.9092 -0.720105 0
M  V30 2684 H 248.819 1.53025 -0.528682 0
M  V30 2685 H 250.811 3.6763 1.69204 0
M  V30 2686 H 249.381 2.61418 1.71404 0
M  V30 2687 H 248.601 3.92165 -0.400012 0
M  V30 2688 H 249.889 5.08776 -0.0490956 0
M  V30 2689 H 249.287 4.72457 3.11129 0
M  V30 2690 H 247.844 5.64556 3.2576 0
M  V30 2691 N 251.277 0.427512 1.51691 0
M  V30 2692 C 252.523 -0.142439 2.02299 0
M  V30 2693 C 252.856 -1.43214 1.31162 0
M  V30 2694 O 252.131 -1.89833 0.423511 0
M  V30 2695 C 252.414 -0.371301 3.58181 0
M  V30 2696 C 252.267 0.936358 4.39946 0
M  V30 2697 C 253.586 -1.14542 4.24933 0
M  V30 2698 H 250.705 -0.0502937 0.735282 0
M  V30 2699 H 253.347 0.564584 1.81418 0
M  V30 2700 H 251.497 -0.973559 3.76104 0
M  V30 2701 H 253.169 1.57184 4.33694 0
M  V30 2702 H 251.412 1.5432 4.05423 0
M  V30 2703 H 252.083 0.730388 5.47147 0
M  V30 2704 H 254.559 -0.635362 4.11221 0
M  V30 2705 H 253.435 -1.27431 5.33903 0
M  V30 2706 H 253.696 -2.17093 3.85127 0
M  V30 2707 N 252.755 -1.56801 0.158532 0
M  V30 2708 C 253.718 -2.16138 -0.762705 0
M  V30 2709 C 254.718 -1.1061 -1.16713 0
M  V30 2710 O 255.908 -1.36191 -1.08617 0
M  V30 2711 C 253.04 -2.73386 -2.03649 0
M  V30 2712 H 254.233 -2.98886 -0.246354 0
M  V30 2713 H 251.786 -1.56035 -0.0909744 0
M  V30 2714 H 252.521 -1.94335 -2.59623 0
M  V30 2715 H 252.306 -3.50601 -1.75559 0
M  V30 2716 H 253.796 -3.19065 -2.6942 0
M  V30 2717 N 254.233 0.115231 -1.57178 0
M  V30 2718 C 255.482 0.820945 -1.84237 0
M  V30 2719 C 255.795 1.80866 -0.744761 0
M  V30 2720 O 257.001 2.56083 -0.901871 0
M  V30 2721 C 255.457 1.51072 -3.26658 0
M  V30 2722 C 255.065 0.563795 -4.44438 0
M  V30 2723 C 256.809 2.20134 -3.62962 0
M  V30 2724 C 254.716 1.25701 -5.77887 0
M  V30 2725 H 253.646 0.310328 -0.687177 0
M  V30 2726 H 256.297 0.0737134 -1.83352 0
M  V30 2727 H 254.679 2.30471 -3.22024 0
M  V30 2728 H 255.853 -0.197247 -4.60378 0
M  V30 2729 H 254.168 -0.0200638 -4.16395 0
M  V30 2730 H 256.765 2.72696 -4.59936 0
M  V30 2731 H 257.108 2.98107 -2.90582 0
M  V30 2732 H 257.641 1.47619 -3.69396 0
M  V30 2733 H 254.38 0.518493 -6.53446 0
M  V30 2734 H 253.9 1.98997 -5.65827 0
M  V30 2735 H 255.579 1.78915 -6.2177 0
M  V30 2736 N 255.711 1.52812 0.385517 0
M  V30 2737 C 257.127 1.4214 0.725829 0
M  V30 2738 C 257.327 0.544589 1.94001 0
M  V30 2739 O 256.383 0.0193693 2.52493 0
M  V30 2740 C 257.696 2.85042 0.957668 0
M  V30 2741 C 259.244 2.94543 1.05892 0
M  V30 2742 C 259.719 4.38464 1.32337 0
M  V30 2743 N 261.21 4.41804 1.39151 0
M  V30 2744 C 261.945 5.5025 1.61285 0
M  V30 2745 N 261.441 6.68775 1.80866 0
M  V30 2746 N 263.234 5.37798 1.63492 0
M  V30 2747 H 255.385 2.08338 -0.413383 0
M  V30 2748 H 257.648 0.940016 -0.122775 0
M  V30 2749 H 257.354 3.51431 0.137568 0
M  V30 2750 H 257.228 3.27505 1.87137 0
M  V30 2751 H 259.615 2.28321 1.86959 0
M  V30 2752 H 259.696 2.55504 0.123057 0
M  V30 2753 H 259.34 5.05254 0.517793 0
M  V30 2754 H 259.27 4.75059 2.27214 0
M  V30 2755 H 261.761 3.56377 1.25713 0
M  V30 2756 H 262.074 7.47197 1.97271 0
M  V30 2757 H 260.419 6.71797 1.78083 0
M  V30 2758 H 263.61 4.44171 1.47749 0
M  V30 2759 H 263.783 6.22382 1.80402 0
M  V30 2760 N 257.189 -0.644168 1.43834 0
M  V30 2761 C 258.099 -1.78563 1.52159 0
M  V30 2762 C 259.115 -1.69147 0.408069 0
M  V30 2763 O 260.291 -1.90156 0.663524 0
M  V30 2764 C 257.356 -3.14888 1.45073 0
M  V30 2765 C 256.417 -3.36034 2.6717 0
M  V30 2766 C 255.65 -4.65855 2.60413 0
M  V30 2767 O 255.873 -5.45805 1.65689 0
M  V30 2768 O 254.807 -4.88918 3.5106 0
M  V30 2769 H 258.633 -1.74494 2.48567 0
M  V30 2770 H 256.218 -0.80378 1.25935 0
M  V30 2771 H 258.1 -3.96179 1.43597 0
M  V30 2772 H 256.775 -3.19528 0.518037 0
M  V30 2773 H 255.682 -2.54472 2.74217 0
M  V30 2774 H 257.015 -3.36247 3.59442 0
M  V30 2775 N 258.668 -1.30515 -0.883378 0
M  V30 2776 C 259.631 -1.1701 -1.97082 0
M  V30 2777 C 260.631 -0.10089 -1.60483 0
M  V30 2778 O 261.821 -0.349127 -1.70666 0
M  V30 2779 C 258.953 -0.793045 -3.31547 0
M  V30 2780 H 260.146 -2.13622 -2.10489 0
M  V30 2781 H 257.699 -1.13935 -1.06998 0
M  V30 2782 H 258.434 0.172499 -3.23841 0
M  V30 2783 H 258.219 -1.56576 -3.5948 0
M  V30 2784 H 259.709 -0.722073 -4.1131 0
M  V30 2785 N 260.146 1.09593 -1.13257 0
M  V30 2786 C 261.376 1.85231 -0.915049 0
M  V30 2787 C 261.784 1.81345 0.539498 0
M  V30 2788 O 261.127 1.20664 1.38513 0
M  V30 2789 C 261.189 3.34275 -1.3229 0
M  V30 2790 C 260.853 3.6191 -2.79052 0
M  V30 2791 C 261.85 3.57777 -3.77216 0
M  V30 2792 C 259.535 3.90309 -3.16171 0
M  V30 2793 C 261.529 3.81652 -5.1051 0
M  V30 2794 C 259.216 4.13839 -4.49644 0
M  V30 2795 C 260.214 4.09502 -5.46623 0
M  V30 2796 O 259.902 4.32426 -6.77689 0
M  V30 2797 H 259.634 0.591997 -0.326367 0
M  V30 2798 H 262.188 1.394 -1.50854 0
M  V30 2799 H 260.418 3.80805 -0.672667 0
M  V30 2800 H 262.107 3.9132 -1.07812 0
M  V30 2801 H 262.873 3.35865 -3.49885 0
M  V30 2802 H 258.752 3.92811 -2.41289 0
M  V30 2803 H 262.296 3.78182 -5.86195 0
M  V30 2804 H 258.193 4.35232 -4.767 0
M  V30 2805 H 258.961 4.49896 -6.83766 0
M  V30 2806 N 261.624 0.925811 1.2754 0
M  V30 2807 C 262.534 0.428993 2.30644 0
M  V30 2808 C 263.55 -0.489387 1.66976 0
M  V30 2809 O 264.726 -0.372653 1.97922 0
M  V30 2810 C 261.791 -0.311967 3.45294 0
M  V30 2811 C 260.852 0.641098 4.24486 0
M  V30 2812 C 260.085 -0.0645955 5.33661 0
M  V30 2813 O 260.308 -1.28429 5.55754 0
M  V30 2814 O 259.242 0.606265 5.98839 0
M  V30 2815 H 263.068 1.28504 2.75173 0
M  V30 2816 H 260.653 0.691086 1.32455 0
M  V30 2817 H 262.535 -0.729972 4.15029 0
M  V30 2818 H 261.21 -1.14365 3.02824 0
M  V30 2819 H 260.117 1.10874 3.57292 0
M  V30 2820 H 261.45 1.43995 4.70666 0
M  V30 2821 N 263.102 -1.41638 0.69111 0
M  V30 2822 C 264.065 -2.29178 0.0319786 0
M  V30 2823 C 265.065 -1.44153 -0.712496 0
M  V30 2824 O 266.255 -1.65354 -0.548053 0
M  V30 2825 C 263.387 -3.26952 -0.965161 0
M  V30 2826 H 264.58 -2.88959 0.802681 0
M  V30 2827 H 262.133 -1.4955 0.454356 0
M  V30 2828 H 262.868 -2.72142 -1.76378 0
M  V30 2829 H 262.653 -3.89685 -0.434522 0
M  V30 2830 H 264.143 -3.92561 -1.42428 0
M  V30 2831 N 264.58 -0.43555 -1.51462 0
M  V30 2832 C 265.828 0.131254 -2.01673 0
M  V30 2833 C 266.149 1.43368 -1.32177 0
M  V30 2834 O 265.419 1.90524 -0.455769 0
M  V30 2835 H 263.999 0.0514954 -0.745223 0
M  V30 2836 H 266.661 -0.577847 -1.86137 0
M  V30 2837 H 265.757 0.308446 -3.10572 0
M  V30 2838 N 266.058 1.56714 -0.166846 0
M  V30 2839 C 266.988 2.20754 0.760913 0
M  V30 2840 C 267.969 1.16178 1.24244 0
M  V30 2841 O 269.154 1.44592 1.29641 0
M  V30 2842 C 266.284 2.84478 1.99223 0
M  V30 2843 C 265.238 3.95053 1.64672 0
M  V30 2844 C 264.564 4.45805 2.95232 0
M  V30 2845 C 265.864 5.14865 0.878155 0
M  V30 2846 H 267.558 2.98537 0.22713 0
M  V30 2847 H 265.104 1.43596 0.107805 0
M  V30 2848 H 267.057 3.27951 2.64624 0
M  V30 2849 H 265.781 2.04056 2.55007 0
M  V30 2850 H 264.44 3.52228 1.01641 0
M  V30 2851 H 264.088 3.62181 3.49047 0
M  V30 2852 H 263.788 5.204 2.7287 0
M  V30 2853 H 265.312 4.91962 3.6167 0
M  V30 2854 H 266.726 5.55059 1.43466 0
M  V30 2855 H 265.123 5.95348 0.753738 0
M  V30 2856 H 266.193 4.84735 -0.126377 0
M  V30 2857 N 267.536 -0.106894 1.57237 0
M  V30 2858 C 268.785 -0.811163 1.8467 0
M  V30 2859 C 269.098 -1.80469 0.754342 0
M  V30 2860 O 270.304 -2.55601 0.915439 0
M  V30 2861 C 268.76 -1.49337 3.27454 0
M  V30 2862 C 268.368 -0.540217 4.44731 0
M  V30 2863 C 270.112 -2.18206 3.64124 0
M  V30 2864 C 268.019 -1.22634 5.78545 0
M  V30 2865 H 266.949 -0.306679 0.688813 0
M  V30 2866 H 269.6 -0.0639887 1.83388 0
M  V30 2867 H 267.982 -2.2876 3.23241 0
M  V30 2868 H 269.156 0.221659 4.60267 0
M  V30 2869 H 267.471 0.042146 4.16379 0
M  V30 2870 H 270.068 -2.70253 4.61376 0
M  V30 2871 H 270.411 -2.96562 2.92158 0
M  V30 2872 H 270.944 -1.45658 3.70174 0
M  V30 2873 H 267.683 -0.483832 6.53712 0
M  V30 2874 H 267.203 -1.95993 5.66874 0
M  V30 2875 H 268.882 -1.75615 6.2271 0
M  V30 2876 N 269.014 -1.53014 -0.377408 0
M  V30 2877 C 270.262 -1.6829 -1.11906 0
M  V30 2878 C 270.583 -0.431206 -1.90173 0
M  V30 2879 O 269.853 0.554595 -1.87886 0
M  V30 2880 H 268.433 -0.620371 -0.416112 0
M  V30 2881 H 271.095 -1.90167 -0.426893 0
M  V30 2882 H 270.191 -2.53862 -1.8155 0
M  V30 2883 N 270.492 0.636531 -1.44174 0
M  V30 2884 C 271.439 1.74875 -1.50624 0
M  V30 2885 C 272.409 1.62275 -0.35442 0
M  V30 2886 O 273.594 1.82276 -0.563908 0
M  V30 2887 C 270.734 3.13102 -1.45125 0
M  V30 2888 C 269.847 3.36717 -2.7064 0
M  V30 2889 C 268.982 4.64885 -2.57013 0
M  V30 2890 C 268.021 4.8166 -3.77717 0
M  V30 2891 N 267.158 6.01101 -3.62798 0
M  V30 2892 H 271.998 1.68697 -2.45653 0
M  V30 2893 H 269.535 0.823004 -1.21922 0
M  V30 2894 H 271.493 3.93034 -1.39929 0
M  V30 2895 H 270.123 3.18308 -0.536671 0
M  V30 2896 H 269.175 2.50763 -2.86046 0
M  V30 2897 H 270.487 3.44993 -3.60252 0
M  V30 2898 H 269.641 5.52969 -2.49619 0
M  V30 2899 H 268.38 4.58957 -1.64953 0
M  V30 2900 H 267.385 3.92007 -3.85501 0
M  V30 2901 H 268.61 4.89406 -4.70807 0
M  V30 2902 H 266.556 5.96273 -2.73486 0
M  V30 2903 H 266.473 6.10409 -4.46023 0
M  V30 2904 H 267.741 6.91761 -3.59286 0
M  V30 2905 N 271.97 1.30982 0.876444 0
M  V30 2906 C 272.918 1.18006 2.00443 0
M  V30 2907 C 273.912 0.0898871 1.69161 0
M  V30 2908 O 275.118 0.251333 1.78237 0
M  V30 2909 H 271.493 0.365196 0.65737 0
M  V30 2910 H 273.464 2.13453 2.0852 0
M  V30 2911 C 272.213 0.897521 3.35916 0
M  V30 2912 H 271.536 1.7285 3.60504 0
M  V30 2913 H 272.976 0.846874 4.15456 0
M  V30 2914 C 271.435 -0.399674 3.34521 0
M  V30 2915 O 271.965 -1.41852 3.7582 0
M  V30 2916 N 270.171 -0.413893 2.87637 0
M  V30 2917 H 269.718 0.41571 2.54224 0
M  V30 2918 H 269.676 -1.28175 2.87086 0
M  V30 2919 N 273.449 -1.08991 1.13837 0
M  V30 2920 C 274.412 -2.13925 0.822715 0
M  V30 2921 C 275.412 -1.599 -0.1699 0
M  V30 2922 O 276.602 -1.74104 0.0577251 0
M  V30 2923 C 273.734 -3.40155 0.225318 0
M  V30 2924 H 274.927 -2.43358 1.75262 0
M  V30 2925 H 272.48 -1.24603 0.943594 0
M  V30 2926 H 273.215 -3.16352 -0.713594 0
M  V30 2927 H 273 -3.80661 0.940193 0
M  V30 2928 H 274.49 -4.17594 0.0214784 0
M  V30 2929 N 274.927 -0.932562 -1.27047 0
M  V30 2930 C 276.167 -0.582919 -1.95912 0
M  V30 2931 C 276.531 0.860629 -1.71631 0
M  V30 2932 O 277.732 1.31878 -2.34225 0
M  V30 2933 C 276.003 -0.905673 -3.45734 0
M  V30 2934 S 277.562 -0.665277 -4.33727 0
M  V30 2935 H 274.38 -0.215 -0.677714 0
M  V30 2936 H 276.982 -1.20204 -1.54179 0
M  V30 2937 H 275.686 -1.95386 -3.60905 0
M  V30 2938 H 275.217 -0.275939 -3.92431 0
M  V30 2939 H 277.232 0.474635 -4.93925 0
M  V30 2940 N 276.405 1.4127 -0.698611 0
M  V30 2941 C 277.653 2.00782 -0.230409 0
M  V30 2942 C 277.974 1.5562 1.17505 0
M  V30 2943 O 277.244 0.78815 1.79346 0
M  V30 2944 H 275.824 0.742464 -0.0821944 0
M  V30 2945 H 278.486 1.72852 -0.90045 0
M  V30 2946 H 277.582 3.11095 -0.25021 0
M  V30 2947 N 277.883 0.443576 1.51229 0
M  V30 2948 C 279.108 -0.121648 2.07043 0
M  V30 2949 C 279.533 -1.35156 1.30823 0
M  V30 2950 O 278.891 -1.7793 0.347934 0
M  V30 2951 C 278.939 -0.41624 3.5819 0
M  V30 2952 O 278.043 -1.50163 3.8409 0
M  V30 2953 H 277.384 0.000871367 0.663999 0
M  V30 2954 H 279.914 0.626706 1.94765 0
M  V30 2955 H 279.924 -0.664867 4.02546 0
M  V30 2956 H 278.599 0.482653 4.1309 0
M  V30 2957 H 277.176 -1.24248 3.51592 0
M  V30 2958 N 279.361 -1.56624 0.175154 0
M  V30 2959 C 280.609 -1.96609 -0.467885 0
M  V30 2960 C 280.93 -1.06238 -1.63519 0
M  V30 2961 O 280.2 -0.129523 -1.95471 0
M  V30 2962 H 278.78 -0.726008 -0.175845 0
M  V30 2963 H 281.442 -1.93195 0.257234 0
M  V30 2964 H 280.538 -3.00989 -0.825342 0
M  V30 2965 N 280.839 0.0985539 -1.57292 0
M  V30 2966 C 282.069 0.815135 -1.8984 0
M  V30 2967 C 282.477 1.7297 -0.766679 0
M  V30 2968 O 281.82 1.81698 0.270483 0
M  V30 2969 C 281.882 1.6842 -3.17608 0
M  V30 2970 C 281.546 0.94182 -4.4719 0
M  V30 2971 C 282.543 0.273212 -5.19182 0
M  V30 2972 C 280.228 0.916927 -4.9386 0
M  V30 2973 C 282.222 -0.410361 -6.36078 0
M  V30 2974 C 279.909 0.229567 -6.10669 0
M  V30 2975 C 280.907 -0.432902 -6.81627 0
M  V30 2976 O 280.595 -1.10925 -7.9621 0
M  V30 2977 H 280.327 0.238501 -0.632529 0
M  V30 2978 H 282.881 0.0812659 -2.05239 0
M  V30 2979 H 281.111 2.46022 -2.98345 0
M  V30 2980 H 282.8 2.27704 -3.36015 0
M  V30 2981 H 283.566 0.283927 -4.84168 0
M  V30 2982 H 279.445 1.42201 -4.3852 0
M  V30 2983 H 282.989 -0.928013 -6.914 0
M  V30 2984 H 278.886 0.216686 -6.45136 0
M  V30 2985 H 279.654 -1.01579 -8.12172 0
M  V30 2986 N 282.317 1.53212 0.369288 0
M  V30 2987 C 283.594 1.59815 1.12776 0
M  V30 2988 C 283.974 0.403402 2.0721 0
M  V30 2989 O 283.322 -0.606667 2.20299 0
M  V30 2990 C 283.532 2.94664 1.87013 0
M  V30 2991 C 284.88 3.49109 2.41677 0
M  V30 2992 O 285.904 2.96669 1.97144 0
M  V30 2993 O 284.763 4.40775 3.23079 0
M  V30 2994 H 281.857 0.645376 0.517125 0
M  V30 2995 H 284.403 1.65553 0.37285 0
M  V30 2996 H 283.175 3.73061 1.18071 0
M  V30 2997 H 282.798 2.92401 2.69421 0
M  V30 2998 N 283.795 -0.628877 1.44509 0
M  V30 2999 C 285.042 -1.38839 1.47411 0
M  V30 3000 C 285.37 -1.94202 0.10757 0
M  V30 3001 O 284.625 -1.74243 -0.890947 0
M  V30 3002 C 284.924 -2.56995 2.48371 0
M  V30 3003 C 284.59 -2.19908 3.93639 0
M  V30 3004 C 283.252 -2.09506 4.33198 0
M  V30 3005 C 285.604 -1.9064 4.85083 0
M  V30 3006 C 282.932 -1.68028 5.62124 0
M  V30 3007 C 285.284 -1.50655 6.14399 0
M  V30 3008 C 283.948 -1.38796 6.5291 0
M  V30 3009 H 283.218 -0.508048 0.539414 0
M  V30 3010 H 285.865 -0.712913 1.77735 0
M  V30 3011 H 284.17 -3.29786 2.11538 0
M  V30 3012 H 285.867 -3.15223 2.47861 0
M  V30 3013 H 282.457 -2.28922 3.62343 0
M  V30 3014 H 286.641 -1.97585 4.55273 0
M  V30 3015 H 281.897 -1.57452 5.90778 0
M  V30 3016 H 286.071 -1.27048 6.84713 0
M  V30 3017 H 283.698 -1.06429 7.52713 0
M  V30 3018 N 285.273 -1.31445 -0.869486 0
M  V30 3019 C 286.55 -1.11795 -1.60503 0
M  V30 3020 C 286.93 0.327168 -2.08549 0
M  V30 3021 O 286.278 1.32135 -1.8642 0
M  V30 3022 C 286.488 -2.13258 -2.76265 0
M  V30 3023 C 287.836 -2.45805 -3.46215 0
M  V30 3024 O 288.86 -2.11688 -2.86473 0
M  V30 3025 O 287.719 -3.04228 -4.5399 0
M  V30 3026 H 284.813 -0.430421 -0.706163 0
M  V30 3027 H 287.359 -1.42925 -0.914907 0
M  V30 3028 H 286.131 -3.10461 -2.3818 0
M  V30 3029 H 285.754 -1.83035 -3.52964 0
M  V30 3030 N 286.751 1.08385 -1.14413 0
M  V30 3031 C 287.997 1.81044 -0.913834 0
M  V30 3032 C 288.33 1.86004 0.558209 0
M  V30 3033 O 287.605 1.33606 1.4135 0
M  V30 3034 C 287.888 3.26648 -1.51569 0
M  V30 3035 C 287.741 3.29895 -3.0576 0
M  V30 3036 C 289.06 4.23629 -1.19273 0
M  V30 3037 H 286.179 0.65727 -0.333414 0
M  V30 3038 H 288.821 1.26896 -1.41412 0
M  V30 3039 H 286.971 3.72889 -1.09023 0
M  V30 3040 H 288.643 2.91977 -3.57137 0
M  V30 3041 H 286.886 2.69163 -3.40197 0
M  V30 3042 H 287.557 4.32516 -3.42977 0
M  V30 3043 H 290.033 3.85727 -1.56057 0
M  V30 3044 H 288.909 5.23822 -1.64017 0
M  V30 3045 H 289.17 4.41968 -0.108068 0
M  V30 3046 N 288.23 0.939286 1.26551 0
M  V30 3047 C 289.477 0.585847 1.9384 0
M  V30 3048 C 289.805 -0.874784 1.73718 0
M  V30 3049 O 289.06 -1.64092 1.06642 0
M  V30 3050 C 289.359 0.872106 3.46596 0
M  V30 3051 C 289.025 2.31632 3.86856 0
M  V30 3052 C 287.687 2.71111 3.97558 0
M  V30 3053 C 290.039 3.25494 4.07066 0
M  V30 3054 C 287.367 4.03553 4.25866 0
M  V30 3055 C 289.719 4.57531 4.36862 0
M  V30 3056 C 288.383 4.96828 4.45778 0
M  V30 3057 H 287.653 0.214377 0.709312 0
M  V30 3058 H 290.3 1.18544 1.50398 0
M  V30 3059 H 288.605 0.18996 3.91339 0
M  V30 3060 H 290.302 0.577442 3.96821 0
M  V30 3061 H 286.892 2.00008 3.79071 0
M  V30 3062 H 291.076 2.9619 3.98227 0
M  V30 3063 H 286.332 4.33665 4.30981 0
M  V30 3064 H 290.506 5.30254 4.51446 0
M  V30 3065 H 288.133 5.99482 4.67468 0
M  V30 3066 N 289.708 -1.40897 0.706093 0
M  V30 3067 C 290.954 -2.01352 0.241889 0
M  V30 3068 C 291.287 -1.55832 -1.15888 0
M  V30 3069 O 290.562 -0.774145 -1.7843 0
M  V30 3070 C 290.845 -3.58752 0.311311 0
M  V30 3071 C 290.698 -4.1437 1.74978 0
M  V30 3072 C 292.017 -4.38914 -0.322922 0
M  V30 3073 H 289.136 -0.731562 0.0893687 0
M  V30 3074 H 291.778 -1.67504 0.896802 0
M  V30 3075 H 289.928 -3.87718 -0.246302 0
M  V30 3076 H 291.6 -3.96239 2.36205 0
M  V30 3077 H 289.843 -3.69016 2.28057 0
M  V30 3078 H 290.514 -5.23532 1.74981 0
M  V30 3079 H 292.99 -4.15822 0.152089 0
M  V30 3080 H 291.866 -5.48358 -0.243855 0
M  V30 3081 H 292.127 -4.19176 -1.40513 0
M  V30 3082 N 291.186 -0.45159 -1.50991 0
M  V30 3083 C 292.432 0.110237 -2.025 0
M  V30 3084 C 292.765 1.41109 -1.33424 0
M  V30 3085 O 292.04 1.89135 -0.453659 0
M  V30 3086 C 292.323 0.314271 -3.58726 0
M  V30 3087 C 292.176 -1.00623 -4.38401 0
M  V30 3088 C 293.495 1.07767 -4.26702 0
M  V30 3089 H 290.614 0.0385897 -0.735989 0
M  V30 3090 H 293.256 -0.593374 -1.80497 0
M  V30 3091 H 291.406 0.913601 -3.77605 0
M  V30 3092 H 293.078 -1.64064 -4.31139 0
M  V30 3093 H 291.321 -1.6075 -4.02917 0
M  V30 3094 H 291.992 -0.817341 -5.45915 0
M  V30 3095 H 294.468 0.56986 -4.12179 0
M  V30 3096 H 293.344 1.18921 -5.35863 0
M  V30 3097 H 293.605 2.10939 -3.88532 0
M  V30 3098 N 292.664 1.56529 -0.183458 0
M  V30 3099 C 294.08 1.58664 0.172554 0
M  V30 3100 C 294.28 1.19925 1.61926 0
M  V30 3101 O 293.336 0.916534 2.35278 0
M  V30 3102 C 294.649 3.00463 -0.119262 0
M  V30 3103 C 296.197 3.12945 -0.0584396 0
M  V30 3104 C 296.672 4.56857 -0.323408 0
M  V30 3105 N 298.163 4.62403 -0.271612 0
M  V30 3106 C 298.898 5.71626 -0.450639 0
M  V30 3107 N 298.394 6.89362 -0.689384 0
M  V30 3108 N 300.187 5.60775 -0.385701 0
M  V30 3109 H 292.338 1.79994 -1.12765 0
M  V30 3110 H 294.601 0.834808 -0.449222 0
M  V30 3111 H 294.307 3.33326 -1.12192 0
M  V30 3112 H 294.181 3.72659 0.583544 0
M  V30 3113 H 296.568 2.79902 0.934805 0
M  V30 3114 H 296.649 2.4316 -0.794144 0
M  V30 3115 H 296.293 4.9061 -1.31392 0
M  V30 3116 H 296.223 5.24816 0.43305 0
M  V30 3117 H 298.714 3.77785 -0.0932256 0
M  V30 3118 H 299.027 7.68489 -0.815113 0
M  V30 3119 H 297.372 6.91196 -0.726142 0
M  V30 3120 H 300.563 4.67674 -0.199687 0
M  V30 3121 H 300.736 6.4584 -0.528646 0
M  V30 3122 N 294.142 -0.090211 1.57342 0
M  V30 3123 C 295.39 -0.791241 1.85967 0
M  V30 3124 C 295.711 -1.7903 0.772859 0
M  V30 3125 O 294.981 -1.94872 -0.200398 0
M  V30 3126 H 293.561 -0.295205 0.686195 0
M  V30 3127 H 296.223 -0.0706782 1.94772 0
M  V30 3128 H 295.319 -1.31882 2.82867 0
M  V30 3129 N 295.62 -1.53406 -0.361157 0
M  V30 3130 C 296.583 -1.79479 -1.42548 0
M  V30 3131 C 297.583 -0.665327 -1.4639 0
M  V30 3132 O 298.773 -0.933549 -1.47073 0
M  V30 3133 C 295.905 -1.92087 -2.8163 0
M  V30 3134 H 297.098 -2.74538 -1.20701 0
M  V30 3135 H 294.651 -1.4455 -0.594546 0
M  V30 3136 H 295.386 -0.991099 -3.08784 0
M  V30 3137 H 295.171 -2.74241 -2.80239 0
M  V30 3138 H 296.661 -2.13836 -3.58697 0
M  V30 3139 N 297.098 0.621204 -1.44841 0
M  V30 3140 C 298.346 1.37783 -1.47852 0
M  V30 3141 C 298.667 1.94653 -0.116224 0
M  V30 3142 O 297.937 1.76367 0.852737 0
M  V30 3143 H 296.517 0.511453 -0.544449 0
M  V30 3144 H 299.179 0.730446 -1.80694 0
M  V30 3145 H 298.275 2.20414 -2.20961 0
M  V30 3146 N 298.576 1.31904 0.862503 0
M  V30 3147 C 299.539 1.20131 1.95195 0
M  V30 3148 C 300.539 0.126409 1.60302 0
M  V30 3149 O 301.729 0.376234 1.70089 0
M  V30 3150 C 298.861 0.845691 3.30244 0
M  V30 3151 H 300.054 2.16943 2.07064 0
M  V30 3152 H 297.607 1.15622 1.05172 0
M  V30 3153 H 298.342 -0.120957 3.24074 0
M  V30 3154 H 298.127 1.62276 3.56944 0
M  V30 3155 H 299.617 0.787418 4.10109 0
M  V30 3156 N 300.054 -1.07777 1.14986 0
M  V30 3157 C 301.284 -1.83752 0.944402 0
M  V30 3158 C 301.692 -1.8218 -0.51058 0
M  V30 3159 O 301.035 -1.22852 -1.36576 0
M  V30 3160 C 301.097 -3.32128 1.37592 0
M  V30 3161 C 300.761 -3.57425 2.84775 0
M  V30 3162 C 301.758 -3.5173 3.8286 0
M  V30 3163 C 299.443 -3.8523 3.2234 0
M  V30 3164 C 301.437 -3.73482 5.16517 0
M  V30 3165 C 299.124 -4.06634 4.56171 0
M  V30 3166 C 300.122 -4.00754 5.53069 0
M  V30 3167 O 299.81 -4.2159 6.84483 0
M  V30 3168 H 299.542 -0.58673 0.335744 0
M  V30 3169 H 302.096 -1.36982 1.53052 0
M  V30 3170 H 300.326 -3.79686 0.733165 0
M  V30 3171 H 302.015 -3.89555 1.14024 0
M  V30 3172 H 302.781 -3.30256 3.55184 0
M  V30 3173 H 298.66 -3.88923 2.47508 0
M  V30 3174 H 302.204 -3.68808 5.92137 0
M  V30 3175 H 298.101 -4.27593 4.83564 0
M  V30 3176 H 298.869 -4.38961 6.90837 0
M  V30 3177 N 301.532 -0.945985 -1.26051 0
M  V30 3178 C 302.781 -0.591836 -1.92822 0
M  V30 3179 C 303.094 0.873956 -1.7499 0
M  V30 3180 O 304.3 1.33769 -2.36259 0
M  V30 3181 C 302.756 -1.00776 -3.45503 0
M  V30 3182 C 302.364 -2.4955 -3.7206 0
M  V30 3183 C 304.108 -0.725735 -4.1825 0
M  V30 3184 C 302.015 -2.84988 -5.18205 0
M  V30 3185 H 300.945 -0.217635 -0.721908 0
M  V30 3186 H 303.596 -1.14927 -1.43052 0
M  V30 3187 H 301.978 -0.378812 -3.94184 0
M  V30 3188 H 303.152 -3.1739 -3.34066 0
M  V30 3189 H 301.467 -2.75133 -3.12555 0
M  V30 3190 H 304.064 -0.966771 -5.25887 0
M  V30 3191 H 304.407 0.337639 -4.14929 0
M  V30 3192 H 304.94 -1.31463 -3.7545 0
M  V30 3193 H 301.679 -3.90307 -5.26631 0
M  V30 3194 H 301.199 -2.21813 -5.57278 0
M  V30 3195 H 302.878 -2.73712 -5.86252 0
M  V30 3196 N 303.011 1.40521 -0.713556 0
M  V30 3197 C 304.251 2.02783 -0.256584 0
M  V30 3198 C 304.615 1.55352 1.12827 0
M  V30 3199 O 305.816 2.09663 1.68211 0
M  V30 3200 C 304.087 3.5586 -0.331414 0
M  V30 3201 S 305.646 4.38773 0.0488703 0
M  V30 3202 H 302.464 0.703655 -0.101934 0
M  V30 3203 H 305.066 1.71674 -0.935325 0
M  V30 3204 H 303.77 3.87874 -1.34098 0
M  V30 3205 H 303.301 3.91695 0.365873 0
M  V30 3206 H 305.316 4.79633 1.2715 0
M  V30 3207 N 304.489 0.459591 1.5075 0
M  V30 3208 C 305.737 -0.0991532 2.01857 0
M  V30 3209 C 306.058 -1.41247 1.34441 0
M  V30 3210 O 305.328 -1.89775 0.486022 0
M  V30 3211 H 303.908 -0.039633 0.745948 0
M  V30 3212 H 306.57 0.607387 1.85194 0
M  V30 3213 H 305.666 -0.258998 3.11023 0
M  V30 3214 N 305.967 -1.56429 0.191757 0
M  V30 3215 C 306.877 -2.22541 -0.742481 0
M  V30 3216 C 307.893 -1.22342 -1.23727 0
M  V30 3217 O 309.069 -1.55069 -1.28513 0
M  V30 3218 C 306.134 -2.8692 -1.94623 0
M  V30 3219 C 305.195 -4.02378 -1.49633 0
M  V30 3220 C 304.428 -4.63678 -2.6427 0
M  V30 3221 O 304.651 -4.23895 -3.81666 0
M  V30 3222 O 303.585 -5.53202 -2.37174 0
M  V30 3223 H 307.411 -3.02977 -0.209462 0
M  V30 3224 H 304.996 -1.49353 -0.0373832 0
M  V30 3225 H 306.878 -3.27663 -2.64982 0
M  V30 3226 H 305.553 -2.09466 -2.46791 0
M  V30 3227 H 304.46 -3.66265 -0.761636 0
M  V30 3228 H 305.793 -4.81487 -1.02134 0
M  V30 3229 N 307.445 0.0818655 -1.57387 0
M  V30 3230 C 308.355 1.11642 -2.06333 0
M  V30 3231 C 309.371 1.43033 -0.99083 0
M  V30 3232 O 310.547 1.53411 -1.30488 0
M  V30 3233 C 307.612 2.41342 -2.48907 0
M  V30 3234 C 306.673 2.17014 -3.7041 0
M  V30 3235 C 305.906 3.4053 -4.10944 0
M  V30 3236 O 306.129 4.4927 -3.51444 0
M  V30 3237 O 305.063 3.29336 -5.03807 0
M  V30 3238 H 308.889 0.730657 -2.9478 0
M  V30 3239 H 306.474 0.295301 -1.46452 0
M  V30 3240 H 308.356 3.17691 -2.76858 0
M  V30 3241 H 307.031 2.79319 -1.63593 0
M  V30 3242 H 305.938 1.38403 -3.47556 0
M  V30 3243 H 307.271 1.83923 -4.56545 0
M  V30 3244 N 308.923 1.53595 0.353017 0
M  V30 3245 C 310.151 1.74311 1.1146 0
M  V30 3246 C 310.566 0.477854 1.82653 0
M  V30 3247 O 309.923 -0.549977 1.74016 0
M  V30 3248 C 309.974 2.91694 2.13534 0
M  V30 3249 O 309.695 4.13325 1.45238 0
M  V30 3250 C 311.196 3.24384 3.02142 0
M  V30 3251 H 308.416 0.582669 0.332773 0
M  V30 3252 H 310.96 2.00386 0.408107 0
M  V30 3253 H 309.115 2.67977 2.79763 0
M  V30 3254 H 309.529 4.79148 2.13349 0
M  V30 3255 H 311.003 4.09893 3.69718 0
M  V30 3256 H 311.48 2.40282 3.67643 0
M  V30 3257 H 312.086 3.50073 2.41514 0
M  V30 3258 N 310.401 -0.613514 1.45168 0
M  V30 3259 C 311.364 -1.7065 1.53007 0
M  V30 3260 C 312.364 -1.5548 0.410184 0
M  V30 3261 O 313.554 -1.60656 0.673455 0
M  V30 3262 C 310.686 -3.09875 1.42093 0
M  V30 3263 H 311.879 -1.65068 2.50385 0
M  V30 3264 H 309.432 -0.828728 1.32521 0
M  V30 3265 H 310.167 -3.21039 0.458769 0
M  V30 3266 H 309.952 -3.22293 2.23315 0
M  V30 3267 H 311.442 -3.895 1.50598 0
M  V30 3268 N 311.879 -1.3236 -0.855495 0
M  V30 3269 C 312.809 -1.23833 -1.97958 0
M  V30 3270 C 313.79 -0.122361 -1.69659 0
M  V30 3271 O 314.975 -0.30939 -1.9172 0
M  V30 3272 C 312.105 -0.959772 -3.33775 0
M  V30 3273 C 311.059 -2.03689 -3.76424 0
M  V30 3274 C 310.385 -1.61075 -5.09862 0
M  V30 3275 C 311.685 -3.4518 -3.9198 0
M  V30 3276 H 313.379 -2.1788 -2.0535 0
M  V30 3277 H 310.925 -1.04891 -0.986605 0
M  V30 3278 H 312.878 -0.886678 -4.11966 0
M  V30 3279 H 311.602 0.0163404 -3.26596 0
M  V30 3280 H 310.261 -2.10012 -3.00484 0
M  V30 3281 H 309.909 -0.622107 -4.99138 0
M  V30 3282 H 309.609 -2.33143 -5.39368 0
M  V30 3283 H 311.133 -1.55201 -5.90546 0
M  V30 3284 H 312.547 -3.4145 -4.60526 0
M  V30 3285 H 310.944 -4.1559 -4.32903 0
M  V30 3286 H 312.014 -3.84903 -2.94919 0
M  V30 3287 N 313.357 1.07166 -1.15556 0
M  V30 3288 C 314.606 1.79181 -0.926132 0
M  V30 3289 C 314.919 1.87768 0.547967 0
M  V30 3290 O 316.125 2.56323 0.895036 0
M  V30 3291 C 314.581 3.22 -1.60761 0
M  V30 3292 C 314.189 3.21607 -3.11886 0
M  V30 3293 C 315.933 3.9861 -1.4598 0
M  V30 3294 C 313.84 4.59092 -3.72812 0
M  V30 3295 H 312.77 0.67154 -0.342856 0
M  V30 3296 H 315.421 1.2027 -1.3859 0
M  V30 3297 H 313.803 3.81115 -1.07553 0
M  V30 3298 H 314.977 2.72127 -3.71865 0
M  V30 3299 H 313.292 2.58495 -3.2645 0
M  V30 3300 H 315.889 5.00225 -1.88888 0
M  V30 3301 H 316.232 4.143 -0.407541 0
M  V30 3302 H 316.765 3.45996 -1.96295 0
M  V30 3303 H 313.504 4.48606 -4.77946 0
M  V30 3304 H 313.024 5.08803 -3.17616 0
M  V30 3305 H 314.703 5.28059 -3.73848 0
M  V30 3306 N 314.835 0.952656 1.25548 0
M  V30 3307 C 315.745 0.47782 2.29682 0
M  V30 3308 C 316.761 -0.453859 1.67977 0
M  V30 3309 O 317.937 -0.330587 1.98668 0
M  V30 3310 C 315.002 -0.238655 3.45878 0
M  V30 3311 C 314.063 0.730994 4.23031 0
M  V30 3312 C 313.296 0.0486165 5.33678 0
M  V30 3313 O 313.519 -1.16612 5.58353 0
M  V30 3314 O 312.453 0.733152 5.97418 0
M  V30 3315 H 316.279 1.34312 2.72386 0
M  V30 3316 H 313.864 0.719026 1.30959 0
M  V30 3317 H 315.746 -0.641774 4.16484 0
M  V30 3318 H 314.421 -1.07916 3.05181 0
M  V30 3319 H 313.328 1.18428 3.5486 0
M  V30 3320 H 314.661 1.53946 4.67506 0
M  V30 3321 N 316.313 -1.40141 0.720998 0
M  V30 3322 C 317.538 -2.05618 0.271258 0
M  V30 3323 C 317.963 -1.53978 -1.08039 0
M  V30 3324 O 317.321 -0.677463 -1.68167 0
M  V30 3325 C 317.369 -3.59609 0.267197 0
M  V30 3326 O 316.473 -4.05526 -0.749814 0
M  V30 3327 H 315.814 -0.651904 0.126162 0
M  V30 3328 H 318.344 -1.79439 0.982997 0
M  V30 3329 H 318.354 -4.0786 0.106744 0
M  V30 3330 H 317.029 -3.96559 1.25354 0
M  V30 3331 H 315.606 -3.68722 -0.556644 0
M  V30 3332 N 317.792 -0.46758 -1.50504 0
M  V30 3333 C 319.041 0.0902868 -2.01498 0
M  V30 3334 C 319.354 1.411 -1.35463 0
M  V30 3335 O 320.56 2.0536 -1.77594 0
M  V30 3336 C 319.016 0.21142 -3.59278 0
M  V30 3337 C 318.624 -1.10065 -4.34269 0
M  V30 3338 C 320.368 0.721433 -4.18325 0
M  V30 3339 C 318.275 -0.943505 -5.83825 0
M  V30 3340 H 317.205 0.037517 -0.753066 0
M  V30 3341 H 319.856 -0.601943 -1.73346 0
M  V30 3342 H 318.238 0.967352 -3.84003 0
M  V30 3343 H 319.412 -1.86726 -4.21272 0
M  V30 3344 H 317.727 -1.5415 -3.86816 0
M  V30 3345 H 320.324 0.85598 -5.27804 0
M  V30 3346 H 320.667 1.71186 -3.79475 0
M  V30 3347 H 321.2 0.0229843 -3.97793 0
M  V30 3348 H 317.939 -1.90719 -6.27141 0
M  V30 3349 H 317.459 -0.217213 -5.99407 0
M  V30 3350 H 319.138 -0.608715 -6.4413 0
M  V30 3351 N 319.27 1.56325 -0.20005 0
M  V30 3352 C 320.18 2.22931 0.730668 0
M  V30 3353 C 321.196 1.22997 1.23076 0
M  V30 3354 O 322.372 1.55748 1.27689 0
M  V30 3355 C 319.437 2.87948 1.93098 0
M  V30 3356 C 318.498 4.03166 1.47497 0
M  V30 3357 C 317.731 4.65073 2.61807 0
M  V30 3358 O 317.954 4.25913 3.79413 0
M  V30 3359 O 316.888 5.54452 2.34237 0
M  V30 3360 H 320.714 3.03084 0.193391 0
M  V30 3361 H 318.299 1.49371 0.0294621 0
M  V30 3362 H 320.181 3.29063 2.6324 0
M  V30 3363 H 318.856 2.10771 2.45677 0
M  V30 3364 H 317.763 3.66664 0.742201 0
M  V30 3365 H 319.096 4.82022 0.995796 0
M  V30 3366 N 320.748 -0.0735177 1.57428 0
M  V30 3367 C 321.996 -0.771472 1.86796 0
M  V30 3368 C 322.317 -1.78201 0.791804 0
M  V30 3369 O 321.587 -1.95074 -0.179718 0
M  V30 3370 H 320.167 -0.28791 0.689287 0
M  V30 3371 H 322.829 -0.0500161 1.94836 0
M  V30 3372 H 321.925 -1.28874 2.8425 0
M  V30 3373 N 322.226 -1.5378 -0.344866 0
M  V30 3374 C 323.173 -1.81676 -1.42346 0
M  V30 3375 C 324.143 -0.662376 -1.52321 0
M  V30 3376 O 325.328 -0.906675 -1.67881 0
M  V30 3377 C 322.468 -2.03087 -2.79015 0
M  V30 3378 C 321.581 -3.30799 -2.77842 0
M  V30 3379 C 320.716 -3.42285 -4.0622 0
M  V30 3380 C 319.755 -4.6395 -3.9927 0
M  V30 3381 N 318.892 -4.72477 -5.19336 0
M  V30 3382 H 323.732 -2.73703 -1.17858 0
M  V30 3383 H 321.269 -1.35568 -0.570949 0
M  V30 3384 H 323.227 -2.1349 -3.58438 0
M  V30 3385 H 321.857 -1.14375 -3.01858 0
M  V30 3386 H 320.909 -3.29244 -1.90533 0
M  V30 3387 H 322.221 -4.20314 -2.68584 0
M  V30 3388 H 321.375 -3.52113 -4.94066 0
M  V30 3389 H 320.114 -2.50823 -4.18258 0
M  V30 3390 H 319.119 -4.54201 -3.09809 0
M  V30 3391 H 320.344 -5.56775 -3.88817 0
M  V30 3392 H 318.29 -3.83924 -5.3192 0
M  V30 3393 H 318.207 -5.55927 -5.12329 0
M  V30 3394 H 319.475 -4.86613 -6.08957 0
M  V30 3395 N 323.704 0.605807 -1.45491 0
M  V30 3396 C 324.636 1.73031 -1.5031 0
M  V30 3397 C 325.649 1.57968 -0.393687 0
M  V30 3398 O 326.838 1.65817 -0.660839 0
M  V30 3399 C 323.938 3.11049 -1.34543 0
M  V30 3400 C 323.111 3.52334 -2.59189 0
M  V30 3401 C 322.17 4.69323 -2.37954 0
M  V30 3402 O 321.196 4.7635 -3.11575 0
M  V30 3403 N 322.398 5.62705 -1.4263 0
M  V30 3404 H 325.163 1.6936 -2.4726 0
M  V30 3405 H 322.724 0.79114 -1.41254 0
M  V30 3406 H 324.716 3.87071 -1.18144 0
M  V30 3407 H 323.286 3.09217 -0.458623 0
M  V30 3408 H 322.506 2.66256 -2.90691 0
M  V30 3409 H 323.794 3.76677 -3.42041 0
M  V30 3410 H 323.192 5.59744 -0.818758 0
M  V30 3411 H 321.749 6.38252 -1.32202 0
M  V30 3412 N 325.182 1.32811 0.848464 0
M  V30 3413 C 326.43 1.23479 1.59991 0
M  V30 3414 C 326.751 -0.201853 1.93952 0
M  V30 3415 O 326.021 -1.12818 1.60153 0
M  V30 3416 H 324.601 0.454034 0.593179 0
M  V30 3417 H 327.263 1.66412 1.01455 0
M  V30 3418 H 326.359 1.82178 2.53412 0
M  V30 3419 N 326.66 -1.06551 1.16123 0
M  V30 3420 C 327.607 -2.13961 0.865414 0
M  V30 3421 C 328.577 -1.65066 -0.185055 0
M  V30 3422 O 329.762 -1.90732 -0.05083 0
M  V30 3423 C 326.902 -3.43113 0.369776 0
M  V30 3424 C 326.015 -4.05756 1.48276 0
M  V30 3425 C 325.15 -5.22773 0.942414 0
M  V30 3426 C 324.189 -5.77395 2.03179 0
M  V30 3427 N 323.326 -6.85731 1.50721 0
M  V30 3428 H 328.166 -2.38605 1.78527 0
M  V30 3429 H 325.703 -1.17072 0.890646 0
M  V30 3430 H 327.661 -4.17151 0.0640643 0
M  V30 3431 H 326.291 -3.18695 -0.513143 0
M  V30 3432 H 325.343 -3.29292 1.9045 0
M  V30 3433 H 326.655 -4.42351 2.30493 0
M  V30 3434 H 325.809 -6.03827 0.589729 0
M  V30 3435 H 324.548 -4.87618 0.0895191 0
M  V30 3436 H 323.553 -4.94981 2.3932 0
M  V30 3437 H 324.778 -6.14603 2.8886 0
M  V30 3438 H 322.724 -6.52499 0.676811 0
M  V30 3439 H 322.641 -7.21254 2.26557 0
M  V30 3440 H 323.909 -7.7047 1.18303 0
M  V30 3441 N 328.138 -0.959301 -1.25041 0
M  V30 3442 C 329.549 -0.65667 -1.74771 0
M  V30 3443 C 329.9 0.827852 -1.77879 0
M  V30 3444 O 329.025 1.64783 -1.40269 0
M  V30 3445 C 329.62 -1.1853 -3.1739 0
M  V30 3446 C 328.179 -0.932734 -3.6466 0
M  V30 3447 C 327.326 -1.32558 -2.43564 0
M  V30 3448 H 330.277 -1.13558 -1.10862 0
M  V30 3449 H 330.298 -0.547582 -3.76539 0
M  V30 3450 H 329.81 -2.26576 -3.15095 0
M  V30 3451 H 327.911 0.13257 -3.72364 0
M  V30 3452 H 328.024 -1.57248 -4.52559 0
M  V30 3453 H 326.388 -0.743956 -2.43593 0
M  V30 3454 H 327.171 -2.41537 -2.43957 0
M  V30 3455 N 329.616 1.39756 -0.72842 0
M  V30 3456 C 331.032 1.5442 -0.403308 0
M  V30 3457 C 331.232 1.69694 1.08656 0
M  V30 3458 O 330.288 1.69373 1.87267 0
M  V30 3459 C 331.601 2.76555 -1.18058 0
M  V30 3460 C 333.149 2.90384 -1.16815 0
M  V30 3461 C 333.624 4.15449 -1.92785 0
M  V30 3462 N 335.115 4.22475 -1.89918 0
M  V30 3463 C 335.85 5.1818 -2.45514 0
M  V30 3464 N 335.346 6.19714 -3.09719 0
M  V30 3465 N 337.139 5.1035 -2.35584 0
M  V30 3466 H 329.29 1.28089 -1.69431 0
M  V30 3467 H 331.553 0.620327 -0.716867 0
M  V30 3468 H 331.259 2.7159 -2.23455 0
M  V30 3469 H 331.133 3.69033 -0.780662 0
M  V30 3470 H 333.52 2.94846 -0.12234 0
M  V30 3471 H 333.601 1.98988 -1.6074 0
M  V30 3472 H 333.245 4.11749 -2.97364 0
M  V30 3473 H 333.175 5.05877 -1.46272 0
M  V30 3474 H 335.666 3.49743 -1.43138 0
M  V30 3475 H 335.979 6.8919 -3.49625 0
M  V30 3476 H 334.324 6.20121 -3.13807 0
M  V30 3477 H 337.515 4.2996 -1.85072 0
M  V30 3478 H 337.688 5.84761 -2.79211 0
M  V30 3479 N 331.094 0.475555 1.50254 0
M  V30 3480 C 332.024 -0.30611 2.31485 0
M  V30 3481 C 333.005 -0.986228 1.38591 0
M  V30 3482 O 334.19 -0.982541 1.67511 0
M  V30 3483 C 331.32 -1.38588 3.1845 0
M  V30 3484 C 330.274 -0.827115 4.19932 0
M  V30 3485 C 329.6 -2.00551 4.95665 0
M  V30 3486 C 330.9 0.16463 5.2204 0
M  V30 3487 H 332.594 0.371866 2.97082 0
M  V30 3488 H 330.14 0.180282 1.42867 0
M  V30 3489 H 332.093 -1.94023 3.74076 0
M  V30 3490 H 330.817 -2.09269 2.50747 0
M  V30 3491 H 329.476 -0.294702 3.65414 0
M  V30 3492 H 329.124 -2.6994 4.2443 0
M  V30 3493 H 328.824 -1.63784 5.64313 0
M  V30 3494 H 330.348 -2.56468 5.54127 0
M  V30 3495 H 331.762 -0.300699 5.72511 0
M  V30 3496 H 330.159 0.446813 5.98434 0
M  V30 3497 H 331.229 1.08905 4.72512 0
M  V30 3498 N 332.573 -1.56217 0.208337 0
M  V30 3499 C 333.52 -2.19699 -0.707192 0
M  V30 3500 C 334.49 -1.14836 -1.20008 0
M  V30 3501 O 335.675 -1.4314 -1.26157 0
M  V30 3502 C 332.815 -2.87061 -1.91546 0
M  V30 3503 C 331.928 -4.06483 -1.46271 0
M  V30 3504 C 331.063 -4.61665 -2.62752 0
M  V30 3505 C 330.102 -5.73417 -2.14147 0
M  V30 3506 N 329.239 -6.22948 -3.23853 0
M  V30 3507 H 334.079 -2.97575 -0.159111 0
M  V30 3508 H 331.616 -1.46948 -0.0667874 0
M  V30 3509 H 333.574 -3.24294 -2.62468 0
M  V30 3510 H 332.204 -2.11725 -2.43664 0
M  V30 3511 H 331.256 -3.74825 -0.648886 0
M  V30 3512 H 332.568 -4.87271 -1.06622 0
M  V30 3513 H 331.722 -5.01272 -3.41776 0
M  V30 3514 H 330.461 -3.80013 -3.05682 0
M  V30 3515 H 329.466 -5.33326 -1.33581 0
M  V30 3516 H 330.691 -6.56897 -1.72232 0
M  V30 3517 H 328.637 -5.44213 -3.6629 0
M  V30 3518 H 328.554 -6.98823 -2.88414 0
M  V30 3519 H 329.822 -6.6721 -4.03052 0
M  V30 3520 N 334.051 0.0651679 -1.57465 0
M  V30 3521 C 335.462 0.616213 -1.76238 0
M  V30 3522 C 335.813 1.7756 -0.834689 0
M  V30 3523 O 334.938 2.1639 -0.0204156 0
M  V30 3524 C 335.533 1.12462 -3.1959 0
M  V30 3525 C 334.092 1.62147 -3.39684 0
M  V30 3526 C 333.239 0.543739 -2.71917 0
M  V30 3527 H 336.19 -0.161022 -1.57881 0
M  V30 3528 H 336.211 1.99324 -3.24114 0
M  V30 3529 H 335.723 0.280592 -3.87084 0
M  V30 3530 H 333.824 2.48854 -2.77313 0
M  V30 3531 H 333.937 1.69385 -4.48158 0
M  V30 3532 H 332.301 0.990352 -2.34657 0
M  V30 3533 H 333.084 -0.290216 -3.42071 0
M  V30 3534 N 335.529 1.53961 0.336706 0
M  V30 3535 C 336.94 1.62914 0.911925 0
M  V30 3536 C 337.291 0.514795 1.89326 0
M  V30 3537 O 336.416 -0.354395 2.13478 0
M  V30 3538 C 337.011 2.95304 1.66076 0
M  V30 3539 C 335.57 3.06496 2.18489 0
M  V30 3540 C 334.717 2.58403 1.00613 0
M  V30 3541 H 337.668 1.58285 0.114649 0
M  V30 3542 H 337.689 2.84727 2.5241 0
M  V30 3543 H 337.201 3.76387 0.946276 0
M  V30 3544 H 335.302 2.3006 2.93092 0
M  V30 3545 H 335.415 4.1208 2.44391 0
M  V30 3546 H 333.779 2.13977 1.38152 0
M  V30 3547 H 334.562 3.41932 0.306179 0
M  V30 3548 N 337.007 -0.598083 1.45811 0
M  V30 3549 C 338.254 -1.35681 1.50323 0
M  V30 3550 C 338.582 -1.9393 0.148739 0
M  V30 3551 O 337.837 -1.76094 -0.853787 0
M  V30 3552 C 338.136 -2.51669 2.53766 0
M  V30 3553 C 337.802 -2.11508 3.98215 0
M  V30 3554 C 336.464 -2.0027 4.37545 0
M  V30 3555 C 338.816 -1.80308 4.89018 0
M  V30 3556 C 336.144 -1.56067 5.65562 0
M  V30 3557 C 338.496 -1.37589 6.17456 0
M  V30 3558 C 337.16 -1.24916 6.55708 0
M  V30 3559 H 336.43 -0.496492 0.550069 0
M  V30 3560 H 339.077 -0.675052 1.79207 0
M  V30 3561 H 337.382 -3.25225 2.18486 0
M  V30 3562 H 339.079 -3.09895 2.54492 0
M  V30 3563 H 335.669 -2.21185 3.67117 0
M  V30 3564 H 339.853 -1.87884 4.59362 0
M  V30 3565 H 335.109 -1.44886 5.93985 0
M  V30 3566 H 339.283 -1.12495 6.87254 0
M  V30 3567 H 336.91 -0.904386 7.54801 0
M  V30 3568 N 338.485 -1.33259 -0.841409 0
M  V30 3569 C 339.896 -1.22066 -1.41269 0
M  V30 3570 C 340.247 0.161479 -1.95534 0
M  V30 3571 O 339.372 1.06094 -1.88608 0
M  V30 3572 C 339.967 -2.20996 -2.568 0
M  V30 3573 C 338.526 -2.13649 -3.09888 0
M  V30 3574 C 337.673 -2.08623 -1.82679 0
M  V30 3575 H 340.624 -1.44895 -0.647395 0
M  V30 3576 H 340.645 -1.81621 -3.34356 0
M  V30 3577 H 340.157 -3.2158 -2.17274 0
M  V30 3578 H 338.258 -1.16359 -3.53965 0
M  V30 3579 H 338.371 -3.04079 -3.70234 0
M  V30 3580 H 336.735 -1.54061 -2.02824 0
M  V30 3581 H 337.518 -3.1101 -1.45353 0
M  V30 3582 N 339.963 1.05934 -1.16686 0
M  V30 3583 C 340.926 2.11669 -0.879144 0
M  V30 3584 C 341.926 1.60294 0.127445 0
M  V30 3585 O 343.116 1.7389 -0.103865 0
M  V30 3586 C 340.248 3.39438 -0.315425 0
M  V30 3587 H 341.441 2.38626 -1.81653 0
M  V30 3588 H 338.994 1.22058 -0.976299 0
M  V30 3589 H 339.729 3.18132 0.629468 0
M  V30 3590 H 339.514 3.78034 -1.04079 0
M  V30 3591 H 341.004 4.17391 -0.132189 0
M  V30 3592 N 341.441 0.965919 1.2453 0
M  V30 3593 C 342.718 0.543777 1.87889 0
M  V30 3594 C 343.098 -0.97909 1.87021 0
M  V30 3595 O 342.446 -1.84969 1.3416 0
M  V30 3596 C 342.656 1.13327 3.30088 0
M  V30 3597 C 344.004 1.21707 4.06783 0
M  V30 3598 O 345.028 1.08566 3.39252 0
M  V30 3599 O 343.887 1.42456 5.27606 0
M  V30 3600 H 340.981 0.181054 0.806938 0
M  V30 3601 H 343.527 1.06007 1.32516 0
M  V30 3602 H 342.299 2.17612 3.25209 0
M  V30 3603 H 341.922 0.600911 3.93033 0
M  V30 3604 N 342.919 -1.39368 0.735821 0
M  V30 3605 C 344.165 -2.00794 0.284544 0
M  V30 3606 C 344.498 -1.58255 -1.12557 0
M  V30 3607 O 343.773 -0.811819 -1.76748 0
M  V30 3608 C 344.056 -3.58011 0.387337 0
M  V30 3609 C 343.909 -4.10566 1.83728 0
M  V30 3610 C 345.228 -4.395 -0.22975 0
M  V30 3611 H 342.347 -0.729501 0.104866 0
M  V30 3612 H 344.989 -1.65564 0.93213 0
M  V30 3613 H 343.139 -3.88154 -0.164006 0
M  V30 3614 H 344.811 -3.91139 2.44556 0
M  V30 3615 H 343.054 -3.64095 2.35833 0
M  V30 3616 H 343.725 -5.19702 1.86047 0
M  V30 3617 H 346.201 -4.15406 0.240257 0
M  V30 3618 H 345.077 -5.48752 -0.127485 0
M  V30 3619 H 345.338 -4.22062 -1.3159 0
M  V30 3620 N 344.397 -0.483516 -1.5 0
M  V30 3621 C 345.645 0.067027 -2.01989 0
M  V30 3622 C 345.966 1.3909 -1.36671 0
M  V30 3623 O 345.236 1.88978 -0.516152 0
M  V30 3624 H 343.816 0.0277606 -0.746484 0
M  V30 3625 H 346.478 -0.636773 -1.84204 0
M  V30 3626 H 345.574 0.209484 -3.11396 0
M  V30 3627 N 345.875 1.56104 -0.216619 0
M  V30 3628 C 347.121 1.98466 0.417033 0
M  V30 3629 C 347.454 1.10403 1.59765 0
M  V30 3630 O 346.729 0.160632 1.93836 0
M  V30 3631 C 347.012 3.49769 0.85637 0
M  V30 3632 C 346.865 4.48606 -0.327546 0
M  V30 3633 C 348.184 4.05339 1.7143 0
M  V30 3634 H 345.303 0.721551 0.150112 0
M  V30 3635 H 347.945 1.87423 -0.311864 0
M  V30 3636 H 346.095 3.5931 1.47745 0
M  V30 3637 H 347.767 4.5108 -0.965618 0
M  V30 3638 H 346.01 4.22682 -0.975805 0
M  V30 3639 H 346.681 5.51995 0.0227149 0
M  V30 3640 H 349.157 3.98712 1.19031 0
M  V30 3641 H 348.033 5.11533 1.99061 0
M  V30 3642 H 348.294 3.51918 2.67593 0
M  V30 3643 N 347.353 -0.0568162 1.57498 0
M  V30 3644 C 348.6 -0.753104 1.87975 0
M  V30 3645 C 348.928 -1.76815 0.81035 0
M  V30 3646 O 348.183 -1.94756 -0.19199 0
M  V30 3647 C 348.482 -1.48359 3.25153 0
M  V30 3648 C 348.148 -0.60713 4.46794 0
M  V30 3649 C 346.81 -0.365642 4.79809 0
M  V30 3650 C 349.162 -0.000305978 5.212 0
M  V30 3651 C 346.49 0.491905 5.84634 0
M  V30 3652 C 348.842 0.844781 6.26934 0
M  V30 3653 C 347.506 1.096 6.58441 0
M  V30 3654 H 346.776 -0.27558 0.687849 0
M  V30 3655 H 349.423 -0.0135173 1.91495 0
M  V30 3656 H 347.728 -2.29577 3.17492 0
M  V30 3657 H 349.425 -2.02739 3.45974 0
M  V30 3658 H 346.015 -0.805487 4.20963 0
M  V30 3659 H 350.199 -0.173961 4.95995 0
M  V30 3660 H 345.455 0.695131 6.07436 0
M  V30 3661 H 349.629 1.32165 6.83744 0
M  V30 3662 H 347.256 1.76224 7.39492 0
M  V30 3663 N 348.832 -1.54138 -0.328536 0
M  V30 3664 C 350.08 -1.71765 -1.06496 0
M  V30 3665 C 350.401 -0.49149 -1.88704 0
M  V30 3666 O 349.671 0.494539 -1.89555 0
M  V30 3667 H 348.251 -0.633295 -0.396164 0
M  V30 3668 H 350.913 -1.91429 -0.366176 0
M  V30 3669 H 350.009 -2.5951 -1.73381 0
M  V30 3670 N 350.31 0.590341 -1.46126 0
M  V30 3671 C 351.55 1.35995 -1.52593 0
M  V30 3672 C 351.914 1.91243 -0.170368 0
M  V30 3673 O 353.115 2.68576 -0.109775 0
M  V30 3674 C 351.386 2.46465 -2.58823 0
M  V30 3675 S 352.945 3.33953 -2.84641 0
M  V30 3676 H 349.763 0.463425 -0.53922 0
M  V30 3677 H 352.365 0.67944 -1.83314 0
M  V30 3678 H 351.069 2.04256 -3.5596 0
M  V30 3679 H 350.6 3.19297 -2.2981 0
M  V30 3680 H 352.615 4.45094 -2.19331 0
M  V30 3681 N 351.788 1.33704 0.83433 0
M  V30 3682 C 353.199 1.22813 1.4062 0
M  V30 3683 C 353.55 -0.151107 1.95617 0
M  V30 3684 O 352.675 -1.05092 1.89168 0
M  V30 3685 C 353.27 2.22355 2.55624 0
M  V30 3686 C 351.829 2.1529 3.08751 0
M  V30 3687 C 350.976 2.09589 1.8157 0
M  V30 3688 H 353.927 1.45236 0.639702 0
M  V30 3689 H 353.948 1.83391 3.33389 0
M  V30 3690 H 353.46 3.22728 2.15566 0
M  V30 3691 H 351.561 1.18235 3.53343 0
M  V30 3692 H 351.674 3.06038 3.68616 0
M  V30 3693 H 350.038 1.55134 2.02004 0
M  V30 3694 H 350.821 3.11777 1.43701 0
M  V30 3695 N 353.266 -1.05314 1.17247 0
M  V30 3696 C 354.494 -1.81971 0.984593 0
M  V30 3697 C 354.909 -1.82929 -0.467166 0
M  V30 3698 O 354.266 -1.25564 -1.32438 0
M  V30 3699 C 354.317 -3.28143 1.51672 0
M  V30 3700 O 354.038 -3.27347 2.91163 0
M  V30 3701 C 355.539 -4.21493 1.37326 0
M  V30 3702 H 352.759 -0.573455 0.348411 0
M  V30 3703 H 355.303 -1.32808 1.55506 0
M  V30 3704 H 353.458 -3.74582 0.988302 0
M  V30 3705 H 353.872 -4.18824 3.15732 0
M  V30 3706 H 355.346 -5.22043 1.79375 0
M  V30 3707 H 355.823 -4.38031 0.320169 0
M  V30 3708 H 356.429 -3.80909 1.89178 0
M  V30 3709 N 354.744 -0.972509 -1.24016 0
M  V30 3710 C 355.972 -0.654803 -1.96265 0
M  V30 3711 C 356.387 0.776708 -1.72083 0
M  V30 3712 O 355.744 1.52171 -1.00748 0
M  V30 3713 C 355.795 -0.92592 -3.49441 0
M  V30 3714 O 355.516 -2.30116 -3.72798 0
M  V30 3715 C 357.017 -0.623068 -4.38899 0
M  V30 3716 H 354.237 -0.243907 -0.6251 0
M  V30 3717 H 356.781 -1.30175 -1.57717 0
M  V30 3718 H 354.936 -0.325108 -3.86033 0
M  V30 3719 H 355.35 -2.38483 -4.67147 0
M  V30 3720 H 356.824 -0.863189 -5.45209 0
M  V30 3721 H 357.301 0.442754 -4.36963 0
M  V30 3722 H 357.907 -1.204 -4.07902 0
M  V30 3723 N 356.222 1.38976 -0.743202 0
M  V30 3724 C 357.468 2.0064 -0.295189 0
M  V30 3725 C 357.801 1.5885 1.11716 0
M  V30 3726 O 357.076 0.821181 1.76315 0
M  V30 3727 C 357.359 3.578 -0.406318 0
M  V30 3728 C 357.212 4.09586 -1.85903 0
M  V30 3729 C 358.531 4.39616 0.206439 0
M  V30 3730 H 355.65 0.728935 -0.108733 0
M  V30 3731 H 358.292 1.65067 -0.940897 0
M  V30 3732 H 356.442 3.88235 0.143419 0
M  V30 3733 H 358.114 3.89837 -2.46627 0
M  V30 3734 H 356.357 3.6284 -2.3776 0
M  V30 3735 H 357.028 5.18708 -1.888 0
M  V30 3736 H 359.504 4.15273 -0.262283 0
M  V30 3737 H 358.38 5.48812 0.0983819 0
M  V30 3738 H 358.641 4.22754 1.2935 0
M  V30 3739 N 357.7 0.491464 1.49741 0
M  V30 3740 C 358.663 -0.280906 2.27472 0
M  V30 3741 C 359.663 -0.902454 1.33088 0
M  V30 3742 O 360.853 -0.768465 1.56334 0
M  V30 3743 C 357.985 -1.40209 3.10732 0
M  V30 3744 H 359.178 0.401056 2.97206 0
M  V30 3745 H 356.731 0.246131 1.5435 0
M  V30 3746 H 357.466 -2.11849 2.45541 0
M  V30 3747 H 357.251 -0.961969 3.80117 0
M  V30 3748 H 358.741 -1.9464 3.69466 0
M  V30 3749 N 359.178 -1.55987 0.224894 0
M  V30 3750 C 360.126 -2.21808 -0.700283 0
M  V30 3751 C 361.12 -1.19854 -1.19714 0
M  V30 3752 O 362.326 -1.37925 -1.15658 0
M  V30 3753 H 358.701 -0.711226 -0.244258 0
M  V30 3754 H 360.672 -2.98152 -0.121749 0
M  V30 3755 C 359.421 -2.91444 -1.8962 0
M  V30 3756 H 358.744 -3.69655 -1.52299 0
M  V30 3757 H 360.184 -3.40894 -2.52125 0
M  V30 3758 C 358.643 -1.94098 -2.75368 0
M  V30 3759 O 359.173 -1.46004 -3.74227 0
M  V30 3760 N 357.379 -1.61675 -2.41474 0
M  V30 3761 H 356.926 -2.00979 -1.61137 0
M  V30 3762 H 356.884 -0.968036 -2.99126 0
M  V30 3763 N 360.656 0.0484629 -1.57525 0
M  V30 3764 C 361.902 0.744226 -1.88651 0
M  V30 3765 C 362.235 1.76029 -0.820212 0
M  V30 3766 O 361.51 1.93782 0.166985 0
M  V30 3767 C 361.793 1.43128 -3.30434 0
M  V30 3768 C 361.646 0.43005 -4.47739 0
M  V30 3769 C 362.965 2.37031 -3.70816 0
M  V30 3770 H 360.084 0.269089 -0.68612 0
M  V30 3771 H 362.726 0.00713532 -1.89999 0
M  V30 3772 H 360.876 2.05956 -3.29415 0
M  V30 3773 H 362.548 -0.194816 -4.60888 0
M  V30 3774 H 360.791 -0.252522 -4.33064 0
M  V30 3775 H 361.462 0.948874 -5.43783 0
M  V30 3776 H 363.938 1.84263 -3.73077 0
M  V30 3777 H 362.814 2.82094 -4.70865 0
M  V30 3778 H 363.075 3.22864 -3.02012 0
M  V30 3779 N 362.134 1.5431 0.320358 0
M  V30 3780 C 363.044 1.86946 1.41734 0
M  V30 3781 C 364.06 0.761689 1.56443 0
M  V30 3782 O 365.236 1.05629 1.71477 0
M  V30 3783 C 362.301 2.09293 2.76401 0
M  V30 3784 C 361.362 3.33082 2.70841 0
M  V30 3785 C 360.595 3.54353 3.99086 0
M  V30 3786 O 360.818 2.79002 4.97508 0
M  V30 3787 O 359.752 4.47838 4.0215 0
M  V30 3788 H 363.578 2.80232 1.17062 0
M  V30 3789 H 361.163 1.40255 0.514673 0
M  V30 3790 H 363.045 2.25303 3.56113 0
M  V30 3791 H 361.72 1.19194 3.00956 0
M  V30 3792 H 360.627 3.22454 1.89668 0
M  V30 3793 H 361.96 4.23249 2.5124 0
M  V30 3794 N 363.613 -0.582584 1.46437 0
M  V30 3795 C 364.841 -1.36682 1.55324 0
M  V30 3796 C 365.256 -1.87796 0.194409 0
M  V30 3797 O 364.613 -1.63623 -0.808318 0
M  V30 3798 C 364.664 -2.55426 2.55812 0
M  V30 3799 O 364.385 -2.0643 3.86417 0
M  V30 3800 C 365.886 -3.47976 2.74641 0
M  V30 3801 H 363.106 -0.417545 0.525259 0
M  V30 3802 H 365.65 -0.708219 1.91845 0
M  V30 3803 H 363.805 -3.17275 2.22295 0
M  V30 3804 H 364.219 -2.83762 4.41111 0
M  V30 3805 H 365.693 -4.27775 3.48874 0
M  V30 3806 H 366.17 -3.99919 1.81553 0
M  V30 3807 H 366.776 -2.91962 3.09255 0
M  V30 3808 N 365.091 -1.34144 -0.827227 0
M  V30 3809 C 366.337 -1.26446 -1.58554 0
M  V30 3810 C 366.67 0.1664 -1.93486 0
M  V30 3811 O 365.945 1.1107 -1.59667 0
M  V30 3812 C 366.228 -2.15111 -2.8879 0
M  V30 3813 C 366.081 -3.66712 -2.60465 0
M  V30 3814 C 367.4 -2.03311 -3.90324 0
M  V30 3815 H 364.519 -0.46067 -0.575284 0
M  V30 3816 H 367.161 -1.64356 -0.953269 0
M  V30 3817 H 365.311 -1.8291 -3.42748 0
M  V30 3818 H 366.983 -4.09259 -2.1285 0
M  V30 3819 H 365.226 -3.88014 -1.93978 0
M  V30 3820 H 365.897 -4.24112 -3.53317 0
M  V30 3821 H 368.373 -2.31574 -3.45706 0
M  V30 3822 H 367.249 -2.67582 -4.79261 0
M  V30 3823 H 367.51 -1.00879 -4.30437 0
M  V30 3824 N 366.569 1.04691 -1.17803 0
M  V30 3825 C 367.532 2.10724 -0.901545 0
M  V30 3826 C 368.532 1.6042 0.110437 0
M  V30 3827 O 369.722 1.7377 -0.122303 0
M  V30 3828 C 366.854 3.39084 -0.351409 0
M  V30 3829 H 368.047 2.36686 -1.84174 0
M  V30 3830 H 365.6 1.21015 -0.98919 0
M  V30 3831 H 366.335 3.18782 0.59569 0
M  V30 3832 H 366.12 3.76909 -1.08083 0
M  V30 3833 H 367.61 4.17227 -0.176451 0
M  V30 3834 N 368.047 0.979072 1.23499 0
M  V30 3835 C 369.293 0.648178 1.92163 0
M  V30 3836 C 369.626 -0.816049 1.76222 0
M  V30 3837 O 368.901 -1.58849 1.12237 0
M  V30 3838 C 369.184 1.03773 3.44824 0
M  V30 3839 C 369.037 2.55948 3.69879 0
M  V30 3840 C 370.356 0.580653 4.36253 0
M  V30 3841 H 367.475 0.236952 0.69787 0
M  V30 3842 H 370.117 1.22012 1.45647 0
M  V30 3843 H 368.267 0.551058 3.84572 0
M  V30 3844 H 369.939 3.12179 3.3962 0
M  V30 3845 H 368.182 2.98641 3.14636 0
M  V30 3846 H 368.853 2.78255 4.76737 0
M  V30 3847 H 371.329 0.998465 4.03943 0
M  V30 3848 H 370.205 0.881663 5.41773 0
M  V30 3849 H 370.466 -0.519052 4.39042 0
M  V30 3850 N 369.525 -1.3858 0.750561 0
M  V30 3851 C 370.75 -2.04997 0.314812 0
M  V30 3852 C 371.175 -1.56235 -1.04749 0
M  V30 3853 O 370.533 -0.712981 -1.66692 0
M  V30 3854 C 370.581 -3.58961 0.343415 0
M  V30 3855 O 369.685 -4.07025 -0.663628 0
M  V30 3856 H 369.026 -0.649081 0.139962 0
M  V30 3857 H 371.556 -1.77313 1.02084 0
M  V30 3858 H 371.566 -4.07542 0.193233 0
M  V30 3859 H 370.241 -3.93811 1.33738 0
M  V30 3860 H 368.818 -3.6982 -0.478307 0
M  V30 3861 N 371.003 -0.499398 -1.49478 0
M  V30 3862 C 372.414 -0.051215 -1.8663 0
M  V30 3863 C 372.765 1.36238 -1.41186 0
M  V30 3864 O 371.89 2.01502 -0.789051 0
M  V30 3865 C 372.485 -0.0861651 -3.3869 0
M  V30 3866 C 371.044 0.30667 -3.75149 0
M  V30 3867 C 370.191 -0.459397 -2.73468 0
M  V30 3868 H 373.142 -0.712264 -1.41818 0
M  V30 3869 H 373.163 0.709507 -3.73826 0
M  V30 3870 H 372.675 -1.11512 -3.71735 0
M  V30 3871 H 370.776 1.33892 -3.47712 0
M  V30 3872 H 370.889 -0.0116669 -4.79099 0
M  V30 3873 H 369.253 0.0905645 -2.54539 0
M  V30 3874 H 370.036 -1.4884 -3.09357 0
M  V30 3875 N 372.481 1.55866 -0.233164 0
M  V30 3876 C 373.709 2.02998 0.399905 0
M  V30 3877 C 374.124 1.11274 1.52524 0
M  V30 3878 O 373.481 0.124528 1.82075 0
M  V30 3879 C 373.532 3.4958 0.920639 0
M  V30 3880 O 373.253 4.37808 -0.159834 0
M  V30 3881 C 374.754 4.12411 1.62578 0
M  V30 3882 H 371.974 0.664006 0.0966281 0
M  V30 3883 H 374.518 2.0143 -0.353013 0
M  V30 3884 H 372.673 3.51727 1.62379 0
M  V30 3885 H 373.087 5.23981 0.23337 0
M  V30 3886 H 374.561 5.16711 1.94201 0
M  V30 3887 H 375.038 3.5809 2.54299 0
M  V30 3888 H 375.644 4.14148 0.967553 0
M  V30 3889 N 373.959 -0.0401083 1.57549 0
M  V30 3890 C 375.208 -0.732108 1.87944 0
M  V30 3891 C 375.521 -1.77107 0.830206 0
M  V30 3892 O 376.727 -2.51488 1.02302 0
M  V30 3893 C 375.183 -1.35315 3.33494 0
M  V30 3894 C 374.791 -0.351105 4.46622 0
M  V30 3895 C 376.535 -2.02566 3.73051 0
M  V30 3896 C 374.442 -0.979859 5.83226 0
M  V30 3897 H 373.372 -0.277188 0.701201 0
M  V30 3898 H 376.023 0.0138501 1.83495 0
M  V30 3899 H 374.405 -2.14844 3.32653 0
M  V30 3900 H 375.579 0.416674 4.58912 0
M  V30 3901 H 373.894 0.218708 4.15825 0
M  V30 3902 H 376.491 -2.50441 4.72423 0
M  V30 3903 H 376.834 -2.83904 3.04474 0
M  V30 3904 H 377.367 -1.29827 3.76018 0
M  V30 3905 H 374.106 -0.206135 6.55176 0
M  V30 3906 H 373.626 -1.71774 5.74677 0
M  V30 3907 H 375.305 -1.49046 6.29599 0
M  V30 3908 N 375.437 -1.54477 -0.31217 0
M  V30 3909 C 376.677 -1.74958 -1.05684 0
M  V30 3910 C 377.041 -0.518414 -1.84869 0
M  V30 3911 O 378.242 -0.600759 -2.62001 0
M  V30 3912 C 376.513 -2.99656 -1.94785 0
M  V30 3913 S 378.072 -3.4109 -2.76049 0
M  V30 3914 H 374.89 -0.615104 -0.356606 0
M  V30 3915 H 377.492 -1.92669 -0.331514 0
M  V30 3916 H 376.196 -3.87397 -1.35468 0
M  V30 3917 H 375.727 -2.845 -2.71704 0
M  V30 3918 H 377.742 -2.97283 -3.97287 0
M  V30 3919 N 376.915 0.57481 -1.46744 0
M  V30 3920 C 378.331 0.898981 -1.31873 0
M  V30 3921 C 378.531 1.99313 -0.29605 0
M  V30 3922 O 377.587 2.50728 0.298621 0
M  V30 3923 C 378.9 1.30886 -2.7072 0
M  V30 3924 C 380.448 1.42127 -2.78871 0
M  V30 3925 C 380.923 1.86478 -4.18318 0
M  V30 3926 N 382.414 1.93658 -4.20774 0
M  V30 3927 C 383.149 2.29267 -5.2557 0
M  V30 3928 N 382.645 2.63612 -6.40688 0
M  V30 3929 N 384.438 2.29889 -5.1294 0
M  V30 3930 H 376.589 -0.147839 -2.11885 0
M  V30 3931 H 378.852 -0.00347013 -0.947994 0
M  V30 3932 H 378.558 0.578853 -3.46904 0
M  V30 3933 H 378.432 2.26874 -3.01343 0
M  V30 3934 H 380.819 2.14213 -2.0297 0
M  V30 3935 H 380.9 0.443705 -2.51922 0
M  V30 3936 H 380.544 1.14968 -4.94717 0
M  V30 3937 H 380.474 2.85207 -4.42679 0
M  V30 3938 H 382.965 1.69574 -3.37718 0
M  V30 3939 H 383.278 2.89759 -7.16421 0
M  V30 3940 H 381.623 2.61232 -6.44036 0
M  V30 3941 H 384.814 2.02485 -4.22039 0
M  V30 3942 H 384.987 2.57312 -5.94722 0
M  V30 3943 N 378.394 1.34581 0.820102 0
M  V30 3944 C 379.81 1.14325 1.11364 0
M  V30 3945 C 380.01 -0.0533648 2.01429 0
M  V30 3946 O 379.066 -0.728044 2.41776 0
M  V30 3947 C 380.379 2.43983 1.75764 0
M  V30 3948 C 381.927 2.50065 1.88246 0
M  V30 3949 C 382.402 3.79732 2.56061 0
M  V30 3950 N 383.893 3.80908 2.63558 0
M  V30 3951 C 384.628 4.77961 3.16766 0
M  V30 3952 N 384.124 5.85397 3.70517 0
M  V30 3953 N 385.917 4.65413 3.15194 0
M  V30 3954 H 378.068 2.11246 0.221096 0
M  V30 3955 H 380.331 0.934289 0.160649 0
M  V30 3956 H 380.037 3.31651 1.1705 0
M  V30 3957 H 379.911 2.57531 2.75604 0
M  V30 3958 H 382.298 1.62834 2.46108 0
M  V30 3959 H 382.379 2.40442 0.873006 0
M  V30 3960 H 382.023 4.67354 1.98853 0
M  V30 3961 H 381.953 3.86639 3.57516 0
M  V30 3962 H 384.444 3.03274 2.25463 0
M  V30 3963 H 384.757 6.55463 4.09376 0
M  V30 3964 H 383.102 5.89107 3.68752 0
M  V30 3965 H 386.293 3.80627 2.72471 0
M  V30 3966 H 386.466 5.41216 3.56356 0
M  V30 3967 N 379.872 -1.04064 1.18357 0
M  V30 3968 C 381.12 -1.76915 0.977013 0
M  V30 3969 C 381.441 -1.88624 -0.494577 0
M  V30 3970 O 380.711 -1.41125 -1.3587 0
M  V30 3971 H 379.291 -0.65535 0.358504 0
M  V30 3972 H 381.953 -1.25592 1.49039 0
M  V30 3973 H 381.049 -2.78178 1.41504 0
M  V30 3974 N 381.35 -0.985608 -1.22978 0
M  V30 3975 C 382.598 -0.656087 -1.91154 0
M  V30 3976 C 382.919 0.813561 -1.77218 0
M  V30 3977 O 382.189 1.58244 -1.1548 0
M  V30 3978 H 380.769 -0.239674 -0.707506 0
M  V30 3979 H 383.431 -1.25054 -1.49491 0
M  V30 3980 H 382.527 -0.912253 -2.9847 0
M  V30 3981 N 382.828 1.3818 -0.7579 0
M  V30 3982 C 384.056 2.04301 -0.326937 0
M  V30 3983 C 384.471 1.57163 1.0462 0
M  V30 3984 O 383.828 0.746626 1.66529 0
M  V30 3985 C 383.879 3.59846 -0.345363 0
M  V30 3986 O 383.6 4.05256 -1.66432 0
M  V30 3987 C 385.101 4.4319 0.098927 0
M  V30 3988 H 382.321 0.656443 -0.139012 0
M  V30 3989 H 384.865 1.76786 -1.02796 0
M  V30 3990 H 383.02 3.86182 0.306955 0
M  V30 3991 H 383.434 4.99709 -1.59345 0
M  V30 3992 H 384.908 5.51989 0.0348745 0
M  V30 3993 H 385.385 4.23947 1.14741 0
M  V30 3994 H 385.991 4.22051 -0.52468 0
M  V30 3995 N 384.306 0.507319 1.49211 0
M  V30 3996 C 385.552 -0.0269732 2.03382 0
M  V30 3997 C 385.907 -1.34111 1.37957 0
M  V30 3998 O 385.2 -1.84733 0.508351 0
M  V30 3999 C 385.394 -0.229513 3.56662 0
M  V30 4000 C 385.223 1.06344 4.36945 0
M  V30 4001 C 383.993 1.617 4.78729 0
M  V30 4002 C 386.191 1.96833 4.75143 0
M  V30 4003 N 384.173 2.8552 5.43463 0
M  V30 4004 C 385.544 3.0523 5.39661 0
M  V30 4005 C 387.599 1.97434 4.57082 0
M  V30 4006 C 386.302 4.14265 5.88028 0
M  V30 4007 C 388.328 3.05448 5.06414 0
M  V30 4008 C 387.69 4.12564 5.70938 0
M  V30 4009 H 383.789 0.0310673 0.781383 0
M  V30 4010 H 386.373 0.683579 1.82305 0
M  V30 4011 H 384.544 -0.909127 3.7761 0
M  V30 4012 H 386.276 -0.761377 3.97473 0
M  V30 4013 H 383.031 1.16132 4.59141 0
M  V30 4014 H 383.455 3.48499 5.80412 0
M  V30 4015 H 388.097 1.15924 4.06597 0
M  V30 4016 H 385.815 4.96569 6.3753 0
M  V30 4017 H 389.401 3.06941 4.94246 0
M  V30 4018 H 388.281 4.94767 6.0842 0
M  V30 4019 N 385.784 -1.5574 0.241426 0
M  V30 4020 C 387.031 -1.9881 -0.384836 0
M  V30 4021 C 387.359 -1.12947 -1.58346 0
M  V30 4022 O 386.614 -0.178993 -1.9488 0
M  V30 4023 C 386.913 -3.47308 -0.843317 0
M  V30 4024 C 386.579 -4.50223 0.246946 0
M  V30 4025 C 385.241 -4.78088 0.546399 0
M  V30 4026 C 387.593 -5.11841 0.983282 0
M  V30 4027 C 384.921 -5.64846 1.58636 0
M  V30 4028 C 387.273 -5.99727 2.01272 0
M  V30 4029 C 385.937 -6.25927 2.31888 0
M  V30 4030 H 385.207 -0.727496 -0.140821 0
M  V30 4031 H 387.854 -1.8831 0.348106 0
M  V30 4032 H 386.159 -3.55112 -1.65537 0
M  V30 4033 H 387.856 -3.78017 -1.33806 0
M  V30 4034 H 384.446 -4.286 0.00340639 0
M  V30 4035 H 388.63 -4.90366 0.765182 0
M  V30 4036 H 383.886 -5.83403 1.82896 0
M  V30 4037 H 388.06 -6.46517 2.58823 0
M  V30 4038 H 385.687 -6.92949 3.12611 0
M  V30 4039 N 387.262 0.0317525 -1.57568 0
M  V30 4040 C 388.225 1.01783 -2.0536 0
M  V30 4041 C 389.225 1.29203 -0.957253 0
M  V30 4042 O 390.415 1.24251 -1.22095 0
M  V30 4043 C 387.547 2.35137 -2.46827 0
M  V30 4044 H 388.74 0.605062 -2.93733 0
M  V30 4045 H 386.293 0.278514 -1.53799 0
M  V30 4046 H 387.028 2.81168 -1.61602 0
M  V30 4047 H 386.813 2.16566 -3.26866 0
M  V30 4048 H 388.303 3.05938 -2.84239 0
M  V30 4049 N 388.74 1.54641 0.303973 0
M  V30 4050 C 389.988 1.73437 1.0375 0
M  V30 4051 C 390.309 0.521449 1.87899 0
M  V30 4052 O 389.579 -0.46432 1.90318 0
M  V30 4053 H 388.159 0.639518 0.386039 0
M  V30 4054 H 390.821 1.91988 0.335675 0
M  V30 4055 H 389.917 2.62235 1.69231 0
M  V30 4056 N 390.218 -0.567019 1.47046 0
M  V30 4057 C 391.465 -1.32462 1.53167 0
M  V30 4058 C 391.793 -1.93571 0.189841 0
M  V30 4059 O 391.048 -1.77865 -0.816243 0
M  V30 4060 C 391.347 -2.4623 2.59047 0
M  V30 4061 C 391.013 -2.03014 4.02612 0
M  V30 4062 C 389.675 -1.90944 4.41694 0
M  V30 4063 C 392.027 -1.69895 4.92732 0
M  V30 4064 C 389.355 -1.44035 5.68745 0
M  V30 4065 C 391.707 -1.2446 6.20236 0
M  V30 4066 C 390.371 -1.10979 6.5821 0
M  V30 4067 H 389.641 -0.484713 0.560477 0
M  V30 4068 H 392.288 -0.636888 1.80599 0
M  V30 4069 H 390.593 -3.20517 2.25335 0
M  V30 4070 H 392.29 -3.04427 2.61008 0
M  V30 4071 H 388.88 -2.13348 3.71726 0
M  V30 4072 H 393.064 -1.78098 4.63244 0
M  V30 4073 H 388.32 -1.32254 5.96925 0
M  V30 4074 H 392.494 -0.978924 6.89485 0
M  V30 4075 H 390.121 -0.744078 7.5655 0
M  V30 4076 N 391.696 -1.35014 -0.812953 0
M  V30 4077 C 392.944 -1.27678 -1.56661 0
M  V30 4078 C 393.265 0.150359 -1.94419 0
M  V30 4079 O 392.535 1.08532 -1.63088 0
M  V30 4080 H 391.115 -0.469602 -0.580933 0
M  V30 4081 H 393.777 -1.69043 -0.970076 0
M  V30 4082 H 392.873 -1.88833 -2.48492 0
M  V30 4083 N 393.175 1.03435 -1.18907 0
M  V30 4084 C 394.591 1.28973 -0.940111 0
M  V30 4085 C 394.791 1.97676 0.390691 0
M  V30 4086 O 393.847 2.26127 1.12352 0
M  V30 4087 C 395.16 2.14221 -2.11021 0
M  V30 4088 C 396.708 2.27547 -2.14922 0
M  V30 4089 C 397.183 3.16164 -3.31367 0
M  V30 4090 N 398.674 3.23752 -3.31269 0
M  V30 4091 C 399.409 3.92495 -4.18014 0
M  V30 4092 N 398.905 4.63515 -5.14904 0
M  V30 4093 N 400.698 3.88838 -4.05908 0
M  V30 4094 H 392.849 0.57252 -2.04538 0
M  V30 4095 H 395.112 0.315184 -0.894071 0
M  V30 4096 H 394.818 1.71054 -3.073 0
M  V30 4097 H 394.692 3.14919 -2.0762 0
M  V30 4098 H 397.079 2.69947 -1.19217 0
M  V30 4099 H 397.16 1.26418 -2.22378 0
M  V30 4100 H 396.804 2.74474 -4.27348 0
M  V30 4101 H 396.734 4.17339 -3.21148 0
M  V30 4102 H 399.225 2.73167 -2.61129 0
M  V30 4103 H 399.538 5.13583 -5.77453 0
M  V30 4104 H 397.883 4.62398 -5.18857 0
M  V30 4105 H 401.074 3.32491 -3.29495 0
M  V30 4106 H 401.247 4.4214 -4.73726 0
M  V30 4107 N 394.653 0.992116 1.22453 0
M  V30 4108 C 395.563 0.55065 2.28046 0
M  V30 4109 C 396.579 -0.400189 1.69335 0
M  V30 4110 O 397.755 -0.267215 1.99619 0
M  V30 4111 C 394.82 -0.128496 3.46462 0
M  V30 4112 C 393.881 0.865208 4.20491 0
M  V30 4113 C 393.114 0.218377 5.33253 0
M  V30 4114 O 393.337 -0.987894 5.6178 0
M  V30 4115 O 392.271 0.922845 5.94783 0
M  V30 4116 H 396.097 1.4291 2.67975 0
M  V30 4117 H 393.682 0.760326 1.28606 0
M  V30 4118 H 395.564 -0.508947 4.18315 0
M  V30 4119 H 394.239 -0.981526 3.0846 0
M  V30 4120 H 393.146 1.29658 3.50913 0
M  V30 4121 H 394.479 1.68741 4.62371 0
M  V30 4122 N 396.131 -1.37776 0.765217 0
M  V30 4123 C 397.547 -1.53297 0.444108 0
M  V30 4124 C 397.747 -1.72515 -1.04119 0
M  V30 4125 O 396.803 -1.74278 -1.82711 0
M  V30 4126 C 398.116 -2.73328 1.25349 0
M  V30 4127 C 399.664 -2.87185 1.24473 0
M  V30 4128 C 400.139 -4.10191 2.03733 0
M  V30 4129 N 401.63 -4.17291 2.01053 0
M  V30 4130 C 402.365 -5.11488 2.59166 0
M  V30 4131 N 401.861 -6.11285 3.26041 0
M  V30 4132 N 403.654 -5.03924 2.49032 0
M  V30 4133 H 395.805 -1.23552 1.72768 0
M  V30 4134 H 398.068 -0.601103 0.733062 0
M  V30 4135 H 397.774 -2.6557 2.30577 0
M  V30 4136 H 397.648 -3.66834 0.87823 0
M  V30 4137 H 400.035 -2.94418 0.20047 0
M  V30 4138 H 400.116 -1.94657 1.65959 0
M  V30 4139 H 399.76 -4.0372 3.08176 0
M  V30 4140 H 399.69 -5.01821 1.59633 0
M  V30 4141 H 402.181 -3.45825 1.5236 0
M  V30 4142 H 402.494 -6.79678 3.67774 0
M  V30 4143 H 400.839 -6.11583 3.30138 0
M  V30 4144 H 404.03 -4.24902 1.96407 0
M  V30 4145 H 404.203 -5.77152 2.94617 0
M  V30 4146 N 397.609 -0.515225 -1.4894 0
M  V30 4147 C 398.557 0.269115 -2.31038 0
M  V30 4148 C 399.551 0.949443 -1.40292 0
M  V30 4149 O 400.757 0.87551 -1.57273 0
M  V30 4150 H 397.132 0.10565 -0.744542 0
M  V30 4151 H 399.103 -0.443096 -2.95092 0
M  V30 4152 C 397.852 1.31213 -3.21991 0
M  V30 4153 H 397.175 0.798034 -3.91754 0
M  V30 4154 H 398.615 1.83263 -3.82349 0
M  V30 4155 C 397.074 2.33791 -2.42576 0
M  V30 4156 O 397.604 3.3995 -2.14003 0
M  V30 4157 N 395.81 2.06625 -2.0434 0
M  V30 4158 H 395.357 1.20314 -2.27777 0
M  V30 4159 H 395.315 2.75483 -1.51514 0
M  V30 4160 N 399.087 1.5561 -0.249682 0
M  V30 4161 C 400.312 2.03865 0.381305 0
M  V30 4162 C 400.737 1.12769 1.50548 0
M  V30 4163 O 400.095 0.121189 1.80895 0
M  V30 4164 C 400.143 3.50101 0.863816 0
M  V30 4165 O 399.247 3.62132 1.97318 0
M  V30 4166 H 398.588 0.658827 0.0827194 0
M  V30 4167 H 401.118 2.01105 -0.376552 0
M  V30 4168 H 401.128 3.90975 1.1663 0
M  V30 4169 H 399.803 4.1588 0.0411816 0
M  V30 4170 H 398.38 3.33155 1.67517 0
M  V30 4171 N 400.565 -0.0233959 1.57583 0
M  V30 4172 C 401.813 -0.711654 1.89156 0
M  V30 4173 C 402.134 -1.75591 0.848096 0
M  V30 4174 O 401.404 -1.95547 -0.117566 0
M  V30 4175 H 399.984 -0.265835 0.698098 0
M  V30 4176 H 402.646 0.0119948 1.94896 0
M  V30 4177 H 401.742 -1.19766 2.88206 0
M  V30 4178 N 402.043 -1.548 -0.295768 0
M  V30 4179 C 403.271 -1.78327 -1.04914 0
M  V30 4180 C 403.686 -0.545316 -1.80753 0
M  V30 4181 O 403.043 0.485013 -1.75937 0
M  V30 4182 C 403.094 -2.99418 -2.02561 0
M  V30 4183 O 402.815 -4.18431 -1.29798 0
M  V30 4184 C 404.316 -3.35375 -2.89895 0
M  V30 4185 H 401.536 -0.594618 -0.310918 0
M  V30 4186 H 404.08 -2.01763 -0.333454 0
M  V30 4187 H 402.235 -2.78175 -2.69624 0
M  V30 4188 H 402.649 -4.86736 -1.95419 0
M  V30 4189 H 404.123 -4.23332 -3.54251 0
M  V30 4190 H 404.6 -2.53761 -3.58472 0
M  V30 4191 H 405.206 -3.58796 -2.28355 0
M  V30 4192 N 403.521 0.559213 -1.47345 0
M  V30 4193 C 404.468 1.66645 -1.59682 0
M  V30 4194 C 405.438 1.60168 -0.43994 0
M  V30 4195 O 406.623 1.79031 -0.659736 0
M  V30 4196 C 403.763 3.04969 -1.61518 0
M  V30 4197 C 402.876 3.21897 -2.88108 0
M  V30 4198 C 402.011 4.50608 -2.81294 0
M  V30 4199 C 401.05 4.60961 -4.02717 0
M  V30 4200 N 400.187 5.81024 -3.94151 0
M  V30 4201 H 405.027 1.55439 -2.54249 0
M  V30 4202 H 402.564 0.757219 -1.26113 0
M  V30 4203 H 404.522 3.85064 -1.60566 0
M  V30 4204 H 403.152 3.15015 -0.704645 0
M  V30 4205 H 402.204 2.35248 -2.98936 0
M  V30 4206 H 403.516 3.25412 -3.78032 0
M  V30 4207 H 402.67 5.3896 -2.7858 0
M  V30 4208 H 401.409 4.49568 -1.89049 0
M  V30 4209 H 400.414 3.71021 -4.05738 0
M  V30 4210 H 401.639 4.63761 -4.96087 0
M  V30 4211 H 399.585 5.80938 -3.04708 0
M  V30 4212 H 399.502 5.85909 -4.77752 0
M  V30 4213 H 400.77 6.71744 -3.9545 0
M  V30 4214 N 404.999 1.35443 0.805782 0
M  V30 4215 C 405.929 1.31095 1.93226 0
M  V30 4216 C 406.91 0.185244 1.69088 0
M  V30 4217 O 408.095 0.380332 1.90439 0
M  V30 4218 C 405.225 1.08299 3.29983 0
M  V30 4219 C 404.179 2.17519 3.68605 0
M  V30 4220 C 403.505 1.79887 5.03532 0
M  V30 4221 C 404.805 3.5949 3.78898 0
M  V30 4222 H 406.499 2.25352 1.97122 0
M  V30 4223 H 404.045 1.0848 0.946996 0
M  V30 4224 H 405.998 1.03897 4.08391 0
M  V30 4225 H 404.722 0.104885 3.26432 0
M  V30 4226 H 403.381 2.2102 2.92482 0
M  V30 4227 H 403.029 0.80693 4.96485 0
M  V30 4228 H 402.729 2.53001 5.30344 0
M  V30 4229 H 404.253 1.77011 5.84379 0
M  V30 4230 H 405.667 3.58307 4.47536 0
M  V30 4231 H 404.064 4.31371 4.1718 0
M  V30 4232 H 405.134 3.95584 2.80431 0
M  V30 4233 N 406.477 -1.02803 1.19454 0
M  V30 4234 C 407.724 -1.76217 0.997693 0
M  V30 4235 C 408.052 -1.887 -0.47144 0
M  V30 4236 O 407.307 -1.4011 -1.3663 0
M  V30 4237 C 407.606 -3.18941 1.6128 0
M  V30 4238 C 407.272 -3.26463 3.11019 0
M  V30 4239 C 405.934 -3.28223 3.51885 0
M  V30 4240 C 408.286 -3.25542 4.07028 0
M  V30 4241 C 405.614 -3.26719 4.8731 0
M  V30 4242 C 407.966 -3.25579 5.42385 0
M  V30 4243 C 406.63 -3.25637 5.82681 0
M  V30 4244 H 405.9 -0.644823 0.365082 0
M  V30 4245 H 408.547 -1.20655 1.4871 0
M  V30 4246 H 406.852 -3.77587 1.04572 0
M  V30 4247 H 408.549 -3.74415 1.43577 0
M  V30 4248 H 405.139 -3.25822 2.78457 0
M  V30 4249 H 409.323 -3.23362 3.76498 0
M  V30 4250 H 404.579 -3.25089 5.1781 0
M  V30 4251 H 408.753 -3.23817 6.16535 0
M  V30 4252 H 406.38 -3.24226 6.87591 0
M  V30 4253 N 407.956 -0.998596 -1.21925 0
M  V30 4254 C 408.904 -0.546641 -2.26085 0
M  V30 4255 C 409.898 0.405576 -1.64473 0
M  V30 4256 O 411.104 0.277471 -1.77849 0
M  V30 4257 H 407.479 -0.158403 -0.735127 0
M  V30 4258 H 409.45 -1.43645 -2.61551 0
M  V30 4259 C 408.199 0.117388 -3.47502 0
M  V30 4260 H 407.522 -0.606277 -3.95176 0
M  V30 4261 H 408.962 0.396993 -4.22137 0
M  V30 4262 C 407.421 1.35455 -3.0847 0
M  V30 4263 O 407.951 2.44944 -3.18379 0
M  V30 4264 N 406.157 1.23191 -2.63196 0
M  V30 4265 H 405.704 0.341006 -2.55333 0
M  V30 4266 H 405.662 2.06071 -2.37449 0
M  V30 4267 N 409.434 1.37368 -0.772513 0
M  V30 4268 C 410.683 1.98918 -0.333861 0
M  V30 4269 C 410.996 1.62017 1.09589 0
M  V30 4270 O 412.202 2.16676 1.63596 0
M  V30 4271 C 410.658 3.55735 -0.545971 0
M  V30 4272 C 410.266 4.01573 -1.98603 0
M  V30 4273 C 412.01 4.24156 -0.170979 0
M  V30 4274 C 409.917 5.51102 -2.1457 0
M  V30 4275 H 408.847 0.744214 -0.121085 0
M  V30 4276 H 411.498 1.56888 -0.95175 0
M  V30 4277 H 409.88 3.95748 0.141387 0
M  V30 4278 H 411.054 3.72803 -2.7084 0
M  V30 4279 H 409.369 3.45937 -2.31769 0
M  V30 4280 H 411.966 5.34024 -0.26878 0
M  V30 4281 H 412.309 4.06917 0.878855 0
M  V30 4282 H 412.842 3.89447 -0.810914 0
M  V30 4283 H 409.581 5.73268 -3.17875 0
M  V30 4284 H 409.101 5.81554 -1.46817 0
M  V30 4285 H 410.78 6.17083 -1.94468 0
M  V30 4286 N 410.912 0.523116 1.48665 0
M  V30 4287 C 412.137 -0.0117284 2.07397 0
M  V30 4288 C 412.562 -1.28031 1.37803 0
M  V30 4289 O 411.92 -1.75836 0.441762 0
M  V30 4290 C 411.968 -0.225786 3.59892 0
M  V30 4291 O 411.072 -1.29592 3.91509 0
M  V30 4292 H 410.413 0.0360673 0.66302 0
M  V30 4293 H 412.943 0.729066 1.9117 0
M  V30 4294 H 412.953 -0.450552 4.05505 0
M  V30 4295 H 411.628 0.700944 4.09951 0
M  V30 4296 H 410.205 -1.05436 3.57684 0
M  V30 4297 N 412.39 -1.55475 0.257931 0
M  V30 4298 C 413.638 -1.98813 -0.363009 0
M  V30 4299 C 413.959 -1.14757 -1.57657 0
M  V30 4300 O 413.229 -0.232956 -1.9451 0
M  V30 4301 H 411.809 -0.734308 -0.137113 0
M  V30 4302 H 414.471 -1.9156 0.359281 0
M  V30 4303 H 413.567 -3.04941 -0.664634 0
M  V30 4304 N 413.868 0.0150385 -1.57593 0
M  V30 4305 C 414.818 1.01943 -2.0394 0
M  V30 4306 C 415.802 1.31209 -0.931286 0
M  V30 4307 O 416.994 1.30559 -1.19513 0
M  V30 4308 C 414.123 2.31621 -2.53391 0
M  V30 4309 C 413.209 2.05384 -3.7105 0
M  V30 4310 N 413.6 1.49253 -4.83278 0
M  V30 4311 C 411.898 2.35601 -3.78693 0
M  V30 4312 C 412.599 1.39143 -5.64813 0
M  V30 4313 N 411.575 1.87187 -5.10355 0
M  V30 4314 H 415.377 0.57969 -2.88126 0
M  V30 4315 H 412.891 0.221056 -1.60888 0
M  V30 4316 H 414.888 3.044 -2.84862 0
M  V30 4317 H 413.548 2.76261 -1.70616 0
M  V30 4318 H 414.559 1.17334 -5.04433 0
M  V30 4319 H 411.236 2.8322 -3.06746 0
M  V30 4320 H 412.626 0.961153 -6.6499 0
M  V30 4321 N 415.346 1.54954 0.287554 0
M  V30 4322 C 416.592 1.75132 1.02257 0
M  V30 4323 C 416.925 0.542858 1.86458 0
M  V30 4324 O 416.2 -0.459856 1.88986 0
M  V30 4325 C 416.483 3.04812 1.91733 0
M  V30 4326 C 416.336 4.35985 1.10622 0
M  V30 4327 C 417.655 3.30438 2.90687 0
M  V30 4328 H 414.774 0.637194 0.370341 0
M  V30 4329 H 417.416 1.87678 0.296111 0
M  V30 4330 H 415.566 2.94247 2.53675 0
M  V30 4331 H 417.238 4.58487 0.508636 0
M  V30 4332 H 415.481 4.31865 0.409271 0
M  V30 4333 H 416.152 5.23017 1.76513 0
M  V30 4334 H 418.628 3.40701 2.38877 0
M  V30 4335 H 417.504 4.22467 3.50447 0
M  V30 4336 H 417.765 2.49377 3.65053 0
M  V30 4337 N 416.824 -0.551391 1.4764 0
M  V30 4338 C 417.772 -1.67896 1.60978 0
M  V30 4339 C 418.766 -1.62549 0.476877 0
M  V30 4340 O 419.972 -1.67664 0.654878 0
M  V30 4341 H 416.347 -0.555649 0.506713 0
M  V30 4342 H 418.318 -1.53784 2.55721 0
M  V30 4343 C 417.067 -3.06234 1.64669 0
M  V30 4344 H 416.39 -3.11033 2.51194 0
M  V30 4345 H 417.83 -3.84804 1.7805 0
M  V30 4346 C 416.289 -3.34737 0.381115 0
M  V30 4347 O 416.819 -3.98381 -0.515297 0
M  V30 4348 N 415.025 -2.8944 0.259354 0
M  V30 4349 H 414.572 -2.37827 0.98976 0
M  V30 4350 H 414.53 -3.08882 -0.586464 0
M  V30 4351 N 418.302 -1.35869 -0.798587 0
M  V30 4352 C 419.252 -1.25982 -1.90033 0
M  V30 4353 C 420.236 -0.153303 -1.60168 0
M  V30 4354 O 421.428 -0.38527 -1.72756 0
M  V30 4355 C 418.557 -1.04211 -3.27101 0
M  V30 4356 C 417.643 -2.19289 -3.63006 0
M  V30 4357 N 418.034 -3.44559 -3.70287 0
M  V30 4358 C 416.332 -2.10852 -3.93011 0
M  V30 4359 C 417.033 -4.20283 -4.02166 0
M  V30 4360 N 416.009 -3.49124 -4.16669 0
M  V30 4361 H 419.811 -2.20883 -1.93876 0
M  V30 4362 H 417.325 -1.28457 -0.993614 0
M  V30 4363 H 419.322 -0.952155 -4.05881 0
M  V30 4364 H 417.982 -0.102013 -3.2454 0
M  V30 4365 H 418.993 -3.7881 -3.53162 0
M  V30 4366 H 415.67 -1.24744 -3.98428 0
M  V30 4367 H 417.06 -5.28575 -4.14799 0
M  V30 4368 N 419.78 1.02168 -1.19998 0
M  V30 4369 C 421.191 1.57135 -1.00825 0
M  V30 4370 C 421.542 1.91276 0.436818 0
M  V30 4371 O 420.667 1.71679 1.3174 0
M  V30 4372 C 421.262 2.85514 -1.82393 0
M  V30 4373 C 419.821 3.37027 -1.67601 0
M  V30 4374 C 418.968 2.10388 -1.80644 0
M  V30 4375 H 421.919 0.846106 -1.34264 0
M  V30 4376 H 421.94 3.56711 -1.32429 0
M  V30 4377 H 421.452 2.60634 -2.87561 0
M  V30 4378 H 419.553 3.66878 -0.650485 0
M  V30 4379 H 419.666 4.09572 -2.4857 0
M  V30 4380 H 418.03 2.22601 -1.23778 0
M  V30 4381 H 418.813 1.8794 -2.87286 0
M  V30 4382 N 421.258 1.00505 1.21394 0
M  V30 4383 C 422.498 0.696149 1.9218 0
M  V30 4384 C 422.862 -0.759099 1.76357 0
M  V30 4385 O 424.063 -1.17998 2.41516 0
M  V30 4386 C 422.334 1.10571 3.39866 0
M  V30 4387 S 423.893 0.91702 4.29111 0
M  V30 4388 H 420.711 0.254147 0.664026 0
M  V30 4389 H 423.313 1.28988 1.46909 0
M  V30 4390 H 422.017 2.16096 3.489 0
M  V30 4391 H 421.548 0.504268 3.90155 0
M  V30 4392 H 423.563 -0.185855 4.95852 0
M  V30 4393 N 422.737 -1.36956 0.779787 0
M  V30 4394 C 423.965 -2.03755 0.359398 0
M  V30 4395 C 424.38 -1.58807 -1.02106 0
M  V30 4396 O 423.737 -0.773024 -1.6532 0
M  V30 4397 C 423.788 -3.59251 0.402568 0
M  V30 4398 O 423.509 -4.02557 1.72858 0
M  V30 4399 C 425.01 -4.43291 -0.0284068 0
M  V30 4400 H 422.23 -0.654148 0.149437 0
M  V30 4401 H 424.774 -1.75128 1.05595 0
M  V30 4402 H 422.929 -3.86621 -0.245478 0
M  V30 4403 H 423.343 -4.97111 1.67275 0
M  V30 4404 H 424.817 -5.51975 0.0529466 0
M  V30 4405 H 425.294 -4.25719 -1.07982 0
M  V30 4406 H 425.9 -4.21163 0.591758 0
M  V30 4407 N 424.215 -0.530993 -1.48385 0
M  V30 4408 C 425.461 0.00274135 -2.028 0
M  V30 4409 C 425.794 1.33838 -1.40716 0
M  V30 4410 O 425.069 1.86465 -0.553277 0
M  V30 4411 C 425.352 0.123676 -3.59888 0
M  V30 4412 C 425.205 -1.2372 -4.3245 0
M  V30 4413 C 426.524 0.849967 -4.31814 0
M  V30 4414 H 423.643 -0.000477758 -0.737 0
M  V30 4415 H 426.285 -0.688217 -1.77098 0
M  V30 4416 H 424.435 0.712157 -3.81917 0
M  V30 4417 H 426.107 -1.86687 -4.21836 0
M  V30 4418 H 424.35 -1.81882 -3.93829 0
M  V30 4419 H 425.021 -1.10557 -5.40815 0
M  V30 4420 H 427.497 0.350572 -4.14621 0
M  V30 4421 H 426.373 0.903486 -5.41413 0
M  V30 4422 H 426.634 1.90047 -3.99167 0
M  V30 4423 N 425.693 1.55336 -0.266172 0
M  V30 4424 C 426.603 2.2583 0.635458 0
M  V30 4425 C 427.619 1.28106 1.17749 0
M  V30 4426 O 428.795 1.61024 1.20968 0
M  V30 4427 C 425.86 2.95879 1.80712 0
M  V30 4428 C 424.921 4.09059 1.30265 0
M  V30 4429 C 424.154 4.75759 2.41846 0
M  V30 4430 O 424.377 4.41622 3.61007 0
M  V30 4431 O 423.311 5.63888 2.1051 0
M  V30 4432 H 427.137 3.03631 0.0646693 0
M  V30 4433 H 424.722 1.49361 -0.0339177 0
M  V30 4434 H 426.604 3.39932 2.49047 0
M  V30 4435 H 425.279 2.21002 2.36516 0
M  V30 4436 H 424.186 3.69482 0.586019 0
M  V30 4437 H 425.519 4.85811 0.790458 0
M  V30 4438 N 427.171 -0.0066808 1.57599 0
M  V30 4439 C 428.081 -1.01671 2.11424 0
M  V30 4440 C 429.097 -1.38143 1.05795 0
M  V30 4441 O 430.273 -1.47011 1.37658 0
M  V30 4442 C 427.338 -2.29192 2.60139 0
M  V30 4443 C 426.399 -1.99094 3.80342 0
M  V30 4444 C 425.632 -3.20535 4.26724 0
M  V30 4445 O 425.855 -4.3199 3.72479 0
M  V30 4446 O 424.789 -3.04924 5.18946 0
M  V30 4447 H 428.615 -0.589181 2.9793 0
M  V30 4448 H 426.2 -0.225091 1.47695 0
M  V30 4449 H 428.082 -3.0412 2.917 0
M  V30 4450 H 426.757 -2.71195 1.76733 0
M  V30 4451 H 425.664 -1.21663 3.53764 0
M  V30 4452 H 426.997 -1.61931 4.648 0
M  V30 4453 N 428.649 -1.55105 -0.279332 0
M  V30 4454 C 429.559 -1.90638 -1.36727 0
M  V30 4455 C 430.575 -0.802899 -1.54368 0
M  V30 4456 O 431.751 -1.10138 -1.68616 0
M  V30 4457 C 428.816 -2.16547 -2.70755 0
M  V30 4458 C 427.877 -3.40146 -2.61915 0
M  V30 4459 C 427.11 -3.6481 -3.8955 0
M  V30 4460 O 427.333 -2.92095 -4.89935 0
M  V30 4461 O 426.267 -4.58343 -3.90135 0
M  V30 4462 H 430.093 -2.83237 -1.09591 0
M  V30 4463 H 427.678 -1.4157 -0.477306 0
M  V30 4464 H 429.56 -2.34665 -3.50014 0
M  V30 4465 H 428.235 -1.27131 -2.9769 0
M  V30 4466 H 427.142 -3.2737 -1.81052 0
M  V30 4467 H 428.475 -4.29761 -2.3993 0
M  V30 4468 N 430.127 0.543554 -1.4793 0
M  V30 4469 C 431.06 1.66556 -1.55995 0
M  V30 4470 C 432.038 1.57315 -0.411205 0
M  V30 4471 O 433.222 1.7798 -0.620922 0
M  V30 4472 C 430.349 3.04883 -1.47527 0
M  V30 4473 C 429.395 3.32526 -2.67074 0
M  V30 4474 S 430.228 3.20282 -4.29162 0
M  V30 4475 C 431.384 4.61079 -4.23269 0
M  V30 4476 H 431.617 1.59462 -2.50917 0
M  V30 4477 H 429.15 0.725456 -1.36296 0
M  V30 4478 H 431.108 3.84665 -1.43328 0
M  V30 4479 H 429.769 3.09429 -0.539665 0
M  V30 4480 H 428.962 4.33403 -2.5725 0
M  V30 4481 H 428.564 2.60389 -2.68466 0
M  V30 4482 H 430.856 5.52318 -3.92365 0
M  V30 4483 H 431.799 4.75959 -5.24279 0
M  V30 4484 H 432.207 4.39766 -3.5393 0
M  V30 4485 N 431.605 1.3629 0.791371 0
M  V30 4486 C 432.83 1.33726 1.58531 0
M  V30 4487 C 433.255 -0.0794933 1.87932 0
M  V30 4488 O 432.613 -1.05087 1.47738 0
M  V30 4489 C 432.661 2.16425 2.88431 0
M  V30 4490 O 431.765 1.5554 3.81944 0
M  V30 4491 H 431.106 0.457793 0.480959 0
M  V30 4492 H 433.636 1.79547 0.981031 0
M  V30 4493 H 433.646 2.28933 3.37718 0
M  V30 4494 H 432.321 3.19415 2.66359 0
M  V30 4495 H 430.898 1.51961 3.40532 0
M  V30 4496 N 433.083 -1.0153 1.20538 0
M  V30 4497 C 434.329 -1.75408 1.01783 0
M  V30 4498 C 434.662 -1.88943 -0.448814 0
M  V30 4499 O 433.937 -1.4162 -1.33319 0
M  V30 4500 C 434.22 -3.17255 1.70356 0
M  V30 4501 C 434.073 -3.11508 3.24473 0
M  V30 4502 C 435.392 -4.15955 1.43769 0
M  V30 4503 H 432.511 -0.636713 0.371167 0
M  V30 4504 H 435.153 -1.18436 1.4857 0
M  V30 4505 H 433.303 -3.65898 1.30578 0
M  V30 4506 H 434.975 -2.70658 3.73553 0
M  V30 4507 H 433.218 -2.4887 3.55311 0
M  V30 4508 H 433.889 -4.11784 3.67611 0
M  V30 4509 H 436.365 -3.75973 1.7828 0
M  V30 4510 H 435.241 -5.13368 1.94279 0
M  V30 4511 H 435.502 -4.40586 0.365564 0
M  V30 4512 N 434.561 -1.01147 -1.20859 0
M  V30 4513 C 435.972 -0.730205 -1.71828 0
M  V30 4514 C 436.323 0.751662 -1.8123 0
M  V30 4515 O 435.448 1.58686 -1.47132 0
M  V30 4516 C 436.043 -1.31885 -3.12077 0
M  V30 4517 C 434.602 -1.08656 -3.60376 0
M  V30 4518 C 433.749 -1.42769 -2.37723 0
M  V30 4519 H 436.7 -1.18158 -1.05945 0
M  V30 4520 H 436.721 -0.706793 -3.73878 0
M  V30 4521 H 436.233 -2.39737 -3.05201 0
M  V30 4522 H 434.334 -0.0254814 -3.72591 0
M  V30 4523 H 434.447 -1.76301 -4.45483 0
M  V30 4524 H 432.811 -0.846603 -2.40218 0
M  V30 4525 H 433.594 -2.51666 -2.33493 0
M  V30 4526 N 436.039 1.36541 -0.78704 0
M  V30 4527 C 436.969 2.32659 -0.197992 0
M  V30 4528 C 437.95 1.56533 0.665697 0
M  V30 4529 O 439.135 1.84698 0.60001 0
M  V30 4530 C 436.265 3.40778 0.669901 0
M  V30 4531 C 435.219 4.27897 -0.0937039 0
M  V30 4532 C 434.545 5.27163 0.894629 0
M  V30 4533 C 435.845 5.06334 -1.28154 0
M  V30 4534 H 437.539 2.82171 -1.00099 0
M  V30 4535 H 435.085 1.35665 -0.482793 0
M  V30 4536 H 437.038 4.07008 1.09191 0
M  V30 4537 H 435.762 2.89827 1.50558 0
M  V30 4538 H 434.421 3.6322 -0.49666 0
M  V30 4539 H 434.069 4.72486 1.72527 0
M  V30 4540 H 433.769 5.86317 0.388149 0
M  V30 4541 H 435.293 5.96266 1.31525 0
M  V30 4542 H 436.707 5.65617 -0.93541 0
M  V30 4543 H 435.104 5.74888 -1.72115 0
M  V30 4544 H 436.174 4.38114 -2.07807 0
M  V30 4545 N 437.518 0.538854 1.48102 0
M  V30 4546 C 438.465 -0.219042 2.29758 0
M  V30 4547 C 439.435 -0.925562 1.37922 0
M  V30 4548 O 440.62 -0.924855 1.66886 0
M  V30 4549 C 437.76 -1.25452 3.2149 0
M  V30 4550 C 436.873 -0.555943 4.28408 0
M  V30 4551 C 436.008 -1.57512 5.0731 0
M  V30 4552 C 435.047 -0.860498 6.06021 0
M  V30 4553 N 434.184 -1.82564 6.77949 0
M  V30 4554 H 439.024 0.483449 2.94052 0
M  V30 4555 H 436.561 0.250247 1.44956 0
M  V30 4556 H 438.519 -1.86727 3.7308 0
M  V30 4557 H 437.149 -1.92528 2.591 0
M  V30 4558 H 436.201 0.170938 3.80016 0
M  V30 4559 H 437.513 0.00474616 4.988 0
M  V30 4560 H 436.667 -2.26191 5.62959 0
M  V30 4561 H 435.406 -2.16972 4.36778 0
M  V30 4562 H 434.411 -0.159686 5.49568 0
M  V30 4563 H 435.636 -0.271897 6.78555 0
M  V30 4564 H 433.582 -2.40915 6.10161 0
M  V30 4565 H 433.499 -1.31662 7.44447 0
M  V30 4566 H 434.767 -2.50414 7.38182 0
M  V30 4567 N 438.996 -1.55193 0.274407 0
M  V30 4568 C 439.906 -2.26164 -0.623473 0
M  V30 4569 C 440.922 -1.28729 -1.17068 0
M  V30 4570 O 442.098 -1.61663 -1.20112 0
M  V30 4571 C 439.163 -2.96833 -1.7914 0
M  V30 4572 C 438.224 -4.09745 -1.28093 0
M  V30 4573 C 437.457 -4.77034 -2.3932 0
M  V30 4574 O 437.68 -4.4353 -3.5866 0
M  V30 4575 O 436.614 -5.64996 -2.07516 0
M  V30 4576 H 440.44 -3.03661 -0.0485661 0
M  V30 4577 H 438.025 -1.49341 0.0418382 0
M  V30 4578 H 439.907 -3.41248 -2.4724 0
M  V30 4579 H 438.582 -2.22253 -2.35341 0
M  V30 4580 H 437.489 -3.69787 -0.566416 0
M  V30 4581 H 438.822 -4.86224 -0.764683 0
M  V30 4582 N 440.474 -0.00167713 -1.576 0
M  V30 4583 C 441.404 0.988091 -2.11563 0
M  V30 4584 C 442.385 1.35736 -1.02517 0
M  V30 4585 O 443.57 1.44082 -1.30208 0
M  V30 4586 C 440.7 2.27941 -2.62031 0
M  V30 4587 C 439.654 2.0517 -3.75619 0
M  V30 4588 C 438.98 3.4033 -4.12407 0
M  V30 4589 C 440.28 1.41294 -5.02825 0
M  V30 4590 H 441.974 0.538771 -2.94513 0
M  V30 4591 H 439.52 0.257712 -1.41675 0
M  V30 4592 H 441.473 2.97539 -2.9841 0
M  V30 4593 H 440.197 2.74989 -1.76205 0
M  V30 4594 H 438.856 1.37998 -3.39635 0
M  V30 4595 H 438.504 3.85085 -3.23603 0
M  V30 4596 H 438.204 3.25909 -4.88935 0
M  V30 4597 H 439.728 4.1124 -4.51347 0
M  V30 4598 H 441.142 2.00851 -5.36965 0
M  V30 4599 H 439.539 1.37356 -5.84169 0
M  V30 4600 H 440.609 0.382362 -4.8339 0
M  V30 4601 N 441.952 1.55251 0.271103 0
M  V30 4602 C 443.201 1.75151 1.00025 0
M  V30 4603 C 443.514 0.561041 1.87381 0
M  V30 4604 O 444.72 0.642506 2.63788 0
M  V30 4605 C 443.176 3.09999 1.82835 0
M  V30 4606 C 442.784 4.3662 1.00336 0
M  V30 4607 C 444.528 3.39249 2.55168 0
M  V30 4608 C 442.435 5.62506 1.82595 0
M  V30 4609 H 441.365 0.652877 0.377183 0
M  V30 4610 H 444.016 1.81708 0.255843 0
M  V30 4611 H 442.398 2.97485 2.61378 0
M  V30 4612 H 443.572 4.60055 0.261959 0
M  V30 4613 H 441.887 4.14527 0.394486 0
M  V30 4614 H 444.484 4.3051 3.1712 0
M  V30 4615 H 444.827 2.59467 3.2555 0
M  V30 4616 H 445.36 3.52869 1.83653 0
M  V30 4617 H 442.099 6.45041 1.16631 0
M  V30 4618 H 441.619 5.43211 2.54327 0
M  V30 4619 H 443.298 6.00875 2.39913 0
M  V30 4620 N 443.43 -0.535701 1.48216 0
M  V30 4621 C 444.34 -1.66785 1.64985 0
M  V30 4622 C 445.356 -1.65654 0.532414 0
M  V30 4623 O 446.532 -1.8471 0.80275 0
M  V30 4624 C 443.597 -3.0326 1.68031 0
M  V30 4625 C 442.658 -3.1529 2.9136 0
M  V30 4626 C 441.891 -4.45255 2.94252 0
M  V30 4627 O 442.114 -5.32011 2.05719 0
M  V30 4628 O 441.048 -4.6153 3.86359 0
M  V30 4629 H 444.874 -1.55576 2.60825 0
M  V30 4630 H 442.459 -0.70815 1.31551 0
M  V30 4631 H 444.341 -3.84436 1.72589 0
M  V30 4632 H 443.016 -3.14805 0.753628 0
M  V30 4633 H 441.923 -2.3343 2.92337 0
M  V30 4634 H 443.256 -3.08658 3.83394 0
M  V30 4635 N 444.908 -1.36708 -0.784132 0
M  V30 4636 C 445.855 -1.31466 -1.89698 0
M  V30 4637 C 446.825 -0.18239 -1.65096 0
M  V30 4638 O 448.01 -0.369762 -1.87183 0
M  V30 4639 C 445.15 -1.1151 -3.26588 0
M  V30 4640 C 444.263 -2.33859 -3.63227 0
M  V30 4641 C 443.398 -2.06873 -4.89262 0
M  V30 4642 C 442.437 -3.25154 -5.18595 0
M  V30 4643 N 441.574 -2.978 -6.35814 0
M  V30 4644 H 446.414 -2.26619 -1.93515 0
M  V30 4645 H 443.951 -1.12625 -0.946256 0
M  V30 4646 H 445.909 -0.979653 -4.05535 0
M  V30 4647 H 444.539 -0.200103 -3.22179 0
M  V30 4648 H 443.591 -2.58188 -2.79362 0
M  V30 4649 H 444.903 -3.22109 -3.8085 0
M  V30 4650 H 444.057 -1.90289 -5.76086 0
M  V30 4651 H 442.796 -1.15942 -4.73718 0
M  V30 4652 H 441.801 -3.42292 -4.30251 0
M  V30 4653 H 443.026 -4.1692 -5.36055 0
M  V30 4654 H 440.972 -2.09485 -6.21653 0
M  V30 4655 H 440.889 -3.7959 -6.53794 0
M  V30 4656 H 442.157 -2.84805 -7.25607 0
M  V30 4657 N 446.386 1.0089 -1.21074 0
M  V30 4658 C 447.336 2.0799 -0.934034 0
M  V30 4659 C 448.32 1.60529 0.10919 0
M  V30 4660 O 449.512 1.76722 -0.0992198 0
M  V30 4661 C 446.641 3.39693 -0.496334 0
M  V30 4662 C 445.727 3.93833 -1.57341 0
M  V30 4663 N 446.118 4.21388 -2.7976 0
M  V30 4664 C 444.416 4.22067 -1.44137 0
M  V30 4665 C 445.117 4.65156 -3.49292 0
M  V30 4666 N 444.093 4.67895 -2.76722 0
M  V30 4667 H 447.895 2.27213 -1.86417 0
M  V30 4668 H 445.409 1.18927 -1.10589 0
M  V30 4669 H 447.406 4.15962 -0.279471 0
M  V30 4670 H 446.066 3.21879 0.427084 0
M  V30 4671 H 447.077 4.10061 -3.1634 0
M  V30 4672 H 443.754 4.1341 -0.582947 0
M  V30 4673 H 445.144 4.95231 -4.54088 0
M  V30 4674 N 447.864 1.01787 1.20321 0
M  V30 4675 C 448.827 0.593972 2.2137 0
M  V30 4676 C 449.827 -0.336553 1.57239 0
M  V30 4677 O 451.017 -0.125069 1.7375 0
M  V30 4678 C 448.149 -0.132433 3.40643 0
M  V30 4679 H 449.342 1.48791 2.60387 0
M  V30 4680 H 446.895 0.807803 1.33807 0
M  V30 4681 H 447.63 -1.04123 3.0713 0
M  V30 4682 H 447.415 0.53605 3.88418 0
M  V30 4683 H 448.905 -0.416314 4.1552 0
M  V30 4684 N 449.342 -1.36122 0.79427 0
M  V30 4685 C 450.59 -1.98718 0.368177 0
M  V30 4686 C 450.911 -1.63345 -1.06506 0
M  V30 4687 O 450.181 -0.909825 -1.73491 0
M  V30 4688 H 448.761 -0.735038 0.133146 0
M  V30 4689 H 451.423 -1.66239 1.01739 0
M  V30 4690 H 450.519 -3.08633 0.463923 0
M  V30 4691 N 450.82 -0.546701 -1.47814 0
M  V30 4692 C 452.068 -0.0187037 -2.02091 0
M  V30 4693 C 452.389 1.33168 -1.42447 0
M  V30 4694 O 451.659 1.86619 -0.595839 0
M  V30 4695 H 450.239 -0.00392531 -0.74699 0
M  V30 4696 H 452.901 -0.714327 -1.81338 0
M  V30 4697 H 451.997 0.0772219 -3.12004 0
M  V30 4698 N 452.299 1.55045 -0.282633 0
M  V30 4699 C 453.545 2.00056 0.332481 0
M  V30 4700 C 453.878 1.1708 1.54939 0
M  V30 4701 O 453.153 0.2427 1.9298 0
M  V30 4702 C 453.436 3.53086 0.70725 0
M  V30 4703 C 453.289 4.46813 -0.517521 0
M  V30 4704 C 454.608 4.12245 1.54084 0
M  V30 4705 H 451.727 0.727268 0.119373 0
M  V30 4706 H 454.369 1.85932 -0.391076 0
M  V30 4707 H 452.519 3.65253 1.32372 0
M  V30 4708 H 454.191 4.46579 -1.15607 0
M  V30 4709 H 452.434 4.18163 -1.1542 0
M  V30 4710 H 453.105 5.51595 -0.211426 0
M  V30 4711 H 455.581 4.03401 1.02013 0
M  V30 4712 H 454.457 5.19515 1.77186 0
M  V30 4713 H 454.718 3.62951 2.52427 0
M  V30 4714 N 453.777 0.010035 1.57597 0
M  V30 4715 C 455.005 -0.683413 1.95287 0
M  V30 4716 C 455.42 -1.66747 0.885481 0
M  V30 4717 O 454.777 -1.82003 -0.134629 0
M  V30 4718 C 454.828 -1.40652 3.33015 0
M  V30 4719 O 454.549 -0.461916 4.35658 0
M  V30 4720 C 456.05 -2.19356 3.85225 0
M  V30 4721 H 453.27 -0.189708 0.643624 0
M  V30 4722 H 455.814 0.0641359 2.04399 0
M  V30 4723 H 453.969 -2.10562 3.2518 0
M  V30 4724 H 454.383 -0.973215 5.15392 0
M  V30 4725 H 455.857 -2.65433 4.83993 0
M  V30 4726 H 456.334 -3.02457 3.18459 0
M  V30 4727 H 456.94 -1.54442 3.96267 0
M  V30 4728 N 455.255 -1.55392 -0.262866 0
M  V30 4729 C 456.503 -1.76127 -0.991147 0
M  V30 4730 C 456.824 -0.571083 -1.8645 0
M  V30 4731 O 456.094 0.413698 -1.91482 0
M  V30 4732 H 454.674 -0.649528 -0.368948 0
M  V30 4733 H 457.336 -1.9281 -0.284655 0
M  V30 4734 H 456.432 -2.6663 -1.62219 0
M  V30 4735 N 456.733 0.527833 -1.48498 0
M  V30 4736 C 457.981 1.28101 -1.56316 0
M  V30 4737 C 458.302 1.9352 -0.239781 0
M  V30 4738 O 457.572 1.81433 0.738849 0
M  V30 4739 H 456.152 0.475793 -0.575873 0
M  V30 4740 H 458.814 0.614052 -1.84974 0
M  V30 4741 H 457.91 2.05916 -2.34532 0
M  V30 4742 N 458.211 1.37122 0.776871 0
M  V30 4743 C 459.457 1.3325 1.53675 0
M  V30 4744 C 459.812 -0.0839891 1.92217 0
M  V30 4745 O 459.105 -1.04145 1.60824 0
M  V30 4746 C 459.299 2.20068 2.81611 0
M  V30 4747 C 459.128 3.70016 2.55574 0
M  V30 4748 C 457.898 4.39144 2.4996 0
M  V30 4749 C 460.096 4.62996 2.23917 0
M  V30 4750 N 458.078 5.74663 2.15953 0
M  V30 4751 C 459.449 5.86854 2.00005 0
M  V30 4752 C 461.504 4.51433 2.1003 0
M  V30 4753 C 460.207 7.00446 1.63609 0
M  V30 4754 C 462.233 5.64905 1.75033 0
M  V30 4755 C 461.595 6.8781 1.51977 0
M  V30 4756 H 457.694 0.542878 0.562856 0
M  V30 4757 H 460.278 1.72295 0.906784 0
M  V30 4758 H 458.449 1.83248 3.42454 0
M  V30 4759 H 460.181 2.07492 3.47461 0
M  V30 4760 H 456.936 3.92088 2.65639 0
M  V30 4761 H 457.36 6.46268 2.0166 0
M  V30 4762 H 462.002 3.56987 2.26539 0
M  V30 4763 H 459.72 7.94831 1.45837 0
M  V30 4764 H 463.306 5.57926 1.64952 0
M  V30 4765 H 462.186 7.74126 1.25296 0
M  V30 4766 N 459.689 -1.00246 1.21608 0
M  V30 4767 C 460.966 -1.71336 0.943568 0
M  V30 4768 C 461.346 -2.03972 -0.543943 0
M  V30 4769 O 460.694 -1.71545 -1.50946 0
M  V30 4770 C 460.904 -2.97094 1.83128 0
M  V30 4771 C 462.252 -3.70071 2.08165 0
M  V30 4772 O 463.276 -3.07081 1.80498 0
M  V30 4773 O 462.135 -4.83376 2.54971 0
M  V30 4774 H 459.229 -0.747386 0.354039 0
M  V30 4775 H 461.775 -1.05967 1.32549 0
M  V30 4776 H 460.547 -2.69407 2.83788 0
M  V30 4777 H 460.17 -3.70204 1.45034 0
M  V30 4778 N 461.167 -1.02423 -1.1978 0
M  V30 4779 C 462.115 -0.594474 -2.24875 0
M  V30 4780 C 463.109 0.370598 -1.65296 0
M  V30 4781 O 464.315 0.239684 -1.78397 0
M  V30 4782 H 460.69 -0.173961 -0.731602 0
M  V30 4783 H 462.661 -1.4916 -2.58445 0
M  V30 4784 C 461.41 0.0436512 -3.47673 0
M  V30 4785 H 460.733 -0.689963 -3.93801 0
M  V30 4786 H 462.173 0.307362 -4.22884 0
M  V30 4787 C 460.632 1.28881 -3.11274 0
M  V30 4788 O 461.162 2.38135 -3.23503 0
M  V30 4789 N 459.368 1.1758 -2.6575 0
M  V30 4790 H 458.915 0.286769 -2.55999 0
M  V30 4791 H 458.873 2.00988 -2.41767 0
M  V30 4792 N 462.645 1.35699 -0.801477 0
M  V30 4793 C 463.575 2.32436 -0.222658 0
M  V30 4794 C 464.556 1.5723 0.649057 0
M  V30 4795 O 465.741 1.85324 0.580387 0
M  V30 4796 C 462.871 3.41469 0.633719 0
M  V30 4797 C 461.825 4.27774 -0.139083 0
M  V30 4798 C 461.151 5.28082 0.838666 0
M  V30 4799 C 462.451 5.04946 -1.33517 0
M  V30 4800 H 464.145 2.81094 -1.03086 0
M  V30 4801 H 461.691 1.35146 -0.497155 0
M  V30 4802 H 463.644 4.08143 1.04868 0
M  V30 4803 H 462.368 2.91408 1.47475 0
M  V30 4804 H 461.027 3.62673 -0.535156 0
M  V30 4805 H 460.675 4.7429 1.67506 0
M  V30 4806 H 460.375 5.86695 0.32594 0
M  V30 4807 H 461.899 5.97628 1.25194 0
M  V30 4808 H 463.313 5.64593 -0.995349 0
M  V30 4809 H 461.71 5.7303 -1.78202 0
M  V30 4810 H 462.78 4.35886 -2.12442 0
M  V30 4811 N 464.123 0.554532 1.47522 0
M  V30 4812 C 465.053 -0.182974 2.32782 0
M  V30 4813 C 466.034 -0.911377 1.43624 0
M  V30 4814 O 467.219 -0.892366 1.72483 0
M  V30 4815 C 464.349 -1.21513 3.25349 0
M  V30 4816 C 463.303 -0.603355 4.23726 0
M  V30 4817 C 462.629 -1.73995 5.05598 0
M  V30 4818 C 463.929 0.441121 5.20434 0
M  V30 4819 H 465.623 0.52882 2.94693 0
M  V30 4820 H 463.169 0.255759 1.41711 0
M  V30 4821 H 465.122 -1.73922 3.83835 0
M  V30 4822 H 463.846 -1.95683 2.61487 0
M  V30 4823 H 462.505 -0.10059 3.66462 0
M  V30 4824 H 462.153 -2.47063 4.38143 0
M  V30 4825 H 461.853 -1.3364 5.72201 0
M  V30 4826 H 463.377 -2.26735 5.66942 0
M  V30 4827 H 464.791 0.00319931 5.733 0
M  V30 4828 H 463.188 0.763402 5.95224 0
M  V30 4829 H 464.258 1.33799 4.66075 0
M  V30 4830 N 465.601 -1.54893 0.290851 0
M  V30 4831 C 466.564 -2.21824 -0.576784 0
M  V30 4832 C 467.564 -1.20104 -1.06919 0
M  V30 4833 O 468.754 -1.44906 -0.966843 0
M  V30 4834 C 465.886 -2.89662 -1.79747 0
M  V30 4835 H 467.079 -2.99899 0.00784051 0
M  V30 4836 H 464.632 -1.56245 0.0415934 0
M  V30 4837 H 465.367 -2.15639 -2.42219 0
M  V30 4838 H 465.152 -3.64219 -1.45214 0
M  V30 4839 H 466.642 -3.4075 -2.4141 0
M  V30 4840 N 467.08 -0.0183926 -1.57589 0
M  V30 4841 C 468.326 0.663543 -1.91638 0
M  V30 4842 C 468.659 1.72392 -0.894134 0
M  V30 4843 O 467.934 1.94316 0.0846449 0
M  V30 4844 C 468.217 1.28984 -3.36207 0
M  V30 4845 C 468.07 0.239761 -4.49161 0
M  V30 4846 C 469.389 2.2109 -3.80536 0
M  V30 4847 H 466.508 0.239746 -0.696915 0
M  V30 4848 H 469.15 -0.073456 -1.89858 0
M  V30 4849 H 467.3 1.91799 -3.37854 0
M  V30 4850 H 468.972 -0.390119 -4.59647 0
M  V30 4851 H 467.215 -0.435972 -4.31604 0
M  V30 4852 H 467.886 0.717383 -5.47319 0
M  V30 4853 H 470.362 1.68273 -3.80557 0
M  V30 4854 H 469.238 2.61869 -4.82406 0
M  V30 4855 H 469.499 3.09764 -3.15434 0
M  V30 4856 N 468.558 1.5553 0.254621 0
M  V30 4857 C 469.807 1.76202 0.981612 0
M  V30 4858 C 470.12 0.580883 1.86776 0
M  V30 4859 O 471.326 0.670448 2.63092 0
M  V30 4860 C 469.782 3.11921 1.79537 0
M  V30 4861 C 469.39 4.37659 0.956991 0
M  V30 4862 C 471.134 3.41936 2.51555 0
M  V30 4863 C 469.041 5.64411 1.76619 0
M  V30 4864 H 467.971 0.656841 0.370237 0
M  V30 4865 H 470.622 1.81969 0.236556 0
M  V30 4866 H 469.004 3.00241 2.58208 0
M  V30 4867 H 470.178 4.60307 0.21315 0
M  V30 4868 H 468.493 4.14922 0.350497 0
M  V30 4869 H 471.09 4.33849 3.12536 0
M  V30 4870 H 471.433 2.62905 3.22779 0
M  V30 4871 H 471.966 3.54797 1.799 0
M  V30 4872 H 468.705 6.46241 1.09783 0
M  V30 4873 H 468.225 5.45877 2.48551 0
M  V30 4874 H 469.904 6.03386 2.33527 0
M  V30 4875 N 470.036 -0.519951 1.48776 0
M  V30 4876 C 471.447 -1.10177 1.50725 0
M  V30 4877 C 471.798 -1.94153 0.282678 0
M  V30 4878 O 470.923 -2.07645 -0.609298 0
M  V30 4879 C 471.518 -2.00482 2.73116 0
M  V30 4880 C 470.077 -2.53862 2.77905 0
M  V30 4881 C 469.224 -1.31047 2.44381 0
M  V30 4882 H 472.175 -0.30473 1.55747 0
M  V30 4883 H 472.196 -2.8491 2.52203 0
M  V30 4884 H 471.708 -1.39335 3.62225 0
M  V30 4885 H 469.809 -3.18702 1.93029 0
M  V30 4886 H 469.922 -2.9231 3.79594 0
M  V30 4887 H 468.286 -1.62953 1.95751 0
M  V30 4888 H 469.069 -0.71637 3.35743 0
M  V30 4889 N 471.514 -1.37532 -0.769588 0
M  V30 4890 C 472.762 -1.32597 -1.5252 0
M  V30 4891 C 473.083 0.0884294 -1.94799 0
M  V30 4892 O 472.353 1.03289 -1.66458 0
M  V30 4893 H 470.933 -0.487846 -0.565699 0
M  V30 4894 H 473.595 -1.72044 -0.915806 0
M  V30 4895 H 472.691 -1.96643 -2.42359 0
M  V30 4896 N 472.992 0.995999 -1.22138 0
M  V30 4897 C 474.24 1.73167 -1.042 0
M  V30 4898 C 474.561 1.90329 0.42423 0
M  V30 4899 O 473.831 1.4607 1.30539 0
M  V30 4900 H 472.411 0.641593 -0.38258 0
M  V30 4901 H 475.073 1.19974 -1.53598 0
M  V30 4902 H 474.169 2.72734 -1.51731 0
M  V30 4903 N 474.47 1.03057 1.19235 0
M  V30 4904 C 475.695 0.74757 1.93458 0
M  V30 4905 C 476.12 -0.687648 1.7508 0
M  V30 4906 O 475.478 -1.47499 1.05422 0
M  V30 4907 C 475.526 1.10604 3.43219 0
M  V30 4908 O 474.63 0.225671 4.11782 0
M  V30 4909 H 473.971 0.276047 0.603899 0
M  V30 4910 H 476.501 1.3777 1.51263 0
M  V30 4911 H 476.511 1.06366 3.93891 0
M  V30 4912 H 475.186 2.15165 3.55917 0
M  V30 4913 H 473.763 0.326795 3.71465 0
M  V30 4914 N 475.948 -1.35272 0.808662 0
M  V30 4915 C 477.173 -2.03477 0.401475 0
M  V30 4916 C 477.598 -1.60537 -0.980279 0
M  V30 4917 O 476.956 -0.78304 -1.63518 0
M  V30 4918 C 477.004 -3.57181 0.495354 0
M  V30 4919 O 476.108 -4.09474 -0.490397 0
M  V30 4920 H 475.449 -0.642561 0.167366 0
M  V30 4921 H 477.979 -1.72824 1.09512 0
M  V30 4922 H 477.989 -4.06356 0.365912 0
M  V30 4923 H 476.664 -3.87784 1.5032 0
M  V30 4924 H 475.241 -3.71516 -0.321023 0
M  V30 4925 N 477.426 -0.562348 -1.47226 0
M  V30 4926 C 478.654 -0.0452275 -2.06851 0
M  V30 4927 C 479.069 1.25078 -1.41424 0
M  V30 4928 O 478.426 1.75156 -0.512513 0
M  V30 4929 C 478.477 0.148674 -3.61194 0
M  V30 4930 O 478.198 -1.09602 -4.24169 0
M  V30 4931 C 479.699 0.702488 -4.37699 0
M  V30 4932 H 476.919 -0.0481775 -0.669268 0
M  V30 4933 H 479.463 -0.777223 -1.89155 0
M  V30 4934 H 477.618 0.830817 -3.78386 0
M  V30 4935 H 478.032 -0.896982 -5.16773 0
M  V30 4936 H 479.506 0.78743 -5.46355 0
M  V30 4937 H 479.983 1.71493 -4.04335 0
M  V30 4938 H 480.589 0.0558772 -4.25263 0
M  V30 4939 N 478.904 1.54736 -0.299062 0
M  V30 4940 C 480.315 1.8569 0.193971 0
M  V30 4941 C 480.666 1.22101 1.53577 0
M  V30 4942 O 479.791 0.51799 2.10109 0
M  V30 4943 C 480.386 3.36895 0.358733 0
M  V30 4944 C 478.945 3.67887 0.795986 0
M  V30 4945 C 478.092 2.77131 -0.096807 0
M  V30 4946 H 481.043 1.49934 -0.520134 0
M  V30 4947 H 481.064 3.61294 1.19361 0
M  V30 4948 H 480.576 3.83148 -0.617998 0
M  V30 4949 H 478.677 3.27151 1.78334 0
M  V30 4950 H 478.79 4.75114 0.616718 0
M  V30 4951 H 477.154 2.51153 0.423581 0
M  V30 4952 H 477.937 3.26204 -1.06986 0
M  V30 4953 N 480.382 0.0267497 1.57577 0
M  V30 4954 C 481.312 -0.954308 2.13108 0
M  V30 4955 C 482.293 -1.34088 1.04663 0
M  V30 4956 O 483.478 -1.41992 1.32484 0
M  V30 4957 C 480.608 -2.23744 2.65624 0
M  V30 4958 C 479.562 -1.99168 3.78835 0
M  V30 4959 C 478.888 -3.33726 4.17769 0
M  V30 4960 C 480.188 -1.33277 5.0501 0
M  V30 4961 H 481.882 -0.491848 2.95332 0
M  V30 4962 H 479.428 -0.23514 1.42067 0
M  V30 4963 H 481.381 -2.92754 3.03106 0
M  V30 4964 H 480.105 -2.72151 1.80558 0
M  V30 4965 H 478.764 -1.32577 3.41788 0
M  V30 4966 H 478.412 -3.79888 3.29688 0
M  V30 4967 H 478.112 -3.18089 4.94058 0
M  V30 4968 H 479.636 -4.04008 4.57832 0
M  V30 4969 H 481.05 -1.92283 5.40093 0
M  V30 4970 H 479.447 -1.28045 5.8628 0
M  V30 4971 H 480.517 -0.305411 4.83937 0
M  V30 4972 N 481.861 -1.55662 -0.24637 0
M  V30 4973 C 483.11 -1.7672 -0.972254 0
M  V30 4974 C 483.423 -0.59078 -1.86465 0
M  V30 4975 O 484.629 -0.684391 -2.62732 0
M  V30 4976 C 483.085 -3.12869 -1.7788 0
M  V30 4977 C 482.693 -4.38161 -0.933768 0
M  V30 4978 C 484.437 -3.43265 -2.49738 0
M  V30 4979 C 482.344 -5.6534 -1.73623 0
M  V30 4980 H 481.274 -0.658795 -0.366749 0
M  V30 4981 H 483.925 -1.82092 -0.226902 0
M  V30 4982 H 482.307 -3.01606 -2.56612 0
M  V30 4983 H 483.481 -4.60413 -0.188736 0
M  V30 4984 H 481.796 -4.15102 -0.328488 0
M  V30 4985 H 484.393 -4.35501 -3.10231 0
M  V30 4986 H 484.736 -2.64614 -3.2138 0
M  V30 4987 H 485.269 -3.55746 -1.78016 0
M  V30 4988 H 482.008 -6.46814 -1.06354 0
M  V30 4989 H 481.528 -5.47188 -2.45653 0
M  V30 4990 H 483.207 -6.04616 -2.30323 0
M  V30 4991 N 483.339 0.512053 -1.4905 0
M  V30 4992 C 484.75 1.09376 -1.51307 0
M  V30 4993 C 485.101 1.94 -0.292971 0
M  V30 4994 O 484.226 2.07965 0.598277 0
M  V30 4995 C 484.821 1.99031 -2.74176 0
M  V30 4996 C 483.38 2.52385 -2.79247 0
M  V30 4997 C 482.527 1.29749 -2.45073 0
M  V30 4998 H 485.478 0.296467 -1.55906 0
M  V30 4999 H 485.499 2.83569 -2.53711 0
M  V30 5000 H 485.011 1.37412 -3.62959 0
M  V30 5001 H 483.112 3.17673 -1.94716 0
M  V30 5002 H 483.225 2.90293 -3.81139 0
M  V30 5003 H 481.589 1.61912 -1.96612 0
M  V30 5004 H 482.372 0.698555 -3.36118 0
M  V30 5005 N 484.817 1.37938 0.762283 0
M  V30 5006 C 485.764 1.34467 1.87583 0
M  V30 5007 C 486.734 0.208633 1.64785 0
M  V30 5008 O 487.919 0.399494 1.86571 0
M  V30 5009 C 485.059 1.16692 3.24772 0
M  V30 5010 C 484.172 2.39608 3.59461 0
M  V30 5011 C 483.307 2.14631 4.85908 0
M  V30 5012 C 482.346 3.33364 5.13357 0
M  V30 5013 N 481.483 3.07877 6.30996 0
M  V30 5014 H 486.323 2.29669 1.89885 0
M  V30 5015 H 483.86 1.14116 0.928219 0
M  V30 5016 H 485.818 1.04405 4.03925 0
M  V30 5017 H 484.448 0.251333 3.2182 0
M  V30 5018 H 483.5 2.626 2.75219 0
M  V30 5019 H 484.812 3.28128 3.75678 0
M  V30 5020 H 483.966 1.99429 5.72986 0
M  V30 5021 H 482.705 1.23463 4.71814 0
M  V30 5022 H 481.71 3.49094 4.24751 0
M  V30 5023 H 482.935 4.25395 5.29354 0
M  V30 5024 H 480.881 2.19348 6.18241 0
M  V30 5025 H 480.798 3.89944 6.47673 0
M  V30 5026 H 482.066 2.96313 7.20985 0
M  V30 5027 N 486.295 -0.989507 1.22664 0
M  V30 5028 C 487.52 -1.77031 1.08051 0
M  V30 5029 C 487.945 -1.84535 -0.364483 0
M  V30 5030 O 487.303 -1.3003 -1.2634 0
M  V30 5031 C 487.351 -3.18 1.70024 0
M  V30 5032 O 486.455 -4.01161 0.956216 0
M  V30 5033 H 485.796 -0.545008 0.379292 0
M  V30 5034 H 488.326 -1.24277 1.62531 0
M  V30 5035 H 488.336 -3.68616 1.74888 0
M  V30 5036 H 487.011 -3.11853 2.75174 0
M  V30 5037 H 485.588 -3.59687 0.98384 0
M  V30 5038 N 487.773 -1.03688 -1.18687 0
M  V30 5039 C 489.019 -0.739123 -1.88851 0
M  V30 5040 C 489.352 0.731042 -1.79915 0
M  V30 5041 O 488.627 1.53313 -1.19688 0
M  V30 5042 C 488.91 -1.20106 -3.3948 0
M  V30 5043 C 488.763 -2.73304 -3.57246 0
M  V30 5044 C 490.082 -0.788134 -4.32986 0
M  V30 5045 H 487.201 -0.269978 -0.68577 0
M  V30 5046 H 489.843 -1.28822 -1.3966 0
M  V30 5047 H 487.993 -0.733915 -3.81505 0
M  V30 5048 H 489.665 -3.28027 -3.24339 0
M  V30 5049 H 487.908 -3.13313 -3.00029 0
M  V30 5050 H 488.579 -3.00684 -4.62918 0
M  V30 5051 H 491.055 -1.19005 -3.98719 0
M  V30 5052 H 489.931 -1.13915 -5.36949 0
M  V30 5053 H 490.192 0.308988 -4.41019 0
M  V30 5054 N 489.251 1.34841 -0.815825 0
M  V30 5055 C 490.491 2.00321 -0.406297 0
M  V30 5056 C 490.855 1.63293 1.00992 0
M  V30 5057 O 492.056 2.21563 1.52195 0
M  V30 5058 C 490.327 3.52421 -0.594469 0
M  V30 5059 S 491.886 4.37926 -0.276735 0
M  V30 5060 H 488.704 0.694155 -0.153848 0
M  V30 5061 H 491.306 1.64263 -1.06009 0
M  V30 5062 H 490.01 3.76858 -1.625 0
M  V30 5063 H 489.541 3.9333 0.0743157 0
M  V30 5064 H 491.556 4.87743 0.912215 0
M  V30 5065 N 490.729 0.570148 1.46925 0
M  V30 5066 C 491.639 -0.173061 2.33961 0
M  V30 5067 C 492.655 -0.898825 1.48987 0
M  V30 5068 O 493.831 -0.864825 1.81887 0
M  V30 5069 C 490.896 -1.18177 3.25937 0
M  V30 5070 C 489.957 -0.462041 4.26806 0
M  V30 5071 C 489.19 -1.4227 5.14388 0
M  V30 5072 O 489.413 -2.65842 5.04662 0
M  V30 5073 O 488.347 -0.940127 5.94513 0
M  V30 5074 H 492.173 0.541216 2.98839 0
M  V30 5075 H 489.758 0.330647 1.45695 0
M  V30 5076 H 491.64 -1.76372 3.82715 0
M  V30 5077 H 490.315 -1.87774 2.63671 0
M  V30 5078 H 489.222 0.161429 3.73752 0
M  V30 5079 H 490.555 0.192719 4.91823 0
M  V30 5080 N 492.207 -1.54576 0.307264 0
M  V30 5081 C 493.435 -2.04675 -0.302597 0
M  V30 5082 C 493.85 -1.18425 -1.47041 0
M  V30 5083 O 493.207 -0.211257 -1.81273 0
M  V30 5084 C 493.258 -3.53575 -0.752801 0
M  V30 5085 O 492.979 -4.36547 0.368536 0
M  V30 5086 C 494.48 -4.19699 -1.42717 0
M  V30 5087 H 491.7 -0.66786 -0.0648374 0
M  V30 5088 H 494.244 -1.99516 0.448716 0
M  V30 5089 H 492.399 -3.59074 -1.45412 0
M  V30 5090 H 492.813 -5.24497 0.0168937 0
M  V30 5091 H 494.287 -5.25388 -1.69327 0
M  V30 5092 H 494.764 -3.69815 -2.36925 0
M  V30 5093 H 495.37 -4.18293 -0.768856 0
M  V30 5094 N 493.685 -0.035106 -1.57561 0
M  V30 5095 C 494.931 0.64318 -1.92331 0
M  V30 5096 C 495.264 1.71434 -0.912368 0
M  V30 5097 O 494.539 1.94395 0.0640303 0
M  V30 5098 C 494.822 1.25411 -3.37556 0
M  V30 5099 C 494.675 0.192109 -4.4939 0
M  V30 5100 C 495.994 2.17041 -3.82859 0
M  V30 5101 H 493.113 0.232341 -0.699419 0
M  V30 5102 H 495.755 -0.0935889 -1.89769 0
M  V30 5103 H 493.905 1.88205 -3.39869 0
M  V30 5104 H 495.577 -0.438849 -4.59208 0
M  V30 5105 H 493.82 -0.481725 -4.31117 0
M  V30 5106 H 494.491 0.659292 -5.48049 0
M  V30 5107 H 496.967 1.64228 -3.8232 0
M  V30 5108 H 495.843 2.56738 -4.85157 0
M  V30 5109 H 496.104 3.06401 -3.18702 0
M  V30 5110 N 495.163 1.55791 0.238111 0
M  V30 5111 C 496.093 1.94068 1.29846 0
M  V30 5112 C 497.074 0.806726 1.49753 0
M  V30 5113 O 498.259 1.06772 1.62214 0
M  V30 5114 C 495.389 2.24302 2.65153 0
M  V30 5115 C 494.343 3.40032 2.59927 0
M  V30 5116 C 493.669 3.55829 3.99111 0
M  V30 5117 C 494.969 4.75476 2.16148 0
M  V30 5118 H 496.663 2.82887 0.980563 0
M  V30 5119 H 494.209 1.36105 0.470253 0
M  V30 5120 H 496.162 2.4967 3.39475 0
M  V30 5121 H 494.886 1.32318 2.98596 0
M  V30 5122 H 493.545 3.14687 1.88063 0
M  V30 5123 H 493.193 2.6125 4.29834 0
M  V30 5124 H 492.893 4.3366 3.96501 0
M  V30 5125 H 494.417 3.83528 4.7512 0
M  V30 5126 H 495.831 5.00158 2.80205 0
M  V30 5127 H 494.228 5.56472 2.24631 0
M  V30 5128 H 495.298 4.71946 1.11333 0
M  V30 5129 N 496.642 -0.504142 1.49319 0
M  V30 5130 C 497.575 -1.62361 1.60356 0
M  V30 5131 C 498.553 -1.56169 0.45277 0
M  V30 5132 O 499.737 -1.76271 0.667892 0
M  V30 5133 C 496.864 -3.00864 1.55559 0
M  V30 5134 C 495.91 -3.25328 2.75797 0
M  V30 5135 S 496.743 -3.08791 4.37503 0
M  V30 5136 C 497.899 -4.49695 4.35345 0
M  V30 5137 H 498.132 -1.52753 2.55056 0
M  V30 5138 H 495.665 -0.689065 1.38171 0
M  V30 5139 H 497.623 -3.8073 1.53477 0
M  V30 5140 H 496.284 -3.0789 0.621515 0
M  V30 5141 H 495.477 -4.2643 2.68651 0
M  V30 5142 H 495.079 -2.53179 2.75275 0
M  V30 5143 H 497.371 -5.41721 4.06871 0
M  V30 5144 H 498.314 -4.61891 5.36714 0
M  V30 5145 H 498.722 -4.30227 3.65465 0
M  V30 5146 N 498.12 -1.38341 -0.754957 0
M  V30 5147 C 499.397 -1.24995 -1.50451 0
M  V30 5148 C 499.777 0.149244 -2.10572 0
M  V30 5149 O 499.125 1.15861 -1.96948 0
M  V30 5150 C 499.335 -2.35904 -2.57197 0
M  V30 5151 C 500.683 -2.74262 -3.24138 0
M  V30 5152 O 501.707 -2.35205 -2.67501 0
M  V30 5153 O 500.566 -3.4161 -4.26574 0
M  V30 5154 H 497.66 -0.48872 -0.667144 0
M  V30 5155 H 500.206 -1.50165 -0.790486 0
M  V30 5156 H 498.978 -3.2953 -2.11011 0
M  V30 5157 H 498.601 -2.12291 -3.36182 0
M  V30 5158 N 499.598 0.982988 -1.23187 0
M  V30 5159 C 500.845 1.72392 -1.06241 0
M  V30 5160 C 501.173 1.9032 0.40108 0
M  V30 5161 O 500.428 1.45084 1.31336 0
M  V30 5162 C 500.727 3.12736 -1.73006 0
M  V30 5163 C 500.393 3.14695 -3.22921 0
M  V30 5164 C 499.055 3.14937 -3.63824 0
M  V30 5165 C 501.407 3.10211 -4.1883 0
M  V30 5166 C 498.735 3.08408 -4.99101 0
M  V30 5167 C 501.087 3.05224 -5.54095 0
M  V30 5168 C 499.751 3.03787 -5.94365 0
M  V30 5169 H 499.021 0.630829 -0.388762 0
M  V30 5170 H 501.668 1.15053 -1.53085 0
M  V30 5171 H 499.973 3.73446 -1.18514 0
M  V30 5172 H 501.67 3.68828 -1.57374 0
M  V30 5173 H 498.26 3.15262 -2.90358 0
M  V30 5174 H 502.444 3.09166 -3.8824 0
M  V30 5175 H 497.7 3.05646 -5.29519 0
M  V30 5176 H 501.874 3.00712 -6.28128 0
M  V30 5177 H 499.501 2.98483 -6.99151 0
M  V30 5178 N 501.076 1.04316 1.18135 0
M  V30 5179 C 502.353 0.662166 1.84051 0
M  V30 5180 C 502.733 -0.858169 1.9287 0
M  V30 5181 O 502.081 -1.76062 1.45652 0
M  V30 5182 C 502.291 1.3409 3.22212 0
M  V30 5183 C 503.639 1.4733 3.9822 0
M  V30 5184 O 504.663 1.29921 3.31661 0
M  V30 5185 O 503.522 1.75722 5.17479 0
M  V30 5186 H 500.616 0.232005 0.79379 0
M  V30 5187 H 503.162 1.1422 1.25506 0
M  V30 5188 H 501.934 2.37853 3.10711 0
M  V30 5189 H 501.557 0.849649 3.88416 0
M  V30 5190 N 502.554 -1.34406 0.822964 0
M  V30 5191 C 503.517 -2.2783 0.250271 0
M  V30 5192 C 504.517 -1.50288 -0.571854 0
M  V30 5193 O 505.707 -1.69825 -0.387952 0
M  V30 5194 C 502.839 -3.34663 -0.649137 0
M  V30 5195 H 504.032 -2.79992 1.07444 0
M  V30 5196 H 501.585 -1.44539 0.594829 0
M  V30 5197 H 502.32 -2.87714 -1.49637 0
M  V30 5198 H 502.105 -3.92052 -0.0611199 0
M  V30 5199 H 503.595 -4.04349 -1.04363 0
M  V30 5200 N 504.032 -0.577932 -1.46621 0
M  V30 5201 C 504.962 0.145917 -2.33044 0
M  V30 5202 C 505.943 0.888412 -1.45056 0
M  V30 5203 O 507.128 0.864812 -1.73881 0
M  V30 5204 C 504.258 1.16322 -3.27241 0
M  V30 5205 C 503.212 0.535868 -4.24632 0
M  V30 5206 C 502.538 1.65929 -5.08303 0
M  V30 5207 C 503.838 -0.523861 -5.19666 0
M  V30 5208 H 505.532 -0.575636 -2.93814 0
M  V30 5209 H 503.078 -0.278272 -1.41286 0
M  V30 5210 H 505.031 1.67793 -3.86553 0
M  V30 5211 H 503.755 1.91498 -2.64567 0
M  V30 5212 H 502.414 0.0422759 -3.66576 0
M  V30 5213 H 502.062 2.40061 -4.42018 0
M  V30 5214 H 501.762 1.2452 -5.74255 0
M  V30 5215 H 503.286 2.17686 -5.70478 0
M  V30 5216 H 504.7 -0.0944059 -5.73222 0
M  V30 5217 H 503.097 -0.858 -5.93935 0
M  V30 5218 H 504.167 -1.41197 -4.63887 0
M  V30 5219 N 505.51 1.54411 -0.315457 0
M  V30 5220 C 506.756 2.00716 0.289972 0
M  V30 5221 C 507.089 1.2034 1.5242 0
M  V30 5222 O 506.364 0.283579 1.92422 0
M  V30 5223 C 506.647 3.54507 0.632196 0
M  V30 5224 C 506.5 4.45615 -0.61218 0
M  V30 5225 C 507.819 4.15421 1.45305 0
M  V30 5226 H 504.938 0.729637 0.10392 0
M  V30 5227 H 507.58 1.8506 -0.430427 0
M  V30 5228 H 505.73 3.67979 1.24595 0
M  V30 5229 H 507.402 4.44026 -1.25053 0
M  V30 5230 H 505.645 4.15621 -1.24264 0
M  V30 5231 H 506.316 5.51022 -0.328379 0
M  V30 5232 H 508.792 4.05474 0.934331 0
M  V30 5233 H 507.668 5.23157 1.66127 0
M  V30 5234 H 507.929 3.68223 2.44671 0
M  V30 5235 N 506.988 0.0434614 1.5754 0
M  V30 5236 C 507.92 -0.962586 2.08007 0
M  V30 5237 C 508.933 -1.27972 1.00634 0
M  V30 5238 O 510.122 -1.24186 1.28219 0
M  V30 5239 C 507.222 -2.28621 2.50171 0
M  V30 5240 C 506.395 -2.15214 3.80791 0
M  V30 5241 C 505.454 -3.30633 4.09351 0
M  V30 5242 O 504.48 -3.0688 4.79388 0
M  V30 5243 N 505.682 -4.54873 3.60654 0
M  V30 5244 H 508.447 -0.531891 2.94942 0
M  V30 5245 H 506.008 -0.142965 1.61268 0
M  V30 5246 H 508 -3.04689 2.66359 0
M  V30 5247 H 506.57 -2.63283 1.68525 0
M  V30 5248 H 505.79 -1.23785 3.74261 0
M  V30 5249 H 507.078 -2.03475 4.66343 0
M  V30 5250 H 506.476 -4.77063 3.04019 0
M  V30 5251 H 505.033 -5.2806 3.82094 0
M  V30 5252 N 508.466 -1.55915 -0.229846 0
M  V30 5253 C 509.429 -1.90914 -1.26824 0
M  V30 5254 C 510.429 -0.786999 -1.40225 0
M  V30 5255 O 511.619 -1.05484 -1.38632 0
M  V30 5256 C 508.751 -2.15264 -2.64337 0
M  V30 5257 H 509.944 -2.8378 -0.969998 0
M  V30 5258 H 507.497 -1.49069 -0.4699 0
M  V30 5259 H 508.232 -1.24923 -2.99274 0
M  V30 5260 H 508.017 -2.97005 -2.55989 0
M  V30 5261 H 509.507 -2.43467 -3.39284 0
M  V30 5262 N 509.944 0.496216 -1.49584 0
M  V30 5263 C 510.876 1.61404 -1.62731 0
M  V30 5264 C 511.889 1.54613 -0.50978 0
M  V30 5265 O 513.078 1.60458 -0.782017 0
M  V30 5266 C 510.178 3.00212 -1.57245 0
M  V30 5267 C 509.351 3.32138 -2.84611 0
M  V30 5268 C 508.41 4.5038 -2.72112 0
M  V30 5269 O 507.436 4.51926 -3.46051 0
M  V30 5270 N 508.638 5.50575 -1.83977 0
M  V30 5271 H 511.403 1.50552 -2.59141 0
M  V30 5272 H 508.964 0.684182 -1.46733 0
M  V30 5273 H 510.956 3.77241 -1.4653 0
M  V30 5274 H 509.526 3.04964 -0.686729 0
M  V30 5275 H 508.746 2.4396 -3.09641 0
M  V30 5276 H 510.034 3.50268 -3.69039 0
M  V30 5277 H 509.432 5.52128 -1.23171 0
M  V30 5278 H 507.989 6.26687 -1.79182 0
M  V30 5279 N 511.423 1.38739 0.74761 0
M  V30 5280 C 512.651 1.38521 1.53686 0
M  V30 5281 C 513.066 -0.0235129 1.88785 0
M  V30 5282 O 512.423 -0.991662 1.53207 0
M  V30 5283 C 512.474 2.24641 2.83229 0
M  V30 5284 O 512.195 3.60026 2.49625 0
M  V30 5285 C 513.696 2.32669 3.77333 0
M  V30 5286 H 510.916 0.473589 0.475347 0
M  V30 5287 H 513.46 1.82395 0.924786 0
M  V30 5288 H 511.615 1.84213 3.40799 0
M  V30 5289 H 512.029 4.05435 3.3275 0
M  V30 5290 H 513.503 2.97201 4.65162 0
M  V30 5291 H 513.98 1.3421 4.18192 0
M  V30 5292 H 514.586 2.73512 3.25685 0
M  V30 5293 N 512.901 -0.976442 1.23707 0
M  V30 5294 C 514.149 -1.71487 1.06942 0
M  V30 5295 C 514.47 -1.9098 -0.393897 0
M  V30 5296 O 513.74 -1.48128 -1.28198 0
M  V30 5297 H 512.32 -0.635425 0.392739 0
M  V30 5298 H 514.982 -1.17515 1.55487 0
M  V30 5299 H 514.078 -2.70286 1.56051 0
M  V30 5300 N 514.379 -1.04941 -1.1758 0
M  V30 5301 C 515.309 -0.669172 -2.23706 0
M  V30 5302 C 516.29 0.331835 -1.66832 0
M  V30 5303 O 517.475 0.209988 -1.93061 0
M  V30 5304 C 514.605 -0.0404889 -3.47276 0
M  V30 5305 C 513.559 -0.965983 -4.16957 0
M  V30 5306 C 512.885 -0.201312 -5.34321 0
M  V30 5307 C 514.185 -2.28902 -4.69469 0
M  V30 5308 H 515.879 -1.55639 -2.55767 0
M  V30 5309 H 513.425 -0.749793 -1.22939 0
M  V30 5310 H 515.378 0.237298 -4.20731 0
M  V30 5311 H 514.102 0.881658 -3.14475 0
M  V30 5312 H 512.761 -1.22829 -3.45411 0
M  V30 5313 H 512.409 0.723519 -4.97769 0
M  V30 5314 H 512.109 -0.817968 -5.81879 0
M  V30 5315 H 513.633 0.0692499 -6.10561 0
M  V30 5316 H 515.047 -2.07132 -5.34574 0
M  V30 5317 H 513.444 -2.85942 -5.27596 0
M  V30 5318 H 514.514 -2.92937 -3.86414 0
M  V30 5319 N 515.857 1.33968 -0.830081 0
M  V30 5320 C 517.105 1.97672 -0.420734 0
M  V30 5321 C 517.426 1.66111 1.02138 0
M  V30 5322 O 516.696 0.955503 1.71017 0
M  V30 5323 H 515.276 0.73125 -0.152587 0
M  V30 5324 H 517.938 1.63483 -1.0611 0
M  V30 5325 H 517.034 3.07294 -0.545588 0
M  V30 5326 N 517.335 0.585699 1.46312 0
M  V30 5327 C 518.563 0.0781299 2.06752 0
M  V30 5328 C 518.978 -1.22812 1.43396 0
M  V30 5329 O 518.335 -1.74318 0.540314 0
M  V30 5330 C 518.386 -0.0911927 3.61385 0
M  V30 5331 O 518.107 1.16336 4.22371 0
M  V30 5332 C 519.608 -0.632765 4.38761 0
M  V30 5333 H 516.828 0.0588188 0.668417 0
M  V30 5334 H 519.372 0.807218 1.87894 0
M  V30 5335 H 517.527 -0.770514 3.7966 0
M  V30 5336 H 517.941 0.979082 5.15281 0
M  V30 5337 H 519.415 -0.70041 5.47538 0
M  V30 5338 H 519.892 -1.65039 4.07012 0
M  V30 5339 H 520.498 0.0117856 4.25298 0
M  V30 5340 N 518.813 -1.54241 0.323641 0
M  V30 5341 C 519.776 -2.22997 -0.529602 0
M  V30 5342 C 520.776 -1.22345 -1.04347 0
M  V30 5343 O 521.966 -1.46924 -0.935889 0
M  V30 5344 C 519.098 -2.93409 -1.73562 0
M  V30 5345 H 520.291 -2.99815 0.0714518 0
M  V30 5346 H 517.844 -1.56121 0.0747258 0
M  V30 5347 H 518.579 -2.20729 -2.37591 0
M  V30 5348 H 518.364 -3.67217 -1.37456 0
M  V30 5349 H 519.854 -3.45794 -2.34128 0
M  V30 5350 N 520.291 -0.0518155 -1.57515 0
M  V30 5351 C 521.254 0.907547 -2.10467 0
M  V30 5352 C 522.254 1.23947 -1.02439 0
M  V30 5353 O 523.444 1.17604 -1.2851 0
M  V30 5354 C 520.576 2.21723 -2.58944 0
M  V30 5355 H 521.769 0.44851 -2.96527 0
M  V30 5356 H 519.322 0.196598 -1.55059 0
M  V30 5357 H 520.057 2.72206 -1.76279 0
M  V30 5358 H 519.842 1.98935 -3.37886 0
M  V30 5359 H 521.332 2.90441 -3.00056 0
M  V30 5360 N 521.769 1.56035 0.221574 0
M  V30 5361 C 523.015 1.79312 0.947372 0
M  V30 5362 C 523.348 0.621453 1.83988 0
M  V30 5363 O 522.623 -0.379287 1.90766 0
M  V30 5364 C 522.906 3.1267 1.78633 0
M  V30 5365 C 522.759 4.40284 0.920312 0
M  V30 5366 C 524.078 3.4247 2.7641 0
M  V30 5367 H 521.197 0.652328 0.342982 0
M  V30 5368 H 523.839 1.88765 0.216244 0
M  V30 5369 H 521.989 3.04741 2.40967 0
M  V30 5370 H 523.661 4.60232 0.313718 0
M  V30 5371 H 521.904 4.33212 0.225734 0
M  V30 5372 H 522.575 5.30033 1.54171 0
M  V30 5373 H 525.051 3.50526 2.24211 0
M  V30 5374 H 523.927 4.3695 3.32213 0
M  V30 5375 H 524.188 2.64635 3.54148 0
M  V30 5376 N 523.247 -0.488276 1.49845 0
M  V30 5377 C 524.496 -1.23826 1.59217 0
M  V30 5378 C 524.809 -1.93439 0.289966 0
M  V30 5379 O 526.015 -2.70229 0.262382 0
M  V30 5380 C 524.471 -2.24902 2.80976 0
M  V30 5381 C 524.079 -1.6117 4.18005 0
M  V30 5382 C 525.823 -3.00648 2.99685 0
M  V30 5383 C 523.73 -2.60431 5.3097 0
M  V30 5384 H 522.66 -0.465858 0.592868 0
M  V30 5385 H 525.311 -0.510645 1.76252 0
M  V30 5386 H 523.693 -3.0088 2.57463 0
M  V30 5387 H 524.867 -0.910968 4.51706 0
M  V30 5388 H 523.182 -0.97767 4.0476 0
M  V30 5389 H 525.779 -3.74903 3.81251 0
M  V30 5390 H 526.122 -3.5902 2.10738 0
M  V30 5391 H 526.655 -2.31784 3.23297 0
M  V30 5392 H 523.394 -2.06823 6.22017 0
M  V30 5393 H 522.914 -3.28707 5.01709 0
M  V30 5394 H 524.593 -3.22606 5.60834 0
M  V30 5395 N 524.725 -1.39134 -0.740242 0
M  V30 5396 C 525.971 -1.36273 -1.50192 0
M  V30 5397 C 526.304 0.0430136 -1.94152 0
M  V30 5398 O 525.579 1.00691 -1.66408 0
M  V30 5399 C 525.862 -2.33041 -2.74525 0
M  V30 5400 C 525.715 -3.82535 -2.36617 0
M  V30 5401 C 527.034 -2.27723 -3.76604 0
M  V30 5402 H 524.153 -0.496323 -0.544823 0
M  V30 5403 H 526.795 -1.70085 -0.846815 0
M  V30 5404 H 524.945 -2.04337 -3.30422 0
M  V30 5405 H 526.617 -4.21967 -1.86391 0
M  V30 5406 H 524.86 -3.99565 -1.68909 0
M  V30 5407 H 525.531 -4.45723 -3.2563 0
M  V30 5408 H 528.007 -2.53091 -3.30279 0
M  V30 5409 H 526.883 -2.97519 -4.61274 0
M  V30 5410 H 527.144 -1.28049 -4.2315 0
M  V30 5411 N 526.204 0.969867 -1.24223 0
M  V30 5412 C 527.137 2.06279 -0.975926 0
M  V30 5413 C 528.115 1.62353 0.0895385 0
M  V30 5414 O 529.299 1.88442 -0.0469418 0
M  V30 5415 C 526.426 3.35391 -0.472315 0
M  V30 5416 C 525.472 3.98266 -1.526 0
M  V30 5417 S 526.305 4.36172 -3.10667 0
M  V30 5418 C 527.461 5.68423 -2.62003 0
M  V30 5419 H 527.694 2.28551 -1.90137 0
M  V30 5420 H 525.227 1.10748 -1.07584 0
M  V30 5421 H 527.185 4.10068 -0.188376 0
M  V30 5422 H 525.846 3.1111 0.432378 0
M  V30 5423 H 525.039 4.91307 -1.12399 0
M  V30 5424 H 524.641 3.30009 -1.75983 0
M  V30 5425 H 526.933 6.45842 -2.0468 0
M  V30 5426 H 527.876 6.13478 -3.53625 0
M  V30 5427 H 528.284 5.26928 -2.02502 0
M  V30 5428 N 527.682 1.05563 1.17022 0
M  V30 5429 C 528.959 0.68165 1.83338 0
M  V30 5430 C 529.339 -0.837665 1.93769 0
M  V30 5431 O 528.687 -1.74507 1.47511 0
M  V30 5432 C 528.897 1.375 3.20772 0
M  V30 5433 C 530.245 1.51545 3.96635 0
M  V30 5434 O 531.269 1.33431 3.30264 0
M  V30 5435 O 530.128 1.812 5.15586 0
M  V30 5436 H 527.222 0.240412 0.791285 0
M  V30 5437 H 529.768 1.15545 1.24288 0
M  V30 5438 H 528.54 2.41135 3.08171 0
M  V30 5439 H 528.163 0.890798 3.87493 0
M  V30 5440 N 529.16 -1.33526 0.837174 0
M  V30 5441 C 530.576 -1.50727 0.524743 0
M  V30 5442 C 530.776 -1.77792 -0.948279 0
M  V30 5443 O 529.832 -1.83719 -1.73216 0
M  V30 5444 C 531.145 -2.66299 1.39661 0
M  V30 5445 C 532.693 -2.80183 1.39521 0
M  V30 5446 C 533.168 -3.98815 2.25189 0
M  V30 5447 N 534.659 -4.06047 2.2289 0
M  V30 5448 C 535.394 -4.97032 2.85915 0
M  V30 5449 N 534.89 -5.93143 3.57985 0
M  V30 5450 N 536.683 -4.90015 2.75394 0
M  V30 5451 H 528.834 -1.1422 1.79074 0
M  V30 5452 H 531.097 -0.561399 0.763894 0
M  V30 5453 H 530.803 -2.52974 2.4433 0
M  V30 5454 H 530.677 -3.61663 1.07145 0
M  V30 5455 H 533.064 -2.92942 0.356253 0
M  V30 5456 H 533.145 -1.85586 1.76044 0
M  V30 5457 H 532.789 -3.86817 3.29143 0
M  V30 5458 H 532.719 -4.92654 1.86009 0
M  V30 5459 H 535.21 -3.37262 1.70478 0
M  V30 5460 H 535.523 -6.59227 4.03286 0
M  V30 5461 H 533.868 -5.93223 3.62093 0
M  V30 5462 H 537.059 -4.13894 2.18654 0
M  V30 5463 H 537.232 -5.60724 3.24796 0
M  V30 5464 N 530.638 -0.59345 -1.46 0
M  V30 5465 C 531.863 -0.0872365 -2.07216 0
M  V30 5466 C 532.288 1.2131 -1.43755 0
M  V30 5467 O 531.646 1.73528 -0.525152 0
M  V30 5468 C 531.694 0.0538197 -3.6056 0
M  V30 5469 O 530.798 1.10765 -3.97247 0
M  V30 5470 H 530.139 -0.0676598 -0.660544 0
M  V30 5471 H 532.669 -0.819445 -1.87473 0
M  V30 5472 H 532.679 0.256567 -4.07193 0
M  V30 5473 H 531.354 -0.895739 -4.0614 0
M  V30 5474 H 529.931 0.882501 -3.62307 0
M  V30 5475 N 532.116 1.54067 -0.331816 0
M  V30 5476 C 533.344 2.05131 0.269996 0
M  V30 5477 C 533.759 1.20749 1.45138 0
M  V30 5478 O 533.116 0.240069 1.80914 0
M  V30 5479 C 533.167 3.54728 0.696456 0
M  V30 5480 O 532.888 4.35906 -0.43794 0
M  V30 5481 C 534.389 4.21916 1.36021 0
M  V30 5482 H 531.609 0.668807 0.0542042 0
M  V30 5483 H 534.153 1.98777 -0.4804 0
M  V30 5484 H 532.308 3.61342 1.39681 0
M  V30 5485 H 532.722 5.24404 -0.100334 0
M  V30 5486 H 534.196 5.28015 1.60947 0
M  V30 5487 H 534.673 3.73538 2.31011 0
M  V30 5488 H 535.279 4.19463 0.702212 0
M  V30 5489 N 533.594 0.0601682 1.57485 0
M  V30 5490 C 534.871 -0.651956 1.84415 0
M  V30 5491 C 535.251 -1.88498 0.950361 0
M  V30 5492 O 534.599 -2.28496 0.0136719 0
M  V30 5493 C 534.809 -1.00069 3.34346 0
M  V30 5494 C 536.157 -1.37915 4.01578 0
M  V30 5495 O 537.181 -1.09277 3.39024 0
M  V30 5496 O 536.04 -1.91399 5.11887 0
M  V30 5497 H 533.134 -0.322668 0.761455 0
M  V30 5498 H 535.68 0.0902159 1.6946 0
M  V30 5499 H 534.452 -0.124463 3.91102 0
M  V30 5500 H 534.075 -1.80001 3.54521 0
M  V30 5501 N 535.072 -1.5615 -0.213296 0
M  V30 5502 C 536.321 -1.78743 -0.93455 0
M  V30 5503 C 536.634 -0.630199 -1.8517 0
M  V30 5504 O 537.84 -0.739966 -2.61222 0
M  V30 5505 C 536.296 -3.16571 -1.71203 0
M  V30 5506 C 535.904 -4.40043 -0.840617 0
M  V30 5507 C 537.648 -3.48485 -2.42401 0
M  V30 5508 C 535.555 -5.68895 -1.61592 0
M  V30 5509 H 534.485 -0.666426 -0.352692 0
M  V30 5510 H 537.136 -1.82532 -0.188227 0
M  V30 5511 H 535.518 -3.06981 -2.50157 0
M  V30 5512 H 536.692 -4.6071 -0.0910326 0
M  V30 5513 H 535.007 -4.15706 -0.240365 0
M  V30 5514 H 537.604 -4.41983 -3.00924 0
M  V30 5515 H 537.947 -2.71371 -3.15695 0
M  V30 5516 H 538.48 -3.59442 -1.7043 0
M  V30 5517 H 535.219 -6.48925 -0.926106 0
M  V30 5518 H 534.739 -5.52275 -2.33991 0
M  V30 5519 H 536.418 -6.09365 -2.17447 0
M  V30 5520 N 536.55 0.480323 -1.50102 0
M  V30 5521 C 537.796 1.23489 -1.60867 0
M  V30 5522 C 538.129 1.91809 -0.303827 0
M  V30 5523 O 537.404 1.81694 0.694092 0
M  V30 5524 C 537.687 2.28578 -2.78252 0
M  V30 5525 C 537.54 1.64624 -4.18592 0
M  V30 5526 C 538.859 3.2997 -2.91218 0
M  V30 5527 H 535.978 0.447605 -0.585507 0
M  V30 5528 H 538.62 0.530005 -1.82458 0
M  V30 5529 H 536.77 2.88697 -2.59974 0
M  V30 5530 H 538.442 1.08173 -4.48438 0
M  V30 5531 H 536.685 0.949645 -4.23278 0
M  V30 5532 H 537.356 2.40946 -4.96638 0
M  V30 5533 H 539.832 2.79864 -3.07921 0
M  V30 5534 H 538.708 4.00839 -3.74993 0
M  V30 5535 H 538.969 3.93541 -2.0144 0
M  V30 5536 N 538.028 1.39524 0.732853 0
M  V30 5537 C 538.975 1.38416 1.84688 0
M  V30 5538 C 539.945 0.243539 1.64305 0
M  V30 5539 O 541.13 0.438979 1.85681 0
M  V30 5540 C 538.27 1.23555 3.22224 0
M  V30 5541 C 537.383 2.47179 3.54298 0
M  V30 5542 C 536.518 2.2489 4.81246 0
M  V30 5543 C 535.557 3.44178 5.0617 0
M  V30 5544 N 534.694 3.21192 6.24323 0
M  V30 5545 H 539.534 2.33645 1.84971 0
M  V30 5546 H 537.071 1.16059 0.903804 0
M  V30 5547 H 539.029 1.12949 4.0162 0
M  V30 5548 H 537.659 0.31954 3.21215 0
M  V30 5549 H 536.711 2.68379 2.69587 0
M  V30 5550 H 538.023 3.36022 3.68633 0
M  V30 5551 H 537.177 2.11538 5.68627 0
M  V30 5552 H 535.916 1.33443 4.69089 0
M  V30 5553 H 534.921 3.58025 4.17251 0
M  V30 5554 H 536.146 4.36528 5.20212 0
M  V30 5555 H 534.092 2.32413 6.1345 0
M  V30 5556 H 534.009 4.03594 6.39256 0
M  V30 5557 H 535.277 3.1154 7.14537 0
M  V30 5558 N 539.506 -0.963266 1.24736 0
M  V30 5559 C 540.469 -2.04013 1.04457 0
M  V30 5560 C 541.469 -1.608 0.000335555 0
M  V30 5561 O 542.659 -1.72515 0.241719 0
M  V30 5562 C 539.791 -3.35858 0.584162 0
M  V30 5563 H 540.984 -2.23436 2.00041 0
M  V30 5564 H 538.537 -1.13914 1.07021 0
M  V30 5565 H 539.272 -3.22128 -0.374673 0
M  V30 5566 H 539.057 -3.68568 1.3379 0
M  V30 5567 H 540.547 -4.1502 0.463451 0
M  V30 5568 N 540.985 -1.06182 -1.16461 0
M  V30 5569 C 542.234 -0.772927 -1.86303 0
M  V30 5570 C 542.547 0.703187 -1.82523 0
M  V30 5571 O 543.753 1.10641 -2.47933 0
M  V30 5572 C 542.209 -1.33249 -3.34324 0
M  V30 5573 C 541.817 -2.83876 -3.46581 0
M  V30 5574 C 543.561 -1.12108 -4.09429 0
M  V30 5575 C 541.468 -3.33082 -4.88682 0
M  V30 5576 H 540.398 -0.285452 -0.697878 0
M  V30 5577 H 543.049 -1.28039 -1.31447 0
M  V30 5578 H 541.431 -0.7528 -3.88779 0
M  V30 5579 H 542.605 -3.47786 -3.02293 0
M  V30 5580 H 540.92 -3.03671 -2.84909 0
M  V30 5581 H 543.517 -1.46361 -5.14279 0
M  V30 5582 H 543.86 -0.0593832 -4.16258 0
M  V30 5583 H 544.393 -1.6665 -3.6121 0
M  V30 5584 H 541.132 -4.38726 -4.87032 0
M  V30 5585 H 540.652 -2.73919 -5.33599 0
M  V30 5586 H 542.331 -3.28344 -5.57494 0
M  V30 5587 N 542.463 1.3308 -0.844243 0
M  V30 5588 C 543.426 2.27403 -0.286485 0
M  V30 5589 C 544.426 1.51179 0.547872 0
M  V30 5590 O 545.616 1.70421 0.360886 0
M  V30 5591 C 542.748 3.35653 0.595813 0
M  V30 5592 H 543.941 2.78248 -1.11885 0
M  V30 5593 H 541.494 1.43574 -0.617749 0
M  V30 5594 H 542.229 2.90058 1.4504 0
M  V30 5595 H 542.014 3.921 -0.00125994 0
M  V30 5596 H 543.504 4.05958 0.979168 0
M  V30 5597 N 543.941 0.601185 1.45683 0
M  V30 5598 C 545.357 0.264315 1.57396 0
M  V30 5599 C 545.557 -1.23324 1.59353 0
M  V30 5600 O 544.613 -2.01594 1.52039 0
M  V30 5601 C 545.926 0.929839 2.85962 0
M  V30 5602 C 547.474 0.905156 2.99626 0
M  V30 5603 C 547.949 1.55057 4.30954 0
M  V30 5604 N 549.44 1.51576 4.37697 0
M  V30 5605 C 550.175 1.98436 5.37969 0
M  V30 5606 N 549.671 2.53352 6.44813 0
M  V30 5607 N 551.464 1.89242 5.29286 0
M  V30 5608 H 543.615 1.57363 1.42656 0
M  V30 5609 H 545.878 0.658831 0.681649 0
M  V30 5610 H 545.584 1.98404 2.90394 0
M  V30 5611 H 545.458 0.449224 3.74515 0
M  V30 5612 H 547.845 -0.14048 2.94765 0
M  V30 5613 H 547.926 1.42397 2.12501 0
M  V30 5614 H 547.57 2.5955 4.36573 0
M  V30 5615 H 547.5 1.00682 5.16886 0
M  V30 5616 H 549.991 1.11452 3.61091 0
M  V30 5617 H 550.304 2.86918 7.17564 0
M  V30 5618 H 548.649 2.57388 6.45582 0
M  V30 5619 H 551.84 1.46083 4.44722 0
M  V30 5620 H 552.013 2.26075 6.07284 0
M  V30 5621 N 545.419 -1.53889 0.339982 0
M  V30 5622 C 546.349 -2.27843 -0.510856 0
M  V30 5623 C 547.33 -1.29267 -1.10563 0
M  V30 5624 O 548.515 -1.58104 -1.12768 0
M  V30 5625 C 545.645 -3.04857 -1.66372 0
M  V30 5626 C 544.599 -4.10907 -1.19746 0
M  V30 5627 C 543.925 -4.75855 -2.43857 0
M  V30 5628 C 545.225 -5.21435 -0.300501 0
M  V30 5629 H 546.919 -2.99212 0.106067 0
M  V30 5630 H 544.465 -1.43904 0.0524533 0
M  V30 5631 H 546.418 -3.5533 -2.26537 0
M  V30 5632 H 545.142 -2.31133 -2.30749 0
M  V30 5633 H 543.801 -3.61342 -0.618654 0
M  V30 5634 H 543.449 -3.9873 -3.06633 0
M  V30 5635 H 543.149 -5.47502 -2.13343 0
M  V30 5636 H 544.673 -5.2911 -3.04754 0
M  V30 5637 H 546.087 -5.67565 -0.80889 0
M  V30 5638 H 544.484 -6.00036 -0.0874076 0
M  V30 5639 H 545.554 -4.80328 0.664321 0
M  V30 5640 N 546.897 -0.0685191 -1.57451 0
M  V30 5641 C 548.146 0.600898 -1.92541 0
M  V30 5642 C 548.459 1.70967 -0.950239 0
M  V30 5643 O 549.665 2.43844 -1.19384 0
M  V30 5644 C 548.121 1.12019 -3.42023 0
M  V30 5645 C 547.729 0.0426028 -4.4798 0
M  V30 5646 C 549.473 1.76386 -3.86119 0
M  V30 5647 C 547.38 0.575759 -5.88591 0
M  V30 5648 H 546.31 0.228225 -0.71863 0
M  V30 5649 H 548.961 -0.140223 -1.82963 0
M  V30 5650 H 547.343 1.91418 -3.46663 0
M  V30 5651 H 548.517 -0.73182 -4.54952 0
M  V30 5652 H 546.832 -0.504642 -4.13331 0
M  V30 5653 H 549.429 2.17302 -4.88553 0
M  V30 5654 H 549.772 2.62255 -3.23308 0
M  V30 5655 H 550.305 1.03615 -3.84069 0
M  V30 5656 H 547.044 -0.245691 -6.55039 0
M  V30 5657 H 546.564 1.31778 -5.85145 0
M  V30 5658 H 548.243 1.0532 -6.3837 0
M  V30 5659 N 548.375 1.56261 0.205012 0
M  V30 5660 C 549.285 1.96944 1.27476 0
M  V30 5661 C 550.301 0.875636 1.50362 0
M  V30 5662 O 551.477 1.18058 1.6317 0
M  V30 5663 C 548.542 2.29219 2.60115 0
M  V30 5664 C 547.603 3.52255 2.45387 0
M  V30 5665 C 546.836 3.8298 3.71701 0
M  V30 5666 O 547.059 3.15138 4.75441 0
M  V30 5667 O 545.993 4.76435 3.67823 0
M  V30 5668 H 549.819 2.88144 0.959527 0
M  V30 5669 H 547.404 1.43686 0.409217 0
M  V30 5670 H 549.286 2.51098 3.3842 0
M  V30 5671 H 547.961 1.4119 2.91285 0
M  V30 5672 H 546.868 3.35635 1.65227 0
M  V30 5673 H 548.201 4.40719 2.19152 0
M  V30 5674 N 549.853 -0.472356 1.50355 0
M  V30 5675 C 551.1 -1.22453 1.61281 0
M  V30 5676 C 551.428 -1.91972 0.31256 0
M  V30 5677 O 550.683 -1.82696 -0.701475 0
M  V30 5678 C 550.982 -2.29257 2.74182 0
M  V30 5679 C 550.648 -1.76999 4.14708 0
M  V30 5680 C 549.31 -1.62467 4.52944 0
M  V30 5681 C 551.662 -1.38215 5.0254 0
M  V30 5682 C 548.99 -1.07574 5.76754 0
M  V30 5683 C 551.342 -0.847638 6.26895 0
M  V30 5684 C 550.006 -0.688946 6.63935 0
M  V30 5685 H 549.276 -0.448087 0.590168 0
M  V30 5686 H 551.923 -0.520744 1.84284 0
M  V30 5687 H 550.228 -3.05538 2.45263 0
M  V30 5688 H 551.925 -2.87212 2.7984 0
M  V30 5689 H 548.515 -1.89276 3.84542 0
M  V30 5690 H 552.699 -1.48276 4.73633 0
M  V30 5691 H 547.955 -0.940237 6.04127 0
M  V30 5692 H 552.129 -0.538455 6.94315 0
M  V30 5693 H 549.756 -0.261435 7.5975 0
M  V30 5694 N 551.331 -1.39911 -0.725443 0
M  V30 5695 C 552.561 -1.40744 -1.51244 0
M  V30 5696 C 552.969 -0.00275403 -1.892 0
M  V30 5697 O 552.312 0.981299 -1.55294 0
M  V30 5698 C 552.374 -2.22527 -2.82351 0
M  V30 5699 C 552.038 -3.71053 -2.66774 0
M  V30 5700 C 553.035 -4.63916 -2.34686 0
M  V30 5701 C 550.72 -4.14753 -2.83347 0
M  V30 5702 C 552.714 -5.98463 -2.19366 0
M  V30 5703 C 550.401 -5.49372 -2.67644 0
M  V30 5704 C 551.399 -6.41042 -2.357 0
M  V30 5705 O 551.087 -7.73181 -2.20107 0
M  V30 5706 H 550.819 -0.482314 -0.473655 0
M  V30 5707 H 553.373 -1.84472 -0.903284 0
M  V30 5708 H 551.603 -1.73563 -3.45562 0
M  V30 5709 H 553.292 -2.15421 -3.44018 0
M  V30 5710 H 554.058 -4.31453 -2.21525 0
M  V30 5711 H 549.937 -3.43728 -3.072 0
M  V30 5712 H 553.481 -6.69979 -1.94354 0
M  V30 5713 H 549.378 -5.81424 -2.80387 0
M  V30 5714 H 550.146 -7.84008 -2.35103 0
M  V30 5715 N 552.809 0.956637 -1.25245 0
M  V30 5716 C 553.756 2.053 -1.05454 0
M  V30 5717 C 554.726 1.66062 0.0356889 0
M  V30 5718 O 555.911 1.90415 -0.121099 0
M  V30 5719 C 553.051 3.38391 -0.677191 0
M  V30 5720 C 552.164 3.90758 -1.84206 0
M  V30 5721 C 551.299 5.12165 -1.40926 0
M  V30 5722 C 550.338 5.56757 -2.54338 0
M  V30 5723 N 549.475 6.69376 -2.11848 0
M  V30 5724 H 554.315 2.21562 -1.99284 0
M  V30 5725 H 551.852 1.08578 -0.992434 0
M  V30 5726 H 553.81 4.1488 -0.43938 0
M  V30 5727 H 552.44 3.22021 0.224127 0
M  V30 5728 H 551.492 3.10808 -2.19323 0
M  V30 5729 H 552.804 4.19802 -2.69383 0
M  V30 5730 H 551.958 5.96065 -1.13098 0
M  V30 5731 H 550.697 4.84832 -0.528175 0
M  V30 5732 H 549.702 4.71423 -2.82913 0
M  V30 5733 H 550.927 5.861 -3.43022 0
M  V30 5734 H 548.873 6.43756 -1.26153 0
M  V30 5735 H 548.79 6.97927 -2.90574 0
M  V30 5736 H 550.058 7.5669 -1.87191 0
M  V30 5737 N 554.287 1.06798 1.15896 0
M  V30 5738 C 555.237 0.653213 2.18443 0
M  V30 5739 C 556.221 -0.318763 1.57711 0
M  V30 5740 O 557.413 -0.133388 1.76497 0
M  V30 5741 C 554.542 0.0465785 3.43268 0
M  V30 5742 C 553.628 1.04336 4.11066 0
M  V30 5743 N 554.019 2.22084 4.54436 0
M  V30 5744 C 552.317 0.875433 4.37324 0
M  V30 5745 C 553.018 2.85276 5.06944 0
M  V30 5746 N 551.994 2.12973 5.00143 0
M  V30 5747 H 555.796 1.55011 2.49698 0
M  V30 5748 H 553.31 0.940384 1.32403 0
M  V30 5749 H 555.307 -0.26843 4.16035 0
M  V30 5750 H 553.967 -0.845504 3.13499 0
M  V30 5751 H 554.978 2.59833 4.48004 0
M  V30 5752 H 551.655 0.0357721 4.17485 0
M  V30 5753 H 553.045 3.85223 5.50503 0
M  V30 5754 N 555.766 -1.3263 0.851289 0
M  V30 5755 C 556.676 -2.32722 0.296268 0
M  V30 5756 C 557.692 -1.63901 -0.584162 0
M  V30 5757 O 558.868 -1.95465 -0.485334 0
M  V30 5758 C 555.933 -3.42942 -0.509103 0
M  V30 5759 C 554.994 -4.2746 0.397069 0
M  V30 5760 C 554.227 -5.32416 -0.36996 0
M  V30 5761 O 554.45 -5.47491 -1.6003 0
M  V30 5762 O 553.384 -6.01327 0.262493 0
M  V30 5763 H 557.21 -2.82078 1.12543 0
M  V30 5764 H 554.795 -1.36194 0.614135 0
M  V30 5765 H 556.677 -4.1017 -0.96634 0
M  V30 5766 H 555.352 -2.95781 -1.31512 0
M  V30 5767 H 554.259 -3.63053 0.902411 0
M  V30 5768 H 555.592 -4.78136 1.16818 0
M  V30 5769 N 557.244 -0.608902 -1.45362 0
M  V30 5770 C 558.469 -0.10921 -2.07112 0
M  V30 5771 C 558.894 1.19779 -1.45033 0
M  V30 5772 O 558.252 1.72961 -0.543527 0
M  V30 5773 C 558.3 0.0155745 -3.60597 0
M  V30 5774 O 557.404 1.06546 -3.98399 0
M  V30 5775 H 556.745 -0.0746619 -0.659789 0
M  V30 5776 H 559.275 -0.839283 -1.86594 0
M  V30 5777 H 559.285 0.213364 -4.07442 0
M  V30 5778 H 557.96 -0.938765 -4.05167 0
M  V30 5779 H 556.537 0.844024 -3.63223 0
M  V30 5780 N 558.722 1.53707 -0.348139 0
M  V30 5781 C 559.962 2.02899 0.247254 0
M  V30 5782 C 560.326 1.23033 1.47401 0
M  V30 5783 O 561.527 1.62146 2.14388 0
M  V30 5784 C 559.798 3.53156 0.549151 0
M  V30 5785 S 561.357 4.24247 1.1207 0
M  V30 5786 H 558.175 0.707213 0.0732894 0
M  V30 5787 H 560.777 1.89338 -0.486965 0
M  V30 5788 H 559.481 4.08893 -0.351435 0
M  V30 5789 H 559.012 3.70845 1.31291 0
M  V30 5790 H 561.027 4.33958 2.40613 0
M  V30 5791 N 560.2 0.0768682 1.57412 0
M  V30 5792 C 561.448 -0.589918 1.93299 0
M  V30 5793 C 561.769 -1.69842 0.958049 0
M  V30 5794 O 561.039 -1.95899 0.00703261 0
M  V30 5795 H 559.619 -0.220901 0.713591 0
M  V30 5796 H 562.281 0.135917 1.94425 0
M  V30 5797 H 561.377 -1.01195 2.95239 0
M  V30 5798 N 561.678 -1.56367 -0.196722 0
M  V30 5799 C 562.61 -1.90941 -1.26784 0
M  V30 5800 C 563.623 -0.799928 -1.41792 0
M  V30 5801 O 564.812 -1.07833 -1.42247 0
M  V30 5802 C 561.912 -2.12477 -2.6402 0
M  V30 5803 C 561.085 -3.43616 -2.70641 0
M  V30 5804 C 560.144 -3.54284 -3.89062 0
M  V30 5805 O 559.17 -4.2712 -3.76241 0
M  V30 5806 N 560.372 -2.87252 -5.04447 0
M  V30 5807 H 563.137 -2.83417 -0.974417 0
M  V30 5808 H 560.698 -1.57215 -0.386649 0
M  V30 5809 H 562.69 -2.16904 -3.41665 0
M  V30 5810 H 561.26 -1.26508 -2.85857 0
M  V30 5811 H 560.48 -3.51072 -1.79283 0
M  V30 5812 H 561.768 -4.29958 -2.72054 0
M  V30 5813 H 561.166 -2.27901 -5.17762 0
M  V30 5814 H 559.723 -2.97308 -5.80044 0
M  V30 5815 N 563.156 0.464375 -1.50603 0
M  V30 5816 C 564.396 1.22573 -1.6357 0
M  V30 5817 C 564.76 1.89111 -0.331834 0
M  V30 5818 O 565.961 2.66679 -0.336999 0
M  V30 5819 C 564.232 2.23643 -2.7878 0
M  V30 5820 S 565.791 3.08628 -3.1192 0
M  V30 5821 H 562.609 0.416058 -0.576556 0
M  V30 5822 H 565.211 0.521637 -1.88412 0
M  V30 5823 H 563.915 1.73354 -3.7199 0
M  V30 5824 H 563.446 2.98672 -2.56044 0
M  V30 5825 H 565.461 4.24904 -2.56264 0
M  V30 5826 N 564.634 1.40294 0.718013 0
M  V30 5827 C 565.862 1.4175 1.50714 0
M  V30 5828 C 566.277 0.0165366 1.88793 0
M  V30 5829 O 565.634 -0.958942 1.55276 0
M  V30 5830 C 565.685 2.30598 2.784 0
M  V30 5831 O 565.406 3.6524 2.41932 0
M  V30 5832 C 566.907 2.4062 3.72313 0
M  V30 5833 H 564.127 0.483565 0.465194 0
M  V30 5834 H 566.671 1.84316 0.885889 0
M  V30 5835 H 564.826 1.91401 3.36815 0
M  V30 5836 H 565.24 4.12402 3.24076 0
M  V30 5837 H 566.714 3.07001 4.58753 0
M  V30 5838 H 567.191 1.4305 4.15251 0
M  V30 5839 H 567.797 2.80359 3.19811 0
M  V30 5840 N 566.112 -0.949982 1.2575 0
M  V30 5841 C 567.523 -1.50989 1.09815 0
M  V30 5842 C 567.874 -1.93497 -0.324556 0
M  V30 5843 O 566.999 -1.79068 -1.21506 0
M  V30 5844 C 567.594 -2.74394 1.98729 0
M  V30 5845 C 566.153 -3.26682 1.86965 0
M  V30 5846 C 565.3 -1.99498 1.92603 0
M  V30 5847 H 568.251 -0.766387 1.38968 0
M  V30 5848 H 568.272 -3.48383 1.53001 0
M  V30 5849 H 567.784 -2.43425 3.02268 0
M  V30 5850 H 565.885 -3.62461 0.863279 0
M  V30 5851 H 565.998 -3.94383 2.72027 0
M  V30 5852 H 564.362 -2.15005 1.36546 0
M  V30 5853 H 565.145 -1.70871 2.97755 0
M  V30 5854 N 567.59 -1.07411 -1.15328 0
M  V30 5855 C 568.83 -0.807011 -1.87794 0
M  V30 5856 C 569.194 0.654987 -1.80482 0
M  V30 5857 O 570.395 1.03716 -2.47985 0
M  V30 5858 C 568.666 -1.30198 -3.32841 0
M  V30 5859 S 570.225 -1.16564 -4.23034 0
M  V30 5860 H 567.043 -0.292429 -0.648079 0
M  V30 5861 H 569.645 -1.37334 -1.39139 0
M  V30 5862 H 568.349 -2.3607 -3.35707 0
M  V30 5863 H 567.88 -0.730881 -3.86551 0
M  V30 5864 H 569.895 -0.103557 -4.96092 0
M  V30 5865 N 569.068 1.32177 -0.85831 0
M  V30 5866 C 570.484 1.49873 -0.548656 0
M  V30 5867 C 570.684 1.79278 0.919874 0
M  V30 5868 O 569.74 1.86451 1.70271 0
M  V30 5869 C 571.053 2.64043 -1.4388 0
M  V30 5870 C 572.601 2.77928 -1.43961 0
M  V30 5871 C 573.076 3.95182 -2.31506 0
M  V30 5872 N 574.567 4.0245 -2.29321 0
M  V30 5873 C 575.302 4.9242 -2.93786 0
M  V30 5874 N 574.798 5.87373 -3.67376 0
M  V30 5875 N 576.591 4.85572 -2.83155 0
M  V30 5876 H 568.742 1.11357 -1.80868 0
M  V30 5877 H 571.005 0.549175 -0.772729 0
M  V30 5878 H 570.711 2.49055 -2.48324 0
M  V30 5879 H 570.585 3.59912 -1.12885 0
M  V30 5880 H 572.972 2.92338 -0.402813 0
M  V30 5881 H 573.053 1.82762 -1.78974 0
M  V30 5882 H 572.697 3.81531 -3.35256 0
M  V30 5883 H 572.627 4.89633 -1.93823 0
M  V30 5884 H 575.118 3.34507 -1.75822 0
M  V30 5885 H 575.431 6.52728 -4.13722 0
M  V30 5886 H 573.776 5.87388 -3.71484 0
M  V30 5887 H 576.967 4.10363 -2.25211 0
M  V30 5888 H 577.14 5.55486 -3.33676 0
M  V30 5889 N 570.547 0.616602 1.45037 0
M  V30 5890 C 571.457 -0.0985401 2.34393 0
M  V30 5891 C 572.473 -0.850971 1.51771 0
M  V30 5892 O 573.649 -0.806521 1.84546 0
M  V30 5893 C 570.714 -1.07748 3.29532 0
M  V30 5894 C 569.775 -0.326022 4.2806 0
M  V30 5895 C 569.008 -1.25833 5.18654 0
M  V30 5896 O 569.231 -2.49652 5.12864 0
M  V30 5897 O 568.165 -0.750512 5.97203 0
M  V30 5898 H 571.991 0.636016 2.96966 0
M  V30 5899 H 569.576 0.376832 1.44569 0
M  V30 5900 H 571.458 -1.64107 3.88133 0
M  V30 5901 H 570.133 -1.79291 2.69512 0
M  V30 5902 H 569.04 0.280253 3.73049 0
M  V30 5903 H 570.373 0.349091 4.9096 0
M  V30 5904 N 572.025 -1.5352 0.356285 0
M  V30 5905 C 573.273 -2.00719 -0.235837 0
M  V30 5906 C 573.594 -1.24551 -1.5004 0
M  V30 5907 O 572.864 -0.356185 -1.92635 0
M  V30 5908 H 571.444 -0.741542 -0.0901366 0
M  V30 5909 H 574.106 -1.88887 0.480378 0
M  V30 5910 H 573.202 -3.08551 -0.469357 0
M  V30 5911 N 573.503 -0.0852151 -1.57369 0
M  V30 5912 C 574.749 0.581666 -1.94279 0
M  V30 5913 C 575.082 1.68444 -0.966446 0
M  V30 5914 O 574.357 1.945 0.00215277 0
M  V30 5915 C 574.64 1.14609 -3.41375 0
M  V30 5916 C 574.493 0.0490414 -4.49773 0
M  V30 5917 C 575.812 2.04751 -3.8957 0
M  V30 5918 H 572.931 0.209972 -0.706456 0
M  V30 5919 H 575.573 -0.153915 -1.89376 0
M  V30 5920 H 573.723 1.77297 -3.45685 0
M  V30 5921 H 575.395 -0.584721 -4.57579 0
M  V30 5922 H 573.638 -0.618638 -4.29366 0
M  V30 5923 H 574.309 0.484601 -5.49869 0
M  V30 5924 H 576.785 1.51981 -3.87351 0
M  V30 5925 H 575.661 2.41173 -4.93079 0
M  V30 5926 H 575.922 2.96107 -3.28288 0
M  V30 5927 N 574.981 1.5647 0.188427 0
M  V30 5928 C 576.258 1.71857 0.934058 0
M  V30 5929 C 576.638 0.641867 2.01105 0
M  V30 5930 O 575.986 -0.346098 2.25864 0
M  V30 5931 C 576.196 3.14431 1.5144 0
M  V30 5932 C 577.544 3.74869 1.99396 0
M  V30 5933 O 578.568 3.17601 1.61269 0
M  V30 5934 O 577.427 4.75387 2.69573 0
M  V30 5935 H 574.521 0.701186 0.438483 0
M  V30 5936 H 577.067 1.68768 0.177599 0
M  V30 5937 H 575.839 3.8427 0.738416 0
M  V30 5938 H 575.462 3.21775 2.33552 0
M  V30 5939 N 576.459 -0.456382 1.50847 0
M  V30 5940 C 577.705 -1.20618 1.63777 0
M  V30 5941 C 578.06 -1.8936 0.340677 0
M  V30 5942 O 577.353 -1.79786 -0.662378 0
M  V30 5943 C 577.547 -2.26336 2.76599 0
M  V30 5944 C 577.376 -1.67968 4.17153 0
M  V30 5945 C 576.146 -1.47293 4.83356 0
M  V30 5946 C 578.344 -1.16643 5.00898 0
M  V30 5947 N 576.326 -0.843222 6.08081 0
M  V30 5948 C 577.697 -0.660843 6.16468 0
M  V30 5949 C 579.752 -1.05637 4.86565 0
M  V30 5950 C 578.455 -0.0560365 7.19278 0
M  V30 5951 C 580.481 -0.465485 5.89565 0
M  V30 5952 C 579.843 0.0296516 7.04394 0
M  V30 5953 H 575.942 -0.429725 0.653345 0
M  V30 5954 H 578.526 -0.505784 1.88016 0
M  V30 5955 H 576.697 -2.93785 2.54056 0
M  V30 5956 H 578.429 -2.9334 2.78808 0
M  V30 5957 H 575.184 -1.72934 4.40898 0
M  V30 5958 H 575.608 -0.546357 6.74792 0
M  V30 5959 H 580.25 -1.42508 3.98059 0
M  V30 5960 H 577.968 0.324845 8.07447 0
M  V30 5961 H 581.554 -0.382493 5.80541 0
M  V30 5962 H 580.434 0.479705 7.82731 0
M  V30 5963 N 577.937 -1.40673 -0.710563 0
M  V30 5964 C 578.87 -1.35742 -1.83438 0
M  V30 5965 C 579.848 -0.226997 -1.61008 0
M  V30 5966 O 581.032 -0.411477 -1.83954 0
M  V30 5967 C 578.159 -1.11374 -3.19865 0
M  V30 5968 C 577.205 -2.26935 -3.61113 0
M  V30 5969 S 578.038 -3.89352 -3.67648 0
M  V30 5970 C 579.194 -3.67258 -5.06826 0
M  V30 5971 H 579.427 -2.30848 -1.87341 0
M  V30 5972 H 576.96 -1.27018 -0.877831 0
M  V30 5973 H 578.918 -0.980004 -3.9863 0
M  V30 5974 H 577.579 -0.179135 -3.13589 0
M  V30 5975 H 576.772 -2.0554 -4.60184 0
M  V30 5976 H 576.374 -2.36638 -2.89618 0
M  V30 5977 H 578.666 -3.26036 -5.93891 0
M  V30 5978 H 579.609 -4.65878 -5.33257 0
M  V30 5979 H 580.017 -3.0084 -4.77656 0
M  V30 5980 N 579.415 0.9433 -1.26252 0
M  V30 5981 C 580.363 2.06302 -1.07434 0
M  V30 5982 C 581.357 1.694 -0.00189471 0
M  V30 5983 O 582.563 1.79302 -0.158408 0
M  V30 5984 H 578.938 0.675453 -0.330556 0
M  V30 5985 H 580.909 2.19326 -2.02333 0
M  V30 5986 C 579.658 3.40125 -0.721817 0
M  V30 5987 H 578.981 3.68996 -1.5389 0
M  V30 5988 H 580.421 4.19295 -0.629922 0
M  V30 5989 C 578.88 3.31993 0.572902 0
M  V30 5990 O 579.41 3.67945 1.61182 0
M  V30 5991 N 577.616 2.85099 0.562748 0
M  V30 5992 H 577.163 2.5604 -0.283092 0
M  V30 5993 H 577.121 2.80041 1.42915 0
M  V30 5994 N 580.893 1.08022 1.14757 0
M  V30 5995 C 581.84 0.706657 2.19716 0
M  V30 5996 C 582.81 -0.30525 1.63271 0
M  V30 5997 O 583.995 -0.19015 1.8985 0
M  V30 5998 C 581.135 0.117914 3.44898 0
M  V30 5999 C 580.248 1.18212 4.15512 0
M  V30 6000 C 579.383 0.557659 5.28265 0
M  V30 6001 C 578.422 1.60418 5.90705 0
M  V30 6002 N 577.559 1.0018 6.94916 0
M  V30 6003 H 582.399 1.60603 2.51019 0
M  V30 6004 H 579.936 0.802664 1.23271 0
M  V30 6005 H 581.894 -0.241112 4.16503 0
M  V30 6006 H 580.524 -0.744788 3.1409 0
M  V30 6007 H 579.576 1.65863 3.42335 0
M  V30 6008 H 580.888 1.97533 4.5802 0
M  V30 6009 H 580.042 0.146654 6.06523 0
M  V30 6010 H 578.781 -0.267249 4.86967 0
M  V30 6011 H 577.786 2.02489 5.11154 0
M  V30 6012 H 579.011 2.43149 6.34078 0
M  V30 6013 H 576.957 0.197917 6.55701 0
M  V30 6014 H 576.874 1.73216 7.35889 0
M  V30 6015 H 578.142 0.616523 7.77058 0
M  V30 6016 N 582.371 -1.3172 0.865308 0
M  V30 6017 C 583.617 -1.97168 0.474633 0
M  V30 6018 C 583.95 -1.68263 -0.969604 0
M  V30 6019 O 583.225 -0.976588 -1.68205 0
M  V30 6020 C 583.508 -3.52689 0.726808 0
M  V30 6021 C 583.361 -3.91185 2.22024 0
M  V30 6022 C 584.68 -4.39689 0.190201 0
M  V30 6023 H 581.799 -0.716185 0.17392 0
M  V30 6024 H 584.441 -1.55925 1.08569 0
M  V30 6025 H 582.591 -3.8795 0.206705 0
M  V30 6026 H 584.263 -3.66049 2.80724 0
M  V30 6027 H 582.506 -3.3996 2.69462 0
M  V30 6028 H 583.177 -4.99604 2.34735 0
M  V30 6029 H 585.653 -4.11225 0.635103 0
M  V30 6030 H 584.529 -5.47469 0.396132 0
M  V30 6031 H 584.79 -4.32683 -0.907625 0
M  V30 6032 N 583.85 -0.624285 -1.44708 0
M  V30 6033 C 584.783 0.133905 -2.27807 0
M  V30 6034 C 585.76 0.857794 -1.38133 0
M  V30 6035 O 586.945 0.863277 -1.6757 0
M  V30 6036 C 584.072 1.19541 -3.16903 0
M  V30 6037 C 583.118 0.572813 -4.22636 0
M  V30 6038 S 583.951 -0.631953 -5.31758 0
M  V30 6039 C 585.106 0.429733 -6.24423 0
M  V30 6040 H 585.34 -0.571072 -2.91764 0
M  V30 6041 H 582.873 -0.412261 -1.48794 0
M  V30 6042 H 584.831 1.80293 -3.68788 0
M  V30 6043 H 583.492 1.87255 -2.5218 0
M  V30 6044 H 582.685 1.37205 -4.84965 0
M  V30 6045 H 582.287 0.0400641 -3.73979 0
M  V30 6046 H 584.579 1.30421 -6.64828 0
M  V30 6047 H 585.522 -0.157804 -7.07924 0
M  V30 6048 H 585.93 0.75256 -5.59461 0
M  V30 6049 N 585.328 1.53329 -0.364422 0
M  V30 6050 C 586.291 2.24323 0.470292 0
M  V30 6051 C 587.291 1.25068 1.01067 0
M  V30 6052 O 588.481 1.49354 0.896605 0
M  V30 6053 C 585.613 2.97908 1.65722 0
M  V30 6054 H 586.806 2.9952 -0.150917 0
M  V30 6055 H 584.359 1.55868 -0.116092 0
M  V30 6056 H 585.094 2.2695 2.31655 0
M  V30 6057 H 584.879 3.70732 1.27671 0
M  V30 6058 H 586.369 3.5188 2.24878 0
M  V30 6059 N 586.806 0.0935595 1.57322 0
M  V30 6060 C 588.222 -0.263091 1.57417 0
M  V30 6061 C 588.422 -1.68526 1.1046 0
M  V30 6062 O 587.478 -2.40139 0.780357 0
M  V30 6063 C 588.791 -0.0529201 3.00653 0
M  V30 6064 C 590.339 -0.120788 3.12767 0
M  V30 6065 C 590.814 0.0613707 4.57959 0
M  V30 6066 N 592.305 0.00648534 4.632 0
M  V30 6067 C 593.04 0.122699 5.73269 0
M  V30 6068 N 592.536 0.29366 6.92177 0
M  V30 6069 N 594.329 0.0640787 5.62063 0
M  V30 6070 H 586.48 1.02277 1.86154 0
M  V30 6071 H 588.743 0.4007 0.859153 0
M  V30 6072 H 588.449 0.929279 3.39201 0
M  V30 6073 H 588.323 -0.795899 3.68708 0
M  V30 6074 H 590.71 -1.09349 2.74093 0
M  V30 6075 H 590.791 0.653656 2.47307 0
M  V30 6076 H 590.435 1.03093 4.97327 0
M  V30 6077 H 590.365 -0.732748 5.21477 0
M  V30 6078 H 592.856 -0.123173 3.77699 0
M  V30 6079 H 593.169 0.37389 7.71895 0
M  V30 6080 H 591.514 0.329307 6.94219 0
M  V30 6081 H 594.705 -0.0683396 4.6805 0
M  V30 6082 H 594.878 0.158097 6.47807 0
M  V30 6083 N 588.284 -1.56567 -0.180126 0
M  V30 6084 C 589.531 -1.81492 -0.898167 0
M  V30 6085 C 589.859 -0.669225 -1.82624 0
M  V30 6086 O 589.114 0.344096 -1.92651 0
M  V30 6087 C 589.413 -3.1252 -1.73395 0
M  V30 6088 C 589.079 -4.40658 -0.955567 0
M  V30 6089 C 587.741 -4.75465 -0.740707 0
M  V30 6090 C 590.093 -5.19593 -0.408948 0
M  V30 6091 C 587.421 -5.86691 0.0320128 0
M  V30 6092 C 589.773 -6.31627 0.350638 0
M  V30 6093 C 588.437 -6.65007 0.576378 0
M  V30 6094 H 587.707 -0.664125 -0.328662 0
M  V30 6095 H 590.354 -1.908 -0.163616 0
M  V30 6096 H 588.659 -2.98515 -2.53763 0
M  V30 6097 H 590.356 -3.29013 -2.29241 0
M  V30 6098 H 586.946 -4.13352 -1.13306 0
M  V30 6099 H 591.13 -4.93104 -0.562307 0
M  V30 6100 H 586.386 -6.11016 0.216735 0
M  V30 6101 H 590.56 -6.92001 0.781497 0
M  V30 6102 H 588.187 -7.51033 1.17703 0
M  V30 6103 N 589.762 0.448376 -1.51087 0
M  V30 6104 C 591.008 1.20049 -1.6345 0
M  V30 6105 C 591.341 1.91121 -0.344444 0
M  V30 6106 O 590.616 1.83125 0.655396 0
M  V30 6107 C 590.899 2.22624 -2.83038 0
M  V30 6108 C 590.752 1.55708 -4.21989 0
M  V30 6109 C 592.071 3.23718 -2.98152 0
M  V30 6110 H 589.19 0.435085 -0.59487 0
M  V30 6111 H 591.832 0.491183 -1.83541 0
M  V30 6112 H 589.982 2.83117 -2.66039 0
M  V30 6113 H 591.654 0.986367 -4.50631 0
M  V30 6114 H 589.897 0.859647 -4.25197 0
M  V30 6115 H 590.568 2.30357 -5.01637 0
M  V30 6116 H 593.044 2.73269 -3.13788 0
M  V30 6117 H 591.92 3.92795 -3.83411 0
M  V30 6118 H 592.181 3.89179 -2.09743 0
M  V30 6119 N 591.24 1.41047 0.703093 0
M  V30 6120 C 592.656 1.23351 1.01275 0
M  V30 6121 C 592.856 0.11754 2.01157 0
M  V30 6122 O 591.912 -0.520518 2.47077 0
M  V30 6123 C 593.225 2.58001 1.54454 0
M  V30 6124 C 594.773 2.65119 1.66376 0
M  V30 6125 C 595.248 4.00067 2.22958 0
M  V30 6126 N 596.739 4.01875 2.30328 0
M  V30 6127 C 597.474 5.03087 2.75119 0
M  V30 6128 N 596.97 6.14692 3.19571 0
M  V30 6129 N 598.763 4.90451 2.74616 0
M  V30 6130 H 590.914 2.1236 0.0412686 0
M  V30 6131 H 593.177 0.944543 0.08089 0
M  V30 6132 H 592.883 3.40378 0.88521 0
M  V30 6133 H 592.757 2.79962 2.52786 0
M  V30 6134 H 595.144 1.83106 2.31422 0
M  V30 6135 H 595.225 2.46975 0.666089 0
M  V30 6136 H 594.869 4.82526 1.58529 0
M  V30 6137 H 594.799 4.15547 3.23462 0
M  V30 6138 H 597.29 3.21291 1.98949 0
M  V30 6139 H 597.603 6.87799 3.52352 0
M  V30 6140 H 595.948 6.18239 3.17498 0
M  V30 6141 H 599.139 4.0235 2.39233 0
M  V30 6142 H 599.312 5.6947 3.09206 0
M  V30 6143 N 592.718 -0.936591 1.26751 0
M  V30 6144 C 593.966 -1.67998 1.12343 0
M  V30 6145 C 594.287 -1.92137 -0.332938 0
M  V30 6146 O 593.557 -1.52132 -1.23421 0
M  V30 6147 H 592.137 -0.622609 0.412756 0
M  V30 6148 H 594.799 -1.12509 1.59147 0
M  V30 6149 H 593.895 -2.65185 1.64571 0
M  V30 6150 N 594.196 -1.08629 -1.14182 0
M  V30 6151 C 595.473 -0.73002 -1.81466 0
M  V30 6152 C 595.853 0.785996 -1.95922 0
M  V30 6153 O 595.201 1.70535 -1.52086 0
M  V30 6154 C 595.411 -1.45957 -3.17014 0
M  V30 6155 C 596.759 -1.62008 -3.92477 0
M  V30 6156 O 597.783 -1.42141 -3.26611 0
M  V30 6157 O 596.642 -1.94806 -5.106 0
M  V30 6158 H 593.736 -0.261307 -0.784632 0
M  V30 6159 H 596.282 -1.188 -1.2118 0
M  V30 6160 H 595.054 -2.49221 -3.01669 0
M  V30 6161 H 594.677 -0.993222 -3.84995 0
M  V30 6162 N 595.674 1.31259 -0.872281 0
M  V30 6163 C 596.637 2.26744 -0.334656 0
M  V30 6164 C 597.637 1.52307 0.515681 0
M  V30 6165 O 598.827 1.71148 0.324656 0
M  V30 6166 C 595.959 3.36841 0.524482 0
M  V30 6167 H 597.152 2.75812 -1.17762 0
M  V30 6168 H 594.705 1.42232 -0.648064 0
M  V30 6169 H 595.44 2.93069 1.38855 0
M  V30 6170 H 595.225 3.92009 -0.0844299 0
M  V30 6171 H 596.715 4.07944 0.892838 0
M  V30 6172 N 597.152 0.631951 1.44375 0
M  V30 6173 C 598.568 0.297642 1.568 0
M  V30 6174 C 598.768 -1.19916 1.61934 0
M  V30 6175 O 597.824 -1.98324 1.56281 0
M  V30 6176 C 599.137 0.990286 2.83926 0
M  V30 6177 C 600.685 0.968507 2.97639 0
M  V30 6178 C 601.16 1.64163 4.27568 0
M  V30 6179 N 602.651 1.60826 4.34384 0
M  V30 6180 C 603.386 2.09802 5.33639 0
M  V30 6181 N 602.882 2.66973 6.39294 0
M  V30 6182 N 604.675 2.00426 5.25153 0
M  V30 6183 H 596.826 1.60353 1.39286 0
M  V30 6184 H 599.089 0.673142 0.667521 0
M  V30 6185 H 598.795 2.04519 2.8612 0
M  V30 6186 H 598.669 0.528563 3.73478 0
M  V30 6187 H 601.056 -0.0779247 2.94997 0
M  V30 6188 H 601.137 1.46873 2.09433 0
M  V30 6189 H 600.781 2.68752 4.3097 0
M  V30 6190 H 600.711 1.11624 5.14634 0
M  V30 6191 H 603.202 1.19087 3.58646 0
M  V30 6192 H 603.515 3.02074 7.11316 0
M  V30 6193 H 601.86 2.71024 6.39977 0
M  V30 6194 H 605.051 1.55483 4.41523 0
M  V30 6195 H 605.224 2.38906 6.02352 0
M  V30 6196 N 598.631 -1.53133 0.372548 0
M  V30 6197 C 600.042 -1.86404 -0.105155 0
M  V30 6198 C 600.393 -1.29289 -1.47576 0
M  V30 6199 O 599.518 -0.617646 -2.07398 0
M  V30 6200 C 600.113 -3.38223 -0.197588 0
M  V30 6201 C 598.672 -3.71266 -0.619556 0
M  V30 6202 C 597.819 -2.76353 0.228919 0
M  V30 6203 H 600.77 -1.47282 0.591077 0
M  V30 6204 H 600.791 -3.66577 -1.01987 0
M  V30 6205 H 600.303 -3.79763 0.800099 0
M  V30 6206 H 598.404 -3.35287 -1.62522 0
M  V30 6207 H 598.517 -4.77515 -0.389332 0
M  V30 6208 H 596.881 -2.52888 -0.303271 0
M  V30 6209 H 597.664 -3.20728 1.22428 0
M  V30 6210 N 600.109 -0.101901 -1.5727 0
M  V30 6211 C 601.072 0.840129 -2.13247 0
M  V30 6212 C 602.072 1.20625 -1.06331 0
M  V30 6213 O 603.262 1.13456 -1.32186 0
M  V30 6214 C 600.394 2.13372 -2.65867 0
M  V30 6215 H 601.587 0.353945 -2.97804 0
M  V30 6216 H 599.14 0.147167 -1.55606 0
M  V30 6217 H 599.875 2.66461 -1.84849 0
M  V30 6218 H 599.66 1.88085 -3.44044 0
M  V30 6219 H 601.15 2.80748 -3.09145 0
M  V30 6220 N 601.587 1.56661 0.17182 0
M  V30 6221 C 602.497 1.99604 1.2327 0
M  V30 6222 C 603.513 0.907333 1.4847 0
M  V30 6223 O 604.689 1.21492 1.60629 0
M  V30 6224 C 601.754 2.34685 2.55194 0
M  V30 6225 C 600.815 3.57381 2.3786 0
M  V30 6226 C 600.048 3.90779 3.63494 0
M  V30 6227 O 600.271 3.25152 4.6865 0
M  V30 6228 O 599.205 4.84129 3.57634 0
M  V30 6229 H 603.031 2.90114 0.898192 0
M  V30 6230 H 600.616 1.44522 0.378647 0
M  V30 6231 H 602.498 2.5822 3.33017 0
M  V30 6232 H 601.173 1.47336 2.88225 0
M  V30 6233 H 600.08 3.39064 1.5807 0
M  V30 6234 H 601.413 4.45268 2.09754 0
M  V30 6235 N 603.065 -0.440357 1.51323 0
M  V30 6236 C 604.314 -1.18697 1.63076 0
M  V30 6237 C 604.627 -1.92418 0.35136 0
M  V30 6238 O 605.833 -2.69258 0.348221 0
M  V30 6239 C 604.289 -2.15849 2.87988 0
M  V30 6240 C 603.897 -1.47789 4.22921 0
M  V30 6241 C 605.641 -2.90962 3.09098 0
M  V30 6242 C 603.548 -2.43407 5.38987 0
M  V30 6243 H 602.478 -0.44676 0.607389 0
M  V30 6244 H 605.129 -0.454313 1.77787 0
M  V30 6245 H 603.511 -2.92537 2.66905 0
M  V30 6246 H 604.685 -0.7668 4.54375 0
M  V30 6247 H 603 -0.848404 4.07665 0
M  V30 6248 H 605.597 -3.62584 3.92985 0
M  V30 6249 H 605.94 -3.52133 2.22053 0
M  V30 6250 H 606.473 -2.21381 3.30507 0
M  V30 6251 H 603.212 -1.86929 6.28282 0
M  V30 6252 H 602.732 -3.12579 5.11913 0
M  V30 6253 H 604.411 -3.046 5.70813 0
M  V30 6254 N 604.543 -1.41418 -0.695603 0
M  V30 6255 C 605.82 -1.31264 -1.45014 0
M  V30 6256 C 606.2 0.0597994 -2.11015 0
M  V30 6257 O 605.548 1.07403 -2.01685 0
M  V30 6258 C 605.758 -2.466 -2.4696 0
M  V30 6259 C 607.106 -2.87763 -3.12214 0
M  V30 6260 O 608.13 -2.46339 -2.57285 0
M  V30 6261 O 606.989 -3.59395 -4.11701 0
M  V30 6262 H 604.083 -0.516576 -0.645816 0
M  V30 6263 H 606.629 -1.53382 -0.726084 0
M  V30 6264 H 605.401 -3.38183 -1.96845 0
M  V30 6265 H 605.024 -2.26358 -3.26876 0
M  V30 6266 N 606.021 0.929856 -1.27246 0
M  V30 6267 C 607.246 1.71674 -1.16374 0
M  V30 6268 C 607.671 1.86064 0.276024 0
M  V30 6269 O 607.029 1.3591 1.19992 0
M  V30 6270 C 607.077 3.09526 -1.85003 0
M  V30 6271 O 606.181 3.96142 -1.14653 0
M  V30 6272 H 605.522 0.52629 -0.404863 0
M  V30 6273 H 608.052 1.16381 -1.68276 0
M  V30 6274 H 608.062 3.59852 -1.92276 0
M  V30 6275 H 606.737 2.98369 -2.89739 0
M  V30 6276 H 605.314 3.54584 -1.15433 0
M  V30 6277 N 607.499 1.09233 1.13605 0
M  V30 6278 C 608.429 0.751738 2.21068 0
M  V30 6279 C 609.41 -0.269688 1.67948 0
M  V30 6280 O 610.595 -0.13819 1.93708 0
M  V30 6281 C 607.725 0.16935 3.46887 0
M  V30 6282 C 606.679 1.12007 4.13084 0
M  V30 6283 C 606.005 0.399483 5.33206 0
M  V30 6284 C 607.305 2.46168 4.6065 0
M  V30 6285 H 608.999 1.65024 2.49815 0
M  V30 6286 H 606.545 0.794905 1.20072 0
M  V30 6287 H 608.498 -0.0809824 4.21322 0
M  V30 6288 H 607.222 -0.764335 3.1753 0
M  V30 6289 H 605.881 1.35564 3.40614 0
M  V30 6290 H 605.529 -0.538277 5.00112 0
M  V30 6291 H 605.229 1.03337 5.78442 0
M  V30 6292 H 606.753 0.157403 6.10397 0
M  V30 6293 H 608.167 2.26829 5.26518 0
M  V30 6294 H 606.564 3.05326 5.1662 0
M  V30 6295 H 607.634 3.07076 3.75276 0
M  V30 6296 N 608.977 -1.30795 0.87923 0
M  V30 6297 C 610.223 -1.97035 0.50487 0
M  V30 6298 C 610.578 -1.68182 -0.934484 0
M  V30 6299 O 609.871 -0.972953 -1.65058 0
M  V30 6300 C 610.065 -3.50287 0.709476 0
M  V30 6301 C 609.894 -3.94035 2.16717 0
M  V30 6302 C 608.664 -4.1992 2.81061 0
M  V30 6303 C 610.862 -4.07288 3.1404 0
M  V30 6304 N 608.844 -4.50088 4.17486 0
M  V30 6305 C 610.215 -4.41273 4.35521 0
M  V30 6306 C 612.27 -3.89696 3.09906 0
M  V30 6307 C 610.973 -4.59501 5.534 0
M  V30 6308 C 612.999 -4.09122 4.27052 0
M  V30 6309 C 612.361 -4.43447 5.47297 0
M  V30 6310 H 608.46 -0.746181 0.233962 0
M  V30 6311 H 611.044 -1.5814 1.13577 0
M  V30 6312 H 609.215 -3.8825 0.108108 0
M  V30 6313 H 610.947 -4.03567 0.302585 0
M  V30 6314 H 607.702 -4.12906 2.3196 0
M  V30 6315 H 608.126 -4.69316 4.87926 0
M  V30 6316 H 612.768 -3.62239 2.18043 0
M  V30 6317 H 610.486 -4.85802 6.45773 0
M  V30 6318 H 614.072 -3.96985 4.25316 0
M  V30 6319 H 612.952 -4.58171 6.36435 0
M  V30 6320 N 610.455 -0.639598 -1.44038 0
M  V30 6321 C 611.365 0.0612377 -2.3452 0
M  V30 6322 C 612.381 0.826717 -1.53106 0
M  V30 6323 O 613.557 0.777059 -1.85806 0
M  V30 6324 C 610.622 1.02492 -3.31204 0
M  V30 6325 C 609.683 0.25788 -4.28525 0
M  V30 6326 C 608.916 1.17566 -5.2059 0
M  V30 6327 O 609.139 2.41461 -5.16771 0
M  V30 6328 O 608.073 0.655407 -5.98321 0
M  V30 6329 H 611.899 -0.68318 -2.95916 0
M  V30 6330 H 609.484 -0.399784 -1.43952 0
M  V30 6331 H 611.366 1.57911 -3.90694 0
M  V30 6332 H 610.041 1.7498 -2.7233 0
M  V30 6333 H 608.948 -0.339566 -3.72556 0
M  V30 6334 H 610.281 -0.427154 -4.90343 0
M  V30 6335 N 611.933 1.52934 -0.380664 0
M  V30 6336 C 613.182 2.00651 0.205477 0
M  V30 6337 C 613.495 1.27164 1.48623 0
M  V30 6338 O 614.701 1.65547 2.15189 0
M  V30 6339 C 613.157 3.57479 0.416726 0
M  V30 6340 C 612.765 4.39857 -0.850268 0
M  V30 6341 C 614.509 4.13509 0.959702 0
M  V30 6342 C 612.416 5.88269 -0.607773 0
M  V30 6343 H 611.346 0.749684 0.0805614 0
M  V30 6344 H 613.997 1.76508 -0.501732 0
M  V30 6345 H 612.379 3.77836 1.18557 0
M  V30 6346 H 613.553 4.31269 -1.62307 0
M  V30 6347 H 611.868 3.95005 -1.31756 0
M  V30 6348 H 614.465 5.22039 1.15669 0
M  V30 6349 H 614.808 3.69054 1.92626 0
M  V30 6350 H 615.341 3.9701 0.250645 0
M  V30 6351 H 612.08 6.3703 -1.54509 0
M  V30 6352 H 611.6 5.99667 0.126247 0
M  V30 6353 H 613.279 6.46558 -0.239014 0
M  V30 6354 N 613.412 0.11024 1.57214 0
M  V30 6355 C 614.637 -0.561179 1.99664 0
M  V30 6356 C 615.062 -1.59985 0.989266 0
M  V30 6357 O 614.42 -1.81255 -0.0402399 0
M  V30 6358 C 614.468 -1.17189 3.41027 0
M  V30 6359 O 613.572 -2.28755 3.4314 0
M  V30 6360 H 612.913 -0.14101 0.648855 0
M  V30 6361 H 615.443 0.196128 2.03658 0
M  V30 6362 H 615.453 -1.50954 3.79047 0
M  V30 6363 H 614.128 -0.411041 4.13864 0
M  V30 6364 H 612.705 -1.96495 3.16929 0
M  V30 6365 N 614.89 -1.56749 -0.16351 0
M  V30 6366 C 615.837 -1.97011 -1.2023 0
M  V30 6367 C 616.807 -0.835186 -1.43575 0
M  V30 6368 O 617.992 -1.09594 -1.56185 0
M  V30 6369 C 615.132 -2.34186 -2.53478 0
M  V30 6370 C 614.245 -3.60893 -2.37446 0
M  V30 6371 C 613.38 -3.87245 -3.63614 0
M  V30 6372 C 612.419 -5.07274 -3.42548 0
M  V30 6373 N 611.556 -5.29719 -4.60806 0
M  V30 6374 H 616.396 -2.85562 -0.851958 0
M  V30 6375 H 613.933 -1.41292 -0.409257 0
M  V30 6376 H 615.891 -2.53764 -3.31149 0
M  V30 6377 H 614.521 -1.48736 -2.86492 0
M  V30 6378 H 613.573 -3.49185 -1.50911 0
M  V30 6379 H 614.885 -4.48722 -2.1783 0
M  V30 6380 H 614.039 -4.07232 -4.49719 0
M  V30 6381 H 612.778 -2.97806 -3.86216 0
M  V30 6382 H 611.783 -4.87177 -2.5483 0
M  V30 6383 H 613.008 -5.98251 -3.2136 0
M  V30 6384 H 610.954 -4.43233 -4.83612 0
M  V30 6385 H 610.871 -6.11786 -4.44132 0
M  V30 6386 H 612.139 -5.54192 -5.48171 0
M  V30 6387 N 616.368 0.432326 -1.51554 0
M  V30 6388 C 617.3 1.54357 -1.6943 0
M  V30 6389 C 618.313 1.52311 -0.574897 0
M  V30 6390 O 619.502 1.56997 -0.849369 0
M  V30 6391 C 616.602 2.93273 -1.69836 0
M  V30 6392 C 615.775 3.19768 -2.98442 0
M  V30 6393 C 614.834 4.38433 -2.90969 0
M  V30 6394 O 613.86 4.36842 -3.64908 0
M  V30 6395 N 615.062 5.42276 -2.07163 0
M  V30 6396 H 617.827 1.39426 -2.65293 0
M  V30 6397 H 615.388 0.621331 -1.49503 0
M  V30 6398 H 617.38 3.70687 -1.62399 0
M  V30 6399 H 615.95 3.01777 -0.815456 0
M  V30 6400 H 615.17 2.30607 -3.19709 0
M  V30 6401 H 616.458 3.343 -3.83563 0
M  V30 6402 H 615.856 5.46407 -1.46477 0
M  V30 6403 H 614.413 6.18524 -2.05601 0
M  V30 6404 N 617.846 1.41785 0.688094 0
M  V30 6405 C 619.095 1.4084 1.44385 0
M  V30 6406 C 619.408 0.0234166 1.95586 0
M  V30 6407 O 620.614 -0.108647 2.71283 0
M  V30 6408 C 619.07 2.47675 2.61123 0
M  V30 6409 C 618.678 3.92116 2.16677 0
M  V30 6410 C 620.422 2.55877 3.38714 0
M  V30 6411 C 618.329 4.90487 3.30419 0
M  V30 6412 H 617.259 0.523787 0.542368 0
M  V30 6413 H 619.91 1.6764 0.74627 0
M  V30 6414 H 618.292 2.14018 3.33185 0
M  V30 6415 H 619.466 4.35059 1.51856 0
M  V30 6416 H 617.781 3.87642 1.5206 0
M  V30 6417 H 620.378 3.26553 4.234 0
M  V30 6418 H 620.721 1.59801 3.84408 0
M  V30 6419 H 621.254 2.88662 2.73714 0
M  V30 6420 H 617.993 5.87994 2.89729 0
M  V30 6421 H 617.513 4.52187 3.94065 0
M  V30 6422 H 619.192 5.11591 3.96085 0
M  V30 6423 N 619.324 -0.923095 1.27737 0
M  V30 6424 C 620.234 -2.05765 1.12685 0
M  V30 6425 C 621.25 -1.73911 0.0557197 0
M  V30 6426 O 622.426 -1.99674 0.263137 0
M  V30 6427 C 619.491 -3.37804 0.780363 0
M  V30 6428 C 618.552 -3.83326 1.93286 0
M  V30 6429 C 617.785 -5.09064 1.60281 0
M  V30 6430 O 618.008 -5.6809 0.512828 0
M  V30 6431 O 616.942 -5.50071 2.44347 0
M  V30 6432 H 620.768 -2.21378 2.07907 0
M  V30 6433 H 618.353 -1.04299 1.06968 0
M  V30 6434 H 620.235 -4.17097 0.600668 0
M  V30 6435 H 618.91 -3.23387 -0.142291 0
M  V30 6436 H 617.817 -3.049 2.16764 0
M  V30 6437 H 619.15 -4.02292 2.83588 0
M  V30 6438 N 620.802 -1.09834 -1.13024 0
M  V30 6439 C 622.05 -0.835297 -1.8403 0
M  V30 6440 C 622.371 0.640944 -1.84165 0
M  V30 6441 O 621.641 1.46517 -1.30037 0
M  V30 6442 H 620.221 -0.306018 -0.681441 0
M  V30 6443 H 622.883 -1.38734 -1.36891 0
M  V30 6444 H 621.979 -1.19258 -2.88416 0
M  V30 6445 N 622.28 1.30327 -0.886154 0
M  V30 6446 C 623.23 2.25668 -0.325248 0
M  V30 6447 C 624.214 1.51318 0.546972 0
M  V30 6448 O 625.406 1.72623 0.391203 0
M  V30 6449 C 622.535 3.40229 0.458167 0
M  V30 6450 C 621.621 4.21933 -0.428208 0
M  V30 6451 N 622.012 4.82129 -1.52921 0
M  V30 6452 C 620.31 4.45439 -0.223535 0
M  V30 6453 C 621.011 5.43351 -2.07714 0
M  V30 6454 N 619.987 5.26002 -1.37195 0
M  V30 6455 H 623.789 2.69759 -1.1665 0
M  V30 6456 H 621.303 1.4478 -0.735691 0
M  V30 6457 H 623.3 4.07579 0.876648 0
M  V30 6458 H 621.96 2.97678 1.29684 0
M  V30 6459 H 622.971 4.81312 -1.91205 0
M  V30 6460 H 619.648 4.13481 0.577875 0
M  V30 6461 H 621.038 6.01118 -3.00178 0
M  V30 6462 N 623.758 0.647228 1.43697 0
M  V30 6463 C 624.986 0.16575 2.06235 0
M  V30 6464 C 625.401 -1.1662 1.48476 0
M  V30 6465 O 624.758 -1.7187 0.613762 0
M  V30 6466 C 624.809 0.0621651 3.61447 0
M  V30 6467 O 624.53 1.34146 4.17057 0
M  V30 6468 C 626.031 -0.446102 4.4105 0
M  V30 6469 H 623.251 0.0871158 0.665321 0
M  V30 6470 H 625.795 0.886183 1.84301 0
M  V30 6471 H 623.95 -0.608794 3.82587 0
M  V30 6472 H 624.364 1.19675 5.10664 0
M  V30 6473 H 625.838 -0.46755 5.50016 0
M  V30 6474 H 626.315 -1.47627 4.13646 0
M  V30 6475 H 626.921 0.192159 4.24866 0
M  V30 6476 N 625.236 -1.5273 0.388769 0
M  V30 6477 C 626.485 -2.00757 -0.194833 0
M  V30 6478 C 626.798 -1.27951 -1.47946 0
M  V30 6479 O 628.004 -1.66686 -2.14308 0
M  V30 6480 C 626.46 -3.57695 -0.397762 0
M  V30 6481 C 626.068 -4.394 0.873583 0
M  V30 6482 C 627.812 -4.14012 -0.937759 0
M  V30 6483 C 625.719 -5.87938 0.638962 0
M  V30 6484 H 624.649 -0.750101 -0.0765845 0
M  V30 6485 H 627.3 -1.76239 0.511086 0
M  V30 6486 H 625.682 -3.7846 -1.16552 0
M  V30 6487 H 626.856 -4.30403 1.64591 0
M  V30 6488 H 625.171 -3.94301 1.33849 0
M  V30 6489 H 627.768 -5.22645 -1.12899 0
M  V30 6490 H 628.111 -3.7007 -1.90666 0
M  V30 6491 H 628.644 -3.97137 -0.229588 0
M  V30 6492 H 625.383 -6.36202 1.57885 0
M  V30 6493 H 624.903 -5.99726 -0.094443 0
M  V30 6494 H 626.582 -6.46423 0.273299 0
M  V30 6495 N 626.714 -0.118576 -1.57153 0
M  V30 6496 C 627.954 0.542618 -1.97066 0
M  V30 6497 C 628.318 1.63874 -1.00046 0
M  V30 6498 O 629.519 2.3588 -1.28895 0
M  V30 6499 C 627.79 1.06196 -3.41258 0
M  V30 6500 S 629.349 1.73174 -4.03183 0
M  V30 6501 H 626.167 0.17638 -0.688775 0
M  V30 6502 H 628.769 -0.203556 -1.94437 0
M  V30 6503 H 627.473 0.253016 -4.09619 0
M  V30 6504 H 627.004 1.84342 -3.47536 0
M  V30 6505 H 629.019 3.01749 -3.93906 0
M  V30 6506 N 628.193 1.56834 0.155195 0
M  V30 6507 C 629.156 1.96748 1.17571 0
M  V30 6508 C 630.156 0.853006 1.3631 0
M  V30 6509 O 631.346 1.11978 1.33441 0
M  V30 6510 C 628.478 2.27631 2.53765 0
M  V30 6511 H 629.671 2.88085 0.833498 0
M  V30 6512 H 627.224 1.51141 0.398242 0
M  V30 6513 H 627.959 1.39059 2.92973 0
M  V30 6514 H 627.744 3.0888 2.41527 0
M  V30 6515 H 629.234 2.59377 3.27282 0
M  V30 6516 N 629.671 -0.424282 1.51781 0
M  V30 6517 C 630.601 -1.52305 1.7699 0
M  V30 6518 C 631.582 -1.5839 0.620209 0
M  V30 6519 O 632.767 -1.73908 0.864268 0
M  V30 6520 C 629.897 -2.90271 1.90683 0
M  V30 6521 C 628.851 -2.99043 3.06198 0
M  V30 6522 C 628.177 -4.39116 3.05092 0
M  V30 6523 C 629.477 -2.7192 4.45934 0
M  V30 6524 H 631.171 -1.31461 2.68995 0
M  V30 6525 H 628.717 -0.630985 1.29439 0
M  V30 6526 H 630.67 -3.6711 2.06901 0
M  V30 6527 H 629.394 -3.12376 0.953365 0
M  V30 6528 H 628.053 -2.24646 2.89706 0
M  V30 6529 H 627.701 -4.58207 2.07498 0
M  V30 6530 H 627.401 -4.45912 3.82669 0
M  V30 6531 H 628.925 -5.17911 3.2342 0
M  V30 6532 H 630.339 -3.38487 4.62709 0
M  V30 6533 H 628.736 -2.90111 5.25315 0
M  V30 6534 H 629.806 -1.67445 4.55072 0
M  V30 6535 N 631.149 -1.42148 -0.680565 0
M  V30 6536 C 632.397 -1.42029 -1.43779 0
M  V30 6537 C 632.718 -0.0356347 -1.94967 0
M  V30 6538 O 631.988 0.924936 -1.7269 0
M  V30 6539 H 630.568 -0.522835 -0.533529 0
M  V30 6540 H 633.23 -1.7752 -0.804538 0
M  V30 6541 H 632.326 -2.11658 -2.29363 0
M  V30 6542 N 632.627 0.916307 -1.28225 0
M  V30 6543 C 633.904 1.64429 -1.05936 0
M  V30 6544 C 634.284 2.07234 0.402139 0
M  V30 6545 O 633.632 1.81535 1.3877 0
M  V30 6546 C 633.842 2.83773 -2.03159 0
M  V30 6547 C 635.19 3.54852 -2.33164 0
M  V30 6548 O 636.214 2.93918 -2.01223 0
M  V30 6549 O 635.073 4.64663 -2.87664 0
M  V30 6550 H 632.167 0.721221 -0.404683 0
M  V30 6551 H 634.713 0.965838 -1.39534 0
M  V30 6552 H 633.485 2.49217 -3.01673 0
M  V30 6553 H 633.108 3.59333 -1.70192 0
M  V30 6554 N 634.105 1.10431 1.1244 0
M  V30 6555 C 635.353 0.845045 1.83585 0
M  V30 6556 C 635.674 -0.631168 1.84503 0
M  V30 6557 O 634.944 -1.45825 1.30813 0
M  V30 6558 H 633.524 0.309628 0.679809 0
M  V30 6559 H 636.186 1.39458 1.36153 0
M  V30 6560 H 635.282 1.20786 2.8778 0
M  V30 6561 N 635.583 -1.29855 0.893053 0
M  V30 6562 C 636.546 -2.26183 0.370687 0
M  V30 6563 C 637.546 -1.53108 -0.491385 0
M  V30 6564 O 638.736 -1.71643 -0.297386 0
M  V30 6565 C 635.868 -3.37633 -0.470827 0
M  V30 6566 H 637.061 -2.73903 1.22135 0
M  V30 6567 H 634.614 -1.41183 0.67061 0
M  V30 6568 H 635.349 -2.95241 -1.34175 0
M  V30 6569 H 635.134 -3.91825 0.146784 0
M  V30 6570 H 636.624 -4.09313 -0.827825 0
M  V30 6571 N 637.061 -0.65484 -1.43351 0
M  V30 6572 C 638.024 0.0263562 -2.29185 0
M  V30 6573 C 639.024 0.748951 -1.42293 0
M  V30 6574 O 640.214 0.589957 -1.63906 0
M  V30 6575 C 637.346 1.04806 -3.2439 0
M  V30 6576 H 638.539 -0.728883 -2.90908 0
M  V30 6577 H 636.092 -0.416149 -1.50658 0
M  V30 6578 H 636.827 1.83247 -2.67565 0
M  V30 6579 H 636.612 0.533554 -3.88453 0
M  V30 6580 H 638.102 1.52372 -3.88809 0
M  V30 6581 N 638.539 1.52521 -0.396863 0
M  V30 6582 C 639.785 2.02641 0.175606 0
M  V30 6583 C 640.14 1.27782 1.43839 0
M  V30 6584 O 639.433 0.371921 1.87956 0
M  V30 6585 C 639.627 3.5403 0.489677 0
M  V30 6586 C 639.456 4.43551 -0.741113 0
M  V30 6587 C 638.226 4.8927 -1.26265 0
M  V30 6588 C 640.424 4.88263 -1.61565 0
M  V30 6589 N 638.406 5.62884 -2.4502 0
M  V30 6590 C 639.777 5.60534 -2.64955 0
M  V30 6591 C 641.832 4.70294 -1.63486 0
M  V30 6592 C 640.535 6.16744 -3.70162 0
M  V30 6593 C 642.561 5.27392 -2.67603 0
M  V30 6594 C 641.923 5.99575 -3.69715 0
M  V30 6595 H 638.022 0.781563 0.0261477 0
M  V30 6596 H 640.606 1.86816 -0.548454 0
M  V30 6597 H 638.777 3.69952 1.18279 0
M  V30 6598 H 640.509 3.90843 1.04996 0
M  V30 6599 H 637.264 4.66403 -0.822509 0
M  V30 6600 H 637.688 6.04339 -3.05128 0
M  V30 6601 H 642.33 4.13985 -0.858848 0
M  V30 6602 H 640.048 6.72131 -4.48626 0
M  V30 6603 H 643.634 5.15365 -2.69982 0
M  V30 6604 H 642.514 6.42967 -4.48958 0
M  V30 6605 N 640.017 0.126909 1.57088 0
M  V30 6606 C 641.428 -0.397201 1.82426 0
M  V30 6607 C 641.779 -1.66084 1.04453 0
M  V30 6608 O 640.904 -2.14534 0.283552 0
M  V30 6609 C 641.499 -0.727411 3.30899 0
M  V30 6610 C 640.058 -1.19612 3.56889 0
M  V30 6611 C 639.205 -0.20885 2.76512 0
M  V30 6612 H 642.156 0.351924 1.54749 0
M  V30 6613 H 642.177 -1.58407 3.45959 0
M  V30 6614 H 641.689 0.19247 3.87622 0
M  V30 6615 H 639.79 -2.13263 3.05532 0
M  V30 6616 H 639.903 -1.13598 4.65438 0
M  V30 6617 H 638.267 -0.697479 2.44964 0
M  V30 6618 H 639.05 0.704267 3.35998 0
M  V30 6619 N 641.495 -1.56914 -0.146875 0
M  V30 6620 C 642.741 -1.83628 -0.860741 0
M  V30 6621 C 643.074 -0.708528 -1.80813 0
M  V30 6622 O 642.349 0.287838 -1.92358 0
M  V30 6623 C 642.632 -3.20836 -1.63511 0
M  V30 6624 C 642.485 -4.44174 -0.709199 0
M  V30 6625 C 643.804 -3.55268 -2.59756 0
M  V30 6626 H 640.923 -0.667949 -0.311468 0
M  V30 6627 H 643.565 -1.89582 -0.125936 0
M  V30 6628 H 641.715 -3.15891 -2.26153 0
M  V30 6629 H 643.387 -4.61205 -0.0937781 0
M  V30 6630 H 641.63 -4.33796 -0.0187856 0
M  V30 6631 H 642.301 -5.36785 -1.28707 0
M  V30 6632 H 644.777 -3.60824 -2.07232 0
M  V30 6633 H 643.653 -4.52303 -3.10987 0
M  V30 6634 H 643.914 -2.81231 -3.41118 0
M  V30 6635 N 642.974 0.416227 -1.52004 0
M  V30 6636 C 643.906 1.52552 -1.71058 0
M  V30 6637 C 644.919 1.51693 -0.59102 0
M  V30 6638 O 646.108 1.56087 -0.865973 0
M  V30 6639 C 643.208 2.91455 -1.72937 0
M  V30 6640 C 642.381 3.16584 -3.01816 0
M  V30 6641 C 641.44 4.35322 -2.95603 0
M  V30 6642 O 640.466 4.32947 -3.6952 0
M  V30 6643 N 641.668 5.40049 -2.12903 0
M  V30 6644 H 644.433 1.36604 -2.66757 0
M  V30 6645 H 641.994 0.60544 -1.50153 0
M  V30 6646 H 643.986 3.68944 -1.66321 0
M  V30 6647 H 642.556 3.00895 -0.847418 0
M  V30 6648 H 641.776 2.27203 -3.22137 0
M  V30 6649 H 643.064 3.30213 -3.87088 0
M  V30 6650 H 642.462 5.44823 -1.52265 0
M  V30 6651 H 641.019 6.16308 -2.1215 0
M  V30 6652 N 644.452 1.42507 0.673017 0
M  V30 6653 C 645.7 1.42789 1.43023 0
M  V30 6654 C 646.021 0.0459738 1.94946 0
M  V30 6655 O 645.291 -0.915765 1.73178 0
M  V30 6656 H 643.871 0.525657 0.530748 0
M  V30 6657 H 646.533 1.77944 0.795113 0
M  V30 6658 H 645.629 2.12872 2.28237 0
M  V30 6659 N 645.93 -0.909495 1.28709 0
M  V30 6660 C 646.86 -2.0291 1.15542 0
M  V30 6661 C 647.841 -1.7002 0.0521017 0
M  V30 6662 O 649.026 -1.92835 0.229849 0
M  V30 6663 C 646.156 -3.37458 0.820935 0
M  V30 6664 C 645.11 -3.84524 1.87949 0
M  V30 6665 C 644.436 -5.16086 1.39854 0
M  V30 6666 C 645.736 -4.05918 3.28676 0
M  V30 6667 H 647.43 -2.14183 2.09203 0
M  V30 6668 H 644.976 -1.02913 1.00722 0
M  V30 6669 H 646.929 -4.1528 0.715571 0
M  V30 6670 H 645.653 -3.26249 -0.151374 0
M  V30 6671 H 644.312 -3.08911 1.97408 0
M  V30 6672 H 643.96 -5.01284 0.41518 0
M  V30 6673 H 643.66 -5.48547 2.1064 0
M  V30 6674 H 645.184 -5.96459 1.30649 0
M  V30 6675 H 646.598 -4.74252 3.22115 0
M  V30 6676 H 644.995 -4.49717 3.97334 0
M  V30 6677 H 646.065 -3.10583 3.72379 0
M  V30 6678 N 647.408 -1.11026 -1.11852 0
M  V30 6679 C 648.657 -0.851249 -1.82857 0
M  V30 6680 C 648.97 0.62514 -1.85341 0
M  V30 6681 O 650.176 1.00026 -2.52403 0
M  V30 6682 C 648.632 -1.47309 -3.28372 0
M  V30 6683 C 648.24 -2.9832 -3.34229 0
M  V30 6684 C 649.984 -1.29373 -4.04306 0
M  V30 6685 C 647.891 -3.53509 -4.74115 0
M  V30 6686 H 646.821 -0.314794 -0.685143 0
M  V30 6687 H 649.472 -1.33499 -1.25898 0
M  V30 6688 H 647.854 -0.917017 -3.85236 0
M  V30 6689 H 649.028 -3.60295 -2.87271 0
M  V30 6690 H 647.343 -3.15482 -2.71772 0
M  V30 6691 H 649.94 -1.68042 -5.07608 0
M  V30 6692 H 650.283 -0.235879 -4.15631 0
M  V30 6693 H 650.816 -1.8182 -3.53817 0
M  V30 6694 H 647.555 -4.58987 -4.67986 0
M  V30 6695 H 647.075 -2.96305 -5.21501 0
M  V30 6696 H 648.754 -3.51693 -5.43066 0
M  V30 6697 N 648.886 1.2938 -0.899927 0
M  V30 6698 C 650.302 1.48052 -0.596059 0
M  V30 6699 C 650.502 1.82114 0.862372 0
M  V30 6700 O 649.558 1.91774 1.64253 0
M  V30 6701 C 650.871 2.59332 -1.52208 0
M  V30 6702 C 652.419 2.73208 -1.5273 0
M  V30 6703 C 652.894 3.87617 -2.43961 0
M  V30 6704 N 654.385 3.9495 -2.42009 0
M  V30 6705 C 655.12 4.82824 -3.09303 0
M  V30 6706 N 654.616 5.75387 -3.85877 0
M  V30 6707 N 656.409 4.76317 -2.98459 0
M  V30 6708 H 648.56 1.05546 -1.8432 0
M  V30 6709 H 650.823 0.524314 -0.78981 0
M  V30 6710 H 650.529 2.41029 -2.56121 0
M  V30 6711 H 650.403 3.56139 -1.24278 0
M  V30 6712 H 652.79 2.90908 -0.495614 0
M  V30 6713 H 652.871 1.76975 -1.84698 0
M  V30 6714 H 652.515 3.70672 -3.47224 0
M  V30 6715 H 652.445 4.83218 -2.09303 0
M  V30 6716 H 654.936 3.28744 -1.86375 0
M  V30 6717 H 655.249 6.39235 -4.34279 0
M  V30 6718 H 653.594 5.75272 -3.89984 0
M  V30 6719 H 656.785 4.0299 -2.38152 0
M  V30 6720 H 656.958 5.44589 -3.51179 0
M  V30 6721 N 650.364 0.662433 1.43002 0
M  V30 6722 C 651.314 -0.0460442 2.27954 0
M  V30 6723 C 652.298 -0.785753 1.40409 0
M  V30 6724 O 653.49 -0.666701 1.63964 0
M  V30 6725 C 650.619 -1.00532 3.2825 0
M  V30 6726 C 649.705 -0.263604 4.2328 0
M  V30 6727 N 650.096 0.724855 5.00579 0
M  V30 6728 C 648.394 -0.503778 4.43146 0
M  V30 6729 C 649.095 1.16594 5.69895 0
M  V30 6730 N 648.071 0.498345 5.41311 0
M  V30 6731 H 651.873 0.712314 2.85137 0
M  V30 6732 H 649.387 0.490469 1.54817 0
M  V30 6733 H 651.384 -1.52775 3.87899 0
M  V30 6734 H 650.044 -1.76364 2.72628 0
M  V30 6735 H 651.055 1.10393 5.05998 0
M  V30 6736 H 647.732 -1.24255 3.98581 0
M  V30 6737 H 649.122 1.98434 6.4193 0
M  V30 6738 N 651.842 -1.52309 0.404946 0
M  V30 6739 C 653.089 -2.01767 -0.1722 0
M  V30 6740 C 653.417 -1.29075 -1.45498 0
M  V30 6741 O 652.672 -0.3843 -1.9189 0
M  V30 6742 C 652.971 -3.54284 -0.470895 0
M  V30 6743 C 652.637 -4.45079 0.722194 0
M  V30 6744 C 651.299 -4.69617 1.04946 0
M  V30 6745 C 653.651 -4.98555 1.51962 0
M  V30 6746 C 650.979 -5.44878 2.17543 0
M  V30 6747 C 653.331 -5.75049 2.63632 0
M  V30 6748 C 651.995 -5.9786 2.9685 0
M  V30 6749 H 651.265 -0.738316 -0.0630125 0
M  V30 6750 H 653.912 -1.83566 0.545506 0
M  V30 6751 H 652.217 -3.70642 -1.27012 0
M  V30 6752 H 653.914 -3.90058 -0.930346 0
M  V30 6753 H 650.504 -4.26155 0.457131 0
M  V30 6754 H 654.688 -4.79509 1.28002 0
M  V30 6755 H 649.944 -5.60762 2.43631 0
M  V30 6756 H 654.118 -6.15483 3.25813 0
M  V30 6757 H 651.745 -6.5596 3.84215 0
M  V30 6758 N 653.32 -0.135238 -1.57019 0
M  V30 6759 C 654.736 0.221262 -1.58059 0
M  V30 6760 C 654.936 1.65538 -1.14889 0
M  V30 6761 O 653.992 2.37985 -0.843751 0
M  V30 6762 C 655.305 -0.0268114 -3.00688 0
M  V30 6763 C 656.853 0.0378206 -3.12977 0
M  V30 6764 C 657.328 -0.182769 -4.57635 0
M  V30 6765 N 658.819 -0.129292 -4.6302 0
M  V30 6766 C 659.554 -0.274648 -5.72742 0
M  V30 6767 N 659.05 -0.477075 -6.91155 0
M  V30 6768 N 660.843 -0.213077 -5.61696 0
M  V30 6769 H 652.994 -1.07177 -1.83376 0
M  V30 6770 H 655.257 -0.423338 -0.848227 0
M  V30 6771 H 654.963 -1.01889 -3.36618 0
M  V30 6772 H 654.837 0.697863 -3.70688 0
M  V30 6773 H 657.224 1.02043 -2.76896 0
M  V30 6774 H 657.305 -0.718996 -2.45487 0
M  V30 6775 H 656.949 -1.16243 -4.94419 0
M  V30 6776 H 656.879 0.59423 -5.23237 0
M  V30 6777 H 659.37 0.0229896 -3.77893 0
M  V30 6778 H 659.683 -0.578413 -7.70632 0
M  V30 6779 H 658.028 -0.513252 -6.93102 0
M  V30 6780 H 661.219 -0.0557796 -4.68067 0
M  V30 6781 H 661.392 -0.329796 -6.4716 0
M  V30 6782 N 654.798 1.5699 0.138552 0
M  V30 6783 C 656.209 1.73171 0.697754 0
M  V30 6784 C 656.56 0.750952 1.8126 0
M  V30 6785 O 655.685 -0.080549 2.1625 0
M  V30 6786 C 656.28 3.13996 1.27248 0
M  V30 6787 C 654.839 3.3175 1.77816 0
M  V30 6788 C 653.986 2.69084 0.669991 0
M  V30 6789 H 656.937 1.5846 -0.0871979 0
M  V30 6790 H 656.958 3.14463 2.14227 0
M  V30 6791 H 656.47 3.85354 0.460855 0
M  V30 6792 H 654.571 2.65403 2.61519 0
M  V30 6793 H 654.684 4.39768 1.90107 0
M  V30 6794 H 653.048 2.29782 1.09874 0
M  V30 6795 H 653.831 3.43053 -0.130329 0
M  V30 6796 N 656.276 -0.40816 1.52223 0
M  V30 6797 C 657.186 -1.52202 1.78526 0
M  V30 6798 C 658.202 -1.60546 0.670892 0
M  V30 6799 O 659.378 -1.77242 0.956404 0
M  V30 6800 C 656.443 -2.87928 1.93128 0
M  V30 6801 C 655.504 -2.89463 3.17033 0
M  V30 6802 C 654.737 -4.18715 3.30929 0
M  V30 6803 O 654.96 -5.12662 2.50067 0
M  V30 6804 O 653.894 -4.27125 4.24084 0
M  V30 6805 H 657.72 -1.32911 2.73072 0
M  V30 6806 H 655.305 -0.594112 1.37079 0
M  V30 6807 H 657.187 -3.68426 2.04549 0
M  V30 6808 H 655.862 -3.07285 1.01772 0
M  V30 6809 H 654.769 -2.07815 3.11069 0
M  V30 6810 H 656.102 -2.75055 4.08174 0
M  V30 6811 N 657.755 -1.42862 -0.66545 0
M  V30 6812 C 658.685 -1.49867 -1.79059 0
M  V30 6813 C 659.666 -0.354394 -1.66367 0
M  V30 6814 O 660.851 -0.569969 -1.85647 0
M  V30 6815 C 657.981 -1.40943 -3.17415 0
M  V30 6816 C 656.935 -2.53495 -3.44854 0
M  V30 6817 C 656.261 -2.29626 -4.82883 0
M  V30 6818 C 657.561 -3.95781 -3.40815 0
M  V30 6819 H 659.255 -2.44037 -1.73453 0
M  V30 6820 H 656.801 -1.17456 -0.833071 0
M  V30 6821 H 658.754 -1.4445 -3.95869 0
M  V30 6822 H 657.478 -0.432716 -3.23721 0
M  V30 6823 H 656.137 -2.4932 -2.68766 0
M  V30 6824 H 655.785 -1.30226 -4.8585 0
M  V30 6825 H 655.485 -3.05065 -5.02204 0
M  V30 6826 H 657.009 -2.34897 -5.63609 0
M  V30 6827 H 658.423 -4.01508 -4.09224 0
M  V30 6828 H 656.82 -4.71148 -3.71672 0
M  V30 6829 H 657.89 -4.21786 -2.39216 0
M  V30 6830 N 659.233 0.902656 -1.29189 0
M  V30 6831 C 660.143 2.03946 -1.15944 0
M  V30 6832 C 661.159 1.738 -0.0833803 0
M  V30 6833 O 662.335 1.9923 -0.29487 0
M  V30 6834 C 659.4 3.36519 -0.834006 0
M  V30 6835 C 658.461 3.80203 -1.9936 0
M  V30 6836 C 657.694 5.06449 -1.68359 0
M  V30 6837 O 657.917 5.67202 -0.603141 0
M  V30 6838 O 656.851 5.46114 -2.53067 0
M  V30 6839 H 660.677 2.18043 -2.11403 0
M  V30 6840 H 658.262 1.02584 -1.08613 0
M  V30 6841 H 660.144 4.16089 -0.666949 0
M  V30 6842 H 658.819 3.23573 0.0908245 0
M  V30 6843 H 657.726 3.01413 -2.21588 0
M  V30 6844 H 659.059 3.97729 -2.89952 0
M  V30 6845 N 660.711 1.11618 1.11262 0
M  V30 6846 C 661.621 0.78898 2.20935 0
M  V30 6847 C 662.637 -0.21867 1.7262 0
M  V30 6848 O 663.813 -0.0543826 2.01327 0
M  V30 6849 C 660.878 0.239014 3.45875 0
M  V30 6850 C 659.939 1.3055 4.08968 0
M  V30 6851 C 659.172 0.781687 5.27944 0
M  V30 6852 O 659.395 -0.387605 5.69082 0
M  V30 6853 O 658.329 1.54734 5.81671 0
M  V30 6854 H 662.155 1.70477 2.51339 0
M  V30 6855 H 659.74 0.892203 1.19834 0
M  V30 6856 H 661.622 -0.0632312 4.21353 0
M  V30 6857 H 660.297 -0.649454 3.17118 0
M  V30 6858 H 659.204 1.66079 3.35214 0
M  V30 6859 H 660.537 2.16743 4.41909 0
M  V30 6860 N 662.189 -1.289 0.906776 0
M  V30 6861 C 663.605 -1.47733 0.603902 0
M  V30 6862 C 663.805 -1.82568 -0.852702 0
M  V30 6863 O 662.861 -1.92642 -1.63234 0
M  V30 6864 C 664.174 -2.58522 1.53581 0
M  V30 6865 C 665.722 -2.72394 1.54177 0
M  V30 6866 C 666.197 -3.86318 2.46013 0
M  V30 6867 N 667.688 -3.93661 2.441 0
M  V30 6868 C 668.423 -4.81177 3.11859 0
M  V30 6869 N 667.919 -5.73333 3.88923 0
M  V30 6870 N 669.712 -4.74728 3.00981 0
M  V30 6871 H 661.863 -1.04567 1.84877 0
M  V30 6872 H 664.126 -0.520118 0.792579 0
M  V30 6873 H 663.832 -2.39667 2.57396 0
M  V30 6874 H 663.706 -3.55475 1.26165 0
M  V30 6875 H 666.093 -2.90641 0.511034 0
M  V30 6876 H 666.174 -1.75993 1.85634 0
M  V30 6877 H 665.818 -3.68826 3.49185 0
M  V30 6878 H 665.748 -4.82102 2.11862 0
M  V30 6879 H 668.239 -3.27751 1.88115 0
M  V30 6880 H 668.552 -6.36923 4.37663 0
M  V30 6881 H 666.897 -5.73196 3.93029 0
M  V30 6882 H 670.088 -4.01722 2.40286 0
M  V30 6883 H 670.261 -5.42719 3.54062 0
M  V30 6884 N 663.667 -0.670007 -1.42649 0
M  V30 6885 C 664.6 0.0613623 -2.28117 0
M  V30 6886 C 665.578 0.813414 -1.40792 0
M  V30 6887 O 666.762 0.809529 -1.70232 0
M  V30 6888 C 663.889 1.09399 -3.20546 0
M  V30 6889 C 662.935 0.438064 -4.24244 0
M  V30 6890 S 663.768 -0.800808 -5.29478 0
M  V30 6891 C 664.924 0.23086 -6.25474 0
M  V30 6892 H 665.157 -0.663606 -2.89799 0
M  V30 6893 H 662.69 -0.45939 -1.47407 0
M  V30 6894 H 664.648 1.68469 -3.74337 0
M  V30 6895 H 663.309 1.79137 -2.58009 0
M  V30 6896 H 662.502 1.21707 -4.89084 0
M  V30 6897 H 662.104 -0.0789346 -3.73917 0
M  V30 6898 H 664.396 1.09204 -6.68641 0
M  V30 6899 H 665.339 -0.382945 -7.07064 0
M  V30 6900 H 665.747 0.574191 -5.61572 0
M  V30 6901 N 665.145 1.52092 -0.413018 0
M  V30 6902 C 666.077 2.24819 0.445994 0
M  V30 6903 C 667.09 1.27925 1.00692 0
M  V30 6904 O 668.279 1.53845 0.905204 0
M  V30 6905 C 665.379 2.96951 1.6332 0
M  V30 6906 C 664.552 4.20746 1.19548 0
M  V30 6907 C 663.611 4.75668 2.25003 0
M  V30 6908 O 662.637 5.38148 1.85434 0
M  V30 6909 N 663.839 4.57579 3.57214 0
M  V30 6910 H 666.604 2.99176 -0.177209 0
M  V30 6911 H 664.165 1.60102 -0.240601 0
M  V30 6912 H 666.157 3.30586 2.33441 0
M  V30 6913 H 664.727 2.25756 2.16225 0
M  V30 6914 H 663.947 3.92881 0.32224 0
M  V30 6915 H 665.235 5.01132 0.880033 0
M  V30 6916 H 664.633 4.07758 3.92109 0
M  V30 6917 H 663.19 4.95642 4.23299 0
M  V30 6918 N 666.623 0.143563 1.56945 0
M  V30 6919 C 668.039 -0.212877 1.58174 0
M  V30 6920 C 668.239 -1.64926 1.15766 0
M  V30 6921 O 667.295 -2.37535 0.856361 0
M  V30 6922 C 668.608 0.0427573 3.0067 0
M  V30 6923 C 670.156 -0.0212221 3.12993 0
M  V30 6924 C 670.631 0.207036 4.57532 0
M  V30 6925 N 672.122 0.153845 4.62944 0
M  V30 6926 C 672.857 0.305018 5.72588 0
M  V30 6927 N 672.353 0.513722 6.90893 0
M  V30 6928 N 674.146 0.242862 5.61575 0
M  V30 6929 H 666.297 1.08148 1.82805 0
M  V30 6930 H 668.56 0.427831 0.84597 0
M  V30 6931 H 668.266 1.03672 3.36073 0
M  V30 6932 H 668.14 -0.678195 3.71053 0
M  V30 6933 H 670.527 -1.00574 2.77433 0
M  V30 6934 H 670.608 0.732004 2.45103 0
M  V30 6935 H 670.252 1.18863 4.93795 0
M  V30 6936 H 670.182 -0.566473 5.23544 0
M  V30 6937 H 672.673 -0.00294866 3.779 0
M  V30 6938 H 672.986 0.619273 7.70315 0
M  V30 6939 H 671.331 0.550001 6.9282 0
M  V30 6940 H 674.522 0.0806015 4.68031 0
M  V30 6941 H 674.695 0.364112 6.46976 0
M  V30 6942 N 668.101 -1.57061 -0.130224 0
M  V30 6943 C 669.348 -1.84257 -0.839972 0
M  V30 6944 C 669.676 -0.726986 -1.80403 0
M  V30 6945 O 668.931 0.282632 -1.93648 0
M  V30 6946 C 669.23 -3.17878 -1.63365 0
M  V30 6947 C 668.896 -4.43475 -0.814891 0
M  V30 6948 C 667.558 -4.77581 -0.589066 0
M  V30 6949 C 669.91 -5.20631 -0.243437 0
M  V30 6950 C 667.238 -5.86292 0.218648 0
M  V30 6951 C 669.59 -6.30192 0.551408 0
M  V30 6952 C 668.254 -6.62837 0.787653 0
M  V30 6953 H 667.524 -0.674245 -0.307367 0
M  V30 6954 H 670.171 -1.91224 -0.102832 0
M  V30 6955 H 668.476 -3.06437 -2.44138 0
M  V30 6956 H 670.173 -3.3614 -2.18658 0
M  V30 6957 H 666.763 -4.16747 -1.00098 0
M  V30 6958 H 670.947 -4.94644 -0.405145 0
M  V30 6959 H 666.203 -6.10017 0.411016 0
M  V30 6960 H 670.377 -6.89165 1.00126 0
M  V30 6961 H 668.004 -7.46908 1.41537 0
M  V30 6962 N 669.579 0.400081 -1.52437 0
M  V30 6963 C 670.542 1.4707 -1.75793 0
M  V30 6964 C 671.542 1.48036 -0.627856 0
M  V30 6965 O 672.732 1.49401 -0.895817 0
M  V30 6966 C 669.864 2.86427 -1.84858 0
M  V30 6967 H 671.057 1.27649 -2.71377 0
M  V30 6968 H 668.61 0.631141 -1.42991 0
M  V30 6969 H 669.345 3.11207 -0.912194 0
M  V30 6970 H 669.13 2.87128 -2.6702 0
M  V30 6971 H 670.62 3.64023 -2.04638 0
M  V30 6972 N 671.057 1.43213 0.657864 0
M  V30 6973 C 671.989 1.43974 1.78337 0
M  V30 6974 C 673.002 0.336482 1.59285 0
M  V30 6975 O 674.191 0.600631 1.68091 0
M  V30 6976 C 671.291 1.23242 3.15697 0
M  V30 6977 C 670.464 2.46319 3.61449 0
M  V30 6978 C 669.523 2.2088 4.77597 0
M  V30 6979 O 668.549 2.942 4.87273 0
M  V30 6980 N 669.751 1.22251 5.67481 0
M  V30 6981 H 672.516 2.40993 1.78164 0
M  V30 6982 H 670.077 1.3831 0.841549 0
M  V30 6983 H 672.069 1.04113 3.91079 0
M  V30 6984 H 670.639 0.346849 3.1067 0
M  V30 6985 H 669.859 2.80904 2.76563 0
M  V30 6986 H 671.147 3.28239 3.88763 0
M  V30 6987 H 670.545 0.616433 5.62331 0
M  V30 6988 H 669.102 1.09107 6.42603 0
M  V30 6989 N 672.536 -0.895792 1.29666 0
M  V30 6990 C 673.468 -2.00563 1.10937 0
M  V30 6991 C 674.481 -1.62705 0.055734 0
M  V30 6992 O 675.67 -1.7595 0.300656 0
M  V30 6993 C 672.77 -3.32262 0.667448 0
M  V30 6994 C 671.943 -3.98625 1.80047 0
M  V30 6995 C 671.002 -5.08617 1.3489 0
M  V30 6996 O 670.028 -5.30837 2.05429 0
M  V30 6997 N 671.23 -5.80076 0.221937 0
M  V30 6998 H 673.995 -2.17184 2.06522 0
M  V30 6999 H 671.556 -1.06822 1.21658 0
M  V30 7000 H 673.548 -4.03196 0.348586 0
M  V30 7001 H 672.118 -3.11985 -0.196055 0
M  V30 7002 H 671.338 -3.21005 2.28801 0
M  V30 7003 H 672.626 -4.39704 2.56003 0
M  V30 7004 H 672.024 -5.64514 -0.366084 0
M  V30 7005 H 670.581 -6.51789 -0.0375346 0
M  V30 7006 N 674.014 -1.12206 -1.10668 0
M  V30 7007 C 674.964 -0.75669 -2.15077 0
M  V30 7008 C 675.948 0.243154 -1.59052 0
M  V30 7009 O 677.14 0.0490268 -1.76932 0
M  V30 7010 C 674.269 -0.210303 -3.42655 0
M  V30 7011 C 673.355 -1.23829 -4.05619 0
M  V30 7012 N 673.746 -2.43513 -4.43323 0
M  V30 7013 C 672.044 -1.08309 -4.32649 0
M  V30 7014 C 672.745 -3.09138 -4.92756 0
M  V30 7015 N 671.721 -2.36593 -4.89413 0
M  V30 7016 H 675.523 -1.66747 -2.42018 0
M  V30 7017 H 673.037 -1.00248 -1.27765 0
M  V30 7018 H 675.034 0.0696287 -4.16842 0
M  V30 7019 H 673.694 0.694967 -3.17176 0
M  V30 7020 H 674.705 -2.80912 -4.35097 0
M  V30 7021 H 671.382 -0.234919 -4.16839 0
M  V30 7022 H 672.772 -4.11049 -5.31496 0
M  V30 7023 N 675.492 1.28418 -0.913599 0
M  V30 7024 C 676.424 2.26368 -0.359169 0
M  V30 7025 C 677.437 1.54858 0.502285 0
M  V30 7026 O 678.626 1.75659 0.31719 0
M  V30 7027 C 675.726 3.35112 0.50526 0
M  V30 7028 C 674.899 4.36126 -0.333648 0
M  V30 7029 C 673.958 5.24134 0.465845 0
M  V30 7030 O 672.984 5.6907 -0.121538 0
M  V30 7031 N 674.186 5.52892 1.76891 0
M  V30 7032 H 676.951 2.74579 -1.2011 0
M  V30 7033 H 674.512 1.41898 -0.779532 0
M  V30 7034 H 676.504 3.90926 1.04684 0
M  V30 7035 H 675.074 2.86611 1.2479 0
M  V30 7036 H 674.294 3.79776 -1.0566 0
M  V30 7037 H 675.582 5.00638 -0.907669 0
M  V30 7038 H 674.98 5.18217 2.26865 0
M  V30 7039 H 673.537 6.11464 2.25732 0
M  V30 7040 N 676.97 0.677563 1.42291 0
M  V30 7041 C 677.933 0.0101085 2.29198 0
M  V30 7042 C 678.933 -0.726219 1.43467 0
M  V30 7043 O 680.123 -0.563807 1.64824 0
M  V30 7044 C 677.255 -0.996316 3.26016 0
M  V30 7045 H 678.448 0.775071 2.89711 0
M  V30 7046 H 676.001 0.440065 1.49977 0
M  V30 7047 H 676.736 -1.78967 2.70446 0
M  V30 7048 H 676.521 -0.471687 3.89253 0
M  V30 7049 H 678.011 -1.46167 3.91184 0
M  V30 7050 N 678.448 -1.51871 0.421078 0
M  V30 7051 C 679.864 -1.59435 0.0725398 0
M  V30 7052 C 680.064 -1.43315 -1.41644 0
M  V30 7053 O 679.12 -1.26614 -2.18461 0
M  V30 7054 C 680.433 -2.9509 0.578132 0
M  V30 7055 C 681.981 -3.08356 0.537149 0
M  V30 7056 C 682.456 -4.4651 1.01945 0
M  V30 7057 N 683.947 -4.52784 0.976758 0
M  V30 7058 C 684.682 -5.57976 1.32099 0
M  V30 7059 N 684.178 -6.70664 1.73727 0
M  V30 7060 N 685.971 -5.48248 1.2402 0
M  V30 7061 H 678.122 -1.60595 1.39007 0
M  V30 7062 H 680.385 -0.756138 0.571803 0
M  V30 7063 H 680.091 -3.12205 1.61929 0
M  V30 7064 H 679.965 -3.772 -0.00578374 0
M  V30 7065 H 682.352 -2.90919 -0.494991 0
M  V30 7066 H 682.433 -2.28125 1.15727 0
M  V30 7067 H 682.077 -4.64692 2.04997 0
M  V30 7068 H 682.007 -5.25256 0.376023 0
M  V30 7069 H 684.498 -3.71898 0.670851 0
M  V30 7070 H 684.811 -7.46932 1.98274 0
M  V30 7071 H 683.156 -6.71914 1.77641 0
M  V30 7072 H 686.347 -4.59095 0.913756 0
M  V30 7073 H 686.52 -6.30119 1.51176 0
M  V30 7074 N 679.926 -0.151884 -1.56866 0
M  V30 7075 C 680.858 0.817008 -2.14144 0
M  V30 7076 C 681.871 1.20735 -1.0921 0
M  V30 7077 O 683.06 1.15058 -1.36469 0
M  V30 7078 C 680.16 2.10844 -2.65326 0
M  V30 7079 C 679.333 1.88471 -3.94712 0
M  V30 7080 C 678.392 3.01649 -4.31155 0
M  V30 7081 O 677.418 2.73127 -4.9939 0
M  V30 7082 N 678.62 4.28947 -3.91132 0
M  V30 7083 H 681.385 0.327448 -2.97906 0
M  V30 7084 H 678.946 0.0315313 -1.61869 0
M  V30 7085 H 680.938 2.85616 -2.86715 0
M  V30 7086 H 679.508 2.51049 -1.86262 0
M  V30 7087 H 678.728 0.977088 -3.81899 0
M  V30 7088 H 680.016 1.70866 -4.79252 0
M  V30 7089 H 679.414 4.54986 -3.36161 0
M  V30 7090 H 677.971 5.00484 -4.17563 0
M  V30 7091 N 681.404 1.57128 0.121893 0
M  V30 7092 C 682.367 1.99197 1.13372 0
M  V30 7093 C 683.367 0.881728 1.3447 0
M  V30 7094 O 684.557 1.14783 1.31036 0
M  V30 7095 C 681.689 2.32963 2.4888 0
M  V30 7096 H 682.882 2.89788 0.772204 0
M  V30 7097 H 680.435 1.51952 0.366093 0
M  V30 7098 H 681.17 1.45243 2.89957 0
M  V30 7099 H 680.955 3.13934 2.34921 0
M  V30 7100 H 682.445 2.66261 3.21706 0
M  V30 7101 N 682.882 -0.391992 1.52647 0
M  V30 7102 C 683.845 -1.46135 1.7657 0
M  V30 7103 C 684.845 -1.47701 0.635698 0
M  V30 7104 O 686.035 -1.48924 0.903728 0
M  V30 7105 C 683.167 -2.85443 1.86374 0
M  V30 7106 H 684.36 -1.26208 2.72051 0
M  V30 7107 H 681.913 -0.623549 1.43323 0
M  V30 7108 H 682.648 -3.10718 0.928685 0
M  V30 7109 H 682.433 -2.85708 2.68539 0
M  V30 7110 H 683.923 -3.62933 2.06566 0
M  V30 7111 N 684.36 -1.4356 -0.65026 0
M  V30 7112 C 685.585 -1.48995 -1.44275 0
M  V30 7113 C 686.01 -0.109954 -1.87778 0
M  V30 7114 O 685.368 0.896926 -1.57559 0
M  V30 7115 C 685.416 -2.44341 -2.65198 0
M  V30 7116 O 684.52 -1.93172 -3.6436 0
M  V30 7117 H 683.861 -0.503852 -0.432469 0
M  V30 7118 H 686.391 -1.88504 -0.795446 0
M  V30 7119 H 686.401 -2.61743 -3.12977 0
M  V30 7120 H 685.076 -3.44588 -2.32877 0
M  V30 7121 H 683.653 -1.85445 -3.23519 0
M  V30 7122 O 685.877 0.793351 -1.40671 0
M  V30 7123 H 686.568 1.43915 -1.29646 0
M  V30 END ATOM
M  V30 BEGIN BOND
M  V30 END BOND
M  V30 END CTAB
M  END
$$$$
