drugbank_target|Q92952 Small conductance calcium-activated potassium channel protein 1 (DB00721; DB01110; DB09089)
 OpenBabel12092121003D

  0  0  0     0  0            999 V3000
M  V30 BEGIN CTAB
M  V30 COUNTS 8493 8593 0 0 0
M  V30 BEGIN ATOM
M  V30 1 H -0.908 1.98254 -0.117106 0
M  V30 2 N 0 1.576 0 0
M  V30 3 C 0.933 2.03868 1.02534 0
M  V30 4 C 1.911 0.928543 1.3348 0
M  V30 5 O 3.095 1.19667 1.45644 0
M  V30 6 C 0.222 2.43627 2.35294 0
M  V30 7 C -0.732 3.65373 2.2001 0
M  V30 8 S 0.101 5.13292 1.52614 0
M  V30 9 C 1.257 5.56322 2.86805 0
M  V30 10 H 1.49 2.90518 0.631377 0
M  V30 11 H -0.977 1.52953 0.210867 0
M  V30 12 H 0.981 2.67203 3.11629 0
M  V30 13 H -0.358 1.57376 2.7183 0
M  V30 14 H -1.165 3.90944 3.18086 0
M  V30 15 H -1.563 3.418 1.51819 0
M  V30 16 H 0.729 5.58782 3.83104 0
M  V30 17 H 1.672 6.56266 2.65933 0
M  V30 18 H 2.08 4.83886 2.90714 0
M  V30 19 N 1.4781 -0.272755 1.55222 0
M  V30 20 C 2.4261 -1.35705 1.88909 0
M  V30 21 C 3.4201 -1.5112 0.765456 0
M  V30 22 O 4.6261 -1.52901 0.949802 0
M  V30 23 H 1.0011 -0.453868 0.59959 0
M  V30 24 H 2.9721 -1.04544 2.79487 0
M  V30 25 C 1.7211 -2.71049 2.17779 0
M  V30 26 H 1.0441 -2.59979 3.03728 0
M  V30 27 H 2.4841 -3.45858 2.45272 0
M  V30 28 C 0.9431 -3.22165 0.985473 0
M  V30 29 O 1.4731 -4.01096 0.220233 0
M  V30 30 N -0.3209 -2.7985 0.783108 0
M  V30 31 H -0.7739 -2.15775 1.40708 0
M  V30 32 H -0.8159 -3.14397 -0.0130392 0
M  V30 33 N 2.9562 -1.48159 -0.537278 0
M  V30 34 C 4.1812 -1.59707 -1.32319 0
M  V30 35 C 4.6062 -0.254859 -1.86365 0
M  V30 36 O 3.9642 0.772378 -1.64024 0
M  V30 37 C 4.0122 -2.6412 -2.45505 0
M  V30 38 O 3.1162 -2.20774 -3.48328 0
M  V30 39 H 2.4572 -0.535791 -0.392204 0
M  V30 40 H 4.9872 -1.94092 -0.647268 0
M  V30 41 H 4.9972 -2.85166 -2.91795 0
M  V30 42 H 3.6722 -3.61567 -2.05528 0
M  V30 43 H 2.2492 -2.09911 -3.08207 0
M  V30 44 N 4.4343 0.785586 -1.36625 0
M  V30 45 C 5.3843 1.88822 -1.27789 0
M  V30 46 C 6.3683 1.60014 -0.168579 0
M  V30 47 O 7.5603 1.72381 -0.401737 0
M  V30 48 C 4.6893 3.26092 -1.07327 0
M  V30 49 C 3.7753 3.60897 -2.22743 0
M  V30 50 N 4.1663 3.66982 -3.48077 0
M  V30 51 C 2.4643 3.90981 -2.14593 0
M  V30 52 C 3.1653 3.98137 -4.24101 0
M  V30 53 N 2.1413 4.13319 -3.53084 0
M  V30 54 H 5.9433 1.91759 -2.22723 0
M  V30 55 H 3.4573 0.981311 -1.29399 0
M  V30 56 H 5.4543 4.04954 -0.990842 0
M  V30 57 H 4.1143 3.24428 -0.132977 0
M  V30 58 H 5.1253 3.49531 -3.82163 0
M  V30 59 H 1.8023 3.9722 -1.2854 0
M  V30 60 H 3.1923 4.09737 -5.32509 0
M  V30 61 N 5.9124 1.20967 1.01018 0
M  V30 62 C 7.1374 1.0503 1.78839 0
M  V30 63 C 7.5624 -0.395752 1.8389 0
M  V30 64 O 6.9204 -1.28529 1.27867 0
M  V30 65 C 6.9684 1.64602 3.2084 0
M  V30 66 O 6.0724 0.887988 4.02726 0
M  V30 67 H 5.4134 0.369987 0.551367 0
M  V30 68 H 7.9434 1.60399 1.27018 0
M  V30 69 H 7.9534 1.68607 3.71532 0
M  V30 70 H 6.6284 2.69841 3.16479 0
M  V30 71 H 5.2054 0.922648 3.61305 0
M  V30 72 N 7.3905 -1.2043 1.01659 0
M  V30 73 C 8.6205 -1.93496 0.724081 0
M  V30 74 C 9.0285 -1.74998 -0.71918 0
M  V30 75 O 8.3715 -1.06118 -1.49949 0
M  V30 76 C 8.4335 -3.45886 0.97994 0
M  V30 77 C 8.0975 -3.88145 2.41232 0
M  V30 78 C 9.0945 -3.93907 3.39313 0
M  V30 79 C 6.7795 -4.20134 2.75305 0
M  V30 80 C 8.7735 -4.31069 4.6953 0
M  V30 81 C 6.4605 -4.56971 4.05735 0
M  V30 82 C 7.4585 -4.62411 5.02658 0
M  V30 83 O 7.1465 -4.98403 6.30754 0
M  V30 84 H 6.8785 -0.621824 0.265162 0
M  V30 85 H 9.4325 -1.53867 1.36066 0
M  V30 86 H 7.6625 -3.85639 0.286198 0
M  V30 87 H 9.3515 -4.0018 0.679021 0
M  V30 88 H 10.1175 -3.69357 3.14325 0
M  V30 89 H 5.9965 -4.1509 2.00551 0
M  V30 90 H 9.5405 -4.3523 5.45179 0
M  V30 91 H 5.4375 -4.80977 4.30502 0
M  V30 92 H 6.2055 -5.16395 6.35042 0
M  V30 93 N 8.8686 -0.792821 -1.36206 0
M  V30 94 C 9.8166 -0.181555 -2.3189 0
M  V30 95 C 10.8106 0.661025 -1.55971 0
M  V30 96 O 12.0166 0.555728 -1.71206 0
M  V30 97 H 8.3916 -0.0399382 -0.750939 0
M  V30 98 H 10.3626 -1.00394 -2.81005 0
M  V30 99 C 9.1116 0.666444 -3.41253 0
M  V30 100 H 8.4346 0.0274489 -3.99791 0
M  V30 101 H 9.8746 1.06076 -4.10517 0
M  V30 102 C 8.3336 1.82614 -2.83114 0
M  V30 103 O 8.8636 2.9229 -2.75553 0
M  V30 104 N 7.0696 1.63333 -2.40356 0
M  V30 105 H 6.6166 0.741217 -2.46706 0
M  V30 106 H 6.5746 2.41087 -2.01803 0
M  V30 107 N 10.3467 1.47872 -0.545128 0
M  V30 108 C 11.5947 2.02093 -0.016553 0
M  V30 109 C 11.9157 1.42305 1.3332 0
M  V30 110 O 11.1857 0.593853 1.86682 0
M  V30 111 H 9.7657 0.746993 -0.00313038 0
M  V30 112 H 12.4277 1.81414 -0.712397 0
M  V30 113 H 11.5237 3.11996 0.0805422 0
M  V30 114 N 11.8248 0.280983 1.55075 0
M  V30 115 C 13.0498 -0.340154 2.04592 0
M  V30 116 C 13.4748 -1.48246 1.15779 0
M  V30 117 O 12.8328 -1.80614 0.15761 0
M  V30 118 C 12.8808 -0.793104 3.5177 0
M  V30 119 O 11.9848 -1.89981 3.66034 0
M  V30 120 H 11.3258 -0.0694289 0.66036 0
M  V30 121 H 13.8558 0.416993 2.00306 0
M  V30 122 H 13.8658 -1.08729 3.93245 0
M  V30 123 H 12.5408 0.0426163 4.15878 0
M  V30 124 H 11.1178 -1.60771 3.36463 0
M  V30 125 N 13.3029 -1.57598 0.00835791 0
M  V30 126 C 14.5489 -1.91211 -0.675732 0
M  V30 127 C 14.8819 -0.883139 -1.72958 0
M  V30 128 O 14.1569 0.097016 -1.94258 0
M  V30 129 C 14.4399 -3.35379 -1.31123 0
M  V30 130 C 14.2929 -4.48999 -0.268356 0
M  V30 131 C 15.6119 -3.7912 -2.23508 0
M  V30 132 H 12.7309 -0.695374 -0.244179 0
M  V30 133 H 15.3729 -1.89901 0.0613655 0
M  V30 134 H 13.5229 -3.36626 -1.93946 0
M  V30 135 H 15.1949 -4.59887 0.360844 0
M  V30 136 H 13.4379 -4.31873 0.408482 0
M  V30 137 H 14.1089 -5.46851 -0.752218 0
M  V30 138 H 16.5849 -3.79477 -1.70693 0
M  V30 139 H 15.4609 -4.80729 -2.64936 0
M  V30 140 H 15.7219 -3.13455 -3.11766 0
M  V30 141 N 14.781 0.264519 -1.55364 0
M  V30 142 C 16.029 0.993021 -1.76021 0
M  V30 143 C 16.35 1.86511 -0.569099 0
M  V30 144 O 15.62 1.91438 0.415735 0
M  V30 145 H 14.2 0.369639 -0.649135 0
M  V30 146 H 16.862 0.286707 -1.9278 0
M  V30 147 H 15.958 1.62502 -2.66457 0
M  V30 148 N 16.2591 1.48442 0.529413 0
M  V30 149 C 17.6751 1.34575 0.858004 0
M  V30 150 C 17.8751 0.3572 1.98309 0
M  V30 151 O 16.9311 -0.221379 2.51528 0
M  V30 152 C 18.2441 2.74617 1.22499 0
M  V30 153 C 19.7921 2.83109 1.33484 0
M  V30 154 C 20.2671 4.23854 1.73526 0
M  V30 155 N 21.7581 4.2653 1.80628 0
M  V30 156 C 22.4931 5.32372 2.12997 0
M  V30 157 N 21.9891 6.48491 2.43786 0
M  V30 158 N 23.7821 5.19766 2.14008 0
M  V30 159 H 15.9331 2.1133 -0.212925 0
M  V30 160 H 18.1961 0.947439 -0.0326199 0
M  V30 161 H 17.9021 3.4852 0.471905 0
M  V30 162 H 17.7761 3.08177 2.17501 0
M  V30 163 H 20.1631 2.09462 2.0787 0
M  V30 164 H 20.2441 2.53168 0.366027 0
M  V30 165 H 19.8881 4.98018 0.997013 0
M  V30 166 H 19.8181 4.5124 2.71459 0
M  V30 167 H 22.3091 3.42772 1.59108 0
M  V30 168 H 22.6221 7.24993 2.67592 0
M  V30 169 H 20.9671 6.51765 2.41304 0
M  V30 170 H 24.1581 4.28066 1.89412 0
M  V30 171 H 24.3311 6.02354 2.38902 0
M  V30 172 N 17.7372 -0.778329 1.37039 0
M  V30 173 C 19.1482 -1.35421 1.28523 0
M  V30 174 C 19.4992 -1.96075 -0.0700901 0
M  V30 175 O 18.6242 -1.93352 -0.971801 0
M  V30 176 C 19.2192 -2.46211 2.32735 0
M  V30 177 C 17.7782 -2.99585 2.27873 0
M  V30 178 C 16.9252 -1.72748 2.16918 0
M  V30 179 H 19.8762 -0.5791 1.47757 0
M  V30 180 H 19.8972 -3.2552 1.9702 0
M  V30 181 H 19.4092 -2.02036 3.31365 0
M  V30 182 H 17.5102 -3.48152 1.32745 0
M  V30 183 H 17.6232 -3.55646 3.21018 0
M  V30 184 H 15.9872 -1.95416 1.63354 0
M  V30 185 H 16.7702 -1.30686 3.17452 0
M  V30 186 N 19.2153 -1.21501 -1.00376 0
M  V30 187 C 20.1453 -0.999478 -2.11028 0
M  V30 188 C 21.1263 0.0759671 -1.6993 0
M  V30 189 O 22.3113 -0.0841106 -1.94018 0
M  V30 190 C 19.4413 -0.564709 -3.42678 0
M  V30 191 C 18.3953 -1.58486 -3.97576 0
M  V30 192 C 17.7213 -1.00628 -5.25146 0
M  V30 193 C 19.0213 -2.97204 -4.29496 0
M  V30 194 H 20.7153 -1.92495 -2.29317 0
M  V30 195 H 18.2613 -0.92693 -1.102 0
M  V30 196 H 20.2143 -0.401091 -4.19487 0
M  V30 197 H 18.9383 0.396411 -3.24185 0
M  V30 198 H 17.5973 -1.73606 -3.22888 0
M  V30 199 H 17.2453 -0.0368439 -5.02987 0
M  V30 200 H 16.9453 -1.68771 -5.62841 0
M  V30 201 H 18.4693 -0.854015 -6.04598 0
M  V30 202 H 19.8833 -2.8552 -4.97143 0
M  V30 203 H 18.2803 -3.62372 -4.78338 0
M  V30 204 H 19.3503 -3.47956 -3.3772 0
M  V30 205 N 20.6934 1.19889 -1.02296 0
M  V30 206 C 21.9414 1.89046 -0.714558 0
M  V30 207 C 22.2624 1.79636 0.758681 0
M  V30 208 O 21.5324 1.20292 1.54618 0
M  V30 209 H 20.1124 0.699802 -0.261317 0
M  V30 210 H 22.7744 1.45574 -1.29592 0
M  V30 211 H 21.8704 2.95524 -1.0036 0
M  V30 212 N 22.1715 0.800033 1.35784 0
M  V30 213 C 23.3965 0.388511 2.03729 0
M  V30 214 C 23.8215 -0.990481 1.5991 0
M  V30 215 O 23.1795 -1.64013 0.772612 0
M  V30 216 C 23.2275 0.4726 3.5749 0
M  V30 217 O 22.3315 -0.51646 4.09153 0
M  V30 218 H 21.6725 0.163271 0.643614 0
M  V30 219 H 24.2025 1.0841 1.73518 0
M  V30 220 H 24.2125 0.34003 4.06581 0
M  V30 221 H 22.8875 1.47848 3.88734 0
M  V30 222 H 21.4645 -0.344673 3.71304 0
M  V30 223 N 23.6496 -1.47581 0.552962 0
M  V30 224 C 24.8976 -2.02082 0.0272703 0
M  V30 225 C 25.2186 -1.4301 -1.32563 0
M  V30 226 O 24.4886 -0.603745 -1.86365 0
M  V30 227 H 23.0686 -0.746966 0.00709182 0
M  V30 228 H 25.7306 -1.81033 0.722008 0
M  V30 229 H 24.8266 -3.12034 -0.0639951 0
M  V30 230 N 25.1277 -0.289203 -1.54924 0
M  V30 231 C 26.5387 0.205791 -1.85562 0
M  V30 232 C 26.8897 1.54351 -1.2112 0
M  V30 233 O 26.0147 2.10435 -0.504601 0
M  V30 234 C 26.6097 0.380177 -3.3666 0
M  V30 235 C 25.1687 0.819395 -3.67373 0
M  V30 236 C 24.3157 -0.079159 -2.77187 0
M  V30 237 H 27.2667 -0.510577 -1.50262 0
M  V30 238 H 27.2877 1.21659 -3.60526 0
M  V30 239 H 26.7997 -0.593589 -3.83534 0
M  V30 240 H 24.9007 1.80413 -3.26009 0
M  V30 241 H 25.0137 0.646957 -4.74712 0
M  V30 242 H 23.3777 0.439565 -2.50878 0
M  V30 243 H 24.1607 -1.04906 -3.26878 0
M  V30 244 N 26.6058 1.57591 -0.0167156 0
M  V30 245 C 27.8538 1.90906 0.663285 0
M  V30 246 C 28.1748 0.892509 1.73376 0
M  V30 247 O 27.4448 -0.0677623 1.95783 0
M  V30 248 H 26.0248 0.704637 0.247983 0
M  V30 249 H 28.6868 1.94803 -0.0615909 0
M  V30 250 H 27.7828 2.9116 1.12393 0
M  V30 251 N 28.0839 -0.256276 1.55502 0
M  V30 252 C 29.0469 -1.30047 1.88734 0
M  V30 253 C 30.0469 -1.4154 0.763086 0
M  V30 254 O 31.2369 -1.40403 1.03115 0
M  V30 255 C 28.3689 -2.67953 2.10747 0
M  V30 256 H 29.5619 -1.01802 2.82093 0
M  V30 257 H 27.1149 -0.495134 1.4825 0
M  V30 258 H 27.8499 -3.01351 1.19825 0
M  V30 259 H 27.6349 -2.60993 2.92617 0
M  V30 260 H 29.1249 -3.43368 2.37673 0
M  V30 261 N 29.562 -1.4872 -0.521534 0
M  V30 262 C 30.492 -1.66771 -1.63431 0
M  V30 263 C 31.473 -0.516499 -1.62069 0
M  V30 264 O 32.658 -0.750013 -1.79132 0
M  V30 265 C 29.788 -1.71515 -3.01993 0
M  V30 266 C 28.742 -2.86222 -3.18216 0
M  V30 267 C 28.068 -2.76061 -4.57924 0
M  V30 268 C 29.368 -4.27419 -3.00184 0
M  V30 269 H 31.062 -2.59932 -1.48579 0
M  V30 270 H 28.608 -1.25089 -0.713358 0
M  V30 271 H 30.561 -1.82731 -3.7972 0
M  V30 272 H 29.285 -0.749393 -3.17886 0
M  V30 273 H 27.944 -2.74575 -2.42908 0
M  V30 274 H 27.592 -1.77437 -4.70665 0
M  V30 275 H 27.292 -3.53037 -4.69722 0
M  V30 276 H 28.816 -2.89256 -5.37739 0
M  V30 277 H 30.23 -4.39855 -3.67697 0
M  V30 278 H 28.627 -5.05458 -3.2347 0
M  V30 279 H 29.697 -4.43293 -1.96518 0
M  V30 280 N 31.0401 0.771051 -1.3745 0
M  V30 281 C 32.2881 1.52661 -1.32435 0
M  V30 282 C 32.6091 1.9479 0.0905024 0
M  V30 283 O 31.8791 1.66348 1.03466 0
M  V30 284 H 30.4591 0.566218 -0.487244 0
M  V30 285 H 33.1211 0.917636 -1.71946 0
M  V30 286 H 32.2171 2.42568 -1.96385 0
M  V30 287 N 32.5182 1.22032 0.997298 0
M  V30 288 C 33.9342 0.979326 1.26021 0
M  V30 289 C 34.1342 -0.32972 1.98784 0
M  V30 290 O 33.1902 -1.05345 2.29475 0
M  V30 291 C 34.5032 2.17509 2.07631 0
M  V30 292 C 36.0512 2.21817 2.2083 0
M  V30 293 C 36.5262 3.40933 3.05825 0
M  V30 294 N 38.0172 3.41067 3.13412 0
M  V30 295 C 38.7522 4.29885 3.79455 0
M  V30 296 N 38.2482 5.28914 4.47462 0
M  V30 297 N 40.0412 4.17673 3.76173 0
M  V30 298 H 32.1922 2.06202 0.509352 0
M  V30 299 H 34.4552 0.90334 0.287541 0
M  V30 300 H 34.1612 3.12415 1.61524 0
M  V30 301 H 34.0352 2.17206 3.08385 0
M  V30 302 H 36.4222 1.27462 2.66153 0
M  V30 303 H 36.5032 2.2616 1.1952 0
M  V30 304 H 36.1472 4.35586 2.61203 0
M  V30 305 H 36.0772 3.33829 4.07266 0
M  V30 306 H 38.5682 2.69406 2.65007 0
M  V30 307 H 38.8812 5.92973 4.95583 0
M  V30 308 H 37.2262 5.32831 4.46224 0
M  V30 309 H 40.4172 3.39564 3.22202 0
M  V30 310 H 40.5902 4.87098 4.27363 0
M  V30 311 N 33.9963 -1.19345 1.0293 0
M  V30 312 C 35.2733 -1.84811 0.640642 0
M  V30 313 C 35.6533 -1.91855 -0.88062 0
M  V30 314 O 35.0013 -1.43587 -1.7775 0
M  V30 315 C 35.2113 -3.23755 1.30321 0
M  V30 316 C 36.5593 -3.99912 1.42673 0
M  V30 317 O 37.5833 -3.33155 1.26041 0
M  V30 318 O 36.4423 -5.19494 1.6967 0
M  V30 319 H 33.5363 -0.796443 0.222726 0
M  V30 320 H 36.0823 -1.26831 1.12748 0
M  V30 321 H 34.8543 -3.13466 2.34211 0
M  V30 322 H 34.4773 -3.89381 0.804261 0
M  V30 323 N 35.4744 -0.807222 -1.35358 0
M  V30 324 C 36.8854 -0.44876 -1.81226 0
M  V30 325 C 37.2364 1.02929 -1.67033 0
M  V30 326 O 36.3614 1.79991 -1.20133 0
M  V30 327 C 36.9564 -0.807774 -3.2903 0
M  V30 328 C 35.5154 -0.501901 -3.73039 0
M  V30 329 C 34.6624 -1.03304 -2.57339 0
M  V30 330 H 37.6134 -0.998808 -1.23327 0
M  V30 331 H 37.6344 -0.10554 -3.80354 0
M  V30 332 H 37.1464 -1.88357 -3.39328 0
M  V30 333 H 35.2474 0.565128 -3.68289 0
M  V30 334 H 35.3604 -1.03497 -4.67787 0
M  V30 335 H 33.7244 -0.455339 -2.50597 0
M  V30 336 H 34.5074 -2.11496 -2.70415 0
M  V30 337 N 36.9525 1.47285 -0.560781 0
M  V30 338 C 38.3635 1.86258 -0.128343 0
M  V30 339 C 38.7145 1.46699 1.30284 0
M  V30 340 O 37.8395 0.871698 1.98067 0
M  V30 341 C 38.4345 3.38044 -0.22614 0
M  V30 342 C 36.9935 3.76096 0.151283 0
M  V30 343 C 36.1405 2.71335 -0.572084 0
M  V30 344 H 39.0915 1.38752 -0.770297 0
M  V30 345 H 39.1125 3.76441 0.554322 0
M  V30 346 H 38.6245 3.66806 -1.26788 0
M  V30 347 H 36.7255 3.52951 1.19399 0
M  V30 348 H 36.8385 4.78641 -0.209765 0
M  V30 349 H 35.2025 2.54696 -0.0147653 0
M  V30 350 H 35.9855 3.02938 -1.61504 0
M  V30 351 N 38.4306 0.297415 1.54768 0
M  V30 352 C 39.7076 -0.365847 1.92148 0
M  V30 353 C 40.0876 -1.71975 1.22424 0
M  V30 354 O 39.4356 -2.25666 0.358739 0
M  V30 355 C 39.6456 -0.484056 3.45627 0
M  V30 356 C 40.9936 -0.756594 4.17805 0
M  V30 357 O 42.0176 -0.568007 3.51642 0
M  V30 358 O 40.8766 -1.11863 5.34929 0
M  V30 359 H 37.9706 -0.203919 0.801465 0
M  V30 360 H 40.5166 0.34521 1.66152 0
M  V30 361 H 39.2886 0.467865 3.88493 0
M  V30 362 H 38.9116 -1.24372 3.77647 0
M  V30 363 N 39.9087 -1.5758 0.0250728 0
M  V30 364 C 41.3197 -1.79476 -0.514323 0
M  V30 365 C 41.6707 -0.934956 -1.72491 0
M  V30 366 O 40.7957 -0.144245 -2.15919 0
M  V30 367 C 41.3907 -3.25503 -0.939842 0
M  V30 368 C 39.9497 -3.48408 -1.42438 0
M  V30 369 C 39.0967 -2.74583 -0.387201 0
M  V30 370 H 42.0477 -1.567 0.25113 0
M  V30 371 H 42.0687 -3.34992 -1.80445 0
M  V30 372 H 41.5807 -3.88056 -0.0585628 0
M  V30 373 H 39.6817 -2.91103 -2.32572 0
M  V30 374 H 39.7947 -4.57119 -1.43455 0
M  V30 375 H 38.1587 -2.39942 -0.854409 0
M  V30 376 H 38.9417 -3.39849 0.485543 0
M  V30 377 N 41.3868 0.248026 -1.55636 0
M  V30 378 C 42.2968 1.32859 -1.93354 0
M  V30 379 C 43.3128 1.52719 -0.833838 0
M  V30 380 O 44.4888 1.66363 -1.13513 0
M  V30 381 C 41.5538 2.66337 -2.21958 0
M  V30 382 C 40.6148 2.55008 -3.45354 0
M  V30 383 C 39.8478 3.82121 -3.72584 0
M  V30 384 O 40.0708 4.83951 -3.01907 0
M  V30 385 O 39.0048 3.80822 -4.6611 0
M  V30 386 H 42.8308 1.03862 -2.85388 0
M  V30 387 H 40.4158 0.448686 -1.42503 0
M  V30 388 H 42.2978 3.45216 -2.4167 0
M  V30 389 H 40.9728 2.95068 -1.33103 0
M  V30 390 H 39.8798 1.7442 -3.30951 0
M  V30 391 H 41.2128 2.31222 -4.34508 0
M  V30 392 N 42.8649 1.48995 0.513639 0
M  V30 393 C 43.8279 1.64229 1.59879 0
M  V30 394 C 44.8279 0.514696 1.5234 0
M  V30 395 O 46.0179 0.78087 1.55718 0
M  V30 396 C 43.1499 1.62783 2.99524 0
M  V30 397 H 44.3429 2.61004 1.47705 0
M  V30 398 H 41.8959 1.37837 0.736936 0
M  V30 399 H 42.6309 0.675461 3.17188 0
M  V30 400 H 42.4159 2.4466 3.06404 0
M  V30 401 H 43.9059 1.76669 3.78388 0
M  V30 402 N 44.343 -0.763751 1.37857 0
M  V30 403 C 45.591 -1.51957 1.33243 0
M  V30 404 C 45.912 -1.94835 -0.0801709 0
M  V30 405 O 45.182 -1.66894 -1.02582 0
M  V30 406 H 43.762 -0.563626 0.49024 0
M  V30 407 H 46.424 -0.908504 1.7243 0
M  V30 408 H 45.52 -2.41523 1.97669 0
M  V30 409 N 45.8211 -1.22559 -0.990812 0
M  V30 410 C 46.7711 -0.964807 -2.0658 0
M  V30 411 C 47.7551 0.0853472 -1.60673 0
M  V30 412 O 48.9471 -0.125443 -1.76555 0
M  V30 413 C 46.0761 -0.546707 -3.38919 0
M  V30 414 C 45.1621 -1.6317 -3.91454 0
M  V30 415 N 45.5531 -2.85985 -4.17189 0
M  V30 416 C 43.8511 -1.50387 -4.19881 0
M  V30 417 C 44.5521 -3.56159 -4.59919 0
M  V30 418 N 43.5281 -2.83637 -4.63736 0
M  V30 419 H 47.3301 -1.89769 -2.24421 0
M  V30 420 H 44.8441 -1.12343 -1.17273 0
M  V30 421 H 46.8411 -0.34119 -4.15502 0
M  V30 422 H 45.5011 0.379254 -3.22478 0
M  V30 423 H 46.5121 -3.22392 -4.05319 0
M  V30 424 H 43.1891 -0.644254 -4.12499 0
M  V30 425 H 44.5791 -4.6139 -4.88435 0
M  V30 426 N 47.2992 1.18797 -1.03562 0
M  V30 427 C 48.7102 1.70322 -0.764676 0
M  V30 428 C 49.0612 1.82708 0.714996 0
M  V30 429 O 48.1862 1.50299 1.55689 0
M  V30 430 C 48.7812 3.09356 -1.38145 0
M  V30 431 C 47.3402 3.58114 -1.15895 0
M  V30 432 C 46.4872 2.34798 -1.4753 0
M  V30 433 H 49.4382 1.03543 -1.20268 0
M  V30 434 H 49.4592 3.72378 -0.781977 0
M  V30 435 H 48.9712 3.00309 -2.45837 0
M  V30 436 H 47.0722 3.72464 -0.100544 0
M  V30 437 H 47.1852 4.4184 -1.8524 0
M  V30 438 H 45.5492 2.38464 -0.894829 0
M  V30 439 H 46.3322 2.28375 -2.56319 0
M  V30 440 N 48.7773 0.814389 1.34928 0
M  V30 441 C 50.1883 0.458364 1.80986 0
M  V30 442 C 50.5393 -1.02042 1.67577 0
M  V30 443 O 49.6643 -1.79352 1.21086 0
M  V30 444 C 50.2593 0.825212 3.28597 0
M  V30 445 C 48.8183 0.521677 3.72767 0
M  V30 446 C 47.9653 1.04668 2.56788 0
M  V30 447 H 50.9163 1.00533 1.22795 0
M  V30 448 H 50.9373 0.12571 3.80292 0
M  V30 449 H 50.4493 1.90154 3.38324 0
M  V30 450 H 48.5503 -0.545589 3.68584 0
M  V30 451 H 48.6633 1.05977 4.67232 0
M  V30 452 H 47.0273 0.468622 2.50352 0
M  V30 453 H 47.8103 2.12927 2.6929 0
M  V30 454 N 50.2554 -1.46986 0.568584 0
M  V30 455 C 51.1874 -2.28233 -0.210337 0
M  V30 456 C 52.2004 -1.37682 -0.868767 0
M  V30 457 O 53.3894 -1.62406 -0.740705 0
M  V30 458 C 50.4894 -3.12293 -1.3163 0
M  V30 459 C 49.6624 -4.30878 -0.7525 0
M  V30 460 C 48.7214 -4.96445 -1.74439 0
M  V30 461 O 47.7474 -5.54482 -1.286 0
M  V30 462 N 48.9494 -4.92171 -3.07812 0
M  V30 463 H 51.7144 -2.95723 0.486648 0
M  V30 464 H 49.2754 -1.56742 0.405409 0
M  V30 465 H 51.2674 -3.53022 -1.97883 0
M  V30 466 H 49.8374 -2.46971 -1.91636 0
M  V30 467 H 49.0574 -3.94104 0.0871128 0
M  V30 468 H 50.3454 -5.07558 -0.35536 0
M  V30 469 H 49.7434 -4.46239 -3.47688 0
M  V30 470 H 48.3004 -5.36884 -3.69592 0
M  V30 471 N 51.7335 -0.305618 -1.54608 0
M  V30 472 C 53.1445 0.186098 -1.8577 0
M  V30 473 C 53.4955 1.53058 -1.22751 0
M  V30 474 O 52.6205 2.09888 -0.526893 0
M  V30 475 C 53.2155 0.344449 -3.37044 0
M  V30 476 C 51.7745 0.780384 -3.68221 0
M  V30 477 C 50.9215 -0.108554 -2.77087 0
M  V30 478 H 53.8725 -0.526485 -1.49712 0
M  V30 479 H 53.8935 1.17828 -3.61796 0
M  V30 480 H 53.4055 -0.634235 -3.82883 0
M  V30 481 H 51.5065 1.76945 -3.27904 0
M  V30 482 H 51.6195 0.596572 -4.75371 0
M  V30 483 H 49.9835 0.412931 -2.5133 0
M  V30 484 H 50.7665 -1.08368 -3.25747 0
M  V30 485 N 53.2116 1.57565 -0.0334293 0
M  V30 486 C 54.6226 1.79746 0.504798 0
M  V30 487 C 54.9736 0.944091 1.71992 0
M  V30 488 O 54.0986 0.155694 2.15839 0
M  V30 489 C 54.6936 3.25997 0.922567 0
M  V30 490 C 53.2526 3.49159 1.40588 0
M  V30 491 C 52.3996 2.74785 0.372633 0
M  V30 492 H 55.3506 1.56565 -0.259436 0
M  V30 493 H 55.3716 3.35945 1.78666 0
M  V30 494 H 54.8836 3.88081 0.0379825 0
M  V30 495 H 52.9846 2.92332 2.31025 0
M  V30 496 H 53.0976 4.57873 1.41028 0
M  V30 497 H 51.4616 2.40391 0.841672 0
M  V30 498 H 52.2446 3.39587 -0.503559 0
M  V30 499 N 54.6897 -0.239769 1.55765 0
M  V30 500 C 55.6397 -1.30002 1.87306 0
M  V30 501 C 56.6237 -1.43156 0.73452 0
M  V30 502 O 57.8157 -1.46277 0.99659 0
M  V30 503 C 54.9447 -2.65409 2.17745 0
M  V30 504 C 54.0307 -2.56231 3.37945 0
M  V30 505 N 54.4217 -2.16689 4.57033 0
M  V30 506 C 52.7197 -2.87229 3.41197 0
M  V30 507 C 53.4207 -2.18318 5.39177 0
M  V30 508 N 52.3967 -2.58098 4.78421 0
M  V30 509 H 56.1987 -0.984912 2.76906 0
M  V30 510 H 53.7127 -0.448381 1.56087 0
M  V30 511 H 55.7097 -3.41934 2.38509 0
M  V30 512 H 54.3697 -2.97781 1.29448 0
M  V30 513 H 55.3807 -1.88116 4.82528 0
M  V30 514 H 52.0577 -3.24094 2.63191 0
M  V30 515 H 53.4477 -1.90025 6.44469 0
M  V30 516 N 56.1678 -1.49265 -0.50573 0
M  V30 517 C 57.3928 -1.62478 -1.28902 0
M  V30 518 C 57.8178 -0.294332 -1.85783 0
M  V30 519 O 57.1758 0.737412 -1.65626 0
M  V30 520 C 57.2238 -2.69268 -2.39848 0
M  V30 521 O 56.3278 -2.28113 -3.43567 0
M  V30 522 H 55.6688 -0.54399 -0.380751 0
M  V30 523 H 58.1988 -1.95421 -0.605952 0
M  V30 524 H 58.2088 -2.91291 -2.85681 0
M  V30 525 H 56.8838 -3.65846 -1.97812 0
M  V30 526 H 55.4608 -2.16401 -3.03685 0
M  V30 527 N 57.6459 0.756429 -1.3826 0
M  V30 528 C 59.0569 1.33359 -1.30661 0
M  V30 529 C 59.4079 1.96161 0.0388875 0
M  V30 530 O 58.5329 1.94874 0.940918 0
M  V30 531 C 59.1279 2.42477 -2.36622 0
M  V30 532 C 57.6869 2.95922 -2.3261 0
M  V30 533 C 56.8339 1.69275 -2.19639 0
M  V30 534 H 59.7849 0.55552 -1.4866 0
M  V30 535 H 59.8059 3.22345 -2.02174 0
M  V30 536 H 59.3179 1.96739 -3.34538 0
M  V30 537 H 57.4189 3.45996 -1.38267 0
M  V30 538 H 57.5319 3.50494 -3.26636 0
M  V30 539 H 55.8959 1.92793 -1.66442 0
M  V30 540 H 56.6789 1.25619 -3.19491 0
M  V30 541 N 59.124 1.23083 0.984299 0
M  V30 542 C 60.372 1.05848 1.72165 0
M  V30 543 C 60.693 -0.406049 1.90726 0
M  V30 544 O 59.963 -1.29139 1.47309 0
M  V30 545 H 58.543 0.388685 0.637913 0
M  V30 546 H 61.205 1.54736 1.18503 0
M  V30 547 H 60.301 1.54327 2.71274 0
M  V30 548 N 60.6021 -1.18246 1.0419 0
M  V30 549 C 61.5321 -2.24127 0.654914 0
M  V30 550 C 62.5131 -1.66617 -0.342451 0
M  V30 551 O 63.6981 -1.92924 -0.222277 0
M  V30 552 C 60.8281 -3.47295 0.0183757 0
M  V30 553 C 59.7821 -4.17563 0.939414 0
M  V30 554 C 59.1081 -5.34438 0.167286 0
M  V30 555 C 60.4081 -4.70917 2.25908 0
M  V30 556 H 62.1021 -2.56753 1.54007 0
M  V30 557 H 59.6481 -1.23414 0.74195 0
M  V30 558 H 61.6011 -4.20572 -0.264082 0
M  V30 559 H 60.3251 -3.13907 -0.901664 0
M  V30 560 H 58.9841 -3.46186 1.20628 0
M  V30 561 H 58.6321 -4.97298 -0.7552 0
M  V30 562 H 58.3321 -5.82388 0.780901 0
M  V30 563 H 59.8561 -6.10504 -0.108125 0
M  V30 564 H 61.2701 -5.35882 2.03724 0
M  V30 565 H 59.6671 -5.29406 2.82577 0
M  V30 566 H 60.7371 -3.88272 2.9047 0
M  V30 567 N 62.0802 -0.821533 -1.34494 0
M  V30 568 C 63.0122 -0.199946 -2.28326 0
M  V30 569 C 64.0252 0.609377 -1.50965 0
M  V30 570 O 65.2142 0.439285 -1.7301 0
M  V30 571 C 62.3142 0.738431 -3.30757 0
M  V30 572 C 61.4872 -0.0277632 -4.37391 0
M  V30 573 C 60.5462 0.831332 -5.19591 0
M  V30 574 O 59.5722 0.276822 -5.68526 0
M  V30 575 N 60.7742 2.15132 -5.39165 0
M  V30 576 H 63.5392 -1.00609 -2.82308 0
M  V30 577 H 61.1002 -0.678366 -1.47003 0
M  V30 578 H 63.0922 1.31773 -3.82646 0
M  V30 579 H 61.6622 1.44533 -2.7718 0
M  V30 580 H 60.8822 -0.788359 -3.86236 0
M  V30 581 H 62.1702 -0.555251 -5.05761 0
M  V30 582 H 61.5682 2.62559 -5.01078 0
M  V30 583 H 60.1252 2.6795 -5.94177 0
M  V30 584 N 63.5583 1.46682 -0.576371 0
M  V30 585 C 64.8043 2.02712 -0.0596221 0
M  V30 586 C 65.1373 1.44765 1.29448 0
M  V30 587 O 64.4123 0.610355 1.84675 0
M  V30 588 C 64.6953 3.60098 0.0129503 0
M  V30 589 C 64.5483 4.28441 -1.3696 0
M  V30 590 C 65.8673 4.34224 0.71678 0
M  V30 591 H 62.9863 0.736637 -0.0231407 0
M  V30 592 H 65.6283 1.74898 -0.742351 0
M  V30 593 H 63.7783 3.83926 0.594378 0
M  V30 594 H 65.4503 4.15896 -1.9957 0
M  V30 595 H 63.6933 3.8805 -1.93907 0
M  V30 596 H 64.3643 5.3716 -1.27135 0
M  V30 597 H 66.8403 4.15503 0.222908 0
M  V30 598 H 65.7163 5.43936 0.73657 0
M  V30 599 H 65.9773 4.04823 1.77682 0
M  V30 600 N 65.0364 0.313813 1.54444 0
M  V30 601 C 66.2824 -0.292108 2.00685 0
M  V30 602 C 66.6154 -1.52548 1.20177 0
M  V30 603 O 65.8904 -1.92452 0.281531 0
M  V30 604 C 66.1734 -0.635968 3.5444 0
M  V30 605 C 66.0264 0.607437 4.4568 0
M  V30 606 C 67.3454 -1.45747 4.15266 0
M  V30 607 H 64.4644 -0.104697 0.729526 0
M  V30 608 H 67.1064 0.428457 1.85106 0
M  V30 609 H 65.2564 -1.24986 3.67846 0
M  V30 610 H 66.9284 1.24581 4.44159 0
M  V30 611 H 65.1714 1.23822 4.15753 0
M  V30 612 H 65.8424 0.322515 5.51057 0
M  V30 613 H 68.3184 -0.938645 4.05375 0
M  V30 614 H 67.1944 -1.66683 5.2298 0
M  V30 615 H 67.4554 -2.45063 3.67963 0
M  V30 616 N 66.5145 -1.57545 0.0417849 0
M  V30 617 C 67.7605 -1.92601 -0.635021 0
M  V30 618 C 68.0935 -0.919627 -1.71045 0
M  V30 619 O 67.3685 0.0557892 -1.9442 0
M  V30 620 C 67.6515 -3.38085 -1.23979 0
M  V30 621 C 67.5045 -4.49467 -0.173057 0
M  V30 622 C 68.8235 -3.83776 -2.15416 0
M  V30 623 H 65.9425 -0.700397 -0.229374 0
M  V30 624 H 68.5845 -1.89728 0.101633 0
M  V30 625 H 66.7345 -3.40664 -1.86762 0
M  V30 626 H 68.4065 -4.59018 0.458312 0
M  V30 627 H 66.6495 -4.30909 0.499996 0
M  V30 628 H 67.3205 -5.48323 -0.636054 0
M  V30 629 H 69.7965 -3.83013 -1.62605 0
M  V30 630 H 68.6725 -4.8624 -2.54679 0
M  V30 631 H 68.9335 -3.19998 -3.05047 0
M  V30 632 N 67.9926 0.231505 -1.5589 0
M  V30 633 C 68.9556 1.27028 -1.90779 0
M  V30 634 C 69.9556 1.40308 -0.785507 0
M  V30 635 O 71.1456 1.38744 -1.05336 0
M  V30 636 C 68.2776 2.64566 -2.14983 0
M  V30 637 H 69.4706 0.973017 -2.83677 0
M  V30 638 H 67.0236 0.471486 -1.49019 0
M  V30 639 H 67.7586 2.99406 -1.24604 0
M  V30 640 H 67.5436 2.56305 -2.96732 0
M  V30 641 H 69.0336 3.39543 -2.43105 0
M  V30 642 N 69.4707 1.49531 0.497807 0
M  V30 643 C 70.4177 1.66436 1.59899 0
M  V30 644 C 71.3877 0.505793 1.58212 0
M  V30 645 O 72.5727 0.733202 1.7615 0
M  V30 646 C 69.7127 1.7399 2.98029 0
M  V30 647 C 68.8257 3.01172 3.09708 0
M  V30 648 C 67.9607 2.99686 4.38591 0
M  V30 649 C 66.9997 4.21434 4.43914 0
M  V30 650 N 66.1367 4.1784 5.64229 0
M  V30 651 H 70.9767 2.60459 1.44793 0
M  V30 652 H 68.5137 1.29137 0.704423 0
M  V30 653 H 70.4717 1.76352 3.78095 0
M  V30 654 H 69.1017 0.834301 3.11832 0
M  V30 655 H 68.1537 3.08408 2.22685 0
M  V30 656 H 69.4657 3.91165 3.09502 0
M  V30 657 H 68.6197 3.00628 5.2698 0
M  V30 658 H 67.3587 2.07477 4.41367 0
M  V30 659 H 66.3637 4.20733 3.53926 0
M  V30 660 H 67.5887 5.14839 4.42851 0
M  V30 661 H 65.5347 3.28469 5.67841 0
M  V30 662 H 65.4517 5.01571 5.65652 0
M  V30 663 H 66.7197 4.22889 6.54817 0
M  V30 664 N 70.9488 -0.749086 1.3866 0
M  V30 665 C 72.1738 -1.54344 1.38538 0
M  V30 666 C 72.5988 -1.88088 -0.0216655 0
M  V30 667 O 71.9568 -1.50899 -1.00494 0
M  V30 668 C 72.0048 -2.8164 2.25192 0
M  V30 669 O 71.1088 -3.7698 1.67212 0
M  V30 670 H 70.4498 -0.466654 0.472367 0
M  V30 671 H 72.9798 -0.925355 1.82478 0
M  V30 672 H 72.9898 -3.30519 2.3921 0
M  V30 673 H 71.6648 -2.56411 3.27454 0
M  V30 674 H 70.2418 -3.35699 1.6236 0
M  V30 675 N 72.4269 -1.23603 -0.977757 0
M  V30 676 C 73.3369 -1.03632 -2.1047 0
M  V30 677 C 74.3529 0.0199435 -1.73989 0
M  V30 678 O 75.5289 -0.176076 -2.00629 0
M  V30 679 C 72.5939 -0.63276 -3.40877 0
M  V30 680 C 71.6549 -1.76437 -3.91367 0
M  V30 681 C 70.8879 -1.37997 -5.15551 0
M  V30 682 O 71.1109 -0.265357 -5.69782 0
M  V30 683 O 70.0449 -2.20201 -5.60174 0
M  V30 684 H 73.8709 -1.98086 -2.30208 0
M  V30 685 H 71.4559 -1.02332 -1.08851 0
M  V30 686 H 73.3379 -0.418761 -4.19314 0
M  V30 687 H 72.0129 0.282754 -3.22463 0
M  V30 688 H 70.9199 -2.03304 -3.14036 0
M  V30 689 H 72.2529 -2.6583 -4.14241 0
M  V30 690 N 73.905 1.17692 -1.04816 0
M  V30 691 C 75.316 1.69501 -0.782698 0
M  V30 692 C 75.667 1.83456 0.695577 0
M  V30 693 O 74.792 1.51942 1.54086 0
M  V30 694 C 75.387 3.07874 -1.41419 0
M  V30 695 C 73.946 3.56864 -1.19686 0
M  V30 696 C 73.093 2.3322 -1.50012 0
M  V30 697 H 76.044 1.02262 -1.2136 0
M  V30 698 H 76.065 3.71528 -0.821428 0
M  V30 699 H 75.577 2.97685 -2.49009 0
M  V30 700 H 73.678 3.72337 -0.140043 0
M  V30 701 H 73.791 4.39851 -1.89916 0
M  V30 702 H 72.155 2.37501 -0.920071 0
M  V30 703 H 72.938 2.25644 -2.58727 0
M  V30 704 N 75.3831 0.828654 1.34056 0
M  V30 705 C 76.3461 0.259927 2.27721 0
M  V30 706 C 77.3461 -0.565478 1.50529 0
M  V30 707 O 78.5361 -0.38075 1.69988 0
M  V30 708 C 75.6681 -0.634944 3.34935 0
M  V30 709 H 76.8611 1.0863 2.79534 0
M  V30 710 H 74.4141 0.600951 1.44285 0
M  V30 711 H 75.1491 -1.48416 2.88346 0
M  V30 712 H 74.9341 -0.0444999 3.92075 0
M  V30 713 H 76.4241 -1.02648 4.04788 0
M  V30 714 N 76.8612 -1.46375 0.584142 0
M  V30 715 C 78.2772 -1.57694 0.245929 0
M  V30 716 C 78.4772 -1.57903 -1.25175 0
M  V30 717 O 77.5332 -1.49676 -2.03355 0
M  V30 718 C 78.8462 -2.87028 0.896402 0
M  V30 719 C 80.3942 -3.00662 0.870127 0
M  V30 720 C 80.8692 -4.32734 1.50017 0
M  V30 721 N 82.3602 -4.39436 1.46458 0
M  V30 722 C 83.0952 -5.40248 1.92144 0
M  V30 723 N 82.5912 -6.47726 2.4581 0
M  V30 724 N 84.3842 -5.31459 1.83052 0
M  V30 725 H 76.5352 -1.44483 1.55687 0
M  V30 726 H 78.7982 -0.689291 0.650831 0
M  V30 727 H 78.5042 -2.9269 1.95002 0
M  V30 728 H 78.3782 -3.75014 0.405486 0
M  V30 729 H 80.7652 -2.94581 -0.174871 0
M  V30 730 H 80.8462 -2.14148 1.39908 0
M  V30 731 H 80.4902 -4.39573 2.54437 0
M  V30 732 H 80.4202 -5.18025 0.946432 0
M  V30 733 H 82.9112 -3.62367 1.07231 0
M  V30 734 H 83.2242 -7.20863 2.78525 0
M  V30 735 H 81.5692 -6.48542 2.49836 0
M  V30 736 H 84.7602 -4.46396 1.40883 0
M  V30 737 H 84.9332 -6.09881 2.18973 0
M  V30 738 N 78.3393 -0.321999 -1.54275 0
M  V30 739 C 79.7503 0.166384 -1.85957 0
M  V30 740 C 80.1013 1.51747 -1.24367 0
M  V30 741 O 79.2263 2.09317 -0.549124 0
M  V30 742 C 79.8213 0.308681 -3.37391 0
M  V30 743 C 78.3803 0.741286 -3.69028 0
M  V30 744 C 77.5273 -0.137937 -2.76957 0
M  V30 745 H 80.4783 -0.542335 -1.49146 0
M  V30 746 H 80.4993 1.13984 -3.63026 0
M  V30 747 H 80.0113 -0.674809 -3.82188 0
M  V30 748 H 78.1123 1.73458 -3.29762 0
M  V30 749 H 78.2253 0.546118 -4.75977 0
M  V30 750 H 76.5893 0.386251 -2.51754 0
M  V30 751 H 77.3723 -1.11816 -3.2458 0
M  V30 752 N 79.8174 1.5752 -0.0501392 0
M  V30 753 C 81.0424 1.97376 0.636997 0
M  V30 754 C 81.4674 0.927466 1.63645 0
M  V30 755 O 80.8254 -0.10941 1.8097 0
M  V30 756 C 80.8734 3.36304 1.30123 0
M  V30 757 O 79.9774 3.34156 2.41689 0
M  V30 758 H 79.3184 0.642998 0.165679 0
M  V30 759 H 81.8484 2.04258 -0.118233 0
M  V30 760 H 81.8584 3.73008 1.65315 0
M  V30 761 H 80.5334 4.11993 0.568746 0
M  V30 762 H 79.1104 3.09196 2.08451 0
M  V30 763 N 81.2955 -0.223234 1.56011 0
M  V30 764 C 82.7065 -0.790368 1.69145 0
M  V30 765 C 83.0575 -1.85055 0.651845 0
M  V30 766 O 82.1825 -2.15498 -0.197359 0
M  V30 767 C 82.7775 -1.4404 3.06656 0
M  V30 768 C 81.3365 -1.95494 3.2165 0
M  V30 769 C 80.4835 -0.814506 2.65068 0
M  V30 770 H 83.4345 0.00139011 1.587 0
M  V30 771 H 83.4555 -2.30916 3.0242 0
M  V30 772 H 82.9675 -0.668543 3.82298 0
M  V30 773 H 81.0685 -2.75487 2.50874 0
M  V30 774 H 81.1815 -2.13607 4.28846 0
M  V30 775 H 79.5455 -1.22137 2.23505 0
M  V30 776 H 80.3285 -0.0553515 3.43255 0
M  V30 777 N 82.7736 -1.49793 -0.48987 0
M  V30 778 C 84.0216 -1.59525 -1.24081 0
M  V30 779 C 84.3426 -0.288953 -1.92847 0
M  V30 780 O 83.6126 0.692436 -1.83254 0
M  V30 781 H 82.1926 -0.587796 -0.460983 0
M  V30 782 H 84.8546 -1.86477 -0.566778 0
M  V30 783 H 83.9506 -2.39696 -1.99881 0
M  V30 784 N 84.2517 0.741722 -1.39055 0
M  V30 785 C 85.4767 1.53607 -1.39354 0
M  V30 786 C 85.9017 1.88096 0.0116905 0
M  V30 787 O 85.2597 1.5143 0.996924 0
M  V30 788 C 85.3077 2.80441 -2.26682 0
M  V30 789 O 84.4117 3.76088 -1.69208 0
M  V30 790 H 83.7527 0.464142 -0.474835 0
M  V30 791 H 86.2827 0.915665 -1.82967 0
M  V30 792 H 86.2927 3.29246 -2.40959 0
M  V30 793 H 84.9677 2.5467 -3.2881 0
M  V30 794 H 83.5447 3.34833 -1.64138 0
M  V30 795 N 85.7298 1.2412 0.971189 0
M  V30 796 C 87.1408 1.07236 1.52831 0
M  V30 797 C 87.4918 -0.357352 1.92918 0
M  V30 798 O 86.6168 -1.24528 1.76979 0
M  V30 799 C 87.2118 1.94043 2.77728 0
M  V30 800 C 85.7708 1.81394 3.29808 0
M  V30 801 C 84.9178 1.89189 2.02738 0
M  V30 802 H 87.8688 1.37648 0.789864 0
M  V30 803 H 87.8898 1.47066 3.5093 0
M  V30 804 H 87.4018 2.98093 2.4852 0
M  V30 805 H 85.5028 0.801634 3.63874 0
M  V30 806 H 85.6158 2.65294 3.98944 0
M  V30 807 H 83.9798 1.32877 2.17292 0
M  V30 808 H 84.7628 2.94812 1.759 0
M  V30 809 N 87.2079 -1.17134 1.05439 0
M  V30 810 C 88.6239 -1.39454 0.776201 0
M  V30 811 C 88.8239 -1.91454 -0.628307 0
M  V30 812 O 87.8799 -2.10777 -1.39031 0
M  V30 813 C 89.1929 -2.38305 1.83388 0
M  V30 814 C 90.7409 -2.52006 1.85639 0
M  V30 815 C 91.2159 -3.54133 2.90437 0
M  V30 816 N 92.7069 -3.61653 2.89415 0
M  V30 817 C 93.4419 -4.4044 3.67152 0
M  V30 818 N 92.9379 -5.22721 4.54681 0
M  V30 819 N 94.7309 -4.35337 3.55581 0
M  V30 820 H 86.8819 -0.817134 1.96053 0
M  V30 821 H 89.1449 -0.421626 0.849079 0
M  V30 822 H 88.8509 -2.07173 2.84204 0
M  V30 823 H 88.7249 -3.37841 1.67761 0
M  V30 824 H 91.1119 -2.82447 0.85486 0
M  V30 825 H 91.1929 -1.52537 2.05344 0
M  V30 826 H 90.8369 -3.24431 3.90777 0
M  V30 827 H 90.7669 -4.53313 2.67983 0
M  V30 828 H 93.2579 -3.02909 2.25952 0
M  V30 829 H 93.5709 -5.80027 5.10674 0
M  V30 830 H 91.9159 -5.22093 4.58741 0
M  V30 831 H 95.1069 -3.70112 2.86592 0
M  V30 832 H 95.2799 -4.96494 4.1641 0
M  V30 833 N 88.686 -0.835752 -1.33615 0
M  V30 834 C 89.934 -0.429109 -1.97492 0
M  V30 835 C 90.255 1.01433 -1.66543 0
M  V30 836 O 89.525 1.70611 -0.962744 0
M  V30 837 H 88.105 -0.155686 -0.730596 0
M  V30 838 H 90.767 -1.06802 -1.63031 0
M  V30 839 H 89.863 -0.55861 -3.0706 0
M  V30 840 N 90.1641 1.46063 -0.591896 0
M  V30 841 C 91.0961 2.28539 0.174001 0
M  V30 842 C 92.1091 1.39047 0.846753 0
M  V30 843 O 93.2981 1.63564 0.714774 0
M  V30 844 C 90.3981 3.14347 1.26645 0
M  V30 845 C 89.5711 4.32021 0.683856 0
M  V30 846 C 88.6301 4.99157 1.66518 0
M  V30 847 O 87.6561 5.56458 1.19763 0
M  V30 848 N 88.8581 4.97005 2.99943 0
M  V30 849 H 91.6231 2.94911 -0.533633 0
M  V30 850 H 89.1841 1.56077 -0.430294 0
M  V30 851 H 91.1761 3.56125 1.92242 0
M  V30 852 H 89.7461 2.49988 1.87682 0
M  V30 853 H 88.9661 3.93915 -0.1498 0
M  V30 854 H 90.2541 5.08059 0.274567 0
M  V30 855 H 89.6521 4.51714 3.40545 0
M  V30 856 H 88.2091 5.42696 3.61004 0
M  V30 857 N 91.6422 0.330177 1.54103 0
M  V30 858 C 93.0532 -0.15652 1.86043 0
M  V30 859 C 93.4042 -1.51086 1.2517 0
M  V30 860 O 92.5292 -2.09023 0.560217 0
M  V30 861 C 93.1242 -0.290784 3.3755 0
M  V30 862 C 91.6832 -0.721705 3.69416 0
M  V30 863 C 90.8302 0.152622 2.7688 0
M  V30 864 H 93.7812 0.550237 1.48856 0
M  V30 865 H 93.8022 -1.12058 3.63625 0
M  V30 866 H 93.3142 0.695068 3.81825 0
M  V30 867 H 91.4152 -1.71706 3.30678 0
M  V30 868 H 91.5282 -0.520869 4.7626 0
M  V30 869 H 89.8922 -0.372894 2.51956 0
M  V30 870 H 90.6752 1.13536 3.23982 0
M  V30 871 N 93.1203 -1.57491 0.0584922 0
M  V30 872 C 94.0523 -2.08916 -0.942694 0
M  V30 873 C 95.0653 -1.0185 -1.27006 0
M  V30 874 O 96.2543 -1.29398 -1.22957 0
M  V30 875 C 93.3543 -2.52341 -2.26224 0
M  V30 876 C 92.5273 -3.82827 -2.1157 0
M  V30 877 C 91.5863 -4.12487 -3.26712 0
M  V30 878 O 90.6123 -4.82295 -3.02292 0
M  V30 879 N 91.8143 -3.64978 -4.5141 0
M  V30 880 H 94.5793 -2.95437 -0.503722 0
M  V30 881 H 92.1403 -1.61397 -0.12757 0
M  V30 882 H 94.1323 -2.69254 -3.02133 0
M  V30 883 H 92.7023 -1.7103 -2.61663 0
M  V30 884 H 91.9223 -3.75425 -1.20208 0
M  V30 885 H 93.2103 -4.68263 -1.99015 0
M  V30 886 H 92.6083 -3.08558 -4.7414 0
M  V30 887 H 91.1653 -3.87115 -5.2439 0
M  V30 888 N 94.5984 0.214957 -1.56127 0
M  V30 889 C 95.8754 0.963093 -1.70247 0
M  V30 890 C 96.2554 2.02166 -0.60764 0
M  V30 891 O 95.6034 2.25244 0.384385 0
M  V30 892 C 95.8134 1.56756 -3.11815 0
M  V30 893 C 97.1614 2.0573 -3.7143 0
M  V30 894 O 98.1854 1.66637 -3.14818 0
M  V30 895 O 97.0444 2.77603 -4.70743 0
M  V30 896 H 94.1384 0.450321 -0.693643 0
M  V30 897 H 96.6844 0.206219 -1.68442 0
M  V30 898 H 95.4564 0.803533 -3.82961 0
M  V30 899 H 95.0794 2.3898 -3.17765 0
M  V30 900 N 96.0765 1.50051 0.48192 0
M  V30 901 C 97.0085 1.64263 1.59844 0
M  V30 902 C 98.0215 0.52451 1.54119 0
M  V30 903 O 99.2105 0.797293 1.59704 0
M  V30 904 C 96.3105 1.60102 2.98698 0
M  V30 905 C 95.4835 2.87767 3.29407 0
M  V30 906 C 94.5425 2.76397 4.47762 0
M  V30 907 O 93.5685 3.50348 4.48603 0
M  V30 908 N 94.7705 1.89222 5.48794 0
M  V30 909 H 97.5355 2.60566 1.48073 0
M  V30 910 H 95.0965 1.47379 0.670149 0
M  V30 911 H 97.0885 1.50123 3.75826 0
M  V30 912 H 95.6585 0.715798 3.04294 0
M  V30 913 H 94.8785 3.11954 2.40994 0
M  V30 914 H 96.1665 3.72365 3.4673 0
M  V30 915 H 95.5645 1.28434 5.50928 0
M  V30 916 H 94.1215 1.85154 6.24949 0
M  V30 917 N 97.5546 -0.734337 1.39446 0
M  V30 918 C 98.8316 -1.48579 1.27215 0
M  V30 919 C 99.2116 -2.1077 -0.117968 0
M  V30 920 O 98.5596 -1.98646 -1.12924 0
M  V30 921 C 98.7696 -2.53667 2.39696 0
M  V30 922 C 100.118 -3.20031 2.79044 0
M  V30 923 O 101.142 -2.6398 2.39151 0
M  V30 924 O 100.001 -4.21455 3.47905 0
M  V30 925 H 97.0946 -0.659816 0.49857 0
M  V30 926 H 99.6406 -0.768106 1.51322 0
M  V30 927 H 98.4126 -2.06096 3.32626 0
M  V30 928 H 98.0356 -3.32994 2.17258 0
M  V30 929 N 99.0327 -1.24633 -0.964593 0
M  V30 930 C 100.31 -0.995809 -1.68354 0
M  V30 931 C 100.69 0.480964 -2.05548 0
M  V30 932 O 100.038 1.45599 -1.76105 0
M  V30 933 C 100.248 -1.92177 -2.91323 0
M  V30 934 C 101.596 -2.19446 -3.63495 0
M  V30 935 O 102.62 -1.89855 -3.01386 0
M  V30 936 O 101.479 -2.69714 -4.75307 0
M  V30 937 H 98.5727 -0.376854 -0.736146 0
M  V30 938 H 101.119 -1.35745 -1.0184 0
M  V30 939 H 99.8907 -2.91938 -2.60553 0
M  V30 940 H 99.5137 -1.56349 -3.65569 0
M  V30 941 N 100.511 1.16574 -1.06058 0
M  V30 942 C 101.788 1.83048 -0.689416 0
M  V30 943 C 102.168 1.94122 0.829443 0
M  V30 944 O 101.516 1.48249 1.7388 0
M  V30 945 C 101.726 3.20186 -1.38859 0
M  V30 946 C 103.074 3.95989 -1.53226 0
M  V30 947 O 104.098 3.29696 -1.3483 0
M  V30 948 O 102.957 5.14813 -1.83384 0
M  V30 949 H 100.051 0.790258 -0.243764 0
M  V30 950 H 102.597 1.23797 -1.16071 0
M  V30 951 H 101.369 3.07146 -2.4244 0
M  V30 952 H 100.992 3.87112 -0.907216 0
M  V30 953 N 101.989 0.842826 1.3317 0
M  V30 954 C 102.899 0.281444 2.32906 0
M  V30 955 C 103.915 -0.594587 1.63526 0
M  V30 956 O 105.091 -0.49777 1.95152 0
M  V30 957 C 102.156 -0.530929 3.42611 0
M  V30 958 C 101.217 0.369843 4.27704 0
M  V30 959 C 100.45 -0.403853 5.3217 0
M  V30 960 O 100.673 -1.63513 5.46461 0
M  V30 961 O 99.6069 0.224199 6.01482 0
M  V30 962 H 103.433 1.10744 2.82789 0
M  V30 963 H 101.018 0.60545 1.36582 0
M  V30 964 H 102.9 -0.992437 4.09547 0
M  V30 965 H 101.575 -1.33392 2.94938 0
M  V30 966 H 100.482 0.879275 3.6362 0
M  V30 967 H 101.815 1.13771 4.78871 0
M  V30 968 N 103.467 -1.45747 0.599634 0
M  V30 969 C 104.744 -1.95585 0.0240846 0
M  V30 970 C 105.124 -1.54217 -1.44154 0
M  V30 971 O 104.472 -0.800903 -2.14004 0
M  V30 972 C 104.682 -3.48344 0.21385 0
M  V30 973 C 106.03 -4.24504 0.0904902 0
M  V30 974 O 107.054 -3.55911 0.143558 0
M  V30 975 O 105.913 -5.46491 -0.0310766 0
M  V30 976 H 103.007 -0.82602 -0.0402478 0
M  V30 977 H 105.553 -1.55951 0.669139 0
M  V30 978 H 104.325 -3.71397 1.23206 0
M  V30 979 H 103.948 -3.9485 -0.466842 0
M  V30 980 N 104.945 -0.338344 -1.53925 0
M  V30 981 C 106.222 0.314774 -1.93051 0
M  V30 982 C 106.602 1.68669 -1.26941 0
M  V30 983 O 105.95 2.24636 -0.418445 0
M  V30 984 C 106.16 0.392249 -3.46789 0
M  V30 985 C 107.508 0.645554 -4.19664 0
M  V30 986 O 108.532 0.474575 -3.53024 0
M  V30 987 O 107.391 0.976408 -5.37707 0
M  V30 988 H 104.485 0.182598 -0.80659 0
M  V30 989 H 107.031 -0.389141 -1.65178 0
M  V30 990 H 105.803 -0.570702 -3.87116 0
M  V30 991 H 105.426 1.14316 -3.80812 0
M  V30 992 N 106.423 1.57458 -0.0668435 0
M  V30 993 C 107.333 2.15937 0.916975 0
M  V30 994 C 108.349 1.12123 1.33058 0
M  V30 995 O 109.525 1.44366 1.40429 0
M  V30 996 C 106.59 2.70547 2.16807 0
M  V30 997 C 105.651 3.89215 1.81135 0
M  V30 998 C 104.884 4.41211 3.0028 0
M  V30 999 O 105.107 3.92225 4.14144 0
M  V30 1000 O 104.041 5.32605 2.80384 0
M  V30 1001 H 107.867 3.00354 0.449561 0
M  V30 1002 H 105.452 1.48584 0.155949 0
M  V30 1003 H 107.334 3.0557 2.90181 0
M  V30 1004 H 106.009 1.89192 2.62656 0
M  V30 1005 H 104.916 3.59054 1.05028 0
M  V30 1006 H 106.249 4.71848 1.40073 0
M  V30 1007 N 107.901 -0.206675 1.56239 0
M  V30 1008 C 108.811 -1.27686 1.96808 0
M  V30 1009 C 109.827 -1.50455 0.874035 0
M  V30 1010 O 111.003 -1.63295 1.17884 0
M  V30 1011 C 108.068 -2.60358 2.28942 0
M  V30 1012 C 107.129 -2.45762 3.51994 0
M  V30 1013 C 106.362 -3.72108 3.82585 0
M  V30 1014 O 106.585 -4.75776 3.14631 0
M  V30 1015 O 105.519 -3.6833 4.76043 0
M  V30 1016 H 109.345 -0.962593 2.88041 0
M  V30 1017 H 106.93 -0.410746 1.43643 0
M  V30 1018 H 108.812 -3.38687 2.50737 0
M  V30 1019 H 107.487 -2.91435 1.4088 0
M  V30 1020 H 106.394 -1.65584 3.35459 0
M  V30 1021 H 107.727 -2.19621 4.40486 0
M  V30 1022 N 109.379 -1.50304 -0.473955 0
M  V30 1023 C 110.656 -1.51667 -1.23518 0
M  V30 1024 C 111.036 -0.259701 -2.09496 0
M  V30 1025 O 110.384 0.756986 -2.15597 0
M  V30 1026 C 110.594 -2.81082 -2.06868 0
M  V30 1027 C 111.942 -3.31631 -2.65153 0
M  V30 1028 O 112.966 -2.82384 -2.17113 0
M  V30 1029 O 111.825 -4.17471 -3.52675 0
M  V30 1030 H 108.919 -0.60822 -0.560355 0
M  V30 1031 H 111.465 -1.62592 -0.486011 0
M  V30 1032 H 110.237 -3.64041 -1.4349 0
M  V30 1033 H 109.86 -2.73146 -2.88924 0
M  V30 1034 N 110.857 0.726932 -1.39834 0
M  V30 1035 C 111.767 1.87131 -1.41489 0
M  V30 1036 C 112.783 1.71239 -0.308757 0
M  V30 1037 O 113.959 1.93701 -0.551529 0
M  V30 1038 C 111.024 3.22811 -1.26468 0
M  V30 1039 C 110.085 3.51039 -2.47124 0
M  V30 1040 C 109.318 4.80245 -2.3281 0
M  V30 1041 O 109.541 5.54537 -1.33585 0
M  V30 1042 O 108.475 5.08554 -3.21957 0
M  V30 1043 H 112.301 1.8869 -2.3797 0
M  V30 1044 H 109.886 0.875837 -1.21035 0
M  V30 1045 H 111.768 4.03877 -1.20255 0
M  V30 1046 H 110.443 3.22005 -0.330862 0
M  V30 1047 H 109.35 2.70027 -2.58914 0
M  V30 1048 H 110.683 3.56632 -3.39227 0
M  V30 1049 N 112.336 1.25143 0.95797 0
M  V30 1050 C 113.299 1.05321 2.03569 0
M  V30 1051 C 114.299 0.007152 1.60798 0
M  V30 1052 O 115.489 0.24903 1.72411 0
M  V30 1053 C 112.621 0.598394 3.35607 0
M  V30 1054 H 113.814 2.00986 2.22586 0
M  V30 1055 H 111.367 1.07502 1.13459 0
M  V30 1056 H 112.102 -0.361014 3.22284 0
M  V30 1057 H 111.887 1.35351 3.67998 0
M  V30 1058 H 113.377 0.48104 4.1482 0
M  V30 1059 N 113.814 -1.1601 1.06675 0
M  V30 1060 C 115.062 -1.86264 0.784229 0
M  V30 1061 C 115.383 -1.82328 -0.691488 0
M  V30 1062 O 114.653 -1.25947 -1.50047 0
M  V30 1063 H 113.233 -0.689621 0.28711 0
M  V30 1064 H 115.895 -1.40664 1.34906 0
M  V30 1065 H 114.991 -2.91595 1.11259 0
M  V30 1066 N 115.292 -0.849877 -1.32721 0
M  V30 1067 C 116.708 -0.539102 -1.50219 0
M  V30 1068 C 116.908 0.931271 -1.78689 0
M  V30 1069 O 115.964 1.71455 -1.85363 0
M  V30 1070 C 117.277 -1.42196 -2.64954 0
M  V30 1071 C 118.825 -1.42189 -2.78839 0
M  V30 1072 C 119.3 -2.28985 -3.96648 0
M  V30 1073 N 120.791 -2.26754 -4.03902 0
M  V30 1074 C 121.526 -2.90644 -4.94281 0
M  V30 1075 N 121.022 -3.63629 -5.897 0
M  V30 1076 N 122.815 -2.80057 -4.87365 0
M  V30 1077 H 114.966 -1.80156 -1.12506 0
M  V30 1078 H 117.229 -0.769217 -0.554085 0
M  V30 1079 H 116.935 -2.46733 -2.50631 0
M  V30 1080 H 116.809 -1.10591 -3.60624 0
M  V30 1081 H 119.196 -0.38419 -2.92588 0
M  V30 1082 H 119.277 -1.77807 -1.83898 0
M  V30 1083 H 118.921 -3.32819 -3.83658 0
M  V30 1084 H 118.851 -1.90702 -4.90857 0
M  V30 1085 H 121.342 -1.73688 -3.3562 0
M  V30 1086 H 121.655 -4.09558 -6.55349 0
M  V30 1087 H 120 -3.67737 -5.89741 0
M  V30 1088 H 123.191 -2.22593 -4.11789 0
M  V30 1089 H 123.364 -3.30132 -5.57599 0
M  V30 1090 N 116.77 1.45427 -0.607355 0
M  V30 1091 C 117.702 2.2871 0.149752 0
M  V30 1092 C 118.715 1.39937 0.831958 0
M  V30 1093 O 119.904 1.64313 0.697385 0
M  V30 1094 C 117.004 3.15673 1.23304 0
M  V30 1095 C 116.177 4.32722 0.637996 0
M  V30 1096 C 115.236 5.00895 1.61215 0
M  V30 1097 O 114.262 5.57697 1.13854 0
M  V30 1098 N 115.464 5.00159 2.94655 0
M  V30 1099 H 118.229 2.94328 -0.564882 0
M  V30 1100 H 115.79 1.55612 -0.446823 0
M  V30 1101 H 117.782 3.58144 1.88454 0
M  V30 1102 H 116.352 2.51965 1.8502 0
M  V30 1103 H 115.572 3.93734 -0.191572 0
M  V30 1104 H 116.86 5.08321 0.220665 0
M  V30 1105 H 116.258 4.553 3.35735 0
M  V30 1106 H 114.815 5.46495 3.55228 0
M  V30 1107 N 118.248 0.346503 1.53744 0
M  V30 1108 C 119.664 -0.00530975 1.59599 0
M  V30 1109 C 119.864 -1.48465 1.36236 0
M  V30 1110 O 118.92 -2.24376 1.15808 0
M  V30 1111 C 120.233 0.433516 2.97559 0
M  V30 1112 C 121.781 0.386111 3.10609 0
M  V30 1113 C 122.256 0.800451 4.50951 0
M  V30 1114 N 123.747 0.754753 4.5701 0
M  V30 1115 C 124.482 1.04727 5.63755 0
M  V30 1116 N 123.978 1.4081 6.7834 0
M  V30 1117 N 125.771 0.971316 5.53644 0
M  V30 1118 H 117.922 1.31009 1.67184 0
M  V30 1119 H 120.185 0.534242 0.783128 0
M  V30 1120 H 119.891 1.46509 3.19731 0
M  V30 1121 H 119.765 -0.189753 3.76722 0
M  V30 1122 H 122.152 -0.636295 2.88158 0
M  V30 1123 H 122.233 1.04462 2.33498 0
M  V30 1124 H 121.877 1.82088 4.74137 0
M  V30 1125 H 121.807 0.119386 5.26465 0
M  V30 1126 H 124.298 0.488662 3.74727 0
M  V30 1127 H 124.611 1.61607 7.55714 0
M  V30 1128 H 122.956 1.44657 6.79779 0
M  V30 1129 H 126.147 0.688748 4.63005 0
M  V30 1130 H 126.32 1.20263 6.36742 0
M  V30 1131 N 119.726 -1.57421 0.075193 0
M  V30 1132 C 120.689 -2.11791 -0.876203 0
M  V30 1133 C 121.689 -1.04268 -1.22412 0
M  V30 1134 O 122.879 -1.30242 -1.15684 0
M  V30 1135 C 120.011 -2.62207 -2.17854 0
M  V30 1136 H 121.204 -2.9716 -0.40444 0
M  V30 1137 H 118.757 -1.55333 -0.173557 0
M  V30 1138 H 119.492 -1.803 -2.6956 0
M  V30 1139 H 119.277 -3.40802 -1.93897 0
M  V30 1140 H 120.767 -3.04335 -2.85955 0
M  V30 1141 N 121.204 0.198386 -1.56346 0
M  V30 1142 C 122.429 0.939682 -1.84891 0
M  V30 1143 C 122.854 1.76202 -0.658369 0
M  V30 1144 O 122.212 1.76993 0.392851 0
M  V30 1145 C 122.26 1.81428 -3.11635 0
M  V30 1146 O 121.364 2.91265 -2.91956 0
M  V30 1147 H 120.705 0.264807 -0.608912 0
M  V30 1148 H 123.235 0.204695 -2.03573 0
M  V30 1149 H 123.245 2.21958 -3.42343 0
M  V30 1150 H 121.92 1.21004 -3.97908 0
M  V30 1151 H 120.497 2.54514 -2.72538 0
M  V30 1152 N 122.682 1.50554 0.465978 0
M  V30 1153 C 123.93 1.61479 1.21528 0
M  V30 1154 C 124.251 0.319596 1.92363 0
M  V30 1155 O 123.521 -0.663194 1.84333 0
M  V30 1156 H 122.101 0.595055 0.451573 0
M  V30 1157 H 124.763 1.87355 0.53704 0
M  V30 1158 H 123.859 2.42846 1.96042 0
M  V30 1159 N 124.16 -0.719506 1.40217 0
M  V30 1160 C 125.107 -1.83359 1.40172 0
M  V30 1161 C 126.077 -1.64065 0.259206 0
M  V30 1162 O 127.262 -1.85254 0.456677 0
M  V30 1163 C 124.402 -3.2103 1.26624 0
M  V30 1164 C 123.515 -3.51923 2.50548 0
M  V30 1165 C 122.65 -4.79079 2.29471 0
M  V30 1166 C 121.689 -5.02863 3.48992 0
M  V30 1167 N 120.826 -6.2123 3.27135 0
M  V30 1168 H 125.666 -1.82733 2.35399 0
M  V30 1169 H 123.203 -0.892688 1.16917 0
M  V30 1170 H 125.161 -4.00524 1.16776 0
M  V30 1171 H 123.791 -3.20895 0.350176 0
M  V30 1172 H 122.843 -2.67014 2.70939 0
M  V30 1173 H 124.155 -3.6541 3.39525 0
M  V30 1174 H 123.309 -5.66582 2.16955 0
M  V30 1175 H 122.048 -4.67794 1.37913 0
M  V30 1176 H 121.053 -4.13816 3.6199 0
M  V30 1177 H 122.278 -5.16023 4.41472 0
M  V30 1178 H 120.224 -6.11204 2.38256 0
M  V30 1179 H 120.141 -6.35375 4.09675 0
M  V30 1180 H 121.409 -7.11532 3.18344 0
M  V30 1181 N 125.638 -1.25649 -0.95132 0
M  V30 1182 C 127.049 -1.09654 -1.51106 0
M  V30 1183 C 127.4 0.326615 -1.93462 0
M  V30 1184 O 126.525 1.21697 -1.78938 0
M  V30 1185 C 127.12 -1.98437 -2.74605 0
M  V30 1186 C 125.679 -1.86618 -3.2688 0
M  V30 1187 C 124.826 -1.9239 -1.99703 0
M  V30 1188 H 127.777 -1.38887 -0.767865 0
M  V30 1189 H 127.798 -1.5263 -3.48546 0
M  V30 1190 H 127.31 -3.02009 -2.43746 0
M  V30 1191 H 125.411 -0.859421 -3.62553 0
M  V30 1192 H 125.524 -2.71607 -3.94673 0
M  V30 1193 H 123.888 -1.36317 -2.15151 0
M  V30 1194 H 124.671 -2.97573 -1.71188 0
M  V30 1195 N 127.117 1.15442 -1.07289 0
M  V30 1196 C 128.342 1.90638 -0.816828 0
M  V30 1197 C 128.767 1.77445 0.624083 0
M  V30 1198 O 128.125 1.10671 1.43602 0
M  V30 1199 C 128.173 3.39008 -1.22906 0
M  V30 1200 O 127.277 4.10701 -0.373975 0
M  V30 1201 H 126.618 0.593555 -0.297638 0
M  V30 1202 H 129.148 1.46198 -1.43134 0
M  V30 1203 H 129.158 3.89801 -1.20497 0
M  V30 1204 H 127.833 3.47929 -2.27856 0
M  V30 1205 H 126.41 3.70046 -0.460499 0
M  V30 1206 N 128.595 0.856903 1.32268 0
M  V30 1207 C 129.543 0.291987 2.3076 0
M  V30 1208 C 130.537 -0.585857 1.58947 0
M  V30 1209 O 131.743 -0.47341 1.73663 0
M  V30 1210 H 128.118 0.075721 0.748178 0
M  V30 1211 H 130.089 1.13687 2.75895 0
M  V30 1212 C 128.838 -0.502869 3.44044 0
M  V30 1213 H 128.161 0.163328 3.99466 0
M  V30 1214 H 129.601 -0.863691 4.1511 0
M  V30 1215 C 128.06 -1.68898 2.91505 0
M  V30 1216 O 128.59 -2.78811 2.89184 0
M  V30 1217 N 126.796 -1.51679 2.47875 0
M  V30 1218 H 126.343 -0.622666 2.49961 0
M  V30 1219 H 126.301 -2.31184 2.13076 0
M  V30 1220 N 130.073 -1.45103 0.615059 0
M  V30 1221 C 131.319 -2.02483 0.113347 0
M  V30 1222 C 131.652 -1.48146 -1.25564 0
M  V30 1223 O 130.927 -0.659104 -1.82992 0
M  V30 1224 C 131.21 -3.60005 0.0825278 0
M  V30 1225 C 131.063 -4.2466 1.48271 0
M  V30 1226 C 132.382 -4.35972 -0.601401 0
M  V30 1227 H 129.501 -0.735764 0.0426632 0
M  V30 1228 H 132.143 -1.72868 0.788461 0
M  V30 1229 H 130.293 -3.85367 -0.492378 0
M  V30 1230 H 131.965 -4.10458 2.10527 0
M  V30 1231 H 130.208 -3.82772 2.04127 0
M  V30 1232 H 130.879 -5.336 1.41332 0
M  V30 1233 H 133.355 -4.15947 -0.112666 0
M  V30 1234 H 132.231 -5.45697 -0.592097 0
M  V30 1235 H 132.492 -4.09391 -1.66887 0
M  V30 1236 N 131.551 -0.354651 -1.53558 0
M  V30 1237 C 132.799 0.237972 -2.00694 0
M  V30 1238 C 133.12 1.50173 -1.24391 0
M  V30 1239 O 132.39 1.92673 -0.354135 0
M  V30 1240 H 130.97 0.0909256 -0.741446 0
M  V30 1241 H 133.632 -0.478368 -1.88938 0
M  V30 1242 H 132.728 0.47264 -3.085 0
M  V30 1243 N 133.029 1.57378 -0.0835403 0
M  V30 1244 C 133.979 2.09916 0.889905 0
M  V30 1245 C 134.963 1.01151 1.25129 0
M  V30 1246 O 136.155 1.27443 1.2283 0
M  V30 1247 C 133.284 2.67379 2.15322 0
M  V30 1248 C 132.37 3.83167 1.81779 0
M  V30 1249 N 132.761 4.91665 1.18739 0
M  V30 1250 C 131.059 3.92685 2.11459 0
M  V30 1251 C 131.76 5.72409 1.0355 0
M  V30 1252 N 130.736 5.21062 1.54906 0
M  V30 1253 H 134.538 2.91188 0.398378 0
M  V30 1254 H 132.052 1.61956 0.120013 0
M  V30 1255 H 134.049 3.0334 2.8599 0
M  V30 1256 H 132.709 1.87558 2.65051 0
M  V30 1257 H 133.72 5.10784 0.855604 0
M  V30 1258 H 130.397 3.23856 2.63483 0
M  V30 1259 H 131.787 6.69699 0.543425 0
M  V30 1260 N 134.507 -0.190092 1.56449 0
M  V30 1261 C 135.923 -0.54113 1.50146 0
M  V30 1262 C 136.123 -1.85603 0.784465 0
M  V30 1263 O 135.179 -2.5024 0.337051 0
M  V30 1264 C 136.492 -0.591241 2.9483 0
M  V30 1265 C 138.04 -0.679732 3.0553 0
M  V30 1266 C 138.515 -0.760908 4.51635 0
M  V30 1267 N 140.006 -0.824302 4.55806 0
M  V30 1268 C 140.741 -0.907365 5.66175 0
M  V30 1269 N 140.237 -0.952422 6.86222 0
M  V30 1270 N 142.03 -0.94494 5.541 0
M  V30 1271 H 134.181 0.67235 2.01478 0
M  V30 1272 H 136.444 0.240127 0.917084 0
M  V30 1273 H 136.15 0.305905 3.50367 0
M  V30 1274 H 136.024 -1.44422 3.48457 0
M  V30 1275 H 138.411 -1.56731 2.50039 0
M  V30 1276 H 138.492 0.199549 2.5502 0
M  V30 1277 H 138.136 0.122336 5.07753 0
M  V30 1278 H 138.066 -1.65606 4.99882 0
M  V30 1279 H 140.557 -0.798526 3.69367 0
M  V30 1280 H 140.87 -1.01645 7.66086 0
M  V30 1281 H 139.215 -0.921014 6.8887 0
M  V30 1282 H 142.406 -0.906612 4.59236 0
M  V30 1283 H 142.579 -1.00622 6.4014 0
M  V30 1284 N 135.985 -1.50799 -0.457987 0
M  V30 1285 C 136.915 -1.73553 -1.5621 0
M  V30 1286 C 137.896 -0.584774 -1.59732 0
M  V30 1287 O 139.081 -0.825314 -1.7579 0
M  V30 1288 C 136.211 -1.84169 -2.94447 0
M  V30 1289 C 135.165 -2.99461 -3.0579 0
M  V30 1290 C 134.491 -2.95235 -4.45803 0
M  V30 1291 C 135.791 -4.39766 -2.81786 0
M  V30 1292 H 137.485 -2.66 -1.37421 0
M  V30 1293 H 135.031 -1.28002 -0.659662 0
M  V30 1294 H 136.984 -1.98672 -3.71628 0
M  V30 1295 H 135.708 -0.883545 -3.14422 0
M  V30 1296 H 134.367 -2.8463 -2.31044 0
M  V30 1297 H 134.015 -1.97239 -4.62715 0
M  V30 1298 H 133.715 -3.72642 -4.54326 0
M  V30 1299 H 135.239 -3.11803 -5.24987 0
M  V30 1300 H 136.653 -4.55054 -3.4871 0
M  V30 1301 H 135.05 -5.18722 -3.0174 0
M  V30 1302 H 136.12 -4.51229 -1.7754 0
M  V30 1303 N 137.463 0.71206 -1.40597 0
M  V30 1304 C 138.711 1.46907 -1.38791 0
M  V30 1305 C 139.032 1.94998 0.00780391 0
M  V30 1306 O 138.302 1.70587 0.963174 0
M  V30 1307 H 136.882 0.545043 -0.51082 0
M  V30 1308 H 139.544 0.843882 -1.75683 0
M  V30 1309 H 138.64 2.34021 -2.06496 0
M  V30 1310 N 138.941 1.26152 0.944643 0
M  V30 1311 C 139.891 1.04081 2.02857 0
M  V30 1312 C 140.875 -0.0256555 1.6088 0
M  V30 1313 O 142.067 0.190884 1.75968 0
M  V30 1314 C 139.196 0.672118 3.36656 0
M  V30 1315 C 138.282 1.77586 3.85128 0
M  V30 1316 N 138.673 3.01272 4.06287 0
M  V30 1317 C 136.971 1.65867 4.1401 0
M  V30 1318 C 137.672 3.72983 4.46384 0
M  V30 1319 N 136.648 3.00653 4.52889 0
M  V30 1320 H 140.45 1.97968 2.17223 0
M  V30 1321 H 137.964 1.16618 1.13022 0
M  V30 1322 H 139.961 0.495166 4.13949 0
M  V30 1323 H 138.621 -0.259307 3.23663 0
M  V30 1324 H 139.632 3.37213 3.93075 0
M  V30 1325 H 136.309 0.796907 4.09824 0
M  V30 1326 H 137.699 4.792 4.70975 0
M  V30 1327 N 140.419 -1.14872 1.07899 0
M  V30 1328 C 141.835 -1.37776 0.805606 0
M  V30 1329 C 142.035 -1.92743 -0.587555 0
M  V30 1330 O 141.091 -2.13678 -1.34528 0
M  V30 1331 C 142.404 -2.34361 1.88402 0
M  V30 1332 C 143.952 -2.48012 1.90942 0
M  V30 1333 C 144.427 -3.47893 2.97883 0
M  V30 1334 N 145.918 -3.55433 2.97021 0
M  V30 1335 C 146.653 -4.32553 3.76412 0
M  V30 1336 N 146.149 -5.12959 4.65666 0
M  V30 1337 N 147.942 -4.27697 3.64735 0
M  V30 1338 H 140.093 -0.775365 1.97742 0
M  V30 1339 H 142.356 -0.403521 0.857831 0
M  V30 1340 H 142.062 -2.01098 2.88535 0
M  V30 1341 H 141.936 -3.34206 1.74889 0
M  V30 1342 H 144.323 -2.8057 0.914579 0
M  V30 1343 H 144.404 -1.48147 2.08534 0
M  V30 1344 H 144.048 -3.16069 3.97571 0
M  V30 1345 H 143.978 -4.47527 2.77538 0
M  V30 1346 H 146.469 -2.98048 2.32326 0
M  V30 1347 H 146.782 -5.69065 5.22862 0
M  V30 1348 H 145.127 -5.12245 4.69712 0
M  V30 1349 H 148.318 -3.63949 2.94378 0
M  V30 1350 H 148.491 -4.8755 4.26848 0
M  V30 1351 N 141.898 -0.863906 -1.31812 0
M  V30 1352 C 143.314 -0.555004 -1.49639 0
M  V30 1353 C 143.514 0.912266 -1.79666 0
M  V30 1354 O 142.57 1.69479 -1.87171 0
M  V30 1355 C 143.883 -1.44998 -2.63431 0
M  V30 1356 C 145.431 -1.45138 -2.77316 0
M  V30 1357 C 145.906 -2.33179 -3.94197 0
M  V30 1358 N 147.397 -2.31025 -4.01474 0
M  V30 1359 C 148.132 -2.95871 -4.9117 0
M  V30 1360 N 147.628 -3.69863 -5.8581 0
M  V30 1361 N 149.421 -2.85211 -4.84367 0
M  V30 1362 H 141.572 -1.81339 -1.10589 0
M  V30 1363 H 143.835 -0.77505 -0.545895 0
M  V30 1364 H 143.541 -2.49377 -2.48 0
M  V30 1365 H 143.415 -1.14409 -3.59431 0
M  V30 1366 H 145.802 -0.415201 -2.92164 0
M  V30 1367 H 145.883 -1.79747 -1.82001 0
M  V30 1368 H 145.527 -3.3687 -3.80107 0
M  V30 1369 H 145.457 -1.95897 -4.88807 0
M  V30 1370 H 147.948 -1.77238 -3.33759 0
M  V30 1371 H 148.261 -4.16486 -6.50968 0
M  V30 1372 H 146.606 -3.73971 -5.85808 0
M  V30 1373 H 149.797 -2.26948 -4.09405 0
M  V30 1374 H 149.97 -3.36027 -5.54066 0
M  V30 1375 N 143.376 1.44774 -0.622745 0
M  V30 1376 C 144.339 2.29069 0.0774015 0
M  V30 1377 C 145.339 1.4059 0.780461 0
M  V30 1378 O 146.529 1.62551 0.626322 0
M  V30 1379 C 143.661 3.21974 1.12006 0
M  V30 1380 H 144.854 2.92459 -0.663901 0
M  V30 1381 H 142.407 1.51548 -0.382486 0
M  V30 1382 H 143.142 2.63417 1.89162 0
M  V30 1383 H 142.927 3.87168 0.619951 0
M  V30 1384 H 144.417 3.85318 1.60995 0
M  V30 1385 N 144.854 0.36279 1.53368 0
M  V30 1386 C 145.784 -0.476976 2.28576 0
M  V30 1387 C 146.765 -1.08631 1.30894 0
M  V30 1388 O 147.95 -1.10409 1.59761 0
M  V30 1389 C 145.08 -1.61828 3.07293 0
M  V30 1390 C 144.034 -1.13633 4.1264 0
M  V30 1391 C 143.36 -2.36766 4.79423 0
M  V30 1392 C 144.66 -0.223061 5.21823 0
M  V30 1393 H 146.354 0.150474 2.99022 0
M  V30 1394 H 143.9 0.0738103 1.43811 0
M  V30 1395 H 145.853 -2.21237 3.58653 0
M  V30 1396 H 144.577 -2.27292 2.34533 0
M  V30 1397 H 143.236 -0.564945 3.62221 0
M  V30 1398 H 142.884 -3.0068 4.03238 0
M  V30 1399 H 142.584 -2.05192 5.50609 0
M  V30 1400 H 144.108 -2.96865 5.33576 0
M  V30 1401 H 145.522 -0.724545 5.68703 0
M  V30 1402 H 143.919 0.001678 6.001 0
M  V30 1403 H 144.989 0.735553 4.79289 0
M  V30 1404 N 146.332 -1.57332 0.0918853 0
M  V30 1405 C 147.579 -1.94236 -0.572577 0
M  V30 1406 C 147.907 -0.973398 -1.6839 0
M  V30 1407 O 147.162 0.00756912 -1.95699 0
M  V30 1408 C 147.461 -3.37689 -1.17051 0
M  V30 1409 C 147.127 -4.50527 -0.183304 0
M  V30 1410 C 145.789 -4.81119 0.0882276 0
M  V30 1411 C 148.141 -5.18883 0.49095 0
M  V30 1412 C 145.469 -5.77395 1.04076 0
M  V30 1413 C 147.821 -6.1618 1.43193 0
M  V30 1414 C 146.485 -6.45179 1.71173 0
M  V30 1415 H 145.755 -0.710762 -0.209521 0
M  V30 1416 H 148.402 -1.9077 0.167036 0
M  V30 1417 H 146.707 -3.37718 -1.9863 0
M  V30 1418 H 148.404 -3.63543 -1.69227 0
M  V30 1419 H 144.994 -4.26681 -0.405124 0
M  V30 1420 H 149.178 -4.95427 0.294312 0
M  V30 1421 H 144.434 -5.98179 1.26457 0
M  V30 1422 H 148.608 -6.68243 1.96023 0
M  V30 1423 H 146.235 -7.1959 2.4514 0
M  V30 1424 N 147.81 0.181792 -1.56548 0
M  V30 1425 C 148.72 1.24538 -1.98815 0
M  V30 1426 C 149.736 1.49045 -0.897861 0
M  V30 1427 O 150.912 1.61399 -1.20467 0
M  V30 1428 C 147.977 2.56683 -2.33055 0
M  V30 1429 C 147.038 2.40131 -3.55859 0
M  V30 1430 C 146.271 3.65975 -3.88456 0
M  V30 1431 O 146.494 4.70711 -3.22161 0
M  V30 1432 O 145.428 3.6071 -4.81842 0
M  V30 1433 H 149.254 0.916647 -2.89536 0
M  V30 1434 H 146.839 0.387842 -1.44278 0
M  V30 1435 H 148.721 3.34655 -2.56094 0
M  V30 1436 H 147.396 2.89157 -1.45498 0
M  V30 1437 H 146.303 1.60226 -3.38051 0
M  V30 1438 H 147.636 2.12585 -4.43924 0
M  V30 1439 N 149.288 1.51039 0.449983 0
M  V30 1440 C 150.235 1.71439 1.54523 0
M  V30 1441 C 151.205 0.555871 1.56522 0
M  V30 1442 O 152.39 0.788871 1.73728 0
M  V30 1443 C 149.53 1.83384 2.92343 0
M  V30 1444 C 148.643 3.10873 2.9997 0
M  V30 1445 C 147.778 3.13488 4.28834 0
M  V30 1446 C 146.817 4.35343 4.30282 0
M  V30 1447 N 145.954 4.35579 5.5065 0
M  V30 1448 H 150.794 2.64934 1.36433 0
M  V30 1449 H 148.331 1.31312 0.662982 0
M  V30 1450 H 150.289 1.88291 3.72293 0
M  V30 1451 H 148.919 0.933086 3.0902 0
M  V30 1452 H 147.971 3.15336 2.12761 0
M  V30 1453 H 149.283 4.00814 2.96901 0
M  V30 1454 H 148.437 3.17241 5.17149 0
M  V30 1455 H 147.176 2.21414 4.34543 0
M  V30 1456 H 146.181 4.3178 3.40362 0
M  V30 1457 H 147.406 5.28668 4.26248 0
M  V30 1458 H 145.352 3.46369 5.57104 0
M  V30 1459 H 145.269 5.19313 5.49409 0
M  V30 1460 H 146.537 4.43507 6.41032 0
M  V30 1461 N 150.766 -0.704594 1.40972 0
M  V30 1462 C 152.182 -1.01406 1.23244 0
M  V30 1463 C 152.382 -2.01169 0.115399 0
M  V30 1464 O 151.438 -2.47021 -0.523147 0
M  V30 1465 C 152.751 -1.54728 2.57836 0
M  V30 1466 C 154.299 -1.66658 2.64942 0
M  V30 1467 C 154.774 -2.23383 3.9983 0
M  V30 1468 N 156.265 -2.30756 4.01629 0
M  V30 1469 C 157 -2.75655 5.02794 0
M  V30 1470 N 156.496 -3.20225 6.14352 0
M  V30 1471 N 158.289 -2.75138 4.90159 0
M  V30 1472 H 150.44 -0.0435285 2.12355 0
M  V30 1473 H 152.703 -0.0818951 0.944456 0
M  V30 1474 H 152.409 -0.888832 3.40283 0
M  V30 1475 H 152.283 -2.53084 2.79693 0
M  V30 1476 H 154.67 -2.31617 1.8286 0
M  V30 1477 H 154.751 -0.668717 2.46904 0
M  V30 1478 H 154.395 -1.59043 4.82357 0
M  V30 1479 H 154.325 -3.23904 4.15203 0
M  V30 1480 H 156.816 -1.99291 3.21079 0
M  V30 1481 H 157.129 -3.53084 6.87424 0
M  V30 1482 H 155.474 -3.18156 6.17901 0
M  V30 1483 H 158.665 -2.39661 4.02095 0
M  V30 1484 H 158.838 -3.09812 5.6914 0
M  V30 1485 N 152.244 -1.26651 -0.937939 0
M  V30 1486 C 153.191 -1.0849 -2.03712 0
M  V30 1487 C 154.161 0.011033 -1.66096 0
M  V30 1488 O 155.346 -0.149353 -1.90215 0
M  V30 1489 C 152.486 -0.72735 -3.37348 0
M  V30 1490 C 151.599 -1.89986 -3.87981 0
M  V30 1491 C 150.734 -1.48513 -5.10017 0
M  V30 1492 C 149.773 -2.62575 -5.5292 0
M  V30 1493 N 148.91 -2.21762 -6.66158 0
M  V30 1494 H 153.75 -2.02551 -2.18579 0
M  V30 1495 H 151.287 -1.00844 -1.07093 0
M  V30 1496 H 153.245 -0.50092 -4.14182 0
M  V30 1497 H 151.875 0.176298 -3.22318 0
M  V30 1498 H 150.927 -2.23913 -3.07518 0
M  V30 1499 H 152.239 -2.75586 -4.15757 0
M  V30 1500 H 151.393 -1.21934 -5.94321 0
M  V30 1501 H 150.132 -0.60009 -4.83994 0
M  V30 1502 H 149.137 -2.8988 -4.67172 0
M  V30 1503 H 150.362 -3.51685 -5.80943 0
M  V30 1504 H 148.308 -1.35696 -6.41812 0
M  V30 1505 H 148.225 -3.00903 -6.93537 0
M  V30 1506 H 149.493 -1.98403 -7.53828 0
M  V30 1507 N 153.722 1.14298 -1.08507 0
M  V30 1508 C 155.138 1.37347 -0.812901 0
M  V30 1509 C 155.338 1.93052 0.577325 0
M  V30 1510 O 154.394 2.14389 1.33393 0
M  V30 1511 C 155.707 2.33359 -1.89642 0
M  V30 1512 C 157.255 2.46996 -1.92255 0
M  V30 1513 C 157.73 3.46309 -2.99724 0
M  V30 1514 N 159.221 3.53853 -2.98902 0
M  V30 1515 C 159.956 4.3055 -3.787 0
M  V30 1516 N 159.452 5.10482 -4.6838 0
M  V30 1517 N 161.245 4.25757 -3.66998 0
M  V30 1518 H 153.396 0.764867 -1.9815 0
M  V30 1519 H 155.659 0.398966 -0.859959 0
M  V30 1520 H 155.365 1.99565 -2.89597 0
M  V30 1521 H 155.239 3.33274 -1.76659 0
M  V30 1522 H 157.626 2.80081 -0.929445 0
M  V30 1523 H 157.707 1.47039 -2.09316 0
M  V30 1524 H 157.351 3.13957 -3.99241 0
M  V30 1525 H 157.281 4.46049 -2.79907 0
M  V30 1526 H 159.772 2.96812 -2.33904 0
M  V30 1527 H 160.085 5.66284 -5.25873 0
M  V30 1528 H 158.43 5.09747 -4.72422 0
M  V30 1529 H 161.621 3.62383 -2.96304 0
M  V30 1530 H 161.794 4.85279 -4.29427 0
M  V30 1531 N 155.201 0.870884 1.31352 0
M  V30 1532 C 156.131 0.343096 2.30966 0
M  V30 1533 C 157.112 -0.566507 1.60389 0
M  V30 1534 O 158.297 -0.483336 1.88089 0
M  V30 1535 C 155.427 -0.455487 3.443 0
M  V30 1536 C 154.381 0.361103 4.26474 0
M  V30 1537 C 153.707 -0.563221 5.31725 0
M  V30 1538 C 155.007 1.59566 4.97329 0
M  V30 1539 H 156.701 1.17548 2.75359 0
M  V30 1540 H 154.247 0.566686 1.32381 0
M  V30 1541 H 156.2 -0.83525 4.13039 0
M  V30 1542 H 154.924 -1.32139 2.98675 0
M  V30 1543 H 153.583 0.722825 3.59403 0
M  V30 1544 H 153.231 -1.42643 4.82351 0
M  V30 1545 H 152.931 -0.0207409 5.87596 0
M  V30 1546 H 154.455 -0.939808 6.03324 0
M  V30 1547 H 155.869 1.28728 5.58661 0
M  V30 1548 H 154.266 2.07728 5.63 0
M  V30 1549 H 155.336 2.34798 4.24262 0
M  V30 1550 N 156.679 -1.44442 0.630414 0
M  V30 1551 C 157.904 -2.06927 0.139944 0
M  V30 1552 C 158.329 -1.46795 -1.17613 0
M  V30 1553 O 157.687 -0.569144 -1.72135 0
M  V30 1554 C 157.735 -3.6058 0.0379581 0
M  V30 1555 O 156.839 -3.99937 -1.0062 0
M  V30 1556 H 156.18 -0.658608 0.0844483 0
M  V30 1557 H 158.71 -1.85327 0.866891 0
M  V30 1558 H 158.72 -4.07714 -0.152856 0
M  V30 1559 H 157.395 -4.03728 0.998809 0
M  V30 1560 H 155.972 -3.64436 -0.79001 0
M  V30 1561 N 158.157 -0.370918 -1.53173 0
M  V30 1562 C 159.434 0.273754 -1.93675 0
M  V30 1563 C 159.814 1.65938 -1.3049 0
M  V30 1564 O 159.162 2.23698 -0.465999 0
M  V30 1565 C 159.372 0.318602 -3.47543 0
M  V30 1566 C 160.72 0.556392 -4.20939 0
M  V30 1567 O 161.744 0.399587 -3.53952 0
M  V30 1568 O 160.603 0.862133 -5.39657 0
M  V30 1569 H 157.697 0.165448 -0.810281 0
M  V30 1570 H 160.243 -0.42409 -1.64315 0
M  V30 1571 H 159.015 -0.652687 -3.85818 0
M  V30 1572 H 158.638 1.06212 -3.83151 0
M  V30 1573 N 159.635 1.57281 -0.100228 0
M  V30 1574 C 160.865 1.98591 0.569681 0
M  V30 1575 C 161.273 0.978315 1.61943 0
M  V30 1576 O 160.616 -0.0396108 1.83657 0
M  V30 1577 C 160.678 3.36282 1.271 0
M  V30 1578 C 160.342 4.55488 0.371409 0
M  V30 1579 C 161.339 5.18491 -0.382504 0
M  V30 1580 C 159.024 5.01474 0.287965 0
M  V30 1581 C 161.018 6.25852 -1.20779 0
M  V30 1582 C 158.705 6.08701 -0.540965 0
M  V30 1583 C 159.703 6.70755 -1.28749 0
M  V30 1584 O 159.391 7.75914 -2.10269 0
M  V30 1585 H 159.123 0.65752 0.156982 0
M  V30 1586 H 161.677 2.0463 -0.177734 0
M  V30 1587 H 159.907 3.26941 2.0651 0
M  V30 1588 H 161.596 3.62005 1.83595 0
M  V30 1589 H 162.362 4.83891 -0.3278 0
M  V30 1590 H 158.241 4.52932 0.858689 0
M  V30 1591 H 161.785 6.74218 -1.79096 0
M  V30 1592 H 157.682 6.42732 -0.597131 0
M  V30 1593 H 158.45 7.92925 -2.03007 0
M  V30 1594 N 161.113 -0.173488 1.56642 0
M  V30 1595 C 162.076 -1.19859 1.95362 0
M  V30 1596 C 163.076 -1.37296 0.83704 0
M  V30 1597 O 164.266 -1.34739 1.10413 0
M  V30 1598 C 161.398 -2.56405 2.24654 0
M  V30 1599 H 162.591 -0.867062 2.87092 0
M  V30 1600 H 160.144 -0.415853 1.50666 0
M  V30 1601 H 160.879 -2.94576 1.35631 0
M  V30 1602 H 160.664 -2.45115 3.06041 0
M  V30 1603 H 162.154 -3.30287 2.5554 0
M  V30 1604 N 162.591 -1.51276 -0.441967 0
M  V30 1605 C 163.521 -1.752 -1.54361 0
M  V30 1606 C 164.502 -0.601682 -1.59103 0
M  V30 1607 O 165.687 -0.843913 -1.74905 0
M  V30 1608 C 162.817 -1.87282 -2.92477 0
M  V30 1609 C 161.771 -3.02687 -3.02596 0
M  V30 1610 C 161.097 -2.99947 -4.42647 0
M  V30 1611 C 162.397 -4.4273 -2.77106 0
M  V30 1612 H 164.091 -2.67442 -1.34592 0
M  V30 1613 H 161.637 -1.28694 -0.646048 0
M  V30 1614 H 163.59 -2.02602 -3.695 0
M  V30 1615 H 162.314 -0.916844 -3.13467 0
M  V30 1616 H 160.973 -2.87065 -2.28012 0
M  V30 1617 H 160.621 -2.02136 -4.60597 0
M  V30 1618 H 160.321 -3.77439 -4.50348 0
M  V30 1619 H 161.845 -3.17354 -5.2165 0
M  V30 1620 H 163.259 -4.58727 -3.43864 0
M  V30 1621 H 161.656 -5.21893 -2.96222 0
M  V30 1622 H 162.726 -4.53087 -1.72744 0
M  V30 1623 N 164.069 0.697108 -1.41344 0
M  V30 1624 C 165.318 1.45279 -1.39918 0
M  V30 1625 C 165.631 1.95597 -0.0109624 0
M  V30 1626 O 166.837 2.71208 0.125919 0
M  V30 1627 C 165.293 2.62695 -2.46007 0
M  V30 1628 C 164.901 2.19169 -3.90729 0
M  V30 1629 C 166.645 3.40336 -2.53715 0
M  V30 1630 C 164.552 3.33535 -4.88373 0
M  V30 1631 H 163.482 0.545692 -0.520323 0
M  V30 1632 H 166.133 0.756929 -1.67161 0
M  V30 1633 H 164.515 3.34541 -2.11892 0
M  V30 1634 H 165.689 1.54623 -4.34083 0
M  V30 1635 H 164.004 1.54525 -3.86666 0
M  V30 1636 H 166.601 4.2547 -3.2385 0
M  V30 1637 H 166.944 3.85418 -1.5735 0
M  V30 1638 H 167.477 2.75546 -2.86913 0
M  V30 1639 H 164.216 2.93468 -5.86137 0
M  V30 1640 H 163.736 3.96936 -4.49668 0
M  V30 1641 H 165.415 3.99335 -5.09059 0
M  V30 1642 N 165.547 1.27147 0.931209 0
M  V30 1643 C 166.794 1.13278 1.67852 0
M  V30 1644 C 167.122 -0.32204 1.91815 0
M  V30 1645 O 166.377 -1.25224 1.50391 0
M  V30 1646 C 166.676 1.8579 3.05314 0
M  V30 1647 C 166.342 3.35657 3.01073 0
M  V30 1648 C 165.004 3.76536 2.99623 0
M  V30 1649 C 167.356 4.31299 2.92627 0
M  V30 1650 C 164.684 5.11426 2.87506 0
M  V30 1651 C 167.036 5.66242 2.82051 0
M  V30 1652 C 165.7 6.06418 2.7895 0
M  V30 1653 H 164.97 0.414515 0.614214 0
M  V30 1654 H 167.617 1.57712 1.08624 0
M  V30 1655 H 165.922 1.33854 3.68226 0
M  V30 1656 H 167.619 1.72491 3.62005 0
M  V30 1657 H 164.209 3.03146 3.02986 0
M  V30 1658 H 168.393 4.00692 2.92848 0
M  V30 1659 H 163.649 5.41705 2.83489 0
M  V30 1660 H 167.823 6.40026 2.74481 0
M  V30 1661 H 165.45 7.10895 2.69318 0
M  V30 1662 N 167.025 -1.13721 1.09112 0
M  V30 1663 C 168.273 -1.84559 0.823562 0
M  V30 1664 C 168.594 -1.83754 -0.652658 0
M  V30 1665 O 167.864 -1.29102 -1.47342 0
M  V30 1666 H 166.444 -0.683376 0.301673 0
M  V30 1667 H 169.106 -1.37771 1.37859 0
M  V30 1668 H 168.202 -2.8917 1.17419 0
M  V30 1669 N 168.503 -0.877838 -1.30888 0
M  V30 1670 C 169.436 -0.283995 -2.26426 0
M  V30 1671 C 170.414 0.591361 -1.51465 0
M  V30 1672 O 171.598 0.54304 -1.80509 0
M  V30 1673 C 168.725 0.597129 -3.33395 0
M  V30 1674 C 167.771 -0.207937 -4.25993 0
M  V30 1675 S 168.604 -1.59158 -5.11301 0
M  V30 1676 C 169.76 -0.716791 -6.21782 0
M  V30 1677 H 169.993 -1.09383 -2.76446 0
M  V30 1678 H 167.526 -0.676828 -1.38775 0
M  V30 1679 H 169.484 1.09978 -3.95493 0
M  V30 1680 H 168.145 1.38099 -2.82113 0
M  V30 1681 H 167.338 0.464163 -5.01858 0
M  V30 1682 H 166.94 -0.642963 -3.68432 0
M  V30 1683 H 169.232 0.0692833 -6.77465 0
M  V30 1684 H 170.175 -1.44682 -6.93161 0
M  V30 1685 H 170.583 -0.280855 -5.63801 0
M  V30 1686 N 169.982 1.44106 -0.638065 0
M  V30 1687 C 171.229 2.01978 -0.14533 0
M  V30 1688 C 171.557 1.50234 1.23532 0
M  V30 1689 O 170.812 0.679548 1.83523 0
M  V30 1690 C 171.111 3.5729 -0.0887327 0
M  V30 1691 C 170.777 4.28317 -1.40909 0
M  V30 1692 C 169.439 4.47437 -1.77069 0
M  V30 1693 C 171.791 4.6867 -2.28031 0
M  V30 1694 C 169.119 5.04171 -3.00047 0
M  V30 1695 C 171.471 5.26766 -3.50286 0
M  V30 1696 C 170.135 5.44104 -3.86661 0
M  V30 1697 H 169.405 0.739089 -0.0531801 0
M  V30 1698 H 172.052 1.72781 -0.825761 0
M  V30 1699 H 170.357 3.8594 0.675095 0
M  V30 1700 H 172.054 3.99807 0.309145 0
M  V30 1701 H 168.644 4.1377 -1.1177 0
M  V30 1702 H 172.828 4.53604 -2.01388 0
M  V30 1703 H 168.084 5.15782 -3.28298 0
M  V30 1704 H 172.258 5.56983 -4.18023 0
M  V30 1705 H 169.885 5.87832 -4.82034 0
M  V30 1706 N 171.46 0.379036 1.52974 0
M  V30 1707 C 172.708 -0.206014 2.01047 0
M  V30 1708 C 173.029 -1.48175 1.26765 0
M  V30 1709 O 172.299 -1.92085 0.384743 0
M  V30 1710 H 170.879 -0.0791184 0.742798 0
M  V30 1711 H 173.541 0.508366 1.88153 0
M  V30 1712 H 172.637 -0.423501 3.09213 0
M  V30 1713 N 172.938 -1.57226 0.108567 0
M  V30 1714 C 174.187 -1.94008 -0.551703 0
M  V30 1715 C 174.5 -0.993442 -1.68494 0
M  V30 1716 O 175.706 -1.25551 -2.40726 0
M  V30 1717 C 174.162 -3.44763 -1.03279 0
M  V30 1718 C 173.77 -4.47943 0.0714193 0
M  V30 1719 C 175.514 -3.90483 -1.66503 0
M  V30 1720 C 173.421 -5.89865 -0.425779 0
M  V30 1721 H 172.351 -0.724206 -0.209863 0
M  V30 1722 H 175.002 -1.82547 0.186741 0
M  V30 1723 H 173.384 -3.51422 -1.82533 0
M  V30 1724 H 174.558 -4.52942 0.847365 0
M  V30 1725 H 172.873 -4.11913 0.609669 0
M  V30 1726 H 175.47 -4.93925 -2.04798 0
M  V30 1727 H 175.813 -3.29877 -2.53942 0
M  V30 1728 H 176.346 -3.86581 -0.938074 0
M  V30 1729 H 173.085 -6.54202 0.412316 0
M  V30 1730 H 172.605 -5.88309 -1.16843 0
M  V30 1731 H 174.284 -6.40844 -0.890397 0
M  V30 1732 N 174.416 0.165178 -1.56732 0
M  V30 1733 C 175.662 0.882112 -1.82611 0
M  V30 1734 C 175.995 1.81628 -0.687378 0
M  V30 1735 O 175.27 1.92009 0.310267 0
M  V30 1736 C 175.553 1.67245 -3.18906 0
M  V30 1737 C 175.406 0.760987 -4.43316 0
M  V30 1738 C 176.725 2.63884 -3.52212 0
M  V30 1739 H 173.844 0.319242 -0.664269 0
M  V30 1740 H 176.486 0.148052 -1.89422 0
M  V30 1741 H 174.636 2.29824 -3.1323 0
M  V30 1742 H 176.308 0.147596 -4.61064 0
M  V30 1743 H 174.551 0.0694102 -4.33744 0
M  V30 1744 H 175.222 1.34962 -5.35247 0
M  V30 1745 H 177.698 2.11429 -3.58381 0
M  V30 1746 H 176.574 3.16245 -4.48643 0
M  V30 1747 H 176.835 3.44377 -2.77231 0
M  V30 1748 N 175.894 1.51508 0.433938 0
M  V30 1749 C 177.14 1.64588 1.18484 0
M  V30 1750 C 177.473 0.362666 1.90784 0
M  V30 1751 O 176.748 -0.637892 1.83742 0
M  V30 1752 C 177.031 2.85149 2.19913 0
M  V30 1753 C 176.884 4.23456 1.51674 0
M  V30 1754 C 178.203 3.01227 3.20858 0
M  V30 1755 H 175.322 0.598994 0.429389 0
M  V30 1756 H 177.964 1.84002 0.473647 0
M  V30 1757 H 176.114 2.68729 2.80566 0
M  V30 1758 H 177.786 4.51552 0.943322 0
M  V30 1759 H 176.029 4.25998 0.819035 0
M  V30 1760 H 176.7 5.03812 2.2556 0
M  V30 1761 H 179.176 3.16382 2.70263 0
M  V30 1762 H 178.052 3.87141 3.89118 0
M  V30 1763 H 178.313 2.13447 3.8716 0
M  V30 1764 N 177.372 -0.689602 1.41712 0
M  V30 1765 C 178.305 -1.81403 1.3845 0
M  V30 1766 C 179.283 -1.60653 0.250874 0
M  V30 1767 O 180.467 -1.83323 0.43874 0
M  V30 1768 C 177.594 -3.18176 1.1611 0
M  V30 1769 C 176.64 -3.57705 2.3227 0
M  V30 1770 S 177.473 -3.61827 3.94767 0
M  V30 1771 C 178.629 -5.01318 3.74742 0
M  V30 1772 H 178.862 -1.83893 2.33603 0
M  V30 1773 H 176.395 -0.858878 1.28307 0
M  V30 1774 H 178.353 -3.97132 1.03907 0
M  V30 1775 H 177.014 -3.13288 0.225668 0
M  V30 1776 H 176.207 -4.57082 2.12349 0
M  V30 1777 H 175.809 -2.86073 2.40911 0
M  V30 1778 H 178.101 -5.88986 3.34817 0
M  V30 1779 H 179.044 -5.26283 4.73743 0
M  V30 1780 H 179.452 -4.73138 3.07898 0
M  V30 1781 N 178.85 -1.27639 -0.924453 0
M  V30 1782 C 180.096 -1.14336 -1.67497 0
M  V30 1783 C 180.429 0.309465 -1.91718 0
M  V30 1784 O 179.704 1.22608 -1.50989 0
M  V30 1785 C 179.987 -1.93096 -3.0395 0
M  V30 1786 C 179.84 -3.46381 -2.8695 0
M  V30 1787 C 181.159 -1.73798 -4.0433 0
M  V30 1788 H 178.278 -0.416728 -0.607871 0
M  V30 1789 H 180.92 -1.56832 -1.07256 0
M  V30 1790 H 179.07 -1.56982 -3.55372 0
M  V30 1791 H 180.742 -3.92343 -2.42621 0
M  V30 1792 H 178.985 -3.72557 -2.22225 0
M  V30 1793 H 179.656 -3.96735 -3.83804 0
M  V30 1794 H 182.132 -2.05293 -3.61931 0
M  V30 1795 H 181.008 -2.31294 -4.97789 0
M  V30 1796 H 181.269 -0.686725 -4.36734 0
M  V30 1797 N 180.328 1.1314 -1.09713 0
M  V30 1798 C 181.556 1.88321 -0.856898 0
M  V30 1799 C 181.971 1.79276 0.592073 0
M  V30 1800 O 181.328 1.16142 1.40774 0
M  V30 1801 C 181.379 3.37812 -1.28706 0
M  V30 1802 O 181.1 3.46627 -2.67921 0
M  V30 1803 C 182.601 4.29952 -1.07964 0
M  V30 1804 H 179.821 0.596094 -0.308079 0
M  V30 1805 H 182.365 1.43205 -1.45988 0
M  V30 1806 H 180.52 3.805 -0.727912 0
M  V30 1807 H 180.934 4.39579 -2.8613 0
M  V30 1808 H 182.408 5.33159 -1.42986 0
M  V30 1809 H 182.885 4.39196 -0.0176577 0
M  V30 1810 H 183.491 3.93036 -1.62489 0
M  V30 1811 N 181.806 0.884767 1.30421 0
M  V30 1812 C 182.716 0.355398 2.31892 0
M  V30 1813 C 183.732 -0.542261 1.65335 0
M  V30 1814 O 184.908 -0.435432 1.96637 0
M  V30 1815 C 181.973 -0.421661 3.44126 0
M  V30 1816 C 181.034 0.505727 4.26311 0
M  V30 1817 C 180.267 -0.234343 5.33185 0
M  V30 1818 O 180.49 -1.46045 5.51386 0
M  V30 1819 O 179.424 0.415443 6.00465 0
M  V30 1820 H 183.25 1.19685 2.79122 0
M  V30 1821 H 180.835 0.648596 1.34587 0
M  V30 1822 H 182.717 -0.861641 4.12497 0
M  V30 1823 H 181.392 -1.23942 2.99032 0
M  V30 1824 H 180.299 0.994513 3.60639 0
M  V30 1825 H 181.632 1.28948 4.75009 0
M  V30 1826 N 183.284 -1.43765 0.645699 0
M  V30 1827 C 184.512 -2.06253 0.163556 0
M  V30 1828 C 184.927 -1.48352 -1.16778 0
M  V30 1829 O 184.284 -0.611932 -1.71935 0
M  V30 1830 C 184.335 -3.61453 0.0583186 0
M  V30 1831 O 184.056 -4.172 1.33702 0
M  V30 1832 C 185.557 -4.41002 -0.450795 0
M  V30 1833 H 182.777 -0.665413 0.0864077 0
M  V30 1834 H 185.321 -1.84396 0.884222 0
M  V30 1835 H 183.476 -3.82522 -0.612865 0
M  V30 1836 H 183.89 -5.10791 1.19131 0
M  V30 1837 H 185.364 -5.49966 -0.473403 0
M  V30 1838 H 185.841 -4.13488 -1.48068 0
M  V30 1839 H 186.447 -4.24886 0.187637 0
M  V30 1840 N 184.763 -0.387143 -1.52771 0
M  V30 1841 C 185.673 0.456442 -2.30117 0
M  V30 1842 C 186.689 1.07342 -1.36944 0
M  V30 1843 O 187.865 1.07971 -1.70013 0
M  V30 1844 C 184.93 1.56957 -3.09136 0
M  V30 1845 C 183.991 0.977916 -4.18014 0
M  V30 1846 C 183.224 2.038 -4.93256 0
M  V30 1847 O 183.447 3.25271 -4.68567 0
M  V30 1848 O 182.381 1.6565 -5.78657 0
M  V30 1849 H 186.207 -0.17359 -3.03203 0
M  V30 1850 H 183.792 -0.150919 -1.48636 0
M  V30 1851 H 185.674 2.21628 -3.58412 0
M  V30 1852 H 184.349 2.18461 -2.38865 0
M  V30 1853 H 183.256 0.294525 -3.72939 0
M  V30 1854 H 184.589 0.407128 -4.90513 0
M  V30 1855 N 186.241 1.57166 -0.116904 0
M  V30 1856 C 187.171 2.18222 0.830759 0
M  V30 1857 C 188.152 1.12167 1.27877 0
M  V30 1858 O 189.337 1.40394 1.34176 0
M  V30 1859 C 186.467 2.77996 2.08172 0
M  V30 1860 C 185.421 3.89614 1.77157 0
M  V30 1861 C 184.747 4.36187 3.09265 0
M  V30 1862 C 186.047 5.1181 1.04151 0
M  V30 1863 H 187.741 2.97664 0.321992 0
M  V30 1864 H 185.287 1.4318 0.153434 0
M  V30 1865 H 187.24 3.19366 2.74924 0
M  V30 1866 H 185.964 1.9584 2.6137 0
M  V30 1867 H 184.623 3.48816 1.12796 0
M  V30 1868 H 184.271 3.50893 3.60393 0
M  V30 1869 H 183.971 5.11455 2.89288 0
M  V30 1870 H 185.495 4.80207 3.77139 0
M  V30 1871 H 186.909 5.50214 1.61052 0
M  V30 1872 H 185.306 5.92648 0.942762 0
M  V30 1873 H 186.376 4.84892 0.0279022 0
M  V30 1874 N 187.719 -0.156864 1.56817 0
M  V30 1875 C 188.944 -0.890331 1.87318 0
M  V30 1876 C 189.369 -1.74394 0.704855 0
M  V30 1877 O 188.727 -1.77972 -0.345786 0
M  V30 1878 C 188.775 -1.73102 3.16336 0
M  V30 1879 O 187.879 -2.83422 2.99576 0
M  V30 1880 H 187.22 -0.24857 0.615718 0
M  V30 1881 H 189.75 -0.150649 2.04045 0
M  V30 1882 H 189.76 -2.12803 3.48107 0
M  V30 1883 H 188.435 -1.10412 4.00976 0
M  V30 1884 H 187.012 -2.47199 2.7919 0
M  V30 1885 N 189.197 -1.51736 -0.425897 0
M  V30 1886 C 190.443 -1.66174 -1.17294 0
M  V30 1887 C 190.798 -0.37876 -1.88635 0
M  V30 1888 O 190.091 0.626021 -1.81084 0
M  V30 1889 C 190.285 -2.81103 -2.20717 0
M  V30 1890 C 190.114 -4.20453 -1.59529 0
M  V30 1891 C 188.884 -4.86225 -1.37525 0
M  V30 1892 C 191.082 -5.03146 -1.06528 0
M  V30 1893 N 189.064 -6.09657 -0.720537 0
M  V30 1894 C 190.435 -6.17674 -0.536506 0
M  V30 1895 C 192.49 -4.88594 -0.958127 0
M  V30 1896 C 191.193 -7.19245 0.0888917 0
M  V30 1897 C 193.219 -5.90383 -0.346608 0
M  V30 1898 C 192.581 -7.04191 0.171564 0
M  V30 1899 H 188.68 -0.661871 -0.416475 0
M  V30 1900 H 191.264 -1.88997 -0.467801 0
M  V30 1901 H 189.435 -2.59924 -2.88607 0
M  V30 1902 H 191.167 -2.84662 -2.87663 0
M  V30 1903 H 187.922 -4.44293 -1.64015 0
M  V30 1904 H 188.346 -6.75756 -0.410292 0
M  V30 1905 H 192.988 -4.0085 -1.34459 0
M  V30 1906 H 190.706 -8.06628 0.48746 0
M  V30 1907 H 194.292 -5.81194 -0.265451 0
M  V30 1908 H 193.172 -7.81606 0.637309 0
M  V30 1909 N 190.675 0.682077 -1.42076 0
M  V30 1910 C 191.923 1.4393 -1.41876 0
M  V30 1911 C 192.244 1.94971 -0.0335599 0
M  V30 1912 O 191.514 1.72591 0.926773 0
M  V30 1913 H 190.094 0.534085 -0.522267 0
M  V30 1914 H 192.756 0.806427 -1.77434 0
M  V30 1915 H 191.852 2.29588 -2.11414 0
M  V30 1916 N 192.153 1.28127 0.917671 0
M  V30 1917 C 193.399 1.15223 1.66888 0
M  V30 1918 C 193.732 -0.299293 1.9188 0
M  V30 1919 O 193.007 -1.21805 1.51637 0
M  V30 1920 C 193.29 1.94706 3.02922 0
M  V30 1921 C 193.143 3.47898 2.85109 0
M  V30 1922 C 194.462 1.75939 4.03402 0
M  V30 1923 H 191.581 0.419946 0.605652 0
M  V30 1924 H 194.223 1.57398 1.06423 0
M  V30 1925 H 192.373 1.58864 3.54534 0
M  V30 1926 H 194.045 3.93624 2.40537 0
M  V30 1927 H 192.288 3.7373 2.20246 0
M  V30 1928 H 192.959 3.98765 3.81694 0
M  V30 1929 H 195.435 2.07209 3.60837 0
M  V30 1930 H 194.311 2.33931 4.96556 0
M  V30 1931 H 194.572 0.709877 4.36364 0
M  V30 1932 N 193.631 -1.12557 1.10312 0
M  V30 1933 C 194.861 -1.87592 0.865617 0
M  V30 1934 C 195.269 -1.79851 -0.587389 0
M  V30 1935 O 194.612 -1.16949 -1.41664 0
M  V30 1936 C 194.674 -3.37665 1.23381 0
M  V30 1937 C 194.338 -3.69181 2.69359 0
M  V30 1938 C 195.335 -3.67652 3.67597 0
M  V30 1939 C 193.02 -3.98555 3.05711 0
M  V30 1940 C 195.014 -3.95053 5.00212 0
M  V30 1941 C 192.701 -4.25616 4.38514 0
M  V30 1942 C 193.699 -4.23851 5.35574 0
M  V30 1943 O 193.387 -4.50242 6.65986 0
M  V30 1944 H 193.119 -0.600442 0.310557 0
M  V30 1945 H 195.673 -1.4335 1.47105 0
M  V30 1946 H 193.903 -3.82454 0.571467 0
M  V30 1947 H 195.592 -3.94041 0.973994 0
M  V30 1948 H 196.358 -3.45024 3.40857 0
M  V30 1949 H 192.237 -3.99071 2.30789 0
M  V30 1950 H 195.781 -3.93591 5.75962 0
M  V30 1951 H 191.678 -4.47718 4.64994 0
M  V30 1952 H 192.446 -4.67867 6.71597 0
M  V30 1953 N 195.109 -0.891671 -1.2995 0
M  V30 1954 C 196.337 -0.52866 -2.00032 0
M  V30 1955 C 196.752 0.884574 -1.66795 0
M  V30 1956 O 196.109 1.5827 -0.908669 0
M  V30 1957 C 196.16 -0.701814 -3.54622 0
M  V30 1958 O 195.881 -2.05942 -3.86678 0
M  V30 1959 C 197.382 -0.342683 -4.41973 0
M  V30 1960 H 194.602 -0.203659 -0.639347 0
M  V30 1961 H 197.146 -1.19881 -1.65677 0
M  V30 1962 H 195.301 -0.0789468 -3.8732 0
M  V30 1963 H 195.715 -2.08291 -4.81368 0
M  V30 1964 H 197.189 -0.514709 -5.49595 0
M  V30 1965 H 197.666 0.71975 -4.33262 0
M  V30 1966 H 198.272 -0.942154 -4.14733 0
M  V30 1967 N 196.587 1.43421 -0.653314 0
M  V30 1968 C 197.534 2.30768 0.0382271 0
M  V30 1969 C 198.504 1.44755 0.814576 0
M  V30 1970 O 199.689 1.73624 0.791162 0
M  V30 1971 C 196.829 3.30336 0.998599 0
M  V30 1972 C 195.942 4.31448 0.218342 0
M  V30 1973 C 195.077 5.18098 1.17252 0
M  V30 1974 C 194.116 6.10902 0.382702 0
M  V30 1975 N 193.253 6.90176 1.28848 0
M  V30 1976 H 198.093 2.89357 -0.712511 0
M  V30 1977 H 195.63 1.42548 -0.363128 0
M  V30 1978 H 197.588 3.86572 1.56901 0
M  V30 1979 H 196.218 2.73397 1.71621 0
M  V30 1980 H 195.27 3.77506 -0.46836 0
M  V30 1981 H 196.582 4.97227 -0.395812 0
M  V30 1982 H 195.736 5.7896 1.81356 0
M  V30 1983 H 194.475 4.52444 1.82058 0
M  V30 1984 H 193.48 5.49128 -0.27169 0
M  V30 1985 H 194.705 6.78598 -0.260957 0
M  V30 1986 H 192.651 6.27171 1.92334 0
M  V30 1987 H 192.568 7.52478 0.728887 0
M  V30 1988 H 193.836 7.55543 1.91766 0
M  V30 1989 N 198.065 0.39524 1.52563 0
M  V30 1990 C 198.975 -0.444232 2.30356 0
M  V30 1991 C 199.991 -1.06615 1.37511 0
M  V30 1992 O 201.167 -1.07067 1.70583 0
M  V30 1993 C 198.232 -1.55315 3.09964 0
M  V30 1994 C 197.293 -0.955734 4.18526 0
M  V30 1995 C 196.526 -2.01181 4.9433 0
M  V30 1996 O 196.749 -3.22781 4.70285 0
M  V30 1997 O 195.683 -1.62579 5.79527 0
M  V30 1998 H 199.509 0.189667 3.03107 0
M  V30 1999 H 197.094 0.1588 1.48554 0
M  V30 2000 H 198.976 -2.19724 3.59582 0
M  V30 2001 H 197.651 -2.17191 2.4002 0
M  V30 2002 H 196.558 -0.274743 3.7309 0
M  V30 2003 H 197.891 -0.381109 4.90722 0
M  V30 2004 N 199.544 -1.57102 0.125237 0
M  V30 2005 C 200.769 -2.0019 -0.542101 0
M  V30 2006 C 201.194 -1.00449 -1.59034 0
M  V30 2007 O 200.552 0.0229423 -1.81285 0
M  V30 2008 C 200.6 -3.42129 -1.13929 0
M  V30 2009 O 199.704 -3.45307 -2.2547 0
M  V30 2010 H 199.045 -0.650171 -0.134812 0
M  V30 2011 H 201.575 -2.03461 0.215553 0
M  V30 2012 H 201.585 -3.80471 -1.4733 0
M  V30 2013 H 200.26 -4.14237 -0.371531 0
M  V30 2014 H 198.837 -3.1879 -1.93462 0
M  V30 2015 N 201.022 0.148545 -1.56898 0
M  V30 2016 C 201.952 1.18524 -2.01182 0
M  V30 2017 C 202.933 1.4489 -0.891123 0
M  V30 2018 O 204.118 1.55836 -1.15882 0
M  V30 2019 C 201.248 2.51879 -2.39112 0
M  V30 2020 C 200.202 2.40038 -3.54353 0
M  V30 2021 C 199.528 3.78089 -3.78091 0
M  V30 2022 C 200.828 1.88577 -4.87069 0
M  V30 2023 H 202.522 0.817029 -2.88036 0
M  V30 2024 H 200.068 0.391575 -1.38574 0
M  V30 2025 H 202.021 3.24627 -2.68692 0
M  V30 2026 H 200.745 2.90532 -1.49193 0
M  V30 2027 H 199.404 1.69742 -3.24936 0
M  V30 2028 H 199.052 4.14175 -2.85426 0
M  V30 2029 H 198.752 3.71028 -4.55645 0
M  V30 2030 H 200.276 4.52387 -4.10095 0
M  V30 2031 H 201.69 2.51117 -5.15377 0
M  V30 2032 H 200.087 1.9241 -5.68417 0
M  V30 2033 H 201.157 0.84136 -4.77545 0
M  V30 2034 N 202.5 1.5196 0.417844 0
M  V30 2035 C 203.73 1.69181 1.18581 0
M  V30 2036 C 204.138 0.397104 1.84986 0
M  V30 2037 O 203.481 -0.636011 1.72339 0
M  V30 2038 C 203.543 2.76497 2.29759 0
M  V30 2039 C 203.207 4.18514 1.83563 0
M  V30 2040 C 204.204 5.02648 1.32821 0
M  V30 2041 C 201.889 4.64708 1.90661 0
M  V30 2042 C 203.883 6.31044 0.897894 0
M  V30 2043 C 201.57 5.93096 1.47241 0
M  V30 2044 C 202.568 6.76093 0.968891 0
M  V30 2045 O 202.256 8.02078 0.540924 0
M  V30 2046 H 201.988 0.570457 0.362705 0
M  V30 2047 H 204.542 1.99249 0.498885 0
M  V30 2048 H 202.772 2.41786 3.01789 0
M  V30 2049 H 204.461 2.82403 2.91553 0
M  V30 2050 H 205.227 4.68154 1.26716 0
M  V30 2051 H 201.106 4.00216 2.28797 0
M  V30 2052 H 204.65 6.95776 0.504192 0
M  V30 2053 H 200.547 6.271 1.53022 0
M  V30 2054 H 201.315 8.15794 0.66502 0
M  V30 2055 N 203.978 -0.674533 1.42435 0
M  V30 2056 C 205.203 -1.46784 1.46524 0
M  V30 2057 C 205.628 -1.87938 0.078066 0
M  V30 2058 O 204.986 -1.56014 -0.92354 0
M  V30 2059 C 205.034 -2.69307 2.39805 0
M  V30 2060 O 204.138 -3.67587 1.86959 0
M  V30 2061 H 203.479 -0.440959 0.496439 0
M  V30 2062 H 206.009 -0.827326 1.87127 0
M  V30 2063 H 206.019 -3.17374 2.56393 0
M  V30 2064 H 204.694 -2.38692 3.40586 0
M  V30 2065 H 203.271 -3.2662 1.79927 0
M  V30 2066 N 205.456 -1.28612 -0.910864 0
M  V30 2067 C 206.703 -1.15934 -1.66029 0
M  V30 2068 C 207.031 0.291483 -1.92303 0
M  V30 2069 O 206.286 1.22816 -1.52364 0
M  V30 2070 C 206.585 -1.90624 -3.0232 0
M  V30 2071 C 206.251 -3.40405 -2.95695 0
M  V30 2072 C 204.913 -3.81255 -2.93595 0
M  V30 2073 C 207.265 -4.359 -2.85728 0
M  V30 2074 C 204.593 -5.15936 -2.79334 0
M  V30 2075 C 206.945 -5.70657 -2.73007 0
M  V30 2076 C 205.609 -6.10779 -2.69267 0
M  V30 2077 H 204.879 -0.424234 -0.607541 0
M  V30 2078 H 207.526 -1.5942 -1.06101 0
M  V30 2079 H 205.831 -1.39696 -3.6605 0
M  V30 2080 H 207.528 -1.78228 -3.59215 0
M  V30 2081 H 204.118 -3.07927 -2.98125 0
M  V30 2082 H 208.302 -4.053 -2.86436 0
M  V30 2083 H 203.558 -5.46146 -2.74835 0
M  V30 2084 H 207.732 -6.44311 -2.64264 0
M  V30 2085 H 205.359 -7.1509 -2.57974 0
M  V30 2086 N 206.934 1.1197 -1.10907 0
M  V30 2087 C 207.897 2.16031 -0.765707 0
M  V30 2088 C 208.897 1.59393 0.212235 0
M  V30 2089 O 210.087 1.74196 -0.0115441 0
M  V30 2090 C 207.219 3.40632 -0.135053 0
M  V30 2091 H 208.412 2.47919 -1.68748 0
M  V30 2092 H 205.965 1.27061 -0.910226 0
M  V30 2093 H 206.7 3.14348 0.797218 0
M  V30 2094 H 206.485 3.8302 -0.838937 0
M  V30 2095 H 207.975 4.17505 0.0892469 0
M  V30 2096 N 208.412 0.89855 1.29475 0
M  V30 2097 C 209.342 0.39201 2.30186 0
M  V30 2098 C 210.323 -0.532359 1.61555 0
M  V30 2099 O 211.508 -0.443331 1.89072 0
M  V30 2100 C 208.638 -0.382353 3.45189 0
M  V30 2101 C 207.592 0.451483 4.25612 0
M  V30 2102 C 206.918 -0.450307 5.328 0
M  V30 2103 C 208.218 1.70079 4.93832 0
M  V30 2104 H 209.912 1.23362 2.72804 0
M  V30 2105 H 207.458 0.594638 1.31149 0
M  V30 2106 H 209.411 -0.747451 4.14718 0
M  V30 2107 H 208.135 -1.25774 3.01411 0
M  V30 2108 H 206.794 0.798897 3.57789 0
M  V30 2109 H 206.442 -1.32379 4.85268 0
M  V30 2110 H 206.142 0.103902 5.87508 0
M  V30 2111 H 207.666 -0.811623 6.05182 0
M  V30 2112 H 209.08 1.40549 5.55805 0
M  V30 2113 H 207.477 2.19623 5.58467 0
M  V30 2114 H 208.547 2.43744 4.19186 0
M  V30 2115 N 209.89 -1.43072 0.660911 0
M  V30 2116 C 210.837 -2.30785 -0.0259884 0
M  V30 2117 C 211.807 -1.45184 -0.806888 0
M  V30 2118 O 212.992 -1.74041 -0.781943 0
M  V30 2119 C 210.132 -3.30861 -0.981067 0
M  V30 2120 C 209.245 -4.31558 -0.195458 0
M  V30 2121 C 208.38 -5.18712 -1.14503 0
M  V30 2122 C 207.419 -6.11097 -0.350299 0
M  V30 2123 N 206.556 -6.90849 -1.25186 0
M  V30 2124 H 211.396 -2.88975 0.727846 0
M  V30 2125 H 208.933 -1.42353 0.370682 0
M  V30 2126 H 210.891 -3.87399 -1.54849 0
M  V30 2127 H 209.521 -2.74304 -1.70169 0
M  V30 2128 H 208.573 -3.77252 0.488374 0
M  V30 2129 H 209.885 -4.9701 0.422176 0
M  V30 2130 H 209.039 -5.79914 -1.78284 0
M  V30 2131 H 207.778 -4.53404 -1.79656 0
M  V30 2132 H 206.783 -5.48976 0.300808 0
M  V30 2133 H 208.008 -6.7845 0.296941 0
M  V30 2134 H 205.954 -6.28182 -1.89005 0
M  V30 2135 H 205.871 -7.52854 -0.688971 0
M  V30 2136 H 207.139 -7.5655 -1.87757 0
M  V30 2137 N 211.368 -0.403325 -1.52352 0
M  V30 2138 C 212.608 0.173946 -2.03659 0
M  V30 2139 C 212.972 1.42869 -1.28267 0
M  V30 2140 O 214.173 2.08403 -1.69769 0
M  V30 2141 C 212.444 0.421478 -3.54906 0
M  V30 2142 S 214.003 0.967027 -4.28012 0
M  V30 2143 H 210.821 0.0477461 -0.709395 0
M  V30 2144 H 213.423 -0.554906 -1.87459 0
M  V30 2145 H 212.127 -0.498616 -4.0736 0
M  V30 2146 H 211.658 1.17837 -3.75337 0
M  V30 2147 H 213.673 2.24812 -4.4235 0
M  V30 2148 N 212.846 1.57033 -0.133567 0
M  V30 2149 C 213.776 2.1909 0.807567 0
M  V30 2150 C 214.757 1.13517 1.26681 0
M  V30 2151 O 215.942 1.41809 1.32679 0
M  V30 2152 C 213.072 2.80188 2.05212 0
M  V30 2153 C 212.026 3.91471 1.73015 0
M  V30 2154 C 211.352 4.39443 3.04622 0
M  V30 2155 C 212.652 5.12886 0.987168 0
M  V30 2156 H 214.346 2.97988 0.290403 0
M  V30 2157 H 211.892 1.43335 0.138239 0
M  V30 2158 H 213.845 3.22264 2.71521 0
M  V30 2159 H 212.569 1.98601 2.59278 0
M  V30 2160 H 211.228 3.49993 1.0909 0
M  V30 2161 H 210.876 3.54695 3.56651 0
M  V30 2162 H 210.576 5.14495 2.83847 0
M  V30 2163 H 212.1 4.8418 3.72024 0
M  V30 2164 H 213.514 5.51891 1.55208 0
M  V30 2165 H 211.911 5.93615 0.87985 0
M  V30 2166 H 212.981 4.84894 -0.0235286 0
M  V30 2167 N 214.325 -0.140222 1.56975 0
M  V30 2168 C 215.574 -0.850152 1.82908 0
M  V30 2169 C 215.887 -1.82028 0.715892 0
M  V30 2170 O 217.093 -2.57485 0.861016 0
M  V30 2171 C 215.549 -1.5625 3.24213 0
M  V30 2172 C 215.157 -0.63443 4.43485 0
M  V30 2173 C 216.901 -2.25881 3.59413 0
M  V30 2174 C 214.808 -1.34879 5.75814 0
M  V30 2175 H 213.738 -0.321221 0.682153 0
M  V30 2176 H 216.389 -0.102874 1.83211 0
M  V30 2177 H 214.771 -2.35565 3.18316 0
M  V30 2178 H 215.945 0.12398 4.60633 0
M  V30 2179 H 214.26 -0.0461836 4.16374 0
M  V30 2180 H 216.857 -2.79978 4.5554 0
M  V30 2181 H 217.2 -3.02693 2.85802 0
M  V30 2182 H 217.733 -1.53477 3.67001 0
M  V30 2183 H 214.472 -0.622385 6.52539 0
M  V30 2184 H 213.992 -2.07974 5.6259 0
M  V30 2185 H 215.671 -1.88784 6.18845 0
M  V30 2186 N 215.803 -1.52179 -0.40978 0
M  V30 2187 C 217.028 -1.70347 -1.18308 0
M  V30 2188 C 217.453 -0.411887 -1.83535 0
M  V30 2189 O 216.811 0.630587 -1.6998 0
M  V30 2190 C 216.859 -2.83977 -2.22238 0
M  V30 2191 O 215.963 -2.495 -3.28365 0
M  V30 2192 H 215.304 -0.567103 -0.345384 0
M  V30 2193 H 217.834 -1.98879 -0.480445 0
M  V30 2194 H 217.844 -3.0887 -2.66577 0
M  V30 2195 H 216.519 -3.77685 -1.74146 0
M  V30 2196 H 215.096 -2.35277 -2.89308 0
M  V30 2197 N 217.281 0.66697 -1.42791 0
M  V30 2198 C 218.211 1.79218 -1.49677 0
M  V30 2199 C 219.192 1.66405 -0.352623 0
M  V30 2200 O 220.377 1.85708 -0.567993 0
M  V30 2201 C 217.507 3.17565 -1.40605 0
M  V30 2202 C 216.461 3.45124 -2.53127 0
M  V30 2203 C 215.787 4.83127 -2.29112 0
M  V30 2204 C 217.087 3.41236 -3.95418 0
M  V30 2205 H 218.781 1.73713 -2.43853 0
M  V30 2206 H 216.327 0.83432 -1.17367 0
M  V30 2207 H 218.28 3.96022 -1.44029 0
M  V30 2208 H 217.004 3.23767 -0.429271 0
M  V30 2209 H 215.663 2.69031 -2.49034 0
M  V30 2210 H 215.311 4.85988 -1.29709 0
M  V30 2211 H 215.011 5.02528 -3.04531 0
M  V30 2212 H 216.535 5.63859 -2.34297 0
M  V30 2213 H 217.949 4.09651 -4.01073 0
M  V30 2214 H 216.346 3.72173 -4.70752 0
M  V30 2215 H 217.416 2.39665 -4.21532 0
M  V30 2216 N 218.759 1.29093 0.90403 0
M  V30 2217 C 219.984 1.19809 1.69294 0
M  V30 2218 C 220.409 -0.238481 1.86582 0
M  V30 2219 O 219.767 -1.1723 1.383 0
M  V30 2220 C 219.815 1.91202 3.05736 0
M  V30 2221 O 218.919 1.22611 3.93752 0
M  V30 2222 H 218.26 0.415385 0.518027 0
M  V30 2223 H 220.79 1.70586 1.12967 0
M  V30 2224 H 220.8 1.99487 3.55906 0
M  V30 2225 H 219.475 2.95692 2.92471 0
M  V30 2226 H 218.052 1.22554 3.52186 0
M  V30 2227 N 220.237 -1.11381 1.11499 0
M  V30 2228 C 221.465 -1.86934 0.88675 0
M  V30 2229 C 221.88 -1.80195 -0.563476 0
M  V30 2230 O 221.237 -1.18367 -1.38908 0
M  V30 2231 C 221.288 -3.35722 1.34064 0
M  V30 2232 O 221.009 -3.4232 2.73401 0
M  V30 2233 C 222.51 -4.2818 1.14791 0
M  V30 2234 H 219.73 -0.591117 0.317523 0
M  V30 2235 H 222.274 -1.40865 1.48248 0
M  V30 2236 H 220.429 -3.79294 0.788355 0
M  V30 2237 H 220.843 -4.34971 2.93087 0
M  V30 2238 H 222.317 -5.30817 1.5145 0
M  V30 2239 H 222.794 -4.39113 0.0875279 0
M  V30 2240 H 223.4 -3.90402 1.68721 0
M  V30 2241 N 221.715 -0.905404 -1.28997 0
M  V30 2242 C 222.678 -0.392253 -2.25819 0
M  V30 2243 C 223.678 0.476753 -1.5357 0
M  V30 2244 O 224.868 0.280994 -1.71919 0
M  V30 2245 C 222 0.438588 -3.38067 0
M  V30 2246 H 223.193 -1.24743 -2.72725 0
M  V30 2247 H 220.746 -0.684051 -1.40536 0
M  V30 2248 H 221.481 1.31352 -2.96508 0
M  V30 2249 H 221.266 -0.184167 -3.91667 0
M  V30 2250 H 222.756 0.78873 -4.10084 0
M  V30 2251 N 223.193 1.4272 -0.668489 0
M  V30 2252 C 224.442 2.00846 -0.185389 0
M  V30 2253 C 224.755 1.53442 1.21305 0
M  V30 2254 O 225.961 2.03944 1.79218 0
M  V30 2255 C 224.417 3.58805 -0.280591 0
M  V30 2256 C 224.025 4.15198 -1.68268 0
M  V30 2257 C 225.769 4.24255 0.14412 0
M  V30 2258 C 223.676 5.655 -1.73099 0
M  V30 2259 H 222.606 0.751145 -0.0655475 0
M  V30 2260 H 225.257 1.63516 -0.832752 0
M  V30 2261 H 223.639 3.93608 0.434553 0
M  V30 2262 H 224.813 3.91866 -2.42441 0
M  V30 2263 H 223.128 3.62176 -2.05469 0
M  V30 2264 H 225.725 5.34547 0.128086 0
M  V30 2265 H 226.068 3.99277 1.17827 0
M  V30 2266 H 226.601 3.94389 -0.519798 0
M  V30 2267 H 223.34 5.95268 -2.74475 0
M  V30 2268 H 222.86 5.90842 -1.03274 0
M  V30 2269 H 224.539 6.29808 -1.48158 0
M  V30 2270 N 224.671 0.411399 1.52136 0
M  V30 2271 C 225.601 -0.404015 2.29978 0
M  V30 2272 C 226.582 -1.04412 1.34284 0
M  V30 2273 O 227.767 -1.0527 1.63192 0
M  V30 2274 C 224.897 -1.5197 3.12286 0
M  V30 2275 C 223.851 -1.00448 4.16046 0
M  V30 2276 C 223.177 -2.21393 4.86712 0
M  V30 2277 C 224.477 -0.0569336 5.22269 0
M  V30 2278 H 226.171 0.245529 2.98392 0
M  V30 2279 H 223.717 0.119525 1.43503 0
M  V30 2280 H 225.67 -2.09715 3.6551 0
M  V30 2281 H 224.394 -2.19716 2.41646 0
M  V30 2282 H 223.053 -0.449421 3.63835 0
M  V30 2283 H 222.701 -2.87699 4.12599 0
M  V30 2284 H 222.401 -1.87571 5.56858 0
M  V30 2285 H 223.925 -2.7974 5.4275 0
M  V30 2286 H 225.339 -0.54325 5.7072 0
M  V30 2287 H 223.736 0.192594 5.99791 0
M  V30 2288 H 224.806 0.887663 4.76706 0
M  V30 2289 N 226.149 -1.5696 0.141893 0
M  V30 2290 C 227.079 -2.19516 -0.795936 0
M  V30 2291 C 228.06 -1.14187 -1.26077 0
M  V30 2292 O 229.245 -1.42511 -1.31925 0
M  V30 2293 C 226.375 -2.81272 -2.03723 0
M  V30 2294 C 225.329 -3.92384 -1.70936 0
M  V30 2295 C 224.655 -4.41052 -3.02287 0
M  V30 2296 C 225.955 -5.13403 -0.959954 0
M  V30 2297 H 227.649 -2.98138 -0.274596 0
M  V30 2298 H 225.195 -1.43406 -0.130636 0
M  V30 2299 H 227.148 -3.237 -2.69808 0
M  V30 2300 H 225.872 -1.99973 -2.58221 0
M  V30 2301 H 224.531 -3.50566 -1.07232 0
M  V30 2302 H 224.179 -3.56582 -3.54765 0
M  V30 2303 H 223.879 -5.15993 -2.81114 0
M  V30 2304 H 225.403 -4.86146 -3.69451 0
M  V30 2305 H 226.817 -5.52706 -1.52279 0
M  V30 2306 H 225.214 -5.94073 -0.848357 0
M  V30 2307 H 226.284 -4.84875 0.0492434 0
M  V30 2308 N 227.627 0.131896 -1.57047 0
M  V30 2309 C 228.875 0.840269 -1.83804 0
M  V30 2310 C 229.196 1.81017 -0.72512 0
M  V30 2311 O 228.466 1.94272 0.251995 0
M  V30 2312 H 227.046 0.313294 -0.678127 0
M  V30 2313 H 229.708 0.122294 -1.94516 0
M  V30 2314 H 228.804 1.39335 -2.79271 0
M  V30 2315 N 229.106 1.52395 0.401703 0
M  V30 2316 C 230.036 1.79231 1.49661 0
M  V30 2317 C 231.017 0.643654 1.57452 0
M  V30 2318 O 232.202 0.889989 1.72606 0
M  V30 2319 C 229.332 1.94971 2.87409 0
M  V30 2320 C 228.286 3.10604 2.94465 0
M  V30 2321 C 227.612 3.11577 4.34538 0
M  V30 2322 C 228.912 4.49921 2.6527 0
M  V30 2323 H 230.606 2.70917 1.27454 0
M  V30 2324 H 228.152 1.30362 0.6117 0
M  V30 2325 H 230.105 2.12328 3.63999 0
M  V30 2326 H 228.829 0.999632 3.10926 0
M  V30 2327 H 227.488 2.93009 2.20321 0
M  V30 2328 H 227.136 2.14277 4.55076 0
M  V30 2329 H 226.836 3.89247 4.40183 0
M  V30 2330 H 228.36 3.31073 5.13053 0
M  V30 2331 H 229.774 4.67683 3.31581 0
M  V30 2332 H 228.171 5.29564 2.82281 0
M  V30 2333 H 229.241 4.57507 1.60671 0
M  V30 2334 N 230.584 -0.659388 1.43143 0
M  V30 2335 C 231.83 -1.42145 1.44647 0
M  V30 2336 C 232.163 -1.9408 0.0681907 0
M  V30 2337 O 231.438 -1.71899 -0.910007 0
M  V30 2338 C 231.721 -2.60735 2.48373 0
M  V30 2339 C 231.574 -2.14332 3.95451 0
M  V30 2340 C 232.893 -3.62951 2.48906 0
M  V30 2341 H 230.012 -0.51552 0.526696 0
M  V30 2342 H 232.654 -0.748069 1.74654 0
M  V30 2343 H 230.804 -3.18184 2.22916 0
M  V30 2344 H 232.476 -1.61932 4.31944 0
M  V30 2345 H 230.719 -1.4576 4.08578 0
M  V30 2346 H 231.39 -2.99583 4.63631 0
M  V30 2347 H 233.866 -3.1525 2.71582 0
M  V30 2348 H 232.742 -4.43487 3.23435 0
M  V30 2349 H 233.003 -4.15126 1.52061 0
M  V30 2350 N 232.062 -1.29571 -0.897171 0
M  V30 2351 C 233.308 -1.17863 -1.65034 0
M  V30 2352 C 233.641 0.268729 -1.92332 0
M  V30 2353 O 232.916 1.19378 -1.53555 0
M  V30 2354 C 233.199 -1.995 -2.99786 0
M  V30 2355 C 233.052 -3.5239 -2.79538 0
M  V30 2356 C 234.371 -1.82335 -4.00552 0
M  V30 2357 H 231.49 -0.429528 -0.598895 0
M  V30 2358 H 234.132 -1.59072 -1.03905 0
M  V30 2359 H 232.282 -1.64485 -3.51962 0
M  V30 2360 H 233.954 -3.97401 -2.34244 0
M  V30 2361 H 232.197 -3.77187 -2.14273 0
M  V30 2362 H 232.868 -4.04787 -3.75302 0
M  V30 2363 H 235.344 -2.12924 -3.57495 0
M  V30 2364 H 234.22 -2.41801 -4.92771 0
M  V30 2365 H 234.481 -0.779209 -4.35179 0
M  V30 2366 N 233.54 1.10788 -1.12088 0
M  V30 2367 C 234.47 2.19083 -0.807755 0
M  V30 2368 C 235.451 1.6858 0.226859 0
M  V30 2369 O 236.636 1.93997 0.0888475 0
M  V30 2370 C 233.766 3.46344 -0.257576 0
M  V30 2371 C 232.72 4.101 -1.22483 0
M  V30 2372 C 232.046 5.32016 -0.535052 0
M  V30 2373 C 233.346 4.54236 -2.57811 0
M  V30 2374 H 235.04 2.45534 -1.71328 0
M  V30 2375 H 232.586 1.1801 -0.825205 0
M  V30 2376 H 234.539 4.21392 -0.0262679 0
M  V30 2377 H 233.263 3.19373 0.683278 0
M  V30 2378 H 231.922 3.37054 -1.44189 0
M  V30 2379 H 231.57 5.01319 0.410827 0
M  V30 2380 H 231.27 5.75625 -1.18024 0
M  V30 2381 H 232.794 6.09799 -0.312695 0
M  V30 2382 H 234.208 5.20575 -2.40155 0
M  V30 2383 H 232.605 5.08682 -3.18375 0
M  V30 2384 H 233.675 3.6734 -3.16528 0
M  V30 2385 N 235.018 0.912232 1.28515 0
M  V30 2386 C 236.248 0.559604 1.98877 0
M  V30 2387 C 236.656 -0.863113 1.68366 0
M  V30 2388 O 235.999 -1.58304 0.931969 0
M  V30 2389 C 236.061 0.68703 3.52874 0
M  V30 2390 C 235.725 2.07901 4.06972 0
M  V30 2391 C 236.722 3.05157 4.20922 0
M  V30 2392 C 234.407 2.39178 4.417 0
M  V30 2393 C 236.401 4.31806 4.68852 0
M  V30 2394 C 234.088 3.66068 4.89324 0
M  V30 2395 C 235.086 4.62195 5.02856 0
M  V30 2396 O 234.774 5.86829 5.49442 0
M  V30 2397 H 234.506 0.212191 0.641834 0
M  V30 2398 H 237.06 1.22712 1.64715 0
M  V30 2399 H 235.29 -0.0375486 3.86682 0
M  V30 2400 H 236.979 0.341727 4.04459 0
M  V30 2401 H 237.745 2.82311 3.94367 0
M  V30 2402 H 233.624 1.65109 4.30418 0
M  V30 2403 H 237.168 5.06842 4.79329 0
M  V30 2404 H 233.065 3.88739 5.15318 0
M  V30 2405 H 233.833 5.89597 5.6773 0
M  V30 2406 N 236.496 -1.42363 0.676048 0
M  V30 2407 C 237.446 -2.27987 -0.0242903 0
M  V30 2408 C 238.43 -1.41153 -0.772319 0
M  V30 2409 O 239.622 -1.64592 -0.651025 0
M  V30 2410 C 236.751 -3.29195 -0.973953 0
M  V30 2411 C 235.837 -4.23512 -0.223202 0
M  V30 2412 N 236.228 -4.99865 0.772589 0
M  V30 2413 C 234.526 -4.43606 -0.461469 0
M  V30 2414 C 235.227 -5.68757 1.22027 0
M  V30 2415 N 234.203 -5.40811 0.549975 0
M  V30 2416 H 238.005 -2.84445 0.73949 0
M  V30 2417 H 235.519 -1.54341 0.50522 0
M  V30 2418 H 237.516 -3.89339 -1.49067 0
M  V30 2419 H 236.176 -2.74298 -1.73755 0
M  V30 2420 H 237.187 -5.04921 1.15217 0
M  V30 2421 H 233.864 -3.99749 -1.20446 0
M  V30 2422 H 235.254 -6.40007 2.0455 0
M  V30 2423 N 237.974 -0.419461 -1.51915 0
M  V30 2424 C 238.937 0.389116 -2.25873 0
M  V30 2425 C 239.937 0.964924 -1.28631 0
M  V30 2426 O 241.127 0.842179 -1.52489 0
M  V30 2427 C 238.259 1.54874 -3.03689 0
M  V30 2428 H 239.452 -0.258799 -2.98781 0
M  V30 2429 H 237.005 -0.172209 -1.55348 0
M  V30 2430 H 237.74 2.23323 -2.35154 0
M  V30 2431 H 237.525 1.14223 -3.75094 0
M  V30 2432 H 239.015 2.12046 -3.59759 0
M  V30 2433 N 239.452 1.56882 -0.150215 0
M  V30 2434 C 240.868 1.58263 0.20617 0
M  V30 2435 C 241.068 1.16464 1.64434 0
M  V30 2436 O 240.124 0.866422 2.3717 0
M  V30 2437 C 241.437 3.00649 -0.0555025 0
M  V30 2438 C 242.985 3.12999 0.00795388 0
M  V30 2439 C 243.46 4.5744 -0.226429 0
M  V30 2440 N 244.951 4.62875 -0.173469 0
M  V30 2441 C 245.686 5.72454 -0.329288 0
M  V30 2442 N 245.182 6.90669 -0.543005 0
M  V30 2443 N 246.975 5.61467 -0.266666 0
M  V30 2444 H 239.126 1.82345 -1.08922 0
M  V30 2445 H 241.389 0.844149 -0.431413 0
M  V30 2446 H 241.095 3.3563 -1.05096 0
M  V30 2447 H 240.969 3.71337 0.66246 0
M  V30 2448 H 243.356 2.77857 0.993966 0
M  V30 2449 H 243.437 2.4479 -0.742388 0
M  V30 2450 H 243.081 4.93287 -1.20956 0
M  V30 2451 H 243.011 5.2378 0.544274 0
M  V30 2452 H 245.502 3.77898 -0.0130709 0
M  V30 2453 H 245.815 7.70045 -0.651922 0
M  V30 2454 H 244.16 6.92581 -0.579366 0
M  V30 2455 H 247.351 4.67992 -0.100441 0
M  V30 2456 H 247.524 6.46816 -0.391535 0
M  V30 2457 N 240.93 -0.123565 1.57115 0
M  V30 2458 C 241.84 -1.17074 2.033 0
M  V30 2459 C 242.856 -1.4561 0.952559 0
M  V30 2460 O 244.032 -1.56817 1.26374 0
M  V30 2461 C 241.097 -2.47857 2.42421 0
M  V30 2462 C 240.158 -2.26758 3.64526 0
M  V30 2463 C 239.391 -3.51305 4.01771 0
M  V30 2464 O 239.614 -4.5843 3.39409 0
M  V30 2465 O 238.548 -3.42578 4.94898 0
M  V30 2466 H 242.374 -0.808555 2.92739 0
M  V30 2467 H 239.959 -0.334027 1.45618 0
M  V30 2468 H 241.841 -3.2492 2.68338 0
M  V30 2469 H 240.516 -2.83558 1.5613 0
M  V30 2470 H 239.423 -1.47569 3.43765 0
M  V30 2471 H 240.756 -1.95963 4.51508 0
M  V30 2472 N 242.408 -1.52605 -0.393616 0
M  V30 2473 C 243.657 -1.66649 -1.13627 0
M  V30 2474 C 243.97 -0.410364 -1.91247 0
M  V30 2475 O 245.176 -0.430854 -2.68059 0
M  V30 2476 C 243.632 -2.9449 -2.06891 0
M  V30 2477 C 243.24 -4.27266 -1.34714 0
M  V30 2478 C 244.984 -3.17899 -2.81319 0
M  V30 2479 C 242.891 -5.46217 -2.26717 0
M  V30 2480 H 241.821 -0.62084 -0.427871 0
M  V30 2481 H 244.472 -1.791 -0.399428 0
M  V30 2482 H 242.854 -2.75774 -2.84191 0
M  V30 2483 H 244.028 -4.56518 -0.626714 0
M  V30 2484 H 242.343 -4.10081 -0.722643 0
M  V30 2485 H 244.94 -4.03949 -3.50328 0
M  V30 2486 H 245.283 -2.32777 -3.45139 0
M  V30 2487 H 245.816 -3.37159 -2.11113 0
M  V30 2488 H 242.555 -6.33733 -1.67521 0
M  V30 2489 H 242.075 -5.21283 -2.96689 0
M  V30 2490 H 243.754 -5.7991 -2.86903 0
M  V30 2491 N 243.887 0.651787 -1.4349 0
M  V30 2492 C 244.819 1.77725 -1.44729 0
M  V30 2493 C 245.832 1.59141 -0.343231 0
M  V30 2494 O 247.021 1.67835 -0.607751 0
M  V30 2495 C 244.121 3.15172 -1.24579 0
M  V30 2496 C 243.294 3.60402 -2.47849 0
M  V30 2497 C 242.353 4.76656 -2.22902 0
M  V30 2498 O 241.379 4.86022 -2.96263 0
M  V30 2499 N 242.581 5.66958 -1.24656 0
M  V30 2500 H 245.346 1.77141 -2.41746 0
M  V30 2501 H 242.907 0.835678 -1.38665 0
M  V30 2502 H 244.899 3.90634 -1.0577 0
M  V30 2503 H 243.469 3.1052 -0.360015 0
M  V30 2504 H 242.689 2.75369 -2.82073 0
M  V30 2505 H 243.977 3.87368 -3.29884 0
M  V30 2506 H 243.375 5.62065 -0.640265 0
M  V30 2507 H 241.932 6.42135 -1.1183 0
M  V30 2508 N 245.365 1.30045 0.890287 0
M  V30 2509 C 246.295 1.18541 2.01172 0
M  V30 2510 C 247.276 0.0773356 1.69924 0
M  V30 2511 O 248.461 0.25845 1.92473 0
M  V30 2512 C 245.591 0.870941 3.36202 0
M  V30 2513 C 244.545 1.93637 3.81692 0
M  V30 2514 C 243.871 1.475 5.13953 0
M  V30 2515 C 245.171 3.34666 4.00994 0
M  V30 2516 H 246.865 2.12359 2.11054 0
M  V30 2517 H 244.411 1.02238 1.01407 0
M  V30 2518 H 246.364 0.777141 4.14172 0
M  V30 2519 H 245.088 -0.102926 3.26438 0
M  V30 2520 H 243.747 2.01972 3.05946 0
M  V30 2521 H 243.395 0.489551 5.00612 0
M  V30 2522 H 243.095 2.1876 5.4536 0
M  V30 2523 H 244.619 1.39489 5.94454 0
M  V30 2524 H 246.033 3.2912 4.69417 0
M  V30 2525 H 244.43 4.03966 4.43769 0
M  V30 2526 H 245.5 3.76949 3.05021 0
M  V30 2527 N 246.843 -1.10192 1.12674 0
M  V30 2528 C 248.09 -1.82205 0.883606 0
M  V30 2529 C 248.418 -1.8532 -0.590492 0
M  V30 2530 O 247.673 -1.31137 -1.45264 0
M  V30 2531 C 247.972 -3.28552 1.4067 0
M  V30 2532 C 247.638 -3.45582 2.89627 0
M  V30 2533 C 246.3 -3.49937 3.30299 0
M  V30 2534 C 248.652 -3.50768 3.85501 0
M  V30 2535 C 245.98 -3.57049 4.65546 0
M  V30 2536 C 248.332 -3.59414 5.20581 0
M  V30 2537 C 246.996 -3.62034 5.60792 0
M  V30 2538 H 246.266 -0.666735 0.323334 0
M  V30 2539 H 248.913 -1.29868 1.40736 0
M  V30 2540 H 247.218 -3.83473 0.80347 0
M  V30 2541 H 248.915 -3.82788 1.19475 0
M  V30 2542 H 245.505 -3.42871 2.57172 0
M  V30 2543 H 249.689 -3.46651 3.55171 0
M  V30 2544 H 244.945 -3.57361 4.96088 0
M  V30 2545 H 249.119 -3.62371 5.94693 0
M  V30 2546 H 246.746 -3.67298 6.6558 0
M  V30 2547 N 248.321 -0.919034 -1.28029 0
M  V30 2548 C 249.254 -0.355887 -2.25408 0
M  V30 2549 C 250.232 0.542874 -1.5327 0
M  V30 2550 O 251.416 0.485338 -1.82145 0
M  V30 2551 C 248.543 0.490759 -3.35126 0
M  V30 2552 C 247.589 -0.343358 -4.25116 0
M  V30 2553 S 248.422 -1.75344 -5.05979 0
M  V30 2554 C 249.578 -0.914244 -6.19187 0
M  V30 2555 H 249.811 -1.18123 -2.72826 0
M  V30 2556 H 247.344 -0.720636 -1.36551 0
M  V30 2557 H 249.302 0.973404 -3.98792 0
M  V30 2558 H 247.963 1.29054 -2.86363 0
M  V30 2559 H 247.156 0.304266 -5.03081 0
M  V30 2560 H 246.758 -0.759851 -3.662 0
M  V30 2561 H 249.05 -0.146282 -6.77342 0
M  V30 2562 H 249.993 -1.66661 -6.88208 0
M  V30 2563 H 250.401 -0.460082 -5.62622 0
M  V30 2564 N 249.799 1.42003 -0.683588 0
M  V30 2565 C 251.045 2.01712 -0.209825 0
M  V30 2566 C 251.378 1.53968 1.18353 0
M  V30 2567 O 250.653 0.745661 1.79639 0
M  V30 2568 C 250.936 3.59202 -0.254197 0
M  V30 2569 C 250.789 4.17102 -1.68363 0
M  V30 2570 C 252.108 4.38344 0.392709 0
M  V30 2571 H 249.227 0.732891 -0.0777189 0
M  V30 2572 H 251.869 1.68909 -0.87004 0
M  V30 2573 H 250.019 3.87278 0.307954 0
M  V30 2574 H 251.691 3.99946 -2.29871 0
M  V30 2575 H 249.934 3.72597 -2.22157 0
M  V30 2576 H 250.605 5.26249 -1.6663 0
M  V30 2577 H 253.081 4.16011 -0.0859162 0
M  V30 2578 H 251.957 5.47901 0.331063 0
M  V30 2579 H 252.218 4.16887 1.47164 0
M  V30 2580 N 251.277 0.427512 1.51691 0
M  V30 2581 C 252.554 -0.201684 1.94557 0
M  V30 2582 C 252.934 -1.60981 1.36559 0
M  V30 2583 O 252.282 -2.21814 0.548702 0
M  V30 2584 C 252.492 -0.189394 3.48486 0
M  V30 2585 C 253.84 -0.39978 4.22714 0
M  V30 2586 O 254.864 -0.267945 3.55191 0
M  V30 2587 O 253.723 -0.661249 5.42485 0
M  V30 2588 H 250.817 -0.135261 0.815864 0
M  V30 2589 H 253.363 0.484782 1.62628 0
M  V30 2590 H 252.135 0.795431 3.8313 0
M  V30 2591 H 251.758 -0.919187 3.86829 0
M  V30 2592 N 252.755 -1.56801 0.158532 0
M  V30 2593 C 253.703 -2.18638 -0.793729 0
M  V30 2594 C 254.697 -1.14669 -1.24689 0
M  V30 2595 O 255.903 -1.32895 -1.21403 0
M  V30 2596 H 252.278 -0.700226 -0.274204 0
M  V30 2597 H 254.249 -2.97367 -0.248095 0
M  V30 2598 C 252.998 -2.83139 -2.0181 0
M  V30 2599 H 252.321 -3.62863 -1.67841 0
M  V30 2600 H 253.761 -3.29894 -2.66357 0
M  V30 2601 C 252.22 -1.82244 -2.83353 0
M  V30 2602 O 252.75 -1.3 -3.80083 0
M  V30 2603 N 250.956 -1.51288 -2.48114 0
M  V30 2604 H 250.503 -1.93964 -1.69516 0
M  V30 2605 H 250.461 -0.840296 -3.02963 0
M  V30 2606 N 254.233 0.115231 -1.57178 0
M  V30 2607 C 255.481 0.820727 -1.84685 0
M  V30 2608 C 255.802 1.80237 -0.744279 0
M  V30 2609 O 255.072 1.94529 0.231375 0
M  V30 2610 H 253.652 0.306084 -0.681411 0
M  V30 2611 H 256.314 0.101656 -1.94635 0
M  V30 2612 H 255.41 1.36366 -2.80733 0
M  V30 2613 N 255.711 1.52812 0.385517 0
M  V30 2614 C 256.674 1.77188 1.45386 0
M  V30 2615 C 257.674 0.641953 1.4743 0
M  V30 2616 O 258.864 0.910033 1.4854 0
M  V30 2617 C 255.996 1.87582 2.8465 0
M  V30 2618 H 257.189 2.72583 1.25054 0
M  V30 2619 H 254.742 1.43586 0.617467 0
M  V30 2620 H 255.477 0.941849 3.10322 0
M  V30 2621 H 255.262 2.69748 2.84567 0
M  V30 2622 H 256.752 2.08102 3.62054 0
M  V30 2623 N 257.189 -0.644168 1.43834 0
M  V30 2624 C 258.466 -1.40188 1.36406 0
M  V30 2625 C 258.846 -2.11094 0.0163124 0
M  V30 2626 O 258.194 -2.05426 -1.00062 0
M  V30 2627 C 258.404 -2.3791 2.55343 0
M  V30 2628 C 259.752 -3.01637 2.98832 0
M  V30 2629 O 260.776 -2.48237 2.55455 0
M  V30 2630 O 259.635 -3.98477 3.74003 0
M  V30 2631 H 256.729 -0.626773 0.539523 0
M  V30 2632 H 259.275 -0.670317 1.559 0
M  V30 2633 H 258.047 -1.84525 3.4506 0
M  V30 2634 H 257.67 -3.18503 2.37995 0
M  V30 2635 N 258.668 -1.30515 -0.883378 0
M  V30 2636 C 259.945 -1.10086 -1.6168 0
M  V30 2637 C 260.325 0.349269 -2.08191 0
M  V30 2638 O 259.673 1.34105 -1.85008 0
M  V30 2639 C 259.883 -2.10315 -2.78511 0
M  V30 2640 C 261.231 -2.42119 -3.48803 0
M  V30 2641 O 262.255 -2.08638 -2.88702 0
M  V30 2642 O 261.114 -2.99396 -4.57192 0
M  V30 2643 H 258.208 -0.422907 -0.710689 0
M  V30 2644 H 260.754 -1.41947 -0.930015 0
M  V30 2645 H 259.526 -3.07917 -2.41459 0
M  V30 2646 H 259.149 -1.79282 -3.54886 0
M  V30 2647 N 260.146 1.09593 -1.13257 0
M  V30 2648 C 261.392 1.82181 -0.904521 0
M  V30 2649 C 261.747 1.83967 0.563358 0
M  V30 2650 O 261.04 1.29566 1.41149 0
M  V30 2651 C 261.234 3.27802 -1.42411 0
M  V30 2652 C 261.063 3.40201 -2.94097 0
M  V30 2653 C 259.833 3.52104 -3.62424 0
M  V30 2654 C 262.031 3.32875 -3.92044 0
M  V30 2655 N 260.013 3.53169 -5.0214 0
M  V30 2656 C 261.384 3.40789 -5.17941 0
M  V30 2657 C 263.439 3.16531 -3.84334 0
M  V30 2658 C 262.142 3.34042 -6.37031 0
M  V30 2659 C 264.168 3.11109 -5.02956 0
M  V30 2660 C 263.53 3.19614 -6.27715 0
M  V30 2661 H 259.629 0.681015 -0.384373 0
M  V30 2662 H 262.213 1.3099 -1.44048 0
M  V30 2663 H 260.384 3.77466 -0.915086 0
M  V30 2664 H 262.116 3.88393 -1.13722 0
M  V30 2665 H 258.871 3.5548 -3.12939 0
M  V30 2666 H 259.295 3.57291 -5.75041 0
M  V30 2667 H 263.937 3.08827 -2.88766 0
M  V30 2668 H 261.655 3.4051 -7.32857 0
M  V30 2669 H 265.241 2.99601 -4.98729 0
M  V30 2670 H 264.121 3.15432 -7.17964 0
M  V30 2671 N 261.624 0.925811 1.2754 0
M  V30 2672 C 263.04 0.625767 1.46821 0
M  V30 2673 C 263.24 -0.825506 1.83814 0
M  V30 2674 O 262.296 -1.60356 1.95044 0
M  V30 2675 C 263.609 1.57402 2.56213 0
M  V30 2676 C 265.157 1.58204 2.70075 0
M  V30 2677 C 265.632 2.51721 3.82623 0
M  V30 2678 N 267.123 2.49917 3.89994 0
M  V30 2679 C 267.858 3.18968 4.76494 0
M  V30 2680 N 267.354 3.97391 5.67496 0
M  V30 2681 N 269.147 3.07996 4.70208 0
M  V30 2682 H 261.298 1.86409 1.01811 0
M  V30 2683 H 263.561 0.800213 0.508295 0
M  V30 2684 H 263.267 2.60925 2.35819 0
M  V30 2685 H 263.141 1.31428 3.53563 0
M  V30 2686 H 265.528 0.554124 2.89851 0
M  V30 2687 H 265.609 1.88226 1.73218 0
M  V30 2688 H 265.253 3.54622 3.63601 0
M  V30 2689 H 265.183 2.18996 4.78903 0
M  V30 2690 H 267.674 1.9296 3.24923 0
M  V30 2691 H 267.987 4.4707 6.30356 0
M  V30 2692 H 266.332 4.01495 5.67298 0
M  V30 2693 H 269.523 2.46223 3.9811 0
M  V30 2694 H 269.696 3.6208 5.37403 0
M  V30 2695 N 263.102 -1.41638 0.69111 0
M  V30 2696 C 264.351 -2.00526 0.217318 0
M  V30 2697 C 264.664 -1.55353 -1.18848 0
M  V30 2698 O 265.87 -2.06769 -1.75951 0
M  V30 2699 C 264.326 -3.58313 0.337639 0
M  V30 2700 C 263.934 -4.12469 1.74852 0
M  V30 2701 C 265.678 -4.24431 -0.0766066 0
M  V30 2702 C 263.585 -5.62675 1.82074 0
M  V30 2703 H 262.515 -0.750008 0.0774893 0
M  V30 2704 H 265.166 -1.6217 0.858661 0
M  V30 2705 H 263.548 -3.9425 -0.371879 0
M  V30 2706 H 264.722 -3.8796 2.48644 0
M  V30 2707 H 263.037 -3.58861 2.11205 0
M  V30 2708 H 265.634 -5.34683 -0.0430284 0
M  V30 2709 H 265.977 -4.01101 -1.1146 0
M  V30 2710 H 266.51 -3.93512 0.582476 0
M  V30 2711 H 263.249 -5.90826 2.83911 0
M  V30 2712 H 262.769 -5.89124 1.12661 0
M  V30 2713 H 264.448 -6.27371 1.58159 0
M  V30 2714 N 264.58 -0.43555 -1.51462 0
M  V30 2715 C 265.543 0.365137 -2.26273 0
M  V30 2716 C 266.543 0.951227 -1.29647 0
M  V30 2717 O 267.733 0.825958 -1.53374 0
M  V30 2718 C 264.865 1.51645 -3.05314 0
M  V30 2719 H 266.058 -0.290474 -2.9849 0
M  V30 2720 H 263.611 -0.188676 -1.55157 0
M  V30 2721 H 264.346 2.20816 -2.3751 0
M  V30 2722 H 264.131 1.10238 -3.76284 0
M  V30 2723 H 265.621 2.08218 -3.61987 0
M  V30 2724 N 266.058 1.56714 -0.166846 0
M  V30 2725 C 266.991 2.13577 0.80375 0
M  V30 2726 C 267.969 1.06464 1.22899 0
M  V30 2727 O 269.153 1.34413 1.32157 0
M  V30 2728 C 266.28 2.67168 2.0818 0
M  V30 2729 C 265.326 3.86612 1.80093 0
M  V30 2730 S 266.159 5.26565 0.97416 0
M  V30 2731 C 267.315 5.83558 2.26297 0
M  V30 2732 H 267.548 2.9557 0.320267 0
M  V30 2733 H 265.081 1.54326 0.0477555 0
M  V30 2734 H 267.039 2.98692 2.8159 0
M  V30 2735 H 265.7 1.85269 2.53642 0
M  V30 2736 H 264.893 4.22422 2.7491 0
M  V30 2737 H 264.495 3.55951 1.14781 0
M  V30 2738 H 266.787 5.962 3.21795 0
M  V30 2739 H 267.73 6.80731 1.94962 0
M  V30 2740 H 268.138 5.11944 2.37853 0
M  V30 2741 N 267.536 -0.106894 1.57237 0
M  V30 2742 C 268.764 -0.826389 1.8968 0
M  V30 2743 C 269.179 -1.72856 0.759353 0
M  V30 2744 O 268.536 -1.80503 -0.269263 0
M  V30 2745 C 268.587 -1.64967 3.21665 0
M  V30 2746 O 268.308 -0.783804 4.31031 0
M  V30 2747 C 269.809 -2.47326 3.67892 0
M  V30 2748 H 267.029 -0.236927 0.627779 0
M  V30 2749 H 269.573 -0.0876593 2.04312 0
M  V30 2750 H 267.728 -2.34103 3.08666 0
M  V30 2751 H 268.142 -1.35284 5.06753 0
M  V30 2752 H 269.616 -3.00604 4.6297 0
M  V30 2753 H 270.093 -3.25247 2.95146 0
M  V30 2754 H 270.699 -1.83411 3.83719 0
M  V30 2755 N 269.014 -1.53014 -0.377408 0
M  V30 2756 C 270.254 -1.70318 -1.1301 0
M  V30 2757 C 270.618 -0.439538 -1.86901 0
M  V30 2758 O 271.819 -0.489095 -2.64313 0
M  V30 2759 C 270.09 -2.91125 -2.07319 0
M  V30 2760 S 271.649 -3.29075 -2.90268 0
M  V30 2761 H 268.467 -0.599426 -0.382374 0
M  V30 2762 H 271.069 -1.91089 -0.412933 0
M  V30 2763 H 269.773 -3.81303 -1.51777 0
M  V30 2764 H 269.304 -2.7272 -2.83526 0
M  V30 2765 H 271.319 -2.80165 -4.09539 0
M  V30 2766 N 270.492 0.636531 -1.44174 0
M  V30 2767 C 271.402 1.77754 -1.53103 0
M  V30 2768 C 272.418 1.68928 -0.417034 0
M  V30 2769 O 273.594 1.89801 -0.6736 0
M  V30 2770 C 270.659 3.14115 -1.46741 0
M  V30 2771 C 269.72 3.34612 -2.68948 0
M  V30 2772 C 268.953 4.64467 -2.6288 0
M  V30 2773 O 269.176 5.44919 -1.68581 0
M  V30 2774 O 268.11 4.87049 -3.53648 0
M  V30 2775 H 271.936 1.73174 -2.49489 0
M  V30 2776 H 269.521 0.79709 -1.2636 0
M  V30 2777 H 271.403 3.95412 -1.45696 0
M  V30 2778 H 270.078 3.19249 -0.534975 0
M  V30 2779 H 268.985 2.53014 -2.75562 0
M  V30 2780 H 270.318 3.34336 -3.61221 0
M  V30 2781 N 271.97 1.30982 0.876444 0
M  V30 2782 C 273.386 1.09498 1.16113 0
M  V30 2783 C 273.586 -0.13875 2.01022 0
M  V30 2784 O 272.642 -0.829935 2.38471 0
M  V30 2785 C 273.955 2.36308 1.85954 0
M  V30 2786 C 275.503 2.41856 1.98683 0
M  V30 2787 C 275.978 3.6853 2.71937 0
M  V30 2788 N 277.469 3.69387 2.79477 0
M  V30 2789 C 278.204 4.64096 3.36753 0
M  V30 2790 N 277.7 5.69155 3.95012 0
M  V30 2791 N 279.493 4.51626 3.3465 0
M  V30 2792 H 271.644 2.10118 0.310494 0
M  V30 2793 H 273.907 0.926634 0.200131 0
M  V30 2794 H 273.613 3.26388 1.31011 0
M  V30 2795 H 273.487 2.4561 2.86278 0
M  V30 2796 H 275.874 1.52249 2.52793 0
M  V30 2797 H 275.955 2.36523 0.9742 0
M  V30 2798 H 275.599 4.58499 2.18496 0
M  V30 2799 H 275.529 3.71127 3.73593 0
M  V30 2800 H 278.02 2.93438 2.38123 0
M  V30 2801 H 278.333 6.3751 4.36808 0
M  V30 2802 H 276.678 5.72937 3.93406 0
M  V30 2803 H 279.869 3.68728 2.8837 0
M  V30 2804 H 280.042 5.25614 3.7899 0
M  V30 2805 N 273.449 -1.08991 1.13837 0
M  V30 2806 C 274.695 -1.81526 0.90422 0
M  V30 2807 C 275.028 -1.85706 -0.568066 0
M  V30 2808 O 274.303 -1.32855 -1.42056 0
M  V30 2809 C 274.586 -3.27447 1.49835 0
M  V30 2810 C 274.439 -3.31512 3.04006 0
M  V30 2811 C 275.758 -4.24256 1.17025 0
M  V30 2812 H 272.877 -0.659029 0.329923 0
M  V30 2813 H 275.519 -1.27644 1.40737 0
M  V30 2814 H 273.669 -3.73462 1.07044 0
M  V30 2815 H 275.341 -2.93867 3.55584 0
M  V30 2816 H 273.584 -2.70963 3.38765 0
M  V30 2817 H 274.255 -4.34329 3.40679 0
M  V30 2818 H 276.731 -3.86549 1.54009 0
M  V30 2819 H 275.607 -5.24684 1.61237 0
M  V30 2820 H 275.868 -4.42019 0.0846274 0
M  V30 2821 N 274.927 -0.932562 -1.27047 0
M  V30 2822 C 276.174 -0.575559 -1.94148 0
M  V30 2823 C 276.502 0.883984 -1.73251 0
M  V30 2824 O 275.757 1.64655 -1.0577 0
M  V30 2825 C 276.056 -0.853713 -3.47054 0
M  V30 2826 C 275.722 -2.29577 -3.88079 0
M  V30 2827 C 274.384 -2.68999 -3.9899 0
M  V30 2828 C 276.736 -3.23331 -4.08787 0
M  V30 2829 C 274.064 -4.01289 -4.28 0
M  V30 2830 C 276.416 -4.55207 -4.39282 0
M  V30 2831 C 275.08 -4.94457 -4.48407 0
M  V30 2832 H 274.35 -0.210612 -0.710439 0
M  V30 2833 H 276.997 -1.17744 -1.51025 0
M  V30 2834 H 275.302 -0.169204 -3.91434 0
M  V30 2835 H 276.999 -0.55639 -3.97121 0
M  V30 2836 H 273.589 -1.97994 -3.80127 0
M  V30 2837 H 277.773 -2.94074 -3.99793 0
M  V30 2838 H 273.029 -4.31374 -4.33275 0
M  V30 2839 H 277.203 -5.27852 -4.54252 0
M  V30 2840 H 274.83 -5.96994 -4.7064 0
M  V30 2841 N 276.405 1.4127 -0.698611 0
M  V30 2842 C 277.335 2.33447 -0.049629 0
M  V30 2843 C 278.316 1.51982 0.763898 0
M  V30 2844 O 279.501 1.80509 0.716257 0
M  V30 2845 C 276.631 3.35828 0.885267 0
M  V30 2846 C 275.585 4.27627 0.178613 0
M  V30 2847 C 274.911 5.20406 1.22807 0
M  V30 2848 C 276.211 5.13459 -0.956933 0
M  V30 2849 H 277.905 2.87966 -0.81951 0
M  V30 2850 H 275.451 1.38461 -0.395538 0
M  V30 2851 H 277.404 3.9924 1.34854 0
M  V30 2852 H 276.128 2.79666 1.68685 0
M  V30 2853 H 274.787 3.65643 -0.26466 0
M  V30 2854 H 274.435 4.60558 2.02226 0
M  V30 2855 H 274.135 5.82661 0.760239 0
M  V30 2856 H 275.659 5.86695 1.69179 0
M  V30 2857 H 277.073 5.70421 -0.573805 0
M  V30 2858 H 275.47 5.8467 -1.35205 0
M  V30 2859 H 276.54 4.50443 -1.79524 0
M  V30 2860 N 277.883 0.443576 1.51229 0
M  V30 2861 C 279.132 -0.122332 2.01329 0
M  V30 2862 C 279.445 -1.43237 1.33201 0
M  V30 2863 O 280.651 -2.0816 1.74304 0
M  V30 2864 C 279.107 -0.268551 3.58897 0
M  V30 2865 C 278.715 1.03142 4.35965 0
M  V30 2866 C 280.459 -0.787894 4.17124 0
M  V30 2867 C 278.366 0.850504 5.85252 0
M  V30 2868 H 277.296 -0.0494929 0.752374 0
M  V30 2869 H 279.947 0.574289 1.74282 0
M  V30 2870 H 278.329 -1.02832 3.82415 0
M  V30 2871 H 279.503 1.80001 4.24189 0
M  V30 2872 H 277.818 1.47977 3.89219 0
M  V30 2873 H 280.415 -0.939841 5.26375 0
M  V30 2874 H 280.758 -1.77201 3.76703 0
M  V30 2875 H 281.291 -0.0862669 3.97706 0
M  V30 2876 H 278.03 1.80718 6.30096 0
M  V30 2877 H 277.55 0.121825 5.99676 0
M  V30 2878 H 279.229 0.506163 6.45017 0
M  V30 2879 N 279.361 -1.56624 0.175154 0
M  V30 2880 C 280.586 -2.01813 -0.478137 0
M  V30 2881 C 281.011 -1.05457 -1.55757 0
M  V30 2882 O 280.369 -0.0347439 -1.81267 0
M  V30 2883 C 280.417 -3.45581 -1.02987 0
M  V30 2884 O 279.521 -3.52305 -2.14371 0
M  V30 2885 H 278.862 -0.65413 -0.114059 0
M  V30 2886 H 281.392 -2.02673 0.280173 0
M  V30 2887 H 281.402 -3.84965 -1.35151 0
M  V30 2888 H 280.077 -4.1521 -0.239556 0
M  V30 2889 H 278.654 -3.24783 -1.83222 0
M  V30 2890 N 280.839 0.0985539 -1.57292 0
M  V30 2891 C 281.769 1.12064 -2.04851 0
M  V30 2892 C 282.75 1.41981 -0.936767 0
M  V30 2893 O 283.935 1.52071 -1.20781 0
M  V30 2894 C 281.065 2.44144 -2.47004 0
M  V30 2895 C 280.019 2.28643 -3.6181 0
M  V30 2896 C 279.345 3.65869 -3.89929 0
M  V30 2897 C 280.645 1.72986 -4.92822 0
M  V30 2898 H 282.339 0.724979 -2.9049 0
M  V30 2899 H 279.885 0.34729 -1.39749 0
M  V30 2900 H 281.838 3.15914 -2.78884 0
M  V30 2901 H 280.562 2.85639 -1.5836 0
M  V30 2902 H 279.221 1.59318 -3.30172 0
M  V30 2903 H 278.869 4.04885 -2.98458 0
M  V30 2904 H 278.569 3.56344 -4.67218 0
M  V30 2905 H 280.093 4.39112 -4.2428 0
M  V30 2906 H 281.507 2.34593 -5.23105 0
M  V30 2907 H 279.904 1.74229 -5.74251 0
M  V30 2908 H 280.974 0.689007 -4.7998 0
M  V30 2909 N 282.317 1.53212 0.369288 0
M  V30 2910 C 283.227 1.82342 1.47609 0
M  V30 2911 C 284.243 0.711532 1.58787 0
M  V30 2912 O 285.419 1.0012 1.74751 0
M  V30 2913 C 282.484 2.00393 2.8292 0
M  V30 2914 C 281.545 3.24297 2.81301 0
M  V30 2915 C 280.778 3.41478 4.10157 0
M  V30 2916 O 281.001 2.63033 5.06132 0
M  V30 2917 O 279.935 4.34817 4.16194 0
M  V30 2918 H 283.761 2.76366 1.25918 0
M  V30 2919 H 281.346 1.38547 0.559034 0
M  V30 2920 H 283.228 2.13859 3.63101 0
M  V30 2921 H 281.903 1.09559 3.04596 0
M  V30 2922 H 280.81 3.16257 1.99831 0
M  V30 2923 H 282.143 4.15041 2.64578 0
M  V30 2924 N 283.795 -0.628877 1.44509 0
M  V30 2925 C 284.725 -1.75187 1.54376 0
M  V30 2926 C 285.706 -1.65411 0.396618 0
M  V30 2927 O 286.891 -1.84137 0.617031 0
M  V30 2928 C 284.021 -3.13725 1.48976 0
M  V30 2929 C 282.975 -3.38291 2.62189 0
M  V30 2930 C 282.301 -4.76883 2.41841 0
M  V30 2931 C 283.601 -3.30632 4.04326 0
M  V30 2932 H 285.295 -1.67187 2.48373 0
M  V30 2933 H 282.841 -0.802909 1.19538 0
M  V30 2934 H 284.794 -3.92064 1.54478 0
M  V30 2935 H 283.518 -3.22515 0.514961 0
M  V30 2936 H 282.177 -2.62334 2.56079 0
M  V30 2937 H 281.825 -4.82378 1.42548 0
M  V30 2938 H 281.525 -4.94278 3.17747 0
M  V30 2939 H 283.049 -5.57449 2.49165 0
M  V30 2940 H 284.463 -3.98873 4.11793 0
M  V30 2941 H 282.86 -3.59561 4.80454 0
M  V30 2942 H 283.93 -2.28404 4.27738 0
M  V30 2943 N 285.273 -1.31445 -0.869486 0
M  V30 2944 C 286.236 -1.19094 -1.9583 0
M  V30 2945 C 287.236 -0.117906 -1.60367 0
M  V30 2946 O 288.426 -0.367208 -1.70286 0
M  V30 2947 C 285.558 -0.828165 -3.30688 0
M  V30 2948 H 286.751 -2.15842 -2.08212 0
M  V30 2949 H 284.304 -1.15063 -1.05784 0
M  V30 2950 H 285.039 0.138142 -3.24006 0
M  V30 2951 H 284.824 -1.6038 -3.578 0
M  V30 2952 H 286.314 -0.765658 -4.10521 0
M  V30 2953 N 286.751 1.08385 -1.14413 0
M  V30 2954 C 287.997 1.81044 -0.913834 0
M  V30 2955 C 288.33 1.86004 0.558209 0
M  V30 2956 O 287.605 1.33606 1.4135 0
M  V30 2957 C 287.888 3.26648 -1.51569 0
M  V30 2958 C 287.741 3.29895 -3.0576 0
M  V30 2959 C 289.06 4.23629 -1.19273 0
M  V30 2960 H 286.179 0.65727 -0.333414 0
M  V30 2961 H 288.821 1.26896 -1.41412 0
M  V30 2962 H 286.971 3.72889 -1.09023 0
M  V30 2963 H 288.643 2.91977 -3.57137 0
M  V30 2964 H 286.886 2.69163 -3.40197 0
M  V30 2965 H 287.557 4.32516 -3.42977 0
M  V30 2966 H 290.033 3.85727 -1.56057 0
M  V30 2967 H 288.909 5.23822 -1.64017 0
M  V30 2968 H 289.17 4.41968 -0.108068 0
M  V30 2969 N 288.23 0.939286 1.26551 0
M  V30 2970 C 289.47 0.5933 1.956 0
M  V30 2971 C 289.834 -0.851515 1.72085 0
M  V30 2972 O 291.035 -1.30634 2.34921 0
M  V30 2973 C 289.306 0.923996 3.45249 0
M  V30 2974 S 290.865 0.688269 4.33369 0
M  V30 2975 H 287.683 0.218591 0.676564 0
M  V30 2976 H 290.285 1.2102 1.5354 0
M  V30 2977 H 288.989 1.97297 3.59864 0
M  V30 2978 H 288.52 0.296746 3.92279 0
M  V30 2979 H 290.535 -0.448434 4.9417 0
M  V30 2980 N 289.708 -1.40897 0.706093 0
M  V30 2981 C 290.671 -2.29131 0.0562841 0
M  V30 2982 C 291.671 -1.44901 -0.697166 0
M  V30 2983 O 292.861 -1.65926 -0.530484 0
M  V30 2984 C 289.993 -3.27957 -0.93043 0
M  V30 2985 H 291.186 -2.88091 0.833284 0
M  V30 2986 H 288.739 -1.4906 0.470192 0
M  V30 2987 H 289.474 -2.73997 -1.73482 0
M  V30 2988 H 289.259 -3.90124 -0.393166 0
M  V30 2989 H 290.749 -3.94049 -1.38256 0
M  V30 2990 N 291.186 -0.45159 -1.50991 0
M  V30 2991 C 292.435 0.111653 -2.01391 0
M  V30 2992 C 292.748 1.42529 -1.33959 0
M  V30 2993 O 293.954 2.07232 -1.75405 0
M  V30 2994 C 292.41 0.249514 -3.59034 0
M  V30 2995 C 292.018 -1.05453 -4.35412 0
M  V30 2996 C 293.762 0.765762 -4.17536 0
M  V30 2997 C 291.669 -0.881529 -5.84793 0
M  V30 2998 H 290.599 0.0455022 -0.752626 0
M  V30 2999 H 293.25 -0.583524 -1.73975 0
M  V30 3000 H 291.632 1.00803 -3.82955 0
M  V30 3001 H 292.806 -1.82248 -4.23229 0
M  V30 3002 H 291.121 -1.50039 -3.88429 0
M  V30 3003 H 293.718 0.911913 -5.26866 0
M  V30 3004 H 294.061 1.75201 -3.77638 0
M  V30 3005 H 294.594 0.0651744 -3.97747 0
M  V30 3006 H 291.333 -1.84057 -6.29129 0
M  V30 3007 H 290.853 -0.153625 -5.99603 0
M  V30 3008 H 292.532 -0.540363 -6.4474 0
M  V30 3009 N 292.664 1.56529 -0.183458 0
M  V30 3010 C 293.614 2.1515 0.754605 0
M  V30 3011 C 294.598 1.08904 1.18443 0
M  V30 3012 O 295.79 1.34997 1.14476 0
M  V30 3013 C 292.919 2.80531 1.97881 0
M  V30 3014 C 292.005 3.93952 1.57043 0
M  V30 3015 N 292.396 4.98221 0.87231 0
M  V30 3016 C 290.694 4.05338 1.86057 0
M  V30 3017 C 291.395 5.77836 0.669377 0
M  V30 3018 N 290.371 5.29858 1.21454 0
M  V30 3019 H 294.173 2.93132 0.212387 0
M  V30 3020 H 291.687 1.62391 0.0167725 0
M  V30 3021 H 293.684 3.20914 2.6612 0
M  V30 3022 H 292.344 2.04035 2.52586 0
M  V30 3023 H 293.355 5.15191 0.529033 0
M  V30 3024 H 290.032 3.39957 2.42354 0
M  V30 3025 H 291.422 6.71799 0.116422 0
M  V30 3026 N 294.142 -0.090211 1.57342 0
M  V30 3027 C 295.553 -0.644173 1.75235 0
M  V30 3028 C 295.904 -1.78865 0.806335 0
M  V30 3029 O 295.029 -2.16395 -0.0140128 0
M  V30 3030 C 295.624 -1.17532 3.1776 0
M  V30 3031 C 294.183 -1.67531 3.37061 0
M  V30 3032 C 293.33 -0.58693 2.71017 0
M  V30 3033 H 296.281 0.135884 1.58117 0
M  V30 3034 H 296.302 -2.04455 3.20902 0
M  V30 3035 H 295.814 -0.342138 3.86589 0
M  V30 3036 H 293.915 -2.53234 2.73319 0
M  V30 3037 H 294.028 -1.76493 4.45406 0
M  V30 3038 H 292.392 -1.02756 2.33052 0
M  V30 3039 H 293.175 0.235758 3.4249 0
M  V30 3040 N 295.62 -1.53406 -0.361157 0
M  V30 3041 C 296.866 -1.70054 -1.10496 0
M  V30 3042 C 297.199 -0.453278 -1.88836 0
M  V30 3043 O 296.474 0.5495 -1.86576 0
M  V30 3044 C 296.757 -2.95317 -2.06058 0
M  V30 3045 C 296.61 -4.3021 -1.31298 0
M  V30 3046 C 297.929 -3.16193 -3.06121 0
M  V30 3047 H 295.048 -0.618799 -0.400321 0
M  V30 3048 H 297.69 -1.86052 -0.385318 0
M  V30 3049 H 295.84 -2.81809 -2.67425 0
M  V30 3050 H 297.512 -4.55538 -0.726807 0
M  V30 3051 H 295.755 -4.29421 -0.614853 0
M  V30 3052 H 296.426 -5.14 -2.01265 0
M  V30 3053 H 298.902 -3.28916 -2.5486 0
M  V30 3054 H 297.778 -4.05266 -3.70204 0
M  V30 3055 H 298.039 -2.31676 -3.76535 0
M  V30 3056 N 297.098 0.621204 -1.44841 0
M  V30 3057 C 298.509 1.20298 -1.42777 0
M  V30 3058 C 298.86 1.95639 -0.148259 0
M  V30 3059 O 297.985 2.02955 0.750892 0
M  V30 3060 C 298.58 2.1882 -2.58657 0
M  V30 3061 C 297.139 2.72403 -2.59756 0
M  V30 3062 C 296.286 1.4757 -2.34773 0
M  V30 3063 H 299.237 0.411297 -1.53278 0
M  V30 3064 H 299.258 3.01607 -2.31977 0
M  V30 3065 H 298.77 1.63957 -3.51766 0
M  V30 3066 H 296.871 3.31242 -1.70615 0
M  V30 3067 H 296.984 3.17765 -3.58556 0
M  V30 3068 H 295.348 1.76051 -1.8406 0
M  V30 3069 H 296.131 0.945954 -3.3001 0
M  V30 3070 N 298.576 1.31904 0.862503 0
M  V30 3071 C 299.824 1.21776 1.61292 0
M  V30 3072 C 300.145 -0.222413 1.93727 0
M  V30 3073 O 299.415 -1.1451 1.58947 0
M  V30 3074 H 297.995 0.447717 0.597962 0
M  V30 3075 H 300.657 1.65326 1.03215 0
M  V30 3076 H 299.753 1.7948 2.5533 0
M  V30 3077 N 300.054 -1.07777 1.14986 0
M  V30 3078 C 301.004 -2.13082 0.811181 0
M  V30 3079 C 301.988 -1.59619 -0.202597 0
M  V30 3080 O 303.18 -1.77 -0.00398275 0
M  V30 3081 C 300.309 -3.42009 0.297439 0
M  V30 3082 C 299.395 -4.02337 1.34112 0
M  V30 3083 N 299.786 -4.36982 2.54716 0
M  V30 3084 C 298.084 -4.29752 1.19285 0
M  V30 3085 C 298.785 -4.84729 3.21578 0
M  V30 3086 N 297.761 -4.83233 2.48972 0
M  V30 3087 H 301.563 -2.37696 1.72853 0
M  V30 3088 H 299.077 -1.25173 1.03468 0
M  V30 3089 H 301.074 -4.16884 0.0364777 0
M  V30 3090 H 299.734 -3.18841 -0.614022 0
M  V30 3091 H 300.745 -4.27807 2.91894 0
M  V30 3092 H 297.422 -4.16106 0.340926 0
M  V30 3093 H 298.812 -5.20863 4.24442 0
M  V30 3094 N 301.532 -0.945985 -1.26051 0
M  V30 3095 C 302.762 -0.612136 -1.97323 0
M  V30 3096 C 303.17 0.818171 -1.70595 0
M  V30 3097 O 302.513 1.55777 -0.973613 0
M  V30 3098 C 302.575 -0.780347 -3.50929 0
M  V30 3099 C 302.239 -2.18619 -4.01317 0
M  V30 3100 C 303.236 -3.16209 -4.12683 0
M  V30 3101 C 300.921 -2.50805 -4.35203 0
M  V30 3102 C 302.915 -4.44085 -4.57238 0
M  V30 3103 C 300.602 -3.78912 -4.79446 0
M  V30 3104 C 301.6 -4.75365 -4.90425 0
M  V30 3105 O 301.288 -6.01191 -5.3369 0
M  V30 3106 H 301.02 -0.229134 -0.635982 0
M  V30 3107 H 303.574 -1.27036 -1.61404 0
M  V30 3108 H 301.804 -0.0649864 -3.86645 0
M  V30 3109 H 303.493 -0.448842 -4.03411 0
M  V30 3110 H 304.259 -2.92668 -3.86744 0
M  V30 3111 H 300.138 -1.76463 -4.2589 0
M  V30 3112 H 303.682 -5.19373 -4.65723 0
M  V30 3113 H 299.579 -4.02265 -5.0483 0
M  V30 3114 H 300.347 -6.04442 -5.51899 0
M  V30 3115 N 303.011 1.40521 -0.713556 0
M  V30 3116 C 304.427 1.54839 -0.386907 0
M  V30 3117 C 304.627 1.68532 1.1045 0
M  V30 3118 O 303.683 1.67377 1.89053 0
M  V30 3119 C 304.996 2.77792 -1.15118 0
M  V30 3120 C 306.544 2.91607 -1.13729 0
M  V30 3121 C 307.019 4.1747 -1.88368 0
M  V30 3122 N 308.51 4.24466 -1.85427 0
M  V30 3123 C 309.245 5.20755 -2.40004 0
M  V30 3124 N 308.741 6.22965 -3.03129 0
M  V30 3125 N 310.534 5.1282 -2.30158 0
M  V30 3126 H 302.685 1.29879 -1.68063 0
M  V30 3127 H 304.948 0.627896 -0.710247 0
M  V30 3128 H 304.654 2.73944 -2.20561 0
M  V30 3129 H 304.528 3.6984 -0.741477 0
M  V30 3130 H 306.915 2.94959 -0.0910608 0
M  V30 3131 H 306.996 2.00682 -1.5862 0
M  V30 3132 H 306.64 4.1488 -2.9298 0
M  V30 3133 H 306.57 5.074 -1.40898 0
M  V30 3134 H 309.061 3.51241 -1.3942 0
M  V30 3135 H 309.374 6.92859 -3.42295 0
M  V30 3136 H 307.719 6.23415 -3.07212 0
M  V30 3137 H 310.91 4.31899 -1.80501 0
M  V30 3138 H 311.083 5.87689 -2.72993 0
M  V30 3139 N 304.489 0.459591 1.5075 0
M  V30 3140 C 305.736 -0.0993495 2.02256 0
M  V30 3141 C 306.064 -1.40751 1.34237 0
M  V30 3142 O 305.319 -1.90379 0.453228 0
M  V30 3143 C 305.618 -0.342866 3.55752 0
M  V30 3144 C 305.284 0.88218 4.42186 0
M  V30 3145 C 303.946 1.21808 4.65528 0
M  V30 3146 C 306.298 1.69837 4.92752 0
M  V30 3147 C 303.626 2.37045 5.36681 0
M  V30 3148 C 305.978 2.84192 5.65171 0
M  V30 3149 C 304.642 3.1821 5.8677 0
M  V30 3150 H 303.912 -0.0363545 0.740108 0
M  V30 3151 H 306.559 0.611329 1.8148 0
M  V30 3152 H 304.864 -1.13567 3.7498 0
M  V30 3153 H 306.561 -0.789121 3.93159 0
M  V30 3154 H 303.151 0.610467 4.2423 0
M  V30 3155 H 307.335 1.45205 4.74583 0
M  V30 3156 H 302.591 2.63689 5.51614 0
M  V30 3157 H 306.765 3.4779 6.03337 0
M  V30 3158 H 304.392 4.07613 6.41682 0
M  V30 3159 N 305.967 -1.56429 0.191757 0
M  V30 3160 C 307.195 -2.01867 -0.453586 0
M  V30 3161 C 307.61 -1.07191 -1.5542 0
M  V30 3162 O 306.967 -0.0762108 -1.82341 0
M  V30 3163 C 307.018 -3.47017 -1.013 0
M  V30 3164 O 306.739 -4.38078 0.0437005 0
M  V30 3165 C 308.24 -4.07956 -1.73456 0
M  V30 3166 H 305.46 -0.661211 -0.114199 0
M  V30 3167 H 308.004 -2.02295 0.299483 0
M  V30 3168 H 306.159 -3.47298 -1.71647 0
M  V30 3169 H 306.573 -5.23178 -0.372212 0
M  V30 3170 H 308.047 -5.1138 -2.07833 0
M  V30 3171 H 308.524 -3.51222 -2.63704 0
M  V30 3172 H 309.13 -4.11437 -1.07702 0
M  V30 3173 N 307.445 0.0818655 -1.57387 0
M  V30 3174 C 308.691 0.778884 -1.87896 0
M  V30 3175 C 309.046 1.75692 -0.784229 0
M  V30 3176 O 308.339 1.90417 0.212567 0
M  V30 3177 C 308.533 1.53513 -3.22752 0
M  V30 3178 C 308.362 0.631838 -4.45239 0
M  V30 3179 C 307.132 0.272571 -5.04564 0
M  V30 3180 C 309.33 -0.0670191 -5.14256 0
M  V30 3181 N 307.312 -0.637498 -6.10581 0
M  V30 3182 C 308.683 -0.834653 -6.14356 0
M  V30 3183 C 310.738 -0.139551 -4.97704 0
M  V30 3184 C 309.441 -1.66806 -6.99691 0
M  V30 3185 C 311.467 -0.959903 -5.83558 0
M  V30 3186 C 310.829 -1.71561 -6.83188 0
M  V30 3187 H 306.928 0.260764 -0.737242 0
M  V30 3188 H 309.512 0.0408227 -1.94657 0
M  V30 3189 H 307.683 2.24398 -3.17018 0
M  V30 3190 H 309.415 2.18038 -3.40942 0
M  V30 3191 H 306.17 0.62319 -4.69482 0
M  V30 3192 H 306.594 -1.08548 -6.68241 0
M  V30 3193 H 311.236 0.430376 -4.20604 0
M  V30 3194 H 308.954 -2.249 -7.76174 0
M  V30 3195 H 312.54 -1.01887 -5.72809 0
M  V30 3196 H 311.42 -2.34017 -7.48469 0
M  V30 3197 N 308.923 1.53595 0.353017 0
M  V30 3198 C 310.151 1.74311 1.1146 0
M  V30 3199 C 310.566 0.477854 1.82653 0
M  V30 3200 O 309.923 -0.549977 1.74016 0
M  V30 3201 C 309.974 2.91694 2.13534 0
M  V30 3202 O 309.695 4.13325 1.45238 0
M  V30 3203 C 311.196 3.24384 3.02142 0
M  V30 3204 H 308.416 0.582669 0.332773 0
M  V30 3205 H 310.96 2.00386 0.408107 0
M  V30 3206 H 309.115 2.67977 2.79763 0
M  V30 3207 H 309.529 4.79148 2.13349 0
M  V30 3208 H 311.003 4.09893 3.69718 0
M  V30 3209 H 311.48 2.40282 3.67643 0
M  V30 3210 H 312.086 3.50073 2.41514 0
M  V30 3211 N 310.401 -0.613514 1.45168 0
M  V30 3212 C 311.364 -1.7065 1.53007 0
M  V30 3213 C 312.364 -1.5548 0.410184 0
M  V30 3214 O 313.554 -1.60656 0.673455 0
M  V30 3215 C 310.686 -3.09875 1.42093 0
M  V30 3216 H 311.879 -1.65068 2.50385 0
M  V30 3217 H 309.432 -0.828728 1.32521 0
M  V30 3218 H 310.167 -3.21039 0.458769 0
M  V30 3219 H 309.952 -3.22293 2.23315 0
M  V30 3220 H 311.442 -3.895 1.50598 0
M  V30 3221 N 311.879 -1.3236 -0.855495 0
M  V30 3222 C 313.295 -1.11332 -1.14356 0
M  V30 3223 C 313.495 0.106751 -2.01217 0
M  V30 3224 O 312.551 0.791891 -2.39761 0
M  V30 3225 C 313.864 -2.39237 -1.82171 0
M  V30 3226 C 315.412 -2.44986 -1.9481 0
M  V30 3227 C 315.887 -3.7281 -2.66039 0
M  V30 3228 N 317.378 -3.73787 -2.73565 0
M  V30 3229 C 318.113 -4.69394 -3.29327 0
M  V30 3230 N 317.609 -5.75367 -3.85907 0
M  V30 3231 N 319.402 -4.56893 -3.27423 0
M  V30 3232 H 311.553 -2.10586 -0.277027 0
M  V30 3233 H 313.816 -0.929701 -0.185364 0
M  V30 3234 H 313.522 -3.28431 -1.25802 0
M  V30 3235 H 313.396 -2.50134 -2.82335 0
M  V30 3236 H 315.783 -1.56252 -2.50338 0
M  V30 3237 H 315.864 -2.38043 -0.936448 0
M  V30 3238 H 315.508 -4.61918 -2.11174 0
M  V30 3239 H 315.438 -3.77024 -3.67642 0
M  V30 3240 H 317.929 -2.97189 -2.33424 0
M  V30 3241 H 318.242 -6.44378 -4.26611 0
M  V30 3242 H 316.587 -5.79123 -3.84242 0
M  V30 3243 H 319.778 -3.73269 -2.82467 0
M  V30 3244 H 319.951 -5.31577 -3.7058 0
M  V30 3245 N 313.357 1.07166 -1.15556 0
M  V30 3246 C 314.287 2.16403 -0.877046 0
M  V30 3247 C 315.268 1.69217 0.173111 0
M  V30 3248 O 316.453 1.94181 0.027084 0
M  V30 3249 C 313.583 3.45349 -0.367632 0
M  V30 3250 C 312.537 4.05995 -1.35468 0
M  V30 3251 C 311.863 5.30045 -0.704038 0
M  V30 3252 C 313.163 4.45804 -2.72132 0
M  V30 3253 H 314.857 2.39959 -1.79053 0
M  V30 3254 H 312.403 1.15325 -0.862331 0
M  V30 3255 H 314.356 4.21095 -0.160317 0
M  V30 3256 H 313.08 3.21385 0.581326 0
M  V30 3257 H 311.739 3.32296 -1.54839 0
M  V30 3258 H 311.387 5.02373 0.251128 0
M  V30 3259 H 311.087 5.71579 -1.36277 0
M  V30 3260 H 312.611 6.08495 -0.50654 0
M  V30 3261 H 314.025 5.12671 -2.56595 0
M  V30 3262 H 312.422 4.98296 -3.34397 0
M  V30 3263 H 313.492 3.57083 -3.28054 0
M  V30 3264 N 314.835 0.952656 1.25548 0
M  V30 3265 C 315.798 0.475794 2.24207 0
M  V30 3266 C 316.798 -0.419428 1.55234 0
M  V30 3267 O 317.988 -0.216994 1.72843 0
M  V30 3268 C 315.12 -0.312814 3.39462 0
M  V30 3269 H 316.313 1.34779 2.67908 0
M  V30 3270 H 313.866 0.735739 1.37901 0
M  V30 3271 H 314.601 -1.20257 3.01179 0
M  V30 3272 H 314.386 0.329404 3.90714 0
M  V30 3273 H 315.876 -0.635986 4.12729 0
M  V30 3274 N 316.313 -1.40141 0.720998 0
M  V30 3275 C 317.56 -2.00787 0.262842 0
M  V30 3276 C 317.888 -1.5718 -1.14563 0
M  V30 3277 O 317.143 -0.785391 -1.79249 0
M  V30 3278 C 317.442 -3.56165 0.296892 0
M  V30 3279 C 317.108 -4.19373 1.65641 0
M  V30 3280 C 315.77 -4.36352 2.02855 0
M  V30 3281 C 318.122 -4.54578 2.54968 0
M  V30 3282 C 315.45 -4.8582 3.28931 0
M  V30 3283 C 317.802 -5.05447 3.80402 0
M  V30 3284 C 316.466 -5.20635 4.17726 0
M  V30 3285 H 315.736 -0.734731 0.0961807 0
M  V30 3286 H 318.383 -1.67673 0.925093 0
M  V30 3287 H 316.688 -3.8922 -0.448932 0
M  V30 3288 H 318.385 -4.00929 -0.0755208 0
M  V30 3289 H 314.975 -4.06549 1.35704 0
M  V30 3290 H 319.159 -4.41091 2.27491 0
M  V30 3291 H 314.415 -4.95764 3.57811 0
M  V30 3292 H 318.589 -5.31663 4.49786 0
M  V30 3293 H 316.216 -5.58728 5.15487 0
M  V30 3294 N 317.792 -0.46758 -1.50504 0
M  V30 3295 C 319.02 0.0864133 -2.06719 0
M  V30 3296 C 319.435 1.33819 -1.33184 0
M  V30 3297 O 318.792 1.78061 -0.400083 0
M  V30 3298 C 318.843 0.378079 -3.59517 0
M  V30 3299 O 318.564 -0.824044 -4.3028 0
M  V30 3300 C 320.065 0.979426 -4.32345 0
M  V30 3301 H 317.285 -0.00551697 -0.670977 0
M  V30 3302 H 319.829 -0.655354 -1.93715 0
M  V30 3303 H 317.984 1.06977 -3.72337 0
M  V30 3304 H 318.398 -0.566518 -5.21432 0
M  V30 3305 H 319.872 1.1333 -5.40241 0
M  V30 3306 H 320.349 1.9686 -3.9261 0
M  V30 3307 H 320.955 0.326216 -4.24047 0
M  V30 3308 N 319.27 1.56325 -0.20005 0
M  V30 3309 C 320.5 2.01811 0.442232 0
M  V30 3310 C 320.908 1.07932 1.55394 0
M  V30 3311 O 320.251 0.0772685 1.83537 0
M  V30 3312 C 320.313 3.43685 1.05457 0
M  V30 3313 C 319.977 4.56928 0.0809833 0
M  V30 3314 C 320.974 5.15009 -0.711471 0
M  V30 3315 C 318.659 5.0229 -0.0315364 0
M  V30 3316 C 320.653 6.16904 -1.60336 0
M  V30 3317 C 318.34 6.04028 -0.926981 0
M  V30 3318 C 319.338 6.6121 -1.71146 0
M  V30 3319 O 319.026 7.60971 -2.59189 0
M  V30 3320 H 318.758 0.666173 0.114848 0
M  V30 3321 H 321.312 2.03085 -0.307511 0
M  V30 3322 H 319.542 3.39413 1.85299 0
M  V30 3323 H 321.231 3.72948 1.60201 0
M  V30 3324 H 321.997 4.80827 -0.634873 0
M  V30 3325 H 317.876 4.57476 0.568902 0
M  V30 3326 H 321.42 6.61464 -2.21611 0
M  V30 3327 H 317.317 6.37634 -1.00468 0
M  V30 3328 H 318.085 7.7841 -2.53023 0
M  V30 3329 N 320.748 -0.0735177 1.57428 0
M  V30 3330 C 321.711 -1.07192 2.02589 0
M  V30 3331 C 322.711 -1.31695 0.922661 0
M  V30 3332 O 323.901 -1.27445 1.18758 0
M  V30 3333 C 321.033 -2.41599 2.40506 0
M  V30 3334 H 322.226 -0.682727 2.92025 0
M  V30 3335 H 319.779 -0.319193 1.53006 0
M  V30 3336 H 320.514 -2.85354 1.5409 0
M  V30 3337 H 320.299 -2.25156 3.21009 0
M  V30 3338 H 321.789 -3.13367 2.76027 0
M  V30 3339 N 322.226 -1.5378 -0.344866 0
M  V30 3340 C 323.637 -1.62428 -0.920552 0
M  V30 3341 C 323.988 -0.504747 -1.89596 0
M  V30 3342 O 323.113 0.365711 -2.13287 0
M  V30 3343 C 323.708 -2.94419 -1.67639 0
M  V30 3344 C 322.267 -3.05333 -2.20111 0
M  V30 3345 C 321.414 -2.57866 -1.01982 0
M  V30 3346 H 324.365 -1.58222 -0.123042 0
M  V30 3347 H 324.386 -2.83384 -2.53917 0
M  V30 3348 H 323.898 -3.7588 -0.966224 0
M  V30 3349 H 321.999 -2.28502 -2.94308 0
M  V30 3350 H 322.112 -4.10778 -2.46573 0
M  V30 3351 H 320.476 -2.13241 -1.39285 0
M  V30 3352 H 321.259 -3.41765 -0.324308 0
M  V30 3353 N 323.704 0.605807 -1.45491 0
M  V30 3354 C 324.929 1.39625 -1.53361 0
M  V30 3355 C 325.354 1.87351 -0.167645 0
M  V30 3356 O 324.712 1.60243 0.848051 0
M  V30 3357 C 324.76 2.57559 -2.5238 0
M  V30 3358 O 323.864 3.58248 -2.04285 0
M  V30 3359 H 323.205 0.416771 -0.516912 0
M  V30 3360 H 325.735 0.737103 -1.90861 0
M  V30 3361 H 325.745 3.0478 -2.71244 0
M  V30 3362 H 324.42 2.22171 -3.51586 0
M  V30 3363 H 322.997 3.17664 -1.95305 0
M  V30 3364 N 325.182 1.32811 0.848464 0
M  V30 3365 C 326.428 1.23907 1.60546 0
M  V30 3366 C 326.761 -0.197161 1.93197 0
M  V30 3367 O 326.036 -1.13596 1.5788 0
M  V30 3368 C 326.319 2.10489 2.92175 0
M  V30 3369 C 326.172 3.62522 2.66266 0
M  V30 3370 C 327.491 1.97075 3.93509 0
M  V30 3371 H 324.61 0.451459 0.58254 0
M  V30 3372 H 327.252 1.62818 0.979296 0
M  V30 3373 H 325.402 1.77434 3.45614 0
M  V30 3374 H 327.074 4.05821 2.19334 0
M  V30 3375 H 325.317 3.84879 2.00126 0
M  V30 3376 H 325.988 4.18437 3.6002 0
M  V30 3377 H 328.464 2.26045 3.49346 0
M  V30 3378 H 327.34 2.59923 4.83457 0
M  V30 3379 H 327.601 0.940186 4.31987 0
M  V30 3380 N 326.66 -1.06551 1.16123 0
M  V30 3381 C 327.623 -2.12132 0.867906 0
M  V30 3382 C 328.623 -1.60224 -0.135944 0
M  V30 3383 O 329.813 -1.73943 0.0946422 0
M  V30 3384 C 326.945 -3.396 0.297419 0
M  V30 3385 H 328.138 -2.39586 1.80385 0
M  V30 3386 H 325.691 -1.22574 0.969812 0
M  V30 3387 H 326.426 -3.17794 -0.64633 0
M  V30 3388 H 326.211 -3.78581 1.02073 0
M  V30 3389 H 327.701 -4.17455 0.110052 0
M  V30 3390 N 328.138 -0.959301 -1.25041 0
M  V30 3391 C 329.048 -0.489994 -2.29426 0
M  V30 3392 C 330.064 0.444944 -1.68215 0
M  V30 3393 O 331.24 0.320046 -1.98841 0
M  V30 3394 C 328.305 0.220309 -3.45999 0
M  V30 3395 C 327.366 -0.753418 -4.22637 0
M  V30 3396 C 326.599 -0.076918 -5.33645 0
M  V30 3397 O 326.822 1.13649 -5.58963 0
M  V30 3398 O 325.756 -0.764824 -5.97021 0
M  V30 3399 H 329.582 -1.35755 -2.71669 0
M  V30 3400 H 327.167 -0.725961 -1.30576 0
M  V30 3401 H 329.049 0.619677 -4.16819 0
M  V30 3402 H 327.724 1.06296 -3.0575 0
M  V30 3403 H 326.631 -1.20308 -3.54227 0
M  V30 3404 H 327.964 -1.56423 -4.66683 0
M  V30 3405 N 329.616 1.39756 -0.72842 0
M  V30 3406 C 330.579 2.29012 -0.0927297 0
M  V30 3407 C 331.579 1.45992 0.674025 0
M  V30 3408 O 332.769 1.66749 0.50402 0
M  V30 3409 C 329.901 3.29396 0.878137 0
M  V30 3410 H 331.094 2.86729 -0.879011 0
M  V30 3411 H 328.647 1.48293 -0.493847 0
M  V30 3412 H 329.382 2.76722 1.69101 0
M  V30 3413 H 329.167 3.907 0.331051 0
M  V30 3414 H 330.657 3.96199 1.3197 0
M  V30 3415 N 331.094 0.475555 1.50254 0
M  V30 3416 C 332.371 -0.139685 1.95101 0
M  V30 3417 C 332.751 -1.56555 1.41611 0
M  V30 3418 O 332.099 -2.19956 0.618993 0
M  V30 3419 C 332.309 -0.0784298 3.48912 0
M  V30 3420 C 333.657 -0.265095 4.23772 0
M  V30 3421 O 334.681 -0.154808 3.55863 0
M  V30 3422 O 333.54 -0.488327 5.44314 0
M  V30 3423 H 330.634 -0.109236 0.819754 0
M  V30 3424 H 333.18 0.536276 1.61004 0
M  V30 3425 H 331.952 0.916918 3.80405 0
M  V30 3426 H 331.575 -0.795655 3.89558 0
M  V30 3427 N 332.573 -1.56217 0.208337 0
M  V30 3428 C 333.819 -1.98242 -0.427552 0
M  V30 3429 C 334.152 -1.09554 -1.60348 0
M  V30 3430 O 333.427 -0.15035 -1.93918 0
M  V30 3431 C 333.71 -3.4931 -0.874907 0
M  V30 3432 C 333.563 -4.48773 0.303751 0
M  V30 3433 C 334.882 -4.04424 -1.73577 0
M  V30 3434 H 332.001 -0.720744 -0.153936 0
M  V30 3435 H 334.643 -1.87586 0.30192 0
M  V30 3436 H 332.793 -3.58522 -1.49648 0
M  V30 3437 H 334.465 -4.51586 0.941682 0
M  V30 3438 H 332.708 -4.23194 0.953375 0
M  V30 3439 H 333.379 -5.51976 -0.0519883 0
M  V30 3440 H 335.855 -3.98075 -1.21143 0
M  V30 3441 H 334.731 -5.1047 -2.01771 0
M  V30 3442 H 334.992 -3.50494 -2.69456 0
M  V30 3443 N 334.051 0.0651679 -1.57465 0
M  V30 3444 C 335.328 0.79644 -1.78651 0
M  V30 3445 C 335.708 1.95454 -0.797566 0
M  V30 3446 O 335.056 2.27882 0.167946 0
M  V30 3447 C 335.266 1.26322 -3.25337 0
M  V30 3448 C 336.614 1.6939 -3.89348 0
M  V30 3449 O 337.638 1.35872 -3.29268 0
M  V30 3450 O 336.497 2.31471 -4.95059 0
M  V30 3451 H 333.591 0.382157 -0.733407 0
M  V30 3452 H 336.137 0.0447311 -1.69641 0
M  V30 3453 H 334.909 0.434859 -3.88876 0
M  V30 3454 H 334.532 2.07604 -3.39096 0
M  V30 3455 N 335.529 1.53961 0.336706 0
M  V30 3456 C 336.775 1.7179 1.07777 0
M  V30 3457 C 337.108 0.483263 1.88091 0
M  V30 3458 O 336.383 -0.519747 1.87427 0
M  V30 3459 C 336.666 2.98558 2.01334 0
M  V30 3460 C 336.519 4.32245 1.24437 0
M  V30 3461 C 337.838 3.21023 3.01052 0
M  V30 3462 H 334.957 0.625089 0.390426 0
M  V30 3463 H 337.599 1.86641 0.35567 0
M  V30 3464 H 335.749 2.86028 2.62908 0
M  V30 3465 H 337.421 4.56637 0.654243 0
M  V30 3466 H 335.664 4.30344 0.546458 0
M  V30 3467 H 336.335 5.17137 1.93063 0
M  V30 3468 H 338.811 3.32929 2.49595 0
M  V30 3469 H 337.687 4.11104 3.6371 0
M  V30 3470 H 337.948 2.37637 3.72802 0
M  V30 3471 N 337.007 -0.598083 1.45811 0
M  V30 3472 C 337.937 -1.71873 1.58057 0
M  V30 3473 C 338.918 -1.64533 0.431615 0
M  V30 3474 O 340.103 -1.82787 0.65595 0
M  V30 3475 C 337.233 -3.10495 1.55597 0
M  V30 3476 C 336.187 -3.32654 2.69305 0
M  V30 3477 C 335.513 -4.71646 2.51902 0
M  V30 3478 C 336.813 -3.21981 4.11248 0
M  V30 3479 H 338.507 -1.61881 2.51863 0
M  V30 3480 H 336.053 -0.777372 1.21214 0
M  V30 3481 H 338.006 -3.88699 1.6276 0
M  V30 3482 H 336.73 -3.2135 0.583255 0
M  V30 3483 H 335.389 -2.56843 2.61586 0
M  V30 3484 H 335.037 -4.79246 1.52748 0
M  V30 3485 H 334.737 -4.87426 3.2816 0
M  V30 3486 H 336.261 -5.52038 2.60933 0
M  V30 3487 H 337.675 -3.90049 4.20161 0
M  V30 3488 H 336.072 -3.49289 4.87972 0
M  V30 3489 H 337.142 -2.1928 4.32486 0
M  V30 3490 N 338.485 -1.33259 -0.841409 0
M  V30 3491 C 339.415 -1.25926 -1.96634 0
M  V30 3492 C 340.396 -0.140349 -1.6952 0
M  V30 3493 O 341.581 -0.329707 -1.91381 0
M  V30 3494 C 338.711 -0.99512 -3.32738 0
M  V30 3495 C 337.665 -2.0767 -3.74242 0
M  V30 3496 C 336.991 -1.66474 -5.08125 0
M  V30 3497 C 338.291 -3.49318 -3.88297 0
M  V30 3498 H 339.985 -2.20046 -2.03027 0
M  V30 3499 H 337.531 -1.05931 -0.975425 0
M  V30 3500 H 339.484 -0.930323 -4.11002 0
M  V30 3501 H 338.208 -0.0183004 -3.26595 0
M  V30 3502 H 336.867 -2.13187 -2.98239 0
M  V30 3503 H 336.515 -0.675012 -4.9845 0
M  V30 3504 H 336.215 -2.3885 -5.36865 0
M  V30 3505 H 337.739 -1.61455 -5.88867 0
M  V30 3506 H 339.153 -3.46316 -4.56879 0
M  V30 3507 H 337.55 -4.20158 -4.28471 0
M  V30 3508 H 338.62 -3.8801 -2.9082 0
M  V30 3509 N 339.963 1.05934 -1.16686 0
M  V30 3510 C 341.188 1.83029 -0.975455 0
M  V30 3511 C 341.613 1.82096 0.471452 0
M  V30 3512 O 340.971 1.22443 1.33706 0
M  V30 3513 C 341.019 3.27372 -1.51195 0
M  V30 3514 O 340.123 4.06054 -0.720701 0
M  V30 3515 H 339.464 0.566194 -0.346872 0
M  V30 3516 H 341.994 1.33541 -1.55009 0
M  V30 3517 H 342.004 3.78186 -1.53099 0
M  V30 3518 H 340.679 3.27366 -2.56523 0
M  V30 3519 H 339.256 3.64812 -0.772458 0
M  V30 3520 N 341.441 0.965919 1.2453 0
M  V30 3521 C 342.69 0.622437 1.91856 0
M  V30 3522 C 343.003 -0.846006 1.76358 0
M  V30 3523 O 344.209 -1.29993 2.38357 0
M  V30 3524 C 342.665 1.0626 3.43856 0
M  V30 3525 C 342.273 2.55437 3.68043 0
M  V30 3526 C 344.017 0.792183 4.17043 0
M  V30 3527 C 341.924 2.93196 5.13605 0
M  V30 3528 H 340.854 0.229092 0.718354 0
M  V30 3529 H 343.505 1.17189 1.41206 0
M  V30 3530 H 341.887 0.441476 3.93531 0
M  V30 3531 H 343.061 3.22665 3.28974 0
M  V30 3532 H 341.376 2.8007 3.08139 0
M  V30 3533 H 343.973 1.05031 5.24283 0
M  V30 3534 H 344.316 -0.271584 4.15413 0
M  V30 3535 H 344.849 1.37419 3.73311 0
M  V30 3536 H 341.588 3.98636 5.20355 0
M  V30 3537 H 341.108 2.30651 5.53679 0
M  V30 3538 H 342.787 2.83004 5.81823 0
M  V30 3539 N 342.919 -1.39368 0.735821 0
M  V30 3540 C 344.33 -1.83313 0.354015 0
M  V30 3541 C 344.681 -1.61461 -1.11466 0
M  V30 3542 O 343.806 -1.10621 -1.85989 0
M  V30 3543 C 344.401 -3.32781 0.635769 0
M  V30 3544 C 342.96 -3.75142 0.307448 0
M  V30 3545 C 342.107 -2.62358 0.897974 0
M  V30 3546 H 345.058 -1.28349 0.933398 0
M  V30 3547 H 345.079 -3.80388 -0.0921773 0
M  V30 3548 H 344.591 -3.48654 1.70476 0
M  V30 3549 H 342.692 -3.64857 -0.755674 0
M  V30 3550 H 342.805 -4.72532 0.790583 0
M  V30 3551 H 341.169 -2.52624 0.324551 0
M  V30 3552 H 341.952 -2.81036 1.97164 0
M  V30 3553 N 344.397 -0.483516 -1.5 0
M  V30 3554 C 345.33 0.350427 -2.25493 0
M  V30 3555 C 346.308 0.985549 -1.29328 0
M  V30 3556 O 347.492 1.01906 -1.58579 0
M  V30 3557 C 344.619 1.49202 -3.04066 0
M  V30 3558 C 343.665 0.973036 -4.15252 0
M  V30 3559 S 344.498 -0.122237 -5.3536 0
M  V30 3560 C 345.654 1.02294 -6.17484 0
M  V30 3561 H 345.887 -0.290381 -2.95878 0
M  V30 3562 H 343.42 -0.268562 -1.52046 0
M  V30 3563 H 345.378 2.14623 -3.49925 0
M  V30 3564 H 344.039 2.10438 -2.33183 0
M  V30 3565 H 343.232 1.82804 -4.69679 0
M  V30 3566 H 342.834 0.396335 -3.71894 0
M  V30 3567 H 345.126 1.93195 -6.49371 0
M  V30 3568 H 346.069 0.517664 -7.06205 0
M  V30 3569 H 346.477 1.28238 -5.49741 0
M  V30 3570 N 345.875 1.56104 -0.216619 0
M  V30 3571 C 347.122 1.98172 0.416416 0
M  V30 3572 C 347.45 1.10413 1.60122 0
M  V30 3573 O 346.705 0.147967 1.9514 0
M  V30 3574 C 347.004 3.45923 0.898464 0
M  V30 3575 C 346.67 4.50559 -0.175288 0
M  V30 3576 C 345.332 4.78897 -0.470271 0
M  V30 3577 C 347.684 5.1334 -0.901728 0
M  V30 3578 C 345.012 5.67299 -1.4963 0
M  V30 3579 C 347.364 6.02853 -1.91705 0
M  V30 3580 C 346.028 6.29537 -2.21901 0
M  V30 3581 H 345.298 0.725164 0.152377 0
M  V30 3582 H 347.945 1.88839 -0.318103 0
M  V30 3583 H 346.25 3.52434 1.71165 0
M  V30 3584 H 347.947 3.75841 1.39803 0
M  V30 3585 H 344.537 4.28551 0.0647806 0
M  V30 3586 H 348.721 4.91521 -0.687072 0
M  V30 3587 H 343.977 5.86239 -1.73592 0
M  V30 3588 H 348.151 6.50552 -2.48505 0
M  V30 3589 H 345.778 6.97835 -3.01548 0
M  V30 3590 N 347.353 -0.0568162 1.57498 0
M  V30 3591 C 348.283 -1.06593 2.0775 0
M  V30 3592 C 349.264 -1.39448 0.974082 0
M  V30 3593 O 350.449 -1.48815 1.24771 0
M  V30 3594 C 347.579 -2.37509 2.5339 0
M  V30 3595 C 346.533 -2.1897 3.67745 0
M  V30 3596 C 345.859 -3.55402 3.99492 0
M  V30 3597 C 347.159 -1.59859 4.97235 0
M  V30 3598 H 348.853 -0.647706 2.9231 0
M  V30 3599 H 346.399 -0.310116 1.40621 0
M  V30 3600 H 348.352 -3.08409 2.87162 0
M  V30 3601 H 347.076 -2.8134 1.65878 0
M  V30 3602 H 345.735 -1.50508 3.3428 0
M  V30 3603 H 345.383 -3.9683 3.09088 0
M  V30 3604 H 345.083 -3.43831 4.76502 0
M  V30 3605 H 346.607 -4.27708 4.35773 0
M  V30 3606 H 348.021 -2.20642 5.29141 0
M  V30 3607 H 346.418 -1.58942 5.78669 0
M  V30 3608 H 347.488 -0.561506 4.81638 0
M  V30 3609 N 348.832 -1.54138 -0.328536 0
M  V30 3610 C 350.248 -1.44736 -0.672574 0
M  V30 3611 C 350.448 -0.616217 -1.91846 0
M  V30 3612 O 349.504 -0.113067 -2.52247 0
M  V30 3613 C 350.817 -2.884 -0.851217 0
M  V30 3614 C 352.365 -2.98271 -0.948877 0
M  V30 3615 C 352.84 -4.43074 -1.15973 0
M  V30 3616 N 354.331 -4.46665 -1.22658 0
M  V30 3617 C 355.066 -5.55857 -1.40751 0
M  V30 3618 N 354.562 -6.75026 -1.5592 0
M  V30 3619 N 356.355 -5.43495 -1.4342 0
M  V30 3620 H 348.506 -2.06661 0.490421 0
M  V30 3621 H 350.769 -0.934812 0.157579 0
M  V30 3622 H 350.475 -3.51699 -0.00704236 0
M  V30 3623 H 350.349 -3.34225 -1.74853 0
M  V30 3624 H 352.736 -2.35102 -1.78356 0
M  V30 3625 H 352.817 -2.55785 -0.0281435 0
M  V30 3626 H 352.461 -5.06827 -0.329915 0
M  V30 3627 H 352.391 -4.83165 -2.09426 0
M  V30 3628 H 354.882 -3.60797 -1.124 0
M  V30 3629 H 355.195 -7.54004 -1.69404 0
M  V30 3630 H 353.54 -6.77944 -1.53027 0
M  V30 3631 H 356.731 -4.49349 -1.31162 0
M  V30 3632 H 356.904 -6.28649 -1.57178 0
M  V30 3633 N 350.31 0.590341 -1.46126 0
M  V30 3634 C 351.24 1.71032 -1.58966 0
M  V30 3635 C 352.221 1.64302 -0.440335 0
M  V30 3636 O 353.406 1.82436 -0.665634 0
M  V30 3637 C 350.536 3.09665 -1.57241 0
M  V30 3638 C 349.49 3.31221 -2.71066 0
M  V30 3639 C 348.816 4.70303 -2.54399 0
M  V30 3640 C 350.116 3.19796 -4.1295 0
M  V30 3641 H 351.81 1.60543 -2.52718 0
M  V30 3642 H 349.356 0.770933 -1.21625 0
M  V30 3643 H 351.309 3.87831 -1.64819 0
M  V30 3644 H 350.033 3.21036 -0.600289 0
M  V30 3645 H 348.692 2.55452 -2.62944 0
M  V30 3646 H 348.34 4.78429 -1.55288 0
M  V30 3647 H 348.04 4.85679 -3.30741 0
M  V30 3648 H 349.564 5.50647 -2.63857 0
M  V30 3649 H 350.978 3.87815 -4.22223 0
M  V30 3650 H 349.375 3.46696 -4.89818 0
M  V30 3651 H 350.445 2.16983 -4.33643 0
M  V30 3652 N 351.788 1.33704 0.83433 0
M  V30 3653 C 353.018 1.28281 1.6195 0
M  V30 3654 C 353.426 -0.147603 1.88623 0
M  V30 3655 O 352.769 -1.1016 1.47005 0
M  V30 3656 C 352.831 1.99386 2.99141 0
M  V30 3657 C 352.495 3.48681 2.95416 0
M  V30 3658 C 353.492 4.438 2.70809 0
M  V30 3659 C 351.177 3.90925 3.15409 0
M  V30 3660 C 353.171 5.79138 2.66229 0
M  V30 3661 C 350.858 5.26366 3.10454 0
M  V30 3662 C 351.856 6.20284 2.85895 0
M  V30 3663 O 351.544 7.53245 2.80852 0
M  V30 3664 H 351.276 0.44315 0.510484 0
M  V30 3665 H 353.83 1.76711 1.04702 0
M  V30 3666 H 352.06 1.45554 3.58261 0
M  V30 3667 H 353.749 1.87403 3.60049 0
M  V30 3668 H 354.515 4.12485 2.5511 0
M  V30 3669 H 350.394 3.18229 3.33543 0
M  V30 3670 H 353.938 6.52416 2.4698 0
M  V30 3671 H 349.835 5.57304 3.25703 0
M  V30 3672 H 350.603 7.62846 2.96661 0
M  V30 3673 N 353.266 -1.05314 1.17247 0
M  V30 3674 C 354.196 -2.1498 0.911362 0
M  V30 3675 C 355.177 -1.69471 -0.146169 0
M  V30 3676 O 356.362 -1.942 0.003812 0
M  V30 3677 C 353.492 -3.4472 0.422528 0
M  V30 3678 C 352.446 -4.03789 1.4191 0
M  V30 3679 C 351.772 -5.28858 0.788274 0
M  V30 3680 C 353.072 -4.41418 2.7919 0
M  V30 3681 H 354.766 -2.3708 1.82848 0
M  V30 3682 H 352.312 -1.13938 0.880569 0
M  V30 3683 H 354.265 -4.20787 0.227289 0
M  V30 3684 H 352.989 -3.22269 -0.530123 0
M  V30 3685 H 351.648 -3.2979 1.60106 0
M  V30 3686 H 351.296 -5.02709 -0.171173 0
M  V30 3687 H 350.996 -5.69338 1.45353 0
M  V30 3688 H 352.52 -6.07612 0.603282 0
M  V30 3689 H 353.934 -5.08524 2.64719 0
M  V30 3690 H 352.331 -4.92913 3.42282 0
M  V30 3691 H 353.401 -3.51819 3.33693 0
M  V30 3692 N 354.744 -0.972509 -1.24016 0
M  V30 3693 C 355.674 -0.525548 -2.27509 0
M  V30 3694 C 356.655 0.437262 -1.64384 0
M  V30 3695 O 357.84 0.332343 -1.91335 0
M  V30 3696 C 354.97 0.180448 -3.46831 0
M  V30 3697 C 353.924 -0.698859 -4.22256 0
M  V30 3698 C 353.25 0.138903 -5.3452 0
M  V30 3699 C 354.55 -1.98582 -4.83076 0
M  V30 3700 H 356.244 -1.39058 -2.65148 0
M  V30 3701 H 353.79 -0.67009 -1.27459 0
M  V30 3702 H 355.743 0.504387 -4.18371 0
M  V30 3703 H 354.467 1.07987 -3.08231 0
M  V30 3704 H 353.126 -1.00614 -3.52523 0
M  V30 3705 H 352.774 1.03862 -4.9216 0
M  V30 3706 H 352.474 -0.446259 -5.85903 0
M  V30 3707 H 353.998 0.457404 -6.08884 0
M  V30 3708 H 355.412 -1.72715 -5.46665 0
M  V30 3709 H 353.809 -2.5181 -5.44713 0
M  V30 3710 H 354.879 -2.67769 -4.04262 0
M  V30 3711 N 356.222 1.38976 -0.743202 0
M  V30 3712 C 357.47 1.99948 -0.29417 0
M  V30 3713 C 357.791 1.59279 1.12495 0
M  V30 3714 O 357.061 0.844808 1.76748 0
M  V30 3715 H 355.641 0.739473 -0.105774 0
M  V30 3716 H 358.303 1.699 -0.954986 0
M  V30 3717 H 357.399 3.10142 -0.349056 0
M  V30 3718 N 357.7 0.491464 1.49741 0
M  V30 3719 C 359.116 0.146835 1.58923 0
M  V30 3720 C 359.316 -1.34804 1.49767 0
M  V30 3721 O 358.372 -2.12317 1.36667 0
M  V30 3722 C 359.685 0.715157 2.92072 0
M  V30 3723 C 361.233 0.680407 3.05515 0
M  V30 3724 C 361.708 1.22663 4.41269 0
M  V30 3725 N 363.199 1.18691 4.47735 0
M  V30 3726 C 363.934 1.57984 5.51207 0
M  V30 3727 N 363.43 2.04824 6.6183 0
M  V30 3728 N 365.223 1.49459 5.41866 0
M  V30 3729 H 357.374 1.46347 1.53936 0
M  V30 3730 H 359.637 0.606453 0.728642 0
M  V30 3731 H 359.343 1.76317 3.04311 0
M  V30 3732 H 359.217 0.17018 3.76816 0
M  V30 3733 H 361.604 -0.358743 2.92911 0
M  V30 3734 H 361.685 1.26242 2.22478 0
M  V30 3735 H 361.329 2.26451 4.54623 0
M  V30 3736 H 361.259 0.620637 5.2293 0
M  V30 3737 H 363.75 0.843605 3.68364 0
M  V30 3738 H 364.063 2.32901 7.3687 0
M  V30 3739 H 362.408 2.08791 6.62896 0
M  V30 3740 H 365.599 1.12692 4.54333 0
M  V30 3741 H 365.772 1.80406 6.22381 0
M  V30 3742 N 359.178 -1.55987 0.224894 0
M  V30 3743 C 360.424 -1.98684 -0.406502 0
M  V30 3744 C 360.757 -1.11248 -1.59177 0
M  V30 3745 O 360.032 -0.170909 -1.93748 0
M  V30 3746 C 360.315 -3.50218 -0.837808 0
M  V30 3747 C 360.168 -4.48426 0.351332 0
M  V30 3748 C 361.487 -4.06243 -1.69278 0
M  V30 3749 H 358.606 -0.722337 -0.146283 0
M  V30 3750 H 361.248 -1.87255 0.321799 0
M  V30 3751 H 359.398 -3.60089 -1.45837 0
M  V30 3752 H 361.07 -4.50562 0.989526 0
M  V30 3753 H 359.313 -4.22159 0.998207 0
M  V30 3754 H 359.984 -5.52 0.00655905 0
M  V30 3755 H 362.46 -3.99337 -1.16914 0
M  V30 3756 H 361.336 -5.12581 -1.96346 0
M  V30 3757 H 361.597 -3.53332 -2.65723 0
M  V30 3758 N 360.656 0.0484629 -1.57525 0
M  V30 3759 C 361.589 1.08755 -2.00618 0
M  V30 3760 C 362.567 1.36272 -0.887058 0
M  V30 3761 O 363.751 1.49255 -1.15131 0
M  V30 3762 C 360.878 2.42675 -2.36277 0
M  V30 3763 C 359.924 2.31142 -3.58435 0
M  V30 3764 S 360.757 1.68326 -5.08357 0
M  V30 3765 C 361.913 3.03776 -5.47239 0
M  V30 3766 H 362.146 0.720415 -2.88439 0
M  V30 3767 H 359.679 0.257801 -1.52233 0
M  V30 3768 H 361.637 3.19699 -2.57494 0
M  V30 3769 H 360.298 2.76541 -1.48942 0
M  V30 3770 H 359.491 3.29957 -3.80978 0
M  V30 3771 H 359.093 1.62258 -3.36969 0
M  V30 3772 H 361.385 4.00106 -5.46737 0
M  V30 3773 H 362.328 2.85988 -6.47778 0
M  V30 3774 H 362.736 3.05456 -4.74718 0
M  V30 3775 N 362.134 1.5431 0.320358 0
M  V30 3776 C 363.064 1.86912 1.3995 0
M  V30 3777 C 364.045 0.726211 1.53819 0
M  V30 3778 O 365.23 0.980233 1.67646 0
M  V30 3779 C 362.36 2.09932 2.7667 0
M  V30 3780 C 361.314 3.25776 2.77586 0
M  V30 3781 C 360.64 3.34173 4.17412 0
M  V30 3782 C 361.94 4.6335 2.41048 0
M  V30 3783 H 363.634 2.77292 1.12914 0
M  V30 3784 H 361.18 1.33421 0.541738 0
M  V30 3785 H 363.133 2.31324 3.52232 0
M  V30 3786 H 361.857 1.16304 3.0519 0
M  V30 3787 H 360.516 3.04276 2.04479 0
M  V30 3788 H 360.164 2.38098 4.43078 0
M  V30 3789 H 359.864 4.12033 4.18931 0
M  V30 3790 H 361.388 3.57803 4.94782 0
M  V30 3791 H 362.802 4.84602 3.06324 0
M  V30 3792 H 361.199 5.43782 2.53813 0
M  V30 3793 H 362.269 4.65381 1.36193 0
M  V30 3794 N 363.613 -0.582584 1.46437 0
M  V30 3795 C 364.543 -1.70187 1.59871 0
M  V30 3796 C 365.524 -1.64066 0.449042 0
M  V30 3797 O 366.709 -1.82081 0.6753 0
M  V30 3798 C 363.839 -3.08827 1.58881 0
M  V30 3799 C 362.793 -3.29779 2.72819 0
M  V30 3800 C 362.119 -4.68947 2.5689 0
M  V30 3801 C 363.419 -3.17601 4.1464 0
M  V30 3802 H 365.113 -1.592 2.53566 0
M  V30 3803 H 362.659 -0.764472 1.22032 0
M  V30 3804 H 364.612 -3.86951 1.66873 0
M  V30 3805 H 363.336 -3.20713 0.617306 0
M  V30 3806 H 361.995 -2.54054 2.64296 0
M  V30 3807 H 361.643 -4.77599 1.57823 0
M  V30 3808 H 361.343 -4.83919 3.33312 0
M  V30 3809 H 362.867 -5.4924 2.66773 0
M  V30 3810 H 364.281 -3.8557 4.24274 0
M  V30 3811 H 362.678 -3.44094 4.9165 0
M  V30 3812 H 363.748 -2.14681 4.34788 0
M  V30 3813 N 365.091 -1.34144 -0.827227 0
M  V30 3814 C 366.041 -1.21923 -1.92663 0
M  V30 3815 C 367.025 -0.119294 -1.60457 0
M  V30 3816 O 368.217 -0.348539 -1.73534 0
M  V30 3817 C 365.346 -0.972492 -3.29238 0
M  V30 3818 C 364.432 -2.1154 -3.67576 0
M  V30 3819 N 364.823 -3.36627 -3.77512 0
M  V30 3820 C 363.121 -2.02468 -3.97395 0
M  V30 3821 C 363.822 -4.11658 -4.1099 0
M  V30 3822 N 362.798 -3.40207 -4.23981 0
M  V30 3823 H 366.6 -2.16721 -1.98517 0
M  V30 3824 H 364.114 -1.2632 -1.02064 0
M  V30 3825 H 366.111 -0.865847 -4.0781 0
M  V30 3826 H 364.771 -0.0331509 -3.24683 0
M  V30 3827 H 365.782 -3.71234 -3.61118 0
M  V30 3828 H 362.459 -1.16265 -4.00985 0
M  V30 3829 H 363.849 -5.19657 -4.25918 0
M  V30 3830 N 366.569 1.04691 -1.17803 0
M  V30 3831 C 367.794 1.81984 -0.994813 0
M  V30 3832 C 368.219 1.82586 0.452112 0
M  V30 3833 O 367.577 1.23854 1.324 0
M  V30 3834 C 367.625 3.2575 -1.54659 0
M  V30 3835 O 366.729 4.05267 -0.763728 0
M  V30 3836 H 366.07 0.562483 -0.352857 0
M  V30 3837 H 368.6 1.3189 -1.56417 0
M  V30 3838 H 368.61 3.76541 -1.57102 0
M  V30 3839 H 367.285 3.24627 -2.59981 0
M  V30 3840 H 365.862 3.63972 -0.811108 0
M  V30 3841 N 368.047 0.979072 1.23499 0
M  V30 3842 C 368.994 0.517904 2.24914 0
M  V30 3843 C 369.964 -0.442525 1.60097 0
M  V30 3844 O 371.149 -0.350365 1.87556 0
M  V30 3845 C 368.289 -0.174813 3.44657 0
M  V30 3846 C 367.402 0.825721 4.24035 0
M  V30 3847 C 366.537 0.107946 5.3109 0
M  V30 3848 C 365.576 1.09778 6.02175 0
M  V30 3849 N 364.713 0.40925 7.00906 0
M  V30 3850 H 369.553 1.38751 2.63727 0
M  V30 3851 H 367.09 0.695303 1.2963 0
M  V30 3852 H 369.048 -0.593233 4.12961 0
M  V30 3853 H 367.678 -1.0083 3.06648 0
M  V30 3854 H 366.73 1.36253 3.55161 0
M  V30 3855 H 368.042 1.58005 4.73113 0
M  V30 3856 H 367.196 -0.367904 6.05583 0
M  V30 3857 H 365.935 -0.678994 4.8295 0
M  V30 3858 H 364.94 1.5844 5.26476 0
M  V30 3859 H 366.165 1.88536 6.52404 0
M  V30 3860 H 364.111 -0.358506 6.5502 0
M  V30 3861 H 364.028 1.10226 7.47921 0
M  V30 3862 H 365.296 -0.0442557 7.79487 0
M  V30 3863 N 369.525 -1.3858 0.750561 0
M  V30 3864 C 370.774 -1.99424 0.302172 0
M  V30 3865 C 371.087 -1.60254 -1.12152 0
M  V30 3866 O 372.293 -2.14046 -1.67023 0
M  V30 3867 C 370.749 -3.56558 0.489307 0
M  V30 3868 C 370.357 -4.04682 1.92189 0
M  V30 3869 C 372.101 -4.24374 0.103478 0
M  V30 3870 C 370.008 -5.54446 2.05775 0
M  V30 3871 H 368.938 -0.746046 0.10923 0
M  V30 3872 H 371.589 -1.58383 0.92667 0
M  V30 3873 H 369.971 -3.95472 -0.204329 0
M  V30 3874 H 371.145 -3.77065 2.64875 0
M  V30 3875 H 369.46 -3.4958 2.26236 0
M  V30 3876 H 372.057 -5.34384 0.183787 0
M  V30 3877 H 372.4 -4.05468 -0.943481 0
M  V30 3878 H 372.933 -3.90688 0.748854 0
M  V30 3879 H 369.672 -5.78252 3.08714 0
M  V30 3880 H 369.192 -5.83816 1.37546 0
M  V30 3881 H 370.871 -6.20099 1.84626 0
M  V30 3882 N 371.003 -0.499398 -1.49478 0
M  V30 3883 C 372.25 0.0456899 -2.02448 0
M  V30 3884 C 372.578 1.37142 -1.37921 0
M  V30 3885 O 371.833 1.89111 -0.503544 0
M  V30 3886 C 372.132 0.248424 -3.56536 0
M  V30 3887 C 371.798 -0.999107 -4.39692 0
M  V30 3888 C 370.46 -1.34108 -4.62135 0
M  V30 3889 C 372.812 -1.82842 -4.88076 0
M  V30 3890 C 370.14 -2.51191 -5.30208 0
M  V30 3891 C 372.492 -2.99076 -5.57437 0
M  V30 3892 C 371.156 -3.33655 -5.78127 0
M  V30 3893 H 370.426 0.0167191 -0.740811 0
M  V30 3894 H 373.073 -0.65923 -1.79795 0
M  V30 3895 H 371.378 1.03586 -3.77859 0
M  V30 3896 H 373.075 0.684605 -3.95113 0
M  V30 3897 H 369.665 -0.722729 -4.22463 0
M  V30 3898 H 373.849 -1.57737 -4.70566 0
M  V30 3899 H 369.105 -2.78221 -5.44429 0
M  V30 3900 H 373.279 -3.63664 -5.93904 0
M  V30 3901 H 370.906 -4.24483 -6.30649 0
M  V30 3902 N 372.481 1.55866 -0.233164 0
M  V30 3903 C 373.709 2.02998 0.399905 0
M  V30 3904 C 374.124 1.11274 1.52524 0
M  V30 3905 O 373.481 0.124528 1.82075 0
M  V30 3906 C 373.532 3.4958 0.920639 0
M  V30 3907 O 373.253 4.37808 -0.159834 0
M  V30 3908 C 374.754 4.12411 1.62578 0
M  V30 3909 H 371.974 0.664006 0.0966281 0
M  V30 3910 H 374.518 2.0143 -0.353013 0
M  V30 3911 H 372.673 3.51727 1.62379 0
M  V30 3912 H 373.087 5.23981 0.23337 0
M  V30 3913 H 374.561 5.16711 1.94201 0
M  V30 3914 H 375.038 3.5809 2.54299 0
M  V30 3915 H 375.644 4.14148 0.967553 0
M  V30 3916 N 373.959 -0.0401083 1.57549 0
M  V30 3917 C 375.236 -0.767917 1.79896 0
M  V30 3918 C 375.616 -1.9416 0.82856 0
M  V30 3919 O 374.964 -2.2812 -0.131671 0
M  V30 3920 C 375.174 -1.2113 3.27305 0
M  V30 3921 C 376.522 -1.63175 3.91994 0
M  V30 3922 O 377.546 -1.30616 3.31388 0
M  V30 3923 O 376.405 -2.23565 4.98679 0
M  V30 3924 H 373.499 -0.370441 0.739393 0
M  V30 3925 H 376.045 -0.017737 1.69691 0
M  V30 3926 H 374.817 -0.372937 3.89519 0
M  V30 3927 H 374.44 -2.02183 3.42356 0
M  V30 3928 N 375.437 -1.54477 -0.31217 0
M  V30 3929 C 376.4 -1.83923 -1.36766 0
M  V30 3930 C 377.4 -0.711563 -1.44199 0
M  V30 3931 O 378.59 -0.979866 -1.44029 0
M  V30 3932 C 375.722 -2.0095 -2.75376 0
M  V30 3933 H 376.915 -2.78239 -1.11906 0
M  V30 3934 H 374.468 -1.46369 -0.548257 0
M  V30 3935 H 375.203 -1.08883 -3.05475 0
M  V30 3936 H 374.988 -2.83018 -2.71373 0
M  V30 3937 H 376.478 -2.2514 -3.51713 0
M  V30 3938 N 376.915 0.57481 -1.46744 0
M  V30 3939 C 378.14 1.36341 -1.56288 0
M  V30 3940 C 378.565 1.86954 -0.207347 0
M  V30 3941 O 377.923 1.62006 0.813871 0
M  V30 3942 C 377.971 2.52147 -2.57787 0
M  V30 3943 O 377.075 3.53834 -2.11838 0
M  V30 3944 H 376.416 0.405713 -0.525636 0
M  V30 3945 H 378.946 0.696453 -1.92382 0
M  V30 3946 H 378.956 2.98958 -2.77648 0
M  V30 3947 H 377.631 2.14663 -3.5622 0
M  V30 3948 H 376.208 3.1345 -2.01999 0
M  V30 3949 N 378.394 1.34581 0.820102 0
M  V30 3950 C 379.619 1.30333 1.61332 0
M  V30 3951 C 380.044 -0.119339 1.87721 0
M  V30 3952 O 379.402 -1.08197 1.45475 0
M  V30 3953 C 379.45 2.10258 2.92957 0
M  V30 3954 O 378.554 1.47404 3.85157 0
M  V30 3955 H 377.895 0.447488 0.490561 0
M  V30 3956 H 380.425 1.77425 1.01889 0
M  V30 3957 H 380.435 2.21718 3.42498 0
M  V30 3958 H 379.11 3.13693 2.73074 0
M  V30 3959 H 377.687 1.44703 3.43679 0
M  V30 3960 N 379.872 -1.04064 1.18357 0
M  V30 3961 C 381.288 -1.2947 0.933258 0
M  V30 3962 C 381.488 -1.97466 -0.401169 0
M  V30 3963 O 380.544 -2.25528 -1.13549 0
M  V30 3964 C 381.857 -2.15337 2.09882 0
M  V30 3965 C 383.405 -2.28683 2.13712 0
M  V30 3966 C 383.88 -3.17917 3.29686 0
M  V30 3967 N 385.371 -3.25504 3.29547 0
M  V30 3968 C 386.106 -3.94706 4.15926 0
M  V30 3969 N 385.602 -4.66239 5.12439 0
M  V30 3970 N 387.395 -3.90986 4.0384 0
M  V30 3971 H 379.546 -0.583359 2.04232 0
M  V30 3972 H 381.809 -0.319921 0.892387 0
M  V30 3973 H 381.515 -1.72682 3.06389 0
M  V30 3974 H 381.389 -3.16015 2.05947 0
M  V30 3975 H 383.776 -2.70575 1.17784 0
M  V30 3976 H 383.857 -1.27596 2.21705 0
M  V30 3977 H 383.501 -2.76736 4.25887 0
M  V30 3978 H 383.431 -4.19036 3.1893 0
M  V30 3979 H 385.922 -2.74547 2.59677 0
M  V30 3980 H 386.235 -5.16638 5.74722 0
M  V30 3981 H 384.58 -4.65143 5.16398 0
M  V30 3982 H 387.771 -3.34234 3.27727 0
M  V30 3983 H 387.944 -4.44646 4.71375 0
M  V30 3984 N 381.35 -0.985608 -1.22978 0
M  V30 3985 C 382.575 -0.675254 -1.961 0
M  V30 3986 C 383 0.752154 -1.72407 0
M  V30 3987 O 382.358 1.5131 -0.998751 0
M  V30 3988 C 382.406 -0.977899 -3.47087 0
M  V30 3989 O 381.51 -0.072685 -4.12336 0
M  V30 3990 H 380.851 -0.253443 -0.613728 0
M  V30 3991 H 383.381 -1.32061 -1.56272 0
M  V30 3992 H 383.391 -0.916739 -3.97567 0
M  V30 3993 H 382.066 -2.01807 -3.63657 0
M  V30 3994 H 380.643 -0.188703 -3.72422 0
M  V30 3995 N 382.828 1.3818 -0.7579 0
M  V30 3996 C 384.077 1.99261 -0.312744 0
M  V30 3997 C 384.39 1.60846 1.11301 0
M  V30 3998 O 385.596 2.14929 1.65885 0
M  V30 3999 C 384.052 3.56294 -0.50821 0
M  V30 4000 C 383.66 4.03657 -1.94333 0
M  V30 4001 C 385.404 4.24313 -0.125982 0
M  V30 4002 C 383.311 5.53347 -2.08712 0
M  V30 4003 H 382.241 0.745456 -0.113185 0
M  V30 4004 H 384.892 1.57889 -0.935056 0
M  V30 4005 H 383.274 3.95575 0.183353 0
M  V30 4006 H 384.448 3.75655 -2.66871 0
M  V30 4007 H 382.763 3.48376 -2.28086 0
M  V30 4008 H 385.36 5.34279 -0.212125 0
M  V30 4009 H 385.703 4.05962 0.921964 0
M  V30 4010 H 386.236 3.90285 -0.769563 0
M  V30 4011 H 382.975 5.76607 -3.11777 0
M  V30 4012 H 382.495 5.83078 -1.4064 0
M  V30 4013 H 384.174 6.19111 -1.87912 0
M  V30 4014 N 384.306 0.507319 1.49211 0
M  V30 4015 C 385.554 -0.0348839 2.0207 0
M  V30 4016 C 385.875 -1.36898 1.38866 0
M  V30 4017 O 385.145 -1.88133 0.546151 0
M  V30 4018 H 383.725 -0.0158812 0.746831 0
M  V30 4019 H 386.387 0.665998 1.83168 0
M  V30 4020 H 385.483 -0.159917 3.1169 0
M  V30 4021 N 385.784 -1.5574 0.241426 0
M  V30 4022 C 386.747 -2.19877 -0.647063 0
M  V30 4023 C 387.747 -1.16642 -1.10686 0
M  V30 4024 O 388.937 -1.41757 -1.01245 0
M  V30 4025 C 386.069 -2.83797 -1.88871 0
M  V30 4026 H 387.262 -2.99772 -0.087574 0
M  V30 4027 H 384.815 -1.56298 -0.00813574 0
M  V30 4028 H 385.55 -2.07824 -2.48957 0
M  V30 4029 H 385.335 -3.59414 -1.56728 0
M  V30 4030 H 386.825 -3.32898 -2.52129 0
M  V30 4031 N 387.262 0.0317525 -1.57568 0
M  V30 4032 C 388.192 1.03274 -2.0942 0
M  V30 4033 C 389.173 1.3788 -0.996143 0
M  V30 4034 O 390.358 1.46811 -1.27122 0
M  V30 4035 C 387.488 2.33448 -2.57137 0
M  V30 4036 C 386.442 2.13091 -3.71182 0
M  V30 4037 C 385.768 3.49001 -4.05095 0
M  V30 4038 C 387.068 1.51928 -4.99715 0
M  V30 4039 H 388.762 0.60112 -2.93303 0
M  V30 4040 H 386.308 0.287705 -1.41097 0
M  V30 4041 H 388.261 3.03802 -2.92032 0
M  V30 4042 H 386.985 2.78665 -1.70333 0
M  V30 4043 H 385.644 1.45171 -3.36632 0
M  V30 4044 H 385.292 3.91862 -3.15362 0
M  V30 4045 H 384.992 3.36207 -4.81911 0
M  V30 4046 H 386.516 4.20721 -4.42522 0
M  V30 4047 H 387.93 2.12196 -5.32584 0
M  V30 4048 H 386.327 1.49716 -5.81124 0
M  V30 4049 H 387.397 0.484811 -4.8247 0
M  V30 4050 N 388.74 1.54641 0.303973 0
M  V30 4051 C 389.688 1.86137 1.39484 0
M  V30 4052 C 390.682 0.734854 1.52631 0
M  V30 4053 O 391.888 0.918803 1.54784 0
M  V30 4054 H 388.263 0.590324 0.465856 0
M  V30 4055 H 390.234 2.77324 1.10154 0
M  V30 4056 C 388.983 2.12274 2.75382 0
M  V30 4057 H 388.306 2.98429 2.66046 0
M  V30 4058 H 389.746 2.38254 3.5073 0
M  V30 4059 C 388.205 0.920365 3.24085 0
M  V30 4060 O 388.735 0.139377 4.01458 0
M  V30 4061 N 386.941 0.726566 2.81371 0
M  V30 4062 H 386.488 1.36332 2.18567 0
M  V30 4063 H 386.446 -0.0763799 3.14307 0
M  V30 4064 N 390.218 -0.567019 1.47046 0
M  V30 4065 C 391.165 -1.67489 1.58796 0
M  V30 4066 C 392.135 -1.60399 0.43144 0
M  V30 4067 O 393.32 -1.79378 0.650233 0
M  V30 4068 C 390.46 -3.05821 1.59899 0
M  V30 4069 C 389.573 -3.2342 2.86397 0
M  V30 4070 C 388.708 -4.52093 2.789 0
M  V30 4071 C 387.747 -4.6309 4.00267 0
M  V30 4072 N 386.884 -5.83106 3.91064 0
M  V30 4073 H 391.724 -1.56785 2.53422 0
M  V30 4074 H 389.261 -0.763896 1.2571 0
M  V30 4075 H 391.219 -3.8591 1.58522 0
M  V30 4076 H 389.849 -3.15384 0.687929 0
M  V30 4077 H 388.901 -2.3683 2.97684 0
M  V30 4078 H 390.213 -3.27412 3.76301 0
M  V30 4079 H 389.367 -5.4043 2.75718 0
M  V30 4080 H 388.106 -4.50565 1.86662 0
M  V30 4081 H 387.111 -3.73168 4.03765 0
M  V30 4082 H 388.336 -4.66386 4.93621 0
M  V30 4083 H 386.282 -5.82546 3.01623 0
M  V30 4084 H 386.199 -5.88434 4.74638 0
M  V30 4085 H 387.467 -6.73831 3.91882 0
M  V30 4086 N 391.696 -1.35014 -0.812953 0
M  V30 4087 C 392.945 -1.27269 -1.56479 0
M  V30 4088 C 393.258 0.152771 -1.95002 0
M  V30 4089 O 394.464 0.352451 -2.69203 0
M  V30 4090 C 392.92 -2.23159 -2.82362 0
M  V30 4091 C 392.528 -3.71016 -2.511 0
M  V30 4092 C 394.272 -2.24342 -3.60376 0
M  V30 4093 C 392.179 -4.58746 -3.73237 0
M  V30 4094 H 391.109 -0.472829 -0.587324 0
M  V30 4095 H 393.76 -1.6024 -0.894171 0
M  V30 4096 H 392.142 -1.83151 -3.51101 0
M  V30 4097 H 393.316 -4.1962 -1.90409 0
M  V30 4098 H 391.631 -3.72378 -1.86343 0
M  V30 4099 H 394.228 -2.87107 -4.51081 0
M  V30 4100 H 394.571 -1.24542 -3.97234 0
M  V30 4101 H 395.104 -2.62846 -2.98591 0
M  V30 4102 H 391.843 -5.59521 -3.41492 0
M  V30 4103 H 391.363 -4.14871 -4.33176 0
M  V30 4104 H 393.042 -4.73852 -4.40537 0
M  V30 4105 N 393.175 1.03435 -1.18907 0
M  V30 4106 C 394.403 1.80381 -1.01342 0
M  V30 4107 C 394.818 1.83649 0.438005 0
M  V30 4108 O 394.175 1.27655 1.30424 0
M  V30 4109 C 394.226 3.25689 -1.56873 0
M  V30 4110 O 393.947 3.22673 -2.96334 0
M  V30 4111 C 395.448 4.19255 -1.44014 0
M  V30 4112 H 392.668 0.56784 -0.35749 0
M  V30 4113 H 395.212 1.30317 -1.576 0
M  V30 4114 H 393.367 3.72962 -1.04777 0
M  V30 4115 H 393.781 4.13748 -3.22355 0
M  V30 4116 H 395.255 5.19123 -1.87657 0
M  V30 4117 H 395.732 4.37467 -0.389815 0
M  V30 4118 H 396.338 3.77851 -1.95214 0
M  V30 4119 N 394.653 0.992116 1.22453 0
M  V30 4120 C 395.9 0.667534 1.91181 0
M  V30 4121 C 396.228 -0.800317 1.77271 0
M  V30 4122 O 395.483 -1.59421 1.13505 0
M  V30 4123 C 395.782 1.01832 3.42586 0
M  V30 4124 C 395.448 2.47831 3.76684 0
M  V30 4125 C 394.11 2.87729 3.85701 0
M  V30 4126 C 396.462 3.42466 3.92895 0
M  V30 4127 C 393.79 4.21252 4.08367 0
M  V30 4128 C 396.142 4.75648 4.17064 0
M  V30 4129 C 394.806 5.15288 4.24305 0
M  V30 4130 H 394.076 0.244268 0.699581 0
M  V30 4131 H 396.723 1.24816 1.45235 0
M  V30 4132 H 395.028 0.355769 3.90181 0
M  V30 4133 H 396.725 0.745228 3.94014 0
M  V30 4134 H 393.315 2.15905 3.70247 0
M  V30 4135 H 397.499 3.12814 3.85307 0
M  V30 4136 H 392.755 4.51554 4.122 0
M  V30 4137 H 396.929 5.48924 4.2855 0
M  V30 4138 H 394.556 6.18769 4.41621 0
M  V30 4139 N 396.131 -1.37776 0.765217 0
M  V30 4140 C 397.079 -2.32209 0.134798 0
M  V30 4141 C 398.073 -1.54607 -0.692315 0
M  V30 4142 O 399.279 -1.70052 -0.590109 0
M  V30 4143 H 395.654 -0.751591 0.0248005 0
M  V30 4144 H 397.625 -2.8297 0.947119 0
M  V30 4145 C 396.374 -3.39841 -0.735063 0
M  V30 4146 H 395.697 -3.99654 -0.107991 0
M  V30 4147 H 397.137 -4.08296 -1.14326 0
M  V30 4148 C 395.596 -2.79378 -1.88281 0
M  V30 4149 O 396.126 -2.69608 -2.97783 0
M  V30 4150 N 394.332 -2.37016 -1.68142 0
M  V30 4151 H 393.879 -2.45162 -0.790772 0
M  V30 4152 H 393.837 -1.96905 -2.45104 0
M  V30 4153 N 397.609 -0.515225 -1.4894 0
M  V30 4154 C 398.837 0.0206034 -2.0689 0
M  V30 4155 C 399.252 1.29514 -1.37374 0
M  V30 4156 O 398.609 1.76698 -0.456529 0
M  V30 4157 C 398.66 0.26351 -3.60538 0
M  V30 4158 O 398.381 -0.960517 -4.27441 0
M  V30 4159 C 399.882 0.841383 -4.35242 0
M  V30 4160 H 397.102 -0.0268608 -0.670462 0
M  V30 4161 H 399.646 -0.716651 -1.91532 0
M  V30 4162 H 397.801 0.950777 -3.75552 0
M  V30 4163 H 398.215 -0.73212 -5.19365 0
M  V30 4164 H 399.689 0.96085 -5.43573 0
M  V30 4165 H 400.166 1.8427 -3.98674 0
M  V30 4166 H 400.772 0.191143 -4.2487 0
M  V30 4167 N 399.087 1.5561 -0.249682 0
M  V30 4168 C 400.503 1.59254 0.105103 0
M  V30 4169 C 400.703 1.26685 1.56694 0
M  V30 4170 O 399.759 1.0155 2.31179 0
M  V30 4171 C 401.072 2.99687 -0.246592 0
M  V30 4172 C 402.62 3.12416 -0.191118 0
M  V30 4173 C 403.095 4.55074 -0.516885 0
M  V30 4174 N 404.586 4.60835 -0.467489 0
M  V30 4175 C 405.321 5.69201 -0.69268 0
M  V30 4176 N 404.817 6.85817 -0.981146 0
M  V30 4177 N 406.61 5.58635 -0.623198 0
M  V30 4178 H 398.761 1.75049 -1.20298 0
M  V30 4179 H 401.024 0.815003 -0.484225 0
M  V30 4180 H 400.73 3.28267 -1.26228 0
M  V30 4181 H 400.604 3.74798 0.424962 0
M  V30 4182 H 402.991 2.83615 0.815247 0
M  V30 4183 H 403.072 2.39573 -0.896563 0
M  V30 4184 H 402.716 4.84596 -1.52082 0
M  V30 4185 H 402.646 5.26181 0.210068 0
M  V30 4186 H 405.137 3.7705 -0.253373 0
M  V30 4187 H 405.45 7.64341 -1.14032 0
M  V30 4188 H 403.795 6.87494 -1.01865 0
M  V30 4189 H 406.986 4.66406 -0.397863 0
M  V30 4190 H 407.159 6.43017 -0.802093 0
M  V30 4191 N 400.565 -0.0233959 1.57583 0
M  V30 4192 C 401.812 -0.713063 1.8953 0
M  V30 4193 C 402.14 -1.75056 0.847673 0
M  V30 4194 O 401.395 -1.95119 -0.150636 0
M  V30 4195 C 401.694 -1.41428 3.28227 0
M  V30 4196 C 401.36 -0.512222 4.47981 0
M  V30 4197 C 400.022 -0.263785 4.80476 0
M  V30 4198 C 402.374 0.110248 5.21083 0
M  V30 4199 C 399.702 0.615804 5.83459 0
M  V30 4200 C 402.054 0.977573 6.25001 0
M  V30 4201 C 400.718 1.23542 6.55968 0
M  V30 4202 H 399.988 -0.260928 0.69354 0
M  V30 4203 H 402.635 0.0271047 1.91481 0
M  V30 4204 H 400.94 -2.22791 3.22291 0
M  V30 4205 H 402.637 -1.95355 3.50196 0
M  V30 4206 H 399.227 -0.716013 4.22577 0
M  V30 4207 H 403.411 -0.0687137 4.96252 0
M  V30 4208 H 398.667 0.82382 6.05824 0
M  V30 4209 H 402.841 1.46638 6.80786 0
M  V30 4210 H 400.468 1.91871 7.35588 0
M  V30 4211 N 402.043 -1.548 -0.295768 0
M  V30 4212 C 403.289 -1.74588 -1.03184 0
M  V30 4213 C 403.622 -0.532962 -1.86744 0
M  V30 4214 O 402.897 0.469872 -1.88739 0
M  V30 4215 C 403.18 -3.03791 -1.93347 0
M  V30 4216 C 403.033 -4.35392 -1.12933 0
M  V30 4217 C 404.352 -3.28892 -2.92435 0
M  V30 4218 H 401.471 -0.635221 -0.373715 0
M  V30 4219 H 404.113 -1.87519 -0.30606 0
M  V30 4220 H 402.263 -2.92898 -2.55232 0
M  V30 4221 H 403.935 -4.58211 -0.532943 0
M  V30 4222 H 402.178 -4.31642 -0.432168 0
M  V30 4223 H 402.849 -5.22074 -1.79284 0
M  V30 4224 H 405.325 -3.39429 -2.4068 0
M  V30 4225 H 404.201 -4.20603 -3.52682 0
M  V30 4226 H 404.462 -2.47437 -3.6637 0
M  V30 4227 N 403.521 0.559213 -1.47345 0
M  V30 4228 C 404.454 1.68201 -1.5422 0
M  V30 4229 C 405.432 1.57742 -0.394497 0
M  V30 4230 O 406.616 1.78628 -0.60201 0
M  V30 4231 C 403.743 3.0643 -1.44285 0
M  V30 4232 C 402.789 3.3534 -2.63532 0
M  V30 4233 S 403.622 3.24816 -4.25741 0
M  V30 4234 C 404.778 4.65542 -4.18355 0
M  V30 4235 H 405.011 1.62114 -2.49211 0
M  V30 4236 H 402.544 0.739871 -1.35519 0
M  V30 4237 H 404.502 3.86164 -1.3924 0
M  V30 4238 H 403.163 3.09984 -0.506816 0
M  V30 4239 H 402.356 4.36107 -2.52639 0
M  V30 4240 H 401.958 2.63221 -2.65689 0
M  V30 4241 H 404.25 5.56449 -3.86485 0
M  V30 4242 H 405.193 4.81493 -5.19202 0
M  V30 4243 H 405.601 4.43495 -3.49246 0
M  V30 4244 N 404.999 1.35443 0.805782 0
M  V30 4245 C 405.946 1.28431 1.91766 0
M  V30 4246 C 406.916 0.156102 1.65365 0
M  V30 4247 O 408.101 0.339936 1.87747 0
M  V30 4248 C 405.241 1.06301 3.2832 0
M  V30 4249 C 404.354 2.2805 3.66902 0
M  V30 4250 C 403.489 1.99064 4.92491 0
M  V30 4251 C 402.528 3.16863 5.23703 0
M  V30 4252 N 401.665 2.87647 6.40471 0
M  V30 4253 H 406.505 2.23511 1.97096 0
M  V30 4254 H 404.042 1.11105 0.964054 0
M  V30 4255 H 406 0.915012 4.07042 0
M  V30 4256 H 404.63 0.148822 3.22457 0
M  V30 4257 H 403.682 2.53711 2.83434 0
M  V30 4258 H 404.994 3.1601 3.85927 0
M  V30 4259 H 404.148 1.81099 5.7904 0
M  V30 4260 H 402.887 1.0839 4.75503 0
M  V30 4261 H 401.892 3.35404 4.35642 0
M  V30 4262 H 403.117 4.08339 5.4262 0
M  V30 4263 H 401.063 1.99568 6.24907 0
M  V30 4264 H 400.98 3.69141 6.59751 0
M  V30 4265 H 402.248 2.73226 7.30047 0
M  V30 4266 N 406.477 -1.02803 1.19454 0
M  V30 4267 C 407.705 -1.79841 1.02297 0
M  V30 4268 C 408.12 -1.83879 -0.428259 0
M  V30 4269 O 407.477 -1.28345 -1.29745 0
M  V30 4270 C 407.528 -3.24852 1.58598 0
M  V30 4271 O 407.249 -3.21097 2.98041 0
M  V30 4272 C 408.75 -4.18485 1.46236 0
M  V30 4273 H 405.97 -0.565936 0.360496 0
M  V30 4274 H 408.514 -1.2948 1.58288 0
M  V30 4275 H 406.669 -3.72401 1.06753 0
M  V30 4276 H 407.083 -4.12033 3.24545 0
M  V30 4277 H 408.557 -5.18121 1.90407 0
M  V30 4278 H 409.034 -4.37254 0.41301 0
M  V30 4279 H 409.64 -3.76811 1.97215 0
M  V30 4280 N 407.956 -0.998596 -1.21925 0
M  V30 4281 C 408.886 -0.573688 -2.26343 0
M  V30 4282 C 409.867 0.402296 -1.65274 0
M  V30 4283 O 411.052 0.291683 -1.91997 0
M  V30 4284 C 408.182 0.106839 -3.47136 0
M  V30 4285 C 407.136 -0.788269 -4.20678 0
M  V30 4286 C 406.462 0.0254927 -5.34694 0
M  V30 4287 C 407.762 -2.08784 -4.78755 0
M  V30 4288 H 409.456 -1.44651 -2.62138 0
M  V30 4289 H 407.002 -0.696975 -1.26009 0
M  V30 4290 H 408.955 0.415531 -4.19346 0
M  V30 4291 H 407.679 1.01424 -3.10452 0
M  V30 4292 H 406.338 -1.08069 -3.50309 0
M  V30 4293 H 405.986 0.933989 -4.94253 0
M  V30 4294 H 405.686 -0.570437 -5.84825 0
M  V30 4295 H 407.21 0.328147 -6.09718 0
M  V30 4296 H 408.624 -1.84272 -5.42878 0
M  V30 4297 H 407.021 -2.63307 -5.39249 0
M  V30 4298 H 408.091 -2.76284 -3.98491 0
M  V30 4299 N 409.434 1.37368 -0.772513 0
M  V30 4300 C 410.367 2.27956 -0.105593 0
M  V30 4301 C 411.345 1.46362 0.708295 0
M  V30 4302 O 412.529 1.75695 0.682895 0
M  V30 4303 C 409.656 3.27687 0.856686 0
M  V30 4304 C 408.702 4.26312 0.1267 0
M  V30 4305 S 409.535 5.22206 -1.1858 0
M  V30 4306 C 410.691 6.25488 -0.227081 0
M  V30 4307 H 410.924 2.84171 -0.87372 0
M  V30 4308 H 408.457 1.43654 -0.565939 0
M  V30 4309 H 410.415 3.85653 1.40648 0
M  V30 4310 H 409.076 2.70417 1.59793 0
M  V30 4311 H 408.269 4.96674 0.856212 0
M  V30 4312 H 407.871 3.72339 -0.352117 0
M  V30 4313 H 410.163 6.74836 0.600231 0
M  V30 4314 H 411.106 7.02371 -0.898899 0
M  V30 4315 H 411.514 5.64267 0.162053 0
M  V30 4316 N 410.912 0.523116 1.48665 0
M  V30 4317 C 412.14 -0.0096312 2.06898 0
M  V30 4318 C 412.555 -1.28784 1.38059 0
M  V30 4319 O 411.912 -1.76453 0.465893 0
M  V30 4320 C 411.963 -0.244386 3.60673 0
M  V30 4321 O 411.684 0.983172 4.26925 0
M  V30 4322 C 413.185 -0.818289 4.35682 0
M  V30 4323 H 410.405 0.0304161 0.67031 0
M  V30 4324 H 412.949 0.726799 1.91149 0
M  V30 4325 H 411.104 -0.930847 3.76051 0
M  V30 4326 H 411.518 0.759653 5.1897 0
M  V30 4327 H 412.992 -0.93201 5.44075 0
M  V30 4328 H 413.469 -1.82153 3.99646 0
M  V30 4329 H 414.075 -0.168609 4.24966 0
M  V30 4330 N 412.39 -1.55475 0.257931 0
M  V30 4331 C 413.639 -1.98383 -0.364275 0
M  V30 4332 C 413.952 -1.14952 -1.58258 0
M  V30 4333 O 415.158 -1.47924 -2.27664 0
M  V30 4334 C 413.614 -3.53037 -0.699479 0
M  V30 4335 C 413.222 -4.45223 0.498046 0
M  V30 4336 C 414.966 -4.04575 -1.28526 0
M  V30 4337 C 412.873 -5.91238 0.138383 0
M  V30 4338 H 411.803 -0.740911 -0.13988 0
M  V30 4339 H 414.454 -1.79936 0.359883 0
M  V30 4340 H 412.836 -3.6722 -1.48207 0
M  V30 4341 H 414.01 -4.42803 1.27522 0
M  V30 4342 H 412.325 -4.04226 0.999503 0
M  V30 4343 H 414.922 -5.11196 -1.56788 0
M  V30 4344 H 415.265 -3.5258 -2.21344 0
M  V30 4345 H 415.798 -3.93762 -0.565337 0
M  V30 4346 H 412.537 -6.47294 1.03398 0
M  V30 4347 H 412.057 -5.96768 -0.602374 0
M  V30 4348 H 413.736 -6.46413 -0.27553 0
M  V30 4349 N 413.868 0.0150385 -1.57593 0
M  V30 4350 C 415.108 0.70768 -1.91758 0
M  V30 4351 C 415.472 1.71764 -0.857974 0
M  V30 4352 O 416.673 2.45956 -1.0844 0
M  V30 4353 C 414.944 1.34736 -3.3103 0
M  V30 4354 S 416.503 2.06721 -3.87056 0
M  V30 4355 H 413.321 0.234119 -0.671349 0
M  V30 4356 H 415.923 -0.0380373 -1.95463 0
M  V30 4357 H 414.627 0.59926 -4.06001 0
M  V30 4358 H 414.158 2.13133 -3.30663 0
M  V30 4359 H 416.173 3.34047 -3.66915 0
M  V30 4360 N 415.346 1.54954 0.287554 0
M  V30 4361 C 416.757 1.65732 0.859634 0
M  V30 4362 C 417.108 0.574767 1.87592 0
M  V30 4363 O 416.233 -0.286299 2.14498 0
M  V30 4364 C 416.828 3.00438 1.56597 0
M  V30 4365 C 415.387 3.13292 2.08627 0
M  V30 4366 C 414.534 2.61473 0.923416 0
M  V30 4367 H 417.485 1.5857 0.0642338 0
M  V30 4368 H 417.506 2.92613 2.43224 0
M  V30 4369 H 417.018 3.79207 0.826053 0
M  V30 4370 H 415.119 2.39268 2.85625 0
M  V30 4371 H 415.232 4.19647 2.31157 0
M  V30 4372 H 413.596 2.18264 1.31275 0
M  V30 4373 H 414.379 3.42733 0.197241 0
M  V30 4374 N 416.824 -0.551391 1.4764 0
M  V30 4375 C 418.072 -1.30572 1.54258 0
M  V30 4376 C 418.393 -1.93877 0.208963 0
M  V30 4377 O 417.663 -1.80234 -0.767619 0
M  V30 4378 H 416.243 -0.484894 0.568231 0
M  V30 4379 H 418.905 -0.643402 1.83974 0
M  V30 4380 H 418.001 -2.09621 2.31226 0
M  V30 4381 N 418.302 -1.35869 -0.798587 0
M  V30 4382 C 419.53 -1.32722 -1.58722 0
M  V30 4383 C 419.945 0.0935631 -1.88568 0
M  V30 4384 O 419.302 1.04784 -1.49421 0
M  V30 4385 C 419.353 -2.13974 -2.91371 0
M  V30 4386 O 419.074 -3.50514 -2.62815 0
M  V30 4387 C 420.575 -2.18504 -3.85708 0
M  V30 4388 H 417.795 -0.45562 -0.492596 0
M  V30 4389 H 420.339 -1.78837 -0.991843 0
M  V30 4390 H 418.494 -1.71438 -3.47402 0
M  V30 4391 H 418.908 -3.92806 -3.47568 0
M  V30 4392 H 420.382 -2.79732 -4.75872 0
M  V30 4393 H 420.859 -1.18597 -4.22885 0
M  V30 4394 H 421.465 -2.61236 -3.35612 0
M  V30 4395 N 419.78 1.02168 -1.19998 0
M  V30 4396 C 421.026 1.75945 -1.00852 0
M  V30 4397 C 421.359 1.88702 0.458828 0
M  V30 4398 O 420.634 1.40911 1.34069 0
M  V30 4399 C 420.917 3.18154 -1.68671 0
M  V30 4400 C 420.77 3.13224 -3.22817 0
M  V30 4401 C 422.089 4.16711 -1.41561 0
M  V30 4402 H 419.208 0.638673 -0.367785 0
M  V30 4403 H 421.85 1.19222 -1.4794 0
M  V30 4404 H 420 3.66586 -1.28636 0
M  V30 4405 H 421.672 2.72635 -3.72112 0
M  V30 4406 H 419.915 2.50751 -3.53986 0
M  V30 4407 H 420.586 4.13728 -3.65422 0
M  V30 4408 H 423.062 3.76913 -1.76284 0
M  V30 4409 H 421.938 5.14391 -1.91553 0
M  V30 4410 H 422.199 4.40774 -0.342193 0
M  V30 4411 N 421.258 1.00505 1.21394 0
M  V30 4412 C 422.188 0.585684 2.26035 0
M  V30 4413 C 423.169 -0.393525 1.65485 0
M  V30 4414 O 424.354 -0.281497 1.92149 0
M  V30 4415 C 421.484 -0.0884283 3.47187 0
M  V30 4416 C 420.438 0.810567 4.20254 0
M  V30 4417 C 419.764 0.00286382 5.347 0
M  V30 4418 C 421.064 2.1132 4.77641 0
M  V30 4419 H 422.758 1.46039 2.61368 0
M  V30 4420 H 420.304 0.703648 1.25638 0
M  V30 4421 H 422.257 -0.393286 4.19561 0
M  V30 4422 H 420.981 -0.997766 3.10986 0
M  V30 4423 H 419.64 1.09925 3.49731 0
M  V30 4424 H 419.288 -0.907765 4.94741 0
M  V30 4425 H 418.988 0.601444 5.84514 0
M  V30 4426 H 420.512 -0.295808 6.09883 0
M  V30 4427 H 421.926 1.87148 5.41893 0
M  V30 4428 H 420.323 2.66164 5.37845 0
M  V30 4429 H 421.393 2.78393 3.9702 0
M  V30 4430 N 422.737 -1.36956 0.779787 0
M  V30 4431 C 423.667 -2.32761 0.185651 0
M  V30 4432 C 424.648 -1.56177 -0.673989 0
M  V30 4433 O 425.833 -1.84378 -0.609797 0
M  V30 4434 C 422.963 -3.40418 -0.687964 0
M  V30 4435 C 421.917 -4.27941 0.0710102 0
M  V30 4436 C 421.243 -5.26681 -0.922573 0
M  V30 4437 C 422.543 -5.07006 1.25467 0
M  V30 4438 H 424.237 -2.82698 0.986008 0
M  V30 4439 H 421.783 -1.3592 0.475592 0
M  V30 4440 H 423.736 -4.06423 -1.11348 0
M  V30 4441 H 422.46 -2.89025 -1.52093 0
M  V30 4442 H 421.119 -3.63478 0.47739 0
M  V30 4443 H 420.767 -4.71565 -1.7503 0
M  V30 4444 H 420.467 -5.86103 -0.419237 0
M  V30 4445 H 421.991 -5.9556 -1.34686 0
M  V30 4446 H 423.405 -5.66105 0.905401 0
M  V30 4447 H 421.802 -5.75793 1.69063 0
M  V30 4448 H 422.872 -4.3921 2.05481 0
M  V30 4449 N 424.215 -0.530993 -1.48385 0
M  V30 4450 C 425.461 0.00274135 -2.028 0
M  V30 4451 C 425.794 1.33838 -1.40716 0
M  V30 4452 O 425.069 1.86465 -0.553277 0
M  V30 4453 C 425.352 0.123676 -3.59888 0
M  V30 4454 C 425.205 -1.2372 -4.3245 0
M  V30 4455 C 426.524 0.849967 -4.31814 0
M  V30 4456 H 423.643 -0.000477758 -0.737 0
M  V30 4457 H 426.285 -0.688217 -1.77098 0
M  V30 4458 H 424.435 0.712157 -3.81917 0
M  V30 4459 H 426.107 -1.86687 -4.21836 0
M  V30 4460 H 424.35 -1.81882 -3.93829 0
M  V30 4461 H 425.021 -1.10557 -5.40815 0
M  V30 4462 H 427.497 0.350572 -4.14621 0
M  V30 4463 H 426.373 0.903486 -5.41413 0
M  V30 4464 H 426.634 1.90047 -3.99167 0
M  V30 4465 N 425.693 1.55336 -0.266172 0
M  V30 4466 C 426.94 1.99397 0.353158 0
M  V30 4467 C 427.268 1.15451 1.56529 0
M  V30 4468 O 426.523 0.209974 1.9457 0
M  V30 4469 C 426.822 3.48606 0.787957 0
M  V30 4470 C 426.488 4.49773 -0.318541 0
M  V30 4471 C 425.15 4.77158 -0.62239 0
M  V30 4472 C 427.502 5.10212 -1.06459 0
M  V30 4473 C 424.83 5.62251 -1.67602 0
M  V30 4474 C 427.182 5.96449 -2.10788 0
M  V30 4475 C 425.846 6.22158 -2.41817 0
M  V30 4476 H 425.116 0.729644 0.12923 0
M  V30 4477 H 427.763 1.87732 -0.37802 0
M  V30 4478 H 426.068 3.57701 1.59866 0
M  V30 4479 H 427.765 3.80098 1.27775 0
M  V30 4480 H 424.355 4.2854 -0.0715925 0
M  V30 4481 H 428.539 4.89086 -0.843098 0
M  V30 4482 H 423.795 5.80419 -1.92155 0
M  V30 4483 H 427.969 6.42317 -2.69076 0
M  V30 4484 H 425.596 6.87888 -3.23596 0
M  V30 4485 N 427.171 -0.0066808 1.57599 0
M  V30 4486 C 428.396 -0.707738 1.94951 0
M  V30 4487 C 428.821 -1.66882 0.867868 0
M  V30 4488 O 428.179 -1.80457 -0.17458 0
M  V30 4489 C 428.227 -1.42162 3.31394 0
M  V30 4490 O 427.331 -2.53578 3.25226 0
M  V30 4491 H 426.672 -0.188752 0.636607 0
M  V30 4492 H 429.202 0.0445193 2.04552 0
M  V30 4493 H 429.212 -1.78655 3.66806 0
M  V30 4494 H 427.887 -0.716903 4.09675 0
M  V30 4495 H 426.464 -2.19463 3.01481 0
M  V30 4496 N 428.649 -1.55105 -0.279332 0
M  V30 4497 C 429.898 -1.74618 -1.00952 0
M  V30 4498 C 430.211 -0.551096 -1.87676 0
M  V30 4499 O 431.417 -0.628507 -2.64125 0
M  V30 4500 C 429.873 -3.09025 -1.84476 0
M  V30 4501 C 429.481 -4.36081 -1.0265 0
M  V30 4502 C 431.225 -3.37891 -2.56963 0
M  V30 4503 C 429.132 -5.6153 -1.85576 0
M  V30 4504 H 428.062 -0.650868 -0.38064 0
M  V30 4505 H 430.713 -1.81569 -0.265475 0
M  V30 4506 H 429.095 -2.96095 -2.62952 0
M  V30 4507 H 430.269 -4.59909 -0.286354 0
M  V30 4508 H 428.584 -4.14312 -0.416464 0
M  V30 4509 H 431.181 -4.28822 -3.19399 0
M  V30 4510 H 431.524 -2.57737 -3.26921 0
M  V30 4511 H 432.057 -3.5189 -1.85522 0
M  V30 4512 H 428.796 -6.44413 -1.2005 0
M  V30 4513 H 428.316 -5.41854 -2.57204 0
M  V30 4514 H 429.995 -5.99594 -2.43096 0
M  V30 4515 N 430.127 0.543554 -1.4793 0
M  V30 4516 C 431.352 1.32995 -1.59145 0
M  V30 4517 C 431.777 1.86472 -0.246956 0
M  V30 4518 O 431.135 1.63696 0.779324 0
M  V30 4519 C 431.183 2.46623 -2.63077 0
M  V30 4520 O 430.287 3.49261 -2.19295 0
M  V30 4521 H 429.628 0.394472 -0.534124 0
M  V30 4522 H 432.158 0.655489 -1.93816 0
M  V30 4523 H 432.168 2.93001 -2.83926 0
M  V30 4524 H 430.843 2.07059 -3.60693 0
M  V30 4525 H 429.42 3.09094 -2.08603 0
M  V30 4526 N 431.605 1.3629 0.791371 0
M  V30 4527 C 432.83 1.33726 1.58531 0
M  V30 4528 C 433.255 -0.0794933 1.87932 0
M  V30 4529 O 432.613 -1.05087 1.47738 0
M  V30 4530 C 432.661 2.16425 2.88431 0
M  V30 4531 O 431.765 1.5554 3.81944 0
M  V30 4532 H 431.106 0.457793 0.480959 0
M  V30 4533 H 433.636 1.79547 0.981031 0
M  V30 4534 H 433.646 2.28933 3.37718 0
M  V30 4535 H 432.321 3.19415 2.66359 0
M  V30 4536 H 430.898 1.51961 3.40532 0
M  V30 4537 N 433.083 -1.0153 1.20538 0
M  V30 4538 C 434.329 -1.75517 1.02787 0
M  V30 4539 C 434.684 -1.87411 -0.435289 0
M  V30 4540 O 433.977 -1.38982 -1.31889 0
M  V30 4541 C 434.171 -3.17213 1.64654 0
M  V30 4542 C 434 -3.19134 3.16834 0
M  V30 4543 C 432.77 -3.26301 3.85818 0
M  V30 4544 C 434.968 -3.05077 4.14044 0
M  V30 4545 N 432.95 -3.17739 5.25276 0
M  V30 4546 C 434.321 -3.04299 5.40187 0
M  V30 4547 C 436.376 -2.89303 4.05226 0
M  V30 4548 C 435.079 -2.89365 6.58529 0
M  V30 4549 C 437.105 -2.75723 5.23193 0
M  V30 4550 C 436.467 -2.75612 6.48242 0
M  V30 4551 H 432.566 -0.652919 0.430373 0
M  V30 4552 H 435.15 -1.20755 1.52729 0
M  V30 4553 H 433.321 -3.70266 1.17294 0
M  V30 4554 H 435.053 -3.79637 1.40208 0
M  V30 4555 H 431.808 -3.33078 3.36684 0
M  V30 4556 H 432.232 -3.16829 5.98288 0
M  V30 4557 H 436.874 -2.88201 3.09354 0
M  V30 4558 H 434.592 -2.89216 7.54573 0
M  V30 4559 H 438.178 -2.64533 5.18183 0
M  V30 4560 H 437.058 -2.65224 7.37988 0
M  V30 4561 N 434.561 -1.01147 -1.20859 0
M  V30 4562 C 435.81 -0.693214 -1.89413 0
M  V30 4563 C 436.123 0.779969 -1.79376 0
M  V30 4564 O 437.329 1.21057 -2.43017 0
M  V30 4565 C 435.785 -1.18949 -3.39675 0
M  V30 4566 C 435.393 -2.68921 -3.58309 0
M  V30 4567 C 437.137 -0.94642 -4.13815 0
M  V30 4568 C 435.044 -3.12056 -5.0237 0
M  V30 4569 H 433.974 -0.255595 -0.709357 0
M  V30 4570 H 436.625 -1.22349 -1.36759 0
M  V30 4571 H 435.007 -0.587228 -3.91622 0
M  V30 4572 H 436.181 -3.34652 -3.16772 0
M  V30 4573 H 434.496 -2.91314 -2.97532 0
M  V30 4574 H 437.093 -1.24417 -5.20023 0
M  V30 4575 H 437.436 0.117219 -4.16135 0
M  V30 4576 H 437.969 -1.5118 -3.67953 0
M  V30 4577 H 434.708 -4.17674 -5.05202 0
M  V30 4578 H 434.228 -2.51041 -5.44737 0
M  V30 4579 H 435.907 -3.04403 -5.70918 0
M  V30 4580 N 436.039 1.36541 -0.78704 0
M  V30 4581 C 437.288 1.98552 -0.35494 0
M  V30 4582 C 437.601 1.63171 1.07864 0
M  V30 4583 O 438.807 2.18399 1.61289 0
M  V30 4584 C 437.263 3.55136 -0.583671 0
M  V30 4585 C 436.871 3.99444 -2.02851 0
M  V30 4586 C 438.615 4.2395 -0.215957 0
M  V30 4587 C 436.522 5.48796 -2.20403 0
M  V30 4588 H 435.452 0.742888 -0.128972 0
M  V30 4589 H 438.103 1.5587 -0.968337 0
M  V30 4590 H 436.485 3.95875 0.0994046 0
M  V30 4591 H 437.659 3.6991 -2.74779 0
M  V30 4592 H 435.974 3.43459 -2.35425 0
M  V30 4593 H 438.571 5.33709 -0.325405 0
M  V30 4594 H 438.914 4.07827 0.835646 0
M  V30 4595 H 439.447 3.88565 -0.852175 0
M  V30 4596 H 436.186 5.69864 -3.23937 0
M  V30 4597 H 435.706 5.79964 -1.52977 0
M  V30 4598 H 437.385 6.14986 -2.01002 0
M  V30 4599 N 437.518 0.538854 1.48102 0
M  V30 4600 C 438.481 -0.208395 2.28251 0
M  V30 4601 C 439.481 -0.859656 1.35892 0
M  V30 4602 O 440.671 -0.71834 1.58699 0
M  V30 4603 C 437.803 -1.30252 3.15035 0
M  V30 4604 H 438.996 0.495407 2.9578 0
M  V30 4605 H 436.549 0.295112 1.53489 0
M  V30 4606 H 437.284 -2.0393 2.52157 0
M  V30 4607 H 437.069 -0.840551 3.82985 0
M  V30 4608 H 438.559 -1.82787 3.75471 0
M  V30 4609 N 438.996 -1.55193 0.274407 0
M  V30 4610 C 439.959 -2.212 -0.600279 0
M  V30 4611 C 440.959 -1.18963 -1.08187 0
M  V30 4612 O 442.149 -1.43873 -0.982158 0
M  V30 4613 C 439.281 -2.87739 -1.82809 0
M  V30 4614 H 440.474 -2.9989 -0.0239682 0
M  V30 4615 H 438.027 -1.5628 0.0250192 0
M  V30 4616 H 438.762 -2.13058 -2.44493 0
M  V30 4617 H 438.547 -3.62658 -1.49069 0
M  V30 4618 H 440.037 -3.38171 -2.45011 0
M  V30 4619 N 440.474 -0.00167713 -1.576 0
M  V30 4620 C 441.72 0.67819 -1.91761 0
M  V30 4621 C 442.075 1.71288 -0.876256 0
M  V30 4622 O 441.368 1.91276 0.111333 0
M  V30 4623 C 441.562 1.36189 -3.30435 0
M  V30 4624 C 441.391 0.394938 -4.47962 0
M  V30 4625 C 440.161 0.00472875 -5.053 0
M  V30 4626 C 442.359 -0.339521 -5.13178 0
M  V30 4627 N 440.341 -0.960257 -6.06343 0
M  V30 4628 C 441.712 -1.15914 -6.09068 0
M  V30 4629 C 443.767 -0.403177 -4.96265 0
M  V30 4630 C 442.47 -2.03661 -6.89866 0
M  V30 4631 C 444.496 -1.26788 -5.77649 0
M  V30 4632 C 443.858 -2.07535 -6.73134 0
M  V30 4633 H 439.957 0.221317 -0.750028 0
M  V30 4634 H 442.541 -0.0624182 -1.946 0
M  V30 4635 H 440.712 2.07278 -3.28467 0
M  V30 4636 H 442.444 1.99658 -3.52021 0
M  V30 4637 H 439.199 0.373452 -4.72125 0
M  V30 4638 H 439.623 -1.43817 -6.61548 0
M  V30 4639 H 444.265 0.206818 -4.22294 0
M  V30 4640 H 441.983 -2.65727 -7.63161 0
M  V30 4641 H 445.569 -1.32107 -5.66603 0
M  V30 4642 H 444.449 -2.73363 -7.35012 0
M  V30 4643 N 441.952 1.55251 0.271103 0
M  V30 4644 C 443.18 1.79974 1.02064 0
M  V30 4645 C 443.595 0.574003 1.79863 0
M  V30 4646 O 442.952 -0.456962 1.76686 0
M  V30 4647 C 443.003 3.02603 1.97772 0
M  V30 4648 O 442.724 4.20443 1.23124 0
M  V30 4649 C 444.225 3.39944 2.84522 0
M  V30 4650 H 441.445 0.599489 0.301419 0
M  V30 4651 H 443.989 2.02268 0.301313 0
M  V30 4652 H 442.144 2.8243 2.65165 0
M  V30 4653 H 442.558 4.89783 1.87651 0
M  V30 4654 H 444.032 4.28915 3.47471 0
M  V30 4655 H 444.509 2.59432 3.54389 0
M  V30 4656 H 445.115 3.62383 2.22618 0
M  V30 4657 N 443.43 -0.535701 1.48216 0
M  V30 4658 C 444.676 -1.29375 1.56173 0
M  V30 4659 C 445.009 -1.92804 0.232429 0
M  V30 4660 O 444.284 -1.78992 -0.761048 0
M  V30 4661 C 444.567 -2.38747 2.69577 0
M  V30 4662 C 444.42 -1.80046 4.12193 0
M  V30 4663 C 445.739 -3.40551 2.78771 0
M  V30 4664 H 442.858 -0.469027 0.568491 0
M  V30 4665 H 445.5 -0.597358 1.80365 0
M  V30 4666 H 443.65 -2.98147 2.4908 0
M  V30 4667 H 445.322 -1.24742 4.44114 0
M  V30 4668 H 443.565 -1.10609 4.19462 0
M  V30 4669 H 444.236 -2.59212 4.87353 0
M  V30 4670 H 446.712 -2.91099 2.97322 0
M  V30 4671 H 445.588 -4.1448 3.59857 0
M  V30 4672 H 445.849 -4.00746 1.86696 0
M  V30 4673 N 444.908 -1.36708 -0.784132 0
M  V30 4674 C 446.324 -1.17237 -1.08294 0
M  V30 4675 C 446.524 -5.93947e-05 -2.015 0
M  V30 4676 O 445.58 0.663686 -2.43622 0
M  V30 4677 C 446.893 -2.48557 -1.69233 0
M  V30 4678 C 448.441 -2.54968 -1.8155 0
M  V30 4679 C 448.916 -3.86388 -2.45904 0
M  V30 4680 N 450.407 -3.87762 -2.53367 0
M  V30 4681 C 451.142 -4.86191 -3.03983 0
M  V30 4682 N 450.638 -5.95015 -3.54866 0
M  V30 4683 N 452.431 -4.73606 -3.02743 0
M  V30 4684 H 444.582 -2.11758 -0.16501 0
M  V30 4685 H 446.845 -0.93822 -0.135822 0
M  V30 4686 H 446.551 -3.34638 -1.08215 0
M  V30 4687 H 446.425 -2.64748 -2.68679 0
M  V30 4688 H 448.812 -1.69302 -2.41704 0
M  V30 4689 H 448.893 -2.42672 -0.80895 0
M  V30 4690 H 448.537 -4.72462 -1.86392 0
M  V30 4691 H 448.467 -3.95982 -3.4714 0
M  V30 4692 H 450.958 -3.09145 -2.17343 0
M  V30 4693 H 451.271 -6.66086 -3.91854 0
M  V30 4694 H 449.616 -5.98676 -3.53003 0
M  V30 4695 H 452.807 -3.87717 -2.62284 0
M  V30 4696 H 452.98 -5.50473 -3.41881 0
M  V30 4697 N 446.386 1.0089 -1.21074 0
M  V30 4698 C 447.632 1.74866 -1.02712 0
M  V30 4699 C 447.965 1.89178 0.438787 0
M  V30 4700 O 447.24 1.42325 1.32567 0
M  V30 4701 C 447.523 3.16347 -1.72036 0
M  V30 4702 C 447.376 3.09782 -3.26121 0
M  V30 4703 C 448.695 4.15187 -1.45973 0
M  V30 4704 H 445.814 0.634736 -0.374539 0
M  V30 4705 H 448.456 1.17646 -1.49196 0
M  V30 4706 H 446.606 3.65201 -1.32517 0
M  V30 4707 H 448.278 2.68673 -3.74983 0
M  V30 4708 H 446.521 2.46982 -3.56626 0
M  V30 4709 H 447.192 4.09829 -3.6979 0
M  V30 4710 H 449.668 3.75022 -1.80272 0
M  V30 4711 H 448.544 5.12331 -1.96999 0
M  V30 4712 H 448.805 4.40386 -0.388924 0
M  V30 4713 N 447.864 1.01787 1.20321 0
M  V30 4714 C 449.104 0.716493 1.91431 0
M  V30 4715 C 449.468 -0.740352 1.77152 0
M  V30 4716 O 450.669 -1.1543 2.42754 0
M  V30 4717 C 448.94 1.14169 3.38674 0
M  V30 4718 S 450.499 0.962482 4.28114 0
M  V30 4719 H 447.317 0.261175 0.661293 0
M  V30 4720 H 449.919 1.30539 1.45533 0
M  V30 4721 H 448.623 2.19784 3.46588 0
M  V30 4722 H 448.154 0.545621 3.89598 0
M  V30 4723 H 450.169 -0.133253 4.96021 0
M  V30 4724 N 449.342 -1.36122 0.79427 0
M  V30 4725 C 450.252 -2.33769 0.197296 0
M  V30 4726 C 451.268 -1.61276 -0.653153 0
M  V30 4727 O 452.444 -1.9323 -0.5678 0
M  V30 4728 C 449.509 -3.40474 -0.654098 0
M  V30 4729 C 448.57 -4.28759 0.215411 0
M  V30 4730 C 447.803 -5.30368 -0.595443 0
M  V30 4731 O 448.026 -5.40211 -1.83107 0
M  V30 4732 O 446.96 -6.019 0.00721351 0
M  V30 4733 H 450.786 -2.86597 1.00478 0
M  V30 4734 H 448.371 -1.38676 0.555818 0
M  V30 4735 H 450.253 -4.05703 -1.13944 0
M  V30 4736 H 448.928 -2.89937 -1.43938 0
M  V30 4737 H 447.835 -3.66554 0.747615 0
M  V30 4738 H 449.168 -4.82661 0.964332 0
M  V30 4739 N 450.82 -0.546701 -1.47814 0
M  V30 4740 C 452.236 -0.205717 -1.58269 0
M  V30 4741 C 452.436 1.29153 -1.54667 0
M  V30 4742 O 451.492 2.07098 -1.44453 0
M  V30 4743 C 452.805 -0.823065 -2.89216 0
M  V30 4744 C 454.353 -0.793328 -3.02779 0
M  V30 4745 C 454.828 -1.38955 -4.36412 0
M  V30 4746 N 456.319 -1.35227 -4.43021 0
M  V30 4747 C 457.054 -1.78333 -5.44963 0
M  V30 4748 N 456.55 -2.29246 -6.53772 0
M  V30 4749 N 458.343 -1.69467 -5.35945 0
M  V30 4750 H 450.494 -1.5196 -1.48398 0
M  V30 4751 H 452.757 -0.633078 -0.705632 0
M  V30 4752 H 452.463 -1.8749 -2.97558 0
M  V30 4753 H 452.337 -0.309915 -3.75925 0
M  V30 4754 H 454.724 0.249784 -2.94041 0
M  V30 4755 H 454.805 -1.34412 -2.17639 0
M  V30 4756 H 454.449 -2.43168 -4.45906 0
M  V30 4757 H 454.379 -0.814291 -5.20266 0
M  V30 4758 H 456.87 -0.979739 -3.64979 0
M  V30 4759 H 457.183 -2.60089 -7.27718 0
M  V30 4760 H 455.528 -2.3325 -6.5469 0
M  V30 4761 H 458.719 -1.29477 -4.49837 0
M  V30 4762 H 458.892 -2.03381 -6.15256 0
M  V30 4763 N 452.299 1.55045 -0.282633 0
M  V30 4764 C 453.529 2.03872 0.334635 0
M  V30 4765 C 453.937 1.16018 1.49454 0
M  V30 4766 O 453.28 0.174449 1.8287 0
M  V30 4767 C 453.342 3.48791 0.870905 0
M  V30 4768 C 453.006 4.56715 -0.161338 0
M  V30 4769 C 454.003 5.10513 -0.983466 0
M  V30 4770 C 451.688 5.01417 -0.297745 0
M  V30 4771 C 453.682 6.07538 -1.92811 0
M  V30 4772 C 451.369 5.98265 -1.24586 0
M  V30 4773 C 452.367 6.51208 -2.05954 0
M  V30 4774 O 452.055 7.46162 -2.99162 0
M  V30 4775 H 451.787 0.671324 0.0793742 0
M  V30 4776 H 454.341 2.01169 -0.41473 0
M  V30 4777 H 452.571 3.48758 1.67047 0
M  V30 4778 H 454.26 3.80916 1.40207 0
M  V30 4779 H 455.026 4.76785 -0.888856 0
M  V30 4780 H 450.905 4.59849 0.325604 0
M  V30 4781 H 454.449 6.48787 -2.56363 0
M  V30 4782 H 450.346 6.31412 -1.34126 0
M  V30 4783 H 451.114 7.63903 -2.93929 0
M  V30 4784 N 453.777 0.010035 1.57597 0
M  V30 4785 C 454.727 -0.986858 2.05536 0
M  V30 4786 C 455.711 -1.29711 0.952042 0
M  V30 4787 O 456.903 -1.28641 1.21575 0
M  V30 4788 C 454.032 -2.2756 2.57043 0
M  V30 4789 C 453.118 -1.99455 3.74271 0
M  V30 4790 N 453.509 -1.41546 4.85591 0
M  V30 4791 C 451.807 -2.29547 3.82393 0
M  V30 4792 C 452.508 -1.3014 5.66956 0
M  V30 4793 N 451.484 -1.79044 5.13268 0
M  V30 4794 H 455.286 -0.533778 2.89012 0
M  V30 4795 H 452.8 -0.195432 1.6122 0
M  V30 4796 H 454.797 -2.99829 2.89669 0
M  V30 4797 H 453.457 -2.73512 1.7499 0
M  V30 4798 H 454.468 -1.09294 5.06236 0
M  V30 4799 H 451.145 -2.78304 3.11213 0
M  V30 4800 H 452.535 -0.855237 6.66435 0
M  V30 4801 N 455.255 -1.55392 -0.262866 0
M  V30 4802 C 456.532 -1.67204 -1.01499 0
M  V30 4803 C 456.912 -0.545186 -2.03939 0
M  V30 4804 O 456.26 0.453467 -2.23955 0
M  V30 4805 C 456.47 -3.06847 -1.6627 0
M  V30 4806 C 457.818 -3.64928 -2.17054 0
M  V30 4807 O 458.842 -3.09545 -1.76239 0
M  V30 4808 O 457.701 -4.61984 -2.91947 0
M  V30 4809 H 454.795 -0.679467 -0.471438 0
M  V30 4810 H 457.341 -1.67729 -0.257918 0
M  V30 4811 H 456.113 -3.80309 -0.920915 0
M  V30 4812 H 455.736 -3.10266 -2.48638 0
M  V30 4813 N 456.733 0.527833 -1.48498 0
M  V30 4814 C 457.68 1.6322 -1.6318 0
M  V30 4815 C 458.65 1.59199 -0.473815 0
M  V30 4816 O 459.835 1.77591 -0.697563 0
M  V30 4817 C 456.975 3.01474 -1.67951 0
M  V30 4818 C 456.088 3.15713 -2.94871 0
M  V30 4819 C 455.223 4.44539 -2.90789 0
M  V30 4820 C 454.262 4.52315 -4.12404 0
M  V30 4821 N 453.399 5.72533 -4.06387 0
M  V30 4822 H 458.239 1.50011 -2.57489 0
M  V30 4823 H 455.776 0.730298 -1.27691 0
M  V30 4824 H 457.734 3.81572 -1.68698 0
M  V30 4825 H 456.364 3.1345 -0.771306 0
M  V30 4826 H 455.416 2.28854 -3.03859 0
M  V30 4827 H 456.728 3.1732 -3.8485 0
M  V30 4828 H 455.882 5.3293 -2.89949 0
M  V30 4829 H 454.621 4.45457 -1.98542 0
M  V30 4830 H 453.626 3.62331 -4.13517 0
M  V30 4831 H 454.851 4.53134 -5.05812 0
M  V30 4832 H 452.797 5.74344 -3.16962 0
M  V30 4833 H 452.714 5.75643 -4.90073 0
M  V30 4834 H 453.982 6.63204 -4.0961 0
M  V30 4835 N 458.211 1.37122 0.776871 0
M  V30 4836 C 459.143 1.28342 1.89897 0
M  V30 4837 C 460.156 0.200277 1.61563 0
M  V30 4838 O 461.345 0.456012 1.72577 0
M  V30 4839 C 458.445 0.960427 3.25006 0
M  V30 4840 C 457.618 2.148 3.81025 0
M  V30 4841 C 456.677 1.79608 4.94598 0
M  V30 4842 O 455.703 2.51845 5.10454 0
M  V30 4843 N 456.905 0.737171 5.758 0
M  V30 4844 H 459.67 2.25027 1.97947 0
M  V30 4845 H 457.231 1.3068 0.955739 0
M  V30 4846 H 459.223 0.705942 3.98495 0
M  V30 4847 H 457.793 0.0823066 3.12492 0
M  V30 4848 H 457.013 2.56454 2.99374 0
M  V30 4849 H 458.301 2.9411 4.15183 0
M  V30 4850 H 457.699 0.137637 5.65533 0
M  V30 4851 H 456.256 0.542534 6.49538 0
M  V30 4852 N 459.689 -1.00246 1.21608 0
M  V30 4853 C 460.599 -2.12515 0.993709 0
M  V30 4854 C 461.615 -1.73913 -0.0549939 0
M  V30 4855 O 462.791 -2.00943 0.135619 0
M  V30 4856 C 459.856 -3.42083 0.563953 0
M  V30 4857 C 458.917 -3.94843 1.68516 0
M  V30 4858 C 458.15 -5.18226 1.27582 0
M  V30 4859 O 458.373 -5.70201 0.150506 0
M  V30 4860 O 457.307 -5.64497 2.0887 0
M  V30 4861 H 461.133 -2.34152 1.93407 0
M  V30 4862 H 458.718 -1.10891 1.00118 0
M  V30 4863 H 460.6 -4.20073 0.334194 0
M  V30 4864 H 459.275 -3.21828 -0.347665 0
M  V30 4865 H 458.182 -3.18068 1.96935 0
M  V30 4866 H 459.515 -4.19512 2.5743 0
M  V30 4867 N 461.167 -1.02423 -1.1978 0
M  V30 4868 C 462.413 -0.719051 -1.89625 0
M  V30 4869 C 462.746 0.750083 -1.7913 0
M  V30 4870 O 462.021 1.54574 -1.18056 0
M  V30 4871 C 462.304 -1.16499 -3.40735 0
M  V30 4872 C 462.157 -2.695 -3.60125 0
M  V30 4873 C 463.476 -0.742166 -4.33797 0
M  V30 4874 H 460.595 -0.26269 -0.688595 0
M  V30 4875 H 463.237 -1.27333 -1.41018 0
M  V30 4876 H 461.387 -0.69341 -3.82262 0
M  V30 4877 H 463.059 -3.24569 -3.278 0
M  V30 4878 H 461.302 -3.10113 -3.03336 0
M  V30 4879 H 461.973 -2.95757 -4.66081 0
M  V30 4880 H 464.449 -1.1477 -3.99959 0
M  V30 4881 H 463.325 -1.08213 -5.38127 0
M  V30 4882 H 463.586 0.355747 -4.40666 0
M  V30 4883 N 462.645 1.35699 -0.801477 0
M  V30 4884 C 463.873 2.03157 -0.391768 0
M  V30 4885 C 464.288 1.60412 0.995668 0
M  V30 4886 O 463.645 0.799228 1.64069 0
M  V30 4887 C 463.696 3.58566 -0.459671 0
M  V30 4888 O 463.417 3.99756 -1.7924 0
M  V30 4889 C 464.918 4.4328 -0.0421205 0
M  V30 4890 H 462.138 0.651688 -0.159825 0
M  V30 4891 H 464.682 1.73426 -1.08368 0
M  V30 4892 H 462.837 3.86963 0.183939 0
M  V30 4893 H 463.251 4.94387 -1.75162 0
M  V30 4894 H 464.725 5.51821 -0.140754 0
M  V30 4895 H 465.202 4.27383 1.01196 0
M  V30 4896 H 465.808 4.20168 -0.658687 0
M  V30 4897 N 464.123 0.554532 1.47522 0
M  V30 4898 C 465.348 0.0322661 2.07375 0
M  V30 4899 C 465.773 -1.25079 1.40488 0
M  V30 4900 O 465.131 -1.74859 0.47896 0
M  V30 4901 C 465.179 -0.149397 3.6029 0
M  V30 4902 O 464.283 -1.21259 3.9417 0
M  V30 4903 H 463.624 0.0501228 0.662106 0
M  V30 4904 H 466.154 0.769452 1.8958 0
M  V30 4905 H 466.164 -0.364437 4.06369 0
M  V30 4906 H 464.839 0.787743 4.08372 0
M  V30 4907 H 463.416 -0.97825 3.5984 0
M  V30 4908 N 465.601 -1.54893 0.290851 0
M  V30 4909 C 466.549 -2.24579 -0.605576 0
M  V30 4910 C 467.543 -1.24824 -1.14522 0
M  V30 4911 O 468.749 -1.42706 -1.09704 0
M  V30 4912 H 465.124 -0.720946 -0.213872 0
M  V30 4913 H 467.095 -2.984 0.0048173 0
M  V30 4914 C 465.844 -2.99224 -1.77088 0
M  V30 4915 H 465.167 -3.75782 -1.36484 0
M  V30 4916 H 466.607 -3.51281 -2.3744 0
M  V30 4917 C 465.066 -2.05602 -2.66888 0
M  V30 4918 O 465.596 -1.61745 -3.67698 0
M  V30 4919 N 463.802 -1.71771 -2.34399 0
M  V30 4920 H 463.349 -2.07633 -1.52468 0
M  V30 4921 H 463.307 -1.09403 -2.94751 0
M  V30 4922 N 467.08 -0.0183926 -1.57589 0
M  V30 4923 C 468.327 0.662562 -1.91354 0
M  V30 4924 C 468.655 1.72747 -0.893788 0
M  V30 4925 O 467.91 1.9545 0.0988509 0
M  V30 4926 C 468.209 1.32676 -3.31861 0
M  V30 4927 C 467.875 0.393267 -4.49182 0
M  V30 4928 C 466.537 0.136302 -4.81007 0
M  V30 4929 C 468.889 -0.248366 -5.20608 0
M  V30 4930 C 466.217 -0.770282 -5.81621 0
M  V30 4931 C 468.569 -1.14294 -6.22189 0
M  V30 4932 C 467.233 -1.4089 -6.52462 0
M  V30 4933 H 466.503 0.242448 -0.700214 0
M  V30 4934 H 469.15 -0.0778629 -1.91342 0
M  V30 4935 H 467.455 2.14168 -3.28084 0
M  V30 4936 H 469.152 1.86001 -3.55253 0
M  V30 4937 H 465.742 0.603723 -4.24327 0
M  V30 4938 H 469.926 -0.062883 -4.9626 0
M  V30 4939 H 465.182 -0.984154 -6.03427 0
M  V30 4940 H 469.356 -1.64637 -6.76659 0
M  V30 4941 H 466.983 -2.11306 -7.30242 0
M  V30 4942 N 468.558 1.5553 0.254621 0
M  V30 4943 C 469.488 1.9268 1.31897 0
M  V30 4944 C 470.469 0.790797 1.506 0
M  V30 4945 O 471.654 1.05045 1.63337 0
M  V30 4946 C 468.784 2.21477 2.67517 0
M  V30 4947 C 467.738 3.37256 2.63519 0
M  V30 4948 C 467.064 3.51576 4.02862 0
M  V30 4949 C 468.364 4.73157 2.21179 0
M  V30 4950 H 470.058 2.81832 1.01051 0
M  V30 4951 H 467.604 1.35599 0.484662 0
M  V30 4952 H 469.557 2.46055 3.42104 0
M  V30 4953 H 468.281 1.29144 2.99982 0
M  V30 4954 H 466.94 3.12675 1.9139 0
M  V30 4955 H 466.588 2.56676 4.32581 0
M  V30 4956 H 466.288 4.2943 4.01078 0
M  V30 4957 H 467.812 3.78467 4.79161 0
M  V30 4958 H 469.226 4.97158 2.85494 0
M  V30 4959 H 467.623 5.54058 2.30521 0
M  V30 4960 H 468.693 4.70739 1.16332 0
M  V30 4961 N 470.036 -0.519951 1.48776 0
M  V30 4962 C 471.284 -1.2727 1.56993 0
M  V30 4963 C 471.605 -1.9339 0.25004 0
M  V30 4964 O 470.875 -1.81822 -0.729216 0
M  V30 4965 H 469.455 -0.472732 0.578389 0
M  V30 4966 H 472.117 -0.604234 1.85297 0
M  V30 4967 H 471.213 -2.04669 2.3562 0
M  V30 4968 N 471.514 -1.37532 -0.769588 0
M  V30 4969 C 472.477 -1.33292 -1.86456 0
M  V30 4970 C 473.477 -0.236537 -1.59051 0
M  V30 4971 O 474.667 -0.492511 -1.67093 0
M  V30 4972 C 471.799 -1.07118 -3.23633 0
M  V30 4973 H 472.992 -2.30692 -1.91628 0
M  V30 4974 H 470.545 -1.22593 -0.969572 0
M  V30 4975 H 471.28 -0.102578 -3.24138 0
M  V30 4976 H 471.065 -1.86479 -3.44917 0
M  V30 4977 H 472.555 -1.06806 -4.03711 0
M  V30 4978 N 472.992 0.995999 -1.22138 0
M  V30 4979 C 473.925 2.08302 -0.931952 0
M  V30 4980 C 474.903 1.62127 0.123956 0
M  V30 4981 O 476.087 1.88499 -0.00696004 0
M  V30 4982 C 473.214 3.36317 -0.401068 0
M  V30 4983 C 472.26 4.01413 -1.44117 0
M  V30 4984 S 473.093 4.42664 -3.01345 0
M  V30 4985 C 474.249 5.73853 -2.49887 0
M  V30 4986 H 474.482 2.32532 -1.85246 0
M  V30 4987 H 472.015 1.13005 -1.0521 0
M  V30 4988 H 473.973 4.10375 -0.101352 0
M  V30 4989 H 472.634 3.10123 0.498272 0
M  V30 4990 H 471.827 4.9358 -1.01952 0
M  V30 4991 H 471.429 3.33668 -1.68943 0
M  V30 4992 H 473.721 6.50039 -1.90934 0
M  V30 4993 H 474.664 6.20841 -3.40532 0
M  V30 4994 H 475.072 5.31105 -1.9128 0
M  V30 4995 N 474.47 1.03057 1.19235 0
M  V30 4996 C 475.716 0.738841 1.89506 0
M  V30 4997 C 476.071 -0.724807 1.78225 0
M  V30 4998 O 475.364 -1.52118 1.16494 0
M  V30 4999 C 475.558 1.1268 3.39172 0
M  V30 5000 C 475.387 2.62662 3.65019 0
M  V30 5001 C 474.157 3.29658 3.82954 0
M  V30 5002 C 476.355 3.60873 3.66436 0
M  V30 5003 N 474.337 4.68726 3.96446 0
M  V30 5004 C 475.708 4.85566 3.8552 0
M  V30 5005 C 477.763 3.54647 3.49471 0
M  V30 5006 C 476.466 6.04783 3.89397 0
M  V30 5007 C 478.492 4.73281 3.54625 0
M  V30 5008 C 477.854 5.96789 3.74196 0
M  V30 5009 H 473.953 0.322256 0.712513 0
M  V30 5010 H 476.537 1.31822 1.43287 0
M  V30 5011 H 474.708 0.575612 3.84111 0
M  V30 5012 H 476.44 0.787145 3.96971 0
M  V30 5013 H 473.195 2.8007 3.81913 0
M  V30 5014 H 473.619 5.40971 4.07037 0
M  V30 5015 H 478.261 2.60143 3.33295 0
M  V30 5016 H 475.979 6.99654 4.04364 0
M  V30 5017 H 479.565 4.70094 3.42787 0
M  V30 5018 H 478.445 6.87051 3.78061 0
M  V30 5019 N 475.948 -1.35272 0.808662 0
M  V30 5020 C 476.878 -2.32315 0.234981 0
M  V30 5021 C 477.859 -1.57572 -0.64071 0
M  V30 5022 O 479.044 -1.8563 -0.570551 0
M  V30 5023 C 476.174 -3.41801 -0.615601 0
M  V30 5024 C 475.128 -4.27694 0.161767 0
M  V30 5025 C 474.454 -5.28519 -0.810649 0
M  V30 5026 C 475.754 -5.04231 1.36193 0
M  V30 5027 H 477.448 -2.80543 1.04575 0
M  V30 5028 H 474.994 -1.3488 0.504315 0
M  V30 5029 H 476.947 -4.08693 -1.02702 0
M  V30 5030 H 475.671 -2.92186 -1.45928 0
M  V30 5031 H 474.33 -3.62384 0.554382 0
M  V30 5032 H 473.978 -4.75171 -1.64988 0
M  V30 5033 H 473.678 -5.8686 -0.294822 0
M  V30 5034 H 475.202 -5.98283 -1.22023 0
M  V30 5035 H 476.616 -5.64058 1.02528 0
M  V30 5036 H 475.013 -5.72077 1.81239 0
M  V30 5037 H 476.083 -4.34753 2.14751 0
M  V30 5038 N 477.426 -0.562348 -1.47226 0
M  V30 5039 C 478.675 -0.038041 -2.01664 0
M  V30 5040 C 478.988 1.32199 -1.44162 0
M  V30 5041 O 480.194 1.9365 -1.90294 0
M  V30 5042 C 478.65 -0.0174958 -3.59896 0
M  V30 5043 C 478.258 -1.3746 -4.2639 0
M  V30 5044 C 480.002 0.453934 -4.22066 0
M  V30 5045 C 477.909 -1.31289 -5.76643 0
M  V30 5046 H 476.839 -0.0104511 -0.753928 0
M  V30 5047 H 479.49 -0.710966 -1.69167 0
M  V30 5048 H 477.872 0.721182 -3.89378 0
M  V30 5049 H 479.046 -2.1314 -4.08544 0
M  V30 5050 H 477.361 -1.78438 -3.7623 0
M  V30 5051 H 479.958 0.518584 -5.32179 0
M  V30 5052 H 480.301 1.46706 -3.89594 0
M  V30 5053 H 480.834 -0.230044 -3.97134 0
M  V30 5054 H 477.573 -2.30217 -6.13743 0
M  V30 5055 H 477.093 -0.597973 -5.96812 0
M  V30 5056 H 478.772 -1.01713 -6.38955 0
M  V30 5057 N 478.904 1.54736 -0.299062 0
M  V30 5058 C 480.129 2.04975 0.316254 0
M  V30 5059 C 480.554 1.17501 1.46885 0
M  V30 5060 O 479.912 0.178678 1.80417 0
M  V30 5061 C 479.96 3.52672 0.751997 0
M  V30 5062 O 479.064 3.68226 1.85697 0
M  V30 5063 H 478.405 0.661126 0.0617175 0
M  V30 5064 H 480.935 1.99805 -0.440341 0
M  V30 5065 H 480.945 3.94488 1.04133 0
M  V30 5066 H 479.62 4.158 -0.0911482 0
M  V30 5067 H 478.197 3.38316 1.56834 0
M  V30 5068 N 480.382 0.0267497 1.57577 0
M  V30 5069 C 481.631 -0.651736 1.9088 0
M  V30 5070 C 481.944 -1.73427 0.904576 0
M  V30 5071 O 483.15 -2.46923 1.12877 0
M  V30 5072 C 481.606 -1.21048 3.38933 0
M  V30 5073 C 481.214 -0.161362 4.47709 0
M  V30 5074 C 482.958 -1.86562 3.81307 0
M  V30 5075 C 480.865 -0.731611 5.86857 0
M  V30 5076 H 479.795 -0.247198 0.712326 0
M  V30 5077 H 482.446 0.0916641 1.83271 0
M  V30 5078 H 480.828 -2.00542 3.41466 0
M  V30 5079 H 482.002 0.61094 4.56732 0
M  V30 5080 H 480.317 0.394877 4.14523 0
M  V30 5081 H 482.914 -2.30178 4.8262 0
M  V30 5082 H 483.257 -2.70735 3.16241 0
M  V30 5083 H 483.79 -1.13762 3.81186 0
M  V30 5084 H 480.529 0.0719329 6.55461 0
M  V30 5085 H 480.049 -1.47245 5.81445 0
M  V30 5086 H 481.728 -1.22208 6.35354 0
M  V30 5087 N 481.861 -1.55662 -0.24637 0
M  V30 5088 C 483.089 -1.81575 -0.991876 0
M  V30 5089 C 483.504 -0.602545 -1.78927 0
M  V30 5090 O 482.861 0.428795 -1.77391 0
M  V30 5091 C 482.912 -3.05711 -1.92933 0
M  V30 5092 O 482.633 -4.22348 -1.1642 0
M  V30 5093 C 484.134 -3.44428 -2.79078 0
M  V30 5094 H 481.354 -0.604209 -0.291844 0
M  V30 5095 H 483.898 -2.02722 -0.269095 0
M  V30 5096 H 482.053 -2.86612 -2.60638 0
M  V30 5097 H 482.467 -4.92706 -1.79835 0
M  V30 5098 H 483.941 -4.34388 -3.40603 0
M  V30 5099 H 484.418 -2.65037 -3.50217 0
M  V30 5100 H 485.024 -3.65879 -2.16824 0
M  V30 5101 N 483.339 0.512053 -1.4905 0
M  V30 5102 C 484.586 1.26686 -1.57978 0
M  V30 5103 C 484.914 1.92733 -0.261553 0
M  V30 5104 O 484.169 1.80772 0.749667 0
M  V30 5105 C 484.468 2.36446 -2.68008 0
M  V30 5106 C 484.134 1.87932 -4.09869 0
M  V30 5107 C 482.796 1.74419 -4.48477 0
M  V30 5108 C 485.148 1.5149 -4.98698 0
M  V30 5109 C 482.476 1.22827 -5.73699 0
M  V30 5110 C 484.828 1.01355 -6.24428 0
M  V30 5111 C 483.492 0.864735 -6.61875 0
M  V30 5112 H 482.762 0.463577 -0.578081 0
M  V30 5113 H 485.409 0.569421 -1.82838 0
M  V30 5114 H 483.714 3.11933 -2.37076 0
M  V30 5115 H 485.411 2.9453 -2.72127 0
M  V30 5116 H 482.001 1.99405 -3.79389 0
M  V30 5117 H 486.185 1.60782 -4.69535 0
M  V30 5118 H 481.441 1.10008 -6.01422 0
M  V30 5119 H 485.615 0.722351 -6.92644 0
M  V30 5120 H 483.242 0.462777 -7.5879 0
M  V30 5121 N 484.817 1.37938 0.762283 0
M  V30 5122 C 485.747 1.37176 1.88958 0
M  V30 5123 C 486.728 0.238945 1.68413 0
M  V30 5124 O 487.913 0.440726 1.89133 0
M  V30 5125 C 485.043 1.18742 3.2637 0
M  V30 5126 C 483.997 2.29136 3.61498 0
M  V30 5127 C 483.323 1.95816 4.97554 0
M  V30 5128 C 484.623 3.71363 3.6727 0
M  V30 5129 H 486.317 2.31509 1.89853 0
M  V30 5130 H 483.863 1.11438 0.912005 0
M  V30 5131 H 485.816 1.16837 4.04879 0
M  V30 5132 H 484.54 0.208683 3.25933 0
M  V30 5133 H 483.199 2.30213 2.85303 0
M  V30 5134 H 482.847 0.964475 4.93667 0
M  V30 5135 H 482.547 2.69745 5.22026 0
M  V30 5136 H 484.071 1.95513 5.78452 0
M  V30 5137 H 485.485 3.72364 4.35911 0
M  V30 5138 H 483.882 4.44425 4.03245 0
M  V30 5139 H 484.952 4.04305 2.67704 0
M  V30 5140 N 486.295 -0.989507 1.22664 0
M  V30 5141 C 487.52 -1.77031 1.08051 0
M  V30 5142 C 487.945 -1.84535 -0.364483 0
M  V30 5143 O 487.303 -1.3003 -1.2634 0
M  V30 5144 C 487.351 -3.18 1.70024 0
M  V30 5145 O 486.455 -4.01161 0.956216 0
M  V30 5146 H 485.796 -0.545008 0.379292 0
M  V30 5147 H 488.326 -1.24277 1.62531 0
M  V30 5148 H 488.336 -3.68616 1.74888 0
M  V30 5149 H 487.011 -3.11853 2.75174 0
M  V30 5150 H 485.588 -3.59687 0.98384 0
M  V30 5151 N 487.773 -1.03688 -1.18687 0
M  V30 5152 C 489.022 -0.733235 -1.879 0
M  V30 5153 C 489.335 0.741745 -1.8099 0
M  V30 5154 O 490.541 1.15875 -2.4553 0
M  V30 5155 C 488.997 -1.26127 -3.37076 0
M  V30 5156 C 488.605 -2.76461 -3.52524 0
M  V30 5157 C 490.349 -1.03398 -4.11715 0
M  V30 5158 C 488.256 -3.22642 -4.95637 0
M  V30 5159 H 487.186 -0.270584 -0.703776 0
M  V30 5160 H 489.837 -1.25222 -1.34133 0
M  V30 5161 H 488.219 -0.670165 -3.90288 0
M  V30 5162 H 489.393 -3.41296 -3.09602 0
M  V30 5163 H 487.708 -2.97559 -2.91286 0
M  V30 5164 H 490.305 -1.3542 -5.17267 0
M  V30 5165 H 490.648 0.0289246 -4.1629 0
M  V30 5166 H 491.181 -1.5895 -3.64664 0
M  V30 5167 H 487.92 -4.28296 -4.96228 0
M  V30 5168 H 487.44 -2.62539 -5.39289 0
M  V30 5169 H 489.119 -3.16444 -5.64333 0
M  V30 5170 N 489.251 1.34841 -0.815825 0
M  V30 5171 C 490.499 1.98107 -0.399744 0
M  V30 5172 C 490.82 1.65019 1.03894 0
M  V30 5173 O 490.09 0.937311 1.72021 0
M  V30 5174 H 488.67 0.732827 -0.144823 0
M  V30 5175 H 491.332 1.64599 -1.0437 0
M  V30 5176 H 490.428 3.07856 -0.512965 0
M  V30 5177 N 490.729 0.570148 1.46925 0
M  V30 5178 C 491.959 0.0561151 2.06524 0
M  V30 5179 C 492.367 -1.24874 1.42137 0
M  V30 5180 O 491.71 -1.76292 0.516417 0
M  V30 5181 C 491.772 -0.197035 3.5896 0
M  V30 5182 C 491.436 1.02033 4.45464 0
M  V30 5183 C 492.433 1.92921 4.82781 0
M  V30 5184 C 490.118 1.23864 4.86788 0
M  V30 5185 C 492.112 3.03999 5.60235 0
M  V30 5186 C 489.799 2.35249 5.64004 0
M  V30 5187 C 490.797 3.25146 6.0064 0
M  V30 5188 O 490.485 4.34598 6.76299 0
M  V30 5189 H 490.217 0.0487409 0.674241 0
M  V30 5190 H 492.771 0.786915 1.89728 0
M  V30 5191 H 491.001 -0.982299 3.74016 0
M  V30 5192 H 492.69 -0.658032 4.00531 0
M  V30 5193 H 493.456 1.77265 4.51444 0
M  V30 5194 H 489.335 0.54805 4.57731 0
M  V30 5195 H 492.879 3.74192 5.8875 0
M  V30 5196 H 488.776 2.50873 5.94755 0
M  V30 5197 H 489.544 4.32808 6.94708 0
M  V30 5198 N 492.207 -1.54576 0.307264 0
M  V30 5199 C 493.455 -1.99867 -0.299574 0
M  V30 5200 C 493.776 -1.19714 -1.53927 0
M  V30 5201 O 493.046 -0.29472 -1.9367 0
M  V30 5202 H 491.626 -0.738299 -0.113683 0
M  V30 5203 H 494.288 -1.9032 0.420042 0
M  V30 5204 H 493.384 -3.06901 -0.567283 0
M  V30 5205 N 493.685 -0.035106 -1.57561 0
M  V30 5206 C 494.962 0.681212 -1.83354 0
M  V30 5207 C 495.342 1.89986 -0.920252 0
M  V30 5208 O 494.69 2.28489 0.0226815 0
M  V30 5209 C 494.9 1.05376 -3.32712 0
M  V30 5210 C 496.248 1.44286 -3.99333 0
M  V30 5211 O 497.272 1.14656 -3.37242 0
M  V30 5212 O 496.131 1.99518 -5.08778 0
M  V30 5213 H 493.225 0.334741 -0.756226 0
M  V30 5214 H 495.771 -0.0632448 -1.69582 0
M  V30 5215 H 494.543 0.186668 -3.90854 0
M  V30 5216 H 494.166 1.85619 -3.51613 0
M  V30 5217 N 495.163 1.55791 0.238111 0
M  V30 5218 C 496.096 1.86036 1.32158 0
M  V30 5219 C 497.074 0.716216 1.45976 0
M  V30 5220 O 498.258 0.962882 1.62052 0
M  V30 5221 C 495.385 2.05281 2.69402 0
M  V30 5222 C 494.431 3.27939 2.72687 0
M  V30 5223 S 495.264 4.84342 2.28413 0
M  V30 5224 C 496.42 5.06604 3.67565 0
M  V30 5225 H 496.653 2.77644 1.06306 0
M  V30 5226 H 494.186 1.48012 0.439537 0
M  V30 5227 H 496.144 2.17053 3.48423 0
M  V30 5228 H 494.805 1.14499 2.92487 0
M  V30 5229 H 493.998 3.38398 3.73501 0
M  V30 5230 H 493.6 3.14938 2.01717 0
M  V30 5231 H 495.892 4.94486 4.6313 0
M  V30 5232 H 496.835 6.08554 3.62033 0
M  V30 5233 H 497.243 4.34409 3.60485 0
M  V30 5234 N 496.642 -0.504142 1.49319 0
M  V30 5235 C 497.888 -1.26033 1.58882 0
M  V30 5236 C 498.221 -1.92268 0.273274 0
M  V30 5237 O 497.496 -1.80567 -0.72291 0
M  V30 5238 C 497.779 -2.32976 2.7458 0
M  V30 5239 C 497.632 -1.71263 4.1592 0
M  V30 5240 C 498.951 -3.34561 2.85932 0
M  V30 5241 H 496.07 -0.456863 0.578312 0
M  V30 5242 H 498.712 -0.558965 1.81592 0
M  V30 5243 H 496.862 -2.92796 2.55348 0
M  V30 5244 H 498.534 -1.15294 4.4666 0
M  V30 5245 H 496.777 -1.01686 4.21714 0
M  V30 5246 H 497.448 -2.48816 4.92742 0
M  V30 5247 H 499.924 -2.84727 3.0343 0
M  V30 5248 H 498.8 -4.06754 3.68568 0
M  V30 5249 H 499.061 -3.96695 1.95154 0
M  V30 5250 N 498.12 -1.38341 -0.754957 0
M  V30 5251 C 499.531 -1.30803 -1.3322 0
M  V30 5252 C 499.882 0.0368 -1.96165 0
M  V30 5253 O 499.007 0.938844 -1.94974 0
M  V30 5254 C 499.602 -2.3688 -2.42225 0
M  V30 5255 C 498.161 -2.32925 -2.95674 0
M  V30 5256 C 497.308 -2.19819 -1.69042 0
M  V30 5257 H 500.259 -1.48719 -0.553937 0
M  V30 5258 H 500.28 -2.02517 -3.22129 0
M  V30 5259 H 499.792 -3.34747 -1.96383 0
M  V30 5260 H 497.893 -1.38635 -3.45848 0
M  V30 5261 H 498.006 -3.27008 -3.50146 0
M  V30 5262 H 496.37 -1.66648 -1.92615 0
M  V30 5263 H 497.153 -3.19625 -1.25279 0
M  V30 5264 N 499.598 0.982988 -1.23187 0
M  V30 5265 C 500.548 2.05962 -0.977942 0
M  V30 5266 C 501.532 1.60725 0.0751148 0
M  V30 5267 O 502.724 1.76471 -0.136683 0
M  V30 5268 C 499.853 3.38564 -0.568276 0
M  V30 5269 C 498.939 3.90407 -1.6566 0
M  V30 5270 N 499.33 4.15359 -2.88635 0
M  V30 5271 C 497.628 4.18915 -1.53058 0
M  V30 5272 C 498.329 4.57642 -3.5908 0
M  V30 5273 N 497.305 4.6192 -2.86584 0
M  V30 5274 H 501.107 2.23208 -1.91195 0
M  V30 5275 H 498.621 1.16555 -1.13087 0
M  V30 5276 H 500.618 4.15276 -0.36764 0
M  V30 5277 H 499.278 3.22712 0.358713 0
M  V30 5278 H 500.289 4.03258 -3.24966 0
M  V30 5279 H 496.966 4.12081 -0.670506 0
M  V30 5280 H 498.356 4.85488 -4.6449 0
M  V30 5281 N 501.076 1.04316 1.18135 0
M  V30 5282 C 502.304 0.768117 1.92113 0
M  V30 5283 C 502.719 -0.675057 1.76319 0
M  V30 5284 O 502.076 -1.46038 1.09449 0
M  V30 5285 C 502.127 1.12808 3.43448 0
M  V30 5286 O 501.848 2.5146 3.58747 0
M  V30 5287 C 503.349 0.8779 4.3452 0
M  V30 5288 H 500.569 0.279937 0.609817 0
M  V30 5289 H 503.113 1.39149 1.49859 0
M  V30 5290 H 501.268 0.549623 3.83481 0
M  V30 5291 H 501.682 2.65313 4.52448 0
M  V30 5292 H 503.156 1.17959 5.39249 0
M  V30 5293 H 503.633 -0.187239 4.38801 0
M  V30 5294 H 504.239 1.43977 4.00188 0
M  V30 5295 N 502.554 -1.34406 0.822964 0
M  V30 5296 C 503.784 -2.02214 0.423424 0
M  V30 5297 C 504.192 -1.62124 -0.975322 0
M  V30 5298 O 503.535 -0.822452 -1.6426 0
M  V30 5299 C 503.597 -3.56721 0.446107 0
M  V30 5300 C 503.261 -4.20136 1.79819 0
M  V30 5301 C 504.258 -4.4065 2.75904 0
M  V30 5302 C 501.943 -4.56906 2.08669 0
M  V30 5303 C 503.937 -4.9706 3.99012 0
M  V30 5304 C 501.624 -5.13026 3.32036 0
M  V30 5305 C 502.622 -5.33047 4.27024 0
M  V30 5306 O 502.31 -5.87979 5.48211 0
M  V30 5307 H 502.042 -0.654748 0.168169 0
M  V30 5308 H 504.596 -1.72659 1.11257 0
M  V30 5309 H 502.826 -3.85537 -0.299734 0
M  V30 5310 H 504.515 -4.05845 0.0666114 0
M  V30 5311 H 505.281 -4.12607 2.54912 0
M  V30 5312 H 501.16 -4.40626 1.35535 0
M  V30 5313 H 504.704 -5.12603 4.73164 0
M  V30 5314 H 500.601 -5.40498 3.52891 0
M  V30 5315 H 501.369 -6.06413 5.49732 0
M  V30 5316 N 504.032 -0.577932 -1.46621 0
M  V30 5317 C 505.272 -0.0643097 -2.04299 0
M  V30 5318 C 505.636 1.26967 -1.44026 0
M  V30 5319 O 506.837 1.87224 -1.92875 0
M  V30 5320 C 505.108 0.00547588 -3.574 0
M  V30 5321 S 506.667 0.462216 -4.36359 0
M  V30 5322 H 503.485 -0.0351573 -0.71013 0
M  V30 5323 H 506.087 -0.76935 -1.79725 0
M  V30 5324 H 504.791 -0.969423 -3.98786 0
M  V30 5325 H 504.322 0.733435 -3.86503 0
M  V30 5326 H 506.337 1.71791 -4.65513 0
M  V30 5327 N 505.51 1.54411 -0.315457 0
M  V30 5328 C 506.758 2.00023 0.288971 0
M  V30 5329 C 507.079 1.20529 1.5329 0
M  V30 5330 O 506.349 0.304986 1.93511 0
M  V30 5331 H 504.929 0.738891 0.109766 0
M  V30 5332 H 507.591 1.90094 -0.430129 0
M  V30 5333 H 506.687 3.07198 0.550999 0
M  V30 5334 N 506.988 0.0434614 1.5754 0
M  V30 5335 C 507.935 -0.93356 2.11077 0
M  V30 5336 C 508.905 -1.31383 1.01626 0
M  V30 5337 O 510.09 -1.40465 1.29129 0
M  V30 5338 C 507.23 -2.20578 2.65404 0
M  V30 5339 C 506.343 -1.88068 3.88914 0
M  V30 5340 C 505.478 -3.09691 4.31584 0
M  V30 5341 C 504.517 -2.73067 5.47815 0
M  V30 5342 N 503.654 -3.87359 5.85574 0
M  V30 5343 H 508.494 -0.470118 2.94268 0
M  V30 5344 H 506.031 -0.220434 1.45439 0
M  V30 5345 H 507.989 -2.95011 2.94999 0
M  V30 5346 H 506.619 -2.64513 1.85021 0
M  V30 5347 H 505.671 -1.03816 3.6596 0
M  V30 5348 H 506.983 -1.57104 4.73413 0
M  V30 5349 H 506.137 -3.92431 4.62691 0
M  V30 5350 H 504.876 -3.43827 3.45882 0
M  V30 5351 H 503.881 -1.88742 5.16388 0
M  V30 5352 H 505.106 -2.40131 6.35227 0
M  V30 5353 H 503.052 -4.21311 5.02825 0
M  V30 5354 H 502.969 -3.60068 6.64746 0
M  V30 5355 H 504.237 -4.70761 6.21292 0
M  V30 5356 N 508.466 -1.55915 -0.229846 0
M  V30 5357 C 509.714 -1.7819 -0.953565 0
M  V30 5358 C 510.035 -0.610504 -1.85197 0
M  V30 5359 O 509.305 0.372988 -1.92316 0
M  V30 5360 H 507.885 -0.657208 -0.355087 0
M  V30 5361 H 510.547 -1.9337 -0.243693 0
M  V30 5362 H 509.643 -2.70011 -1.56527 0
M  V30 5363 N 509.944 0.496216 -1.49584 0
M  V30 5364 C 511.19 1.25189 -1.59548 0
M  V30 5365 C 511.523 1.9212 -0.283466 0
M  V30 5366 O 510.798 1.80947 0.713324 0
M  V30 5367 C 511.081 2.31516 -2.75812 0
M  V30 5368 C 510.934 1.69054 -4.16822 0
M  V30 5369 C 512.253 3.3304 -2.87702 0
M  V30 5370 H 509.372 0.45379 -0.580727 0
M  V30 5371 H 512.014 0.549327 -1.81886 0
M  V30 5372 H 510.164 2.91438 -2.56897 0
M  V30 5373 H 511.836 1.12923 -4.47265 0
M  V30 5374 H 510.079 0.994485 -4.22247 0
M  V30 5375 H 510.75 2.462 -4.94054 0
M  V30 5376 H 513.226 2.83114 -3.04936 0
M  V30 5377 H 512.102 4.04794 -3.7072 0
M  V30 5378 H 512.363 3.95655 -1.97255 0
M  V30 5379 N 511.423 1.38739 0.74761 0
M  V30 5380 C 512.663 1.36695 1.51966 0
M  V30 5381 C 513.027 -0.0411889 1.91956 0
M  V30 5382 O 514.228 -0.186543 2.68152 0
M  V30 5383 C 512.499 2.30119 2.73459 0
M  V30 5384 S 514.058 2.4615 3.63257 0
M  V30 5385 H 510.876 0.484929 0.519966 0
M  V30 5386 H 513.478 1.7472 0.877104 0
M  V30 5387 H 512.182 3.31312 2.422 0
M  V30 5388 H 511.713 1.93265 3.42655 0
M  V30 5389 H 513.728 1.69001 4.66533 0
M  V30 5390 N 512.901 -0.976442 1.23707 0
M  V30 5391 C 513.831 -2.08749 1.04624 0
M  V30 5392 C 514.812 -1.70057 -0.0380956 0
M  V30 5393 O 515.997 -1.93782 0.127308 0
M  V30 5394 C 513.127 -3.41335 0.640902 0
M  V30 5395 C 512.081 -3.93947 1.67302 0
M  V30 5396 C 511.407 -5.22774 1.12301 0
M  V30 5397 C 512.707 -4.22769 3.06697 0
M  V30 5398 H 514.401 -2.24972 1.97555 0
M  V30 5399 H 511.947 -1.08108 0.951247 0
M  V30 5400 H 513.9 -4.18489 0.494434 0
M  V30 5401 H 512.624 -3.24988 -0.324099 0
M  V30 5402 H 511.283 -3.18941 1.80755 0
M  V30 5403 H 510.931 -5.0278 0.148877 0
M  V30 5404 H 510.631 -5.58942 1.81267 0
M  V30 5405 H 512.155 -6.02546 0.988479 0
M  V30 5406 H 513.569 -4.90659 2.96524 0
M  V30 5407 H 511.966 -4.70147 3.72937 0
M  V30 5408 H 513.036 -3.29885 3.55392 0
M  V30 5409 N 514.379 -1.04941 -1.1758 0
M  V30 5410 C 515.309 -0.669172 -2.23706 0
M  V30 5411 C 516.29 0.331835 -1.66832 0
M  V30 5412 O 517.475 0.209988 -1.93061 0
M  V30 5413 C 514.605 -0.0404889 -3.47276 0
M  V30 5414 C 513.559 -0.965983 -4.16957 0
M  V30 5415 C 512.885 -0.201312 -5.34321 0
M  V30 5416 C 514.185 -2.28902 -4.69469 0
M  V30 5417 H 515.879 -1.55639 -2.55767 0
M  V30 5418 H 513.425 -0.749793 -1.22939 0
M  V30 5419 H 515.378 0.237298 -4.20731 0
M  V30 5420 H 514.102 0.881658 -3.14475 0
M  V30 5421 H 512.761 -1.22829 -3.45411 0
M  V30 5422 H 512.409 0.723519 -4.97769 0
M  V30 5423 H 512.109 -0.817968 -5.81879 0
M  V30 5424 H 513.633 0.0692499 -6.10561 0
M  V30 5425 H 515.047 -2.07132 -5.34574 0
M  V30 5426 H 513.444 -2.85942 -5.27596 0
M  V30 5427 H 514.514 -2.92937 -3.86414 0
M  V30 5428 N 515.857 1.33968 -0.830081 0
M  V30 5429 C 517.085 2.0228 -0.434773 0
M  V30 5430 C 517.5 1.62487 0.961419 0
M  V30 5431 O 516.857 0.833849 1.62337 0
M  V30 5432 C 516.908 3.5751 -0.535625 0
M  V30 5433 O 516.629 3.95864 -1.87679 0
M  V30 5434 C 518.13 4.43091 -0.136137 0
M  V30 5435 H 515.35 0.648151 -0.173613 0
M  V30 5436 H 517.894 1.71089 -1.12022 0
M  V30 5437 H 516.049 3.87266 0.101817 0
M  V30 5438 H 516.463 4.9056 -1.85609 0
M  V30 5439 H 517.937 5.51398 -0.257772 0
M  V30 5440 H 518.414 4.29433 0.921076 0
M  V30 5441 H 519.02 4.18677 -0.747662 0
M  V30 5442 N 517.335 0.585699 1.46312 0
M  V30 5443 C 518.583 0.072278 2.01971 0
M  V30 5444 C 518.904 -1.29345 1.45928 0
M  V30 5445 O 518.174 -1.84973 0.645109 0
M  V30 5446 H 516.754 0.023729 0.746623 0
M  V30 5447 H 519.416 0.762155 1.7938 0
M  V30 5448 H 518.512 0.00552767 3.121 0
M  V30 5449 N 518.813 -1.54241 0.323641 0
M  V30 5450 C 520.062 -1.9975 -0.279806 0
M  V30 5451 C 520.375 -1.2156 -1.5324 0
M  V30 5452 O 521.581 -1.57447 -2.21185 0
M  V30 5453 C 520.037 -3.55686 -0.549115 0
M  V30 5454 C 519.645 -4.4271 0.686432 0
M  V30 5455 C 521.389 -4.09663 -1.11251 0
M  V30 5456 C 519.296 -5.90119 0.389022 0
M  V30 5457 H 518.226 -0.746177 -0.10833 0
M  V30 5458 H 520.877 -1.78248 0.435877 0
M  V30 5459 H 519.259 -3.73176 -1.32499 0
M  V30 5460 H 520.433 -4.36996 1.46188 0
M  V30 5461 H 518.748 -3.99623 1.17005 0
M  V30 5462 H 521.345 -5.17386 -1.34965 0
M  V30 5463 H 521.688 -3.61651 -2.06191 0
M  V30 5464 H 522.221 -3.95806 -0.39782 0
M  V30 5465 H 518.96 -6.42326 1.30759 0
M  V30 5466 H 518.48 -5.98785 -0.348722 0
M  V30 5467 H 520.159 -6.47 -0.0011164 0
M  V30 5468 N 520.291 -0.0518155 -1.57515 0
M  V30 5469 C 521.224 0.957758 -2.07129 0
M  V30 5470 C 522.202 1.30355 -0.971927 0
M  V30 5471 O 523.386 1.41631 -1.2439 0
M  V30 5472 C 520.513 2.27157 -2.51232 0
M  V30 5473 C 519.559 2.07879 -3.72409 0
M  V30 5474 S 520.392 1.35656 -5.18033 0
M  V30 5475 C 521.548 2.68359 -5.65451 0
M  V30 5476 H 521.781 0.53552 -2.92437 0
M  V30 5477 H 519.314 0.160465 -1.53564 0
M  V30 5478 H 521.272 3.02676 -2.77304 0
M  V30 5479 H 519.933 2.66509 -1.66228 0
M  V30 5480 H 519.126 3.05061 -4.01191 0
M  V30 5481 H 518.728 1.40499 -3.46606 0
M  V30 5482 H 521.02 3.64526 -5.71076 0
M  V30 5483 H 521.963 2.44213 -6.64654 0
M  V30 5484 H 522.371 2.74647 -4.93183 0
M  V30 5485 N 521.769 1.56035 0.221574 0
M  V30 5486 C 523.017 1.78693 0.944102 0
M  V30 5487 C 523.338 0.620317 1.8487 0
M  V30 5488 O 522.608 -0.362784 1.92512 0
M  V30 5489 H 521.188 0.659082 0.351597 0
M  V30 5490 H 523.85 1.93497 0.233435 0
M  V30 5491 H 522.946 2.70837 1.55093 0
M  V30 5492 N 523.247 -0.488276 1.49845 0
M  V30 5493 C 524.21 -1.57069 1.66919 0
M  V30 5494 C 525.21 -1.51445 0.540479 0
M  V30 5495 O 526.4 -1.5437 0.807188 0
M  V30 5496 C 523.532 -2.96718 1.67844 0
M  V30 5497 H 524.725 -1.43254 2.63474 0
M  V30 5498 H 522.278 -0.713435 1.39068 0
M  V30 5499 H 523.013 -3.15996 0.7292 0
M  V30 5500 H 522.798 -3.02208 2.49826 0
M  V30 5501 H 524.288 -3.75335 1.83066 0
M  V30 5502 N 524.725 -1.39134 -0.740242 0
M  V30 5503 C 525.973 -1.35803 -1.49673 0
M  V30 5504 C 526.294 0.0470897 -1.94943 0
M  V30 5505 O 525.564 0.997347 -1.68611 0
M  V30 5506 H 524.144 -0.499736 -0.555224 0
M  V30 5507 H 526.806 -1.73947 -0.879107 0
M  V30 5508 H 525.902 -2.0174 -2.38133 0
M  V30 5509 N 526.204 0.969867 -1.24223 0
M  V30 5510 C 527.444 1.72754 -1.0925 0
M  V30 5511 C 527.808 1.88541 0.362787 0
M  V30 5512 O 529.009 2.61217 0.633969 0
M  V30 5513 C 527.28 3.08204 -1.80957 0
M  V30 5514 S 528.839 3.99418 -1.81688 0
M  V30 5515 H 525.657 0.593981 -0.390778 0
M  V30 5516 H 528.259 1.15792 -1.5752 0
M  V30 5517 H 526.963 2.94372 -2.85961 0
M  V30 5518 H 526.494 3.70232 -1.33012 0
M  V30 5519 H 528.509 4.8828 -0.883001 0
M  V30 5520 N 527.682 1.05563 1.17022 0
M  V30 5521 C 528.91 0.78845 1.91288 0
M  V30 5522 C 529.325 -0.656318 1.77025 0
M  V30 5523 O 528.682 -1.44869 1.10992 0
M  V30 5524 C 528.733 1.16444 3.42232 0
M  V30 5525 O 528.454 2.5525 3.5606 0
M  V30 5526 C 529.955 0.923937 4.33565 0
M  V30 5527 H 527.175 0.286389 0.606813 0
M  V30 5528 H 529.719 1.4073 1.48375 0
M  V30 5529 H 527.874 0.590266 3.82877 0
M  V30 5530 H 528.288 2.70097 4.49609 0
M  V30 5531 H 529.762 1.23672 5.37968 0
M  V30 5532 H 530.239 -0.140688 4.38975 0
M  V30 5533 H 530.845 1.48214 3.98639 0
M  V30 5534 N 529.16 -1.33526 0.837174 0
M  V30 5535 C 530.123 -2.27551 0.274421 0
M  V30 5536 C 531.123 -1.50886 -0.555881 0
M  V30 5537 O 532.313 -1.70227 -0.369918 0
M  V30 5538 C 529.445 -3.35332 -0.613605 0
M  V30 5539 H 530.638 -2.78837 1.10408 0
M  V30 5540 H 528.191 -1.439 0.610126 0
M  V30 5541 H 528.926 -2.89285 -1.46577 0
M  V30 5542 H 528.711 -3.92095 -0.0195341 0
M  V30 5543 H 530.201 -4.05433 -1.00068 0
M  V30 5544 N 530.638 -0.59345 -1.46 0
M  V30 5545 C 531.568 0.121192 -2.33185 0
M  V30 5546 C 532.549 0.872977 -1.4599 0
M  V30 5547 O 533.734 0.846321 -1.74789 0
M  V30 5548 C 530.864 1.12844 -3.28456 0
M  V30 5549 C 529.818 0.4908 -4.25177 0
M  V30 5550 C 529.144 1.60529 -5.10034 0
M  V30 5551 C 530.444 -0.578949 -5.19081 0
M  V30 5552 H 532.138 -0.606767 -2.93187 0
M  V30 5553 H 529.684 -0.293242 -1.40983 0
M  V30 5554 H 531.637 1.63684 -3.88311 0
M  V30 5555 H 530.361 1.88681 -2.66584 0
M  V30 5556 H 529.02 0.00339328 -3.666 0
M  V30 5557 H 528.668 2.35359 -4.44539 0
M  V30 5558 H 528.368 1.18422 -5.75543 0
M  V30 5559 H 529.892 2.11623 -5.72755 0
M  V30 5560 H 531.306 -0.155199 -5.7309 0
M  V30 5561 H 529.703 -0.920947 -5.92991 0
M  V30 5562 H 530.773 -1.46109 -4.62364 0
M  V30 5563 N 532.116 1.54067 -0.331816 0
M  V30 5564 C 533.362 2.01012 0.268667 0
M  V30 5565 C 533.695 1.2195 1.51136 0
M  V30 5566 O 532.97 0.303972 1.9211 0
M  V30 5567 C 533.253 3.55158 0.59456 0
M  V30 5568 C 533.106 4.4494 -0.659409 0
M  V30 5569 C 534.425 4.16939 1.4089 0
M  V30 5570 H 531.544 0.730698 0.0961756 0
M  V30 5571 H 534.186 1.84593 -0.450031 0
M  V30 5572 H 532.336 3.6928 1.20685 0
M  V30 5573 H 534.008 4.42675 -1.29756 0
M  V30 5574 H 532.251 4.1428 -1.28665 0
M  V30 5575 H 532.922 5.50643 -0.386804 0
M  V30 5576 H 535.398 4.06443 0.891272 0
M  V30 5577 H 534.274 5.24889 1.60569 0
M  V30 5578 H 534.535 3.70798 2.40752 0
M  V30 5579 N 533.594 0.0601682 1.57485 0
M  V30 5580 C 534.84 -0.612501 1.93329 0
M  V30 5581 C 535.173 -1.6996 0.939526 0
M  V30 5582 O 534.448 -1.94472 -0.0330957 0
M  V30 5583 C 534.731 -1.20025 3.39508 0
M  V30 5584 C 534.584 -0.12059 4.49638 0
M  V30 5585 C 535.903 -2.10923 3.86264 0
M  V30 5586 H 533.022 -0.221185 0.703027 0
M  V30 5587 H 535.664 0.123768 1.89596 0
M  V30 5588 H 533.814 -1.82774 3.42821 0
M  V30 5589 H 535.486 0.51185 4.58452 0
M  V30 5590 H 533.729 0.550251 4.30296 0
M  V30 5591 H 534.4 -0.572019 5.49028 0
M  V30 5592 H 536.876 -1.58124 3.84884 0
M  V30 5593 H 535.752 -2.48987 4.8918 0
M  V30 5594 H 536.013 -3.01292 3.23536 0
M  V30 5595 N 535.072 -1.5615 -0.213296 0
M  V30 5596 C 536.035 -1.92249 -1.24792 0
M  V30 5597 C 537.035 -0.801828 -1.39382 0
M  V30 5598 O 538.225 -1.06948 -1.37506 0
M  V30 5599 C 535.357 -2.18056 -2.62039 0
M  V30 5600 H 536.55 -2.84793 -0.939845 0
M  V30 5601 H 534.103 -1.49559 -0.454062 0
M  V30 5602 H 534.838 -1.2809 -2.97932 0
M  V30 5603 H 534.623 -2.99703 -2.52825 0
M  V30 5604 H 536.113 -2.47051 -3.36683 0
M  V30 5605 N 536.55 0.480323 -1.50102 0
M  V30 5606 C 537.796 1.23489 -1.60867 0
M  V30 5607 C 538.129 1.91809 -0.303827 0
M  V30 5608 O 537.404 1.81694 0.694092 0
M  V30 5609 C 537.687 2.28578 -2.78252 0
M  V30 5610 C 537.54 1.64624 -4.18592 0
M  V30 5611 C 538.859 3.2997 -2.91218 0
M  V30 5612 H 535.978 0.447605 -0.585507 0
M  V30 5613 H 538.62 0.530005 -1.82458 0
M  V30 5614 H 536.77 2.88697 -2.59974 0
M  V30 5615 H 538.442 1.08173 -4.48438 0
M  V30 5616 H 536.685 0.949645 -4.23278 0
M  V30 5617 H 537.356 2.40946 -4.96638 0
M  V30 5618 H 539.832 2.79864 -3.07921 0
M  V30 5619 H 538.708 4.00839 -3.74993 0
M  V30 5620 H 538.969 3.93541 -2.0144 0
M  V30 5621 N 538.028 1.39524 0.732853 0
M  V30 5622 C 539.274 1.37068 1.49467 0
M  V30 5623 C 539.607 -0.0327166 1.94172 0
M  V30 5624 O 538.882 -0.998071 1.66939 0
M  V30 5625 C 539.165 2.34494 2.73285 0
M  V30 5626 C 539.018 3.83784 2.34585 0
M  V30 5627 C 540.337 2.29717 3.75391 0
M  V30 5628 H 537.456 0.499206 0.542183 0
M  V30 5629 H 540.098 1.70532 0.837783 0
M  V30 5630 H 538.248 2.06087 3.29333 0
M  V30 5631 H 539.92 4.22949 1.84151 0
M  V30 5632 H 538.163 4.00455 1.66787 0
M  V30 5633 H 538.834 4.47444 3.23262 0
M  V30 5634 H 541.31 2.54839 3.28932 0
M  V30 5635 H 540.186 2.99962 4.59689 0
M  V30 5636 H 540.447 1.30291 4.22465 0
M  V30 5637 N 539.506 -0.963266 1.24736 0
M  V30 5638 C 540.469 -2.04013 1.04457 0
M  V30 5639 C 541.469 -1.608 0.000335555 0
M  V30 5640 O 542.659 -1.72515 0.241719 0
M  V30 5641 C 539.791 -3.35858 0.584162 0
M  V30 5642 H 540.984 -2.23436 2.00041 0
M  V30 5643 H 538.537 -1.13914 1.07021 0
M  V30 5644 H 539.272 -3.22128 -0.374673 0
M  V30 5645 H 539.057 -3.68568 1.3379 0
M  V30 5646 H 540.547 -4.1502 0.463451 0
M  V30 5647 N 540.985 -1.06182 -1.16461 0
M  V30 5648 C 542.401 -0.785065 -1.38956 0
M  V30 5649 C 542.601 0.616103 -1.9185 0
M  V30 5650 O 541.657 1.37686 -2.11657 0
M  V30 5651 C 542.97 -1.84902 -2.37132 0
M  V30 5652 C 544.518 -1.8724 -2.50819 0
M  V30 5653 C 544.993 -2.92686 -3.52277 0
M  V30 5654 N 546.484 -2.91712 -3.59803 0
M  V30 5655 C 547.219 -3.69949 -4.38093 0
M  V30 5656 N 546.715 -4.58 -5.19815 0
M  V30 5657 N 548.508 -3.58346 -4.33064 0
M  V30 5658 H 540.659 -1.96569 -0.804634 0
M  V30 5659 H 542.922 -0.851747 -0.416211 0
M  V30 5660 H 542.628 -2.85518 -2.0536 0
M  V30 5661 H 542.502 -1.69908 -3.36766 0
M  V30 5662 H 544.889 -0.872827 -2.81897 0
M  V30 5663 H 544.97 -2.06311 -1.51226 0
M  V30 5664 H 544.614 -3.92835 -3.21937 0
M  V30 5665 H 544.544 -2.70864 -4.51598 0
M  V30 5666 H 547.035 -2.27876 -3.01464 0
M  V30 5667 H 547.348 -5.14357 -5.76764 0
M  V30 5668 H 545.693 -4.62056 -5.19162 0
M  V30 5669 H 548.884 -2.88943 -3.68279 0
M  V30 5670 H 549.057 -4.19563 -4.93833 0
M  V30 5671 N 542.463 1.3308 -0.844243 0
M  V30 5672 C 543.41 2.29104 -0.279323 0
M  V30 5673 C 544.38 1.54577 0.607882 0
M  V30 5674 O 545.565 1.8285 0.545009 0
M  V30 5675 C 542.705 3.40927 0.53508 0
M  V30 5676 C 541.818 4.30354 -0.376749 0
M  V30 5677 C 540.953 5.29297 0.449276 0
M  V30 5678 C 539.992 6.10365 -0.460606 0
M  V30 5679 N 539.129 7.01335 0.327612 0
M  V30 5680 H 543.969 2.76817 -1.10346 0
M  V30 5681 H 541.506 1.36203 -0.555611 0
M  V30 5682 H 543.464 4.04469 1.02278 0
M  V30 5683 H 542.094 2.94391 1.32414 0
M  V30 5684 H 541.146 3.67485 -0.982791 0
M  V30 5685 H 542.458 4.87067 -1.07549 0
M  V30 5686 H 541.612 5.98392 1.00058 0
M  V30 5687 H 540.351 4.73174 1.18143 0
M  V30 5688 H 539.356 5.40182 -1.02388 0
M  V30 5689 H 540.581 6.68571 -1.1912 0
M  V30 5690 H 538.527 6.47655 1.04305 0
M  V30 5691 H 538.444 7.55355 -0.3123 0
M  V30 5692 H 539.712 7.74731 0.86098 0
M  V30 5693 N 543.941 0.601185 1.45683 0
M  V30 5694 C 544.871 -0.108824 2.33246 0
M  V30 5695 C 545.852 -0.865223 1.46451 0
M  V30 5696 O 547.037 -0.83704 1.75235 0
M  V30 5697 C 544.167 -1.11101 3.2905 0
M  V30 5698 C 543.121 -0.468244 4.25431 0
M  V30 5699 C 542.447 -1.57822 5.10878 0
M  V30 5700 C 543.747 0.606469 5.18767 0
M  V30 5701 H 545.441 0.622306 2.92861 0
M  V30 5702 H 542.987 0.300714 1.40825 0
M  V30 5703 H 544.94 -1.61622 3.89174 0
M  V30 5704 H 543.664 -1.87265 2.67581 0
M  V30 5705 H 542.323 0.0160484 3.66596 0
M  V30 5706 H 541.971 -2.32998 4.45781 0
M  V30 5707 H 541.671 -1.15369 5.76163 0
M  V30 5708 H 543.195 -2.08583 5.73869 0
M  V30 5709 H 544.609 0.185589 5.73 0
M  V30 5710 H 543.006 0.952381 5.92494 0
M  V30 5711 H 544.076 1.48559 4.61582 0
M  V30 5712 N 545.419 -1.53889 0.339982 0
M  V30 5713 C 546.329 -2.28604 -0.526988 0
M  V30 5714 C 547.345 -1.33578 -1.11503 0
M  V30 5715 O 548.521 -1.66612 -1.13148 0
M  V30 5716 C 545.586 -3.04164 -1.66389 0
M  V30 5717 C 544.647 -4.14809 -1.10599 0
M  V30 5718 C 543.88 -4.86756 -2.18871 0
M  V30 5719 O 544.103 -4.58343 -3.39526 0
M  V30 5720 O 543.037 -5.73289 -1.83366 0
M  V30 5721 H 546.863 -3.03594 0.0802707 0
M  V30 5722 H 544.448 -1.4903 0.105141 0
M  V30 5723 H 546.33 -3.51427 -2.32544 0
M  V30 5724 H 545.005 -2.32035 -2.25703 0
M  V30 5725 H 543.912 -3.71857 -0.409067 0
M  V30 5726 H 545.245 -4.89029 -0.557771 0
M  V30 5727 N 546.897 -0.0685191 -1.57451 0
M  V30 5728 C 547.827 0.89747 -2.15564 0
M  V30 5729 C 548.808 1.31266 -1.08181 0
M  V30 5730 O 549.993 1.38429 -1.36202 0
M  V30 5731 C 547.123 2.16623 -2.71463 0
M  V30 5732 C 546.077 1.89054 -3.83982 0
M  V30 5733 C 545.403 3.22532 -4.26471 0
M  V30 5734 C 546.703 1.1984 -5.08366 0
M  V30 5735 H 548.397 0.413373 -2.96533 0
M  V30 5736 H 545.943 0.197391 -1.42641 0
M  V30 5737 H 547.896 2.84614 -3.10761 0
M  V30 5738 H 546.62 2.67269 -1.8771 0
M  V30 5739 H 545.279 1.23469 -3.45183 0
M  V30 5740 H 544.927 3.71013 -3.39644 0
M  V30 5741 H 544.627 3.04879 -5.02317 0
M  V30 5742 H 546.151 3.91727 -4.68383 0
M  V30 5743 H 547.565 1.77896 -5.45001 0
M  V30 5744 H 545.962 1.12456 -5.89469 0
M  V30 5745 H 547.032 0.176996 -4.84577 0
M  V30 5746 N 548.375 1.56261 0.205012 0
M  V30 5747 C 549.603 1.84141 0.943386 0
M  V30 5748 C 550.018 0.649772 1.77266 0
M  V30 5749 O 549.375 -0.381612 1.78466 0
M  V30 5750 C 549.426 3.10719 1.84759 0
M  V30 5751 O 549.147 4.25286 1.05181 0
M  V30 5752 C 550.648 3.51706 2.69848 0
M  V30 5753 H 547.868 0.611734 0.275721 0
M  V30 5754 H 550.412 2.03364 0.215253 0
M  V30 5755 H 548.567 2.93422 2.52947 0
M  V30 5756 H 548.981 4.97301 1.66709 0
M  V30 5757 H 550.455 4.43266 3.28967 0
M  V30 5758 H 550.932 2.7423 3.43067 0
M  V30 5759 H 551.538 3.71499 2.07047 0
M  V30 5760 N 549.853 -0.472356 1.50355 0
M  V30 5761 C 550.8 -1.57051 1.69126 0
M  V30 5762 C 551.77 -1.5733 0.532574 0
M  V30 5763 O 552.955 -1.7488 0.762994 0
M  V30 5764 C 550.095 -2.95033 1.79024 0
M  V30 5765 C 549.208 -3.04552 3.06386 0
M  V30 5766 C 548.343 -4.33441 3.07087 0
M  V30 5767 C 547.382 -4.36697 4.28908 0
M  V30 5768 N 546.519 -5.57056 4.27356 0
M  V30 5769 H 551.359 -1.40351 2.62879 0
M  V30 5770 H 548.896 -0.682403 1.30314 0
M  V30 5771 H 550.854 -3.75048 1.82744 0
M  V30 5772 H 549.484 -3.10371 0.887109 0
M  V30 5773 H 548.536 -2.17419 3.12143 0
M  V30 5774 H 549.848 -3.02818 3.96362 0
M  V30 5775 H 549.002 -5.21801 3.09529 0
M  V30 5776 H 547.741 -4.37782 2.14939 0
M  V30 5777 H 546.746 -3.46734 4.2668 0
M  V30 5778 H 547.971 -4.34049 5.22282 0
M  V30 5779 H 545.917 -5.62184 3.3806 0
M  V30 5780 H 545.834 -5.57058 5.111 0
M  V30 5781 H 547.102 -6.47545 4.33942 0
M  V30 5782 N 551.331 -1.39911 -0.725443 0
M  V30 5783 C 552.294 -1.39156 -1.82121 0
M  V30 5784 C 553.294 -0.287018 -1.58218 0
M  V30 5785 O 554.484 -0.545421 -1.65441 0
M  V30 5786 C 551.616 -1.1736 -3.20062 0
M  V30 5787 H 552.809 -2.36672 -1.84191 0
M  V30 5788 H 550.362 -1.25615 -0.930079 0
M  V30 5789 H 551.097 -0.205648 -3.23647 0
M  V30 5790 H 550.882 -1.97358 -3.3881 0
M  V30 5791 H 552.372 -1.19596 -4.00108 0
M  V30 5792 N 552.809 0.956637 -1.25245 0
M  V30 5793 C 553.719 2.0868 -1.0719 0
M  V30 5794 C 554.735 1.73997 -0.00959074 0
M  V30 5795 O 555.911 2.00301 -0.210104 0
M  V30 5796 C 552.976 3.39754 -0.690526 0
M  V30 5797 C 552.037 3.88316 -1.83055 0
M  V30 5798 C 551.27 5.13134 -1.46728 0
M  V30 5799 O 551.493 5.6925 -0.362029 0
M  V30 5800 O 550.427 5.56356 -2.29677 0
M  V30 5801 H 554.253 2.26813 -2.01965 0
M  V30 5802 H 551.838 1.07098 -1.04165 0
M  V30 5803 H 553.72 4.18543 -0.489871 0
M  V30 5804 H 552.395 3.22896 0.227981 0
M  V30 5805 H 551.302 3.1054 -2.08604 0
M  V30 5806 H 552.635 4.09669 -2.72822 0
M  V30 5807 N 554.287 1.06798 1.15896 0
M  V30 5808 C 555.234 0.683314 2.20453 0
M  V30 5809 C 556.204 -0.32255 1.62938 0
M  V30 5810 O 557.389 -0.210276 1.89638 0
M  V30 5811 C 554.529 0.0813266 3.45004 0
M  V30 5812 C 553.642 1.13799 4.16742 0
M  V30 5813 C 552.777 0.501598 5.28826 0
M  V30 5814 C 551.816 1.54144 5.92373 0
M  V30 5815 N 550.953 0.928038 6.9594 0
M  V30 5816 H 555.793 1.57932 2.52708 0
M  V30 5817 H 553.33 0.789544 1.24115 0
M  V30 5818 H 555.288 -0.285274 4.16224 0
M  V30 5819 H 553.918 -0.77806 3.13283 0
M  V30 5820 H 552.97 1.62223 3.44075 0
M  V30 5821 H 554.282 1.92664 4.60089 0
M  V30 5822 H 553.436 0.0823162 6.06644 0
M  V30 5823 H 552.175 -0.318883 4.86656 0
M  V30 5824 H 551.18 1.97056 5.13273 0
M  V30 5825 H 552.405 2.3641 6.36621 0
M  V30 5826 H 550.351 0.12836 6.55874 0
M  V30 5827 H 550.268 1.65401 7.37685 0
M  V30 5828 H 551.536 0.534071 7.77668 0
M  V30 5829 N 555.766 -1.3263 0.851289 0
M  V30 5830 C 556.716 -2.26451 0.265302 0
M  V30 5831 C 557.7 -1.49814 -0.586899 0
M  V30 5832 O 558.892 -1.71525 -0.436834 0
M  V30 5833 C 556.021 -3.38895 -0.548212 0
M  V30 5834 C 555.107 -4.2292 0.316189 0
M  V30 5835 N 555.498 -4.86014 1.40084 0
M  V30 5836 C 553.796 -4.45876 0.105356 0
M  V30 5837 C 554.497 -5.48667 1.93235 0
M  V30 5838 N 553.473 -5.29455 1.232 0
M  V30 5839 H 557.275 -2.72757 1.09457 0
M  V30 5840 H 554.789 -1.4668 0.697047 0
M  V30 5841 H 556.786 -4.05111 -0.984402 0
M  V30 5842 H 555.446 -2.94135 -1.37531 0
M  V30 5843 H 556.457 -4.86212 1.78377 0
M  V30 5844 H 553.134 -4.11804 -0.687299 0
M  V30 5845 H 554.524 -6.08865 2.84135 0
M  V30 5846 N 557.244 -0.608902 -1.45362 0
M  V30 5847 C 558.49 -0.104762 -2.02529 0
M  V30 5848 C 558.823 1.26191 -1.47613 0
M  V30 5849 O 558.098 1.8327 -0.65134 0
M  V30 5850 C 558.381 -0.0672661 -3.60037 0
M  V30 5851 C 558.234 -1.4647 -4.25284 0
M  V30 5852 C 559.553 0.619877 -4.35713 0
M  V30 5853 H 556.672 -0.0395438 -0.735938 0
M  V30 5854 H 559.314 -0.781126 -1.73201 0
M  V30 5855 H 557.464 0.50871 -3.85155 0
M  V30 5856 H 559.136 -2.08785 -4.11347 0
M  V30 5857 H 557.379 -2.02502 -3.83634 0
M  V30 5858 H 558.05 -1.39069 -5.34195 0
M  V30 5859 H 560.526 0.130297 -4.15896 0
M  V30 5860 H 559.402 0.615224 -5.45441 0
M  V30 5861 H 559.663 1.68621 -4.0868 0
M  V30 5862 N 558.722 1.53707 -0.348139 0
M  V30 5863 C 559.672 2.2193 0.522592 0
M  V30 5864 C 560.656 1.20831 1.06248 0
M  V30 5865 O 561.848 1.46357 0.995415 0
M  V30 5866 C 558.977 2.99904 1.6707 0
M  V30 5867 C 558.063 4.08364 1.14454 0
M  V30 5868 N 558.454 5.04656 0.339958 0
M  V30 5869 C 556.752 4.22757 1.421 0
M  V30 5870 C 557.453 5.81675 0.0538806 0
M  V30 5871 N 556.429 5.39739 0.646776 0
M  V30 5872 H 560.231 2.93733 -0.099135 0
M  V30 5873 H 557.745 1.61656 -0.15524 0
M  V30 5874 H 559.742 3.47284 2.30651 0
M  V30 5875 H 558.402 2.29629 2.29566 0
M  V30 5876 H 559.413 5.17896 -0.0193552 0
M  V30 5877 H 556.09 3.63704 2.05002 0
M  V30 5878 H 557.48 6.69256 -0.595443 0
M  V30 5879 N 560.2 0.0768682 1.57412 0
M  V30 5880 C 561.148 -0.906229 2.1422 0
M  V30 5881 C 562.142 -1.30477 1.08037 0
M  V30 5882 O 563.348 -1.28143 1.2641 0
M  V30 5883 H 559.723 -0.310207 0.685037 0
M  V30 5884 H 561.694 -0.402228 2.95677 0
M  V30 5885 C 560.443 -2.16245 2.72274 0
M  V30 5886 H 559.766 -1.86463 3.53655 0
M  V30 5887 H 561.206 -2.83134 3.15613 0
M  V30 5888 C 559.665 -2.92437 1.67279 0
M  V30 5889 O 560.195 -3.86322 1.10081 0
M  V30 5890 N 558.401 -2.55637 1.38195 0
M  V30 5891 H 557.948 -1.79363 1.84897 0
M  V30 5892 H 557.906 -3.06919 0.681787 0
M  V30 5893 N 561.678 -1.56367 -0.196722 0
M  V30 5894 C 562.925 -1.80529 -0.917366 0
M  V30 5895 C 563.253 -0.649817 -1.83324 0
M  V30 5896 O 562.508 0.36451 -1.92275 0
M  V30 5897 C 562.807 -3.10663 -1.767 0
M  V30 5898 C 562.473 -4.3962 -1.00225 0
M  V30 5899 C 561.135 -4.74653 -0.791095 0
M  V30 5900 C 563.487 -5.1913 -0.464035 0
M  V30 5901 C 560.815 -5.86692 -0.0302155 0
M  V30 5902 C 563.167 -6.31964 0.283625 0
M  V30 5903 C 561.831 -6.65581 0.505813 0
M  V30 5904 H 561.101 -0.660602 -0.335688 0
M  V30 5905 H 563.748 -1.90615 -0.183844 0
M  V30 5906 H 562.053 -2.95807 -2.56915 0
M  V30 5907 H 563.75 -3.26563 -2.32718 0
M  V30 5908 H 560.34 -4.12127 -1.17684 0
M  V30 5909 H 564.524 -4.9248 -0.614575 0
M  V30 5910 H 559.78 -6.11211 0.151917 0
M  V30 5911 H 563.954 -6.92791 0.708057 0
M  V30 5912 H 561.581 -7.52239 1.0973 0
M  V30 5913 N 563.156 0.464375 -1.50603 0
M  V30 5914 C 564.089 1.58052 -1.64605 0
M  V30 5915 C 565.067 1.54914 -0.494016 0
M  V30 5916 O 566.251 1.74438 -0.714393 0
M  V30 5917 C 563.378 2.96634 -1.63481 0
M  V30 5918 C 562.424 3.17901 -2.84325 0
M  V30 5919 S 563.257 2.97083 -4.45536 0
M  V30 5920 C 564.413 4.37994 -4.47115 0
M  V30 5921 H 564.646 1.45937 -2.59017 0
M  V30 5922 H 562.179 0.652189 -1.39949 0
M  V30 5923 H 564.137 3.76527 -1.63517 0
M  V30 5924 H 562.798 3.06134 -0.702928 0
M  V30 5925 H 561.991 4.19158 -2.79862 0
M  V30 5926 H 561.593 2.45792 -2.81891 0
M  V30 5927 H 563.885 5.30743 -4.21091 0
M  V30 5928 H 564.828 4.47499 -5.48772 0
M  V30 5929 H 565.236 4.20386 -3.76743 0
M  V30 5930 N 564.634 1.40294 0.718013 0
M  V30 5931 C 565.567 1.34767 1.84155 0
M  V30 5932 C 566.545 0.218455 1.61126 0
M  V30 5933 O 567.729 0.401716 1.8417 0
M  V30 5934 C 564.856 1.09676 3.20451 0
M  V30 5935 C 563.902 2.25016 3.62312 0
M  V30 5936 S 564.735 3.87397 3.69707 0
M  V30 5937 C 565.891 3.64565 5.08766 0
M  V30 5938 H 566.124 2.29851 1.88562 0
M  V30 5939 H 563.657 1.2655 0.884555 0
M  V30 5940 H 565.615 0.95885 3.99144 0
M  V30 5941 H 564.276 0.162502 3.13679 0
M  V30 5942 H 563.469 2.03097 4.61268 0
M  V30 5943 H 563.071 2.35098 2.90869 0
M  V30 5944 H 565.363 3.22882 5.95612 0
M  V30 5945 H 566.306 4.63043 5.35721 0
M  V30 5946 H 566.714 2.98303 4.79245 0
M  V30 5947 N 566.112 -0.949982 1.2575 0
M  V30 5948 C 567.389 -1.6718 1.01539 0
M  V30 5949 C 567.769 -2.06095 -0.456942 0
M  V30 5950 O 567.117 -1.77792 -1.43534 0
M  V30 5951 C 567.327 -2.8906 1.95564 0
M  V30 5952 C 568.675 -3.60909 2.23673 0
M  V30 5953 O 569.699 -2.9915 1.9336 0
M  V30 5954 O 568.558 -4.72127 2.75243 0
M  V30 5955 H 565.652 -0.731697 0.385419 0
M  V30 5956 H 568.198 -1.00249 1.36924 0
M  V30 5957 H 566.97 -2.57128 2.94959 0
M  V30 5958 H 566.593 -3.63719 1.60605 0
M  V30 5959 N 567.59 -1.07411 -1.15328 0
M  V30 5960 C 568.818 -0.818782 -1.90009 0
M  V30 5961 C 569.233 0.628072 -1.78047 0
M  V30 5962 O 568.59 1.43085 -1.13282 0
M  V30 5963 C 568.641 -1.21874 -3.40337 0
M  V30 5964 O 568.362 -2.60883 -3.51954 0
M  V30 5965 C 569.863 -0.992796 -4.3204 0
M  V30 5966 H 567.083 -0.296007 -0.60218 0
M  V30 5967 H 569.627 -1.43073 -1.46117 0
M  V30 5968 H 567.782 -0.651103 -3.81889 0
M  V30 5969 H 568.196 -2.77216 -4.45255 0
M  V30 5970 H 569.67 -1.32215 -5.35932 0
M  V30 5971 H 570.147 0.0708331 -4.39143 0
M  V30 5972 H 570.753 -1.54537 -3.9623 0
M  V30 5973 N 569.068 1.32177 -0.85831 0
M  V30 5974 C 570 2.27688 -0.262835 0
M  V30 5975 C 571.013 1.52588 0.567513 0
M  V30 5976 O 572.202 1.74156 0.391407 0
M  V30 5977 C 569.302 3.32668 0.646937 0
M  V30 5978 C 568.475 4.37148 -0.148372 0
M  V30 5979 C 567.534 5.21686 0.687728 0
M  V30 5980 O 566.56 5.69074 0.119934 0
M  V30 5981 N 567.762 5.44892 2.00182 0
M  V30 5982 H 570.527 2.79426 -1.08356 0
M  V30 5983 H 568.088 1.45076 -0.718647 0
M  V30 5984 H 570.08 3.86134 1.2117 0
M  V30 5985 H 568.65 2.81061 1.36834 0
M  V30 5986 H 567.87 3.83915 -0.894572 0
M  V30 5987 H 569.158 5.04038 -0.694514 0
M  V30 5988 H 568.556 5.08128 2.4864 0
M  V30 5989 H 567.113 6.0134 2.51463 0
M  V30 5990 N 570.547 0.616602 1.45037 0
M  V30 5991 C 571.477 -0.0840787 2.33349 0
M  V30 5992 C 572.458 -0.849641 1.4736 0
M  V30 5993 O 573.643 -0.818407 1.76113 0
M  V30 5994 C 570.773 -1.07604 3.3021 0
M  V30 5995 C 569.727 -0.423096 4.25904 0
M  V30 5996 C 569.053 -1.52394 5.12523 0
M  V30 5997 C 570.353 0.661457 5.18095 0
M  V30 5998 H 572.047 0.653333 2.92185 0
M  V30 5999 H 569.593 0.315634 1.40498 0
M  V30 6000 H 571.546 -1.57485 3.90866 0
M  V30 6001 H 570.27 -1.84416 2.69552 0
M  V30 6002 H 568.929 0.05493 3.66559 0
M  V30 6003 H 568.577 -2.28257 4.48227 0
M  V30 6004 H 568.277 -1.09251 5.77354 0
M  V30 6005 H 569.801 -2.02485 5.76049 0
M  V30 6006 H 571.215 0.246353 5.7277 0
M  V30 6007 H 569.612 1.01517 5.91451 0
M  V30 6008 H 570.682 1.53446 4.59981 0
M  V30 6009 N 572.025 -1.5352 0.356285 0
M  V30 6010 C 573.253 -2.05534 -0.237328 0
M  V30 6011 C 573.668 -1.23043 -1.43199 0
M  V30 6012 O 573.025 -0.268821 -1.80509 0
M  V30 6013 C 573.076 -3.55791 -0.639933 0
M  V30 6014 O 572.797 -4.35154 0.507233 0
M  V30 6015 C 574.298 -4.24027 -1.29292 0
M  V30 6016 H 571.518 -0.669585 -0.0435572 0
M  V30 6017 H 574.062 -1.97988 0.511963 0
M  V30 6018 H 572.217 -3.63518 -1.33915 0
M  V30 6019 H 572.631 -5.24178 0.18375 0
M  V30 6020 H 574.105 -5.30509 -1.52527 0
M  V30 6021 H 574.582 -3.77166 -2.25039 0
M  V30 6022 H 575.188 -4.20527 -0.63539 0
M  V30 6023 N 573.503 -0.0852151 -1.57369 0
M  V30 6024 C 574.45 0.877268 -2.13478 0
M  V30 6025 C 575.42 1.28642 -1.05073 0
M  V30 6026 O 576.605 1.36992 -1.32808 0
M  V30 6027 C 573.745 2.13464 -2.71159 0
M  V30 6028 C 572.858 1.77691 -3.93764 0
M  V30 6029 C 571.993 2.98139 -4.39643 0
M  V30 6030 C 571.032 2.58447 -5.54862 0
M  V30 6031 N 570.169 3.71698 -5.95639 0
M  V30 6032 H 575.009 0.391933 -2.95411 0
M  V30 6033 H 572.546 0.181796 -1.45972 0
M  V30 6034 H 574.504 2.87086 -3.02717 0
M  V30 6035 H 573.134 2.59514 -1.91969 0
M  V30 6036 H 572.186 0.940768 -3.68583 0
M  V30 6037 H 573.498 1.44497 -4.77412 0
M  V30 6038 H 572.652 3.80026 -4.72933 0
M  V30 6039 H 571.391 3.34536 -3.54876 0
M  V30 6040 H 570.396 1.74984 -5.21211 0
M  V30 6041 H 571.621 2.23205 -6.41371 0
M  V30 6042 H 569.567 4.07831 -5.13819 0
M  V30 6043 H 569.484 3.42317 -6.74059 0
M  V30 6044 H 570.752 4.54123 -6.33555 0
M  V30 6045 N 574.981 1.5647 0.188427 0
M  V30 6046 C 576.397 1.50204 0.539532 0
M  V30 6047 C 576.597 0.78644 1.85519 0
M  V30 6048 O 575.653 0.339714 2.50204 0
M  V30 6049 C 576.966 2.94893 0.588103 0
M  V30 6050 C 578.514 3.05602 0.67648 0
M  V30 6051 C 578.989 4.51716 0.756101 0
M  V30 6052 N 580.48 4.55894 0.819451 0
M  V30 6053 C 581.215 5.66272 0.90134 0
M  V30 6054 N 580.711 6.86323 0.945118 0
M  V30 6055 N 582.504 5.54201 0.939043 0
M  V30 6056 H 574.655 2.01406 -0.674493 0
M  V30 6057 H 576.918 0.916828 -0.241103 0
M  V30 6058 H 576.624 3.50334 -0.309633 0
M  V30 6059 H 576.498 3.4861 1.44051 0
M  V30 6060 H 578.885 2.50206 1.56465 0
M  V30 6061 H 578.966 2.54999 -0.202262 0
M  V30 6062 H 578.61 5.07739 -0.12774 0
M  V30 6063 H 578.54 5.00058 1.65074 0
M  V30 6064 H 581.031 3.69452 0.794594 0
M  V30 6065 H 581.344 7.66194 1.0083 0
M  V30 6066 H 579.689 6.88968 0.913683 0
M  V30 6067 H 582.88 4.59333 0.901725 0
M  V30 6068 H 583.053 6.40247 0.999402 0
M  V30 6069 N 576.459 -0.456382 1.50847 0
M  V30 6070 C 577.705 -1.20914 1.62811 0
M  V30 6071 C 578.038 -1.91301 0.334304 0
M  V30 6072 O 577.313 -1.82775 -0.665098 0
M  V30 6073 C 577.596 -2.24122 2.81853 0
M  V30 6074 C 577.449 -1.57944 4.21158 0
M  V30 6075 C 578.768 -3.25295 2.96431 0
M  V30 6076 H 575.887 -0.438233 0.592554 0
M  V30 6077 H 578.529 -0.50091 1.83278 0
M  V30 6078 H 576.679 -2.84524 2.64534 0
M  V30 6079 H 578.351 -1.01025 4.50102 0
M  V30 6080 H 576.594 -0.882185 4.24735 0
M  V30 6081 H 577.265 -2.33014 5.00408 0
M  V30 6082 H 579.741 -2.7493 3.12335 0
M  V30 6083 H 578.617 -3.94822 3.81322 0
M  V30 6084 H 578.878 -3.90286 2.07676 0
M  V30 6085 N 577.937 -1.40673 -0.710563 0
M  V30 6086 C 578.884 -1.41336 -1.82463 0
M  V30 6087 C 579.854 -0.269648 -1.63897 0
M  V30 6088 O 581.039 -0.468463 -1.8496 0
M  V30 6089 C 578.179 -1.28665 -3.20218 0
M  V30 6090 C 577.292 -2.52784 -3.5032 0
M  V30 6091 C 576.427 -2.32517 -4.77608 0
M  V30 6092 C 575.466 -3.52187 -5.0063 0
M  V30 6093 N 574.603 -3.31084 -6.19135 0
M  V30 6094 H 579.443 -2.36558 -1.8123 0
M  V30 6095 H 576.98 -1.17483 -0.885226 0
M  V30 6096 H 578.938 -1.19324 -3.99772 0
M  V30 6097 H 577.568 -0.370602 -3.20666 0
M  V30 6098 H 576.62 -2.72634 -2.65283 0
M  V30 6099 H 577.932 -3.41845 -3.63241 0
M  V30 6100 H 577.086 -2.20558 -5.65189 0
M  V30 6101 H 575.825 -1.40889 -4.66906 0
M  V30 6102 H 574.83 -3.64617 -4.11502 0
M  V30 6103 H 576.055 -4.44749 -5.13201 0
M  V30 6104 H 574.001 -2.42143 -6.09674 0
M  V30 6105 H 573.918 -4.13713 -6.32754 0
M  V30 6106 H 575.186 -3.22868 -7.0949 0
M  V30 6107 N 579.415 0.9433 -1.26252 0
M  V30 6108 C 580.363 2.06302 -1.07434 0
M  V30 6109 C 581.357 1.694 -0.00189471 0
M  V30 6110 O 582.563 1.79302 -0.158408 0
M  V30 6111 H 578.938 0.675453 -0.330556 0
M  V30 6112 H 580.909 2.19326 -2.02333 0
M  V30 6113 C 579.658 3.40125 -0.721817 0
M  V30 6114 H 578.981 3.68996 -1.5389 0
M  V30 6115 H 580.421 4.19295 -0.629922 0
M  V30 6116 C 578.88 3.31993 0.572902 0
M  V30 6117 O 579.41 3.67945 1.61182 0
M  V30 6118 N 577.616 2.85099 0.562748 0
M  V30 6119 H 577.163 2.5604 -0.283092 0
M  V30 6120 H 577.121 2.80041 1.42915 0
M  V30 6121 N 580.893 1.08022 1.14757 0
M  V30 6122 C 581.856 0.71048 2.1791 0
M  V30 6123 C 582.856 -0.252731 1.58801 0
M  V30 6124 O 584.046 -0.0327915 1.74169 0
M  V30 6125 C 581.178 0.0483203 3.40866 0
M  V30 6126 H 582.371 1.62384 2.52134 0
M  V30 6127 H 579.924 0.877595 1.29337 0
M  V30 6128 H 580.659 -0.876959 3.12218 0
M  V30 6129 H 580.444 0.741189 3.85031 0
M  V30 6130 H 581.934 -0.195471 4.17142 0
M  V30 6131 N 582.371 -1.3172 0.865308 0
M  V30 6132 C 583.334 -2.26918 0.322627 0
M  V30 6133 C 584.334 -1.52031 -0.523751 0
M  V30 6134 O 585.524 -1.70973 -0.333727 0
M  V30 6135 C 582.656 -3.36558 -0.542338 0
M  V30 6136 H 583.849 -2.76432 1.16298 0
M  V30 6137 H 581.402 -1.42573 0.640512 0
M  V30 6138 H 582.137 -2.92329 -1.40407 0
M  V30 6139 H 581.922 -3.92048 0.0636395 0
M  V30 6140 H 583.412 -4.07465 -0.91446 0
M  V30 6141 N 583.85 -0.624285 -1.44708 0
M  V30 6142 C 584.812 0.0749638 -2.29077 0
M  V30 6143 C 585.812 0.778965 -1.40673 0
M  V30 6144 O 587.003 0.624591 -1.62618 0
M  V30 6145 C 584.135 1.11663 -3.22094 0
M  V30 6146 H 585.327 -0.667013 -2.92388 0
M  V30 6147 H 582.88 -0.384098 -1.51507 0
M  V30 6148 H 583.615 1.88881 -2.63618 0
M  V30 6149 H 583.401 0.61583 -3.87234 0
M  V30 6150 H 584.891 1.60585 -3.8549 0
M  V30 6151 N 585.328 1.53329 -0.364422 0
M  V30 6152 C 586.276 2.27212 0.497737 0
M  V30 6153 C 587.27 1.30146 1.08437 0
M  V30 6154 O 588.476 1.47778 1.0277 0
M  V30 6155 H 584.851 0.730329 0.179232 0
M  V30 6156 H 586.822 2.98037 -0.147182 0
M  V30 6157 C 585.571 3.07333 1.6261 0
M  V30 6158 H 584.894 3.81866 1.184 0
M  V30 6159 H 586.334 3.62209 2.20409 0
M  V30 6160 C 584.793 2.18102 2.56775 0
M  V30 6161 O 585.323 1.79104 3.59562 0
M  V30 6162 N 583.529 1.82759 2.25937 0
M  V30 6163 H 583.076 2.14671 1.42387 0
M  V30 6164 H 583.034 1.23342 2.89196 0
M  V30 6165 N 586.806 0.0935595 1.57322 0
M  V30 6166 C 588.052 -0.571355 1.94585 0
M  V30 6167 C 588.385 -1.67929 0.975366 0
M  V30 6168 O 587.66 -1.94498 0.00816206 0
M  V30 6169 C 587.943 -1.12797 3.41978 0
M  V30 6170 C 587.796 -0.0251881 4.49793 0
M  V30 6171 C 589.115 -2.02682 3.90651 0
M  V30 6172 H 586.234 -0.206223 0.70756 0
M  V30 6173 H 588.876 0.163956 1.89291 0
M  V30 6174 H 587.026 -1.75461 3.4662 0
M  V30 6175 H 588.698 0.608979 4.57263 0
M  V30 6176 H 586.941 0.641399 4.29032 0
M  V30 6177 H 587.612 -0.455433 5.50118 0
M  V30 6178 H 590.088 -1.49925 3.88152 0
M  V30 6179 H 588.964 -2.38555 4.94351 0
M  V30 6180 H 589.225 -2.94362 3.29854 0
M  V30 6181 N 588.284 -1.56567 -0.180126 0
M  V30 6182 C 589.214 -1.98753 -1.22553 0
M  V30 6183 C 590.195 -0.86175 -1.46656 0
M  V30 6184 O 591.38 -1.12719 -1.58139 0
M  V30 6185 C 588.51 -2.33988 -2.56645 0
M  V30 6186 C 587.464 -3.49445 -2.47128 0
M  V30 6187 C 586.79 -3.70397 -3.8563 0
M  V30 6188 C 588.09 -4.83171 -1.98352 0
M  V30 6189 H 589.784 -2.86332 -0.874896 0
M  V30 6190 H 587.33 -1.37757 -0.419414 0
M  V30 6191 H 589.283 -2.62097 -3.29974 0
M  V30 6192 H 588.007 -1.43309 -2.93479 0
M  V30 6193 H 586.666 -3.2145 -1.76254 0
M  V30 6194 H 586.314 -2.77023 -4.19842 0
M  V30 6195 H 586.014 -4.48077 -3.80132 0
M  V30 6196 H 587.538 -4.00897 -4.60558 0
M  V30 6197 H 588.952 -5.10213 -2.61449 0
M  V30 6198 H 587.349 -5.64425 -2.03823 0
M  V30 6199 H 588.419 -4.75753 -0.937402 0
M  V30 6200 N 589.762 0.448376 -1.51087 0
M  V30 6201 C 591.178 0.783984 -1.39017 0
M  V30 6202 C 591.378 1.96087 -0.463904 0
M  V30 6203 O 590.434 2.52357 0.0850534 0
M  V30 6204 C 591.747 1.07471 -2.80839 0
M  V30 6205 C 593.295 1.17981 -2.89913 0
M  V30 6206 C 593.77 1.50354 -4.32617 0
M  V30 6207 N 595.261 1.57301 -4.35673 0
M  V30 6208 C 595.996 1.839 -5.4311 0
M  V30 6209 N 595.492 2.08365 -6.60724 0
M  V30 6210 N 597.285 1.8559 -5.30578 0
M  V30 6211 H 589.436 -0.326881 -2.0987 0
M  V30 6212 H 591.699 -0.0838006 -0.944289 0
M  V30 6213 H 591.405 0.282768 -3.50561 0
M  V30 6214 H 591.279 2.00519 -3.19487 0
M  V30 6215 H 593.666 1.9624 -2.20395 0
M  V30 6216 H 593.747 0.228603 -2.54776 0
M  V30 6217 H 593.391 0.726273 -5.0268 0
M  V30 6218 H 593.321 2.46663 -4.65258 0
M  V30 6219 H 595.812 1.40342 -3.50874 0
M  V30 6220 H 596.125 2.27999 -7.38401 0
M  V30 6221 H 594.47 2.0571 -6.63859 0
M  V30 6222 H 597.661 1.65989 -4.37682 0
M  V30 6223 H 597.834 2.05983 -6.1439 0
M  V30 6224 N 591.24 1.41047 0.703093 0
M  V30 6225 C 592.15 1.44645 1.84703 0
M  V30 6226 C 593.166 0.337778 1.7069 0
M  V30 6227 O 594.342 0.584327 1.92737 0
M  V30 6228 C 591.407 1.31928 3.20618 0
M  V30 6229 C 590.468 2.53047 3.46794 0
M  V30 6230 C 589.701 2.40927 4.76224 0
M  V30 6231 O 589.924 1.42978 5.5219 0
M  V30 6232 O 588.858 3.30543 5.03016 0
M  V30 6233 H 592.684 2.41139 1.84624 0
M  V30 6234 H 590.269 1.22504 0.855167 0
M  V30 6235 H 592.151 1.27092 4.01778 0
M  V30 6236 H 590.826 0.385469 3.21397 0
M  V30 6237 H 589.733 2.6346 2.65593 0
M  V30 6238 H 591.066 3.45231 3.50822 0
M  V30 6239 N 592.718 -0.936591 1.26751 0
M  V30 6240 C 593.946 -1.71758 1.15355 0
M  V30 6241 C 594.361 -1.86549 -0.290683 0
M  V30 6242 O 593.718 -1.37616 -1.19868 0
M  V30 6243 C 593.769 -3.12193 1.82258 0
M  V30 6244 O 593.49 -2.98105 3.21038 0
M  V30 6245 C 594.991 -4.06485 1.76875 0
M  V30 6246 H 592.211 -0.537636 0.401483 0
M  V30 6247 H 594.755 -1.17382 1.67457 0
M  V30 6248 H 592.91 -3.63456 1.34083 0
M  V30 6249 H 593.324 -3.86824 3.54214 0
M  V30 6250 H 594.798 -5.02569 2.28316 0
M  V30 6251 H 595.275 -4.32986 0.736216 0
M  V30 6252 H 595.881 -3.61144 2.24623 0
M  V30 6253 N 594.196 -1.08629 -1.14182 0
M  V30 6254 C 595.442 -0.828415 -1.85766 0
M  V30 6255 C 595.797 0.638947 -1.81481 0
M  V30 6256 O 595.09 1.46386 -1.23619 0
M  V30 6257 C 595.284 -1.28734 -3.3341 0
M  V30 6258 C 595.113 -2.79778 -3.52071 0
M  V30 6259 C 593.883 -3.47554 -3.66789 0
M  V30 6260 C 596.081 -3.77945 -3.48801 0
M  V30 6261 N 594.063 -4.87107 -3.73631 0
M  V30 6262 C 595.434 -5.03406 -3.61914 0
M  V30 6263 C 597.489 -3.70917 -3.32152 0
M  V30 6264 C 596.192 -6.22673 -3.60098 0
M  V30 6265 C 598.218 -4.89662 -3.31641 0
M  V30 6266 C 597.58 -6.13962 -3.45296 0
M  V30 6267 H 593.679 -0.355884 -0.696327 0
M  V30 6268 H 596.263 -1.38508 -1.36834 0
M  V30 6269 H 594.434 -0.75822 -3.80927 0
M  V30 6270 H 596.166 -0.975649 -3.92764 0
M  V30 6271 H 592.921 -2.97972 -3.68116 0
M  V30 6272 H 593.345 -5.59775 -3.80763 0
M  V30 6273 H 597.987 -2.75749 -3.20504 0
M  V30 6274 H 595.705 -7.1815 -3.70522 0
M  V30 6275 H 599.291 -4.85914 -3.19968 0
M  V30 6276 H 598.171 -7.04307 -3.44851 0
M  V30 6277 N 595.674 1.31259 -0.872281 0
M  V30 6278 C 596.604 2.30929 -0.345554 0
M  V30 6279 C 597.585 1.60449 0.5648 0
M  V30 6280 O 598.77 1.8814 0.481335 0
M  V30 6281 C 595.9 3.44348 0.451823 0
M  V30 6282 C 594.854 4.26435 -0.365641 0
M  V30 6283 C 594.18 5.31785 0.557562 0
M  V30 6284 C 595.48 4.97159 -1.60095 0
M  V30 6285 H 597.174 2.75234 -1.17841 0
M  V30 6286 H 594.72 1.3232 -0.568094 0
M  V30 6287 H 596.673 4.13128 0.830854 0
M  V30 6288 H 595.397 2.98816 1.31821 0
M  V30 6289 H 594.056 3.59326 -0.726649 0
M  V30 6290 H 593.704 4.82502 1.4213 0
M  V30 6291 H 593.404 5.87598 0.0144878 0
M  V30 6292 H 594.928 6.03424 0.933387 0
M  V30 6293 H 596.342 5.58523 -1.29323 0
M  V30 6294 H 594.739 5.62779 -2.08327 0
M  V30 6295 H 595.809 4.24012 -2.35249 0
M  V30 6296 N 597.152 0.631951 1.44375 0
M  V30 6297 C 598.401 0.134214 2.01253 0
M  V30 6298 C 598.714 -1.25171 1.50305 0
M  V30 6299 O 599.92 -1.8435 1.99317 0
M  V30 6300 C 598.376 0.189187 3.59402 0
M  V30 6301 C 597.984 1.57647 4.19346 0
M  V30 6302 C 599.728 -0.252044 4.23751 0
M  V30 6303 C 597.635 1.58651 5.69722 0
M  V30 6304 H 596.565 0.0464101 0.75257 0
M  V30 6305 H 599.216 0.790868 1.65582 0
M  V30 6306 H 597.598 -0.534584 3.92375 0
M  V30 6307 H 598.772 2.32389 3.97909 0
M  V30 6308 H 597.087 1.96186 3.67288 0
M  V30 6309 H 599.684 -0.264084 5.34047 0
M  V30 6310 H 600.027 -1.27951 3.96149 0
M  V30 6311 H 600.56 0.41926 3.95584 0
M  V30 6312 H 597.299 2.59237 6.0206 0
M  V30 6313 H 596.819 0.882039 5.93279 0
M  V30 6314 H 598.498 1.32082 6.33375 0
M  V30 6315 N 598.631 -1.53133 0.372548 0
M  V30 6316 C 599.861 -2.05476 -0.215202 0
M  V30 6317 C 600.269 -1.24534 -1.42436 0
M  V30 6318 O 599.612 -0.280771 -1.81542 0
M  V30 6319 C 599.674 -3.53276 -0.666068 0
M  V30 6320 C 599.338 -4.54998 0.427342 0
M  V30 6321 C 600.335 -5.03911 1.27944 0
M  V30 6322 C 598.02 -4.98828 0.589579 0
M  V30 6323 C 600.014 -5.95263 2.27905 0
M  V30 6324 C 597.701 -5.89984 1.59255 0
M  V30 6325 C 598.699 -6.38093 2.43571 0
M  V30 6326 O 598.387 -7.27451 3.42156 0
M  V30 6327 H 598.119 -0.67481 -0.040099 0
M  V30 6328 H 600.673 -1.98409 0.531312 0
M  V30 6329 H 598.903 -3.57904 -1.4643 0
M  V30 6330 H 600.592 -3.88442 -1.1776 0
M  V30 6331 H 601.358 -4.70792 1.16532 0
M  V30 6332 H 597.237 -4.60965 -0.0569456 0
M  V30 6333 H 600.781 -6.32736 2.93753 0
M  V30 6334 H 596.678 -6.22518 1.70711 0
M  V30 6335 H 597.446 -7.45467 3.37967 0
M  V30 6336 N 600.109 -0.101901 -1.5727 0
M  V30 6337 C 601.056 0.854577 -2.14396 0
M  V30 6338 C 602.026 1.27521 -1.06432 0
M  V30 6339 O 603.211 1.35575 -1.34253 0
M  V30 6340 C 600.351 2.10576 -2.73408 0
M  V30 6341 C 599.464 1.73504 -3.95626 0
M  V30 6342 C 598.599 2.9346 -4.42781 0
M  V30 6343 C 597.638 2.52547 -5.57572 0
M  V30 6344 N 596.775 3.65359 -5.99547 0
M  V30 6345 H 601.615 0.360578 -2.9581 0
M  V30 6346 H 599.152 0.166303 -1.46157 0
M  V30 6347 H 601.11 2.83859 -3.05745 0
M  V30 6348 H 599.74 2.57463 -1.94711 0
M  V30 6349 H 598.792 0.901622 -3.6956 0
M  V30 6350 H 600.104 1.39426 -4.78917 0
M  V30 6351 H 599.258 3.74988 -4.76937 0
M  V30 6352 H 597.997 3.30753 -3.58404 0
M  V30 6353 H 597.002 1.69446 -5.23037 0
M  V30 6354 H 598.227 2.1639 -6.43702 0
M  V30 6355 H 596.173 4.02358 -5.18116 0
M  V30 6356 H 596.09 3.35148 -6.77652 0
M  V30 6357 H 597.358 4.47378 -6.38336 0
M  V30 6358 N 601.587 1.56661 0.17182 0
M  V30 6359 C 602.537 1.92781 1.21736 0
M  V30 6360 C 603.521 0.796065 1.39827 0
M  V30 6361 O 604.713 1.05924 1.41806 0
M  V30 6362 C 601.842 2.29079 2.55691 0
M  V30 6363 C 600.928 3.48765 2.41296 0
M  V30 6364 N 601.319 4.66022 1.96614 0
M  V30 6365 C 599.617 3.53362 2.72124 0
M  V30 6366 C 600.318 5.48159 1.94669 0
M  V30 6367 N 599.294 4.89189 2.37054 0
M  V30 6368 H 603.096 2.80926 0.863592 0
M  V30 6369 H 600.61 1.57889 0.380096 0
M  V30 6370 H 602.607 2.5315 3.31241 0
M  V30 6371 H 601.267 1.42272 2.91871 0
M  V30 6372 H 602.278 4.9025 1.66959 0
M  V30 6373 H 598.955 2.77033 3.12345 0
M  V30 6374 H 600.345 6.52121 1.61826 0
M  V30 6375 N 603.065 -0.440357 1.51323 0
M  V30 6376 C 604.293 -1.21255 1.67645 0
M  V30 6377 C 604.708 -1.85088 0.37252 0
M  V30 6378 O 604.065 -1.70582 -0.648683 0
M  V30 6379 C 604.116 -2.29881 2.78993 0
M  V30 6380 O 603.837 -1.68659 4.04334 0
M  V30 6381 C 605.338 -3.20214 3.06558 0
M  V30 6382 H 602.558 -0.36558 0.562666 0
M  V30 6383 H 605.102 -0.52214 1.97722 0
M  V30 6384 H 603.257 -2.94643 2.51524 0
M  V30 6385 H 603.671 -2.40426 4.6615 0
M  V30 6386 H 605.145 -3.92575 3.88058 0
M  V30 6387 H 605.622 -3.80794 2.18844 0
M  V30 6388 H 606.228 -2.61156 3.35675 0
M  V30 6389 N 604.543 -1.41418 -0.695603 0
M  V30 6390 C 605.959 -1.23887 -1.00619 0
M  V30 6391 C 606.159 -0.128206 -2.01092 0
M  V30 6392 O 605.215 0.507408 -2.47349 0
M  V30 6393 C 606.528 -2.58816 -1.53083 0
M  V30 6394 C 608.076 -2.65998 -1.64967 0
M  V30 6395 C 608.551 -4.01244 -2.20833 0
M  V30 6396 N 610.042 -4.0309 -2.28194 0
M  V30 6397 C 610.777 -5.04539 -2.72448 0
M  V30 6398 N 610.273 -6.16378 -3.16306 0
M  V30 6399 N 612.066 -4.91901 -2.72011 0
M  V30 6400 H 604.217 -2.12379 -0.0300061 0
M  V30 6401 H 606.48 -0.944958 -0.0758797 0
M  V30 6402 H 606.186 -3.40842 -0.867147 0
M  V30 6403 H 606.06 -2.81299 -2.51298 0
M  V30 6404 H 608.447 -1.84331 -2.30448 0
M  V30 6405 H 608.528 -2.47325 -0.652982 0
M  V30 6406 H 608.172 -4.83359 -1.55968 0
M  V30 6407 H 608.102 -4.17257 -3.21254 0
M  V30 6408 H 610.593 -3.22341 -1.97242 0
M  V30 6409 H 610.906 -6.89658 -3.487 0
M  V30 6410 H 609.251 -6.19914 -3.14215 0
M  V30 6411 H 612.442 -4.03613 -2.37095 0
M  V30 6412 H 612.615 -5.71102 -3.06181 0
M  V30 6413 N 606.021 0.929856 -1.27246 0
M  V30 6414 C 606.951 2.04722 -1.12299 0
M  V30 6415 C 607.932 1.70082 -0.0250464 0
M  V30 6416 O 609.117 1.93176 -0.199141 0
M  V30 6417 C 606.247 3.38721 -0.767145 0
M  V30 6418 C 605.201 3.87466 -1.81808 0
M  V30 6419 C 604.527 5.18246 -1.31626 0
M  V30 6420 C 605.827 4.11095 -3.22177 0
M  V30 6421 H 607.521 2.17485 -2.05769 0
M  V30 6422 H 605.067 1.04503 -0.990715 0
M  V30 6423 H 607.02 4.16366 -0.649413 0
M  V30 6424 H 605.744 3.25967 0.203259 0
M  V30 6425 H 604.403 3.12012 -1.92468 0
M  V30 6426 H 604.051 5.01881 -0.335378 0
M  V30 6427 H 603.751 5.51829 -2.01887 0
M  V30 6428 H 605.275 5.98462 -1.21143 0
M  V30 6429 H 606.689 4.79316 -3.1453 0
M  V30 6430 H 605.086 4.55982 -3.90129 0
M  V30 6431 H 606.156 3.16468 -3.67391 0
M  V30 6432 N 607.499 1.09233 1.13605 0
M  V30 6433 C 608.745 0.828385 1.8511 0
M  V30 6434 C 609.078 -0.64437 1.83198 0
M  V30 6435 O 608.353 -1.47428 1.26867 0
M  V30 6436 C 608.636 1.36167 3.33363 0
M  V30 6437 C 608.489 2.90038 3.438 0
M  V30 6438 C 609.808 0.993819 4.28732 0
M  V30 6439 H 606.927 0.30239 0.672108 0
M  V30 6440 H 609.569 1.35339 1.33355 0
M  V30 6441 H 607.719 0.9151 3.77569 0
M  V30 6442 H 609.391 3.43128 3.08319 0
M  V30 6443 H 607.634 3.27271 2.84739 0
M  V30 6444 H 608.305 3.22428 4.48045 0
M  V30 6445 H 610.781 1.37893 3.92587 0
M  V30 6446 H 609.657 1.39403 5.30903 0
M  V30 6447 H 609.918 -0.0982206 4.41991 0
M  V30 6448 N 608.977 -1.30795 0.87923 0
M  V30 6449 C 609.924 -2.28282 0.339968 0
M  V30 6450 C 610.894 -1.56134 -0.566685 0
M  V30 6451 O 612.079 -1.84231 -0.496338 0
M  V30 6452 C 609.219 -3.42225 -0.444501 0
M  V30 6453 C 608.332 -4.29204 0.490717 0
M  V30 6454 C 607.467 -5.30302 -0.308784 0
M  V30 6455 C 606.506 -6.08929 0.622272 0
M  V30 6456 N 605.643 -7.01957 -0.14155 0
M  V30 6457 H 610.483 -2.73794 1.17647 0
M  V30 6458 H 608.02 -1.34682 0.591527 0
M  V30 6459 H 609.978 -4.07038 -0.915186 0
M  V30 6460 H 608.608 -2.97799 -1.24562 0
M  V30 6461 H 607.66 -3.6475 1.07988 0
M  V30 6462 H 608.972 -4.84045 1.20425 0
M  V30 6463 H 608.126 -6.00835 -0.841575 0
M  V30 6464 H 606.865 -4.7614 -1.05556 0
M  V30 6465 H 605.87 -5.37278 1.16674 0
M  V30 6466 H 607.095 -6.65178 1.36804 0
M  V30 6467 H 605.041 -6.50192 -0.870966 0
M  V30 6468 H 604.958 -7.54261 0.51246 0
M  V30 6469 H 606.226 -7.76741 -0.655271 0
M  V30 6470 N 610.455 -0.639598 -1.44038 0
M  V30 6471 C 611.402 0.0602458 -2.30721 0
M  V30 6472 C 612.372 0.828352 -1.43971 0
M  V30 6473 O 613.557 0.807693 -1.72861 0
M  V30 6474 C 610.697 1.03008 -3.29368 0
M  V30 6475 C 609.81 0.259502 -4.3122 0
M  V30 6476 C 608.945 1.22191 -5.16955 0
M  V30 6477 C 607.984 0.440978 -6.10509 0
M  V30 6478 N 607.121 1.35428 -6.88915 0
M  V30 6479 H 611.961 -0.684867 -2.90023 0
M  V30 6480 H 609.498 -0.349509 -1.42888 0
M  V30 6481 H 611.456 1.60583 -3.85057 0
M  V30 6482 H 610.086 1.74222 -2.71747 0
M  V30 6483 H 609.138 -0.432317 -3.77935 0
M  V30 6484 H 610.45 -0.348347 -4.97582 0
M  V30 6485 H 609.604 1.86873 -5.77203 0
M  V30 6486 H 608.343 1.86367 -4.50687 0
M  V30 6487 H 607.348 -0.219279 -5.49363 0
M  V30 6488 H 608.573 -0.196192 -6.78817 0
M  V30 6489 H 606.519 1.9831 -6.25307 0
M  V30 6490 H 606.436 0.800657 -7.51748 0
M  V30 6491 H 607.704 1.98967 -7.53679 0
M  V30 6492 N 611.933 1.52934 -0.380664 0
M  V30 6493 C 613.344 1.86457 0.0952684 0
M  V30 6494 C 613.695 1.3007 1.46889 0
M  V30 6495 O 612.82 0.628636 2.07068 0
M  V30 6496 C 613.415 3.38323 0.179648 0
M  V30 6497 C 611.974 3.71589 0.599858 0
M  V30 6498 C 611.121 2.76228 -0.243572 0
M  V30 6499 H 614.072 1.46966 -0.59888 0
M  V30 6500 H 614.093 3.67113 1.00042 0
M  V30 6501 H 613.605 3.79333 -0.820228 0
M  V30 6502 H 611.706 3.36144 1.60742 0
M  V30 6503 H 611.819 4.77715 0.364003 0
M  V30 6504 H 610.183 2.53045 0.289855 0
M  V30 6505 H 610.966 3.20074 -1.24127 0
M  V30 6506 N 613.412 0.11024 1.57214 0
M  V30 6507 C 614.689 -0.592956 1.86396 0
M  V30 6508 C 615.069 -1.85379 1.00985 0
M  V30 6509 O 614.417 -2.28337 0.0863592 0
M  V30 6510 C 614.627 -0.893816 3.3736 0
M  V30 6511 C 615.975 -1.25069 4.05762 0
M  V30 6512 O 616.999 -0.984356 3.42329 0
M  V30 6513 O 615.858 -1.75017 5.17718 0
M  V30 6514 H 612.952 -0.29828 0.771335 0
M  V30 6515 H 615.498 0.144083 1.69087 0
M  V30 6516 H 614.27 2.6031e-05 3.913 0
M  V30 6517 H 613.893 -1.68631 3.60068 0
M  V30 6518 N 614.89 -1.56749 -0.16351 0
M  V30 6519 C 615.822 -1.93587 -1.22705 0
M  V30 6520 C 616.835 -0.829824 -1.40063 0
M  V30 6521 O 618.024 -1.10826 -1.39928 0
M  V30 6522 C 615.124 -2.1803 -2.59454 0
M  V30 6523 C 614.297 -3.4928 -2.63292 0
M  V30 6524 C 613.356 -3.62457 -3.8146 0
M  V30 6525 O 612.382 -4.35004 -3.67096 0
M  V30 6526 N 613.584 -2.97888 -4.9824 0
M  V30 6527 H 616.349 -2.8542 -0.914081 0
M  V30 6528 H 613.91 -1.58 -0.353214 0
M  V30 6529 H 615.902 -2.24102 -3.36987 0
M  V30 6530 H 614.472 -1.32543 -2.8311 0
M  V30 6531 H 613.692 -3.54795 -1.71796 0
M  V30 6532 H 614.98 -4.35632 -2.62873 0
M  V30 6533 H 614.378 -2.38833 -5.12811 0
M  V30 6534 H 612.935 -3.09545 -5.73607 0
M  V30 6535 N 616.368 0.432326 -1.51554 0
M  V30 6536 C 617.331 1.50765 -1.72634 0
M  V30 6537 C 618.331 1.49334 -0.596314 0
M  V30 6538 O 619.521 1.51268 -0.863925 0
M  V30 6539 C 616.653 2.90284 -1.7874 0
M  V30 6540 H 617.846 1.33377 -2.68609 0
M  V30 6541 H 615.399 0.661329 -1.4162 0
M  V30 6542 H 616.134 3.13071 -0.845977 0
M  V30 6543 H 615.919 2.92727 -2.6087 0
M  V30 6544 H 617.409 3.68282 -1.96871 0
M  V30 6545 N 617.846 1.41785 0.688094 0
M  V30 6546 C 619.262 1.24419 0.999608 0
M  V30 6547 C 619.462 0.138868 2.01021 0
M  V30 6548 O 618.518 -0.494283 2.47615 0
M  V30 6549 C 619.831 2.59625 1.51709 0
M  V30 6550 C 621.379 2.66869 1.63554 0
M  V30 6551 C 621.854 4.0241 2.18702 0
M  V30 6552 N 623.345 4.04295 2.26053 0
M  V30 6553 C 624.08 5.05977 2.69768 0
M  V30 6554 N 623.576 6.18047 3.13033 0
M  V30 6555 N 625.369 4.93336 2.69398 0
M  V30 6556 H 617.52 2.12392 0.0187427 0
M  V30 6557 H 619.783 0.945347 0.0708673 0
M  V30 6558 H 619.489 3.41297 0.849059 0
M  V30 6559 H 619.363 2.82628 2.49803 0
M  V30 6560 H 621.75 1.8555 2.29467 0
M  V30 6561 H 621.831 2.47668 0.639857 0
M  V30 6562 H 621.475 4.8418 1.53402 0
M  V30 6563 H 621.405 4.18955 3.19037 0
M  V30 6564 H 623.896 3.23383 1.9553 0
M  V30 6565 H 624.209 6.91498 3.45038 0
M  V30 6566 H 622.554 6.21572 3.10923 0
M  V30 6567 H 625.745 4.04865 2.34952 0
M  V30 6568 H 625.918 5.72717 3.03148 0
M  V30 6569 N 619.324 -0.923095 1.27737 0
M  V30 6570 C 620.57 -1.67375 1.14514 0
M  V30 6571 C 620.903 -1.91751 -0.307424 0
M  V30 6572 O 620.178 -1.51119 -1.22447 0
M  V30 6573 C 620.461 -3.03745 1.9342 0
M  V30 6574 C 620.314 -2.86581 3.46686 0
M  V30 6575 C 621.633 -4.04144 1.74228 0
M  V30 6576 H 618.752 -0.607427 0.417374 0
M  V30 6577 H 621.394 -1.07089 1.56946 0
M  V30 6578 H 619.544 -3.55204 1.5736 0
M  V30 6579 H 621.216 -2.42203 3.92601 0
M  V30 6580 H 619.459 -2.21829 3.72793 0
M  V30 6581 H 620.13 -3.83381 3.97143 0
M  V30 6582 H 622.606 -3.61712 2.05678 0
M  V30 6583 H 621.482 -4.97543 2.31824 0
M  V30 6584 H 621.743 -4.36661 0.691373 0
M  V30 6585 N 620.802 -1.09834 -1.13024 0
M  V30 6586 C 622.218 -0.828875 -1.36388 0
M  V30 6587 C 622.418 0.554756 -1.93713 0
M  V30 6588 O 621.474 1.30882 -2.15931 0
M  V30 6589 C 622.787 -1.92352 -2.3113 0
M  V30 6590 C 624.335 -1.95124 -2.44735 0
M  V30 6591 C 624.81 -3.03745 -3.42787 0
M  V30 6592 N 626.301 -3.03012 -3.5034 0
M  V30 6593 C 627.036 -3.83699 -4.26101 0
M  V30 6594 N 626.532 -4.74306 -5.04981 0
M  V30 6595 N 628.325 -3.71942 -4.21445 0
M  V30 6596 H 620.476 -1.99029 -0.74169 0
M  V30 6597 H 622.739 -0.864557 -0.388903 0
M  V30 6598 H 622.445 -2.91906 -1.96172 0
M  V30 6599 H 622.319 -1.80536 -3.3119 0
M  V30 6600 H 624.706 -0.962069 -2.78977 0
M  V30 6601 H 624.787 -2.11018 -1.44586 0
M  V30 6602 H 624.431 -4.02878 -3.09276 0
M  V30 6603 H 624.361 -2.85094 -4.42752 0
M  V30 6604 H 626.852 -2.37352 -2.94062 0
M  V30 6605 H 627.165 -5.32446 -5.60108 0
M  V30 6606 H 625.51 -4.78339 -5.04199 0
M  V30 6607 H 628.701 -3.00513 -3.589 0
M  V30 6608 H 628.874 -4.35062 -4.80235 0
M  V30 6609 N 622.28 1.30327 -0.886154 0
M  V30 6610 C 623.227 2.28099 -0.352069 0
M  V30 6611 C 624.197 1.56433 0.558397 0
M  V30 6612 O 625.382 1.84492 0.486561 0
M  V30 6613 C 622.522 3.42456 0.426346 0
M  V30 6614 C 621.635 4.28938 -0.513472 0
M  V30 6615 C 620.77 5.30458 0.280657 0
M  V30 6616 C 619.809 6.0859 -0.654556 0
M  V30 6617 N 618.946 7.02022 0.104322 0
M  V30 6618 H 623.786 2.73166 -1.19097 0
M  V30 6619 H 621.323 1.34367 -0.598662 0
M  V30 6620 H 623.281 4.07518 0.893587 0
M  V30 6621 H 621.911 2.98455 1.22981 0
M  V30 6622 H 620.963 3.64173 -1.09921 0
M  V30 6623 H 622.275 4.83399 -1.2299 0
M  V30 6624 H 621.429 6.01273 0.8097 0
M  V30 6625 H 620.168 4.76693 1.03029 0
M  V30 6626 H 619.173 5.36651 -1.19522 0
M  V30 6627 H 620.398 6.64443 -1.4033 0
M  V30 6628 H 618.344 6.50645 0.836472 0
M  V30 6629 H 618.261 7.53979 -0.552453 0
M  V30 6630 H 619.529 7.77077 0.614069 0
M  V30 6631 N 623.758 0.647228 1.43697 0
M  V30 6632 C 624.708 -0.0702191 2.27892 0
M  V30 6633 C 625.692 -0.800601 1.39568 0
M  V30 6634 O 626.884 -0.684055 1.63247 0
M  V30 6635 C 624.013 -1.04008 3.27165 0
M  V30 6636 C 623.099 -0.308484 4.22977 0
M  V30 6637 N 623.49 0.671721 5.0132 0
M  V30 6638 C 621.788 -0.550751 4.42586 0
M  V30 6639 C 622.489 1.10543 5.711 0
M  V30 6640 N 621.465 0.440903 5.41809 0
M  V30 6641 H 625.267 0.682031 2.85877 0
M  V30 6642 H 622.781 0.474022 1.55328 0
M  V30 6643 H 624.778 -1.56881 3.86256 0
M  V30 6644 H 623.438 -1.79246 2.70742 0
M  V30 6645 H 624.449 1.0502 5.0714 0
M  V30 6646 H 621.126 -1.28476 3.97241 0
M  V30 6647 H 622.516 1.91614 6.43998 0
M  V30 6648 N 625.236 -1.5273 0.388769 0
M  V30 6649 C 626.168 -2.24081 -0.481704 0
M  V30 6650 C 627.181 -1.26307 -1.02715 0
M  V30 6651 O 628.37 -1.52386 -0.929565 0
M  V30 6652 C 625.47 -2.94315 -1.68024 0
M  V30 6653 C 624.643 -4.18791 -1.26226 0
M  V30 6654 C 623.702 -4.72028 -2.32542 0
M  V30 6655 O 622.728 -5.35129 -1.93972 0
M  V30 6656 N 623.93 -4.51838 -3.64448 0
M  V30 6657 H 626.695 -2.9942 0.129591 0
M  V30 6658 H 624.256 -1.60465 0.2151 0
M  V30 6659 H 626.248 -3.26831 -2.38671 0
M  V30 6660 H 624.818 -2.22287 -2.19789 0
M  V30 6661 H 624.038 -3.92318 -0.384703 0
M  V30 6662 H 625.326 -4.99668 -0.959647 0
M  V30 6663 H 624.724 -4.01468 -3.98547 0
M  V30 6664 H 623.281 -4.88845 -4.31131 0
M  V30 6665 N 626.714 -0.118576 -1.57153 0
M  V30 6666 C 628.13 0.238014 -1.57815 0
M  V30 6667 C 628.33 1.66747 -1.13127 0
M  V30 6668 O 627.386 2.38867 -0.818462 0
M  V30 6669 C 628.699 0.00508207 -3.007 0
M  V30 6670 C 630.247 0.0710139 -3.12919 0
M  V30 6671 C 630.722 -0.13422 -4.57803 0
M  V30 6672 N 632.213 -0.0801755 -4.63131 0
M  V30 6673 C 632.948 -0.213885 -5.73001 0
M  V30 6674 N 632.444 -0.403742 -6.91623 0
M  V30 6675 N 634.237 -0.15349 -5.6189 0
M  V30 6676 H 626.388 -1.05226 -1.84503 0
M  V30 6677 H 628.651 -0.414318 -0.852669 0
M  V30 6678 H 628.357 -0.983125 -3.3768 0
M  V30 6679 H 628.231 0.73714 -3.69927 0
M  V30 6680 H 630.618 1.04975 -2.75798 0
M  V30 6681 H 630.699 -0.692918 -2.46236 0
M  V30 6682 H 630.343 -1.10992 -4.95624 0
M  V30 6683 H 630.273 0.649692 -5.22577 0
M  V30 6684 H 632.764 0.0630689 -3.77847 0
M  V30 6685 H 633.077 -0.496645 -7.71202 0
M  V30 6686 H 631.422 -0.43971 -6.93608 0
M  V30 6687 H 634.613 -0.00613174 -4.681 0
M  V30 6688 H 634.786 -0.261138 -6.47474 0
M  V30 6689 N 628.193 1.56834 0.155195 0
M  V30 6690 C 629.14 1.97646 1.19184 0
M  V30 6691 C 630.11 0.842788 1.4313 0
M  V30 6692 O 631.295 1.1042 1.55602 0
M  V30 6693 C 628.435 2.35527 2.52232 0
M  V30 6694 C 627.548 3.62147 2.35529 0
M  V30 6695 C 626.683 3.89167 3.61555 0
M  V30 6696 C 625.722 5.09084 3.39853 0
M  V30 6697 N 624.859 5.32156 4.5799 0
M  V30 6698 H 629.699 2.8601 0.836802 0
M  V30 6699 H 627.236 1.41507 0.401758 0
M  V30 6700 H 629.194 2.55516 3.29799 0
M  V30 6701 H 627.824 1.50253 2.85699 0
M  V30 6702 H 626.876 3.4998 1.49057 0
M  V30 6703 H 628.188 4.49871 2.15448 0
M  V30 6704 H 627.342 4.09611 4.47553 0
M  V30 6705 H 626.081 2.9985 3.84632 0
M  V30 6706 H 625.086 4.88522 2.52243 0
M  V30 6707 H 626.311 5.99947 3.18183 0
M  V30 6708 H 624.257 4.45791 4.81255 0
M  V30 6709 H 624.174 6.14133 4.40882 0
M  V30 6710 H 625.442 5.57091 5.45225 0
M  V30 6711 N 629.671 -0.424282 1.51781 0
M  V30 6712 C 630.918 -1.1726 1.65095 0
M  V30 6713 C 631.246 -1.90881 0.373477 0
M  V30 6714 O 630.501 -1.84835 -0.642997 0
M  V30 6715 C 630.8 -2.20418 2.81337 0
M  V30 6716 C 630.466 -1.63715 4.20129 0
M  V30 6717 C 629.128 -1.47975 4.57883 0
M  V30 6718 C 631.48 -1.22157 5.06682 0
M  V30 6719 C 628.808 -0.891703 5.79884 0
M  V30 6720 C 631.16 -0.647767 6.29275 0
M  V30 6721 C 629.824 -0.477371 6.65791 0
M  V30 6722 H 629.094 -0.429085 0.604125 0
M  V30 6723 H 631.741 -0.461852 1.85847 0
M  V30 6724 H 630.046 -2.97581 2.54859 0
M  V30 6725 H 631.743 -2.78163 2.88836 0
M  V30 6726 H 628.333 -1.76946 3.90369 0
M  V30 6727 H 632.517 -1.33133 4.7811 0
M  V30 6728 H 627.773 -0.747563 6.06813 0
M  V30 6729 H 631.947 -0.317291 6.95677 0
M  V30 6730 H 629.574 -0.0195936 7.60197 0
M  V30 6731 N 631.149 -1.42148 -0.680565 0
M  V30 6732 C 632.079 -1.4796 -1.80638 0
M  V30 6733 C 633.06 -0.336728 -1.66734 0
M  V30 6734 O 634.245 -0.550247 -1.86242 0
M  V30 6735 C 631.375 -1.37569 -3.18892 0
M  V30 6736 C 630.329 -2.49823 -3.47524 0
M  V30 6737 C 629.655 -2.24491 -4.85291 0
M  V30 6738 C 630.955 -3.92144 -3.44994 0
M  V30 6739 H 632.649 -2.42184 -1.76032 0
M  V30 6740 H 630.195 -1.16566 -0.845481 0
M  V30 6741 H 632.148 -1.40243 -3.97379 0
M  V30 6742 H 630.872 -0.398357 -3.24162 0
M  V30 6743 H 629.531 -2.46455 -2.71395 0
M  V30 6744 H 629.179 -1.25066 -4.87204 0
M  V30 6745 H 628.879 -2.99722 -5.05411 0
M  V30 6746 H 630.403 -2.28906 -5.66069 0
M  V30 6747 H 631.817 -3.97145 -4.13459 0
M  V30 6748 H 630.214 -4.67179 -3.76648 0
M  V30 6749 H 631.284 -4.19225 -2.43676 0
M  V30 6750 N 632.627 0.916307 -1.28225 0
M  V30 6751 C 633.559 2.02303 -1.07732 0
M  V30 6752 C 634.572 1.62773 -0.0298421 0
M  V30 6753 O 635.761 1.76406 -0.272626 0
M  V30 6754 C 632.861 3.33282 -0.614504 0
M  V30 6755 C 632.034 4.01439 -1.73682 0
M  V30 6756 C 631.093 5.10698 -1.26781 0
M  V30 6757 O 630.119 5.34038 -1.96958 0
M  V30 6758 N 631.321 5.80355 -0.129624 0
M  V30 6759 H 634.086 2.20442 -2.03041 0
M  V30 6760 H 631.647 1.08744 -1.19943 0
M  V30 6761 H 633.639 4.03699 -0.284397 0
M  V30 6762 H 632.209 3.11633 0.245664 0
M  V30 6763 H 631.429 3.24604 -2.23665 0
M  V30 6764 H 632.717 4.43721 -2.48976 0
M  V30 6765 H 632.115 5.6386 0.455847 0
M  V30 6766 H 630.672 6.51647 0.141224 0
M  V30 6767 N 634.105 1.10431 1.1244 0
M  V30 6768 C 635.068 0.756542 2.16354 0
M  V30 6769 C 636.068 -0.21899 1.59302 0
M  V30 6770 O 637.258 0.00415969 1.742 0
M  V30 6771 C 634.39 0.120612 3.40687 0
M  V30 6772 H 635.583 1.67696 2.48632 0
M  V30 6773 H 633.136 0.904832 1.27446 0
M  V30 6774 H 633.871 -0.810536 3.14008 0
M  V30 6775 H 633.656 0.822693 3.83372 0
M  V30 6776 H 635.146 -0.106945 4.17463 0
M  V30 6777 N 635.583 -1.29855 0.893053 0
M  V30 6778 C 636.832 -1.95104 0.511597 0
M  V30 6779 C 637.145 -1.71226 -0.945567 0
M  V30 6780 O 638.351 -2.30525 -1.43424 0
M  V30 6781 C 636.807 -3.49374 0.864034 0
M  V30 6782 C 636.415 -3.82061 2.33952 0
M  V30 6783 C 638.159 -4.20894 0.552167 0
M  V30 6784 C 636.066 -5.29546 2.63316 0
M  V30 6785 H 634.996 -0.73029 0.187597 0
M  V30 6786 H 637.647 -1.47682 1.08914 0
M  V30 6787 H 636.029 -3.95413 0.215493 0
M  V30 6788 H 637.203 -3.46904 3.03305 0
M  V30 6789 H 635.518 -3.23665 2.61973 0
M  V30 6790 H 638.115 -5.29435 0.748489 0
M  V30 6791 H 638.458 -4.13178 -0.508924 0
M  V30 6792 H 638.991 -3.80564 1.15825 0
M  V30 6793 H 635.73 -5.4232 3.68197 0
M  V30 6794 H 635.25 -5.65974 1.9858 0
M  V30 6795 H 636.929 -5.97068 2.49236 0
M  V30 6796 N 637.061 -0.65484 -1.43351 0
M  V30 6797 C 638.011 0.0581325 -2.27926 0
M  V30 6798 C 638.995 0.793188 -1.3999 0
M  V30 6799 O 640.187 0.675387 -1.63608 0
M  V30 6800 C 637.316 1.02272 -3.27712 0
M  V30 6801 C 636.402 0.286048 -4.23134 0
M  V30 6802 N 636.793 -0.698298 -5.00957 0
M  V30 6803 C 635.091 0.527272 -4.42872 0
M  V30 6804 C 635.792 -1.1357 -5.70506 0
M  V30 6805 N 634.768 -0.469631 -5.41568 0
M  V30 6806 H 638.57 -0.697182 -2.85511 0
M  V30 6807 H 636.084 -0.482252 -1.55074 0
M  V30 6808 H 638.081 1.5483 -3.87083 0
M  V30 6809 H 636.741 1.77807 -2.71688 0
M  V30 6810 H 637.752 -1.07708 -5.06576 0
M  V30 6811 H 634.429 1.26367 -3.97916 0
M  V30 6812 H 635.819 -1.95027 -6.42973 0
M  V30 6813 N 638.539 1.52521 -0.396863 0
M  V30 6814 C 639.471 2.24333 0.469814 0
M  V30 6815 C 640.484 1.2685 1.02043 0
M  V30 6816 O 641.673 1.52876 0.92147 0
M  V30 6817 C 638.773 2.95202 1.66461 0
M  V30 6818 C 637.946 4.19454 1.24003 0
M  V30 6819 C 637.005 4.73255 2.30036 0
M  V30 6820 O 636.031 5.36151 1.91131 0
M  V30 6821 N 637.233 4.53765 3.62047 0
M  V30 6822 H 639.998 2.99347 -0.145468 0
M  V30 6823 H 637.559 1.60348 -0.223606 0
M  V30 6824 H 639.551 3.28092 2.36934 0
M  V30 6825 H 638.121 2.2345 2.18607 0
M  V30 6826 H 637.341 3.92517 0.363892 0
M  V30 6827 H 638.629 5.0017 0.933135 0
M  V30 6828 H 638.027 4.03576 3.96412 0
M  V30 6829 H 636.584 4.91124 4.28533 0
M  V30 6830 N 640.017 0.126909 1.57088 0
M  V30 6831 C 640.98 -0.806097 2.14557 0
M  V30 6832 C 641.98 -1.18918 1.08236 0
M  V30 6833 O 643.17 -1.11339 1.33975 0
M  V30 6834 C 640.302 -2.09116 2.69227 0
M  V30 6835 H 641.495 -0.306522 2.98329 0
M  V30 6836 H 639.048 -0.122393 1.5582 0
M  V30 6837 H 639.783 -2.63486 1.89065 0
M  V30 6838 H 639.568 -1.82588 3.46993 0
M  V30 6839 H 641.058 -2.75794 3.13572 0
M  V30 6840 N 641.495 -1.56914 -0.146875 0
M  V30 6841 C 642.427 -1.94878 -1.20645 0
M  V30 6842 C 643.44 -0.844633 -1.39175 0
M  V30 6843 O 644.629 -1.12304 -1.38744 0
M  V30 6844 C 641.729 -2.20769 -2.57127 0
M  V30 6845 C 640.902 -3.52053 -2.59572 0
M  V30 6846 C 639.961 -3.66482 -3.77594 0
M  V30 6847 O 638.987 -4.38873 -3.62462 0
M  V30 6848 N 640.189 -3.03156 -4.95052 0
M  V30 6849 H 642.954 -2.86374 -0.883757 0
M  V30 6850 H 640.515 -1.58366 -0.336436 0
M  V30 6851 H 642.507 -2.27664 -3.34591 0
M  V30 6852 H 641.077 -1.35538 -2.81688 0
M  V30 6853 H 640.297 -3.56598 -1.68023 0
M  V30 6854 H 641.585 -4.38396 -2.58238 0
M  V30 6855 H 640.983 -2.44258 -5.10249 0
M  V30 6856 H 639.54 -3.15611 -5.70292 0
M  V30 6857 N 642.974 0.416227 -1.52004 0
M  V30 6858 C 643.921 1.50666 -1.74838 0
M  V30 6859 C 644.891 1.55245 -0.590599 0
M  V30 6860 O 646.076 1.71928 -0.827374 0
M  V30 6861 C 643.216 2.88185 -1.89851 0
M  V30 6862 C 642.329 2.92971 -3.17478 0
M  V30 6863 C 641.464 4.21745 -3.22962 0
M  V30 6864 C 640.503 4.20478 -4.4482 0
M  V30 6865 N 639.64 5.40811 -4.47736 0
M  V30 6866 H 644.48 1.30498 -2.67907 0
M  V30 6867 H 642.017 0.633568 -1.32757 0
M  V30 6868 H 643.975 3.68007 -1.96537 0
M  V30 6869 H 642.605 3.06865 -1.00169 0
M  V30 6870 H 641.657 2.05684 -3.19997 0
M  V30 6871 H 642.969 2.87899 -4.07328 0
M  V30 6872 H 642.123 5.09954 -3.28682 0
M  V30 6873 H 640.862 4.29503 -2.31038 0
M  V30 6874 H 639.867 3.30659 -4.39254 0
M  V30 6875 H 641.092 4.14366 -5.38031 0
M  V30 6876 H 639.038 5.4925 -3.58692 0
M  V30 6877 H 638.955 5.37705 -5.31422 0
M  V30 6878 H 640.223 6.30993 -4.57676 0
M  V30 6879 N 644.452 1.42507 0.673017 0
M  V30 6880 C 645.382 1.48916 1.79851 0
M  V30 6881 C 646.363 0.345566 1.66553 0
M  V30 6882 O 647.548 0.560116 1.85947 0
M  V30 6883 C 644.678 1.39258 3.18158 0
M  V30 6884 C 643.632 2.51662 3.46194 0
M  V30 6885 C 642.958 2.27062 4.84094 0
M  V30 6886 C 644.258 3.93968 3.42909 0
M  V30 6887 H 645.952 2.43114 1.74745 0
M  V30 6888 H 643.498 1.17013 0.839288 0
M  V30 6889 H 645.451 1.42349 3.96629 0
M  V30 6890 H 644.175 0.415542 3.23946 0
M  V30 6891 H 642.834 2.47891 2.70084 0
M  V30 6892 H 642.482 1.27648 4.86534 0
M  V30 6893 H 642.182 3.02398 5.03815 0
M  V30 6894 H 643.706 2.31905 5.64847 0
M  V30 6895 H 645.12 3.99332 4.11347 0
M  V30 6896 H 643.517 4.6917 3.74165 0
M  V30 6897 H 644.587 4.20512 2.41449 0
M  V30 6898 N 645.93 -0.909495 1.28709 0
M  V30 6899 C 647.346 -1.18862 1.06508 0
M  V30 6900 C 647.546 -2.00604 -0.189864 0
M  V30 6901 O 646.602 -2.36281 -0.890355 0
M  V30 6902 C 647.915 -1.91908 2.31499 0
M  V30 6903 C 649.463 -2.04773 2.36721 0
M  V30 6904 C 649.938 -2.81228 3.6149 0
M  V30 6905 N 651.429 -2.88787 3.62155 0
M  V30 6906 C 652.164 -3.48455 4.55375 0
M  V30 6907 N 651.66 -4.09369 5.58918 0
M  V30 6908 N 653.453 -3.46035 4.42963 0
M  V30 6909 H 645.604 -0.363867 2.0926 0
M  V30 6910 H 647.867 -0.223649 0.921241 0
M  V30 6911 H 647.573 -1.39275 3.22948 0
M  V30 6912 H 647.447 -2.92436 2.38245 0
M  V30 6913 H 649.834 -2.56585 1.45767 0
M  V30 6914 H 649.915 -1.03408 2.33967 0
M  V30 6915 H 649.559 -2.30094 4.5279 0
M  V30 6916 H 649.489 -3.82917 3.61499 0
M  V30 6917 H 651.98 -2.45514 2.87283 0
M  V30 6918 H 652.293 -4.52891 6.26187 0
M  V30 6919 H 650.638 -4.0786 5.62739 0
M  V30 6920 H 653.829 -2.9766 3.6127 0
M  V30 6921 H 654.002 -3.92244 5.15799 0
M  V30 6922 N 647.408 -1.11026 -1.11852 0
M  V30 6923 C 648.633 -0.879064 -1.87849 0
M  V30 6924 C 649.058 0.565406 -1.79401 0
M  V30 6925 O 648.416 1.39886 -1.15333 0
M  V30 6926 C 648.464 -1.33985 -3.34784 0
M  V30 6927 O 647.568 -0.508803 -4.09249 0
M  V30 6928 H 646.909 -0.316992 -0.583448 0
M  V30 6929 H 649.439 -1.47863 -1.41413 0
M  V30 6930 H 649.449 -1.33248 -3.85628 0
M  V30 6931 H 648.124 -2.39172 -3.40249 0
M  V30 6932 H 646.701 -0.581913 -3.68332 0
M  V30 6933 N 648.886 1.2938 -0.899927 0
M  V30 6934 C 650.132 1.9584 -0.526742 0
M  V30 6935 C 650.465 1.70774 0.924651 0
M  V30 6936 O 649.74 1.02084 1.65557 0
M  V30 6937 C 650.023 3.50638 -0.820062 0
M  V30 6938 C 649.876 3.85161 -2.32317 0
M  V30 6939 C 651.195 4.3903 -0.30671 0
M  V30 6940 H 648.314 0.711322 -0.192848 0
M  V30 6941 H 650.956 1.52992 -1.12665 0
M  V30 6942 H 649.106 3.87265 -0.309491 0
M  V30 6943 H 650.778 3.58477 -2.9033 0
M  V30 6944 H 649.021 3.32696 -2.78381 0
M  V30 6945 H 649.692 4.93204 -2.47898 0
M  V30 6946 H 652.168 4.09396 -0.743908 0
M  V30 6947 H 651.044 5.46226 -0.541144 0
M  V30 6948 H 651.305 4.34937 0.792588 0
M  V30 6949 N 650.364 0.662433 1.43002 0
M  V30 6950 C 651.311 -0.0235324 2.30788 0
M  V30 6951 C 652.281 -0.805342 1.4527 0
M  V30 6952 O 653.466 -0.78009 1.74124 0
M  V30 6953 C 650.606 -0.977545 3.30965 0
M  V30 6954 C 649.719 -0.190865 4.31578 0
M  V30 6955 C 648.854 -1.13951 5.18834 0
M  V30 6956 C 647.893 -0.343796 6.11134 0
M  V30 6957 N 647.03 -1.2445 6.90982 0
M  V30 6958 H 651.87 0.730921 2.88897 0
M  V30 6959 H 649.407 0.372197 1.42313 0
M  V30 6960 H 651.365 -1.54437 3.87563 0
M  V30 6961 H 649.995 -1.69877 2.74484 0
M  V30 6962 H 649.047 0.492388 3.772 0
M  V30 6963 H 650.359 0.427464 4.96965 0
M  V30 6964 H 649.513 -1.77666 5.80103 0
M  V30 6965 H 648.252 -1.79174 4.53595 0
M  V30 6966 H 647.257 0.30665 5.48944 0
M  V30 6967 H 648.482 0.304161 6.78419 0
M  V30 6968 H 646.428 -1.88336 6.28383 0
M  V30 6969 H 646.345 -0.680959 7.52927 0
M  V30 6970 H 647.613 -1.86952 7.56749 0
M  V30 6971 N 651.842 -1.52309 0.404946 0
M  V30 6972 C 653.091 -2.00952 -0.173529 0
M  V30 6973 C 653.404 -1.29512 -1.46581 0
M  V30 6974 O 654.61 -1.6895 -2.12528 0
M  V30 6975 C 653.066 -3.58097 -0.359801 0
M  V30 6976 C 652.674 -4.38449 0.920138 0
M  V30 6977 C 654.418 -4.14984 -0.893794 0
M  V30 6978 C 652.325 -5.87227 0.701285 0
M  V30 6979 H 651.255 -0.750871 -0.0686244 0
M  V30 6980 H 653.906 -1.75687 0.529749 0
M  V30 6981 H 652.288 -3.79675 -1.12531 0
M  V30 6982 H 653.462 -4.28633 1.69147 0
M  V30 6983 H 651.777 -3.92859 1.38024 0
M  V30 6984 H 654.374 -5.23813 -1.0735 0
M  V30 6985 H 654.717 -3.72072 -1.8673 0
M  V30 6986 H 655.25 -3.97358 -0.187453 0
M  V30 6987 H 651.989 -6.34491 1.64624 0
M  V30 6988 H 651.509 -5.99792 -0.0308288 0
M  V30 6989 H 653.188 -6.46096 0.341846 0
M  V30 6990 N 653.32 -0.135238 -1.57019 0
M  V30 6991 C 654.23 0.822226 -2.19719 0
M  V30 6992 C 655.246 1.28057 -1.17802 0
M  V30 6993 O 656.422 1.3402 -1.50335 0
M  V30 6994 C 653.487 2.0484 -2.79717 0
M  V30 6995 C 652.548 1.64042 -3.96723 0
M  V30 6996 C 651.781 2.80814 -4.53849 0
M  V30 6997 O 652.004 3.967 -4.0986 0
M  V30 6998 O 650.938 2.56963 -5.44292 0
M  V30 6999 H 654.764 0.318552 -3.02025 0
M  V30 7000 H 652.349 0.0912021 -1.49121 0
M  V30 7001 H 654.231 2.76622 -3.17897 0
M  V30 7002 H 652.906 2.54182 -2.00432 0
M  V30 7003 H 651.813 0.893182 -3.63281 0
M  V30 7004 H 653.146 1.19426 -4.77492 0
M  V30 7005 N 654.798 1.5699 0.138552 0
M  V30 7006 C 655.73 1.95515 1.1961 0
M  V30 7007 C 656.743 0.852002 1.38726 0
M  V30 7008 O 657.932 1.13038 1.38147 0
M  V30 7009 C 655.032 2.2213 2.55952 0
M  V30 7010 C 654.205 3.53424 2.57702 0
M  V30 7011 C 653.264 3.6848 3.75645 0
M  V30 7012 O 652.29 4.4079 3.60129 0
M  V30 7013 N 653.492 3.05777 4.93438 0
M  V30 7014 H 656.257 2.86838 0.868557 0
M  V30 7015 H 653.818 1.58542 0.328033 0
M  V30 7016 H 655.81 2.29435 3.33379 0
M  V30 7017 H 654.38 1.3703 2.80965 0
M  V30 7018 H 653.6 3.57484 1.6613 0
M  V30 7019 H 654.888 4.39759 2.55909 0
M  V30 7020 H 654.286 2.46961 5.08947 0
M  V30 7021 H 652.843 3.18631 5.6861 0
M  V30 7022 N 656.276 -0.40816 1.52223 0
M  V30 7023 C 657.524 -1.15274 1.66001 0
M  V30 7024 C 657.845 -1.91003 0.392803 0
M  V30 7025 O 657.115 -1.8673 -0.592336 0
M  V30 7026 H 655.695 -0.428526 0.611861 0
M  V30 7027 H 658.357 -0.46512 1.89269 0
M  V30 7028 H 657.453 -1.86628 2.50153 0
M  V30 7029 N 657.755 -1.42862 -0.66545 0
M  V30 7030 C 658.702 -1.4707 -1.77874 0
M  V30 7031 C 659.672 -0.321654 -1.62956 0
M  V30 7032 O 660.857 -0.52707 -1.83376 0
M  V30 7033 C 657.997 -1.38788 -3.15962 0
M  V30 7034 C 657.11 -2.63801 -3.42101 0
M  V30 7035 C 656.245 -2.47594 -4.69969 0
M  V30 7036 C 655.284 -3.67936 -4.89172 0
M  V30 7037 N 654.421 -3.50614 -6.08288 0
M  V30 7038 H 659.261 -2.42204 -1.73613 0
M  V30 7039 H 656.798 -1.20239 -0.847401 0
M  V30 7040 H 658.756 -1.31982 -3.95773 0
M  V30 7041 H 657.386 -0.472431 -3.19324 0
M  V30 7042 H 656.438 -2.80935 -2.56475 0
M  V30 7043 H 657.75 -3.53228 -3.52181 0
M  V30 7044 H 656.904 -2.38427 -5.57886 0
M  V30 7045 H 655.643 -1.55672 -4.62188 0
M  V30 7046 H 654.648 -3.77525 -3.99694 0
M  V30 7047 H 655.873 -4.60851 -4.98792 0
M  V30 7048 H 653.819 -2.61417 -6.01662 0
M  V30 7049 H 653.736 -4.33634 -6.19272 0
M  V30 7050 H 655.004 -3.45276 -6.98859 0
M  V30 7051 N 659.233 0.902656 -1.29189 0
M  V30 7052 C 660.163 2.02294 -1.16616 0
M  V30 7053 C 661.144 1.6999 -0.0611175 0
M  V30 7054 O 662.329 1.9271 -0.240072 0
M  V30 7055 C 659.459 3.37018 -0.83882 0
M  V30 7056 C 658.413 3.83522 -1.89986 0
M  V30 7057 C 657.739 5.15337 -1.42589 0
M  V30 7058 C 659.039 4.04169 -3.30824 0
M  V30 7059 H 660.733 2.13071 -2.10336 0
M  V30 7060 H 658.279 1.02378 -1.01266 0
M  V30 7061 H 660.232 4.14895 -0.737584 0
M  V30 7062 H 658.956 3.26325 0.134071 0
M  V30 7063 H 657.615 3.07859 -1.99043 0
M  V30 7064 H 657.263 5.01056 -0.441759 0
M  V30 7065 H 656.963 5.47423 -2.13547 0
M  V30 7066 H 658.487 5.95758 -1.3381 0
M  V30 7067 H 659.901 4.72537 -3.24626 0
M  V30 7068 H 658.298 4.47604 -3.99713 0
M  V30 7069 H 659.368 3.08604 -3.74021 0
M  V30 7070 N 660.711 1.11618 1.11262 0
M  V30 7071 C 661.659 0.771291 2.1944 0
M  V30 7072 C 662.653 -0.238073 1.67719 0
M  V30 7073 O 663.859 -0.0971628 1.79738 0
M  V30 7074 H 660.234 0.231548 0.715465 0
M  V30 7075 H 662.205 1.69226 2.45775 0
M  V30 7076 C 660.954 0.232765 3.4692 0
M  V30 7077 H 660.277 1.00072 3.87073 0
M  V30 7078 H 661.717 0.0296561 4.2399 0
M  V30 7079 C 660.176 -1.03738 3.20531 0
M  V30 7080 O 660.706 -2.11675 3.41404 0
M  V30 7081 N 658.912 -0.960906 2.74253 0
M  V30 7082 H 658.459 -0.0824323 2.57468 0
M  V30 7083 H 658.417 -1.8114 2.56974 0
M  V30 7084 N 662.189 -1.289 0.906776 0
M  V30 7085 C 663.466 -1.90221 0.455537 0
M  V30 7086 C 663.846 -1.82251 -1.06527 0
M  V30 7087 O 663.194 -1.25385 -1.91026 0
M  V30 7088 C 663.404 -3.35015 0.97806 0
M  V30 7089 C 664.752 -4.12018 1.02598 0
M  V30 7090 O 665.776 -3.43947 0.926218 0
M  V30 7091 O 664.635 -5.33677 1.17689 0
M  V30 7092 H 661.729 -0.814505 0.143214 0
M  V30 7093 H 664.275 -1.37317 0.997104 0
M  V30 7094 H 663.047 -3.35006 2.02204 0
M  V30 7095 H 662.67 -3.95408 0.416914 0
M  V30 7096 N 663.667 -0.670007 -1.42649 0
M  V30 7097 C 664.599 0.0501746 -2.29145 0
M  V30 7098 C 665.612 0.770331 -1.43422 0
M  V30 7099 O 666.801 0.625288 -1.6719 0
M  V30 7100 C 663.901 1.09463 -3.20735 0
M  V30 7101 C 663.074 0.44926 -4.35087 0
M  V30 7102 C 662.133 1.39285 -5.07431 0
M  V30 7103 O 661.159 0.894997 -5.6212 0
M  V30 7104 N 662.361 2.72631 -5.12496 0
M  V30 7105 H 665.126 -0.692312 -2.91594 0
M  V30 7106 H 662.687 -0.514056 -1.53522 0
M  V30 7107 H 664.679 1.72705 -3.65999 0
M  V30 7108 H 663.249 1.73891 -2.59771 0
M  V30 7109 H 662.469 -0.362573 -3.92529 0
M  V30 7110 H 663.757 -0.000544776 -5.088 0
M  V30 7111 H 663.155 3.15623 -4.69467 0
M  V30 7112 H 661.712 3.31132 -5.61422 0
M  V30 7113 N 665.145 1.52092 -0.413018 0
M  V30 7114 C 666.108 2.25706 0.398687 0
M  V30 7115 C 667.108 1.28221 0.970368 0
M  V30 7116 O 668.298 1.52131 0.848635 0
M  V30 7117 C 665.43 3.03029 1.5616 0
M  V30 7118 H 666.623 2.98888 -0.246131 0
M  V30 7119 H 664.176 1.5542 -0.165622 0
M  V30 7120 H 664.911 2.34205 2.24317 0
M  V30 7121 H 664.696 3.74606 1.15812 0
M  V30 7122 H 666.186 3.58857 2.13569 0
M  V30 7123 N 666.623 0.143563 1.56945 0
M  V30 7124 C 667.571 -0.814556 2.17871 0
M  V30 7125 C 668.565 -1.25778 1.13474 0
M  V30 7126 O 669.771 -1.22666 1.31731 0
M  V30 7127 H 666.146 -0.280873 0.697578 0
M  V30 7128 H 668.117 -0.276459 2.97117 0
M  V30 7129 C 666.866 -2.04503 2.81201 0
M  V30 7130 H 666.189 -1.71296 3.61245 0
M  V30 7131 H 667.629 -2.69493 3.27337 0
M  V30 7132 C 666.088 -2.85079 1.79532 0
M  V30 7133 O 666.618 -3.81306 1.26368 0
M  V30 7134 N 664.824 -2.49546 1.48913 0
M  V30 7135 H 664.371 -1.71359 1.92338 0
M  V30 7136 H 664.329 -3.03751 0.811348 0
M  V30 7137 N 668.101 -1.57061 -0.130224 0
M  V30 7138 C 669.329 -1.88432 -0.854456 0
M  V30 7139 C 669.744 -0.733608 -1.73964 0
M  V30 7140 O 669.101 0.296029 -1.80083 0
M  V30 7141 C 669.152 -3.1918 -1.69724 0
M  V30 7142 O 668.873 -4.2982 -0.847705 0
M  V30 7143 C 670.374 -3.6418 -2.5276 0
M  V30 7144 H 667.594 -0.624193 -0.246221 0
M  V30 7145 H 670.138 -2.04159 -0.11798 0
M  V30 7146 H 668.293 -3.05156 -2.3866 0
M  V30 7147 H 668.707 -5.04689 -1.42792 0
M  V30 7148 H 670.181 -4.58457 -3.07443 0
M  V30 7149 H 670.658 -2.90285 -3.29592 0
M  V30 7150 H 671.264 -3.80954 -1.89087 0
M  V30 7151 N 669.579 0.400081 -1.52437 0
M  V30 7152 C 670.509 1.4947 -1.7939 0
M  V30 7153 C 671.49 1.57383 -0.645329 0
M  V30 7154 O 672.675 1.72511 -0.891826 0
M  V30 7155 C 669.805 2.87201 -1.95276 0
M  V30 7156 C 668.759 2.94134 -3.10917 0
M  V30 7157 C 668.085 4.34207 -3.1204 0
M  V30 7158 C 669.385 2.64791 -4.50203 0
M  V30 7159 H 671.079 1.27165 -2.71052 0
M  V30 7160 H 668.625 0.610312 -1.30427 0
M  V30 7161 H 670.578 3.63772 -2.12715 0
M  V30 7162 H 669.302 3.10819 -1.00294 0
M  V30 7163 H 667.961 2.20009 -2.93243 0
M  V30 7164 H 667.609 4.54848 -2.14761 0
M  V30 7165 H 667.309 4.39768 -3.89715 0
M  V30 7166 H 668.833 5.127 -3.31619 0
M  V30 7167 H 670.247 3.31083 -4.68035 0
M  V30 7168 H 668.644 2.81717 -5.29864 0
M  V30 7169 H 669.714 1.60184 -4.57678 0
M  V30 7170 N 671.057 1.43213 0.657864 0
M  V30 7171 C 672.285 1.48015 1.44566 0
M  V30 7172 C 672.7 0.0965951 1.88553 0
M  V30 7173 O 672.057 -0.892221 1.59203 0
M  V30 7174 C 672.108 2.42199 2.68369 0
M  V30 7175 O 671.829 3.75173 2.26223 0
M  V30 7176 C 673.33 2.56195 3.61772 0
M  V30 7177 H 670.55 0.502861 0.444266 0
M  V30 7178 H 673.094 1.87907 0.806917 0
M  V30 7179 H 671.249 2.05514 3.28394 0
M  V30 7180 H 671.663 4.25776 3.06293 0
M  V30 7181 H 673.137 3.26182 4.4532 0
M  V30 7182 H 673.614 1.60534 4.0881 0
M  V30 7183 H 674.22 2.93671 3.07632 0
M  V30 7184 N 672.536 -0.895792 1.29666 0
M  V30 7185 C 673.813 -1.62723 1.08538 0
M  V30 7186 C 674.193 -2.07848 -0.369119 0
M  V30 7187 O 673.541 -1.8372 -1.35864 0
M  V30 7188 C 673.751 -2.80505 2.07648 0
M  V30 7189 C 675.099 -3.51098 2.3878 0
M  V30 7190 O 676.123 -2.90679 2.05874 0
M  V30 7191 O 674.982 -4.60028 2.9502 0
M  V30 7192 H 672.076 -0.714692 0.416106 0
M  V30 7193 H 674.622 -0.943517 1.41053 0
M  V30 7194 H 673.394 -2.44386 3.05599 0
M  V30 7195 H 673.017 -3.5658 1.75887 0
M  V30 7196 N 674.014 -1.12206 -1.10668 0
M  V30 7197 C 674.944 -0.810086 -2.18997 0
M  V30 7198 C 675.925 0.225065 -1.68604 0
M  V30 7199 O 677.11 0.086783 -1.94006 0
M  V30 7200 C 674.24 -0.261262 -3.46316 0
M  V30 7201 C 673.194 -1.2292 -4.09969 0
M  V30 7202 C 672.52 -0.540713 -5.31959 0
M  V30 7203 C 673.82 -2.58295 -4.53962 0
M  V30 7204 H 675.514 -1.7159 -2.45352 0
M  V30 7205 H 673.06 -0.82646 -1.17922 0
M  V30 7206 H 675.013 -0.0307522 -4.21389 0
M  V30 7207 H 673.737 0.679879 -3.19445 0
M  V30 7208 H 672.396 -1.44548 -3.369 0
M  V30 7209 H 672.044 0.405492 -5.01363 0
M  V30 7210 H 671.744 -1.18637 -5.75499 0
M  V30 7211 H 673.268 -0.319184 -6.09765 0
M  V30 7212 H 674.682 -2.40709 -5.20319 0
M  V30 7213 H 673.079 -3.18916 -5.08343 0
M  V30 7214 H 674.149 -3.16918 -3.67002 0
M  V30 7215 N 675.492 1.28418 -0.913599 0
M  V30 7216 C 676.455 2.25564 -0.406624 0
M  V30 7217 C 677.455 1.5387 0.466965 0
M  V30 7218 O 678.645 1.72094 0.270042 0
M  V30 7219 C 675.777 3.38339 0.417053 0
M  V30 7220 H 676.97 2.71926 -1.26477 0
M  V30 7221 H 674.523 1.40098 -0.692986 0
M  V30 7222 H 675.258 2.97339 1.29461 0
M  V30 7223 H 675.043 3.91542 -0.209102 0
M  V30 7224 H 676.533 4.10578 0.762602 0
M  V30 7225 N 676.97 0.677563 1.42291 0
M  V30 7226 C 677.917 0.000947061 2.308 0
M  V30 7227 C 678.887 -0.789889 1.46116 0
M  V30 7228 O 680.072 -0.761578 1.74942 0
M  V30 7229 C 677.212 -0.942387 3.31984 0
M  V30 7230 C 676.325 -0.14508 4.31756 0
M  V30 7231 C 675.46 -1.08442 5.20013 0
M  V30 7232 C 674.499 -0.278958 6.11464 0
M  V30 7233 N 673.636 -1.17115 6.92263 0
M  V30 7234 H 678.476 0.761521 2.88106 0
M  V30 7235 H 676.013 0.38727 1.41911 0
M  V30 7236 H 677.971 -1.50317 3.89179 0
M  V30 7237 H 676.601 -1.66956 2.76271 0
M  V30 7238 H 675.653 0.532368 3.76656 0
M  V30 7239 H 676.965 0.48015 4.96484 0
M  V30 7240 H 676.119 -1.71504 5.81955 0
M  V30 7241 H 674.858 -1.74353 4.55469 0
M  V30 7242 H 673.863 0.364856 5.48588 0
M  V30 7243 H 675.088 0.376099 6.78058 0
M  V30 7244 H 673.034 -1.81661 6.30345 0
M  V30 7245 H 672.951 -0.601063 7.53607 0
M  V30 7246 H 674.219 -1.78915 7.58689 0
M  V30 7247 N 678.448 -1.51871 0.421078 0
M  V30 7248 C 679.676 -2.06356 -0.14994 0
M  V30 7249 C 680.091 -1.29006 -1.37851 0
M  V30 7250 O 679.448 -0.345139 -1.79207 0
M  V30 7251 C 679.499 -3.58185 -0.488454 0
M  V30 7252 O 679.22 -4.32611 0.691341 0
M  V30 7253 C 680.721 -4.29129 -1.11191 0
M  V30 7254 H 677.941 -0.67083 -0.0151186 0
M  V30 7255 H 680.485 -1.95638 0.595476 0
M  V30 7256 H 678.64 -3.68871 -1.18376 0
M  V30 7257 H 679.054 -5.22927 0.405906 0
M  V30 7258 H 680.528 -5.36501 -1.29889 0
M  V30 7259 H 681.005 -3.86371 -2.0884 0
M  V30 7260 H 681.611 -4.22843 -0.456458 0
M  V30 7261 N 679.926 -0.151884 -1.56866 0
M  V30 7262 C 680.858 0.817008 -2.14144 0
M  V30 7263 C 681.871 1.20735 -1.0921 0
M  V30 7264 O 683.06 1.15058 -1.36469 0
M  V30 7265 C 680.16 2.10844 -2.65326 0
M  V30 7266 C 679.333 1.88471 -3.94712 0
M  V30 7267 C 678.392 3.01649 -4.31155 0
M  V30 7268 O 677.418 2.73127 -4.9939 0
M  V30 7269 N 678.62 4.28947 -3.91132 0
M  V30 7270 H 681.385 0.327448 -2.97906 0
M  V30 7271 H 678.946 0.0315313 -1.61869 0
M  V30 7272 H 680.938 2.85616 -2.86715 0
M  V30 7273 H 679.508 2.51049 -1.86262 0
M  V30 7274 H 678.728 0.977088 -3.81899 0
M  V30 7275 H 680.016 1.70866 -4.79252 0
M  V30 7276 H 679.414 4.54986 -3.36161 0
M  V30 7277 H 677.971 5.00484 -4.17563 0
M  V30 7278 N 681.404 1.57128 0.121893 0
M  V30 7279 C 682.632 1.88883 0.844451 0
M  V30 7280 C 683.047 0.742824 1.73573 0
M  V30 7281 O 682.404 -0.286475 1.80238 0
M  V30 7282 C 682.455 3.20076 1.68029 0
M  V30 7283 O 682.176 4.30264 0.824898 0
M  V30 7284 C 683.677 3.65515 2.50826 0
M  V30 7285 H 680.897 0.62549 0.242907 0
M  V30 7286 H 683.441 2.04219 0.107151 0
M  V30 7287 H 681.596 3.06418 2.37038 0
M  V30 7288 H 682.01 5.05439 1.40113 0
M  V30 7289 H 683.484 4.60081 3.05008 0
M  V30 7290 H 683.961 2.92029 3.28048 0
M  V30 7291 H 684.567 3.81952 1.87064 0
M  V30 7292 N 682.882 -0.391992 1.52647 0
M  V30 7293 C 684.128 -1.139 1.67793 0
M  V30 7294 C 684.461 -1.89711 0.41514 0
M  V30 7295 O 683.736 -1.85431 -0.586979 0
M  V30 7296 C 684.019 -2.11966 2.91105 0
M  V30 7297 C 683.872 -1.39939 4.27478 0
M  V30 7298 C 685.191 -3.1243 3.09961 0
M  V30 7299 H 682.31 -0.412707 0.610608 0
M  V30 7300 H 684.952 -0.422725 1.85238 0
M  V30 7301 H 683.102 -2.73048 2.76364 0
M  V30 7302 H 684.774 -0.818439 4.53982 0
M  V30 7303 H 683.017 -0.701246 4.28095 0
M  V30 7304 H 683.688 -2.1158 5.09841 0
M  V30 7305 H 686.164 -2.61435 3.23714 0
M  V30 7306 H 685.04 -3.78294 3.97725 0
M  V30 7307 H 685.301 -3.81127 2.24042 0
M  V30 7308 N 684.36 -1.4356 -0.65026 0
M  V30 7309 C 685.293 -1.434 -1.77515 0
M  V30 7310 C 686.271 -0.295082 -1.599 0
M  V30 7311 O 687.455 -0.489128 -1.82043 0
M  V30 7312 C 684.582 -1.2484 -3.14853 0
M  V30 7313 C 683.628 -2.42046 -3.51163 0
M  V30 7314 S 684.461 -4.04595 -3.50803 0
M  V30 7315 C 685.617 -3.88424 -4.90793 0
M  V30 7316 H 685.85 -2.38586 -1.77381 0
M  V30 7317 H 683.383 -1.30627 -0.823169 0
M  V30 7318 H 685.341 -1.14819 -3.94115 0
M  V30 7319 H 684.002 -0.311977 -3.12547 0
M  V30 7320 H 683.195 -2.24873 -4.51052 0
M  V30 7321 H 682.797 -2.48708 -2.79321 0
M  V30 7322 H 685.089 -3.50932 -5.79528 0
M  V30 7323 H 686.032 -4.88076 -5.13018 0
M  V30 7324 H 686.44 -3.20829 -4.64467 0
M  V30 7325 N 685.838 0.888903 -1.30139 0
M  V30 7326 C 687.068 1.67115 -1.21474 0
M  V30 7327 C 687.476 1.87852 0.225472 0
M  V30 7328 O 686.819 1.42324 1.16145 0
M  V30 7329 C 686.881 3.0713 -1.86846 0
M  V30 7330 C 686.545 3.09582 -3.36167 0
M  V30 7331 C 687.542 2.88929 -4.32222 0
M  V30 7332 C 685.227 3.31304 -3.77549 0
M  V30 7333 C 687.221 2.89949 -5.67634 0
M  V30 7334 C 684.908 3.31954 -5.13079 0
M  V30 7335 C 685.906 3.113 -6.07932 0
M  V30 7336 O 685.594 3.11758 -7.40987 0
M  V30 7337 H 685.326 0.528372 -0.421662 0
M  V30 7338 H 687.88 1.11919 -1.7223 0
M  V30 7339 H 686.11 3.63973 -1.30615 0
M  V30 7340 H 687.799 3.6749 -1.72354 0
M  V30 7341 H 688.565 2.71948 -4.01584 0
M  V30 7342 H 684.444 3.46417 -3.04165 0
M  V30 7343 H 687.988 2.73746 -6.41645 0
M  V30 7344 H 683.885 3.48469 -5.43359 0
M  V30 7345 H 684.653 3.27951 -7.49927 0
M  V30 7346 N 687.317 1.12792 1.10072 0
M  V30 7347 C 688.594 0.796867 1.78632 0
M  V30 7348 C 688.974 -0.712739 1.98704 0
M  V30 7349 O 688.322 -1.64773 1.5831 0
M  V30 7350 C 688.532 1.57622 3.11378 0
M  V30 7351 C 689.88 1.76463 3.86194 0
M  V30 7352 O 690.904 1.54165 3.2111 0
M  V30 7353 O 689.763 2.13623 5.03018 0
M  V30 7354 H 686.857 0.290248 0.774394 0
M  V30 7355 H 689.403 1.23215 1.16688 0
M  V30 7356 H 688.175 2.60246 2.92212 0
M  V30 7357 H 687.798 1.13543 3.81043 0
M  V30 7358 N 688.795 -1.27931 0.920396 0
M  V30 7359 C 689.725 -2.29487 0.431024 0
M  V30 7360 C 690.706 -1.62435 -0.504861 0
M  V30 7361 O 691.891 -1.89797 -0.411176 0
M  V30 7362 C 689.021 -3.45788 -0.323709 0
M  V30 7363 C 687.975 -4.24784 0.523658 0
M  V30 7364 C 687.301 -5.33488 -0.359809 0
M  V30 7365 C 688.601 -4.90874 1.78437 0
M  V30 7366 H 690.295 -2.70671 1.27975 0
M  V30 7367 H 687.841 -1.30121 0.616813 0
M  V30 7368 H 689.794 -4.15927 -0.676952 0
M  V30 7369 H 688.518 -3.03502 -1.2064 0
M  V30 7370 H 687.177 -3.56382 0.85951 0
M  V30 7371 H 686.825 -4.87445 -1.24124 0
M  V30 7372 H 686.525 -5.87247 0.203605 0
M  V30 7373 H 688.049 -6.06472 -0.708787 0
M  V30 7374 H 689.463 -5.53339 1.49963 0
M  V30 7375 H 687.86 -5.54659 2.29071 0
M  V30 7376 H 688.93 -4.14988 2.50824 0
M  V30 7377 N 690.273 -0.685099 -1.4193 0
M  V30 7378 C 691.519 -0.211971 -2.01689 0
M  V30 7379 C 691.852 1.18189 -1.54094 0
M  V30 7380 O 691.127 1.79559 -0.747572 0
M  V30 7381 C 691.41 -0.258019 -3.59174 0
M  V30 7382 C 691.263 -1.68807 -4.16922 0
M  V30 7383 C 692.582 0.388044 -4.38386 0
M  V30 7384 H 689.701 -0.0784987 -0.732808 0
M  V30 7385 H 692.343 -0.871837 -1.68816 0
M  V30 7386 H 690.493 0.303832 -3.8731 0
M  V30 7387 H 692.165 -2.30296 -3.99702 0
M  V30 7388 H 690.408 -2.22553 -3.72361 0
M  V30 7389 H 691.079 -1.6719 -5.26072 0
M  V30 7390 H 693.555 -0.0903432 -4.16002 0
M  V30 7391 H 692.431 0.325232 -5.47936 0
M  V30 7392 H 692.692 1.4672 -4.17044 0
M  V30 7393 N 691.751 1.51645 -0.429126 0
M  V30 7394 C 692.976 2.06917 0.141399 0
M  V30 7395 C 693.401 1.29527 1.36398 0
M  V30 7396 O 692.759 0.33094 1.78254 0
M  V30 7397 C 692.807 3.57776 0.4504 0
M  V30 7398 O 691.911 3.82639 1.53821 0
M  V30 7399 H 691.252 0.663978 0.0054647 0
M  V30 7400 H 693.782 1.95355 -0.608093 0
M  V30 7401 H 693.792 4.01894 0.703249 0
M  V30 7402 H 692.467 4.13532 -0.443213 0
M  V30 7403 H 691.044 3.5039 1.27597 0
M  V30 7404 N 693.229 0.160201 1.56784 0
M  V30 7405 C 694.139 -0.787167 2.21 0
M  V30 7406 C 695.155 -1.26167 1.19825 0
M  V30 7407 O 696.331 -1.31611 1.52448 0
M  V30 7408 C 693.396 -2.00364 2.8294 0
M  V30 7409 C 692.457 -1.5771 3.99282 0
M  V30 7410 C 691.69 -2.73558 4.58259 0
M  V30 7411 O 691.913 -3.90129 4.16119 0
M  V30 7412 O 690.847 -2.48271 5.48311 0
M  V30 7413 H 694.673 -0.270462 3.02493 0
M  V30 7414 H 692.258 -0.0674666 1.49248 0
M  V30 7415 H 694.14 -2.71529 3.22257 0
M  V30 7416 H 692.815 -2.50961 2.04451 0
M  V30 7417 H 691.722 -0.835274 3.64656 0
M  V30 7418 H 693.055 -1.11815 4.79331 0
M  V30 7419 N 694.707 -1.5719 -0.113559 0
M  V30 7420 C 695.637 -2.03772 -1.14013 0
M  V30 7421 C 696.618 -0.923176 -1.42869 0
M  V30 7422 O 697.803 -1.19325 -1.53216 0
M  V30 7423 C 694.933 -2.44663 -2.4649 0
M  V30 7424 C 693.887 -3.59612 -2.32085 0
M  V30 7425 C 693.213 -3.8642 -3.69573 0
M  V30 7426 C 694.513 -4.91149 -1.7768 0
M  V30 7427 H 696.207 -2.89785 -0.752665 0
M  V30 7428 H 693.753 -1.39412 -0.360609 0
M  V30 7429 H 695.706 -2.75857 -3.18561 0
M  V30 7430 H 694.43 -1.55628 -2.87137 0
M  V30 7431 H 693.089 -3.28636 -1.62461 0
M  V30 7432 H 692.737 -2.94581 -4.07715 0
M  V30 7433 H 692.437 -4.63797 -3.60786 0
M  V30 7434 H 693.961 -4.2007 -4.4314 0
M  V30 7435 H 695.375 -5.20843 -2.39574 0
M  V30 7436 H 693.772 -5.72562 -1.79701 0
M  V30 7437 H 694.842 -4.79301 -0.734776 0
M  V30 7438 N 696.185 0.383891 -1.52853 0
M  V30 7439 C 697.135 1.46892 -1.74375 0
M  V30 7440 C 698.119 1.49378 -0.597909 0
M  V30 7441 O 699.311 1.54929 -0.855929 0
M  V30 7442 C 696.44 2.84547 -1.92063 0
M  V30 7443 C 695.526 2.8661 -3.12594 0
M  V30 7444 N 695.917 2.58339 -4.3485 0
M  V30 7445 C 694.215 3.17777 -3.12944 0
M  V30 7446 C 694.916 2.67616 -5.16485 0
M  V30 7447 N 693.892 3.01561 -4.52285 0
M  V30 7448 H 697.694 1.23869 -2.66522 0
M  V30 7449 H 695.208 0.591895 -1.51229 0
M  V30 7450 H 697.205 3.62674 -2.05604 0
M  V30 7451 H 695.865 3.08549 -1.01133 0
M  V30 7452 H 696.876 2.32266 -4.62896 0
M  V30 7453 H 693.553 3.47211 -2.31842 0
M  V30 7454 H 694.943 2.4926 -6.23955 0
M  V30 7455 N 697.663 1.43903 0.642637 0
M  V30 7456 C 698.626 1.49538 1.73698 0
M  V30 7457 C 699.626 0.378776 1.56275 0
M  V30 7458 O 700.816 0.64095 1.6198 0
M  V30 7459 C 697.948 1.35821 3.12675 0
M  V30 7460 H 699.141 2.47008 1.70079 0
M  V30 7461 H 696.694 1.30824 0.85526 0
M  V30 7462 H 697.429 0.393994 3.21898 0
M  V30 7463 H 697.214 2.16776 3.26727 0
M  V30 7464 H 698.704 1.4272 3.92455 0
M  V30 7465 N 699.141 -0.881989 1.30609 0
M  V30 7466 C 700.073 -1.99375 1.13058 0
M  V30 7467 C 701.086 -1.62636 0.0729879 0
M  V30 7468 O 702.275 -1.75621 0.319301 0
M  V30 7469 C 699.375 -3.31536 0.702651 0
M  V30 7470 C 698.548 -3.96693 1.84265 0
M  V30 7471 C 697.607 -5.07158 1.40277 0
M  V30 7472 O 696.633 -5.28628 2.11048 0
M  V30 7473 N 697.835 -5.79808 0.283449 0
M  V30 7474 H 700.6 -2.14981 2.08814 0
M  V30 7475 H 698.161 -1.05526 1.22784 0
M  V30 7476 H 700.153 -4.02804 0.391331 0
M  V30 7477 H 698.723 -3.12175 -0.162954 0
M  V30 7478 H 697.943 -3.1856 2.32192 0
M  V30 7479 H 699.231 -4.36964 2.60653 0
M  V30 7480 H 698.629 -5.64871 -0.306189 0
M  V30 7481 H 697.186 -6.51792 0.0315985 0
M  V30 7482 N 700.619 -1.13374 -1.09472 0
M  V30 7483 C 701.569 -0.77946 -2.14263 0
M  V30 7484 C 702.553 0.226271 -1.59301 0
M  V30 7485 O 703.745 0.0302581 -1.76974 0
M  V30 7486 C 700.874 -0.246635 -3.42413 0
M  V30 7487 C 699.96 -1.28124 -4.04283 0
M  V30 7488 N 700.351 -2.48201 -4.40715 0
M  V30 7489 C 698.649 -1.12892 -4.31476 0
M  V30 7490 C 699.35 -3.14347 -4.8945 0
M  V30 7491 N 698.326 -2.41771 -4.86876 0
M  V30 7492 H 702.128 -1.69305 -2.40235 0
M  V30 7493 H 699.642 -1.01598 -1.26695 0
M  V30 7494 H 701.639 0.0254131 -4.16892 0
M  V30 7495 H 700.299 0.661287 -3.17895 0
M  V30 7496 H 701.31 -2.85511 -4.32093 0
M  V30 7497 H 697.987 -0.279117 -4.16566 0
M  V30 7498 H 699.377 -4.16663 -5.27107 0
M  V30 7499 N 702.098 1.27442 -0.927168 0
M  V30 7500 C 703.008 2.30599 -0.431448 0
M  V30 7501 C 704.024 1.67028 0.48761 0
M  V30 7502 O 705.2 1.97962 0.370546 0
M  V30 7503 C 702.265 3.45327 0.308292 0
M  V30 7504 C 701.326 4.24418 -0.645615 0
M  V30 7505 C 700.559 5.33667 0.0589164 0
M  V30 7506 O 700.782 5.5589 1.27838 0
M  V30 7507 O 699.716 5.98774 -0.612638 0
M  V30 7508 H 703.542 2.75036 -1.28797 0
M  V30 7509 H 701.127 1.32382 -0.692495 0
M  V30 7510 H 703.009 4.15107 0.725555 0
M  V30 7511 H 701.684 3.02945 1.14043 0
M  V30 7512 H 700.591 3.57174 -1.11255 0
M  V30 7513 H 701.924 4.70512 -1.44496 0
M  V30 7514 N 703.576 0.692616 1.41565 0
M  V30 7515 C 704.486 0.0258451 2.34586 0
M  V30 7516 C 705.502 -0.769324 1.56069 0
M  V30 7517 O 706.678 -0.707563 1.88562 0
M  V30 7518 C 703.743 -0.901289 3.3478 0
M  V30 7519 C 702.804 -0.0986579 4.29187 0
M  V30 7520 C 702.037 -0.981634 5.24595 0
M  V30 7521 O 702.26 -2.22115 5.25377 0
M  V30 7522 O 701.194 -0.432892 6.00341 0
M  V30 7523 H 705.02 0.792537 2.93177 0
M  V30 7524 H 702.605 0.452935 1.42369 0
M  V30 7525 H 704.487 -1.43302 3.96286 0
M  V30 7526 H 703.162 -1.64752 2.78637 0
M  V30 7527 H 702.069 0.477604 3.71039 0
M  V30 7528 H 703.402 0.608848 4.8842 0
M  V30 7529 N 705.054 -1.51416 0.437162 0
M  V30 7530 C 705.984 -2.30631 -0.364922 0
M  V30 7531 C 706.965 -1.36037 -1.02118 0
M  V30 7532 O 708.15 -1.64956 -1.02485 0
M  V30 7533 C 705.28 -3.1482 -1.46648 0
M  V30 7534 C 704.234 -4.17691 -0.933717 0
M  V30 7535 C 703.56 -4.904 -2.13101 0
M  V30 7536 C 704.86 -5.2229 0.0317201 0
M  V30 7537 H 706.554 -2.97932 0.29614 0
M  V30 7538 H 704.1 -1.4328 0.143865 0
M  V30 7539 H 706.053 -3.69017 -2.03481 0
M  V30 7540 H 704.777 -2.4534 -2.15583 0
M  V30 7541 H 703.436 -3.64545 -0.387602 0
M  V30 7542 H 703.084 -4.17423 -2.80654 0
M  V30 7543 H 702.784 -5.59962 -1.78092 0
M  V30 7544 H 704.308 -5.4742 -2.70487 0
M  V30 7545 H 705.722 -5.7156 -0.446302 0
M  V30 7546 H 704.119 -5.99378 0.29437 0
M  V30 7547 H 705.189 -4.75131 0.968447 0
M  V30 7548 N 706.532 -0.168513 -1.56696 0
M  V30 7549 C 707.442 0.775435 -2.21414 0
M  V30 7550 C 708.458 1.25529 -1.20492 0
M  V30 7551 O 709.634 1.30801 -1.53144 0
M  V30 7552 C 706.699 1.9886 -2.83999 0
M  V30 7553 C 705.76 1.5559 -4.00113 0
M  V30 7554 C 704.993 2.71124 -4.59704 0
M  V30 7555 O 705.216 3.87917 -4.18182 0
M  V30 7556 O 704.15 2.4536 -5.4962 0
M  V30 7557 H 707.976 0.254416 -3.02632 0
M  V30 7558 H 705.561 0.0595507 -1.49281 0
M  V30 7559 H 707.443 2.69816 -3.23693 0
M  V30 7560 H 706.118 2.49874 -2.05779 0
M  V30 7561 H 705.025 0.815924 -3.65094 0
M  V30 7562 H 706.358 1.09271 -4.79917 0
M  V30 7563 N 708.01 1.57248 0.105221 0
M  V30 7564 C 708.973 2.00388 1.11252 0
M  V30 7565 C 709.973 0.89594 1.33527 0
M  V30 7566 O 711.163 1.16166 1.29811 0
M  V30 7567 C 708.295 2.35589 2.46395 0
M  V30 7568 H 709.488 2.90591 0.741424 0
M  V30 7569 H 707.041 1.52332 0.349956 0
M  V30 7570 H 707.776 1.4831 2.884 0
M  V30 7571 H 707.561 3.16408 2.31578 0
M  V30 7572 H 709.051 2.69658 3.18864 0
M  V30 7573 N 709.488 -0.375779 1.53054 0
M  V30 7574 C 710.904 -0.716764 1.426 0
M  V30 7575 C 711.104 -1.93651 0.556931 0
M  V30 7576 O 710.16 -2.52475 0.0354461 0
M  V30 7577 C 711.473 -0.939499 2.85646 0
M  V30 7578 C 713.021 -1.04015 2.95212 0
M  V30 7579 C 713.496 -1.29543 4.39298 0
M  V30 7580 N 714.987 -1.36335 4.42682 0
M  V30 7581 C 715.722 -1.57778 5.51266 0
M  V30 7582 N 715.218 -1.76604 6.69913 0
M  V30 7583 N 717.011 -1.60065 5.38828 0
M  V30 7584 H 709.162 0.42664 2.08071 0
M  V30 7585 H 711.425 0.128758 0.939215 0
M  V30 7586 H 711.131 -0.115189 3.51511 0
M  V30 7587 H 711.005 -1.85048 3.2869 0
M  V30 7588 H 713.392 -1.85501 2.29507 0
M  V30 7589 H 713.473 -0.106785 2.55577 0
M  V30 7590 H 713.117 -0.485611 5.05573 0
M  V30 7591 H 713.047 -2.24184 4.76497 0
M  V30 7592 H 715.538 -1.23441 3.5717 0
M  V30 7593 H 715.851 -1.9251 7.48438 0
M  V30 7594 H 714.196 -1.73802 6.72917 0
M  V30 7595 H 717.387 -1.44917 4.45103 0
M  V30 7596 H 717.56 -1.76435 6.23518 0
M  V30 7597 N 710.966 -1.44241 -0.634997 0
M  V30 7598 C 711.896 -1.53632 -1.7584 0
M  V30 7599 C 712.877 -0.389603 -1.65578 0
M  V30 7600 O 714.062 -0.609219 -1.84397 0
M  V30 7601 C 711.192 -1.47644 -3.14354 0
M  V30 7602 C 710.146 -2.60752 -3.394 0
M  V30 7603 C 709.472 -2.39817 -4.77904 0
M  V30 7604 C 710.772 -4.02921 -3.32343 0
M  V30 7605 H 712.466 -2.47662 -1.68238 0
M  V30 7606 H 710.012 -1.19197 -0.807969 0
M  V30 7607 H 711.965 -1.52815 -3.92716 0
M  V30 7608 H 710.689 -0.501284 -3.2273 0
M  V30 7609 H 709.348 -2.54965 -2.63417 0
M  V30 7610 H 708.996 -1.40502 -4.82978 0
M  V30 7611 H 708.696 -3.15649 -4.9562 0
M  V30 7612 H 710.22 -2.46799 -5.585 0
M  V30 7613 H 711.634 -4.10098 -4.00615 0
M  V30 7614 H 710.031 -4.78925 -3.61595 0
M  V30 7615 H 711.101 -4.26766 -2.30215 0
M  V30 7616 N 712.444 0.87505 -1.31075 0
M  V30 7617 C 713.407 1.96333 -1.18263 0
M  V30 7618 C 714.407 1.60416 -0.111106 0
M  V30 7619 O 715.597 1.7044 -0.359987 0
M  V30 7620 C 712.729 3.31036 -0.81414 0
M  V30 7621 H 713.922 2.09125 -2.14958 0
M  V30 7622 H 711.475 1.06271 -1.14614 0
M  V30 7623 H 712.21 3.23944 0.151875 0
M  V30 7624 H 711.995 3.58476 -1.58862 0
M  V30 7625 H 713.485 4.10842 -0.748249 0
M  V30 7626 N 713.922 1.13953 1.08869 0
M  V30 7627 C 715.15 0.92817 1.84912 0
M  V30 7628 C 715.565 -0.523197 1.81406 0
M  V30 7629 O 714.922 -1.36237 1.21432 0
M  V30 7630 C 714.973 1.41509 3.32652 0
M  V30 7631 O 714.694 2.80959 3.36145 0
M  V30 7632 C 716.195 1.243 4.25517 0
M  V30 7633 H 713.415 0.330612 0.583898 0
M  V30 7634 H 715.959 1.51349 1.37527 0
M  V30 7635 H 714.114 0.872648 3.77444 0
M  V30 7636 H 714.528 3.02704 4.28335 0
M  V30 7637 H 716.002 1.63237 5.27312 0
M  V30 7638 H 716.479 0.18532 4.38809 0
M  V30 7639 H 717.085 1.77375 3.86546 0
M  V30 7640 N 715.4 -1.26948 0.933913 0
M  V30 7641 C 716.33 -2.29017 0.45534 0
M  V30 7642 C 717.311 -1.62961 -0.487605 0
M  V30 7643 O 718.496 -1.90223 -0.391022 0
M  V30 7644 C 715.626 -3.46112 -0.287015 0
M  V30 7645 C 714.58 -4.24205 0.568682 0
M  V30 7646 C 713.906 -5.3384 -0.303206 0
M  V30 7647 C 715.206 -4.88954 1.83633 0
M  V30 7648 H 716.9 -2.69298 1.30839 0
M  V30 7649 H 714.446 -1.29459 0.630579 0
M  V30 7650 H 716.399 -4.16622 -0.6328 0
M  V30 7651 H 715.123 -3.04765 -1.17414 0
M  V30 7652 H 713.782 -3.5545 0.897261 0
M  V30 7653 H 713.43 -4.88734 -1.18947 0
M  V30 7654 H 713.13 -5.86998 0.265879 0
M  V30 7655 H 714.654 -6.0719 -0.644423 0
M  V30 7656 H 716.068 -5.51717 1.55823 0
M  V30 7657 H 714.465 -5.52198 2.34941 0
M  V30 7658 H 715.535 -4.12305 2.55211 0
M  V30 7659 N 716.879 -0.700114 -1.41195 0
M  V30 7660 C 717.789 -0.0382854 -2.34569 0
M  V30 7661 C 718.805 0.761036 -1.56474 0
M  V30 7662 O 719.981 0.697553 -1.88934 0
M  V30 7663 C 717.046 0.883522 -3.35253 0
M  V30 7664 C 716.107 0.0758957 -4.29233 0
M  V30 7665 C 715.34 0.9538 -5.25108 0
M  V30 7666 O 715.563 2.19326 -5.26547 0
M  V30 7667 O 714.497 0.401049 -6.00562 0
M  V30 7668 H 718.323 -0.808073 -2.92752 0
M  V30 7669 H 715.908 -0.460479 -1.42127 0
M  V30 7670 H 717.79 1.41199 -3.9704 0
M  V30 7671 H 716.465 1.63272 -2.79506 0
M  V30 7672 H 715.372 -0.497274 -3.7078 0
M  V30 7673 H 716.705 -0.634741 -4.8809 0
M  V30 7674 N 718.357 1.51182 -0.445186 0
M  V30 7675 C 719.582 2.07056 0.119445 0
M  V30 7676 C 720.007 1.30966 1.35016 0
M  V30 7677 O 719.365 0.349827 1.77893 0
M  V30 7678 C 719.413 3.58234 0.412428 0
M  V30 7679 O 718.517 3.84249 1.49754 0
M  V30 7680 H 717.858 0.663998 -0.00157797 0
M  V30 7681 H 720.388 1.94699 -0.628779 0
M  V30 7682 H 720.398 4.02617 0.660583 0
M  V30 7683 H 719.073 4.13038 -0.487049 0
M  V30 7684 H 717.65 3.51724 1.23873 0
M  V30 7685 N 719.835 0.176821 1.56605 0
M  V30 7686 C 721.251 -0.179278 1.5859 0
M  V30 7687 C 721.451 -1.62433 1.19238 0
M  V30 7688 O 720.507 -2.35665 0.906552 0
M  V30 7689 C 721.82 0.106524 3.00511 0
M  V30 7690 C 723.368 0.0451731 3.12967 0
M  V30 7691 C 723.843 0.304038 4.5699 0
M  V30 7692 N 725.334 0.252008 4.62514 0
M  V30 7693 C 726.069 0.426404 5.71812 0
M  V30 7694 N 725.565 0.660155 6.89648 0
M  V30 7695 N 727.358 0.361926 5.60934 0
M  V30 7696 H 719.509 1.12001 1.8047 0
M  V30 7697 H 721.772 0.445679 0.836704 0
M  V30 7698 H 721.478 1.10778 3.33798 0
M  V30 7699 H 721.352 -0.599337 3.72408 0
M  V30 7700 H 723.739 -0.946662 2.79504 0
M  V30 7701 H 723.82 0.78383 2.43495 0
M  V30 7702 H 723.464 1.29311 4.91163 0
M  V30 7703 H 723.394 -0.455294 5.24628 0
M  V30 7704 H 725.885 0.0772102 3.77821 0
M  V30 7705 H 726.198 0.782529 7.68828 0
M  V30 7706 H 724.543 0.696835 6.91498 0
M  V30 7707 H 727.734 0.17986 4.67754 0
M  V30 7708 H 727.907 0.501263 6.46058 0
M  V30 7709 N 721.313 -1.57302 -0.09688 0
M  V30 7710 C 722.243 -2.0497 -1.11846 0
M  V30 7711 C 723.224 -0.938278 -1.41882 0
M  V30 7712 O 724.409 -1.20943 -1.51942 0
M  V30 7713 C 721.539 -2.47264 -2.43881 0
M  V30 7714 C 720.493 -3.62053 -2.28257 0
M  V30 7715 C 719.819 -3.90318 -3.65453 0
M  V30 7716 C 721.119 -4.93005 -1.72461 0
M  V30 7717 H 722.813 -2.90567 -0.721888 0
M  V30 7718 H 720.359 -1.39786 -0.345803 0
M  V30 7719 H 722.312 -2.7922 -3.15617 0
M  V30 7720 H 721.036 -1.58664 -2.8547 0
M  V30 7721 H 719.695 -3.30341 -1.58967 0
M  V30 7722 H 719.343 -2.98889 -4.04567 0
M  V30 7723 H 719.043 -4.67597 -3.55846 0
M  V30 7724 H 720.567 -4.24747 -4.3866 0
M  V30 7725 H 721.981 -5.23354 -2.34036 0
M  V30 7726 H 720.378 -5.74436 -1.73618 0
M  V30 7727 H 721.448 -4.80053 -0.683898 0
M  V30 7728 N 722.791 0.367657 -1.53252 0
M  V30 7729 C 724.068 1.12606 -1.59935 0
M  V30 7730 C 724.448 2.07167 -0.405606 0
M  V30 7731 O 723.796 2.20364 0.604323 0
M  V30 7732 C 724.006 1.86699 -2.94863 0
M  V30 7733 C 725.354 2.41306 -3.49366 0
M  V30 7734 O 726.378 1.96828 -2.96879 0
M  V30 7735 O 725.237 3.2261 -4.41118 0
M  V30 7736 H 722.331 0.516438 -0.645926 0
M  V30 7737 H 724.877 0.371088 -1.65593 0
M  V30 7738 H 723.649 1.17674 -3.73187 0
M  V30 7739 H 723.272 2.6911 -2.92687 0
M  V30 7740 N 724.269 1.44576 0.627338 0
M  V30 7741 C 725.232 1.51372 1.72102 0
M  V30 7742 C 726.232 0.395329 1.55865 0
M  V30 7743 O 727.422 0.658094 1.61291 0
M  V30 7744 C 724.554 1.39129 3.11217 0
M  V30 7745 H 725.747 2.48798 1.6745 0
M  V30 7746 H 723.3 1.31724 0.841336 0
M  V30 7747 H 724.035 0.428114 3.21462 0
M  V30 7748 H 723.82 2.20229 3.24409 0
M  V30 7749 H 725.31 1.46874 3.90919 0
M  V30 7750 N 725.747 -0.868086 1.31537 0
M  V30 7751 C 726.677 -1.99131 1.21939 0
M  V30 7752 C 727.658 -1.69768 0.106166 0
M  V30 7753 O 728.843 -1.92006 0.291081 0
M  V30 7754 C 725.973 -3.34676 0.927879 0
M  V30 7755 C 724.927 -3.7835 2.00088 0
M  V30 7756 C 724.253 -5.11375 1.56203 0
M  V30 7757 C 725.553 -3.95256 3.41424 0
M  V30 7758 H 727.247 -2.07419 2.15911 0
M  V30 7759 H 724.793 -0.996569 1.03945 0
M  V30 7760 H 726.746 -4.12793 0.847327 0
M  V30 7761 H 725.47 -3.26565 -0.0475042 0
M  V30 7762 H 724.129 -3.02474 2.07135 0
M  V30 7763 H 723.777 -4.99709 0.57445 0
M  V30 7764 H 723.477 -5.41568 2.27985 0
M  V30 7765 H 725.001 -5.92001 1.49558 0
M  V30 7766 H 726.415 -4.63764 3.3704 0
M  V30 7767 H 724.812 -4.36849 4.1144 0
M  V30 7768 H 725.882 -2.98579 3.82072 0
M  V30 7769 N 727.225 -1.14528 -1.08264 0
M  V30 7770 C 728.473 -0.912599 -1.80322 0
M  V30 7771 C 728.794 0.562256 -1.86718 0
M  V30 7772 O 728.064 1.40869 -1.36135 0
M  V30 7773 H 726.644 -0.334645 -0.667849 0
M  V30 7774 H 729.306 -1.44415 -1.30883 0
M  V30 7775 H 728.402 -1.31384 -2.83098 0
M  V30 7776 N 728.703 1.26451 -0.940633 0
M  V30 7777 C 729.666 2.24651 -0.454378 0
M  V30 7778 C 730.666 1.54826 0.434222 0
M  V30 7779 O 731.856 1.72628 0.233477 0
M  V30 7780 C 728.988 3.39148 0.345192 0
M  V30 7781 H 730.181 2.69182 -1.32217 0
M  V30 7782 H 727.734 1.38596 -0.722547 0
M  V30 7783 H 728.469 3.00018 1.23125 0
M  V30 7784 H 728.254 3.9101 -0.292107 0
M  V30 7785 H 729.744 4.12103 0.675341 0
M  V30 7786 N 730.181 0.707592 1.40822 0
M  V30 7787 C 731.406 0.251626 2.05868 0
M  V30 7788 C 731.831 -1.09503 1.5294 0
M  V30 7789 O 731.189 -1.68806 0.661385 0
M  V30 7790 C 731.237 0.23287 3.59847 0
M  V30 7791 O 730.341 -0.788477 4.04792 0
M  V30 7792 H 729.682 0.119936 0.653078 0
M  V30 7793 H 732.212 0.96583 1.80369 0
M  V30 7794 H 732.222 0.0678204 4.07944 0
M  V30 7795 H 730.897 1.21565 3.97737 0
M  V30 7796 H 729.474 -0.591802 3.68174 0
M  V30 7797 N 731.66 -1.50943 0.453197 0
M  V30 7798 C 732.59 -2.31005 -0.34044 0
M  V30 7799 C 733.571 -1.37112 -1.00669 0
M  V30 7800 O 734.756 -1.66033 -1.0073 0
M  V30 7801 C 731.886 -3.16358 -1.433 0
M  V30 7802 C 730.84 -4.18658 -0.889363 0
M  V30 7803 C 730.166 -4.92633 -2.07887 0
M  V30 7804 C 731.466 -5.22227 0.0871142 0
M  V30 7805 H 733.16 -2.97601 0.327723 0
M  V30 7806 H 730.706 -1.43119 0.159054 0
M  V30 7807 H 732.659 -3.71155 -1.99555 0
M  V30 7808 H 731.383 -2.47613 -2.12968 0
M  V30 7809 H 730.042 -3.64936 -0.348915 0
M  V30 7810 H 729.69 -4.20376 -2.76211 0
M  V30 7811 H 729.39 -5.61819 -1.72143 0
M  V30 7812 H 730.914 -5.50258 -2.64666 0
M  V30 7813 H 732.328 -5.72001 -0.385656 0
M  V30 7814 H 730.725 -5.99032 0.357926 0
M  V30 7815 H 731.795 -4.74077 1.01879 0
M  V30 7816 N 733.138 -0.185124 -1.56509 0
M  V30 7817 C 734.07 0.771401 -2.15829 0
M  V30 7818 C 735.083 1.18392 -1.11747 0
M  V30 7819 O 736.272 1.12137 -1.38879 0
M  V30 7820 C 733.372 2.05169 -2.69739 0
M  V30 7821 C 732.545 1.80056 -3.98621 0
M  V30 7822 C 731.604 2.92435 -4.37456 0
M  V30 7823 O 730.63 2.62473 -5.05071 0
M  V30 7824 N 731.832 4.20554 -4.00143 0
M  V30 7825 H 734.597 0.264184 -2.98533 0
M  V30 7826 H 732.158 -0.00281069 -1.619 0
M  V30 7827 H 734.15 2.7947 -2.92709 0
M  V30 7828 H 732.72 2.47041 -1.91545 0
M  V30 7829 H 731.94 0.895862 -3.83885 0
M  V30 7830 H 733.228 1.60662 -4.82768 0
M  V30 7831 H 732.626 4.47753 -3.45736 0
M  V30 7832 H 731.183 4.91514 -4.28085 0
M  V30 7833 N 734.616 1.57351 0.0885366 0
M  V30 7834 C 735.579 2.01557 1.09121 0
M  V30 7835 C 736.579 0.910052 1.3257 0
M  V30 7836 O 737.769 1.17537 1.28572 0
M  V30 7837 C 734.901 2.38189 2.43883 0
M  V30 7838 H 736.094 2.91361 0.710562 0
M  V30 7839 H 733.647 1.52694 0.333779 0
M  V30 7840 H 734.382 1.5136 2.86811 0
M  V30 7841 H 734.167 3.18846 2.28209 0
M  V30 7842 H 735.657 2.73025 3.15986 0
M  V30 7843 N 736.094 -0.359525 1.53444 0
M  V30 7844 C 737.024 -1.44662 1.8329 0
M  V30 7845 C 738.005 -1.55617 0.68683 0
M  V30 7846 O 739.19 -1.70086 0.93725 0
M  V30 7847 C 736.32 -2.81923 2.02822 0
M  V30 7848 C 735.274 -2.85787 3.18606 0
M  V30 7849 C 734.6 -4.25781 3.23442 0
M  V30 7850 C 735.9 -2.52762 4.57065 0
M  V30 7851 H 737.594 -1.19934 2.74329 0
M  V30 7852 H 735.14 -0.575517 1.31999 0
M  V30 7853 H 737.093 -3.58005 2.22285 0
M  V30 7854 H 735.817 -3.08051 1.085 0
M  V30 7855 H 734.476 -2.12157 2.98973 0
M  V30 7856 H 734.124 -4.48994 2.26745 0
M  V30 7857 H 733.824 -4.29281 4.01238 0
M  V30 7858 H 735.348 -5.03727 3.45096 0
M  V30 7859 H 736.762 -3.18557 4.76649 0
M  V30 7860 H 735.159 -2.67569 5.37147 0
M  V30 7861 H 736.229 -1.47993 4.61764 0
M  V30 7862 N 737.572 -1.44907 -0.619662 0
M  V30 7863 C 738.983 -1.42905 -1.20146 0
M  V30 7864 C 739.334 -0.150341 -1.95623 0
M  V30 7865 O 738.459 0.748732 -2.03034 0
M  V30 7866 C 739.054 -2.58889 -2.18545 0
M  V30 7867 C 737.613 -2.60046 -2.72127 0
M  V30 7868 C 736.76 -2.3493 -1.4732 0
M  V30 7869 H 739.711 -1.53321 -0.409666 0
M  V30 7870 H 739.732 -2.32298 -3.0136 0
M  V30 7871 H 739.244 -3.51941 -1.63583 0
M  V30 7872 H 737.345 -1.70968 -3.3106 0
M  V30 7873 H 737.458 -3.58893 -3.17384 0
M  V30 7874 H 735.822 -1.84248 -1.75855 0
M  V30 7875 H 736.605 -3.3011 -0.942442 0
M  V30 7876 N 739.05 0.861098 -1.31996 0
M  V30 7877 C 740.298 1.61162 -1.21947 0
M  V30 7878 C 740.619 1.93751 0.220351 0
M  V30 7879 O 739.889 1.59069 1.14341 0
M  V30 7880 H 738.469 0.597485 -0.448353 0
M  V30 7881 H 741.131 1.03039 -1.65436 0
M  V30 7882 H 740.227 2.55138 -1.79752 0
M  V30 7883 N 740.528 1.15101 1.07655 0
M  V30 7884 C 741.458 0.867864 2.16773 0
M  V30 7885 C 742.439 -0.180283 1.69142 0
M  V30 7886 O 743.624 -0.0353152 1.94168 0
M  V30 7887 C 740.754 0.35299 3.45501 0
M  V30 7888 C 739.708 1.33746 4.06566 0
M  V30 7889 C 739.034 0.681562 5.30338 0
M  V30 7890 C 740.334 2.7024 4.46954 0
M  V30 7891 H 742.028 1.78034 2.40716 0
M  V30 7892 H 739.574 0.857435 1.15689 0
M  V30 7893 H 741.527 0.142465 4.21159 0
M  V30 7894 H 740.251 -0.594945 3.21135 0
M  V30 7895 H 738.91 1.53429 3.32949 0
M  V30 7896 H 738.558 -0.272422 5.02262 0
M  V30 7897 H 738.258 1.33853 5.72151 0
M  V30 7898 H 739.782 0.48074 6.08705 0
M  V30 7899 H 741.196 2.5442 5.13754 0
M  V30 7900 H 739.593 3.32282 4.99709 0
M  V30 7901 H 740.663 3.26537 3.58471 0
M  V30 7902 N 742.006 -1.2595 0.947325 0
M  V30 7903 C 743.255 -1.92759 0.593887 0
M  V30 7904 C 743.568 -1.75083 -0.872093 0
M  V30 7905 O 744.774 -2.36401 -1.33518 0
M  V30 7906 C 743.23 -3.45395 1.01144 0
M  V30 7907 C 742.838 -3.71795 2.49946 0
M  V30 7908 C 744.582 -4.18173 0.730185 0
M  V30 7909 C 742.489 -5.17901 2.85539 0
M  V30 7910 H 741.419 -0.721676 0.218403 0
M  V30 7911 H 744.07 -1.4293 1.15079 0
M  V30 7912 H 742.452 -3.94143 0.383007 0
M  V30 7913 H 743.626 -3.33728 3.17746 0
M  V30 7914 H 741.941 -3.12263 2.75465 0
M  V30 7915 H 744.538 -5.25784 0.972367 0
M  V30 7916 H 744.881 -4.14964 -0.333223 0
M  V30 7917 H 745.414 -3.75309 1.31862 0
M  V30 7918 H 742.153 -5.26216 3.90867 0
M  V30 7919 H 741.673 -5.57042 2.22406 0
M  V30 7920 H 743.352 -5.8596 2.74336 0
M  V30 7921 N 743.484 -0.715051 -1.40445 0
M  V30 7922 C 744.447 -0.0708726 -2.2909 0
M  V30 7923 C 745.447 0.687926 -1.45342 0
M  V30 7924 O 746.637 0.519908 -1.66261 0
M  V30 7925 C 743.769 0.909528 -3.28543 0
M  V30 7926 H 744.962 -0.851611 -2.87555 0
M  V30 7927 H 742.515 -0.479674 -1.48758 0
M  V30 7928 H 743.25 1.71734 -2.75096 0
M  V30 7929 H 743.035 0.368318 -3.90366 0
M  V30 7930 H 744.525 1.35744 -3.94922 0
M  V30 7931 N 744.962 1.50701 -0.461195 0
M  V30 7932 C 745.894 2.26124 0.374244 0
M  V30 7933 C 746.907 1.31064 0.965715 0
M  V30 7934 O 748.096 1.56647 0.855801 0
M  V30 7935 C 745.196 3.01996 1.5379 0
M  V30 7936 C 744.369 4.24336 1.06101 0
M  V30 7937 C 743.428 4.82585 2.09756 0
M  V30 7938 O 742.454 5.43775 1.68219 0
M  V30 7939 N 743.656 4.68712 3.42475 0
M  V30 7940 H 746.421 2.9846 -0.2723 0
M  V30 7941 H 743.982 1.59256 -0.291415 0
M  V30 7942 H 745.974 3.37846 2.22806 0
M  V30 7943 H 744.544 2.32521 2.08933 0
M  V30 7944 H 743.764 3.93707 0.197085 0
M  V30 7945 H 745.052 5.03678 0.720156 0
M  V30 7946 H 744.45 4.20026 3.78938 0
M  V30 7947 H 743.007 5.08858 4.07317 0
M  V30 7948 N 746.441 0.193421 1.56409 0
M  V30 7949 C 747.404 -0.714371 2.17783 0
M  V30 7950 C 748.404 -1.1422 1.13183 0
M  V30 7951 O 749.594 -1.05557 1.38576 0
M  V30 7952 C 746.726 -1.97509 2.77855 0
M  V30 7953 H 747.919 -0.179714 2.99361 0
M  V30 7954 H 745.472 -0.0561944 1.56199 0
M  V30 7955 H 746.207 -2.5523 2.0007 0
M  V30 7956 H 745.992 -1.67706 3.54425 0
M  V30 7957 H 747.482 -2.62246 3.24987 0
M  V30 7958 N 747.919 -1.57396 -0.0801906 0
M  V30 7959 C 749.168 -1.8602 -0.779702 0
M  V30 7960 C 749.481 -0.784864 -1.79163 0
M  V30 7961 O 750.687 -0.958691 -2.54011 0
M  V30 7962 C 749.143 -3.29942 -1.43758 0
M  V30 7963 C 748.751 -4.45584 -0.464654 0
M  V30 7964 C 750.495 -3.67775 -2.11995 0
M  V30 7965 C 748.402 -5.80544 -1.12797 0
M  V30 7966 H 747.332 -0.69392 -0.294943 0
M  V30 7967 H 749.983 -1.83471 -0.0328527 0
M  V30 7968 H 748.365 -3.27078 -2.2324 0
M  V30 7969 H 749.539 -4.59824 0.299749 0
M  V30 7970 H 747.854 -4.16247 0.112813 0
M  V30 7971 H 750.451 -4.65896 -2.62383 0
M  V30 7972 H 750.794 -2.9715 -2.91561 0
M  V30 7973 H 751.327 -3.72593 -1.39354 0
M  V30 7974 H 748.066 -6.54439 -0.372807 0
M  V30 7975 H 747.586 -5.70119 -1.86344 0
M  V30 7976 H 749.265 -6.25602 -1.6502 0
M  V30 7977 N 749.397 0.351382 -1.53633 0
M  V30 7978 C 750.813 0.693987 -1.43722 0
M  V30 7979 C 751.013 1.9274 -0.587669 0
M  V30 7980 O 750.069 2.52387 -0.0756082 0
M  V30 7981 C 751.382 0.893937 -2.87105 0
M  V30 7982 C 752.93 0.993051 -2.96829 0
M  V30 7983 C 753.405 1.22537 -4.41303 0
M  V30 7984 N 754.896 1.29275 -4.44795 0
M  V30 7985 C 755.631 1.48988 -5.53706 0
M  V30 7986 N 755.127 1.65924 -6.72637 0
M  V30 7987 N 756.92 1.51472 -5.41306 0
M  V30 7988 H 749.071 -0.459688 -2.07366 0
M  V30 7989 H 751.334 -0.143684 -0.937048 0
M  V30 7990 H 751.04 0.0592517 -3.5165 0
M  V30 7991 H 750.914 1.79795 -3.31592 0
M  V30 7992 H 753.301 1.81827 -2.32429 0
M  V30 7993 H 753.382 0.0661119 -2.55715 0
M  V30 7994 H 753.026 0.405117 -5.06282 0
M  V30 7995 H 752.956 2.16575 -4.80003 0
M  V30 7996 H 755.447 1.17743 -3.59089 0
M  V30 7997 H 755.76 1.80578 -7.51406 0
M  V30 7998 H 754.105 1.63075 -6.75597 0
M  V30 7999 H 757.296 1.37818 -4.47352 0
M  V30 8000 H 757.469 1.66493 -6.26246 0
M  V30 8001 N 750.875 1.45233 0.611969 0
M  V30 8002 C 752.286 1.4354 1.19387 0
M  V30 8003 C 752.637 0.160713 1.95541 0
M  V30 8004 O 751.762 -0.737954 2.03429 0
M  V30 8005 C 752.357 2.60045 2.17169 0
M  V30 8006 C 750.916 2.61486 2.70744 0
M  V30 8007 C 750.063 2.35708 1.46072 0
M  V30 8008 H 753.014 1.53536 0.401529 0
M  V30 8009 H 753.035 2.33893 3.00124 0
M  V30 8010 H 752.547 3.52803 1.61714 0
M  V30 8011 H 750.648 1.72721 3.30149 0
M  V30 8012 H 750.761 3.60572 3.15476 0
M  V30 8013 H 749.125 1.85178 1.74875 0
M  V30 8014 H 749.908 3.30606 0.924922 0
M  V30 8015 N 752.353 -0.854086 1.3245 0
M  V30 8016 C 753.764 -1.42427 1.20712 0
M  V30 8017 C 754.115 -1.95371 -0.18013 0
M  V30 8018 O 753.24 -1.87587 -1.07889 0
M  V30 8019 C 753.835 -2.58897 2.18536 0
M  V30 8020 C 752.394 -3.11913 2.10683 0
M  V30 8021 C 751.541 -1.84661 2.06871 0
M  V30 8022 H 754.492 -0.661192 1.4427 0
M  V30 8023 H 754.513 -3.36074 1.78422 0
M  V30 8024 H 754.025 -2.20333 3.19492 0
M  V30 8025 H 752.126 -3.55059 1.12977 0
M  V30 8026 H 752.239 -3.73119 3.00532 0
M  V30 8027 H 750.603 -2.04285 1.52118 0
M  V30 8028 H 751.386 -1.48314 3.09609 0
M  V30 8029 N 753.831 -1.1567 -1.07043 0
M  V30 8030 C 755.242 -0.942408 -1.61169 0
M  V30 8031 C 755.593 0.515537 -1.89306 0
M  V30 8032 O 754.718 1.38726 -1.66084 0
M  V30 8033 C 755.313 -1.70431 -2.92812 0
M  V30 8034 C 753.872 -1.53521 -3.43669 0
M  V30 8035 C 753.019 -1.7179 -2.17678 0
M  V30 8036 H 755.97 -1.3065 -0.9009 0
M  V30 8037 H 755.991 -1.17566 -3.61882 0
M  V30 8038 H 755.503 -2.76538 -2.72302 0
M  V30 8039 H 753.604 -0.498224 -3.69254 0
M  V30 8040 H 753.717 -2.31422 -4.19501 0
M  V30 8041 H 752.081 -1.14468 -2.27529 0
M  V30 8042 H 752.864 -2.79269 -1.99659 0
M  V30 8043 N 755.309 1.25446 -0.953992 0
M  V30 8044 C 756.72 1.75047 -0.649255 0
M  V30 8045 C 757.071 1.77527 0.835385 0
M  V30 8046 O 756.196 1.39569 1.65377 0
M  V30 8047 C 756.791 3.17889 -1.17183 0
M  V30 8048 C 755.35 3.65052 -0.917267 0
M  V30 8049 C 754.497 2.44124 -1.31525 0
M  V30 8050 H 757.448 1.11342 -1.13087 0
M  V30 8051 H 757.469 3.76768 -0.531616 0
M  V30 8052 H 756.981 3.16052 -2.25239 0
M  V30 8053 H 755.082 3.72305 0.148354 0
M  V30 8054 H 755.195 4.53222 -1.55328 0
M  V30 8055 H 753.559 2.43906 -0.733624 0
M  V30 8056 H 754.342 2.44979 -2.405 0
M  V30 8057 N 756.787 0.722489 1.40064 0
M  V30 8058 C 758.198 0.336507 1.83642 0
M  V30 8059 C 758.549 -1.13002 1.6039 0
M  V30 8060 O 757.674 -1.87036 1.08842 0
M  V30 8061 C 758.269 0.603985 3.33373 0
M  V30 8062 C 756.828 0.271637 3.75419 0
M  V30 8063 C 755.975 0.872898 2.63203 0
M  V30 8064 H 758.926 0.921108 1.29233 0
M  V30 8065 H 758.947 -0.128471 3.80283 0
M  V30 8066 H 758.459 1.67141 3.50265 0
M  V30 8067 H 756.56 -0.790455 3.64119 0
M  V30 8068 H 756.673 0.745457 4.73265 0
M  V30 8069 H 755.037 0.300431 2.52922 0
M  V30 8070 H 755.82 1.94473 2.82905 0
M  V30 8071 N 758.265 -1.50454 0.469181 0
M  V30 8072 C 759.195 -2.31353 -0.31592 0
M  V30 8073 C 760.176 -1.38172 -0.992094 0
M  V30 8074 O 761.361 -1.67093 -0.989633 0
M  V30 8075 C 758.491 -3.1786 -1.39937 0
M  V30 8076 C 757.445 -4.19578 -0.844909 0
M  V30 8077 C 756.771 -4.9481 -2.0265 0
M  V30 8078 C 758.071 -5.22106 0.142499 0
M  V30 8079 H 759.765 -2.97237 0.359269 0
M  V30 8080 H 757.311 -1.42942 0.174224 0
M  V30 8081 H 759.264 -3.7325 -1.95607 0
M  V30 8082 H 757.988 -2.49858 -2.1033 0
M  V30 8083 H 756.647 -3.65285 -0.310189 0
M  V30 8084 H 756.295 -4.23282 -2.71737 0
M  V30 8085 H 755.995 -5.63613 -1.66174 0
M  V30 8086 H 757.519 -5.53035 -2.58815 0
M  V30 8087 H 758.933 -5.72378 -0.324966 0
M  V30 8088 H 757.33 -5.98618 0.421441 0
M  V30 8089 H 758.4 -4.7297 1.06901 0
M  V30 8090 N 759.743 -0.201713 -1.56304 0
M  V30 8091 C 761.154 0.309711 -1.84113 0
M  V30 8092 C 761.505 1.60912 -1.12258 0
M  V30 8093 O 760.63 2.12937 -0.385587 0
M  V30 8094 C 761.225 0.568706 -3.33993 0
M  V30 8095 C 759.784 1.02448 -3.6219 0
M  V30 8096 C 758.931 0.0766842 -2.77194 0
M  V30 8097 H 761.882 -0.425356 -1.52893 0
M  V30 8098 H 761.903 1.41721 -3.53122 0
M  V30 8099 H 761.415 -0.37719 -3.86263 0
M  V30 8100 H 759.516 1.98443 -3.15359 0
M  V30 8101 H 759.629 0.912619 -4.70328 0
M  V30 8102 H 757.993 0.579809 -2.48013 0
M  V30 8103 H 758.776 -0.863774 -3.32256 0
M  V30 8104 N 761.222 1.57436 0.0718424 0
M  V30 8105 C 762.633 1.75975 0.623678 0
M  V30 8106 C 762.984 0.827155 1.77912 0
M  V30 8107 O 762.109 0.0112425 2.16397 0
M  V30 8108 C 762.704 3.1911 1.13816 0
M  V30 8109 C 761.263 3.38994 1.63586 0
M  V30 8110 C 760.41 2.71684 0.555261 0
M  V30 8111 H 763.361 1.57948 -0.154328 0
M  V30 8112 H 763.382 3.23267 2.00696 0
M  V30 8113 H 762.894 3.86962 0.296998 0
M  V30 8114 H 760.995 2.76256 2.50027 0
M  V30 8115 H 761.108 4.47436 1.71283 0
M  V30 8116 H 759.472 2.34236 1.00029 0
M  V30 8117 H 760.255 3.42191 -0.275712 0
M  V30 8118 N 762.7 -0.34323 1.53817 0
M  V30 8119 C 764.116 -0.686355 1.44088 0
M  V30 8120 C 764.316 -1.92426 0.597882 0
M  V30 8121 O 763.372 -2.52343 0.0889918 0
M  V30 8122 C 764.685 -0.878698 2.87575 0
M  V30 8123 C 766.233 -0.977296 2.97352 0
M  V30 8124 C 766.708 -1.20195 4.41947 0
M  V30 8125 N 768.199 -1.26915 4.45474 0
M  V30 8126 C 768.934 -1.46049 5.54488 0
M  V30 8127 N 768.43 -1.62354 6.73508 0
M  V30 8128 N 770.223 -1.48599 5.42102 0
M  V30 8129 H 762.374 0.470679 2.07119 0
M  V30 8130 H 764.637 0.148652 0.936273 0
M  V30 8131 H 764.343 -0.040602 3.51677 0
M  V30 8132 H 764.217 -1.78034 3.32541 0
M  V30 8133 H 766.604 -1.80591 2.3339 0
M  V30 8134 H 766.685 -0.0525498 2.55746 0
M  V30 8135 H 766.329 -0.378262 5.06489 0
M  V30 8136 H 766.259 -2.14027 4.81145 0
M  V30 8137 H 768.75 -1.15837 3.59708 0
M  V30 8138 H 769.063 -1.76591 7.52353 0
M  V30 8139 H 767.408 -1.5949 6.76453 0
M  V30 8140 H 770.599 -1.35443 4.48077 0
M  V30 8141 H 770.772 -1.6317 6.2712 0
M  V30 8142 N 764.178 -1.45556 -0.604258 0
M  V30 8143 C 765.589 -1.44171 -1.18624 0
M  V30 8144 C 765.94 -0.171081 -1.95453 0
M  V30 8145 O 765.065 0.727156 -2.03817 0
M  V30 8146 C 765.66 -2.61193 -2.15786 0
M  V30 8147 C 764.219 -2.62918 -2.69353 0
M  V30 8148 C 763.366 -2.36479 -1.4482 0
M  V30 8149 H 766.317 -1.53747 -0.393381 0
M  V30 8150 H 766.338 -2.35481 -2.98879 0
M  V30 8151 H 765.85 -3.53656 -1.59841 0
M  V30 8152 H 763.951 -1.7447 -3.29228 0
M  V30 8153 H 764.064 -3.6224 -3.13559 0
M  V30 8154 H 762.428 -1.86103 -1.73891 0
M  V30 8155 H 763.211 -3.31091 -0.907376 0
M  V30 8156 N 765.656 0.84705 -1.32902 0
M  V30 8157 C 766.904 1.5986 -1.2365 0
M  V30 8158 C 767.225 1.93974 0.199789 0
M  V30 8159 O 766.495 1.60273 1.12648 0
M  V30 8160 H 765.075 0.592696 -0.454665 0
M  V30 8161 H 767.737 1.01278 -1.66519 0
M  V30 8162 H 766.833 2.53218 -1.82448 0
M  V30 8163 N 767.134 1.16236 1.06428 0
M  V30 8164 C 768.545 0.950942 1.60667 0
M  V30 8165 C 768.896 -0.505491 1.89576 0
M  V30 8166 O 768.021 -1.37843 1.66818 0
M  V30 8167 C 768.616 1.71982 2.91904 0
M  V30 8168 C 767.175 1.55342 3.4285 0
M  V30 8169 C 766.322 1.72942 2.16763 0
M  V30 8170 H 769.273 1.31126 0.893959 0
M  V30 8171 H 769.294 1.19483 3.61253 0
M  V30 8172 H 768.806 2.77978 2.70831 0
M  V30 8173 H 766.907 0.5178 3.68985 0
M  V30 8174 H 767.02 2.33643 4.18267 0
M  V30 8175 H 765.384 1.15673 2.26918 0
M  V30 8176 H 766.167 2.80324 1.98175 0
M  V30 8177 N 768.612 -1.24939 0.960631 0
M  V30 8178 C 769.86 -1.92437 0.617441 0
M  V30 8179 C 770.181 -1.75543 -0.849101 0
M  V30 8180 O 769.451 -1.12269 -1.60538 0
M  V30 8181 H 768.031 -0.712192 0.225371 0
M  V30 8182 H 770.693 -1.5198 1.22017 0
M  V30 8183 H 769.789 -3.00247 0.851933 0
M  V30 8184 N 770.09 -0.729906 -1.39679 0
M  V30 8185 C 771.501 -0.346241 -1.83461 0
M  V30 8186 C 771.852 1.1215 -1.60987 0
M  V30 8187 O 770.977 1.86456 -1.09832 0
M  V30 8188 C 771.572 -0.621656 -3.33048 0
M  V30 8189 C 770.131 -0.291543 -3.75269 0
M  V30 8190 C 769.278 -0.886844 -2.62736 0
M  V30 8191 H 772.229 -0.927949 -1.28743 0
M  V30 8192 H 772.25 0.108301 -3.80346 0
M  V30 8193 H 771.762 -1.68996 -3.49373 0
M  V30 8194 H 769.863 0.771133 -3.64533 0
M  V30 8195 H 769.976 -0.770544 -4.72863 0
M  V30 8196 H 768.34 -0.313839 -2.52759 0
M  V30 8197 H 769.123 -1.95971 -2.81869 0
M  V30 8198 N 771.568 1.50203 -0.477153 0
M  V30 8199 C 772.5 2.26508 0.350239 0
M  V30 8200 C 773.513 1.32081 0.95176 0
M  V30 8201 O 774.702 1.57546 0.839139 0
M  V30 8202 C 771.802 3.0361 1.50579 0
M  V30 8203 C 770.975 4.25438 1.01595 0
M  V30 8204 C 770.034 4.84783 2.04626 0
M  V30 8205 O 769.06 5.45528 1.62442 0
M  V30 8206 N 770.262 4.72318 3.37485 0
M  V30 8207 H 773.027 2.98155 -0.30394 0
M  V30 8208 H 770.588 1.58938 -0.308289 0
M  V30 8209 H 772.58 3.4019 2.1921 0
M  V30 8210 H 771.15 2.34724 2.06455 0
M  V30 8211 H 770.37 3.93894 0.155316 0
M  V30 8212 H 771.658 5.04413 0.666694 0
M  V30 8213 H 771.056 4.24022 3.74462 0
M  V30 8214 H 769.613 5.13149 4.01897 0
M  V30 8215 N 773.046 0.209999 1.56195 0
M  V30 8216 C 774.323 -0.473214 1.89789 0
M  V30 8217 C 774.703 -1.78581 1.1257 0
M  V30 8218 O 774.051 -2.27325 0.231398 0
M  V30 8219 C 774.261 -0.677458 3.42362 0
M  V30 8220 C 775.609 -0.990114 4.12895 0
M  V30 8221 O 776.633 -0.764655 3.47896 0
M  V30 8222 O 775.492 -1.41737 5.278 0
M  V30 8223 H 772.586 -0.248622 0.788743 0
M  V30 8224 H 775.132 0.251324 1.67829 0
M  V30 8225 H 773.904 0.248878 3.90508 0
M  V30 8226 H 773.527 -1.45391 3.70064 0
M  V30 8227 N 774.524 -1.57472 -0.0634922 0
M  V30 8228 C 775.456 -2.00999 -1.10145 0
M  V30 8229 C 776.469 -0.917219 -1.34503 0
M  V30 8230 O 777.658 -1.19501 -1.32596 0
M  V30 8231 C 774.758 -2.34089 -2.45063 0
M  V30 8232 C 773.931 -3.65317 -2.40546 0
M  V30 8233 C 772.99 -3.85982 -3.57637 0
M  V30 8234 O 772.016 -4.5747 -3.38689 0
M  V30 8235 N 773.218 -3.28971 -4.78287 0
M  V30 8236 H 775.983 -2.90656 -0.730714 0
M  V30 8237 H 773.544 -1.59926 -0.252017 0
M  V30 8238 H 775.536 -2.4508 -3.22053 0
M  V30 8239 H 774.106 -1.50279 -2.74107 0
M  V30 8240 H 773.326 -3.65003 -1.48885 0
M  V30 8241 H 774.614 -4.51468 -2.34636 0
M  V30 8242 H 774.012 -2.70962 -4.96584 0
M  V30 8243 H 772.569 -3.45398 -5.5276 0
M  V30 8244 N 776.003 0.335068 -1.53997 0
M  V30 8245 C 776.966 1.39481 -1.81872 0
M  V30 8246 C 777.966 1.4524 -0.690078 0
M  V30 8247 O 779.156 1.45467 -0.958377 0
M  V30 8248 C 776.288 2.78329 -1.9684 0
M  V30 8249 H 777.481 1.16024 -2.76547 0
M  V30 8250 H 775.034 0.569926 -1.45539 0
M  V30 8251 H 775.769 3.07058 -1.04337 0
M  V30 8252 H 775.554 2.75544 -2.78958 0
M  V30 8253 H 777.044 3.55016 -2.19894 0
M  V30 8254 N 777.481 1.45874 0.596531 0
M  V30 8255 C 778.444 1.54988 1.68853 0
M  V30 8256 C 779.444 0.428302 1.54991 0
M  V30 8257 O 780.634 0.692158 1.59859 0
M  V30 8258 C 777.766 1.457 3.08195 0
M  V30 8259 H 778.959 2.52294 1.62135 0
M  V30 8260 H 776.512 1.33479 0.813206 0
M  V30 8261 H 777.247 0.496204 3.20481 0
M  V30 8262 H 777.032 2.27061 3.19665 0
M  V30 8263 H 778.522 1.55133 3.87716 0
M  V30 8264 N 778.959 -0.83999 1.33349 0
M  V30 8265 C 780.375 -1.13049 1.12659 0
M  V30 8266 C 780.575 -2.01328 -0.0832613 0
M  V30 8267 O 779.631 -2.40669 -0.763856 0
M  V30 8268 C 780.944 -1.79366 2.41347 0
M  V30 8269 C 782.492 -1.91937 2.47243 0
M  V30 8270 C 782.967 -2.6167 3.75889 0
M  V30 8271 N 784.458 -2.69184 3.76954 0
M  V30 8272 C 785.193 -3.23827 4.73206 0
M  V30 8273 N 784.689 -3.79166 5.79832 0
M  V30 8274 N 786.482 -3.22068 4.60683 0
M  V30 8275 H 778.633 -0.252432 2.10895 0
M  V30 8276 H 780.896 -0.174501 0.931801 0
M  V30 8277 H 780.602 -1.2196 3.29877 0
M  V30 8278 H 780.476 -2.79396 2.53412 0
M  V30 8279 H 782.863 -2.48498 1.59163 0
M  V30 8280 H 782.944 -0.908604 2.39119 0
M  V30 8281 H 782.588 -2.05769 4.64351 0
M  V30 8282 H 782.518 -3.63217 3.81289 0
M  V30 8283 H 785.009 -2.2994 2.99893 0
M  V30 8284 H 785.322 -4.19061 6.49313 0
M  V30 8285 H 783.667 -3.77457 5.83568 0
M  V30 8286 H 786.858 -2.78092 3.7654 0
M  V30 8287 H 787.031 -3.64351 5.35866 0
M  V30 8288 N 780.437 -1.16799 -1.0581 0
M  V30 8289 C 781.662 -0.977402 -1.82925 0
M  V30 8290 C 782.087 0.469514 -1.82146 0
M  V30 8291 O 781.445 1.33576 -1.22585 0
M  V30 8292 C 781.493 -1.51543 -3.27211 0
M  V30 8293 O 780.597 -0.725021 -4.05977 0
M  V30 8294 H 779.938 -0.347474 -0.565825 0
M  V30 8295 H 782.468 -1.55151 -1.33376 0
M  V30 8296 H 782.478 -1.53502 -3.78023 0
M  V30 8297 H 781.153 -2.56872 -3.27093 0
M  V30 8298 H 779.73 -0.77634 -3.64729 0
M  V30 8299 N 781.915 1.24427 -0.967243 0
M  V30 8300 C 783.14 1.9708 -0.646069 0
M  V30 8301 C 783.565 1.71272 0.777665 0
M  V30 8302 O 782.923 0.976179 1.52776 0
M  V30 8303 C 782.971 3.48501 -0.926266 0
M  V30 8304 O 782.075 4.12398 -0.0114653 0
M  V30 8305 H 781.416 0.617423 -0.244304 0
M  V30 8306 H 783.946 1.58215 -1.29727 0
M  V30 8307 H 783.956 3.98885 -0.857619 0
M  V30 8308 H 782.631 3.66613 -1.96386 0
M  V30 8309 H 781.208 3.72661 -0.133396 0
M  V30 8310 N 783.393 0.737304 1.3929 0
M  V30 8311 C 784.804 0.355966 1.83275 0
M  V30 8312 C 785.155 -1.11295 1.6158 0
M  V30 8313 O 784.28 -1.85871 1.10819 0
M  V30 8314 C 784.875 0.63931 3.32713 0
M  V30 8315 C 783.434 0.31144 3.75109 0
M  V30 8316 C 782.581 0.900765 2.62262 0
M  V30 8317 H 785.532 0.934763 1.28249 0
M  V30 8318 H 785.553 -0.0881293 3.80398 0
M  V30 8319 H 785.065 1.70847 3.48472 0
M  V30 8320 H 783.166 -0.751791 3.64937 0
M  V30 8321 H 783.279 0.795611 4.72448 0
M  V30 8322 H 781.643 0.327239 2.52589 0
M  V30 8323 H 782.426 1.97463 2.80826 0
M  V30 8324 N 784.871 -1.49948 0.485112 0
M  V30 8325 C 786.111 -2.04301 -0.0635728 0
M  V30 8326 C 786.475 -1.35804 -1.35725 0
M  V30 8327 O 787.676 -1.80789 -1.98919 0
M  V30 8328 C 785.947 -3.56666 -0.228962 0
M  V30 8329 S 787.506 -4.32614 -0.734185 0
M  V30 8330 H 784.324 -0.710939 -0.00931895 0
M  V30 8331 H 786.926 -1.84185 0.655455 0
M  V30 8332 H 785.63 -4.04068 0.718148 0
M  V30 8333 H 785.161 -3.8116 -0.973696 0
M  V30 8334 H 787.176 -4.53859 -2.00565 0
M  V30 8335 N 786.349 -0.21828 -1.56081 0
M  V30 8336 C 787.765 0.137168 -1.59009 0
M  V30 8337 C 787.965 1.59215 -1.23503 0
M  V30 8338 O 787.021 2.33178 -0.968716 0
M  V30 8339 C 788.334 -0.186162 -3.00123 0
M  V30 8340 C 789.882 -0.128135 -3.12738 0
M  V30 8341 C 790.357 -0.425094 -4.56023 0
M  V30 8342 N 791.848 -0.374547 -4.61683 0
M  V30 8343 C 792.583 -0.57786 -5.70481 0
M  V30 8344 N 792.079 -0.842771 -6.87655 0
M  V30 8345 N 793.872 -0.510521 -5.59777 0
M  V30 8346 H 786.023 -1.16746 -1.77437 0
M  V30 8347 H 788.286 -0.467706 -0.824594 0
M  V30 8348 H 787.992 -1.19589 -3.30744 0
M  V30 8349 H 787.866 0.500388 -3.73866 0
M  V30 8350 H 790.253 0.872224 -2.81915 0
M  V30 8351 H 790.334 -0.848112 -2.41331 0
M  V30 8352 H 789.978 -1.42288 -4.87562 0
M  V30 8353 H 789.908 0.316038 -5.25651 0
M  V30 8354 H 792.399 -0.177356 -3.77484 0
M  V30 8355 H 792.712 -0.986095 -7.66483 0
M  V30 8356 H 791.057 -0.879929 -6.89407 0
M  V30 8357 H 794.248 -0.303813 -4.67113 0
M  V30 8358 H 794.421 -0.672378 -6.44502 0
M  V30 8359 N 787.827 1.57504 0.0551401 0
M  V30 8360 C 789.073 1.89191 0.74688 0
M  V30 8361 C 789.428 0.813936 1.74335 0
M  V30 8362 O 788.721 -0.180217 1.90751 0
M  V30 8363 C 788.915 3.25311 1.48013 0
M  V30 8364 C 788.744 4.46247 0.556176 0
M  V30 8365 C 787.514 5.04954 0.186891 0
M  V30 8366 C 789.712 5.14068 -0.154295 0
M  V30 8367 N 787.694 6.09411 -0.741041 0
M  V30 8368 C 789.065 6.12851 -0.938809 0
M  V30 8369 C 791.12 4.97396 -0.224007 0
M  V30 8370 C 789.823 6.96759 -1.78658 0
M  V30 8371 C 791.849 5.81845 -1.05881 0
M  V30 8372 C 791.211 6.80178 -1.83133 0
M  V30 8373 H 787.31 0.741562 0.248213 0
M  V30 8374 H 789.894 1.94698 0.00777734 0
M  V30 8375 H 788.065 3.20781 2.18985 0
M  V30 8376 H 789.797 3.44594 2.12219 0
M  V30 8377 H 786.552 4.70472 0.543415 0
M  V30 8378 H 786.976 6.66303 -1.19874 0
M  V30 8379 H 791.618 4.21274 0.358924 0
M  V30 8380 H 789.336 7.72245 -2.38042 0
M  V30 8381 H 792.922 5.70997 -1.11595 0
M  V30 8382 H 791.802 7.44389 -2.46687 0
M  V30 8383 N 789.305 -0.326896 1.54172 0
M  V30 8384 C 790.533 -1.08486 1.76177 0
M  V30 8385 C 790.948 -1.81815 0.508788 0
M  V30 8386 O 790.305 -1.74924 -0.520362 0
M  V30 8387 C 790.356 -2.08552 2.95276 0
M  V30 8388 O 790.077 -1.38202 4.15731 0
M  V30 8389 C 791.578 -2.96593 3.29466 0
M  V30 8390 H 788.798 -0.322835 0.588233 0
M  V30 8391 H 791.342 -0.374036 2.0105 0
M  V30 8392 H 789.497 -2.75174 2.72687 0
M  V30 8393 H 789.911 -2.05186 4.827 0
M  V30 8394 H 791.385 -3.62708 4.16109 0
M  V30 8395 H 791.862 -3.63511 2.46487 0
M  V30 8396 H 792.468 -2.35537 3.54122 0
M  V30 8397 N 790.784 -1.46188 -0.588786 0
M  V30 8398 C 792.195 -1.45421 -1.17088 0
M  V30 8399 C 792.546 -0.191801 -1.9526 0
M  V30 8400 O 791.671 0.705497 -2.04577 0
M  V30 8401 C 792.266 -2.63467 -2.13004 0
M  V30 8402 C 790.825 -2.6576 -2.6655 0
M  V30 8403 C 789.972 -2.38002 -1.42304 0
M  V30 8404 H 792.923 -1.54156 -0.377052 0
M  V30 8405 H 792.944 -2.38638 -2.96365 0
M  V30 8406 H 792.456 -3.55331 -1.56081 0
M  V30 8407 H 790.557 -1.77952 -3.27359 0
M  V30 8408 H 790.67 -3.65545 -3.09699 0
M  V30 8409 H 789.034 -1.87936 -1.71907 0
M  V30 8410 H 789.817 -3.32035 -0.872209 0
M  V30 8411 N 792.262 0.832906 -1.33792 0
M  V30 8412 C 793.508 1.59089 -1.25772 0
M  V30 8413 C 793.841 1.93414 0.174601 0
M  V30 8414 O 793.116 1.59195 1.11746 0
M  V30 8415 C 793.399 2.89699 -2.13885 0
M  V30 8416 C 793.252 2.62017 -3.65605 0
M  V30 8417 C 794.571 3.91182 -2.01654 0
M  V30 8418 H 791.69 0.577232 -0.458227 0
M  V30 8419 H 794.332 0.960227 -1.6395 0
M  V30 8420 H 792.482 3.4352 -1.81456 0
M  V30 8421 H 794.154 2.14582 -4.08353 0
M  V30 8422 H 792.397 1.95621 -3.87189 0
M  V30 8423 H 793.068 3.55112 -4.2261 0
M  V30 8424 H 795.544 3.46684 -2.30107 0
M  V30 8425 H 794.42 4.80391 -2.65548 0
M  V30 8426 H 794.681 4.30861 -0.990536 0
M  V30 8427 N 793.74 1.17359 1.05189 0
M  V30 8428 C 794.703 0.892604 2.11105 0
M  V30 8429 C 795.703 -0.117236 1.60372 0
M  V30 8430 O 796.893 0.114936 1.7382 0
M  V30 8431 C 794.025 0.337032 3.3923 0
M  V30 8432 H 795.218 1.83169 2.37464 0
M  V30 8433 H 792.771 0.984051 1.21434 0
M  V30 8434 H 793.506 -0.609198 3.18527 0
M  V30 8435 H 793.291 1.06484 3.77364 0
M  V30 8436 H 794.781 0.158763 4.17298 0
M  V30 8437 N 795.218 -1.23913 0.973828 0
M  V30 8438 C 796.629 -1.73992 0.677021 0
M  V30 8439 C 796.98 -1.78833 -0.807036 0
M  V30 8440 O 796.105 -1.42183 -1.63135 0
M  V30 8441 C 796.7 -3.15985 1.22226 0
M  V30 8442 C 795.259 -3.63547 0.975228 0
M  V30 8443 C 794.406 -2.42001 1.35392 0
M  V30 8444 H 797.357 -1.09529 1.14844 0
M  V30 8445 H 797.378 -3.75875 0.591489 0
M  V30 8446 H 796.89 -3.12429 2.30238 0
M  V30 8447 H 794.991 -3.72493 -0.0891047 0
M  V30 8448 H 795.104 -4.50693 1.62518 0
M  V30 8449 H 793.468 -2.42708 0.772334 0
M  V30 8450 H 794.251 -2.41122 2.44367 0
M  V30 8451 N 796.696 -0.74468 -1.38897 0
M  V30 8452 C 797.921 -0.306119 -2.05128 0
M  V30 8453 C 798.346 1.0541 -1.55789 0
M  V30 8454 O 797.704 1.66993 -0.705909 0
M  V30 8455 C 797.752 -0.328195 -3.59103 0
M  V30 8456 O 796.856 0.680876 -4.06741 0
M  V30 8457 H 796.197 -0.137209 -0.649669 0
M  V30 8458 H 798.727 -1.01331 -1.77745 0
M  V30 8459 H 798.737 -0.175956 -4.0762 0
M  V30 8460 H 797.412 -1.32067 -3.94374 0
M  V30 8461 H 795.989 0.49398 -3.69614 0
M  V30 8462 N 798.174 1.49689 -0.493057 0
M  V30 8463 C 799.451 1.9525 0.116907 0
M  V30 8464 C 799.831 1.43429 1.54892 0
M  V30 8465 O 799.179 0.644621 2.19219 0
M  V30 8466 C 799.389 3.4898 0.037705 0
M  V30 8467 C 800.737 4.24052 0.215621 0
M  V30 8468 O 801.761 3.5602 0.113266 0
M  V30 8469 O 800.62 5.44847 0.42477 0
M  V30 8470 H 797.714 0.820973 0.099662 0
M  V30 8471 H 800.26 1.60367 -0.555029 0
M  V30 8472 H 799.032 3.79309 -0.961251 0
M  V30 8473 H 798.655 3.9046 0.750137 0
M  V30 8474 N 799.652 0.226554 1.55963 0
M  V30 8475 C 800.892 -0.405574 2.00336 0
M  V30 8476 C 801.256 -1.56593 1.11097 0
M  V30 8477 O 802.457 -2.26441 1.44838 0
M  V30 8478 C 800.728 -0.82435 3.47763 0
M  V30 8479 S 802.287 -1.44988 4.14154 0
M  V30 8480 H 799.105 -0.128512 0.699289 0
M  V30 8481 H 801.707 0.337017 1.92573 0
M  V30 8482 H 800.411 0.0297636 4.10389 0
M  V30 8483 H 799.942 -1.59963 3.5941 0
M  V30 8484 H 801.957 -2.73897 4.13757 0
M  V30 8485 N 801.13 -1.57531 -0.0467866 0
M  V30 8486 C 802.378 -1.88078 -0.739656 0
M  V30 8487 C 802.699 -0.821936 -1.76831 0
M  V30 8488 O 801.969 0.146582 -1.95351 0
M  V30 8489 H 800.549 -0.694075 -0.276169 0
M  V30 8490 H 803.211 -1.94893 -0.0169391 0
M  V30 8491 H 802.307 -2.86396 -1.24031 0
M  V30 8492 O 802.647 0.18996 -1.60379 0
M  V30 8493 H 803.338 0.828364 -1.75094 0
M  V30 END ATOM
M  V30 BEGIN BOND
M  V30 END BOND
M  V30 END CTAB
M  END
$$$$
