drugbank_target|P15086 Carboxypeptidase B (DB04272; DB04723; DB06835; DB06921; DB07136; DB07157; DB07182; DB07269)
 OpenBabel12092120293D

  0  0  0     0  0            999 V3000
M  V30 BEGIN CTAB
M  V30 COUNTS 6608 6691 0 0 0
M  V30 BEGIN ATOM
M  V30 1 H -0.908 1.98254 -0.117106 0
M  V30 2 N 0 1.576 0 0
M  V30 3 C 0.933 2.03868 1.02534 0
M  V30 4 C 1.911 0.928543 1.3348 0
M  V30 5 O 3.095 1.19667 1.45644 0
M  V30 6 C 0.222 2.43627 2.35294 0
M  V30 7 C -0.732 3.65373 2.2001 0
M  V30 8 S 0.101 5.13292 1.52614 0
M  V30 9 C 1.257 5.56322 2.86805 0
M  V30 10 H 1.49 2.90518 0.631377 0
M  V30 11 H -0.977 1.52953 0.210867 0
M  V30 12 H 0.981 2.67203 3.11629 0
M  V30 13 H -0.358 1.57376 2.7183 0
M  V30 14 H -1.165 3.90944 3.18086 0
M  V30 15 H -1.563 3.418 1.51819 0
M  V30 16 H 0.729 5.58782 3.83104 0
M  V30 17 H 1.672 6.56266 2.65933 0
M  V30 18 H 2.08 4.83886 2.90714 0
M  V30 19 N 1.4781 -0.272755 1.55222 0
M  V30 20 C 2.4081 -1.34136 1.91127 0
M  V30 21 C 3.3891 -1.51513 0.773168 0
M  V30 22 O 4.5741 -1.64552 1.03132 0
M  V30 23 C 1.7041 -2.70083 2.1834 0
M  V30 24 C 0.6581 -2.67437 3.34158 0
M  V30 25 C -0.0159 -4.06938 3.46851 0
M  V30 26 C 1.2841 -2.26686 4.70543 0
M  V30 27 H 2.9781 -1.04333 2.80633 0
M  V30 28 H 0.5241 -0.500454 1.35024 0
M  V30 29 H 2.4771 -3.44952 2.42046 0
M  V30 30 H 1.2011 -3.01469 1.25634 0
M  V30 31 H -0.1399 -1.95026 3.1042 0
M  V30 32 H -0.4919 -4.35547 2.51611 0
M  V30 33 H -0.7919 -4.06062 4.2472 0
M  V30 34 H 0.7321 -4.83545 3.72849 0
M  V30 35 H 2.1461 -2.91277 4.93792 0
M  V30 36 H 0.5431 -2.36971 5.5133 0
M  V30 37 H 1.6131 -1.21818 4.69349 0
M  V30 38 N 2.9562 -1.48159 -0.537278 0
M  V30 39 C 3.9192 -1.61665 -1.62472 0
M  V30 40 C 4.9192 -0.490395 -1.5314 0
M  V30 41 O 6.1092 -0.755998 -1.5694 0
M  V30 42 C 3.2412 -1.57997 -3.02076 0
M  V30 43 H 4.4342 -2.58621 -1.51839 0
M  V30 44 H 1.9872 -1.36647 -0.758771 0
M  V30 45 H 2.7222 -0.624913 -3.18222 0
M  V30 46 H 2.5072 -2.39755 -3.10258 0
M  V30 47 H 3.9972 -1.70627 -3.81151 0
M  V30 48 N 4.4343 0.785586 -1.36625 0
M  V30 49 C 5.3643 1.91259 -1.33949 0
M  V30 50 C 6.3453 1.68795 -0.210325 0
M  V30 51 O 7.5303 1.89854 -0.408561 0
M  V30 52 C 4.6603 3.28339 -1.13186 0
M  V30 53 C 3.6143 3.65335 -2.22967 0
M  V30 54 C 2.9403 5.00806 -1.87342 0
M  V30 55 C 4.2403 3.7352 -3.65075 0
M  V30 56 H 5.9343 1.93755 -2.28253 0
M  V30 57 H 3.4803 0.930788 -1.09874 0
M  V30 58 H 5.4333 4.06804 -1.09948 0
M  V30 59 H 4.1573 3.2624 -0.153332 0
M  V30 60 H 2.8163 2.89169 -2.25337 0
M  V30 61 H 2.4643 4.95233 -0.880545 0
M  V30 62 H 2.1643 5.26529 -2.60846 0
M  V30 63 H 3.6883 5.81687 -1.85667 0
M  V30 64 H 5.1023 4.42168 -3.64911 0
M  V30 65 H 3.4993 4.10731 -4.37516 0
M  V30 66 H 4.5693 2.74527 -3.99703 0
M  V30 67 N 5.9124 1.20967 1.01018 0
M  V30 68 C 6.8424 0.988272 2.11555 0
M  V30 69 C 7.8234 -0.0849778 1.69888 0
M  V30 70 O 9.0084 0.0738202 1.9406 0
M  V30 71 C 6.1384 0.546528 3.42973 0
M  V30 72 C 5.0924 1.56375 3.9841 0
M  V30 73 C 4.4184 0.97842 5.25672 0
M  V30 74 C 5.7184 2.94922 4.31066 0
M  V30 75 H 7.4124 1.91276 2.30334 0
M  V30 76 H 4.9584 0.921073 1.1069 0
M  V30 77 H 6.9114 0.378839 4.19694 0
M  V30 78 H 5.6354 -0.413598 3.23971 0
M  V30 79 H 4.2944 1.71891 3.23804 0
M  V30 80 H 3.9424 0.0101688 5.02999 0
M  V30 81 H 3.6424 1.65784 5.63728 0
M  V30 82 H 5.1664 0.821939 6.05043 0
M  V30 83 H 6.5804 2.8288 4.9865 0
M  V30 84 H 4.9774 3.5983 4.80253 0
M  V30 85 H 6.0474 3.4616 3.39561 0
M  V30 86 N 7.3905 -1.2043 1.01659 0
M  V30 87 C 8.6365 -1.90079 0.706963 0
M  V30 88 C 8.9695 -1.78648 -0.761474 0
M  V30 89 O 8.2445 -1.17069 -1.55323 0
M  V30 90 C 8.5275 -3.41469 1.14327 0
M  V30 91 C 8.3805 -3.61833 2.67201 0
M  V30 92 C 9.6995 -4.34261 0.714529 0
M  V30 93 H 6.8185 -0.690254 0.2583 0
M  V30 94 H 9.4605 -1.41826 1.26433 0
M  V30 95 H 7.6105 -3.82696 0.669056 0
M  V30 96 H 9.2825 -3.2986 3.22475 0
M  V30 97 H 7.5255 -3.05304 3.08175 0
M  V30 98 H 8.1965 -4.67955 2.92783 0
M  V30 99 H 10.6725 -4.00682 1.12221 0
M  V30 100 H 9.5485 -5.38806 1.04784 0
M  V30 101 H 9.8095 -4.40431 -0.383799 0
M  V30 102 N 8.8686 -0.792821 -1.36206 0
M  V30 103 C 9.7986 -0.207853 -2.32573 0
M  V30 104 C 10.7796 0.659055 -1.56813 0
M  V30 105 O 11.9646 0.592176 -1.84951 0
M  V30 106 C 9.0946 0.655449 -3.41059 0
M  V30 107 C 8.0486 -0.111842 -4.27854 0
M  V30 108 C 7.3746 0.872274 -5.27537 0
M  V30 109 C 8.6746 -1.30299 -5.05786 0
M  V30 110 H 10.3686 -1.01294 -2.81744 0
M  V30 111 H 7.9146 -0.48854 -1.3546 0
M  V30 112 H 9.8676 1.07464 -4.07467 0
M  V30 113 H 8.5916 1.49328 -2.90463 0
M  V30 114 H 7.2506 -0.512053 -3.63006 0
M  V30 115 H 6.8986 1.70523 -4.73214 0
M  V30 116 H 6.5986 0.363291 -5.86476 0
M  V30 117 H 8.1226 1.28996 -5.96818 0
M  V30 118 H 9.5366 -0.959379 -5.65216 0
M  V30 119 H 7.9336 -1.7455 -5.74154 0
M  V30 120 H 9.0036 -2.09663 -4.37229 0
M  V30 121 N 10.3467 1.47872 -0.545128 0
M  V30 122 C 11.5927 2.02793 -0.0166104 0
M  V30 123 C 11.9257 1.41987 1.32489 0
M  V30 124 O 11.2007 0.571045 1.85928 0
M  V30 125 C 11.4837 3.59989 0.0893294 0
M  V30 126 C 11.3367 4.3125 -1.27841 0
M  V30 127 C 12.6557 4.32606 0.808724 0
M  V30 128 H 9.7747 0.736962 -0.00751035 0
M  V30 129 H 12.4167 1.76433 -0.705085 0
M  V30 130 H 10.5667 3.82579 0.675681 0
M  V30 131 H 12.2387 4.20035 -1.90704 0
M  V30 132 H 10.4817 3.92076 -1.85632 0
M  V30 133 H 11.1527 5.39736 -1.15713 0
M  V30 134 H 13.6287 4.14936 0.310992 0
M  V30 135 H 12.5047 5.42251 0.851782 0
M  V30 136 H 12.7657 4.00963 1.86229 0
M  V30 137 N 11.8248 0.280983 1.55075 0
M  V30 138 C 13.0528 -0.337293 2.04132 0
M  V30 139 C 13.4678 -1.4903 1.15912 0
M  V30 140 O 12.8248 -1.81606 0.180459 0
M  V30 141 C 12.8758 -0.812706 3.52246 0
M  V30 142 O 12.5968 0.294387 4.3711 0
M  V30 143 C 14.0978 -1.4982 4.17216 0
M  V30 144 H 11.3178 -0.0761638 0.666663 0
M  V30 145 H 13.8618 0.414787 2.00249 0
M  V30 146 H 12.0168 -1.51486 3.56554 0
M  V30 147 H 12.4308 -0.0721325 5.2445 0
M  V30 148 H 13.9048 -1.7822 5.22438 0
M  V30 149 H 14.3818 -2.43168 3.65741 0
M  V30 150 H 14.9878 -0.839742 4.16927 0
M  V30 151 N 13.3029 -1.57598 0.00835791 0
M  V30 152 C 14.5489 -1.91211 -0.675732 0
M  V30 153 C 14.8819 -0.883139 -1.72958 0
M  V30 154 O 14.1569 0.097016 -1.94258 0
M  V30 155 C 14.4399 -3.35379 -1.31123 0
M  V30 156 C 14.2929 -4.48999 -0.268356 0
M  V30 157 C 15.6119 -3.7912 -2.23508 0
M  V30 158 H 12.7309 -0.695374 -0.244179 0
M  V30 159 H 15.3729 -1.89901 0.0613655 0
M  V30 160 H 13.5229 -3.36626 -1.93946 0
M  V30 161 H 15.1949 -4.59887 0.360844 0
M  V30 162 H 13.4379 -4.31873 0.408482 0
M  V30 163 H 14.1089 -5.46851 -0.752218 0
M  V30 164 H 16.5849 -3.79477 -1.70693 0
M  V30 165 H 15.4609 -4.80729 -2.64936 0
M  V30 166 H 15.7219 -3.13455 -3.11766 0
M  V30 167 N 14.781 0.264519 -1.55364 0
M  V30 168 C 15.744 1.31046 -1.88042 0
M  V30 169 C 16.744 1.41943 -0.755569 0
M  V30 170 O 17.934 1.40947 -1.02369 0
M  V30 171 C 15.066 2.69067 -2.09323 0
M  V30 172 H 16.259 1.03297 -2.81549 0
M  V30 173 H 13.812 0.502989 -1.47986 0
M  V30 174 H 14.547 3.01982 -1.18226 0
M  V30 175 H 14.332 2.62542 -2.91229 0
M  V30 176 H 15.822 3.44623 -2.35848 0
M  V30 177 N 16.2591 1.48442 0.529413 0
M  V30 178 C 17.1891 1.65902 1.64313 0
M  V30 179 C 18.1701 0.507897 1.6234 0
M  V30 180 O 19.3551 0.740503 1.79528 0
M  V30 181 C 16.4851 1.69911 3.02898 0
M  V30 182 C 15.4391 2.8453 3.19729 0
M  V30 183 C 14.7651 2.73629 4.59381 0
M  V30 184 C 16.0651 4.25821 3.02447 0
M  V30 185 H 17.7591 2.5914 1.49955 0
M  V30 186 H 15.3051 1.24709 0.719982 0
M  V30 187 H 17.2581 1.80715 3.80684 0
M  V30 188 H 15.9821 0.732524 3.18279 0
M  V30 189 H 14.6411 2.73283 2.44361 0
M  V30 190 H 14.2891 1.74938 4.71599 0
M  V30 191 H 13.9891 3.50541 4.71588 0
M  V30 192 H 15.5131 2.86401 5.39265 0
M  V30 193 H 16.9271 4.37898 3.70024 0
M  V30 194 H 15.3241 5.03735 3.26146 0
M  V30 195 H 16.3941 4.42244 1.98867 0
M  V30 196 N 17.7372 -0.778329 1.37039 0
M  V30 197 C 18.7002 -1.87301 1.32102 0
M  V30 198 C 19.7002 -1.59198 0.226405 0
M  V30 199 O 20.8902 -1.67403 0.481861 0
M  V30 200 C 18.0222 -3.24309 1.05055 0
M  V30 201 H 19.2152 -1.93093 2.29467 0
M  V30 202 H 16.7682 -0.977358 1.21973 0
M  V30 203 H 17.5032 -3.24196 0.0819373 0
M  V30 204 H 17.2882 -3.46098 1.84279 0
M  V30 205 H 18.7782 -4.04382 1.04234 0
M  V30 206 N 19.2153 -1.21501 -1.00376 0
M  V30 207 C 20.4403 -1.05977 -1.78279 0
M  V30 208 C 20.8653 0.385994 -1.84097 0
M  V30 209 O 20.2233 1.27849 -1.28547 0
M  V30 210 C 20.2713 -1.66302 -3.19963 0
M  V30 211 O 19.3753 -0.909333 -4.0225 0
M  V30 212 H 18.7163 -0.372906 -0.549397 0
M  V30 213 H 21.2463 -1.6107 -1.26165 0
M  V30 214 H 21.2563 -1.70574 -3.70632 0
M  V30 215 H 19.9313 -2.71515 -3.15043 0
M  V30 216 H 18.5083 -0.941795 -3.60811 0
M  V30 217 N 20.6934 1.19889 -1.02296 0
M  V30 218 C 21.6564 2.21116 -0.603351 0
M  V30 219 C 22.6564 1.5738 0.329884 0
M  V30 220 O 23.8464 1.73802 0.117702 0
M  V30 221 C 20.9784 3.40696 0.117992 0
M  V30 222 H 22.1714 2.59754 -1.49893 0
M  V30 223 H 19.7244 1.33463 -0.813468 0
M  V30 224 H 20.4594 3.07569 1.0282 0
M  V30 225 H 20.2444 3.88188 -0.552511 0
M  V30 226 H 21.7344 4.15692 0.398696 0
M  V30 227 N 22.1715 0.800033 1.35784 0
M  V30 228 C 23.1215 0.178654 2.27299 0
M  V30 229 C 24.1055 -0.643667 1.47464 0
M  V30 230 O 25.2975 -0.502 1.69732 0
M  V30 231 C 22.4265 -0.677194 3.36555 0
M  V30 232 C 21.5125 0.154497 4.23818 0
M  V30 233 N 21.9035 1.21427 4.91008 0
M  V30 234 C 20.2015 -0.0649462 4.45953 0
M  V30 235 C 20.9025 1.72147 5.55644 0
M  V30 236 N 19.8785 1.02897 5.33773 0
M  V30 237 H 23.6805 0.989637 2.76737 0
M  V30 238 H 21.1945 0.64054 1.49234 0
M  V30 239 H 23.1915 -1.13835 4.01058 0
M  V30 240 H 21.8515 -1.4866 2.8867 0
M  V30 241 H 22.8625 1.59684 4.92668 0
M  V30 242 H 19.5395 -0.844016 4.0888 0
M  V30 243 H 20.9295 2.60683 6.19269 0
M  V30 244 N 23.6496 -1.47581 0.552962 0
M  V30 245 C 24.5996 -2.26961 -0.217423 0
M  V30 246 C 25.5836 -1.34099 -0.889168 0
M  V30 247 O 26.7756 -1.58483 -0.788176 0
M  V30 248 C 23.9046 -3.19756 -1.24944 0
M  V30 249 C 22.9906 -4.20097 -0.581327 0
M  V30 250 N 23.3816 -5.04614 0.346171 0
M  V30 251 C 21.6796 -4.38099 -0.835767 0
M  V30 252 C 22.3806 -5.77052 0.733854 0
M  V30 253 N 21.3566 -5.43526 0.0896567 0
M  V30 254 H 25.1586 -2.89688 0.495761 0
M  V30 255 H 22.6726 -1.58068 0.372597 0
M  V30 256 H 24.6696 -3.75305 -1.81527 0
M  V30 257 H 23.3296 -2.58585 -1.96376 0
M  V30 258 H 24.3406 -5.12869 0.720098 0
M  V30 259 H 21.0176 -3.88102 -1.53892 0
M  V30 260 H 22.4076 -6.5504 1.49574 0
M  V30 261 N 25.1277 -0.289203 -1.54924 0
M  V30 262 C 26.3757 0.322879 -1.99504 0
M  V30 263 C 26.6967 1.55313 -1.1791 0
M  V30 264 O 25.9667 1.94001 -0.272097 0
M  V30 265 H 24.5467 0.122291 -0.736922 0
M  V30 266 H 27.2087 -0.397802 -1.90797 0
M  V30 267 H 26.3047 0.603061 -3.06218 0
M  V30 268 N 26.6058 1.57591 -0.0167156 0
M  V30 269 C 27.8538 1.90906 0.663285 0
M  V30 270 C 28.1748 0.892509 1.73376 0
M  V30 271 O 27.4448 -0.0677623 1.95783 0
M  V30 272 H 26.0248 0.704637 0.247983 0
M  V30 273 H 28.6868 1.94803 -0.0615909 0
M  V30 274 H 27.7828 2.9116 1.12393 0
M  V30 275 N 28.0839 -0.256276 1.55502 0
M  V30 276 C 28.9939 -1.33882 1.92647 0
M  V30 277 C 30.0099 -1.53159 0.825727 0
M  V30 278 O 31.1859 -1.66963 1.12629 0
M  V30 279 C 28.2509 -2.6751 2.20543 0
M  V30 280 C 27.3119 -2.56836 3.43997 0
M  V30 281 C 26.5449 -3.84092 3.70553 0
M  V30 282 O 26.7679 -4.85545 2.99336 0
M  V30 283 O 25.7019 -3.83288 4.64084 0
M  V30 284 H 29.5279 -1.05374 2.84833 0
M  V30 285 H 27.1129 -0.456237 1.42263 0
M  V30 286 H 28.9949 -3.46492 2.39835 0
M  V30 287 H 27.6699 -2.9577 1.31536 0
M  V30 288 H 26.5769 -1.76172 3.30021 0
M  V30 289 H 27.9099 -2.33523 4.33275 0
M  V30 290 N 29.562 -1.4872 -0.521534 0
M  V30 291 C 30.512 -1.60269 -1.62166 0
M  V30 292 C 31.496 -0.45935 -1.54204 0
M  V30 293 O 32.688 -0.711241 -1.62081 0
M  V30 294 C 29.817 -1.65344 -3.00859 0
M  V30 295 C 28.903 -2.85187 -3.13894 0
M  V30 296 N 29.294 -4.09509 -2.96877 0
M  V30 297 C 27.592 -2.82695 -3.44963 0
M  V30 298 C 28.293 -4.89959 -3.13552 0
M  V30 299 N 27.269 -4.22934 -3.41508 0
M  V30 300 H 31.071 -2.5413 -1.47632 0
M  V30 301 H 28.585 -1.45209 -0.727194 0
M  V30 302 H 30.582 -1.71713 -3.79895 0
M  V30 303 H 29.242 -0.726058 -3.16478 0
M  V30 304 H 30.253 -4.39814 -2.73467 0
M  V30 305 H 26.93 -1.99249 -3.66887 0
M  V30 306 H 28.32 -5.98654 -3.05061 0
M  V30 307 N 31.0401 0.771051 -1.3745 0
M  V30 308 C 32.2871 1.52963 -1.32697 0
M  V30 309 C 32.6151 1.94299 0.0883274 0
M  V30 310 O 31.8701 1.64397 1.0617 0
M  V30 311 C 32.1691 2.80676 -2.2126 0
M  V30 312 C 31.8351 2.58389 -3.69521 0
M  V30 313 C 30.4971 2.52019 -4.09927 0
M  V30 314 C 32.8491 2.38469 -4.63446 0
M  V30 315 C 30.1771 2.23721 -5.42371 0
M  V30 316 C 32.5291 2.11694 -5.96128 0
M  V30 317 C 31.1931 2.03769 -6.35637 0
M  V30 318 H 30.4631 0.559732 -0.485573 0
M  V30 319 H 33.1101 0.888083 -1.69662 0
M  V30 320 H 31.4151 3.49392 -1.77291 0
M  V30 321 H 33.1121 3.38557 -2.14895 0
M  V30 322 H 29.7021 2.6421 -3.37478 0
M  V30 323 H 33.8861 2.4238 -4.33089 0
M  V30 324 H 29.1421 2.16081 -5.71943 0
M  V30 325 H 33.3161 1.9528 -6.6846 0
M  V30 326 H 30.9431 1.81606 -7.38189 0
M  V30 327 N 32.5182 1.22032 0.997298 0
M  V30 328 C 33.4282 1.00271 2.12092 0
M  V30 329 C 34.4442 -0.047621 1.73935 0
M  V30 330 O 35.6202 0.144136 2.00884 0
M  V30 331 C 32.6852 0.578449 3.4184 0
M  V30 332 C 31.7462 1.70189 3.94125 0
M  V30 333 C 30.9792 1.29778 5.17681 0
M  V30 334 O 31.2022 0.174676 5.70132 0
M  V30 335 O 30.1362 2.11261 5.63607 0
M  V30 336 H 33.9622 1.94398 2.3333 0
M  V30 337 H 31.5472 1.00587 1.10465 0
M  V30 338 H 33.4292 0.351998 4.19927 0
M  V30 339 H 32.1042 -0.334019 3.21972 0
M  V30 340 H 31.0112 1.98282 3.1723 0
M  V30 341 H 32.3442 2.59206 4.18417 0
M  V30 342 N 33.9963 -1.19345 1.0293 0
M  V30 343 C 35.2443 -1.88665 0.724574 0
M  V30 344 C 35.5653 -1.80036 -0.749144 0
M  V30 345 O 34.8353 -1.2111 -1.53978 0
M  V30 346 H 33.4153 -0.698406 0.265025 0
M  V30 347 H 36.0773 -1.44885 1.30362 0
M  V30 348 H 35.1733 -2.94987 1.01926 0
M  V30 349 N 35.4744 -0.807222 -1.35358 0
M  V30 350 C 36.3844 -0.219594 -2.3357 0
M  V30 351 C 37.4004 0.637734 -1.61892 0
M  V30 352 O 38.5764 0.549336 -1.93763 0
M  V30 353 C 35.6414 0.62158 -3.41083 0
M  V30 354 C 34.7024 -0.256315 -4.28534 0
M  V30 355 C 33.9354 0.544807 -5.30912 0
M  V30 356 O 34.1584 1.77944 -5.41934 0
M  V30 357 O 33.0924 -0.0646478 -6.01865 0
M  V30 358 H 36.9184 -1.03208 -2.85625 0
M  V30 359 H 34.5034 -0.569025 -1.38139 0
M  V30 360 H 36.3854 1.10067 -4.06772 0
M  V30 361 H 35.0604 1.41165 -2.91297 0
M  V30 362 H 33.9674 -0.782559 -3.65823 0
M  V30 363 H 35.3004 -1.01034 -4.81719 0
M  V30 364 N 36.9525 1.47285 -0.560781 0
M  V30 365 C 37.8995 2.30058 0.18491 0
M  V30 366 C 38.8695 1.39281 0.904986 0
M  V30 367 O 40.0545 1.68241 0.899979 0
M  V30 368 C 37.1945 3.23317 1.20666 0
M  V30 369 C 36.3075 4.29186 0.492285 0
M  V30 370 C 35.4425 5.09592 1.49964 0
M  V30 371 C 34.4815 6.07232 0.770439 0
M  V30 372 N 33.6185 6.80584 1.72479 0
M  V30 373 H 38.4585 2.93302 -0.527048 0
M  V30 374 H 35.9955 1.44568 -0.271738 0
M  V30 375 H 37.9535 3.75811 1.81168 0
M  V30 376 H 36.5835 2.61929 1.88661 0
M  V30 377 H 35.6355 3.7972 -0.227333 0
M  V30 378 H 36.9475 4.98738 -0.0787929 0
M  V30 379 H 36.1015 5.66254 2.17809 0
M  V30 380 H 34.8405 4.3995 2.10464 0
M  V30 381 H 33.8455 5.49745 0.0780846 0
M  V30 382 H 35.0705 6.78884 0.171134 0
M  V30 383 H 33.0165 6.1367 2.3183 0
M  V30 384 H 32.9335 7.46319 1.20596 0
M  V30 385 H 34.2015 7.41818 2.39428 0
M  V30 386 N 38.4306 0.297415 1.54768 0
M  V30 387 C 39.6766 -0.313376 2.00364 0
M  V30 388 C 40.0096 -1.53815 1.18553 0
M  V30 389 O 39.2846 -1.92739 0.261103 0
M  V30 390 C 39.5676 -0.673525 3.53745 0
M  V30 391 C 39.4206 0.560133 4.46299 0
M  V30 392 C 40.7396 -1.50143 4.13697 0
M  V30 393 H 37.8586 -0.112428 0.728374 0
M  V30 394 H 40.5006 0.4088 1.8555 0
M  V30 395 H 38.6506 -1.28881 3.665 0
M  V30 396 H 40.3226 1.19863 4.45455 0
M  V30 397 H 38.5656 1.19405 4.17043 0
M  V30 398 H 39.2366 0.26405 5.51368 0
M  V30 399 H 41.7126 -0.981588 4.04356 0
M  V30 400 H 40.5886 -1.72221 5.21182 0
M  V30 401 H 40.8496 -2.48952 3.65343 0
M  V30 402 N 39.9087 -1.5758 0.0250728 0
M  V30 403 C 41.1557 -1.91633 -0.654444 0
M  V30 404 C 41.4837 -0.901103 -1.72367 0
M  V30 405 O 40.7387 0.0905647 -1.9549 0
M  V30 406 C 41.0377 -3.32421 -1.31268 0
M  V30 407 C 40.7037 -4.49344 -0.374223 0
M  V30 408 C 39.3657 -4.8106 -0.115911 0
M  V30 409 C 41.7177 -5.20498 0.270432 0
M  V30 410 C 39.0457 -5.8129 0.79493 0
M  V30 411 C 41.3977 -6.21699 1.1693 0
M  V30 412 C 40.0617 -6.51859 1.43655 0
M  V30 413 H 39.3317 -0.701236 -0.239478 0
M  V30 414 H 41.9787 -1.91307 0.0859734 0
M  V30 415 H 40.2837 -3.28989 -2.12775 0
M  V30 416 H 41.9807 -3.56038 -1.84494 0
M  V30 417 H 38.5707 -4.24579 -0.58573 0
M  V30 418 H 42.7547 -4.96229 0.0839194 0
M  V30 419 H 38.0107 -6.03005 1.00973 0
M  V30 420 H 42.1847 -6.75955 1.67504 0
M  V30 421 H 39.8117 -7.2934 2.144 0
M  V30 422 N 41.3868 0.248026 -1.55636 0
M  V30 423 C 42.8028 0.596483 -1.48035 0
M  V30 424 C 43.0028 1.88386 -0.715039 0
M  V30 425 O 42.0588 2.51319 -0.243944 0
M  V30 426 C 43.3718 0.700258 -2.92433 0
M  V30 427 C 44.9198 0.792659 -3.02797 0
M  V30 428 C 45.3948 0.928005 -4.485 0
M  V30 429 N 46.8858 0.992903 -4.52433 0
M  V30 430 C 47.6208 1.11687 -5.62418 0
M  V30 431 N 47.1168 1.20645 -6.82214 0
M  V30 432 N 48.9098 1.14994 -5.50212 0
M  V30 433 H 41.0608 -0.597109 -2.03834 0
M  V30 434 H 43.3238 -0.205925 -0.925364 0
M  V30 435 H 43.0298 -0.175658 -3.51261 0
M  V30 436 H 42.9038 1.57255 -3.42857 0
M  V30 437 H 45.2908 1.65903 -2.4405 0
M  V30 438 H 45.3718 -0.104762 -2.55585 0
M  V30 439 H 45.0158 0.0661971 -5.07857 0
M  V30 440 H 44.9458 1.84045 -4.93391 0
M  V30 441 H 47.4368 0.935064 -3.66149 0
M  V30 442 H 47.7498 1.30008 -7.61786 0
M  V30 443 H 46.0948 1.17605 -6.84977 0
M  V30 444 H 49.2858 1.07643 -4.55555 0
M  V30 445 H 49.4588 1.24311 -6.35965 0
M  V30 446 N 42.8649 1.48995 0.513639 0
M  V30 447 C 44.1109 1.58076 1.27042 0
M  V30 448 C 44.4439 0.261026 1.92438 0
M  V30 449 O 43.7189 -0.734393 1.80103 0
M  V30 450 C 44.0019 2.73091 2.34719 0
M  V30 451 C 43.8549 4.14821 1.73907 0
M  V30 452 C 45.1739 2.83796 3.36375 0
M  V30 453 H 42.2929 0.575391 0.460536 0
M  V30 454 H 44.9349 1.81232 0.570516 0
M  V30 455 H 43.0849 2.53479 2.94416 0
M  V30 456 H 44.7569 4.45917 1.18135 0
M  V30 457 H 42.9999 4.21058 1.0437 0
M  V30 458 H 43.6709 4.91147 2.51949 0
M  V30 459 H 46.1469 3.01611 2.86653 0
M  V30 460 H 45.0229 3.65971 4.09093 0
M  V30 461 H 45.2839 1.92624 3.9793 0
M  V30 462 N 44.343 -0.763751 1.37857 0
M  V30 463 C 45.291 -1.89864 1.34367 0
M  V30 464 C 46.285 -1.67816 0.231143 0
M  V30 465 O 47.491 -1.75508 0.399617 0
M  V30 466 H 43.866 -0.624501 0.41893 0
M  V30 467 H 45.837 -1.89925 2.30155 0
M  V30 468 C 44.586 -3.27227 1.1755 0
M  V30 469 H 43.909 -3.44773 2.02414 0
M  V30 470 H 45.349 -4.06911 1.1916 0
M  V30 471 C 43.808 -3.36692 -0.118311 0
M  V30 472 O 44.338 -3.86374 -1.09902 0
M  V30 473 N 42.544 -2.90092 -0.171717 0
M  V30 474 H 42.091 -2.49853 0.627012 0
M  V30 475 H 42.049 -2.96806 -1.03699 0
M  V30 476 N 45.8211 -1.22559 -0.990812 0
M  V30 477 C 47.0671 -1.05297 -1.73322 0
M  V30 478 C 47.4001 0.410655 -1.89808 0
M  V30 479 O 46.6751 1.30439 -1.44277 0
M  V30 480 C 46.9581 -1.76713 -3.13759 0
M  V30 481 C 46.8111 -3.30684 -3.04907 0
M  V30 482 C 48.1301 -1.52121 -4.12974 0
M  V30 483 H 45.2491 -0.38392 -0.629106 0
M  V30 484 H 47.8911 -1.50926 -1.15418 0
M  V30 485 H 46.0411 -1.37924 -3.63193 0
M  V30 486 H 47.7131 -3.7893 -2.63077 0
M  V30 487 H 45.9561 -3.60253 -2.41661 0
M  V30 488 H 46.6271 -3.75833 -4.04294 0
M  V30 489 H 49.1031 -1.85819 -3.72304 0
M  V30 490 H 47.9791 -2.04582 -5.0935 0
M  V30 491 H 48.2401 -0.454257 -4.3976 0
M  V30 492 N 47.2992 1.18797 -1.03562 0
M  V30 493 C 48.2092 2.25913 -0.632505 0
M  V30 494 C 49.2252 1.70668 0.338882 0
M  V30 495 O 50.4012 2.00453 0.195076 0
M  V30 496 C 47.4662 3.467 0.00350942 0
M  V30 497 C 46.5272 4.17098 -1.01624 0
M  V30 498 C 45.7602 5.32119 -0.410478 0
M  V30 499 O 45.9832 5.64976 0.784725 0
M  V30 500 O 44.9172 5.9107 -1.13667 0
M  V30 501 H 48.7432 2.62648 -1.52478 0
M  V30 502 H 46.3282 1.25781 -0.806195 0
M  V30 503 H 48.2102 4.19878 0.35781 0
M  V30 504 H 46.8852 3.11798 0.869686 0
M  V30 505 H 45.7922 3.4601 -1.42224 0
M  V30 506 H 47.1252 4.55987 -1.85301 0
M  V30 507 N 48.7773 0.814389 1.34928 0
M  V30 508 C 50.0543 0.321363 1.92942 0
M  V30 509 C 50.4343 -1.19014 1.74353 0
M  V30 510 O 49.7823 -1.99328 1.11716 0
M  V30 511 C 49.9923 0.741323 3.41036 0
M  V30 512 C 51.3403 0.735266 4.18185 0
M  V30 513 O 52.3643 0.68336 3.49584 0
M  V30 514 O 51.2233 0.800703 5.40602 0
M  V30 515 H 48.3173 0.0858893 0.822528 0
M  V30 516 H 50.8633 0.898609 1.43955 0
M  V30 517 H 49.6353 1.78276 3.4833 0
M  V30 518 H 49.2583 0.139307 3.97356 0
M  V30 519 N 50.2554 -1.46986 0.568584 0
M  V30 520 C 51.1654 -2.33942 -0.17555 0
M  V30 521 C 52.1814 -1.48891 -0.90041 0
M  V30 522 O 53.3574 -1.81794 -0.86676 0
M  V30 523 C 50.4224 -3.25811 -1.18524 0
M  V30 524 C 49.4834 -4.26757 -0.466582 0
M  V30 525 C 48.7164 -5.14236 -1.42817 0
M  V30 526 O 48.9394 -5.04379 -2.66379 0
M  V30 527 O 47.8734 -5.94412 -0.946453 0
M  V30 528 H 51.6994 -2.98896 0.538036 0
M  V30 529 H 49.2844 -1.4573 0.329097 0
M  V30 530 H 51.1664 -3.82527 -1.76779 0
M  V30 531 H 49.8414 -2.63471 -1.88055 0
M  V30 532 H 48.7484 -3.73769 0.157451 0
M  V30 533 H 50.0814 -4.91843 0.187485 0
M  V30 534 N 51.7335 -0.305618 -1.54608 0
M  V30 535 C 52.6815 0.584119 -2.25146 0
M  V30 536 C 53.6755 1.13326 -1.25911 0
M  V30 537 O 54.8815 1.08337 -1.43747 0
M  V30 538 H 51.2565 0.206983 -0.722954 0
M  V30 539 H 53.2275 -0.033291 -2.98381 0
M  V30 540 C 51.9765 1.74225 -3.009 0
M  V30 541 H 51.2995 1.32892 -3.77067 0
M  V30 542 H 52.7395 2.34077 -3.53531 0
M  V30 543 C 51.1985 2.64914 -2.0814 0
M  V30 544 O 51.7285 3.66137 -1.65246 0
M  V30 545 N 49.9345 2.3275 -1.74 0
M  V30 546 H 49.4815 1.50479 -2.09078 0
M  V30 547 H 49.4395 2.93694 -1.12211 0
M  V30 548 N 53.2116 1.57565 -0.0334293 0
M  V30 549 C 54.1616 2.06978 0.956237 0
M  V30 550 C 55.1456 0.971193 1.28283 0
M  V30 551 O 56.3376 1.23471 1.26822 0
M  V30 552 C 53.4666 2.60393 2.23719 0
M  V30 553 C 52.5526 3.7719 1.93877 0
M  V30 554 N 52.9436 4.87639 1.34321 0
M  V30 555 C 51.2416 3.85758 2.23845 0
M  V30 556 C 51.9426 5.68825 1.21709 0
M  V30 557 N 50.9186 5.1587 1.71404 0
M  V30 558 H 54.7206 2.89773 0.490815 0
M  V30 559 H 52.2346 1.61492 0.171478 0
M  V30 560 H 54.2316 2.94088 2.95496 0
M  V30 561 H 52.8916 1.79031 2.70884 0
M  V30 562 H 53.9026 5.07803 1.01767 0
M  V30 563 H 50.5796 3.1531 2.73653 0
M  V30 564 H 51.9696 6.67631 0.75621 0
M  V30 565 N 54.6897 -0.239769 1.55765 0
M  V30 566 C 55.9387 -0.964754 1.77131 0
M  V30 567 C 56.2517 -1.86213 0.59868 0
M  V30 568 O 57.4577 -2.6244 0.695522 0
M  V30 569 C 55.9137 -1.76552 3.1362 0
M  V30 570 C 55.5217 -0.915185 4.38553 0
M  V30 571 C 57.2657 -2.48281 3.44321 0
M  V30 572 C 55.1727 -1.71225 5.66071 0
M  V30 573 H 54.1027 -0.363953 0.660344 0
M  V30 574 H 56.7537 -0.219181 1.82186 0
M  V30 575 H 55.1357 -2.55331 3.02691 0
M  V30 576 H 56.3097 -0.169217 4.60489 0
M  V30 577 H 54.6247 -0.310889 4.15238 0
M  V30 578 H 57.2217 -3.08382 4.36812 0
M  V30 579 H 57.5647 -3.20256 2.65973 0
M  V30 580 H 58.0977 -1.76507 3.56497 0
M  V30 581 H 54.8367 -1.03612 6.4726 0
M  V30 582 H 54.3567 -2.43331 5.48224 0
M  V30 583 H 56.0357 -2.27758 6.05587 0
M  V30 584 N 56.1678 -1.49265 -0.50573 0
M  V30 585 C 57.1158 -1.66065 -1.62866 0
M  V30 586 C 58.1098 -0.526636 -1.61006 0
M  V30 587 O 59.3158 -0.706126 -1.65571 0
M  V30 588 H 55.6908 -0.52356 -0.539805 0
M  V30 589 H 57.6618 -2.60329 -1.45848 0
M  V30 590 C 56.4108 -1.74008 -3.01026 0
M  V30 591 H 55.7338 -2.6064 -3.03161 0
M  V30 592 H 57.1738 -1.89798 -3.79147 0
M  V30 593 C 55.6328 -0.483868 -3.33407 0
M  V30 594 O 56.1628 0.392548 -3.99777 0
M  V30 595 N 54.3688 -0.348236 -2.88506 0
M  V30 596 H 53.9158 -1.06242 -2.34671 0
M  V30 597 H 53.8738 0.491204 -3.10539 0
M  V30 598 N 57.6459 0.756429 -1.3826 0
M  V30 599 C 58.8949 1.51082 -1.3363 0
M  V30 600 C 59.2079 1.95467 0.0720068 0
M  V30 601 O 60.4139 2.7043 0.240834 0
M  V30 602 C 58.8699 2.72893 -2.34644 0
M  V30 603 C 58.4779 2.35544 -3.81081 0
M  V30 604 C 60.2219 3.50791 -2.39052 0
M  V30 605 C 58.1289 3.53948 -4.73787 0
M  V30 606 H 57.0589 0.56727 -0.49671 0
M  V30 607 H 59.7099 0.827147 -1.638 0
M  V30 608 H 58.0919 3.43227 -1.97513 0
M  V30 609 H 59.2659 1.72894 -4.27135 0
M  V30 610 H 57.5809 1.70786 -3.79764 0
M  V30 611 H 60.1779 4.38823 -3.05513 0
M  V30 612 H 60.5209 3.91745 -1.40861 0
M  V30 613 H 61.0539 2.87467 -2.74968 0
M  V30 614 H 57.7929 3.18064 -5.73163 0
M  V30 615 H 57.3129 4.15651 -4.32428 0
M  V30 616 H 58.9919 4.20566 -4.91663 0
M  V30 617 N 59.124 1.23083 0.984299 0
M  V30 618 C 60.373 1.05466 1.71929 0
M  V30 619 C 60.686 -0.409211 1.91272 0
M  V30 620 O 61.892 -0.705226 2.62181 0
M  V30 621 C 60.348 1.83874 3.09384 0
M  V30 622 C 59.956 3.34566 2.97943 0
M  V30 623 C 61.7 1.74734 3.8687 0
M  V30 624 C 59.607 4.05381 4.30605 0
M  V30 625 H 58.537 0.391039 0.644674 0
M  V30 626 H 61.188 1.47013 1.09815 0
M  V30 627 H 59.57 1.35131 3.72231 0
M  V30 628 H 60.744 3.90767 2.44209 0
M  V30 629 H 59.059 3.44476 2.33934 0
M  V30 630 H 61.656 2.24957 4.85076 0
M  V30 631 H 61.999 0.709372 4.10212 0
M  V30 632 H 62.532 2.21067 3.30717 0
M  V30 633 H 59.271 5.09467 4.1246 0
M  V30 634 H 58.791 3.53967 4.84218 0
M  V30 635 H 60.47 4.11458 4.99311 0
M  V30 636 N 60.6021 -1.18246 1.0419 0
M  V30 637 C 62.0181 -1.40269 0.761366 0
M  V30 638 C 62.2181 -1.90777 -0.648578 0
M  V30 639 O 61.2741 -2.0929 -1.41258 0
M  V30 640 C 62.5871 -2.40237 1.8085 0
M  V30 641 C 64.1351 -2.53961 1.82955 0
M  V30 642 C 64.6101 -3.57194 2.86664 0
M  V30 643 N 66.1011 -3.64702 2.85563 0
M  V30 644 C 66.8361 -4.44309 3.6246 0
M  V30 645 N 66.3321 -5.27514 4.49111 0
M  V30 646 N 68.1251 -4.39084 3.50944 0
M  V30 647 H 60.2761 -0.837882 1.95175 0
M  V30 648 H 62.5391 -0.430608 0.84456 0
M  V30 649 H 62.2451 -2.10176 2.81991 0
M  V30 650 H 62.1191 -3.39601 1.64168 0
M  V30 651 H 64.5061 -2.83338 0.824855 0
M  V30 652 H 64.5871 -1.54706 2.03715 0
M  V30 653 H 64.2311 -3.28558 3.87314 0
M  V30 654 H 64.1611 -4.5613 2.6316 0
M  V30 655 H 66.6521 -3.05289 2.22727 0
M  V30 656 H 66.9651 -5.85411 5.04493 0
M  V30 657 H 65.3101 -5.2693 4.53178 0
M  V30 658 H 68.5011 -3.7313 2.82651 0
M  V30 659 H 68.6741 -5.00883 4.11121 0
M  V30 660 N 62.0802 -0.821533 -1.34494 0
M  V30 661 C 62.9902 -0.244355 -2.33324 0
M  V30 662 C 64.0062 0.620527 -1.62559 0
M  V30 663 O 65.1822 0.528754 -1.94335 0
M  V30 664 C 62.2472 0.585368 -3.41723 0
M  V30 665 C 61.3082 -0.301752 -4.28238 0
M  V30 666 C 60.5412 0.488466 -5.3146 0
M  V30 667 O 60.7642 1.72186 -5.4379 0
M  V30 668 O 59.6982 -0.12848 -6.01763 0
M  V30 669 H 63.5242 -1.06231 -2.84515 0
M  V30 670 H 61.1092 -0.583645 -1.37528 0
M  V30 671 H 62.9912 1.05747 -4.07916 0
M  V30 672 H 61.6662 1.38068 -2.92778 0
M  V30 673 H 60.5732 -0.821315 -3.64973 0
M  V30 674 H 61.9062 -1.06138 -4.8062 0
M  V30 675 N 63.5583 1.46682 -0.576371 0
M  V30 676 C 64.4883 2.33028 0.148397 0
M  V30 677 C 65.4693 1.44961 0.889956 0
M  V30 678 O 66.6543 1.73789 0.866662 0
M  V30 679 C 63.7843 3.27117 1.1667 0
M  V30 680 C 62.7383 4.24575 0.540386 0
M  V30 681 C 62.0643 5.08126 1.6647 0
M  V30 682 C 63.3643 5.19722 -0.518331 0
M  V30 683 H 65.0583 2.93875 -0.572509 0
M  V30 684 H 62.6043 1.41315 -0.276768 0
M  V30 685 H 64.5573 3.86374 1.68204 0
M  V30 686 H 63.2813 2.64364 1.9178 0
M  V30 687 H 61.9403 3.66571 0.0461769 0
M  V30 688 H 61.5883 4.41762 2.40531 0
M  V30 689 H 61.2883 5.74122 1.25131 0
M  V30 690 H 62.8123 5.70246 2.18293 0
M  V30 691 H 64.2263 5.73232 -0.0883058 0
M  V30 692 H 62.6233 5.94026 -0.851679 0
M  V30 693 H 63.6933 4.64037 -1.40703 0
M  V30 694 N 65.0364 0.313813 1.54444 0
M  V30 695 C 65.9994 -0.54379 2.22656 0
M  V30 696 C 66.9994 -1.05124 1.21678 0
M  V30 697 O 68.1894 -0.945225 1.46325 0
M  V30 698 C 65.3214 -1.75427 2.92298 0
M  V30 699 H 66.5144 0.0523599 2.99854 0
M  V30 700 H 64.0674 0.0647834 1.56166 0
M  V30 701 H 64.8024 -2.38991 2.19211 0
M  V30 702 H 64.5874 -1.39791 3.66334 0
M  V30 703 H 66.0774 -2.36325 3.44297 0
M  V30 704 N 66.5145 -1.57545 0.0417849 0
M  V30 705 C 67.7395 -1.97035 -0.647455 0
M  V30 706 C 68.1645 -0.918775 -1.64135 0
M  V30 707 O 67.5225 0.119006 -1.80909 0
M  V30 708 C 67.5705 -3.35609 -1.31905 0
M  V30 709 O 66.6745 -3.3287 -2.43457 0
M  V30 710 H 66.0155 -0.64211 -0.169086 0
M  V30 711 H 68.5455 -2.04318 0.107399 0
M  V30 712 H 68.5555 -3.72126 -1.67291 0
M  V30 713 H 67.2305 -4.11685 -0.590586 0
M  V30 714 H 65.8075 -3.08087 -2.10088 0
M  V30 715 N 67.9926 0.231505 -1.5589 0
M  V30 716 C 69.2206 0.974505 -1.82513 0
M  V30 717 C 69.6356 1.78344 -0.619591 0
M  V30 718 O 68.9926 1.77792 0.411848 0
M  V30 719 C 69.0436 1.90007 -3.07538 0
M  V30 720 O 68.7646 1.12385 -4.2344 0
M  V30 721 C 70.2656 2.75779 -3.47075 0
M  V30 722 H 67.4856 0.286065 -0.606966 0
M  V30 723 H 70.0296 0.249739 -2.02969 0
M  V30 724 H 68.1846 2.57891 -2.89086 0
M  V30 725 H 68.5986 1.75125 -4.944 0
M  V30 726 H 70.0726 3.36443 -4.37619 0
M  V30 727 H 70.5496 3.47672 -2.68367 0
M  V30 728 H 71.1556 2.13323 -3.67931 0
M  V30 729 N 69.4707 1.49531 0.497807 0
M  V30 730 C 70.6987 1.62893 1.27567 0
M  V30 731 C 71.1137 0.301585 1.86376 0
M  V30 732 O 70.4707 -0.713335 1.67982 0
M  V30 733 C 70.5217 2.70013 2.40364 0
M  V30 734 O 70.2427 3.976 1.83972 0
M  V30 735 C 71.7437 2.94109 3.31685 0
M  V30 736 H 68.9637 0.548298 0.386794 0
M  V30 737 H 71.5077 1.95584 0.597245 0
M  V30 738 H 69.6627 2.40092 3.04031 0
M  V30 739 H 70.0767 4.56631 2.58047 0
M  V30 740 H 71.5507 3.72788 4.07104 0
M  V30 741 H 72.0277 2.04147 3.88871 0
M  V30 742 H 72.6337 3.2546 2.73781 0
M  V30 743 N 70.9488 -0.749086 1.3866 0
M  V30 744 C 71.8808 -1.87273 1.32142 0
M  V30 745 C 72.8938 -1.61127 0.232787 0
M  V30 746 O 74.0828 -1.71623 0.49069 0
M  V30 747 C 71.1828 -3.23005 1.02571 0
M  V30 748 C 70.3558 -3.7662 2.22433 0
M  V30 749 C 69.4148 -4.90879 1.89537 0
M  V30 750 O 68.4408 -5.05276 2.62078 0
M  V30 751 N 69.6428 -5.74198 0.853031 0
M  V30 752 H 72.4078 -1.93373 2.28969 0
M  V30 753 H 69.9688 -0.929216 1.32579 0
M  V30 754 H 71.9608 -3.96992 0.786085 0
M  V30 755 H 70.5308 -3.12262 0.145249 0
M  V30 756 H 69.7508 -2.94147 2.62434 0
M  V30 757 H 71.0388 -4.09173 3.02415 0
M  V30 758 H 70.4368 -5.6514 0.25155 0
M  V30 759 H 68.9938 -6.48313 0.67329 0
M  V30 760 N 72.4269 -1.23603 -0.977757 0
M  V30 761 C 73.6759 -1.06377 -1.71368 0
M  V30 762 C 73.9889 0.399062 -1.91486 0
M  V30 763 O 75.1949 0.691312 -2.62551 0
M  V30 764 C 73.6509 -1.85512 -3.08404 0
M  V30 765 C 73.2589 -3.36141 -2.96164 0
M  V30 766 C 75.0029 -1.76783 -3.85938 0
M  V30 767 C 72.9099 -4.07659 -4.28449 0
M  V30 768 H 71.8399 -0.394452 -0.642591 0
M  V30 769 H 74.4909 -1.47594 -1.09034 0
M  V30 770 H 72.8729 -1.37103 -3.71509 0
M  V30 771 H 74.0469 -3.92056 -2.42133 0
M  V30 772 H 72.3619 -3.45712 -2.32104 0
M  V30 773 H 74.9589 -2.27526 -4.83876 0
M  V30 774 H 75.3019 -0.731116 -4.0983 0
M  V30 775 H 75.8349 -2.22818 -3.2954 0
M  V30 776 H 72.5739 -5.11648 -4.09752 0
M  V30 777 H 72.0939 -3.5653 -4.82334 0
M  V30 778 H 73.7729 -4.141 -4.97122 0
M  V30 779 N 73.905 1.17692 -1.04816 0
M  V30 780 C 75.182 1.83768 -0.669963 0
M  V30 781 C 75.562 1.93232 0.849986 0
M  V30 782 O 74.91 1.46397 1.75443 0
M  V30 783 C 75.12 3.21641 -1.35455 0
M  V30 784 C 76.468 3.97592 -1.49017 0
M  V30 785 O 77.492 3.31107 -1.31326 0
M  V30 786 O 76.351 5.16729 -1.77914 0
M  V30 787 H 73.445 0.792799 -0.235368 0
M  V30 788 H 75.991 1.25021 -1.14751 0
M  V30 789 H 74.763 3.097 -2.39168 0
M  V30 790 H 74.386 3.88052 -0.866107 0
M  V30 791 N 75.3831 0.828654 1.34056 0
M  V30 792 C 76.6301 0.419458 1.98108 0
M  V30 793 C 76.9581 -1.01886 1.65679 0
M  V30 794 O 76.2131 -1.72539 0.923512 0
M  V30 795 C 76.5121 0.575226 3.52741 0
M  V30 796 C 76.1781 1.98012 4.05095 0
M  V30 797 C 74.8401 2.36442 4.19104 0
M  V30 798 C 77.1921 2.89824 4.33188 0
M  V30 799 C 74.5201 3.66009 4.58535 0
M  V30 800 C 76.8721 4.1886 4.74066 0
M  V30 801 C 75.5361 4.5726 4.86281 0
M  V30 802 H 74.8061 0.153491 0.724929 0
M  V30 803 H 77.4531 1.05371 1.59904 0
M  V30 804 H 75.7581 -0.142385 3.91541 0
M  V30 805 H 77.4551 0.239057 4.00287 0
M  V30 806 H 74.0451 1.67162 3.94658 0
M  V30 807 H 78.2291 2.61375 4.21897 0
M  V30 808 H 73.4851 3.95579 4.66184 0
M  V30 809 H 77.6591 4.90086 4.94761 0
M  V30 810 H 75.2861 5.57707 5.16592 0
M  V30 811 N 76.8612 -1.46375 0.584142 0
M  V30 812 C 78.1072 -2.03248 0.0787103 0
M  V30 813 C 78.4622 -1.44737 -1.26763 0
M  V30 814 O 77.7552 -0.603625 -1.81843 0
M  V30 815 C 77.9492 -3.57373 -0.0439342 0
M  V30 816 C 77.7782 -4.30831 1.28897 0
M  V30 817 C 76.5482 -4.69683 1.8635 0
M  V30 818 C 78.7462 -4.64278 2.21248 0
M  V30 819 N 76.7282 -5.27898 3.13365 0
M  V30 820 C 78.0992 -5.23078 3.32851 0
M  V30 821 C 80.1542 -4.46209 2.20911 0
M  V30 822 C 78.8572 -5.65715 4.44251 0
M  V30 823 C 80.8832 -4.89864 3.31341 0
M  V30 824 C 80.2452 -5.48736 4.41665 0
M  V30 825 H 76.3442 -0.778714 0.0716144 0
M  V30 826 H 78.9282 -1.78509 0.777355 0
M  V30 827 H 77.0992 -3.81823 -0.711749 0
M  V30 828 H 78.8312 -4.00892 -0.553881 0
M  V30 829 H 75.5862 -4.52488 1.39826 0
M  V30 830 H 76.0102 -5.61525 3.78178 0
M  V30 831 H 80.6522 -4.00027 1.36888 0
M  V30 832 H 78.3702 -6.10875 5.29015 0
M  V30 833 H 81.9562 -4.77634 3.322 0
M  V30 834 H 80.8362 -5.81898 5.25704 0
M  V30 835 N 78.3393 -0.321999 -1.54275 0
M  V30 836 C 79.2863 0.544664 -2.24281 0
M  V30 837 C 80.2563 1.1129 -1.23303 0
M  V30 838 O 81.4413 1.15354 -1.51981 0
M  V30 839 C 78.5813 1.70045 -3.00298 0
M  V30 840 C 77.6943 1.16159 -4.1609 0
M  V30 841 C 76.8293 2.28293 -4.79641 0
M  V30 842 C 75.8683 1.71648 -5.8754 0
M  V30 843 N 75.0053 2.77438 -6.44959 0
M  V30 844 H 79.8453 -0.0588907 -2.97942 0
M  V30 845 H 77.3823 -0.0408345 -1.47043 0
M  V30 846 H 79.3403 2.38054 -3.42616 0
M  V30 847 H 77.9703 2.27531 -2.28975 0
M  V30 848 H 77.0223 0.373092 -3.78566 0
M  V30 849 H 78.3343 0.707087 -4.93763 0
M  V30 850 H 77.4883 3.0421 -5.2492 0
M  V30 851 H 76.2273 2.77079 -4.01346 0
M  V30 852 H 75.2323 0.942282 -5.41665 0
M  V30 853 H 76.4573 1.23741 -6.67731 0
M  V30 854 H 74.4033 3.25519 -5.69538 0
M  V30 855 H 74.3203 2.36547 -7.1804 0
M  V30 856 H 75.5883 3.53189 -6.94894 0
M  V30 857 N 79.8174 1.5752 -0.0501392 0
M  V30 858 C 81.2284 1.80271 0.485705 0
M  V30 859 C 81.5794 0.96228 1.70981 0
M  V30 860 O 80.7044 0.178578 2.15662 0
M  V30 861 C 81.2994 3.26957 0.887938 0
M  V30 862 C 79.8584 3.5063 1.36877 0
M  V30 863 C 79.0054 2.75165 0.343468 0
M  V30 864 H 81.9564 1.56281 -0.276028 0
M  V30 865 H 81.9774 3.37821 1.75093 0
M  V30 866 H 81.4894 3.881 -0.0031809 0
M  V30 867 H 79.5904 2.94766 2.27911 0
M  V30 868 H 79.7034 4.59343 1.36164 0
M  V30 869 H 78.0674 2.4127 0.816128 0
M  V30 870 H 78.8504 3.39034 -0.539548 0
M  V30 871 N 81.2955 -0.223234 1.56011 0
M  V30 872 C 82.5725 -0.972108 1.69733 0
M  V30 873 C 82.9525 -2.02485 0.59691 0
M  V30 874 O 82.3005 -2.25037 -0.396324 0
M  V30 875 C 82.5105 -1.58407 3.10979 0
M  V30 876 C 83.8585 -2.07696 3.70334 0
M  V30 877 O 84.8825 -1.68304 3.1393 0
M  V30 878 O 83.7415 -2.80096 4.69264 0
M  V30 879 H 80.8355 -0.453993 0.691245 0
M  V30 880 H 83.3815 -0.215149 1.68331 0
M  V30 881 H 82.1535 -0.823831 3.82529 0
M  V30 882 H 81.7765 -2.40661 3.16493 0
M  V30 883 N 82.7736 -1.49793 -0.48987 0
M  V30 884 C 83.9986 -1.63836 -1.27172 0
M  V30 885 C 84.4236 -0.31402 -1.8546 0
M  V30 886 O 83.7816 0.719803 -1.66399 0
M  V30 887 C 83.8296 -2.71797 -2.36978 0
M  V30 888 O 82.9336 -2.31744 -3.41128 0
M  V30 889 H 82.2746 -0.547997 -0.37496 0
M  V30 890 H 84.8046 -1.96053 -0.585191 0
M  V30 891 H 84.8146 -2.94305 -2.82575 0
M  V30 892 H 83.4896 -3.67923 -1.93921 0
M  V30 893 H 82.0666 -2.1961 -3.01373 0
M  V30 894 N 84.2517 0.741722 -1.39055 0
M  V30 895 C 85.4977 1.50336 -1.36113 0
M  V30 896 C 85.8307 1.94148 0.0450796 0
M  V30 897 O 85.1057 1.66301 1.00868 0
M  V30 898 C 85.3887 2.74773 -2.32749 0
M  V30 899 C 85.2417 2.37023 -3.82283 0
M  V30 900 C 86.5607 3.76846 -2.27322 0
M  V30 901 H 83.6797 0.545351 -0.495743 0
M  V30 902 H 86.3217 0.848624 -1.69995 0
M  V30 903 H 84.4717 3.30639 -2.03986 0
M  V30 904 H 86.1437 1.8684 -4.21768 0
M  V30 905 H 84.3867 1.69334 -3.99385 0
M  V30 906 H 85.0577 3.26104 -4.45376 0
M  V30 907 H 87.5337 3.30548 -2.5274 0
M  V30 908 H 86.4097 4.6159 -2.97028 0
M  V30 909 H 86.6707 4.23286 -1.27599 0
M  V30 910 N 85.7298 1.2412 0.971189 0
M  V30 911 C 86.9578 1.10575 1.74874 0
M  V30 912 C 87.3728 -0.342017 1.85676 0
M  V30 913 O 86.7298 -1.23617 1.34258 0
M  V30 914 C 86.7808 1.73579 3.171 0
M  V30 915 O 86.5018 3.12695 3.06844 0
M  V30 916 C 88.0028 1.65598 4.11208 0
M  V30 917 H 85.2228 0.386504 0.548503 0
M  V30 918 H 87.7668 1.64156 1.21955 0
M  V30 919 H 85.9218 1.24009 3.67016 0
M  V30 920 H 86.3358 3.43412 3.96445 0
M  V30 921 H 87.8098 2.1437 5.08674 0
M  V30 922 H 88.2868 0.616532 4.34851 0
M  V30 923 H 88.8928 2.14578 3.67201 0
M  V30 924 N 87.2079 -1.17134 1.05439 0
M  V30 925 C 88.1399 -2.2078 0.615539 0
M  V30 926 C 89.1529 -1.59584 -0.322001 0
M  V30 927 O 90.3419 -1.78133 -0.114344 0
M  V30 928 C 87.4419 -3.38691 -0.118938 0
M  V30 929 C 86.6149 -4.29454 0.829924 0
M  V30 930 C 85.6739 -5.26024 0.136258 0
M  V30 931 O 84.6999 -5.63952 0.77115 0
M  V30 932 N 85.9019 -5.69487 -1.1254 0
M  V30 933 H 88.6669 -2.59052 1.50705 0
M  V30 934 H 86.2279 -1.32058 0.936603 0
M  V30 935 H 88.2199 -4.00329 -0.593179 0
M  V30 936 H 86.7899 -2.98996 -0.91215 0
M  V30 937 H 86.0099 -3.65211 1.48373 0
M  V30 938 H 87.2979 -4.86984 1.47392 0
M  V30 939 H 86.6959 -5.4075 -1.6615 0
M  V30 940 H 85.2529 -6.33257 -1.54366 0
M  V30 941 N 88.686 -0.835752 -1.33615 0
M  V30 942 C 89.935 -0.426289 -1.97144 0
M  V30 943 C 90.248 1.01912 -1.66953 0
M  V30 944 O 91.454 1.53311 -2.24072 0
M  V30 945 C 89.91 -0.711321 -3.52801 0
M  V30 946 C 89.518 -2.1712 -3.91871 0
M  V30 947 C 91.262 -0.368654 -4.22896 0
M  V30 948 C 89.169 -2.40044 -5.40493 0
M  V30 949 H 88.099 -0.15567 -0.737755 0
M  V30 950 H 90.75 -1.0239 -1.52278 0
M  V30 951 H 89.132 -0.0433766 -3.95976 0
M  V30 952 H 90.306 -2.87936 -3.59763 0
M  V30 953 H 88.621 -2.47654 -3.34749 0
M  V30 954 H 91.218 -0.517601 -5.32189 0
M  V30 955 H 91.561 0.688078 -4.10574 0
M  V30 956 H 92.094 -0.991702 -3.8524 0
M  V30 957 H 88.833 -3.44271 -5.57815 0
M  V30 958 H 88.353 -1.73785 -5.74072 0
M  V30 959 H 90.032 -2.23042 -6.0734 0
M  V30 960 N 90.1641 1.46063 -0.591896 0
M  V30 961 C 91.1111 2.30399 0.136069 0
M  V30 962 C 92.0811 1.41169 0.875238 0
M  V30 963 O 93.2661 1.70112 0.86409 0
M  V30 964 C 90.4061 3.25804 1.13781 0
M  V30 965 C 89.5191 4.30134 0.401137 0
M  V30 966 C 88.6541 5.12659 1.39121 0
M  V30 967 C 87.6931 6.0873 0.641462 0
M  V30 968 N 86.8301 6.8409 1.58004 0
M  V30 969 H 91.6701 2.92118 -0.589144 0
M  V30 970 H 89.2071 1.43959 -0.302342 0
M  V30 971 H 91.1651 3.79569 1.73156 0
M  V30 972 H 89.7951 2.65872 1.83062 0
M  V30 973 H 88.8471 3.79152 -0.307826 0
M  V30 974 H 90.1591 4.98458 -0.184565 0
M  V30 975 H 89.3131 5.70747 2.05749 0
M  V30 976 H 88.0521 4.44316 2.01084 0
M  V30 977 H 87.0571 5.49786 -0.0385419 0
M  V30 978 H 88.2821 6.79095 0.0270945 0
M  V30 979 H 86.2281 6.18449 2.18761 0
M  V30 980 H 86.1451 7.48709 1.04738 0
M  V30 981 H 87.4131 7.4673 2.23639 0
M  V30 982 N 91.6422 0.330177 1.54103 0
M  V30 983 C 93.0532 -0.15652 1.86043 0
M  V30 984 C 93.4042 -1.51086 1.2517 0
M  V30 985 O 92.5292 -2.09023 0.560217 0
M  V30 986 C 93.1242 -0.290784 3.3755 0
M  V30 987 C 91.6832 -0.721705 3.69416 0
M  V30 988 C 90.8302 0.152622 2.7688 0
M  V30 989 H 93.7812 0.550237 1.48856 0
M  V30 990 H 93.8022 -1.12058 3.63625 0
M  V30 991 H 93.3142 0.695068 3.81825 0
M  V30 992 H 91.4152 -1.71706 3.30678 0
M  V30 993 H 91.5282 -0.520869 4.7626 0
M  V30 994 H 89.8922 -0.372894 2.51956 0
M  V30 995 H 90.6752 1.13536 3.23982 0
M  V30 996 N 93.1203 -1.57491 0.0584922 0
M  V30 997 C 94.0703 -2.08474 -0.923188 0
M  V30 998 C 95.0543 -0.991479 -1.26722 0
M  V30 999 O 96.2463 -1.25473 -1.24842 0
M  V30 1000 C 93.3753 -2.6392 -2.19548 0
M  V30 1001 C 92.4613 -3.80227 -1.87852 0
M  V30 1002 N 92.8523 -4.89714 -1.26546 0
M  V30 1003 C 91.1503 -3.89271 -2.17679 0
M  V30 1004 C 91.8513 -5.70689 -1.12644 0
M  V30 1005 N 90.8273 -5.18531 -1.63176 0
M  V30 1006 H 94.6293 -2.90517 -0.444653 0
M  V30 1007 H 92.1433 -1.61745 -0.145764 0
M  V30 1008 H 94.1403 -2.98752 -2.9078 0
M  V30 1009 H 92.8003 -1.83318 -2.68001 0
M  V30 1010 H 93.8113 -5.09358 -0.936757 0
M  V30 1011 H 90.4883 -3.19623 -2.68602 0
M  V30 1012 H 91.8783 -6.6875 -0.6499 0
M  V30 1013 N 94.5984 0.214957 -1.56127 0
M  V30 1014 C 95.8234 0.95924 -1.83884 0
M  V30 1015 C 96.2484 1.7689 -0.639644 0
M  V30 1016 O 95.6064 1.76566 0.411601 0
M  V30 1017 C 95.6544 1.84723 -3.09693 0
M  V30 1018 O 94.7584 2.94346 -2.8885 0
M  V30 1019 H 94.0994 0.27125 -0.606069 0
M  V30 1020 H 96.6294 0.226276 -2.03345 0
M  V30 1021 H 96.6394 2.25576 -3.39969 0
M  V30 1022 H 95.3144 1.25218 -3.96602 0
M  V30 1023 H 93.8914 2.57391 -2.69823 0
M  V30 1024 N 96.0765 1.50051 0.48192 0
M  V30 1025 C 97.3045 1.64237 1.25832 0
M  V30 1026 C 97.7195 0.321336 1.86045 0
M  V30 1027 O 97.0765 -0.695478 1.68729 0
M  V30 1028 C 97.1275 2.72548 2.37487 0
M  V30 1029 O 96.8485 3.99529 1.79745 0
M  V30 1030 C 98.3495 2.9761 3.28547 0
M  V30 1031 H 95.5695 0.55237 0.380957 0
M  V30 1032 H 98.1135 1.96207 0.576467 0
M  V30 1033 H 96.2685 2.43303 3.01467 0
M  V30 1034 H 96.6825 4.59342 2.5319 0
M  V30 1035 H 98.1565 3.77084 4.03127 0
M  V30 1036 H 98.6335 2.0826 3.86684 0
M  V30 1037 H 99.2395 3.28345 2.70314 0
M  V30 1038 N 97.5546 -0.734337 1.39446 0
M  V30 1039 C 98.8006 -1.49613 1.36908 0
M  V30 1040 C 99.1336 -1.94169 -0.0347829 0
M  V30 1041 O 98.4086 -1.66833 -0.999847 0
M  V30 1042 C 98.6916 -2.73534 2.34203 0
M  V30 1043 C 98.5446 -2.34993 3.83534 0
M  V30 1044 C 99.8636 -3.75635 2.29317 0
M  V30 1045 H 96.9826 -0.542714 0.498629 0
M  V30 1046 H 99.6246 -0.839597 1.70443 0
M  V30 1047 H 97.7746 -3.29553 2.05736 0
M  V30 1048 H 99.4466 -1.84601 4.22753 0
M  V30 1049 H 97.6896 -1.67213 4.00278 0
M  V30 1050 H 98.3606 -3.23738 4.47099 0
M  V30 1051 H 100.837 -3.29203 2.54489 0
M  V30 1052 H 99.7126 -4.60008 2.99472 0
M  V30 1053 H 99.9736 -4.22603 1.29842 0
M  V30 1054 N 99.0327 -1.24633 -0.964593 0
M  V30 1055 C 100.31 -0.995809 -1.68354 0
M  V30 1056 C 100.69 0.480964 -2.05548 0
M  V30 1057 O 100.038 1.45599 -1.76105 0
M  V30 1058 C 100.248 -1.92177 -2.91323 0
M  V30 1059 C 101.596 -2.19446 -3.63495 0
M  V30 1060 O 102.62 -1.89855 -3.01386 0
M  V30 1061 O 101.479 -2.69714 -4.75307 0
M  V30 1062 H 98.5727 -0.376854 -0.736146 0
M  V30 1063 H 101.119 -1.35745 -1.0184 0
M  V30 1064 H 99.8907 -2.91938 -2.60553 0
M  V30 1065 H 99.5137 -1.56349 -3.65569 0
M  V30 1066 N 100.511 1.16574 -1.06058 0
M  V30 1067 C 101.758 1.87047 -0.775873 0
M  V30 1068 C 102.086 1.81562 0.697534 0
M  V30 1069 O 101.341 1.22445 1.52662 0
M  V30 1070 C 101.64 3.36195 -1.21275 0
M  V30 1071 C 101.306 3.6188 -2.68986 0
M  V30 1072 C 99.9678 3.68599 -3.09335 0
M  V30 1073 C 102.32 3.72648 -3.64394 0
M  V30 1074 C 99.6478 3.83584 -4.43937 0
M  V30 1075 C 102 3.89154 -4.98741 0
M  V30 1076 C 100.664 3.94114 -5.3873 0
M  V30 1077 H 99.9338 0.684452 -0.283912 0
M  V30 1078 H 102.581 1.37853 -1.32925 0
M  V30 1079 H 100.886 3.87505 -0.578528 0
M  V30 1080 H 102.583 3.89103 -0.969542 0
M  V30 1081 H 99.1728 3.57281 -2.36744 0
M  V30 1082 H 103.357 3.66769 -3.34356 0
M  V30 1083 H 98.6128 3.85677 -4.74409 0
M  V30 1084 H 102.787 3.96427 -5.72554 0
M  V30 1085 H 100.414 4.05478 -6.43033 0
M  V30 1086 N 101.989 0.842826 1.3317 0
M  V30 1087 C 103.405 0.531128 1.50503 0
M  V30 1088 C 103.605 -0.940734 1.78192 0
M  V30 1089 O 102.661 -1.72436 1.84451 0
M  V30 1090 C 103.974 1.40789 2.65705 0
M  V30 1091 C 105.522 1.40708 2.79589 0
M  V30 1092 C 105.997 2.26878 3.97857 0
M  V30 1093 N 107.488 2.24609 4.05099 0
M  V30 1094 C 108.223 2.88019 4.95815 0
M  V30 1095 N 107.719 3.60496 5.9162 0
M  V30 1096 N 109.512 2.77469 4.88843 0
M  V30 1097 H 101.663 1.79557 1.1346 0
M  V30 1098 H 103.926 0.766267 0.558156 0
M  V30 1099 H 103.632 2.454 2.51936 0
M  V30 1100 H 103.506 1.08677 3.61205 0
M  V30 1101 H 105.893 0.368668 2.92788 0
M  V30 1102 H 105.974 1.76829 1.84838 0
M  V30 1103 H 105.618 3.3078 3.85418 0
M  V30 1104 H 105.548 1.88096 4.91861 0
M  V30 1105 H 108.039 1.71906 3.36536 0
M  V30 1106 H 108.352 4.06076 6.57512 0
M  V30 1107 H 106.697 3.64604 5.91683 0
M  V30 1108 H 109.888 2.20406 4.12963 0
M  V30 1109 H 110.061 3.2717 5.59342 0
M  V30 1110 N 103.467 -1.45747 0.599634 0
M  V30 1111 C 104.713 -2.02592 0.0918643 0
M  V30 1112 C 105.046 -1.46806 -1.27128 0
M  V30 1113 O 104.321 -0.639658 -1.83681 0
M  V30 1114 C 104.604 -3.60073 0.0443398 0
M  V30 1115 C 104.457 -4.26208 1.43759 0
M  V30 1116 C 105.776 -4.35309 -0.647608 0
M  V30 1117 H 102.895 -0.736175 0.034857 0
M  V30 1118 H 105.537 -1.73694 0.770081 0
M  V30 1119 H 103.687 -3.84823 -0.533224 0
M  V30 1120 H 105.359 -4.12668 2.06162 0
M  V30 1121 H 103.602 -3.84916 2.00056 0
M  V30 1122 H 104.273 -5.35069 1.35665 0
M  V30 1123 H 106.749 -4.15805 -0.156776 0
M  V30 1124 H 105.625 -5.45038 -0.649942 0
M  V30 1125 H 105.886 -4.07598 -1.71219 0
M  V30 1126 N 104.945 -0.338344 -1.53925 0
M  V30 1127 C 105.892 0.520845 -2.24846 0
M  V30 1128 C 106.862 1.09976 -1.24477 0
M  V30 1129 O 108.047 1.13735 -1.53196 0
M  V30 1130 C 105.187 1.6685 -3.02084 0
M  V30 1131 C 104.3 1.11739 -4.17299 0
M  V30 1132 C 103.435 2.23193 -4.82036 0
M  V30 1133 C 102.474 1.65407 -5.89328 0
M  V30 1134 N 101.611 2.70582 -6.47866 0
M  V30 1135 H 106.451 -0.0904881 -2.97863 0
M  V30 1136 H 103.988 -0.0564282 -1.46992 0
M  V30 1137 H 105.946 2.34407 -3.45122 0
M  V30 1138 H 104.576 2.2509 -2.31375 0
M  V30 1139 H 103.628 0.332919 -3.7894 0
M  V30 1140 H 104.94 0.654677 -4.94485 0
M  V30 1141 H 104.094 2.98626 -5.28117 0
M  V30 1142 H 102.833 2.72807 -4.04262 0
M  V30 1143 H 101.838 0.884779 -5.42634 0
M  V30 1144 H 103.063 1.16652 -6.69006 0
M  V30 1145 H 101.009 3.1946 -5.72959 0
M  V30 1146 H 100.926 2.28917 -7.20509 0
M  V30 1147 H 102.194 3.45799 -6.98601 0
M  V30 1148 N 106.423 1.57458 -0.0668435 0
M  V30 1149 C 107.386 2.11323 0.887422 0
M  V30 1150 C 108.386 1.03618 1.22964 0
M  V30 1151 O 109.576 1.29626 1.16373 0
M  V30 1152 C 106.708 2.61048 2.19242 0
M  V30 1153 H 107.901 2.96942 0.420194 0
M  V30 1154 H 105.454 1.55239 0.181793 0
M  V30 1155 H 106.189 1.78868 2.70512 0
M  V30 1156 H 105.974 3.39769 1.95702 0
M  V30 1157 H 107.464 3.02814 2.87565 0
M  V30 1158 N 107.901 -0.206675 1.56239 0
M  V30 1159 C 108.811 -1.27686 1.96808 0
M  V30 1160 C 109.827 -1.50455 0.874035 0
M  V30 1161 O 111.003 -1.63295 1.17884 0
M  V30 1162 C 108.068 -2.60358 2.28942 0
M  V30 1163 C 107.129 -2.45762 3.51994 0
M  V30 1164 C 106.362 -3.72108 3.82585 0
M  V30 1165 O 106.585 -4.75776 3.14631 0
M  V30 1166 O 105.519 -3.6833 4.76043 0
M  V30 1167 H 109.345 -0.962593 2.88041 0
M  V30 1168 H 106.93 -0.410746 1.43643 0
M  V30 1169 H 108.812 -3.38687 2.50737 0
M  V30 1170 H 107.487 -2.91435 1.4088 0
M  V30 1171 H 106.394 -1.65584 3.35459 0
M  V30 1172 H 107.727 -2.19621 4.40486 0
M  V30 1173 N 109.379 -1.50304 -0.473955 0
M  V30 1174 C 110.656 -1.51667 -1.23518 0
M  V30 1175 C 111.036 -0.259701 -2.09496 0
M  V30 1176 O 110.384 0.756986 -2.15597 0
M  V30 1177 C 110.594 -2.81082 -2.06868 0
M  V30 1178 C 111.942 -3.31631 -2.65153 0
M  V30 1179 O 112.966 -2.82384 -2.17113 0
M  V30 1180 O 111.825 -4.17471 -3.52675 0
M  V30 1181 H 108.919 -0.60822 -0.560355 0
M  V30 1182 H 111.465 -1.62592 -0.486011 0
M  V30 1183 H 110.237 -3.64041 -1.4349 0
M  V30 1184 H 109.86 -2.73146 -2.88924 0
M  V30 1185 N 110.857 0.726932 -1.39834 0
M  V30 1186 C 112.085 1.51613 -1.40787 0
M  V30 1187 C 112.5 1.88799 -0.00451505 0
M  V30 1188 O 111.857 1.54662 0.968809 0
M  V30 1189 C 111.908 2.79863 -2.28821 0
M  V30 1190 O 111.629 2.44253 -3.63692 0
M  V30 1191 C 113.13 3.73837 -2.38245 0
M  V30 1192 H 110.35 0.468264 -0.480593 0
M  V30 1193 H 112.894 0.897607 -1.83748 0
M  V30 1194 H 111.049 3.38027 -1.89252 0
M  V30 1195 H 111.463 3.26695 -4.1033 0
M  V30 1196 H 112.937 4.60699 -3.04073 0
M  V30 1197 H 113.414 4.16153 -1.40403 0
M  V30 1198 H 114.02 3.21589 -2.78317 0
M  V30 1199 N 112.336 1.25143 0.95797 0
M  V30 1200 C 113.582 1.09855 1.70469 0
M  V30 1201 C 113.915 -0.360187 1.90831 0
M  V30 1202 O 113.19 -1.26568 1.47685 0
M  V30 1203 C 113.473 1.8497 3.08963 0
M  V30 1204 C 113.326 3.38652 2.96032 0
M  V30 1205 C 114.645 1.63016 4.08795 0
M  V30 1206 H 111.764 0.400465 0.618706 0
M  V30 1207 H 114.406 1.53933 1.11376 0
M  V30 1208 H 112.556 1.47505 3.59409 0
M  V30 1209 H 114.228 3.85772 2.52938 0
M  V30 1210 H 112.471 3.66534 2.32025 0
M  V30 1211 H 113.142 3.8642 3.94187 0
M  V30 1212 H 115.618 1.95625 3.67247 0
M  V30 1213 H 114.494 2.18015 5.03747 0
M  V30 1214 H 114.755 0.570692 4.38401 0
M  V30 1215 N 113.814 -1.1601 1.06675 0
M  V30 1216 C 115.042 -1.90527 0.806667 0
M  V30 1217 C 115.457 -1.77643 -0.639396 0
M  V30 1218 O 114.814 -1.12369 -1.43803 0
M  V30 1219 C 114.865 -3.41106 1.19705 0
M  V30 1220 O 114.586 -3.53608 2.58636 0
M  V30 1221 C 116.087 -4.32663 0.965266 0
M  V30 1222 H 113.307 -0.604053 0.292166 0
M  V30 1223 H 115.851 -1.47026 1.4214 0
M  V30 1224 H 114.006 -3.82296 0.626774 0
M  V30 1225 H 114.42 -4.47011 2.74375 0
M  V30 1226 H 115.894 -5.36763 1.288 0
M  V30 1227 H 116.371 -4.39089 -0.0987936 0
M  V30 1228 H 116.977 -3.97206 1.52011 0
M  V30 1229 N 115.292 -0.849877 -1.32721 0
M  V30 1230 C 116.538 -0.451591 -1.97708 0
M  V30 1231 C 116.871 0.989175 -1.6712 0
M  V30 1232 O 116.146 1.69334 -0.956891 0
M  V30 1233 C 116.429 -0.685598 -3.53513 0
M  V30 1234 C 116.282 -2.17444 -3.93749 0
M  V30 1235 C 117.601 -0.138874 -4.39881 0
M  V30 1236 H 114.72 -0.16555 -0.718166 0
M  V30 1237 H 117.362 -1.06742 -1.57182 0
M  V30 1238 H 115.512 -0.161416 -3.88165 0
M  V30 1239 H 117.184 -2.76433 -3.693 0
M  V30 1240 H 115.427 -2.65476 -3.43081 0
M  V30 1241 H 116.098 -2.28888 -5.02309 0
M  V30 1242 H 118.574 -0.587068 -4.11938 0
M  V30 1243 H 117.45 -0.332213 -5.47894 0
M  V30 1244 H 117.711 0.95806 -4.31594 0
M  V30 1245 N 116.77 1.45427 -0.607355 0
M  V30 1246 C 117.68 2.34325 0.113463 0
M  V30 1247 C 118.696 1.51226 0.860617 0
M  V30 1248 O 119.872 1.84029 0.818255 0
M  V30 1249 C 116.937 3.28839 1.09844 0
M  V30 1250 C 115.998 4.27844 0.353271 0
M  V30 1251 C 115.231 5.17842 1.29133 0
M  V30 1252 O 115.454 5.11264 2.52913 0
M  V30 1253 O 114.388 5.96713 0.788523 0
M  V30 1254 H 118.214 2.97364 -0.617094 0
M  V30 1255 H 115.799 1.44807 -0.367619 0
M  V30 1256 H 117.681 3.8708 1.66575 0
M  V30 1257 H 116.356 2.68365 1.81003 0
M  V30 1258 H 115.263 3.7322 -0.256494 0
M  V30 1259 H 116.596 4.91173 -0.317822 0
M  V30 1260 N 118.248 0.346503 1.53744 0
M  V30 1261 C 119.196 -0.52422 2.26616 0
M  V30 1262 C 120.19 -1.09948 1.28871 0
M  V30 1263 O 121.396 -1.04488 1.46568 0
M  V30 1264 H 117.771 -0.187743 0.728187 0
M  V30 1265 H 119.742 0.11239 2.98188 0
M  V30 1266 C 118.491 -1.66186 3.05414 0
M  V30 1267 H 117.814 -1.22848 3.80458 0
M  V30 1268 H 119.254 -2.24622 3.59612 0
M  V30 1269 C 117.713 -2.59302 2.1509 0
M  V30 1270 O 118.243 -3.61628 1.74895 0
M  V30 1271 N 116.449 -2.28055 1.8011 0
M  V30 1272 H 115.996 -1.44883 2.12994 0
M  V30 1273 H 115.954 -2.90615 1.19958 0
M  V30 1274 N 119.726 -1.57421 0.075193 0
M  V30 1275 C 120.972 -1.93905 -0.594025 0
M  V30 1276 C 121.305 -0.955701 -1.69056 0
M  V30 1277 O 120.58 0.0145373 -1.94495 0
M  V30 1278 C 120.863 -3.40638 -1.1678 0
M  V30 1279 C 120.716 -4.49733 -0.0776792 0
M  V30 1280 C 122.035 -3.88259 -2.07228 0
M  V30 1281 H 119.154 -0.705105 -0.214466 0
M  V30 1282 H 121.796 -1.8947 0.141854 0
M  V30 1283 H 119.946 -3.44549 -1.79494 0
M  V30 1284 H 121.618 -4.57942 0.555573 0
M  V30 1285 H 119.861 -4.29751 0.591286 0
M  V30 1286 H 120.532 -5.49549 -0.519603 0
M  V30 1287 H 123.008 -3.86376 -1.54445 0
M  V30 1288 H 121.884 -4.91533 -2.44308 0
M  V30 1289 H 122.145 -3.26396 -2.98191 0
M  V30 1290 N 121.204 0.198386 -1.56346 0
M  V30 1291 C 122.134 1.24865 -1.9731 0
M  V30 1292 C 123.115 1.47651 -0.844576 0
M  V30 1293 O 124.3 1.59444 -1.10866 0
M  V30 1294 C 121.43 2.59358 -2.30977 0
M  V30 1295 C 120.384 2.5119 -3.46537 0
M  V30 1296 C 119.71 3.89926 -3.65871 0
M  V30 1297 C 121.01 2.03977 -4.80823 0
M  V30 1298 H 122.704 0.908252 -2.85291 0
M  V30 1299 H 120.25 0.435462 -1.37258 0
M  V30 1300 H 122.203 3.33011 -2.58228 0
M  V30 1301 H 120.927 2.95132 -1.39874 0
M  V30 1302 H 119.586 1.79993 -3.19371 0
M  V30 1303 H 119.234 4.23046 -2.72105 0
M  V30 1304 H 118.934 3.85336 -4.4361 0
M  V30 1305 H 120.458 4.65205 -3.95495 0
M  V30 1306 H 121.872 2.67386 -5.07127 0
M  V30 1307 H 120.269 2.10397 -5.62008 0
M  V30 1308 H 121.339 0.992861 -4.74626 0
M  V30 1309 N 122.682 1.50554 0.465978 0
M  V30 1310 C 123.629 1.6979 1.56333 0
M  V30 1311 C 124.599 0.539239 1.57103 0
M  V30 1312 O 125.784 0.770401 1.74555 0
M  V30 1313 C 122.924 1.80273 2.94271 0
M  V30 1314 C 122.037 3.07674 3.0325 0
M  V30 1315 C 121.172 3.08922 4.32135 0
M  V30 1316 C 120.211 4.30755 4.34875 0
M  V30 1317 N 119.348 4.29714 5.55239 0
M  V30 1318 H 124.188 2.63472 1.39235 0
M  V30 1319 H 121.725 1.30602 0.676873 0
M  V30 1320 H 123.683 1.84332 3.74269 0
M  V30 1321 H 122.313 0.900258 3.09992 0
M  V30 1322 H 121.365 3.13062 2.16094 0
M  V30 1323 H 122.677 3.97642 3.01135 0
M  V30 1324 H 121.831 3.11738 5.20485 0
M  V30 1325 H 120.57 2.16792 4.36866 0
M  V30 1326 H 119.575 4.28146 3.44922 0
M  V30 1327 H 120.8 5.24117 4.31831 0
M  V30 1328 H 118.746 3.4044 5.60746 0
M  V30 1329 H 118.663 5.13456 5.54886 0
M  V30 1330 H 119.931 4.36683 6.457 0
M  V30 1331 N 124.16 -0.719506 1.40217 0
M  V30 1332 C 125.092 -1.84428 1.36084 0
M  V30 1333 C 126.105 -1.60597 0.266913 0
M  V30 1334 O 127.294 -1.70544 0.526983 0
M  V30 1335 C 124.394 -3.20757 1.094 0
M  V30 1336 C 123.567 -3.71817 2.30372 0
M  V30 1337 C 122.626 -4.86748 1.99907 0
M  V30 1338 O 121.652 -4.99603 2.72737 0
M  V30 1339 N 122.854 -5.7226 0.974635 0
M  V30 1340 H 125.619 -1.88473 2.33019 0
M  V30 1341 H 123.18 -0.900885 1.3452 0
M  V30 1342 H 125.172 -3.95235 0.870116 0
M  V30 1343 H 123.742 -3.11884 0.211452 0
M  V30 1344 H 122.962 -2.88514 2.68614 0
M  V30 1345 H 124.25 -4.02666 3.11026 0
M  V30 1346 H 123.648 -5.6448 0.371368 0
M  V30 1347 H 122.205 -6.46739 0.810656 0
M  V30 1348 N 125.638 -1.25649 -0.95132 0
M  V30 1349 C 126.586 -1.06118 -2.06982 0
M  V30 1350 C 127.58 0.00889169 -1.69398 0
M  V30 1351 O 128.786 -0.146988 -1.79399 0
M  V30 1352 H 125.161 -0.326248 -0.677544 0
M  V30 1353 H 127.132 -2.00932 -2.2061 0
M  V30 1354 C 125.881 -0.700145 -3.40578 0
M  V30 1355 H 125.204 -1.51537 -3.69968 0
M  V30 1356 H 126.644 -0.603211 -4.19687 0
M  V30 1357 C 125.103 0.59403 -3.31622 0
M  V30 1358 O 125.633 1.63522 -3.66911 0
M  V30 1359 N 123.839 0.58089 -2.84735 0
M  V30 1360 H 123.386 -0.266783 -2.56215 0
M  V30 1361 H 123.344 1.44695 -2.79125 0
M  V30 1362 N 127.117 1.15442 -1.07289 0
M  V30 1363 C 128.027 2.23786 -0.704057 0
M  V30 1364 C 129.043 1.7166 0.284413 0
M  V30 1365 O 130.219 2.00972 0.131205 0
M  V30 1366 C 127.284 3.46535 -0.106792 0
M  V30 1367 C 126.345 4.13654 -1.14842 0
M  V30 1368 C 125.578 5.30544 -0.57956 0
M  V30 1369 O 125.801 5.67187 0.604585 0
M  V30 1370 O 124.735 5.87154 -1.32414 0
M  V30 1371 H 128.561 2.57664 -1.60757 0
M  V30 1372 H 126.146 1.23152 -0.845803 0
M  V30 1373 H 128.028 4.20804 0.224048 0
M  V30 1374 H 126.703 3.14407 0.770049 0
M  V30 1375 H 125.61 3.4131 -1.5316 0
M  V30 1376 H 126.943 4.49861 -1.99714 0
M  V30 1377 N 128.595 0.856903 1.32268 0
M  V30 1378 C 129.525 0.31858 2.31316 0
M  V30 1379 C 130.506 -0.583487 1.59779 0
M  V30 1380 O 131.691 -0.503259 1.87566 0
M  V30 1381 C 128.821 -0.491979 3.43798 0
M  V30 1382 C 127.775 0.315849 4.26833 0
M  V30 1383 C 127.101 -0.619586 5.31098 0
M  V30 1384 C 128.401 1.54282 4.98993 0
M  V30 1385 H 130.095 1.14621 2.76591 0
M  V30 1386 H 127.641 0.552613 1.32974 0
M  V30 1387 H 129.594 -0.879012 4.1213 0
M  V30 1388 H 128.318 -1.35299 2.97257 0
M  V30 1389 H 126.977 0.684664 3.6015 0
M  V30 1390 H 126.625 -1.47751 4.8081 0
M  V30 1391 H 126.325 -0.0830621 5.87541 0
M  V30 1392 H 127.849 -1.00375 6.02293 0
M  V30 1393 H 129.263 1.22796 5.59995 0
M  V30 1394 H 127.66 2.01745 5.65172 0
M  V30 1395 H 128.73 2.30285 4.26728 0
M  V30 1396 N 130.073 -1.45103 0.615059 0
M  V30 1397 C 131.005 -2.28786 -0.13762 0
M  V30 1398 C 132.018 -1.40376 -0.824525 0
M  V30 1399 O 133.207 -1.64681 -0.688662 0
M  V30 1400 C 130.307 -3.16322 -1.21628 0
M  V30 1401 C 129.48 -4.33054 -0.615039 0
M  V30 1402 C 128.539 -5.01743 -1.58556 0
M  V30 1403 O 127.565 -5.58293 -1.10895 0
M  V30 1404 N 128.767 -5.01714 -2.91998 0
M  V30 1405 H 131.532 -2.94025 0.580483 0
M  V30 1406 H 129.093 -1.55373 0.45507 0
M  V30 1407 H 131.085 -3.59139 -1.86552 0
M  V30 1408 H 129.655 -2.52943 -1.83681 0
M  V30 1409 H 128.875 -3.93627 0.21245 0
M  V30 1410 H 130.163 -5.08431 -0.193704 0
M  V30 1411 H 129.561 -4.57075 -3.33316 0
M  V30 1412 H 128.118 -5.48371 -3.52325 0
M  V30 1413 N 131.551 -0.354651 -1.53558 0
M  V30 1414 C 132.781 0.239167 -2.05211 0
M  V30 1415 C 133.189 1.43879 -1.22863 0
M  V30 1416 O 132.532 1.81857 -0.259565 0
M  V30 1417 C 132.594 0.707251 -3.52474 0
M  V30 1418 C 132.258 -0.374212 -4.55465 0
M  V30 1419 C 133.255 -1.22054 -5.0537 0
M  V30 1420 C 130.94 -0.531323 -4.99482 0
M  V30 1421 C 132.934 -2.20942 -5.97882 0
M  V30 1422 C 130.621 -1.52358 -5.91802 0
M  V30 1423 C 131.619 -2.36108 -6.40892 0
M  V30 1424 O 131.307 -3.33643 -7.31394 0
M  V30 1425 H 131.039 0.0479716 -0.674296 0
M  V30 1426 H 133.593 -0.508121 -1.99016 0
M  V30 1427 H 131.823 1.50596 -3.56171 0
M  V30 1428 H 133.512 1.22285 -3.87042 0
M  V30 1429 H 134.278 -1.1103 -4.7212 0
M  V30 1430 H 130.157 0.110738 -4.60867 0
M  V30 1431 H 133.701 -2.86348 -6.36121 0
M  V30 1432 H 129.598 -1.63434 -6.24467 0
M  V30 1433 H 130.366 -3.29244 -7.4936 0
M  V30 1434 N 133.029 1.57378 -0.0835403 0
M  V30 1435 C 133.976 2.13384 0.879539 0
M  V30 1436 C 134.946 1.04936 1.28754 0
M  V30 1437 O 136.131 1.32662 1.37133 0
M  V30 1438 C 133.271 2.70932 2.13752 0
M  V30 1439 C 132.384 3.93575 1.7811 0
M  V30 1440 C 131.519 4.39326 2.98607 0
M  V30 1441 C 130.558 5.54587 2.59037 0
M  V30 1442 N 129.695 5.95243 3.72331 0
M  V30 1443 H 134.535 2.9537 0.395076 0
M  V30 1444 H 132.072 1.45953 0.183349 0
M  V30 1445 H 134.03 3.02411 2.87408 0
M  V30 1446 H 132.66 1.91693 2.59718 0
M  V30 1447 H 131.712 3.68483 0.94469 0
M  V30 1448 H 133.024 4.77258 1.45005 0
M  V30 1449 H 132.178 4.72528 3.80529 0
M  V30 1450 H 130.917 3.5452 3.34913 0
M  V30 1451 H 129.922 5.21024 1.75539 0
M  V30 1452 H 131.147 6.41133 2.23887 0
M  V30 1453 H 129.093 5.13385 4.08378 0
M  V30 1454 H 129.01 6.73694 3.43034 0
M  V30 1455 H 130.278 6.33072 4.54797 0
M  V30 1456 N 134.507 -0.190092 1.56449 0
M  V30 1457 C 135.753 -0.911052 1.81184 0
M  V30 1458 C 136.086 -1.82699 0.658396 0
M  V30 1459 O 135.361 -1.91491 -0.340775 0
M  V30 1460 C 135.644 -1.72297 3.16205 0
M  V30 1461 C 135.497 -0.831419 4.42049 0
M  V30 1462 C 136.816 -2.69454 3.47969 0
M  V30 1463 H 133.935 -0.32977 0.659106 0
M  V30 1464 H 136.577 -0.178169 1.89163 0
M  V30 1465 H 134.727 -2.34778 3.09534 0
M  V30 1466 H 136.399 -0.220929 4.60771 0
M  V30 1467 H 134.642 -0.138406 4.33579 0
M  V30 1468 H 135.313 -1.43461 5.33032 0
M  V30 1469 H 137.789 -2.17104 3.54972 0
M  V30 1470 H 136.665 -3.23342 4.43555 0
M  V30 1471 H 136.926 -3.48744 2.71717 0
M  V30 1472 N 135.985 -1.50799 -0.457987 0
M  V30 1473 C 136.915 -1.73553 -1.5621 0
M  V30 1474 C 137.896 -0.584774 -1.59732 0
M  V30 1475 O 139.081 -0.825314 -1.7579 0
M  V30 1476 C 136.211 -1.84169 -2.94447 0
M  V30 1477 C 135.165 -2.99461 -3.0579 0
M  V30 1478 C 134.491 -2.95235 -4.45803 0
M  V30 1479 C 135.791 -4.39766 -2.81786 0
M  V30 1480 H 137.485 -2.66 -1.37421 0
M  V30 1481 H 135.031 -1.28002 -0.659662 0
M  V30 1482 H 136.984 -1.98672 -3.71628 0
M  V30 1483 H 135.708 -0.883545 -3.14422 0
M  V30 1484 H 134.367 -2.8463 -2.31044 0
M  V30 1485 H 134.015 -1.97239 -4.62715 0
M  V30 1486 H 133.715 -3.72642 -4.54326 0
M  V30 1487 H 135.239 -3.11803 -5.24987 0
M  V30 1488 H 136.653 -4.55054 -3.4871 0
M  V30 1489 H 135.05 -5.18722 -3.0174 0
M  V30 1490 H 136.12 -4.51229 -1.7754 0
M  V30 1491 N 137.463 0.71206 -1.40597 0
M  V30 1492 C 138.712 1.46754 -1.38369 0
M  V30 1493 C 139.025 1.95598 0.0097839 0
M  V30 1494 O 140.231 2.71059 0.154677 0
M  V30 1495 C 138.687 2.65289 -2.43207 0
M  V30 1496 C 138.295 2.23301 -3.88382 0
M  V30 1497 C 140.039 3.43008 -2.50091 0
M  V30 1498 C 137.946 3.38696 -4.84808 0
M  V30 1499 H 136.876 0.55118 -0.514506 0
M  V30 1500 H 139.527 0.774616 -1.66349 0
M  V30 1501 H 137.909 3.36769 -2.08332 0
M  V30 1502 H 139.083 1.59218 -4.32419 0
M  V30 1503 H 137.398 1.58618 -3.85006 0
M  V30 1504 H 139.995 4.28881 -3.1932 0
M  V30 1505 H 140.338 3.87065 -1.53253 0
M  V30 1506 H 140.871 2.78574 -2.83974 0
M  V30 1507 H 137.61 2.99668 -5.82992 0
M  V30 1508 H 137.13 4.01683 -4.45433 0
M  V30 1509 H 138.809 4.04712 -5.04794 0
M  V30 1510 N 138.941 1.26152 0.944643 0
M  V30 1511 C 140.166 1.14363 1.7302 0
M  V30 1512 C 140.591 -0.29772 1.85729 0
M  V30 1513 O 139.949 -1.2157 1.34501 0
M  V30 1514 C 139.997 1.81378 3.11664 0
M  V30 1515 O 139.101 1.10022 3.97453 0
M  V30 1516 H 138.442 0.398694 0.53098 0
M  V30 1517 H 140.972 1.66906 1.18337 0
M  V30 1518 H 140.982 1.88064 3.62072 0
M  V30 1519 H 139.657 2.86237 3.0173 0
M  V30 1520 H 138.234 1.11287 3.55907 0
M  V30 1521 N 140.419 -1.14872 1.07899 0
M  V30 1522 C 141.367 -2.21857 0.698727 0
M  V30 1523 C 142.361 -1.66845 -0.293086 0
M  V30 1524 O 143.567 -1.79321 -0.156204 0
M  V30 1525 H 139.942 -0.722691 0.207899 0
M  V30 1526 H 141.913 -2.51205 1.61054 0
M  V30 1527 C 140.662 -3.47498 0.11858 0
M  V30 1528 H 139.985 -3.90154 0.872914 0
M  V30 1529 H 141.425 -4.23858 -0.109759 0
M  V30 1530 C 139.884 -3.16947 -1.1422 0
M  V30 1531 O 140.414 -3.3426 -2.22785 0
M  V30 1532 N 138.62 -2.70946 -1.05055 0
M  V30 1533 H 138.167 -2.57058 -0.167038 0
M  V30 1534 H 138.125 -2.50879 -1.89491 0
M  V30 1535 N 141.898 -0.863906 -1.31812 0
M  V30 1536 C 142.828 -0.330843 -2.31144 0
M  V30 1537 C 143.809 0.575005 -1.60087 0
M  V30 1538 O 144.994 0.493304 -1.8783 0
M  V30 1539 C 142.124 0.47374 -3.44054 0
M  V30 1540 C 141.078 -0.338481 -4.26659 0
M  V30 1541 C 140.404 0.591412 -5.31419 0
M  V30 1542 C 141.704 -1.56926 -4.98168 0
M  V30 1543 H 143.398 -1.16086 -2.75979 0
M  V30 1544 H 140.944 -0.559657 -1.32679 0
M  V30 1545 H 142.897 0.857143 -4.12591 0
M  V30 1546 H 141.621 1.33721 -2.9797 0
M  V30 1547 H 140.28 -0.703754 -3.59782 0
M  V30 1548 H 139.928 1.45199 -4.81587 0
M  V30 1549 H 139.628 0.0519022 -5.87577 0
M  V30 1550 H 141.152 0.97179 -6.02817 0
M  V30 1551 H 142.566 -1.25764 -5.59336 0
M  V30 1552 H 140.963 -2.04739 -5.64094 0
M  V30 1553 H 142.033 -2.32544 -4.25501 0
M  V30 1554 N 143.376 1.44774 -0.622745 0
M  V30 1555 C 144.792 1.56986 -0.287652 0
M  V30 1556 C 144.992 1.61167 1.20944 0
M  V30 1557 O 144.048 1.55015 1.99315 0
M  V30 1558 C 145.361 2.84551 -0.972188 0
M  V30 1559 C 146.909 2.9825 -0.949536 0
M  V30 1560 C 147.384 4.28605 -1.61437 0
M  V30 1561 N 148.875 4.35399 -1.58057 0
M  V30 1562 C 149.61 5.34964 -2.064 0
M  V30 1563 N 149.106 6.40981 -2.62897 0
M  V30 1564 N 150.899 5.26419 -1.97078 0
M  V30 1565 H 143.05 1.40304 -1.59463 0
M  V30 1566 H 145.313 0.671794 -0.668878 0
M  V30 1567 H 145.019 2.87417 -2.02693 0
M  V30 1568 H 144.893 3.73807 -0.504771 0
M  V30 1569 H 147.28 2.94941 0.0967067 0
M  V30 1570 H 147.361 2.10364 -1.45536 0
M  V30 1571 H 147.005 4.32672 -2.66002 0
M  V30 1572 H 146.935 5.15334 -1.08344 0
M  V30 1573 H 149.426 3.59397 -1.16801 0
M  V30 1574 H 149.739 7.13225 -2.97539 0
M  V30 1575 H 148.084 6.4169 -2.66943 0
M  V30 1576 H 151.275 4.42504 -1.52669 0
M  V30 1577 H 151.448 6.03861 -2.35066 0
M  V30 1578 N 144.854 0.36279 1.53368 0
M  V30 1579 C 145.802 -0.500155 2.27159 0
M  V30 1580 C 146.796 -1.08575 1.3003 0
M  V30 1581 O 148.002 -1.02927 1.47668 0
M  V30 1582 H 144.377 -0.180009 0.730138 0
M  V30 1583 H 146.348 0.14401 2.98052 0
M  V30 1584 C 145.097 -1.62937 3.07159 0
M  V30 1585 H 144.42 -1.18806 3.8174 0
M  V30 1586 H 145.86 -2.20795 3.61975 0
M  V30 1587 C 144.319 -2.57007 2.17829 0
M  V30 1588 O 144.849 -3.59752 1.78721 0
M  V30 1589 N 143.055 -2.26131 1.82518 0
M  V30 1590 H 142.602 -1.42616 2.14519 0
M  V30 1591 H 142.56 -2.89327 1.23034 0
M  V30 1592 N 146.332 -1.57332 0.0918853 0
M  V30 1593 C 147.578 -1.94524 -0.573425 0
M  V30 1594 C 147.911 -0.973578 -1.68033 0
M  V30 1595 O 147.186 -0.00609226 -1.94499 0
M  V30 1596 C 147.469 -3.41858 -1.13161 0
M  V30 1597 C 147.322 -4.4979 -0.0299747 0
M  V30 1598 C 148.641 -3.90435 -2.03098 0
M  V30 1599 H 145.76 -0.70734 -0.206975 0
M  V30 1600 H 148.402 -1.89309 0.161942 0
M  V30 1601 H 146.552 -3.46433 -1.7583 0
M  V30 1602 H 148.224 -4.57327 0.604112 0
M  V30 1603 H 146.467 -4.291 0.636833 0
M  V30 1604 H 147.138 -5.50069 -0.461287 0
M  V30 1605 H 149.614 -3.87992 -1.50338 0
M  V30 1606 H 148.49 -4.94097 -2.39081 0
M  V30 1607 H 148.751 -3.29541 -2.94712 0
M  V30 1608 N 147.81 0.181792 -1.56548 0
M  V30 1609 C 149.056 0.901431 -1.81665 0
M  V30 1610 C 149.389 1.82347 -0.668075 0
M  V30 1611 O 148.664 1.91669 0.330615 0
M  V30 1612 C 148.947 1.70618 -3.17115 0
M  V30 1613 C 148.8 0.807964 -4.42484 0
M  V30 1614 C 150.119 2.67605 -3.49393 0
M  V30 1615 H 147.238 0.32627 -0.660846 0
M  V30 1616 H 149.88 0.168134 -1.89255 0
M  V30 1617 H 148.03 2.33133 -3.10775 0
M  V30 1618 H 149.702 0.19649 -4.60881 0
M  V30 1619 H 147.945 0.115411 -4.33646 0
M  V30 1620 H 148.616 1.40632 -5.33785 0
M  V30 1621 H 151.092 2.15218 -3.56118 0
M  V30 1622 H 149.968 3.20985 -4.45264 0
M  V30 1623 H 150.229 3.47298 -2.73563 0
M  V30 1624 N 149.288 1.51039 0.449983 0
M  V30 1625 C 150.198 1.74261 1.57067 0
M  V30 1626 C 151.214 0.626363 1.62335 0
M  V30 1627 O 152.39 0.907162 1.79812 0
M  V30 1628 C 149.455 1.85114 2.93144 0
M  V30 1629 C 148.516 3.0893 2.98095 0
M  V30 1630 C 147.749 3.19256 4.27681 0
M  V30 1631 O 147.972 2.35835 5.19363 0
M  V30 1632 O 146.906 4.12144 4.38658 0
M  V30 1633 H 150.732 2.69303 1.40391 0
M  V30 1634 H 148.317 1.35389 0.631688 0
M  V30 1635 H 150.199 1.94311 3.73926 0
M  V30 1636 H 148.874 0.932588 3.09975 0
M  V30 1637 H 147.781 3.0522 2.16314 0
M  V30 1638 H 149.114 4.00433 2.86206 0
M  V30 1639 N 150.766 -0.704594 1.40972 0
M  V30 1640 C 151.729 -1.80035 1.41845 0
M  V30 1641 C 152.729 -1.57774 0.310474 0
M  V30 1642 O 153.919 -1.64613 0.56992 0
M  V30 1643 C 151.051 -3.18284 1.22098 0
M  V30 1644 H 152.244 -1.80658 2.3938 0
M  V30 1645 H 149.797 -0.911329 1.26982 0
M  V30 1646 H 150.532 -3.23306 0.253672 0
M  V30 1647 H 150.317 -3.35843 2.02366 0
M  V30 1648 H 151.807 -3.98289 1.25522 0
M  V30 1649 N 152.244 -1.26651 -0.937939 0
M  V30 1650 C 153.176 -1.04283 -2.04102 0
M  V30 1651 C 154.189 -0.00221014 -1.628 0
M  V30 1652 O 155.378 -0.242645 -1.76843 0
M  V30 1653 C 152.478 -0.557846 -3.34277 0
M  V30 1654 C 151.651 -1.66843 -4.04329 0
M  V30 1655 C 150.71 -1.18095 -5.12777 0
M  V30 1656 O 149.736 -1.87865 -5.37304 0
M  V30 1657 N 150.938 -0.0311006 -5.80492 0
M  V30 1658 H 153.703 -1.9927 -2.23856 0
M  V30 1659 H 151.264 -1.1808 -1.10764 0
M  V30 1660 H 153.256 -0.215836 -4.04124 0
M  V30 1661 H 151.826 0.298523 -3.11171 0
M  V30 1662 H 151.046 -2.18123 -3.28353 0
M  V30 1663 H 152.334 -2.41408 -4.47883 0
M  V30 1664 H 151.732 0.551486 -5.63005 0
M  V30 1665 H 150.289 0.251809 -6.51313 0
M  V30 1666 N 153.722 1.14298 -1.08507 0
M  V30 1667 C 154.969 1.85359 -0.815373 0
M  V30 1668 C 155.297 1.83001 0.658865 0
M  V30 1669 O 154.552 1.25655 1.50031 0
M  V30 1670 C 154.851 3.33547 -1.28379 0
M  V30 1671 C 154.517 3.56093 -2.76602 0
M  V30 1672 C 153.179 3.61955 -3.17084 0
M  V30 1673 C 155.531 3.64834 -3.72217 0
M  V30 1674 C 152.859 3.74082 -4.51973 0
M  V30 1675 C 155.211 3.78487 -5.06883 0
M  V30 1676 C 153.875 3.82598 -5.46969 0
M  V30 1677 H 153.145 0.678276 -0.298366 0
M  V30 1678 H 155.792 1.35002 -1.35819 0
M  V30 1679 H 154.097 3.86191 -0.660593 0
M  V30 1680 H 155.794 3.86959 -1.05186 0
M  V30 1681 H 152.384 3.52179 -2.4427 0
M  V30 1682 H 156.568 3.59595 -3.42061 0
M  V30 1683 H 151.824 3.75527 -4.82483 0
M  V30 1684 H 155.998 3.84193 -5.80834 0
M  V30 1685 H 153.625 3.91747 -6.51489 0
M  V30 1686 N 155.201 0.870884 1.31352 0
M  V30 1687 C 156.478 0.402907 1.91405 0
M  V30 1688 C 156.858 -1.11512 1.79244 0
M  V30 1689 O 156.206 -1.94411 1.2007 0
M  V30 1690 C 156.416 0.885301 3.37585 0
M  V30 1691 C 157.764 0.911971 4.14691 0
M  V30 1692 O 158.788 0.831016 3.46371 0
M  V30 1693 O 157.647 1.02927 5.3672 0
M  V30 1694 H 154.741 0.120698 0.818145 0
M  V30 1695 H 157.287 0.958857 1.40014 0
M  V30 1696 H 156.059 1.92889 3.40455 0
M  V30 1697 H 155.682 0.307714 3.96407 0
M  V30 1698 N 156.679 -1.44442 0.630414 0
M  V30 1699 C 157.904 -2.06927 0.139944 0
M  V30 1700 C 158.329 -1.46795 -1.17613 0
M  V30 1701 O 157.687 -0.569144 -1.72135 0
M  V30 1702 C 157.735 -3.6058 0.0379581 0
M  V30 1703 O 156.839 -3.99937 -1.0062 0
M  V30 1704 H 156.18 -0.658608 0.0844483 0
M  V30 1705 H 158.71 -1.85327 0.866891 0
M  V30 1706 H 158.72 -4.07714 -0.152856 0
M  V30 1707 H 157.395 -4.03728 0.998809 0
M  V30 1708 H 155.972 -3.64436 -0.79001 0
M  V30 1709 N 158.157 -0.370918 -1.53173 0
M  V30 1710 C 159.573 -0.0200818 -1.59587 0
M  V30 1711 C 159.773 1.46279 -1.38581 0
M  V30 1712 O 158.829 2.22506 -1.19363 0
M  V30 1713 C 160.142 -0.4808 -2.96831 0
M  V30 1714 C 161.69 -0.435477 -3.09956 0
M  V30 1715 C 162.165 -0.872092 -4.4962 0
M  V30 1716 N 163.656 -0.827364 -4.55751 0
M  V30 1717 C 164.391 -1.13683 -5.62018 0
M  V30 1718 N 163.887 -1.51584 -6.76014 0
M  V30 1719 N 165.68 -1.05927 -5.52029 0
M  V30 1720 H 157.831 -1.33652 -1.65079 0
M  V30 1721 H 160.094 -0.546634 -0.774529 0
M  V30 1722 H 159.8 -1.51577 -3.1736 0
M  V30 1723 H 159.674 0.129796 -3.76977 0
M  V30 1724 H 162.061 0.590371 -2.89134 0
M  V30 1725 H 162.142 -1.08164 -2.31806 0
M  V30 1726 H 161.786 -1.89608 -4.71181 0
M  V30 1727 H 161.716 -0.203127 -5.26208 0
M  V30 1728 H 164.207 -0.548216 -3.73902 0
M  V30 1729 H 164.52 -1.73609 -7.53047 0
M  V30 1730 H 162.865 -1.55454 -6.77391 0
M  V30 1731 H 166.056 -0.762321 -4.61851 0
M  V30 1732 H 166.229 -1.30378 -6.34749 0
M  V30 1733 N 159.635 1.57281 -0.100228 0
M  V30 1734 C 160.881 1.94826 0.563101 0
M  V30 1735 C 161.214 0.982475 1.67514 0
M  V30 1736 O 160.489 0.0164069 1.94493 0
M  V30 1737 C 160.772 3.42453 1.11346 0
M  V30 1738 C 160.625 4.498 0.00612081 0
M  V30 1739 C 161.944 3.91506 2.01024 0
M  V30 1740 H 159.063 0.708428 0.203221 0
M  V30 1741 H 161.705 1.8922 -0.171979 0
M  V30 1742 H 159.855 3.47361 1.7399 0
M  V30 1743 H 161.527 4.57 -0.628357 0
M  V30 1744 H 159.77 4.28756 -0.659581 0
M  V30 1745 H 160.441 5.50306 0.432109 0
M  V30 1746 H 162.917 3.88784 1.48278 0
M  V30 1747 H 161.793 4.95358 2.36457 0
M  V30 1748 H 162.054 3.31099 2.92961 0
M  V30 1749 N 161.113 -0.173488 1.56642 0
M  V30 1750 C 162.529 -0.525174 1.50712 0
M  V30 1751 C 162.729 -1.8476 0.804107 0
M  V30 1752 O 161.785 -2.49869 0.363574 0
M  V30 1753 C 163.098 -0.559937 2.95441 0
M  V30 1754 C 164.646 -0.647288 3.06234 0
M  V30 1755 C 165.121 -0.712963 4.52417 0
M  V30 1756 N 166.612 -0.775911 4.56655 0
M  V30 1757 C 167.347 -0.847264 5.67106 0
M  V30 1758 N 166.843 -0.879585 6.87194 0
M  V30 1759 N 168.636 -0.886117 5.55071 0
M  V30 1760 H 160.787 0.693681 2.00753 0
M  V30 1761 H 163.05 0.249841 0.914485 0
M  V30 1762 H 162.756 0.343049 3.50023 0
M  V30 1763 H 162.63 -1.40718 3.49969 0
M  V30 1764 H 165.017 -1.5407 2.51687 0
M  V30 1765 H 165.098 0.226586 2.54794 0
M  V30 1766 H 164.742 0.176183 5.07594 0
M  V30 1767 H 164.672 -1.60295 5.0161 0
M  V30 1768 H 167.163 -0.759304 3.70193 0
M  V30 1769 H 167.476 -0.935144 7.67121 0
M  V30 1770 H 165.821 -0.847898 6.89808 0
M  V30 1771 H 169.012 -0.857853 4.60172 0
M  V30 1772 H 169.185 -0.938263 6.41171 0
M  V30 1773 N 162.591 -1.51276 -0.441967 0
M  V30 1774 C 163.554 -1.7167 -1.51862 0
M  V30 1775 C 164.554 -0.586793 -1.49711 0
M  V30 1776 O 165.744 -0.854276 -1.51815 0
M  V30 1777 C 162.876 -1.76889 -2.91416 0
M  V30 1778 H 164.069 -2.67754 -1.35084 0
M  V30 1779 H 161.622 -1.41196 -0.670333 0
M  V30 1780 H 162.357 -0.826026 -3.13604 0
M  V30 1781 H 162.142 -2.59001 -2.94382 0
M  V30 1782 H 163.632 -1.94522 -3.69528 0
M  V30 1783 N 164.069 0.697108 -1.41344 0
M  V30 1784 C 165.297 1.48593 -1.43972 0
M  V30 1785 C 165.712 1.88747 -0.0445612 0
M  V30 1786 O 165.069 1.56682 0.935785 0
M  V30 1787 C 165.12 2.74946 -2.34706 0
M  V30 1788 O 164.841 2.36484 -3.68791 0
M  V30 1789 C 166.342 3.687 -2.46121 0
M  V30 1790 H 163.562 0.457964 -0.490418 0
M  V30 1791 H 166.106 0.858429 -1.8561 0
M  V30 1792 H 164.261 3.33937 -1.9638 0
M  V30 1793 H 164.675 3.17918 -4.17167 0
M  V30 1794 H 166.149 4.54145 -3.13777 0
M  V30 1795 H 166.626 4.13081 -1.49199 0
M  V30 1796 H 167.232 3.15613 -2.85076 0
M  V30 1797 N 165.547 1.27147 0.931209 0
M  V30 1798 C 166.795 1.13055 1.6752 0
M  V30 1799 C 167.116 -0.324791 1.92276 0
M  V30 1800 O 166.386 -1.22775 1.52654 0
M  V30 1801 H 164.966 0.415391 0.620854 0
M  V30 1802 H 167.628 1.59623 1.11833 0
M  V30 1803 H 166.724 1.65694 2.64485 0
M  V30 1804 N 167.025 -1.13721 1.09112 0
M  V30 1805 C 167.975 -2.17082 0.697091 0
M  V30 1806 C 168.959 -1.58321 -0.286923 0
M  V30 1807 O 170.151 -1.7673 -0.0978008 0
M  V30 1808 C 167.28 -3.43105 0.115729 0
M  V30 1809 C 166.366 -4.0888 1.12596 0
M  V30 1810 N 166.757 -4.4987 2.31195 0
M  V30 1811 C 165.055 -4.35471 0.963366 0
M  V30 1812 C 165.756 -5.01094 2.95431 0
M  V30 1813 N 164.732 -4.95751 2.23006 0
M  V30 1814 H 168.534 -2.46524 1.6001 0
M  V30 1815 H 166.048 -1.30481 0.966869 0
M  V30 1816 H 168.045 -4.16491 -0.184555 0
M  V30 1817 H 166.705 -3.15138 -0.78217 0
M  V30 1818 H 167.716 -4.42678 2.68806 0
M  V30 1819 H 164.393 -4.17328 0.119878 0
M  V30 1820 H 165.783 -5.4263 3.96236 0
M  V30 1821 N 168.503 -0.877838 -1.30888 0
M  V30 1822 C 169.728 -0.506629 -2.01117 0
M  V30 1823 C 170.153 0.895564 -1.65412 0
M  V30 1824 O 169.511 1.5923 -0.866922 0
M  V30 1825 C 169.559 -0.680223 -3.54126 0
M  V30 1826 O 168.663 0.277033 -4.11468 0
M  V30 1827 H 168.004 -0.200518 -0.633 0
M  V30 1828 H 170.534 -1.18342 -1.66902 0
M  V30 1829 H 170.544 -0.5765 -4.03907 0
M  V30 1830 H 169.219 -1.70261 -3.79452 0
M  V30 1831 H 167.796 0.127606 -3.72682 0
M  V30 1832 N 169.982 1.44106 -0.638065 0
M  V30 1833 C 171.212 2.06037 -0.152394 0
M  V30 1834 C 171.62 1.47808 1.18108 0
M  V30 1835 O 170.963 0.598092 1.73691 0
M  V30 1836 C 171.025 3.59488 0.0293714 0
M  V30 1837 C 170.689 4.4022 -1.22702 0
M  V30 1838 C 171.686 4.73256 -2.15232 0
M  V30 1839 C 169.371 4.8048 -1.46437 0
M  V30 1840 C 171.365 5.45444 -3.29802 0
M  V30 1841 C 169.052 5.52417 -2.61303 0
M  V30 1842 C 170.05 5.84819 -3.52811 0
M  V30 1843 O 169.738 6.55289 -4.65673 0
M  V30 1844 H 169.47 0.671233 -0.0801401 0
M  V30 1845 H 172.024 1.85851 -0.874563 0
M  V30 1846 H 170.254 3.78191 0.806758 0
M  V30 1847 H 171.943 4.03164 0.470475 0
M  V30 1848 H 172.709 4.42684 -1.98131 0
M  V30 1849 H 168.588 4.54676 -0.760977 0
M  V30 1850 H 172.132 5.70653 -4.01249 0
M  V30 1851 H 168.029 5.82404 -2.78344 0
M  V30 1852 H 168.797 6.73762 -4.64744 0
M  V30 1853 N 171.46 0.379036 1.52974 0
M  V30 1854 C 172.37 -0.468639 2.29872 0
M  V30 1855 C 173.386 -1.08067 1.36373 0
M  V30 1856 O 174.562 -1.08871 1.69438 0
M  V30 1857 C 171.627 -1.58594 3.083 0
M  V30 1858 C 170.688 -1.00007 4.17489 0
M  V30 1859 C 169.921 -2.06413 4.92168 0
M  V30 1860 O 170.144 -3.27751 4.66835 0
M  V30 1861 O 169.078 -1.68717 5.7777 0
M  V30 1862 H 172.904 0.157508 3.03291 0
M  V30 1863 H 170.489 0.143035 1.48714 0
M  V30 1864 H 172.371 -2.23525 3.57232 0
M  V30 1865 H 171.046 -2.19724 2.37703 0
M  V30 1866 H 169.953 -0.314299 3.72777 0
M  V30 1867 H 171.286 -0.433135 4.90291 0
M  V30 1868 N 172.938 -1.57226 0.108567 0
M  V30 1869 C 173.885 -2.14756 -0.845481 0
M  V30 1870 C 174.855 -1.06971 -1.27068 0
M  V30 1871 O 176.04 -1.34827 -1.35005 0
M  V30 1872 C 173.18 -2.74298 -2.09415 0
M  V30 1873 C 172.293 -3.96358 -1.71826 0
M  V30 1874 C 171.428 -4.44021 -2.9158 0
M  V30 1875 C 170.467 -5.58637 -2.50181 0
M  V30 1876 N 169.604 -6.01091 -3.62814 0
M  V30 1877 H 174.444 -2.95961 -0.348035 0
M  V30 1878 H 171.981 -1.46226 -0.160106 0
M  V30 1879 H 173.939 -3.06945 -2.82561 0
M  V30 1880 H 172.569 -1.95801 -2.56636 0
M  V30 1881 H 171.621 -3.69939 -0.885947 0
M  V30 1882 H 172.933 -4.79504 -1.37394 0
M  V30 1883 H 172.087 -4.78522 -3.72963 0
M  V30 1884 H 170.826 -3.59803 -3.29231 0
M  V30 1885 H 169.831 -5.23751 -1.67228 0
M  V30 1886 H 171.056 -6.44613 -2.13659 0
M  V30 1887 H 169.002 -5.19817 -4.00158 0
M  V30 1888 H 168.919 -6.79066 -3.32273 0
M  V30 1889 H 170.187 -6.40227 -4.44668 0
M  V30 1890 N 174.416 0.165178 -1.56732 0
M  V30 1891 C 175.646 0.894919 -1.86212 0
M  V30 1892 C 176.054 1.76066 -0.692627 0
M  V30 1893 O 175.397 1.80387 0.347303 0
M  V30 1894 C 175.459 1.8174 -3.10179 0
M  V30 1895 C 175.123 1.13064 -4.42793 0
M  V30 1896 C 176.12 0.493169 -5.17556 0
M  V30 1897 C 173.805 1.12556 -4.89527 0
M  V30 1898 C 175.799 -0.140209 -6.37246 0
M  V30 1899 C 173.486 0.488366 -6.09145 0
M  V30 1900 C 174.484 -0.143411 -6.82849 0
M  V30 1901 O 174.172 -0.77055 -8.00199 0
M  V30 1902 H 173.904 0.265114 -0.621844 0
M  V30 1903 H 176.458 0.168242 -2.0471 0
M  V30 1904 H 174.688 2.58455 -2.87642 0
M  V30 1905 H 176.377 2.4175 -3.26055 0
M  V30 1906 H 177.143 0.489023 -4.82528 0
M  V30 1907 H 173.022 1.60672 -4.32094 0
M  V30 1908 H 176.566 -0.633932 -6.94714 0
M  V30 1909 H 172.463 0.490116 -6.43637 0
M  V30 1910 H 173.231 -0.670408 -8.1575 0
M  V30 1911 N 175.894 1.51508 0.433938 0
M  V30 1912 C 176.842 1.73646 1.54757 0
M  V30 1913 C 177.836 0.602854 1.5831 0
M  V30 1914 O 179.042 0.784318 1.62014 0
M  V30 1915 H 175.417 0.548718 0.51421 0
M  V30 1916 H 177.388 2.66991 1.33261 0
M  V30 1917 C 176.137 1.88172 2.92381 0
M  V30 1918 H 175.46 2.74808 2.90381 0
M  V30 1919 H 176.9 2.07672 3.6966 0
M  V30 1920 C 175.359 0.64239 3.30719 0
M  V30 1921 O 175.889 -0.201362 4.01195 0
M  V30 1922 N 174.095 0.485489 2.86516 0
M  V30 1923 H 173.642 1.17318 2.29334 0
M  V30 1924 H 173.6 -0.342482 3.12529 0
M  V30 1925 N 177.372 -0.689602 1.41712 0
M  V30 1926 C 178.319 -1.80345 1.44029 0
M  V30 1927 C 179.289 -1.63478 0.293948 0
M  V30 1928 O 180.474 -1.84244 0.495869 0
M  V30 1929 C 177.614 -3.18272 1.33405 0
M  V30 1930 C 176.727 -3.46529 2.57956 0
M  V30 1931 C 175.862 -4.74103 2.39582 0
M  V30 1932 C 174.901 -4.95347 3.5958 0
M  V30 1933 N 174.038 -6.14151 3.40239 0
M  V30 1934 H 178.878 -1.77698 2.39222 0
M  V30 1935 H 176.415 -0.867688 1.18784 0
M  V30 1936 H 178.373 -3.97956 1.25246 0
M  V30 1937 H 177.003 -3.2008 0.418164 0
M  V30 1938 H 176.055 -2.61207 2.76542 0
M  V30 1939 H 177.367 -3.58126 3.47199 0
M  V30 1940 H 176.521 -5.61853 2.28924 0
M  V30 1941 H 175.26 -4.64763 1.47805 0
M  V30 1942 H 174.265 -4.06044 3.70686 0
M  V30 1943 H 175.49 -5.06542 4.52318 0
M  V30 1944 H 173.436 -6.06013 2.51167 0
M  V30 1945 H 173.353 -6.26543 4.23061 0
M  V30 1946 H 174.621 -7.04619 3.33365 0
M  V30 1947 N 178.85 -1.27639 -0.924453 0
M  V30 1948 C 180.096 -1.15345 -1.67532 0
M  V30 1949 C 180.451 0.297096 -1.90092 0
M  V30 1950 O 179.744 1.21374 -1.48253 0
M  V30 1951 C 179.938 -1.87407 -3.04325 0
M  V30 1952 C 179.767 -3.3932 -2.95114 0
M  V30 1953 C 178.537 -4.08644 -2.97218 0
M  V30 1954 C 180.735 -4.35242 -2.73987 0
M  V30 1955 N 178.717 -5.47102 -2.78482 0
M  V30 1956 C 180.088 -5.6099 -2.63988 0
M  V30 1957 C 182.143 -4.25294 -2.589 0
M  V30 1958 C 180.846 -6.77924 -2.40442 0
M  V30 1959 C 182.872 -5.41952 -2.36731 0
M  V30 1960 C 182.234 -6.66658 -2.27478 0
M  V30 1961 H 178.333 -0.47696 -0.619704 0
M  V30 1962 H 180.917 -1.6115 -1.09265 0
M  V30 1963 H 179.088 -1.44053 -3.60699 0
M  V30 1964 H 180.82 -1.6759 -3.68369 0
M  V30 1965 H 177.575 -3.60136 -3.07569 0
M  V30 1966 H 177.999 -6.19852 -2.72236 0
M  V30 1967 H 182.641 -3.29598 -2.64811 0
M  V30 1968 H 180.359 -7.73699 -2.3327 0
M  V30 1969 H 183.945 -5.36137 -2.25938 0
M  V30 1970 H 182.825 -7.55405 -2.10555 0
M  V30 1971 N 180.328 1.1314 -1.09713 0
M  V30 1972 C 181.238 2.22242 -0.751367 0
M  V30 1973 C 182.254 1.72224 0.247938 0
M  V30 1974 O 183.43 2.01205 0.0885463 0
M  V30 1975 C 180.495 3.46231 -0.180274 0
M  V30 1976 C 179.556 4.11125 -1.2359 0
M  V30 1977 C 178.789 5.29195 -0.691966 0
M  V30 1978 O 179.012 5.68342 0.48414 0
M  V30 1979 O 177.946 5.84214 -1.44838 0
M  V30 1980 H 181.772 2.54197 -1.66186 0
M  V30 1981 H 179.357 1.21331 -0.871735 0
M  V30 1982 H 181.239 4.21185 0.134739 0
M  V30 1983 H 179.914 3.1597 0.703185 0
M  V30 1984 H 178.821 3.37985 -1.60366 0
M  V30 1985 H 180.154 4.45524 -2.09211 0
M  V30 1986 N 181.806 0.884767 1.30421 0
M  V30 1987 C 183.034 0.518044 2.0031 0
M  V30 1988 C 183.449 -0.893408 1.66324 0
M  V30 1989 O 182.806 -1.5875 0.900262 0
M  V30 1990 C 182.857 0.682997 3.54989 0
M  V30 1991 O 182.578 2.03888 3.87764 0
M  V30 1992 C 184.079 0.31924 4.42149 0
M  V30 1993 H 181.299 0.200265 0.640418 0
M  V30 1994 H 183.843 1.19001 1.6631 0
M  V30 1995 H 181.998 0.0584052 3.87356 0
M  V30 1996 H 182.412 2.05735 4.82466 0
M  V30 1997 H 183.886 0.485555 5.4986 0
M  V30 1998 H 184.363 -0.742717 4.32875 0
M  V30 1999 H 184.969 0.920147 4.15227 0
M  V30 2000 N 183.284 -1.43765 0.645699 0
M  V30 2001 C 184.533 -2.01116 0.153412 0
M  V30 2002 C 184.846 -1.51493 -1.23731 0
M  V30 2003 O 186.052 -2.01067 -1.8244 0
M  V30 2004 C 184.508 -3.59206 0.223473 0
M  V30 2005 C 184.116 -4.17823 1.61642 0
M  V30 2006 C 185.86 -4.23972 -0.211597 0
M  V30 2007 C 183.767 -5.68183 1.64081 0
M  V30 2008 H 182.697 -0.752093 0.0535891 0
M  V30 2009 H 185.348 -1.6482 0.806633 0
M  V30 2010 H 183.73 -3.92867 -0.497118 0
M  V30 2011 H 184.904 -3.95674 2.36176 0
M  V30 2012 H 183.219 -3.65399 1.99681 0
M  V30 2013 H 185.816 -5.34275 -0.213112 0
M  V30 2014 H 186.159 -3.97352 -1.24165 0
M  V30 2015 H 186.692 -3.95166 0.456988 0
M  V30 2016 H 183.431 -5.99559 2.64971 0
M  V30 2017 H 182.951 -5.9241 0.938611 0
M  V30 2018 H 184.63 -6.32085 1.3812 0
M  V30 2019 N 184.763 -0.387143 -1.52771 0
M  V30 2020 C 185.673 0.456442 -2.30117 0
M  V30 2021 C 186.689 1.07342 -1.36944 0
M  V30 2022 O 187.865 1.07971 -1.70013 0
M  V30 2023 C 184.93 1.56957 -3.09136 0
M  V30 2024 C 183.991 0.977916 -4.18014 0
M  V30 2025 C 183.224 2.038 -4.93256 0
M  V30 2026 O 183.447 3.25271 -4.68567 0
M  V30 2027 O 182.381 1.6565 -5.78657 0
M  V30 2028 H 186.207 -0.17359 -3.03203 0
M  V30 2029 H 183.792 -0.150919 -1.48636 0
M  V30 2030 H 185.674 2.21628 -3.58412 0
M  V30 2031 H 184.349 2.18461 -2.38865 0
M  V30 2032 H 183.256 0.294525 -3.72939 0
M  V30 2033 H 184.589 0.407128 -4.90513 0
M  V30 2034 N 186.241 1.57166 -0.116904 0
M  V30 2035 C 187.204 2.14039 0.819742 0
M  V30 2036 C 188.204 1.07477 1.19605 0
M  V30 2037 O 189.394 1.33263 1.1219 0
M  V30 2038 C 186.526 2.67891 2.10826 0
M  V30 2039 H 187.719 2.98128 0.325511 0
M  V30 2040 H 185.272 1.55739 0.132312 0
M  V30 2041 H 186.007 1.87384 2.64685 0
M  V30 2042 H 185.792 3.45823 1.84793 0
M  V30 2043 H 187.282 3.11809 2.77785 0
M  V30 2044 N 187.719 -0.156864 1.56817 0
M  V30 2045 C 188.965 -0.867645 1.83966 0
M  V30 2046 C 189.32 -1.79233 0.699511 0
M  V30 2047 O 188.613 -1.89186 -0.303176 0
M  V30 2048 C 188.807 -1.68737 3.1506 0
M  V30 2049 C 188.636 -0.843548 4.41718 0
M  V30 2050 C 187.406 -0.512994 5.02689 0
M  V30 2051 C 189.604 -0.178416 5.1399 0
M  V30 2052 N 187.586 0.345456 6.12927 0
M  V30 2053 C 188.957 0.540586 6.17639 0
M  V30 2054 C 191.012 -0.0980696 4.97803 0
M  V30 2055 C 189.715 1.33233 7.06853 0
M  V30 2056 C 191.741 0.680387 5.87473 0
M  V30 2057 C 191.103 1.3877 6.90596 0
M  V30 2058 H 187.202 -0.295642 0.723961 0
M  V30 2059 H 189.786 -0.13365 1.94241 0
M  V30 2060 H 187.957 -2.39268 3.0595 0
M  V30 2061 H 189.689 -2.34056 3.30151 0
M  V30 2062 H 186.444 -0.846476 4.65974 0
M  V30 2063 H 186.868 0.765415 6.72659 0
M  V30 2064 H 191.51 -0.630562 4.18071 0
M  V30 2065 H 189.228 1.87612 7.8602 0
M  V30 2066 H 192.814 0.744415 5.77018 0
M  V30 2067 H 191.694 1.9804 7.58782 0
M  V30 2068 N 189.197 -1.51736 -0.425897 0
M  V30 2069 C 190.425 -1.68794 -1.1965 0
M  V30 2070 C 190.84 -0.390164 -1.84725 0
M  V30 2071 O 190.197 0.632376 -1.71194 0
M  V30 2072 C 190.248 -2.81174 -2.27208 0
M  V30 2073 O 189.969 -4.05925 -1.64793 0
M  V30 2074 C 191.47 -3.09599 -3.17275 0
M  V30 2075 H 188.69 -0.566128 -0.360194 0
M  V30 2076 H 191.234 -1.98211 -0.503249 0
M  V30 2077 H 189.389 -2.54324 -2.9223 0
M  V30 2078 H 189.803 -4.68423 -2.35967 0
M  V30 2079 H 191.277 -3.91786 -3.88854 0
M  V30 2080 H 191.754 -2.22468 -3.78688 0
M  V30 2081 H 192.36 -3.38151 -2.57941 0
M  V30 2082 N 190.675 0.682077 -1.42076 0
M  V30 2083 C 191.607 1.80755 -1.40926 0
M  V30 2084 C 192.62 1.59833 -0.309398 0
M  V30 2085 O 193.809 1.69087 -0.572014 0
M  V30 2086 C 190.909 3.17744 -1.17865 0
M  V30 2087 C 190.082 3.65578 -2.40149 0
M  V30 2088 C 189.141 4.81277 -2.12742 0
M  V30 2089 O 188.167 4.92197 -2.85887 0
M  V30 2090 N 189.369 5.69474 -1.12602 0
M  V30 2091 H 192.134 1.82229 -2.37935 0
M  V30 2092 H 189.695 0.864903 -1.36861 0
M  V30 2093 H 191.687 3.9279 -0.9746 0
M  V30 2094 H 190.257 3.11214 -0.294068 0
M  V30 2095 H 189.477 2.81291 -2.76169 0
M  V30 2096 H 190.765 3.94278 -3.21593 0
M  V30 2097 H 190.163 5.63297 -0.520899 0
M  V30 2098 H 188.72 6.44363 -0.981842 0
M  V30 2099 N 192.153 1.28127 0.917671 0
M  V30 2100 C 193.085 1.07517 2.02417 0
M  V30 2101 C 194.098 0.0281099 1.62776 0
M  V30 2102 O 195.287 0.270748 1.76435 0
M  V30 2103 C 192.387 0.610957 3.33347 0
M  V30 2104 C 191.56 1.73255 4.01624 0
M  V30 2105 C 190.619 1.26238 5.10833 0
M  V30 2106 O 189.645 1.96389 5.34247 0
M  V30 2107 N 190.847 0.123448 5.80369 0
M  V30 2108 H 193.612 2.02806 2.20658 0
M  V30 2109 H 191.173 1.19827 1.08871 0
M  V30 2110 H 193.165 0.280101 4.0373 0
M  V30 2111 H 191.735 -0.24898 3.11607 0
M  V30 2112 H 190.955 2.23319 3.24842 0
M  V30 2113 H 192.243 2.48503 4.43986 0
M  V30 2114 H 191.641 -0.461847 5.63812 0
M  V30 2115 H 190.198 -0.148158 6.51632 0
M  V30 2116 N 193.631 -1.12557 1.10312 0
M  V30 2117 C 194.877 -1.84311 0.846011 0
M  V30 2118 C 195.21 -1.83805 -0.626859 0
M  V30 2119 O 194.485 -1.28268 -1.46211 0
M  V30 2120 C 194.768 -3.32048 1.39341 0
M  V30 2121 C 194.621 -3.41016 2.93305 0
M  V30 2122 C 195.94 -4.27764 1.03468 0
M  V30 2123 H 193.059 -0.669192 0.30879 0
M  V30 2124 H 195.701 -1.32057 1.36605 0
M  V30 2125 H 193.851 -3.76678 0.951087 0
M  V30 2126 H 195.523 -3.05031 3.46055 0
M  V30 2127 H 193.766 -2.81603 3.29973 0
M  V30 2128 H 194.437 -4.44948 3.26689 0
M  V30 2129 H 196.913 -3.91253 1.41633 0
M  V30 2130 H 195.789 -5.29549 1.44463 0
M  V30 2131 H 196.05 -4.42064 -0.0560404 0
M  V30 2132 N 195.109 -0.891671 -1.2995 0
M  V30 2133 C 196.072 -0.36828 -2.26222 0
M  V30 2134 C 197.072 0.493014 -1.53056 0
M  V30 2135 O 198.262 0.299213 -1.71611 0
M  V30 2136 C 195.394 0.47442 -3.37583 0
M  V30 2137 H 196.587 -1.21844 -2.74033 0
M  V30 2138 H 194.14 -0.669107 -1.41254 0
M  V30 2139 H 194.875 1.34489 -2.95099 0
M  V30 2140 H 194.66 -0.142615 -3.91841 0
M  V30 2141 H 196.15 0.83218 -4.09224 0
M  V30 2142 N 196.587 1.43421 -0.653314 0
M  V30 2143 C 197.815 2.06163 -0.174491 0
M  V30 2144 C 198.23 1.48969 1.1599 0
M  V30 2145 O 197.587 0.621042 1.71608 0
M  V30 2146 C 197.638 3.61417 -0.0774865 0
M  V30 2147 O 197.359 4.16485 -1.35912 0
M  V30 2148 C 198.86 4.41235 0.427402 0
M  V30 2149 H 196.08 0.664946 -0.0899353 0
M  V30 2150 H 198.624 1.83924 -0.893988 0
M  V30 2151 H 196.779 3.82841 0.59257 0
M  V30 2152 H 197.193 5.10153 -1.21839 0
M  V30 2153 H 198.667 5.5021 0.44423 0
M  V30 2154 H 199.144 4.14268 1.45873 0
M  V30 2155 H 199.75 4.2478 -0.210167 0
M  V30 2156 N 198.065 0.39524 1.52563 0
M  V30 2157 C 198.975 -0.444232 2.30356 0
M  V30 2158 C 199.991 -1.06615 1.37511 0
M  V30 2159 O 201.167 -1.07067 1.70583 0
M  V30 2160 C 198.232 -1.55315 3.09964 0
M  V30 2161 C 197.293 -0.955734 4.18526 0
M  V30 2162 C 196.526 -2.01181 4.9433 0
M  V30 2163 O 196.749 -3.22781 4.70285 0
M  V30 2164 O 195.683 -1.62579 5.79527 0
M  V30 2165 H 199.509 0.189667 3.03107 0
M  V30 2166 H 197.094 0.1588 1.48554 0
M  V30 2167 H 198.976 -2.19724 3.59582 0
M  V30 2168 H 197.651 -2.17191 2.4002 0
M  V30 2169 H 196.558 -0.274743 3.7309 0
M  V30 2170 H 197.891 -0.381109 4.90722 0
M  V30 2171 N 199.544 -1.57102 0.125237 0
M  V30 2172 C 200.492 -2.16905 -0.839927 0
M  V30 2173 C 201.486 -1.11998 -1.27094 0
M  V30 2174 O 202.692 -1.3029 -1.24195 0
M  V30 2175 H 199.067 -0.694252 -0.288995 0
M  V30 2176 H 201.038 -2.96774 -0.311115 0
M  V30 2177 C 199.787 -2.78795 -2.07771 0
M  V30 2178 H 199.11 -3.59221 -1.755 0
M  V30 2179 H 200.55 -3.2417 -2.73295 0
M  V30 2180 C 199.009 -1.76193 -2.87155 0
M  V30 2181 O 199.539 -1.21909 -3.82755 0
M  V30 2182 N 197.745 -1.45991 -2.51267 0
M  V30 2183 H 197.292 -1.90325 -1.73592 0
M  V30 2184 H 197.25 -0.775844 -3.04677 0
M  V30 2185 N 201.022 0.148545 -1.56898 0
M  V30 2186 C 202.433 0.708766 -1.72723 0
M  V30 2187 C 202.784 1.81734 -0.739395 0
M  V30 2188 O 201.909 2.16194 0.0943169 0
M  V30 2189 C 202.504 1.29245 -3.13179 0
M  V30 2190 C 201.063 1.79925 -3.30611 0
M  V30 2191 C 200.21 0.687111 -2.68652 0
M  V30 2192 H 203.161 -0.0771063 -1.58513 0
M  V30 2193 H 203.182 2.16224 -3.13093 0
M  V30 2194 H 202.694 0.485382 -3.85053 0
M  V30 2195 H 200.795 2.63203 -2.63732 0
M  V30 2196 H 200.908 1.92903 -4.38549 0
M  V30 2197 H 199.272 1.11335 -2.29078 0
M  V30 2198 H 200.055 -0.108483 -3.43129 0
M  V30 2199 N 202.5 1.5196 0.417844 0
M  V30 2200 C 203.463 1.74065 1.49111 0
M  V30 2201 C 204.463 0.610537 1.48758 0
M  V30 2202 O 205.653 0.87832 1.50437 0
M  V30 2203 C 202.785 1.81502 2.88565 0
M  V30 2204 H 203.978 2.69869 1.30807 0
M  V30 2205 H 201.531 1.42244 0.647785 0
M  V30 2206 H 202.266 0.875813 3.1225 0
M  V30 2207 H 202.051 2.63651 2.90225 0
M  V30 2208 H 203.541 2.00376 3.66387 0
M  V30 2209 N 203.978 -0.674533 1.42435 0
M  V30 2210 C 204.908 -1.80009 1.48724 0
M  V30 2211 C 205.889 -1.6659 0.343793 0
M  V30 2212 O 207.074 -1.86007 0.558137 0
M  V30 2213 C 204.204 -3.18306 1.38919 0
M  V30 2214 C 203.158 -3.46461 2.51294 0
M  V30 2215 C 202.484 -4.84335 2.26547 0
M  V30 2216 C 203.784 -3.43328 3.93603 0
M  V30 2217 H 205.478 -1.75004 2.42928 0
M  V30 2218 H 203.024 -0.840533 1.16923 0
M  V30 2219 H 204.977 -3.9678 1.41927 0
M  V30 2220 H 203.701 -3.2399 0.412094 0
M  V30 2221 H 202.36 -2.70348 2.47604 0
M  V30 2222 H 202.008 -4.86669 1.2713 0
M  V30 2223 H 201.708 -5.04136 3.01861 0
M  V30 2224 H 203.232 -5.65094 2.31304 0
M  V30 2225 H 204.646 -4.11772 3.98894 0
M  V30 2226 H 203.043 -3.74664 4.68771 0
M  V30 2227 H 204.113 -2.41897 4.20255 0
M  V30 2228 N 205.456 -1.28612 -0.910864 0
M  V30 2229 C 206.705 -1.15311 -1.65488 0
M  V30 2230 C 207.018 0.296999 -1.93332 0
M  V30 2231 O 208.224 0.551168 -2.65847 0
M  V30 2232 C 206.68 -2.01599 -2.98137 0
M  V30 2233 C 206.288 -3.51367 -2.7793 0
M  V30 2234 C 208.032 -1.96993 -3.76024 0
M  V30 2235 C 205.939 -4.29797 -4.06237 0
M  V30 2236 H 204.869 -0.42796 -0.620779 0
M  V30 2237 H 207.52 -1.53166 -1.01057 0
M  V30 2238 H 205.902 -1.56603 -3.63719 0
M  V30 2239 H 207.076 -4.0434 -2.21011 0
M  V30 2240 H 205.391 -3.57529 -2.13452 0
M  V30 2241 H 207.988 -2.52856 -4.71135 0
M  V30 2242 H 208.331 -0.94733 -4.05378 0
M  V30 2243 H 208.864 -2.39973 -3.17266 0
M  V30 2244 H 205.603 -5.32648 -3.82055 0
M  V30 2245 H 205.123 -3.81596 -4.62757 0
M  V30 2246 H 206.802 -4.39869 -4.74473 0
M  V30 2247 N 206.934 1.1197 -1.10907 0
M  V30 2248 C 208.159 1.87942 -0.877064 0
M  V30 2249 C 208.584 1.79341 0.567314 0
M  V30 2250 O 207.942 1.15184 1.40009 0
M  V30 2251 C 207.99 3.34926 -1.33629 0
M  V30 2252 O 207.094 4.09303 -0.504447 0
M  V30 2253 H 206.435 0.583785 -0.316371 0
M  V30 2254 H 208.965 1.4157 -1.47712 0
M  V30 2255 H 208.975 3.8577 -1.32837 0
M  V30 2256 H 207.65 3.40504 -2.3881 0
M  V30 2257 H 206.227 3.68393 -0.577993 0
M  V30 2258 N 208.412 0.89855 1.29475 0
M  V30 2259 C 209.828 0.594483 1.48115 0
M  V30 2260 C 210.028 -0.86431 1.82022 0
M  V30 2261 O 209.084 -1.64457 1.91599 0
M  V30 2262 C 210.397 1.51932 2.59494 0
M  V30 2263 C 211.945 1.5244 2.7337 0
M  V30 2264 C 212.42 2.43548 3.87877 0
M  V30 2265 N 213.911 2.41589 3.95208 0
M  V30 2266 C 214.646 3.08789 4.83153 0
M  V30 2267 N 214.142 3.85265 5.75798 0
M  V30 2268 N 215.935 2.97952 4.76635 0
M  V30 2269 H 208.086 1.84207 1.05742 0
M  V30 2270 H 210.349 0.789251 0.525154 0
M  V30 2271 H 210.055 2.55865 2.41301 0
M  V30 2272 H 209.929 1.23899 3.56271 0
M  V30 2273 H 212.316 0.492518 2.90961 0
M  V30 2274 H 212.397 1.8451 1.77172 0
M  V30 2275 H 212.041 3.46829 3.71041 0
M  V30 2276 H 211.971 2.08788 4.83441 0
M  V30 2277 H 214.462 1.86025 3.28943 0
M  V30 2278 H 214.775 4.33598 6.39697 0
M  V30 2279 H 213.12 3.89371 5.75687 0
M  V30 2280 H 216.311 2.37723 4.03244 0
M  V30 2281 H 216.484 3.50599 5.44962 0
M  V30 2282 N 209.89 -1.43072 0.660911 0
M  V30 2283 C 211.115 -2.06584 0.183805 0
M  V30 2284 C 211.54 -1.49257 -1.14472 0
M  V30 2285 O 210.898 -0.605528 -1.70889 0
M  V30 2286 C 210.946 -3.60418 0.114434 0
M  V30 2287 O 210.05 -4.01981 -0.921137 0
M  V30 2288 H 209.391 -0.656669 0.0983994 0
M  V30 2289 H 211.921 -1.83447 0.906006 0
M  V30 2290 H 211.931 -4.07946 -0.0663394 0
M  V30 2291 H 210.606 -4.01519 1.08422 0
M  V30 2292 H 209.183 -3.66029 -0.71253 0
M  V30 2293 N 211.368 -0.403325 -1.52352 0
M  V30 2294 C 212.614 0.174605 -2.02047 0
M  V30 2295 C 212.947 1.45282 -1.28867 0
M  V30 2296 O 212.222 1.90483 -0.393257 0
M  V30 2297 C 212.505 0.428238 -3.57545 0
M  V30 2298 C 212.358 -0.866248 -4.4138 0
M  V30 2299 C 213.677 1.21287 -4.23057 0
M  V30 2300 H 210.796 0.0619851 -0.734389 0
M  V30 2301 H 213.438 -0.53565 -1.82293 0
M  V30 2302 H 211.588 1.03327 -3.74507 0
M  V30 2303 H 213.26 -1.50265 -4.3614 0
M  V30 2304 H 211.503 -1.47851 -4.07827 0
M  V30 2305 H 212.174 -0.643249 -5.48239 0
M  V30 2306 H 214.65 0.700703 -4.10158 0
M  V30 2307 H 213.526 1.35909 -5.31808 0
M  V30 2308 H 213.787 2.23193 -3.81625 0
M  V30 2309 N 212.846 1.57033 -0.133567 0
M  V30 2310 C 214.095 1.94861 0.520768 0
M  V30 2311 C 214.408 1.02012 1.66892 0
M  V30 2312 O 215.614 1.29365 2.38699 0
M  V30 2313 C 214.07 3.46362 0.977809 0
M  V30 2314 C 213.678 4.47773 -0.142674 0
M  V30 2315 C 215.422 3.93083 1.60269 0
M  V30 2316 C 213.329 5.90468 0.331883 0
M  V30 2317 H 212.259 0.727453 0.198315 0
M  V30 2318 H 214.91 1.82227 -0.215759 0
M  V30 2319 H 213.292 3.54282 1.7692 0
M  V30 2320 H 214.466 4.51536 -0.919317 0
M  V30 2321 H 212.781 4.10891 -0.675124 0
M  V30 2322 H 215.378 4.97121 1.96914 0
M  V30 2323 H 215.721 3.33876 2.48662 0
M  V30 2324 H 216.254 3.88025 0.876453 0
M  V30 2325 H 212.993 6.53463 -0.516341 0
M  V30 2326 H 212.513 5.90094 1.07469 0
M  V30 2327 H 214.192 6.42179 0.788332 0
M  V30 2328 N 214.325 -0.140222 1.56975 0
M  V30 2329 C 215.573 -0.850005 1.83356 0
M  V30 2330 C 215.894 -1.81399 0.71551 0
M  V30 2331 O 215.164 -1.94136 -0.262294 0
M  V30 2332 H 213.744 -0.316886 0.676456 0
M  V30 2333 H 216.406 -0.132608 1.94448 0
M  V30 2334 H 215.502 -1.40814 2.78528 0
M  V30 2335 N 215.803 -1.52179 -0.40978 0
M  V30 2336 C 217.031 -1.70054 -1.17853 0
M  V30 2337 C 217.446 -0.409735 -1.843 0
M  V30 2338 O 216.803 0.614183 -1.71855 0
M  V30 2339 C 216.854 -2.83568 -2.24213 0
M  V30 2340 O 216.575 -4.0765 -1.60478 0
M  V30 2341 C 218.076 -3.12947 -3.13973 0
M  V30 2342 H 215.296 -0.569917 -0.354169 0
M  V30 2343 H 217.84 -1.98734 -0.482198 0
M  V30 2344 H 215.995 -2.57409 -2.89516 0
M  V30 2345 H 216.409 -4.70899 -2.30986 0
M  V30 2346 H 217.883 -3.95889 -3.84677 0
M  V30 2347 H 218.36 -2.26472 -3.76307 0
M  V30 2348 H 218.966 -3.40868 -2.5434 0
M  V30 2349 N 217.281 0.66697 -1.42791 0
M  V30 2350 C 218.509 1.45505 -1.47091 0
M  V30 2351 C 218.924 1.8861 -0.0845873 0
M  V30 2352 O 218.281 1.58632 0.90234 0
M  V30 2353 C 218.332 2.69906 -2.40485 0
M  V30 2354 O 218.053 2.28608 -3.73725 0
M  V30 2355 C 219.554 3.63396 -2.53886 0
M  V30 2356 H 216.774 0.447459 -0.500022 0
M  V30 2357 H 219.318 0.818866 -1.8739 0
M  V30 2358 H 217.473 3.29696 -2.03419 0
M  V30 2359 H 217.887 3.08997 -4.23817 0
M  V30 2360 H 219.361 4.47387 -3.2334 0
M  V30 2361 H 219.838 4.09824 -1.57927 0
M  V30 2362 H 220.444 3.09495 -2.91706 0
M  V30 2363 N 218.759 1.29093 0.90403 0
M  V30 2364 C 220.006 1.16813 1.65411 0
M  V30 2365 C 220.334 -0.28128 1.92455 0
M  V30 2366 O 219.589 -1.22006 1.53013 0
M  V30 2367 C 219.888 1.92224 3.01305 0
M  V30 2368 C 219.554 3.41968 2.93885 0
M  V30 2369 C 218.216 3.82807 2.91569 0
M  V30 2370 C 220.568 4.37409 2.83413 0
M  V30 2371 C 217.896 5.1741 2.76594 0
M  V30 2372 C 220.248 5.72097 2.69977 0
M  V30 2373 C 218.912 6.12199 2.66024 0
M  V30 2374 H 218.182 0.42745 0.605283 0
M  V30 2375 H 220.829 1.59981 1.05254 0
M  V30 2376 H 219.134 1.41635 3.65304 0
M  V30 2377 H 220.831 1.80131 3.58265 0
M  V30 2378 H 217.421 3.09504 2.96488 0
M  V30 2379 H 221.605 4.06813 2.84283 0
M  V30 2380 H 216.861 5.47596 2.71935 0
M  V30 2381 H 221.035 6.45704 2.60844 0
M  V30 2382 H 218.662 7.16448 2.54178 0
M  V30 2383 N 220.237 -1.11381 1.11499 0
M  V30 2384 C 221.147 -2.21019 0.786628 0
M  V30 2385 C 222.163 -1.72597 -0.220507 0
M  V30 2386 O 223.339 -2.01321 -0.0565251 0
M  V30 2387 C 220.404 -3.459 0.235333 0
M  V30 2388 C 219.465 -4.09107 1.30115 0
M  V30 2389 C 218.698 -5.28027 0.776068 0
M  V30 2390 O 218.921 -5.6904 -0.393661 0
M  V30 2391 O 217.855 -5.81835 1.54114 0
M  V30 2392 H 221.681 -2.51521 1.70209 0
M  V30 2393 H 219.266 -1.19928 0.890928 0
M  V30 2394 H 221.148 -4.21346 -0.067715 0
M  V30 2395 H 219.823 -3.17049 -0.652828 0
M  V30 2396 H 218.73 -3.35391 1.65722 0
M  V30 2397 H 220.063 -4.42139 2.16273 0
M  V30 2398 N 221.715 -0.905404 -1.28997 0
M  V30 2399 C 222.963 -0.533192 -1.9494 0
M  V30 2400 C 223.284 0.924618 -1.71685 0
M  V30 2401 O 222.554 1.65268 -1.05183 0
M  V30 2402 H 221.134 -0.194194 -0.721317 0
M  V30 2403 H 223.796 -1.15294 -1.57141 0
M  V30 2404 H 222.892 -0.72059 -3.03667 0
M  V30 2405 N 223.193 1.4272 -0.668489 0
M  V30 2406 C 224.609 1.55992 -0.33745 0
M  V30 2407 C 224.809 1.64933 1.15756 0
M  V30 2408 O 223.865 1.61278 1.94282 0
M  V30 2409 C 225.178 2.81314 -1.06222 0
M  V30 2410 C 226.726 2.95078 -1.04394 0
M  V30 2411 C 227.201 4.23252 -1.74991 0
M  V30 2412 N 228.692 4.3015 -1.71829 0
M  V30 2413 C 229.427 5.28127 -2.23315 0
M  V30 2414 N 228.923 6.32293 -2.83156 0
M  V30 2415 N 230.716 5.19882 -2.13726 0
M  V30 2416 H 222.867 1.3516 -1.63846 0
M  V30 2417 H 225.13 0.650174 -0.689912 0
M  V30 2418 H 224.836 2.80823 -2.11734 0
M  V30 2419 H 224.71 3.72012 -0.62344 0
M  V30 2420 H 227.097 2.951 0.0028244 0
M  V30 2421 H 227.178 2.05627 -1.52155 0
M  V30 2422 H 226.822 4.2399 -2.79633 0
M  V30 2423 H 226.752 5.11626 -1.24685 0
M  V30 2424 H 229.243 3.55499 -1.28175 0
M  V30 2425 H 229.556 7.03398 -3.20079 0
M  V30 2426 H 227.901 6.32873 -2.87223 0
M  V30 2427 H 231.092 4.37423 -1.66669 0
M  V30 2428 H 231.265 5.96077 -2.54158 0
M  V30 2429 N 224.671 0.411399 1.52136 0
M  V30 2430 C 225.634 -0.401089 2.25663 0
M  V30 2431 C 226.634 -0.971732 1.28117 0
M  V30 2432 O 227.824 -0.850254 1.52041 0
M  V30 2433 C 224.956 -1.56483 3.02863 0
M  V30 2434 H 226.149 0.24295 2.98914 0
M  V30 2435 H 223.702 0.163968 1.55438 0
M  V30 2436 H 224.437 -2.24567 2.33967 0
M  V30 2437 H 224.222 -1.16211 3.74483 0
M  V30 2438 H 225.712 -2.13951 3.58629 0
M  V30 2439 N 226.149 -1.5696 0.141893 0
M  V30 2440 C 227.398 -1.95135 -0.510427 0
M  V30 2441 C 227.711 -1.02896 -1.66348 0
M  V30 2442 O 228.917 -1.30629 -2.38009 0
M  V30 2443 C 227.373 -3.46876 -0.959427 0
M  V30 2444 C 226.981 -4.47691 0.166419 0
M  V30 2445 C 228.725 -3.93927 -1.58183 0
M  V30 2446 C 226.632 -5.90636 -0.300565 0
M  V30 2447 H 225.562 -0.728494 -0.194454 0
M  V30 2448 H 228.213 -1.8211 0.22542 0
M  V30 2449 H 226.595 -3.55215 -1.75038 0
M  V30 2450 H 227.769 -4.51043 0.94325 0
M  V30 2451 H 226.084 -4.10527 0.696905 0
M  V30 2452 H 228.681 -4.98158 -1.94275 0
M  V30 2453 H 229.024 -3.3519 -2.46888 0
M  V30 2454 H 229.557 -3.88484 -0.855863 0
M  V30 2455 H 226.296 -6.5318 0.550989 0
M  V30 2456 H 225.816 -5.90655 -1.04338 0
M  V30 2457 H 227.495 -6.42588 -0.754265 0
M  V30 2458 N 227.627 0.131896 -1.57047 0
M  V30 2459 C 228.857 0.855219 -1.88068 0
M  V30 2460 C 229.265 1.74557 -0.729817 0
M  V30 2461 O 228.608 1.81083 0.308962 0
M  V30 2462 C 228.67 1.75119 -3.13964 0
M  V30 2463 C 228.334 1.03646 -4.45091 0
M  V30 2464 C 229.331 0.383276 -5.18485 0
M  V30 2465 C 227.016 1.02148 -4.91804 0
M  V30 2466 C 229.01 -0.275347 -6.36805 0
M  V30 2467 C 226.697 0.359047 -6.10044 0
M  V30 2468 C 227.695 -0.288222 -6.82392 0
M  V30 2469 O 227.383 -0.94011 -7.98384 0
M  V30 2470 H 227.115 0.251864 -0.627328 0
M  V30 2471 H 229.669 0.124782 -2.05021 0
M  V30 2472 H 227.899 2.52295 -2.9306 0
M  V30 2473 H 229.588 2.3478 -3.31109 0
M  V30 2474 H 230.354 0.386562 -4.83457 0
M  V30 2475 H 226.233 1.5147 -4.35405 0
M  V30 2476 H 229.777 -0.781148 -6.93213 0
M  V30 2477 H 225.674 0.35348 -6.44531 0
M  V30 2478 H 226.442 -0.84329 -8.14144 0
M  V30 2479 N 229.106 1.52395 0.401703 0
M  V30 2480 C 230.036 1.79231 1.49661 0
M  V30 2481 C 231.017 0.643654 1.57452 0
M  V30 2482 O 232.202 0.889989 1.72606 0
M  V30 2483 C 229.332 1.94971 2.87409 0
M  V30 2484 C 228.286 3.10604 2.94465 0
M  V30 2485 C 227.612 3.11577 4.34538 0
M  V30 2486 C 228.912 4.49921 2.6527 0
M  V30 2487 H 230.606 2.70917 1.27454 0
M  V30 2488 H 228.152 1.30362 0.6117 0
M  V30 2489 H 230.105 2.12328 3.63999 0
M  V30 2490 H 228.829 0.999632 3.10926 0
M  V30 2491 H 227.488 2.93009 2.20321 0
M  V30 2492 H 227.136 2.14277 4.55076 0
M  V30 2493 H 226.836 3.89247 4.40183 0
M  V30 2494 H 228.36 3.31073 5.13053 0
M  V30 2495 H 229.774 4.67683 3.31581 0
M  V30 2496 H 228.171 5.29564 2.82281 0
M  V30 2497 H 229.241 4.57507 1.60671 0
M  V30 2498 N 230.584 -0.659388 1.43143 0
M  V30 2499 C 231.514 -1.78422 1.50625 0
M  V30 2500 C 232.495 -1.66216 0.361443 0
M  V30 2501 O 233.68 -1.85404 0.577834 0
M  V30 2502 C 230.81 -3.16815 1.42287 0
M  V30 2503 C 229.764 -3.43777 2.54954 0
M  V30 2504 C 229.09 -4.81905 2.31671 0
M  V30 2505 C 230.39 -3.39134 3.97222 0
M  V30 2506 H 232.084 -1.72417 2.44771 0
M  V30 2507 H 229.63 -0.828084 1.17808 0
M  V30 2508 H 231.583 -3.95253 1.46127 0
M  V30 2509 H 230.307 -3.23534 0.446435 0
M  V30 2510 H 228.966 -2.67707 2.50457 0
M  V30 2511 H 228.614 -4.85294 1.32284 0
M  V30 2512 H 228.314 -5.00906 3.07192 0
M  V30 2513 H 229.838 -5.62609 2.37284 0
M  V30 2514 H 231.252 -4.07518 4.03239 0
M  V30 2515 H 229.649 -3.69671 4.72719 0
M  V30 2516 H 230.719 -2.37426 4.22797 0
M  V30 2517 N 232.062 -1.29571 -0.897171 0
M  V30 2518 C 233.009 -1.14916 -2.00158 0
M  V30 2519 C 233.979 -0.0418149 -1.66047 0
M  V30 2520 O 235.164 -0.209793 -1.89643 0
M  V30 2521 C 232.304 -0.834307 -3.34863 0
M  V30 2522 C 231.417 -2.02234 -3.8174 0
M  V30 2523 C 230.552 -1.64664 -5.05034 0
M  V30 2524 C 229.591 -2.80033 -5.44286 0
M  V30 2525 N 228.728 -2.42843 -6.58765 0
M  V30 2526 H 233.568 -2.09403 -2.12025 0
M  V30 2527 H 231.105 -1.042 -1.0383 0
M  V30 2528 H 233.063 -0.632436 -4.12379 0
M  V30 2529 H 231.693 0.0736656 -3.22716 0
M  V30 2530 H 230.745 -2.33583 -3.00238 0
M  V30 2531 H 232.057 -2.88673 -4.06779 0
M  V30 2532 H 231.211 -1.4078 -5.9014 0
M  V30 2533 H 229.95 -0.753766 -4.8184 0
M  V30 2534 H 228.955 -3.04596 -4.57713 0
M  V30 2535 H 230.18 -3.69989 -5.6946 0
M  V30 2536 H 228.126 -1.56046 -6.3717 0
M  V30 2537 H 228.043 -3.22815 -6.83613 0
M  V30 2538 H 229.311 -2.22285 -7.47134 0
M  V30 2539 N 233.54 1.10788 -1.12088 0
M  V30 2540 C 234.786 1.82942 -0.875226 0
M  V30 2541 C 235.119 1.84779 0.597538 0
M  V30 2542 O 234.394 1.30578 1.44152 0
M  V30 2543 C 234.677 3.29789 -1.44606 0
M  V30 2544 C 234.53 3.36307 -2.98693 0
M  V30 2545 C 235.849 4.26064 -1.10261 0
M  V30 2546 H 232.968 0.664195 -0.319397 0
M  V30 2547 H 235.61 1.29867 -1.38689 0
M  V30 2548 H 233.76 3.75118 -1.01089 0
M  V30 2549 H 235.432 2.99487 -3.50864 0
M  V30 2550 H 233.675 2.76318 -3.34411 0
M  V30 2551 H 234.346 4.39694 -3.33726 0
M  V30 2552 H 236.822 3.88951 -1.4784 0
M  V30 2553 H 235.698 5.27183 -1.52869 0
M  V30 2554 H 235.959 4.42098 -0.0142953 0
M  V30 2555 N 235.018 0.912232 1.28515 0
M  V30 2556 C 236.266 0.543523 1.94654 0
M  V30 2557 C 236.587 -0.9155 1.72173 0
M  V30 2558 O 235.857 -1.64708 1.06058 0
M  V30 2559 H 234.437 0.198017 0.720277 0
M  V30 2560 H 237.099 1.16126 1.56527 0
M  V30 2561 H 236.195 0.736684 3.03281 0
M  V30 2562 N 236.496 -1.42363 0.676048 0
M  V30 2563 C 237.443 -2.308 -0.00150904 0
M  V30 2564 C 238.413 -1.46032 -0.791444 0
M  V30 2565 O 239.598 -1.74861 -0.76344 0
M  V30 2566 C 236.738 -3.31883 -0.945919 0
M  V30 2567 C 235.851 -4.31741 -0.149675 0
M  V30 2568 C 234.986 -5.19898 -1.08995 0
M  V30 2569 C 234.025 -6.11434 -0.285465 0
M  V30 2570 N 233.162 -6.92138 -1.17851 0
M  V30 2571 H 238.002 -2.88187 0.758455 0
M  V30 2572 H 235.539 -1.41952 0.38576 0
M  V30 2573 H 237.497 -3.89019 -1.50731 0
M  V30 2574 H 236.127 -2.76093 -1.6725 0
M  V30 2575 H 235.179 -3.76713 0.528359 0
M  V30 2576 H 236.491 -4.96534 0.474866 0
M  V30 2577 H 235.645 -5.81772 -1.72123 0
M  V30 2578 H 234.384 -4.55284 -1.74837 0
M  V30 2579 H 233.389 -5.48627 0.359018 0
M  V30 2580 H 234.614 -6.78097 0.368883 0
M  V30 2581 H 232.56 -6.30152 -1.82332 0
M  V30 2582 H 232.477 -7.53542 -0.609082 0
M  V30 2583 H 233.745 -7.58499 -1.79722 0
M  V30 2584 N 237.974 -0.419461 -1.51915 0
M  V30 2585 C 238.937 0.389116 -2.25873 0
M  V30 2586 C 239.937 0.964924 -1.28631 0
M  V30 2587 O 241.127 0.842179 -1.52489 0
M  V30 2588 C 238.259 1.54874 -3.03689 0
M  V30 2589 H 239.452 -0.258799 -2.98781 0
M  V30 2590 H 237.005 -0.172209 -1.55348 0
M  V30 2591 H 237.74 2.23323 -2.35154 0
M  V30 2592 H 237.525 1.14223 -3.75094 0
M  V30 2593 H 239.015 2.12046 -3.59759 0
M  V30 2594 N 239.452 1.56882 -0.150215 0
M  V30 2595 C 240.7 1.9584 0.499105 0
M  V30 2596 C 241.021 1.03623 1.65188 0
M  V30 2597 O 240.291 0.0984084 1.95653 0
M  V30 2598 H 238.871 0.723119 0.187373 0
M  V30 2599 H 241.533 1.9358 -0.226466 0
M  V30 2600 H 240.629 2.99638 0.873122 0
M  V30 2601 N 240.93 -0.123565 1.57115 0
M  V30 2602 C 241.862 -1.17739 1.96648 0
M  V30 2603 C 242.875 -1.37906 0.865201 0
M  V30 2604 O 244.064 -1.37062 1.14351 0
M  V30 2605 C 241.164 -2.53821 2.24562 0
M  V30 2606 C 240.337 -2.54317 3.55867 0
M  V30 2607 C 239.396 -3.72112 3.72047 0
M  V30 2608 O 238.422 -3.55907 4.44206 0
M  V30 2609 N 239.624 -4.90498 3.10471 0
M  V30 2610 H 242.389 -0.841147 2.87654 0
M  V30 2611 H 239.95 -0.31289 1.58848 0
M  V30 2612 H 241.942 -3.31175 2.32606 0
M  V30 2613 H 240.512 -2.79645 1.39705 0
M  V30 2614 H 239.732 -1.62711 3.59053 0
M  V30 2615 H 241.02 -2.51701 4.42181 0
M  V30 2616 H 240.418 -5.06567 2.51806 0
M  V30 2617 H 238.975 -5.65544 3.24043 0
M  V30 2618 N 242.408 -1.52605 -0.393616 0
M  V30 2619 C 243.356 -1.77688 -1.50099 0
M  V30 2620 C 244.35 -0.644615 -1.56656 0
M  V30 2621 O 245.556 -0.826997 -1.59877 0
M  V30 2622 H 241.931 -0.562159 -0.499481 0
M  V30 2623 H 243.902 -2.7043 -1.26135 0
M  V30 2624 C 242.651 -1.95858 -2.87289 0
M  V30 2625 H 241.974 -2.8241 -2.82992 0
M  V30 2626 H 243.414 -2.174 -3.64024 0
M  V30 2627 C 241.873 -0.729848 -3.28899 0
M  V30 2628 O 242.403 0.0949217 -4.01588 0
M  V30 2629 N 240.609 -0.561283 -2.85128 0
M  V30 2630 H 240.156 -1.23357 -2.26143 0
M  V30 2631 H 240.114 0.2595 -3.13327 0
M  V30 2632 N 243.887 0.651787 -1.4349 0
M  V30 2633 C 244.834 1.76462 -1.4876 0
M  V30 2634 C 245.804 1.62641 -0.337189 0
M  V30 2635 O 246.989 1.82864 -0.544544 0
M  V30 2636 C 244.129 3.14623 -1.41796 0
M  V30 2637 C 243.242 3.39568 -2.67053 0
M  V30 2638 C 242.377 4.67585 -2.52068 0
M  V30 2639 C 241.416 4.85639 -3.72587 0
M  V30 2640 N 240.553 6.04915 -3.56402 0
M  V30 2641 H 245.393 1.71293 -2.43849 0
M  V30 2642 H 242.93 0.835889 -1.21043 0
M  V30 2643 H 244.888 3.94496 -1.35753 0
M  V30 2644 H 243.518 3.18859 -0.50288 0
M  V30 2645 H 242.57 2.53783 -2.8337 0
M  V30 2646 H 243.882 3.48795 -3.56572 0
M  V30 2647 H 243.036 5.55586 -2.4374 0
M  V30 2648 H 241.775 4.60681 -1.60075 0
M  V30 2649 H 240.78 3.96073 -3.81321 0
M  V30 2650 H 242.005 4.94372 -4.65589 0
M  V30 2651 H 239.951 5.9914 -2.67146 0
M  V30 2652 H 239.868 6.15106 -4.39524 0
M  V30 2653 H 241.136 6.95533 -3.51929 0
M  V30 2654 N 245.365 1.30045 0.890287 0
M  V30 2655 C 246.776 1.16738 1.45702 0
M  V30 2656 C 247.127 -0.233939 1.948 0
M  V30 2657 O 246.252 -1.13021 1.84541 0
M  V30 2658 C 246.847 2.11313 2.64825 0
M  V30 2659 C 245.406 2.02001 3.17604 0
M  V30 2660 C 244.553 2.01699 1.90296 0
M  V30 2661 H 247.504 1.42392 0.700726 0
M  V30 2662 H 247.525 1.69086 3.40867 0
M  V30 2663 H 247.037 3.13294 2.2906 0
M  V30 2664 H 245.138 1.03142 3.5804 0
M  V30 2665 H 245.251 2.90128 3.81264 0
M  V30 2666 H 243.615 1.46427 2.08402 0
M  V30 2667 H 244.398 3.05402 1.56795 0
M  V30 2668 N 246.843 -1.10192 1.12674 0
M  V30 2669 C 247.806 -2.14786 0.799979 0
M  V30 2670 C 248.806 -1.59711 -0.18685 0
M  V30 2671 O 249.996 -1.74156 0.0392558 0
M  V30 2672 C 247.128 -3.40374 0.189228 0
M  V30 2673 H 248.321 -2.45203 1.72671 0
M  V30 2674 H 245.874 -1.25597 0.930326 0
M  V30 2675 H 246.609 -3.15577 -0.747107 0
M  V30 2676 H 246.394 -3.81637 0.899766 0
M  V30 2677 H 247.884 -4.17594 -0.0228143 0
M  V30 2678 N 248.321 -0.919034 -1.28029 0
M  V30 2679 C 249.57 -0.550802 -1.94034 0
M  V30 2680 C 249.883 0.910877 -1.73096 0
M  V30 2681 O 251.089 1.3875 -2.33368 0
M  V30 2682 C 249.545 -0.934249 -3.47563 0
M  V30 2683 C 249.153 -2.41602 -3.7727 0
M  V30 2684 C 250.897 -0.636854 -4.19696 0
M  V30 2685 C 248.804 -2.73932 -5.24133 0
M  V30 2686 H 247.734 -0.202273 -0.726362 0
M  V30 2687 H 250.385 -1.11867 -1.45458 0
M  V30 2688 H 248.767 -0.295115 -3.94899 0
M  V30 2689 H 249.941 -3.10233 -3.40723 0
M  V30 2690 H 248.256 -2.68441 -3.18321 0
M  V30 2691 H 250.853 -0.855005 -5.2782 0
M  V30 2692 H 251.196 0.425575 -4.14119 0
M  V30 2693 H 251.729 -1.23469 -3.78154 0
M  V30 2694 H 248.468 -3.79049 -5.34792 0
M  V30 2695 H 247.988 -2.09942 -5.61858 0
M  V30 2696 H 249.667 -2.61215 -5.91925 0
M  V30 2697 N 249.799 1.42003 -0.683588 0
M  V30 2698 C 251.046 2.01413 -0.209514 0
M  V30 2699 C 251.374 1.54088 1.1869 0
M  V30 2700 O 250.629 0.737591 1.81268 0
M  V30 2701 C 250.928 3.56827 -0.202357 0
M  V30 2702 C 250.594 4.23617 -1.54464 0
M  V30 2703 C 249.256 4.41577 -1.91215 0
M  V30 2704 C 251.608 4.61178 -2.42826 0
M  V30 2705 C 248.936 4.9437 -3.15935 0
M  V30 2706 C 251.288 5.15355 -3.66867 0
M  V30 2707 C 249.952 5.31528 -4.03776 0
M  V30 2708 H 249.222 0.737023 -0.0766668 0
M  V30 2709 H 251.869 1.70067 -0.880312 0
M  V30 2710 H 250.174 3.87892 0.551969 0
M  V30 2711 H 251.871 4.00588 0.181793 0
M  V30 2712 H 248.461 4.10004 -1.24877 0
M  V30 2713 H 252.645 4.46968 -2.15717 0
M  V30 2714 H 247.901 5.05076 -3.44541 0
M  V30 2715 H 252.075 5.43402 -4.35531 0
M  V30 2716 H 249.702 5.72199 -5.00492 0
M  V30 2717 N 251.277 0.427512 1.51691 0
M  V30 2718 C 252.21 -0.433876 2.24037 0
M  V30 2719 C 253.188 -1.03287 1.25581 0
M  V30 2720 O 254.372 -1.07722 1.54688 0
M  V30 2721 C 251.499 -1.60385 2.98319 0
M  V30 2722 C 250.545 -1.12648 4.11355 0
M  V30 2723 S 251.378 -0.076543 5.35445 0
M  V30 2724 C 252.534 -1.25141 6.13262 0
M  V30 2725 H 252.767 0.180367 2.96752 0
M  V30 2726 H 250.3 0.211946 1.52938 0
M  V30 2727 H 252.258 -2.27462 3.41718 0
M  V30 2728 H 250.919 -2.18948 2.25213 0
M  V30 2729 H 250.112 -2.0011 4.62571 0
M  V30 2730 H 249.714 -0.534088 3.70167 0
M  V30 2731 H 252.006 -2.17162 6.41753 0
M  V30 2732 H 252.949 -0.779411 7.03797 0
M  V30 2733 H 253.357 -1.48553 5.44603 0
M  V30 2734 N 252.755 -1.56801 0.158532 0
M  V30 2735 C 254.032 -1.88131 -0.535357 0
M  V30 2736 C 254.412 -1.06638 -1.82186 0
M  V30 2737 O 253.76 -0.156533 -2.27963 0
M  V30 2738 C 253.97 -3.39949 -0.789653 0
M  V30 2739 C 255.318 -4.09416 -1.12533 0
M  V30 2740 O 256.342 -3.45194 -0.878622 0
M  V30 2741 O 255.201 -5.22855 -1.59014 0
M  V30 2742 H 252.295 -0.780143 -0.27442 0
M  V30 2743 H 254.841 -1.68564 0.19601 0
M  V30 2744 H 253.613 -3.91115 0.120353 0
M  V30 2745 H 253.236 -3.65084 -1.57479 0
M  V30 2746 N 254.233 0.115231 -1.57178 0
M  V30 2747 C 255.473 0.828199 -1.8687 0
M  V30 2748 C 255.837 1.76873 -0.747002 0
M  V30 2749 O 257.038 2.52354 -0.925785 0
M  V30 2750 C 255.309 1.55515 -3.21792 0
M  V30 2751 S 256.868 2.30917 -3.73125 0
M  V30 2752 H 253.686 0.27634 -0.655101 0
M  V30 2753 H 256.288 0.0863469 -1.95309 0
M  V30 2754 H 254.992 0.856248 -4.01368 0
M  V30 2755 H 254.523 2.3373 -3.16439 0
M  V30 2756 H 256.538 3.56705 -3.44929 0
M  V30 2757 N 255.711 1.52812 0.385517 0
M  V30 2758 C 256.959 1.67694 1.12797 0
M  V30 2759 C 257.28 0.421115 1.90399 0
M  V30 2760 O 256.55 -0.564551 1.87589 0
M  V30 2761 H 255.13 0.618155 0.419396 0
M  V30 2762 H 257.792 1.89938 0.436972 0
M  V30 2763 H 256.888 2.52896 1.82894 0
M  V30 2764 N 257.189 -0.644168 1.43834 0
M  V30 2765 C 258.436 -1.40395 1.4593 0
M  V30 2766 C 258.764 -1.94305 0.0869658 0
M  V30 2767 O 258.019 -1.73288 -0.909378 0
M  V30 2768 C 258.318 -2.59615 2.45631 0
M  V30 2769 C 257.984 -2.2407 3.91284 0
M  V30 2770 C 256.646 -2.14089 4.30952 0
M  V30 2771 C 258.998 -1.95775 4.83034 0
M  V30 2772 C 256.326 -1.73981 5.6031 0
M  V30 2773 C 258.678 -1.57163 6.12766 0
M  V30 2774 C 257.342 -1.45713 6.51402 0
M  V30 2775 H 256.612 -0.513741 0.533995 0
M  V30 2776 H 259.259 -0.731724 1.76969 0
M  V30 2777 H 257.564 -3.32011 2.08028 0
M  V30 2778 H 259.261 -3.17834 2.44504 0
M  V30 2779 H 255.851 -2.32753 3.59895 0
M  V30 2780 H 260.035 -2.02403 4.53152 0
M  V30 2781 H 255.291 -1.63709 5.89075 0
M  V30 2782 H 259.465 -1.34303 6.83327 0
M  V30 2783 H 257.092 -1.14406 7.51542 0
M  V30 2784 N 258.668 -1.30515 -0.883378 0
M  V30 2785 C 259.618 -1.13641 -1.9766 0
M  V30 2786 C 260.602 -0.0511314 -1.60819 0
M  V30 2787 O 261.794 -0.274623 -1.74857 0
M  V30 2788 C 258.923 -0.831976 -3.33066 0
M  V30 2789 C 258.009 -1.95759 -3.76217 0
M  V30 2790 N 258.4 -3.20313 -3.9145 0
M  V30 2791 C 256.698 -1.85431 -4.05625 0
M  V30 2792 C 257.399 -3.93856 -4.2808 0
M  V30 2793 N 256.375 -3.21919 -4.38029 0
M  V30 2794 H 260.177 -2.08106 -2.07531 0
M  V30 2795 H 257.691 -1.21877 -1.0733 0
M  V30 2796 H 259.688 -0.692102 -4.11115 0
M  V30 2797 H 258.348 0.104588 -3.24532 0
M  V30 2798 H 259.359 -3.55583 -3.76538 0
M  V30 2799 H 256.036 -0.991531 -4.05555 0
M  V30 2800 H 257.426 -5.01125 -4.47575 0
M  V30 2801 N 260.146 1.09593 -1.13257 0
M  V30 2802 C 261.109 2.14359 -0.811358 0
M  V30 2803 C 262.109 1.59808 0.178377 0
M  V30 2804 O 263.299 1.74132 -0.0484911 0
M  V30 2805 C 260.431 3.40269 -0.207276 0
M  V30 2806 H 261.624 2.44284 -1.73969 0
M  V30 2807 H 259.177 1.25102 -0.936973 0
M  V30 2808 H 259.912 3.15969 0.73036 0
M  V30 2809 H 259.697 3.81154 -0.919992 0
M  V30 2810 H 261.187 4.176 0.000667944 0
M  V30 2811 N 261.624 0.925811 1.2754 0
M  V30 2812 C 263.04 0.625767 1.46821 0
M  V30 2813 C 263.24 -0.825506 1.83814 0
M  V30 2814 O 262.296 -1.60356 1.95044 0
M  V30 2815 C 263.609 1.57402 2.56213 0
M  V30 2816 C 265.157 1.58204 2.70075 0
M  V30 2817 C 265.632 2.51721 3.82623 0
M  V30 2818 N 267.123 2.49917 3.89994 0
M  V30 2819 C 267.858 3.18968 4.76494 0
M  V30 2820 N 267.354 3.97391 5.67496 0
M  V30 2821 N 269.147 3.07996 4.70208 0
M  V30 2822 H 261.298 1.86409 1.01811 0
M  V30 2823 H 263.561 0.800213 0.508295 0
M  V30 2824 H 263.267 2.60925 2.35819 0
M  V30 2825 H 263.141 1.31428 3.53563 0
M  V30 2826 H 265.528 0.554124 2.89851 0
M  V30 2827 H 265.609 1.88226 1.73218 0
M  V30 2828 H 265.253 3.54622 3.63601 0
M  V30 2829 H 265.183 2.18996 4.78903 0
M  V30 2830 H 267.674 1.9296 3.24923 0
M  V30 2831 H 267.987 4.4707 6.30356 0
M  V30 2832 H 266.332 4.01495 5.67298 0
M  V30 2833 H 269.523 2.46223 3.9811 0
M  V30 2834 H 269.696 3.6208 5.37403 0
M  V30 2835 N 263.102 -1.41638 0.69111 0
M  V30 2836 C 264.012 -2.34588 0.0233487 0
M  V30 2837 C 265.028 -1.55987 -0.770984 0
M  V30 2838 O 266.204 -1.88486 -0.709569 0
M  V30 2839 C 263.269 -3.34684 -0.904851 0
M  V30 2840 C 262.33 -4.29176 -0.103225 0
M  V30 2841 C 261.563 -5.2449 -0.987216 0
M  V30 2842 O 261.786 -5.2514 -2.22674 0
M  V30 2843 O 260.72 -6.00295 -0.439281 0
M  V30 2844 H 264.546 -2.93261 0.789416 0
M  V30 2845 H 262.131 -1.42417 0.45142 0
M  V30 2846 H 264.013 -3.96133 -1.43724 0
M  V30 2847 H 262.688 -2.78461 -1.65049 0
M  V30 2848 H 261.595 -3.71089 0.473655 0
M  V30 2849 H 262.928 -4.88484 0.60365 0
M  V30 2850 N 264.58 -0.43555 -1.51462 0
M  V30 2851 C 265.826 0.123979 -2.03022 0
M  V30 2852 C 266.181 1.4054 -1.31401 0
M  V30 2853 O 265.474 1.86948 -0.419634 0
M  V30 2854 C 265.668 0.39942 -3.55161 0
M  V30 2855 C 265.497 -0.853754 -4.41521 0
M  V30 2856 C 264.267 -1.38675 -4.85898 0
M  V30 2857 C 266.465 -1.73939 -4.83994 0
M  V30 2858 N 264.447 -2.59265 -5.56466 0
M  V30 2859 C 265.818 -2.79135 -5.5361 0
M  V30 2860 C 267.873 -1.75402 -4.65981 0
M  V30 2861 C 266.576 -3.85737 -6.07124 0
M  V30 2862 C 268.602 -2.80938 -5.20411 0
M  V30 2863 C 267.964 -3.84854 -5.89972 0
M  V30 2864 H 264.063 0.00624887 -0.781975 0
M  V30 2865 H 266.647 -0.59582 -1.85359 0
M  V30 2866 H 264.818 1.08825 -3.72843 0
M  V30 2867 H 266.55 0.95015 -3.93388 0
M  V30 2868 H 263.305 -0.94094 -4.64159 0
M  V30 2869 H 263.729 -3.2041 -5.96378 0
M  V30 2870 H 268.371 -0.963926 -4.11665 0
M  V30 2871 H 266.089 -4.65586 -6.60496 0
M  V30 2872 H 269.675 -2.8301 -5.08327 0
M  V30 2873 H 268.555 -4.65176 -6.31333 0
M  V30 2874 N 266.058 1.56714 -0.166846 0
M  V30 2875 C 267.307 1.95922 0.479318 0
M  V30 2876 C 267.62 1.05529 1.6469 0
M  V30 2877 O 268.826 1.34399 2.35901 0
M  V30 2878 C 267.282 3.48359 0.90412 0
M  V30 2879 C 266.89 4.47369 -0.237621 0
M  V30 2880 C 268.634 3.96394 1.51896 0
M  V30 2881 C 266.541 5.91039 0.206561 0
M  V30 2882 H 265.471 0.731495 0.18284 0
M  V30 2883 H 268.122 1.81728 -0.254363 0
M  V30 2884 H 266.504 3.57955 1.69365 0
M  V30 2885 H 267.678 4.49485 -1.01489 0
M  V30 2886 H 265.993 4.09366 -0.762128 0
M  V30 2887 H 268.59 5.01186 1.86325 0
M  V30 2888 H 268.933 3.39075 2.41524 0
M  V30 2889 H 269.466 3.89796 0.79395 0
M  V30 2890 H 266.205 6.52221 -0.654834 0
M  V30 2891 H 265.725 5.9224 0.949282 0
M  V30 2892 H 267.404 6.43707 0.651939 0
M  V30 2893 N 267.536 -0.106894 1.57237 0
M  V30 2894 C 268.761 -0.830287 1.90055 0
M  V30 2895 C 269.186 -1.72064 0.75998 0
M  V30 2896 O 268.544 -1.78982 -0.288991 0
M  V30 2897 C 268.592 -1.6295 3.21683 0
M  V30 2898 O 267.696 -2.73748 3.08441 0
M  V30 2899 H 267.037 -0.228855 0.623315 0
M  V30 2900 H 269.567 -0.085658 2.04421 0
M  V30 2901 H 269.577 -2.01621 3.54701 0
M  V30 2902 H 268.252 -0.975989 4.04286 0
M  V30 2903 H 266.829 -2.38192 2.86913 0
M  V30 2904 N 269.014 -1.53014 -0.377408 0
M  V30 2905 C 270.425 -1.60438 -0.954798 0
M  V30 2906 C 270.776 -0.464418 -1.90624 0
M  V30 2907 O 269.901 0.41087 -2.12464 0
M  V30 2908 C 270.496 -2.90797 -1.73847 0
M  V30 2909 C 269.055 -3.00595 -2.26538 0
M  V30 2910 C 268.202 -2.55645 -1.07429 0
M  V30 2911 H 271.153 -1.57926 -0.156575 0
M  V30 2912 H 271.174 -2.77935 -2.5987 0
M  V30 2913 H 270.686 -3.73746 -1.04574 0
M  V30 2914 H 268.787 -2.22208 -2.99089 0
M  V30 2915 H 268.9 -4.05456 -2.5523 0
M  V30 2916 H 267.264 -2.10239 -1.43777 0
M  V30 2917 H 268.047 -3.41 -0.396728 0
M  V30 2918 N 270.492 0.636531 -1.44174 0
M  V30 2919 C 271.455 1.73063 -1.50273 0
M  V30 2920 C 272.455 1.56113 -0.385397 0
M  V30 2921 O 273.645 1.61707 -0.64781 0
M  V30 2922 C 270.777 3.12096 -1.37145 0
M  V30 2923 H 271.97 1.69031 -2.47727 0
M  V30 2924 H 269.523 0.849706 -1.31186 0
M  V30 2925 H 270.258 3.21728 -0.407636 0
M  V30 2926 H 270.043 3.25805 -2.18159 0
M  V30 2927 H 271.533 3.91846 -1.44382 0
M  V30 2928 N 271.97 1.30982 0.876444 0
M  V30 2929 C 273.217 1.20296 1.62896 0
M  V30 2930 C 273.545 -0.240395 1.93009 0
M  V30 2931 O 272.8 -1.18733 1.55567 0
M  V30 2932 C 273.099 1.98572 2.9716 0
M  V30 2933 C 272.765 3.48125 2.86566 0
M  V30 2934 C 271.427 3.88905 2.83383 0
M  V30 2935 C 273.779 4.43322 2.74071 0
M  V30 2936 C 271.107 5.2316 2.65556 0
M  V30 2937 C 273.459 5.77695 2.57781 0
M  V30 2938 C 272.123 6.17704 2.52979 0
M  V30 2939 H 271.393 0.440193 0.59608 0
M  V30 2940 H 274.04 1.62177 1.01837 0
M  V30 2941 H 272.345 1.49352 3.62217 0
M  V30 2942 H 274.042 1.8769 3.54364 0
M  V30 2943 H 270.632 3.15723 2.89856 0
M  V30 2944 H 274.816 4.12752 2.75589 0
M  V30 2945 H 270.072 5.53241 2.60259 0
M  V30 2946 H 274.246 6.51091 2.47089 0
M  V30 2947 H 271.873 7.21678 2.38924 0
M  V30 2948 N 273.449 -1.08991 1.13837 0
M  V30 2949 C 274.689 -1.82867 0.913183 0
M  V30 2950 C 275.053 -1.83936 -0.550604 0
M  V30 2951 O 276.254 -2.53515 -0.893515 0
M  V30 2952 C 274.525 -3.24843 1.49036 0
M  V30 2953 S 276.084 -4.15669 1.40588 0
M  V30 2954 H 272.902 -0.630278 0.329046 0
M  V30 2955 H 275.504 -1.31049 1.45073 0
M  V30 2956 H 274.208 -3.21644 2.54899 0
M  V30 2957 H 273.739 -3.81734 0.950947 0
M  V30 2958 H 275.754 -4.94686 0.387353 0
M  V30 2959 N 274.927 -0.932562 -1.27047 0
M  V30 2960 C 275.859 -0.392734 -2.2581 0
M  V30 2961 C 276.872 0.479241 -1.55586 0
M  V30 2962 O 278.061 0.291078 -1.76111 0
M  V30 2963 C 275.161 0.455456 -3.35826 0
M  V30 2964 C 274.334 -0.398355 -4.35582 0
M  V30 2965 C 273.393 0.387985 -5.24768 0
M  V30 2966 O 272.419 -0.206003 -5.68827 0
M  V30 2967 N 273.621 1.68664 -5.55457 0
M  V30 2968 H 276.386 -1.24173 -2.72766 0
M  V30 2969 H 273.947 -0.800511 -1.40725 0
M  V30 2970 H 275.939 0.988692 -3.92437 0
M  V30 2971 H 274.509 1.20522 -2.88432 0
M  V30 2972 H 273.729 -1.11286 -3.78165 0
M  V30 2973 H 275.017 -0.981889 -4.99236 0
M  V30 2974 H 274.415 2.19147 -5.21528 0
M  V30 2975 H 272.972 2.1663 -6.14748 0
M  V30 2976 N 276.405 1.4127 -0.698611 0
M  V30 2977 C 277.651 2.01979 -0.239972 0
M  V30 2978 C 278.006 1.54353 1.14861 0
M  V30 2979 O 277.299 0.746218 1.76471 0
M  V30 2980 C 277.493 3.56592 -0.240192 0
M  V30 2981 C 277.322 4.19226 -1.62726 0
M  V30 2982 C 276.092 4.53389 -2.23084 0
M  V30 2983 C 278.29 4.45228 -2.57443 0
M  V30 2984 N 276.272 5.01327 -3.54323 0
M  V30 2985 C 277.643 4.94973 -3.73365 0
M  V30 2986 C 279.698 4.27243 -2.55671 0
M  V30 2987 C 278.401 5.28624 -4.878 0
M  V30 2988 C 280.427 4.61985 -3.69221 0
M  V30 2989 C 279.789 5.11904 -4.83873 0
M  V30 2990 H 275.888 0.770561 -0.133269 0
M  V30 2991 H 278.472 1.71767 -0.916748 0
M  V30 2992 H 276.643 3.86271 0.406082 0
M  V30 2993 H 278.375 4.04025 0.23356 0
M  V30 2994 H 275.13 4.39946 -1.75341 0
M  V30 2995 H 275.554 5.29697 -4.21604 0
M  V30 2996 H 280.196 3.87884 -1.68243 0
M  V30 2997 H 277.914 5.66905 -5.75885 0
M  V30 2998 H 281.5 4.49725 -3.69105 0
M  V30 2999 H 280.38 5.38282 -5.70282 0
M  V30 3000 N 277.883 0.443576 1.51229 0
M  V30 3001 C 279.13 -0.120796 2.02139 0
M  V30 3002 C 279.458 -1.42166 1.32736 0
M  V30 3003 O 278.713 -1.90849 0.43301 0
M  V30 3004 C 279.012 -0.380579 3.55368 0
M  V30 3005 C 278.678 0.83523 4.43097 0
M  V30 3006 C 277.34 1.16864 4.66794 0
M  V30 3007 C 279.692 1.64601 4.94526 0
M  V30 3008 C 277.02 2.31339 5.39165 0
M  V30 3009 C 279.372 2.78181 5.68153 0
M  V30 3010 C 278.036 3.11969 5.90112 0
M  V30 3011 H 277.306 -0.0442023 0.73968 0
M  V30 3012 H 279.953 0.592046 1.82118 0
M  V30 3013 H 278.258 -1.17538 3.73754 0
M  V30 3014 H 279.955 -0.830777 3.923 0
M  V30 3015 H 276.545 0.565437 4.24854 0
M  V30 3016 H 280.729 1.40163 4.76097 0
M  V30 3017 H 275.985 2.57823 5.5438 0
M  V30 3018 H 280.159 3.41371 6.06992 0
M  V30 3019 H 277.786 4.00784 6.45969 0
M  V30 3020 N 279.361 -1.56624 0.175154 0
M  V30 3021 C 280.607 -1.9729 -0.469506 0
M  V30 3022 C 280.94 -1.06128 -1.62636 0
M  V30 3023 O 280.215 -0.109183 -1.94193 0
M  V30 3024 C 280.498 -3.47375 -0.948804 0
M  V30 3025 C 280.351 -4.49317 0.208491 0
M  V30 3026 C 281.67 -4.00652 -1.82116 0
M  V30 3027 H 278.789 -0.717317 -0.16919 0
M  V30 3028 H 281.431 -1.88184 0.262062 0
M  V30 3029 H 279.581 -3.55267 -1.57219 0
M  V30 3030 H 281.253 -4.53482 0.845682 0
M  V30 3031 H 279.496 -4.25121 0.863395 0
M  V30 3032 H 280.167 -5.51741 -0.169059 0
M  V30 3033 H 282.643 -3.95416 -1.2956 0
M  V30 3034 H 281.519 -5.06075 -2.12554 0
M  V30 3035 H 281.78 -3.44699 -2.7683 0
M  V30 3036 N 280.839 0.0985539 -1.57292 0
M  V30 3037 C 282.255 0.45267 -1.53046 0
M  V30 3038 C 282.455 1.80713 -0.891342 0
M  V30 3039 O 281.511 2.4785 -0.482375 0
M  V30 3040 C 282.824 0.418341 -2.97776 0
M  V30 3041 C 284.372 0.500443 -3.08973 0
M  V30 3042 C 284.847 0.496297 -4.55303 0
M  V30 3043 N 286.338 0.557151 -4.59837 0
M  V30 3044 C 287.073 0.575726 -5.70502 0
M  V30 3045 N 286.569 0.550714 -6.90608 0
M  V30 3046 N 288.362 0.620277 -5.58667 0
M  V30 3047 H 280.513 -0.788673 -1.97215 0
M  V30 3048 H 282.776 -0.293188 -0.901524 0
M  V30 3049 H 282.482 -0.509659 -3.47988 0
M  V30 3050 H 282.356 1.2386 -3.56284 0
M  V30 3051 H 284.743 1.41886 -2.58751 0
M  V30 3052 H 284.824 -0.347894 -2.53423 0
M  V30 3053 H 284.468 -0.418162 -5.06176 0
M  V30 3054 H 284.398 1.3618 -5.08687 0
M  V30 3055 H 286.889 0.581816 -3.73394 0
M  V30 3056 H 287.202 0.568075 -7.70709 0
M  V30 3057 H 285.547 0.517816 -6.93068 0
M  V30 3058 H 288.738 0.637322 -4.63741 0
M  V30 3059 H 288.911 0.631283 -6.44918 0
M  V30 3060 N 282.317 1.53212 0.369288 0
M  V30 3061 C 283.227 1.82342 1.47609 0
M  V30 3062 C 284.243 0.711532 1.58787 0
M  V30 3063 O 285.419 1.0012 1.74751 0
M  V30 3064 C 282.484 2.00393 2.8292 0
M  V30 3065 C 281.545 3.24297 2.81301 0
M  V30 3066 C 280.778 3.41478 4.10157 0
M  V30 3067 O 281.001 2.63033 5.06132 0
M  V30 3068 O 279.935 4.34817 4.16194 0
M  V30 3069 H 283.761 2.76366 1.25918 0
M  V30 3070 H 281.346 1.38547 0.559034 0
M  V30 3071 H 283.228 2.13859 3.63101 0
M  V30 3072 H 281.903 1.09559 3.04596 0
M  V30 3073 H 280.81 3.16257 1.99831 0
M  V30 3074 H 282.143 4.15041 2.64578 0
M  V30 3075 N 283.795 -0.628877 1.44509 0
M  V30 3076 C 284.758 -1.72263 1.51188 0
M  V30 3077 C 285.758 -1.55907 0.39367 0
M  V30 3078 O 286.948 -1.61361 0.656377 0
M  V30 3079 C 284.08 -3.11365 1.38798 0
M  V30 3080 H 285.273 -1.67714 2.4862 0
M  V30 3081 H 282.826 -0.842737 1.31634 0
M  V30 3082 H 283.561 -3.21507 0.424693 0
M  V30 3083 H 283.346 -3.24644 2.19884 0
M  V30 3084 H 284.836 -3.91075 1.46458 0
M  V30 3085 N 285.273 -1.31445 -0.869486 0
M  V30 3086 C 286.519 -1.21337 -1.62496 0
M  V30 3087 C 286.852 0.227872 -1.92858 0
M  V30 3088 O 286.127 1.16094 -1.56053 0
M  V30 3089 C 286.41 -2.05814 -2.95487 0
M  V30 3090 C 286.263 -3.5824 -2.72 0
M  V30 3091 C 287.582 -1.9079 -3.96594 0
M  V30 3092 H 284.701 -0.442135 -0.589649 0
M  V30 3093 H 287.343 -1.6124 -1.00507 0
M  V30 3094 H 285.493 -1.71913 -3.48394 0
M  V30 3095 H 287.165 -4.0228 -2.25762 0
M  V30 3096 H 285.408 -3.81647 -2.06224 0
M  V30 3097 H 286.079 -4.12657 -3.66631 0
M  V30 3098 H 288.555 -2.20459 -3.52898 0
M  V30 3099 H 287.431 -2.52199 -4.87531 0
M  V30 3100 H 287.692 -0.871341 -4.33428 0
M  V30 3101 N 286.751 1.08385 -1.14413 0
M  V30 3102 C 288.167 1.32844 -0.884563 0
M  V30 3103 C 288.367 1.95841 0.474181 0
M  V30 3104 O 287.423 2.21158 1.21842 0
M  V30 3105 C 288.736 2.22978 -2.01745 0
M  V30 3106 C 290.284 2.36458 -2.05077 0
M  V30 3107 C 290.759 3.29934 -3.1766 0
M  V30 3108 N 292.25 3.37511 -3.17239 0
M  V30 3109 C 292.985 4.09871 -4.0099 0
M  V30 3110 N 292.481 4.84936 -4.94781 0
M  V30 3111 N 294.274 4.05704 -3.89051 0
M  V30 3112 H 286.425 0.658756 -2.01926 0
M  V30 3113 H 288.688 0.352821 -0.879899 0
M  V30 3114 H 288.394 1.83934 -2.99769 0
M  V30 3115 H 288.268 3.23441 -1.94077 0
M  V30 3116 H 290.655 2.7476 -1.0766 0
M  V30 3117 H 290.736 1.35736 -2.16816 0
M  V30 3118 H 290.38 2.92352 -4.15322 0
M  V30 3119 H 290.31 4.30584 -3.03158 0
M  V30 3120 H 292.801 2.83996 -2.49308 0
M  V30 3121 H 293.114 5.37612 -5.55151 0
M  V30 3122 H 291.459 4.83988 -4.98779 0
M  V30 3123 H 294.65 3.46167 -3.15097 0
M  V30 3124 H 294.823 4.61834 -4.54547 0
M  V30 3125 N 288.23 0.939286 1.26551 0
M  V30 3126 C 289.458 0.602536 1.97932 0
M  V30 3127 C 289.873 -0.82206 1.69964 0
M  V30 3128 O 289.23 -1.54789 0.966784 0
M  V30 3129 C 289.281 0.832946 3.51773 0
M  V30 3130 O 289.002 2.20151 3.78768 0
M  V30 3131 C 290.503 0.506483 4.40397 0
M  V30 3132 H 287.723 0.227248 0.631347 0
M  V30 3133 H 290.267 1.25948 1.61113 0
M  V30 3134 H 288.422 0.222644 3.8676 0
M  V30 3135 H 288.836 2.26013 4.73306 0
M  V30 3136 H 290.31 0.718333 5.47306 0
M  V30 3137 H 290.787 -0.558451 4.35635 0
M  V30 3138 H 291.393 1.09543 4.10951 0
M  V30 3139 N 289.708 -1.40897 0.706093 0
M  V30 3140 C 290.938 -2.05075 0.250523 0
M  V30 3141 C 291.346 -1.53275 -1.10921 0
M  V30 3142 O 290.689 -0.680281 -1.7064 0
M  V30 3143 C 290.751 -3.59219 0.142178 0
M  V30 3144 C 290.415 -4.33864 1.43566 0
M  V30 3145 C 291.412 -4.62448 2.37566 0
M  V30 3146 C 289.097 -4.72946 1.69195 0
M  V30 3147 C 291.091 -5.29088 3.5545 0
M  V30 3148 C 288.778 -5.3932 2.87362 0
M  V30 3149 C 289.776 -5.6732 3.80312 0
M  V30 3150 O 289.464 -6.32325 4.96408 0
M  V30 3151 H 289.196 -0.666645 0.112074 0
M  V30 3152 H 291.75 -1.81467 0.962239 0
M  V30 3153 H 289.98 -3.81609 -0.6254 0
M  V30 3154 H 291.669 -4.0495 -0.277584 0
M  V30 3155 H 292.435 -4.32727 2.19027 0
M  V30 3156 H 288.314 -4.50527 0.977042 0
M  V30 3157 H 291.858 -5.50859 4.28018 0
M  V30 3158 H 287.755 -5.68461 3.05814 0
M  V30 3159 H 288.523 -6.50821 4.9636 0
M  V30 3160 N 291.186 -0.45159 -1.50991 0
M  V30 3161 C 292.434 0.109857 -2.01801 0
M  V30 3162 C 292.755 1.41958 -1.3369 0
M  V30 3163 O 292.025 1.9003 -0.475951 0
M  V30 3164 H 290.605 0.0435884 -0.745727 0
M  V30 3165 H 293.267 -0.597557 -1.85514 0
M  V30 3166 H 292.363 0.275489 -3.10882 0
M  V30 3167 N 292.664 1.56529 -0.183458 0
M  V30 3168 C 294.08 1.58664 0.172554 0
M  V30 3169 C 294.28 1.19925 1.61926 0
M  V30 3170 O 293.336 0.916534 2.35278 0
M  V30 3171 C 294.649 3.00463 -0.119262 0
M  V30 3172 C 296.197 3.12945 -0.0584396 0
M  V30 3173 C 296.672 4.56857 -0.323408 0
M  V30 3174 N 298.163 4.62403 -0.271612 0
M  V30 3175 C 298.898 5.71626 -0.450639 0
M  V30 3176 N 298.394 6.89362 -0.689384 0
M  V30 3177 N 300.187 5.60775 -0.385701 0
M  V30 3178 H 292.338 1.79994 -1.12765 0
M  V30 3179 H 294.601 0.834808 -0.449222 0
M  V30 3180 H 294.307 3.33326 -1.12192 0
M  V30 3181 H 294.181 3.72659 0.583544 0
M  V30 3182 H 296.568 2.79902 0.934805 0
M  V30 3183 H 296.649 2.4316 -0.794144 0
M  V30 3184 H 296.293 4.9061 -1.31392 0
M  V30 3185 H 296.223 5.24816 0.43305 0
M  V30 3186 H 298.714 3.77785 -0.0932256 0
M  V30 3187 H 299.027 7.68489 -0.815113 0
M  V30 3188 H 297.372 6.91196 -0.726142 0
M  V30 3189 H 300.563 4.67674 -0.199687 0
M  V30 3190 H 300.736 6.4584 -0.528646 0
M  V30 3191 N 294.142 -0.090211 1.57342 0
M  V30 3192 C 295.052 -1.12735 2.05738 0
M  V30 3193 C 296.068 -1.43557 0.983231 0
M  V30 3194 O 297.244 -1.54101 1.29672 0
M  V30 3195 C 294.309 -2.42659 2.47624 0
M  V30 3196 C 293.37 -2.18975 3.69254 0
M  V30 3197 C 292.603 -3.42704 4.09133 0
M  V30 3198 O 292.826 -4.51127 3.49057 0
M  V30 3199 O 291.76 -3.32003 5.02053 0
M  V30 3200 H 295.586 -0.746279 2.94388 0
M  V30 3201 H 293.171 -0.303064 1.46294 0
M  V30 3202 H 295.053 -3.19155 2.7517 0
M  V30 3203 H 293.728 -2.80182 1.62109 0
M  V30 3204 H 292.635 -1.40244 3.46818 0
M  V30 3205 H 293.968 -1.86342 4.55563 0
M  V30 3206 N 295.62 -1.53406 -0.361157 0
M  V30 3207 C 296.869 -1.69022 -1.10066 0
M  V30 3208 C 297.182 -0.450838 -1.90333 0
M  V30 3209 O 298.388 -0.487617 -2.67085 0
M  V30 3210 C 296.844 -2.98812 -2.00598 0
M  V30 3211 C 296.452 -4.30027 -1.25621 0
M  V30 3212 C 298.196 -3.23795 -2.74513 0
M  V30 3213 C 296.103 -5.50903 -2.1508 0
M  V30 3214 H 295.033 -0.629776 -0.414606 0
M  V30 3215 H 297.684 -1.79907 -0.361348 0
M  V30 3216 H 296.066 -2.8174 -2.78278 0
M  V30 3217 H 297.24 -4.57745 -0.529739 0
M  V30 3218 H 295.555 -4.11522 -0.635496 0
M  V30 3219 H 298.152 -4.11289 -3.41681 0
M  V30 3220 H 298.495 -2.40045 -3.40123 0
M  V30 3221 H 299.028 -3.41561 -2.03914 0
M  V30 3222 H 295.767 -6.37143 -1.54041 0
M  V30 3223 H 295.287 -5.27459 -2.85565 0
M  V30 3224 H 296.966 -5.85865 -2.74538 0
M  V30 3225 N 297.098 0.621204 -1.44841 0
M  V30 3226 C 298.03 1.74615 -1.48466 0
M  V30 3227 C 299.043 1.58377 -0.37691 0
M  V30 3228 O 300.232 1.66508 -0.643215 0
M  V30 3229 C 297.332 3.12459 -1.31236 0
M  V30 3230 C 296.505 3.55064 -2.55438 0
M  V30 3231 C 295.564 4.71821 -2.32963 0
M  V30 3232 O 294.59 4.79628 -3.06505 0
M  V30 3233 N 295.792 5.64186 -1.36654 0
M  V30 3234 H 298.557 1.71973 -2.45449 0
M  V30 3235 H 296.118 0.806077 -1.40407 0
M  V30 3236 H 298.11 3.88302 -1.14032 0
M  V30 3237 H 296.68 3.09686 -0.4258 0
M  V30 3238 H 295.9 2.69324 -2.87851 0
M  V30 3239 H 297.188 3.80284 -3.38026 0
M  V30 3240 H 296.586 5.6058 -0.759344 0
M  V30 3241 H 295.143 6.39618 -1.25425 0
M  V30 3242 N 298.576 1.31904 0.862503 0
M  V30 3243 C 299.822 1.22197 1.61851 0
M  V30 3244 C 300.155 -0.217641 1.92977 0
M  V30 3245 O 299.43 -1.15264 1.56666 0
M  V30 3246 C 299.713 2.07378 2.94391 0
M  V30 3247 C 299.566 3.59678 2.70096 0
M  V30 3248 C 300.885 1.92891 3.95577 0
M  V30 3249 H 298.004 0.445255 0.587296 0
M  V30 3250 H 300.646 1.6177 0.99651 0
M  V30 3251 H 298.796 1.73758 3.47477 0
M  V30 3252 H 300.468 4.03472 2.23625 0
M  V30 3253 H 298.711 3.82735 2.04197 0
M  V30 3254 H 299.382 4.14595 3.64438 0
M  V30 3255 H 301.858 2.22327 3.51724 0
M  V30 3256 H 300.734 2.54781 4.86187 0
M  V30 3257 H 300.995 0.894315 4.3296 0
M  V30 3258 N 300.054 -1.07777 1.14986 0
M  V30 3259 C 301.282 -1.84018 0.945773 0
M  V30 3260 C 301.697 -1.81897 -0.505863 0
M  V30 3261 O 301.054 -1.22726 -1.35072 0
M  V30 3262 C 301.105 -3.31287 1.44677 0
M  V30 3263 O 300.826 -3.33449 2.84154 0
M  V30 3264 C 302.327 -4.24311 1.28355 0
M  V30 3265 H 299.547 -0.580716 0.336169 0
M  V30 3266 H 302.091 -1.36077 1.52654 0
M  V30 3267 H 300.246 -3.76594 0.908625 0
M  V30 3268 H 300.66 -4.25427 3.06777 0
M  V30 3269 H 302.134 -5.2573 1.68261 0
M  V30 3270 H 302.611 -4.38612 0.227184 0
M  V30 3271 H 303.217 -3.84836 1.81056 0
M  V30 3272 N 301.532 -0.945985 -1.26051 0
M  V30 3273 C 302.442 -0.465633 -2.29933 0
M  V30 3274 C 303.458 0.462761 -1.67733 0
M  V30 3275 O 304.634 0.341118 -1.9849 0
M  V30 3276 C 301.699 0.256994 -3.45746 0
M  V30 3277 C 300.76 -0.708549 -4.23412 0
M  V30 3278 C 299.993 -0.0203135 -5.33696 0
M  V30 3279 O 300.216 1.19571 -5.57726 0
M  V30 3280 O 299.15 -0.701459 -5.97799 0
M  V30 3281 H 302.976 -1.32866 -2.73094 0
M  V30 3282 H 300.561 -0.712071 -1.31339 0
M  V30 3283 H 302.443 0.663852 -4.16138 0
M  V30 3284 H 301.118 1.09533 -3.04605 0
M  V30 3285 H 300.025 -1.16545 -3.55483 0
M  V30 3286 H 301.358 -1.51465 -4.68315 0
M  V30 3287 N 303.011 1.40521 -0.713556 0
M  V30 3288 C 303.941 2.33381 -0.0743864 0
M  V30 3289 C 304.922 1.52784 0.747735 0
M  V30 3290 O 306.107 1.81258 0.697071 0
M  V30 3291 C 303.237 3.36748 0.849598 0
M  V30 3292 C 302.191 4.27793 0.133247 0
M  V30 3293 C 301.517 5.21679 1.17281 0
M  V30 3294 C 302.817 5.12415 -1.01134 0
M  V30 3295 H 304.511 2.87081 -0.850007 0
M  V30 3296 H 302.057 1.38034 -0.410201 0
M  V30 3297 H 304.01 4.00648 1.30612 0
M  V30 3298 H 302.734 2.81439 1.65709 0
M  V30 3299 H 301.393 3.65342 -0.303426 0
M  V30 3300 H 301.041 4.62677 1.9733 0
M  V30 3301 H 300.741 5.83435 0.698397 0
M  V30 3302 H 302.265 5.88456 1.62947 0
M  V30 3303 H 303.679 5.69781 -0.634274 0
M  V30 3304 H 302.076 5.83203 -1.41399 0
M  V30 3305 H 303.146 4.48514 -1.84292 0
M  V30 3306 N 304.489 0.459591 1.5075 0
M  V30 3307 C 305.419 -0.330644 2.31147 0
M  V30 3308 C 306.4 -1.00087 1.37538 0
M  V30 3309 O 307.585 -1.00025 1.66459 0
M  V30 3310 C 304.715 -1.41958 3.16962 0
M  V30 3311 C 303.669 -0.871608 4.19031 0
M  V30 3312 C 302.995 -2.05797 4.9351 0
M  V30 3313 C 304.295 0.109251 5.22186 0
M  V30 3314 H 305.989 0.340336 2.97459 0
M  V30 3315 H 303.535 0.165119 1.4305 0
M  V30 3316 H 305.488 -1.9798 3.71997 0
M  V30 3317 H 304.212 -2.11917 2.48513 0
M  V30 3318 H 302.871 -0.333442 3.6508 0
M  V30 3319 H 302.519 -2.74427 4.21544 0
M  V30 3320 H 302.219 -1.6976 5.62544 0
M  V30 3321 H 303.743 -2.62331 5.51375 0
M  V30 3322 H 305.157 -0.361405 5.7216 0
M  V30 3323 H 303.554 0.383316 5.98875 0
M  V30 3324 H 304.624 1.03887 4.73641 0
M  V30 3325 N 305.967 -1.56429 0.191757 0
M  V30 3326 C 307.244 -1.89224 -0.495332 0
M  V30 3327 C 307.624 -1.10478 -1.79883 0
M  V30 3328 O 306.972 -0.204852 -2.2758 0
M  V30 3329 C 307.182 -3.41548 -0.717367 0
M  V30 3330 C 308.53 -4.11711 -1.03823 0
M  V30 3331 O 309.554 -3.4698 -0.805204 0
M  V30 3332 O 308.413 -5.2611 -1.47887 0
M  V30 3333 H 305.507 -0.785788 -0.25781 0
M  V30 3334 H 308.053 -1.68111 0.231721 0
M  V30 3335 H 306.825 -3.90772 0.203287 0
M  V30 3336 H 306.448 -3.68342 -1.497 0
M  V30 3337 N 307.445 0.0818655 -1.57387 0
M  V30 3338 C 308.392 1.09834 -2.0299 0
M  V30 3339 C 309.362 1.39043 -0.908639 0
M  V30 3340 O 310.547 1.50282 -1.17559 0
M  V30 3341 C 307.687 2.40971 -2.47037 0
M  V30 3342 C 306.8 2.18379 -3.7274 0
M  V30 3343 C 305.935 3.43008 -4.0561 0
M  V30 3344 C 304.974 3.15736 -5.24383 0
M  V30 3345 N 304.111 4.32667 -5.52941 0
M  V30 3346 H 308.951 0.702472 -2.89602 0
M  V30 3347 H 306.488 0.33531 -1.43227 0
M  V30 3348 H 308.446 3.1752 -2.70623 0
M  V30 3349 H 307.076 2.78379 -1.63417 0
M  V30 3350 H 306.128 1.32569 -3.56552 0
M  V30 3351 H 307.44 1.94227 -4.59431 0
M  V30 3352 H 306.594 4.27958 -4.30043 0
M  V30 3353 H 305.333 3.70225 -3.17466 0
M  V30 3354 H 304.338 2.2918 -4.99757 0
M  V30 3355 H 305.563 2.8985 -6.14136 0
M  V30 3356 H 303.509 4.59935 -4.67756 0
M  V30 3357 H 303.426 4.11753 -6.34031 0
M  V30 3358 H 304.694 5.18644 -5.81918 0
M  V30 3359 N 308.923 1.53595 0.353017 0
M  V30 3360 C 309.853 1.83902 1.43883 0
M  V30 3361 C 310.834 0.693421 1.55324 0
M  V30 3362 O 312.019 0.944452 1.69687 0
M  V30 3363 C 309.149 2.04016 2.8106 0
M  V30 3364 C 308.103 3.19814 2.84434 0
M  V30 3365 C 307.429 3.25244 4.24406 0
M  V30 3366 C 308.729 4.58133 2.50822 0
M  V30 3367 H 310.423 2.74835 1.1877 0
M  V30 3368 H 307.969 1.32242 0.569917 0
M  V30 3369 H 309.922 2.238 3.57059 0
M  V30 3370 H 308.646 1.09804 3.07588 0
M  V30 3371 H 307.305 2.9987 2.10887 0
M  V30 3372 H 306.953 2.28646 4.48029 0
M  V30 3373 H 306.653 4.03054 4.27576 0
M  V30 3374 H 308.177 3.47228 5.0226 0
M  V30 3375 H 309.591 4.77995 3.16534 0
M  V30 3376 H 307.988 5.38276 2.6529 0
M  V30 3377 H 309.058 4.62387 1.46034 0
M  V30 3378 N 310.401 -0.613514 1.45168 0
M  V30 3379 C 311.678 -1.37263 1.39349 0
M  V30 3380 C 312.058 -2.11012 0.0610848 0
M  V30 3381 O 311.406 -2.07502 -0.956825 0
M  V30 3382 C 311.616 -2.3244 2.60332 0
M  V30 3383 C 312.964 -2.9523 3.05163 0
M  V30 3384 O 313.988 -2.42762 2.60663 0
M  V30 3385 O 312.847 -3.90454 3.82372 0
M  V30 3386 H 309.941 -0.615188 0.552696 0
M  V30 3387 H 312.487 -0.637097 1.57287 0
M  V30 3388 H 311.259 -1.77164 3.48896 0
M  V30 3389 H 310.882 -3.13383 2.44698 0
M  V30 3390 N 311.879 -1.3236 -0.855495 0
M  V30 3391 C 313.126 -1.22872 -1.60962 0
M  V30 3392 C 313.454 0.209658 -1.93367 0
M  V30 3393 O 312.709 1.16243 -1.57436 0
M  V30 3394 C 313.008 -2.03275 -2.93963 0
M  V30 3395 C 312.674 -3.5264 -2.80991 0
M  V30 3396 C 311.336 -3.93364 -2.7716 0
M  V30 3397 C 313.688 -4.47626 -2.66983 0
M  V30 3398 C 311.016 -5.27319 -2.572 0
M  V30 3399 C 313.368 -5.81723 -2.48558 0
M  V30 3400 C 312.032 -6.2165 -2.4312 0
M  V30 3401 H 311.302 -0.44962 -0.589001 0
M  V30 3402 H 313.949 -1.63777 -0.992442 0
M  V30 3403 H 312.254 -1.55095 -3.59795 0
M  V30 3404 H 313.951 -1.93303 -3.51333 0
M  V30 3405 H 310.541 -3.20295 -2.84797 0
M  V30 3406 H 314.725 -4.17084 -2.68988 0
M  V30 3407 H 309.981 -5.57311 -2.51424 0
M  V30 3408 H 314.155 -6.5494 -2.36699 0
M  V30 3409 H 311.782 -7.25388 -2.27412 0
M  V30 3410 N 313.357 1.07166 -1.15556 0
M  V30 3411 C 314.587 1.83248 -0.954133 0
M  V30 3412 C 314.995 1.82449 0.500911 0
M  V30 3413 O 314.338 1.23575 1.35923 0
M  V30 3414 C 314.4 3.31393 -1.39351 0
M  V30 3415 C 314.064 3.5591 -2.86666 0
M  V30 3416 C 315.061 3.49695 -3.8472 0
M  V30 3417 C 312.746 3.83515 -3.24379 0
M  V30 3418 C 314.74 3.70737 -5.18491 0
M  V30 3419 C 312.427 4.04209 -4.58321 0
M  V30 3420 C 313.425 3.97815 -5.55186 0
M  V30 3421 O 313.113 4.17954 -6.86709 0
M  V30 3422 H 312.845 0.584941 -0.338851 0
M  V30 3423 H 315.399 1.36169 -1.53777 0
M  V30 3424 H 313.629 3.79292 -0.75329 0
M  V30 3425 H 315.318 3.88945 -1.16089 0
M  V30 3426 H 316.084 3.28368 -3.56931 0
M  V30 3427 H 311.963 3.87605 -2.49567 0
M  V30 3428 H 315.507 3.65663 -5.94085 0
M  V30 3429 H 311.404 4.25023 -4.85825 0
M  V30 3430 H 312.172 4.35291 -6.93155 0
M  V30 3431 N 314.835 0.952656 1.25548 0
M  V30 3432 C 316.081 0.607272 1.93494 0
M  V30 3433 C 316.414 -0.853245 1.74452 0
M  V30 3434 O 315.689 -1.61194 1.08843 0
M  V30 3435 C 315.972 0.96435 3.46947 0
M  V30 3436 C 315.825 2.48045 3.75225 0
M  V30 3437 C 317.144 0.487987 4.37386 0
M  V30 3438 H 314.263 0.222096 0.702739 0
M  V30 3439 H 316.905 1.18895 1.48203 0
M  V30 3440 H 315.055 0.469361 3.85654 0
M  V30 3441 H 316.727 3.04905 3.46166 0
M  V30 3442 H 314.97 2.919 3.209 0
M  V30 3443 H 315.641 2.6808 4.82532 0
M  V30 3444 H 318.117 0.912558 4.0597 0
M  V30 3445 H 316.993 0.766547 5.43521 0
M  V30 3446 H 317.254 -0.612063 4.37843 0
M  V30 3447 N 316.313 -1.40141 0.720998 0
M  V30 3448 C 317.243 -2.33339 0.0867621 0
M  V30 3449 C 318.224 -1.53178 -0.739622 0
M  V30 3450 O 319.409 -1.81625 -0.687449 0
M  V30 3451 C 316.539 -3.37194 -0.831728 0
M  V30 3452 C 315.493 -4.27857 -0.110558 0
M  V30 3453 C 314.819 -5.22294 -1.14513 0
M  V30 3454 C 316.119 -5.11872 1.0385 0
M  V30 3455 H 317.813 -2.86626 0.865219 0
M  V30 3456 H 315.359 -1.37814 0.417516 0
M  V30 3457 H 317.312 -4.01335 -1.28485 0
M  V30 3458 H 316.036 -2.82314 -1.64214 0
M  V30 3459 H 314.695 -3.65176 0.322797 0
M  V30 3460 H 314.343 -4.63717 -1.94874 0
M  V30 3461 H 314.043 -5.83797 -0.667446 0
M  V30 3462 H 315.567 -5.89312 -1.59824 0
M  V30 3463 H 316.981 -5.69436 0.664482 0
M  V30 3464 H 315.378 -5.82445 1.4449 0
M  V30 3465 H 316.448 -4.4753 1.86668 0
M  V30 3466 N 317.792 -0.46758 -1.50504 0
M  V30 3467 C 319.203 -0.0116166 -1.86696 0
M  V30 3468 C 319.554 1.39202 -1.38265 0
M  V30 3469 O 318.679 2.0313 -0.746132 0
M  V30 3470 C 319.274 -0.0143044 -3.38797 0
M  V30 3471 C 317.833 0.386175 -3.74414 0
M  V30 3472 C 316.98 -0.401287 -2.74381 0
M  V30 3473 H 319.931 -0.682022 -1.43297 0
M  V30 3474 H 319.952 0.788641 -3.72237 0
M  V30 3475 H 319.464 -1.03602 -3.74016 0
M  V30 3476 H 317.565 1.41237 -3.44794 0
M  V30 3477 H 317.678 0.0899596 -4.79016 0
M  V30 3478 H 316.042 0.144536 -2.5429 0
M  V30 3479 H 316.825 -1.42244 -3.12444 0
M  V30 3480 N 319.27 1.56325 -0.20005 0
M  V30 3481 C 320.516 1.98012 0.438059 0
M  V30 3482 C 320.849 1.08702 1.60927 0
M  V30 3483 O 320.124 0.140064 1.93995 0
M  V30 3484 C 320.407 3.48841 0.893419 0
M  V30 3485 C 320.26 4.48928 -0.279947 0
M  V30 3486 C 321.579 4.03498 1.75719 0
M  V30 3487 H 318.698 0.719918 0.157757 0
M  V30 3488 H 321.34 1.87743 -0.291968 0
M  V30 3489 H 319.49 3.57723 1.51547 0
M  V30 3490 H 321.162 4.52079 -0.91772 0
M  V30 3491 H 319.405 4.23694 -0.930919 0
M  V30 3492 H 320.076 5.5194 0.0812601 0
M  V30 3493 H 322.552 3.97427 1.23253 0
M  V30 3494 H 321.428 5.09393 2.04476 0
M  V30 3495 H 321.689 3.4906 2.71311 0
M  V30 3496 N 320.748 -0.0735177 1.57428 0
M  V30 3497 C 321.678 -1.0879 2.06608 0
M  V30 3498 C 322.659 -1.40473 0.959237 0
M  V30 3499 O 323.844 -1.5013 1.23185 0
M  V30 3500 C 320.974 -2.40183 2.50857 0
M  V30 3501 C 319.928 -2.22858 3.65402 0
M  V30 3502 C 319.254 -3.59619 3.957 0
M  V30 3503 C 320.554 -1.65123 4.95511 0
M  V30 3504 H 322.248 -0.678673 2.91607 0
M  V30 3505 H 319.794 -0.325013 1.40284 0
M  V30 3506 H 321.747 -3.11437 2.83874 0
M  V30 3507 H 320.471 -2.83083 1.62885 0
M  V30 3508 H 319.13 -1.54045 3.32664 0
M  V30 3509 H 318.778 -4.00086 3.04861 0
M  V30 3510 H 318.478 -3.48866 4.72828 0
M  V30 3511 H 320.002 -4.32306 4.31212 0
M  V30 3512 H 321.416 -2.26241 5.26771 0
M  V30 3513 H 319.813 -1.65071 5.7695 0
M  V30 3514 H 320.883 -0.612559 4.81015 0
M  V30 3515 N 322.226 -1.5378 -0.344866 0
M  V30 3516 C 323.174 -1.82373 -1.4437 0
M  V30 3517 C 324.168 -0.694128 -1.54526 0
M  V30 3518 O 325.374 -0.877442 -1.57165 0
M  V30 3519 H 321.749 -0.577765 -0.481344 0
M  V30 3520 H 323.72 -2.74306 -1.17468 0
M  V30 3521 C 322.469 -2.04898 -2.80913 0
M  V30 3522 H 321.792 -2.9127 -2.73865 0
M  V30 3523 H 323.232 -2.28871 -3.56923 0
M  V30 3524 C 321.691 -0.834116 -3.26411 0
M  V30 3525 O 322.221 -0.0328885 -4.01687 0
M  V30 3526 N 320.427 -0.65171 -2.83198 0
M  V30 3527 H 319.974 -1.30489 -2.22104 0
M  V30 3528 H 319.932 0.159686 -3.13994 0
M  V30 3529 N 323.704 0.605807 -1.45491 0
M  V30 3530 C 324.953 1.36086 -1.48874 0
M  V30 3531 C 325.266 1.95131 -0.135333 0
M  V30 3532 O 326.472 2.7146 -0.0468144 0
M  V30 3533 C 324.928 2.46518 -2.62215 0
M  V30 3534 C 324.536 1.93877 -4.03876 0
M  V30 3535 C 326.28 3.23512 -2.74846 0
M  V30 3536 C 324.187 3.01801 -5.08596 0
M  V30 3537 H 323.117 0.511497 -0.553974 0
M  V30 3538 H 325.768 0.649089 -1.71636 0
M  V30 3539 H 324.15 3.20388 -2.32739 0
M  V30 3540 H 325.324 1.26704 -4.43038 0
M  V30 3541 H 323.639 1.29622 -3.95711 0
M  V30 3542 H 326.236 4.04013 -3.50253 0
M  V30 3543 H 326.579 3.74631 -1.81542 0
M  V30 3544 H 327.112 2.56742 -3.03856 0
M  V30 3545 H 323.851 2.55597 -6.03614 0
M  V30 3546 H 323.371 3.67535 -4.74002 0
M  V30 3547 H 325.05 3.66152 -5.33424 0
M  V30 3548 N 325.182 1.32811 0.848464 0
M  V30 3549 C 326.459 1.14334 1.58704 0
M  V30 3550 C 326.839 -0.293948 2.09043 0
M  V30 3551 O 326.187 -1.29153 1.88499 0
M  V30 3552 C 326.397 2.17626 2.72837 0
M  V30 3553 C 327.745 2.51282 3.42261 0
M  V30 3554 O 328.769 2.16219 2.83068 0
M  V30 3555 O 327.628 3.11413 4.49093 0
M  V30 3556 H 324.722 0.441601 0.699226 0
M  V30 3557 H 327.268 1.44362 0.892053 0
M  V30 3558 H 326.04 3.14211 2.3321 0
M  V30 3559 H 325.663 1.88628 3.50008 0
M  V30 3560 N 326.66 -1.06551 1.16123 0
M  V30 3561 C 327.908 -1.78947 0.939267 0
M  V30 3562 C 328.229 -1.87532 -0.534476 0
M  V30 3563 O 327.499 -1.38211 -1.38833 0
M  V30 3564 H 326.079 -0.662807 0.344523 0
M  V30 3565 H 328.741 -1.28725 1.46342 0
M  V30 3566 H 327.837 -2.81117 1.35572 0
M  V30 3567 N 328.138 -0.959301 -1.25041 0
M  V30 3568 C 329.368 -0.63303 -1.96663 0
M  V30 3569 C 329.776 0.800031 -1.71453 0
M  V30 3570 O 329.119 1.54736 -0.99008 0
M  V30 3571 C 329.181 -0.817523 -3.50081 0
M  V30 3572 C 328.845 -2.22863 -3.98975 0
M  V30 3573 C 329.842 -3.20569 -4.09306 0
M  V30 3574 C 327.527 -2.55407 -4.32519 0
M  V30 3575 C 329.521 -4.4891 -4.52503 0
M  V30 3576 C 327.208 -3.83976 -4.754 0
M  V30 3577 C 328.206 -4.8054 -4.85356 0
M  V30 3578 O 327.894 -6.06817 -5.27284 0
M  V30 3579 H 327.626 -0.235866 -0.633516 0
M  V30 3580 H 330.18 -1.2874 -1.60047 0
M  V30 3581 H 328.41 -0.105992 -3.86555 0
M  V30 3582 H 330.099 -0.491604 -4.02912 0
M  V30 3583 H 330.865 -2.96753 -3.83618 0
M  V30 3584 H 326.744 -1.8097 -4.23994 0
M  V30 3585 H 330.288 -5.24283 -4.60188 0
M  V30 3586 H 326.185 -4.07596 -5.00535 0
M  V30 3587 H 326.953 -6.10262 -5.45457 0
M  V30 3588 N 329.616 1.39756 -0.72842 0
M  V30 3589 C 330.865 1.99879 -0.270407 0
M  V30 3590 C 331.178 1.58449 1.14688 0
M  V30 3591 O 332.384 2.11362 1.70407 0
M  V30 3592 C 330.84 3.57292 -0.43252 0
M  V30 3593 C 330.448 4.07688 -1.85727 0
M  V30 3594 C 332.192 4.24485 -0.0359507 0
M  V30 3595 C 330.099 5.5765 -1.96928 0
M  V30 3596 H 329.029 0.747689 -0.0973472 0
M  V30 3597 H 331.68 1.59837 -0.901355 0
M  V30 3598 H 330.062 3.95097 0.267219 0
M  V30 3599 H 331.236 3.81231 -2.58843 0
M  V30 3600 H 329.551 3.53135 -2.20646 0
M  V30 3601 H 332.148 5.34609 -0.0987484 0
M  V30 3602 H 332.491 4.03915 1.00787 0
M  V30 3603 H 333.024 3.9183 -0.686604 0
M  V30 3604 H 329.763 5.8309 -2.99476 0
M  V30 3605 H 329.283 5.8593 -1.28241 0
M  V30 3606 H 330.962 6.22957 -1.74737 0
M  V30 3607 N 331.094 0.475555 1.50254 0
M  V30 3608 C 332.324 -0.0753399 2.06463 0
M  V30 3609 C 332.732 -1.33661 1.33908 0
M  V30 3610 O 332.075 -1.79219 0.403257 0
M  V30 3611 C 332.137 -0.424921 3.5698 0
M  V30 3612 C 331.801 0.734965 4.51051 0
M  V30 3613 C 332.798 1.61827 4.94073 0
M  V30 3614 C 330.483 0.926557 4.9368 0
M  V30 3615 C 332.477 2.67754 5.78434 0
M  V30 3616 C 330.164 1.98904 5.77824 0
M  V30 3617 C 331.162 2.8629 6.20103 0
M  V30 3618 O 330.85 3.90708 7.02568 0
M  V30 3619 H 330.582 0.00576308 0.675975 0
M  V30 3620 H 333.136 0.664662 1.94349 0
M  V30 3621 H 331.366 -1.21817 3.67012 0
M  V30 3622 H 333.055 -0.911422 3.95535 0
M  V30 3623 H 333.821 1.48196 4.61804 0
M  V30 3624 H 329.7 0.25584 4.6029 0
M  V30 3625 H 333.244 3.35992 6.11355 0
M  V30 3626 H 329.141 2.12541 6.09505 0
M  V30 3627 H 329.909 3.87751 7.20827 0
M  V30 3628 N 332.573 -1.56217 0.208337 0
M  V30 3629 C 333.801 -2.02337 -0.43215 0
M  V30 3630 C 334.216 -1.08834 -1.54275 0
M  V30 3631 O 333.573 -0.0955462 -1.8225 0
M  V30 3632 C 333.624 -3.48072 -0.976138 0
M  V30 3633 O 333.345 -4.38007 0.0901621 0
M  V30 3634 C 334.846 -4.09773 -1.69119 0
M  V30 3635 H 332.066 -0.662385 -0.10718 0
M  V30 3636 H 334.61 -2.01966 0.320923 0
M  V30 3637 H 332.765 -3.49099 -1.67954 0
M  V30 3638 H 333.179 -5.23543 -0.316701 0
M  V30 3639 H 334.653 -5.13556 -2.02397 0
M  V30 3640 H 335.13 -3.53999 -2.59964 0
M  V30 3641 H 335.736 -4.12556 -1.03332 0
M  V30 3642 N 334.051 0.0651679 -1.57465 0
M  V30 3643 C 335.297 0.758912 -1.88712 0
M  V30 3644 C 335.652 1.7485 -0.802819 0
M  V30 3645 O 334.945 1.90632 0.192359 0
M  V30 3646 C 335.139 1.50081 -3.24362 0
M  V30 3647 C 334.968 0.584579 -4.45884 0
M  V30 3648 C 333.738 0.219039 -5.04825 0
M  V30 3649 C 335.936 -0.121559 -5.14156 0
M  V30 3650 N 333.918 -0.702222 -6.09871 0
M  V30 3651 C 335.289 -0.899767 -6.13436 0
M  V30 3652 C 337.344 -0.192331 -4.97528 0
M  V30 3653 C 336.047 -1.74218 -6.97883 0
M  V30 3654 C 338.073 -1.02174 -5.82507 0
M  V30 3655 C 337.435 -1.78798 -6.8133 0
M  V30 3656 H 333.534 0.25293 -0.739967 0
M  V30 3657 H 336.118 0.0201744 -1.9469 0
M  V30 3658 H 334.289 2.21023 -3.1938 0
M  V30 3659 H 336.021 2.14409 -3.43236 0
M  V30 3660 H 332.776 0.57336 -4.70117 0
M  V30 3661 H 333.2 -1.15629 -6.67052 0
M  V30 3662 H 337.842 0.385741 -4.21037 0
M  V30 3663 H 335.56 -2.3312 -7.73745 0
M  V30 3664 H 339.146 -1.07957 -5.71696 0
M  V30 3665 H 338.026 -2.41942 -7.45945 0
M  V30 3666 N 335.529 1.53961 0.336706 0
M  V30 3667 C 336.757 1.75483 1.09605 0
M  V30 3668 C 337.172 0.4972 1.82136 0
M  V30 3669 O 336.529 -0.53149 1.74589 0
M  V30 3670 C 336.58 2.93943 2.10428 0
M  V30 3671 O 336.301 4.14842 1.40846 0
M  V30 3672 C 337.802 3.27571 2.98684 0
M  V30 3673 H 335.022 0.586166 0.326574 0
M  V30 3674 H 337.566 2.00808 0.38683 0
M  V30 3675 H 335.721 2.70929 2.76905 0
M  V30 3676 H 336.135 4.81383 2.08255 0
M  V30 3677 H 337.609 4.13791 3.6535 0
M  V30 3678 H 338.086 2.44168 3.65074 0
M  V30 3679 H 338.692 3.52615 2.37787 0
M  V30 3680 N 337.007 -0.598083 1.45811 0
M  V30 3681 C 337.954 -1.7082 1.55207 0
M  V30 3682 C 338.924 -1.61278 0.39732 0
M  V30 3683 O 340.109 -1.80717 0.612038 0
M  V30 3684 C 337.249 -3.09144 1.53376 0
M  V30 3685 C 336.362 -3.29423 2.79472 0
M  V30 3686 C 335.497 -4.57907 2.69248 0
M  V30 3687 C 334.536 -4.71476 3.90354 0
M  V30 3688 N 333.673 -5.9127 3.78608 0
M  V30 3689 H 338.513 -1.62125 2.50039 0
M  V30 3690 H 336.05 -0.790389 1.24062 0
M  V30 3691 H 338.008 -3.89186 1.50301 0
M  V30 3692 H 336.638 -3.16773 0.620876 0
M  V30 3693 H 335.69 -2.43091 2.92594 0
M  V30 3694 H 337.002 -3.3532 3.69272 0
M  V30 3695 H 336.156 -5.46157 2.64192 0
M  V30 3696 H 334.895 -4.54423 1.77063 0
M  V30 3697 H 333.9 -3.81648 3.95759 0
M  V30 3698 H 335.125 -4.76751 4.83617 0
M  V30 3699 H 333.071 -5.88813 2.89199 0
M  V30 3700 H 332.988 -5.98369 4.6205 0
M  V30 3701 H 334.256 -6.81992 3.77501 0
M  V30 3702 N 338.485 -1.33259 -0.841409 0
M  V30 3703 C 339.71 -1.2775 -1.63385 0
M  V30 3704 C 340.135 0.149188 -1.87507 0
M  V30 3705 O 339.493 1.10498 -1.43736 0
M  V30 3706 C 339.541 -2.05571 -2.96265 0
M  V30 3707 O 338.645 -1.41257 -3.87453 0
M  V30 3708 H 337.986 -0.439627 -0.497618 0
M  V30 3709 H 340.516 -1.75782 -1.04699 0
M  V30 3710 H 340.526 -2.16241 -3.45982 0
M  V30 3711 H 339.201 -3.09309 -2.7803 0
M  V30 3712 H 337.778 -1.39217 -3.45938 0
M  V30 3713 N 339.963 1.05934 -1.16686 0
M  V30 3714 C 341.379 1.30938 -0.912542 0
M  V30 3715 C 341.579 1.96803 0.432533 0
M  V30 3716 O 340.635 2.23693 1.17123 0
M  V30 3717 C 341.948 2.18649 -2.06429 0
M  V30 3718 C 343.496 2.32055 -2.10047 0
M  V30 3719 C 343.971 3.23122 -3.24586 0
M  V30 3720 N 345.462 3.30706 -3.24327 0
M  V30 3721 C 346.197 4.01273 -4.09594 0
M  V30 3722 N 345.693 4.74332 -5.04956 0
M  V30 3723 N 347.486 3.97361 -3.97569 0
M  V30 3724 H 339.637 0.615777 -2.03278 0
M  V30 3725 H 341.9 0.334077 -0.887185 0
M  V30 3726 H 341.606 1.77534 -3.03603 0
M  V30 3727 H 341.48 3.19252 -2.00894 0
M  V30 3728 H 343.867 2.72415 -1.13464 0
M  V30 3729 H 343.948 1.31107 -2.19647 0
M  V30 3730 H 343.592 2.83477 -4.2143 0
M  V30 3731 H 343.522 4.24057 -3.12223 0
M  V30 3732 H 346.013 2.78644 -2.55276 0
M  V30 3733 H 346.326 5.25716 -5.6643 0
M  V30 3734 H 344.671 4.733 -5.08933 0
M  V30 3735 H 347.862 3.39405 -3.22369 0
M  V30 3736 H 348.035 4.52089 -4.64241 0
M  V30 3737 N 341.441 0.965919 1.2453 0
M  V30 3738 C 342.688 0.626831 1.92554 0
M  V30 3739 C 343.016 -0.837739 1.75534 0
M  V30 3740 O 342.271 -1.61793 1.10098 0
M  V30 3741 C 342.57 0.945428 3.44669 0
M  V30 3742 C 342.236 2.39785 3.81856 0
M  V30 3743 C 340.898 2.79483 3.91718 0
M  V30 3744 C 343.25 3.34055 4.00071 0
M  V30 3745 C 340.578 4.12496 4.1721 0
M  V30 3746 C 342.93 4.66694 4.27059 0
M  V30 3747 C 341.594 5.06172 4.3514 0
M  V30 3748 H 340.864 0.229374 0.704605 0
M  V30 3749 H 343.511 1.21707 1.4785 0
M  V30 3750 H 341.816 0.272926 3.90848 0
M  V30 3751 H 343.513 0.661484 3.95507 0
M  V30 3752 H 340.103 2.08003 3.74743 0
M  V30 3753 H 344.287 3.04571 3.91855 0
M  V30 3754 H 339.543 4.42709 4.21685 0
M  V30 3755 H 343.717 5.3971 4.40097 0
M  V30 3756 H 341.344 6.09262 4.54646 0
M  V30 3757 N 342.919 -1.39368 0.735821 0
M  V30 3758 C 344.165 -2.01272 0.293439 0
M  V30 3759 C 344.52 -1.57344 -1.10728 0
M  V30 3760 O 343.813 -0.792744 -1.74431 0
M  V30 3761 C 344.007 -3.5583 0.334651 0
M  V30 3762 C 343.836 -4.14764 1.73784 0
M  V30 3763 C 342.606 -4.47315 2.35026 0
M  V30 3764 C 344.804 -4.38246 2.69157 0
M  V30 3765 N 342.786 -4.91756 3.6749 0
M  V30 3766 C 344.157 -4.849 3.86357 0
M  V30 3767 C 346.212 -4.20315 2.66908 0
M  V30 3768 C 344.915 -5.15505 5.01645 0
M  V30 3769 C 346.941 -4.52033 3.8134 0
M  V30 3770 C 346.303 -4.98895 4.97276 0
M  V30 3771 H 342.402 -0.766756 0.153652 0
M  V30 3772 H 344.986 -1.69276 0.961967 0
M  V30 3773 H 343.157 -3.87212 -0.303527 0
M  V30 3774 H 344.889 -4.04503 -0.126358 0
M  V30 3775 H 341.644 -4.35143 1.86943 0
M  V30 3776 H 342.068 -5.18333 4.35499 0
M  V30 3777 H 346.71 -3.83287 1.78468 0
M  V30 3778 H 344.428 -5.51437 5.90713 0
M  V30 3779 H 348.014 -4.39781 3.80899 0
M  V30 3780 H 346.894 -5.22973 5.84353 0
M  V30 3781 N 344.397 -0.483516 -1.5 0
M  V30 3782 C 345.813 -0.138404 -1.58999 0
M  V30 3783 C 346.013 1.35597 -1.4905 0
M  V30 3784 O 345.069 2.13039 -1.35539 0
M  V30 3785 C 346.382 -0.699658 -2.92447 0
M  V30 3786 C 347.93 -0.664195 -3.05872 0
M  V30 3787 C 348.405 -1.20321 -4.41913 0
M  V30 3788 N 349.896 -1.16315 -4.48358 0
M  V30 3789 C 350.631 -1.55058 -5.52037 0
M  V30 3790 N 350.127 -2.01311 -6.62907 0
M  V30 3791 N 351.92 -1.46584 -5.42651 0
M  V30 3792 H 344.071 -1.45529 -1.5471 0
M  V30 3793 H 346.334 -0.60258 -0.731848 0
M  V30 3794 H 346.04 -1.747 -3.05242 0
M  V30 3795 H 345.914 -0.150194 -3.76901 0
M  V30 3796 H 348.301 0.374272 -2.92717 0
M  V30 3797 H 348.382 -1.25061 -2.23144 0
M  V30 3798 H 348.026 -2.24037 -4.55818 0
M  V30 3799 H 347.956 -0.592896 -5.23252 0
M  V30 3800 H 350.447 -0.824058 -3.68806 0
M  V30 3801 H 350.76 -2.2899 -7.38095 0
M  V30 3802 H 349.105 -2.05273 -6.63994 0
M  V30 3803 H 352.296 -1.10281 -4.54924 0
M  V30 3804 H 352.469 -1.77103 -6.23329 0
M  V30 3805 N 345.875 1.56104 -0.216619 0
M  V30 3806 C 346.822 2.2007 0.695531 0
M  V30 3807 C 347.792 1.15471 1.19397 0
M  V30 3808 O 348.977 1.43807 1.25396 0
M  V30 3809 C 346.117 2.88073 1.90021 0
M  V30 3810 C 345.23 4.07253 1.44113 0
M  V30 3811 C 344.365 4.63052 2.603 0
M  V30 3812 C 343.404 5.74545 2.11103 0
M  V30 3813 N 342.541 6.24656 3.20545 0
M  V30 3814 H 347.381 2.97655 0.143327 0
M  V30 3815 H 344.918 1.46982 0.0589934 0
M  V30 3816 H 346.876 3.25681 2.60745 0
M  V30 3817 H 345.506 2.13015 2.42538 0
M  V30 3818 H 344.558 3.75164 0.628999 0
M  V30 3819 H 345.87 4.8783 1.04036 0
M  V30 3820 H 345.024 5.03078 3.39113 0
M  V30 3821 H 343.763 3.81628 3.03663 0
M  V30 3822 H 342.768 5.34027 1.3075 0
M  V30 3823 H 343.993 6.57801 1.68746 0
M  V30 3824 H 341.939 5.46148 3.63399 0
M  V30 3825 H 341.856 7.00343 2.84704 0
M  V30 3826 H 343.124 6.69338 3.99508 0
M  V30 3827 N 347.353 -0.0568162 1.57498 0
M  V30 3828 C 348.581 -0.765626 1.92213 0
M  V30 3829 C 348.996 -1.70353 0.813961 0
M  V30 3830 O 348.353 -1.81268 -0.211701 0
M  V30 3831 C 348.404 -1.5465 3.2675 0
M  V30 3832 O 348.125 -0.646278 4.33307 0
M  V30 3833 C 349.626 -2.35497 3.75574 0
M  V30 3834 H 346.846 -0.216835 0.634999 0
M  V30 3835 H 349.39 -0.0226146 2.04487 0
M  V30 3836 H 347.545 -2.24165 3.15957 0
M  V30 3837 H 347.959 -1.19093 5.108 0
M  V30 3838 H 349.433 -2.85722 4.72299 0
M  V30 3839 H 349.91 -3.15692 3.05344 0
M  V30 3840 H 350.516 -1.7111 3.8936 0
M  V30 3841 N 348.832 -1.54138 -0.328536 0
M  V30 3842 C 350.248 -1.44736 -0.672574 0
M  V30 3843 C 350.448 -0.616217 -1.91846 0
M  V30 3844 O 349.504 -0.113067 -2.52247 0
M  V30 3845 C 350.817 -2.884 -0.851217 0
M  V30 3846 C 352.365 -2.98271 -0.948877 0
M  V30 3847 C 352.84 -4.43074 -1.15973 0
M  V30 3848 N 354.331 -4.46665 -1.22658 0
M  V30 3849 C 355.066 -5.55857 -1.40751 0
M  V30 3850 N 354.562 -6.75026 -1.5592 0
M  V30 3851 N 356.355 -5.43495 -1.4342 0
M  V30 3852 H 348.506 -2.06661 0.490421 0
M  V30 3853 H 350.769 -0.934812 0.157579 0
M  V30 3854 H 350.475 -3.51699 -0.00704236 0
M  V30 3855 H 350.349 -3.34225 -1.74853 0
M  V30 3856 H 352.736 -2.35102 -1.78356 0
M  V30 3857 H 352.817 -2.55785 -0.0281435 0
M  V30 3858 H 352.461 -5.06827 -0.329915 0
M  V30 3859 H 352.391 -4.83165 -2.09426 0
M  V30 3860 H 354.882 -3.60797 -1.124 0
M  V30 3861 H 355.195 -7.54004 -1.69404 0
M  V30 3862 H 353.54 -6.77944 -1.53027 0
M  V30 3863 H 356.731 -4.49349 -1.31162 0
M  V30 3864 H 356.904 -6.28649 -1.57178 0
M  V30 3865 N 350.31 0.590341 -1.46126 0
M  V30 3866 C 351.535 1.37991 -1.54833 0
M  V30 3867 C 351.96 1.87163 -0.187506 0
M  V30 3868 O 351.318 1.61133 0.831008 0
M  V30 3869 C 351.366 2.54867 -2.55098 0
M  V30 3870 O 350.47 3.56061 -2.08073 0
M  V30 3871 H 349.811 0.411265 -0.521303 0
M  V30 3872 H 352.341 0.716819 -1.91632 0
M  V30 3873 H 352.351 3.01886 -2.74461 0
M  V30 3874 H 351.026 2.18429 -3.53923 0
M  V30 3875 H 349.603 3.15574 -1.98664 0
M  V30 3876 N 351.788 1.33704 0.83433 0
M  V30 3877 C 353.016 1.28467 1.62185 0
M  V30 3878 C 353.431 -0.143526 1.88254 0
M  V30 3879 O 352.788 -1.08709 1.4659 0
M  V30 3880 C 352.839 2.06174 2.96942 0
M  V30 3881 O 352.56 3.43422 2.72016 0
M  V30 3882 C 354.061 2.08201 3.91366 0
M  V30 3883 H 351.281 0.4424 0.504503 0
M  V30 3884 H 353.825 1.76145 1.03891 0
M  V30 3885 H 351.98 1.62167 3.51825 0
M  V30 3886 H 352.394 3.83453 3.57861 0
M  V30 3887 H 353.868 2.67017 4.83121 0
M  V30 3888 H 354.345 1.07343 4.2588 0
M  V30 3889 H 354.951 2.52246 3.42421 0
M  V30 3890 N 353.266 -1.05314 1.17247 0
M  V30 3891 C 354.216 -2.11313 0.856196 0
M  V30 3892 C 355.2 -1.60013 -0.168694 0
M  V30 3893 O 356.392 -1.76968 0.0335624 0
M  V30 3894 C 353.521 -3.41301 0.369917 0
M  V30 3895 C 352.607 -3.99401 1.42616 0
M  V30 3896 N 352.998 -4.31481 2.63928 0
M  V30 3897 C 351.296 -4.27126 1.28373 0
M  V30 3898 C 351.997 -4.77799 3.31787 0
M  V30 3899 N 350.973 -4.77843 2.59166 0
M  V30 3900 H 354.775 -2.33976 1.77856 0
M  V30 3901 H 352.289 -1.2295 1.06099 0
M  V30 3902 H 354.286 -4.16713 0.124897 0
M  V30 3903 H 352.946 -3.20072 -0.546253 0
M  V30 3904 H 353.957 -4.21519 3.00902 0
M  V30 3905 H 350.634 -4.15289 0.429111 0
M  V30 3906 H 352.024 -5.11743 4.35395 0
M  V30 3907 N 354.744 -0.972509 -1.24016 0
M  V30 3908 C 355.972 -0.654803 -1.96265 0
M  V30 3909 C 356.387 0.776708 -1.72083 0
M  V30 3910 O 355.744 1.52171 -1.00748 0
M  V30 3911 C 355.795 -0.92592 -3.49441 0
M  V30 3912 O 355.516 -2.30116 -3.72798 0
M  V30 3913 C 357.017 -0.623068 -4.38899 0
M  V30 3914 H 354.237 -0.243907 -0.6251 0
M  V30 3915 H 356.781 -1.30175 -1.57717 0
M  V30 3916 H 354.936 -0.325108 -3.86033 0
M  V30 3917 H 355.35 -2.38483 -4.67147 0
M  V30 3918 H 356.824 -0.863189 -5.45209 0
M  V30 3919 H 357.301 0.442754 -4.36963 0
M  V30 3920 H 357.907 -1.204 -4.07902 0
M  V30 3921 N 356.222 1.38976 -0.743202 0
M  V30 3922 C 357.47 1.99948 -0.29417 0
M  V30 3923 C 357.791 1.59279 1.12495 0
M  V30 3924 O 357.061 0.844808 1.76748 0
M  V30 3925 H 355.641 0.739473 -0.105774 0
M  V30 3926 H 358.303 1.699 -0.954986 0
M  V30 3927 H 357.399 3.10142 -0.349056 0
M  V30 3928 N 357.7 0.491464 1.49741 0
M  V30 3929 C 358.925 -0.0557177 2.07325 0
M  V30 3930 C 359.35 -1.30925 1.35056 0
M  V30 3931 O 358.708 -1.76733 0.404365 0
M  V30 3932 C 358.756 -0.302074 3.59333 0
M  V30 3933 O 357.86 -1.37868 3.88672 0
M  V30 3934 H 357.201 0.0219956 0.663636 0
M  V30 3935 H 359.731 0.688352 1.92673 0
M  V30 3936 H 359.741 -0.536464 4.04458 0
M  V30 3937 H 358.416 0.61383 4.11345 0
M  V30 3938 H 356.993 -1.12999 3.55367 0
M  V30 3939 N 359.178 -1.55987 0.224894 0
M  V30 3940 C 360.403 -2.03232 -0.41369 0
M  V30 3941 C 360.828 -1.10359 -1.52323 0
M  V30 3942 O 360.186 -0.092395 -1.81064 0
M  V30 3943 C 360.234 -3.48682 -0.919405 0
M  V30 3944 O 359.338 -3.58947 -2.03054 0
M  V30 3945 H 358.679 -0.657428 -0.0931903 0
M  V30 3946 H 361.209 -2.01679 0.34451 0
M  V30 3947 H 361.219 -3.8907 -1.22835 0
M  V30 3948 H 359.894 -4.15761 -0.107339 0
M  V30 3949 H 358.471 -3.30448 -1.72796 0
M  V30 3950 N 360.656 0.0484629 -1.57525 0
M  V30 3951 C 361.896 0.748196 -1.90214 0
M  V30 3952 C 362.26 1.73545 -0.821347 0
M  V30 3953 O 363.461 2.48201 -1.03198 0
M  V30 3954 C 361.732 1.41727 -3.28098 0
M  V30 3955 S 363.291 2.14884 -3.82584 0
M  V30 3956 H 360.109 0.248307 -0.666232 0
M  V30 3957 H 362.711 0.00343188 -1.955 0
M  V30 3958 H 361.415 0.685244 -4.04639 0
M  V30 3959 H 360.946 2.20099 -3.26068 0
M  V30 3960 H 362.961 3.41755 -3.59747 0
M  V30 3961 N 362.134 1.5431 0.320358 0
M  V30 3962 C 363.383 1.7188 1.05546 0
M  V30 3963 C 363.696 0.501143 1.89071 0
M  V30 3964 O 364.902 0.558258 2.65699 0
M  V30 3965 C 363.358 3.04025 1.92605 0
M  V30 3966 C 362.966 4.33207 1.14176 0
M  V30 3967 C 364.71 3.30959 2.65832 0
M  V30 3968 C 362.617 5.56412 2.00399 0
M  V30 3969 H 361.547 0.640547 0.397763 0
M  V30 3970 H 364.198 1.80802 0.313522 0
M  V30 3971 H 362.58 2.89019 2.7071 0
M  V30 3972 H 363.754 4.58989 0.40819 0
M  V30 3973 H 362.069 4.13062 0.526165 0
M  V30 3974 H 364.666 4.20203 3.30656 0
M  V30 3975 H 365.009 2.48979 3.33639 0
M  V30 3976 H 365.542 3.46847 1.94787 0
M  V30 3977 H 362.281 6.41004 1.37094 0
M  V30 3978 H 361.801 5.34844 2.7148 0
M  V30 3979 H 363.48 5.92938 2.58908 0
M  V30 3980 N 363.613 -0.582584 1.46437 0
M  V30 3981 C 364.861 -1.33814 1.51453 0
M  V30 3982 C 365.182 -1.94277 0.167792 0
M  V30 3983 O 364.452 -1.78566 -0.805677 0
M  V30 3984 H 363.032 -0.496838 0.557818 0
M  V30 3985 H 365.694 -0.682281 1.82568 0
M  V30 3986 H 364.79 -2.14479 2.26728 0
M  V30 3987 N 365.091 -1.34144 -0.827227 0
M  V30 3988 C 366.319 -1.29325 -1.61501 0
M  V30 3989 C 366.734 0.13354 -1.88327 0
M  V30 3990 O 366.091 1.0793 -1.47164 0
M  V30 3991 C 366.142 -2.07746 -2.95844 0
M  V30 3992 O 365.863 -3.4486 -2.70191 0
M  V30 3993 C 367.364 -2.10273 -3.90256 0
M  V30 3994 H 364.584 -0.445069 -0.50215 0
M  V30 3995 H 367.128 -1.76693 -1.02955 0
M  V30 3996 H 365.283 -1.6403 -3.5096 0
M  V30 3997 H 365.697 -3.85345 -3.55822 0
M  V30 3998 H 367.171 -2.69575 -4.81698 0
M  V30 3999 H 367.648 -1.096 -4.25305 0
M  V30 4000 H 368.254 -2.54059 -3.41078 0
M  V30 4001 N 366.569 1.04691 -1.17803 0
M  V30 4002 C 367.846 1.7472 -0.879328 0
M  V30 4003 C 368.226 2.01812 0.619271 0
M  V30 4004 O 367.574 1.65824 1.57209 0
M  V30 4005 C 367.784 3.03686 -1.71976 0
M  V30 4006 C 369.132 3.77542 -1.94286 0
M  V30 4007 O 370.156 3.13569 -1.68976 0
M  V30 4008 O 369.015 4.92506 -2.36855 0
M  V30 4009 H 366.109 0.760011 -0.326056 0
M  V30 4010 H 368.655 1.10813 -1.28525 0
M  V30 4011 H 367.427 2.79754 -2.73594 0
M  V30 4012 H 367.05 3.75332 -1.31194 0
M  V30 4013 N 368.047 0.979072 1.23499 0
M  V30 4014 C 369.458 0.684391 1.73704 0
M  V30 4015 C 369.809 -0.799448 1.79174 0
M  V30 4016 O 368.934 -1.62531 1.42873 0
M  V30 4017 C 369.529 1.23564 3.15464 0
M  V30 4018 C 368.088 0.99063 3.6313 0
M  V30 4019 C 367.235 1.36416 2.41425 0
M  V30 4020 H 370.186 1.15307 1.09041 0
M  V30 4021 H 370.207 0.607417 3.7562 0
M  V30 4022 H 369.719 2.31561 3.1145 0
M  V30 4023 H 367.82 -0.0733136 3.72528 0
M  V30 4024 H 367.933 1.64427 4.5 0
M  V30 4025 H 366.297 0.782616 2.42378 0
M  V30 4026 H 367.08 2.45387 2.40083 0
M  V30 4027 N 369.525 -1.3858 0.750561 0
M  V30 4028 C 370.473 -2.32339 0.110162 0
M  V30 4029 C 371.467 -1.53864 -0.708674 0
M  V30 4030 O 372.673 -1.69417 -0.608112 0
M  V30 4031 H 369.048 -0.751812 0.0168275 0
M  V30 4032 H 371.019 -2.83959 0.917053 0
M  V30 4033 C 369.768 -3.39043 -0.771067 0
M  V30 4034 H 369.091 -3.99517 -0.150374 0
M  V30 4035 H 370.531 -4.07061 -1.1865 0
M  V30 4036 C 368.99 -2.77365 -1.91234 0
M  V30 4037 O 369.52 -2.66434 -3.00626 0
M  V30 4038 N 367.726 -2.35219 -1.70646 0
M  V30 4039 H 367.273 -2.4431 -0.81673 0
M  V30 4040 H 367.231 -1.94294 -2.47178 0
M  V30 4041 N 371.003 -0.499398 -1.49478 0
M  V30 4042 C 372.419 -0.155261 -1.58843 0
M  V30 4043 C 372.619 1.34008 -1.50479 0
M  V30 4044 O 371.675 2.11589 -1.37791 0
M  V30 4045 C 372.988 -0.730636 -2.91689 0
M  V30 4046 C 374.536 -0.696599 -3.0515 0
M  V30 4047 C 375.011 -1.25001 -4.40612 0
M  V30 4048 N 376.502 -1.21064 -4.47099 0
M  V30 4049 C 377.237 -1.60905 -5.50361 0
M  V30 4050 N 376.733 -2.08331 -6.60735 0
M  V30 4051 N 378.526 -1.52331 -5.41065 0
M  V30 4052 H 370.677 -1.47162 -1.53158 0
M  V30 4053 H 372.94 -0.610309 -0.725415 0
M  V30 4054 H 372.646 -1.77928 -3.03372 0
M  V30 4055 H 372.52 -0.190161 -3.7672 0
M  V30 4056 H 374.907 0.343204 -2.93097 0
M  V30 4057 H 374.988 -1.2742 -2.21806 0
M  V30 4058 H 374.632 -2.28859 -4.53416 0
M  V30 4059 H 374.562 -0.64836 -5.22593 0
M  V30 4060 H 377.053 -0.863128 -3.67911 0
M  V30 4061 H 377.366 -2.36805 -7.35624 0
M  V30 4062 H 375.711 -2.12304 -6.6178 0
M  V30 4063 H 378.902 -1.151 -4.53729 0
M  V30 4064 H 379.075 -1.83704 -6.21415 0
M  V30 4065 N 372.481 1.55866 -0.233164 0
M  V30 4066 C 373.429 2.22176 0.68851 0
M  V30 4067 C 374.423 1.20487 1.19076 0
M  V30 4068 O 375.629 1.38536 1.14925 0
M  V30 4069 H 372.004 0.712511 0.240483 0
M  V30 4070 H 373.975 2.98212 0.105935 0
M  V30 4071 C 372.724 2.92446 1.88071 0
M  V30 4072 H 372.047 3.70458 1.50337 0
M  V30 4073 H 373.487 3.42226 2.50314 0
M  V30 4074 C 371.946 1.95555 2.74335 0
M  V30 4075 O 372.476 1.47986 3.73447 0
M  V30 4076 N 370.682 1.62953 2.40613 0
M  V30 4077 H 370.229 2.01831 1.60069 0
M  V30 4078 H 370.187 0.983886 2.98609 0
M  V30 4079 N 373.959 -0.0401083 1.57549 0
M  V30 4080 C 375.206 -0.733125 1.88763 0
M  V30 4081 C 375.534 -1.75946 0.829058 0
M  V30 4082 O 374.789 -1.94949 -0.171323 0
M  V30 4083 C 375.088 -1.44902 3.26708 0
M  V30 4084 C 374.754 -0.559707 4.47413 0
M  V30 4085 C 373.416 -0.314731 4.8017 0
M  V30 4086 C 375.768 0.0549743 5.21171 0
M  V30 4087 C 373.096 0.553886 5.8408 0
M  V30 4088 C 375.448 0.911229 6.26003 0
M  V30 4089 C 374.112 1.16577 6.57241 0
M  V30 4090 H 373.382 -0.268269 0.690733 0
M  V30 4091 H 376.029 0.00679408 1.91499 0
M  V30 4092 H 374.334 -2.26197 3.1991 0
M  V30 4093 H 376.031 -1.99058 3.48105 0
M  V30 4094 H 372.621 -0.760793 4.21794 0
M  V30 4095 H 376.805 -0.121344 4.96152 0
M  V30 4096 H 372.061 0.759518 6.06664 0
M  V30 4097 H 376.235 1.3941 6.82303 0
M  V30 4098 H 373.862 1.84058 7.37582 0
M  V30 4099 N 375.437 -1.54477 -0.31217 0
M  V30 4100 C 376.714 -1.63891 -1.06767 0
M  V30 4101 C 377.094 -0.480028 -2.0557 0
M  V30 4102 O 376.442 0.524487 -2.22399 0
M  V30 4103 C 376.652 -3.01402 -1.75948 0
M  V30 4104 C 378 -3.57838 -2.28554 0
M  V30 4105 O 379.024 -3.03782 -1.85998 0
M  V30 4106 O 377.883 -4.52462 -3.06497 0
M  V30 4107 H 374.977 -0.664125 -0.492816 0
M  V30 4108 H 377.523 -1.66823 -0.311149 0
M  V30 4109 H 376.295 -3.77187 -1.04144 0
M  V30 4110 H 375.918 -3.02199 -2.58383 0
M  V30 4111 N 376.915 0.57481 -1.46744 0
M  V30 4112 C 377.878 1.66533 -1.57478 0
M  V30 4113 C 378.878 1.54338 -0.451263 0
M  V30 4114 O 380.068 1.58814 -0.715813 0
M  V30 4115 C 377.2 3.05999 -1.50259 0
M  V30 4116 H 378.393 1.58372 -2.54673 0
M  V30 4117 H 375.946 0.793301 -1.34672 0
M  V30 4118 H 376.681 3.19709 -0.543725 0
M  V30 4119 H 376.466 3.16259 -2.31781 0
M  V30 4120 H 377.956 3.8537 -1.60872 0
M  V30 4121 N 378.394 1.34581 0.820102 0
M  V30 4122 C 379.642 1.26845 1.57336 0
M  V30 4123 C 379.963 -0.160667 1.94337 0
M  V30 4124 O 379.233 -1.09396 1.6251 0
M  V30 4125 H 377.813 0.466514 0.583415 0
M  V30 4126 H 380.475 1.68526 0.979027 0
M  V30 4127 H 379.571 1.87513 2.4949 0
M  V30 4128 N 379.872 -1.04064 1.18357 0
M  V30 4129 C 381.118 -1.77658 0.990412 0
M  V30 4130 C 381.473 -1.86446 -0.474944 0
M  V30 4131 O 380.766 -1.36153 -1.34807 0
M  V30 4132 C 380.96 -3.20634 1.57888 0
M  V30 4133 C 380.789 -3.25782 3.09994 0
M  V30 4134 C 379.559 -3.34411 3.7881 0
M  V30 4135 C 381.757 -3.13791 4.0748 0
M  V30 4136 N 379.739 -3.28809 5.18418 0
M  V30 4137 C 381.11 -3.15689 5.33611 0
M  V30 4138 C 383.165 -2.97833 3.98998 0
M  V30 4139 C 381.868 -3.03268 6.52243 0
M  V30 4140 C 383.894 -2.86759 5.17227 0
M  V30 4141 C 383.256 -2.893 6.4225 0
M  V30 4142 H 379.355 -0.661901 0.416427 0
M  V30 4143 H 381.939 -1.23968 1.50133 0
M  V30 4144 H 380.11 -3.7267 1.09414 0
M  V30 4145 H 381.842 -3.82525 1.32124 0
M  V30 4146 H 378.597 -3.40144 3.29543 0
M  V30 4147 H 379.021 -3.29448 5.91433 0
M  V30 4148 H 383.663 -2.94698 3.03171 0
M  V30 4149 H 381.381 -3.05156 7.48268 0
M  V30 4150 H 384.967 -2.75465 5.12455 0
M  V30 4151 H 383.847 -2.80818 7.32196 0
M  V30 4152 N 381.35 -0.985608 -1.22978 0
M  V30 4153 C 382.59 -0.665487 -1.93263 0
M  V30 4154 C 382.954 0.78706 -1.75127 0
M  V30 4155 O 384.155 1.21826 -2.39608 0
M  V30 4156 C 382.426 -1.0515 -3.41582 0
M  V30 4157 S 383.985 -0.848637 -4.30516 0
M  V30 4158 H 380.803 -0.24355 -0.667985 0
M  V30 4159 H 383.405 -1.26635 -1.48942 0
M  V30 4160 H 382.109 -2.10517 -3.52293 0
M  V30 4161 H 381.64 -0.442134 -3.90908 0
M  V30 4162 H 383.655 0.264717 -4.95493 0
M  V30 4163 N 382.828 1.3818 -0.7579 0
M  V30 4164 C 383.738 2.3421 -0.135247 0
M  V30 4165 C 384.754 1.59487 0.695683 0
M  V30 4166 O 385.93 1.91657 0.618832 0
M  V30 4167 C 382.995 3.3862 0.744139 0
M  V30 4168 C 382.056 4.2918 -0.101658 0
M  V30 4169 C 381.289 5.28603 0.735851 0
M  V30 4170 O 381.512 5.35166 1.97366 0
M  V30 4171 O 380.446 6.01707 0.152372 0
M  V30 4172 H 384.272 2.8916 -0.928436 0
M  V30 4173 H 381.857 1.40101 -0.518855 0
M  V30 4174 H 383.739 4.02539 1.2466 0
M  V30 4175 H 382.414 2.86019 1.51575 0
M  V30 4176 H 381.321 3.68407 -0.650167 0
M  V30 4177 H 382.654 4.85048 -0.836024 0
M  V30 4178 N 384.306 0.507319 1.49211 0
M  V30 4179 C 385.555 -0.0368315 2.01666 0
M  V30 4180 C 385.868 -1.37459 1.39156 0
M  V30 4181 O 387.074 -2.00579 1.82976 0
M  V30 4182 C 385.53 -0.116089 3.59713 0
M  V30 4183 C 385.138 1.2154 4.31198 0
M  V30 4184 C 386.882 -0.610268 4.2009 0
M  V30 4185 C 384.789 1.09796 5.81119 0
M  V30 4186 H 383.719 -0.0175376 0.753796 0
M  V30 4187 H 386.37 0.647691 1.71689 0
M  V30 4188 H 384.752 -0.8652 3.86433 0
M  V30 4189 H 385.926 1.9783 4.16173 0
M  V30 4190 H 384.241 1.64352 3.82593 0
M  V30 4191 H 386.838 -0.715742 5.29888 0
M  V30 4192 H 387.181 -1.61064 3.8388 0
M  V30 4193 H 387.714 0.0824916 3.97714 0
M  V30 4194 H 384.453 2.0728 6.21864 0
M  V30 4195 H 383.973 0.376058 5.9862 0
M  V30 4196 H 385.652 0.779281 6.4229 0
M  V30 4197 N 385.784 -1.5574 0.241426 0
M  V30 4198 C 387.032 -1.98417 -0.384075 0
M  V30 4199 C 387.353 -1.13078 -1.58866 0
M  V30 4200 O 386.623 -0.212312 -1.94746 0
M  V30 4201 H 385.203 -0.732813 -0.144894 0
M  V30 4202 H 387.865 -1.9193 0.338943 0
M  V30 4203 H 386.961 -3.04219 -0.696939 0
M  V30 4204 N 387.262 0.0317525 -1.57568 0
M  V30 4205 C 388.225 1.01783 -2.0536 0
M  V30 4206 C 389.225 1.29203 -0.957253 0
M  V30 4207 O 390.415 1.24251 -1.22095 0
M  V30 4208 C 387.547 2.35137 -2.46827 0
M  V30 4209 H 388.74 0.605062 -2.93733 0
M  V30 4210 H 386.293 0.278514 -1.53799 0
M  V30 4211 H 387.028 2.81168 -1.61602 0
M  V30 4212 H 386.813 2.16566 -3.26866 0
M  V30 4213 H 388.303 3.05938 -2.84239 0
M  V30 4214 N 388.74 1.54641 0.303973 0
M  V30 4215 C 389.965 1.78092 1.06292 0
M  V30 4216 C 390.39 0.537342 1.80262 0
M  V30 4217 O 389.748 -0.511993 1.7392 0
M  V30 4218 C 389.796 2.98612 2.02147 0
M  V30 4219 O 388.9 2.71528 3.10397 0
M  V30 4220 H 388.241 0.589548 0.305497 0
M  V30 4221 H 390.771 2.01716 0.3423 0
M  V30 4222 H 390.781 3.265 2.44667 0
M  V30 4223 H 389.456 3.88785 1.47714 0
M  V30 4224 H 388.033 2.54648 2.72413 0
M  V30 4225 N 390.218 -0.567019 1.47046 0
M  V30 4226 C 391.634 -0.891975 1.32348 0
M  V30 4227 C 391.834 -1.99154 0.306616 0
M  V30 4228 O 390.89 -2.50883 -0.28532 0
M  V30 4229 C 392.203 -1.29449 2.7141 0
M  V30 4230 C 393.751 -1.40646 2.79621 0
M  V30 4231 C 394.226 -1.84257 4.19301 0
M  V30 4232 N 395.717 -1.91424 4.21795 0
M  V30 4233 C 396.452 -2.26476 5.26779 0
M  V30 4234 N 395.948 -2.60211 6.42077 0
M  V30 4235 N 397.741 -2.27166 5.14152 0
M  V30 4236 H 389.892 0.159074 2.11803 0
M  V30 4237 H 392.155 0.00849752 0.947962 0
M  V30 4238 H 391.861 -0.560448 3.47206 0
M  V30 4239 H 391.735 -2.25273 3.02542 0
M  V30 4240 H 394.122 -2.13133 2.04104 0
M  V30 4241 H 394.203 -0.430339 2.52154 0
M  V30 4242 H 393.847 -1.12343 4.95319 0
M  V30 4243 H 393.777 -2.82855 4.44185 0
M  V30 4244 H 396.268 -1.6778 3.38612 0
M  V30 4245 H 396.581 -2.85956 7.17948 0
M  V30 4246 H 394.926 -2.57813 6.45413 0
M  V30 4247 H 398.117 -2.00244 4.23107 0
M  V30 4248 H 398.29 -2.54154 5.96079 0
M  V30 4249 N 391.696 -1.35014 -0.812953 0
M  V30 4250 C 392.644 -1.27435 -1.94585 0
M  V30 4251 C 393.638 -0.170494 -1.6854 0
M  V30 4252 O 394.844 -0.336085 -1.76835 0
M  V30 4253 H 391.219 -0.396144 -0.639198 0
M  V30 4254 H 393.19 -2.23158 -1.98098 0
M  V30 4255 C 391.939 -1.05677 -3.31252 0
M  V30 4256 H 391.262 -1.89853 -3.51846 0
M  V30 4257 H 392.702 -1.04413 -4.10943 0
M  V30 4258 C 391.161 0.239615 -3.36047 0
M  V30 4259 O 391.691 1.23759 -3.8216 0
M  V30 4260 N 389.897 0.276186 -2.89285 0
M  V30 4261 H 389.444 -0.53653 -2.51951 0
M  V30 4262 H 389.402 1.14332 -2.92875 0
M  V30 4263 N 393.175 1.03435 -1.18907 0
M  V30 4264 C 394.586 1.58195 -0.991523 0
M  V30 4265 C 394.937 1.90801 0.457081 0
M  V30 4266 O 394.062 1.70272 1.33553 0
M  V30 4267 C 394.657 2.87432 -1.79355 0
M  V30 4268 C 393.216 3.38785 -1.64017 0
M  V30 4269 C 392.363 2.12292 -1.78402 0
M  V30 4270 H 395.314 0.860299 -1.33359 0
M  V30 4271 H 395.335 3.58096 -1.28638 0
M  V30 4272 H 394.847 2.63669 -2.84781 0
M  V30 4273 H 392.948 3.67547 -0.611536 0
M  V30 4274 H 393.061 4.12186 -2.44212 0
M  V30 4275 H 391.425 2.23901 -1.2141 0
M  V30 4276 H 392.208 1.90977 -2.85277 0
M  V30 4277 N 394.653 0.992116 1.22453 0
M  V30 4278 C 395.893 0.675727 1.92907 0
M  V30 4279 C 396.257 -0.777762 1.75542 0
M  V30 4280 O 397.458 -1.20553 2.40251 0
M  V30 4281 C 395.729 1.0696 3.4102 0
M  V30 4282 S 397.288 0.871456 4.30059 0
M  V30 4283 H 394.106 0.247089 0.666684 0
M  V30 4284 H 396.708 1.27423 1.48269 0
M  V30 4285 H 395.412 2.12383 3.51172 0
M  V30 4286 H 394.943 0.462858 3.90668 0
M  V30 4287 H 396.958 -0.238436 4.95627 0
M  V30 4288 N 396.131 -1.37776 0.765217 0
M  V30 4289 C 397.408 -1.93975 0.251596 0
M  V30 4290 C 397.788 -1.69949 -1.25222 0
M  V30 4291 O 397.136 -1.04457 -2.03226 0
M  V30 4292 C 397.346 -3.43487 0.617895 0
M  V30 4293 C 398.694 -4.20564 0.584029 0
M  V30 4294 O 399.718 -3.5182 0.556888 0
M  V30 4295 O 398.577 -5.43138 0.605291 0
M  V30 4296 H 395.671 -0.82509 0.0561806 0
M  V30 4297 H 398.217 -1.47101 0.846128 0
M  V30 4298 H 396.989 -3.5453 1.65602 0
M  V30 4299 H 396.612 -3.976 -0.00403411 0
M  V30 4300 N 397.609 -0.515225 -1.4894 0
M  V30 4301 C 398.519 0.259774 -2.33157 0
M  V30 4302 C 399.535 0.953501 -1.45548 0
M  V30 4303 O 400.711 0.931735 -1.78552 0
M  V30 4304 C 397.776 1.30193 -3.21326 0
M  V30 4305 C 396.837 0.620129 -4.24797 0
M  V30 4306 C 396.07 1.61263 -5.08753 0
M  V30 4307 O 396.293 2.84389 -4.94448 0
M  V30 4308 O 395.227 1.16013 -5.90614 0
M  V30 4309 H 399.053 -0.429932 -3.00641 0
M  V30 4310 H 396.638 -0.276346 -1.46822 0
M  V30 4311 H 398.52 1.90455 -3.75905 0
M  V30 4312 H 397.195 1.97431 -2.56521 0
M  V30 4313 H 396.102 -0.0226019 -3.74093 0
M  V30 4314 H 397.435 -0.0100493 -4.92199 0
M  V30 4315 N 399.087 1.5561 -0.249682 0
M  V30 4316 C 400.315 2.03411 0.378352 0
M  V30 4317 C 400.73 1.12886 1.51335 0
M  V30 4318 O 400.087 0.143833 1.81932 0
M  V30 4319 C 400.138 3.50537 0.88351 0
M  V30 4320 O 399.859 4.37614 -0.20626 0
M  V30 4321 C 401.36 4.14113 1.58195 0
M  V30 4322 H 398.58 0.664994 0.08958 0
M  V30 4323 H 401.124 2.01044 -0.374357 0
M  V30 4324 H 399.279 3.5343 1.58639 0
M  V30 4325 H 399.693 5.24199 0.177782 0
M  V30 4326 H 401.167 5.18741 1.8871 0
M  V30 4327 H 401.644 3.60767 2.50487 0
M  V30 4328 H 402.25 4.15151 0.923573 0
M  V30 4329 N 400.565 -0.0233959 1.57583 0
M  V30 4330 C 401.795 -0.723631 1.93513 0
M  V30 4331 C 402.203 -1.69115 0.848333 0
M  V30 4332 O 401.546 -1.82781 -0.183484 0
M  V30 4333 C 401.608 -1.53075 3.25282 0
M  V30 4334 C 401.272 -0.727388 4.51174 0
M  V30 4335 C 402.269 -0.0251924 5.19894 0
M  V30 4336 C 399.954 -0.680256 4.97672 0
M  V30 4337 C 401.948 0.713374 6.33395 0
M  V30 4338 C 399.635 0.0620523 6.11068 0
M  V30 4339 C 400.633 0.757622 6.78785 0
M  V30 4340 O 400.321 1.48787 7.90011 0
M  V30 4341 H 400.053 -0.208051 0.643188 0
M  V30 4342 H 402.607 0.0167489 2.05393 0
M  V30 4343 H 400.837 -2.31508 3.09744 0
M  V30 4344 H 402.526 -2.11413 3.46496 0
M  V30 4345 H 403.292 -0.0526003 4.84971 0
M  V30 4346 H 399.171 -1.21116 4.44805 0
M  V30 4347 H 402.715 1.25683 6.86185 0
M  V30 4348 H 398.612 0.0913634 6.45435 0
M  V30 4349 H 399.38 1.40213 8.06401 0
M  V30 4350 N 402.043 -1.548 -0.295768 0
M  V30 4351 C 403.283 -1.76069 -1.03823 0
M  V30 4352 C 403.647 -0.537992 -1.84309 0
M  V30 4353 O 404.848 -0.628514 -2.61349 0
M  V30 4354 C 403.119 -3.01705 -1.91596 0
M  V30 4355 S 404.678 -3.43998 -2.72416 0
M  V30 4356 H 401.496 -0.618852 -0.350062 0
M  V30 4357 H 404.098 -1.93009 -0.31106 0
M  V30 4358 H 402.802 -3.88812 -1.31351 0
M  V30 4359 H 402.333 -2.87366 -2.68671 0
M  V30 4360 H 404.348 -3.0148 -3.94112 0
M  V30 4361 N 403.521 0.559213 -1.47345 0
M  V30 4362 C 404.769 1.31388 -1.53563 0
M  V30 4363 C 405.09 1.93985 -0.198678 0
M  V30 4364 O 404.36 1.79825 0.777167 0
M  V30 4365 H 402.94 0.487901 -0.565652 0
M  V30 4366 H 405.602 0.65315 -1.8363 0
M  V30 4367 H 404.698 2.10844 -2.30111 0
M  V30 4368 N 404.999 1.35443 0.805782 0
M  V30 4369 C 406.41 1.25768 1.37983 0
M  V30 4370 C 406.761 -0.10958 1.95894 0
M  V30 4371 O 405.886 -1.01056 1.91355 0
M  V30 4372 C 406.481 2.27727 2.5085 0
M  V30 4373 C 405.04 2.2179 3.04115 0
M  V30 4374 C 404.187 2.13393 1.77084 0
M  V30 4375 H 407.138 1.4656 0.608752 0
M  V30 4376 H 407.159 1.90422 3.29424 0
M  V30 4377 H 406.671 3.27227 2.08671 0
M  V30 4378 H 404.772 1.25703 3.50756 0
M  V30 4379 H 404.885 3.13788 3.62042 0
M  V30 4380 H 403.249 1.59384 1.98668 0
M  V30 4381 H 404.032 3.14755 1.37056 0
M  V30 4382 N 406.477 -1.02803 1.19454 0
M  V30 4383 C 407.44 -2.09264 0.934955 0
M  V30 4384 C 408.44 -1.60576 -0.0849015 0
M  V30 4385 O 409.63 -1.73554 0.149933 0
M  V30 4386 C 406.762 -3.38482 0.40531 0
M  V30 4387 H 407.955 -2.33726 1.87916 0
M  V30 4388 H 405.508 -1.19426 1.00832 0
M  V30 4389 H 406.243 -3.19689 -0.544899 0
M  V30 4390 H 406.028 -3.75142 1.14065 0
M  V30 4391 H 407.518 -4.16894 0.242806 0
M  V30 4392 N 407.956 -0.998596 -1.21925 0
M  V30 4393 C 408.919 -0.558679 -2.22287 0
M  V30 4394 C 409.919 0.361525 -1.56683 0
M  V30 4395 O 411.109 0.152695 -1.73529 0
M  V30 4396 C 408.241 0.18661 -3.40389 0
M  V30 4397 H 409.434 -1.4463 -2.62721 0
M  V30 4398 H 406.987 -0.786413 -1.35075 0
M  V30 4399 H 407.722 1.08996 -3.05435 0
M  V30 4400 H 407.507 -0.474188 -3.89222 0
M  V30 4401 H 408.997 0.482367 -4.14805 0
M  V30 4402 N 409.434 1.37368 -0.772513 0
M  V30 4403 C 410.344 2.34053 -0.160081 0
M  V30 4404 C 411.36 1.60216 0.678728 0
M  V30 4405 O 412.536 1.92303 0.59847 0
M  V30 4406 C 409.601 3.3939 0.708182 0
M  V30 4407 C 408.662 4.29048 -0.147172 0
M  V30 4408 C 407.895 5.29354 0.679744 0
M  V30 4409 O 408.118 5.3723 1.91678 0
M  V30 4410 O 407.052 6.01835 0.0885444 0
M  V30 4411 H 410.878 2.88159 -0.959053 0
M  V30 4412 H 408.463 1.39543 -0.533685 0
M  V30 4413 H 410.345 4.03839 1.20384 0
M  V30 4414 H 409.02 2.8761 1.48533 0
M  V30 4415 H 407.927 3.67697 -0.689205 0
M  V30 4416 H 409.26 4.84134 -0.887423 0
M  V30 4417 N 410.912 0.523116 1.48665 0
M  V30 4418 C 412.137 -0.0117284 2.07397 0
M  V30 4419 C 412.562 -1.28031 1.37803 0
M  V30 4420 O 411.92 -1.75836 0.441762 0
M  V30 4421 C 411.968 -0.225786 3.59892 0
M  V30 4422 O 411.072 -1.29592 3.91509 0
M  V30 4423 H 410.413 0.0360673 0.66302 0
M  V30 4424 H 412.943 0.729066 1.9117 0
M  V30 4425 H 412.953 -0.450552 4.05505 0
M  V30 4426 H 411.628 0.700944 4.09951 0
M  V30 4427 H 410.205 -1.05436 3.57684 0
M  V30 4428 N 412.39 -1.55475 0.257931 0
M  V30 4429 C 413.3 -2.2549 -0.647425 0
M  V30 4430 C 414.316 -1.2748 -1.18427 0
M  V30 4431 O 415.492 -1.6038 -1.2182 0
M  V30 4432 C 412.557 -2.94916 -1.82278 0
M  V30 4433 C 411.618 -4.08363 -1.32432 0
M  V30 4434 C 410.851 -4.74469 -2.44366 0
M  V30 4435 O 411.074 -4.39701 -3.63344 0
M  V30 4436 O 410.008 -5.62763 -2.13497 0
M  V30 4437 H 413.834 -3.03593 -0.0807707 0
M  V30 4438 H 411.419 -1.49377 0.0259962 0
M  V30 4439 H 413.301 -3.38606 -2.50846 0
M  V30 4440 H 411.976 -2.19744 -2.37685 0
M  V30 4441 H 410.883 -3.69166 -0.605605 0
M  V30 4442 H 412.216 -4.85385 -0.816211 0
M  V30 4443 N 413.868 0.0150385 -1.57593 0
M  V30 4444 C 414.815 1.01126 -2.07466 0
M  V30 4445 C 415.785 1.35064 -0.966794 0
M  V30 4446 O 416.97 1.4516 -1.23827 0
M  V30 4447 C 414.11 2.30276 -2.57035 0
M  V30 4448 C 413.223 2.02373 -3.81666 0
M  V30 4449 C 412.358 3.25496 -4.19793 0
M  V30 4450 C 411.397 2.93211 -5.37303 0
M  V30 4451 N 410.534 4.08826 -5.70794 0
M  V30 4452 H 415.374 0.57901 -2.92321 0
M  V30 4453 H 412.911 0.27426 -1.44521 0
M  V30 4454 H 414.869 3.05757 -2.83846 0
M  V30 4455 H 413.499 2.71197 -1.75077 0
M  V30 4456 H 412.551 1.17327 -3.61854 0
M  V30 4457 H 413.863 1.74567 -4.67256 0
M  V30 4458 H 413.017 4.09333 -4.47807 0
M  V30 4459 H 411.756 3.56428 -3.32882 0
M  V30 4460 H 410.761 2.07777 -5.09027 0
M  V30 4461 H 411.986 2.63542 -6.25877 0
M  V30 4462 H 409.932 4.39682 -4.86842 0
M  V30 4463 H 409.849 3.84491 -6.50924 0
M  V30 4464 H 411.117 4.93496 -6.03392 0
M  V30 4465 N 415.346 1.54954 0.287554 0
M  V30 4466 C 416.256 1.8991 1.37736 0
M  V30 4467 C 417.272 0.794701 1.54792 0
M  V30 4468 O 418.448 1.09243 1.69198 0
M  V30 4469 C 415.513 2.15108 2.71899 0
M  V30 4470 C 414.574 3.38752 2.63715 0
M  V30 4471 C 413.807 3.62739 3.91479 0
M  V30 4472 O 414.03 2.89492 4.91478 0
M  V30 4473 O 412.964 4.56267 3.92561 0
M  V30 4474 H 416.79 2.82652 1.11092 0
M  V30 4475 H 414.375 1.41315 0.484807 0
M  V30 4476 H 416.257 2.32806 3.51254 0
M  V30 4477 H 414.932 1.25551 2.9836 0
M  V30 4478 H 413.839 3.26405 1.82786 0
M  V30 4479 H 415.172 4.28483 2.42205 0
M  V30 4480 N 416.824 -0.551391 1.4764 0
M  V30 4481 C 418.052 -1.33357 1.58189 0
M  V30 4482 C 418.467 -1.87342 0.234199 0
M  V30 4483 O 417.824 -1.65301 -0.77343 0
M  V30 4484 C 417.875 -2.49942 2.61173 0
M  V30 4485 O 417.596 -1.98187 3.90709 0
M  V30 4486 C 419.097 -3.42072 2.8196 0
M  V30 4487 H 416.317 -0.40631 0.533998 0
M  V30 4488 H 418.861 -0.667367 1.93304 0
M  V30 4489 H 417.016 -3.12489 2.28975 0
M  V30 4490 H 417.43 -2.74342 4.47031 0
M  V30 4491 H 418.904 -4.20278 3.57869 0
M  V30 4492 H 419.381 -3.95978 1.89995 0
M  V30 4493 H 419.987 -2.85336 3.15378 0
M  V30 4494 N 418.302 -1.35869 -0.798587 0
M  V30 4495 C 419.249 -1.29446 -1.91082 0
M  V30 4496 C 420.219 -0.16487 -1.6528 0
M  V30 4497 O 421.404 -0.349888 -1.87564 0
M  V30 4498 C 418.544 -1.0804 -3.27752 0
M  V30 4499 C 417.657 -2.29993 -3.65687 0
M  V30 4500 C 416.792 -2.01673 -4.91428 0
M  V30 4501 C 415.831 -3.19636 -5.22015 0
M  V30 4502 N 414.968 -2.91039 -6.38937 0
M  V30 4503 H 419.808 -2.24553 -1.95907 0
M  V30 4504 H 417.345 -1.11615 -0.958148 0
M  V30 4505 H 419.303 -0.936586 -4.06551 0
M  V30 4506 H 417.933 -0.16592 -3.22373 0
M  V30 4507 H 416.985 -2.55211 -2.82085 0
M  V30 4508 H 418.297 -3.18052 -3.84245 0
M  V30 4509 H 417.451 -1.84168 -5.78072 0
M  V30 4510 H 416.19 -1.10911 -4.74921 0
M  V30 4511 H 415.195 -3.37709 -4.33858 0
M  V30 4512 H 416.42 -4.11211 -5.40447 0
M  V30 4513 H 414.366 -2.0288 -6.2384 0
M  V30 4514 H 414.283 -3.72635 -6.57784 0
M  V30 4515 H 415.551 -2.77093 -7.28587 0
M  V30 4516 N 419.78 1.02168 -1.19998 0
M  V30 4517 C 420.743 2.08765 -0.94604 0
M  V30 4518 C 421.743 1.60618 0.0763846 0
M  V30 4519 O 422.933 1.73472 -0.159135 0
M  V30 4520 C 420.065 3.38262 -0.423255 0
M  V30 4521 H 421.258 2.32726 -1.89153 0
M  V30 4522 H 418.811 1.1889 -1.01464 0
M  V30 4523 H 419.546 3.19974 0.527938 0
M  V30 4524 H 419.331 3.74532 -1.16053 0
M  V30 4525 H 420.821 4.16759 -0.264911 0
M  V30 4526 N 421.258 1.00505 1.21394 0
M  V30 4527 C 422.188 0.585684 2.26035 0
M  V30 4528 C 423.169 -0.393525 1.65485 0
M  V30 4529 O 424.354 -0.281497 1.92149 0
M  V30 4530 C 421.484 -0.0884283 3.47187 0
M  V30 4531 C 420.438 0.810567 4.20254 0
M  V30 4532 C 419.764 0.00286382 5.347 0
M  V30 4533 C 421.064 2.1132 4.77641 0
M  V30 4534 H 422.758 1.46039 2.61368 0
M  V30 4535 H 420.304 0.703648 1.25638 0
M  V30 4536 H 422.257 -0.393286 4.19561 0
M  V30 4537 H 420.981 -0.997766 3.10986 0
M  V30 4538 H 419.64 1.09925 3.49731 0
M  V30 4539 H 419.288 -0.907765 4.94741 0
M  V30 4540 H 418.988 0.601444 5.84514 0
M  V30 4541 H 420.512 -0.295808 6.09883 0
M  V30 4542 H 421.926 1.87148 5.41893 0
M  V30 4543 H 420.323 2.66164 5.37845 0
M  V30 4544 H 421.393 2.78393 3.9702 0
M  V30 4545 N 422.737 -1.36956 0.779787 0
M  V30 4546 C 423.7 -2.2851 0.177662 0
M  V30 4547 C 424.7 -1.48393 -0.619377 0
M  V30 4548 O 425.89 -1.68505 -0.441785 0
M  V30 4549 C 423.022 -3.32428 -0.755279 0
M  V30 4550 H 424.215 -2.83269 0.984823 0
M  V30 4551 H 421.768 -1.46358 0.548544 0
M  V30 4552 H 422.503 -2.82808 -1.58714 0
M  V30 4553 H 422.288 -3.91659 -0.185817 0
M  V30 4554 H 423.778 -4.00824 -1.17174 0
M  V30 4555 N 424.215 -0.530993 -1.48385 0
M  V30 4556 C 425.492 0.0671788 -1.95485 0
M  V30 4557 C 425.872 1.51191 -1.47324 0
M  V30 4558 O 425.22 2.17507 -0.700202 0
M  V30 4559 C 425.43 -0.0511206 -3.48963 0
M  V30 4560 C 426.778 0.107632 -4.24464 0
M  V30 4561 O 427.802 0.0226248 -3.56193 0
M  V30 4562 O 426.661 0.285972 -5.45751 0
M  V30 4563 H 423.755 0.0787365 -0.823243 0
M  V30 4564 H 426.301 -0.595662 -1.58902 0
M  V30 4565 H 425.073 -1.05747 -3.7674 0
M  V30 4566 H 424.696 0.650525 -3.92242 0
M  V30 4567 N 425.693 1.55336 -0.266172 0
M  V30 4568 C 426.94 1.99397 0.353158 0
M  V30 4569 C 427.268 1.15451 1.56529 0
M  V30 4570 O 426.523 0.209974 1.9457 0
M  V30 4571 C 426.822 3.48606 0.787957 0
M  V30 4572 C 426.488 4.49773 -0.318541 0
M  V30 4573 C 425.15 4.77158 -0.62239 0
M  V30 4574 C 427.502 5.10212 -1.06459 0
M  V30 4575 C 424.83 5.62251 -1.67602 0
M  V30 4576 C 427.182 5.96449 -2.10788 0
M  V30 4577 C 425.846 6.22158 -2.41817 0
M  V30 4578 H 425.116 0.729644 0.12923 0
M  V30 4579 H 427.763 1.87732 -0.37802 0
M  V30 4580 H 426.068 3.57701 1.59866 0
M  V30 4581 H 427.765 3.80098 1.27775 0
M  V30 4582 H 424.355 4.2854 -0.0715925 0
M  V30 4583 H 428.539 4.89086 -0.843098 0
M  V30 4584 H 423.795 5.80419 -1.92155 0
M  V30 4585 H 427.969 6.42317 -2.69076 0
M  V30 4586 H 425.596 6.87888 -3.23596 0
M  V30 4587 N 427.171 -0.0066808 1.57599 0
M  V30 4588 C 428.42 -0.692078 1.89455 0
M  V30 4589 C 428.733 -1.75306 0.867586 0
M  V30 4590 O 429.939 -2.49262 1.07614 0
M  V30 4591 C 428.395 -1.2821 3.36289 0
M  V30 4592 C 428.003 -0.256291 4.47266 0
M  V30 4593 C 429.747 -1.94608 3.77264 0
M  V30 4594 C 427.654 -0.855927 5.85173 0
M  V30 4595 H 426.584 -0.262252 0.706923 0
M  V30 4596 H 429.235 0.052769 1.83424 0
M  V30 4597 H 427.617 -2.0774 3.37135 0
M  V30 4598 H 428.791 0.513923 4.57925 0
M  V30 4599 H 427.106 0.306862 4.15268 0
M  V30 4600 H 429.703 -2.40364 4.77629 0
M  V30 4601 H 430.046 -2.77382 3.10427 0
M  V30 4602 H 430.579 -1.21822 3.78688 0
M  V30 4603 H 427.318 -0.0671161 6.55466 0
M  V30 4604 H 426.838 -1.59546 5.78191 0
M  V30 4605 H 428.517 -1.35658 6.32618 0
M  V30 4606 N 428.649 -1.55105 -0.279332 0
M  V30 4607 C 430.065 -1.46803 -0.626187 0
M  V30 4608 C 430.265 -0.676939 -1.89789 0
M  V30 4609 O 429.321 -0.19326 -2.51759 0
M  V30 4610 C 430.634 -2.90962 -0.759034 0
M  V30 4611 C 432.182 -3.01138 -0.853504 0
M  V30 4612 C 432.657 -4.46539 -1.01818 0
M  V30 4613 N 434.148 -4.50341 -1.08386 0
M  V30 4614 C 434.883 -5.60053 -1.22996 0
M  V30 4615 N 434.379 -6.79645 -1.34366 0
M  V30 4616 N 436.172 -5.47783 -1.26056 0
M  V30 4617 H 428.323 -2.04996 0.555921 0
M  V30 4618 H 430.586 -0.929325 0.187239 0
M  V30 4619 H 430.292 -3.51544 0.104852 0
M  V30 4620 H 430.166 -3.39619 -1.64131 0
M  V30 4621 H 432.553 -2.40658 -1.70786 0
M  V30 4622 H 432.634 -2.55745 0.0532466 0
M  V30 4623 H 432.278 -5.0762 -0.168504 0
M  V30 4624 H 432.208 -4.89583 -1.93948 0
M  V30 4625 H 434.699 -3.64191 -1.00864 0
M  V30 4626 H 435.012 -7.59012 -1.4533 0
M  V30 4627 H 433.357 -6.82469 -1.31382 0
M  V30 4628 H 436.548 -4.53294 -1.168 0
M  V30 4629 H 436.721 -6.33331 -1.37098 0
M  V30 4630 N 430.127 0.543554 -1.4793 0
M  V30 4631 C 431.075 1.67039 -1.61866 0
M  V30 4632 C 432.069 1.62294 -0.48549 0
M  V30 4633 O 433.275 1.67315 -0.66376 0
M  V30 4634 H 429.65 0.552954 -0.509652 0
M  V30 4635 H 431.621 1.52426 -2.56533 0
M  V30 4636 C 430.37 3.05357 -1.6629 0
M  V30 4637 H 429.693 3.09696 -2.5284 0
M  V30 4638 H 431.133 3.83855 -1.80088 0
M  V30 4639 C 429.592 3.34531 -0.398861 0
M  V30 4640 O 430.122 3.98649 0.494162 0
M  V30 4641 N 428.328 2.89299 -0.2747 0
M  V30 4642 H 427.875 2.37298 -1.00236 0
M  V30 4643 H 427.833 3.09188 0.570075 0
M  V30 4644 N 431.605 1.3629 0.791371 0
M  V30 4645 C 432.552 1.30458 1.90393 0
M  V30 4646 C 433.522 0.173632 1.6519 0
M  V30 4647 O 434.707 0.35983 1.87376 0
M  V30 4648 C 431.847 1.09777 3.27174 0
M  V30 4649 C 430.96 2.31929 3.64462 0
M  V30 4650 C 430.095 2.04276 4.90352 0
M  V30 4651 C 429.134 3.224 5.20312 0
M  V30 4652 N 428.271 2.94424 6.37385 0
M  V30 4653 H 433.111 2.25589 1.94714 0
M  V30 4654 H 430.648 1.12122 0.952216 0
M  V30 4655 H 432.606 0.958133 4.06049 0
M  V30 4656 H 431.236 0.183014 3.22281 0
M  V30 4657 H 430.288 2.56703 2.80727 0
M  V30 4658 H 431.6 3.20085 3.82553 0
M  V30 4659 H 430.754 1.87231 5.77087 0
M  V30 4660 H 429.493 1.13428 4.74326 0
M  V30 4661 H 428.498 3.40005 4.32061 0
M  V30 4662 H 429.723 4.14071 5.38258 0
M  V30 4663 H 427.669 2.06185 6.22755 0
M  V30 4664 H 427.586 3.76118 6.55798 0
M  V30 4665 H 428.854 2.80953 7.27108 0
M  V30 4666 N 433.083 -1.0153 1.20538 0
M  V30 4667 C 434.013 -2.11972 0.979295 0
M  V30 4668 C 434.994 -1.6985 -0.0921787 0
M  V30 4669 O 436.179 -1.94089 0.0655932 0
M  V30 4670 C 433.309 -3.43201 0.531984 0
M  V30 4671 C 432.263 -3.9907 1.54685 0
M  V30 4672 C 431.589 -5.26082 0.956127 0
M  V30 4673 C 432.889 -4.32313 2.93092 0
M  V30 4674 H 434.583 -2.31143 1.90298 0
M  V30 4675 H 432.129 -1.11079 0.916372 0
M  V30 4676 H 434.082 -4.1985 0.361044 0
M  V30 4677 H 432.806 -3.23792 -0.427327 0
M  V30 4678 H 431.465 -3.2453 1.70517 0
M  V30 4679 H 431.113 -5.02999 -0.0111538 0
M  V30 4680 H 430.813 -5.64426 1.63393 0
M  V30 4681 H 432.337 -6.05386 0.796284 0
M  V30 4682 H 433.751 -4.99845 2.80763 0
M  V30 4683 H 432.148 -4.81774 3.57791 0
M  V30 4684 H 433.218 -3.41025 3.44717 0
M  V30 4685 N 434.561 -1.01147 -1.20859 0
M  V30 4686 C 435.786 -0.716698 -1.94623 0
M  V30 4687 C 436.211 0.715415 -1.73964 0
M  V30 4688 O 435.569 1.49157 -1.03062 0
M  V30 4689 C 435.617 -1.0513 -3.44935 0
M  V30 4690 O 434.721 -0.160131 -4.12089 0
M  V30 4691 H 434.062 -0.266404 -0.608214 0
M  V30 4692 H 436.592 -1.35346 -1.53436 0
M  V30 4693 H 436.602 -1.00086 -3.95533 0
M  V30 4694 H 435.277 -2.09475 -3.59295 0
M  V30 4695 H 433.854 -0.267657 -3.71938 0
M  V30 4696 N 436.039 1.36541 -0.78704 0
M  V30 4697 C 437.264 2.0409 -0.369053 0
M  V30 4698 C 437.689 1.58957 1.00569 0
M  V30 4699 O 437.047 0.756926 1.64743 0
M  V30 4700 C 437.095 3.57924 -0.438466 0
M  V30 4701 O 436.199 4.08642 0.555479 0
M  V30 4702 H 435.54 0.645142 -0.157122 0
M  V30 4703 H 438.07 1.74545 -1.06749 0
M  V30 4704 H 438.08 4.06887 -0.301218 0
M  V30 4705 H 436.755 3.90127 -1.44132 0
M  V30 4706 H 435.332 3.70958 0.380088 0
M  V30 4707 N 437.518 0.538854 1.48102 0
M  V30 4708 C 438.767 0.0059532 2.01699 0
M  V30 4709 C 439.08 -1.34476 1.42041 0
M  V30 4710 O 440.286 -1.96653 1.87189 0
M  V30 4711 C 438.742 -0.0397627 3.59878 0
M  V30 4712 C 438.35 1.30659 4.28523 0
M  V30 4713 C 440.094 -0.521024 4.2129 0
M  V30 4714 C 438.001 1.22098 5.78659 0
M  V30 4715 H 436.931 -0.00154456 0.753998 0
M  V30 4716 H 439.582 0.683963 1.70277 0
M  V30 4717 H 437.964 -0.783037 3.88181 0
M  V30 4718 H 439.138 2.06613 4.11883 0
M  V30 4719 H 437.453 1.7243 3.79021 0
M  V30 4720 H 440.05 -0.603184 5.31287 0
M  V30 4721 H 440.393 -1.52885 3.8721 0
M  V30 4722 H 440.926 0.166834 3.9745 0
M  V30 4723 H 437.665 2.20424 6.17328 0
M  V30 4724 H 437.185 0.50295 5.97688 0
M  V30 4725 H 438.864 0.915345 6.40492 0
M  V30 4726 N 438.996 -1.55193 0.274407 0
M  V30 4727 C 439.943 -2.225 -0.613374 0
M  V30 4728 C 440.913 -1.19823 -1.15029 0
M  V30 4729 O 442.098 -1.48362 -1.19973 0
M  V30 4730 C 439.238 -2.94927 -1.79199 0
M  V30 4731 C 438.351 -4.12322 -1.28899 0
M  V30 4732 C 437.486 -4.72394 -2.42934 0
M  V30 4733 C 436.525 -5.81984 -1.89634 0
M  V30 4734 N 435.662 -6.36123 -2.9714 0
M  V30 4735 H 440.502 -2.97982 -0.032756 0
M  V30 4736 H 438.039 -1.47099 -0.00440146 0
M  V30 4737 H 439.997 -3.35134 -2.48478 0
M  V30 4738 H 438.627 -2.2187 -2.34465 0
M  V30 4739 H 437.679 -3.7724 -0.489327 0
M  V30 4740 H 438.991 -4.91355 -0.858587 0
M  V30 4741 H 438.145 -5.15317 -3.20208 0
M  V30 4742 H 436.884 -3.92636 -2.8929 0
M  V30 4743 H 435.889 -5.38511 -1.1084 0
M  V30 4744 H 437.114 -6.6361 -1.44215 0
M  V30 4745 H 435.06 -5.59259 -3.42878 0
M  V30 4746 H 434.977 -7.10427 -2.58515 0
M  V30 4747 H 436.245 -6.83704 -3.74391 0
M  V30 4748 N 440.474 -0.00167713 -1.576 0
M  V30 4749 C 441.437 0.974046 -2.07473 0
M  V30 4750 C 442.437 1.27143 -0.984444 0
M  V30 4751 O 443.627 1.21633 -1.24703 0
M  V30 4752 C 440.759 2.29849 -2.51759 0
M  V30 4753 H 441.952 0.54262 -2.9495 0
M  V30 4754 H 439.505 0.245829 -1.54355 0
M  V30 4755 H 440.24 2.77677 -1.67529 0
M  V30 4756 H 440.025 2.09584 -3.31386 0
M  V30 4757 H 441.515 2.9984 -2.90664 0
M  V30 4758 N 441.952 1.55251 0.271103 0
M  V30 4759 C 443.182 1.79713 1.01916 0
M  V30 4760 C 443.59 0.571613 1.80359 0
M  V30 4761 O 442.933 -0.468853 1.77616 0
M  V30 4762 C 442.995 2.97138 2.02359 0
M  V30 4763 C 442.659 4.34104 1.42837 0
M  V30 4764 C 443.656 5.13019 0.843071 0
M  V30 4765 C 441.341 4.80765 1.455 0
M  V30 4766 C 443.335 6.36729 0.292333 0
M  V30 4767 C 441.022 6.0443 0.900402 0
M  V30 4768 C 442.02 6.8225 0.32007 0
M  V30 4769 O 441.708 8.03582 -0.226031 0
M  V30 4770 H 441.44 0.602431 0.306681 0
M  V30 4771 H 443.994 2.03097 0.306701 0
M  V30 4772 H 442.224 2.6945 2.77369 0
M  V30 4773 H 443.913 3.08907 2.63309 0
M  V30 4774 H 444.679 4.781 0.815178 0
M  V30 4775 H 440.558 4.20202 1.89609 0
M  V30 4776 H 444.102 6.97414 -0.161274 0
M  V30 4777 H 439.999 6.3883 0.925541 0
M  V30 4778 H 440.767 8.18418 -0.115572 0
M  V30 4779 N 443.43 -0.535701 1.48216 0
M  V30 4780 C 444.36 -1.65014 1.65204 0
M  V30 4781 C 445.341 -1.62554 0.501011 0
M  V30 4782 O 446.526 -1.7984 0.732886 0
M  V30 4783 C 443.656 -3.03616 1.68626 0
M  V30 4784 C 442.61 -3.20932 2.83172 0
M  V30 4785 C 441.936 -4.60537 2.71679 0
M  V30 4786 C 443.236 -3.04249 4.24535 0
M  V30 4787 H 444.93 -1.51053 2.58502 0
M  V30 4788 H 442.476 -0.725262 1.24402 0
M  V30 4789 H 444.429 -3.81446 1.79099 0
M  V30 4790 H 443.153 -3.18587 0.719026 0
M  V30 4791 H 441.812 -2.45517 2.72244 0
M  V30 4792 H 441.46 -4.72336 1.72937 0
M  V30 4793 H 441.16 -4.73069 3.48538 0
M  V30 4794 H 442.684 -5.40475 2.84112 0
M  V30 4795 H 444.098 -3.71877 4.36326 0
M  V30 4796 H 442.495 -3.28278 5.02348 0
M  V30 4797 H 443.565 -2.00739 4.41397 0
M  V30 4798 N 444.908 -1.36708 -0.784132 0
M  V30 4799 C 446.136 -1.34398 -1.57305 0
M  V30 4800 C 446.551 0.0735577 -1.88657 0
M  V30 4801 O 445.908 1.03193 -1.50524 0
M  V30 4802 C 445.959 -2.17053 -2.89085 0
M  V30 4803 O 445.68 -3.53281 -2.59083 0
M  V30 4804 C 447.181 -2.22583 -3.83369 0
M  V30 4805 H 444.401 -0.460819 -0.487736 0
M  V30 4806 H 446.945 -1.79879 -0.972819 0
M  V30 4807 H 445.1 -1.75113 -3.45564 0
M  V30 4808 H 445.514 -3.9647 -3.43383 0
M  V30 4809 H 446.988 -2.84763 -4.72878 0
M  V30 4810 H 447.465 -1.23075 -4.21603 0
M  V30 4811 H 448.071 -2.64781 -3.32823 0
M  V30 4812 N 446.386 1.0089 -1.21074 0
M  V30 4813 C 447.635 1.74019 -1.01981 0
M  V30 4814 C 447.948 1.90408 0.447665 0
M  V30 4815 O 449.154 2.60707 0.757906 0
M  V30 4816 C 447.61 3.13026 -1.77603 0
M  V30 4817 C 447.218 3.04623 -3.28495 0
M  V30 4818 C 448.962 3.90312 -1.66904 0
M  V30 4819 C 446.869 4.38685 -3.96623 0
M  V30 4820 H 445.799 0.652422 -0.377971 0
M  V30 4821 H 448.45 1.12755 -1.44771 0
M  V30 4822 H 446.832 3.74878 -1.27604 0
M  V30 4823 H 448.006 2.52032 -3.85767 0
M  V30 4824 H 446.321 2.40827 -3.39693 0
M  V30 4825 H 448.918 4.8951 -2.15138 0
M  V30 4826 H 449.261 4.11558 -0.62658 0
M  V30 4827 H 449.794 3.35104 -2.14359 0
M  V30 4828 H 446.533 4.22641 -5.01054 0
M  V30 4829 H 446.053 4.91252 -3.4414 0
M  V30 4830 H 447.732 5.075 -4.01314 0
M  V30 4831 N 447.864 1.01787 1.20321 0
M  V30 4832 C 448.814 0.559976 2.21016 0
M  V30 4833 C 449.798 -0.385366 1.56217 0
M  V30 4834 O 450.99 -0.208126 1.75772 0
M  V30 4835 C 448.119 -0.0990553 3.43157 0
M  V30 4836 C 447.205 0.86807 4.15121 0
M  V30 4837 N 447.596 2.0261 4.63447 0
M  V30 4838 C 445.894 0.689162 4.40643 0
M  V30 4839 C 446.595 2.63518 5.18588 0
M  V30 4840 N 445.571 1.91569 5.08726 0
M  V30 4841 H 449.373 1.44281 2.56048 0
M  V30 4842 H 446.887 0.883381 1.36272 0
M  V30 4843 H 448.884 -0.444643 4.14522 0
M  V30 4844 H 447.544 -0.977709 3.0963 0
M  V30 4845 H 448.555 2.40598 4.58621 0
M  V30 4846 H 445.232 -0.14133 4.17261 0
M  V30 4847 H 446.622 3.61527 5.66346 0
M  V30 4848 N 449.342 -1.36122 0.79427 0
M  V30 4849 C 450.567 -2.03891 0.379871 0
M  V30 4850 C 450.992 -1.59488 -0.997251 0
M  V30 4851 O 450.35 -0.765652 -1.64339 0
M  V30 4852 C 450.398 -3.57687 0.457442 0
M  V30 4853 O 449.502 -4.08931 -0.5338 0
M  V30 4854 H 448.843 -0.6443 0.160541 0
M  V30 4855 H 451.373 -1.73976 1.07673 0
M  V30 4856 H 451.383 -4.06721 0.322792 0
M  V30 4857 H 450.058 -3.89357 1.46199 0
M  V30 4858 H 448.635 -3.71154 -0.360409 0
M  V30 4859 N 450.82 -0.546701 -1.47814 0
M  V30 4860 C 452.05 -0.0232519 -2.06587 0
M  V30 4861 C 452.458 1.2712 -1.40133 0
M  V30 4862 O 451.801 1.77091 -0.488305 0
M  V30 4863 C 451.863 0.254117 -3.58601 0
M  V30 4864 C 451.527 -0.949331 -4.47031 0
M  V30 4865 C 452.524 -1.85216 -4.85789 0
M  V30 4866 C 450.209 -1.16104 -4.88697 0
M  V30 4867 C 452.203 -2.95047 -5.65001 0
M  V30 4868 C 449.89 -2.26247 -5.67676 0
M  V30 4869 C 450.888 -3.1555 -6.05737 0
M  V30 4870 O 450.576 -4.23784 -6.83127 0
M  V30 4871 H 450.308 -0.0380082 -0.674931 0
M  V30 4872 H 452.862 -0.756631 -1.90956 0
M  V30 4873 H 451.092 1.04168 -3.72406 0
M  V30 4874 H 452.781 0.72167 -3.99433 0
M  V30 4875 H 453.547 -1.70061 -4.54207 0
M  V30 4876 H 449.426 -0.475159 -4.58545 0
M  V30 4877 H 452.97 -3.64778 -5.94628 0
M  V30 4878 H 448.867 -2.41379 -5.98671 0
M  V30 4879 H 449.635 -4.21701 -7.01506 0
M  V30 4880 N 452.299 1.55045 -0.282633 0
M  V30 4881 C 453.524 2.04628 0.337977 0
M  V30 4882 C 453.949 1.15937 1.48123 0
M  V30 4883 O 453.307 0.159532 1.80597 0
M  V30 4884 C 453.355 3.51854 0.78936 0
M  V30 4885 O 452.459 3.66236 1.89592 0
M  V30 4886 H 451.8 0.660434 0.0687261 0
M  V30 4887 H 454.33 2.00261 -0.419124 0
M  V30 4888 H 454.34 3.93361 1.08311 0
M  V30 4889 H 453.015 4.15873 -0.0470419 0
M  V30 4890 H 451.592 3.36633 1.60413 0
M  V30 4891 N 453.777 0.010035 1.57597 0
M  V30 4892 C 454.709 -1.00649 2.05918 0
M  V30 4893 C 455.722 -1.30077 0.978964 0
M  V30 4894 O 456.911 -1.26878 1.25556 0
M  V30 4895 C 454.011 -2.33876 2.45265 0
M  V30 4896 C 453.184 -2.23242 3.7614 0
M  V30 4897 C 452.243 -3.39242 4.02245 0
M  V30 4898 O 451.269 -3.1698 4.72771 0
M  V30 4899 N 452.471 -4.6242 3.50924 0
M  V30 4900 H 455.236 -0.594333 2.93748 0
M  V30 4901 H 452.797 -0.17714 1.60928 0
M  V30 4902 H 454.789 -3.1027 2.59836 0
M  V30 4903 H 453.359 -2.66799 1.62902 0
M  V30 4904 H 452.579 -1.31696 3.71551 0
M  V30 4905 H 453.867 -2.13321 4.61922 0
M  V30 4906 H 453.265 -4.83404 2.93832 0
M  V30 4907 H 451.822 -5.36046 3.70807 0
M  V30 4908 N 455.255 -1.55392 -0.262866 0
M  V30 4909 C 456.188 -1.8391 -1.35101 0
M  V30 4910 C 457.166 -0.692901 -1.47097 0
M  V30 4911 O 458.35 -0.936979 -1.63563 0
M  V30 4912 C 455.477 -2.00969 -2.72634 0
M  V30 4913 C 454.523 -3.23559 -2.7787 0
M  V30 4914 S 455.356 -4.80647 -2.3609 0
M  V30 4915 C 456.512 -5.00692 -3.75578 0
M  V30 4916 H 456.745 -2.75918 -1.1071 0
M  V30 4917 H 454.278 -1.47294 -0.463029 0
M  V30 4918 H 456.236 -2.11482 -3.51832 0
M  V30 4919 H 454.897 -1.09832 -2.94272 0
M  V30 4920 H 454.09 -3.32413 -3.78837 0
M  V30 4921 H 453.692 -3.11689 -2.06702 0
M  V30 4922 H 455.984 -4.87055 -4.70939 0
M  V30 4923 H 456.927 -6.02717 -3.71669 0
M  V30 4924 H 457.335 -4.28619 -3.6735 0
M  V30 4925 N 456.733 0.527833 -1.48498 0
M  V30 4926 C 457.666 1.64892 -1.57753 0
M  V30 4927 C 458.644 1.5687 -0.427867 0
M  V30 4928 O 459.828 1.77311 -0.639764 0
M  V30 4929 C 456.955 3.03301 -1.50752 0
M  V30 4930 C 456.001 3.29675 -2.70586 0
M  V30 4931 S 456.834 3.15712 -4.32535 0
M  V30 4932 C 457.99 4.56564 -4.28136 0
M  V30 4933 H 458.223 1.56792 -2.52594 0
M  V30 4934 H 455.756 0.710959 -1.37057 0
M  V30 4935 H 457.714 3.83123 -1.474 0
M  V30 4936 H 456.375 3.08839 -0.572454 0
M  V30 4937 H 455.568 4.3065 -2.61833 0
M  V30 4938 H 455.17 2.57526 -2.71212 0
M  V30 4939 H 457.462 5.48126 -3.98201 0
M  V30 4940 H 458.405 4.70371 -5.29298 0
M  V30 4941 H 458.813 4.35987 -3.58574 0
M  V30 4942 N 458.211 1.37122 0.776871 0
M  V30 4943 C 459.46 1.31373 1.53049 0
M  V30 4944 C 459.773 -0.101016 1.95339 0
M  V30 4945 O 460.979 -0.280953 2.70042 0
M  V30 4946 C 459.435 2.30567 2.76346 0
M  V30 4947 C 459.043 3.77543 2.41175 0
M  V30 4948 C 460.787 2.33818 3.54301 0
M  V30 4949 C 458.694 4.68481 3.60943 0
M  V30 4950 H 457.624 0.488234 0.574581 0
M  V30 4951 H 460.275 1.62554 0.851372 0
M  V30 4952 H 458.657 1.92396 3.46121 0
M  V30 4953 H 459.831 4.24521 1.79216 0
M  V30 4954 H 458.146 3.77187 1.76405 0
M  V30 4955 H 460.743 2.98965 4.4331 0
M  V30 4956 H 461.086 1.3503 3.93793 0
M  V30 4957 H 461.619 2.7067 2.91518 0
M  V30 4958 H 458.358 5.68378 3.26537 0
M  V30 4959 H 457.878 4.2621 4.22025 0
M  V30 4960 H 459.557 4.85366 4.27819 0
M  V30 4961 N 459.689 -1.00246 1.21608 0
M  V30 4962 C 460.919 -1.77373 1.05935 0
M  V30 4963 C 461.327 -1.85059 -0.393686 0
M  V30 4964 O 460.67 -1.31289 -1.28487 0
M  V30 4965 C 460.732 -3.22705 1.58435 0
M  V30 4966 C 460.396 -3.38591 3.06929 0
M  V30 4967 C 461.393 -3.2667 4.04454 0
M  V30 4968 C 459.078 -3.6395 3.46187 0
M  V30 4969 C 461.072 -3.39877 5.39224 0
M  V30 4970 C 458.759 -3.768 4.81108 0
M  V30 4971 C 459.757 -3.6477 5.77436 0
M  V30 4972 O 459.445 -3.77206 7.09909 0
M  V30 4973 H 459.177 -0.56419 0.372378 0
M  V30 4974 H 461.731 -1.26971 1.61454 0
M  V30 4975 H 459.961 -3.74255 0.973147 0
M  V30 4976 H 461.65 -3.81515 1.38568 0
M  V30 4977 H 462.416 -3.06999 3.75468 0
M  V30 4978 H 458.295 -3.72395 2.71741 0
M  V30 4979 H 461.839 -3.30404 6.14393 0
M  V30 4980 H 457.736 -3.95975 5.09779 0
M  V30 4981 H 458.504 -3.94138 7.17355 0
M  V30 4982 N 461.167 -1.02423 -1.1978 0
M  V30 4983 C 462.578 -0.748389 -1.71044 0
M  V30 4984 C 462.929 0.732398 -1.82017 0
M  V30 4985 O 462.054 1.57116 -1.48807 0
M  V30 4986 C 462.649 -1.35187 -3.1066 0
M  V30 4987 C 461.208 -1.12472 -3.59203 0
M  V30 4988 C 460.355 -1.45283 -2.36195 0
M  V30 4989 H 463.306 -1.19275 -1.04686 0
M  V30 4990 H 463.327 -0.746408 -3.73107 0
M  V30 4991 H 462.839 -2.4296 -3.02642 0
M  V30 4992 H 460.94 -0.0649983 -3.72543 0
M  V30 4993 H 461.053 -1.81016 -4.43588 0
M  V30 4994 H 459.417 -0.872034 -2.39307 0
M  V30 4995 H 460.2 -2.54129 -2.30811 0
M  V30 4996 N 462.645 1.35699 -0.801477 0
M  V30 4997 C 463.875 2.02862 -0.3912 0
M  V30 4998 C 464.283 1.60552 1.00099 0
M  V30 4999 O 463.626 0.796215 1.65548 0
M  V30 5000 C 463.688 3.57386 -0.389299 0
M  V30 5001 C 463.352 4.22943 -1.73113 0
M  V30 5002 C 464.349 4.44984 -2.68859 0
M  V30 5003 C 462.034 4.60167 -2.01373 0
M  V30 5004 C 464.028 5.03345 -3.91053 0
M  V30 5005 C 461.715 5.18243 -3.23832 0
M  V30 5006 C 462.713 5.39773 -4.1849 0
M  V30 5007 O 462.401 5.96626 -5.38788 0
M  V30 5008 H 462.133 0.657341 -0.157732 0
M  V30 5009 H 464.687 1.74407 -1.08496 0
M  V30 5010 H 462.917 3.85011 0.361031 0
M  V30 5011 H 464.606 4.059 -0.0020365 0
M  V30 5012 H 465.372 4.1661 -2.48316 0
M  V30 5013 H 461.251 4.42726 -1.28508 0
M  V30 5014 H 464.795 5.20065 -4.64949 0
M  V30 5015 H 460.692 5.46044 -3.44248 0
M  V30 5016 H 461.46 6.15082 -5.40015 0
M  V30 5017 N 464.123 0.554532 1.47522 0
M  V30 5018 C 465.348 0.0322661 2.07375 0
M  V30 5019 C 465.773 -1.25079 1.40488 0
M  V30 5020 O 465.131 -1.74859 0.47896 0
M  V30 5021 C 465.179 -0.149397 3.6029 0
M  V30 5022 O 464.283 -1.21259 3.9417 0
M  V30 5023 H 463.624 0.0501228 0.662106 0
M  V30 5024 H 466.154 0.769452 1.8958 0
M  V30 5025 H 466.164 -0.364437 4.06369 0
M  V30 5026 H 464.839 0.787743 4.08372 0
M  V30 5027 H 463.416 -0.97825 3.5984 0
M  V30 5028 N 465.601 -1.54893 0.290851 0
M  V30 5029 C 466.831 -2.04047 -0.323818 0
M  V30 5030 C 467.239 -1.16809 -1.48837 0
M  V30 5031 O 466.582 -0.184145 -1.82775 0
M  V30 5032 C 466.644 -3.49248 -0.852395 0
M  V30 5033 C 466.308 -4.56623 0.185557 0
M  V30 5034 C 467.305 -5.09985 1.01053 0
M  V30 5035 C 464.99 -5.01252 0.324332 0
M  V30 5036 C 466.984 -6.06507 1.96031 0
M  V30 5037 C 464.671 -5.97596 1.27757 0
M  V30 5038 C 465.669 -6.50107 2.09405 0
M  V30 5039 O 465.357 -7.44565 3.03114 0
M  V30 5040 H 465.089 -0.671735 -0.0758129 0
M  V30 5041 H 467.643 -2.00947 0.425393 0
M  V30 5042 H 465.873 -3.49639 -1.65195 0
M  V30 5043 H 467.562 -3.81654 -1.38185 0
M  V30 5044 H 468.328 -4.76307 0.914129 0
M  V30 5045 H 464.207 -4.60015 -0.301213 0
M  V30 5046 H 467.751 -6.47418 2.598 0
M  V30 5047 H 463.648 -6.30691 1.37473 0
M  V30 5048 H 464.416 -7.62334 2.97976 0
M  V30 5049 N 467.08 -0.0183926 -1.57589 0
M  V30 5050 C 468.043 0.951986 -2.08494 0
M  V30 5051 C 469.043 1.26092 -0.997874 0
M  V30 5052 O 470.233 1.20304 -1.25987 0
M  V30 5053 C 467.365 2.27165 -2.54182 0
M  V30 5054 H 468.558 0.511307 -2.95509 0
M  V30 5055 H 466.111 0.229444 -1.54607 0
M  V30 5056 H 466.846 2.75884 -1.70465 0
M  V30 5057 H 466.631 2.06057 -3.33591 0
M  V30 5058 H 468.121 2.9674 -2.93828 0
M  V30 5059 N 468.558 1.5553 0.254621 0
M  V30 5060 C 469.788 1.80784 1.00004 0
M  V30 5061 C 470.196 0.59071 1.79742 0
M  V30 5062 O 469.539 -0.449988 1.78103 0
M  V30 5063 C 469.601 2.99268 1.99196 0
M  V30 5064 C 469.265 4.35595 1.38224 0
M  V30 5065 C 470.262 5.13884 0.788611 0
M  V30 5066 C 467.947 4.82281 1.40393 0
M  V30 5067 C 469.941 6.37004 0.224783 0
M  V30 5068 C 467.628 6.05351 0.836243 0
M  V30 5069 C 468.626 6.82551 0.24769 0
M  V30 5070 O 468.314 8.03297 -0.311249 0
M  V30 5071 H 468.046 0.60565 0.300274 0
M  V30 5072 H 470.6 2.03411 0.285143 0
M  V30 5073 H 468.83 2.72377 2.74496 0
M  V30 5074 H 470.519 3.11682 2.60018 0
M  V30 5075 H 471.285 4.78938 0.764423 0
M  V30 5076 H 467.164 4.22189 1.85142 0
M  V30 5077 H 470.708 6.97203 -0.235235 0
M  V30 5078 H 466.605 6.39776 0.857733 0
M  V30 5079 H 467.373 8.1825 -0.20237 0
M  V30 5080 N 470.036 -0.519951 1.48776 0
M  V30 5081 C 470.983 -1.62352 1.64044 0
M  V30 5082 C 471.953 -1.58945 0.482251 0
M  V30 5083 O 473.138 -1.77219 0.706971 0
M  V30 5084 C 470.278 -3.00579 1.69547 0
M  V30 5085 C 469.391 -3.14145 2.96541 0
M  V30 5086 C 468.526 -4.42991 2.93142 0
M  V30 5087 C 467.565 -4.50122 4.14797 0
M  V30 5088 N 466.702 -5.7037 4.09418 0
M  V30 5089 H 471.542 -1.48643 2.58281 0
M  V30 5090 H 469.079 -0.723516 1.28077 0
M  V30 5091 H 471.037 -3.80671 1.70719 0
M  V30 5092 H 469.667 -3.13036 0.787918 0
M  V30 5093 H 468.719 -2.27239 3.05068 0
M  V30 5094 H 470.031 -3.15275 3.86527 0
M  V30 5095 H 469.185 -5.31385 2.92772 0
M  V30 5096 H 467.924 -4.44398 2.00902 0
M  V30 5097 H 466.929 -3.60133 4.15433 0
M  V30 5098 H 468.154 -4.50445 5.08208 0
M  V30 5099 H 466.1 -5.72655 3.20004 0
M  V30 5100 H 466.017 -5.73036 4.93119 0
M  V30 5101 H 467.285 -6.61023 4.13121 0
M  V30 5102 N 471.514 -1.37532 -0.769588 0
M  V30 5103 C 472.444 -1.36172 -1.89682 0
M  V30 5104 C 473.425 -0.23001 -1.68538 0
M  V30 5105 O 474.61 -0.43069 -1.89364 0
M  V30 5106 C 471.74 -1.1701 -3.26995 0
M  V30 5107 C 470.694 -2.27216 -3.62708 0
M  V30 5108 C 470.02 -1.93174 -4.98586 0
M  V30 5109 C 471.32 -3.6941 -3.69234 0
M  V30 5110 H 473.014 -2.30499 -1.91078 0
M  V30 5111 H 470.56 -1.10953 -0.917902 0
M  V30 5112 H 472.513 -1.14688 -4.05493 0
M  V30 5113 H 471.237 -0.191395 -3.26039 0
M  V30 5114 H 469.896 -2.28697 -2.86519 0
M  V30 5115 H 469.544 -0.938281 -4.94171 0
M  V30 5116 H 469.244 -2.66973 -5.23449 0
M  V30 5117 H 470.768 -1.92443 -5.79481 0
M  V30 5118 H 472.182 -3.70047 -4.37879 0
M  V30 5119 H 470.579 -4.4228 -4.05597 0
M  V30 5120 H 471.649 -4.0288 -2.69844 0
M  V30 5121 N 472.992 0.995999 -1.22138 0
M  V30 5122 C 474.24 1.73167 -1.042 0
M  V30 5123 C 474.561 1.90329 0.42423 0
M  V30 5124 O 473.831 1.4607 1.30539 0
M  V30 5125 H 472.411 0.641593 -0.38258 0
M  V30 5126 H 475.073 1.19974 -1.53598 0
M  V30 5127 H 474.169 2.72734 -1.51731 0
M  V30 5128 N 474.47 1.03057 1.19235 0
M  V30 5129 C 475.38 0.622922 2.26179 0
M  V30 5130 C 476.396 -0.346113 1.70523 0
M  V30 5131 O 477.572 -0.203572 2.00369 0
M  V30 5132 C 474.637 -0.0182063 3.46695 0
M  V30 5133 C 473.698 0.998546 4.17526 0
M  V30 5134 C 472.931 0.387917 5.32288 0
M  V30 5135 O 473.154 -0.808668 5.64639 0
M  V30 5136 O 472.088 1.1116 5.91546 0
M  V30 5137 H 475.914 1.51363 2.63292 0
M  V30 5138 H 473.499 0.800856 1.26122 0
M  V30 5139 H 475.381 -0.375606 4.19723 0
M  V30 5140 H 474.056 -0.882895 3.11427 0
M  V30 5141 H 472.963 1.40756 3.4661 0
M  V30 5142 H 474.296 1.83366 4.56769 0
M  V30 5143 N 475.948 -1.35272 0.808662 0
M  V30 5144 C 476.896 -2.31663 0.208606 0
M  V30 5145 C 477.89 -1.56731 -0.642778 0
M  V30 5146 O 479.096 -1.71843 -0.53571 0
M  V30 5147 H 475.471 -0.750421 0.0486993 0
M  V30 5148 H 477.442 -2.79814 1.03666 0
M  V30 5149 C 476.191 -3.42008 -0.626573 0
M  V30 5150 H 475.514 -3.99795 0.0192103 0
M  V30 5151 H 476.954 -4.11727 -1.01278 0
M  V30 5152 C 475.413 -2.85226 -1.79298 0
M  V30 5153 O 475.943 -2.78945 -2.89055 0
M  V30 5154 N 474.149 -2.42245 -1.60516 0
M  V30 5155 H 473.696 -2.47554 -0.712375 0
M  V30 5156 H 473.654 -2.04603 -2.38715 0
M  V30 5157 N 477.426 -0.562348 -1.47226 0
M  V30 5158 C 478.374 0.195476 -2.31777 0
M  V30 5159 C 479.368 0.90433 -1.43242 0
M  V30 5160 O 480.574 0.825031 -1.59979 0
M  V30 5161 H 476.949 0.0819095 -0.747526 0
M  V30 5162 H 478.92 -0.536753 -2.93533 0
M  V30 5163 C 477.669 1.20902 -3.26003 0
M  V30 5164 H 476.992 0.672997 -3.94095 0
M  V30 5165 H 478.432 1.71006 -3.87986 0
M  V30 5166 C 476.891 2.25955 -2.49891 0
M  V30 5167 O 477.421 3.32969 -2.2471 0
M  V30 5168 N 475.627 2.00019 -2.1081 0
M  V30 5169 H 475.174 1.13006 -2.31489 0
M  V30 5170 H 475.132 2.70523 -1.60201 0
M  V30 5171 N 478.904 1.54736 -0.299062 0
M  V30 5172 C 479.867 2.22127 0.565012 0
M  V30 5173 C 480.867 1.20669 1.06281 0
M  V30 5174 O 482.057 1.45417 0.959145 0
M  V30 5175 C 479.189 2.90611 1.78208 0
M  V30 5176 H 480.382 2.99891 -0.0237448 0
M  V30 5177 H 477.935 1.5622 -0.0498788 0
M  V30 5178 H 478.67 2.16921 2.41072 0
M  V30 5179 H 478.455 3.64984 1.43281 0
M  V30 5180 H 479.945 3.42026 2.396 0
M  V30 5181 N 480.382 0.0267497 1.57577 0
M  V30 5182 C 481.292 -0.971633 2.13533 0
M  V30 5183 C 482.308 -1.35868 1.08701 0
M  V30 5184 O 483.484 -1.44058 1.40746 0
M  V30 5185 C 480.549 -2.23622 2.64941 0
M  V30 5186 C 479.61 -1.90982 3.8448 0
M  V30 5187 C 478.843 -3.11411 4.33427 0
M  V30 5188 O 479.066 -4.23992 3.81558 0
M  V30 5189 O 478 -2.93848 5.25297 0
M  V30 5190 H 481.826 -0.525853 2.99113 0
M  V30 5191 H 479.411 -0.193712 1.48139 0
M  V30 5192 H 481.293 -2.97864 2.98086 0
M  V30 5193 H 479.968 -2.67386 1.82446 0
M  V30 5194 H 478.875 -1.14132 3.56265 0
M  V30 5195 H 480.208 -1.52036 4.6813 0
M  V30 5196 N 481.861 -1.55662 -0.24637 0
M  V30 5197 C 482.791 -1.93377 -1.30873 0
M  V30 5198 C 483.772 -0.798773 -1.50179 0
M  V30 5199 O 484.957 -1.0591 -1.62778 0
M  V30 5200 C 482.087 -2.22893 -2.66338 0
M  V30 5201 C 481.041 -3.38649 -2.61727 0
M  V30 5202 C 480.367 -3.53708 -4.00992 0
M  V30 5203 C 481.667 -4.74323 -2.18666 0
M  V30 5204 H 483.361 -2.82363 -0.995552 0
M  V30 5205 H 480.907 -1.35854 -0.477464 0
M  V30 5206 H 482.86 -2.47866 -3.40794 0
M  V30 5207 H 481.584 -1.30733 -2.99293 0
M  V30 5208 H 480.243 -3.13685 -1.89729 0
M  V30 5209 H 479.891 -2.58967 -4.31214 0
M  V30 5210 H 479.591 -4.31551 -3.98795 0
M  V30 5211 H 481.115 -3.81003 -4.77147 0
M  V30 5212 H 482.529 -4.98665 -2.82854 0
M  V30 5213 H 480.926 -5.55273 -2.27579 0
M  V30 5214 H 481.996 -4.71349 -1.13834 0
M  V30 5215 N 483.339 0.512053 -1.4905 0
M  V30 5216 C 484.287 1.63568 -1.65373 0
M  V30 5217 C 485.281 1.61228 -0.519806 0
M  V30 5218 O 486.487 1.65869 -0.699101 0
M  V30 5219 H 482.862 0.542019 -0.521267 0
M  V30 5220 H 484.833 1.4695 -2.59708 0
M  V30 5221 C 483.582 3.01761 -1.7273 0
M  V30 5222 H 482.905 3.04263 -2.59353 0
M  V30 5223 H 484.345 3.79948 -1.8819 0
M  V30 5224 C 482.804 3.33609 -0.46973 0
M  V30 5225 O 483.334 3.99607 0.409492 0
M  V30 5226 N 481.54 2.88651 -0.336003 0
M  V30 5227 H 481.087 2.35119 -1.05247 0
M  V30 5228 H 481.045 3.10328 0.504363 0
M  V30 5229 N 484.817 1.37938 0.762283 0
M  V30 5230 C 485.78 1.34279 1.85747 0
M  V30 5231 C 486.78 0.244969 1.58923 0
M  V30 5232 O 487.97 0.501365 1.66829 0
M  V30 5233 C 485.102 1.08833 3.23061 0
M  V30 5234 H 486.295 2.31705 1.90401 0
M  V30 5235 H 483.848 1.23105 0.963057 0
M  V30 5236 H 484.583 0.119767 3.24079 0
M  V30 5237 H 484.368 1.88306 3.43923 0
M  V30 5238 H 485.858 1.08946 4.03138 0
M  V30 5239 N 486.295 -0.989507 1.22664 0
M  V30 5240 C 487.225 -2.09847 1.02404 0
M  V30 5241 C 488.206 -1.70007 -0.0561303 0
M  V30 5242 O 489.391 -1.93906 0.106748 0
M  V30 5243 C 486.521 -3.41996 0.604663 0
M  V30 5244 C 485.475 -3.95699 1.63115 0
M  V30 5245 C 484.801 -5.23936 1.0675 0
M  V30 5246 C 486.101 -4.25999 3.02196 0
M  V30 5247 H 487.795 -2.27054 1.95158 0
M  V30 5248 H 485.341 -1.09111 0.939727 0
M  V30 5249 H 487.294 -4.1899 0.45002 0
M  V30 5250 H 486.018 -3.24626 -0.35855 0
M  V30 5251 H 484.677 -3.2084 1.77362 0
M  V30 5252 H 484.325 -5.02909 0.0955422 0
M  V30 5253 H 484.025 -5.60833 1.75328 0
M  V30 5254 H 485.549 -6.0356 0.924516 0
M  V30 5255 H 486.963 -4.93777 2.91303 0
M  V30 5256 H 485.36 -4.74076 3.67929 0
M  V30 5257 H 486.43 -3.33636 3.51873 0
M  V30 5258 N 487.773 -1.03688 -1.18687 0
M  V30 5259 C 488.736 -0.629115 -2.20397 0
M  V30 5260 C 489.736 0.311495 -1.57754 0
M  V30 5261 O 490.926 0.0974107 -1.73927 0
M  V30 5262 C 488.058 0.0782231 -3.4081 0
M  V30 5263 H 489.251 -1.52915 -2.57987 0
M  V30 5264 H 486.804 -0.828988 -1.32505 0
M  V30 5265 H 487.539 0.992233 -3.08748 0
M  V30 5266 H 487.324 -0.597776 -3.87517 0
M  V30 5267 H 488.814 0.350156 -4.16129 0
M  V30 5268 N 489.251 1.34841 -0.815825 0
M  V30 5269 C 490.198 2.29644 -0.230664 0
M  V30 5270 C 491.168 1.53253 0.640533 0
M  V30 5271 O 492.353 1.81653 0.583672 0
M  V30 5272 C 489.493 3.39715 0.607275 0
M  V30 5273 C 488.606 4.31056 -0.28538 0
M  V30 5274 C 487.741 5.28225 0.561446 0
M  V30 5275 C 486.78 6.11204 -0.331035 0
M  V30 5276 N 485.917 7.00483 0.476302 0
M  V30 5277 H 490.757 2.79095 -1.0445 0
M  V30 5278 H 488.294 1.37351 -0.526595 0
M  V30 5279 H 490.252 4.02208 1.10835 0
M  V30 5280 H 488.882 2.91517 1.38629 0
M  V30 5281 H 487.934 3.69487 -0.904621 0
M  V30 5282 H 489.246 4.89239 -0.97193 0
M  V30 5283 H 488.4 5.96135 1.12728 0
M  V30 5284 H 487.139 4.70562 1.28153 0
M  V30 5285 H 486.144 5.42232 -0.909069 0
M  V30 5286 H 487.369 6.70947 -1.04912 0
M  V30 5287 H 485.315 6.45296 1.18019 0
M  V30 5288 H 485.232 7.55847 -0.152008 0
M  V30 5289 H 486.5 7.7273 1.02512 0
M  V30 5290 N 490.729 0.570148 1.46925 0
M  V30 5291 C 491.692 -0.159933 2.28641 0
M  V30 5292 C 492.692 -0.830638 1.37685 0
M  V30 5293 O 493.882 -0.684516 1.60187 0
M  V30 5294 C 491.014 -1.2354 3.17727 0
M  V30 5295 H 492.207 0.558035 2.94662 0
M  V30 5296 H 489.76 0.327603 1.52828 0
M  V30 5297 H 490.495 -1.98535 2.56426 0
M  V30 5298 H 490.28 -0.759125 3.84681 0
M  V30 5299 H 491.77 -1.74782 3.79264 0
M  V30 5300 N 492.207 -1.54576 0.307264 0
M  V30 5301 C 493.435 -2.04675 -0.302597 0
M  V30 5302 C 493.85 -1.18425 -1.47041 0
M  V30 5303 O 493.207 -0.211257 -1.81273 0
M  V30 5304 C 493.258 -3.53575 -0.752801 0
M  V30 5305 O 492.979 -4.36547 0.368536 0
M  V30 5306 C 494.48 -4.19699 -1.42717 0
M  V30 5307 H 491.7 -0.66786 -0.0648374 0
M  V30 5308 H 494.244 -1.99516 0.448716 0
M  V30 5309 H 492.399 -3.59074 -1.45412 0
M  V30 5310 H 492.813 -5.24497 0.0168937 0
M  V30 5311 H 494.287 -5.25388 -1.69327 0
M  V30 5312 H 494.764 -3.69815 -2.36925 0
M  V30 5313 H 495.37 -4.18293 -0.768856 0
M  V30 5314 N 493.685 -0.035106 -1.57561 0
M  V30 5315 C 494.931 0.64318 -1.92331 0
M  V30 5316 C 495.264 1.71434 -0.912368 0
M  V30 5317 O 494.539 1.94395 0.0640303 0
M  V30 5318 C 494.822 1.25411 -3.37556 0
M  V30 5319 C 494.675 0.192109 -4.4939 0
M  V30 5320 C 495.994 2.17041 -3.82859 0
M  V30 5321 H 493.113 0.232341 -0.699419 0
M  V30 5322 H 495.755 -0.0935889 -1.89769 0
M  V30 5323 H 493.905 1.88205 -3.39869 0
M  V30 5324 H 495.577 -0.438849 -4.59208 0
M  V30 5325 H 493.82 -0.481725 -4.31117 0
M  V30 5326 H 494.491 0.659292 -5.48049 0
M  V30 5327 H 496.967 1.64228 -3.8232 0
M  V30 5328 H 495.843 2.56738 -4.85157 0
M  V30 5329 H 496.104 3.06401 -3.18702 0
M  V30 5330 N 495.163 1.55791 0.238111 0
M  V30 5331 C 496.11 1.9105 1.29493 0
M  V30 5332 C 497.08 0.765733 1.47397 0
M  V30 5333 O 498.265 1.02017 1.61236 0
M  V30 5334 C 495.405 2.21826 2.64362 0
M  V30 5335 C 494.518 3.49153 2.54394 0
M  V30 5336 C 493.653 3.69455 3.81676 0
M  V30 5337 C 492.692 4.90353 3.66361 0
M  V30 5338 N 491.829 5.07131 4.85554 0
M  V30 5339 H 496.669 2.81172 0.987233 0
M  V30 5340 H 494.206 1.39179 0.476203 0
M  V30 5341 H 496.164 2.37675 3.4288 0
M  V30 5342 H 494.794 1.34897 2.93262 0
M  V30 5343 H 493.846 3.41587 1.67399 0
M  V30 5344 H 495.158 4.37818 2.38991 0
M  V30 5345 H 494.312 3.85311 4.68636 0
M  V30 5346 H 493.051 2.7904 3.99985 0
M  V30 5347 H 492.056 4.74464 2.77784 0
M  V30 5348 H 493.281 5.82237 3.49538 0
M  V30 5349 H 491.227 4.19654 5.04209 0
M  V30 5350 H 491.144 5.89899 4.72816 0
M  V30 5351 H 492.412 5.27407 5.73988 0
M  V30 5352 N 496.642 -0.504142 1.49319 0
M  V30 5353 C 497.552 -1.63248 1.68486 0
M  V30 5354 C 498.568 -1.64488 0.567432 0
M  V30 5355 O 499.744 -1.82966 0.841749 0
M  V30 5356 C 496.809 -2.99627 1.74426 0
M  V30 5357 C 495.87 -3.09039 2.97982 0
M  V30 5358 C 495.103 -4.38913 3.0363 0
M  V30 5359 O 495.326 -5.27528 2.16958 0
M  V30 5360 O 494.26 -4.53231 3.96062 0
M  V30 5361 H 498.086 -1.50008 2.64067 0
M  V30 5362 H 495.671 -0.680086 1.33023 0
M  V30 5363 H 497.553 -3.80689 1.80705 0
M  V30 5364 H 496.228 -3.13136 0.820233 0
M  V30 5365 H 495.135 -2.27177 2.97223 0
M  V30 5366 H 496.468 -3.00456 3.89855 0
M  V30 5367 N 498.12 -1.38341 -0.754957 0
M  V30 5368 C 499.05 -1.38176 -1.88227 0
M  V30 5369 C 500.031 -0.247873 -1.68284 0
M  V30 5370 O 501.216 -0.45075 -1.88896 0
M  V30 5371 C 498.346 -1.20471 -3.25736 0
M  V30 5372 C 497.3 -2.3105 -3.60278 0
M  V30 5373 C 496.626 -1.98452 -4.96509 0
M  V30 5374 C 497.926 -3.73305 -3.65295 0
M  V30 5375 H 499.62 -2.32512 -1.88622 0
M  V30 5376 H 497.166 -1.1192 -0.906082 0
M  V30 5377 H 499.119 -1.18982 -4.04254 0
M  V30 5378 H 497.843 -0.225965 -3.25817 0
M  V30 5379 H 496.502 -2.31723 -2.84078 0
M  V30 5380 H 496.15 -0.990641 -4.93148 0
M  V30 5381 H 495.85 -2.7251 -5.20588 0
M  V30 5382 H 497.374 -1.98578 -5.77407 0
M  V30 5383 H 498.788 -3.7467 -4.3393 0
M  V30 5384 H 497.185 -4.46557 -4.00883 0
M  V30 5385 H 498.255 -4.05719 -2.65556 0
M  V30 5386 N 499.598 0.982988 -1.23187 0
M  V30 5387 C 500.561 2.05649 -1.01198 0
M  V30 5388 C 501.561 1.6078 0.0252464 0
M  V30 5389 O 502.751 1.72878 -0.214243 0
M  V30 5390 C 499.883 3.36744 -0.530656 0
M  V30 5391 H 501.076 2.2659 -1.96461 0
M  V30 5392 H 498.629 1.15602 -1.05195 0
M  V30 5393 H 499.364 3.21492 0.425873 0
M  V30 5394 H 499.149 3.7065 -1.2791 0
M  V30 5395 H 500.639 4.15705 -0.397366 0
M  V30 5396 N 501.076 1.04316 1.18135 0
M  V30 5397 C 502.301 0.768047 1.92655 0
M  V30 5398 C 502.726 -0.66904 1.758 0
M  V30 5399 O 502.084 -1.46372 1.06981 0
M  V30 5400 C 502.132 1.14239 3.42026 0
M  V30 5401 O 501.236 0.269333 4.1152 0
M  V30 5402 H 500.577 0.282436 0.600937 0
M  V30 5403 H 503.107 1.39367 1.49793 0
M  V30 5404 H 503.117 1.10538 3.92741 0
M  V30 5405 H 501.792 2.18928 3.53615 0
M  V30 5406 H 500.369 0.366175 3.71098 0
M  V30 5407 N 502.554 -1.34406 0.822964 0
M  V30 5408 C 503.484 -2.32052 0.259608 0
M  V30 5409 C 504.465 -1.58243 -0.623961 0
M  V30 5410 O 505.65 -1.86224 -0.55083 0
M  V30 5411 C 502.78 -3.42434 -0.579314 0
M  V30 5412 C 501.734 -4.27499 0.20712 0
M  V30 5413 C 501.06 -5.29349 -0.754547 0
M  V30 5414 C 502.36 -5.02758 1.41533 0
M  V30 5415 H 504.054 -2.79418 1.07545 0
M  V30 5416 H 501.6 -1.34338 0.518593 0
M  V30 5417 H 503.553 -4.0976 -0.983612 0
M  V30 5418 H 502.277 -2.93717 -1.4282 0
M  V30 5419 H 500.936 -3.61776 0.592787 0
M  V30 5420 H 500.584 -4.76895 -1.59939 0
M  V30 5421 H 500.284 -5.8714 -0.232561 0
M  V30 5422 H 501.808 -5.99544 -1.1567 0
M  V30 5423 H 503.222 -5.62938 1.08504 0
M  V30 5424 H 501.619 -5.70123 1.87296 0
M  V30 5425 H 502.689 -4.32451 2.1935 0
M  V30 5426 N 504.032 -0.577932 -1.46621 0
M  V30 5427 C 504.982 0.178869 -2.27297 0
M  V30 5428 C 505.966 0.866279 -1.35589 0
M  V30 5429 O 507.158 0.761163 -1.59798 0
M  V30 5430 C 504.287 1.19499 -3.2183 0
M  V30 5431 C 503.373 0.50994 -4.21023 0
M  V30 5432 N 503.764 -0.43177 -5.03954 0
M  V30 5433 C 502.062 0.761287 -4.39455 0
M  V30 5434 C 502.763 -0.831693 -5.75724 0
M  V30 5435 N 501.739 -0.181897 -5.43296 0
M  V30 5436 H 505.541 -0.544859 -2.88805 0
M  V30 5437 H 503.055 -0.399373 -1.57413 0
M  V30 5438 H 505.052 1.75131 -3.78332 0
M  V30 5439 H 503.712 1.91959 -2.61881 0
M  V30 5440 H 504.723 -0.807045 -5.11573 0
M  V30 5441 H 501.4 1.47282 -3.90659 0
M  V30 5442 H 502.79 -1.6067 -6.52407 0
M  V30 5443 N 505.51 1.54411 -0.315457 0
M  V30 5444 C 506.758 2.00023 0.288971 0
M  V30 5445 C 507.079 1.20529 1.5329 0
M  V30 5446 O 506.349 0.304986 1.93511 0
M  V30 5447 H 504.929 0.738891 0.109766 0
M  V30 5448 H 507.591 1.90094 -0.430129 0
M  V30 5449 H 506.687 3.07198 0.550999 0
M  V30 5450 N 506.988 0.0434614 1.5754 0
M  V30 5451 C 508.216 -0.641835 1.96693 0
M  V30 5452 C 508.631 -1.64832 0.920652 0
M  V30 5453 O 507.988 -1.82247 -0.095993 0
M  V30 5454 C 508.039 -1.33557 3.35924 0
M  V30 5455 O 507.76 -0.369403 4.3654 0
M  V30 5456 C 509.261 -2.11135 3.89791 0
M  V30 5457 H 506.481 -0.176013 0.647503 0
M  V30 5458 H 509.025 0.107478 2.04217 0
M  V30 5459 H 507.18 -2.03617 3.29574 0
M  V30 5460 H 507.594 -0.863674 5.1734 0
M  V30 5461 H 509.068 -2.55107 4.89514 0
M  V30 5462 H 509.545 -2.95634 3.24803 0
M  V30 5463 H 510.151 -1.46002 3.99454 0
M  V30 5464 N 508.466 -1.55915 -0.229846 0
M  V30 5465 C 509.413 -1.91734 -1.28478 0
M  V30 5466 C 510.383 -0.773539 -1.46988 0
M  V30 5467 O 511.568 -1.02871 -1.60693 0
M  V30 5468 C 508.708 -2.23224 -2.63182 0
M  V30 5469 C 507.821 -3.50497 -2.52539 0
M  V30 5470 C 506.956 -3.71474 -3.79711 0
M  V30 5471 C 505.995 -4.92289 -3.63755 0
M  V30 5472 N 505.132 -5.09698 -4.82858 0
M  V30 5473 H 509.972 -2.81692 -0.972308 0
M  V30 5474 H 507.509 -1.39429 -0.468815 0
M  V30 5475 H 509.467 -2.3949 -3.41614 0
M  V30 5476 H 508.097 -1.36451 -2.92542 0
M  V30 5477 H 507.149 -3.4247 -1.65585 0
M  V30 5478 H 508.461 -4.39079 -2.36666 0
M  V30 5479 H 507.615 -3.87791 -4.66586 0
M  V30 5480 H 506.354 -2.81157 -3.985 0
M  V30 5481 H 505.359 -4.7593 -2.75264 0
M  V30 5482 H 506.584 -5.84083 -3.46445 0
M  V30 5483 H 504.53 -4.22322 -5.01976 0
M  V30 5484 H 504.447 -5.92399 -4.69681 0
M  V30 5485 H 505.715 -5.30443 -5.71183 0
M  V30 5486 N 509.944 0.496216 -1.49584 0
M  V30 5487 C 511.174 1.27209 -1.62793 0
M  V30 5488 C 511.582 1.86799 -0.300476 0
M  V30 5489 O 510.925 1.68802 0.724674 0
M  V30 5490 C 510.987 2.43812 -2.64189 0
M  V30 5491 C 510.651 2.05055 -4.08414 0
M  V30 5492 C 511.648 1.58752 -4.9507 0
M  V30 5493 C 509.333 2.14543 -4.54177 0
M  V30 5494 C 511.327 1.22448 -6.25528 0
M  V30 5495 C 509.014 1.77851 -5.84647 0
M  V30 5496 C 510.012 1.31878 -6.70147 0
M  V30 5497 O 509.7 0.956834 -7.98185 0
M  V30 5498 H 509.432 0.391848 -0.550846 0
M  V30 5499 H 511.986 0.601712 -1.96389 0
M  V30 5500 H 510.216 3.13941 -2.25783 0
M  V30 5501 H 511.905 3.05829 -2.66877 0
M  V30 5502 H 512.671 1.50863 -4.60939 0
M  V30 5503 H 508.55 2.49277 -3.87791 0
M  V30 5504 H 512.094 0.864933 -6.92217 0
M  V30 5505 H 507.991 1.8539 -6.18305 0
M  V30 5506 H 508.759 1.08789 -8.11238 0
M  V30 5507 N 511.423 1.38739 0.74761 0
M  V30 5508 C 512.651 1.38521 1.53686 0
M  V30 5509 C 513.066 -0.0235129 1.88785 0
M  V30 5510 O 512.423 -0.991662 1.53207 0
M  V30 5511 C 512.474 2.24641 2.83229 0
M  V30 5512 O 512.195 3.60026 2.49625 0
M  V30 5513 C 513.696 2.32669 3.77333 0
M  V30 5514 H 510.916 0.473589 0.475347 0
M  V30 5515 H 513.46 1.82395 0.924786 0
M  V30 5516 H 511.615 1.84213 3.40799 0
M  V30 5517 H 512.029 4.05435 3.3275 0
M  V30 5518 H 513.503 2.97201 4.65162 0
M  V30 5519 H 513.98 1.3421 4.18192 0
M  V30 5520 H 514.586 2.73512 3.25685 0
M  V30 5521 N 512.901 -0.976442 1.23707 0
M  V30 5522 C 514.131 -1.75087 1.09673 0
M  V30 5523 C 514.539 -1.85852 -0.354344 0
M  V30 5524 O 513.882 -1.33985 -1.25673 0
M  V30 5525 C 513.944 -3.19272 1.65245 0
M  V30 5526 C 513.608 -3.32004 3.14042 0
M  V30 5527 C 514.605 -3.18017 4.11292 0
M  V30 5528 C 512.29 -3.56525 3.53829 0
M  V30 5529 C 514.284 -3.28363 5.46312 0
M  V30 5530 C 511.971 -3.6651 4.88993 0
M  V30 5531 C 512.969 -3.52439 5.85043 0
M  V30 5532 O 512.657 -3.62063 7.1775 0
M  V30 5533 H 512.389 -0.556164 0.384262 0
M  V30 5534 H 514.943 -1.23518 1.64111 0
M  V30 5535 H 513.173 -3.72107 1.05231 0
M  V30 5536 H 514.862 -3.7849 1.46629 0
M  V30 5537 H 515.628 -2.98966 3.81896 0
M  V30 5538 H 511.507 -3.66547 2.79579 0
M  V30 5539 H 515.051 -3.17297 6.21263 0
M  V30 5540 H 510.948 -3.85072 5.18063 0
M  V30 5541 H 511.716 -3.78833 7.25553 0
M  V30 5542 N 514.379 -1.04941 -1.1758 0
M  V30 5543 C 515.627 -0.756492 -1.87408 0
M  V30 5544 C 515.948 0.718478 -1.81281 0
M  V30 5545 O 515.218 1.519 -1.23706 0
M  V30 5546 H 513.798 -0.276841 -0.693807 0
M  V30 5547 H 516.46 -1.32803 -1.42652 0
M  V30 5548 H 515.556 -1.06918 -2.93215 0
M  V30 5549 N 515.857 1.33968 -0.830081 0
M  V30 5550 C 517.268 1.80439 -0.479455 0
M  V30 5551 C 517.619 1.68756 1.00079 0
M  V30 5552 O 516.744 1.23171 1.77927 0
M  V30 5553 C 517.339 3.27611 -0.863505 0
M  V30 5554 C 515.898 3.72133 -0.565145 0
M  V30 5555 C 515.045 2.55549 -1.07657 0
M  V30 5556 H 517.996 1.21614 -1.0196 0
M  V30 5557 H 518.017 3.8012 -0.170083 0
M  V30 5558 H 517.529 3.36082 -1.94089 0
M  V30 5559 H 515.63 3.69196 0.502536 0
M  V30 5560 H 515.743 4.65963 -1.11422 0
M  V30 5561 H 514.107 2.49788 -0.497807 0
M  V30 5562 H 514.89 2.66786 -2.16055 0
M  V30 5563 N 517.335 0.585699 1.46312 0
M  V30 5564 C 518.583 0.072278 2.01971 0
M  V30 5565 C 518.904 -1.29345 1.45928 0
M  V30 5566 O 518.174 -1.84973 0.645109 0
M  V30 5567 H 516.754 0.023729 0.746623 0
M  V30 5568 H 519.416 0.762155 1.7938 0
M  V30 5569 H 518.512 0.00552767 3.121 0
M  V30 5570 N 518.813 -1.54241 0.323641 0
M  V30 5571 C 519.776 -2.22997 -0.529602 0
M  V30 5572 C 520.776 -1.22345 -1.04347 0
M  V30 5573 O 521.966 -1.46924 -0.935889 0
M  V30 5574 C 519.098 -2.93409 -1.73562 0
M  V30 5575 H 520.291 -2.99815 0.0714518 0
M  V30 5576 H 517.844 -1.56121 0.0747258 0
M  V30 5577 H 518.579 -2.20729 -2.37591 0
M  V30 5578 H 518.364 -3.67217 -1.37456 0
M  V30 5579 H 519.854 -3.45794 -2.34128 0
M  V30 5580 N 520.291 -0.0518155 -1.57515 0
M  V30 5581 C 521.519 0.631395 -1.9703 0
M  V30 5582 C 521.934 1.64341 -0.92938 0
M  V30 5583 O 521.291 1.82296 0.0863266 0
M  V30 5584 C 521.342 1.31774 -3.36627 0
M  V30 5585 O 521.063 0.346247 -4.3673 0
M  V30 5586 C 522.564 2.09065 -3.90905 0
M  V30 5587 H 519.784 0.172576 -0.648428 0
M  V30 5588 H 522.328 -0.118306 -2.04158 0
M  V30 5589 H 520.483 2.01867 -3.30649 0
M  V30 5590 H 520.897 0.836226 -5.17791 0
M  V30 5591 H 522.371 2.52508 -4.9086 0
M  V30 5592 H 522.848 2.93908 -3.26366 0
M  V30 5593 H 523.454 1.43882 -4.00223 0
M  V30 5594 N 521.769 1.56035 0.221574 0
M  V30 5595 C 522.997 1.8313 0.962864 0
M  V30 5596 C 523.412 0.630934 1.77946 0
M  V30 5597 O 522.769 -0.400519 1.78051 0
M  V30 5598 C 522.82 3.08742 1.88045 0
M  V30 5599 O 522.541 4.24147 1.09686 0
M  V30 5600 C 524.042 3.48824 2.73563 0
M  V30 5601 H 521.262 0.608775 0.282194 0
M  V30 5602 H 523.806 2.03124 0.23681 0
M  V30 5603 H 521.961 2.90723 2.56045 0
M  V30 5604 H 522.375 4.95505 1.71974 0
M  V30 5605 H 523.849 4.39752 3.3365 0
M  V30 5606 H 524.326 2.70575 3.45956 0
M  V30 5607 H 524.932 3.69282 2.10976 0
M  V30 5608 N 523.247 -0.488276 1.49845 0
M  V30 5609 C 524.496 -1.23826 1.59217 0
M  V30 5610 C 524.809 -1.93439 0.289966 0
M  V30 5611 O 526.015 -2.70229 0.262382 0
M  V30 5612 C 524.471 -2.24902 2.80976 0
M  V30 5613 C 524.079 -1.6117 4.18005 0
M  V30 5614 C 525.823 -3.00648 2.99685 0
M  V30 5615 C 523.73 -2.60431 5.3097 0
M  V30 5616 H 522.66 -0.465858 0.592868 0
M  V30 5617 H 525.311 -0.510645 1.76252 0
M  V30 5618 H 523.693 -3.0088 2.57463 0
M  V30 5619 H 524.867 -0.910968 4.51706 0
M  V30 5620 H 523.182 -0.97767 4.0476 0
M  V30 5621 H 525.779 -3.74903 3.81251 0
M  V30 5622 H 526.122 -3.5902 2.10738 0
M  V30 5623 H 526.655 -2.31784 3.23297 0
M  V30 5624 H 523.394 -2.06823 6.22017 0
M  V30 5625 H 522.914 -3.28707 5.01709 0
M  V30 5626 H 524.593 -3.22606 5.60834 0
M  V30 5627 N 524.725 -1.39134 -0.740242 0
M  V30 5628 C 525.955 -1.39132 -1.52728 0
M  V30 5629 C 526.363 0.0173133 -1.89192 0
M  V30 5630 O 525.706 0.997715 -1.54244 0
M  V30 5631 C 525.768 -2.1952 -2.84695 0
M  V30 5632 C 525.432 -3.68203 -2.70695 0
M  V30 5633 C 526.429 -4.61401 -2.39593 0
M  V30 5634 C 524.114 -4.11724 -2.8773 0
M  V30 5635 C 526.108 -5.96102 -2.25701 0
M  V30 5636 C 523.795 -5.46503 -2.73456 0
M  V30 5637 C 524.793 -6.38506 -2.42486 0
M  V30 5638 O 524.481 -7.70803 -2.28295 0
M  V30 5639 H 524.213 -0.477263 -0.478744 0
M  V30 5640 H 526.767 -1.83504 -0.922799 0
M  V30 5641 H 524.997 -1.69888 -3.47383 0
M  V30 5642 H 526.686 -2.1176 -3.46284 0
M  V30 5643 H 527.452 -4.29079 -2.26088 0
M  V30 5644 H 523.331 -3.4045 -3.10829 0
M  V30 5645 H 526.875 -6.6788 -2.0145 0
M  V30 5646 H 522.772 -5.78417 -2.86538 0
M  V30 5647 H 523.54 -7.8147 -2.43405 0
M  V30 5648 N 526.204 0.969867 -1.24223 0
M  V30 5649 C 527.615 1.52717 -1.07399 0
M  V30 5650 C 527.966 1.92956 0.355298 0
M  V30 5651 O 527.091 1.77112 1.2434 0
M  V30 5652 C 527.686 2.77521 -1.94339 0
M  V30 5653 C 526.245 3.29615 -1.81744 0
M  V30 5654 C 525.392 2.02537 -1.89405 0
M  V30 5655 H 528.343 0.788399 -1.37732 0
M  V30 5656 H 528.364 3.50773 -1.47439 0
M  V30 5657 H 527.876 2.48203 -2.98357 0
M  V30 5658 H 525.977 3.63789 -0.805505 0
M  V30 5659 H 526.09 3.98661 -2.65718 0
M  V30 5660 H 524.454 2.17151 -1.33108 0
M  V30 5661 H 525.237 1.75587 -2.94999 0
M  V30 5662 N 527.682 1.05563 1.17022 0
M  V30 5663 C 528.645 0.664098 2.19368 0
M  V30 5664 C 529.645 -0.286358 1.5823 0
M  V30 5665 O 530.835 -0.069728 1.7406 0
M  V30 5666 C 527.967 -0.0239932 3.40892 0
M  V30 5667 H 529.16 1.57 2.55521 0
M  V30 5668 H 526.713 0.849964 1.31169 0
M  V30 5669 H 527.448 -0.942988 3.10287 0
M  V30 5670 H 527.233 0.659351 3.86516 0
M  V30 5671 H 528.723 -0.283909 4.16634 0
M  V30 5672 N 529.16 -1.33526 0.837174 0
M  V30 5673 C 530.123 -2.27551 0.274421 0
M  V30 5674 C 531.123 -1.50886 -0.555881 0
M  V30 5675 O 532.313 -1.70227 -0.369918 0
M  V30 5676 C 529.445 -3.35332 -0.613605 0
M  V30 5677 H 530.638 -2.78837 1.10408 0
M  V30 5678 H 528.191 -1.439 0.610126 0
M  V30 5679 H 528.926 -2.89285 -1.46577 0
M  V30 5680 H 528.711 -3.92095 -0.0195341 0
M  V30 5681 H 530.201 -4.05433 -1.00068 0
M  V30 5682 N 530.638 -0.59345 -1.46 0
M  V30 5683 C 531.886 -0.082988 -2.0193 0
M  V30 5684 C 532.207 1.28569 -1.46612 0
M  V30 5685 O 531.477 1.84629 -0.654909 0
M  V30 5686 H 530.057 -0.0276882 -0.746487 0
M  V30 5687 H 532.719 -0.771657 -1.78973 0
M  V30 5688 H 531.815 -0.022079 -3.12092 0
M  V30 5689 N 532.116 1.54067 -0.331816 0
M  V30 5690 C 533.364 2.00319 0.267739 0
M  V30 5691 C 533.685 1.22148 1.52003 0
M  V30 5692 O 532.955 0.325494 1.93177 0
M  V30 5693 H 531.535 0.740014 0.101922 0
M  V30 5694 H 534.197 1.89628 -0.450267 0
M  V30 5695 H 533.293 3.07765 0.518385 0
M  V30 5696 N 533.594 0.0601682 1.57485 0
M  V30 5697 C 534.819 -0.624416 1.97777 0
M  V30 5698 C 535.244 -1.63051 0.937867 0
M  V30 5699 O 534.602 -1.81036 -0.0978845 0
M  V30 5700 C 534.65 -1.27979 3.37126 0
M  V30 5701 O 533.754 -2.39556 3.35688 0
M  V30 5702 H 533.095 -0.161581 0.64404 0
M  V30 5703 H 535.625 0.131237 2.04179 0
M  V30 5704 H 535.635 -1.62937 3.74053 0
M  V30 5705 H 534.31 -0.542501 4.12347 0
M  V30 5706 H 532.887 -2.06478 3.10517 0
M  V30 5707 N 535.072 -1.5615 -0.213296 0
M  V30 5708 C 536.349 -1.70349 -0.961281 0
M  V30 5709 C 536.729 -0.609791 -2.02101 0
M  V30 5710 O 536.077 0.381987 -2.25285 0
M  V30 5711 C 536.287 -3.11982 -1.56424 0
M  V30 5712 C 537.635 -3.71649 -2.05334 0
M  V30 5713 O 538.659 -3.14995 -1.66302 0
M  V30 5714 O 537.518 -4.71038 -2.77102 0
M  V30 5715 H 534.612 -0.694121 -0.449582 0
M  V30 5716 H 537.158 -1.68464 -0.204426 0
M  V30 5717 H 535.93 -3.83046 -0.799457 0
M  V30 5718 H 535.553 -3.18019 -2.38641 0
M  V30 5719 N 536.55 0.480323 -1.50102 0
M  V30 5720 C 537.827 1.24159 -1.51142 0
M  V30 5721 C 538.207 2.09605 -0.250818 0
M  V30 5722 O 537.555 2.15274 0.766118 0
M  V30 5723 C 537.765 2.08057 -2.80202 0
M  V30 5724 C 539.113 2.66556 -3.30504 0
M  V30 5725 O 540.137 2.18308 -2.81461 0
M  V30 5726 O 538.996 3.54442 -4.15973 0
M  V30 5727 H 536.09 0.562928 -0.605839 0
M  V30 5728 H 538.636 0.492899 -1.62384 0
M  V30 5729 H 537.408 1.45032 -3.6343 0
M  V30 5730 H 537.031 2.90079 -2.71919 0
M  V30 5731 N 538.028 1.39524 0.732853 0
M  V30 5732 C 539.274 1.38072 1.49358 0
M  V30 5733 C 539.629 -0.0227943 1.92386 0
M  V30 5734 O 538.922 -0.98976 1.64056 0
M  V30 5735 C 539.116 2.28916 2.74468 0
M  V30 5736 C 538.945 3.7796 2.43673 0
M  V30 5737 C 537.715 4.46874 2.35863 0
M  V30 5738 C 539.913 4.69886 2.09074 0
M  V30 5739 N 537.895 5.81242 1.97561 0
M  V30 5740 C 539.266 5.9292 1.81234 0
M  V30 5741 C 541.321 4.57887 1.95561 0
M  V30 5742 C 540.024 7.05297 1.41242 0
M  V30 5743 C 542.05 5.70187 1.56972 0
M  V30 5744 C 541.412 6.92297 1.30018 0
M  V30 5745 H 537.511 0.56051 0.5453 0
M  V30 5746 H 540.095 1.75093 0.85151 0
M  V30 5747 H 538.266 1.9405 3.36451 0
M  V30 5748 H 539.998 2.18441 3.40684 0
M  V30 5749 H 536.753 4.00341 2.5303 0
M  V30 5750 H 537.177 6.52356 1.80997 0
M  V30 5751 H 541.819 3.64014 2.15067 0
M  V30 5752 H 539.537 7.99069 1.20476 0
M  V30 5753 H 543.123 5.62892 1.47119 0
M  V30 5754 H 542.003 7.7772 1.00605 0
M  V30 5755 N 539.506 -0.963266 1.24736 0
M  V30 5756 C 540.469 -2.04013 1.04457 0
M  V30 5757 C 541.469 -1.608 0.000335555 0
M  V30 5758 O 542.659 -1.72515 0.241719 0
M  V30 5759 C 539.791 -3.35858 0.584162 0
M  V30 5760 H 540.984 -2.23436 2.00041 0
M  V30 5761 H 538.537 -1.13914 1.07021 0
M  V30 5762 H 539.272 -3.22128 -0.374673 0
M  V30 5763 H 539.057 -3.68568 1.3379 0
M  V30 5764 H 540.547 -4.1502 0.463451 0
M  V30 5765 N 540.985 -1.06182 -1.16461 0
M  V30 5766 C 542.215 -0.797425 -1.9059 0
M  V30 5767 C 542.623 0.651845 -1.77616 0
M  V30 5768 O 541.966 1.45788 -1.11766 0
M  V30 5769 C 542.028 -1.11128 -3.41893 0
M  V30 5770 C 541.692 -2.55874 -3.78652 0
M  V30 5771 C 542.689 -3.54104 -3.80665 0
M  V30 5772 C 540.374 -2.91144 -4.09317 0
M  V30 5773 C 542.368 -4.85645 -4.12829 0
M  V30 5774 C 540.055 -4.22885 -4.41148 0
M  V30 5775 C 541.053 -5.19945 -4.42883 0
M  V30 5776 O 540.741 -6.49322 -4.73959 0
M  V30 5777 H 540.473 -0.288709 -0.611247 0
M  V30 5778 H 543.027 -1.41841 -1.4856 0
M  V30 5779 H 541.257 -0.433217 -3.84266 0
M  V30 5780 H 542.946 -0.831306 -3.97296 0
M  V30 5781 H 543.712 -3.28197 -3.57088 0
M  V30 5782 H 539.591 -2.16252 -4.07131 0
M  V30 5783 H 543.135 -5.61398 -4.14099 0
M  V30 5784 H 539.032 -4.48551 -4.6419 0
M  V30 5785 H 539.8 -6.54294 -4.91774 0
M  V30 5786 N 542.463 1.3308 -0.844243 0
M  V30 5787 C 543.74 1.92178 -0.364261 0
M  V30 5788 C 544.12 1.76961 1.15101 0
M  V30 5789 O 543.468 1.16128 1.9679 0
M  V30 5790 C 543.678 3.393 -0.817106 0
M  V30 5791 C 545.026 4.16444 -0.828236 0
M  V30 5792 O 546.05 3.47975 -0.761062 0
M  V30 5793 O 544.909 5.38685 -0.920926 0
M  V30 5794 H 542.003 0.820411 -0.10419 0
M  V30 5795 H 544.549 1.41918 -0.930453 0
M  V30 5796 H 543.321 3.44272 -1.85991 0
M  V30 5797 H 542.944 3.96947 -0.227785 0
M  V30 5798 N 543.941 0.601185 1.45683 0
M  V30 5799 C 544.873 -0.159446 2.28645 0
M  V30 5800 C 545.886 -0.837882 1.39583 0
M  V30 5801 O 547.075 -0.704344 1.64016 0
M  V30 5802 C 544.175 -1.24641 3.15147 0
M  V30 5803 C 543.348 -0.656334 4.32448 0
M  V30 5804 C 542.407 -1.63337 5.00208 0
M  V30 5805 O 541.433 -1.16217 5.57209 0
M  V30 5806 N 542.635 -2.96773 4.98905 0
M  V30 5807 H 545.4 0.5524 2.94565 0
M  V30 5808 H 542.961 0.440223 1.558 0
M  V30 5809 H 544.953 -1.8997 3.57342 0
M  V30 5810 H 543.523 -1.86087 2.51178 0
M  V30 5811 H 542.743 0.174879 3.93812 0
M  V30 5812 H 544.031 -0.242211 5.08223 0
M  V30 5813 H 543.429 -3.37662 4.53873 0
M  V30 5814 H 541.986 -3.57541 5.44984 0
M  V30 5815 N 545.419 -1.53889 0.339982 0
M  V30 5816 C 546.667 -2.00458 -0.257112 0
M  V30 5817 C 546.988 -1.22953 -1.51353 0
M  V30 5818 O 546.258 -0.335734 -1.93002 0
M  V30 5819 H 544.838 -0.740544 -0.0979965 0
M  V30 5820 H 547.5 -1.89386 0.460317 0
M  V30 5821 H 546.596 -3.08035 -0.502057 0
M  V30 5822 N 546.897 -0.0685191 -1.57451 0
M  V30 5823 C 548.146 0.600898 -1.92541 0
M  V30 5824 C 548.459 1.70967 -0.950239 0
M  V30 5825 O 549.665 2.43844 -1.19384 0
M  V30 5826 C 548.121 1.12019 -3.42023 0
M  V30 5827 C 547.729 0.0426028 -4.4798 0
M  V30 5828 C 549.473 1.76386 -3.86119 0
M  V30 5829 C 547.38 0.575759 -5.88591 0
M  V30 5830 H 546.31 0.228225 -0.71863 0
M  V30 5831 H 548.961 -0.140223 -1.82963 0
M  V30 5832 H 547.343 1.91418 -3.46663 0
M  V30 5833 H 548.517 -0.73182 -4.54952 0
M  V30 5834 H 546.832 -0.504642 -4.13331 0
M  V30 5835 H 549.429 2.17302 -4.88553 0
M  V30 5836 H 549.772 2.62255 -3.23308 0
M  V30 5837 H 550.305 1.03615 -3.84069 0
M  V30 5838 H 547.044 -0.245691 -6.55039 0
M  V30 5839 H 546.564 1.31778 -5.85145 0
M  V30 5840 H 548.243 1.0532 -6.3837 0
M  V30 5841 N 548.375 1.56261 0.205012 0
M  V30 5842 C 549.791 1.49623 0.555433 0
M  V30 5843 C 549.991 0.766719 1.86343 0
M  V30 5844 O 549.047 0.313158 2.50551 0
M  V30 5845 C 550.36 2.94253 0.619347 0
M  V30 5846 C 551.908 3.04868 0.708855 0
M  V30 5847 C 552.383 4.50888 0.803969 0
M  V30 5848 N 553.874 4.54999 0.867758 0
M  V30 5849 C 554.609 5.65284 0.96135 0
M  V30 5850 N 554.105 6.85282 1.01786 0
M  V30 5851 N 555.898 5.53174 0.997771 0
M  V30 5852 H 548.049 2.0211 -0.653094 0
M  V30 5853 H 550.312 0.919333 -0.231366 0
M  V30 5854 H 550.018 3.50643 -0.272458 0
M  V30 5855 H 549.892 3.47063 1.47741 0
M  V30 5856 H 552.279 2.48532 1.5911 0
M  V30 5857 H 552.36 2.55199 -0.175205 0
M  V30 5858 H 552.004 5.07846 -0.0738798 0
M  V30 5859 H 551.934 4.98279 1.70369 0
M  V30 5860 H 554.425 3.68588 0.833735 0
M  V30 5861 H 554.738 7.65081 1.08951 0
M  V30 5862 H 553.083 6.8796 0.986706 0
M  V30 5863 H 556.274 4.5835 0.950392 0
M  V30 5864 H 556.447 6.39151 1.06725 0
M  V30 5865 N 549.853 -0.472356 1.50355 0
M  V30 5866 C 551.083 -1.24603 1.64796 0
M  V30 5867 C 551.491 -1.86297 0.330156 0
M  V30 5868 O 550.834 -1.69934 -0.697728 0
M  V30 5869 C 550.896 -2.39578 2.68035 0
M  V30 5870 C 550.56 -1.98531 4.11624 0
M  V30 5871 C 551.557 -1.50856 4.97532 0
M  V30 5872 C 549.242 -2.0729 4.57532 0
M  V30 5873 C 551.236 -1.12481 6.27397 0
M  V30 5874 C 548.923 -1.68527 5.87403 0
M  V30 5875 C 549.921 -1.212 6.7216 0
M  V30 5876 O 549.609 -0.829728 7.99607 0
M  V30 5877 H 549.341 -0.383035 0.55701 0
M  V30 5878 H 551.895 -0.570392 1.97321 0
M  V30 5879 H 550.125 -3.10309 2.30749 0
M  V30 5880 H 551.814 -3.01544 2.71709 0
M  V30 5881 H 552.58 -1.43511 4.63281 0
M  V30 5882 H 548.459 -2.43076 3.91708 0
M  V30 5883 H 552.003 -0.754698 6.93506 0
M  V30 5884 H 547.9 -1.7553 6.21176 0
M  V30 5885 H 548.668 -0.958689 8.12866 0
M  V30 5886 N 551.331 -1.39911 -0.725443 0
M  V30 5887 C 552.556 -1.41137 -1.5197 0
M  V30 5888 C 552.981 -0.010262 -1.88097 0
M  V30 5889 O 552.339 0.979184 -1.52583 0
M  V30 5890 C 552.387 -2.2994 -2.77777 0
M  V30 5891 O 551.491 -1.73586 -3.74088 0
M  V30 5892 H 550.832 -0.480219 -0.458569 0
M  V30 5893 H 553.362 -1.84023 -0.894249 0
M  V30 5894 H 553.372 -2.44785 -3.26411 0
M  V30 5895 H 552.047 -3.31759 -2.50816 0
M  V30 5896 H 550.624 -1.68035 -3.32894 0
M  V30 5897 N 552.809 0.956637 -1.25245 0
M  V30 5898 C 554.056 1.701 -1.09874 0
M  V30 5899 C 554.384 1.91128 0.36062 0
M  V30 5900 O 553.639 1.47837 1.28229 0
M  V30 5901 C 553.938 3.08996 -1.79601 0
M  V30 5902 C 553.604 3.07774 -3.29523 0
M  V30 5903 C 552.266 3.07149 -3.70423 0
M  V30 5904 C 554.618 3.01257 -4.25316 0
M  V30 5905 C 551.946 2.97752 -5.0553 0
M  V30 5906 C 554.298 2.93403 -5.60444 0
M  V30 5907 C 552.962 2.91111 -6.00675 0
M  V30 5908 H 552.232 0.62244 -0.402056 0
M  V30 5909 H 554.879 1.1178 -1.55491 0
M  V30 5910 H 553.184 3.70848 -1.26408 0
M  V30 5911 H 554.881 3.65407 -1.65162 0
M  V30 5912 H 551.471 3.09032 -2.9698 0
M  V30 5913 H 555.655 3.00861 -3.9471 0
M  V30 5914 H 550.911 2.94346 -5.35883 0
M  V30 5915 H 555.085 2.87321 -6.34366 0
M  V30 5916 H 552.712 2.83586 -7.05325 0
M  V30 5917 N 554.287 1.06798 1.15896 0
M  V30 5918 C 555.515 0.808694 1.90441 0
M  V30 5919 C 555.93 -0.637506 1.77711 0
M  V30 5920 O 555.287 -1.43684 1.12522 0
M  V30 5921 C 555.338 1.20068 3.40978 0
M  V30 5922 O 555.059 2.59013 3.53333 0
M  V30 5923 C 556.56 0.96987 4.3256 0
M  V30 5924 H 553.78 0.292809 0.603742 0
M  V30 5925 H 556.324 1.42296 1.46874 0
M  V30 5926 H 554.479 0.630842 3.82229 0
M  V30 5927 H 554.893 2.7485 4.46719 0
M  V30 5928 H 556.367 1.29371 5.36626 0
M  V30 5929 H 556.844 -0.0941209 4.39099 0
M  V30 5930 H 557.45 1.52433 3.97044 0
M  V30 5931 N 555.766 -1.3263 0.851289 0
M  V30 5932 C 557.013 -1.97368 0.453023 0
M  V30 5933 C 557.341 -1.67384 -0.990596 0
M  V30 5934 O 556.596 -0.952665 -1.70947 0
M  V30 5935 C 556.895 -3.51713 0.635015 0
M  V30 5936 C 556.561 -4.01676 2.04859 0
M  V30 5937 C 555.223 -4.15031 2.43522 0
M  V30 5938 C 557.575 -4.28206 2.97135 0
M  V30 5939 C 554.903 -4.52257 3.73739 0
M  V30 5940 C 557.255 -4.66889 4.26846 0
M  V30 5941 C 555.919 -4.7845 4.65448 0
M  V30 5942 H 555.189 -0.722219 0.165773 0
M  V30 5943 H 557.836 -1.58092 1.0807 0
M  V30 5944 H 556.141 -3.91726 -0.0759081 0
M  V30 5945 H 557.838 -3.99823 0.306964 0
M  V30 5946 H 554.428 -3.91764 1.73836 0
M  V30 5947 H 558.612 -4.174 2.68498 0
M  V30 5948 H 553.868 -4.59402 4.03435 0
M  V30 5949 H 558.042 -4.86372 4.98413 0
M  V30 5950 H 555.669 -5.07052 5.66395 0
M  V30 5951 N 557.244 -0.608902 -1.45362 0
M  V30 5952 C 558.154 0.110969 -2.34337 0
M  V30 5953 C 559.17 0.859007 -1.51318 0
M  V30 5954 O 560.346 0.816296 -1.84116 0
M  V30 5955 C 557.411 1.09494 -3.28956 0
M  V30 5956 C 556.472 0.348718 -4.27881 0
M  V30 5957 C 555.705 1.28582 -5.17979 0
M  V30 5958 O 555.928 2.52369 -5.11533 0
M  V30 5959 O 554.862 0.782172 -5.96796 0
M  V30 5960 H 558.688 -0.620258 -2.97299 0
M  V30 5961 H 556.273 -0.36916 -1.44767 0
M  V30 5962 H 558.155 1.66163 -3.87257 0
M  V30 5963 H 556.83 1.80717 -2.68557 0
M  V30 5964 H 555.737 -0.260465 -3.73192 0
M  V30 5965 H 557.07 -0.323049 -4.91139 0
M  V30 5966 N 558.722 1.53707 -0.348139 0
M  V30 5967 C 559.652 2.28111 0.498766 0
M  V30 5968 C 560.633 1.29851 1.09876 0
M  V30 5969 O 561.818 1.587 1.11928 0
M  V30 5970 C 558.948 3.05735 1.64753 0
M  V30 5971 C 557.902 4.11537 1.17565 0
M  V30 5972 C 557.228 4.77142 2.4133 0
M  V30 5973 C 558.528 5.21587 0.272844 0
M  V30 5974 H 560.222 2.99152 -0.121934 0
M  V30 5975 H 557.768 1.43875 -0.0600842 0
M  V30 5976 H 559.721 3.56526 2.24649 0
M  V30 5977 H 558.445 2.32354 2.2952 0
M  V30 5978 H 557.104 3.61665 0.599483 0
M  V30 5979 H 556.752 4.0035 3.04514 0
M  V30 5980 H 556.452 5.48626 2.10436 0
M  V30 5981 H 557.976 5.30719 3.01943 0
M  V30 5982 H 559.39 5.67986 0.778779 0
M  V30 5983 H 557.787 6.00074 0.0555849 0
M  V30 5984 H 558.857 4.79969 -0.689785 0
M  V30 5985 N 560.2 0.0768682 1.57412 0
M  V30 5986 C 561.616 -0.279772 1.57129 0
M  V30 5987 C 561.816 -1.69688 1.08666 0
M  V30 5988 O 560.872 -2.40953 0.754843 0
M  V30 5989 C 562.185 -0.0848055 3.0058 0
M  V30 5990 C 563.733 -0.153954 3.12621 0
M  V30 5991 C 564.208 0.0127946 4.57998 0
M  V30 5992 N 565.699 -0.0426435 4.6318 0
M  V30 5993 C 566.434 0.0618892 5.73367 0
M  V30 5994 N 565.93 0.220229 6.9245 0
M  V30 5995 N 567.723 0.00446072 5.621 0
M  V30 5996 H 559.874 1.00297 1.87228 0
M  V30 5997 H 562.137 0.391565 0.863354 0
M  V30 5998 H 561.843 0.89325 3.40168 0
M  V30 5999 H 561.717 -0.834961 3.67843 0
M  V30 6000 H 564.104 -1.1225 2.72917 0
M  V30 6001 H 564.185 0.627389 2.47987 0
M  V30 6002 H 563.829 0.978128 4.98392 0
M  V30 6003 H 563.759 -0.788016 5.20671 0
M  V30 6004 H 566.25 -0.163226 3.77547 0
M  V30 6005 H 566.563 0.291999 7.72248 0
M  V30 6006 H 564.908 0.255658 6.9453 0
M  V30 6007 H 568.099 -0.117979 4.67951 0
M  V30 6008 H 568.272 0.0893796 6.47938 0
M  V30 6009 N 561.678 -1.56367 -0.196722 0
M  V30 6010 C 562.955 -1.71359 -0.943159 0
M  V30 6011 C 563.335 -0.631192 -2.01443 0
M  V30 6012 O 562.683 0.358071 -2.25677 0
M  V30 6013 C 562.893 -3.13623 -1.53106 0
M  V30 6014 C 564.241 -3.73806 -2.01381 0
M  V30 6015 O 565.265 -3.16742 -1.62951 0
M  V30 6016 O 564.124 -4.73951 -2.7209 0
M  V30 6017 H 561.218 -0.698851 -0.442195 0
M  V30 6018 H 563.764 -1.68672 -0.186547 0
M  V30 6019 H 562.536 -3.83873 -0.758785 0
M  V30 6020 H 562.159 -3.20532 -2.35255 0
M  V30 6021 N 563.156 0.464375 -1.50603 0
M  V30 6022 C 564.384 1.23907 -1.65695 0
M  V30 6023 C 564.799 1.85658 -0.343027 0
M  V30 6024 O 564.156 1.69529 0.675739 0
M  V30 6025 C 564.207 2.3429 -2.75301 0
M  V30 6026 O 563.928 1.7507 -4.01599 0
M  V30 6027 C 565.429 3.25051 -3.01424 0
M  V30 6028 H 562.649 0.374485 -0.556778 0
M  V30 6029 H 565.193 0.55353 -1.96866 0
M  V30 6030 H 563.348 2.98607 -2.46804 0
M  V30 6031 H 563.762 2.47812 -4.62266 0
M  V30 6032 H 565.236 3.98699 -3.81763 0
M  V30 6033 H 565.713 3.84227 -2.12758 0
M  V30 6034 H 566.319 2.66463 -3.31477 0
M  V30 6035 N 564.634 1.40294 0.718013 0
M  V30 6036 C 565.882 1.38167 1.47494 0
M  V30 6037 C 566.203 -0.01607 1.94993 0
M  V30 6038 O 565.473 -0.970396 1.70177 0
M  V30 6039 H 564.053 0.508505 0.547203 0
M  V30 6040 H 566.715 1.75324 0.851322 0
M  V30 6041 H 565.811 2.05503 2.34894 0
M  V30 6042 N 566.112 -0.949982 1.2575 0
M  V30 6043 C 567.528 -1.22191 1.02672 0
M  V30 6044 C 567.728 -1.99898 -0.253588 0
M  V30 6045 O 566.784 -2.33329 -0.965076 0
M  V30 6046 C 568.097 -1.99175 2.25277 0
M  V30 6047 C 569.645 -2.12201 2.30087 0
M  V30 6048 C 570.12 -2.92586 3.5236 0
M  V30 6049 N 571.611 -3.00163 3.52784 0
M  V30 6050 C 572.346 -3.62766 4.44059 0
M  V30 6051 N 571.842 -4.26943 5.45611 0
M  V30 6052 N 573.635 -3.59953 4.3173 0
M  V30 6053 H 565.786 -0.430258 2.07996 0
M  V30 6054 H 568.049 -0.252844 0.91366 0
M  V30 6055 H 567.755 -1.49479 3.18354 0
M  V30 6056 H 567.629 -2.99868 2.28821 0
M  V30 6057 H 570.016 -2.61093 1.3753 0
M  V30 6058 H 570.097 -1.10799 2.30559 0
M  V30 6059 H 569.741 -2.44383 4.45241 0
M  V30 6060 H 569.671 -3.94224 3.49134 0
M  V30 6061 H 572.162 -2.54529 2.79327 0
M  V30 6062 H 572.475 -4.72583 6.11461 0
M  V30 6063 H 570.82 -4.25557 5.49478 0
M  V30 6064 H 574.011 -3.09003 3.51617 0
M  V30 6065 H 574.184 -4.08455 5.03059 0
M  V30 6066 N 567.59 -1.07411 -1.15328 0
M  V30 6067 C 568.82 -0.817595 -1.89734 0
M  V30 6068 C 569.228 0.63297 -1.78298 0
M  V30 6069 O 568.571 1.44594 -1.13306 0
M  V30 6070 C 568.633 -1.14748 -3.40695 0
M  V30 6071 C 568.297 -2.59876 -3.75917 0
M  V30 6072 C 569.294 -3.58122 -3.76888 0
M  V30 6073 C 566.979 -2.95469 -4.06206 0
M  V30 6074 C 568.973 -4.89996 -4.07655 0
M  V30 6075 C 566.66 -4.2754 -4.36638 0
M  V30 6076 C 567.658 -5.24614 -4.37344 0
M  V30 6077 O 567.346 -6.54312 -4.67045 0
M  V30 6078 H 567.078 -0.295175 -0.608151 0
M  V30 6079 H 569.632 -1.43409 -1.47048 0
M  V30 6080 H 567.862 -0.47395 -3.83785 0
M  V30 6081 H 569.551 -0.873397 -3.96392 0
M  V30 6082 H 570.317 -3.31966 -3.53587 0
M  V30 6083 H 566.196 -2.20558 -4.04815 0
M  V30 6084 H 569.74 -5.65759 -4.08121 0
M  V30 6085 H 565.637 -4.53449 -4.59407 0
M  V30 6086 H 566.405 -6.59473 -4.84807 0
M  V30 6087 N 569.068 1.32177 -0.85831 0
M  V30 6088 C 570.316 1.96735 -0.462568 0
M  V30 6089 C 570.637 1.6824 0.985911 0
M  V30 6090 O 569.907 0.991564 1.68952 0
M  V30 6091 H 568.487 0.727849 -0.168064 0
M  V30 6092 H 571.149 1.61195 -1.09554 0
M  V30 6093 H 570.245 3.06068 -0.610647 0
M  V30 6094 N 570.547 0.616602 1.45037 0
M  V30 6095 C 571.794 0.115331 2.02171 0
M  V30 6096 C 572.122 -1.25748 1.48383 0
M  V30 6097 O 571.377 -1.84511 0.652229 0
M  V30 6098 C 571.676 0.0356829 3.57382 0
M  V30 6099 C 571.342 1.34535 4.30362 0
M  V30 6100 C 570.004 1.70408 4.50016 0
M  V30 6101 C 572.356 2.21049 4.72003 0
M  V30 6102 C 569.684 2.92529 5.0857 0
M  V30 6103 C 572.036 3.42427 5.31908 0
M  V30 6104 C 570.7 3.78541 5.49784 0
M  V30 6105 H 569.97 0.0422024 0.739797 0
M  V30 6106 H 572.617 0.80002 1.73988 0
M  V30 6107 H 570.922 -0.732314 3.84895 0
M  V30 6108 H 572.619 -0.368463 3.99304 0
M  V30 6109 H 569.209 1.05615 4.15383 0
M  V30 6110 H 573.393 1.94632 4.56544 0
M  V30 6111 H 568.649 3.20605 5.20598 0
M  V30 6112 H 572.823 4.09709 5.63127 0
M  V30 6113 H 570.45 4.73255 5.94923 0
M  V30 6114 N 572.025 -1.5352 0.356285 0
M  V30 6115 C 572.955 -2.28372 -0.486661 0
M  V30 6116 C 573.936 -1.30432 -1.09185 0
M  V30 6117 O 575.121 -1.59291 -1.11085 0
M  V30 6118 C 572.251 -3.06604 -1.63129 0
M  V30 6119 C 571.205 -4.12154 -1.15381 0
M  V30 6120 C 570.531 -4.78415 -2.38796 0
M  V30 6121 C 571.831 -5.21724 -0.245179 0
M  V30 6122 H 573.525 -2.99083 0.137797 0
M  V30 6123 H 571.071 -1.43841 0.0677134 0
M  V30 6124 H 573.024 -3.57712 -2.22755 0
M  V30 6125 H 571.748 -2.33568 -2.28284 0
M  V30 6126 H 570.407 -3.61978 -0.580294 0
M  V30 6127 H 570.055 -4.01959 -3.02387 0
M  V30 6128 H 569.755 -5.49734 -2.07524 0
M  V30 6129 H 571.279 -5.32313 -2.99125 0
M  V30 6130 H 572.693 -5.68391 -0.748646 0
M  V30 6131 H 571.09 -6.00095 -0.0237608 0
M  V30 6132 H 572.16 -4.79596 0.715229 0
M  V30 6133 N 573.503 -0.0852151 -1.57369 0
M  V30 6134 C 574.433 0.874556 -2.16503 0
M  V30 6135 C 575.414 1.30111 -1.09568 0
M  V30 6136 O 576.599 1.36977 -1.37662 0
M  V30 6137 C 573.729 2.13731 -2.73745 0
M  V30 6138 C 572.683 1.84971 -3.85966 0
M  V30 6139 C 572.009 3.17991 -4.29867 0
M  V30 6140 C 573.309 1.14442 -5.09608 0
M  V30 6141 H 575.003 0.381899 -2.96954 0
M  V30 6142 H 572.549 0.18225 -1.42842 0
M  V30 6143 H 574.502 2.81302 -3.13763 0
M  V30 6144 H 573.226 2.65263 -1.90534 0
M  V30 6145 H 571.885 1.19801 -3.46473 0
M  V30 6146 H 571.533 3.6739 -3.4356 0
M  V30 6147 H 571.233 2.99534 -5.05523 0
M  V30 6148 H 572.757 3.86737 -4.72511 0
M  V30 6149 H 574.171 1.72105 -5.46857 0
M  V30 6150 H 572.568 1.06197 -5.90629 0
M  V30 6151 H 573.638 0.12559 -4.84737 0
M  V30 6152 N 574.981 1.5647 0.188427 0
M  V30 6153 C 576.392 1.70864 0.752494 0
M  V30 6154 C 576.743 0.692905 1.83557 0
M  V30 6155 O 575.868 -0.149307 2.15884 0
M  V30 6156 C 576.463 3.09789 1.37173 0
M  V30 6157 C 575.022 3.25925 1.88281 0
M  V30 6158 C 574.169 2.66817 0.755259 0
M  V30 6159 H 577.12 1.58657 -0.0367408 0
M  V30 6160 H 577.141 3.07489 2.24122 0
M  V30 6161 H 576.653 3.83693 0.583219 0
M  V30 6162 H 574.754 2.56948 2.6983 0
M  V30 6163 H 574.867 4.33498 2.04001 0
M  V30 6164 H 573.231 2.2617 1.17128 0
M  V30 6165 H 574.014 3.43294 -0.0211237 0
M  V30 6166 N 576.459 -0.456382 1.50847 0
M  V30 6167 C 577.369 -1.57805 1.73594 0
M  V30 6168 C 578.385 -1.62599 0.619476 0
M  V30 6169 O 579.561 -1.80195 0.899532 0
M  V30 6170 C 576.626 -2.93926 1.8387 0
M  V30 6171 C 575.687 -2.99402 3.07663 0
M  V30 6172 C 574.92 -4.29031 3.1744 0
M  V30 6173 O 575.143 -5.20358 2.33631 0
M  V30 6174 O 574.077 -4.40401 4.10281 0
M  V30 6175 H 577.903 -1.41531 2.68705 0
M  V30 6176 H 575.488 -0.637422 1.3512 0
M  V30 6177 H 577.37 -3.74747 1.92725 0
M  V30 6178 H 576.045 -3.10368 0.91944 0
M  V30 6179 H 574.952 -2.17606 3.043 0
M  V30 6180 H 576.285 -2.87901 3.99216 0
M  V30 6181 N 577.937 -1.40673 -0.710563 0
M  V30 6182 C 579.162 -1.42741 -1.50465 0
M  V30 6183 C 579.587 -0.0302116 -1.88076 0
M  V30 6184 O 578.945 0.962945 -1.53613 0
M  V30 6185 C 578.993 -2.32873 -2.75322 0
M  V30 6186 O 578.097 -1.77544 -3.72226 0
M  V30 6187 H 577.438 -0.485056 -0.45345 0
M  V30 6188 H 579.968 -1.84961 -0.874681 0
M  V30 6189 H 579.978 -2.48233 -3.23797 0
M  V30 6190 H 578.653 -3.34401 -2.47283 0
M  V30 6191 H 577.23 -1.71556 -3.31093 0
M  V30 6192 N 579.415 0.9433 -1.26252 0
M  V30 6193 C 580.347 2.04542 -1.03417 0
M  V30 6194 C 581.36 1.62799 0.0046911 0
M  V30 6195 O 582.549 1.76944 -0.235146 0
M  V30 6196 C 579.649 3.34511 -0.543671 0
M  V30 6197 C 578.822 4.05033 -1.65128 0
M  V30 6198 C 577.881 5.13273 -1.1592 0
M  V30 6199 O 576.907 5.38095 -1.85586 0
M  V30 6200 N 578.109 5.805 -0.00649279 0
M  V30 6201 H 580.874 2.24699 -1.98319 0
M  V30 6202 H 578.435 1.11264 -1.1761 0
M  V30 6203 H 580.427 4.04212 -0.198703 0
M  V30 6204 H 578.997 3.11042 0.311711 0
M  V30 6205 H 578.217 3.29275 -2.16729 0
M  V30 6206 H 579.505 4.48903 -2.39508 0
M  V30 6207 H 578.903 5.62767 0.575347 0
M  V30 6208 H 577.46 6.51201 0.279416 0
M  V30 6209 N 580.893 1.08022 1.14757 0
M  V30 6210 C 582.142 0.802468 1.8505 0
M  V30 6211 C 582.455 -0.674061 1.83619 0
M  V30 6212 O 583.661 -1.06683 2.49662 0
M  V30 6213 C 582.117 1.38551 3.32162 0
M  V30 6214 C 581.725 2.89354 3.42021 0
M  V30 6215 C 583.469 1.18608 4.07594 0
M  V30 6216 C 581.376 3.40815 4.83321 0
M  V30 6217 H 580.306 0.296518 0.693248 0
M  V30 6218 H 582.957 1.30114 1.29393 0
M  V30 6219 H 581.339 0.814556 3.87532 0
M  V30 6220 H 582.513 3.52552 2.96722 0
M  V30 6221 H 580.828 3.08165 2.80041 0
M  V30 6222 H 583.425 1.54525 5.11885 0
M  V30 6223 H 583.768 0.125599 4.1611 0
M  V30 6224 H 584.301 1.72375 3.58513 0
M  V30 6225 H 581.04 4.46418 4.79991 0
M  V30 6226 H 580.56 2.82374 5.29174 0
M  V30 6227 H 582.239 3.37171 5.522 0
M  V30 6228 N 582.371 -1.3172 0.865308 0
M  V30 6229 C 583.787 -1.4958 0.556596 0
M  V30 6230 C 583.987 -1.79763 -0.910353 0
M  V30 6231 O 583.043 -1.87351 -1.6928 0
M  V30 6232 C 584.356 -2.63277 1.45279 0
M  V30 6233 C 585.904 -2.77161 1.45433 0
M  V30 6234 C 586.379 -3.93949 2.33598 0
M  V30 6235 N 587.87 -4.01228 2.31453 0
M  V30 6236 C 588.605 -4.90855 2.96393 0
M  V30 6237 N 588.101 -5.85416 3.70486 0
M  V30 6238 N 589.894 -4.84063 2.85726 0
M  V30 6239 H 582.045 -1.10396 1.81456 0
M  V30 6240 H 584.308 -0.54507 0.775631 0
M  V30 6241 H 584.014 -2.47734 2.49641 0
M  V30 6242 H 583.888 -3.59309 1.14792 0
M  V30 6243 H 586.275 -2.9212 0.41831 0
M  V30 6244 H 586.356 -1.8181 1.79941 0
M  V30 6245 H 586 -3.79748 3.37274 0
M  V30 6246 H 585.93 -4.88598 1.96417 0
M  V30 6247 H 588.421 -3.3357 1.77593 0
M  V30 6248 H 588.734 -6.50525 4.17178 0
M  V30 6249 H 587.079 -5.85409 3.74594 0
M  V30 6250 H 590.27 -4.09163 2.27384 0
M  V30 6251 H 590.443 -5.53708 3.36617 0
M  V30 6252 N 583.85 -0.624285 -1.44708 0
M  V30 6253 C 584.812 0.0749638 -2.29077 0
M  V30 6254 C 585.812 0.778965 -1.40673 0
M  V30 6255 O 587.003 0.624591 -1.62618 0
M  V30 6256 C 584.135 1.11663 -3.22094 0
M  V30 6257 H 585.327 -0.667013 -2.92388 0
M  V30 6258 H 582.88 -0.384098 -1.51507 0
M  V30 6259 H 583.615 1.88881 -2.63618 0
M  V30 6260 H 583.401 0.61583 -3.87234 0
M  V30 6261 H 584.891 1.60585 -3.8549 0
M  V30 6262 N 585.328 1.53329 -0.364422 0
M  V30 6263 C 586.556 2.05657 0.226424 0
M  V30 6264 C 586.971 1.23801 1.42544 0
M  V30 6265 O 586.328 0.27839 1.80364 0
M  V30 6266 C 586.379 3.56125 0.621056 0
M  V30 6267 O 586.1 4.34879 -0.530304 0
M  V30 6268 C 587.601 4.24706 1.27041 0
M  V30 6269 H 584.821 0.669806 0.0400056 0
M  V30 6270 H 587.365 1.97714 -0.522456 0
M  V30 6271 H 585.52 3.64223 1.31985 0
M  V30 6272 H 585.934 5.24073 -0.211546 0
M  V30 6273 H 587.408 5.3131 1.49711 0
M  V30 6274 H 587.885 3.78354 2.23036 0
M  V30 6275 H 588.491 4.20858 0.613079 0
M  V30 6276 N 586.806 0.0935595 1.57322 0
M  V30 6277 C 588.046 -0.573901 1.96178 0
M  V30 6278 C 588.41 -1.65445 0.97426 0
M  V30 6279 O 589.611 -2.37901 1.25126 0
M  V30 6280 C 587.882 -1.11612 3.39526 0
M  V30 6281 S 589.441 -1.79566 4.00377 0
M  V30 6282 H 586.259 -0.187315 0.685882 0
M  V30 6283 H 588.861 0.172597 1.94737 0
M  V30 6284 H 587.565 -0.31815 4.09165 0
M  V30 6285 H 587.096 -1.89848 3.4456 0
M  V30 6286 H 589.111 -3.07978 3.89056 0
M  V30 6287 N 588.284 -1.56567 -0.180126 0
M  V30 6288 C 589.194 -1.98947 -1.24327 0
M  V30 6289 C 590.21 -0.899446 -1.4895 0
M  V30 6290 O 591.386 -1.20639 -1.61271 0
M  V30 6291 C 588.451 -2.33328 -2.56435 0
M  V30 6292 C 587.512 -3.56114 -2.39752 0
M  V30 6293 C 586.745 -3.88845 -3.65561 0
M  V30 6294 O 586.968 -3.22662 -4.70368 0
M  V30 6295 O 585.902 -4.82226 -3.60197 0
M  V30 6296 H 589.728 -2.89634 -0.913565 0
M  V30 6297 H 587.313 -1.44319 -0.386306 0
M  V30 6298 H 589.195 -2.5645 -3.34382 0
M  V30 6299 H 587.87 -1.45806 -2.89002 0
M  V30 6300 H 586.777 -3.38221 -1.59866 0
M  V30 6301 H 588.11 -4.4415 -2.12113 0
M  V30 6302 N 589.762 0.448376 -1.51087 0
M  V30 6303 C 590.672 1.56882 -1.74428 0
M  V30 6304 C 591.688 1.62268 -0.62809 0
M  V30 6305 O 592.864 1.79716 -0.909075 0
M  V30 6306 C 589.929 2.92947 -1.85426 0
M  V30 6307 C 588.99 2.97766 -3.09247 0
M  V30 6308 C 588.223 4.27341 -3.19711 0
M  V30 6309 O 588.446 5.19112 -2.36387 0
M  V30 6310 O 587.38 4.38219 -4.12611 0
M  V30 6311 H 591.206 1.40104 -2.69452 0
M  V30 6312 H 588.791 0.630247 -1.35456 0
M  V30 6313 H 590.673 3.73719 -1.94709 0
M  V30 6314 H 589.348 3.09876 -0.935887 0
M  V30 6315 H 588.255 2.15989 -3.0545 0
M  V30 6316 H 589.588 2.8578 -4.00738 0
M  V30 6317 N 591.24 1.41047 0.703093 0
M  V30 6318 C 592.468 1.4334 1.49202 0
M  V30 6319 C 592.883 0.0365596 1.88765 0
M  V30 6320 O 592.24 -0.942419 1.56284 0
M  V30 6321 C 592.291 2.33538 2.75939 0
M  V30 6322 O 592.012 3.67786 2.38045 0
M  V30 6323 C 593.513 2.44555 3.6974 0
M  V30 6324 H 590.733 0.488472 0.460039 0
M  V30 6325 H 593.277 1.85245 0.86629 0
M  V30 6326 H 591.432 1.94962 3.34766 0
M  V30 6327 H 591.846 4.15816 3.19683 0
M  V30 6328 H 593.32 3.11849 4.55471 0
M  V30 6329 H 593.797 1.47447 4.1371 0
M  V30 6330 H 594.403 2.83735 3.16819 0
M  V30 6331 N 592.718 -0.936591 1.26751 0
M  V30 6332 C 593.965 -1.68331 1.12566 0
M  V30 6333 C 594.293 -1.91677 -0.330168 0
M  V30 6334 O 593.548 -1.49859 -1.2586 0
M  V30 6335 C 593.847 -3.06099 1.84494 0
M  V30 6336 C 593.513 -3.02493 3.34378 0
M  V30 6337 C 592.175 -3.01217 3.75262 0
M  V30 6338 C 594.527 -2.94453 4.30055 0
M  V30 6339 C 591.855 -2.89672 5.10203 0
M  V30 6340 C 594.207 -2.84449 5.65041 0
M  V30 6341 C 592.871 -2.81518 6.0523 0
M  V30 6342 H 592.141 -0.615965 0.411907 0
M  V30 6343 H 594.788 -1.09292 1.5725 0
M  V30 6344 H 593.093 -3.6879 1.32292 0
M  V30 6345 H 594.79 -3.62733 1.70955 0
M  V30 6346 H 591.38 -3.04269 3.01858 0
M  V30 6347 H 595.564 -2.94544 3.99447 0
M  V30 6348 H 590.82 -2.85783 5.40498 0
M  V30 6349 H 594.994 -2.77192 6.38856 0
M  V30 6350 H 592.621 -2.72329 7.09747 0
M  V30 6351 N 594.196 -1.08629 -1.14182 0
M  V30 6352 C 595.126 -0.740003 -2.21464 0
M  V30 6353 C 596.107 0.278591 -1.67803 0
M  V30 6354 O 597.292 0.148461 -1.93632 0
M  V30 6355 C 594.422 -0.150952 -3.46972 0
M  V30 6356 C 593.376 -1.09815 -4.13672 0
M  V30 6357 C 592.702 -0.3712 -5.3341 0
M  V30 6358 C 594.002 -2.43722 -4.61949 0
M  V30 6359 H 595.696 -1.63697 -2.50686 0
M  V30 6360 H 593.242 -0.788526 -1.20492 0
M  V30 6361 H 595.195 0.103325 -4.21273 0
M  V30 6362 H 593.919 0.781164 -3.1712 0
M  V30 6363 H 592.578 -1.33756 -3.41328 0
M  V30 6364 H 592.226 0.564792 -4.99819 0
M  V30 6365 H 591.926 -1.00267 -5.78982 0
M  V30 6366 H 593.45 -0.12503 -6.10472 0
M  V30 6367 H 594.864 -2.24034 -5.27714 0
M  V30 6368 H 593.261 -3.02582 -5.18232 0
M  V30 6369 H 594.331 -3.05082 -3.76899 0
M  V30 6370 N 595.674 1.31259 -0.872281 0
M  V30 6371 C 596.637 2.26744 -0.334656 0
M  V30 6372 C 597.637 1.52307 0.515681 0
M  V30 6373 O 598.827 1.71148 0.324656 0
M  V30 6374 C 595.959 3.36841 0.524482 0
M  V30 6375 H 597.152 2.75812 -1.17762 0
M  V30 6376 H 594.705 1.42232 -0.648064 0
M  V30 6377 H 595.44 2.93069 1.38855 0
M  V30 6378 H 595.225 3.92009 -0.0844299 0
M  V30 6379 H 596.715 4.07944 0.892838 0
M  V30 6380 N 597.152 0.631951 1.44375 0
M  V30 6381 C 598.401 0.134214 2.01253 0
M  V30 6382 C 598.714 -1.25171 1.50305 0
M  V30 6383 O 599.92 -1.8435 1.99317 0
M  V30 6384 C 598.376 0.189187 3.59402 0
M  V30 6385 C 597.984 1.57647 4.19346 0
M  V30 6386 C 599.728 -0.252044 4.23751 0
M  V30 6387 C 597.635 1.58651 5.69722 0
M  V30 6388 H 596.565 0.0464101 0.75257 0
M  V30 6389 H 599.216 0.790868 1.65582 0
M  V30 6390 H 597.598 -0.534584 3.92375 0
M  V30 6391 H 598.772 2.32389 3.97909 0
M  V30 6392 H 597.087 1.96186 3.67288 0
M  V30 6393 H 599.684 -0.264084 5.34047 0
M  V30 6394 H 600.027 -1.27951 3.96149 0
M  V30 6395 H 600.56 0.41926 3.95584 0
M  V30 6396 H 597.299 2.59237 6.0206 0
M  V30 6397 H 596.819 0.882039 5.93279 0
M  V30 6398 H 598.498 1.32082 6.33375 0
M  V30 6399 N 598.631 -1.53133 0.372548 0
M  V30 6400 C 599.578 -2.25951 -0.470631 0
M  V30 6401 C 600.548 -1.26895 -1.07176 0
M  V30 6402 O 601.733 -1.55691 -1.10294 0
M  V30 6403 C 598.873 -3.05726 -1.6008 0
M  V30 6404 C 597.986 -4.19684 -1.02416 0
M  V30 6405 C 597.121 -4.86888 -2.124 0
M  V30 6406 C 596.16 -5.92866 -1.52238 0
M  V30 6407 N 595.297 -6.53732 -2.56084 0
M  V30 6408 H 600.137 -2.97587 0.156816 0
M  V30 6409 H 597.674 -1.4683 0.0891571 0
M  V30 6410 H 599.632 -3.50258 -2.26661 0
M  V30 6411 H 598.262 -2.36331 -2.1988 0
M  V30 6412 H 597.314 -3.79588 -0.248426 0
M  V30 6413 H 598.626 -4.95821 -0.544366 0
M  V30 6414 H 597.78 -5.34638 -2.86787 0
M  V30 6415 H 596.519 -4.10239 -2.63734 0
M  V30 6416 H 595.524 -5.4447 -0.763685 0
M  V30 6417 H 596.749 -6.71439 -1.0172 0
M  V30 6418 H 594.695 -5.79932 -3.06618 0
M  V30 6419 H 594.612 -7.25429 -2.12811 0
M  V30 6420 H 595.88 -7.0613 -3.30152 0
M  V30 6421 N 600.109 -0.101901 -1.5727 0
M  V30 6422 C 601.339 0.567568 -1.98651 0
M  V30 6423 C 601.747 1.61839 -0.980037 0
M  V30 6424 O 601.09 1.83661 0.0376564 0
M  V30 6425 C 601.152 1.26742 -3.36417 0
M  V30 6426 C 600.816 0.366561 -4.55528 0
M  V30 6427 C 601.813 -0.388022 -5.1845 0
M  V30 6428 C 599.498 0.282629 -5.01504 0
M  V30 6429 C 601.492 -1.21445 -6.25724 0
M  V30 6430 C 599.179 -0.547443 -6.08643 0
M  V30 6431 C 600.177 -1.29462 -6.70618 0
M  V30 6432 O 599.865 -2.11095 -7.7569 0
M  V30 6433 H 599.597 0.156282 -0.657687 0
M  V30 6434 H 602.151 -0.179912 -2.04611 0
M  V30 6435 H 600.381 2.06162 -3.27161 0
M  V30 6436 H 602.07 1.8321 -3.622 0
M  V30 6437 H 602.836 -0.332949 -4.83856 0
M  V30 6438 H 598.715 0.853868 -4.53023 0
M  V30 6439 H 602.259 -1.79814 -6.74027 0
M  V30 6440 H 598.156 -0.603971 -6.42668 0
M  V30 6441 H 598.924 -2.03851 -7.92709 0
M  V30 6442 N 601.587 1.56661 0.17182 0
M  V30 6443 C 602.833 1.82235 0.889845 0
M  V30 6444 C 603.166 0.679673 1.81918 0
M  V30 6445 O 602.441 -0.318404 1.91876 0
M  V30 6446 C 602.724 3.18195 1.68595 0
M  V30 6447 C 602.577 4.42989 0.779773 0
M  V30 6448 C 603.896 3.5109 2.65375 0
M  V30 6449 H 601.015 0.66291 0.322056 0
M  V30 6450 H 603.657 1.89358 0.15608 0
M  V30 6451 H 601.807 3.12253 2.3115 0
M  V30 6452 H 603.479 4.60997 0.16714 0
M  V30 6453 H 601.722 4.33711 0.0877964 0
M  V30 6454 H 602.393 5.3467 1.3723 0
M  V30 6455 H 604.869 3.57482 2.12946 0
M  V30 6456 H 603.745 4.47298 3.18144 0
M  V30 6457 H 604.006 2.75768 3.45549 0
M  V30 6458 N 603.065 -0.440357 1.51323 0
M  V30 6459 C 604.028 -1.51679 1.71832 0
M  V30 6460 C 605.028 -1.49648 0.588386 0
M  V30 6461 O 606.218 -1.51724 0.855891 0
M  V30 6462 C 603.35 -2.91228 1.77199 0
M  V30 6463 H 604.543 -1.34799 2.67898 0
M  V30 6464 H 602.096 -0.66883 1.41267 0
M  V30 6465 H 602.831 -3.13516 0.829363 0
M  V30 6466 H 602.616 -2.94107 2.59314 0
M  V30 6467 H 604.106 -3.69321 1.94915 0
M  V30 6468 N 604.543 -1.41418 -0.695603 0
M  V30 6469 C 605.768 -1.44329 -1.48942 0
M  V30 6470 C 606.193 -0.0501579 -1.88033 0
M  V30 6471 O 605.551 0.946598 -1.54626 0
M  V30 6472 C 605.599 -2.3578 -2.72837 0
M  V30 6473 O 604.703 -1.81482 -3.70322 0
M  V30 6474 H 604.044 -0.489838 -0.44828 0
M  V30 6475 H 606.574 -1.85878 -0.855014 0
M  V30 6476 H 606.584 -2.51654 -3.21145 0
M  V30 6477 H 605.259 -3.37005 -2.43722 0
M  V30 6478 H 603.836 -1.75058 -3.29255 0
M  V30 6479 N 606.021 0.929856 -1.27246 0
M  V30 6480 C 607.251 1.70895 -1.16096 0
M  V30 6481 C 607.659 1.87039 0.285122 0
M  V30 6482 O 607.002 1.38557 1.20614 0
M  V30 6483 C 607.064 3.12919 -1.7698 0
M  V30 6484 C 606.728 3.2012 -3.26148 0
M  V30 6485 C 607.725 3.02533 -4.22812 0
M  V30 6486 C 605.41 3.43148 -3.66817 0
M  V30 6487 C 607.404 3.07861 -5.58122 0
M  V30 6488 C 605.091 3.48109 -5.02258 0
M  V30 6489 C 606.089 3.30483 -5.97721 0
M  V30 6490 O 605.777 3.35175 -7.30694 0
M  V30 6491 H 605.509 0.54152 -0.404639 0
M  V30 6492 H 608.063 1.17342 -1.68582 0
M  V30 6493 H 606.293 3.67945 -1.18969 0
M  V30 6494 H 607.982 3.72787 -1.60576 0
M  V30 6495 H 608.748 2.84586 -3.92728 0
M  V30 6496 H 604.627 3.55918 -2.9299 0
M  V30 6497 H 608.171 2.94021 -6.32612 0
M  V30 6498 H 604.068 3.65579 -5.31998 0
M  V30 6499 H 604.836 3.51644 -7.39114 0
M  V30 6500 N 607.499 1.09233 1.13605 0
M  V30 6501 C 608.745 0.828385 1.8511 0
M  V30 6502 C 609.078 -0.64437 1.83198 0
M  V30 6503 O 608.353 -1.47428 1.26867 0
M  V30 6504 C 608.636 1.36167 3.33363 0
M  V30 6505 C 608.489 2.90038 3.438 0
M  V30 6506 C 609.808 0.993819 4.28732 0
M  V30 6507 H 606.927 0.30239 0.672108 0
M  V30 6508 H 609.569 1.35339 1.33355 0
M  V30 6509 H 607.719 0.9151 3.77569 0
M  V30 6510 H 609.391 3.43128 3.08319 0
M  V30 6511 H 607.634 3.27271 2.84739 0
M  V30 6512 H 608.305 3.22428 4.48045 0
M  V30 6513 H 610.781 1.37893 3.92587 0
M  V30 6514 H 609.657 1.39403 5.30903 0
M  V30 6515 H 609.918 -0.0982206 4.41991 0
M  V30 6516 N 608.977 -1.30795 0.87923 0
M  V30 6517 C 609.907 -2.30742 0.357796 0
M  V30 6518 C 610.888 -1.60747 -0.556283 0
M  V30 6519 O 612.073 -1.88393 -0.47135 0
M  V30 6520 C 609.203 -3.44583 -0.433555 0
M  V30 6521 C 608.157 -4.26235 0.388251 0
M  V30 6522 C 607.483 -5.32073 -0.529352 0
M  V30 6523 C 608.783 -4.96303 1.62729 0
M  V30 6524 H 610.477 -2.74605 1.19299 0
M  V30 6525 H 608.023 -1.32017 0.575104 0
M  V30 6526 H 609.976 -4.13563 -0.808934 0
M  V30 6527 H 608.7 -2.99511 -1.30234 0
M  V30 6528 H 607.359 -3.58936 0.745695 0
M  V30 6529 H 607.007 -4.83249 -1.39569 0
M  V30 6530 H 606.707 -5.87598 0.0166741 0
M  V30 6531 H 608.231 -6.0391 -0.901373 0
M  V30 6532 H 609.645 -5.5783 1.32283 0
M  V30 6533 H 608.042 -5.61666 2.11309 0
M  V30 6534 H 609.112 -4.22758 2.37494 0
M  V30 6535 N 610.455 -0.639598 -1.44038 0
M  V30 6536 C 611.365 0.0612377 -2.3452 0
M  V30 6537 C 612.381 0.826717 -1.53106 0
M  V30 6538 O 613.557 0.777059 -1.85806 0
M  V30 6539 C 610.622 1.02492 -3.31204 0
M  V30 6540 C 609.683 0.25788 -4.28525 0
M  V30 6541 C 608.916 1.17566 -5.2059 0
M  V30 6542 O 609.139 2.41461 -5.16771 0
M  V30 6543 O 608.073 0.655407 -5.98321 0
M  V30 6544 H 611.899 -0.68318 -2.95916 0
M  V30 6545 H 609.484 -0.399784 -1.43952 0
M  V30 6546 H 611.366 1.57911 -3.90694 0
M  V30 6547 H 610.041 1.7498 -2.7233 0
M  V30 6548 H 608.948 -0.339566 -3.72556 0
M  V30 6549 H 610.281 -0.427154 -4.90343 0
M  V30 6550 N 611.933 1.52934 -0.380664 0
M  V30 6551 C 612.883 2.22989 0.475399 0
M  V30 6552 C 613.867 1.23058 1.03661 0
M  V30 6553 O 615.059 1.48436 0.964146 0
M  V30 6554 C 612.188 3.0338 1.60671 0
M  V30 6555 C 611.274 4.107 1.05766 0
M  V30 6556 N 611.665 5.05264 0.232837 0
M  V30 6557 C 609.963 4.25676 1.33101 0
M  V30 6558 C 610.664 5.81658 -0.0695134 0
M  V30 6559 N 609.64 5.40989 0.532144 0
M  V30 6560 H 613.442 2.93456 -0.161418 0
M  V30 6561 H 610.956 1.61291 -0.189495 0
M  V30 6562 H 612.953 3.52098 2.23232 0
M  V30 6563 H 611.613 2.34446 2.24644 0
M  V30 6564 H 612.624 5.17739 -0.129204 0
M  V30 6565 H 609.301 3.6797 1.97241 0
M  V30 6566 H 610.691 6.67843 -0.737269 0
M  V30 6567 N 613.412 0.11024 1.57214 0
M  V30 6568 C 614.342 -0.840002 2.17867 0
M  V30 6569 C 615.323 -1.28352 1.11624 0
M  V30 6570 O 616.508 -1.3477 1.39824 0
M  V30 6571 C 613.638 -2.09349 2.77111 0
M  V30 6572 C 612.592 -1.78807 3.8886 0
M  V30 6573 C 611.918 -3.11112 4.34872 0
M  V30 6574 C 613.218 -1.0632 5.11364 0
M  V30 6575 H 614.912 -0.334608 2.97524 0
M  V30 6576 H 612.458 -0.159502 1.43114 0
M  V30 6577 H 614.411 -2.76275 3.18198 0
M  V30 6578 H 613.135 -2.62198 1.9473 0
M  V30 6579 H 611.794 -1.14273 3.48335 0
M  V30 6580 H 611.442 -3.61877 3.49362 0
M  V30 6581 H 611.142 -2.91453 5.10224 0
M  V30 6582 H 612.666 -3.79171 4.78604 0
M  V30 6583 H 614.08 -1.63383 5.49526 0
M  V30 6584 H 612.477 -0.967876 5.92243 0
M  V30 6585 H 613.547 -0.0484569 4.84876 0
M  V30 6586 N 614.89 -1.56749 -0.16351 0
M  V30 6587 C 616.12 -1.86307 -0.892936 0
M  V30 6588 C 616.528 -0.6945 -1.75992 0
M  V30 6589 O 615.871 0.345384 -1.80424 0
M  V30 6590 C 615.933 -3.10372 -1.81409 0
M  V30 6591 C 615.597 -4.42913 -1.12593 0
M  V30 6592 C 616.594 -5.17608 -0.487661 0
M  V30 6593 C 614.279 -4.89646 -1.12035 0
M  V30 6594 C 616.273 -6.3723 0.14699 0
M  V30 6595 C 613.96 -6.09197 -0.481883 0
M  V30 6596 C 614.958 -6.82834 0.150678 0
M  V30 6597 O 614.646 -8.00116 0.779065 0
M  V30 6598 H 614.378 -0.622126 -0.264452 0
M  V30 6599 H 616.932 -2.04728 -0.166063 0
M  V30 6600 H 615.162 -2.87917 -2.58148 0
M  V30 6601 H 616.851 -3.26312 -2.41403 0
M  V30 6602 H 617.617 -4.8258 -0.483888 0
M  V30 6603 H 613.496 -4.32265 -1.60212 0
M  V30 6604 H 617.04 -6.94646 0.641325 0
M  V30 6605 H 612.937 -6.43688 -0.483266 0
M  V30 6606 H 613.705 -8.15678 0.679089 0
M  V30 6607 O 616.407 0.308401 -1.58528 0
M  V30 6608 H 617.098 0.955962 -1.68467 0
M  V30 END ATOM
M  V30 BEGIN BOND
M  V30 END BOND
M  V30 END CTAB
M  END
$$$$
