drugbank_target|O67931 Sulfide-quinone reductase (DB07640)
 OpenBabel12092120453D

  0  0  0     0  0            999 V3000
M  V30 BEGIN CTAB
M  V30 COUNTS 6699 6789 0 0 0
M  V30 BEGIN ATOM
M  V30 1 H -0.908 1.98254 -0.117106 0
M  V30 2 N 0 1.576 0 0
M  V30 3 C 0.933 2.03868 1.02534 0
M  V30 4 C 1.911 0.928543 1.3348 0
M  V30 5 O 3.095 1.19667 1.45644 0
M  V30 6 C 0.222 2.43627 2.35294 0
M  V30 7 C -0.732 3.65373 2.2001 0
M  V30 8 S 0.101 5.13292 1.52614 0
M  V30 9 C 1.257 5.56322 2.86805 0
M  V30 10 H 1.49 2.90518 0.631377 0
M  V30 11 H -0.977 1.52953 0.210867 0
M  V30 12 H 0.981 2.67203 3.11629 0
M  V30 13 H -0.358 1.57376 2.7183 0
M  V30 14 H -1.165 3.90944 3.18086 0
M  V30 15 H -1.563 3.418 1.51819 0
M  V30 16 H 0.729 5.58782 3.83104 0
M  V30 17 H 1.672 6.56266 2.65933 0
M  V30 18 H 2.08 4.83886 2.90714 0
M  V30 19 N 1.4781 -0.272755 1.55222 0
M  V30 20 C 2.4411 -1.32041 1.87344 0
M  V30 21 C 3.4411 -1.42342 0.74803 0
M  V30 22 O 4.6311 -1.41488 1.0162 0
M  V30 23 C 1.7631 -2.70173 2.07893 0
M  V30 24 H 2.9561 -1.04789 2.80997 0
M  V30 25 H 0.5091 -0.51083 1.47717 0
M  V30 26 H 1.2441 -3.02605 1.16622 0
M  V30 27 H 1.0291 -2.64082 2.89833 0
M  V30 28 H 2.5191 -3.45869 2.34017 0
M  V30 29 N 2.9562 -1.48159 -0.537278 0
M  V30 30 C 3.9032 -1.62138 -1.64256 0
M  V30 31 C 4.8732 -0.463668 -1.59497 0
M  V30 32 O 6.0582 -0.686241 -1.78032 0
M  V30 33 C 3.1982 -1.66028 -3.02537 0
M  V30 34 C 2.3112 -2.92855 -3.17585 0
M  V30 35 C 1.4462 -2.87952 -4.46382 0
M  V30 36 C 0.4852 -4.09516 -4.54932 0
M  V30 37 N -0.3778 -4.02733 -5.75109 0
M  V30 38 H 4.4622 -2.56529 -1.51647 0
M  V30 39 H 1.9992 -1.27224 -0.738414 0
M  V30 40 H 3.9572 -1.66265 -3.82638 0
M  V30 41 H 2.5872 -0.751331 -3.13934 0
M  V30 42 H 1.6392 -3.02395 -2.30784 0
M  V30 43 H 2.9512 -3.82822 -3.19764 0
M  V30 44 H 2.1052 -2.8655 -5.34765 0
M  V30 45 H 0.8442 -1.95702 -4.46712 0
M  V30 46 H -0.1508 -4.11201 -3.64957 0
M  V30 47 H 1.0742 -5.02917 -4.56346 0
M  V30 48 H -0.9798 -3.13299 -5.76351 0
M  V30 49 H -1.0628 -4.86397 -5.78752 0
M  V30 50 H 0.2052 -4.05379 -6.65799 0
M  V30 51 N 4.4343 0.785586 -1.36625 0
M  V30 52 C 5.3843 1.88822 -1.27789 0
M  V30 53 C 6.3683 1.60014 -0.168579 0
M  V30 54 O 7.5603 1.72381 -0.401737 0
M  V30 55 C 4.6893 3.26092 -1.07327 0
M  V30 56 C 3.7753 3.60897 -2.22743 0
M  V30 57 N 4.1663 3.66982 -3.48077 0
M  V30 58 C 2.4643 3.90981 -2.14593 0
M  V30 59 C 3.1653 3.98137 -4.24101 0
M  V30 60 N 2.1413 4.13319 -3.53084 0
M  V30 61 H 5.9433 1.91759 -2.22723 0
M  V30 62 H 3.4573 0.981311 -1.29399 0
M  V30 63 H 5.4543 4.04954 -0.990842 0
M  V30 64 H 4.1143 3.24428 -0.132977 0
M  V30 65 H 5.1253 3.49531 -3.82163 0
M  V30 66 H 1.8023 3.9722 -1.2854 0
M  V30 67 H 3.1923 4.09737 -5.32509 0
M  V30 68 N 5.9124 1.20967 1.01018 0
M  V30 69 C 7.1584 1.02526 1.74975 0
M  V30 70 C 7.4914 -0.4408 1.89131 0
M  V30 71 O 6.7664 -1.32718 1.42184 0
M  V30 72 C 7.0494 1.71699 3.1653 0
M  V30 73 C 6.9024 3.25791 3.10129 0
M  V30 74 C 8.2214 1.45531 4.15342 0
M  V30 75 H 5.3404 0.373863 0.635134 0
M  V30 76 H 7.9824 1.49071 1.17805 0
M  V30 77 H 6.1324 1.32128 3.65341 0
M  V30 78 H 7.8044 3.74697 2.69072 0
M  V30 79 H 6.0474 3.56363 2.47362 0
M  V30 80 H 6.7184 3.69353 4.10222 0
M  V30 81 H 9.1944 1.79872 3.75213 0
M  V30 82 H 8.0704 1.96453 5.1254 0
M  V30 83 H 8.3314 0.384237 4.40427 0
M  V30 84 N 7.3905 -1.2043 1.01659 0
M  V30 85 C 8.6365 -1.90079 0.706963 0
M  V30 86 C 8.9695 -1.78648 -0.761474 0
M  V30 87 O 8.2445 -1.17069 -1.55323 0
M  V30 88 C 8.5275 -3.41469 1.14327 0
M  V30 89 C 8.3805 -3.61833 2.67201 0
M  V30 90 C 9.6995 -4.34261 0.714529 0
M  V30 91 H 6.8185 -0.690254 0.2583 0
M  V30 92 H 9.4605 -1.41826 1.26433 0
M  V30 93 H 7.6105 -3.82696 0.669056 0
M  V30 94 H 9.2825 -3.2986 3.22475 0
M  V30 95 H 7.5255 -3.05304 3.08175 0
M  V30 96 H 8.1965 -4.67955 2.92783 0
M  V30 97 H 10.6725 -4.00682 1.12221 0
M  V30 98 H 9.5485 -5.38806 1.04784 0
M  V30 99 H 9.8095 -4.40431 -0.383799 0
M  V30 100 N 8.8686 -0.792821 -1.36206 0
M  V30 101 C 10.1146 -0.36733 -1.99446 0
M  V30 102 C 10.4476 1.05917 -1.62774 0
M  V30 103 O 9.7226 1.7324 -0.88421 0
M  V30 104 C 10.0056 -0.535044 -3.56103 0
M  V30 105 C 9.8586 -2.00548 -4.02617 0
M  V30 106 C 11.1776 0.0478191 -4.40074 0
M  V30 107 H 8.2966 -0.134941 -0.724541 0
M  V30 108 H 10.9386 -0.999794 -1.61568 0
M  V30 109 H 9.0886 0.00336329 -3.885 0
M  V30 110 H 10.7606 -2.60521 -3.80692 0
M  V30 111 H 9.0036 -2.50686 -3.54032 0
M  V30 112 H 9.6746 -2.07377 -5.11565 0
M  V30 113 H 12.1506 -0.411822 -4.14057 0
M  V30 114 H 11.0266 -0.0995336 -5.4881 0
M  V30 115 H 11.2876 1.14025 -4.27142 0
M  V30 116 N 10.3467 1.47872 -0.545128 0
M  V30 117 C 11.5957 2.01695 -0.0145033 0
M  V30 118 C 11.9087 1.42609 1.33873 0
M  V30 119 O 13.1147 1.88021 1.95858 0
M  V30 120 C 11.5707 3.59892 0.0245068 0
M  V30 121 C 11.1787 4.27966 -1.32475 0
M  V30 122 C 12.9227 4.21507 0.50316 0
M  V30 123 C 10.8297 5.78136 -1.2455 0
M  V30 124 H 9.7597 0.753998 -0.00165172 0
M  V30 125 H 12.4107 1.69985 -0.691175 0
M  V30 126 H 10.7927 3.88509 0.766575 0
M  V30 127 H 11.9667 4.11003 -2.08357 0
M  V30 128 H 10.2817 3.78286 -1.74036 0
M  V30 129 H 12.8787 5.31538 0.580656 0
M  V30 130 H 13.2217 3.87855 1.51243 0
M  V30 131 H 13.7547 3.97376 -0.183681 0
M  V30 132 H 10.4937 6.16388 -2.23039 0
M  V30 133 H 10.0137 5.97469 -0.528282 0
M  V30 134 H 11.6927 6.40099 -0.942488 0
M  V30 135 N 11.8248 0.280983 1.55075 0
M  V30 136 C 13.0728 -0.333455 1.9933 0
M  V30 137 C 13.3938 -1.55937 1.17085 0
M  V30 138 O 12.6638 -1.94143 0.261805 0
M  V30 139 H 11.2438 -0.126197 0.736263 0
M  V30 140 H 13.9058 0.387678 1.91005 0
M  V30 141 H 13.0018 -0.619292 3.05894 0
M  V30 142 N 13.3029 -1.57598 0.00835791 0
M  V30 143 C 14.5509 -1.90551 -0.6734 0
M  V30 144 C 14.8719 -0.883301 -1.73847 0
M  V30 145 O 14.1419 0.0781442 -1.95744 0
M  V30 146 H 12.7219 -0.703312 -0.251717 0
M  V30 147 H 15.3839 -1.94833 0.0512592 0
M  V30 148 H 14.4799 -2.9056 -1.13935 0
M  V30 149 N 14.781 0.264519 -1.55364 0
M  V30 150 C 16.029 0.993021 -1.76021 0
M  V30 151 C 16.35 1.86511 -0.569099 0
M  V30 152 O 15.62 1.91438 0.415735 0
M  V30 153 H 14.2 0.369639 -0.649135 0
M  V30 154 H 16.862 0.286707 -1.9278 0
M  V30 155 H 15.958 1.62502 -2.66457 0
M  V30 156 N 16.2591 1.48442 0.529413 0
M  V30 157 C 17.5051 1.5672 1.28711 0
M  V30 158 C 17.8381 0.2406 1.92704 0
M  V30 159 O 17.1131 -0.753454 1.79313 0
M  V30 160 C 17.3961 2.70587 2.37603 0
M  V30 161 C 17.2491 4.12953 1.78297 0
M  V30 162 C 18.5681 2.80212 3.39366 0
M  V30 163 H 15.6871 0.570474 0.466613 0
M  V30 164 H 18.3291 1.80617 0.589706 0
M  V30 165 H 16.4791 2.50342 2.97088 0
M  V30 166 H 18.1511 4.44639 1.22858 0
M  V30 167 H 16.3941 4.19927 1.0883 0
M  V30 168 H 17.0651 4.88448 2.57144 0
M  V30 169 H 19.5411 2.98553 2.89836 0
M  V30 170 H 18.4171 3.61611 4.12951 0
M  V30 171 H 18.6781 1.88393 3.99951 0
M  V30 172 N 17.7372 -0.778329 1.37039 0
M  V30 173 C 18.9852 -1.53361 1.31623 0
M  V30 174 C 19.3062 -1.94739 -0.100831 0
M  V30 175 O 18.5762 -1.65797 -1.04347 0
M  V30 176 H 17.1562 -0.568794 0.484234 0
M  V30 177 H 19.8182 -0.926742 1.71457 0
M  V30 178 H 18.9142 -2.43606 1.95096 0
M  V30 179 N 19.2153 -1.21501 -1.00376 0
M  V30 180 C 20.4633 -1.03095 -1.73827 0
M  V30 181 C 20.7843 0.436341 -1.90055 0
M  V30 182 O 20.0543 1.31466 -1.45236 0
M  V30 183 H 18.6343 -0.378487 -0.644016 0
M  V30 184 H 21.2963 -1.52831 -1.20949 0
M  V30 185 H 20.3923 -1.49991 -2.73695 0
M  V30 186 N 20.6934 1.19889 -1.02296 0
M  V30 187 C 21.9424 1.88743 -0.711257 0
M  V30 188 C 22.2554 1.80112 0.762817 0
M  V30 189 O 23.4614 2.44161 1.18733 0
M  V30 190 C 21.9174 3.38525 -1.22185 0
M  V30 191 C 21.5254 3.55727 -2.72328 0
M  V30 192 C 23.2694 4.12893 -0.985864 0
M  V30 193 C 21.1764 4.99369 -3.16835 0
M  V30 194 H 20.1064 0.706885 -0.262353 0
M  V30 195 H 22.7574 1.35586 -1.23648 0
M  V30 196 H 21.1394 3.91044 -0.624571 0
M  V30 197 H 22.3134 3.13564 -3.3766 0
M  V30 198 H 20.6284 2.94739 -2.9414 0
M  V30 199 H 23.2254 5.18813 -1.29374 0
M  V30 200 H 23.5684 4.16228 0.0775055 0
M  V30 201 H 24.1014 3.66494 -1.54684 0
M  V30 202 H 20.8404 5.01193 -4.22476 0
M  V30 203 H 20.3604 5.42317 -2.56228 0
M  V30 204 H 22.0394 5.67988 -3.09837 0
M  V30 205 N 22.1715 0.800033 1.35784 0
M  V30 206 C 23.1345 0.211565 2.28221 0
M  V30 207 C 24.1345 -0.59728 1.49296 0
M  V30 208 O 25.3245 -0.416721 1.69142 0
M  V30 209 C 22.4565 -0.705846 3.33513 0
M  V30 210 H 23.6495 1.02677 2.81776 0
M  V30 211 H 21.2025 0.570211 1.45528 0
M  V30 212 H 21.9375 -1.54498 2.85133 0
M  V30 213 H 21.7225 -0.127655 3.91892 0
M  V30 214 H 23.2125 -1.11211 4.02519 0
M  V30 215 N 23.6496 -1.47581 0.552962 0
M  V30 216 C 24.8776 -2.06875 0.0320556 0
M  V30 217 C 25.2926 -1.40625 -1.25976 0
M  V30 218 O 24.6496 -0.501349 -1.75479 0
M  V30 219 C 24.7006 -3.61092 -0.17167 0
M  V30 220 O 24.4216 -4.24858 1.06899 0
M  V30 221 C 25.9226 -4.37242 -0.730344 0
M  V30 222 H 23.1426 -0.669561 0.043915 0
M  V30 223 H 25.6866 -1.89646 0.765163 0
M  V30 224 H 23.8416 -3.7785 -0.854894 0
M  V30 225 H 24.2556 -5.17334 0.864059 0
M  V30 226 H 25.7296 -5.45842 -0.822203 0
M  V30 227 H 26.2066 -4.03235 -1.74064 0
M  V30 228 H 26.8126 -4.25219 -0.0829543 0
M  V30 229 N 25.1277 -0.289203 -1.54924 0
M  V30 230 C 26.0907 0.579144 -2.21762 0
M  V30 231 C 27.0907 1.07047 -1.1999 0
M  V30 232 O 28.2807 0.968384 -1.44803 0
M  V30 233 C 25.4127 1.80055 -2.8947 0
M  V30 234 H 26.6057 -0.00464908 -2.999 0
M  V30 235 H 24.1587 -0.0399306 -1.56249 0
M  V30 236 H 24.8937 2.42449 -2.15381 0
M  V30 237 H 24.6787 1.45602 -3.64064 0
M  V30 238 H 26.1687 2.41773 -3.40493 0
M  V30 239 N 26.6058 1.57591 -0.0167156 0
M  V30 240 C 27.8358 1.95292 0.674149 0
M  V30 241 C 28.2438 0.891097 1.66901 0
M  V30 242 O 27.5868 -0.136908 1.83189 0
M  V30 243 C 27.6488 3.29072 1.44747 0
M  V30 244 C 27.3128 4.52879 0.612331 0
M  V30 245 C 28.3098 5.1979 -0.107126 0
M  V30 246 C 25.9948 4.99242 0.553381 0
M  V30 247 C 27.9888 6.31375 -0.874339 0
M  V30 248 C 25.6758 6.10713 -0.217546 0
M  V30 249 C 26.6738 6.76637 -0.930123 0
M  V30 250 O 26.3618 7.85969 -1.68844 0
M  V30 251 H 26.0938 0.648275 0.191615 0
M  V30 252 H 28.6478 2.05284 -0.0690148 0
M  V30 253 H 26.8778 3.15535 2.2355 0
M  V30 254 H 28.5668 3.51764 2.02526 0
M  V30 255 H 29.3328 4.84948 -0.0708392 0
M  V30 256 H 25.2118 4.47744 1.09757 0
M  V30 257 H 28.7558 6.82764 -1.43106 0
M  V30 258 H 24.6528 6.44994 -0.255593 0
M  V30 259 H 25.4208 8.02571 -1.6069 0
M  V30 260 N 28.0839 -0.256276 1.55502 0
M  V30 261 C 29.0319 -1.33694 1.90338 0
M  V30 262 C 30.0259 -1.50299 0.781441 0
M  V30 263 O 31.2319 -1.51885 0.965966 0
M  V30 264 H 27.6069 -0.447483 0.60437 0
M  V30 265 H 29.5779 -1.01574 2.8058 0
M  V30 266 C 28.3269 -2.68724 2.20642 0
M  V30 267 H 27.6499 -2.56743 3.06469 0
M  V30 268 H 29.0899 -3.43237 2.48926 0
M  V30 269 C 27.5489 -3.21101 1.01959 0
M  V30 270 O 28.0789 -4.0084 0.262762 0
M  V30 271 N 26.2849 -2.79003 0.812746 0
M  V30 272 H 25.8319 -2.14271 1.42989 0
M  V30 273 H 25.7899 -3.14393 0.0203076 0
M  V30 274 N 29.562 -1.4872 -0.521534 0
M  V30 275 C 30.492 -1.66771 -1.63431 0
M  V30 276 C 31.473 -0.516499 -1.62069 0
M  V30 277 O 32.658 -0.750013 -1.79132 0
M  V30 278 C 29.788 -1.71515 -3.01993 0
M  V30 279 C 28.742 -2.86222 -3.18216 0
M  V30 280 C 28.068 -2.76061 -4.57924 0
M  V30 281 C 29.368 -4.27419 -3.00184 0
M  V30 282 H 31.062 -2.59932 -1.48579 0
M  V30 283 H 28.608 -1.25089 -0.713358 0
M  V30 284 H 30.561 -1.82731 -3.7972 0
M  V30 285 H 29.285 -0.749393 -3.17886 0
M  V30 286 H 27.944 -2.74575 -2.42908 0
M  V30 287 H 27.592 -1.77437 -4.70665 0
M  V30 288 H 27.292 -3.53037 -4.69722 0
M  V30 289 H 28.816 -2.89256 -5.37739 0
M  V30 290 H 30.23 -4.39855 -3.67697 0
M  V30 291 H 28.627 -5.05458 -3.2347 0
M  V30 292 H 29.697 -4.43293 -1.96518 0
M  V30 293 N 31.0401 0.771051 -1.3745 0
M  V30 294 C 32.4561 1.07171 -1.18265 0
M  V30 295 C 32.6561 2.01491 -0.019287 0
M  V30 296 O 31.7121 2.44244 0.640408 0
M  V30 297 C 33.0251 1.66854 -2.50161 0
M  V30 298 C 34.5731 1.79109 -2.56689 0
M  V30 299 C 35.0481 2.42205 -3.88717 0
M  V30 300 N 36.5391 2.49655 -3.90162 0
M  V30 301 C 37.2741 2.9933 -4.8907 0
M  V30 302 N 36.7701 3.49172 -5.98374 0
M  V30 303 N 38.5631 2.9821 -4.76474 0
M  V30 304 H 30.7141 0.144796 -2.11906 0
M  V30 305 H 32.9771 0.126863 -0.939473 0
M  V30 306 H 32.6831 1.05017 -3.35655 0
M  V30 307 H 32.5571 2.6614 -2.673 0
M  V30 308 H 34.9441 2.40077 -1.71601 0
M  V30 309 H 35.0251 0.785757 -2.43433 0
M  V30 310 H 34.6691 1.81875 -4.74219 0
M  V30 311 H 34.5991 3.43345 -3.99276 0
M  V30 312 H 37.0901 2.14383 -3.11205 0
M  V30 313 H 37.4031 3.8548 -6.69795 0
M  V30 314 H 35.7481 3.47275 -6.02018 0
M  V30 315 H 38.9391 2.58572 -3.90203 0
M  V30 316 H 39.1121 3.36613 -5.53711 0
M  V30 317 N 32.5182 1.22032 0.997298 0
M  V30 318 C 33.4662 0.983634 2.10778 0
M  V30 319 C 34.4602 -0.0717564 1.69248 0
M  V30 320 O 35.6662 0.080304 1.79821 0
M  V30 321 H 32.0412 0.300877 0.689186 0
M  V30 322 H 34.0122 1.92606 2.27916 0
M  V30 323 C 32.7612 0.57326 3.42942 0
M  V30 324 H 32.0842 1.37702 3.75338 0
M  V30 325 H 33.5242 0.447031 4.21637 0
M  V30 326 C 31.9832 -0.7167 3.29188 0
M  V30 327 O 32.5132 -1.77027 3.60589 0
M  V30 328 N 30.7192 -0.686167 2.82383 0
M  V30 329 H 30.2662 0.171507 2.57028 0
M  V30 330 H 30.2242 -1.54955 2.73562 0
M  V30 331 N 33.9963 -1.19345 1.0293 0
M  V30 332 C 34.9263 -2.2481 0.631105 0
M  V30 333 C 35.9073 -1.66245 -0.360104 0
M  V30 334 O 37.0923 -1.92677 -0.242726 0
M  V30 335 C 34.2223 -3.47295 -0.0184607 0
M  V30 336 C 33.1763 -4.18536 0.895073 0
M  V30 337 C 32.5023 -5.34586 0.110592 0
M  V30 338 C 33.8023 -4.73287 2.209 0
M  V30 339 H 35.4963 -2.58372 1.51275 0
M  V30 340 H 33.0423 -1.24194 0.728818 0
M  V30 341 H 34.9953 -4.20268 -0.308675 0
M  V30 342 H 33.7193 -3.12933 -0.934907 0
M  V30 343 H 32.3783 -3.47446 1.16949 0
M  V30 344 H 32.0263 -4.96469 -0.807902 0
M  V30 345 H 31.7263 -5.83183 0.719087 0
M  V30 346 H 33.2503 -6.10355 -0.172871 0
M  V30 347 H 34.6643 -5.38013 1.98028 0
M  V30 348 H 33.0613 -5.32373 2.76946 0
M  V30 349 H 34.1313 -3.91331 2.86336 0
M  V30 350 N 35.4744 -0.807222 -1.35358 0
M  V30 351 C 36.4074 -0.163572 -2.27613 0
M  V30 352 C 37.3854 0.670817 -1.48118 0
M  V30 353 O 38.5694 0.63796 -1.77376 0
M  V30 354 C 35.6964 0.773015 -3.29761 0
M  V30 355 C 34.7424 0.0181653 -4.26496 0
M  V30 356 S 35.5754 -1.31831 -5.19019 0
M  V30 357 C 36.7314 -0.38619 -6.24707 0
M  V30 358 H 36.9644 -0.945757 -2.81856 0
M  V30 359 H 34.4974 -0.602315 -1.42167 0
M  V30 360 H 36.4554 1.30788 -3.89108 0
M  V30 361 H 35.1164 1.52859 -2.74396 0
M  V30 362 H 34.3094 0.729534 -4.98692 0
M  V30 363 H 33.9114 -0.446761 -3.71322 0
M  V30 364 H 36.2034 0.428295 -6.76145 0
M  V30 365 H 37.1464 -1.07736 -6.99856 0
M  V30 366 H 37.5544 0.018398 -5.64497 0
M  V30 367 N 36.9525 1.47285 -0.560781 0
M  V30 368 C 38.3635 1.86258 -0.128343 0
M  V30 369 C 38.7145 1.46699 1.30284 0
M  V30 370 O 37.8395 0.871698 1.98067 0
M  V30 371 C 38.4345 3.38044 -0.22614 0
M  V30 372 C 36.9935 3.76096 0.151283 0
M  V30 373 C 36.1405 2.71335 -0.572084 0
M  V30 374 H 39.0915 1.38752 -0.770297 0
M  V30 375 H 39.1125 3.76441 0.554322 0
M  V30 376 H 38.6245 3.66806 -1.26788 0
M  V30 377 H 36.7255 3.52951 1.19399 0
M  V30 378 H 36.8385 4.78641 -0.209765 0
M  V30 379 H 35.2025 2.54696 -0.0147653 0
M  V30 380 H 35.9855 3.02938 -1.61504 0
M  V30 381 N 38.4306 0.297415 1.54768 0
M  V30 382 C 39.7076 -0.365847 1.92148 0
M  V30 383 C 40.0876 -1.71975 1.22424 0
M  V30 384 O 39.4356 -2.25666 0.358739 0
M  V30 385 C 39.6456 -0.484056 3.45627 0
M  V30 386 C 40.9936 -0.756594 4.17805 0
M  V30 387 O 42.0176 -0.568007 3.51642 0
M  V30 388 O 40.8766 -1.11863 5.34929 0
M  V30 389 H 37.9706 -0.203919 0.801465 0
M  V30 390 H 40.5166 0.34521 1.66152 0
M  V30 391 H 39.2886 0.467865 3.88493 0
M  V30 392 H 38.9116 -1.24372 3.77647 0
M  V30 393 N 39.9087 -1.5758 0.0250728 0
M  V30 394 C 40.8387 -2.13007 -0.956575 0
M  V30 395 C 41.8197 -1.0452 -1.342 0
M  V30 396 O 43.0047 -1.32332 -1.42133 0
M  V30 397 C 40.1347 -2.65386 -2.24026 0
M  V30 398 C 39.0887 -3.78623 -1.99571 0
M  V30 399 C 38.4147 -4.17414 -3.3417 0
M  V30 400 C 39.7147 -5.04867 -1.33814 0
M  V30 401 H 41.4087 -2.9528 -0.494991 0
M  V30 402 H 38.9547 -1.42042 -0.236651 0
M  V30 403 H 40.9077 -3.02794 -2.93076 0
M  V30 404 H 39.6317 -1.80268 -2.72343 0
M  V30 405 H 38.2907 -3.41646 -1.32941 0
M  V30 406 H 37.9387 -3.29284 -3.80238 0
M  V30 407 H 37.6387 -4.93719 -3.18615 0
M  V30 408 H 39.1627 -4.57402 -4.04495 0
M  V30 409 H 40.5767 -5.39888 -1.92857 0
M  V30 410 H 38.9737 -5.86144 -1.28669 0
M  V30 411 H 40.0437 -4.83904 -0.310561 0
M  V30 412 N 41.3868 0.248026 -1.55636 0
M  V30 413 C 42.3338 1.30707 -1.90222 0
M  V30 414 C 43.3038 1.47881 -0.756332 0
M  V30 415 O 44.4888 1.61883 -1.00988 0
M  V30 416 C 41.6288 2.65769 -2.20138 0
M  V30 417 C 40.7418 2.56612 -3.47526 0
M  V30 418 C 39.8768 3.8402 -3.67017 0
M  V30 419 C 38.9158 3.69476 -4.8801 0
M  V30 420 N 38.0528 4.88774 -5.04029 0
M  V30 421 H 42.8928 1.00512 -2.80538 0
M  V30 422 H 40.4298 0.485055 -1.38873 0
M  V30 423 H 42.3878 3.44386 -2.35487 0
M  V30 424 H 41.0178 2.94115 -1.33027 0
M  V30 425 H 40.0698 1.69571 -3.40514 0
M  V30 426 H 41.3818 2.41774 -4.36287 0
M  V30 427 H 40.5358 4.7108 -3.8232 0
M  V30 428 H 39.2748 4.01754 -2.76487 0
M  V30 429 H 38.2798 2.80799 -4.72686 0
M  V30 430 H 39.5048 3.53238 -5.8 0
M  V30 431 H 37.4508 5.0687 -4.16435 0
M  V30 432 H 37.3678 4.76562 -5.86877 0
M  V30 433 H 38.6358 5.77335 -5.23741 0
M  V30 434 N 42.8649 1.48995 0.513639 0
M  V30 435 C 44.1139 1.57093 1.2651 0
M  V30 436 C 44.4269 0.257091 1.93903 0
M  V30 437 O 45.6329 0.216478 2.70636 0
M  V30 438 C 44.0889 2.77118 2.29638 0
M  V30 439 C 43.6969 4.15209 1.68241 0
M  V30 440 C 45.4409 2.94538 3.05692 0
M  V30 441 C 43.3479 5.26474 2.69406 0
M  V30 442 H 42.2779 0.584876 0.475854 0
M  V30 443 H 44.9289 1.7536 0.540487 0
M  V30 444 H 43.3109 2.52319 3.05207 0
M  V30 445 H 44.4849 4.50094 0.987505 0
M  V30 446 H 42.7999 4.03042 1.04623 0
M  V30 447 H 45.3969 3.74832 3.8132 0
M  V30 448 H 45.7399 2.04614 3.62545 0
M  V30 449 H 46.2729 3.19316 2.37238 0
M  V30 450 H 43.0119 6.18417 2.17351 0
M  V30 451 H 42.5319 4.96058 3.37175 0
M  V30 452 H 44.2109 5.55277 3.32078 0
M  V30 453 N 44.343 -0.763751 1.37857 0
M  V30 454 C 45.571 -1.55293 1.36718 0
M  V30 455 C 45.986 -1.88745 -0.0455434 0
M  V30 456 O 45.343 -1.52039 -1.00947 0
M  V30 457 C 45.394 -2.85831 2.2132 0
M  V30 458 O 45.115 -2.5381 3.57089 0
M  V30 459 C 46.616 -3.80023 2.28249 0
M  V30 460 H 43.836 -0.480841 0.468009 0
M  V30 461 H 46.38 -0.946009 1.81303 0
M  V30 462 H 44.535 -3.42926 1.80223 0
M  V30 463 H 44.949 -3.37459 4.01524 0
M  V30 464 H 46.423 -4.68599 2.91752 0
M  V30 465 H 46.9 -4.1973 1.2932 0
M  V30 466 H 47.506 -3.28855 2.69693 0
M  V30 467 N 45.8211 -1.22559 -0.990812 0
M  V30 468 C 46.7511 -1.0218 -2.09956 0
M  V30 469 C 47.7321 0.0579394 -1.70001 0
M  V30 470 O 48.9171 -0.104684 -1.93918 0
M  V30 471 C 46.0471 -0.601023 -3.4206 0
M  V30 472 C 45.0011 -1.62694 -3.95872 0
M  V30 473 C 44.3271 -1.06193 -5.24049 0
M  V30 474 C 45.6271 -3.01743 -4.2632 0
M  V30 475 H 47.3211 -1.94916 -2.27262 0
M  V30 476 H 44.8671 -0.938566 -1.09211 0
M  V30 477 H 46.8201 -0.445561 -4.19038 0
M  V30 478 H 45.5441 0.362005 -3.24588 0
M  V30 479 H 44.2031 -1.77021 -3.21028 0
M  V30 480 H 43.8511 -0.0901903 -5.02919 0
M  V30 481 H 43.5511 -1.74732 -5.61019 0
M  V30 482 H 45.0751 -0.918092 -6.03658 0
M  V30 483 H 46.4891 -2.90777 -4.94087 0
M  V30 484 H 44.8861 -3.67425 -4.74467 0
M  V30 485 H 45.9561 -3.51518 -3.34011 0
M  V30 486 N 47.2992 1.18797 -1.03562 0
M  V30 487 C 48.5482 1.87978 -0.731235 0
M  V30 488 C 48.8612 1.80911 0.743671 0
M  V30 489 O 50.0672 2.45407 1.16137 0
M  V30 490 C 48.5232 3.3721 -1.25768 0
M  V30 491 C 48.1312 3.52818 -2.76085 0
M  V30 492 C 49.8752 4.11825 -1.0296 0
M  V30 493 C 47.7822 4.9598 -3.22114 0
M  V30 494 H 46.7122 0.704063 -0.269835 0
M  V30 495 H 49.3632 1.34266 -1.25079 0
M  V30 496 H 47.7452 3.90359 -0.666011 0
M  V30 497 H 48.9192 3.09965 -3.40966 0
M  V30 498 H 47.2342 2.91602 -2.97249 0
M  V30 499 H 49.8312 5.17411 -1.34869 0
M  V30 500 H 50.1742 4.16287 0.0333546 0
M  V30 501 H 50.7072 3.64833 -1.58562 0
M  V30 502 H 47.4462 4.96684 -4.27768 0
M  V30 503 H 46.9662 5.39569 -2.61965 0
M  V30 504 H 48.6452 5.6467 -3.15844 0
M  V30 505 N 48.7773 0.814389 1.34928 0
M  V30 506 C 50.0023 0.410097 2.03305 0
M  V30 507 C 50.4273 -0.973464 1.60951 0
M  V30 508 O 49.7853 -1.63185 0.789964 0
M  V30 509 C 49.8333 0.51049 3.56968 0
M  V30 510 O 48.9373 -0.473035 4.09678 0
M  V30 511 H 48.2783 0.170088 0.641846 0
M  V30 512 H 50.8083 1.10244 1.72358 0
M  V30 513 H 50.8183 0.383135 4.06197 0
M  V30 514 H 49.4933 1.51963 3.87144 0
M  V30 515 H 48.0703 -0.305272 3.71648 0
M  V30 516 N 50.2554 -1.46986 0.568584 0
M  V30 517 C 51.5324 -1.95592 -0.0174074 0
M  V30 518 C 51.9124 -1.51124 -1.47393 0
M  V30 519 O 51.2604 -0.755329 -2.15655 0
M  V30 520 C 51.4704 -3.48719 0.139913 0
M  V30 521 C 52.8184 -4.246 0.000426376 0
M  V30 522 O 53.8424 -3.56135 0.0680316 0
M  V30 523 O 52.7014 -5.46302 -0.146988 0
M  V30 524 H 49.7954 -0.82498 -0.0577599 0
M  V30 525 H 52.3414 -1.57335 0.635909 0
M  V30 526 H 51.1134 -3.73927 1.15301 0
M  V30 527 H 50.7364 -3.93771 -0.550491 0
M  V30 528 N 51.7335 -0.305618 -1.54608 0
M  V30 529 C 53.1495 0.0476228 -1.59529 0
M  V30 530 C 53.3495 1.52025 -1.32252 0
M  V30 531 O 52.4055 2.27368 -1.09818 0
M  V30 532 C 53.7185 -0.354471 -2.98603 0
M  V30 533 C 55.2665 -0.303622 -3.11524 0
M  V30 534 C 55.7415 -0.680608 -4.52915 0
M  V30 535 N 57.2325 -0.63332 -4.5885 0
M  V30 536 C 57.9675 -0.897432 -5.66334 0
M  V30 537 N 57.4635 -1.22775 -6.81834 0
M  V30 538 N 59.2565 -0.824186 -5.56025 0
M  V30 539 H 51.4075 -1.2653 -1.70599 0
M  V30 540 H 53.6705 -0.513291 -0.797017 0
M  V30 541 H 53.3765 -1.3798 -3.23503 0
M  V30 542 H 53.2505 0.289568 -3.76087 0
M  V30 543 H 55.6375 0.712472 -2.8637 0
M  V30 544 H 55.7185 -0.982348 -2.36185 0
M  V30 545 H 55.3625 -1.69453 -4.78799 0
M  V30 546 H 55.2925 0.0202385 -5.26596 0
M  V30 547 H 57.7835 -0.389138 -3.75891 0
M  V30 548 H 58.0965 -1.41513 -7.59733 0
M  V30 549 H 56.4415 -1.26583 -6.83375 0
M  V30 550 H 59.6325 -0.565748 -4.64669 0
M  V30 551 H 59.8055 -1.03338 -6.39707 0
M  V30 552 N 53.2116 1.57565 -0.0334293 0
M  V30 553 C 54.6226 1.79746 0.504798 0
M  V30 554 C 54.9736 0.944091 1.71992 0
M  V30 555 O 54.0986 0.155694 2.15839 0
M  V30 556 C 54.6936 3.25997 0.922567 0
M  V30 557 C 53.2526 3.49159 1.40588 0
M  V30 558 C 52.3996 2.74785 0.372633 0
M  V30 559 H 55.3506 1.56565 -0.259436 0
M  V30 560 H 55.3716 3.35945 1.78666 0
M  V30 561 H 54.8836 3.88081 0.0379825 0
M  V30 562 H 52.9846 2.92332 2.31025 0
M  V30 563 H 53.0976 4.57873 1.41028 0
M  V30 564 H 51.4616 2.40391 0.841672 0
M  V30 565 H 52.2446 3.39587 -0.503559 0
M  V30 566 N 54.6897 -0.239769 1.55765 0
M  V30 567 C 55.9197 -0.982743 1.8173 0
M  V30 568 C 56.3277 -1.7917 0.607835 0
M  V30 569 O 55.6707 -1.78525 -0.432973 0
M  V30 570 C 55.7327 -1.96332 3.01155 0
M  V30 571 C 55.3967 -1.34062 4.36894 0
M  V30 572 C 56.3937 -0.739539 5.14613 0
M  V30 573 C 54.0787 -1.35784 4.83599 0
M  V30 574 C 56.0727 -0.163989 6.37189 0
M  V30 575 C 53.7597 -0.778441 6.06122 0
M  V30 576 C 54.7577 -0.182548 6.82756 0
M  V30 577 O 54.4457 0.387887 8.02964 0
M  V30 578 H 54.1777 -0.294481 0.608487 0
M  V30 579 H 56.7317 -0.26572 2.03674 0
M  V30 580 H 54.9617 -2.71884 2.74984 0
M  V30 581 H 56.6507 -2.57032 3.14149 0
M  V30 582 H 57.4167 -0.718687 4.79646 0
M  V30 583 H 53.2957 -1.81105 4.23936 0
M  V30 584 H 56.8397 0.301753 6.96947 0
M  V30 585 H 52.7367 -0.796645 6.40565 0
M  V30 586 H 53.5047 0.28044 8.18019 0
M  V30 587 N 56.1678 -1.49265 -0.50573 0
M  V30 588 C 57.4148 -1.58513 -1.26015 0
M  V30 589 C 57.7428 -0.26972 -1.92621 0
M  V30 590 O 56.9978 0.741997 -1.81088 0
M  V30 591 C 57.2968 -2.69008 -2.35308 0
M  V30 592 C 56.9628 -4.10662 -1.86192 0
M  V30 593 C 55.6248 -4.49212 -1.72516 0
M  V30 594 C 57.9768 -4.99336 -1.49375 0
M  V30 595 C 55.3048 -5.74214 -1.20394 0
M  V30 596 C 57.6568 -6.24852 -0.987072 0
M  V30 597 C 56.3208 -6.62236 -0.836669 0
M  V30 598 H 55.5908 -0.580041 -0.461122 0
M  V30 599 H 58.2378 -1.83078 -0.561665 0
M  V30 600 H 56.5428 -2.38396 -3.10926 0
M  V30 601 H 58.2398 -2.73373 -2.93374 0
M  V30 602 H 54.8298 -3.8023 -1.97795 0
M  V30 603 H 59.0138 -4.70212 -1.5879 0
M  V30 604 H 54.2698 -6.01883 -1.07458 0
M  V30 605 H 58.4438 -6.92944 -0.692983 0
M  V30 606 H 56.0708 -7.58979 -0.430607 0
M  V30 607 N 57.6459 0.756429 -1.3826 0
M  V30 608 C 58.8939 1.51248 -1.34047 0
M  V30 609 C 59.2149 1.94875 0.0698372 0
M  V30 610 O 58.4849 1.67436 1.01696 0
M  V30 611 H 57.0649 0.561018 -0.493222 0
M  V30 612 H 59.7269 0.899347 -1.7291 0
M  V30 613 H 58.8229 2.40472 -1.98947 0
M  V30 614 N 59.124 1.23083 0.984299 0
M  V30 615 C 60.371 1.06057 1.72505 0
M  V30 616 C 60.699 -0.403105 1.90277 0
M  V30 617 O 59.954 -1.3149 1.44944 0
M  V30 618 C 60.253 1.72673 3.1292 0
M  V30 619 C 59.919 3.22586 3.15038 0
M  V30 620 C 58.581 3.63489 3.15324 0
M  V30 621 C 60.933 4.185 3.10657 0
M  V30 622 C 58.261 4.98772 3.08939 0
M  V30 623 C 60.613 5.53769 3.05814 0
M  V30 624 C 59.277 5.94041 3.04419 0
M  V30 625 H 58.547 0.388091 0.631242 0
M  V30 626 H 61.194 1.52963 1.15215 0
M  V30 627 H 59.499 1.18116 3.73572 0
M  V30 628 H 61.196 1.56982 3.68996 0
M  V30 629 H 57.786 2.90022 3.15571 0
M  V30 630 H 61.97 3.87911 3.09579 0
M  V30 631 H 57.226 5.29193 3.0621 0
M  V30 632 H 61.4 6.27808 3.0138 0
M  V30 633 H 59.027 6.98833 2.99227 0
M  V30 634 N 60.6021 -1.18246 1.0419 0
M  V30 635 C 61.8301 -1.92195 0.766072 0
M  V30 636 C 62.2451 -1.76247 -0.676933 0
M  V30 637 O 61.6021 -1.09293 -1.46155 0
M  V30 638 C 61.6531 -3.43568 1.12442 0
M  V30 639 O 61.3741 -3.59015 2.51078 0
M  V30 640 C 62.8751 -4.34613 0.873275 0
M  V30 641 H 60.0951 -0.610114 0.279288 0
M  V30 642 H 62.6391 -1.50007 1.38989 0
M  V30 643 H 60.7941 -3.8354 0.545542 0
M  V30 644 H 61.2081 -4.5273 2.64831 0
M  V30 645 H 62.6821 -5.39374 1.17385 0
M  V30 646 H 63.1591 -4.38781 -0.191909 0
M  V30 647 H 63.7651 -4.00341 1.43551 0
M  V30 648 N 62.0802 -0.821533 -1.34494 0
M  V30 649 C 63.4912 -0.467956 -1.8074 0
M  V30 650 C 63.8422 1.01151 -1.68116 0
M  V30 651 O 62.9672 1.78707 -1.22036 0
M  V30 652 C 63.5622 -0.842627 -3.28154 0
M  V30 653 C 62.1212 -0.541439 -3.72485 0
M  V30 654 C 61.2682 -1.06028 -2.56229 0
M  V30 655 H 64.2192 -1.01183 -1.22261 0
M  V30 656 H 64.2402 -0.145876 -3.8022 0
M  V30 657 H 63.7522 -1.91945 -3.37311 0
M  V30 658 H 61.8532 0.526034 -3.68868 0
M  V30 659 H 61.9662 -1.08453 -4.66663 0
M  V30 660 H 60.3302 -0.481892 -2.501 0
M  V30 661 H 61.1132 -2.14352 -2.68157 0
M  V30 662 N 63.5583 1.46682 -0.576371 0
M  V30 663 C 64.5213 2.28707 0.150239 0
M  V30 664 C 65.5213 1.38035 0.824794 0
M  V30 665 O 66.7113 1.60476 0.677719 0
M  V30 666 C 63.8433 3.18248 1.22192 0
M  V30 667 H 65.0363 2.94423 -0.570521 0
M  V30 668 H 62.5893 1.52688 -0.334078 0
M  V30 669 H 63.3243 2.57265 1.97447 0
M  V30 670 H 63.1093 3.85 0.742812 0
M  V30 671 H 64.5993 3.80001 1.73172 0
M  V30 672 N 65.0364 0.313813 1.54444 0
M  V30 673 C 66.2834 -0.291675 2.00388 0
M  V30 674 C 66.6114 -1.52904 1.2021 0
M  V30 675 O 65.8664 -1.93833 0.269707 0
M  V30 676 C 66.1654 -0.680386 3.50864 0
M  V30 677 C 65.8314 0.456699 4.48581 0
M  V30 678 C 64.4934 0.768824 4.75018 0
M  V30 679 C 66.8454 1.22098 5.06697 0
M  V30 680 C 64.1734 1.84812 5.56831 0
M  V30 681 C 66.5254 2.29029 5.89685 0
M  V30 682 C 65.1894 2.60834 6.14428 0
M  V30 683 H 64.4594 -0.106732 0.733273 0
M  V30 684 H 67.1064 0.43557 1.86481 0
M  V30 685 H 65.4114 -1.48791 3.62448 0
M  V30 686 H 67.1084 -1.16026 3.83847 0
M  V30 687 H 63.6984 0.203337 4.28117 0
M  V30 688 H 67.8824 0.993096 4.86263 0
M  V30 689 H 63.1384 2.09912 5.74236 0
M  V30 690 H 67.3124 2.887 6.33739 0
M  V30 691 H 64.9394 3.44596 6.77612 0
M  V30 692 N 66.5145 -1.57545 0.0417849 0
M  V30 693 C 67.9255 -1.80011 -0.495259 0
M  V30 694 C 68.2765 -0.953199 -1.71489 0
M  V30 695 O 67.4015 -0.167138 -2.15754 0
M  V30 696 C 67.9965 -3.26482 -0.905265 0
M  V30 697 C 66.5555 -3.499 -1.38734 0
M  V30 698 C 65.7025 -2.74979 -0.358056 0
M  V30 699 H 68.6535 -1.56425 0.267736 0
M  V30 700 H 68.6745 -3.36887 -1.76882 0
M  V30 701 H 68.1865 -3.88096 -0.017401 0
M  V30 702 H 66.2875 -2.93553 -2.29471 0
M  V30 703 H 66.4005 -4.58615 -1.38598 0
M  V30 704 H 64.7645 -2.40834 -0.828912 0
M  V30 705 H 65.5475 -3.39315 0.521561 0
M  V30 706 N 67.9926 0.231505 -1.5589 0
M  V30 707 C 68.9426 1.29007 -1.87993 0
M  V30 708 C 69.9266 1.42764 -0.742102 0
M  V30 709 O 71.1186 1.45747 -1.00433 0
M  V30 710 C 68.2476 2.6425 -2.1915 0
M  V30 711 C 67.3336 2.54435 -3.39299 0
M  V30 712 N 67.7246 2.14262 -4.58176 0
M  V30 713 C 66.0226 2.85416 -3.42715 0
M  V30 714 C 66.7236 2.15455 -5.40328 0
M  V30 715 N 65.6996 2.55558 -4.79783 0
M  V30 716 H 69.5016 0.970213 -2.77424 0
M  V30 717 H 67.0156 0.440097 -1.56323 0
M  V30 718 H 69.0126 3.40665 -2.40319 0
M  V30 719 H 67.6726 2.9709 -1.31025 0
M  V30 720 H 68.6836 1.85554 -4.83518 0
M  V30 721 H 65.3606 3.22693 -2.64906 0
M  V30 722 H 66.7506 1.86605 -6.45467 0
M  V30 723 N 69.4707 1.49531 0.497807 0
M  V30 724 C 70.4007 1.6935 1.60757 0
M  V30 725 C 71.3817 0.542218 1.61227 0
M  V30 726 O 72.5667 0.778417 1.77917 0
M  V30 727 C 69.6967 1.76298 2.99226 0
M  V30 728 C 68.6507 2.91248 3.13622 0
M  V30 729 C 67.9767 2.83312 4.53474 0
M  V30 730 C 69.2767 4.3214 2.93346 0
M  V30 731 H 70.9707 2.62263 1.44425 0
M  V30 732 H 68.5167 1.26208 0.693367 0
M  V30 733 H 70.4697 1.88749 3.76765 0
M  V30 734 H 69.1937 0.799871 3.16654 0
M  V30 735 H 67.8527 2.78404 2.38509 0
M  V30 736 H 67.5007 1.84902 4.67782 0
M  V30 737 H 67.2007 3.60465 4.64046 0
M  V30 738 H 68.7247 2.97775 5.33069 0
M  V30 739 H 70.1387 4.45649 3.60652 0
M  V30 740 H 68.5357 5.1054 3.15387 0
M  V30 741 H 69.6057 4.46363 1.89441 0
M  V30 742 N 70.9488 -0.749086 1.3866 0
M  V30 743 C 71.9118 -1.84457 1.36045 0
M  V30 744 C 72.9118 -1.58682 0.260122 0
M  V30 745 O 74.1018 -1.66343 0.517261 0
M  V30 746 C 71.2338 -3.22008 1.11911 0
M  V30 747 H 72.4268 -1.88182 2.33512 0
M  V30 748 H 69.9798 -0.951266 1.24019 0
M  V30 749 H 70.7148 -3.2395 0.150686 0
M  V30 750 H 70.4998 -3.42111 1.91579 0
M  V30 751 H 71.9898 -4.0208 1.12788 0
M  V30 752 N 72.4269 -1.23603 -0.977757 0
M  V30 753 C 73.3599 -0.962772 -2.06896 0
M  V30 754 C 74.3379 0.0998743 -1.62293 0
M  V30 755 O 75.5219 -0.0349421 -1.88468 0
M  V30 756 C 72.6489 -0.45095 -3.35685 0
M  V30 757 C 71.6949 -1.50061 -3.99229 0
M  V30 758 S 72.5279 -3.07884 -4.38142 0
M  V30 759 C 73.6839 -2.58378 -5.7008 0
M  V30 760 H 73.9169 -1.88677 -2.29757 0
M  V30 761 H 71.4499 -1.06876 -1.11431 0
M  V30 762 H 73.4079 -0.162261 -4.10179 0
M  V30 763 H 72.0689 0.452179 -3.10828 0
M  V30 764 H 71.2619 -1.09269 -4.92013 0
M  V30 765 H 70.8639 -1.73878 -3.31123 0
M  V30 766 H 73.1559 -2.00563 -6.47133 0
M  V30 767 H 74.0989 -3.49711 -6.15717 0
M  V30 768 H 74.5069 -1.99143 -5.28207 0
M  V30 769 N 73.905 1.17692 -1.04816 0
M  V30 770 C 75.153 1.87488 -0.754497 0
M  V30 771 C 75.474 1.81205 0.720407 0
M  V30 772 O 74.744 1.23544 1.52032 0
M  V30 773 H 73.324 0.694101 -0.276102 0
M  V30 774 H 75.986 1.42793 -1.32651 0
M  V30 775 H 75.082 2.93328 -1.06606 0
M  V30 776 N 75.3831 0.828654 1.34056 0
M  V30 777 C 76.6291 0.429279 1.98818 0
M  V30 778 C 76.9841 -0.998011 1.64492 0
M  V30 779 O 76.2771 -1.68652 0.909228 0
M  V30 780 C 76.4711 0.575226 3.52741 0
M  V30 781 C 76.3001 2.01515 4.02022 0
M  V30 782 C 75.0701 2.64825 4.30344 0
M  V30 783 C 77.2681 2.98261 4.18981 0
M  V30 784 N 75.2501 3.99998 4.65698 0
M  V30 785 C 76.6211 4.18356 4.57578 0
M  V30 786 C 78.6761 2.94802 4.01243 0
M  V30 787 C 77.3791 5.35454 4.80293 0
M  V30 788 C 79.4051 4.11121 4.25128 0
M  V30 789 C 78.7671 5.29969 4.64018 0
M  V30 790 H 74.8661 0.205304 0.754569 0
M  V30 791 H 77.4501 1.07457 1.62361 0
M  V30 792 H 75.6211 -0.0401962 3.88379 0
M  V30 793 H 77.3531 0.148292 4.04428 0
M  V30 794 H 74.1081 2.16027 4.21461 0
M  V30 795 H 74.5321 4.69653 4.87601 0
M  V30 796 H 79.1741 2.04054 3.70299 0
M  V30 797 H 76.8921 6.26755 5.10102 0
M  V30 798 H 80.4781 4.0985 4.12934 0
M  V30 799 H 79.3581 6.18479 4.82134 0
M  V30 800 N 76.8612 -1.46375 0.584142 0
M  V30 801 C 78.2772 -1.57694 0.245929 0
M  V30 802 C 78.4772 -1.57903 -1.25175 0
M  V30 803 O 77.5332 -1.49676 -2.03355 0
M  V30 804 C 78.8462 -2.87028 0.896402 0
M  V30 805 C 80.3942 -3.00662 0.870127 0
M  V30 806 C 80.8692 -4.32734 1.50017 0
M  V30 807 N 82.3602 -4.39436 1.46458 0
M  V30 808 C 83.0952 -5.40248 1.92144 0
M  V30 809 N 82.5912 -6.47726 2.4581 0
M  V30 810 N 84.3842 -5.31459 1.83052 0
M  V30 811 H 76.5352 -1.44483 1.55687 0
M  V30 812 H 78.7982 -0.689291 0.650831 0
M  V30 813 H 78.5042 -2.9269 1.95002 0
M  V30 814 H 78.3782 -3.75014 0.405486 0
M  V30 815 H 80.7652 -2.94581 -0.174871 0
M  V30 816 H 80.8462 -2.14148 1.39908 0
M  V30 817 H 80.4902 -4.39573 2.54437 0
M  V30 818 H 80.4202 -5.18025 0.946432 0
M  V30 819 H 82.9112 -3.62367 1.07231 0
M  V30 820 H 83.2242 -7.20863 2.78525 0
M  V30 821 H 81.5692 -6.48542 2.49836 0
M  V30 822 H 84.7602 -4.46396 1.40883 0
M  V30 823 H 84.9332 -6.09881 2.18973 0
M  V30 824 N 78.3393 -0.321999 -1.54275 0
M  V30 825 C 79.2863 0.544664 -2.24281 0
M  V30 826 C 80.2563 1.1129 -1.23303 0
M  V30 827 O 81.4413 1.15354 -1.51981 0
M  V30 828 C 78.5813 1.70045 -3.00298 0
M  V30 829 C 77.6943 1.16159 -4.1609 0
M  V30 830 C 76.8293 2.28293 -4.79641 0
M  V30 831 C 75.8683 1.71648 -5.8754 0
M  V30 832 N 75.0053 2.77438 -6.44959 0
M  V30 833 H 79.8453 -0.0588907 -2.97942 0
M  V30 834 H 77.3823 -0.0408345 -1.47043 0
M  V30 835 H 79.3403 2.38054 -3.42616 0
M  V30 836 H 77.9703 2.27531 -2.28975 0
M  V30 837 H 77.0223 0.373092 -3.78566 0
M  V30 838 H 78.3343 0.707087 -4.93763 0
M  V30 839 H 77.4883 3.0421 -5.2492 0
M  V30 840 H 76.2273 2.77079 -4.01346 0
M  V30 841 H 75.2323 0.942282 -5.41665 0
M  V30 842 H 76.4573 1.23741 -6.67731 0
M  V30 843 H 74.4033 3.25519 -5.69538 0
M  V30 844 H 74.3203 2.36547 -7.1804 0
M  V30 845 H 75.5883 3.53189 -6.94894 0
M  V30 846 N 79.8174 1.5752 -0.0501392 0
M  V30 847 C 81.0644 1.9265 0.623874 0
M  V30 848 C 81.3924 0.928411 1.70912 0
M  V30 849 O 80.6474 -0.0594525 1.9561 0
M  V30 850 C 80.9464 3.34467 1.25963 0
M  V30 851 C 80.6124 4.49883 0.302689 0
M  V30 852 C 79.2744 4.81184 0.0393636 0
M  V30 853 C 81.6264 5.20002 -0.353205 0
M  V30 854 C 78.9544 5.79951 -0.887308 0
M  V30 855 C 81.3064 6.1976 -1.26806 0
M  V30 856 C 79.9704 6.49491 -1.54007 0
M  V30 857 H 79.2404 0.704957 0.228292 0
M  V30 858 H 81.8874 1.91146 -0.116398 0
M  V30 859 H 80.1924 3.32333 2.07514 0
M  V30 860 H 81.8894 3.58928 1.78806 0
M  V30 861 H 78.4794 4.25457 0.518109 0
M  V30 862 H 82.6634 4.96033 -0.162854 0
M  V30 863 H 77.9194 6.01322 -1.10553 0
M  V30 864 H 82.0934 6.73205 -1.78236 0
M  V30 865 H 79.7204 7.25837 -2.25976 0
M  V30 866 N 81.2955 -0.223234 1.56011 0
M  V30 867 C 82.2055 -1.29766 1.95443 0
M  V30 868 C 83.2215 -1.51373 0.858028 0
M  V30 869 O 84.3975 -1.64536 1.16146 0
M  V30 870 C 81.4625 -2.62772 2.26167 0
M  V30 871 C 80.5235 -2.49482 3.49367 0
M  V30 872 C 79.7565 -3.76145 3.78616 0
M  V30 873 O 79.9795 -4.79087 3.09568 0
M  V30 874 O 78.9135 -3.73358 4.72109 0
M  V30 875 H 82.7395 -0.99309 2.87004 0
M  V30 876 H 80.3245 -0.425958 1.43199 0
M  V30 877 H 82.2065 -3.41327 2.47131 0
M  V30 878 H 80.8815 -2.92913 1.37781 0
M  V30 879 H 79.7885 -1.69133 3.33684 0
M  V30 880 H 81.1215 -2.2428 4.38131 0
M  V30 881 N 82.7736 -1.49793 -0.48987 0
M  V30 882 C 84.0506 -1.50348 -1.25119 0
M  V30 883 C 84.4306 -0.237466 -2.0976 0
M  V30 884 O 83.7786 0.77981 -2.14782 0
M  V30 885 C 83.9886 -2.78872 -2.09837 0
M  V30 886 C 85.3366 -3.288 -2.68655 0
M  V30 887 O 86.3606 -2.80065 -2.20096 0
M  V30 888 O 85.2196 -4.13707 -3.57083 0
M  V30 889 H 82.3136 -0.602242 -0.566775 0
M  V30 890 H 84.8596 -1.62067 -0.503229 0
M  V30 891 H 83.6316 -3.62499 -1.47343 0
M  V30 892 H 83.2546 -2.70066 -2.91805 0
M  V30 893 N 84.2517 0.741722 -1.39055 0
M  V30 894 C 85.5007 1.49656 -1.35225 0
M  V30 895 C 85.8137 1.95533 0.0512708 0
M  V30 896 O 87.0197 2.7067 0.212138 0
M  V30 897 C 85.4757 2.70389 -2.37525 0
M  V30 898 C 85.0837 2.31489 -3.83558 0
M  V30 899 C 86.8277 3.48236 -2.42759 0
M  V30 900 C 84.7347 3.48903 -4.77515 0
M  V30 901 H 83.6647 0.56197 -0.502699 0
M  V30 902 H 86.3157 0.809727 -1.64668 0
M  V30 903 H 84.6977 3.41113 -2.01142 0
M  V30 904 H 85.8717 1.68354 -4.28945 0
M  V30 905 H 84.1867 1.66749 -3.81554 0
M  V30 906 H 86.7837 4.35558 -3.1015 0
M  V30 907 H 87.1267 3.90229 -1.45008 0
M  V30 908 H 87.6597 2.84535 -2.78002 0
M  V30 909 H 84.3987 3.11966 -5.76504 0
M  V30 910 H 83.9187 4.11041 -4.36813 0
M  V30 911 H 85.5977 4.15328 -4.96096 0
M  V30 912 N 85.7298 1.2412 0.971189 0
M  V30 913 C 86.9548 1.10667 1.75407 0
M  V30 914 C 87.3798 -0.337048 1.85056 0
M  V30 915 O 86.7378 -1.24396 1.31892 0
M  V30 916 C 86.7858 1.74726 3.15441 0
M  V30 917 O 85.8898 1.01566 3.99697 0
M  V30 918 H 85.2308 0.387341 0.539317 0
M  V30 919 H 87.7608 1.64358 1.2185 0
M  V30 920 H 87.7708 1.80341 3.6598 0
M  V30 921 H 86.4458 2.79773 3.07734 0
M  V30 922 H 85.0228 1.03713 3.58187 0
M  V30 923 N 87.2079 -1.17134 1.05439 0
M  V30 924 C 88.4539 -1.87733 0.767077 0
M  V30 925 C 88.7869 -1.8098 -0.704253 0
M  V30 926 O 88.0619 -1.21951 -1.5152 0
M  V30 927 C 88.3449 -3.37659 1.25133 0
M  V30 928 C 88.1979 -3.53149 2.78578 0
M  V30 929 C 89.5169 -4.31768 0.852324 0
M  V30 930 H 86.6359 -0.681687 0.280129 0
M  V30 931 H 89.2779 -1.37732 1.30881 0
M  V30 932 H 87.4279 -3.80373 0.790469 0
M  V30 933 H 89.0999 -3.19434 3.32806 0
M  V30 934 H 87.3429 -2.95345 3.17732 0
M  V30 935 H 88.0139 -4.58403 3.07523 0
M  V30 936 H 90.4899 -3.96909 1.24911 0
M  V30 937 H 89.3659 -5.35199 1.21873 0
M  V30 938 H 89.6269 -4.41429 -0.243485 0
M  V30 939 N 88.686 -0.835752 -1.33615 0
M  V30 940 C 90.097 -0.487099 -1.80234 0
M  V30 941 C 90.448 0.993627 -1.69179 0
M  V30 942 O 89.573 1.77403 -1.23924 0
M  V30 943 C 90.168 -0.877385 -3.27242 0
M  V30 944 C 88.727 -0.580915 -3.7189 0
M  V30 945 C 87.874 -1.0874 -2.5509 0
M  V30 946 H 90.825 -1.02474 -1.2118 0
M  V30 947 H 90.846 -0.186195 -3.80044 0
M  V30 948 H 90.358 -1.95512 -3.35256 0
M  V30 949 H 88.459 0.486881 -3.69405 0
M  V30 950 H 88.572 -1.13396 -4.65487 0
M  V30 951 H 86.936 -0.508392 -2.49575 0
M  V30 952 H 87.719 -2.17184 -2.65868 0
M  V30 953 N 90.1641 1.46063 -0.591896 0
M  V30 954 C 91.0941 2.33172 0.123673 0
M  V30 955 C 92.0751 1.45897 0.87453 0
M  V30 956 O 93.2601 1.74698 0.848181 0
M  V30 957 C 90.3901 3.28336 1.13194 0
M  V30 958 C 89.3441 4.25124 0.495324 0
M  V30 959 C 88.6701 5.09863 1.61071 0
M  V30 960 C 89.9701 5.19143 -0.573425 0
M  V30 961 H 91.6641 2.93252 -0.603646 0
M  V30 962 H 89.2101 1.41014 -0.291741 0
M  V30 963 H 91.1631 3.88137 1.64097 0
M  V30 964 H 89.8871 2.66383 1.88965 0
M  V30 965 H 88.5461 3.66599 0.00729452 0
M  V30 966 H 88.1941 4.44288 2.35832 0
M  V30 967 H 87.8941 5.75417 1.19035 0
M  V30 968 H 89.4181 5.72529 2.12233 0
M  V30 969 H 90.8321 5.73106 -0.1491 0
M  V30 970 H 89.2291 5.93089 -0.914636 0
M  V30 971 H 90.2991 4.62519 -1.45617 0
M  V30 972 N 91.6422 0.330177 1.54103 0
M  V30 973 C 92.6052 -0.520144 2.2322 0
M  V30 974 C 93.6052 -1.03828 1.22786 0
M  V30 975 O 94.7952 -0.929652 1.4732 0
M  V30 976 C 91.9272 -1.72317 2.94142 0
M  V30 977 H 93.1202 0.0841605 2.99782 0
M  V30 978 H 90.6732 0.0813433 1.56088 0
M  V30 979 H 91.4082 -2.36653 2.21734 0
M  V30 980 H 91.1932 -1.35898 3.67796 0
M  V30 981 H 92.6832 -2.3266 3.46784 0
M  V30 982 N 93.1203 -1.57491 0.0584922 0
M  V30 983 C 94.5313 -1.80526 -0.476138 0
M  V30 984 C 94.8823 -0.971334 -1.70469 0
M  V30 985 O 94.0073 -0.190012 -2.15564 0
M  V30 986 C 94.6023 -3.27424 -0.870587 0
M  V30 987 C 93.1613 -3.51351 -1.35015 0
M  V30 988 C 92.3083 -2.75343 -0.32887 0
M  V30 989 H 95.2593 -1.56133 0.284312 0
M  V30 990 H 95.2803 -3.38745 -1.73299 0
M  V30 991 H 94.7923 -3.88093 0.0237627 0
M  V30 992 H 92.8933 -2.95971 -2.26345 0
M  V30 993 H 93.0063 -4.60059 -1.33726 0
M  V30 994 H 91.3703 -2.417 -0.803321 0
M  V30 995 H 92.1533 -3.38743 0.557521 0
M  V30 996 N 94.5984 0.214957 -1.56127 0
M  V30 997 C 95.5284 1.2695 -1.95974 0
M  V30 998 C 96.5094 1.48539 -0.828868 0
M  V30 999 O 97.6944 1.60611 -1.09168 0
M  V30 1000 C 94.8244 2.61794 -2.28214 0
M  V30 1001 C 93.7784 2.54851 -3.43853 0
M  V30 1002 C 93.1044 3.93785 -3.61715 0
M  V30 1003 C 94.4044 2.09065 -4.78632 0
M  V30 1004 H 96.0984 0.93846 -2.84312 0
M  V30 1005 H 93.6444 0.449996 -1.36788 0
M  V30 1006 H 95.5974 3.35731 -2.54682 0
M  V30 1007 H 94.3214 2.96599 -1.36736 0
M  V30 1008 H 92.9804 1.8337 -3.17444 0
M  V30 1009 H 92.6284 4.25908 -2.67602 0
M  V30 1010 H 92.3284 3.90019 -4.39498 0
M  V30 1011 H 93.8524 4.69374 -3.90539 0
M  V30 1012 H 95.2664 2.7275 -5.04262 0
M  V30 1013 H 93.6634 2.16346 -5.59745 0
M  V30 1014 H 94.7334 1.04315 -4.73547 0
M  V30 1015 N 96.0765 1.50051 0.48192 0
M  V30 1016 C 97.0065 1.71046 1.58951 0
M  V30 1017 C 97.9875 0.559288 1.60642 0
M  V30 1018 O 99.1725 0.797243 1.77081 0
M  V30 1019 C 96.3025 1.79462 2.97339 0
M  V30 1020 C 95.2565 2.94558 3.10515 0
M  V30 1021 C 94.5825 2.88105 4.50444 0
M  V30 1022 C 95.8825 4.35227 2.88747 0
M  V30 1023 H 97.5765 2.6378 1.41635 0
M  V30 1024 H 95.1225 1.26936 0.679942 0
M  V30 1025 H 97.0755 1.92734 3.74742 0
M  V30 1026 H 95.7995 0.833412 3.15788 0
M  V30 1027 H 94.4585 2.80918 2.35543 0
M  V30 1028 H 94.1065 1.89853 4.65795 0
M  V30 1029 H 93.8065 3.65366 4.60197 0
M  V30 1030 H 95.3305 3.03412 5.29881 0
M  V30 1031 H 96.7445 4.49449 3.55905 0
M  V30 1032 H 95.1415 5.13856 3.09955 0
M  V30 1033 H 96.2115 4.48347 1.84696 0
M  V30 1034 N 97.5546 -0.734337 1.39446 0
M  V30 1035 C 98.9656 -1.31264 1.32766 0
M  V30 1036 C 99.3166 -1.96198 -0.00767497 0
M  V30 1037 O 98.4416 -1.96346 -0.909796 0
M  V30 1038 C 99.0366 -2.38682 2.4045 0
M  V30 1039 C 97.5956 -2.92184 2.37288 0
M  V30 1040 C 96.7426 -1.6576 2.22304 0
M  V30 1041 H 99.6936 -0.531799 1.49525 0
M  V30 1042 H 99.7146 -3.19087 2.07276 0
M  V30 1043 H 99.2266 -1.91392 3.37625 0
M  V30 1044 H 97.3276 -3.43752 1.43754 0
M  V30 1045 H 97.4406 -3.45253 3.3217 0
M  V30 1046 H 95.8046 -1.9012 1.69489 0
M  V30 1047 H 96.5876 -1.20521 3.21449 0
M  V30 1048 N 99.0327 -1.24633 -0.964593 0
M  V30 1049 C 99.9797 -1.04144 -2.05968 0
M  V30 1050 C 100.95 0.046262 -1.66036 0
M  V30 1051 O 102.135 -0.108972 -1.90489 0
M  V30 1052 C 99.2747 -0.65563 -3.38815 0
M  V30 1053 C 98.3877 -1.81714 -3.91923 0
M  V30 1054 C 97.5227 -1.37662 -5.13052 0
M  V30 1055 C 96.5617 -2.50788 -5.58365 0
M  V30 1056 N 95.6987 -2.07582 -6.70712 0
M  V30 1057 H 100.539 -1.9787 -2.22827 0
M  V30 1058 H 98.0757 -0.9855 -1.09208 0
M  V30 1059 H 100.034 -0.412954 -4.15151 0
M  V30 1060 H 98.6637 0.244627 -3.21872 0
M  V30 1061 H 97.7157 -2.1734 -3.12198 0
M  V30 1062 H 99.0277 -2.66705 -4.21509 0
M  V30 1063 H 98.1817 -1.093 -5.96773 0
M  V30 1064 H 96.9207 -0.497293 -4.85158 0
M  V30 1065 H 95.9257 -2.79906 -4.73215 0
M  V30 1066 H 97.1507 -3.39283 -5.88272 0
M  V30 1067 H 95.0967 -1.22051 -6.44546 0
M  V30 1068 H 95.0137 -2.86125 -6.99763 0
M  V30 1069 H 96.2817 -1.82369 -7.57867 0
M  V30 1070 N 100.511 1.16574 -1.06058 0
M  V30 1071 C 101.758 1.87047 -0.775873 0
M  V30 1072 C 102.086 1.81562 0.697534 0
M  V30 1073 O 101.341 1.22445 1.52662 0
M  V30 1074 C 101.64 3.36195 -1.21275 0
M  V30 1075 C 101.306 3.6188 -2.68986 0
M  V30 1076 C 99.9678 3.68599 -3.09335 0
M  V30 1077 C 102.32 3.72648 -3.64394 0
M  V30 1078 C 99.6478 3.83584 -4.43937 0
M  V30 1079 C 102 3.89154 -4.98741 0
M  V30 1080 C 100.664 3.94114 -5.3873 0
M  V30 1081 H 99.9338 0.684452 -0.283912 0
M  V30 1082 H 102.581 1.37853 -1.32925 0
M  V30 1083 H 100.886 3.87505 -0.578528 0
M  V30 1084 H 102.583 3.89103 -0.969542 0
M  V30 1085 H 99.1728 3.57281 -2.36744 0
M  V30 1086 H 103.357 3.66769 -3.34356 0
M  V30 1087 H 98.6128 3.85677 -4.74409 0
M  V30 1088 H 102.787 3.96427 -5.72554 0
M  V30 1089 H 100.414 4.05478 -6.43033 0
M  V30 1090 N 101.989 0.842826 1.3317 0
M  V30 1091 C 102.937 0.267495 2.31057 0
M  V30 1092 C 103.931 -0.602682 1.58316 0
M  V30 1093 O 105.137 -0.491803 1.73151 0
M  V30 1094 H 101.512 0.0677813 0.748939 0
M  V30 1095 H 103.483 1.10754 2.77085 0
M  V30 1096 C 102.232 -0.539331 3.43492 0
M  V30 1097 H 101.555 0.12095 3.99617 0
M  V30 1098 H 102.995 -0.90767 4.14171 0
M  V30 1099 C 101.454 -1.71981 2.89697 0
M  V30 1100 O 101.984 -2.81862 2.86211 0
M  V30 1101 N 100.19 -1.54299 2.46252 0
M  V30 1102 H 99.7369 -0.649143 2.49287 0
M  V30 1103 H 99.6949 -2.33431 2.10612 0
M  V30 1104 N 103.467 -1.45747 0.599634 0
M  V30 1105 C 104.716 -2.01502 0.0893511 0
M  V30 1106 C 105.029 -1.4748 -1.28488 0
M  V30 1107 O 106.235 -1.95161 -1.88745 0
M  V30 1108 C 104.691 -3.59735 0.109082 0
M  V30 1109 C 104.299 -4.22754 1.48267 0
M  V30 1110 C 106.043 -4.23085 -0.346374 0
M  V30 1111 C 103.95 -5.73115 1.45921 0
M  V30 1112 H 102.88 -0.753417 0.0296347 0
M  V30 1113 H 105.531 -1.67303 0.753788 0
M  V30 1114 H 103.913 -3.91087 -0.621854 0
M  V30 1115 H 105.087 -4.02987 2.23468 0
M  V30 1116 H 103.402 -3.71567 1.87955 0
M  V30 1117 H 105.999 -5.33327 -0.38298 0
M  V30 1118 H 106.342 -3.93201 -1.36743 0
M  V30 1119 H 106.875 -3.9642 0.331038 0
M  V30 1120 H 103.614 -6.07685 2.45762 0
M  V30 1121 H 103.134 -5.95097 0.749665 0
M  V30 1122 H 104.813 -6.3616 1.17941 0
M  V30 1123 N 104.945 -0.338344 -1.53925 0
M  V30 1124 C 105.855 0.529421 -2.28548 0
M  V30 1125 C 106.871 1.11645 -1.3346 0
M  V30 1126 O 108.047 1.13325 -1.66492 0
M  V30 1127 C 105.112 1.66713 -3.03987 0
M  V30 1128 C 104.173 1.11041 -4.14691 0
M  V30 1129 C 103.406 2.19389 -4.86522 0
M  V30 1130 O 103.629 3.40013 -4.57982 0
M  V30 1131 O 102.563 1.83976 -5.73094 0
M  V30 1132 H 106.389 -0.0770399 -3.03602 0
M  V30 1133 H 103.974 -0.103555 -1.49041 0
M  V30 1134 H 105.856 2.32918 -3.5118 0
M  V30 1135 H 104.531 2.25949 -2.31794 0
M  V30 1136 H 103.438 0.413024 -3.71813 0
M  V30 1137 H 104.771 0.562975 -4.8897 0
M  V30 1138 N 106.423 1.57458 -0.0668435 0
M  V30 1139 C 107.67 1.93301 0.603406 0
M  V30 1140 C 107.998 0.946486 1.69917 0
M  V30 1141 O 107.253 -0.0387021 1.95662 0
M  V30 1142 C 107.552 3.35784 1.22409 0
M  V30 1143 C 107.218 4.50179 0.254955 0
M  V30 1144 C 105.88 4.81199 -0.0116746 0
M  V30 1145 C 108.232 5.19598 -0.408338 0
M  V30 1146 C 105.56 5.78978 -0.94877 0
M  V30 1147 C 107.912 6.18381 -1.33372 0
M  V30 1148 C 106.576 6.47821 -1.60887 0
M  V30 1149 H 105.846 0.707338 0.220802 0
M  V30 1150 H 108.493 1.91012 -0.136665 0
M  V30 1151 H 106.798 3.34515 2.03978 0
M  V30 1152 H 108.495 3.60804 1.74989 0
M  V30 1153 H 105.085 4.25983 0.472954 0
M  V30 1154 H 109.269 4.95832 -0.215456 0
M  V30 1155 H 104.525 6.00115 -1.16925 0
M  V30 1156 H 108.699 6.71277 -1.85367 0
M  V30 1157 H 106.326 7.23399 -2.33661 0
M  V30 1158 N 107.901 -0.206675 1.56239 0
M  V30 1159 C 109.15 -0.926964 1.79138 0
M  V30 1160 C 109.463 -1.84901 0.638043 0
M  V30 1161 O 110.669 -2.60906 0.751033 0
M  V30 1162 C 109.125 -1.6986 3.17294 0
M  V30 1163 C 108.733 -0.821956 4.40395 0
M  V30 1164 C 110.477 -2.40922 3.4951 0
M  V30 1165 C 108.384 -1.59179 5.69575 0
M  V30 1166 H 107.314 -0.349864 0.667915 0
M  V30 1167 H 109.965 -0.180487 1.8261 0
M  V30 1168 H 108.347 -2.48853 3.08039 0
M  V30 1169 H 109.521 -0.0715019 4.60745 0
M  V30 1170 H 107.836 -0.222741 4.15804 0
M  V30 1171 H 110.433 -2.99047 4.43255 0
M  V30 1172 H 110.776 -3.14542 2.72707 0
M  V30 1173 H 111.309 -1.68905 3.60161 0
M  V30 1174 H 108.048 -0.898589 6.49312 0
M  V30 1175 H 107.568 -2.31648 5.53262 0
M  V30 1176 H 109.247 -2.14862 6.10281 0
M  V30 1177 N 109.379 -1.50304 -0.473955 0
M  V30 1178 C 110.327 -1.69482 -1.59307 0
M  V30 1179 C 111.321 -0.560669 -1.59853 0
M  V30 1180 O 112.527 -0.741087 -1.64036 0
M  V30 1181 H 108.902 -0.534892 -0.528578 0
M  V30 1182 H 110.873 -2.63364 -1.40293 0
M  V30 1183 C 109.622 -1.80354 -2.97267 0
M  V30 1184 H 108.945 -2.67012 -2.97564 0
M  V30 1185 H 110.385 -1.97798 -3.75036 0
M  V30 1186 C 108.844 -0.55448 -3.32306 0
M  V30 1187 O 109.374 0.307661 -4.0052 0
M  V30 1188 N 107.58 -0.409354 -2.87702 0
M  V30 1189 H 107.127 -1.11196 -2.32364 0
M  V30 1190 H 107.085 0.425223 -3.11511 0
M  V30 1191 N 110.857 0.726932 -1.39834 0
M  V30 1192 C 111.767 1.87131 -1.41489 0
M  V30 1193 C 112.783 1.71239 -0.308757 0
M  V30 1194 O 113.959 1.93701 -0.551529 0
M  V30 1195 C 111.024 3.22811 -1.26468 0
M  V30 1196 C 110.085 3.51039 -2.47124 0
M  V30 1197 C 109.318 4.80245 -2.3281 0
M  V30 1198 O 109.541 5.54537 -1.33585 0
M  V30 1199 O 108.475 5.08554 -3.21957 0
M  V30 1200 H 112.301 1.8869 -2.3797 0
M  V30 1201 H 109.886 0.875837 -1.21035 0
M  V30 1202 H 111.768 4.03877 -1.20255 0
M  V30 1203 H 110.443 3.22005 -0.330862 0
M  V30 1204 H 109.35 2.70027 -2.58914 0
M  V30 1205 H 110.683 3.56632 -3.39227 0
M  V30 1206 N 112.336 1.25143 0.95797 0
M  V30 1207 C 113.283 1.05235 2.05412 0
M  V30 1208 C 114.253 -0.0374561 1.66058 0
M  V30 1209 O 115.438 0.119073 1.90428 0
M  V30 1210 C 112.578 0.673589 3.38462 0
M  V30 1211 C 111.691 1.8379 3.90954 0
M  V30 1212 C 110.826 1.40381 5.12315 0
M  V30 1213 C 109.865 2.53746 5.57027 0
M  V30 1214 N 109.002 2.11136 6.69601 0
M  V30 1215 H 113.842 1.99048 2.21774 0
M  V30 1216 H 111.379 0.991277 1.08683 0
M  V30 1217 H 113.337 0.434964 4.14926 0
M  V30 1218 H 111.967 -0.227554 3.21997 0
M  V30 1219 H 111.019 2.18992 3.11041 0
M  V30 1220 H 112.331 2.68937 4.20089 0
M  V30 1221 H 111.485 1.12464 5.96185 0
M  V30 1222 H 110.224 0.523015 4.84887 0
M  V30 1223 H 109.229 2.82412 4.71724 0
M  V30 1224 H 110.454 3.42398 5.86464 0
M  V30 1225 H 108.4 1.25468 6.4389 0
M  V30 1226 H 108.317 2.89832 6.98236 0
M  V30 1227 H 109.585 1.86385 7.56889 0
M  V30 1228 N 113.814 -1.1601 1.06675 0
M  V30 1229 C 114.777 -2.18724 0.685001 0
M  V30 1230 C 115.777 -1.58496 -0.271246 0
M  V30 1231 O 116.967 -1.74119 -0.0531156 0
M  V30 1232 C 114.099 -3.40899 0.00853648 0
M  V30 1233 H 115.292 -2.54011 1.59431 0
M  V30 1234 H 112.845 -1.30352 0.862441 0
M  V30 1235 H 113.58 -3.11173 -0.913337 0
M  V30 1236 H 113.365 -3.8587 0.696204 0
M  V30 1237 H 114.855 -4.16886 -0.24414 0
M  V30 1238 N 115.292 -0.849877 -1.32721 0
M  V30 1239 C 116.202 -0.293791 -2.32753 0
M  V30 1240 C 117.218 0.585906 -1.63839 0
M  V30 1241 O 118.394 0.487413 -1.95413 0
M  V30 1242 C 115.459 0.512752 -3.42887 0
M  V30 1243 C 114.52 -0.39252 -4.27502 0
M  V30 1244 C 113.753 0.375625 -5.32377 0
M  V30 1245 O 113.976 1.60613 -5.4732 0
M  V30 1246 O 112.91 -0.256094 -6.01355 0
M  V30 1247 H 116.736 -1.12242 -2.82197 0
M  V30 1248 H 114.321 -0.612685 -1.36259 0
M  V30 1249 H 116.203 0.970704 -4.10067 0
M  V30 1250 H 114.878 1.31826 -2.95641 0
M  V30 1251 H 113.785 -0.898547 -3.63149 0
M  V30 1252 H 115.118 -1.16309 -4.7826 0
M  V30 1253 N 116.77 1.45427 -0.607355 0
M  V30 1254 C 117.995 2.07124 -0.107006 0
M  V30 1255 C 118.42 1.44906 1.19933 0
M  V30 1256 O 117.778 0.541687 1.73019 0
M  V30 1257 C 117.826 3.60595 0.0194119 0
M  V30 1258 O 116.93 3.98285 1.0697 0
M  V30 1259 H 116.271 0.659868 -0.0739597 0
M  V30 1260 H 118.801 1.86683 -0.837297 0
M  V30 1261 H 118.811 4.07419 0.2177 0
M  V30 1262 H 117.486 4.05266 -0.934453 0
M  V30 1263 H 116.063 3.63133 0.847889 0
M  V30 1264 N 118.248 0.346503 1.53744 0
M  V30 1265 C 119.497 -0.250122 2.00143 0
M  V30 1266 C 119.81 -1.51418 1.23822 0
M  V30 1267 O 121.016 -2.18823 1.60713 0
M  V30 1268 C 119.472 -0.496252 3.56462 0
M  V30 1269 C 119.08 0.752077 4.41642 0
M  V30 1270 C 120.824 -1.05157 4.11269 0
M  V30 1271 C 118.731 0.476583 5.89477 0
M  V30 1272 H 117.661 -0.0972409 0.747703 0
M  V30 1273 H 120.312 0.46229 1.77581 0
M  V30 1274 H 118.694 -1.26944 3.75102 0
M  V30 1275 H 119.868 1.5266 4.34778 0
M  V30 1276 H 118.183 1.22925 3.97842 0
M  V30 1277 H 120.78 -1.27269 5.19333 0
M  V30 1278 H 121.123 -2.00799 3.64672 0
M  V30 1279 H 121.656 -0.339019 3.96353 0
M  V30 1280 H 118.395 1.4028 6.40314 0
M  V30 1281 H 117.915 -0.259794 5.99237 0
M  V30 1282 H 119.594 0.0949315 6.4693 0
M  V30 1283 N 119.726 -1.57421 0.075193 0
M  V30 1284 C 121.003 -1.85029 -0.634329 0
M  V30 1285 C 121.383 -0.968305 -1.87582 0
M  V30 1286 O 120.731 -0.0354749 -2.28472 0
M  V30 1287 C 120.941 -3.35286 -0.968742 0
M  V30 1288 C 122.289 -4.02875 -1.34077 0
M  V30 1289 O 123.313 -3.40051 -1.06037 0
M  V30 1290 O 122.172 -5.13691 -1.86506 0
M  V30 1291 H 119.266 -0.7645 -0.315387 0
M  V30 1292 H 121.812 -1.69366 0.106382 0
M  V30 1293 H 120.584 -3.91203 -0.0871376 0
M  V30 1294 H 120.207 -3.56223 -1.7661 0
M  V30 1295 N 121.204 0.198386 -1.56346 0
M  V30 1296 C 122.615 0.763358 -1.70381 0
M  V30 1297 C 122.966 1.83995 -0.681203 0
M  V30 1298 O 122.091 2.15785 0.16305 0
M  V30 1299 C 122.686 1.39143 -3.08909 0
M  V30 1300 C 121.245 1.90352 -3.2472 0
M  V30 1301 C 120.392 0.772233 -2.6633 0
M  V30 1302 H 123.343 -0.0266377 -1.58678 0
M  V30 1303 H 123.364 2.26076 -3.06055 0
M  V30 1304 H 122.876 0.607638 -3.83314 0
M  V30 1305 H 120.977 2.71461 -2.55225 0
M  V30 1306 H 121.09 2.06757 -4.3219 0
M  V30 1307 H 119.454 1.18566 -2.2542 0
M  V30 1308 H 120.237 0.00073556 -3.433 0
M  V30 1309 N 122.682 1.50554 0.465978 0
M  V30 1310 C 123.959 1.5232 1.22712 0
M  V30 1311 C 124.339 0.270807 2.09356 0
M  V30 1312 O 123.687 -0.745541 2.15995 0
M  V30 1313 C 123.897 2.82175 2.05374 0
M  V30 1314 C 125.245 3.33033 2.6339 0
M  V30 1315 O 126.269 2.83531 2.15612 0
M  V30 1316 O 125.128 4.19336 3.50456 0
M  V30 1317 H 122.222 0.611183 0.557122 0
M  V30 1318 H 124.768 1.62847 0.477381 0
M  V30 1319 H 123.54 3.64797 1.41558 0
M  V30 1320 H 123.163 2.74675 2.87471 0
M  V30 1321 N 124.16 -0.719506 1.40217 0
M  V30 1322 C 125.123 -1.8153 1.39927 0
M  V30 1323 C 126.123 -1.58095 0.293723 0
M  V30 1324 O 127.313 -1.65209 0.552429 0
M  V30 1325 C 124.445 -3.19561 1.18716 0
M  V30 1326 H 125.638 -1.83186 2.37451 0
M  V30 1327 H 123.191 -0.924746 1.26008 0
M  V30 1328 H 123.926 -3.23557 0.219366 0
M  V30 1329 H 123.711 -3.3797 1.98793 0
M  V30 1330 H 125.201 -3.99598 1.21291 0
M  V30 1331 N 125.638 -1.25649 -0.95132 0
M  V30 1332 C 126.586 -1.06118 -2.06982 0
M  V30 1333 C 127.58 0.00889169 -1.69398 0
M  V30 1334 O 128.786 -0.146988 -1.79399 0
M  V30 1335 H 125.161 -0.326248 -0.677544 0
M  V30 1336 H 127.132 -2.00932 -2.2061 0
M  V30 1337 C 125.881 -0.700145 -3.40578 0
M  V30 1338 H 125.204 -1.51537 -3.69968 0
M  V30 1339 H 126.644 -0.603211 -4.19687 0
M  V30 1340 C 125.103 0.59403 -3.31622 0
M  V30 1341 O 125.633 1.63522 -3.66911 0
M  V30 1342 N 123.839 0.58089 -2.84735 0
M  V30 1343 H 123.386 -0.266783 -2.56215 0
M  V30 1344 H 123.344 1.44695 -2.79125 0
M  V30 1345 N 127.117 1.15442 -1.07289 0
M  V30 1346 C 128.345 1.90096 -0.81676 0
M  V30 1347 C 128.76 1.7798 0.629966 0
M  V30 1348 O 128.117 1.1313 1.43206 0
M  V30 1349 C 128.168 3.40466 -1.21512 0
M  V30 1350 O 127.889 3.52232 -2.60508 0
M  V30 1351 C 129.39 4.32145 -0.988198 0
M  V30 1352 H 126.61 0.602495 -0.295366 0
M  V30 1353 H 129.154 1.4627 -1.42918 0
M  V30 1354 H 127.309 3.81958 -0.647039 0
M  V30 1355 H 127.723 4.45549 -2.76742 0
M  V30 1356 H 129.197 5.36072 -1.31645 0
M  V30 1357 H 129.674 4.39135 0.0755063 0
M  V30 1358 H 130.28 3.96395 -1.54115 0
M  V30 1359 N 128.595 0.856903 1.32268 0
M  V30 1360 C 129.841 0.462069 1.97466 0
M  V30 1361 C 130.174 -0.980298 1.67642 0
M  V30 1362 O 129.449 -1.68824 0.965858 0
M  V30 1363 C 129.732 0.704336 3.53145 0
M  V30 1364 C 129.585 2.19529 3.9259 0
M  V30 1365 C 130.904 0.1622 4.39801 0
M  V30 1366 H 128.023 0.169357 0.717278 0
M  V30 1367 H 130.665 1.07574 1.56614 0
M  V30 1368 H 128.815 0.181999 3.88073 0
M  V30 1369 H 130.487 2.78387 3.67829 0
M  V30 1370 H 128.73 2.67292 3.41668 0
M  V30 1371 H 129.401 2.31549 5.01088 0
M  V30 1372 H 131.877 0.608905 4.11621 0
M  V30 1373 H 130.753 0.361265 5.4771 0
M  V30 1374 H 131.014 -0.935158 4.32096 0
M  V30 1375 N 130.073 -1.45103 0.615059 0
M  V30 1376 C 131.301 -2.06553 0.11977 0
M  V30 1377 C 131.716 -1.45842 -1.19898 0
M  V30 1378 O 131.073 -0.575325 -1.73194 0
M  V30 1379 C 131.124 -3.61495 -0.018364 0
M  V30 1380 O 130.845 -4.19942 1.24822 0
M  V30 1381 C 132.346 -4.39947 -0.544237 0
M  V30 1382 H 129.566 -0.667096 0.0722739 0
M  V30 1383 H 132.11 -1.8623 0.84491 0
M  V30 1384 H 130.265 -3.81135 -0.693865 0
M  V30 1385 H 130.679 -5.13204 1.0827 0
M  V30 1386 H 132.153 -5.48838 -0.589953 0
M  V30 1387 H 132.63 -4.10255 -1.56805 0
M  V30 1388 H 133.236 -4.25188 0.0974703 0
M  V30 1389 N 131.551 -0.354651 -1.53558 0
M  V30 1390 C 132.779 0.239515 -2.05509 0
M  V30 1391 C 133.194 1.4333 -1.2289 0
M  V30 1392 O 132.551 1.80538 -0.266899 0
M  V30 1393 C 132.602 0.643719 -3.55723 0
M  V30 1394 O 132.323 -0.502602 -4.35207 0
M  V30 1395 C 133.824 1.29743 -4.23889 0
M  V30 1396 H 131.044 0.0442697 -0.669538 0
M  V30 1397 H 133.588 -0.509856 -1.98042 0
M  V30 1398 H 131.743 1.34302 -3.63376 0
M  V30 1399 H 132.157 -0.178172 -5.24197 0
M  V30 1400 H 133.631 1.53091 -5.30346 0
M  V30 1401 H 134.108 2.25441 -3.76926 0
M  V30 1402 H 134.714 0.639865 -4.20459 0
M  V30 1403 N 133.029 1.57378 -0.0835403 0
M  V30 1404 C 133.961 2.10389 0.909338 0
M  V30 1405 C 134.974 1.03858 1.25369 0
M  V30 1406 O 136.163 1.31338 1.20882 0
M  V30 1407 C 133.263 2.55908 2.2218 0
M  V30 1408 C 132.436 3.86145 2.05453 0
M  V30 1409 C 131.495 4.17633 3.20108 0
M  V30 1410 O 130.521 4.87043 2.94581 0
M  V30 1411 N 131.723 3.72113 4.45547 0
M  V30 1412 H 134.488 2.962 0.456657 0
M  V30 1413 H 132.049 1.61579 0.101877 0
M  V30 1414 H 134.041 2.74027 2.97811 0
M  V30 1415 H 132.611 1.75171 2.58909 0
M  V30 1416 H 131.831 3.7729 1.1422 0
M  V30 1417 H 133.119 4.7137 1.91541 0
M  V30 1418 H 132.517 3.16062 4.69171 0
M  V30 1419 H 131.074 3.95409 5.18165 0
M  V30 1420 N 134.507 -0.190092 1.56449 0
M  V30 1421 C 135.732 -0.929864 1.85387 0
M  V30 1422 C 136.157 -1.7585 0.667704 0
M  V30 1423 O 135.515 -1.77198 -0.383459 0
M  V30 1424 C 135.563 -1.79773 3.12593 0
M  V30 1425 O 134.667 -2.89713 2.93496 0
M  V30 1426 H 134.008 -0.261574 0.610307 0
M  V30 1427 H 136.538 -0.193896 2.03679 0
M  V30 1428 H 136.548 -2.20139 3.43515 0
M  V30 1429 H 135.223 -1.18892 3.98544 0
M  V30 1430 H 133.8 -2.53065 2.73884 0
M  V30 1431 N 135.985 -1.50799 -0.457987 0
M  V30 1432 C 137.233 -1.62121 -1.2067 0
M  V30 1433 C 137.554 -0.329793 -1.92191 0
M  V30 1434 O 136.824 0.653409 -1.84682 0
M  V30 1435 H 135.404 -0.597441 -0.448411 0
M  V30 1436 H 138.066 -1.87637 -0.527096 0
M  V30 1437 H 137.162 -2.43882 -1.94751 0
M  V30 1438 N 137.463 0.71206 -1.40597 0
M  V30 1439 C 138.41 1.82613 -1.41142 0
M  V30 1440 C 139.38 1.63925 -0.267903 0
M  V30 1441 O 140.565 1.85009 -0.466495 0
M  V30 1442 C 137.705 3.20354 -1.28324 0
M  V30 1443 C 136.818 3.50589 -2.52411 0
M  V30 1444 C 135.953 4.77855 -2.32009 0
M  V30 1445 C 134.992 5.01005 -3.51654 0
M  V30 1446 N 134.129 6.19487 -3.30425 0
M  V30 1447 H 138.969 1.81482 -2.36365 0
M  V30 1448 H 136.506 0.886475 -1.17388 0
M  V30 1449 H 138.464 3.99899 -1.18899 0
M  V30 1450 H 137.094 3.20705 -0.367189 0
M  V30 1451 H 136.146 2.65573 -2.72351 0
M  V30 1452 H 137.458 3.63604 -3.41458 0
M  V30 1453 H 136.612 5.65424 -2.19956 0
M  V30 1454 H 135.351 4.67056 -1.40392 0
M  V30 1455 H 134.356 4.1189 -3.64179 0
M  V30 1456 H 135.581 5.13674 -4.44202 0
M  V30 1457 H 133.527 6.09932 -2.41494 0
M  V30 1458 H 133.444 6.33194 -4.13039 0
M  V30 1459 H 134.712 7.09834 -3.22113 0
M  V30 1460 N 138.941 1.26152 0.944643 0
M  V30 1461 C 139.888 1.07408 2.04285 0
M  V30 1462 C 140.858 -0.0198413 1.66088 0
M  V30 1463 O 142.043 0.139264 1.90291 0
M  V30 1464 C 139.183 0.70945 3.37729 0
M  V30 1465 C 138.296 1.87926 3.88983 0
M  V30 1466 C 137.431 1.45807 5.10797 0
M  V30 1467 C 136.47 2.5964 5.54305 0
M  V30 1468 N 135.607 2.18226 6.67324 0
M  V30 1469 H 140.447 2.01389 2.1965 0
M  V30 1470 H 137.984 1.00275 1.07626 0
M  V30 1471 H 139.942 0.478948 4.14442 0
M  V30 1472 H 138.572 -0.193389 3.2222 0
M  V30 1473 H 137.624 2.22279 3.08701 0
M  V30 1474 H 138.936 2.73377 4.17213 0
M  V30 1475 H 138.09 1.18781 5.94959 0
M  V30 1476 H 136.829 0.574414 4.84305 0
M  V30 1477 H 135.834 2.87399 4.68702 0
M  V30 1478 H 137.059 3.48599 5.828 0
M  V30 1479 H 135.005 1.3229 6.42523 0
M  V30 1480 H 134.922 2.97221 6.95123 0
M  V30 1481 H 136.19 1.94403 7.54869 0
M  V30 1482 N 140.419 -1.14872 1.07899 0
M  V30 1483 C 141.668 -1.85135 0.800499 0
M  V30 1484 C 141.981 -1.83547 -0.676014 0
M  V30 1485 O 143.187 -2.49548 -1.06948 0
M  V30 1486 C 141.643 -3.3231 1.38197 0
M  V30 1487 C 141.251 -3.42329 2.8899 0
M  V30 1488 C 142.995 -4.0772 1.18174 0
M  V30 1489 C 140.902 -4.83684 3.403 0
M  V30 1490 H 139.832 -0.693563 0.29578 0
M  V30 1491 H 142.483 -1.29532 1.29976 0
M  V30 1492 H 140.865 -3.87618 0.810431 0
M  V30 1493 H 142.039 -2.97097 3.52236 0
M  V30 1494 H 140.354 -2.80369 3.07867 0
M  V30 1495 H 142.951 -5.12049 1.5398 0
M  V30 1496 H 143.294 -4.16124 0.12117 0
M  V30 1497 H 143.827 -3.58696 1.71994 0
M  V30 1498 H 140.566 -4.80465 4.45907 0
M  V30 1499 H 140.086 -5.29474 2.81811 0
M  V30 1500 H 141.765 -5.52558 3.36584 0
M  V30 1501 N 141.898 -0.863906 -1.31812 0
M  V30 1502 C 142.808 -0.318461 -2.32428 0
M  V30 1503 C 143.824 0.568496 -1.64451 0
M  V30 1504 O 145 0.46666 -1.95919 0
M  V30 1505 C 142.065 0.476355 -3.43412 0
M  V30 1506 C 141.126 -0.43784 -4.27061 0
M  V30 1507 C 140.359 0.319138 -5.32745 0
M  V30 1508 O 140.582 1.54799 -5.48993 0
M  V30 1509 O 139.516 -0.319861 -6.01049 0
M  V30 1510 H 143.342 -1.15229 -2.80991 0
M  V30 1511 H 140.927 -0.627103 -1.35602 0
M  V30 1512 H 142.809 0.927156 -4.11074 0
M  V30 1513 H 141.484 1.28683 -2.97022 0
M  V30 1514 H 140.391 -0.937013 -3.62175 0
M  V30 1515 H 141.724 -1.21375 -4.77 0
M  V30 1516 N 143.376 1.44774 -0.622745 0
M  V30 1517 C 144.606 2.06187 -0.130532 0
M  V30 1518 C 145.014 1.46547 1.19669 0
M  V30 1519 O 144.357 0.579636 1.74316 0
M  V30 1520 C 144.419 3.59437 0.0674983 0
M  V30 1521 C 144.083 4.41496 -1.18026 0
M  V30 1522 C 145.08 4.75512 -2.102 0
M  V30 1523 C 142.765 4.82007 -1.41333 0
M  V30 1524 C 144.759 5.48912 -3.23998 0
M  V30 1525 C 142.446 5.55157 -2.55429 0
M  V30 1526 C 143.444 5.88528 -3.46589 0
M  V30 1527 O 143.132 6.60191 -4.58697 0
M  V30 1528 H 142.864 0.672045 -0.0730162 0
M  V30 1529 H 145.418 1.86768 -0.854802 0
M  V30 1530 H 143.648 3.77314 0.846825 0
M  V30 1531 H 145.337 4.02642 0.513209 0
M  V30 1532 H 146.103 4.4476 -1.93425 0
M  V30 1533 H 141.982 4.55457 -0.712709 0
M  V30 1534 H 145.526 5.74877 -3.95174 0
M  V30 1535 H 141.423 5.85324 -2.72151 0
M  V30 1536 H 142.191 6.78654 -4.57571 0
M  V30 1537 N 144.854 0.36279 1.53368 0
M  V30 1538 C 146.131 -0.284021 1.93527 0
M  V30 1539 C 146.511 -1.66628 1.29608 0
M  V30 1540 O 145.859 -2.23942 0.45413 0
M  V30 1541 C 146.069 -0.337028 3.47369 0
M  V30 1542 C 147.417 -0.578708 4.20638 0
M  V30 1543 O 148.441 -0.418352 3.53735 0
M  V30 1544 O 147.3 -0.89074 5.39192 0
M  V30 1545 H 144.394 -0.169743 0.809393 0
M  V30 1546 H 146.94 0.41537 1.64538 0
M  V30 1547 H 145.712 0.632217 3.86159 0
M  V30 1548 H 145.335 -1.08243 3.82582 0
M  V30 1549 N 146.332 -1.57332 0.0918853 0
M  V30 1550 C 147.562 -1.98286 -0.580205 0
M  V30 1551 C 147.97 -0.969713 -1.6246 0
M  V30 1552 O 147.313 0.0493501 -1.83634 0
M  V30 1553 C 147.375 -3.35603 -1.28882 0
M  V30 1554 C 147.039 -4.55285 -0.395559 0
M  V30 1555 C 148.036 -5.18687 0.355002 0
M  V30 1556 C 145.721 -5.01314 -0.314556 0
M  V30 1557 C 147.715 -6.26484 1.17458 0
M  V30 1558 C 145.402 -6.08979 0.508677 0
M  V30 1559 C 146.4 -6.71429 1.2519 0
M  V30 1560 O 146.088 -7.77018 2.06151 0
M  V30 1561 H 145.82 -0.656678 -0.160466 0
M  V30 1562 H 148.374 -2.04721 0.16688 0
M  V30 1563 H 146.604 -3.25842 -2.08241 0
M  V30 1564 H 148.293 -3.61026 -1.85512 0
M  V30 1565 H 149.059 -4.84058 0.302134 0
M  V30 1566 H 144.938 -4.5247 -0.882697 0
M  V30 1567 H 148.482 -6.75159 1.75518 0
M  V30 1568 H 144.379 -6.4304 0.563037 0
M  V30 1569 H 145.147 -7.93991 1.98799 0
M  V30 1570 N 147.81 0.181792 -1.56548 0
M  V30 1571 C 148.74 1.22765 -1.98623 0
M  V30 1572 C 149.721 1.46747 -0.860189 0
M  V30 1573 O 150.906 1.58259 -1.12551 0
M  V30 1574 C 148.036 2.56894 -2.33715 0
M  V30 1575 C 146.99 2.475 -3.49182 0
M  V30 1576 C 146.316 3.86023 -3.69986 0
M  V30 1577 C 147.616 1.98866 -4.82959 0
M  V30 1578 H 149.31 0.877942 -2.86239 0
M  V30 1579 H 146.856 0.42088 -1.37712 0
M  V30 1580 H 148.809 3.30253 -2.61746 0
M  V30 1581 H 147.533 2.93632 -1.42997 0
M  V30 1582 H 146.192 1.76596 -3.21262 0
M  V30 1583 H 145.84 4.20136 -2.76576 0
M  V30 1584 H 145.54 3.80609 -4.47672 0
M  V30 1585 H 147.064 4.60984 -4.00407 0
M  V30 1586 H 148.478 2.61992 -5.09934 0
M  V30 1587 H 146.875 2.04424 -5.64208 0
M  V30 1588 H 147.945 0.942465 -4.75653 0
M  V30 1589 N 149.288 1.51039 0.449983 0
M  V30 1590 C 150.534 1.63322 1.20223 0
M  V30 1591 C 150.867 0.34241 1.91158 0
M  V30 1592 O 150.142 -0.657344 1.83055 0
M  V30 1593 C 150.425 2.82801 2.22925 0
M  V30 1594 C 150.278 4.21823 1.56157 0
M  V30 1595 C 151.597 2.97807 3.24035 0
M  V30 1596 H 148.716 0.594407 0.435718 0
M  V30 1597 H 151.358 1.83489 0.493136 0
M  V30 1598 H 149.508 2.65738 2.834 0
M  V30 1599 H 151.18 4.50526 0.991162 0
M  V30 1600 H 149.423 4.25105 0.864172 0
M  V30 1601 H 150.094 5.01391 2.30891 0
M  V30 1602 H 152.57 3.13497 2.73603 0
M  V30 1603 H 151.446 3.82992 3.93202 0
M  V30 1604 H 151.707 2.09328 3.89402 0
M  V30 1605 N 150.766 -0.704594 1.40972 0
M  V30 1606 C 152.015 -1.46018 1.39146 0
M  V30 1607 C 152.328 -1.956 0.000589254 0
M  V30 1608 O 153.534 -2.71137 -0.1403 0
M  V30 1609 C 151.99 -2.63996 2.4461 0
M  V30 1610 C 151.598 -2.21238 3.89561 0
M  V30 1611 C 153.342 -3.41677 2.51907 0
M  V30 1612 C 151.249 -3.3612 4.86598 0
M  V30 1613 H 150.179 -0.548444 0.517422 0
M  V30 1614 H 152.83 -0.765784 1.66757 0
M  V30 1615 H 151.212 -3.3566 2.10115 0
M  V30 1616 H 152.386 -1.56923 4.33257 0
M  V30 1617 H 150.701 -1.56574 3.85841 0
M  V30 1618 H 153.298 -4.27182 3.2159 0
M  V30 1619 H 153.641 -3.86247 1.55303 0
M  V30 1620 H 154.174 -2.77064 2.85448 0
M  V30 1621 H 150.913 -2.96572 5.84573 0
M  V30 1622 H 150.433 -3.99315 4.47557 0
M  V30 1623 H 152.112 -4.02029 5.06934 0
M  V30 1624 N 152.244 -1.26651 -0.937939 0
M  V30 1625 C 153.207 -1.08546 -2.01867 0
M  V30 1626 C 154.207 -0.0327327 -1.60767 0
M  V30 1627 O 155.397 -0.276427 -1.71993 0
M  V30 1628 C 152.529 -0.651711 -3.34613 0
M  V30 1629 H 153.722 -2.04502 -2.1936 0
M  V30 1630 H 151.275 -1.09294 -1.11734 0
M  V30 1631 H 152.01 0.309696 -3.22818 0
M  V30 1632 H 151.795 -1.41189 -3.65798 0
M  V30 1633 H 153.285 -0.546973 -4.14002 0
M  V30 1634 N 153.722 1.14298 -1.08507 0
M  V30 1635 C 154.95 1.89219 -0.836876 0
M  V30 1636 C 155.365 1.78638 0.611054 0
M  V30 1637 O 154.722 1.14643 1.41998 0
M  V30 1638 C 154.773 3.39158 -1.25116 0
M  V30 1639 O 154.494 3.49449 -2.64229 0
M  V30 1640 C 155.995 4.31073 -1.03398 0
M  V30 1641 H 153.215 0.599328 -0.301739 0
M  V30 1642 H 155.759 1.44746 -1.44461 0
M  V30 1643 H 153.914 3.81251 -0.687514 0
M  V30 1644 H 154.328 4.42589 -2.81452 0
M  V30 1645 H 155.802 5.34646 -1.37323 0
M  V30 1646 H 156.279 4.3919 0.0289259 0
M  V30 1647 H 156.885 3.94738 -1.58311 0
M  V30 1648 N 155.201 0.870884 1.31352 0
M  V30 1649 C 156.449 0.48132 1.96285 0
M  V30 1650 C 156.77 -0.969813 1.69173 0
M  V30 1651 O 156.04 -1.67998 1.00764 0
M  V30 1652 H 154.62 0.175002 0.726212 0
M  V30 1653 H 157.282 1.11087 1.60143 0
M  V30 1654 H 156.378 0.639825 3.05471 0
M  V30 1655 N 156.679 -1.44442 0.630414 0
M  V30 1656 C 158.09 -1.85434 0.217063 0
M  V30 1657 C 158.441 -1.52748 -1.23136 0
M  V30 1658 O 157.566 -0.965205 -1.93682 0
M  V30 1659 C 158.161 -3.36581 0.387168 0
M  V30 1660 C 156.72 -3.76389 0.0283297 0
M  V30 1661 C 155.867 -2.68296 0.700889 0
M  V30 1662 H 158.818 -1.34919 0.83562 0
M  V30 1663 H 158.839 -3.78657 -0.374086 0
M  V30 1664 H 158.351 -3.60339 1.44144 0
M  V30 1665 H 156.452 -3.58246 -1.02423 0
M  V30 1666 H 156.565 -4.77095 0.437892 0
M  V30 1667 H 154.929 -2.54335 0.136267 0
M  V30 1668 H 155.712 -2.94887 1.75774 0
M  V30 1669 N 158.157 -0.370918 -1.53173 0
M  V30 1670 C 159.104 0.473035 -2.259 0
M  V30 1671 C 160.074 1.07311 -1.26781 0
M  V30 1672 O 161.259 1.1046 -1.55574 0
M  V30 1673 C 158.399 1.60405 -3.05556 0
M  V30 1674 C 157.512 1.02863 -4.19575 0
M  V30 1675 C 156.647 2.12918 -4.86661 0
M  V30 1676 C 155.686 1.52869 -5.92704 0
M  V30 1677 N 154.823 2.56779 -6.53459 0
M  V30 1678 H 159.663 -0.153649 -2.97604 0
M  V30 1679 H 157.2 -0.0875946 -1.46839 0
M  V30 1680 H 159.158 2.27034 -3.50016 0
M  V30 1681 H 157.788 2.20131 -2.36097 0
M  V30 1682 H 156.84 0.252465 -3.79561 0
M  V30 1683 H 158.152 0.549642 -4.95762 0
M  V30 1684 H 157.306 2.87356 -5.34333 0
M  V30 1685 H 156.045 2.6417 -4.09958 0
M  V30 1686 H 155.05 0.769479 -5.44389 0
M  V30 1687 H 156.275 1.02435 -6.7133 0
M  V30 1688 H 154.221 3.07235 -5.79606 0
M  V30 1689 H 154.138 2.13583 -7.25202 0
M  V30 1690 H 155.406 3.30903 -7.05779 0
M  V30 1691 N 159.635 1.57281 -0.100228 0
M  V30 1692 C 160.565 2.17328 0.853857 0
M  V30 1693 C 161.546 1.10804 1.2906 0
M  V30 1694 O 162.731 1.38963 1.35657 0
M  V30 1695 C 159.861 2.75772 2.11109 0
M  V30 1696 C 158.815 3.87713 1.81279 0
M  V30 1697 C 158.141 4.32882 3.13874 0
M  V30 1698 C 159.441 5.10677 1.09574 0
M  V30 1699 H 161.135 2.97305 0.353545 0
M  V30 1700 H 158.681 1.43009 0.168612 0
M  V30 1701 H 160.634 3.16433 2.78296 0
M  V30 1702 H 159.358 1.93057 2.63432 0
M  V30 1703 H 158.017 3.476 1.16489 0
M  V30 1704 H 157.665 3.47051 3.64095 0
M  V30 1705 H 157.365 5.08358 2.94696 0
M  V30 1706 H 158.889 4.7618 3.82211 0
M  V30 1707 H 160.303 5.48474 1.66879 0
M  V30 1708 H 158.7 5.91615 1.00557 0
M  V30 1709 H 159.77 4.84835 0.0793299 0
M  V30 1710 N 161.113 -0.173488 1.56642 0
M  V30 1711 C 162.359 -0.891784 1.8214 0
M  V30 1712 C 162.692 -1.8199 0.677736 0
M  V30 1713 O 161.967 -1.91842 -0.320446 0
M  V30 1714 C 162.25 -1.68933 3.18015 0
M  V30 1715 C 162.103 -0.784487 4.42906 0
M  V30 1716 C 163.422 -2.65748 3.50808 0
M  V30 1717 H 160.541 -0.322761 0.662567 0
M  V30 1718 H 163.183 -0.158095 1.89341 0
M  V30 1719 H 161.333 -2.31482 3.12007 0
M  V30 1720 H 163.005 -0.172046 4.60979 0
M  V30 1721 H 161.248 -0.0924117 4.33702 0
M  V30 1722 H 161.919 -1.37799 5.34524 0
M  V30 1723 H 164.395 -2.13327 3.57255 0
M  V30 1724 H 163.271 -3.18619 4.4696 0
M  V30 1725 H 163.532 -3.45842 2.75401 0
M  V30 1726 N 162.591 -1.51276 -0.441967 0
M  V30 1727 C 163.838 -1.63715 -1.19179 0
M  V30 1728 C 164.166 -0.351175 -1.91303 0
M  V30 1729 O 163.421 0.664524 -1.84072 0
M  V30 1730 C 163.72 -2.78746 -2.23686 0
M  V30 1731 C 163.386 -4.18189 -1.68607 0
M  V30 1732 C 162.048 -4.56125 -1.53308 0
M  V30 1733 C 164.4 -5.05222 -1.28062 0
M  V30 1734 C 161.728 -5.78804 -0.959317 0
M  V30 1735 C 164.08 -6.28476 -0.721162 0
M  V30 1736 C 162.744 -6.65188 -0.55504 0
M  V30 1737 H 162.014 -0.599076 -0.436106 0
M  V30 1738 H 164.661 -1.85296 -0.48351 0
M  V30 1739 H 162.966 -2.51369 -3.00535 0
M  V30 1740 H 164.663 -2.8557 -2.81515 0
M  V30 1741 H 161.253 -3.88277 -1.8149 0
M  V30 1742 H 165.437 -4.76524 -1.38704 0
M  V30 1743 H 160.693 -6.05899 -0.81833 0
M  V30 1744 H 164.867 -6.95259 -0.398458 0
M  V30 1745 H 162.494 -7.60123 -0.108311 0
M  V30 1746 N 164.069 0.697108 -1.41344 0
M  V30 1747 C 165.317 1.45426 -1.40341 0
M  V30 1748 C 165.638 1.94996 -0.0128787 0
M  V30 1749 O 164.908 1.71599 0.945027 0
M  V30 1750 H 163.488 0.539594 -0.516573 0
M  V30 1751 H 166.15 0.825201 -1.76569 0
M  V30 1752 H 165.246 2.31817 -2.08967 0
M  V30 1753 N 165.547 1.27147 0.931209 0
M  V30 1754 C 166.51 1.09615 2.01289 0
M  V30 1755 C 167.51 0.0412581 1.60747 0
M  V30 1756 O 168.7 0.285545 1.71844 0
M  V30 1757 C 165.832 0.669447 3.34262 0
M  V30 1758 H 167.025 2.05662 2.18273 0
M  V30 1759 H 164.578 1.09885 1.11153 0
M  V30 1760 H 165.313 -0.292572 3.22978 0
M  V30 1761 H 165.098 1.43127 3.65044 0
M  V30 1762 H 166.588 0.568921 4.13706 0
M  V30 1763 N 167.025 -1.13721 1.09112 0
M  V30 1764 C 167.935 -2.22638 0.73957 0
M  V30 1765 C 168.951 -1.72091 -0.257068 0
M  V30 1766 O 170.127 -2.01155 -0.0992154 0
M  V30 1767 C 167.192 -3.46322 0.16191 0
M  V30 1768 C 166.253 -4.11775 1.21408 0
M  V30 1769 C 165.486 -5.29555 0.663891 0
M  V30 1770 O 165.709 -5.68077 -0.514274 0
M  V30 1771 O 164.643 -5.84973 1.41738 0
M  V30 1772 H 168.469 -2.55074 1.64836 0
M  V30 1773 H 166.054 -1.21791 0.865289 0
M  V30 1774 H 167.936 -4.21107 -0.157073 0
M  V30 1775 H 166.611 -3.15593 -0.719932 0
M  V30 1776 H 165.518 -3.3883 1.58571 0
M  V30 1777 H 166.851 -4.46627 2.06845 0
M  V30 1778 N 168.503 -0.877838 -1.30888 0
M  V30 1779 C 169.751 -0.491723 -1.96027 0
M  V30 1780 C 170.072 0.960827 -1.69685 0
M  V30 1781 O 169.342 1.67462 -1.01654 0
M  V30 1782 H 167.922 -0.17885 -0.725273 0
M  V30 1783 H 170.584 -1.11935 -1.59551 0
M  V30 1784 H 169.68 -0.656016 -3.05128 0
M  V30 1785 N 169.982 1.44106 -0.638065 0
M  V30 1786 C 170.914 2.28976 0.101205 0
M  V30 1787 C 171.927 1.4167 0.802088 0
M  V30 1788 O 173.116 1.65755 0.662375 0
M  V30 1789 C 170.216 3.18217 1.16581 0
M  V30 1790 C 169.389 4.33978 0.546066 0
M  V30 1791 C 168.448 5.04202 1.50554 0
M  V30 1792 O 167.474 5.59986 1.01999 0
M  V30 1793 N 168.676 5.06296 2.8398 0
M  V30 1794 H 171.441 2.93064 -0.627186 0
M  V30 1795 H 169.002 1.54629 -0.479731 0
M  V30 1796 H 170.994 3.62061 1.80815 0
M  V30 1797 H 169.564 2.55833 1.79634 0
M  V30 1798 H 168.784 3.93239 -0.275046 0
M  V30 1799 H 170.072 5.08675 0.112793 0
M  V30 1800 H 169.47 4.62319 3.26002 0
M  V30 1801 H 168.027 5.53907 3.43556 0
M  V30 1802 N 171.46 0.379036 1.52974 0
M  V30 1803 C 172.37 -0.468639 2.29872 0
M  V30 1804 C 173.386 -1.08067 1.36373 0
M  V30 1805 O 174.562 -1.08871 1.69438 0
M  V30 1806 C 171.627 -1.58594 3.083 0
M  V30 1807 C 170.688 -1.00007 4.17489 0
M  V30 1808 C 169.921 -2.06413 4.92168 0
M  V30 1809 O 170.144 -3.27751 4.66835 0
M  V30 1810 O 169.078 -1.68717 5.7777 0
M  V30 1811 H 172.904 0.157508 3.03291 0
M  V30 1812 H 170.489 0.143035 1.48714 0
M  V30 1813 H 172.371 -2.23525 3.57232 0
M  V30 1814 H 171.046 -2.19724 2.37703 0
M  V30 1815 H 169.953 -0.314299 3.72777 0
M  V30 1816 H 171.286 -0.433135 4.90291 0
M  V30 1817 N 172.938 -1.57226 0.108567 0
M  V30 1818 C 173.848 -2.18292 -0.859401 0
M  V30 1819 C 174.864 -1.15612 -1.30038 0
M  V30 1820 O 176.04 -1.48039 -1.36552 0
M  V30 1821 C 173.105 -2.762 -2.09558 0
M  V30 1822 C 172.166 -3.93881 -1.70752 0
M  V30 1823 C 171.399 -4.49018 -2.88477 0
M  V30 1824 O 171.622 -4.03068 -4.036 0
M  V30 1825 O 170.556 -5.39852 -2.66164 0
M  V30 1826 H 174.382 -3.01441 -0.369769 0
M  V30 1827 H 171.967 -1.48945 -0.1165 0
M  V30 1828 H 173.849 -3.13156 -2.81978 0
M  V30 1829 H 172.524 -1.96089 -2.57548 0
M  V30 1830 H 171.431 -3.61713 -0.954714 0
M  V30 1831 H 172.764 -4.75396 -1.27513 0
M  V30 1832 N 174.416 0.165178 -1.56732 0
M  V30 1833 C 175.364 1.22369 -1.97809 0
M  V30 1834 C 176.358 1.45488 -0.867741 0
M  V30 1835 O 177.564 1.45995 -1.05288 0
M  V30 1836 H 173.939 0.411486 -0.629431 0
M  V30 1837 H 175.91 0.850425 -2.86025 0
M  V30 1838 C 174.659 2.55403 -2.35934 0
M  V30 1839 H 173.982 2.38438 -3.20916 0
M  V30 1840 H 175.422 3.2814 -2.68514 0
M  V30 1841 C 173.881 3.14611 -1.20506 0
M  V30 1842 O 174.411 3.98626 -0.496016 0
M  V30 1843 N 172.617 2.7379 -0.97403 0
M  V30 1844 H 172.164 2.0557 -1.55238 0
M  V30 1845 H 172.122 3.1374 -0.203573 0
M  V30 1846 N 175.894 1.51508 0.433938 0
M  V30 1847 C 177.119 1.68443 1.21003 0
M  V30 1848 C 177.544 0.382636 1.84167 0
M  V30 1849 O 176.902 -0.65755 1.68956 0
M  V30 1850 C 176.95 2.80405 2.26727 0
M  V30 1851 O 176.054 2.44245 3.32292 0
M  V30 1852 H 175.395 0.561536 0.354363 0
M  V30 1853 H 177.925 1.9809 0.512024 0
M  V30 1854 H 177.935 3.0459 2.71457 0
M  V30 1855 H 176.61 3.74867 1.80132 0
M  V30 1856 H 175.187 2.30644 2.93015 0
M  V30 1857 N 177.372 -0.689602 1.41712 0
M  V30 1858 C 178.6 -1.47827 1.44758 0
M  V30 1859 C 179.015 -1.88721 0.0545703 0
M  V30 1860 O 178.372 -1.57176 -0.927463 0
M  V30 1861 C 178.423 -2.73698 2.3616 0
M  V30 1862 O 178.144 -2.34524 3.7004 0
M  V30 1863 C 179.645 -3.67389 2.48072 0
M  V30 1864 H 176.865 -0.455357 0.49284 0
M  V30 1865 H 179.409 -0.848574 1.86063 0
M  V30 1866 H 177.564 -3.32891 1.98148 0
M  V30 1867 H 177.978 -3.15701 4.18847 0
M  V30 1868 H 179.452 -4.52475 3.16181 0
M  V30 1869 H 179.929 -4.12284 1.51388 0
M  V30 1870 H 180.535 -3.14097 2.86746 0
M  V30 1871 N 178.85 -1.27639 -0.924453 0
M  V30 1872 C 180.075 -1.17101 -1.71179 0
M  V30 1873 C 180.5 0.268134 -1.86179 0
M  V30 1874 O 179.858 1.19415 -1.36418 0
M  V30 1875 C 179.906 -1.86313 -3.08739 0
M  V30 1876 O 179.01 -1.16331 -3.95652 0
M  V30 1877 H 178.351 -0.407091 -0.524569 0
M  V30 1878 H 180.881 -1.68767 -1.15666 0
M  V30 1879 H 180.891 -1.938 -3.59034 0
M  V30 1880 H 179.566 -2.91001 -2.97138 0
M  V30 1881 H 178.143 -1.16935 -3.54091 0
M  V30 1882 N 180.328 1.1314 -1.09713 0
M  V30 1883 C 181.577 1.83838 -0.829851 0
M  V30 1884 C 181.89 1.84599 0.646728 0
M  V30 1885 O 183.096 2.51218 1.02965 0
M  V30 1886 C 181.552 3.30069 -1.43466 0
M  V30 1887 C 181.16 3.37688 -2.94399 0
M  V30 1888 C 182.904 4.05788 -1.24645 0
M  V30 1889 C 180.811 4.78209 -3.47952 0
M  V30 1890 H 179.741 0.68877 -0.306777 0
M  V30 1891 H 182.392 1.27448 -1.3202 0
M  V30 1892 H 180.774 3.8628 -0.871996 0
M  V30 1893 H 181.948 2.91456 -3.56918 0
M  V30 1894 H 180.263 2.75436 -3.12289 0
M  V30 1895 H 182.86 5.09535 -1.62107 0
M  V30 1896 H 183.203 4.15878 -0.187357 0
M  V30 1897 H 183.736 3.55915 -1.77678 0
M  V30 1898 H 180.475 4.73311 -4.53495 0
M  V30 1899 H 179.995 5.24924 -2.90198 0
M  V30 1900 H 181.674 5.47133 -3.45332 0
M  V30 1901 N 181.806 0.884767 1.30421 0
M  V30 1902 C 183.046 0.509806 1.9794 0
M  V30 1903 C 183.41 -0.923736 1.68319 0
M  V30 1904 O 184.611 -1.40481 2.29169 0
M  V30 1905 C 182.882 0.776732 3.48858 0
M  V30 1906 S 184.441 0.503843 4.35898 0
M  V30 1907 H 181.259 0.189699 0.685227 0
M  V30 1908 H 183.861 1.14399 1.58535 0
M  V30 1909 H 182.565 1.81857 3.67908 0
M  V30 1910 H 182.096 0.1301 3.93185 0
M  V30 1911 H 184.111 -0.657625 4.91823 0
M  V30 1912 N 183.284 -1.43765 0.645699 0
M  V30 1913 C 184.512 -2.06253 0.163556 0
M  V30 1914 C 184.927 -1.48352 -1.16778 0
M  V30 1915 O 184.284 -0.611932 -1.71935 0
M  V30 1916 C 184.335 -3.61453 0.0583186 0
M  V30 1917 O 184.056 -4.172 1.33702 0
M  V30 1918 C 185.557 -4.41002 -0.450795 0
M  V30 1919 H 182.777 -0.665413 0.0864077 0
M  V30 1920 H 185.321 -1.84396 0.884222 0
M  V30 1921 H 183.476 -3.82522 -0.612865 0
M  V30 1922 H 183.89 -5.10791 1.19131 0
M  V30 1923 H 185.364 -5.49966 -0.473403 0
M  V30 1924 H 185.841 -4.13488 -1.48068 0
M  V30 1925 H 186.447 -4.24886 0.187637 0
M  V30 1926 N 184.763 -0.387143 -1.52771 0
M  V30 1927 C 185.726 0.436939 -2.24997 0
M  V30 1928 C 186.726 0.991991 -1.26555 0
M  V30 1929 O 187.916 0.874335 -1.50669 0
M  V30 1930 C 185.048 1.61281 -3.00335 0
M  V30 1931 H 186.241 -0.195365 -2.99263 0
M  V30 1932 H 183.794 -0.139218 -1.55679 0
M  V30 1933 H 184.529 2.2826 -2.30364 0
M  V30 1934 H 184.314 1.22154 -3.72587 0
M  V30 1935 H 185.804 2.19629 -3.5518 0
M  V30 1936 N 186.241 1.57166 -0.116904 0
M  V30 1937 C 187.151 2.18745 0.847812 0
M  V30 1938 C 188.167 1.163 1.29423 0
M  V30 1939 O 189.343 1.48761 1.35765 0
M  V30 1940 C 186.408 2.77307 2.0809 0
M  V30 1941 C 185.469 3.94781 1.68661 0
M  V30 1942 C 184.702 4.50541 2.86091 0
M  V30 1943 O 184.925 4.05202 4.01456 0
M  V30 1944 O 183.859 5.41256 2.63298 0
M  V30 1945 H 187.685 3.01632 0.353778 0
M  V30 1946 H 185.27 1.49005 0.108599 0
M  V30 1947 H 187.152 3.14647 2.80313 0
M  V30 1948 H 185.827 1.97452 2.56504 0
M  V30 1949 H 184.734 3.62214 0.935518 0
M  V30 1950 H 186.067 4.76065 1.24991 0
M  V30 1951 N 187.719 -0.156864 1.56817 0
M  V30 1952 C 188.669 -1.19891 1.93934 0
M  V30 1953 C 189.653 -1.39061 0.809372 0
M  V30 1954 O 190.845 -1.40789 1.07273 0
M  V30 1955 C 187.974 -2.53493 2.31508 0
M  V30 1956 C 187.06 -2.37957 3.51052 0
M  V30 1957 N 187.451 -1.92158 4.67877 0
M  V30 1958 C 185.749 -2.68739 3.55943 0
M  V30 1959 C 186.45 -1.8943 5.49992 0
M  V30 1960 N 185.426 -2.32375 4.91429 0
M  V30 1961 H 189.228 -0.836746 2.81737 0
M  V30 1962 H 186.742 -0.365012 1.58245 0
M  V30 1963 H 188.739 -3.28811 2.56299 0
M  V30 1964 H 187.399 -2.905 1.45051 0
M  V30 1965 H 188.41 -1.62274 4.91821 0
M  V30 1966 H 185.087 -3.09687 2.80001 0
M  V30 1967 H 186.477 -1.55596 6.53636 0
M  V30 1968 N 189.197 -1.51736 -0.425897 0
M  V30 1969 C 190.16 -1.73271 -1.50032 0
M  V30 1970 C 191.16 -0.602639 -1.4908 0
M  V30 1971 O 192.35 -0.87033 -1.509 0
M  V30 1972 C 189.482 -1.79969 -2.89523 0
M  V30 1973 H 190.675 -2.69172 -1.32237 0
M  V30 1974 H 188.228 -1.41899 -0.65532 0
M  V30 1975 H 188.963 -0.859241 -3.1271 0
M  V30 1976 H 188.748 -2.62109 -2.91619 0
M  V30 1977 H 190.238 -1.9843 -3.67444 0
M  V30 1978 N 190.675 0.682077 -1.42076 0
M  V30 1979 C 191.605 1.80796 -1.47767 0
M  V30 1980 C 192.586 1.6677 -0.334954 0
M  V30 1981 O 193.771 1.863 -0.548264 0
M  V30 1982 C 190.901 3.19038 -1.37229 0
M  V30 1983 C 189.855 3.47789 -2.49453 0
M  V30 1984 C 189.181 4.8553 -2.23975 0
M  V30 1985 C 190.481 3.45411 -3.91776 0
M  V30 1986 H 192.175 1.7629 -2.41997 0
M  V30 1987 H 189.721 0.846721 -1.16476 0
M  V30 1988 H 191.674 3.97528 -1.39821 0
M  V30 1989 H 190.398 3.24204 -0.394907 0
M  V30 1990 H 189.057 2.71657 -2.46166 0
M  V30 1991 H 188.705 4.87337 -1.24547 0
M  V30 1992 H 188.405 5.0573 -2.99184 0
M  V30 1993 H 189.929 5.66312 -2.28304 0
M  V30 1994 H 191.343 4.13882 -3.96705 0
M  V30 1995 H 189.74 3.77145 -4.66778 0
M  V30 1996 H 190.81 2.44122 -4.18966 0
M  V30 1997 N 192.153 1.28127 0.917671 0
M  V30 1998 C 193.063 1.13556 2.05286 0
M  V30 1999 C 194.079 0.0630914 1.73886 0
M  V30 2000 O 195.255 0.271598 1.9956 0
M  V30 2001 C 192.32 0.794676 3.3747 0
M  V30 2002 C 191.381 1.94909 3.82504 0
M  V30 2003 C 190.614 1.62437 5.0838 0
M  V30 2004 O 190.837 0.536905 5.67867 0
M  V30 2005 O 189.771 2.46677 5.4903 0
M  V30 2006 H 193.597 2.08844 2.20495 0
M  V30 2007 H 191.182 1.07409 1.03845 0
M  V30 2008 H 193.064 0.618344 4.16839 0
M  V30 2009 H 191.739 -0.128581 3.23445 0
M  V30 2010 H 190.646 2.18055 3.03978 0
M  V30 2011 H 191.979 2.85291 4.01086 0
M  V30 2012 N 193.631 -1.12557 1.10312 0
M  V30 2013 C 194.859 -1.87864 0.866873 0
M  V30 2014 C 195.274 -1.79588 -0.582557 0
M  V30 2015 O 194.631 -1.16887 -1.40156 0
M  V30 2016 C 194.682 -3.37125 1.30496 0
M  V30 2017 O 194.403 -3.45201 2.69755 0
M  V30 2018 C 195.904 -4.29373 1.10243 0
M  V30 2019 H 193.124 -0.594452 0.311236 0
M  V30 2020 H 195.668 -1.42429 1.46745 0
M  V30 2021 H 193.823 -3.80109 0.748081 0
M  V30 2022 H 194.237 -4.38056 2.88457 0
M  V30 2023 H 195.711 -5.32394 1.45811 0
M  V30 2024 H 196.188 -4.39181 0.0409492 0
M  V30 2025 H 196.794 -3.92169 1.64571 0
M  V30 2026 N 195.109 -0.891671 -1.2995 0
M  V30 2027 C 196.041 -0.320695 -2.26945 0
M  V30 2028 C 197.054 0.528497 -1.53983 0
M  V30 2029 O 198.243 0.346959 -1.75096 0
M  V30 2030 C 195.343 0.562066 -3.34207 0
M  V30 2031 C 194.516 -0.259576 -4.36629 0
M  V30 2032 C 193.575 0.554739 -5.23268 0
M  V30 2033 O 192.601 -0.0249311 -5.69195 0
M  V30 2034 N 193.803 1.8625 -5.4981 0
M  V30 2035 H 196.568 -1.15432 -2.76578 0
M  V30 2036 H 194.129 -0.755336 -1.432 0
M  V30 2037 H 196.121 1.11304 -3.89093 0
M  V30 2038 H 194.691 1.29637 -2.84452 0
M  V30 2039 H 193.911 -0.991986 -3.81514 0
M  V30 2040 H 195.199 -0.822564 -5.02107 0
M  V30 2041 H 194.597 2.35628 -5.14292 0
M  V30 2042 H 193.154 2.36078 -6.07545 0
M  V30 2043 N 196.587 1.43421 -0.653314 0
M  V30 2044 C 197.534 2.30768 0.0382271 0
M  V30 2045 C 198.504 1.44755 0.814576 0
M  V30 2046 O 199.689 1.73624 0.791162 0
M  V30 2047 C 196.829 3.30336 0.998599 0
M  V30 2048 C 195.942 4.31448 0.218342 0
M  V30 2049 C 195.077 5.18098 1.17252 0
M  V30 2050 C 194.116 6.10902 0.382702 0
M  V30 2051 N 193.253 6.90176 1.28848 0
M  V30 2052 H 198.093 2.89357 -0.712511 0
M  V30 2053 H 195.63 1.42548 -0.363128 0
M  V30 2054 H 197.588 3.86572 1.56901 0
M  V30 2055 H 196.218 2.73397 1.71621 0
M  V30 2056 H 195.27 3.77506 -0.46836 0
M  V30 2057 H 196.582 4.97227 -0.395812 0
M  V30 2058 H 195.736 5.7896 1.81356 0
M  V30 2059 H 194.475 4.52444 1.82058 0
M  V30 2060 H 193.48 5.49128 -0.27169 0
M  V30 2061 H 194.705 6.78598 -0.260957 0
M  V30 2062 H 192.651 6.27171 1.92334 0
M  V30 2063 H 192.568 7.52478 0.728887 0
M  V30 2064 H 193.836 7.55543 1.91766 0
M  V30 2065 N 198.065 0.39524 1.52563 0
M  V30 2066 C 199.012 -0.437036 2.26624 0
M  V30 2067 C 199.982 -1.05281 1.28472 0
M  V30 2068 O 201.167 -1.07971 1.57311 0
M  V30 2069 C 198.307 -1.55524 3.08069 0
M  V30 2070 C 197.42 -0.961745 4.21158 0
M  V30 2071 C 196.555 -2.05149 4.89987 0
M  V30 2072 C 195.594 -1.4342 5.95061 0
M  V30 2073 N 194.731 -2.46351 6.57462 0
M  V30 2074 H 199.571 0.200976 2.97322 0
M  V30 2075 H 197.108 0.110944 1.46681 0
M  V30 2076 H 199.066 -2.21437 3.53584 0
M  V30 2077 H 197.696 -2.16348 2.3957 0
M  V30 2078 H 196.748 -0.192048 3.79915 0
M  V30 2079 H 198.06 -0.470701 4.96574 0
M  V30 2080 H 197.214 -2.78819 5.38837 0
M  V30 2081 H 195.953 -2.57615 4.14109 0
M  V30 2082 H 194.958 -0.682774 5.45544 0
M  V30 2083 H 196.183 -0.917416 6.72875 0
M  V30 2084 H 194.129 -2.97975 5.8442 0
M  V30 2085 H 194.046 -2.02019 7.28508 0
M  V30 2086 H 195.314 -3.19633 7.10954 0
M  V30 2087 N 199.544 -1.57102 0.125237 0
M  V30 2088 C 200.474 -2.18659 -0.819174 0
M  V30 2089 C 201.455 -1.12843 -1.27281 0
M  V30 2090 O 202.64 -1.41104 -1.33429 0
M  V30 2091 C 199.77 -2.79096 -2.06695 0
M  V30 2092 C 198.724 -3.90548 -1.75088 0
M  V30 2093 C 198.05 -4.37821 -3.06948 0
M  V30 2094 C 199.35 -5.12356 -1.01435 0
M  V30 2095 H 201.044 -2.9783 -0.306202 0
M  V30 2096 H 198.59 -1.4326 -0.145839 0
M  V30 2097 H 200.543 -3.2082 -2.73226 0
M  V30 2098 H 199.267 -1.97223 -2.60328 0
M  V30 2099 H 197.926 -3.49409 -1.10944 0
M  V30 2100 H 197.574 -3.52799 -3.58527 0
M  V30 2101 H 197.274 -5.12982 -2.86571 0
M  V30 2102 H 198.798 -4.822 -3.74587 0
M  V30 2103 H 200.212 -5.5106 -1.58132 0
M  V30 2104 H 198.609 -5.9314 -0.911319 0
M  V30 2105 H 199.679 -4.849 -0.00218681 0
M  V30 2106 N 201.022 0.148545 -1.56898 0
M  V30 2107 C 201.954 1.20852 -1.9475 0
M  V30 2108 C 202.967 1.39265 -0.843152 0
M  V30 2109 O 204.156 1.38864 -1.12156 0
M  V30 2110 C 201.256 2.57362 -2.20495 0
M  V30 2111 C 200.429 2.59947 -3.51776 0
M  V30 2112 C 199.488 3.77984 -3.6608 0
M  V30 2113 O 198.514 3.62929 -4.38487 0
M  V30 2114 N 199.716 4.95375 -3.02629 0
M  V30 2115 H 202.481 0.886804 -2.86279 0
M  V30 2116 H 200.042 0.338121 -1.5833 0
M  V30 2117 H 202.034 3.34833 -2.27307 0
M  V30 2118 H 200.604 2.81832 -1.35238 0
M  V30 2119 H 199.824 1.68403 -3.56419 0
M  V30 2120 H 201.112 2.58704 -4.38121 0
M  V30 2121 H 200.51 5.10509 -2.43715 0
M  V30 2122 H 199.067 5.70627 -3.15004 0
M  V30 2123 N 202.5 1.5196 0.417844 0
M  V30 2124 C 203.41 1.77554 1.53336 0
M  V30 2125 C 204.426 0.660655 1.6097 0
M  V30 2126 O 205.602 0.945099 1.77848 0
M  V30 2127 C 202.667 1.91291 2.89152 0
M  V30 2128 C 201.728 3.15183 2.91475 0
M  V30 2129 C 200.961 3.28256 4.20813 0
M  V30 2130 O 201.184 2.46798 5.14244 0
M  V30 2131 O 200.118 4.21356 4.29817 0
M  V30 2132 H 203.944 2.7222 1.34647 0
M  V30 2133 H 201.529 1.36698 0.602828 0
M  V30 2134 H 203.411 2.02199 3.69721 0
M  V30 2135 H 202.086 0.998129 3.07927 0
M  V30 2136 H 200.993 3.09739 2.09791 0
M  V30 2137 H 202.326 4.06414 2.77648 0
M  V30 2138 N 203.978 -0.674533 1.42435 0
M  V30 2139 C 204.908 -1.80009 1.48724 0
M  V30 2140 C 205.889 -1.6659 0.343793 0
M  V30 2141 O 207.074 -1.86007 0.558137 0
M  V30 2142 C 204.204 -3.18306 1.38919 0
M  V30 2143 C 203.158 -3.46461 2.51294 0
M  V30 2144 C 202.484 -4.84335 2.26547 0
M  V30 2145 C 203.784 -3.43328 3.93603 0
M  V30 2146 H 205.478 -1.75004 2.42928 0
M  V30 2147 H 203.024 -0.840533 1.16923 0
M  V30 2148 H 204.977 -3.9678 1.41927 0
M  V30 2149 H 203.701 -3.2399 0.412094 0
M  V30 2150 H 202.36 -2.70348 2.47604 0
M  V30 2151 H 202.008 -4.86669 1.2713 0
M  V30 2152 H 201.708 -5.04136 3.01861 0
M  V30 2153 H 203.232 -5.65094 2.31304 0
M  V30 2154 H 204.646 -4.11772 3.98894 0
M  V30 2155 H 203.043 -3.74664 4.68771 0
M  V30 2156 H 204.113 -2.41897 4.20255 0
M  V30 2157 N 205.456 -1.28612 -0.910864 0
M  V30 2158 C 206.686 -1.1862 -1.69153 0
M  V30 2159 C 207.094 0.257324 -1.87442 0
M  V30 2160 O 206.437 1.18543 -1.40332 0
M  V30 2161 C 206.499 -1.81606 -3.10257 0
M  V30 2162 C 206.163 -3.30864 -3.15243 0
M  V30 2163 C 207.16 -4.27256 -2.96223 0
M  V30 2164 C 204.845 -3.71871 -3.37664 0
M  V30 2165 C 206.839 -5.62631 -2.99541 0
M  V30 2166 C 204.526 -5.07371 -3.40614 0
M  V30 2167 C 205.524 -6.02561 -3.21573 0
M  V30 2168 O 205.212 -7.35589 -3.2429 0
M  V30 2169 H 204.944 -0.412633 -0.535453 0
M  V30 2170 H 207.498 -1.70306 -1.14827 0
M  V30 2171 H 205.728 -1.24418 -3.66138 0
M  V30 2172 H 207.417 -1.66092 -3.70362 0
M  V30 2173 H 208.183 -3.9691 -2.78725 0
M  V30 2174 H 204.062 -2.98241 -3.5153 0
M  V30 2175 H 207.606 -6.36907 -2.84597 0
M  V30 2176 H 203.503 -5.37366 -3.57642 0
M  V30 2177 H 204.271 -7.44252 -3.40633 0
M  V30 2178 N 206.934 1.1197 -1.10907 0
M  V30 2179 C 207.897 2.16031 -0.765707 0
M  V30 2180 C 208.897 1.59393 0.212235 0
M  V30 2181 O 210.087 1.74196 -0.0115441 0
M  V30 2182 C 207.219 3.40632 -0.135053 0
M  V30 2183 H 208.412 2.47919 -1.68748 0
M  V30 2184 H 205.965 1.27061 -0.910226 0
M  V30 2185 H 206.7 3.14348 0.797218 0
M  V30 2186 H 206.485 3.8302 -0.838937 0
M  V30 2187 H 207.975 4.17505 0.0892469 0
M  V30 2188 N 208.412 0.89855 1.29475 0
M  V30 2189 C 209.36 0.365253 2.29714 0
M  V30 2190 C 210.354 -0.534993 1.6073 0
M  V30 2191 O 211.56 -0.417921 1.75081 0
M  V30 2192 H 207.935 0.0994853 0.74539 0
M  V30 2193 H 209.906 1.22406 2.72138 0
M  V30 2194 C 208.655 -0.393159 3.4547 0
M  V30 2195 H 207.978 0.290332 3.98744 0
M  V30 2196 H 209.418 -0.731189 4.17648 0
M  V30 2197 C 207.877 -1.59539 2.9673 0
M  V30 2198 O 208.407 -2.69469 2.97908 0
M  V30 2199 N 206.613 -1.43716 2.52575 0
M  V30 2200 H 206.16 -0.542828 2.51816 0
M  V30 2201 H 206.118 -2.24288 2.20323 0
M  V30 2202 N 209.89 -1.43072 0.660911 0
M  V30 2203 C 211.301 -1.84932 0.256348 0
M  V30 2204 C 211.652 -1.55325 -1.19868 0
M  V30 2205 O 210.777 -1.00607 -1.91591 0
M  V30 2206 C 211.372 -3.35684 0.458475 0
M  V30 2207 C 209.931 -3.76245 0.108161 0
M  V30 2208 C 209.078 -2.66749 0.757641 0
M  V30 2209 H 212.029 -1.33116 0.864051 0
M  V30 2210 H 212.05 -3.79365 -0.293683 0
M  V30 2211 H 211.562 -3.572 1.51755 0
M  V30 2212 H 209.663 -3.60338 -0.948014 0
M  V30 2213 H 209.776 -4.76058 0.538992 0
M  V30 2214 H 208.14 -2.53989 0.190185 0
M  V30 2215 H 208.923 -2.91092 1.81989 0
M  V30 2216 N 211.368 -0.403325 -1.52352 0
M  V30 2217 C 212.616 0.174003 -2.0135 0
M  V30 2218 C 212.937 1.46139 -1.29106 0
M  V30 2219 O 212.207 1.91448 -0.415253 0
M  V30 2220 H 210.787 0.0672911 -0.743963 0
M  V30 2221 H 213.449 -0.538235 -1.87321 0
M  V30 2222 H 212.545 0.374254 -3.09848 0
M  V30 2223 N 212.846 1.57033 -0.133567 0
M  V30 2224 C 214.257 1.82593 0.389464 0
M  V30 2225 C 214.608 1.05156 1.6564 0
M  V30 2226 O 213.733 0.292644 2.14412 0
M  V30 2227 C 214.328 3.31204 0.713377 0
M  V30 2228 C 212.887 3.57393 1.18098 0
M  V30 2229 C 212.034 2.76598 0.197126 0
M  V30 2230 H 214.985 1.54598 -0.358481 0
M  V30 2231 H 215.006 3.46627 1.56939 0
M  V30 2232 H 214.518 3.87537 -0.2089 0
M  V30 2233 H 212.619 3.06433 2.11966 0
M  V30 2234 H 212.732 4.65915 1.11624 0
M  V30 2235 H 211.096 2.45257 0.687088 0
M  V30 2236 H 211.879 3.35697 -0.718504 0
M  V30 2237 N 214.325 -0.140222 1.56975 0
M  V30 2238 C 215.571 -0.852949 1.83991 0
M  V30 2239 C 215.904 -1.80512 0.716187 0
M  V30 2240 O 215.179 -1.92479 -0.279681 0
M  V30 2241 C 215.462 -1.6215 3.21527 0
M  V30 2242 C 215.315 -0.690363 4.4447 0
M  V30 2243 C 216.634 -2.58247 3.56366 0
M  V30 2244 H 213.753 -0.308634 0.669264 0
M  V30 2245 H 216.395 -0.117898 1.89634 0
M  V30 2246 H 214.545 -2.24812 3.16847 0
M  V30 2247 H 216.217 -0.0742264 4.6124 0
M  V30 2248 H 214.46 -0.000396433 4.338 0
M  V30 2249 H 215.131 -1.2643 5.37326 0
M  V30 2250 H 217.607 -2.05701 3.61699 0
M  V30 2251 H 216.483 -3.09067 4.53617 0
M  V30 2252 H 216.744 -3.39923 2.82674 0
M  V30 2253 N 215.803 -1.52179 -0.40978 0
M  V30 2254 C 217.049 -1.66453 -1.15851 0
M  V30 2255 C 217.382 -0.392972 -1.90182 0
M  V30 2256 O 216.657 0.608579 -1.84734 0
M  V30 2257 C 216.94 -2.88612 -2.15349 0
M  V30 2258 C 216.793 -4.25815 -1.44918 0
M  V30 2259 C 218.112 -3.06294 -3.16026 0
M  V30 2260 H 215.231 -0.60575 -0.419805 0
M  V30 2261 H 217.873 -1.84732 -0.444314 0
M  V30 2262 H 216.023 -2.73158 -2.76255 0
M  V30 2263 H 217.695 -4.52995 -0.871365 0
M  V30 2264 H 215.938 -4.27247 -0.751159 0
M  V30 2265 H 216.609 -5.07337 -2.17516 0
M  V30 2266 H 219.085 -3.20641 -2.65195 0
M  V30 2267 H 217.961 -3.93283 -3.8291 0
M  V30 2268 H 218.222 -2.19579 -3.83715 0
M  V30 2269 N 217.281 0.66697 -1.42791 0
M  V30 2270 C 218.53 1.42278 -1.42968 0
M  V30 2271 C 218.843 1.9553 -0.0524489 0
M  V30 2272 O 220.049 2.71414 0.068363 0
M  V30 2273 C 218.505 2.57418 -2.51524 0
M  V30 2274 C 218.113 2.10832 -3.9529 0
M  V30 2275 C 219.857 3.34878 -2.60877 0
M  V30 2276 C 217.764 3.23101 -4.95338 0
M  V30 2277 H 216.694 0.534533 -0.531781 0
M  V30 2278 H 219.345 0.721302 -1.68729 0
M  V30 2279 H 217.727 3.29971 -2.18941 0
M  V30 2280 H 218.901 1.4538 -4.37266 0
M  V30 2281 H 217.216 1.46289 -3.89857 0
M  V30 2282 H 219.813 4.18505 -3.32802 0
M  V30 2283 H 220.156 3.81993 -1.6549 0
M  V30 2284 H 220.689 2.69398 -2.92693 0
M  V30 2285 H 217.428 2.80969 -5.9223 0
M  V30 2286 H 216.948 3.87309 -4.57987 0
M  V30 2287 H 218.627 3.88447 -5.17415 0
M  V30 2288 N 218.759 1.29093 0.90403 0
M  V30 2289 C 220.007 1.16583 1.65085 0
M  V30 2290 C 220.328 -0.283933 1.92922 0
M  V30 2291 O 219.598 -1.19509 1.55224 0
M  V30 2292 H 218.178 0.428467 0.611903 0
M  V30 2293 H 220.84 1.61959 1.08422 0
M  V30 2294 H 219.936 1.71266 2.6091 0
M  V30 2295 N 220.237 -1.11381 1.11499 0
M  V30 2296 C 221.2 -2.15622 0.777153 0
M  V30 2297 C 222.2 -1.59504 -0.203779 0
M  V30 2298 O 223.39 -1.74188 0.020782 0
M  V30 2299 C 220.522 -3.40556 0.153116 0
M  V30 2300 H 221.715 -2.47021 1.70061 0
M  V30 2301 H 219.268 -1.26577 0.916952 0
M  V30 2302 H 220.003 -3.14767 -0.780536 0
M  V30 2303 H 219.788 -3.8257 0.859238 0
M  V30 2304 H 221.278 -4.17546 -0.0671044 0
M  V30 2305 N 221.715 -0.905404 -1.28997 0
M  V30 2306 C 222.964 -0.530191 -1.94607 0
M  V30 2307 C 223.277 0.929185 -1.72121 0
M  V30 2308 O 224.483 1.41218 -2.31883 0
M  V30 2309 C 222.939 -0.897333 -3.48534 0
M  V30 2310 C 222.547 -2.37587 -3.79811 0
M  V30 2311 C 224.291 -0.592304 -4.20347 0
M  V30 2312 C 222.198 -2.68357 -5.27009 0
M  V30 2313 H 221.128 -0.194558 -0.728466 0
M  V30 2314 H 223.779 -1.10318 -1.46636 0
M  V30 2315 H 222.161 -0.253214 -3.9519 0
M  V30 2316 H 223.335 -3.06602 -3.43994 0
M  V30 2317 H 221.65 -2.6505 -3.2115 0
M  V30 2318 H 224.247 -0.798975 -5.28697 0
M  V30 2319 H 224.59 0.469474 -4.13644 0
M  V30 2320 H 225.123 -1.19452 -3.79442 0
M  V30 2321 H 221.862 -3.73355 -5.38782 0
M  V30 2322 H 221.382 -2.03971 -5.64053 0
M  V30 2323 H 223.061 -2.54922 -5.94663 0
M  V30 2324 N 223.193 1.4272 -0.668489 0
M  V30 2325 C 224.604 1.84793 -0.266151 0
M  V30 2326 C 224.955 1.55959 1.19043 0
M  V30 2327 O 224.08 1.01622 1.91055 0
M  V30 2328 C 224.675 3.35436 -0.476271 0
M  V30 2329 C 223.234 3.76182 -0.128113 0
M  V30 2330 C 222.381 2.66344 -0.771777 0
M  V30 2331 H 225.332 1.32656 -0.871098 0
M  V30 2332 H 225.353 3.79515 0.273561 0
M  V30 2333 H 224.865 3.5639 -1.53647 0
M  V30 2334 H 222.966 3.60836 0.928891 0
M  V30 2335 H 223.079 4.75766 -0.564231 0
M  V30 2336 H 221.443 2.53885 -0.203652 0
M  V30 2337 H 222.226 2.90123 -1.83531 0
M  V30 2338 N 224.671 0.411399 1.52136 0
M  V30 2339 C 225.919 -0.163322 2.01439 0
M  V30 2340 C 226.24 -1.45453 1.29879 0
M  V30 2341 O 225.51 -1.91225 0.4254 0
M  V30 2342 H 224.09 -0.0633447 0.744309 0
M  V30 2343 H 226.752 0.548161 1.87033 0
M  V30 2344 H 225.848 -0.357817 3.10042 0
M  V30 2345 N 226.149 -1.5696 0.141893 0
M  V30 2346 C 227.395 -1.9625 -0.511248 0
M  V30 2347 C 227.728 -1.02654 -1.64851 0
M  V30 2348 O 227.003 -0.0679676 -1.94381 0
M  V30 2349 C 227.286 -3.45285 -1.02227 0
M  V30 2350 C 227.139 -4.49658 0.113138 0
M  V30 2351 C 228.458 -3.96698 -1.90574 0
M  V30 2352 H 225.577 -0.713567 -0.184367 0
M  V30 2353 H 228.219 -1.88698 0.222087 0
M  V30 2354 H 226.369 -3.51852 -1.64719 0
M  V30 2355 H 228.041 -4.55174 0.749302 0
M  V30 2356 H 226.284 -4.26857 0.773026 0
M  V30 2357 H 226.955 -5.51258 -0.286053 0
M  V30 2358 H 229.431 -3.92578 -1.37918 0
M  V30 2359 H 228.307 -5.01453 -2.2324 0
M  V30 2360 H 228.568 -3.3875 -2.84079 0
M  V30 2361 N 227.627 0.131896 -1.57047 0
M  V30 2362 C 228.852 0.860418 -1.8871 0
M  V30 2363 C 229.277 1.73251 -0.73251 0
M  V30 2364 O 228.635 1.785 0.317429 0
M  V30 2365 C 228.683 1.68047 -3.19049 0
M  V30 2366 O 227.787 2.7862 -3.04047 0
M  V30 2367 H 227.128 0.238743 -0.619595 0
M  V30 2368 H 229.658 0.118169 -2.04258 0
M  V30 2369 H 229.668 2.07238 -3.51449 0
M  V30 2370 H 228.343 1.04018 -4.02682 0
M  V30 2371 H 226.92 2.42726 -2.83088 0
M  V30 2372 N 229.106 1.52395 0.401703 0
M  V30 2373 C 230.346 1.68498 1.15705 0
M  V30 2374 C 230.71 0.409748 1.87577 0
M  V30 2375 O 231.911 0.446983 2.65058 0
M  V30 2376 C 230.182 2.87789 2.11924 0
M  V30 2377 S 231.741 3.24415 2.95466 0
M  V30 2378 H 228.559 0.593267 0.391862 0
M  V30 2379 H 231.161 1.90408 0.443282 0
M  V30 2380 H 229.865 3.7884 1.57824 0
M  V30 2381 H 229.396 2.68175 2.87829 0
M  V30 2382 H 231.411 2.73614 4.13944 0
M  V30 2383 N 230.584 -0.659388 1.43143 0
M  V30 2384 C 231.831 -1.41935 1.44433 0
M  V30 2385 C 232.159 -1.94387 0.0663522 0
M  V30 2386 O 231.414 -1.72314 -0.927706 0
M  V30 2387 C 231.713 -2.62206 2.42864 0
M  V30 2388 C 231.379 -2.28208 3.88886 0
M  V30 2389 C 230.041 -2.18647 4.28657 0
M  V30 2390 C 232.393 -2.00887 4.8093 0
M  V30 2391 C 229.721 -1.79914 5.58433 0
M  V30 2392 C 232.073 -1.63653 6.11065 0
M  V30 2393 C 230.737 -1.52614 6.49819 0
M  V30 2394 H 230.007 -0.519376 0.528517 0
M  V30 2395 H 232.654 -0.750453 1.76183 0
M  V30 2396 H 230.959 -3.34199 2.04495 0
M  V30 2397 H 232.656 -3.2041 2.41119 0
M  V30 2398 H 229.246 -2.36557 3.57406 0
M  V30 2399 H 233.43 -2.07198 4.5098 0
M  V30 2400 H 228.686 -1.69948 5.87305 0
M  V30 2401 H 232.86 -1.41543 6.81864 0
M  V30 2402 H 230.487 -1.22371 7.50286 0
M  V30 2403 N 232.062 -1.29571 -0.897171 0
M  V30 2404 C 233.31 -1.17456 -1.64464 0
M  V30 2405 C 233.631 0.273698 -1.9307 0
M  V30 2406 O 232.901 1.18684 -1.55855 0
M  V30 2407 H 231.481 -0.431706 -0.609622 0
M  V30 2408 H 234.143 -1.62531 -1.07562 0
M  V30 2409 H 233.239 -1.72648 -2.59998 0
M  V30 2410 N 233.54 1.10788 -1.12088 0
M  V30 2411 C 234.951 1.64181 -0.88891 0
M  V30 2412 C 235.302 1.87508 0.577498 0
M  V30 2413 O 234.427 1.61434 1.44112 0
M  V30 2414 C 235.022 2.98257 -1.60712 0
M  V30 2415 C 233.581 3.4853 -1.42139 0
M  V30 2416 C 232.728 2.23208 -1.6454 0
M  V30 2417 H 235.679 0.943368 -1.27618 0
M  V30 2418 H 235.7 3.65552 -1.05604 0
M  V30 2419 H 235.212 2.81246 -2.67436 0
M  V30 2420 H 233.313 3.70692 -0.376552 0
M  V30 2421 H 233.426 4.26882 -2.17505 0
M  V30 2422 H 231.79 2.31169 -1.06925 0
M  V30 2423 H 232.573 2.08733 -2.72554 0
M  V30 2424 N 235.018 0.912232 1.28515 0
M  V30 2425 C 235.981 0.404223 2.25607 0
M  V30 2426 C 236.981 -0.468602 1.53821 0
M  V30 2427 O 238.171 -0.271873 1.72065 0
M  V30 2428 C 235.303 -0.420653 3.38295 0
M  V30 2429 H 236.496 1.26188 2.7206 0
M  V30 2430 H 234.049 0.691495 1.40171 0
M  V30 2431 H 234.784 -1.29777 2.97201 0
M  V30 2432 H 234.569 0.204935 3.91564 0
M  V30 2433 H 236.059 -0.766971 4.10496 0
M  V30 2434 N 236.496 -1.42363 0.676048 0
M  V30 2435 C 237.726 -2.05561 0.206967 0
M  V30 2436 C 238.134 -1.50887 -1.14148 0
M  V30 2437 O 237.477 -0.643933 -1.72044 0
M  V30 2438 C 237.539 -3.5944 0.0659508 0
M  V30 2439 C 237.203 -4.36812 1.34331 0
M  V30 2440 C 238.2 -4.67383 2.27704 0
M  V30 2441 C 235.885 -4.76429 1.59125 0
M  V30 2442 C 237.879 -5.36509 3.44147 0
M  V30 2443 C 235.566 -5.45294 2.75857 0
M  V30 2444 C 236.564 -5.75259 3.68193 0
M  V30 2445 O 236.252 -6.42712 4.82883 0
M  V30 2446 H 235.984 -0.668872 0.0979084 0
M  V30 2447 H 238.538 -1.83467 0.923531 0
M  V30 2448 H 236.768 -3.80197 -0.706204 0
M  V30 2449 H 238.457 -4.0427 -0.363418 0
M  V30 2450 H 239.223 -4.37275 2.09799 0
M  V30 2451 H 235.102 -4.52498 0.881258 0
M  V30 2452 H 238.646 -5.59814 4.16238 0
M  V30 2453 H 234.543 -5.7482 2.93688 0
M  V30 2454 H 235.311 -6.61204 4.82444 0
M  V30 2455 N 237.974 -0.419461 -1.51915 0
M  V30 2456 C 238.884 0.407528 -2.31033 0
M  V30 2457 C 239.9 1.04413 -1.3919 0
M  V30 2458 O 241.076 1.0434 -1.72265 0
M  V30 2459 C 238.141 1.50365 -3.12396 0
M  V30 2460 C 237.202 0.889029 -4.19994 0
M  V30 2461 C 236.435 1.93291 -4.97468 0
M  V30 2462 O 236.658 3.15259 -4.75361 0
M  V30 2463 O 235.592 1.53339 -5.8204 0
M  V30 2464 H 239.418 -0.237865 -3.02767 0
M  V30 2465 H 237.003 -0.182413 -1.48282 0
M  V30 2466 H 238.885 2.13975 -3.63032 0
M  V30 2467 H 237.56 2.13345 -2.43445 0
M  V30 2468 H 236.467 0.215353 -3.7348 0
M  V30 2469 H 237.8 0.302991 -4.91267 0
M  V30 2470 N 239.452 1.56882 -0.150215 0
M  V30 2471 C 240.699 1.96228 0.500093 0
M  V30 2472 C 241.027 1.03522 1.64661 0
M  V30 2473 O 240.282 0.0650683 1.95592 0
M  V30 2474 C 240.581 3.41801 1.04437 0
M  V30 2475 C 240.247 4.50897 0.0159671 0
M  V30 2476 C 238.909 4.8046 -0.266731 0
M  V30 2477 C 241.261 5.16703 -0.683192 0
M  V30 2478 C 238.589 5.73135 -1.25434 0
M  V30 2479 C 240.941 6.10441 -1.65964 0
M  V30 2480 C 239.605 6.38382 -1.95 0
M  V30 2481 H 238.875 0.718048 0.182997 0
M  V30 2482 H 241.522 1.90019 -0.237724 0
M  V30 2483 H 239.827 3.44857 1.85959 0
M  V30 2484 H 241.524 3.69573 1.55618 0
M  V30 2485 H 238.114 4.27891 0.246485 0
M  V30 2486 H 242.298 4.93993 -0.477983 0
M  V30 2487 H 237.554 5.93074 -1.48571 0
M  V30 2488 H 241.728 6.60507 -2.20689 0
M  V30 2489 H 239.355 7.09996 -2.71679 0
M  V30 2490 N 240.93 -0.123565 1.57115 0
M  V30 2491 C 241.893 -1.13583 1.99076 0
M  V30 2492 C 242.893 -1.34564 0.880296 0
M  V30 2493 O 244.083 -1.31158 1.14644 0
M  V30 2494 C 241.215 -2.49128 2.32698 0
M  V30 2495 H 242.408 -0.775287 2.89706 0
M  V30 2496 H 239.961 -0.36771 1.51913 0
M  V30 2497 H 240.696 -2.90111 1.44934 0
M  V30 2498 H 240.481 -2.35255 3.13684 0
M  V30 2499 H 241.971 -3.2199 2.65918 0
M  V30 2500 N 242.408 -1.52605 -0.393616 0
M  V30 2501 C 243.338 -1.80022 -1.48709 0
M  V30 2502 C 244.319 -0.651995 -1.57108 0
M  V30 2503 O 245.504 -0.89913 -1.72132 0
M  V30 2504 C 242.634 -1.96492 -2.86371 0
M  V30 2505 C 241.588 -3.12161 -2.92813 0
M  V30 2506 C 240.914 -3.13877 -4.3288 0
M  V30 2507 C 242.214 -4.51322 -2.6288 0
M  V30 2508 H 243.908 -2.71589 -1.26015 0
M  V30 2509 H 241.454 -1.30684 -0.604778 0
M  V30 2510 H 243.407 -2.14255 -3.62867 0
M  V30 2511 H 242.131 -1.01611 -3.10391 0
M  V30 2512 H 240.79 -2.94173 -2.18764 0
M  V30 2513 H 240.438 -2.16687 -4.53933 0
M  V30 2514 H 240.138 -3.91576 -4.38112 0
M  V30 2515 H 241.662 -3.33789 -5.1129 0
M  V30 2516 H 243.076 -4.69435 -3.29096 0
M  V30 2517 H 241.473 -5.31053 -2.79468 0
M  V30 2518 H 242.543 -4.58353 -1.58242 0
M  V30 2519 N 243.887 0.651787 -1.4349 0
M  V30 2520 C 244.82 1.77668 -1.43211 0
M  V30 2521 C 245.798 1.59931 -0.29338 0
M  V30 2522 O 246.982 1.82095 -0.487191 0
M  V30 2523 C 244.109 3.14986 -1.24505 0
M  V30 2524 C 243.155 3.51421 -2.41673 0
M  V30 2525 S 243.988 3.51234 -4.04222 0
M  V30 2526 C 245.144 4.91206 -3.87902 0
M  V30 2527 H 245.377 1.77635 -2.38397 0
M  V30 2528 H 242.91 0.824558 -1.30539 0
M  V30 2529 H 244.868 3.94237 -1.144 0
M  V30 2530 H 243.529 3.1258 -0.308651 0
M  V30 2531 H 242.722 4.51291 -2.24393 0
M  V30 2532 H 242.324 2.79585 -2.48411 0
M  V30 2533 H 244.616 5.79902 -3.50315 0
M  V30 2534 H 245.559 5.13537 -4.8753 0
M  V30 2535 H 245.967 4.64808 -3.20334 0
M  V30 2536 N 245.365 1.30045 0.890287 0
M  V30 2537 C 246.295 1.18541 2.01172 0
M  V30 2538 C 247.276 0.0773356 1.69924 0
M  V30 2539 O 248.461 0.25845 1.92473 0
M  V30 2540 C 245.591 0.870941 3.36202 0
M  V30 2541 C 244.545 1.93637 3.81692 0
M  V30 2542 C 243.871 1.475 5.13953 0
M  V30 2543 C 245.171 3.34666 4.00994 0
M  V30 2544 H 246.865 2.12359 2.11054 0
M  V30 2545 H 244.411 1.02238 1.01407 0
M  V30 2546 H 246.364 0.777141 4.14172 0
M  V30 2547 H 245.088 -0.102926 3.26438 0
M  V30 2548 H 243.747 2.01972 3.05946 0
M  V30 2549 H 243.395 0.489551 5.00612 0
M  V30 2550 H 243.095 2.1876 5.4536 0
M  V30 2551 H 244.619 1.39489 5.94454 0
M  V30 2552 H 246.033 3.2912 4.69417 0
M  V30 2553 H 244.43 4.03966 4.43769 0
M  V30 2554 H 245.5 3.76949 3.05021 0
M  V30 2555 N 246.843 -1.10192 1.12674 0
M  V30 2556 C 247.793 -2.14754 0.765801 0
M  V30 2557 C 248.777 -1.59154 -0.236409 0
M  V30 2558 O 249.969 -1.76951 -0.0415261 0
M  V30 2559 C 247.098 -3.42563 0.224827 0
M  V30 2560 C 246.184 -4.05091 1.25548 0
M  V30 2561 N 246.575 -4.42287 2.4539 0
M  V30 2562 C 244.873 -4.32186 1.10142 0
M  V30 2563 C 245.574 -4.91441 3.11224 0
M  V30 2564 N 244.55 -4.88405 2.38666 0
M  V30 2565 H 248.352 -2.41309 1.67772 0
M  V30 2566 H 245.866 -1.27339 1.00789 0
M  V30 2567 H 247.863 -4.16868 -0.0519578 0
M  V30 2568 H 246.523 -3.17467 -0.681515 0
M  V30 2569 H 247.534 -4.33902 2.82754 0
M  V30 2570 H 244.211 -4.16735 0.252587 0
M  V30 2571 H 245.601 -5.29749 4.13298 0
M  V30 2572 N 248.321 -0.919034 -1.28029 0
M  V30 2573 C 249.551 -0.570143 -1.98577 0
M  V30 2574 C 249.959 0.854172 -1.68821 0
M  V30 2575 O 249.302 1.57807 -0.940351 0
M  V30 2576 C 249.364 -0.705734 -3.52505 0
M  V30 2577 C 249.028 -2.10057 -4.05863 0
M  V30 2578 C 250.025 -3.07385 -4.19298 0
M  V30 2579 C 247.71 -2.41517 -4.40426 0
M  V30 2580 C 249.704 -4.34287 -4.66555 0
M  V30 2581 C 247.391 -3.68657 -4.87376 0
M  V30 2582 C 248.389 -4.64856 -5.00398 0
M  V30 2583 O 248.077 -5.89735 -5.46322 0
M  V30 2584 H 247.809 -0.215592 -0.6407 0
M  V30 2585 H 250.363 -1.23583 -1.64062 0
M  V30 2586 H 248.593 0.0170414 -3.86696 0
M  V30 2587 H 250.282 -0.363172 -4.04272 0
M  V30 2588 H 251.048 -2.84398 -3.92865 0
M  V30 2589 H 246.927 -1.67389 -4.29537 0
M  V30 2590 H 250.471 -5.09377 -4.76635 0
M  V30 2591 H 246.368 -3.91466 -5.13249 0
M  V30 2592 H 247.136 -5.92599 -5.64596 0
M  V30 2593 N 249.799 1.42003 -0.683588 0
M  V30 2594 C 250.709 2.34597 -0.0109075 0
M  V30 2595 C 251.725 1.55576 0.779245 0
M  V30 2596 O 252.901 1.88107 0.719555 0
M  V30 2597 C 249.966 3.34199 0.922588 0
M  V30 2598 C 249.027 4.29115 0.125984 0
M  V30 2599 C 248.26 5.23959 1.01502 0
M  V30 2600 O 248.483 5.23952 2.25456 0
M  V30 2601 O 247.417 6.00053 0.47111 0
M  V30 2602 H 251.243 2.93675 -0.773853 0
M  V30 2603 H 248.828 1.42654 -0.443861 0
M  V30 2604 H 250.71 3.95365 1.45823 0
M  V30 2605 H 249.385 2.77582 1.66523 0
M  V30 2606 H 248.292 3.71335 -0.453969 0
M  V30 2607 H 249.625 4.88798 -0.577736 0
M  V30 2608 N 251.277 0.427512 1.51691 0
M  V30 2609 C 252.207 -0.3796 2.30394 0
M  V30 2610 C 253.188 -1.02982 1.35384 0
M  V30 2611 O 254.373 -1.03534 1.643 0
M  V30 2612 C 251.503 -1.48649 3.1388 0
M  V30 2613 C 250.457 -0.960294 4.17088 0
M  V30 2614 C 249.783 -2.16219 4.89033 0
M  V30 2615 C 251.083 -0.00153679 5.223 0
M  V30 2616 H 252.777 0.277164 2.98114 0
M  V30 2617 H 250.323 0.134739 1.43368 0
M  V30 2618 H 252.276 -2.05826 3.67714 0
M  V30 2619 H 251 -2.1714 2.43962 0
M  V30 2620 H 249.659 -0.410806 3.64291 0
M  V30 2621 H 249.307 -2.83307 4.15628 0
M  V30 2622 H 249.007 -1.81654 5.58816 0
M  V30 2623 H 250.531 -2.73968 5.45687 0
M  V30 2624 H 251.945 -0.482687 5.71264 0
M  V30 2625 H 250.342 0.256199 5.99553 0
M  V30 2626 H 251.412 0.938174 4.75738 0
M  V30 2627 N 252.755 -1.56801 0.158532 0
M  V30 2628 C 253.702 -2.17337 -0.776729 0
M  V30 2629 C 254.672 -1.1096 -1.23601 0
M  V30 2630 O 255.857 -1.39054 -1.30647 0
M  V30 2631 C 252.997 -2.80822 -2.00582 0
M  V30 2632 C 252.11 -4.01624 -1.59129 0
M  V30 2633 C 251.245 -4.53072 -2.77306 0
M  V30 2634 C 250.284 -5.66314 -2.32282 0
M  V30 2635 N 249.421 -6.12329 -3.43508 0
M  V30 2636 H 254.261 -2.96918 -0.253701 0
M  V30 2637 H 251.798 -1.46661 -0.113504 0
M  V30 2638 H 253.756 -3.15779 -2.72652 0
M  V30 2639 H 252.386 -2.03866 -2.50277 0
M  V30 2640 H 251.438 -3.72571 -0.767806 0
M  V30 2641 H 252.75 -4.83633 -1.2207 0
M  V30 2642 H 251.904 -4.90145 -3.57551 0
M  V30 2643 H 250.643 -3.70095 -3.17617 0
M  V30 2644 H 249.648 -5.28806 -1.5048 0
M  V30 2645 H 250.873 -6.51085 -1.93043 0
M  V30 2646 H 248.819 -5.32284 -3.83418 0
M  V30 2647 H 248.736 -6.89293 -3.105 0
M  V30 2648 H 250.004 -6.5405 -4.24075 0
M  V30 2649 N 254.233 0.115231 -1.57178 0
M  V30 2650 C 255.18 1.14115 -2.00615 0
M  V30 2651 C 256.15 1.40939 -0.878941 0
M  V30 2652 O 257.335 1.52741 -1.14345 0
M  V30 2653 C 254.475 2.46156 -2.4187 0
M  V30 2654 C 253.588 2.26236 -3.68024 0
M  V30 2655 C 252.723 3.51534 -3.98243 0
M  V30 2656 C 251.762 3.26787 -5.17568 0
M  V30 2657 N 250.899 4.44298 -5.43639 0
M  V30 2658 H 255.739 0.763743 -2.88047 0
M  V30 2659 H 253.276 0.365615 -1.42484 0
M  V30 2660 H 255.234 3.23189 -2.63827 0
M  V30 2661 H 253.864 2.81783 -1.57475 0
M  V30 2662 H 252.916 1.40102 -3.5366 0
M  V30 2663 H 254.228 2.03929 -4.55208 0
M  V30 2664 H 253.382 4.36984 -4.20868 0
M  V30 2665 H 252.121 3.76876 -3.09541 0
M  V30 2666 H 251.126 2.39729 -4.94783 0
M  V30 2667 H 252.351 3.02812 -6.0785 0
M  V30 2668 H 250.297 4.69754 -4.57895 0
M  V30 2669 H 250.214 4.25109 -6.25154 0
M  V30 2670 H 251.482 5.3087 -5.70786 0
M  V30 2671 N 255.711 1.52812 0.385517 0
M  V30 2672 C 257.127 1.4214 0.725829 0
M  V30 2673 C 257.327 0.544589 1.94001 0
M  V30 2674 O 256.383 0.0193693 2.52493 0
M  V30 2675 C 257.696 2.85042 0.957668 0
M  V30 2676 C 259.244 2.94543 1.05892 0
M  V30 2677 C 259.719 4.38464 1.32337 0
M  V30 2678 N 261.21 4.41804 1.39151 0
M  V30 2679 C 261.945 5.5025 1.61285 0
M  V30 2680 N 261.441 6.68775 1.80866 0
M  V30 2681 N 263.234 5.37798 1.63492 0
M  V30 2682 H 255.385 2.08338 -0.413383 0
M  V30 2683 H 257.648 0.940016 -0.122775 0
M  V30 2684 H 257.354 3.51431 0.137568 0
M  V30 2685 H 257.228 3.27505 1.87137 0
M  V30 2686 H 259.615 2.28321 1.86959 0
M  V30 2687 H 259.696 2.55504 0.123057 0
M  V30 2688 H 259.34 5.05254 0.517793 0
M  V30 2689 H 259.27 4.75059 2.27214 0
M  V30 2690 H 261.761 3.56377 1.25713 0
M  V30 2691 H 262.074 7.47197 1.97271 0
M  V30 2692 H 260.419 6.71797 1.78083 0
M  V30 2693 H 263.61 4.44171 1.47749 0
M  V30 2694 H 263.783 6.22382 1.80402 0
M  V30 2695 N 257.189 -0.644168 1.43834 0
M  V30 2696 C 258.437 -1.40117 1.45642 0
M  V30 2697 C 258.758 -1.94814 0.0852413 0
M  V30 2698 O 258.028 -1.74988 -0.880688 0
M  V30 2699 H 256.608 -0.52005 0.536243 0
M  V30 2700 H 259.27 -0.7591 1.7951 0
M  V30 2701 H 258.366 -2.23902 2.17427 0
M  V30 2702 N 258.668 -1.30515 -0.883378 0
M  V30 2703 C 259.917 -1.18795 -1.63005 0
M  V30 2704 C 260.23 0.255923 -1.93919 0
M  V30 2705 O 261.436 0.494654 -2.66956 0
M  V30 2706 C 259.892 -2.07878 -2.93794 0
M  V30 2707 C 259.5 -3.57184 -2.70414 0
M  V30 2708 C 261.244 -2.04924 -3.71761 0
M  V30 2709 C 259.151 -4.38317 -3.97029 0
M  V30 2710 H 258.081 -0.441031 -0.611562 0
M  V30 2711 H 260.732 -1.55275 -0.977854 0
M  V30 2712 H 259.114 -1.64283 -3.60315 0
M  V30 2713 H 260.288 -4.08937 -2.12384 0
M  V30 2714 H 258.603 -3.61976 -2.0582 0
M  V30 2715 H 261.2 -2.62792 -4.65665 0
M  V30 2716 H 261.543 -1.0331 -4.03277 0
M  V30 2717 H 262.076 -2.46649 -3.12104 0
M  V30 2718 H 258.815 -5.40632 -3.70671 0
M  V30 2719 H 258.335 -3.91326 -4.54559 0
M  V30 2720 H 260.014 -4.49834 -4.65036 0
M  V30 2721 N 260.146 1.09593 -1.13257 0
M  V30 2722 C 261.562 1.33775 -0.870423 0
M  V30 2723 C 261.762 1.95327 0.494926 0
M  V30 2724 O 260.818 2.19853 1.2418 0
M  V30 2725 C 262.131 2.25106 -1.99369 0
M  V30 2726 C 263.679 2.3862 -2.02558 0
M  V30 2727 C 264.154 3.33285 -3.14142 0
M  V30 2728 N 265.645 3.40857 -3.13641 0
M  V30 2729 C 266.38 4.14101 -3.96621 0
M  V30 2730 N 265.876 4.90157 -4.8961 0
M  V30 2731 N 267.669 4.09808 -3.84726 0
M  V30 2732 H 259.82 0.680136 -2.01216 0
M  V30 2733 H 262.083 0.362133 -0.876107 0
M  V30 2734 H 261.789 1.87103 -2.97801 0
M  V30 2735 H 261.663 3.25481 -1.90635 0
M  V30 2736 H 264.05 2.75887 -1.0474 0
M  V30 2737 H 264.131 1.38028 -2.15364 0
M  V30 2738 H 263.775 2.96741 -4.12198 0
M  V30 2739 H 263.705 4.33776 -2.98574 0
M  V30 2740 H 266.196 2.86624 -2.46282 0
M  V30 2741 H 266.509 5.4347 -5.49418 0
M  V30 2742 H 264.854 4.89251 -4.93617 0
M  V30 2743 H 268.045 3.4949 -3.11408 0
M  V30 2744 H 268.218 4.66629 -4.49623 0
M  V30 2745 N 261.624 0.925811 1.2754 0
M  V30 2746 C 262.854 0.580666 1.98272 0
M  V30 2747 C 263.262 -0.845207 1.69272 0
M  V30 2748 O 262.605 -1.57306 0.948707 0
M  V30 2749 C 262.667 0.724418 3.52126 0
M  V30 2750 C 262.331 2.12206 4.04744 0
M  V30 2751 C 263.328 3.09604 4.17662 0
M  V30 2752 C 261.013 2.4385 4.39138 0
M  V30 2753 C 263.007 4.36755 4.64246 0
M  V30 2754 C 260.694 3.71237 4.85414 0
M  V30 2755 C 261.692 4.67503 4.97926 0
M  V30 2756 O 261.38 5.92624 5.43187 0
M  V30 2757 H 261.112 0.218987 0.639547 0
M  V30 2758 H 263.666 1.24452 1.63404 0
M  V30 2759 H 261.896 0.0034663 3.867 0
M  V30 2760 H 263.585 0.384607 4.04074 0
M  V30 2761 H 264.351 2.86478 3.91351 0
M  V30 2762 H 260.23 1.69665 4.28643 0
M  V30 2763 H 263.774 5.11898 4.73927 0
M  V30 2764 H 259.671 3.94182 5.11166 0
M  V30 2765 H 260.439 5.95585 5.61445 0
M  V30 2766 N 263.102 -1.41638 0.69111 0
M  V30 2767 C 264.049 -2.30789 0.0229705 0
M  V30 2768 C 265.019 -1.46863 -0.775911 0
M  V30 2769 O 266.204 -1.75661 -0.74485 0
M  V30 2770 C 263.344 -3.32868 -0.910666 0
M  V30 2771 C 262.457 -4.31875 -0.103874 0
M  V30 2772 C 261.592 -5.21024 -1.03475 0
M  V30 2773 C 260.631 -6.11702 -0.220598 0
M  V30 2774 N 259.768 -6.93349 -1.10504 0
M  V30 2775 H 264.608 -2.87366 0.788978 0
M  V30 2776 H 262.145 -1.41535 0.400794 0
M  V30 2777 H 264.103 -3.90596 -1.46597 0
M  V30 2778 H 262.733 -2.77851 -1.64312 0
M  V30 2779 H 261.785 -3.76131 0.568285 0
M  V30 2780 H 263.097 -4.96003 0.527504 0
M  V30 2781 H 262.251 -5.83565 -1.65943 0
M  V30 2782 H 260.99 -4.57112 -1.69999 0
M  V30 2783 H 259.995 -5.48215 0.417187 0
M  V30 2784 H 261.22 -6.77668 0.440784 0
M  V30 2785 H 259.166 -6.3205 -1.75638 0
M  V30 2786 H 259.083 -7.54146 -0.529125 0
M  V30 2787 H 260.351 -7.60362 -1.71667 0
M  V30 2788 N 264.58 -0.43555 -1.51462 0
M  V30 2789 C 265.826 0.131709 -2.02372 0
M  V30 2790 C 266.159 1.42516 -1.3192 0
M  V30 2791 O 265.434 1.89606 -0.433573 0
M  V30 2792 C 265.717 0.352301 -3.58373 0
M  V30 2793 C 265.57 -0.959676 -4.39443 0
M  V30 2794 C 266.889 1.12286 -4.25535 0
M  V30 2795 H 264.008 0.0463936 -0.735538 0
M  V30 2796 H 266.65 -0.574197 -1.81116 0
M  V30 2797 H 264.8 0.9536 -3.76615 0
M  V30 2798 H 266.472 -1.59482 -4.32855 0
M  V30 2799 H 264.715 -1.56468 -4.04599 0
M  V30 2800 H 265.386 -0.759394 -5.46752 0
M  V30 2801 H 267.862 0.613545 -4.11552 0
M  V30 2802 H 266.738 1.24598 -5.34571 0
M  V30 2803 H 266.999 2.15048 -3.86273 0
M  V30 2804 N 266.058 1.56714 -0.166846 0
M  V30 2805 C 267.469 1.83378 0.350646 0
M  V30 2806 C 267.82 1.08646 1.63372 0
M  V30 2807 O 266.945 0.338058 2.13743 0
M  V30 2808 C 267.54 3.32643 0.642963 0
M  V30 2809 C 266.099 3.59818 1.10491 0
M  V30 2810 C 265.246 2.76954 0.138411 0
M  V30 2811 H 268.197 1.53803 -0.391193 0
M  V30 2812 H 268.218 3.49878 1.49551 0
M  V30 2813 H 267.73 3.87007 -0.291055 0
M  V30 2814 H 265.831 3.1086 2.05418 0
M  V30 2815 H 265.944 4.68178 1.01716 0
M  V30 2816 H 264.308 2.4666 0.634911 0
M  V30 2817 H 265.091 3.34097 -0.789549 0
M  V30 2818 N 267.536 -0.106894 1.57237 0
M  V30 2819 C 268.469 -1.16125 1.96444 0
M  V30 2820 C 269.447 -1.3947 0.835871 0
M  V30 2821 O 270.631 -1.53425 1.09513 0
M  V30 2822 C 267.758 -2.51277 2.27107 0
M  V30 2823 C 266.804 -2.44285 3.4961 0
M  V30 2824 S 267.637 -1.87077 5.01759 0
M  V30 2825 C 268.793 -3.23877 5.35588 0
M  V30 2826 H 269.026 -0.826971 2.85567 0
M  V30 2827 H 266.559 -0.314124 1.51171 0
M  V30 2828 H 268.517 -3.29035 2.45451 0
M  V30 2829 H 267.178 -2.81879 1.38576 0
M  V30 2830 H 266.371 -3.4387 3.68469 0
M  V30 2831 H 265.973 -1.74652 3.30715 0
M  V30 2832 H 268.265 -4.20122 5.31511 0
M  V30 2833 H 269.208 -3.09833 6.36717 0
M  V30 2834 H 269.616 -3.22864 4.63054 0
M  V30 2835 N 269.014 -1.53014 -0.377408 0
M  V30 2836 C 270.242 -1.72515 -1.14219 0
M  V30 2837 C 270.657 -0.448735 -1.8339 0
M  V30 2838 O 270.014 0.577592 -1.73119 0
M  V30 2839 C 270.065 -2.8826 -2.18148 0
M  V30 2840 O 269.786 -4.10962 -1.51795 0
M  V30 2841 C 271.287 -3.19536 -3.07264 0
M  V30 2842 H 268.507 -0.577301 -0.342001 0
M  V30 2843 H 271.051 -1.99712 -0.439935 0
M  V30 2844 H 269.206 -2.63492 -2.83991 0
M  V30 2845 H 269.62 -4.75693 -2.20945 0
M  V30 2846 H 271.094 -4.03959 -3.76193 0
M  V30 2847 H 271.571 -2.34403 -3.71419 0
M  V30 2848 H 272.177 -3.46186 -2.47053 0
M  V30 2849 N 270.492 0.636531 -1.44174 0
M  V30 2850 C 271.739 1.39619 -1.46672 0
M  V30 2851 C 272.067 1.94257 -0.0972691 0
M  V30 2852 O 271.322 1.73768 0.900175 0
M  V30 2853 C 271.621 2.58309 -2.47005 0
M  V30 2854 C 271.287 2.21992 -3.92467 0
M  V30 2855 C 269.949 2.118 -4.32081 0
M  V30 2856 C 272.301 1.9321 -4.84065 0
M  V30 2857 C 269.629 1.71007 -5.61225 0
M  V30 2858 C 271.981 1.53911 -6.13591 0
M  V30 2859 C 270.645 1.42257 -6.52165 0
M  V30 2860 H 269.915 0.510902 -0.536712 0
M  V30 2861 H 272.562 0.722328 -1.77355 0
M  V30 2862 H 270.867 3.30903 -2.09786 0
M  V30 2863 H 272.564 3.16533 -2.46186 0
M  V30 2864 H 269.154 2.30841 -3.61124 0
M  V30 2865 H 273.338 1.99997 -4.54219 0
M  V30 2866 H 268.594 1.60583 -5.89935 0
M  V30 2867 H 272.768 1.30677 -6.8403 0
M  V30 2868 H 270.395 1.10419 -7.52138 0
M  V30 2869 N 271.97 1.30982 0.876444 0
M  V30 2870 C 273.219 1.19658 1.62373 0
M  V30 2871 C 273.532 -0.245636 1.94052 0
M  V30 2872 O 274.738 -0.48049 2.67214 0
M  V30 2873 C 273.194 2.09433 2.92687 0
M  V30 2874 C 272.802 3.58613 2.68516 0
M  V30 2875 C 274.546 2.06893 3.70669 0
M  V30 2876 C 272.453 4.40416 3.94699 0
M  V30 2877 H 271.383 0.444268 0.609214 0
M  V30 2878 H 274.034 1.55791 0.969605 0
M  V30 2879 H 272.416 1.66191 3.59439 0
M  V30 2880 H 273.59 4.10058 2.10212 0
M  V30 2881 H 271.905 3.63063 2.03898 0
M  V30 2882 H 274.502 2.65258 4.64265 0
M  V30 2883 H 274.845 1.05448 4.02724 0
M  V30 2884 H 275.378 2.48301 3.10792 0
M  V30 2885 H 272.117 5.42591 3.67798 0
M  V30 2886 H 271.637 3.93731 4.52477 0
M  V30 2887 H 273.316 4.52294 4.62644 0
M  V30 2888 N 273.449 -1.08991 1.13837 0
M  V30 2889 C 274.677 -1.85011 0.926202 0
M  V30 2890 C 275.092 -1.8135 -0.525127 0
M  V30 2891 O 274.449 -1.21287 -1.36366 0
M  V30 2892 C 274.5 -3.32802 1.41155 0
M  V30 2893 O 274.221 -3.36444 2.80601 0
M  V30 2894 C 275.722 -4.25649 1.23847 0
M  V30 2895 H 272.942 -0.584249 0.32999 0
M  V30 2896 H 275.486 -1.37688 1.51202 0
M  V30 2897 H 273.641 -3.77536 0.868631 0
M  V30 2898 H 274.055 -4.28657 3.02248 0
M  V30 2899 H 275.529 -5.27485 1.62675 0
M  V30 2900 H 276.006 -4.38828 0.18065 0
M  V30 2901 H 276.612 -3.86735 1.76964 0
M  V30 2902 N 274.927 -0.932562 -1.27047 0
M  V30 2903 C 276.152 -0.591474 -1.98787 0
M  V30 2904 C 276.577 0.824601 -1.69062 0
M  V30 2905 O 275.935 1.5541 -0.933677 0
M  V30 2906 C 275.983 -0.829808 -3.50922 0
M  V30 2907 O 275.087 0.102266 -4.12273 0
M  V30 2908 H 274.428 -0.227185 -0.623926 0
M  V30 2909 H 276.958 -1.25314 -1.61733 0
M  V30 2910 H 276.968 -0.747292 -4.01098 0
M  V30 2911 H 275.643 -1.86201 -3.7189 0
M  V30 2912 H 274.22 -0.0305761 -3.72887 0
M  V30 2913 N 276.405 1.4127 -0.698611 0
M  V30 2914 C 277.315 2.34573 -0.0357891 0
M  V30 2915 C 278.331 1.56393 0.762701 0
M  V30 2916 O 279.507 1.8886 0.699564 0
M  V30 2917 C 276.572 3.35159 0.887089 0
M  V30 2918 C 275.633 4.29225 0.0804634 0
M  V30 2919 C 274.866 5.25006 0.959387 0
M  V30 2920 O 275.089 5.26314 2.19886 0
M  V30 2921 O 274.023 6.00519 0.407439 0
M  V30 2922 H 277.849 2.92838 -0.804957 0
M  V30 2923 H 275.434 1.42175 -0.458966 0
M  V30 2924 H 277.316 3.9689 1.41621 0
M  V30 2925 H 275.991 2.79333 1.6357 0
M  V30 2926 H 274.898 3.70833 -0.493328 0
M  V30 2927 H 276.231 4.88157 -0.629547 0
M  V30 2928 N 277.883 0.443576 1.51229 0
M  V30 2929 C 279.294 -0.0180867 1.86691 0
M  V30 2930 C 279.645 -1.41384 1.36033 0
M  V30 2931 O 278.77 -2.04291 0.713722 0
M  V30 2932 C 279.365 -0.039597 3.38777 0
M  V30 2933 C 277.924 -0.445692 3.73752 0
M  V30 2934 C 277.071 0.357584 2.74985 0
M  V30 2935 H 280.022 0.659138 1.44364 0
M  V30 2936 H 280.043 -0.847761 3.70936 0
M  V30 2937 H 279.555 0.976382 3.75617 0
M  V30 2938 H 277.656 -1.46704 3.42503 0
M  V30 2939 H 277.769 -0.166155 4.78812 0
M  V30 2940 H 276.133 -0.184973 2.54027 0
M  V30 2941 H 276.916 1.37256 3.14668 0
M  V30 2942 N 279.361 -1.56624 0.175154 0
M  V30 2943 C 280.591 -2.01082 -0.474283 0
M  V30 2944 C 280.999 -1.05447 -1.57091 0
M  V30 2945 O 280.342 -0.0480595 -1.83637 0
M  V30 2946 C 280.404 -3.41963 -1.10911 0
M  V30 2947 C 280.068 -4.56742 -0.153666 0
M  V30 2948 C 281.065 -5.16076 0.629448 0
M  V30 2949 C 278.75 -5.02277 -0.0483776 0
M  V30 2950 C 280.744 -6.19377 1.50501 0
M  V30 2951 C 278.431 -6.05427 0.830768 0
M  V30 2952 C 279.429 -6.63849 1.60605 0
M  V30 2953 O 279.117 -7.64998 2.47049 0
M  V30 2954 H 278.849 -0.664261 -0.125432 0
M  V30 2955 H 281.403 -2.03549 0.275163 0
M  V30 2956 H 279.633 -3.36422 -1.90676 0
M  V30 2957 H 281.322 -3.70352 -1.66114 0
M  V30 2958 H 282.088 -4.81776 0.558297 0
M  V30 2959 H 277.967 -4.56513 -0.641611 0
M  V30 2960 H 281.511 -6.64906 2.1106 0
M  V30 2961 H 277.408 -6.39151 0.903107 0
M  V30 2962 H 278.176 -7.82336 2.40607 0
M  V30 2963 N 280.839 0.0985539 -1.57292 0
M  V30 2964 C 281.769 1.12064 -2.04851 0
M  V30 2965 C 282.75 1.41981 -0.936767 0
M  V30 2966 O 283.935 1.52071 -1.20781 0
M  V30 2967 C 281.065 2.44144 -2.47004 0
M  V30 2968 C 280.019 2.28643 -3.6181 0
M  V30 2969 C 279.345 3.65869 -3.89929 0
M  V30 2970 C 280.645 1.72986 -4.92822 0
M  V30 2971 H 282.339 0.724979 -2.9049 0
M  V30 2972 H 279.885 0.34729 -1.39749 0
M  V30 2973 H 281.838 3.15914 -2.78884 0
M  V30 2974 H 280.562 2.85639 -1.5836 0
M  V30 2975 H 279.221 1.59318 -3.30172 0
M  V30 2976 H 278.869 4.04885 -2.98458 0
M  V30 2977 H 278.569 3.56344 -4.67218 0
M  V30 2978 H 280.093 4.39112 -4.2428 0
M  V30 2979 H 281.507 2.34593 -5.23105 0
M  V30 2980 H 279.904 1.74229 -5.74251 0
M  V30 2981 H 280.974 0.689007 -4.7998 0
M  V30 2982 N 282.317 1.53212 0.369288 0
M  V30 2983 C 283.565 1.68881 1.11012 0
M  V30 2984 C 283.886 0.441285 1.89941 0
M  V30 2985 O 283.156 -0.544623 1.88177 0
M  V30 2986 H 281.736 0.622569 0.412816 0
M  V30 2987 H 284.398 1.90391 0.416802 0
M  V30 2988 H 283.494 2.54822 1.80201 0
M  V30 2989 N 283.795 -0.628877 1.44509 0
M  V30 2990 C 284.745 -1.7345 1.47983 0
M  V30 2991 C 285.729 -1.5715 0.345373 0
M  V30 2992 O 286.921 -1.66848 0.590829 0
M  V30 2993 C 284.05 -3.12143 1.42904 0
M  V30 2994 C 283.136 -3.33906 2.61472 0
M  V30 2995 N 283.527 -3.26024 3.86706 0
M  V30 2996 C 281.825 -3.64709 2.56716 0
M  V30 2997 C 282.526 -3.48536 4.65722 0
M  V30 2998 N 281.502 -3.71517 3.96832 0
M  V30 2999 H 285.304 -1.65818 2.42655 0
M  V30 3000 H 282.818 -0.831419 1.39503 0
M  V30 3001 H 284.815 -3.91433 1.43476 0
M  V30 3002 H 283.475 -3.2094 0.492717 0
M  V30 3003 H 284.486 -3.04893 4.18641 0
M  V30 3004 H 281.163 -3.80473 1.71891 0
M  V30 3005 H 282.553 -3.48016 5.74747 0
M  V30 3006 N 285.273 -1.31445 -0.869486 0
M  V30 3007 C 286.52 -1.21158 -1.62256 0
M  V30 3008 C 286.848 0.230155 -1.93133 0
M  V30 3009 O 286.103 1.17906 -1.56194 0
M  V30 3010 C 286.402 -2.00145 -2.96102 0
M  V30 3011 C 286.068 -3.4964 -2.84715 0
M  V30 3012 C 284.73 -3.90403 -2.81317 0
M  V30 3013 C 287.082 -4.44769 -2.71716 0
M  V30 3014 C 284.41 -5.24561 -2.62778 0
M  V30 3015 C 286.762 -5.79054 -2.54714 0
M  V30 3016 C 285.426 -6.19037 -2.49699 0
M  V30 3017 H 284.696 -0.443348 -0.593737 0
M  V30 3018 H 287.343 -1.62715 -1.00976 0
M  V30 3019 H 285.648 -1.5127 -3.6142 0
M  V30 3020 H 287.345 -1.89566 -3.53363 0
M  V30 3021 H 283.935 -3.17256 -2.88178 0
M  V30 3022 H 288.119 -4.14208 -2.73397 0
M  V30 3023 H 283.375 -5.54613 -2.57321 0
M  V30 3024 H 287.549 -6.52393 -2.43632 0
M  V30 3025 H 285.176 -7.22935 -2.35093 0
M  V30 3026 N 286.751 1.08385 -1.14413 0
M  V30 3027 C 287.999 1.80419 -0.910679 0
M  V30 3028 C 288.32 1.86658 0.564243 0
M  V30 3029 O 287.59 1.35985 1.41014 0
M  V30 3030 H 286.17 0.668204 -0.333934 0
M  V30 3031 H 288.832 1.31037 -1.44275 0
M  V30 3032 H 287.928 2.83238 -1.31082 0
M  V30 3033 N 288.23 0.939286 1.26551 0
M  V30 3034 C 289.476 0.586715 1.94128 0
M  V30 3035 C 289.809 -0.8717 1.73537 0
M  V30 3036 O 289.084 -1.62339 1.07127 0
M  V30 3037 C 289.367 0.927497 3.4795 0
M  V30 3038 C 289.22 2.44052 3.77834 0
M  V30 3039 C 290.539 0.441569 4.37879 0
M  V30 3040 H 287.658 0.21463 0.705055 0
M  V30 3041 H 290.3 1.17316 1.49455 0
M  V30 3042 H 288.45 0.428431 3.8613 0
M  V30 3043 H 290.122 3.01216 3.4938 0
M  V30 3044 H 288.365 2.8848 3.23978 0
M  V30 3045 H 289.036 2.62947 4.85348 0
M  V30 3046 H 291.512 0.869448 4.06915 0
M  V30 3047 H 290.388 0.708856 5.44304 0
M  V30 3048 H 290.649 -0.658467 4.37169 0
M  V30 3049 N 289.708 -1.40897 0.706093 0
M  V30 3050 C 290.956 -2.00657 0.241054 0
M  V30 3051 C 291.277 -1.56241 -1.16678 0
M  V30 3052 O 290.547 -0.79765 -1.78926 0
M  V30 3053 H 289.127 -0.742018 0.0861308 0
M  V30 3054 H 291.789 -1.72372 0.909604 0
M  V30 3055 H 290.885 -3.10958 0.266705 0
M  V30 3056 N 291.186 -0.45159 -1.50991 0
M  V30 3057 C 292.434 0.109857 -2.01801 0
M  V30 3058 C 292.755 1.41958 -1.3369 0
M  V30 3059 O 292.025 1.9003 -0.475951 0
M  V30 3060 H 290.605 0.0435884 -0.745727 0
M  V30 3061 H 293.267 -0.597557 -1.85514 0
M  V30 3062 H 292.363 0.275489 -3.10882 0
M  V30 3063 N 292.664 1.56529 -0.183458 0
M  V30 3064 C 293.913 1.96419 0.458511 0
M  V30 3065 C 294.226 1.0727 1.63562 0
M  V30 3066 O 295.432 1.36893 2.34462 0
M  V30 3067 C 293.888 3.49298 0.867122 0
M  V30 3068 C 293.496 4.47092 -0.285057 0
M  V30 3069 C 295.24 3.97983 1.47683 0
M  V30 3070 C 293.147 5.91225 0.143862 0
M  V30 3071 H 292.077 0.733394 0.175071 0
M  V30 3072 H 294.728 1.81448 -0.273624 0
M  V30 3073 H 293.11 3.59731 1.65559 0
M  V30 3074 H 294.284 4.48383 -1.0625 0
M  V30 3075 H 292.599 4.08535 -0.805503 0
M  V30 3076 H 295.196 5.03134 1.80999 0
M  V30 3077 H 295.539 3.41618 2.37914 0
M  V30 3078 H 296.072 3.90617 0.752562 0
M  V30 3079 H 292.811 6.5149 -0.723974 0
M  V30 3080 H 292.331 5.93214 0.886413 0
M  V30 3081 H 294.01 6.44362 0.583628 0
M  V30 3082 N 294.142 -0.090211 1.57342 0
M  V30 3083 C 295.39 -0.791241 1.85967 0
M  V30 3084 C 295.711 -1.7903 0.772859 0
M  V30 3085 O 294.981 -1.94872 -0.200398 0
M  V30 3086 H 293.561 -0.295205 0.686195 0
M  V30 3087 H 296.223 -0.0706782 1.94772 0
M  V30 3088 H 295.319 -1.31882 2.82867 0
M  V30 3089 N 295.62 -1.53406 -0.361157 0
M  V30 3090 C 296.583 -1.79479 -1.42548 0
M  V30 3091 C 297.583 -0.665327 -1.4639 0
M  V30 3092 O 298.773 -0.933549 -1.47073 0
M  V30 3093 C 295.905 -1.92087 -2.8163 0
M  V30 3094 H 297.098 -2.74538 -1.20701 0
M  V30 3095 H 294.651 -1.4455 -0.594546 0
M  V30 3096 H 295.386 -0.991099 -3.08784 0
M  V30 3097 H 295.171 -2.74241 -2.80239 0
M  V30 3098 H 296.661 -2.13836 -3.58697 0
M  V30 3099 N 297.098 0.621204 -1.44841 0
M  V30 3100 C 298.323 1.41244 -1.51871 0
M  V30 3101 C 298.748 1.87519 -0.147764 0
M  V30 3102 O 298.106 1.59334 0.865 0
M  V30 3103 C 298.154 2.60221 -2.49634 0
M  V30 3104 O 297.258 3.60395 -2.00473 0
M  V30 3105 H 296.599 0.42223 -0.512463 0
M  V30 3106 H 299.129 0.757305 -1.90069 0
M  V30 3107 H 299.139 3.0764 -2.67996 0
M  V30 3108 H 297.814 2.25887 -3.4921 0
M  V30 3109 H 296.391 3.19717 -1.91925 0
M  V30 3110 N 298.576 1.31904 0.862503 0
M  V30 3111 C 299.523 1.20182 1.9704 0
M  V30 3112 C 300.493 0.0858247 1.65878 0
M  V30 3113 O 301.678 0.26 1.8902 0
M  V30 3114 C 298.818 0.922797 3.32533 0
M  V30 3115 C 297.931 2.12284 3.76244 0
M  V30 3116 C 297.066 1.77996 5.00491 0
M  V30 3117 C 296.105 2.94366 5.36671 0
M  V30 3118 N 295.242 2.60223 6.52095 0
M  V30 3119 H 300.082 2.14951 2.06398 0
M  V30 3120 H 297.619 1.06917 1.01031 0
M  V30 3121 H 299.577 0.741548 4.10557 0
M  V30 3122 H 298.207 0.0119227 3.22798 0
M  V30 3123 H 297.259 2.41461 2.9394 0
M  V30 3124 H 298.571 2.99357 3.98982 0
M  V30 3125 H 297.725 1.56377 5.862 0
M  V30 3126 H 296.464 0.881252 4.79672 0
M  V30 3127 H 295.469 3.16625 4.49476 0
M  V30 3128 H 296.694 3.84957 5.59451 0
M  V30 3129 H 294.64 1.72884 6.32809 0
M  V30 3130 H 294.557 3.40827 6.74814 0
M  V30 3131 H 295.825 2.42016 7.40978 0
M  V30 3132 N 300.054 -1.07777 1.14986 0
M  V30 3133 C 301.47 -1.32373 0.891596 0
M  V30 3134 C 301.67 -1.9609 -0.463788 0
M  V30 3135 O 300.726 -2.21801 -1.20667 0
M  V30 3136 C 302.039 -2.21905 2.02925 0
M  V30 3137 C 303.587 -2.35367 2.06329 0
M  V30 3138 C 304.062 -3.28245 3.19405 0
M  V30 3139 N 305.553 -3.35824 3.19024 0
M  V30 3140 C 306.288 -4.07739 4.03158 0
M  V30 3141 N 305.784 -4.82306 4.97346 0
M  V30 3142 N 307.577 -4.03635 3.91197 0
M  V30 3143 H 299.728 -0.648039 2.02273 0
M  V30 3144 H 301.991 -0.348149 0.881757 0
M  V30 3145 H 301.697 -1.82342 3.0074 0
M  V30 3146 H 301.571 -3.22407 1.95789 0
M  V30 3147 H 303.958 -2.74186 1.09116 0
M  V30 3148 H 304.039 -1.34585 2.17533 0
M  V30 3149 H 303.683 -2.90146 4.16867 0
M  V30 3150 H 303.613 -4.28971 3.05437 0
M  V30 3151 H 306.104 -2.8267 2.50811 0
M  V30 3152 H 306.417 -5.34661 5.57994 0
M  V30 3153 H 304.762 -4.81337 5.01338 0
M  V30 3154 H 307.953 -3.44491 3.16928 0
M  V30 3155 H 308.126 -4.59417 4.5699 0
M  V30 3156 N 301.532 -0.945985 -1.26051 0
M  V30 3157 C 302.462 -0.477172 -2.28572 0
M  V30 3158 C 303.443 0.472032 -1.63419 0
M  V30 3159 O 304.628 0.372853 -1.90587 0
M  V30 3160 C 301.758 0.253975 -3.4637 0
M  V30 3161 C 300.712 -0.609135 -4.23643 0
M  V30 3162 C 300.038 0.252252 -5.34105 0
M  V30 3163 C 301.338 -1.8829 -4.8718 0
M  V30 3164 H 303.032 -1.33402 -2.68038 0
M  V30 3165 H 300.578 -0.642904 -1.28852 0
M  V30 3166 H 302.531 0.593016 -4.17207 0
M  V30 3167 H 301.255 1.145 -3.05871 0
M  V30 3168 H 299.914 -0.931138 -3.54578 0
M  V30 3169 H 299.562 1.14278 -4.89846 0
M  V30 3170 H 299.262 -0.32188 -5.86718 0
M  V30 3171 H 300.786 0.586454 -6.07777 0
M  V30 3172 H 302.2 -1.61081 -5.50205 0
M  V30 3173 H 300.597 -2.40199 -5.49931 0
M  V30 3174 H 301.667 -2.59134 -4.09851 0
M  V30 3175 N 303.011 1.40521 -0.713556 0
M  V30 3176 C 304.257 2.01221 -0.252564 0
M  V30 3177 C 304.59 1.56444 1.1506 0
M  V30 3178 O 303.865 0.783597 1.78017 0
M  V30 3179 C 304.148 3.58582 -0.330332 0
M  V30 3180 C 304.001 4.13437 -1.77173 0
M  V30 3181 C 305.32 4.39079 0.299641 0
M  V30 3182 H 302.439 0.731077 -0.0932471 0
M  V30 3183 H 305.081 1.67026 -0.905673 0
M  V30 3184 H 303.231 3.87844 0.225737 0
M  V30 3185 H 304.903 3.9498 -2.38303 0
M  V30 3186 H 303.146 3.67801 -2.3001 0
M  V30 3187 H 303.817 5.22597 -1.77755 0
M  V30 3188 H 306.293 4.15735 -0.174139 0
M  V30 3189 H 305.169 5.4848 0.214771 0
M  V30 3190 H 305.43 4.19915 1.38288 0
M  V30 3191 N 304.489 0.459591 1.5075 0
M  V30 3192 C 305.399 -0.34613 2.32033 0
M  V30 3193 C 306.415 -1.00686 1.41909 0
M  V30 3194 O 307.591 -0.997361 1.7497 0
M  V30 3195 C 304.656 -1.42029 3.16273 0
M  V30 3196 C 303.717 -0.777362 4.22203 0
M  V30 3197 C 302.95 -1.80034 5.02418 0
M  V30 3198 O 303.173 -3.02544 4.83553 0
M  V30 3199 O 302.107 -1.37853 5.85901 0
M  V30 3200 H 305.933 0.318054 3.0203 0
M  V30 3201 H 303.518 0.221663 1.47746 0
M  V30 3202 H 305.4 -2.04275 3.68578 0
M  V30 3203 H 304.075 -2.06815 2.49016 0
M  V30 3204 H 302.982 -0.116256 3.73919 0
M  V30 3205 H 304.315 -0.172634 4.91897 0
M  V30 3206 N 305.967 -1.56429 0.191757 0
M  V30 3207 C 307.244 -1.89224 -0.495332 0
M  V30 3208 C 307.624 -1.10478 -1.79883 0
M  V30 3209 O 306.972 -0.204852 -2.2758 0
M  V30 3210 C 307.182 -3.41548 -0.717367 0
M  V30 3211 C 308.53 -4.11711 -1.03823 0
M  V30 3212 O 309.554 -3.4698 -0.805204 0
M  V30 3213 O 308.413 -5.2611 -1.47887 0
M  V30 3214 H 305.507 -0.785788 -0.25781 0
M  V30 3215 H 308.053 -1.68111 0.231721 0
M  V30 3216 H 306.825 -3.90772 0.203287 0
M  V30 3217 H 306.448 -3.68342 -1.497 0
M  V30 3218 N 307.445 0.0818655 -1.57387 0
M  V30 3219 C 308.375 1.09885 -2.06028 0
M  V30 3220 C 309.356 1.4098 -0.951774 0
M  V30 3221 O 310.541 1.50781 -1.22387 0
M  V30 3222 C 307.671 2.4151 -2.4958 0
M  V30 3223 C 306.625 2.24792 -3.64215 0
M  V30 3224 C 305.951 3.61712 -3.93787 0
M  V30 3225 C 307.251 1.67749 -4.94629 0
M  V30 3226 H 308.945 0.694128 -2.91243 0
M  V30 3227 H 306.491 0.332448 -1.4011 0
M  V30 3228 H 308.444 3.12939 -2.82219 0
M  V30 3229 H 307.168 2.83943 -1.61381 0
M  V30 3230 H 305.827 1.55807 -3.31843 0
M  V30 3231 H 305.475 4.01697 -3.02735 0
M  V30 3232 H 305.175 3.51368 -4.70971 0
M  V30 3233 H 306.699 4.34587 -4.28913 0
M  V30 3234 H 308.113 2.29032 -5.25564 0
M  V30 3235 H 306.51 1.68128 -5.76067 0
M  V30 3236 H 307.58 0.638059 -4.80684 0
M  V30 3237 N 308.923 1.53595 0.353017 0
M  V30 3238 C 310.17 1.70385 1.09431 0
M  V30 3239 C 310.498 0.462113 1.88931 0
M  V30 3240 O 309.753 -0.556074 1.87633 0
M  V30 3241 C 310.052 2.91313 2.07054 0
M  V30 3242 C 309.718 4.27308 1.43939 0
M  V30 3243 C 308.38 4.64287 1.26454 0
M  V30 3244 C 310.732 5.11829 0.983883 0
M  V30 3245 C 308.06 5.83412 0.620226 0
M  V30 3246 C 310.412 6.31611 0.353516 0
M  V30 3247 C 309.076 6.67293 0.166272 0
M  V30 3248 H 308.346 0.623484 0.400436 0
M  V30 3249 H 310.993 1.87799 0.374655 0
M  V30 3250 H 309.298 2.68463 2.85368 0
M  V30 3251 H 310.995 3.01497 2.64387 0
M  V30 3252 H 307.585 3.98198 1.58543 0
M  V30 3253 H 311.769 4.838 1.10685 0
M  V30 3254 H 307.025 6.09639 0.463681 0
M  V30 3255 H 311.199 6.964 -0.00757555 0
M  V30 3256 H 308.826 7.59461 -0.335047 0
M  V30 3257 N 310.401 -0.613514 1.45168 0
M  V30 3258 C 311.364 -1.7065 1.53007 0
M  V30 3259 C 312.364 -1.5548 0.410184 0
M  V30 3260 O 313.554 -1.60656 0.673455 0
M  V30 3261 C 310.686 -3.09875 1.42093 0
M  V30 3262 H 311.879 -1.65068 2.50385 0
M  V30 3263 H 309.432 -0.828728 1.32521 0
M  V30 3264 H 310.167 -3.21039 0.458769 0
M  V30 3265 H 309.952 -3.22293 2.23315 0
M  V30 3266 H 311.442 -3.895 1.50598 0
M  V30 3267 N 311.879 -1.3236 -0.855495 0
M  V30 3268 C 312.789 -1.23221 -1.99634 0
M  V30 3269 C 313.805 -0.145983 -1.73387 0
M  V30 3270 O 314.981 -0.366502 -1.98037 0
M  V30 3271 C 312.046 -0.954782 -3.33294 0
M  V30 3272 C 311.107 -2.12937 -3.72769 0
M  V30 3273 C 310.34 -1.86508 -5.00051 0
M  V30 3274 O 310.563 -0.807231 -5.64659 0
M  V30 3275 O 309.497 -2.72591 -5.36636 0
M  V30 3276 H 313.323 -2.19126 -2.1028 0
M  V30 3277 H 310.908 -1.12241 -0.986018 0
M  V30 3278 H 312.79 -0.816519 -4.13414 0
M  V30 3279 H 311.465 -0.0258854 -3.2369 0
M  V30 3280 H 310.372 -2.3231 -2.93228 0
M  V30 3281 H 311.705 -3.04102 -3.87018 0
M  V30 3282 N 313.357 1.07166 -1.15556 0
M  V30 3283 C 314.773 1.31899 -0.898603 0
M  V30 3284 C 314.973 1.96333 0.453383 0
M  V30 3285 O 314.029 2.22438 1.19489 0
M  V30 3286 C 315.342 2.20826 -2.04099 0
M  V30 3287 C 316.89 2.34269 -2.07574 0
M  V30 3288 C 317.365 3.26546 -3.21141 0
M  V30 3289 N 318.856 3.34127 -3.20801 0
M  V30 3290 C 319.591 4.05595 -4.05315 0
M  V30 3291 N 319.087 4.79661 -4.99897 0
M  V30 3292 N 320.88 4.01555 -3.93332 0
M  V30 3293 H 313.031 0.637302 -2.02613 0
M  V30 3294 H 315.294 0.343468 -0.883591 0
M  V30 3295 H 315 1.80744 -3.01703 0
M  V30 3296 H 314.874 3.21364 -1.97496 0
M  V30 3297 H 317.261 2.73603 -1.10568 0
M  V30 3298 H 317.342 1.33429 -2.18244 0
M  V30 3299 H 316.986 2.87931 -4.184 0
M  V30 3300 H 316.916 4.27345 -3.07708 0
M  V30 3301 H 319.407 2.81336 -2.52306 0
M  V30 3302 H 319.72 5.31694 -5.60822 0
M  V30 3303 H 318.065 4.78671 -5.03884 0
M  V30 3304 H 321.256 3.42806 -3.18751 0
M  V30 3305 H 321.429 4.56987 -4.5942 0
M  V30 3306 N 314.835 0.952656 1.25548 0
M  V30 3307 C 315.783 0.462354 2.27958 0
M  V30 3308 C 316.777 -0.46634 1.62855 0
M  V30 3309 O 317.983 -0.343287 1.76696 0
M  V30 3310 H 314.358 0.13101 0.7405 0
M  V30 3311 H 316.329 1.33839 2.66702 0
M  V30 3312 C 315.078 -0.24628 3.46827 0
M  V30 3313 H 314.401 0.459192 3.97154 0
M  V30 3314 H 315.841 -0.553393 4.20373 0
M  V30 3315 C 314.3 -1.4681 3.0323 0
M  V30 3316 O 314.83 -2.56591 3.09069 0
M  V30 3317 N 313.036 -1.32874 2.58443 0
M  V30 3318 H 312.583 -0.435536 2.53891 0
M  V30 3319 H 312.541 -2.14742 2.29637 0
M  V30 3320 N 316.313 -1.40141 0.720998 0
M  V30 3321 C 317.562 -2.0002 0.259804 0
M  V30 3322 C 317.875 -1.57839 -1.15526 0
M  V30 3323 O 319.081 -2.10455 -1.71525 0
M  V30 3324 C 317.537 -3.57516 0.413566 0
M  V30 3325 C 317.145 -4.08667 1.83562 0
M  V30 3326 C 318.889 -4.24498 0.0134387 0
M  V30 3327 C 316.796 -5.58686 1.93968 0
M  V30 3328 H 315.726 -0.748195 0.0933806 0
M  V30 3329 H 318.377 -1.60313 0.892866 0
M  V30 3330 H 316.759 -3.9495 -0.288169 0
M  V30 3331 H 317.933 -3.82598 2.56817 0
M  V30 3332 H 316.248 -3.543 2.1877 0
M  V30 3333 H 318.845 -5.34654 0.0703954 0
M  V30 3334 H 319.188 -4.03375 -1.02927 0
M  V30 3335 H 319.721 -3.92188 0.665815 0
M  V30 3336 H 316.46 -5.8467 2.96379 0
M  V30 3337 H 315.98 -5.86602 1.25131 0
M  V30 3338 H 317.659 -6.23875 1.71431 0
M  V30 3339 N 317.792 -0.46758 -1.50504 0
M  V30 3340 C 319.069 0.15003 -1.95024 0
M  V30 3341 C 319.449 1.57304 -1.40779 0
M  V30 3342 O 318.797 2.20281 -0.607319 0
M  V30 3343 C 319.007 0.0969324 -3.48865 0
M  V30 3344 C 320.355 0.287565 -4.23625 0
M  V30 3345 O 321.379 0.173678 -3.55776 0
M  V30 3346 O 320.238 0.517186 -5.44047 0
M  V30 3347 H 317.332 0.113582 -0.819163 0
M  V30 3348 H 319.878 -0.52773 -1.61286 0
M  V30 3349 H 318.65 -0.896732 -3.80886 0
M  V30 3350 H 318.273 0.816303 -3.8913 0
M  V30 3351 N 319.27 1.56325 -0.20005 0
M  V30 3352 C 320.516 1.98772 0.431408 0
M  V30 3353 C 320.871 1.0849 1.58895 0
M  V30 3354 O 320.164 0.130331 1.91156 0
M  V30 3355 C 320.358 3.4495 0.935103 0
M  V30 3356 C 320.187 4.49371 -0.172096 0
M  V30 3357 C 318.957 5.0134 -0.631377 0
M  V30 3358 C 321.155 5.04822 -0.982806 0
M  V30 3359 N 319.137 5.89433 -1.71588 0
M  V30 3360 C 320.508 5.89632 -1.91661 0
M  V30 3361 C 322.563 4.87242 -1.02467 0
M  V30 3362 C 321.266 6.58741 -2.88881 0
M  V30 3363 C 323.292 5.57094 -1.98494 0
M  V30 3364 C 322.654 6.41655 -2.90617 0
M  V30 3365 H 318.753 0.771922 0.125144 0
M  V30 3366 H 321.337 1.92266 -0.306883 0
M  V30 3367 H 319.508 3.51946 1.64282 0
M  V30 3368 H 321.24 3.74354 1.53758 0
M  V30 3369 H 317.995 4.73071 -0.223827 0
M  V30 3370 H 318.419 6.38182 -2.25948 0
M  V30 3371 H 323.061 4.21538 -0.326408 0
M  V30 3372 H 320.779 7.23641 -3.5968 0
M  V30 3373 H 324.365 5.45466 -2.0238 0
M  V30 3374 H 323.245 6.94755 -3.63711 0
M  V30 3375 N 320.748 -0.0735177 1.57428 0
M  V30 3376 C 321.997 -0.771809 1.86349 0
M  V30 3377 C 322.31 -1.78828 0.792452 0
M  V30 3378 O 323.516 -2.53602 0.96945 0
M  V30 3379 C 321.972 -1.42358 3.30548 0
M  V30 3380 C 321.58 -0.445761 4.45777 0
M  V30 3381 C 323.324 -2.10434 3.6867 0
M  V30 3382 C 321.231 -1.10335 5.81016 0
M  V30 3383 H 320.161 -0.291999 0.695164 0
M  V30 3384 H 322.812 -0.0250749 1.83483 0
M  V30 3385 H 321.194 -2.21852 3.28021 0
M  V30 3386 H 322.368 0.319239 4.59693 0
M  V30 3387 H 320.683 0.130457 4.16196 0
M  V30 3388 H 323.28 -2.60405 4.67004 0
M  V30 3389 H 323.623 -2.90298 2.98383 0
M  V30 3390 H 324.156 -1.37773 3.7318 0
M  V30 3391 H 320.895 -0.345061 6.54591 0
M  V30 3392 H 320.415 -1.83925 5.70904 0
M  V30 3393 H 322.094 -1.62367 6.26295 0
M  V30 3394 N 322.226 -1.5378 -0.344866 0
M  V30 3395 C 323.189 -1.80981 -1.40637 0
M  V30 3396 C 324.189 -0.680816 -1.45676 0
M  V30 3397 O 325.379 -0.949095 -1.46075 0
M  V30 3398 C 322.511 -1.95063 -2.79577 0
M  V30 3399 H 323.704 -2.75803 -1.17783 0
M  V30 3400 H 321.257 -1.45173 -0.579181 0
M  V30 3401 H 321.992 -1.02379 -3.07716 0
M  V30 3402 H 321.777 -2.77198 -2.77315 0
M  V30 3403 H 323.267 -2.17629 -3.56409 0
M  V30 3404 N 323.704 0.605807 -1.45491 0
M  V30 3405 C 324.652 1.73754 -1.54636 0
M  V30 3406 C 325.646 1.64207 -0.416219 0
M  V30 3407 O 326.852 1.69979 -0.592199 0
M  V30 3408 H 323.227 0.574073 -0.485741 0
M  V30 3409 H 325.198 1.63169 -2.49837 0
M  V30 3410 C 323.947 3.12135 -1.53189 0
M  V30 3411 H 323.27 3.20141 -2.39478 0
M  V30 3412 H 324.71 3.91147 -1.63645 0
M  V30 3413 C 323.169 3.35921 -0.256616 0
M  V30 3414 O 323.699 3.96194 0.662798 0
M  V30 3415 N 321.905 2.90204 -0.151751 0
M  V30 3416 H 321.452 2.41336 -0.90081 0
M  V30 3417 H 321.41 3.06492 0.700699 0
M  V30 3418 N 325.182 1.32811 0.848464 0
M  V30 3419 C 326.428 1.23907 1.60546 0
M  V30 3420 C 326.761 -0.197161 1.93197 0
M  V30 3421 O 326.036 -1.13596 1.5788 0
M  V30 3422 C 326.319 2.10489 2.92175 0
M  V30 3423 C 326.172 3.62522 2.66266 0
M  V30 3424 C 327.491 1.97075 3.93509 0
M  V30 3425 H 324.61 0.451459 0.58254 0
M  V30 3426 H 327.252 1.62818 0.979296 0
M  V30 3427 H 325.402 1.77434 3.45614 0
M  V30 3428 H 327.074 4.05821 2.19334 0
M  V30 3429 H 325.317 3.84879 2.00126 0
M  V30 3430 H 325.988 4.18437 3.6002 0
M  V30 3431 H 328.464 2.26045 3.49346 0
M  V30 3432 H 327.34 2.59923 4.83457 0
M  V30 3433 H 327.601 0.940186 4.31987 0
M  V30 3434 N 326.66 -1.06551 1.16123 0
M  V30 3435 C 327.623 -2.12132 0.867906 0
M  V30 3436 C 328.623 -1.60224 -0.135944 0
M  V30 3437 O 329.813 -1.73943 0.0946422 0
M  V30 3438 C 326.945 -3.396 0.297419 0
M  V30 3439 H 328.138 -2.39586 1.80385 0
M  V30 3440 H 325.691 -1.22574 0.969812 0
M  V30 3441 H 326.426 -3.17794 -0.64633 0
M  V30 3442 H 326.211 -3.78581 1.02073 0
M  V30 3443 H 327.701 -4.17455 0.110052 0
M  V30 3444 N 328.138 -0.959301 -1.25041 0
M  V30 3445 C 329.384 -0.617525 -1.9317 0
M  V30 3446 C 329.717 0.843981 -1.74902 0
M  V30 3447 O 328.992 1.60615 -1.09696 0
M  V30 3448 C 329.275 -0.982736 -3.46431 0
M  V30 3449 C 329.128 -2.50032 -3.73904 0
M  V30 3450 C 330.447 -0.511176 -4.37121 0
M  V30 3451 H 327.566 -0.22582 -0.701552 0
M  V30 3452 H 330.208 -1.19679 -1.4757 0
M  V30 3453 H 328.358 -0.489806 -3.854 0
M  V30 3454 H 330.03 -3.06737 -3.44544 0
M  V30 3455 H 328.273 -2.93598 -3.19348 0
M  V30 3456 H 328.944 -2.70635 -4.81103 0
M  V30 3457 H 331.42 -0.934075 -4.0548 0
M  V30 3458 H 330.296 -0.795361 -5.43107 0
M  V30 3459 H 330.557 0.588834 -4.38161 0
M  V30 3460 N 329.616 1.39756 -0.72842 0
M  V30 3461 C 330.563 2.30647 -0.0841519 0
M  V30 3462 C 331.533 1.48869 0.7367 0
M  V30 3463 O 332.718 1.77574 0.698015 0
M  V30 3464 C 329.858 3.35165 0.822091 0
M  V30 3465 C 328.971 4.31999 -0.0106663 0
M  V30 3466 C 328.106 5.23585 0.896241 0
M  V30 3467 C 327.145 6.12072 0.0583381 0
M  V30 3468 N 326.282 6.96035 0.920818 0
M  V30 3469 H 331.122 2.85173 -0.864891 0
M  V30 3470 H 328.659 1.40422 -0.438179 0
M  V30 3471 H 330.617 3.94345 1.36189 0
M  V30 3472 H 329.247 2.8211 1.56888 0
M  V30 3473 H 328.299 3.74492 -0.66781 0
M  V30 3474 H 329.611 4.9443 -0.658825 0
M  V30 3475 H 328.765 5.87759 1.50412 0
M  V30 3476 H 327.504 4.61459 1.57819 0
M  V30 3477 H 326.509 5.46916 -0.562389 0
M  V30 3478 H 327.734 6.76261 -0.6203 0
M  V30 3479 H 325.68 6.36485 1.58818 0
M  V30 3480 H 325.597 7.55284 0.32899 0
M  V30 3481 H 326.865 7.64646 1.51447 0
M  V30 3482 N 331.094 0.475555 1.50254 0
M  V30 3483 C 332.057 -0.305016 2.27161 0
M  V30 3484 C 333.057 -0.916519 1.32123 0
M  V30 3485 O 334.247 -0.785003 1.5551 0
M  V30 3486 C 331.379 -1.43496 3.09227 0
M  V30 3487 H 332.572 0.369511 2.97615 0
M  V30 3488 H 330.125 0.229747 1.54602 0
M  V30 3489 H 330.86 -2.14441 2.43281 0
M  V30 3490 H 330.645 -1.00223 3.79075 0
M  V30 3491 H 332.135 -1.98548 3.67381 0
M  V30 3492 N 332.573 -1.56217 0.208337 0
M  V30 3493 C 333.822 -1.97124 -0.427204 0
M  V30 3494 C 334.135 -1.09859 -1.61835 0
M  V30 3495 O 335.341 -1.40606 -2.32255 0
M  V30 3496 C 333.797 -3.50633 -0.811442 0
M  V30 3497 C 333.405 -4.46582 0.35615 0
M  V30 3498 C 335.149 -4.00282 -1.41332 0
M  V30 3499 C 333.056 -5.91379 -0.0497852 0
M  V30 3500 H 331.986 -0.736086 -0.163381 0
M  V30 3501 H 334.637 -1.8099 0.302456 0
M  V30 3502 H 333.019 -3.62319 -1.59815 0
M  V30 3503 H 334.193 -4.46636 1.1337 0
M  V30 3504 H 332.508 -4.07202 0.870396 0
M  V30 3505 H 335.105 -5.0595 -1.72972 0
M  V30 3506 H 335.448 -3.45359 -2.32449 0
M  V30 3507 H 335.981 -3.91764 -0.690323 0
M  V30 3508 H 332.72 -6.50255 0.827529 0
M  V30 3509 H 332.24 -5.94549 -0.791926 0
M  V30 3510 H 333.919 -6.45209 -0.481042 0
M  V30 3511 N 334.051 0.0651679 -1.57465 0
M  V30 3512 C 334.961 1.09448 -2.07505 0
M  V30 3513 C 335.977 1.41974 -1.00595 0
M  V30 3514 O 337.153 1.52018 -1.32107 0
M  V30 3515 C 334.218 2.38689 -2.51453 0
M  V30 3516 C 333.279 2.13073 -3.72691 0
M  V30 3517 C 332.512 3.36152 -4.14533 0
M  V30 3518 O 332.735 4.45517 -3.56189 0
M  V30 3519 O 331.669 3.23974 -5.07272 0
M  V30 3520 H 335.495 0.69935 -2.95538 0
M  V30 3521 H 333.08 0.279752 -1.46757 0
M  V30 3522 H 334.962 3.14736 -2.80212 0
M  V30 3523 H 333.637 2.77568 -1.66546 0
M  V30 3524 H 332.544 1.34709 -3.49005 0
M  V30 3525 H 333.877 1.79071 -4.5847 0
M  V30 3526 N 335.529 1.53961 0.336706 0
M  V30 3527 C 336.94 1.62914 0.911925 0
M  V30 3528 C 337.291 0.514795 1.89326 0
M  V30 3529 O 336.416 -0.354395 2.13478 0
M  V30 3530 C 337.011 2.95304 1.66076 0
M  V30 3531 C 335.57 3.06496 2.18489 0
M  V30 3532 C 334.717 2.58403 1.00613 0
M  V30 3533 H 337.668 1.58285 0.114649 0
M  V30 3534 H 337.689 2.84727 2.5241 0
M  V30 3535 H 337.201 3.76387 0.946276 0
M  V30 3536 H 335.302 2.3006 2.93092 0
M  V30 3537 H 335.415 4.1208 2.44391 0
M  V30 3538 H 333.779 2.13977 1.38152 0
M  V30 3539 H 334.562 3.41932 0.306179 0
M  V30 3540 N 337.007 -0.598083 1.45811 0
M  V30 3541 C 338.284 -1.35777 1.40797 0
M  V30 3542 C 338.664 -2.10935 0.083462 0
M  V30 3543 O 338.012 -2.08505 -0.934763 0
M  V30 3544 C 338.222 -2.29666 2.62783 0
M  V30 3545 C 339.57 -2.91977 3.08277 0
M  V30 3546 O 340.594 -2.39984 2.63223 0
M  V30 3547 O 339.453 -3.86376 3.86491 0
M  V30 3548 H 336.547 -0.609291 0.55919 0
M  V30 3549 H 339.093 -0.620379 1.57954 0
M  V30 3550 H 337.865 -1.73454 3.50756 0
M  V30 3551 H 337.488 -3.1077 2.48008 0
M  V30 3552 N 338.485 -1.33259 -0.841409 0
M  V30 3553 C 339.432 -1.23302 -1.95103 0
M  V30 3554 C 340.402 -0.112204 -1.65721 0
M  V30 3555 O 341.587 -0.290038 -1.88583 0
M  V30 3556 C 338.727 -0.975583 -3.31023 0
M  V30 3557 C 337.84 -2.18243 -3.72819 0
M  V30 3558 C 336.975 -1.85936 -4.97595 0
M  V30 3559 C 336.014 -3.02866 -5.3192 0
M  V30 3560 N 335.151 -2.70565 -6.47873 0
M  V30 3561 H 339.991 -2.18207 -2.02952 0
M  V30 3562 H 337.528 -1.0851 -0.993173 0
M  V30 3563 H 339.486 -0.80677 -4.09325 0
M  V30 3564 H 338.116 -0.0632755 -3.22738 0
M  V30 3565 H 337.168 -2.46107 -2.90061 0
M  V30 3566 H 338.48 -3.05666 -3.94169 0
M  V30 3567 H 337.634 -1.65684 -5.83638 0
M  V30 3568 H 336.373 -0.957452 -4.78209 0
M  V30 3569 H 335.378 -3.23736 -4.44382 0
M  V30 3570 H 336.603 -3.93809 -5.53255 0
M  V30 3571 H 334.549 -1.8293 -6.29978 0
M  V30 3572 H 334.466 -3.51519 -6.69306 0
M  V30 3573 H 335.734 -2.53774 -7.37034 0
M  V30 3574 N 339.963 1.05934 -1.16686 0
M  V30 3575 C 341.209 1.79065 -0.95203 0
M  V30 3576 C 341.542 1.87147 0.518629 0
M  V30 3577 O 340.817 1.36574 1.38484 0
M  V30 3578 C 341.1 3.23359 -1.58464 0
M  V30 3579 C 340.953 3.23336 -3.12689 0
M  V30 3580 C 342.272 4.21004 -1.28232 0
M  V30 3581 H 339.391 0.65005 -0.34728 0
M  V30 3582 H 342.033 1.23868 -1.44072 0
M  V30 3583 H 340.183 3.70493 -1.16908 0
M  V30 3584 H 341.855 2.84336 -3.6325 0
M  V30 3585 H 340.098 2.61886 -3.4583 0
M  V30 3586 H 340.769 4.25144 -3.52075 0
M  V30 3587 H 343.245 3.8233 -1.64203 0
M  V30 3588 H 342.121 5.20225 -1.75092 0
M  V30 3589 H 342.382 4.41639 -0.201791 0
M  V30 3590 N 341.441 0.965919 1.2453 0
M  V30 3591 C 342.69 0.622437 1.91856 0
M  V30 3592 C 343.003 -0.846006 1.76358 0
M  V30 3593 O 344.209 -1.29993 2.38357 0
M  V30 3594 C 342.665 1.0626 3.43856 0
M  V30 3595 C 342.273 2.55437 3.68043 0
M  V30 3596 C 344.017 0.792183 4.17043 0
M  V30 3597 C 341.924 2.93196 5.13605 0
M  V30 3598 H 340.854 0.229092 0.718354 0
M  V30 3599 H 343.505 1.17189 1.41206 0
M  V30 3600 H 341.887 0.441476 3.93531 0
M  V30 3601 H 343.061 3.22665 3.28974 0
M  V30 3602 H 341.376 2.8007 3.08139 0
M  V30 3603 H 343.973 1.05031 5.24283 0
M  V30 3604 H 344.316 -0.271584 4.15413 0
M  V30 3605 H 344.849 1.37419 3.73311 0
M  V30 3606 H 341.588 3.98636 5.20355 0
M  V30 3607 H 341.108 2.30651 5.53679 0
M  V30 3608 H 342.787 2.83004 5.81823 0
M  V30 3609 N 342.919 -1.39368 0.735821 0
M  V30 3610 C 344.149 -2.04498 0.293967 0
M  V30 3611 C 344.557 -1.55593 -1.07645 0
M  V30 3612 O 343.9 -0.716324 -1.69158 0
M  V30 3613 C 343.962 -3.58836 0.218342 0
M  V30 3614 C 343.626 -4.30721 1.52736 0
M  V30 3615 C 344.623 -4.57305 2.47322 0
M  V30 3616 C 342.308 -4.69251 1.79189 0
M  V30 3617 C 344.302 -5.21429 3.66593 0
M  V30 3618 C 341.989 -5.33104 2.98737 0
M  V30 3619 C 342.987 -5.59125 3.9226 0
M  V30 3620 O 342.675 -6.21653 5.09708 0
M  V30 3621 H 342.407 -0.664118 0.126189 0
M  V30 3622 H 344.961 -1.79385 1.00051 0
M  V30 3623 H 343.191 -3.8285 -0.544314 0
M  V30 3624 H 344.88 -4.05447 -0.191626 0
M  V30 3625 H 345.646 -4.27983 2.28156 0
M  V30 3626 H 341.525 -4.48354 1.07239 0
M  V30 3627 H 345.069 -5.41656 4.39607 0
M  V30 3628 H 340.966 -5.61846 3.17803 0
M  V30 3629 H 341.734 -6.40146 5.10054 0
M  V30 3630 N 344.397 -0.483516 -1.5 0
M  V30 3631 C 345.307 0.309172 -2.32554 0
M  V30 3632 C 346.323 0.984159 -1.43493 0
M  V30 3633 O 347.499 0.969399 -1.76535 0
M  V30 3634 C 344.564 1.36979 -3.18493 0
M  V30 3635 C 343.625 0.710095 -4.23387 0
M  V30 3636 C 342.858 1.72018 -5.05218 0
M  V30 3637 O 343.081 2.94813 -4.88305 0
M  V30 3638 O 342.015 1.28515 -5.8802 0
M  V30 3639 H 345.841 -0.366064 -3.01486 0
M  V30 3640 H 343.426 -0.24514 -1.47375 0
M  V30 3641 H 345.308 1.98385 -3.71781 0
M  V30 3642 H 343.983 2.02828 -2.52275 0
M  V30 3643 H 342.89 0.0567539 -3.74057 0
M  V30 3644 H 344.223 0.0943557 -4.9211 0
M  V30 3645 N 345.875 1.56104 -0.216619 0
M  V30 3646 C 347.152 1.89988 0.465165 0
M  V30 3647 C 347.532 1.13326 1.78102 0
M  V30 3648 O 346.88 0.241033 2.27225 0
M  V30 3649 C 347.09 3.42646 0.662939 0
M  V30 3650 C 348.438 4.13311 0.972602 0
M  V30 3651 O 349.462 3.48217 0.749901 0
M  V30 3652 O 348.321 5.28396 1.39499 0
M  V30 3653 H 345.415 0.78979 0.245276 0
M  V30 3654 H 347.961 1.67721 -0.258436 0
M  V30 3655 H 346.733 3.90399 -0.26543 0
M  V30 3656 H 346.356 3.70677 1.43821 0
M  V30 3657 N 347.353 -0.0568162 1.57498 0
M  V30 3658 C 348.283 -1.06593 2.0775 0
M  V30 3659 C 349.264 -1.39448 0.974082 0
M  V30 3660 O 350.449 -1.48815 1.24771 0
M  V30 3661 C 347.579 -2.37509 2.5339 0
M  V30 3662 C 346.533 -2.1897 3.67745 0
M  V30 3663 C 345.859 -3.55402 3.99492 0
M  V30 3664 C 347.159 -1.59859 4.97235 0
M  V30 3665 H 348.853 -0.647706 2.9231 0
M  V30 3666 H 346.399 -0.310116 1.40621 0
M  V30 3667 H 348.352 -3.08409 2.87162 0
M  V30 3668 H 347.076 -2.8134 1.65878 0
M  V30 3669 H 345.735 -1.50508 3.3428 0
M  V30 3670 H 345.383 -3.9683 3.09088 0
M  V30 3671 H 345.083 -3.43831 4.76502 0
M  V30 3672 H 346.607 -4.27708 4.35773 0
M  V30 3673 H 348.021 -2.20642 5.29141 0
M  V30 3674 H 346.418 -1.58942 5.78669 0
M  V30 3675 H 347.488 -0.561506 4.81638 0
M  V30 3676 N 348.832 -1.54138 -0.328536 0
M  V30 3677 C 349.78 -1.83894 -1.42428 0
M  V30 3678 C 350.774 -0.710478 -1.53781 0
M  V30 3679 O 351.98 -0.894062 -1.56226 0
M  V30 3680 H 348.355 -0.582837 -0.475189 0
M  V30 3681 H 350.326 -2.75537 -1.14552 0
M  V30 3682 C 349.075 -2.07866 -2.78724 0
M  V30 3683 H 348.398 -2.94158 -2.7076 0
M  V30 3684 H 349.838 -2.32644 -3.54476 0
M  V30 3685 C 348.297 -0.868689 -3.25508 0
M  V30 3686 O 348.827 -0.0754908 -4.01629 0
M  V30 3687 N 347.033 -0.681711 -2.82491 0
M  V30 3688 H 346.58 -1.32838 -2.20708 0
M  V30 3689 H 346.538 0.126374 -3.14146 0
M  V30 3690 N 350.31 0.590341 -1.46126 0
M  V30 3691 C 351.558 1.34616 -1.50742 0
M  V30 3692 C 351.879 1.94363 -0.157486 0
M  V30 3693 O 351.149 1.78136 0.815136 0
M  V30 3694 H 349.729 0.499789 -0.555175 0
M  V30 3695 H 352.391 0.691953 -1.82203 0
M  V30 3696 H 351.487 2.15678 -2.25587 0
M  V30 3697 N 351.788 1.33704 0.83433 0
M  V30 3698 C 352.736 1.24323 1.96587 0
M  V30 3699 C 353.73 0.143659 1.6879 0
M  V30 3700 O 354.936 0.30791 1.77347 0
M  V30 3701 H 351.311 0.385925 0.645419 0
M  V30 3702 H 353.282 2.19978 2.01624 0
M  V30 3703 C 352.031 1.00394 3.32891 0
M  V30 3704 H 351.354 1.84231 3.54822 0
M  V30 3705 H 352.794 0.97862 4.12552 0
M  V30 3706 C 351.253 -0.293047 3.35623 0
M  V30 3707 O 351.783 -1.29823 3.80143 0
M  V30 3708 N 349.989 -0.322174 2.88809 0
M  V30 3709 H 349.536 0.496379 2.52772 0
M  V30 3710 H 349.494 -1.18977 2.91019 0
M  V30 3711 N 353.266 -1.05314 1.17247 0
M  V30 3712 C 354.494 -1.81971 0.984593 0
M  V30 3713 C 354.909 -1.82929 -0.467166 0
M  V30 3714 O 354.266 -1.25564 -1.32438 0
M  V30 3715 C 354.317 -3.28143 1.51672 0
M  V30 3716 O 354.038 -3.27347 2.91163 0
M  V30 3717 C 355.539 -4.21493 1.37326 0
M  V30 3718 H 352.759 -0.573455 0.348411 0
M  V30 3719 H 355.303 -1.32808 1.55506 0
M  V30 3720 H 353.458 -3.74582 0.988302 0
M  V30 3721 H 353.872 -4.18824 3.15732 0
M  V30 3722 H 355.346 -5.22043 1.79375 0
M  V30 3723 H 355.823 -4.38031 0.320169 0
M  V30 3724 H 356.429 -3.80909 1.89178 0
M  V30 3725 N 354.744 -0.972509 -1.24016 0
M  V30 3726 C 355.694 -0.477561 -2.22942 0
M  V30 3727 C 356.678 0.44308 -1.54679 0
M  V30 3728 O 357.87 0.273219 -1.74879 0
M  V30 3729 C 354.999 0.226348 -3.42553 0
M  V30 3730 C 354.085 -0.713403 -4.18057 0
M  V30 3731 N 354.476 -1.8527 -4.70647 0
M  V30 3732 C 352.774 -0.525145 -4.42898 0
M  V30 3733 C 353.475 -2.44089 -5.28011 0
M  V30 3734 N 352.451 -1.72556 -5.15486 0
M  V30 3735 H 356.253 -1.34678 -2.61226 0
M  V30 3736 H 353.767 -0.832196 -1.39457 0
M  V30 3737 H 355.764 0.598184 -4.12586 0
M  V30 3738 H 354.424 1.09195 -3.05788 0
M  V30 3739 H 355.435 -2.2341 -4.67235 0
M  V30 3740 H 352.112 0.296096 -4.16449 0
M  V30 3741 H 353.502 -3.40259 -5.79374 0
M  V30 3742 N 356.222 1.38976 -0.743202 0
M  V30 3743 C 357.132 2.3434 -0.110399 0
M  V30 3744 C 358.148 1.58741 0.712559 0
M  V30 3745 O 359.324 1.9099 0.639125 0
M  V30 3746 C 356.389 3.37812 0.780012 0
M  V30 3747 C 355.45 4.29263 -0.0561319 0
M  V30 3748 C 354.683 5.27793 0.791875 0
M  V30 3749 O 354.906 5.33043 2.03031 0
M  V30 3750 O 353.84 6.01512 0.216183 0
M  V30 3751 H 357.666 2.90129 -0.897714 0
M  V30 3752 H 355.251 1.40643 -0.503966 0
M  V30 3753 H 357.133 4.01194 1.28923 0
M  V30 3754 H 355.808 2.84395 1.546 0
M  V30 3755 H 354.715 3.69076 -0.611056 0
M  V30 3756 H 356.048 4.85907 -0.784531 0
M  V30 3757 N 357.7 0.491464 1.49741 0
M  V30 3758 C 358.946 -0.0565092 2.02721 0
M  V30 3759 C 359.279 -1.37522 1.37118 0
M  V30 3760 O 358.554 -1.87866 0.503645 0
M  V30 3761 C 358.837 -0.219051 3.59433 0
M  V30 3762 C 358.69 1.12211 4.35579 0
M  V30 3763 C 360.009 -0.964157 4.29409 0
M  V30 3764 H 357.128 -0.0190627 0.736753 0
M  V30 3765 H 359.77 0.641021 1.7886 0
M  V30 3766 H 357.92 -0.813165 3.79895 0
M  V30 3767 H 359.592 1.75437 4.26637 0
M  V30 3768 H 357.835 1.71377 3.98513 0
M  V30 3769 H 358.506 0.961794 5.43556 0
M  V30 3770 H 360.982 -0.460378 4.13545 0
M  V30 3771 H 359.858 -1.04671 5.38828 0
M  V30 3772 H 360.119 -2.00563 3.93988 0
M  V30 3773 N 359.178 -1.55987 0.224894 0
M  V30 3774 C 360.589 -1.84553 -0.282345 0
M  V30 3775 C 360.94 -1.14634 -1.59227 0
M  V30 3776 O 360.065 -0.417155 -2.12341 0
M  V30 3777 C 360.66 -3.348 -0.519062 0
M  V30 3778 C 359.219 -3.63671 -0.970604 0
M  V30 3779 C 358.366 -2.77277 -0.0355261 0
M  V30 3780 H 361.317 -1.52245 0.448006 0
M  V30 3781 H 361.338 -3.55187 -1.36463 0
M  V30 3782 H 360.85 -3.8566 0.43449 0
M  V30 3783 H 358.951 -3.1827 -1.9374 0
M  V30 3784 H 359.064 -4.71631 -0.842698 0
M  V30 3785 H 357.428 -2.48846 -0.542927 0
M  V30 3786 H 358.211 -3.30937 0.913003 0
M  V30 3787 N 360.656 0.0484629 -1.57525 0
M  V30 3788 C 361.619 1.03956 -2.04269 0
M  V30 3789 C 362.619 1.30211 -0.943496 0
M  V30 3790 O 363.809 1.25539 -1.20771 0
M  V30 3791 C 360.941 2.37742 -2.44319 0
M  V30 3792 H 362.134 0.636182 -2.93075 0
M  V30 3793 H 359.687 0.294811 -1.53494 0
M  V30 3794 H 360.422 2.82866 -1.5861 0
M  V30 3795 H 360.207 2.20021 -3.24551 0
M  V30 3796 H 361.697 3.08936 -2.80978 0
M  V30 3797 N 362.134 1.5431 0.320358 0
M  V30 3798 C 363.081 1.83918 1.39438 0
M  V30 3799 C 364.051 0.686525 1.51248 0
M  V30 3800 O 365.236 0.933269 1.66417 0
M  V30 3801 C 362.376 2.075 2.75749 0
M  V30 3802 C 361.489 3.35177 2.72544 0
M  V30 3803 C 360.624 3.48704 4.00723 0
M  V30 3804 C 359.663 4.70244 3.91838 0
M  V30 3805 N 358.8 4.80679 5.11754 0
M  V30 3806 H 363.64 2.75544 1.13489 0
M  V30 3807 H 361.177 1.36459 0.549309 0
M  V30 3808 H 363.135 2.19166 3.54996 0
M  V30 3809 H 361.765 1.19163 3 0
M  V30 3810 H 360.817 3.32233 1.85271 0
M  V30 3811 H 362.129 4.24534 2.61863 0
M  V30 3812 H 361.283 3.59928 4.88402 0
M  V30 3813 H 360.022 2.57445 4.14214 0
M  V30 3814 H 359.027 4.59072 3.02544 0
M  V30 3815 H 360.252 5.6289 3.7991 0
M  V30 3816 H 358.198 3.92337 5.25745 0
M  V30 3817 H 358.115 5.64007 5.0342 0
M  V30 3818 H 359.383 4.96239 6.01138 0
M  V30 3819 N 363.613 -0.582584 1.46437 0
M  V30 3820 C 364.86 -1.34079 1.51753 0
M  V30 3821 C 365.188 -1.93762 0.169299 0
M  V30 3822 O 364.443 -1.76989 -0.835062 0
M  V30 3823 C 364.742 -2.48964 2.56421 0
M  V30 3824 C 364.408 -2.07273 4.00436 0
M  V30 3825 C 363.07 -1.95618 4.39644 0
M  V30 3826 C 365.422 -1.75111 4.90903 0
M  V30 3827 C 362.75 -1.5006 5.67185 0
M  V30 3828 C 365.102 -1.31032 6.18881 0
M  V30 3829 C 363.766 -1.17954 6.56996 0
M  V30 3830 H 363.036 -0.49063 0.555304 0
M  V30 3831 H 365.683 -0.656007 1.79913 0
M  V30 3832 H 363.988 -3.22889 2.21923 0
M  V30 3833 H 365.685 -3.07178 2.57765 0
M  V30 3834 H 362.275 -2.17279 3.69443 0
M  V30 3835 H 366.459 -1.83001 4.61329 0
M  V30 3836 H 361.715 -1.38577 5.95488 0
M  V30 3837 H 365.889 -1.052 6.88408 0
M  V30 3838 H 363.516 -0.824279 7.55718 0
M  V30 3839 N 365.091 -1.34144 -0.827227 0
M  V30 3840 C 366.319 -1.29325 -1.61501 0
M  V30 3841 C 366.734 0.13354 -1.88327 0
M  V30 3842 O 366.091 1.0793 -1.47164 0
M  V30 3843 C 366.142 -2.07746 -2.95844 0
M  V30 3844 O 365.863 -3.4486 -2.70191 0
M  V30 3845 C 367.364 -2.10273 -3.90256 0
M  V30 3846 H 364.584 -0.445069 -0.50215 0
M  V30 3847 H 367.128 -1.76693 -1.02955 0
M  V30 3848 H 365.283 -1.6403 -3.5096 0
M  V30 3849 H 365.697 -3.85345 -3.55822 0
M  V30 3850 H 367.171 -2.69575 -4.81698 0
M  V30 3851 H 367.648 -1.096 -4.25305 0
M  V30 3852 H 368.254 -2.54059 -3.41078 0
M  V30 3853 N 366.569 1.04691 -1.17803 0
M  V30 3854 C 367.502 2.12068 -0.842765 0
M  V30 3855 C 368.48 1.61455 0.192608 0
M  V30 3856 O 369.664 1.88359 0.072995 0
M  V30 3857 C 366.791 3.37715 -0.258063 0
M  V30 3858 C 365.837 4.07164 -1.26962 0
M  V30 3859 S 366.67 4.55047 -2.82299 0
M  V30 3860 C 367.826 5.83935 -2.25323 0
M  V30 3861 H 368.059 2.4018 -1.75217 0
M  V30 3862 H 365.592 1.17366 -1.00323 0
M  V30 3863 H 367.55 4.10435 0.0727935 0
M  V30 3864 H 366.211 3.0773 0.629357 0
M  V30 3865 H 365.404 4.9746 -0.809263 0
M  V30 3866 H 365.006 3.40533 -1.54639 0
M  V30 3867 H 367.298 6.57552 -1.63192 0
M  V30 3868 H 368.241 6.34725 -3.13894 0
M  V30 3869 H 368.649 5.3874 -1.68582 0
M  V30 3870 N 368.047 0.979072 1.23499 0
M  V30 3871 C 369.294 0.647219 1.91878 0
M  V30 3872 C 369.622 -0.819074 1.76413 0
M  V30 3873 O 368.877 -1.60616 1.11808 0
M  V30 3874 C 369.176 0.981932 3.43646 0
M  V30 3875 C 368.842 2.43822 3.79291 0
M  V30 3876 C 367.504 2.83622 3.88731 0
M  V30 3877 C 369.856 3.3828 3.96505 0
M  V30 3878 C 367.184 4.16897 4.12812 0
M  V30 3879 C 369.536 4.71197 4.22085 0
M  V30 3880 C 368.2 5.10758 4.29747 0
M  V30 3881 H 367.47 0.236834 0.702133 0
M  V30 3882 H 370.117 1.23268 1.46551 0
M  V30 3883 H 368.422 0.314365 3.90537 0
M  V30 3884 H 370.119 0.703395 3.94783 0
M  V30 3885 H 366.709 2.11966 3.72516 0
M  V30 3886 H 370.893 3.0871 3.88603 0
M  V30 3887 H 366.149 4.47157 4.16966 0
M  V30 3888 H 370.323 5.44348 4.34348 0
M  V30 3889 H 367.95 6.1405 4.48159 0
M  V30 3890 N 369.525 -1.3858 0.750561 0
M  V30 3891 C 370.458 -2.28095 0.0693139 0
M  V30 3892 C 371.436 -1.45217 -0.731491 0
M  V30 3893 O 372.62 -1.74587 -0.71076 0
M  V30 3894 C 369.747 -3.26282 -0.90871 0
M  V30 3895 C 368.793 -4.26056 -0.194507 0
M  V30 3896 S 369.626 -5.24026 1.10257 0
M  V30 3897 C 370.782 -6.2577 0.127542 0
M  V30 3898 H 371.015 -2.85526 0.8284 0
M  V30 3899 H 368.548 -1.44536 0.543014 0
M  V30 3900 H 370.506 -3.83367 -1.46766 0
M  V30 3901 H 369.167 -2.6784 -1.64075 0
M  V30 3902 H 368.36 -4.95249 -0.93512 0
M  V30 3903 H 367.962 -3.72852 0.292837 0
M  V30 3904 H 370.254 -6.73796 -0.707516 0
M  V30 3905 H 371.197 -7.03712 0.787044 0
M  V30 3906 H 371.605 -5.63938 -0.251803 0
M  V30 3907 N 371.003 -0.499398 -1.49478 0
M  V30 3908 C 372.414 -0.051215 -1.8663 0
M  V30 3909 C 372.765 1.36238 -1.41186 0
M  V30 3910 O 371.89 2.01502 -0.789051 0
M  V30 3911 C 372.485 -0.0861651 -3.3869 0
M  V30 3912 C 371.044 0.30667 -3.75149 0
M  V30 3913 C 370.191 -0.459397 -2.73468 0
M  V30 3914 H 373.142 -0.712264 -1.41818 0
M  V30 3915 H 373.163 0.709507 -3.73826 0
M  V30 3916 H 372.675 -1.11512 -3.71735 0
M  V30 3917 H 370.776 1.33892 -3.47712 0
M  V30 3918 H 370.889 -0.0116669 -4.79099 0
M  V30 3919 H 369.253 0.0905645 -2.54539 0
M  V30 3920 H 370.036 -1.4884 -3.09357 0
M  V30 3921 N 372.481 1.55866 -0.233164 0
M  V30 3922 C 373.706 2.03449 0.402906 0
M  V30 3923 C 374.131 1.11166 1.51736 0
M  V30 3924 O 373.489 0.101996 1.81013 0
M  V30 3925 C 373.537 3.49165 0.9009 0
M  V30 3926 O 372.641 3.60019 2.01147 0
M  V30 3927 H 371.982 0.657913 0.0897025 0
M  V30 3928 H 374.512 2.01493 -0.355201 0
M  V30 3929 H 374.522 3.89716 1.2077 0
M  V30 3930 H 373.197 4.15813 0.0852889 0
M  V30 3931 H 371.774 3.3136 1.71042 0
M  V30 3932 N 373.959 -0.0401083 1.57549 0
M  V30 3933 C 375.206 -0.733125 1.88763 0
M  V30 3934 C 375.534 -1.75946 0.829058 0
M  V30 3935 O 374.789 -1.94949 -0.171323 0
M  V30 3936 C 375.088 -1.44902 3.26708 0
M  V30 3937 C 374.754 -0.559707 4.47413 0
M  V30 3938 C 373.416 -0.314731 4.8017 0
M  V30 3939 C 375.768 0.0549743 5.21171 0
M  V30 3940 C 373.096 0.553886 5.8408 0
M  V30 3941 C 375.448 0.911229 6.26003 0
M  V30 3942 C 374.112 1.16577 6.57241 0
M  V30 3943 H 373.382 -0.268269 0.690733 0
M  V30 3944 H 376.029 0.00679408 1.91499 0
M  V30 3945 H 374.334 -2.26197 3.1991 0
M  V30 3946 H 376.031 -1.99058 3.48105 0
M  V30 3947 H 372.621 -0.760793 4.21794 0
M  V30 3948 H 376.805 -0.121344 4.96152 0
M  V30 3949 H 372.061 0.759518 6.06664 0
M  V30 3950 H 376.235 1.3941 6.82303 0
M  V30 3951 H 373.862 1.84058 7.37582 0
M  V30 3952 N 375.437 -1.54477 -0.31217 0
M  V30 3953 C 376.369 -1.81011 -1.40598 0
M  V30 3954 C 377.382 -0.692546 -1.47335 0
M  V30 3955 O 378.571 -0.969847 -1.49854 0
M  V30 3956 C 375.671 -1.92307 -2.79054 0
M  V30 3957 C 374.844 -3.22594 -2.95384 0
M  V30 3958 C 373.903 -3.24448 -4.1427 0
M  V30 3959 O 372.929 -3.98035 -4.06887 0
M  V30 3960 N 374.131 -2.49042 -5.24365 0
M  V30 3961 H 376.896 -2.75408 -1.18196 0
M  V30 3962 H 374.457 -1.53914 -0.502202 0
M  V30 3963 H 376.449 -1.90962 -3.56813 0
M  V30 3964 H 375.019 -1.04955 -2.94454 0
M  V30 3965 H 374.239 -3.36806 -2.04831 0
M  V30 3966 H 375.527 -4.08593 -3.03198 0
M  V30 3967 H 374.925 -1.88867 -5.33241 0
M  V30 3968 H 373.482 -2.53463 -6.005 0
M  V30 3969 N 376.915 0.57481 -1.46744 0
M  V30 3970 C 378.163 1.33009 -1.52161 0
M  V30 3971 C 378.484 1.94185 -0.178092 0
M  V30 3972 O 377.754 1.7899 0.796196 0
M  V30 3973 H 376.334 0.493873 -0.560445 0
M  V30 3974 H 378.996 0.672589 -1.82927 0
M  V30 3975 H 378.092 2.13273 -2.27862 0
M  V30 3976 N 378.394 1.34581 0.820102 0
M  V30 3977 C 379.805 1.24298 1.39309 0
M  V30 3978 C 380.156 -0.130351 1.95767 0
M  V30 3979 O 379.281 -1.0308 1.90272 0
M  V30 3980 C 379.876 2.25054 2.53251 0
M  V30 3981 C 378.435 2.18552 3.0645 0
M  V30 3982 C 377.582 2.11503 1.79337 0
M  V30 3983 H 380.533 1.45906 0.624262 0
M  V30 3984 H 380.554 1.86917 3.31425 0
M  V30 3985 H 380.066 3.24996 2.1213 0
M  V30 3986 H 378.167 1.21976 3.52069 0
M  V30 3987 H 378.28 3.0993 3.65349 0
M  V30 3988 H 376.644 1.57268 2.00347 0
M  V30 3989 H 377.427 3.13284 1.40386 0
M  V30 3990 N 379.872 -1.04064 1.18357 0
M  V30 3991 C 380.782 -2.15569 0.925596 0
M  V30 3992 C 381.798 -1.7365 -0.110295 0
M  V30 3993 O 382.974 -2.01273 0.0716218 0
M  V30 3994 C 380.039 -3.43704 0.454836 0
M  V30 3995 C 379.1 -4.00004 1.55869 0
M  V30 3996 C 378.333 -5.22023 1.1103 0
M  V30 3997 O 378.556 -5.70392 -0.0309756 0
M  V30 3998 O 377.49 -5.70856 1.90805 0
M  V30 3999 H 381.316 -2.40187 1.8586 0
M  V30 4000 H 378.901 -1.1402 0.965394 0
M  V30 4001 H 380.783 -4.20923 0.200382 0
M  V30 4002 H 379.458 -3.20559 -0.449876 0
M  V30 4003 H 378.365 -3.24172 1.86716 0
M  V30 4004 H 379.698 -4.2749 2.43953 0
M  V30 4005 N 381.35 -0.985608 -1.22978 0
M  V30 4006 C 382.596 -0.65836 -1.91816 0
M  V30 4007 C 382.929 0.806692 -1.76653 0
M  V30 4008 O 382.204 1.58252 -1.13078 0
M  V30 4009 C 382.487 -1.056 -3.44268 0
M  V30 4010 C 382.34 -2.57906 -3.68516 0
M  V30 4011 C 383.659 -0.603781 -4.35939 0
M  V30 4012 H 380.778 -0.24065 -0.696604 0
M  V30 4013 H 383.42 -1.22783 -1.44998 0
M  V30 4014 H 381.57 -0.571445 -3.84274 0
M  V30 4015 H 383.242 -3.13976 -3.3796 0
M  V30 4016 H 381.485 -3.00305 -3.13048 0
M  V30 4017 H 382.156 -2.80779 -4.75255 0
M  V30 4018 H 384.632 -1.01987 -4.03408 0
M  V30 4019 H 383.508 -0.910383 -5.41298 0
M  V30 4020 H 383.769 0.495761 -4.39312 0
M  V30 4021 N 382.828 1.3818 -0.7579 0
M  V30 4022 C 384.074 2.00316 -0.316453 0
M  V30 4023 C 384.407 1.60026 1.10025 0
M  V30 4024 O 383.682 0.839835 1.75434 0
M  V30 4025 C 383.965 3.57349 -0.444245 0
M  V30 4026 C 383.818 4.07591 -1.90236 0
M  V30 4027 C 385.137 4.3981 0.1598 0
M  V30 4028 H 382.256 0.727741 -0.116459 0
M  V30 4029 H 384.898 1.6406 -0.958352 0
M  V30 4030 H 383.048 3.88365 0.102233 0
M  V30 4031 H 384.72 3.87199 -2.50748 0
M  V30 4032 H 382.963 3.60297 -2.41595 0
M  V30 4033 H 383.634 5.16677 -1.94291 0
M  V30 4034 H 386.11 4.14971 -0.306314 0
M  V30 4035 H 384.986 5.48885 0.0401675 0
M  V30 4036 H 385.247 4.24102 1.24859 0
M  V30 4037 N 384.306 0.507319 1.49211 0
M  V30 4038 C 385.269 -0.256763 2.27757 0
M  V30 4039 C 386.269 -0.888287 1.34038 0
M  V30 4040 O 387.459 -0.751841 1.5714 0
M  V30 4041 C 384.591 -1.36905 3.12202 0
M  V30 4042 H 385.784 0.432557 2.96764 0
M  V30 4043 H 383.337 0.262488 1.5408 0
M  V30 4044 H 384.072 -2.09233 2.47775 0
M  V30 4045 H 383.857 -0.921599 3.81115 0
M  V30 4046 H 385.347 -1.9071 3.7151 0
M  V30 4047 N 385.784 -1.5574 0.241426 0
M  V30 4048 C 387.009 -2.0366 -0.392111 0
M  V30 4049 C 387.434 -1.11969 -1.51144 0
M  V30 4050 O 386.792 -0.111594 -1.80956 0
M  V30 4051 C 386.84 -3.49638 -0.882371 0
M  V30 4052 O 385.944 -3.6108 -1.99235 0
M  V30 4053 H 385.285 -0.658379 -0.0862122 0
M  V30 4054 H 387.815 -2.01302 0.365881 0
M  V30 4055 H 387.825 -3.90351 -1.18702 0
M  V30 4056 H 386.5 -4.15852 -0.0632361 0
M  V30 4057 H 385.077 -3.32262 -1.69282 0
M  V30 4058 N 387.262 0.0317525 -1.57568 0
M  V30 4059 C 388.225 1.01783 -2.0536 0
M  V30 4060 C 389.225 1.29203 -0.957253 0
M  V30 4061 O 390.415 1.24251 -1.22095 0
M  V30 4062 C 387.547 2.35137 -2.46827 0
M  V30 4063 H 388.74 0.605062 -2.93733 0
M  V30 4064 H 386.293 0.278514 -1.53799 0
M  V30 4065 H 387.028 2.81168 -1.61602 0
M  V30 4066 H 386.813 2.16566 -3.26866 0
M  V30 4067 H 388.303 3.05938 -2.84239 0
M  V30 4068 N 388.74 1.54641 0.303973 0
M  V30 4069 C 389.988 1.73437 1.0375 0
M  V30 4070 C 390.309 0.521449 1.87899 0
M  V30 4071 O 389.579 -0.46432 1.90318 0
M  V30 4072 H 388.159 0.639518 0.386039 0
M  V30 4073 H 390.821 1.91988 0.335675 0
M  V30 4074 H 389.917 2.62235 1.69231 0
M  V30 4075 N 390.218 -0.567019 1.47046 0
M  V30 4076 C 391.495 -1.3276 1.43646 0
M  V30 4077 C 391.875 -2.1071 0.128186 0
M  V30 4078 O 391.223 -2.10441 -0.890326 0
M  V30 4079 C 391.433 -2.2404 2.67595 0
M  V30 4080 C 392.781 -2.85372 3.14401 0
M  V30 4081 O 393.805 -2.34346 2.68254 0
M  V30 4082 O 392.664 -3.78091 3.946 0
M  V30 4083 H 389.758 -0.597293 0.571988 0
M  V30 4084 H 392.304 -0.586735 1.59234 0
M  V30 4085 H 391.076 -1.65975 3.54356 0
M  V30 4086 H 390.699 -3.05439 2.54544 0
M  V30 4087 N 391.696 -1.35014 -0.812953 0
M  V30 4088 C 392.643 -1.27412 -1.92444 0
M  V30 4089 C 393.613 -0.14733 -1.65445 0
M  V30 4090 O 394.798 -0.329974 -1.87925 0
M  V30 4091 C 391.938 -1.04558 -3.28879 0
M  V30 4092 C 391.051 -2.26101 -3.68106 0
M  V30 4093 C 390.186 -1.96449 -4.9354 0
M  V30 4094 C 389.225 -3.14081 -5.25376 0
M  V30 4095 N 388.362 -2.84246 -6.41988 0
M  V30 4096 H 393.202 -2.22463 -1.98278 0
M  V30 4097 H 390.739 -1.10593 -0.969933 0
M  V30 4098 H 392.697 -0.893413 -4.07522 0
M  V30 4099 H 391.327 -0.131719 -3.22531 0
M  V30 4100 H 390.379 -2.52204 -2.84775 0
M  V30 4101 H 391.691 -3.13959 -3.87597 0
M  V30 4102 H 390.845 -1.78026 -5.79993 0
M  V30 4103 H 389.584 -1.05867 -4.76071 0
M  V30 4104 H 388.589 -3.33089 -4.37415 0
M  V30 4105 H 389.814 -4.05455 -5.44778 0
M  V30 4106 H 387.76 -1.96252 -6.25956 0
M  V30 4107 H 387.677 -3.65637 -6.61699 0
M  V30 4108 H 388.945 -2.6935 -7.31485 0
M  V30 4109 N 393.175 1.03435 -1.18907 0
M  V30 4110 C 394.421 1.77005 -0.989798 0
M  V30 4111 C 394.754 1.88205 0.478816 0
M  V30 4112 O 394.029 1.39481 1.35556 0
M  V30 4113 C 394.312 3.19925 -1.65287 0
M  V30 4114 C 394.165 3.1663 -3.19477 0
M  V30 4115 C 395.484 4.18189 -1.37134 0
M  V30 4116 H 392.603 0.642538 -0.360991 0
M  V30 4117 H 395.245 1.20784 -1.46667 0
M  V30 4118 H 393.395 3.67929 -1.24741 0
M  V30 4119 H 395.067 2.76567 -3.692 0
M  V30 4120 H 393.31 2.54491 -3.51307 0
M  V30 4121 H 393.981 4.1758 -3.61013 0
M  V30 4122 H 396.457 3.78761 -1.72276 0
M  V30 4123 H 395.333 5.16394 -1.86087 0
M  V30 4124 H 395.594 4.41112 -0.295424 0
M  V30 4125 N 394.653 0.992116 1.22453 0
M  V30 4126 C 395.616 0.546883 2.2258 0
M  V30 4127 C 396.616 -0.369829 1.56489 0
M  V30 4128 O 397.806 -0.161896 1.73446 0
M  V30 4129 C 394.938 -0.204659 3.40285 0
M  V30 4130 H 396.131 1.43234 2.63484 0
M  V30 4131 H 393.684 0.779239 1.3549 0
M  V30 4132 H 394.419 -1.10614 3.04853 0
M  V30 4133 H 394.204 0.45354 3.89468 0
M  V30 4134 H 395.694 -0.504358 4.14543 0
M  V30 4135 N 396.131 -1.37776 0.765217 0
M  V30 4136 C 397.079 -2.32209 0.134798 0
M  V30 4137 C 398.073 -1.54607 -0.692315 0
M  V30 4138 O 399.279 -1.70052 -0.590109 0
M  V30 4139 H 395.654 -0.751591 0.0248005 0
M  V30 4140 H 397.625 -2.8297 0.947119 0
M  V30 4141 C 396.374 -3.39841 -0.735063 0
M  V30 4142 H 395.697 -3.99654 -0.107991 0
M  V30 4143 H 397.137 -4.08296 -1.14326 0
M  V30 4144 C 395.596 -2.79378 -1.88281 0
M  V30 4145 O 396.126 -2.69608 -2.97783 0
M  V30 4146 N 394.332 -2.37016 -1.68142 0
M  V30 4147 H 393.879 -2.45162 -0.790772 0
M  V30 4148 H 393.837 -1.96905 -2.45104 0
M  V30 4149 N 397.609 -0.515225 -1.4894 0
M  V30 4150 C 399.02 -0.0710067 -1.86565 0
M  V30 4151 C 399.371 1.34733 -1.42623 0
M  V30 4152 O 398.496 2.00653 -0.810379 0
M  V30 4153 C 399.091 -0.122083 -3.3858 0
M  V30 4154 C 397.65 0.266863 -3.75453 0
M  V30 4155 C 396.797 -0.488376 -2.72966 0
M  V30 4156 H 399.748 -0.727266 -1.41055 0
M  V30 4157 H 399.769 0.669818 -3.74558 0
M  V30 4158 H 399.281 -1.15448 -3.70531 0
M  V30 4159 H 397.382 1.30196 -3.49113 0
M  V30 4160 H 397.495 -0.0624811 -4.79059 0
M  V30 4161 H 395.859 0.0635622 -2.54621 0
M  V30 4162 H 396.642 -1.52113 -3.07761 0
M  V30 4163 N 399.087 1.5561 -0.249682 0
M  V30 4164 C 400.05 2.20217 0.635394 0
M  V30 4165 C 401.05 1.17227 1.10066 0
M  V30 4166 O 402.24 1.42292 1.00492 0
M  V30 4167 C 399.372 2.84794 1.87363 0
M  V30 4168 H 400.565 2.99814 0.0716752 0
M  V30 4169 H 398.118 1.563 -0.000153234 0
M  V30 4170 H 398.853 2.09142 2.47851 0
M  V30 4171 H 398.638 3.60241 1.5482 0
M  V30 4172 H 400.128 3.3423 2.5036 0
M  V30 4173 N 400.565 -0.0233959 1.57583 0
M  V30 4174 C 401.513 -1.04063 2.08023 0
M  V30 4175 C 402.507 -1.37084 0.995204 0
M  V30 4176 O 403.713 -1.35923 1.18004 0
M  V30 4177 H 400.088 -0.353144 0.663922 0
M  V30 4178 H 402.059 -0.589453 2.9252 0
M  V30 4179 C 400.808 -2.33123 2.57971 0
M  V30 4180 H 400.131 -2.08577 3.4108 0
M  V30 4181 H 401.571 -3.02632 2.96967 0
M  V30 4182 C 400.03 -3.02483 1.48342 0
M  V30 4183 O 400.56 -3.92541 0.852898 0
M  V30 4184 N 398.766 -2.63909 1.21658 0
M  V30 4185 H 398.313 -1.90758 1.73116 0
M  V30 4186 H 398.271 -3.10633 0.485218 0
M  V30 4187 N 402.043 -1.548 -0.295768 0
M  V30 4188 C 402.99 -1.86113 -1.36494 0
M  V30 4189 C 403.96 -0.7105 -1.50137 0
M  V30 4190 O 405.145 -0.959626 -1.64912 0
M  V30 4191 C 402.285 -2.11861 -2.72413 0
M  V30 4192 C 401.398 -3.39471 -2.67177 0
M  V30 4193 C 400.533 -3.55035 -3.95125 0
M  V30 4194 C 399.572 -4.76418 -3.84308 0
M  V30 4195 N 398.709 -4.8876 -5.04042 0
M  V30 4196 H 403.549 -2.77314 -1.09091 0
M  V30 4197 H 401.086 -1.37315 -0.52753 0
M  V30 4198 H 403.044 -2.24786 -3.51464 0
M  V30 4199 H 401.674 -1.2392 -2.98066 0
M  V30 4200 H 400.726 -3.35139 -1.79962 0
M  V30 4201 H 402.038 -4.28646 -2.55076 0
M  V30 4202 H 401.192 -3.67653 -4.82614 0
M  V30 4203 H 399.931 -2.64002 -4.10066 0
M  V30 4204 H 398.936 -4.63827 -2.95202 0
M  V30 4205 H 400.161 -5.68863 -3.70906 0
M  V30 4206 H 398.107 -4.00652 -5.19436 0
M  V30 4207 H 398.024 -5.71945 -4.94384 0
M  V30 4208 H 399.292 -5.0574 -5.93167 0
M  V30 4209 N 403.521 0.559213 -1.47345 0
M  V30 4210 C 404.454 1.68201 -1.5422 0
M  V30 4211 C 405.432 1.57742 -0.394497 0
M  V30 4212 O 406.616 1.78628 -0.60201 0
M  V30 4213 C 403.743 3.0643 -1.44285 0
M  V30 4214 C 402.789 3.3534 -2.63532 0
M  V30 4215 S 403.622 3.24816 -4.25741 0
M  V30 4216 C 404.778 4.65542 -4.18355 0
M  V30 4217 H 405.011 1.62114 -2.49211 0
M  V30 4218 H 402.544 0.739871 -1.35519 0
M  V30 4219 H 404.502 3.86164 -1.3924 0
M  V30 4220 H 403.163 3.09984 -0.506816 0
M  V30 4221 H 402.356 4.36107 -2.52639 0
M  V30 4222 H 401.958 2.63221 -2.65689 0
M  V30 4223 H 404.25 5.56449 -3.86485 0
M  V30 4224 H 405.193 4.81493 -5.19202 0
M  V30 4225 H 405.601 4.43495 -3.49246 0
M  V30 4226 N 404.999 1.35443 0.805782 0
M  V30 4227 C 406.245 1.28952 1.56522 0
M  V30 4228 C 406.578 -0.135597 1.93726 0
M  V30 4229 O 405.853 -1.08516 1.61414 0
M  V30 4230 C 406.136 2.19678 2.85331 0
M  V30 4231 C 405.989 3.7081 2.54598 0
M  V30 4232 C 407.308 2.09495 3.8704 0
M  V30 4233 H 404.427 0.469764 0.567883 0
M  V30 4234 H 407.069 1.65851 0.927001 0
M  V30 4235 H 405.219 1.8834 3.39795 0
M  V30 4236 H 406.891 4.12593 2.06312 0
M  V30 4237 H 405.134 3.91051 1.8778 0
M  V30 4238 H 405.805 4.29679 3.46525 0
M  V30 4239 H 408.281 2.37045 3.41978 0
M  V30 4240 H 407.157 2.75173 4.74943 0
M  V30 4241 H 407.418 1.07714 4.28777 0
M  V30 4242 N 406.477 -1.02803 1.19454 0
M  V30 4243 C 407.726 -1.7562 0.991996 0
M  V30 4244 C 408.039 -1.89672 -0.477901 0
M  V30 4245 O 409.245 -2.59468 -0.799287 0
M  V30 4246 C 407.701 -3.15812 1.72601 0
M  V30 4247 C 407.309 -3.0981 3.23607 0
M  V30 4248 C 409.053 -3.92918 1.60674 0
M  V30 4249 C 406.96 -4.44939 3.89594 0
M  V30 4250 H 405.89 -0.658352 0.367543 0
M  V30 4251 H 408.541 -1.15044 1.42959 0
M  V30 4252 H 406.923 -3.7686 1.21624 0
M  V30 4253 H 408.097 -2.58138 3.81709 0
M  V30 4254 H 406.412 -2.46201 3.35819 0
M  V30 4255 H 409.009 -4.9287 2.07323 0
M  V30 4256 H 409.352 -4.12502 0.561025 0
M  V30 4257 H 409.885 -3.38472 2.09001 0
M  V30 4258 H 406.624 -4.30559 4.94267 0
M  V30 4259 H 406.144 -4.96664 3.36281 0
M  V30 4260 H 407.823 -5.1382 3.93189 0
M  V30 4261 N 407.956 -0.998596 -1.21925 0
M  V30 4262 C 409.202 -0.678667 -1.91107 0
M  V30 4263 C 409.535 0.78791 -1.77498 0
M  V30 4264 O 408.81 1.57043 -1.1475 0
M  V30 4265 C 409.093 -1.09245 -3.43129 0
M  V30 4266 C 408.946 -2.61801 -3.6576 0
M  V30 4267 C 410.265 -0.649984 -4.35274 0
M  V30 4268 H 407.384 -0.248025 -0.694012 0
M  V30 4269 H 410.026 -1.24314 -1.43688 0
M  V30 4270 H 408.176 -0.612171 -3.83647 0
M  V30 4271 H 409.848 -3.17543 -3.34611 0
M  V30 4272 H 408.091 -3.03609 -3.09845 0
M  V30 4273 H 408.762 -2.85804 -4.7225 0
M  V30 4274 H 411.238 -1.0626 -4.02303 0
M  V30 4275 H 410.114 -0.967743 -5.40302 0
M  V30 4276 H 410.375 0.449139 -4.39813 0
M  V30 4277 N 409.434 1.37368 -0.772513 0
M  V30 4278 C 410.382 2.32134 -0.147111 0
M  V30 4279 C 411.376 1.54972 0.684106 0
M  V30 4280 O 412.582 1.70363 0.581083 0
M  V30 4281 H 408.957 0.751449 -0.028786 0
M  V30 4282 H 410.928 2.82464 -0.962112 0
M  V30 4283 C 409.677 3.40226 0.71703 0
M  V30 4284 H 409 3.99706 0.0867951 0
M  V30 4285 H 410.44 4.08897 1.12159 0
M  V30 4286 C 408.899 2.80372 1.86797 0
M  V30 4287 O 409.429 2.71183 2.96349 0
M  V30 4288 N 407.635 2.37904 1.66883 0
M  V30 4289 H 407.182 2.45578 0.777759 0
M  V30 4290 H 407.14 1.98202 2.44056 0
M  V30 4291 N 410.912 0.523116 1.48665 0
M  V30 4292 C 412.328 0.180511 1.58576 0
M  V30 4293 C 412.528 -1.31597 1.52592 0
M  V30 4294 O 411.584 -2.0937 1.4114 0
M  V30 4295 C 412.897 0.776949 2.90489 0
M  V30 4296 C 414.445 0.745058 3.04003 0
M  V30 4297 C 414.92 1.31995 4.38567 0
M  V30 4298 N 416.411 1.28162 4.45117 0
M  V30 4299 C 417.146 1.6964 5.47731 0
M  V30 4300 N 416.642 2.18816 6.57337 0
M  V30 4301 N 418.435 1.6092 5.38573 0
M  V30 4302 H 410.586 1.4958 1.50797 0
M  V30 4303 H 412.849 0.621772 0.715614 0
M  V30 4304 H 412.555 1.82732 3.00503 0
M  V30 4305 H 412.429 0.25007 3.7637 0
M  V30 4306 H 414.816 -0.296532 2.93606 0
M  V30 4307 H 414.897 1.30933 2.1975 0
M  V30 4308 H 414.541 2.36043 4.49718 0
M  V30 4309 H 414.471 0.731418 5.21496 0
M  V30 4310 H 416.962 0.92155 3.66491 0
M  V30 4311 H 417.275 2.48478 7.31764 0
M  V30 4312 H 415.62 2.22805 6.58318 0
M  V30 4313 H 418.811 1.22304 4.5184 0
M  V30 4314 H 418.984 1.93567 6.18414 0
M  V30 4315 N 412.39 -1.55475 0.257931 0
M  V30 4316 C 413.63 -2.01112 -0.365129 0
M  V30 4317 C 413.994 -1.1423 -1.54323 0
M  V30 4318 O 415.195 -1.49371 -2.23477 0
M  V30 4319 C 413.466 -3.49353 -0.754117 0
M  V30 4320 S 415.025 -4.16992 -1.36614 0
M  V30 4321 H 411.843 -0.701737 -0.114397 0
M  V30 4322 H 414.445 -1.91855 0.375747 0
M  V30 4323 H 413.149 -4.10246 0.112441 0
M  V30 4324 H 412.68 -3.6256 -1.52689 0
M  V30 4325 H 414.695 -4.19191 -2.65505 0
M  V30 4326 N 413.868 0.0150385 -1.57593 0
M  V30 4327 C 415.115 0.703001 -1.89906 0
M  V30 4328 C 415.443 1.74604 -0.856944 0
M  V30 4329 O 414.698 1.95197 0.140287 0
M  V30 4330 C 414.997 1.39686 -3.28972 0
M  V30 4331 C 414.663 0.488457 -4.48246 0
M  V30 4332 C 413.325 0.2383 -4.8061 0
M  V30 4333 C 415.677 -0.137881 -5.21018 0
M  V30 4334 C 413.005 -0.646738 -5.83125 0
M  V30 4335 C 415.357 -1.0107 -6.24474 0
M  V30 4336 C 414.021 -1.27019 -6.55303 0
M  V30 4337 H 413.291 0.257246 -0.694914 0
M  V30 4338 H 415.938 -0.037259 -1.91464 0
M  V30 4339 H 414.243 2.21079 -3.23468 0
M  V30 4340 H 415.94 1.93495 -3.51227 0
M  V30 4341 H 412.53 0.693593 -4.22951 0
M  V30 4342 H 416.714 0.0423953 -4.96282 0
M  V30 4343 H 411.97 -0.855937 -6.05379 0
M  V30 4344 H 416.144 -1.50247 -6.79999 0
M  V30 4345 H 413.771 -1.95769 -7.3456 0
M  V30 4346 N 415.346 1.54954 0.287554 0
M  V30 4347 C 416.278 1.83224 1.37701 0
M  V30 4348 C 417.291 0.715898 1.46215 0
M  V30 4349 O 418.48 0.993565 1.48292 0
M  V30 4350 C 415.58 1.96723 2.75959 0
M  V30 4351 C 414.753 3.27253 2.90215 0
M  V30 4352 C 413.812 3.30998 4.09056 0
M  V30 4353 O 412.838 4.04457 4.00503 0
M  V30 4354 N 414.04 2.57353 5.20336 0
M  V30 4355 H 416.805 2.77254 1.138 0
M  V30 4356 H 414.366 1.54694 0.477652 0
M  V30 4357 H 416.358 1.96615 3.5373 0
M  V30 4358 H 414.928 1.09626 2.92747 0
M  V30 4359 H 414.148 3.40022 1.99447 0
M  V30 4360 H 415.436 4.13365 2.96659 0
M  V30 4361 H 414.834 1.97327 5.30169 0
M  V30 4362 H 413.391 2.62984 5.96391 0
M  V30 4363 N 416.824 -0.551391 1.4764 0
M  V30 4364 C 417.772 -1.67896 1.60978 0
M  V30 4365 C 418.766 -1.62549 0.476877 0
M  V30 4366 O 419.972 -1.67664 0.654878 0
M  V30 4367 H 416.347 -0.555649 0.506713 0
M  V30 4368 H 418.318 -1.53784 2.55721 0
M  V30 4369 C 417.067 -3.06234 1.64669 0
M  V30 4370 H 416.39 -3.11033 2.51194 0
M  V30 4371 H 417.83 -3.84804 1.7805 0
M  V30 4372 C 416.289 -3.34737 0.381115 0
M  V30 4373 O 416.819 -3.98381 -0.515297 0
M  V30 4374 N 415.025 -2.8944 0.259354 0
M  V30 4375 H 414.572 -2.37827 0.98976 0
M  V30 4376 H 414.53 -3.08882 -0.586464 0
M  V30 4377 N 418.302 -1.35869 -0.798587 0
M  V30 4378 C 419.713 -1.26498 -1.37314 0
M  V30 4379 C 420.064 0.0991899 -1.95949 0
M  V30 4380 O 419.189 1.0004 -1.91888 0
M  V30 4381 C 419.784 -2.29054 -2.49639 0
M  V30 4382 C 418.343 -2.234 -3.02935 0
M  V30 4383 C 417.49 -2.14329 -1.75949 0
M  V30 4384 H 420.441 -1.46881 -0.600971 0
M  V30 4385 H 420.462 -1.92166 -3.28409 0
M  V30 4386 H 419.974 -3.2833 -2.06933 0
M  V30 4387 H 418.075 -1.27562 -3.50084 0
M  V30 4388 H 418.188 -3.15703 -3.60372 0
M  V30 4389 H 416.552 -1.60435 -1.9782 0
M  V30 4390 H 417.335 -3.15477 -1.35384 0
M  V30 4391 N 419.78 1.02168 -1.19998 0
M  V30 4392 C 421.008 1.79296 -1.03249 0
M  V30 4393 C 421.423 1.84103 0.418502 0
M  V30 4394 O 420.78 1.29031 1.29063 0
M  V30 4395 C 420.831 3.24007 -1.60319 0
M  V30 4396 O 420.552 3.19512 -2.99739 0
M  V30 4397 C 422.053 4.17704 -1.48453 0
M  V30 4398 H 419.273 0.564016 -0.363493 0
M  V30 4399 H 421.817 1.28639 -1.58973 0
M  V30 4400 H 419.972 3.7183 -1.08727 0
M  V30 4401 H 420.386 4.10306 -3.26725 0
M  V30 4402 H 421.86 5.17104 -1.93153 0
M  V30 4403 H 422.337 4.37029 -0.436193 0
M  V30 4404 H 422.943 3.7576 -1.99211 0
M  V30 4405 N 421.258 1.00505 1.21394 0
M  V30 4406 C 422.488 0.705584 1.94178 0
M  V30 4407 C 422.896 -0.735846 1.74304 0
M  V30 4408 O 422.239 -1.50954 1.04683 0
M  V30 4409 C 422.301 0.94689 3.46806 0
M  V30 4410 C 421.965 2.37517 3.90429 0
M  V30 4411 C 422.962 3.35539 3.97127 0
M  V30 4412 C 420.647 2.71284 4.22742 0
M  V30 4413 C 422.641 4.65395 4.3553 0
M  V30 4414 C 420.328 4.01356 4.60822 0
M  V30 4415 C 421.326 4.98223 4.67186 0
M  V30 4416 O 421.014 6.25969 5.04399 0
M  V30 4417 H 420.746 0.259216 0.624326 0
M  V30 4418 H 423.3 1.34592 1.55159 0
M  V30 4419 H 421.53 0.249386 3.85895 0
M  V30 4420 H 423.219 0.640804 4.0081 0
M  V30 4421 H 423.985 3.10786 3.7234 0
M  V30 4422 H 419.864 1.96581 4.16985 0
M  V30 4423 H 423.408 5.41002 4.40412 0
M  V30 4424 H 419.305 4.25893 4.85063 0
M  V30 4425 H 420.073 6.30085 5.22431 0
M  V30 4426 N 422.737 -1.36956 0.779787 0
M  V30 4427 C 423.684 -2.30175 0.169697 0
M  V30 4428 C 424.654 -1.51501 -0.68094 0
M  V30 4429 O 425.839 -1.80042 -0.631629 0
M  V30 4430 C 422.979 -3.37985 -0.697131 0
M  V30 4431 C 422.092 -4.31661 0.170992 0
M  V30 4432 C 421.227 -5.2655 -0.701298 0
M  V30 4433 C 420.266 -6.11867 0.168869 0
M  V30 4434 N 419.403 -6.98973 -0.661855 0
M  V30 4435 H 424.243 -2.81767 0.970135 0
M  V30 4436 H 421.78 -1.38699 0.489994 0
M  V30 4437 H 423.738 -3.99128 -1.2146 0
M  V30 4438 H 422.368 -2.87739 -1.46309 0
M  V30 4439 H 421.42 -3.71756 0.80634 0
M  V30 4440 H 422.732 -4.91644 0.841875 0
M  V30 4441 H 421.886 -5.92937 -1.28494 0
M  V30 4442 H 420.625 -4.66998 -1.40584 0
M  V30 4443 H 419.63 -5.44452 0.764986 0
M  V30 4444 H 420.855 -6.73493 0.870863 0
M  V30 4445 H 418.801 -6.41941 -1.35086 0
M  V30 4446 H 418.718 -7.55984 -0.0484447 0
M  V30 4447 H 419.986 -7.6974 -1.22963 0
M  V30 4448 N 424.215 -0.530993 -1.48385 0
M  V30 4449 C 425.163 0.244595 -2.3131 0
M  V30 4450 C 426.157 0.93451 -1.41291 0
M  V30 4451 O 427.363 0.85878 -1.58193 0
M  V30 4452 H 423.738 0.0977472 -0.74562 0
M  V30 4453 H 425.709 -0.474369 -2.94605 0
M  V30 4454 C 424.458 1.2779 -3.23365 0
M  V30 4455 H 423.781 0.756439 -3.92579 0
M  V30 4456 H 425.221 1.79198 -3.84271 0
M  V30 4457 C 423.68 2.31205 -2.45042 0
M  V30 4458 O 424.21 3.37661 -2.17596 0
M  V30 4459 N 422.416 2.04446 -2.0652 0
M  V30 4460 H 421.963 1.17891 -2.2904 0
M  V30 4461 H 421.921 2.73861 -1.54427 0
M  V30 4462 N 425.693 1.55336 -0.266172 0
M  V30 4463 C 426.942 1.98574 0.353749 0
M  V30 4464 C 427.255 1.15789 1.57646 0
M  V30 4465 O 428.461 1.49129 2.26876 0
M  V30 4466 C 426.917 3.53403 0.680747 0
M  V30 4467 C 426.525 4.44953 -0.52165 0
M  V30 4468 C 428.269 4.05251 1.26379 0
M  V30 4469 C 426.176 5.91156 -0.169736 0
M  V30 4470 H 425.106 0.741643 0.135949 0
M  V30 4471 H 427.757 1.79743 -0.369421 0
M  V30 4472 H 426.139 3.68001 1.46257 0
M  V30 4473 H 427.313 4.42121 -1.29869 0
M  V30 4474 H 425.628 4.03691 -1.02093 0
M  V30 4475 H 428.225 5.12021 1.54074 0
M  V30 4476 H 428.568 3.53749 2.19471 0
M  V30 4477 H 429.101 3.94057 0.544447 0
M  V30 4478 H 425.84 6.46736 -1.0683 0
M  V30 4479 H 425.36 5.97079 0.570717 0
M  V30 4480 H 427.039 6.4655 0.241245 0
M  V30 4481 N 427.171 -0.0066808 1.57599 0
M  V30 4482 C 428.418 -0.69292 1.90276 0
M  V30 4483 C 428.746 -1.74148 0.866192 0
M  V30 4484 O 428.001 -1.95268 -0.129933 0
M  V30 4485 C 428.3 -1.37939 3.29708 0
M  V30 4486 C 427.966 -0.464679 4.48499 0
M  V30 4487 C 426.628 -0.212809 4.80729 0
M  V30 4488 C 428.98 0.16551 5.20937 0
M  V30 4489 C 426.308 0.677653 5.82773 0
M  V30 4490 C 428.66 1.04381 6.23929 0
M  V30 4491 C 427.324 1.30492 6.54621 0
M  V30 4492 H 426.594 -0.253558 0.696268 0
M  V30 4493 H 429.241 0.0474123 1.91441 0
M  V30 4494 H 427.546 -2.1936 3.24636 0
M  V30 4495 H 429.243 -1.9163 3.52249 0
M  V30 4496 H 425.833 -0.671153 4.23313 0
M  V30 4497 H 430.017 -0.0160756 4.96297 0
M  V30 4498 H 425.273 0.88803 6.04917 0
M  V30 4499 H 429.447 1.53851 6.79193 0
M  V30 4500 H 427.074 1.99662 7.33512 0
M  V30 4501 N 428.649 -1.55105 -0.279332 0
M  V30 4502 C 429.897 -1.75066 -1.00977 0
M  V30 4503 C 430.218 -0.551276 -1.87045 0
M  V30 4504 O 429.488 0.433984 -1.91032 0
M  V30 4505 H 428.068 -0.645578 -0.375816 0
M  V30 4506 H 430.73 -1.92497 -0.305089 0
M  V30 4507 H 429.826 -2.64894 -1.65038 0
M  V30 4508 N 430.127 0.543554 -1.4793 0
M  V30 4509 C 431.373 1.30201 -1.55485 0
M  V30 4510 C 431.706 1.92925 -0.222201 0
M  V30 4511 O 430.981 1.78586 0.77053 0
M  V30 4512 C 431.264 2.40174 -2.68307 0
M  V30 4513 C 431.117 1.8223 -4.11233 0
M  V30 4514 C 432.436 3.42024 -2.76961 0
M  V30 4515 H 429.555 0.472036 -0.565996 0
M  V30 4516 H 432.197 0.606914 -1.80046 0
M  V30 4517 H 430.347 2.99463 -2.47495 0
M  V30 4518 H 432.019 1.27096 -4.43446 0
M  V30 4519 H 430.262 1.12832 -4.18869 0
M  V30 4520 H 430.933 2.61793 -4.85972 0
M  V30 4521 H 433.409 2.92672 -2.95774 0
M  V30 4522 H 432.285 4.16383 -3.57654 0
M  V30 4523 H 432.546 4.0173 -1.84568 0
M  V30 4524 N 431.605 1.3629 0.791371 0
M  V30 4525 C 432.853 1.30154 1.5461 0
M  V30 4526 C 433.174 -0.119409 1.94634 0
M  V30 4527 O 432.444 -1.05924 1.64794 0
M  V30 4528 H 431.024 0.478784 0.573389 0
M  V30 4529 H 433.686 1.70565 0.94306 0
M  V30 4530 H 432.782 1.92762 2.45457 0
M  V30 4531 N 433.083 -1.0153 1.20538 0
M  V30 4532 C 434.329 -1.75408 1.01783 0
M  V30 4533 C 434.662 -1.88943 -0.448814 0
M  V30 4534 O 433.937 -1.4162 -1.33319 0
M  V30 4535 C 434.22 -3.17255 1.70356 0
M  V30 4536 C 434.073 -3.11508 3.24473 0
M  V30 4537 C 435.392 -4.15955 1.43769 0
M  V30 4538 H 432.511 -0.636713 0.371167 0
M  V30 4539 H 435.153 -1.18436 1.4857 0
M  V30 4540 H 433.303 -3.65898 1.30578 0
M  V30 4541 H 434.975 -2.70658 3.73553 0
M  V30 4542 H 433.218 -2.4887 3.55311 0
M  V30 4543 H 433.889 -4.11784 3.67611 0
M  V30 4544 H 436.365 -3.75973 1.7828 0
M  V30 4545 H 435.241 -5.13368 1.94279 0
M  V30 4546 H 435.502 -4.40586 0.365564 0
M  V30 4547 N 434.561 -1.01147 -1.20859 0
M  V30 4548 C 435.807 -0.698899 -1.90377 0
M  V30 4549 C 436.14 0.76904 -1.78324 0
M  V30 4550 O 435.415 1.55817 -1.16409 0
M  V30 4551 C 435.698 -1.12878 -3.41951 0
M  V30 4552 C 435.551 -2.65665 -3.62963 0
M  V30 4553 C 436.87 -0.696114 -4.3456 0
M  V30 4554 H 433.989 -0.255372 -0.691342 0
M  V30 4555 H 436.631 -1.25831 -1.42361 0
M  V30 4556 H 434.781 -0.652827 -3.82976 0
M  V30 4557 H 436.453 -3.21074 -3.31224 0
M  V30 4558 H 434.696 -3.06878 -3.06608 0
M  V30 4559 H 435.367 -2.90797 -4.69192 0
M  V30 4560 H 437.843 -1.10521 -4.01154 0
M  V30 4561 H 436.719 -1.025 -5.39245 0
M  V30 4562 H 436.98 0.402465 -4.40264 0
M  V30 4563 N 436.039 1.36541 -0.78704 0
M  V30 4564 C 437.267 2.03561 -0.370199 0
M  V30 4565 C 437.682 1.59347 1.01263 0
M  V30 4566 O 437.039 0.781781 1.64907 0
M  V30 4567 C 437.09 3.59033 -0.421614 0
M  V30 4568 O 436.811 4.01634 -1.7499 0
M  V30 4569 C 438.312 4.433 0.00489763 0
M  V30 4570 H 435.532 0.653346 -0.152904 0
M  V30 4571 H 438.076 1.74566 -1.06522 0
M  V30 4572 H 436.231 3.86746 0.224971 0
M  V30 4573 H 436.645 4.96217 -1.69909 0
M  V30 4574 H 438.119 5.51939 -0.0822184 0
M  V30 4575 H 438.596 4.26285 1.05723 0
M  V30 4576 H 439.202 4.20843 -0.614085 0
M  V30 4577 N 437.518 0.538854 1.48102 0
M  V30 4578 C 438.481 -0.208395 2.28251 0
M  V30 4579 C 439.481 -0.859656 1.35892 0
M  V30 4580 O 440.671 -0.71834 1.58699 0
M  V30 4581 C 437.803 -1.30252 3.15035 0
M  V30 4582 H 438.996 0.495407 2.9578 0
M  V30 4583 H 436.549 0.295112 1.53489 0
M  V30 4584 H 437.284 -2.0393 2.52157 0
M  V30 4585 H 437.069 -0.840551 3.82985 0
M  V30 4586 H 438.559 -1.82787 3.75471 0
M  V30 4587 N 438.996 -1.55193 0.274407 0
M  V30 4588 C 440.245 -1.98758 -0.343213 0
M  V30 4589 C 440.558 -1.16624 -1.5703 0
M  V30 4590 O 441.764 -1.5033 -2.26082 0
M  V30 4591 C 440.22 -3.53759 -0.661996 0
M  V30 4592 C 439.828 -4.4467 0.54524 0
M  V30 4593 C 441.572 -4.05916 -1.24228 0
M  V30 4594 C 439.479 -5.91058 0.201084 0
M  V30 4595 H 438.409 -0.742353 -0.132014 0
M  V30 4596 H 441.06 -1.79545 0.378948 0
M  V30 4597 H 439.442 -3.68772 -1.44304 0
M  V30 4598 H 440.616 -4.41426 1.32212 0
M  V30 4599 H 438.931 -4.03143 1.04232 0
M  V30 4600 H 441.528 -5.12831 -1.51357 0
M  V30 4601 H 441.871 -3.54908 -2.17592 0
M  V30 4602 H 442.404 -3.9434 -0.523542 0
M  V30 4603 H 439.143 -6.46161 1.10258 0
M  V30 4604 H 438.663 -5.97373 -0.539045 0
M  V30 4605 H 440.342 -6.46669 -0.206954 0
M  V30 4606 N 440.474 -0.00167713 -1.576 0
M  V30 4607 C 441.885 0.54091 -1.78693 0
M  V30 4608 C 442.236 1.7386 -0.909247 0
M  V30 4609 O 441.361 2.16109 -0.112176 0
M  V30 4610 C 441.956 0.98806 -3.24072 0
M  V30 4611 C 440.515 1.47594 -3.46256 0
M  V30 4612 C 439.662 0.42792 -2.73978 0
M  V30 4613 H 442.613 -0.22784 -1.57056 0
M  V30 4614 H 442.634 1.85398 -3.32277 0
M  V30 4615 H 442.146 0.116164 -3.87926 0
M  V30 4616 H 440.247 2.36868 -2.87618 0
M  V30 4617 H 440.36 1.50225 -4.54939 0
M  V30 4618 H 438.724 0.889934 -2.38647 0
M  V30 4619 H 439.507 -0.435038 -3.40532 0
M  V30 4620 N 441.952 1.55251 0.271103 0
M  V30 4621 C 443.363 1.66635 0.842007 0
M  V30 4622 C 443.714 0.594631 1.86972 0
M  V30 4623 O 442.839 -0.263532 2.14789 0
M  V30 4624 C 443.434 3.02082 1.53401 0
M  V30 4625 C 441.993 3.15487 2.05293 0
M  V30 4626 C 441.14 2.62438 0.895631 0
M  V30 4627 H 444.091 1.58629 0.0474117 0
M  V30 4628 H 444.112 2.95176 2.40107 0
M  V30 4629 H 443.624 3.80062 0.785786 0
M  V30 4630 H 441.725 2.42284 2.83071 0
M  V30 4631 H 441.838 4.22075 2.26693 0
M  V30 4632 H 440.202 2.19644 1.28953 0
M  V30 4633 H 440.985 3.42923 0.160878 0
M  V30 4634 N 443.43 -0.535701 1.48216 0
M  V30 4635 C 444.679 -1.28828 1.55197 0
M  V30 4636 C 444.992 -1.94263 0.228278 0
M  V30 4637 O 446.198 -2.70927 0.176278 0
M  V30 4638 C 444.654 -2.33727 2.73678 0
M  V30 4639 C 444.262 -1.74386 4.12666 0
M  V30 4640 C 446.006 -3.1003 2.89968 0
M  V30 4641 C 443.913 -2.77192 5.22416 0
M  V30 4642 H 442.843 -0.484484 0.577747 0
M  V30 4643 H 445.494 -0.56646 1.74538 0
M  V30 4644 H 443.876 -3.08919 2.4776 0
M  V30 4645 H 445.05 -1.05421 4.48579 0
M  V30 4646 H 443.365 -1.10595 4.01445 0
M  V30 4647 H 445.962 -3.86842 3.6913 0
M  V30 4648 H 446.305 -3.65542 1.9921 0
M  V30 4649 H 446.838 -2.41952 3.15759 0
M  V30 4650 H 443.577 -2.26507 6.15122 0
M  V30 4651 H 443.097 -3.44502 4.90998 0
M  V30 4652 H 444.776 -3.40285 5.50286 0
M  V30 4653 N 444.908 -1.36708 -0.784132 0
M  V30 4654 C 445.818 -1.3363 -1.92822 0
M  V30 4655 C 446.834 -0.237686 -1.72369 0
M  V30 4656 O 448.01 -0.470962 -1.95816 0
M  V30 4657 C 445.075 -1.13011 -3.27764 0
M  V30 4658 C 444.136 -2.32397 -3.60957 0
M  V30 4659 C 443.369 -2.12752 -4.89461 0
M  V30 4660 O 443.592 -1.10541 -5.59586 0
M  V30 4661 O 442.526 -3.00653 -5.21432 0
M  V30 4662 H 446.352 -2.29964 -1.98369 0
M  V30 4663 H 443.937 -1.1731 -0.925136 0
M  V30 4664 H 445.819 -1.03451 -4.08504 0
M  V30 4665 H 444.494 -0.19743 -3.23097 0
M  V30 4666 H 443.401 -2.47527 -2.80502 0
M  V30 4667 H 444.734 -3.2419 -3.70354 0
M  V30 4668 N 446.386 1.0089 -1.21074 0
M  V30 4669 C 447.333 2.09588 -0.966512 0
M  V30 4670 C 448.303 1.65761 0.106089 0
M  V30 4671 O 449.488 1.90758 -0.0402287 0
M  V30 4672 C 446.628 3.40958 -0.533058 0
M  V30 4673 C 445.741 3.9822 -1.67467 0
M  V30 4674 C 444.876 5.17682 -1.19076 0
M  V30 4675 C 443.915 5.67043 -2.30496 0
M  V30 4676 N 443.052 6.77759 -1.83267 0
M  V30 4677 H 447.892 2.29815 -1.89708 0
M  V30 4678 H 445.429 1.12689 -0.945489 0
M  V30 4679 H 447.387 4.1637 -0.263019 0
M  V30 4680 H 446.017 3.20781 0.360505 0
M  V30 4681 H 445.069 3.1983 -2.05944 0
M  V30 4682 H 446.381 4.3085 -2.51336 0
M  V30 4683 H 445.535 6.00326 -0.877151 0
M  V30 4684 H 444.274 4.86635 -0.322066 0
M  V30 4685 H 443.279 4.82999 -2.62664 0
M  V30 4686 H 444.504 6.00121 -3.17855 0
M  V30 4687 H 442.45 6.48527 -0.987356 0
M  V30 4688 H 442.367 7.09624 -2.60711 0
M  V30 4689 H 443.635 7.63949 -1.54928 0
M  V30 4690 N 447.864 1.01787 1.20321 0
M  V30 4691 C 449.092 0.727194 1.937 0
M  V30 4692 C 449.507 -0.712305 1.74848 0
M  V30 4693 O 448.864 -1.48327 1.06327 0
M  V30 4694 C 448.915 1.05497 3.45764 0
M  V30 4695 O 448.636 2.43794 3.64 0
M  V30 4696 C 450.137 0.785534 4.36285 0
M  V30 4697 H 447.357 0.266939 0.615617 0
M  V30 4698 H 449.901 1.35939 1.52777 0
M  V30 4699 H 448.056 0.468158 3.84561 0
M  V30 4700 H 448.47 2.55656 4.57974 0
M  V30 4701 H 449.944 1.06495 5.4163 0
M  V30 4702 H 450.421 -0.280273 4.38305 0
M  V30 4703 H 451.027 1.35456 4.03152 0
M  V30 4704 N 449.342 -1.36122 0.79427 0
M  V30 4705 C 450.753 -1.81646 0.431446 0
M  V30 4706 C 451.104 -1.66043 -1.04518 0
M  V30 4707 O 450.229 -1.1841 -1.8113 0
M  V30 4708 C 450.824 -3.29785 0.776341 0
M  V30 4709 C 449.383 -3.73501 0.466282 0
M  V30 4710 C 448.53 -2.58313 1.00844 0
M  V30 4711 H 451.481 -1.24274 0.986995 0
M  V30 4712 H 451.502 -3.80437 0.0692413 0
M  V30 4713 H 451.014 -3.4111 1.8511 0
M  V30 4714 H 449.115 -3.67733 -0.600245 0
M  V30 4715 H 449.228 -4.68754 0.990288 0
M  V30 4716 H 447.592 -2.5102 0.431406 0
M  V30 4717 H 448.375 -2.72421 2.08906 0
M  V30 4718 N 450.82 -0.546701 -1.47814 0
M  V30 4719 C 452.069 -0.0166497 -2.01693 0
M  V30 4720 C 452.382 1.33721 -1.42752 0
M  V30 4721 O 453.588 1.95658 -1.8823 0
M  V30 4722 C 452.044 0.0206769 -3.59894 0
M  V30 4723 C 451.652 -1.3293 -4.27824 0
M  V30 4724 C 453.396 0.498674 -4.21561 0
M  V30 4725 C 451.303 -1.25165 -5.78003 0
M  V30 4726 H 450.233 -0.0024541 -0.753996 0
M  V30 4727 H 452.884 -0.692984 -1.69912 0
M  V30 4728 H 451.266 0.76244 -3.88591 0
M  V30 4729 H 452.44 -2.08795 -4.10781 0
M  V30 4730 H 450.755 -1.74438 -3.78101 0
M  V30 4731 H 453.352 0.575 -5.31599 0
M  V30 4732 H 453.695 1.5083 -3.88016 0
M  V30 4733 H 454.228 -0.18791 -3.97356 0
M  V30 4734 H 450.967 -2.23695 -6.1615 0
M  V30 4735 H 450.487 -0.53464 -5.97412 0
M  V30 4736 H 452.166 -0.949299 -6.39998 0
M  V30 4737 N 452.299 1.55045 -0.282633 0
M  V30 4738 C 453.71 1.85473 0.213655 0
M  V30 4739 C 454.061 1.20465 1.54863 0
M  V30 4740 O 453.186 0.495676 2.10647 0
M  V30 4741 C 453.781 3.36496 0.394445 0
M  V30 4742 C 452.34 3.67022 0.834961 0
M  V30 4743 C 451.487 2.77218 -0.0674081 0
M  V30 4744 H 454.438 1.50478 -0.504202 0
M  V30 4745 H 454.459 3.60007 1.23186 0
M  V30 4746 H 453.971 3.83782 -0.577326 0
M  V30 4747 H 452.072 3.25241 1.81794 0
M  V30 4748 H 452.185 4.74433 0.667075 0
M  V30 4749 H 450.549 2.5069 0.450196 0
M  V30 4750 H 451.332 3.2732 -1.0352 0
M  V30 4751 N 453.777 0.010035 1.57597 0
M  V30 4752 C 455.005 -0.683413 1.95287 0
M  V30 4753 C 455.42 -1.66747 0.885481 0
M  V30 4754 O 454.777 -1.82003 -0.134629 0
M  V30 4755 C 454.828 -1.40652 3.33015 0
M  V30 4756 O 454.549 -0.461916 4.35658 0
M  V30 4757 C 456.05 -2.19356 3.85225 0
M  V30 4758 H 453.27 -0.189708 0.643624 0
M  V30 4759 H 455.814 0.0641359 2.04399 0
M  V30 4760 H 453.969 -2.10562 3.2518 0
M  V30 4761 H 454.383 -0.973215 5.15392 0
M  V30 4762 H 455.857 -2.65433 4.83993 0
M  V30 4763 H 456.334 -3.02457 3.18459 0
M  V30 4764 H 456.94 -1.54442 3.96267 0
M  V30 4765 N 455.255 -1.55392 -0.262866 0
M  V30 4766 C 456.503 -1.76127 -0.991147 0
M  V30 4767 C 456.824 -0.571083 -1.8645 0
M  V30 4768 O 456.094 0.413698 -1.91482 0
M  V30 4769 H 454.674 -0.649528 -0.368948 0
M  V30 4770 H 457.336 -1.9281 -0.284655 0
M  V30 4771 H 456.432 -2.6663 -1.62219 0
M  V30 4772 N 456.733 0.527833 -1.48498 0
M  V30 4773 C 457.979 1.28545 -1.56857 0
M  V30 4774 C 458.312 1.92678 -0.242651 0
M  V30 4775 O 457.587 1.79394 0.751545 0
M  V30 4776 C 457.87 2.37314 -2.70839 0
M  V30 4777 C 457.723 1.77858 -4.13142 0
M  V30 4778 C 459.042 3.39068 -2.80573 0
M  V30 4779 H 456.161 0.466006 -0.570971 0
M  V30 4780 H 458.803 0.587784 -1.8068 0
M  V30 4781 H 456.953 2.96821 -2.50658 0
M  V30 4782 H 458.625 1.22385 -4.44769 0
M  V30 4783 H 456.868 1.08383 -4.20042 0
M  V30 4784 H 457.539 2.56624 -4.88721 0
M  V30 4785 H 460.015 2.89518 -2.98862 0
M  V30 4786 H 458.891 4.12566 -3.6205 0
M  V30 4787 H 459.152 3.9975 -1.88818 0
M  V30 4788 N 458.211 1.37122 0.776871 0
M  V30 4789 C 459.622 1.28667 1.35284 0
M  V30 4790 C 459.973 -0.0680035 1.96082 0
M  V30 4791 O 459.098 -0.969743 1.93455 0
M  V30 4792 C 459.693 2.32997 2.45963 0
M  V30 4793 C 458.252 2.28191 2.99342 0
M  V30 4794 C 457.399 2.17101 1.72517 0
M  V30 4795 H 460.35 1.47819 0.577527 0
M  V30 4796 H 460.371 1.97366 3.2531 0
M  V30 4797 H 459.883 3.3158 2.01684 0
M  V30 4798 H 457.984 1.33115 3.4801 0
M  V30 4799 H 458.097 3.21397 3.55304 0
M  V30 4800 H 456.461 1.63562 1.95242 0
M  V30 4801 H 457.244 3.17591 1.30348 0
M  V30 4802 N 459.689 -1.00246 1.21608 0
M  V30 4803 C 460.636 -2.09073 0.977613 0
M  V30 4804 C 461.606 -1.65815 -0.097297 0
M  V30 4805 O 462.791 -1.90734 0.0503445 0
M  V30 4806 C 459.931 -3.40671 0.551133 0
M  V30 4807 C 459.044 -3.97326 1.69576 0
M  V30 4808 C 458.179 -5.17043 1.2182 0
M  V30 4809 C 457.218 -5.65813 2.335 0
M  V30 4810 N 456.355 -6.76778 1.86859 0
M  V30 4811 H 461.195 -2.28806 1.90924 0
M  V30 4812 H 458.732 -1.12186 0.951452 0
M  V30 4813 H 460.69 -4.16225 0.285097 0
M  V30 4814 H 459.32 -3.20967 -0.343489 0
M  V30 4815 H 458.372 -3.18734 2.07637 0
M  V30 4816 H 459.684 -4.29511 2.53617 0
M  V30 4817 H 458.838 -5.99852 0.908975 0
M  V30 4818 H 457.577 -4.86458 0.347869 0
M  V30 4819 H 456.582 -4.81599 2.65222 0
M  V30 4820 H 457.807 -5.98427 3.21033 0
M  V30 4821 H 455.753 -6.47994 1.02174 0
M  V30 4822 H 455.67 -7.08231 2.64471 0
M  V30 4823 H 456.938 -7.63116 1.58978 0
M  V30 4824 N 461.167 -1.02423 -1.1978 0
M  V30 4825 C 462.395 -0.737456 -1.93311 0
M  V30 4826 C 462.81 0.703023 -1.75223 0
M  V30 4827 O 462.167 1.47761 -1.07112 0
M  V30 4828 C 462.218 -1.0733 -3.45199 0
M  V30 4829 O 461.939 -2.4572 -3.62702 0
M  V30 4830 C 463.44 -0.80866 -4.35862 0
M  V30 4831 H 460.66 -0.2702 -0.614193 0
M  V30 4832 H 463.204 -1.36747 -1.52054 0
M  V30 4833 H 461.359 -0.488545 -3.84307 0
M  V30 4834 H 461.773 -2.58081 -4.56612 0
M  V30 4835 H 463.247 -1.09365 -5.41057 0
M  V30 4836 H 463.724 0.257025 -4.38447 0
M  V30 4837 H 464.33 -1.37592 -4.02428 0
M  V30 4838 N 462.645 1.35699 -0.801477 0
M  V30 4839 C 463.893 1.9852 -0.37871 0
M  V30 4840 C 464.214 1.63907 1.05638 0
M  V30 4841 O 463.484 0.919013 1.73006 0
M  V30 4842 H 462.064 0.734322 -0.137042 0
M  V30 4843 H 464.726 1.65697 -1.02619 0
M  V30 4844 H 463.822 3.08382 -0.480284 0
M  V30 4845 N 464.123 0.554532 1.47522 0
M  V30 4846 C 465.056 -0.242442 2.26908 0
M  V30 4847 C 466.034 -0.922722 1.33883 0
M  V30 4848 O 467.218 -0.942244 1.63261 0
M  V30 4849 C 464.345 -1.34525 3.10839 0
M  V30 4850 C 463.391 -0.773805 4.19422 0
M  V30 4851 S 464.224 0.377525 5.34168 0
M  V30 4852 C 465.38 -0.727164 6.21662 0
M  V30 4853 H 465.613 0.431218 2.94156 0
M  V30 4854 H 463.146 0.3408 1.50592 0
M  V30 4855 H 465.104 -1.97683 3.59766 0
M  V30 4856 H 463.765 -1.99073 2.42958 0
M  V30 4857 H 462.958 -1.60187 4.77866 0
M  V30 4858 H 462.56 -0.218448 3.73361 0
M  V30 4859 H 464.852 -1.61992 6.57849 0
M  V30 4860 H 465.795 -0.180135 7.07871 0
M  V30 4861 H 466.203 -1.01863 5.55233 0
M  V30 4862 N 465.601 -1.54893 0.290851 0
M  V30 4863 C 466.534 -2.19289 -0.631489 0
M  V30 4864 C 467.512 -1.15893 -1.14051 0
M  V30 4865 O 468.696 -1.4449 -1.21058 0
M  V30 4866 C 465.823 -2.82866 -1.86291 0
M  V30 4867 C 464.869 -3.997 -1.48801 0
M  V30 4868 S 465.702 -5.32641 -0.552644 0
M  V30 4869 C 466.858 -5.99696 -1.79209 0
M  V30 4870 H 467.091 -2.9718 -0.0843791 0
M  V30 4871 H 464.624 -1.54218 0.075031 0
M  V30 4872 H 466.582 -3.20124 -2.56964 0
M  V30 4873 H 465.243 -2.04839 -2.38117 0
M  V30 4874 H 464.436 -4.42932 -2.40473 0
M  V30 4875 H 464.038 -3.63947 -0.861321 0
M  V30 4876 H 466.33 -6.19886 -2.734 0
M  V30 4877 H 467.273 -6.94071 -1.40251 0
M  V30 4878 H 467.681 -5.29226 -1.96419 0
M  V30 4879 N 467.08 -0.0183926 -1.57589 0
M  V30 4880 C 468.329 0.66185 -1.90532 0
M  V30 4881 C 468.642 1.73904 -0.895366 0
M  V30 4882 O 469.848 2.47518 -1.11566 0
M  V30 4883 C 468.304 1.22844 -3.38286 0
M  V30 4884 C 467.912 0.185103 -4.47617 0
M  V30 4885 C 469.656 1.88581 -3.80312 0
M  V30 4886 C 467.563 0.762723 -5.86461 0
M  V30 4887 H 466.493 0.250972 -0.711006 0
M  V30 4888 H 469.144 -0.0819435 -1.83317 0
M  V30 4889 H 467.526 2.0235 -3.40398 0
M  V30 4890 H 468.7 -0.58671 -4.5705 0
M  V30 4891 H 467.015 -0.372889 -4.14727 0
M  V30 4892 H 469.612 2.32735 -4.81392 0
M  V30 4893 H 469.955 2.72408 -3.14801 0
M  V30 4894 H 470.488 1.15782 -3.80578 0
M  V30 4895 H 467.227 -0.0371713 -6.55489 0
M  V30 4896 H 466.747 1.50327 -5.80656 0
M  V30 4897 H 468.426 1.25576 -6.34697 0
M  V30 4898 N 468.558 1.5553 0.254621 0
M  V30 4899 C 469.468 1.92789 1.33677 0
M  V30 4900 C 470.484 0.827356 1.53071 0
M  V30 4901 O 471.66 1.12807 1.66843 0
M  V30 4902 C 468.725 2.20827 2.67275 0
M  V30 4903 C 467.786 3.4427 2.5647 0
M  V30 4904 C 467.019 3.70961 3.83697 0
M  V30 4905 O 467.242 2.99852 4.85227 0
M  V30 4906 O 466.176 4.64491 3.82794 0
M  V30 4907 H 470.002 2.84945 1.05071 0
M  V30 4908 H 467.587 1.42312 0.454723 0
M  V30 4909 H 469.469 2.40204 3.46237 0
M  V30 4910 H 468.144 1.31851 2.9563 0
M  V30 4911 H 467.051 3.30209 1.75821 0
M  V30 4912 H 468.384 4.33524 2.33062 0
M  V30 4913 N 470.036 -0.519951 1.48776 0
M  V30 4914 C 470.968 -1.63973 1.60142 0
M  V30 4915 C 471.981 -1.55404 0.485117 0
M  V30 4916 O 473.17 -1.61682 0.756391 0
M  V30 4917 C 470.27 -3.02676 1.52449 0
M  V30 4918 C 469.443 -3.36624 2.79291 0
M  V30 4919 C 468.502 -4.54652 2.64912 0
M  V30 4920 O 467.528 -4.57374 3.38818 0
M  V30 4921 N 468.73 -5.53432 1.75195 0
M  V30 4922 H 471.495 -1.54656 2.56713 0
M  V30 4923 H 469.056 -0.707439 1.45626 0
M  V30 4924 H 471.048 -3.79525 1.4051 0
M  V30 4925 H 469.618 -3.06018 0.638125 0
M  V30 4926 H 468.838 -2.48855 3.0572 0
M  V30 4927 H 470.126 -3.56094 3.6342 0
M  V30 4928 H 469.524 -5.54018 1.14371 0
M  V30 4929 H 468.081 -6.29459 1.69189 0
M  V30 4930 N 471.514 -1.37532 -0.769588 0
M  V30 4931 C 472.447 -1.27839 -1.8903 0
M  V30 4932 C 473.425 -0.158504 -1.61826 0
M  V30 4933 O 474.609 -0.333086 -1.85534 0
M  V30 4934 C 471.736 -0.977072 -3.24301 0
M  V30 4935 C 470.782 -2.11414 -3.70414 0
M  V30 4936 S 471.615 -3.73409 -3.83831 0
M  V30 4937 C 472.771 -3.45432 -5.21946 0
M  V30 4938 H 473.004 -2.22694 -1.96963 0
M  V30 4939 H 470.537 -1.2318 -0.930914 0
M  V30 4940 H 472.495 -0.810049 -4.02428 0
M  V30 4941 H 471.156 -0.0459701 -3.14066 0
M  V30 4942 H 470.349 -1.85837 -4.68488 0
M  V30 4943 H 469.951 -2.24141 -2.99394 0
M  V30 4944 H 472.243 -3.00554 -6.07185 0
M  V30 4945 H 473.186 -4.42841 -5.52537 0
M  V30 4946 H 473.594 -2.80311 -4.89986 0
M  V30 4947 N 472.992 0.995999 -1.22138 0
M  V30 4948 C 473.955 2.06711 -0.990109 0
M  V30 4949 C 474.955 1.60744 0.0422978 0
M  V30 4950 O 476.145 1.73095 -0.195895 0
M  V30 4951 C 473.277 3.37288 -0.49491 0
M  V30 4952 H 474.47 2.28661 -1.94047 0
M  V30 4953 H 472.023 1.16711 -1.03963 0
M  V30 4954 H 472.758 3.21022 0.459948 0
M  V30 4955 H 472.543 3.71986 -1.23971 0
M  V30 4956 H 474.033 4.16103 -0.353253 0
M  V30 4957 N 474.47 1.03057 1.19235 0
M  V30 4958 C 475.403 0.557384 2.21288 0
M  V30 4959 C 476.381 -0.402675 1.57535 0
M  V30 4960 O 477.565 -0.319376 1.85775 0
M  V30 4961 C 474.692 -0.187041 3.38183 0
M  V30 4962 C 473.738 0.72471 4.20298 0
M  V30 4963 S 474.571 2.20187 4.88137 0
M  V30 4964 C 475.727 1.46801 6.08441 0
M  V30 4965 H 475.96 1.42207 2.61083 0
M  V30 4966 H 473.493 0.840651 1.29508 0
M  V30 4967 H 475.451 -0.610405 4.05936 0
M  V30 4968 H 474.112 -1.02748 2.96819 0
M  V30 4969 H 473.305 0.149911 5.03777 0
M  V30 4970 H 472.907 1.08647 3.57871 0
M  V30 4971 H 475.199 0.755522 6.73274 0
M  V30 4972 H 476.142 2.27946 6.70407 0
M  V30 4973 H 476.55 0.964762 5.56195 0
M  V30 4974 N 475.948 -1.35272 0.808662 0
M  V30 4975 C 476.911 -2.28082 0.226093 0
M  V30 4976 C 477.911 -1.49673 -0.587762 0
M  V30 4977 O 479.101 -1.69404 -0.405943 0
M  V30 4978 C 476.233 -3.33955 -0.684596 0
M  V30 4979 H 477.426 -2.81116 1.04469 0
M  V30 4980 H 474.979 -1.45162 0.579466 0
M  V30 4981 H 475.714 -2.86111 -1.5268 0
M  V30 4982 H 475.499 -3.91965 -0.102699 0
M  V30 4983 H 476.989 -4.03219 -1.08646 0
M  V30 4984 N 477.426 -0.562348 -1.47226 0
M  V30 4985 C 478.672 -0.0402761 -2.0276 0
M  V30 4986 C 479.005 1.30823 -1.43523 0
M  V30 4987 O 478.28 1.85249 -0.592705 0
M  V30 4988 C 478.563 0.047311 -3.60069 0
M  V30 4989 C 478.416 -1.32865 -4.29729 0
M  V30 4990 C 479.735 0.758182 -4.3352 0
M  V30 4991 H 476.854 -0.0161105 -0.736824 0
M  V30 4992 H 479.496 -0.725628 -1.75598 0
M  V30 4993 H 477.646 0.630986 -3.83342 0
M  V30 4994 H 479.318 -1.95593 -4.17781 0
M  V30 4995 H 477.561 -1.90195 -3.89882 0
M  V30 4996 H 478.232 -1.22004 -5.38349 0
M  V30 4997 H 480.708 0.262546 -4.15271 0
M  V30 4998 H 479.584 0.78844 -5.43208 0
M  V30 4999 H 479.845 1.81537 -4.03109 0
M  V30 5000 N 478.904 1.54736 -0.299062 0
M  V30 5001 C 479.867 2.22127 0.565012 0
M  V30 5002 C 480.867 1.20669 1.06281 0
M  V30 5003 O 482.057 1.45417 0.959145 0
M  V30 5004 C 479.189 2.90611 1.78208 0
M  V30 5005 H 480.382 2.99891 -0.0237448 0
M  V30 5006 H 477.935 1.5622 -0.0498788 0
M  V30 5007 H 478.67 2.16921 2.41072 0
M  V30 5008 H 478.455 3.64984 1.43281 0
M  V30 5009 H 479.945 3.42026 2.396 0
M  V30 5010 N 480.382 0.0267497 1.57577 0
M  V30 5011 C 481.332 -0.965003 2.06571 0
M  V30 5012 C 482.316 -1.28694 0.965746 0
M  V30 5013 O 483.508 -1.27345 1.22932 0
M  V30 5014 C 480.637 -2.24821 2.59443 0
M  V30 5015 C 479.723 -1.95474 3.76365 0
M  V30 5016 N 480.114 -1.36387 4.87065 0
M  V30 5017 C 478.412 -2.25478 3.84806 0
M  V30 5018 C 479.113 -1.24119 5.68304 0
M  V30 5019 N 478.089 -1.7359 5.15138 0
M  V30 5020 H 481.891 -0.503095 2.89562 0
M  V30 5021 H 479.405 -0.178322 1.61418 0
M  V30 5022 H 481.402 -2.9674 2.92833 0
M  V30 5023 H 480.062 -2.7164 1.77881 0
M  V30 5024 H 481.073 -1.03919 5.07367 0
M  V30 5025 H 477.75 -2.74987 3.14147 0
M  V30 5026 H 479.14 -0.784504 6.67304 0
M  V30 5027 N 481.861 -1.55662 -0.24637 0
M  V30 5028 C 482.809 -1.91186 -1.3248 0
M  V30 5029 C 483.803 -0.790996 -1.49799 0
M  V30 5030 O 485.009 -0.975617 -1.51267 0
M  V30 5031 H 481.384 -0.607207 -0.443626 0
M  V30 5032 H 483.355 -2.81221 -0.997853 0
M  V30 5033 C 482.104 -2.22349 -2.67313 0
M  V30 5034 H 481.427 -3.08097 -2.54786 0
M  V30 5035 H 482.867 -2.51107 -3.41645 0
M  V30 5036 C 481.326 -1.04001 -3.20446 0
M  V30 5037 O 481.856 -0.28828 -4.00664 0
M  V30 5038 N 480.062 -0.830494 -2.7848 0
M  V30 5039 H 479.609 -1.4435 -2.13356 0
M  V30 5040 H 479.567 -0.0403258 -3.14374 0
M  V30 5041 N 483.339 0.512053 -1.4905 0
M  V30 5042 C 484.588 1.26343 -1.57227 0
M  V30 5043 C 484.901 1.93876 -0.259155 0
M  V30 5044 O 486.107 2.70612 -0.219358 0
M  V30 5045 C 484.563 2.29343 -2.77362 0
M  V30 5046 C 484.171 1.67799 -4.15388 0
M  V30 5047 C 485.915 3.05378 -2.94864 0
M  V30 5048 C 483.822 2.68845 -5.2676 0
M  V30 5049 H 482.752 0.475231 -0.585382 0
M  V30 5050 H 485.403 0.53862 -1.75417 0
M  V30 5051 H 483.785 3.04938 -2.52643 0
M  V30 5052 H 484.959 0.982715 -4.50199 0
M  V30 5053 H 483.274 1.04194 -4.03153 0
M  V30 5054 H 485.871 3.80921 -3.75238 0
M  V30 5055 H 486.214 3.62327 -2.05 0
M  V30 5056 H 486.747 2.36898 -3.19569 0
M  V30 5057 H 483.486 2.16692 -6.18647 0
M  V30 5058 H 483.006 3.36647 -4.96416 0
M  V30 5059 H 484.685 3.31487 -5.5563 0
M  V30 5060 N 484.817 1.37938 0.762283 0
M  V30 5061 C 486.063 1.33866 1.52341 0
M  V30 5062 C 486.396 -0.0738961 1.94059 0
M  V30 5063 O 485.671 -1.03326 1.64785 0
M  V30 5064 C 485.954 2.28644 2.78197 0
M  V30 5065 C 485.807 3.78722 2.42672 0
M  V30 5066 C 487.126 2.21702 3.80179 0
M  V30 5067 H 484.245 0.487593 0.55265 0
M  V30 5068 H 486.887 1.68717 0.873767 0
M  V30 5069 H 485.037 1.99055 3.33631 0
M  V30 5070 H 486.709 4.18948 1.93081 0
M  V30 5071 H 484.952 3.96827 1.75244 0
M  V30 5072 H 485.623 4.40486 3.3268 0
M  V30 5073 H 488.099 2.47805 3.34263 0
M  V30 5074 H 486.975 2.90143 4.65949 0
M  V30 5075 H 487.236 1.21301 4.25133 0
M  V30 5076 N 486.295 -0.989507 1.22664 0
M  V30 5077 C 487.243 -2.10148 0.997035 0
M  V30 5078 C 488.237 -1.6929 -0.0609783 0
M  V30 5079 O 489.443 -1.79766 0.0917523 0
M  V30 5080 H 485.818 -0.687256 0.305259 0
M  V30 5081 H 487.789 -2.26685 1.94053 0
M  V30 5082 C 486.538 -3.4257 0.595085 0
M  V30 5083 H 485.861 -3.74453 1.40089 0
M  V30 5084 H 487.301 -4.21344 0.473869 0
M  V30 5085 C 485.76 -3.29638 -0.695725 0
M  V30 5086 O 486.29 -3.61709 -1.74727 0
M  V30 5087 N 484.496 -2.82814 -0.668173 0
M  V30 5088 H 484.043 -2.56914 0.18787 0
M  V30 5089 H 484.001 -2.74544 -1.5321 0
M  V30 5090 N 487.773 -1.03688 -1.18687 0
M  V30 5091 C 489.05 -0.652397 -1.84399 0
M  V30 5092 C 489.43 0.868386 -1.92412 0
M  V30 5093 O 488.778 1.76832 -1.44716 0
M  V30 5094 C 488.988 -1.3238 -3.22919 0
M  V30 5095 C 490.336 -1.45216 -3.98996 0
M  V30 5096 O 491.36 -1.2816 -3.32345 0
M  V30 5097 O 490.219 -1.72975 -5.18403 0
M  V30 5098 H 487.313 -0.227793 -0.795009 0
M  V30 5099 H 489.859 -1.13553 -1.2611 0
M  V30 5100 H 488.631 -2.36202 -3.11968 0
M  V30 5101 H 488.254 -0.829039 -3.88861 0
M  V30 5102 N 489.251 1.34841 -0.815825 0
M  V30 5103 C 490.5 1.97755 -0.396976 0
M  V30 5104 C 490.813 1.65422 1.04379 0
M  V30 5105 O 492.019 2.21771 1.5662 0
M  V30 5106 C 490.475 3.53818 -0.658869 0
M  V30 5107 C 490.083 3.95051 -2.11278 0
M  V30 5108 C 491.827 4.23397 -0.305834 0
M  V30 5109 C 489.734 5.43997 -2.31994 0
M  V30 5110 H 488.664 0.739985 -0.1447 0
M  V30 5111 H 491.315 1.53781 -1.00118 0
M  V30 5112 H 489.697 3.95997 0.0154112 0
M  V30 5113 H 490.871 3.63998 -2.82564 0
M  V30 5114 H 489.186 3.38388 -2.42657 0
M  V30 5115 H 491.783 5.32899 -0.43854 0
M  V30 5116 H 492.126 4.09508 0.748952 0
M  V30 5117 H 492.659 3.8667 -0.934403 0
M  V30 5118 H 489.398 5.62865 -3.35952 0
M  V30 5119 H 488.918 5.76589 -1.65244 0
M  V30 5120 H 490.597 6.10584 -2.14001 0
M  V30 5121 N 490.729 0.570148 1.46925 0
M  V30 5122 C 492.145 0.23087 1.57921 0
M  V30 5123 C 492.345 -1.26676 1.56702 0
M  V30 5124 O 491.401 -2.04774 1.47729 0
M  V30 5125 C 492.714 0.868973 2.8787 0
M  V30 5126 C 494.262 0.841397 3.01479 0
M  V30 5127 C 494.737 1.45881 4.34146 0
M  V30 5128 N 496.228 1.42258 4.40814 0
M  V30 5129 C 496.963 1.8698 5.42057 0
M  V30 5130 N 496.459 2.39618 6.50042 0
M  V30 5131 N 498.252 1.77972 5.33181 0
M  V30 5132 H 490.403 1.54301 1.45962 0
M  V30 5133 H 492.666 0.644224 0.69547 0
M  V30 5134 H 492.372 1.922 2.94537 0
M  V30 5135 H 492.246 0.369682 3.75384 0
M  V30 5136 H 494.633 -0.202973 2.94401 0
M  V30 5137 H 494.714 1.37858 2.15474 0
M  V30 5138 H 494.358 2.50231 4.4198 0
M  V30 5139 H 494.288 0.896958 5.18905 0
M  V30 5140 H 496.779 1.03768 3.63374 0
M  V30 5141 H 497.092 2.71633 7.23488 0
M  V30 5142 H 495.437 2.43636 6.50897 0
M  V30 5143 H 498.628 1.36617 4.4772 0
M  V30 5144 H 498.801 2.13143 6.11943 0
M  V30 5145 N 492.207 -1.54576 0.307264 0
M  V30 5146 C 493.155 -2.25208 -0.581723 0
M  V30 5147 C 494.149 -1.26031 -1.13192 0
M  V30 5148 O 495.355 -1.43862 -1.08184 0
M  V30 5149 H 491.73 -0.723173 -0.206214 0
M  V30 5150 H 493.701 -2.98378 0.0364663 0
M  V30 5151 C 492.45 -3.01086 -1.73904 0
M  V30 5152 H 491.773 -3.77208 -1.32491 0
M  V30 5153 H 493.213 -3.5378 -2.33701 0
M  V30 5154 C 491.672 -2.08422 -2.64692 0
M  V30 5155 O 492.202 -1.65636 -3.65961 0
M  V30 5156 N 490.408 -1.74247 -2.32564 0
M  V30 5157 H 489.955 -2.09238 -1.50257 0
M  V30 5158 H 489.913 -1.12524 -2.93574 0
M  V30 5159 N 493.685 -0.035106 -1.57561 0
M  V30 5160 C 494.633 0.962707 -2.11742 0
M  V30 5161 C 495.627 1.33296 -1.0454 0
M  V30 5162 O 496.833 1.31449 -1.22968 0
M  V30 5163 H 493.208 0.32826 -0.676572 0
M  V30 5164 H 495.179 0.48048 -2.94506 0
M  V30 5165 C 493.928 2.23388 -2.66445 0
M  V30 5166 H 493.251 1.95774 -3.48587 0
M  V30 5167 H 494.691 2.91402 -3.07995 0
M  V30 5168 C 493.15 2.96769 -1.59467 0
M  V30 5169 O 493.68 3.89105 -0.998 0
M  V30 5170 N 491.886 2.59212 -1.31369 0
M  V30 5171 H 491.433 1.84202 -1.80076 0
M  V30 5172 H 491.391 3.08618 -0.600173 0
M  V30 5173 N 495.163 1.55791 0.238111 0
M  V30 5174 C 496.574 1.68383 0.806472 0
M  V30 5175 C 496.925 0.634157 1.85669 0
M  V30 5176 O 496.05 -0.217913 2.153 0
M  V30 5177 C 496.645 3.05268 1.46959 0
M  V30 5178 C 495.204 3.1977 1.98555 0
M  V30 5179 C 494.351 2.64279 0.839763 0
M  V30 5180 H 497.302 1.58694 0.0137535 0
M  V30 5181 H 497.323 3.00203 2.33792 0
M  V30 5182 H 496.835 3.81643 0.704993 0
M  V30 5183 H 494.936 2.48234 2.77868 0
M  V30 5184 H 495.049 4.26788 2.17689 0
M  V30 5185 H 493.413 2.22329 1.24265 0
M  V30 5186 H 494.196 3.43187 0.0881032 0
M  V30 5187 N 496.642 -0.504142 1.49319 0
M  V30 5188 C 497.919 -1.26548 1.49147 0
M  V30 5189 C 498.299 -2.09977 0.21744 0
M  V30 5190 O 497.647 -2.14028 -0.800269 0
M  V30 5191 C 497.857 -2.12489 2.76857 0
M  V30 5192 C 499.205 -2.7178 3.26222 0
M  V30 5193 O 500.229 -2.22758 2.77952 0
M  V30 5194 O 499.088 -3.61015 4.10281 0
M  V30 5195 H 496.182 -0.572495 0.596806 0
M  V30 5196 H 498.728 -0.51867 1.61579 0
M  V30 5197 H 497.5 -1.50796 3.61077 0
M  V30 5198 H 497.123 -2.94368 2.6727 0
M  V30 5199 N 498.12 -1.38341 -0.754957 0
M  V30 5200 C 499.067 -1.3546 -1.86867 0
M  V30 5201 C 500.037 -0.217369 -1.64672 0
M  V30 5202 O 501.222 -0.409383 -1.86356 0
M  V30 5203 C 498.362 -1.18413 -3.24149 0
M  V30 5204 C 497.475 -2.41511 -3.58185 0
M  V30 5205 C 496.61 -2.17205 -4.84763 0
M  V30 5206 C 495.649 -3.36081 -5.11582 0
M  V30 5207 N 494.786 -3.11219 -6.29354 0
M  V30 5208 H 499.626 -2.30672 -1.88664 0
M  V30 5209 H 497.163 -1.14607 -0.922154 0
M  V30 5210 H 499.121 -1.06545 -4.03366 0
M  V30 5211 H 497.751 -0.268397 -3.21682 0
M  V30 5212 H 496.803 -2.64056 -2.73822 0
M  V30 5213 H 498.115 -3.30115 -3.73932 0
M  V30 5214 H 497.269 -2.02465 -5.7192 0
M  V30 5215 H 496.008 -1.25964 -4.71152 0
M  V30 5216 H 495.013 -3.51341 -4.22894 0
M  V30 5217 H 496.238 -4.28196 -5.27091 0
M  V30 5218 H 494.184 -2.22624 -6.17069 0
M  V30 5219 H 494.101 -3.93373 -6.45596 0
M  V30 5220 H 495.369 -3.00132 -7.19403 0
M  V30 5221 N 499.598 0.982988 -1.23187 0
M  V30 5222 C 500.828 1.75666 -1.08743 0
M  V30 5223 C 501.236 1.85662 0.364195 0
M  V30 5224 O 500.579 1.33317 1.26382 0
M  V30 5225 C 500.641 3.20144 -1.63549 0
M  V30 5226 C 500.305 3.33665 -3.12277 0
M  V30 5227 C 501.302 3.20194 -4.096 0
M  V30 5228 C 498.987 3.58397 -3.51933 0
M  V30 5229 C 500.981 3.31256 -5.44563 0
M  V30 5230 C 498.668 3.69098 -4.87042 0
M  V30 5231 C 499.666 3.55537 -5.83166 0
M  V30 5232 O 499.354 3.65864 -7.1582 0
M  V30 5233 H 499.086 0.558194 -0.381307 0
M  V30 5234 H 501.64 1.24387 -1.63454 0
M  V30 5235 H 499.87 3.72659 -1.03256 0
M  V30 5236 H 501.559 3.79262 -1.4462 0
M  V30 5237 H 502.325 3.00987 -3.80305 0
M  V30 5238 H 498.204 3.68025 -2.77631 0
M  V30 5239 H 501.748 3.20588 -6.19572 0
M  V30 5240 H 497.645 3.87814 -5.16014 0
M  V30 5241 H 498.413 3.82675 -7.23534 0
M  V30 5242 N 501.076 1.04316 1.18135 0
M  V30 5243 C 502.039 0.640794 2.2006 0
M  V30 5244 C 503.039 -0.303124 1.57917 0
M  V30 5245 O 504.229 -0.0881855 1.73977 0
M  V30 5246 C 501.361 -0.060148 3.40847 0
M  V30 5247 H 502.554 1.54281 2.57172 0
M  V30 5248 H 500.107 0.836004 1.32063 0
M  V30 5249 H 500.842 -0.975845 3.0927 0
M  V30 5250 H 500.627 0.618319 3.87194 0
M  V30 5251 H 502.117 -0.328082 4.16309 0
M  V30 5252 N 502.554 -1.34406 0.822964 0
M  V30 5253 C 503.965 -1.8069 0.469879 0
M  V30 5254 C 504.316 -1.68223 -1.00972 0
M  V30 5255 O 503.441 -1.22226 -1.78577 0
M  V30 5256 C 504.036 -3.28064 0.846118 0
M  V30 5257 C 502.595 -3.72428 0.545402 0
M  V30 5258 C 501.742 -2.56116 1.06301 0
M  V30 5259 H 504.693 -1.22153 1.01313 0
M  V30 5260 H 504.714 -3.80205 0.149922 0
M  V30 5261 H 504.226 -3.37107 1.92304 0
M  V30 5262 H 502.327 -3.68924 -0.522109 0
M  V30 5263 H 502.44 -4.66548 1.0895 0
M  V30 5264 H 500.804 -2.50048 0.484554 0
M  V30 5265 H 501.587 -2.67928 2.14638 0
M  V30 5266 N 504.032 -0.577932 -1.46621 0
M  V30 5267 C 505.448 -0.239242 -1.57797 0
M  V30 5268 C 505.648 1.25843 -1.57371 0
M  V30 5269 O 504.704 2.03988 -1.48813 0
M  V30 5270 C 506.017 -0.884227 -2.87405 0
M  V30 5271 C 507.565 -0.857373 -3.01028 0
M  V30 5272 C 508.04 -1.48181 -4.33366 0
M  V30 5273 N 509.531 -1.44593 -4.40053 0
M  V30 5274 C 510.266 -1.89852 -5.41058 0
M  V30 5275 N 509.762 -2.43062 -6.48762 0
M  V30 5276 N 511.555 -1.80797 -5.3223 0
M  V30 5277 H 503.706 -1.55073 -1.45142 0
M  V30 5278 H 505.969 -0.647903 -0.692044 0
M  V30 5279 H 505.675 -1.93759 -2.93514 0
M  V30 5280 H 505.549 -0.389585 -3.75183 0
M  V30 5281 H 507.936 0.187357 -2.94505 0
M  V30 5282 H 508.017 -1.38999 -2.14739 0
M  V30 5283 H 507.661 -2.52572 -4.40647 0
M  V30 5284 H 507.591 -0.924464 -5.18422 0
M  V30 5285 H 510.082 -1.05694 -3.62819 0
M  V30 5286 H 510.395 -2.75466 -7.22038 0
M  V30 5287 H 508.74 -2.47085 -6.49595 0
M  V30 5288 H 511.931 -1.38989 -4.46989 0
M  V30 5289 H 512.104 -2.16385 -6.10804 0
M  V30 5290 N 505.51 1.54411 -0.315457 0
M  V30 5291 C 506.44 2.27002 0.547039 0
M  V30 5292 C 507.421 1.27492 1.12605 0
M  V30 5293 O 508.606 1.5629 1.15269 0
M  V30 5294 C 505.736 3.02171 1.71201 0
M  V30 5295 C 504.69 4.0895 1.26268 0
M  V30 5296 C 504.016 4.71915 2.51396 0
M  V30 5297 C 505.316 5.20891 0.383419 0
M  V30 5298 H 507.01 2.99343 -0.0584517 0
M  V30 5299 H 504.556 1.4397 -0.0295527 0
M  V30 5300 H 506.509 3.51681 2.32161 0
M  V30 5301 H 505.233 2.27433 2.34397 0
M  V30 5302 H 503.892 3.60312 0.676062 0
M  V30 5303 H 503.54 3.93801 3.12937 0
M  V30 5304 H 503.24 5.44039 2.22026 0
M  V30 5305 H 504.764 5.24195 3.13133 0
M  V30 5306 H 506.178 5.66206 0.899082 0
M  V30 5307 H 504.575 5.99821 0.182857 0
M  V30 5308 H 505.645 4.81324 -0.587821 0
M  V30 5309 N 506.988 0.0434614 1.5754 0
M  V30 5310 C 508.213 -0.645358 1.97104 0
M  V30 5311 C 508.638 -1.64037 0.920521 0
M  V30 5312 O 507.996 -1.80922 -0.11708 0
M  V30 5313 C 508.044 -1.31547 3.35749 0
M  V30 5314 O 507.148 -2.43103 3.33129 0
M  V30 5315 H 506.489 -0.168403 0.64229 0
M  V30 5316 H 509.019 0.109573 2.04306 0
M  V30 5317 H 509.029 -1.66895 3.72304 0
M  V30 5318 H 507.704 -0.586205 4.11748 0
M  V30 5319 H 506.281 -2.0976 3.0831 0
M  V30 5320 N 508.466 -1.55915 -0.229846 0
M  V30 5321 C 509.429 -1.90914 -1.26824 0
M  V30 5322 C 510.429 -0.786999 -1.40225 0
M  V30 5323 O 511.619 -1.05484 -1.38632 0
M  V30 5324 C 508.751 -2.15264 -2.64337 0
M  V30 5325 H 509.944 -2.8378 -0.969998 0
M  V30 5326 H 507.497 -1.49069 -0.4699 0
M  V30 5327 H 508.232 -1.24923 -2.99274 0
M  V30 5328 H 508.017 -2.97005 -2.55989 0
M  V30 5329 H 509.507 -2.43467 -3.39284 0
M  V30 5330 N 509.944 0.496216 -1.49584 0
M  V30 5331 C 511.193 1.24668 -1.58558 0
M  V30 5332 C 511.506 1.9359 -0.279703 0
M  V30 5333 O 512.712 2.70365 -0.248048 0
M  V30 5334 C 511.168 2.26388 -2.79779 0
M  V30 5335 C 510.776 1.63384 -4.17145 0
M  V30 5336 C 512.52 3.02233 -2.98086 0
M  V30 5337 C 510.427 2.63243 -5.29582 0
M  V30 5338 H 509.357 0.468995 -0.590389 0
M  V30 5339 H 512.008 0.519985 -1.75978 0
M  V30 5340 H 510.39 3.02241 -2.55863 0
M  V30 5341 H 511.564 0.93491 -4.51216 0
M  V30 5342 H 509.879 0.999121 -4.04236 0
M  V30 5343 H 512.476 3.76919 -3.79257 0
M  V30 5344 H 512.819 3.60132 -2.08831 0
M  V30 5345 H 513.352 2.33495 -3.22063 0
M  V30 5346 H 510.091 2.10119 -6.20911 0
M  V30 5347 H 509.611 3.31363 -4.99959 0
M  V30 5348 H 511.29 3.25575 -5.59115 0
M  V30 5349 N 511.423 1.38739 0.74761 0
M  V30 5350 C 512.663 1.36695 1.51966 0
M  V30 5351 C 513.027 -0.0411889 1.91956 0
M  V30 5352 O 514.228 -0.186543 2.68152 0
M  V30 5353 C 512.499 2.30119 2.73459 0
M  V30 5354 S 514.058 2.4615 3.63257 0
M  V30 5355 H 510.876 0.484929 0.519966 0
M  V30 5356 H 513.478 1.7472 0.877104 0
M  V30 5357 H 512.182 3.31312 2.422 0
M  V30 5358 H 511.713 1.93265 3.42655 0
M  V30 5359 H 513.728 1.69001 4.66533 0
M  V30 5360 N 512.901 -0.976442 1.23707 0
M  V30 5361 C 514.15 -1.71254 1.06559 0
M  V30 5362 C 514.463 -1.91528 -0.397024 0
M  V30 5363 O 515.669 -2.62625 -0.688518 0
M  V30 5364 C 514.125 -3.08207 1.8584 0
M  V30 5365 C 513.733 -2.95806 3.36456 0
M  V30 5366 C 515.477 -3.85749 1.77194 0
M  V30 5367 C 513.384 -4.28015 4.08114 0
M  V30 5368 H 512.314 -0.642171 0.395136 0
M  V30 5369 H 514.965 -1.08877 1.4771 0
M  V30 5370 H 513.347 -3.71363 1.37498 0
M  V30 5371 H 514.521 -2.41716 3.92314 0
M  V30 5372 H 512.836 -2.31736 3.45959 0
M  V30 5373 H 515.433 -4.83633 2.28041 0
M  V30 5374 H 515.776 -4.09752 0.735477 0
M  V30 5375 H 516.309 -3.29303 2.23169 0
M  V30 5376 H 513.048 -4.09208 5.12083 0
M  V30 5377 H 512.568 -4.81955 3.57043 0
M  V30 5378 H 514.247 -4.96681 4.14629 0
M  V30 5379 N 514.379 -1.04941 -1.1758 0
M  V30 5380 C 515.342 -0.652456 -2.19717 0
M  V30 5381 C 516.342 0.294745 -1.58076 0
M  V30 5382 O 517.532 0.0789579 -1.74021 0
M  V30 5383 C 514.664 0.0420712 -3.40874 0
M  V30 5384 H 515.857 -1.55642 -2.5635 0
M  V30 5385 H 513.41 -0.842995 -1.31618 0
M  V30 5386 H 514.145 0.95943 -3.09783 0
M  V30 5387 H 513.93 -0.638844 -3.86861 0
M  V30 5388 H 515.42 0.306 -4.16477 0
M  V30 5389 N 515.857 1.33968 -0.830081 0
M  V30 5390 C 517.134 1.92554 -0.343858 0
M  V30 5391 C 517.514 1.7573 1.16971 0
M  V30 5392 O 516.862 1.14035 1.98011 0
M  V30 5393 C 517.072 3.40147 -0.781073 0
M  V30 5394 C 518.42 4.17299 -0.78402 0
M  V30 5395 O 519.444 3.48762 -0.724112 0
M  V30 5396 O 518.303 5.39631 -0.863739 0
M  V30 5397 H 515.397 0.821469 -0.0954827 0
M  V30 5398 H 517.943 1.42897 -0.915348 0
M  V30 5399 H 516.715 3.46225 -1.82329 0
M  V30 5400 H 516.338 3.97166 -0.18567 0
M  V30 5401 N 517.335 0.585699 1.46312 0
M  V30 5402 C 518.582 0.0724211 2.0237 0
M  V30 5403 C 518.91 -1.28868 1.45683 0
M  V30 5404 O 518.165 -1.85853 0.612945 0
M  V30 5405 C 518.464 -0.0401312 3.57377 0
M  V30 5406 C 518.13 1.25376 4.33119 0
M  V30 5407 C 516.792 1.60824 4.5353 0
M  V30 5408 C 519.144 2.10987 4.76586 0
M  V30 5409 C 516.472 2.81676 5.14661 0
M  V30 5410 C 518.824 3.31068 5.39052 0
M  V30 5411 C 517.488 3.66794 5.5769 0
M  V30 5412 H 516.758 0.0265007 0.740526 0
M  V30 5413 H 519.405 0.762935 1.75646 0
M  V30 5414 H 517.71 -0.813791 3.83255 0
M  V30 5415 H 519.407 -0.453078 3.98432 0
M  V30 5416 H 515.997 0.967808 4.1753 0
M  V30 5417 H 520.181 1.84904 4.60569 0
M  V30 5418 H 515.437 3.0949 5.27282 0
M  V30 5419 H 519.611 3.97672 5.71691 0
M  V30 5420 H 517.238 4.60529 6.04828 0
M  V30 5421 N 518.813 -1.54241 0.323641 0
M  V30 5422 C 520.061 -2.00174 -0.278359 0
M  V30 5423 C 520.382 -1.2134 -1.52648 0
M  V30 5424 O 519.652 -0.315244 -1.93347 0
M  V30 5425 H 518.232 -0.739463 -0.105845 0
M  V30 5426 H 520.894 -1.89864 0.440204 0
M  V30 5427 H 519.99 -3.07486 -0.5347 0
M  V30 5428 N 520.291 -0.0518155 -1.57515 0
M  V30 5429 C 521.201 0.937539 -2.15052 0
M  V30 5430 C 522.217 1.34121 -1.10849 0
M  V30 5431 O 523.393 1.418 -1.4302 0
M  V30 5432 C 520.458 2.19379 -2.68466 0
M  V30 5433 C 519.519 1.84841 -3.87469 0
M  V30 5434 C 518.752 3.04477 -4.38326 0
M  V30 5435 O 518.975 4.17868 -3.88256 0
M  V30 5436 O 517.909 2.85453 -5.29906 0
M  V30 5437 H 521.735 0.478201 -2.99912 0
M  V30 5438 H 519.32 0.17012 -1.48428 0
M  V30 5439 H 521.202 2.93084 -3.02787 0
M  V30 5440 H 519.877 2.64449 -1.86677 0
M  V30 5441 H 518.784 1.08449 -3.58036 0
M  V30 5442 H 520.117 1.44569 -4.7049 0
M  V30 5443 N 521.769 1.56035 0.221574 0
M  V30 5444 C 523.046 1.69837 0.970301 0
M  V30 5445 C 523.426 0.599065 2.02421 0
M  V30 5446 O 522.774 -0.393929 2.25079 0
M  V30 5447 C 522.984 3.11148 1.58076 0
M  V30 5448 C 524.332 3.70555 2.07302 0
M  V30 5449 O 525.356 3.14109 1.6797 0
M  V30 5450 O 524.215 4.69562 2.79596 0
M  V30 5451 H 521.309 0.691727 0.453257 0
M  V30 5452 H 523.855 1.68353 0.213358 0
M  V30 5453 H 522.627 3.82617 0.819759 0
M  V30 5454 H 522.25 3.16749 2.40324 0
M  V30 5455 N 523.247 -0.488276 1.49845 0
M  V30 5456 C 524.21 -1.57069 1.66919 0
M  V30 5457 C 525.21 -1.51445 0.540479 0
M  V30 5458 O 526.4 -1.5437 0.807188 0
M  V30 5459 C 523.532 -2.96718 1.67844 0
M  V30 5460 H 524.725 -1.43254 2.63474 0
M  V30 5461 H 522.278 -0.713435 1.39068 0
M  V30 5462 H 523.013 -3.15996 0.7292 0
M  V30 5463 H 522.798 -3.02208 2.49826 0
M  V30 5464 H 524.288 -3.75335 1.83066 0
M  V30 5465 N 524.725 -1.39134 -0.740242 0
M  V30 5466 C 525.973 -1.35803 -1.49673 0
M  V30 5467 C 526.294 0.0470897 -1.94943 0
M  V30 5468 O 525.564 0.997347 -1.68611 0
M  V30 5469 H 524.144 -0.499736 -0.555224 0
M  V30 5470 H 526.806 -1.73947 -0.879107 0
M  V30 5471 H 525.902 -2.0174 -2.38133 0
M  V30 5472 N 526.204 0.969867 -1.24223 0
M  V30 5473 C 527.451 1.71256 -1.08063 0
M  V30 5474 C 527.779 1.90734 0.380872 0
M  V30 5475 O 527.034 1.46469 1.29789 0
M  V30 5476 C 527.333 3.10883 -1.76314 0
M  V30 5477 C 526.999 3.11252 -3.26241 0
M  V30 5478 C 525.661 3.1106 -3.67144 0
M  V30 5479 C 528.013 3.05751 -4.22097 0
M  V30 5480 C 525.341 3.03097 -5.02344 0
M  V30 5481 C 527.693 2.9933 -5.57301 0
M  V30 5482 C 526.357 2.97466 -5.97554 0
M  V30 5483 H 525.627 0.62667 -0.395431 0
M  V30 5484 H 528.274 1.13422 -1.54297 0
M  V30 5485 H 526.579 3.72168 -1.22468 0
M  V30 5486 H 528.276 3.67138 -1.61277 0
M  V30 5487 H 524.866 3.12165 -2.93685 0
M  V30 5488 H 529.05 3.05031 -3.91497 0
M  V30 5489 H 524.306 3.00013 -5.32731 0
M  V30 5490 H 528.48 2.94033 -6.31283 0
M  V30 5491 H 526.107 2.91051 -7.02277 0
M  V30 5492 N 527.682 1.05563 1.17022 0
M  V30 5493 C 528.929 0.767937 1.87374 0
M  V30 5494 C 529.257 -0.705224 1.81265 0
M  V30 5495 O 528.512 -1.5318 1.21796 0
M  V30 5496 C 528.811 1.19849 3.36706 0
M  V30 5497 C 528.477 2.6745 3.63017 0
M  V30 5498 C 527.139 3.0777 3.69907 0
M  V30 5499 C 529.491 3.62811 3.74189 0
M  V30 5500 C 526.819 4.42307 3.85463 0
M  V30 5501 C 529.171 4.97087 3.91264 0
M  V30 5502 C 527.835 5.37055 3.96394 0
M  V30 5503 H 527.105 0.281008 0.68565 0
M  V30 5504 H 529.752 1.32339 1.38415 0
M  V30 5505 H 528.057 0.562096 3.87747 0
M  V30 5506 H 529.754 0.953038 3.8951 0
M  V30 5507 H 526.344 2.35228 3.58282 0
M  V30 5508 H 530.528 3.32798 3.68183 0
M  V30 5509 H 525.784 4.72769 3.87684 0
M  V30 5510 H 529.958 5.70869 3.9885 0
M  V30 5511 H 527.585 6.41308 4.082 0
M  V30 5512 N 529.16 -1.33526 0.837174 0
M  V30 5513 C 530.407 -1.97837 0.432064 0
M  V30 5514 C 530.735 -1.66324 -1.00829 0
M  V30 5515 O 529.99 -0.93448 -1.71948 0
M  V30 5516 C 530.289 -3.52367 0.597675 0
M  V30 5517 C 529.955 -4.03826 2.00587 0
M  V30 5518 C 528.617 -4.1759 2.39106 0
M  V30 5519 C 530.969 -4.31333 2.92576 0
M  V30 5520 C 528.297 -4.56195 3.68921 0
M  V30 5521 C 530.649 -4.7139 4.2187 0
M  V30 5522 C 529.313 -4.8336 4.60347 0
M  V30 5523 H 528.583 -0.723937 0.158104 0
M  V30 5524 H 531.23 -1.5923 1.06387 0
M  V30 5525 H 529.535 -3.91624 -0.117452 0
M  V30 5526 H 531.232 -4.00126 0.26454 0
M  V30 5527 H 527.822 -3.93586 1.69671 0
M  V30 5528 H 532.006 -4.20224 2.64056 0
M  V30 5529 H 527.262 -4.63655 3.9854 0
M  V30 5530 H 531.436 -4.91631 4.93226 0
M  V30 5531 H 529.063 -5.1303 5.60985 0
M  V30 5532 N 530.638 -0.59345 -1.46 0
M  V30 5533 C 531.601 0.123538 -2.28867 0
M  V30 5534 C 532.601 0.808628 -1.38989 0
M  V30 5535 O 533.791 0.658945 -1.61256 0
M  V30 5536 C 530.923 1.1847 -3.19653 0
M  V30 5537 H 532.116 -0.604843 -2.93737 0
M  V30 5538 H 529.669 -0.351875 -1.52288 0
M  V30 5539 H 530.404 1.94431 -2.59552 0
M  V30 5540 H 530.189 0.69783 -3.8584 0
M  V30 5541 H 531.679 1.68726 -3.81997 0
M  V30 5542 N 532.116 1.54067 -0.331816 0
M  V30 5543 C 533.393 1.92915 0.322955 0
M  V30 5544 C 533.773 1.26225 1.69205 0
M  V30 5545 O 533.121 0.408919 2.24811 0
M  V30 5546 C 533.331 3.46619 0.406946 0
M  V30 5547 C 534.679 4.19386 0.663339 0
M  V30 5548 O 535.703 3.5282 0.489536 0
M  V30 5549 O 534.562 5.37288 0.999193 0
M  V30 5550 H 531.656 0.805808 0.186016 0
M  V30 5551 H 534.202 1.65342 -0.382135 0
M  V30 5552 H 532.974 3.87354 -0.554287 0
M  V30 5553 H 532.597 3.80324 1.15929 0
M  V30 5554 N 533.594 0.0601682 1.57485 0
M  V30 5555 C 535.005 -0.474217 1.80577 0
M  V30 5556 C 535.356 -1.70365 0.973147 0
M  V30 5557 O 534.481 -2.15544 0.192306 0
M  V30 5558 C 535.076 -0.867102 3.27516 0
M  V30 5559 C 533.635 -1.34642 3.51495 0
M  V30 5560 C 532.782 -0.32594 2.75378 0
M  V30 5561 H 535.733 0.285973 1.56102 0
M  V30 5562 H 535.754 -1.72938 3.38929 0
M  V30 5563 H 535.266 0.0278927 3.8809 0
M  V30 5564 H 533.367 -2.2603 2.96212 0
M  V30 5565 H 533.48 -1.33237 4.60201 0
M  V30 5566 H 531.844 -0.800749 2.41785 0
M  V30 5567 H 532.627 0.561125 3.38683 0
M  V30 5568 N 535.072 -1.5615 -0.213296 0
M  V30 5569 C 536.318 -1.79812 -0.937849 0
M  V30 5570 C 536.651 -0.631201 -1.83656 0
M  V30 5571 O 535.926 0.369165 -1.90964 0
M  V30 5572 C 536.209 -3.13613 -1.76972 0
M  V30 5573 C 536.062 -4.40766 -0.89695 0
M  V30 5574 C 537.381 -3.43931 -2.7459 0
M  V30 5575 H 534.5 -0.654138 -0.339518 0
M  V30 5576 H 537.142 -1.88877 -0.20623 0
M  V30 5577 H 535.292 -3.06015 -2.39347 0
M  V30 5578 H 536.964 -4.60392 -0.289306 0
M  V30 5579 H 535.207 -4.33326 -0.202756 0
M  V30 5580 H 535.878 -5.30843 -1.51358 0
M  V30 5581 H 538.354 -3.5171 -2.22349 0
M  V30 5582 H 537.23 -4.38706 -3.29891 0
M  V30 5583 H 537.491 -2.6651 -3.52739 0
M  V30 5584 N 536.55 0.480323 -1.50102 0
M  V30 5585 C 537.799 1.22979 -1.59872 0
M  V30 5586 C 538.112 1.93282 -0.30022 0
M  V30 5587 O 539.318 2.70086 -0.276709 0
M  V30 5588 C 537.774 2.23408 -2.82164 0
M  V30 5589 C 537.382 1.5895 -4.18854 0
M  V30 5590 C 539.126 2.99055 -3.01275 0
M  V30 5591 C 537.033 2.57611 -5.32344 0
M  V30 5592 H 535.963 0.462707 -0.59533 0
M  V30 5593 H 538.614 0.501291 -1.7652 0
M  V30 5594 H 536.996 2.99511 -2.59055 0
M  V30 5595 H 538.17 0.887 -4.52182 0
M  V30 5596 H 536.485 0.956191 -4.05273 0
M  V30 5597 H 539.082 3.72876 -3.83233 0
M  V30 5598 H 539.425 3.57897 -2.12639 0
M  V30 5599 H 539.958 2.30066 -3.24522 0
M  V30 5600 H 536.697 2.03521 -6.23105 0
M  V30 5601 H 536.217 3.26041 -5.03445 0
M  V30 5602 H 537.896 3.19627 -5.62537 0
M  V30 5603 N 538.028 1.39524 0.732853 0
M  V30 5604 C 539.439 1.32905 1.31122 0
M  V30 5605 C 539.79 -0.00558708 1.96199 0
M  V30 5606 O 538.915 -0.907706 1.96443 0
M  V30 5607 C 539.51 2.40704 2.38426 0
M  V30 5608 C 538.069 2.37599 2.91931 0
M  V30 5609 C 537.216 2.2248 1.65523 0
M  V30 5610 H 540.167 1.49581 0.530207 0
M  V30 5611 H 540.188 2.07616 3.18867 0
M  V30 5612 H 539.7 3.37829 1.91033 0
M  V30 5613 H 537.801 1.44119 3.43599 0
M  V30 5614 H 537.914 3.32538 3.44899 0
M  V30 5615 H 536.278 1.69691 1.8994 0
M  V30 5616 H 537.061 3.21577 1.20178 0
M  V30 5617 N 539.506 -0.963266 1.24736 0
M  V30 5618 C 540.917 -1.52145 1.08207 0
M  V30 5619 C 541.268 -1.93142 -0.345061 0
M  V30 5620 O 540.393 -1.77769 -1.23399 0
M  V30 5621 C 540.988 -2.76486 1.95808 0
M  V30 5622 C 539.547 -3.28646 1.8349 0
M  V30 5623 C 538.694 -2.01529 1.90476 0
M  V30 5624 H 541.645 -0.781083 1.38148 0
M  V30 5625 H 541.666 -3.49986 1.49297 0
M  V30 5626 H 541.178 -2.46617 2.99669 0
M  V30 5627 H 539.279 -3.63357 0.824787 0
M  V30 5628 H 539.392 -3.97246 2.67829 0
M  V30 5629 H 537.756 -2.16442 1.34258 0
M  V30 5630 H 538.539 -1.7402 2.95926 0
M  V30 5631 N 540.985 -1.06182 -1.16461 0
M  V30 5632 C 542.401 -0.785065 -1.38956 0
M  V30 5633 C 542.601 0.616103 -1.9185 0
M  V30 5634 O 541.657 1.37686 -2.11657 0
M  V30 5635 C 542.97 -1.84902 -2.37132 0
M  V30 5636 C 544.518 -1.8724 -2.50819 0
M  V30 5637 C 544.993 -2.92686 -3.52277 0
M  V30 5638 N 546.484 -2.91712 -3.59803 0
M  V30 5639 C 547.219 -3.69949 -4.38093 0
M  V30 5640 N 546.715 -4.58 -5.19815 0
M  V30 5641 N 548.508 -3.58346 -4.33064 0
M  V30 5642 H 540.659 -1.96569 -0.804634 0
M  V30 5643 H 542.922 -0.851747 -0.416211 0
M  V30 5644 H 542.628 -2.85518 -2.0536 0
M  V30 5645 H 542.502 -1.69908 -3.36766 0
M  V30 5646 H 544.889 -0.872827 -2.81897 0
M  V30 5647 H 544.97 -2.06311 -1.51226 0
M  V30 5648 H 544.614 -3.92835 -3.21937 0
M  V30 5649 H 544.544 -2.70864 -4.51598 0
M  V30 5650 H 547.035 -2.27876 -3.01464 0
M  V30 5651 H 547.348 -5.14357 -5.76764 0
M  V30 5652 H 545.693 -4.62056 -5.19162 0
M  V30 5653 H 548.884 -2.88943 -3.68279 0
M  V30 5654 H 549.057 -4.19563 -4.93833 0
M  V30 5655 N 542.463 1.3308 -0.844243 0
M  V30 5656 C 543.373 2.32876 -0.283922 0
M  V30 5657 C 544.389 1.63589 0.592846 0
M  V30 5658 O 545.565 1.95205 0.495693 0
M  V30 5659 C 542.63 3.42667 0.527283 0
M  V30 5660 C 541.691 4.27664 -0.374394 0
M  V30 5661 C 540.924 5.32212 0.39819 0
M  V30 5662 O 541.147 5.46635 1.62932 0
M  V30 5663 O 540.081 6.01458 -0.2306 0
M  V30 5664 H 543.907 2.82671 -1.11045 0
M  V30 5665 H 541.492 1.36518 -0.606903 0
M  V30 5666 H 543.374 4.09652 0.988078 0
M  V30 5667 H 542.049 2.95079 1.33078 0
M  V30 5668 H 540.956 3.63526 -0.883144 0
M  V30 5669 H 542.289 4.78749 -1.1428 0
M  V30 5670 N 543.941 0.601185 1.45683 0
M  V30 5671 C 545.357 0.264315 1.57396 0
M  V30 5672 C 545.557 -1.23324 1.59353 0
M  V30 5673 O 544.613 -2.01594 1.52039 0
M  V30 5674 C 545.926 0.929839 2.85962 0
M  V30 5675 C 547.474 0.905156 2.99626 0
M  V30 5676 C 547.949 1.55057 4.30954 0
M  V30 5677 N 549.44 1.51576 4.37697 0
M  V30 5678 C 550.175 1.98436 5.37969 0
M  V30 5679 N 549.671 2.53352 6.44813 0
M  V30 5680 N 551.464 1.89242 5.29286 0
M  V30 5681 H 543.615 1.57363 1.42656 0
M  V30 5682 H 545.878 0.658831 0.681649 0
M  V30 5683 H 545.584 1.98404 2.90394 0
M  V30 5684 H 545.458 0.449224 3.74515 0
M  V30 5685 H 547.845 -0.14048 2.94765 0
M  V30 5686 H 547.926 1.42397 2.12501 0
M  V30 5687 H 547.57 2.5955 4.36573 0
M  V30 5688 H 547.5 1.00682 5.16886 0
M  V30 5689 H 549.991 1.11452 3.61091 0
M  V30 5690 H 550.304 2.86918 7.17564 0
M  V30 5691 H 548.649 2.57388 6.45582 0
M  V30 5692 H 551.84 1.46083 4.44722 0
M  V30 5693 H 552.013 2.26075 6.07284 0
M  V30 5694 N 545.419 -1.53889 0.339982 0
M  V30 5695 C 546.665 -2.01152 -0.258003 0
M  V30 5696 C 546.998 -1.22749 -1.50487 0
M  V30 5697 O 546.273 -0.314156 -1.91946 0
M  V30 5698 C 546.556 -3.55468 -0.575717 0
M  V30 5699 C 546.409 -4.44584 0.682996 0
M  V30 5700 C 547.728 -4.1768 -1.38677 0
M  V30 5701 H 544.847 -0.731198 -0.0922992 0
M  V30 5702 H 547.489 -1.84352 0.459814 0
M  V30 5703 H 545.639 -3.69914 -1.18725 0
M  V30 5704 H 547.311 -4.41981 1.32102 0
M  V30 5705 H 545.554 -4.13592 1.3086 0
M  V30 5706 H 546.225 -5.5043 0.416001 0
M  V30 5707 H 548.701 -4.0691 -0.869705 0
M  V30 5708 H 547.577 -5.25734 -1.57783 0
M  V30 5709 H 547.838 -3.72069 -2.38782 0
M  V30 5710 N 546.897 -0.0685191 -1.57451 0
M  V30 5711 C 548.146 0.600898 -1.92541 0
M  V30 5712 C 548.459 1.70967 -0.950239 0
M  V30 5713 O 549.665 2.43844 -1.19384 0
M  V30 5714 C 548.121 1.12019 -3.42023 0
M  V30 5715 C 547.729 0.0426028 -4.4798 0
M  V30 5716 C 549.473 1.76386 -3.86119 0
M  V30 5717 C 547.38 0.575759 -5.88591 0
M  V30 5718 H 546.31 0.228225 -0.71863 0
M  V30 5719 H 548.961 -0.140223 -1.82963 0
M  V30 5720 H 547.343 1.91418 -3.46663 0
M  V30 5721 H 548.517 -0.73182 -4.54952 0
M  V30 5722 H 546.832 -0.504642 -4.13331 0
M  V30 5723 H 549.429 2.17302 -4.88553 0
M  V30 5724 H 549.772 2.62255 -3.23308 0
M  V30 5725 H 550.305 1.03615 -3.84069 0
M  V30 5726 H 547.044 -0.245691 -6.55039 0
M  V30 5727 H 546.564 1.31778 -5.85145 0
M  V30 5728 H 548.243 1.0532 -6.3837 0
M  V30 5729 N 548.375 1.56261 0.205012 0
M  V30 5730 C 549.603 1.84141 0.943386 0
M  V30 5731 C 550.018 0.649772 1.77266 0
M  V30 5732 O 549.375 -0.381612 1.78466 0
M  V30 5733 C 549.426 3.10719 1.84759 0
M  V30 5734 O 549.147 4.25286 1.05181 0
M  V30 5735 C 550.648 3.51706 2.69848 0
M  V30 5736 H 547.868 0.611734 0.275721 0
M  V30 5737 H 550.412 2.03364 0.215253 0
M  V30 5738 H 548.567 2.93422 2.52947 0
M  V30 5739 H 548.981 4.97301 1.66709 0
M  V30 5740 H 550.455 4.43266 3.28967 0
M  V30 5741 H 550.932 2.7423 3.43067 0
M  V30 5742 H 551.538 3.71499 2.07047 0
M  V30 5743 N 549.853 -0.472356 1.50355 0
M  V30 5744 C 550.8 -1.57051 1.69126 0
M  V30 5745 C 551.77 -1.5733 0.532574 0
M  V30 5746 O 552.955 -1.7488 0.762994 0
M  V30 5747 C 550.095 -2.95033 1.79024 0
M  V30 5748 C 549.208 -3.04552 3.06386 0
M  V30 5749 C 548.343 -4.33441 3.07087 0
M  V30 5750 C 547.382 -4.36697 4.28908 0
M  V30 5751 N 546.519 -5.57056 4.27356 0
M  V30 5752 H 551.359 -1.40351 2.62879 0
M  V30 5753 H 548.896 -0.682403 1.30314 0
M  V30 5754 H 550.854 -3.75048 1.82744 0
M  V30 5755 H 549.484 -3.10371 0.887109 0
M  V30 5756 H 548.536 -2.17419 3.12143 0
M  V30 5757 H 549.848 -3.02818 3.96362 0
M  V30 5758 H 549.002 -5.21801 3.09529 0
M  V30 5759 H 547.741 -4.37782 2.14939 0
M  V30 5760 H 546.746 -3.46734 4.2668 0
M  V30 5761 H 547.971 -4.34049 5.22282 0
M  V30 5762 H 545.917 -5.62184 3.3806 0
M  V30 5763 H 545.834 -5.57058 5.111 0
M  V30 5764 H 547.102 -6.47545 4.33942 0
M  V30 5765 N 551.331 -1.39911 -0.725443 0
M  V30 5766 C 552.264 -1.33788 -1.84867 0
M  V30 5767 C 553.242 -0.209907 -1.61239 0
M  V30 5768 O 554.426 -0.391943 -1.8438 0
M  V30 5769 C 551.553 -1.07975 -3.21028 0
M  V30 5770 C 550.599 -2.23092 -3.635 0
M  V30 5771 S 551.432 -3.85431 -3.71757 0
M  V30 5772 C 552.588 -3.61862 -5.10692 0
M  V30 5773 H 552.821 -2.28848 -1.89779 0
M  V30 5774 H 550.354 -1.26079 -0.891254 0
M  V30 5775 H 552.312 -0.937669 -3.99647 0
M  V30 5776 H 550.973 -0.145865 -3.13761 0
M  V30 5777 H 550.166 -2.00647 -4.62338 0
M  V30 5778 H 549.768 -2.33553 -2.92112 0
M  V30 5779 H 552.06 -3.19719 -5.97316 0
M  V30 5780 H 553.003 -4.60196 -5.38169 0
M  V30 5781 H 553.411 -2.95757 -4.8082 0
M  V30 5782 N 552.809 0.956637 -1.25245 0
M  V30 5783 C 554.057 1.69764 -1.09657 0
M  V30 5784 C 554.378 1.91583 0.363464 0
M  V30 5785 O 553.648 1.50149 1.25825 0
M  V30 5786 H 552.228 0.629097 -0.402798 0
M  V30 5787 H 554.89 1.15026 -1.57337 0
M  V30 5788 H 553.986 2.67769 -1.60331 0
M  V30 5789 N 554.287 1.06798 1.15896 0
M  V30 5790 C 555.234 0.683314 2.20453 0
M  V30 5791 C 556.204 -0.32255 1.62938 0
M  V30 5792 O 557.389 -0.210276 1.89638 0
M  V30 5793 C 554.529 0.0813266 3.45004 0
M  V30 5794 C 553.642 1.13799 4.16742 0
M  V30 5795 C 552.777 0.501598 5.28826 0
M  V30 5796 C 551.816 1.54144 5.92373 0
M  V30 5797 N 550.953 0.928038 6.9594 0
M  V30 5798 H 555.793 1.57932 2.52708 0
M  V30 5799 H 553.33 0.789544 1.24115 0
M  V30 5800 H 555.288 -0.285274 4.16224 0
M  V30 5801 H 553.918 -0.77806 3.13283 0
M  V30 5802 H 552.97 1.62223 3.44075 0
M  V30 5803 H 554.282 1.92664 4.60089 0
M  V30 5804 H 553.436 0.0823162 6.06644 0
M  V30 5805 H 552.175 -0.318883 4.86656 0
M  V30 5806 H 551.18 1.97056 5.13273 0
M  V30 5807 H 552.405 2.3641 6.36621 0
M  V30 5808 H 550.351 0.12836 6.55874 0
M  V30 5809 H 550.268 1.65401 7.37685 0
M  V30 5810 H 551.536 0.534071 7.77668 0
M  V30 5811 N 555.766 -1.3263 0.851289 0
M  V30 5812 C 557.012 -1.98061 0.462963 0
M  V30 5813 C 557.367 -1.66162 -0.969948 0
M  V30 5814 O 556.66 -0.937723 -1.67085 0
M  V30 5815 C 556.854 -3.51713 0.635015 0
M  V30 5816 C 556.683 -3.98544 2.0831 0
M  V30 5817 C 555.453 -4.25787 2.72091 0
M  V30 5818 C 557.651 -4.13858 3.0533 0
M  V30 5819 N 555.633 -4.58842 4.07845 0
M  V30 5820 C 557.004 -4.50412 4.26063 0
M  V30 5821 C 559.059 -3.96182 3.0157 0
M  V30 5822 C 557.762 -4.71136 5.43529 0
M  V30 5823 C 559.788 -4.18088 4.18278 0
M  V30 5824 C 559.15 -4.54956 5.37768 0
M  V30 5825 H 555.249 -0.750976 0.218082 0
M  V30 5826 H 557.833 -1.60514 1.10197 0
M  V30 5827 H 556.004 -3.88391 0.0257298 0
M  V30 5828 H 557.736 -4.04118 0.216915 0
M  V30 5829 H 554.491 -4.17734 2.23149 0
M  V30 5830 H 554.915 -4.7956 4.77862 0
M  V30 5831 H 559.557 -3.66783 2.1031 0
M  V30 5832 H 557.275 -4.9939 6.35323 0
M  V30 5833 H 560.861 -4.05918 4.168 0
M  V30 5834 H 559.741 -4.71567 6.26573 0
M  V30 5835 N 557.244 -0.608902 -1.45362 0
M  V30 5836 C 558.207 0.0992563 -2.28985 0
M  V30 5837 C 559.207 0.793841 -1.39838 0
M  V30 5838 O 560.397 0.641804 -1.61946 0
M  V30 5839 C 557.529 1.15073 -3.20891 0
M  V30 5840 H 558.722 -0.635964 -2.93079 0
M  V30 5841 H 556.275 -0.368007 -1.51906 0
M  V30 5842 H 557.01 1.91667 -2.616 0
M  V30 5843 H 556.795 0.656867 -3.86559 0
M  V30 5844 H 558.285 1.64665 -3.83765 0
M  V30 5845 N 558.722 1.53707 -0.348139 0
M  V30 5846 C 559.672 2.2193 0.522592 0
M  V30 5847 C 560.656 1.20831 1.06248 0
M  V30 5848 O 561.848 1.46357 0.995415 0
M  V30 5849 C 558.977 2.99904 1.6707 0
M  V30 5850 C 558.063 4.08364 1.14454 0
M  V30 5851 N 558.454 5.04656 0.339958 0
M  V30 5852 C 556.752 4.22757 1.421 0
M  V30 5853 C 557.453 5.81675 0.0538806 0
M  V30 5854 N 556.429 5.39739 0.646776 0
M  V30 5855 H 560.231 2.93733 -0.099135 0
M  V30 5856 H 557.745 1.61656 -0.15524 0
M  V30 5857 H 559.742 3.47284 2.30651 0
M  V30 5858 H 558.402 2.29629 2.29566 0
M  V30 5859 H 559.413 5.17896 -0.0193552 0
M  V30 5860 H 556.09 3.63704 2.05002 0
M  V30 5861 H 557.48 6.69256 -0.595443 0
M  V30 5862 N 560.2 0.0768682 1.57412 0
M  V30 5863 C 561.43 -0.5991 1.97723 0
M  V30 5864 C 561.838 -1.63378 0.954166 0
M  V30 5865 O 561.181 -1.83578 -0.0668706 0
M  V30 5866 C 561.243 -1.32078 3.34358 0
M  V30 5867 C 560.907 -0.438985 4.54887 0
M  V30 5868 C 561.904 0.305492 5.19002 0
M  V30 5869 C 559.589 -0.362378 5.00991 0
M  V30 5870 C 561.583 1.11475 6.27576 0
M  V30 5871 C 559.27 0.450543 6.09437 0
M  V30 5872 C 560.268 1.18777 6.72593 0
M  V30 5873 O 559.956 1.98727 7.7895 0
M  V30 5874 H 559.688 -0.166725 0.655117 0
M  V30 5875 H 562.242 0.147337 2.04871 0
M  V30 5876 H 560.472 -2.1134 3.2384 0
M  V30 5877 H 562.161 -1.88949 3.5924 0
M  V30 5878 H 562.927 0.25593 4.84324 0
M  V30 5879 H 558.806 -0.925832 4.51608 0
M  V30 5880 H 562.35 1.69068 6.76803 0
M  V30 5881 H 558.247 0.501651 6.43548 0
M  V30 5882 H 559.015 1.91214 7.95851 0
M  V30 5883 N 561.678 -1.56367 -0.196722 0
M  V30 5884 C 562.925 -1.80529 -0.917366 0
M  V30 5885 C 563.253 -0.649817 -1.83324 0
M  V30 5886 O 562.508 0.36451 -1.92275 0
M  V30 5887 C 562.807 -3.10663 -1.767 0
M  V30 5888 C 562.473 -4.3962 -1.00225 0
M  V30 5889 C 561.135 -4.74653 -0.791095 0
M  V30 5890 C 563.487 -5.1913 -0.464035 0
M  V30 5891 C 560.815 -5.86692 -0.0302155 0
M  V30 5892 C 563.167 -6.31964 0.283625 0
M  V30 5893 C 561.831 -6.65581 0.505813 0
M  V30 5894 H 561.101 -0.660602 -0.335688 0
M  V30 5895 H 563.748 -1.90615 -0.183844 0
M  V30 5896 H 562.053 -2.95807 -2.56915 0
M  V30 5897 H 563.75 -3.26563 -2.32718 0
M  V30 5898 H 560.34 -4.12127 -1.17684 0
M  V30 5899 H 564.524 -4.9248 -0.614575 0
M  V30 5900 H 559.78 -6.11211 0.151917 0
M  V30 5901 H 563.954 -6.92791 0.708057 0
M  V30 5902 H 561.581 -7.52239 1.0973 0
M  V30 5903 N 563.156 0.464375 -1.50603 0
M  V30 5904 C 564.103 1.56152 -1.69956 0
M  V30 5905 C 565.073 1.57046 -0.54091 0
M  V30 5906 O 566.258 1.74473 -0.772258 0
M  V30 5907 C 563.398 2.94079 -1.80586 0
M  V30 5908 C 562.511 3.02923 -3.07996 0
M  V30 5909 C 561.646 4.31806 -3.09382 0
M  V30 5910 C 560.685 4.34417 -4.31218 0
M  V30 5911 N 559.822 5.54782 -4.30304 0
M  V30 5912 H 564.662 1.38955 -2.6362 0
M  V30 5913 H 562.199 0.675482 -1.30674 0
M  V30 5914 H 564.157 3.74073 -1.8473 0
M  V30 5915 H 562.787 3.09896 -0.903556 0
M  V30 5916 H 561.839 2.1576 -3.13292 0
M  V30 5917 H 563.151 3.00712 -3.97962 0
M  V30 5918 H 562.305 5.20153 -3.12292 0
M  V30 5919 H 561.044 4.36636 -2.17257 0
M  V30 5920 H 560.049 3.44467 -4.28512 0
M  V30 5921 H 561.274 4.31273 -5.24576 0
M  V30 5922 H 559.22 5.60384 -3.41037 0
M  V30 5923 H 559.137 5.54339 -5.14047 0
M  V30 5924 H 560.405 6.45235 -4.3737 0
M  V30 5925 N 564.634 1.40294 0.718013 0
M  V30 5926 C 565.862 1.4175 1.50714 0
M  V30 5927 C 566.277 0.0165366 1.88793 0
M  V30 5928 O 565.634 -0.958942 1.55276 0
M  V30 5929 C 565.685 2.30598 2.784 0
M  V30 5930 O 565.406 3.6524 2.41932 0
M  V30 5931 C 566.907 2.4062 3.72313 0
M  V30 5932 H 564.127 0.483565 0.465194 0
M  V30 5933 H 566.671 1.84316 0.885889 0
M  V30 5934 H 564.826 1.91401 3.36815 0
M  V30 5935 H 565.24 4.12402 3.24076 0
M  V30 5936 H 566.714 3.07001 4.58753 0
M  V30 5937 H 567.191 1.4305 4.15251 0
M  V30 5938 H 567.797 2.80359 3.19811 0
M  V30 5939 N 566.112 -0.949982 1.2575 0
M  V30 5940 C 567.075 -2.02894 1.06615 0
M  V30 5941 C 568.075 -1.60791 0.0173905 0
M  V30 5942 O 569.265 -1.72249 0.260003 0
M  V30 5943 C 566.397 -3.35219 0.619751 0
M  V30 5944 H 567.59 -2.21302 2.02399 0
M  V30 5945 H 565.143 -1.12772 1.08223 0
M  V30 5946 H 565.878 -3.22508 -0.340486 0
M  V30 5947 H 565.663 -3.67129 1.37692 0
M  V30 5948 H 567.153 -4.14505 0.507443 0
M  V30 5949 N 567.59 -1.07411 -1.15328 0
M  V30 5950 C 568.837 -0.797649 -1.86128 0
M  V30 5951 C 569.165 0.676298 -1.82364 0
M  V30 5952 O 568.42 1.51223 -1.24218 0
M  V30 5953 C 568.719 -1.25191 -3.34757 0
M  V30 5954 C 568.385 -2.73191 -3.58716 0
M  V30 5955 C 567.047 -3.13616 -3.64964 0
M  V30 5956 C 569.399 -3.68718 -3.6837 0
M  V30 5957 C 566.727 -4.48383 -3.78377 0
M  V30 5958 C 569.079 -5.03248 -3.83306 0
M  V30 5959 C 567.743 -5.43293 -3.878 0
M  V30 5960 H 567.013 -0.29188 -0.681092 0
M  V30 5961 H 569.66 -1.34524 -1.36292 0
M  V30 5962 H 567.965 -0.623712 -3.86804 0
M  V30 5963 H 569.662 -1.01489 -3.87945 0
M  V30 5964 H 566.252 -2.40898 -3.54494 0
M  V30 5965 H 570.436 -3.38614 -3.62842 0
M  V30 5966 H 565.692 -4.78877 -3.80114 0
M  V30 5967 H 569.866 -5.77142 -3.89718 0
M  V30 5968 H 567.493 -6.47721 -3.97946 0
M  V30 5969 N 569.068 1.32177 -0.85831 0
M  V30 5970 C 569.978 2.32561 -0.308606 0
M  V30 5971 C 570.994 1.64209 0.575462 0
M  V30 5972 O 572.17 1.95719 0.474961 0
M  V30 5973 C 569.235 3.43207 0.490909 0
M  V30 5974 C 568.296 4.27243 -0.419733 0
M  V30 5975 C 567.529 5.32605 0.341719 0
M  V30 5976 O 567.752 5.48332 1.57125 0
M  V30 5977 O 566.686 6.0118 -0.294379 0
M  V30 5978 H 570.512 2.81477 -1.14037 0
M  V30 5979 H 568.097 1.35866 -0.621349 0
M  V30 5980 H 569.979 4.10677 0.944574 0
M  V30 5981 H 568.654 2.96474 1.29941 0
M  V30 5982 H 567.561 3.62569 -0.921652 0
M  V30 5983 H 568.894 4.7751 -1.19352 0
M  V30 5984 N 570.547 0.616602 1.45037 0
M  V30 5985 C 571.494 -0.0969439 2.30596 0
M  V30 5986 C 572.464 -0.851151 1.42635 0
M  V30 5987 O 573.649 -0.835092 1.71554 0
M  V30 5988 C 570.789 -1.08234 3.27688 0
M  V30 5989 C 569.902 -0.328072 4.30752 0
M  V30 5990 C 569.037 -1.30399 5.14946 0
M  V30 5991 C 568.076 -0.538049 6.09731 0
M  V30 5992 N 567.213 -1.46371 6.86673 0
M  V30 5993 H 572.053 0.63864 2.91076 0
M  V30 5994 H 569.59 0.326733 1.43425 0
M  V30 5995 H 571.548 -1.66688 3.82454 0
M  V30 5996 H 570.178 -1.78523 2.68941 0
M  V30 5997 H 569.23 0.372136 3.78575 0
M  V30 5998 H 570.542 0.269142 4.98073 0
M  V30 5999 H 569.696 -1.96032 5.74157 0
M  V30 6000 H 568.435 -1.93514 4.47665 0
M  V30 6001 H 567.44 0.131852 5.49642 0
M  V30 6002 H 568.665 0.0881732 6.79043 0
M  V30 6003 H 566.611 -2.08233 6.22073 0
M  V30 6004 H 566.528 -0.920152 7.50379 0
M  V30 6005 H 567.796 -2.10932 7.50418 0
M  V30 6006 N 572.025 -1.5352 0.356285 0
M  V30 6007 C 573.255 -2.05236 -0.236983 0
M  V30 6008 C 573.663 -1.23016 -1.43749 0
M  V30 6009 O 573.006 -0.2615 -1.81829 0
M  V30 6010 C 573.068 -3.52549 -0.7035 0
M  V30 6011 C 572.732 -4.55425 0.379059 0
M  V30 6012 C 573.729 -5.0524 1.22592 0
M  V30 6013 C 571.414 -4.99425 0.536638 0
M  V30 6014 C 573.408 -5.97647 2.21578 0
M  V30 6015 C 571.095 -5.9164 1.52988 0
M  V30 6016 C 572.093 -6.4064 2.3679 0
M  V30 6017 O 571.781 -7.31039 3.34421 0
M  V30 6018 H 571.513 -0.674346 -0.047254 0
M  V30 6019 H 574.067 -1.98962 0.510238 0
M  V30 6020 H 572.297 -3.56331 -1.50217 0
M  V30 6021 H 573.986 -3.87171 -1.21873 0
M  V30 6022 H 574.752 -4.72002 1.11532 0
M  V30 6023 H 570.631 -4.60879 -0.105834 0
M  V30 6024 H 574.175 -6.35816 2.87025 0
M  V30 6025 H 570.072 -6.24293 1.64099 0
M  V30 6026 H 570.84 -7.49009 3.30041 0
M  V30 6027 N 573.503 -0.0852151 -1.57369 0
M  V30 6028 C 574.75 0.580806 -1.93992 0
M  V30 6029 C 575.078 1.68801 -0.966252 0
M  V30 6030 O 574.333 1.95694 0.0158649 0
M  V30 6031 C 574.632 1.18482 -3.3719 0
M  V30 6032 C 574.298 0.2024 -4.50446 0
M  V30 6033 C 572.96 -0.0678318 -4.81152 0
M  V30 6034 C 575.312 -0.46895 -5.19086 0
M  V30 6035 C 572.64 -1.01627 -5.77831 0
M  V30 6036 C 574.992 -1.4058 -6.16782 0
M  V30 6037 C 573.656 -1.68436 -6.45899 0
M  V30 6038 H 572.926 0.212532 -0.709867 0
M  V30 6039 H 575.573 -0.158947 -1.90839 0
M  V30 6040 H 573.878 2.0006 -3.36873 0
M  V30 6041 H 575.575 1.70767 -3.62822 0
M  V30 6042 H 572.165 0.423208 -4.26505 0
M  V30 6043 H 576.349 -0.273307 -4.95547 0
M  V30 6044 H 571.605 -1.2392 -5.9871 0
M  V30 6045 H 575.779 -1.93188 -6.69068 0
M  V30 6046 H 573.406 -2.42088 -7.20623 0
M  V30 6047 N 574.981 1.5647 0.188427 0
M  V30 6048 C 575.911 1.98101 1.23606 0
M  V30 6049 C 576.892 0.853961 1.47111 0
M  V30 6050 O 578.077 1.11879 1.58735 0
M  V30 6051 C 575.207 2.32624 2.57882 0
M  V30 6052 C 574.161 3.48129 2.48978 0
M  V30 6053 C 573.487 3.68347 3.87588 0
M  V30 6054 C 574.787 4.82112 2.00911 0
M  V30 6055 H 576.481 2.85864 0.890068 0
M  V30 6056 H 574.027 1.37532 0.426714 0
M  V30 6057 H 575.98 2.60343 3.3136 0
M  V30 6058 H 574.704 1.41751 2.94235 0
M  V30 6059 H 573.363 3.20511 1.77956 0
M  V30 6060 H 573.011 2.74793 4.21305 0
M  V30 6061 H 572.711 4.46055 3.82503 0
M  V30 6062 H 574.235 3.98449 4.62678 0
M  V30 6063 H 575.649 5.08819 2.64151 0
M  V30 6064 H 574.046 5.63337 2.06814 0
M  V30 6065 H 575.116 4.75249 0.96262 0
M  V30 6066 N 576.459 -0.456382 1.50847 0
M  V30 6067 C 577.705 -1.20618 1.63777 0
M  V30 6068 C 578.06 -1.8936 0.340677 0
M  V30 6069 O 577.353 -1.79786 -0.662378 0
M  V30 6070 C 577.547 -2.26336 2.76599 0
M  V30 6071 C 577.376 -1.67968 4.17153 0
M  V30 6072 C 576.146 -1.47293 4.83356 0
M  V30 6073 C 578.344 -1.16643 5.00898 0
M  V30 6074 N 576.326 -0.843222 6.08081 0
M  V30 6075 C 577.697 -0.660843 6.16468 0
M  V30 6076 C 579.752 -1.05637 4.86565 0
M  V30 6077 C 578.455 -0.0560365 7.19278 0
M  V30 6078 C 580.481 -0.465485 5.89565 0
M  V30 6079 C 579.843 0.0296516 7.04394 0
M  V30 6080 H 575.942 -0.429725 0.653345 0
M  V30 6081 H 578.526 -0.505784 1.88016 0
M  V30 6082 H 576.697 -2.93785 2.54056 0
M  V30 6083 H 578.429 -2.9334 2.78808 0
M  V30 6084 H 575.184 -1.72934 4.40898 0
M  V30 6085 H 575.608 -0.546357 6.74792 0
M  V30 6086 H 580.25 -1.42508 3.98059 0
M  V30 6087 H 577.968 0.324845 8.07447 0
M  V30 6088 H 581.554 -0.382493 5.80541 0
M  V30 6089 H 580.434 0.479705 7.82731 0
M  V30 6090 N 577.937 -1.40673 -0.710563 0
M  V30 6091 C 578.884 -1.41336 -1.82463 0
M  V30 6092 C 579.854 -0.269648 -1.63897 0
M  V30 6093 O 581.039 -0.468463 -1.8496 0
M  V30 6094 C 578.179 -1.28665 -3.20218 0
M  V30 6095 C 577.292 -2.52784 -3.5032 0
M  V30 6096 C 576.427 -2.32517 -4.77608 0
M  V30 6097 C 575.466 -3.52187 -5.0063 0
M  V30 6098 N 574.603 -3.31084 -6.19135 0
M  V30 6099 H 579.443 -2.36558 -1.8123 0
M  V30 6100 H 576.98 -1.17483 -0.885226 0
M  V30 6101 H 578.938 -1.19324 -3.99772 0
M  V30 6102 H 577.568 -0.370602 -3.20666 0
M  V30 6103 H 576.62 -2.72634 -2.65283 0
M  V30 6104 H 577.932 -3.41845 -3.63241 0
M  V30 6105 H 577.086 -2.20558 -5.65189 0
M  V30 6106 H 575.825 -1.40889 -4.66906 0
M  V30 6107 H 574.83 -3.64617 -4.11502 0
M  V30 6108 H 576.055 -4.44749 -5.13201 0
M  V30 6109 H 574.001 -2.42143 -6.09674 0
M  V30 6110 H 573.918 -4.13713 -6.32754 0
M  V30 6111 H 575.186 -3.22868 -7.0949 0
M  V30 6112 N 579.415 0.9433 -1.26252 0
M  V30 6113 C 580.661 1.69175 -1.11837 0
M  V30 6114 C 580.994 1.91238 0.337891 0
M  V30 6115 O 580.269 1.49152 1.24836 0
M  V30 6116 C 580.552 3.06783 -1.88563 0
M  V30 6117 C 580.405 2.9206 -3.42083 0
M  V30 6118 C 581.724 4.06865 -1.67776 0
M  V30 6119 H 578.843 0.61399 -0.407658 0
M  V30 6120 H 581.485 1.09572 -1.55222 0
M  V30 6121 H 579.635 3.57663 -1.51689 0
M  V30 6122 H 581.307 2.48419 -3.88698 0
M  V30 6123 H 579.55 2.27731 -3.69217 0
M  V30 6124 H 580.221 3.89651 -3.90994 0
M  V30 6125 H 582.697 3.64939 -1.99897 0
M  V30 6126 H 581.573 5.01168 -2.23879 0
M  V30 6127 H 581.834 4.37705 -0.621816 0
M  V30 6128 N 580.893 1.08022 1.14757 0
M  V30 6129 C 582.309 0.807072 1.3769 0
M  V30 6130 C 582.509 -0.585504 1.92806 0
M  V30 6131 O 581.565 -1.34301 2.13821 0
M  V30 6132 C 582.878 1.88651 2.34161 0
M  V30 6133 C 584.426 1.91206 2.47809 0
M  V30 6134 C 584.901 2.98253 3.47576 0
M  V30 6135 N 586.392 2.974 3.55117 0
M  V30 6136 C 587.127 3.76872 4.32152 0
M  V30 6137 N 586.623 4.66212 5.12463 0
M  V30 6138 N 588.416 3.6519 4.27309 0
M  V30 6139 H 580.567 1.97824 0.77326 0
M  V30 6140 H 582.83 0.85826 0.402608 0
M  V30 6141 H 582.536 2.88749 2.00791 0
M  V30 6142 H 582.41 1.75244 3.3402 0
M  V30 6143 H 584.797 0.917564 2.80472 0
M  V30 6144 H 584.878 2.08691 1.47925 0
M  V30 6145 H 584.522 3.97907 3.15646 0
M  V30 6146 H 584.452 2.78014 4.47231 0
M  V30 6147 H 586.943 2.32643 2.97801 0
M  V30 6148 H 587.256 5.23468 5.68508 0
M  V30 6149 H 585.601 4.70257 5.11745 0
M  V30 6150 H 588.792 2.94765 3.63636 0
M  V30 6151 H 588.965 4.27366 4.87095 0
M  V30 6152 N 582.371 -1.3172 0.865308 0
M  V30 6153 C 583.319 -2.30569 0.306674 0
M  V30 6154 C 584.313 -1.59317 -0.575724 0
M  V30 6155 O 585.519 -1.73961 -0.462343 0
M  V30 6156 H 581.894 -0.747681 0.0804834 0
M  V30 6157 H 583.865 -2.75165 1.15441 0
M  V30 6158 C 582.614 -3.44358 -0.480952 0
M  V30 6159 H 581.937 -3.99354 0.18876 0
M  V30 6160 H 583.377 -4.15652 -0.837241 0
M  V30 6161 C 581.836 -2.92574 -1.67039 0
M  V30 6162 O 582.366 -2.90954 -2.76964 0
M  V30 6163 N 580.572 -2.48835 -1.50097 0
M  V30 6164 H 580.119 -2.50353 -0.606738 0
M  V30 6165 H 580.077 -2.14543 -2.29823 0
M  V30 6166 N 583.85 -0.624285 -1.44708 0
M  V30 6167 C 585.098 -0.125802 -2.01708 0
M  V30 6168 C 585.418 1.2543 -1.49306 0
M  V30 6169 O 584.689 1.83198 -0.693924 0
M  V30 6170 H 583.269 -0.0435161 -0.745731 0
M  V30 6171 H 585.931 -0.809446 -1.77296 0
M  V30 6172 H 585.027 -0.0882734 -3.11975 0
M  V30 6173 N 585.328 1.53329 -0.364422 0
M  V30 6174 C 586.276 2.27212 0.497737 0
M  V30 6175 C 587.27 1.30146 1.08437 0
M  V30 6176 O 588.476 1.47778 1.0277 0
M  V30 6177 H 584.851 0.730329 0.179232 0
M  V30 6178 H 586.822 2.98037 -0.147182 0
M  V30 6179 C 585.571 3.07333 1.6261 0
M  V30 6180 H 584.894 3.81866 1.184 0
M  V30 6181 H 586.334 3.62209 2.20409 0
M  V30 6182 C 584.793 2.18102 2.56775 0
M  V30 6183 O 585.323 1.79104 3.59562 0
M  V30 6184 N 583.529 1.82759 2.25937 0
M  V30 6185 H 583.076 2.14671 1.42387 0
M  V30 6186 H 583.034 1.23342 2.89196 0
M  V30 6187 N 586.806 0.0935595 1.57322 0
M  V30 6188 C 588.055 -0.570191 1.93473 0
M  V30 6189 C 588.368 -1.69434 0.977318 0
M  V30 6190 O 589.574 -2.41914 1.23248 0
M  V30 6191 C 588.03 -1.06564 3.43762 0
M  V30 6192 C 587.638 0.0286723 4.47991 0
M  V30 6193 C 589.382 -1.70221 3.88877 0
M  V30 6194 C 587.289 -0.482046 5.89432 0
M  V30 6195 H 586.219 -0.216764 0.72217 0
M  V30 6196 H 588.87 0.169313 1.82717 0
M  V30 6197 H 587.252 -1.85878 3.49664 0
M  V30 6198 H 588.426 0.804106 4.5373 0
M  V30 6199 H 586.741 0.570336 4.12476 0
M  V30 6200 H 589.338 -2.09502 4.91948 0
M  V30 6201 H 589.681 -2.57078 3.27439 0
M  V30 6202 H 590.214 -0.974919 3.85668 0
M  V30 6203 H 586.953 0.349871 6.54566 0
M  V30 6204 H 586.473 -1.22452 5.87167 0
M  V30 6205 H 588.152 -0.951508 6.39965 0
M  V30 6206 N 588.284 -1.56567 -0.180126 0
M  V30 6207 C 589.247 -1.94852 -1.20686 0
M  V30 6208 C 590.247 -0.831212 -1.3765 0
M  V30 6209 O 591.437 -1.09841 -1.35206 0
M  V30 6210 C 588.569 -2.23565 -2.57355 0
M  V30 6211 H 589.762 -2.86722 -0.879225 0
M  V30 6212 H 587.315 -1.50489 -0.422237 0
M  V30 6213 H 588.05 -1.34381 -2.95148 0
M  V30 6214 H 587.835 -3.04999 -2.46411 0
M  V30 6215 H 589.325 -2.54137 -3.31367 0
M  V30 6216 N 589.762 0.448376 -1.51087 0
M  V30 6217 C 591.173 1.0286 -1.5581 0
M  V30 6218 C 591.524 1.92583 -0.374989 0
M  V30 6219 O 590.649 2.10316 0.509533 0
M  V30 6220 C 591.244 1.87223 -2.8237 0
M  V30 6221 C 589.803 2.40314 -2.897 0
M  V30 6222 C 588.95 1.19238 -2.50355 0
M  V30 6223 H 591.901 0.230075 -1.57023 0
M  V30 6224 H 591.922 2.72553 -2.6551 0
M  V30 6225 H 591.434 1.21894 -3.68461 0
M  V30 6226 H 589.535 3.09129 -2.08014 0
M  V30 6227 H 589.648 2.73866 -3.93108 0
M  V30 6228 H 588.012 1.53428 -2.03303 0
M  V30 6229 H 588.795 0.555367 -3.38778 0
M  V30 6230 N 591.24 1.41047 0.703093 0
M  V30 6231 C 592.465 1.43537 1.49706 0
M  V30 6232 C 592.89 0.0401853 1.88057 0
M  V30 6233 O 592.248 -0.954785 1.54122 0
M  V30 6234 C 592.296 2.3433 2.74084 0
M  V30 6235 O 591.4 1.79515 3.71279 0
M  V30 6236 H 590.741 0.487454 0.450871 0
M  V30 6237 H 593.271 1.85422 0.86486 0
M  V30 6238 H 593.281 2.49947 3.22476 0
M  V30 6239 H 591.956 3.35708 2.45506 0
M  V30 6240 H 590.533 1.7331 3.30179 0
M  V30 6241 N 592.718 -0.936591 1.26751 0
M  V30 6242 C 593.965 -1.68331 1.12566 0
M  V30 6243 C 594.293 -1.91677 -0.330168 0
M  V30 6244 O 593.548 -1.49859 -1.2586 0
M  V30 6245 C 593.847 -3.06099 1.84494 0
M  V30 6246 C 593.513 -3.02493 3.34378 0
M  V30 6247 C 592.175 -3.01217 3.75262 0
M  V30 6248 C 594.527 -2.94453 4.30055 0
M  V30 6249 C 591.855 -2.89672 5.10203 0
M  V30 6250 C 594.207 -2.84449 5.65041 0
M  V30 6251 C 592.871 -2.81518 6.0523 0
M  V30 6252 H 592.141 -0.615965 0.411907 0
M  V30 6253 H 594.788 -1.09292 1.5725 0
M  V30 6254 H 593.093 -3.6879 1.32292 0
M  V30 6255 H 594.79 -3.62733 1.70955 0
M  V30 6256 H 591.38 -3.04269 3.01858 0
M  V30 6257 H 595.564 -2.94544 3.99447 0
M  V30 6258 H 590.82 -2.85783 5.40498 0
M  V30 6259 H 594.994 -2.77192 6.38856 0
M  V30 6260 H 592.621 -2.72329 7.09747 0
M  V30 6261 N 594.196 -1.08629 -1.14182 0
M  V30 6262 C 595.106 -0.730126 -2.22949 0
M  V30 6263 C 596.122 0.26436 -1.7198 0
M  V30 6264 O 597.298 0.107742 -2.01112 0
M  V30 6265 C 594.363 -0.147227 -3.46387 0
M  V30 6266 C 593.424 -1.19662 -4.12286 0
M  V30 6267 C 592.657 -0.641437 -5.29831 0
M  V30 6268 O 592.88 0.538351 -5.67854 0
M  V30 6269 O 591.814 -1.39257 -5.85569 0
M  V30 6270 H 595.64 -1.63753 -2.55771 0
M  V30 6271 H 593.225 -0.860118 -1.22157 0
M  V30 6272 H 595.107 0.174923 -4.21037 0
M  V30 6273 H 593.782 0.733304 -3.15285 0
M  V30 6274 H 592.689 -1.57133 -3.395 0
M  V30 6275 H 594.022 -2.0495 -4.475 0
M  V30 6276 N 595.674 1.31259 -0.872281 0
M  V30 6277 C 596.584 2.32221 -0.333255 0
M  V30 6278 C 597.6 1.6481 0.558013 0
M  V30 6279 O 598.776 1.96212 0.454175 0
M  V30 6280 C 595.841 3.43708 0.454479 0
M  V30 6281 C 594.902 4.26774 -0.465024 0
M  V30 6282 C 594.135 5.32937 0.28521 0
M  V30 6283 O 594.358 5.49968 1.513 0
M  V30 6284 O 593.292 6.00834 -0.358126 0
M  V30 6285 H 597.118 2.80252 -1.17016 0
M  V30 6286 H 594.703 1.352 -0.635724 0
M  V30 6287 H 596.585 4.11656 0.900963 0
M  V30 6288 H 595.26 2.97836 1.26789 0
M  V30 6289 H 594.167 3.61571 -0.960055 0
M  V30 6290 H 595.5 4.76217 -1.2441 0
M  V30 6291 N 597.152 0.631951 1.44375 0
M  V30 6292 C 598.099 -0.0724807 2.30686 0
M  V30 6293 C 599.069 -0.835975 1.43529 0
M  V30 6294 O 600.254 -0.816849 1.7243 0
M  V30 6295 C 597.394 -1.04753 3.28817 0
M  V30 6296 C 596.507 -0.282367 4.31076 0
M  V30 6297 C 595.642 -1.2493 5.163 0
M  V30 6298 C 594.681 -0.473349 6.10267 0
M  V30 6299 N 593.818 -1.39079 6.88187 0
M  V30 6300 H 598.658 0.669477 2.90383 0
M  V30 6301 H 596.195 0.341927 1.43071 0
M  V30 6302 H 598.153 -1.62623 3.842 0
M  V30 6303 H 596.783 -1.75661 2.70819 0
M  V30 6304 H 595.835 0.412268 3.78159 0
M  V30 6305 H 597.147 0.321955 4.9776 0
M  V30 6306 H 596.301 -1.89931 5.76204 0
M  V30 6307 H 595.04 -1.88755 4.49692 0
M  V30 6308 H 594.045 0.190142 5.49471 0
M  V30 6309 H 595.27 0.16019 6.78911 0
M  V30 6310 H 593.216 -2.01623 6.24247 0
M  V30 6311 H 593.133 -0.840513 7.51313 0
M  V30 6312 H 594.401 -2.02961 7.52613 0
M  V30 6313 N 598.631 -1.53133 0.372548 0
M  V30 6314 C 599.877 -2.01654 -0.215277 0
M  V30 6315 C 600.21 -1.25914 -1.47849 0
M  V30 6316 O 599.485 -0.3548 -1.91237 0
M  V30 6317 C 599.768 -3.56609 -0.500187 0
M  V30 6318 C 599.621 -4.43036 0.777145 0
M  V30 6319 C 600.94 -4.20528 -1.29786 0
M  V30 6320 H 598.059 -0.732991 -0.0767686 0
M  V30 6321 H 600.701 -1.83335 0.498814 0
M  V30 6322 H 598.851 -3.7235 -1.10852 0
M  V30 6323 H 600.523 -4.39079 1.41447 0
M  V30 6324 H 598.766 -4.10723 1.39604 0
M  V30 6325 H 599.437 -5.49424 0.532662 0
M  V30 6326 H 601.913 -4.08663 -0.783198 0
M  V30 6327 H 600.789 -5.28962 -1.46596 0
M  V30 6328 H 601.05 -3.77051 -2.30836 0
M  V30 6329 N 600.109 -0.101901 -1.5727 0
M  V30 6330 C 601.039 0.851544 -2.17419 0
M  V30 6331 C 602.02 1.28942 -1.10941 0
M  V30 6332 O 603.205 1.35509 -1.39107 0
M  V30 6333 C 600.335 2.10816 -2.75996 0
M  V30 6334 C 599.289 1.80867 -3.87906 0
M  V30 6335 C 598.615 3.13413 -4.33216 0
M  V30 6336 C 599.915 1.0903 -5.10793 0
M  V30 6337 H 601.609 0.350381 -2.97343 0
M  V30 6338 H 599.155 0.16709 -1.43027 0
M  V30 6339 H 601.108 2.77959 -3.16729 0
M  V30 6340 H 599.832 2.63227 -1.93337 0
M  V30 6341 H 598.491 1.16119 -3.47724 0
M  V30 6342 H 598.139 3.63725 -3.47438 0
M  V30 6343 H 597.839 2.94155 -5.08671 0
M  V30 6344 H 599.363 3.81704 -4.76586 0
M  V30 6345 H 600.777 1.66295 -5.48652 0
M  V30 6346 H 599.174 0.99927 -5.91722 0
M  V30 6347 H 600.244 0.0741704 -4.84843 0
M  V30 6348 N 601.587 1.56661 0.17182 0
M  V30 6349 C 602.497 1.99604 1.2327 0
M  V30 6350 C 603.513 0.907333 1.4847 0
M  V30 6351 O 604.689 1.21492 1.60629 0
M  V30 6352 C 601.754 2.34685 2.55194 0
M  V30 6353 C 600.815 3.57381 2.3786 0
M  V30 6354 C 600.048 3.90779 3.63494 0
M  V30 6355 O 600.271 3.25152 4.6865 0
M  V30 6356 O 599.205 4.84129 3.57634 0
M  V30 6357 H 603.031 2.90114 0.898192 0
M  V30 6358 H 600.616 1.44522 0.378647 0
M  V30 6359 H 602.498 2.5822 3.33017 0
M  V30 6360 H 601.173 1.47336 2.88225 0
M  V30 6361 H 600.08 3.39064 1.5807 0
M  V30 6362 H 601.413 4.45268 2.09754 0
M  V30 6363 N 603.065 -0.440357 1.51323 0
M  V30 6364 C 604.314 -1.18697 1.63076 0
M  V30 6365 C 604.627 -1.92418 0.35136 0
M  V30 6366 O 605.833 -2.69258 0.348221 0
M  V30 6367 C 604.289 -2.15849 2.87988 0
M  V30 6368 C 603.897 -1.47789 4.22921 0
M  V30 6369 C 605.641 -2.90962 3.09098 0
M  V30 6370 C 603.548 -2.43407 5.38987 0
M  V30 6371 H 602.478 -0.44676 0.607389 0
M  V30 6372 H 605.129 -0.454313 1.77787 0
M  V30 6373 H 603.511 -2.92537 2.66905 0
M  V30 6374 H 604.685 -0.7668 4.54375 0
M  V30 6375 H 603 -0.848404 4.07665 0
M  V30 6376 H 605.597 -3.62584 3.92985 0
M  V30 6377 H 605.94 -3.52133 2.22053 0
M  V30 6378 H 606.473 -2.21381 3.30507 0
M  V30 6379 H 603.212 -1.86929 6.28282 0
M  V30 6380 H 602.732 -3.12579 5.11913 0
M  V30 6381 H 604.411 -3.046 5.70813 0
M  V30 6382 N 604.543 -1.41418 -0.695603 0
M  V30 6383 C 605.79 -1.40774 -1.45564 0
M  V30 6384 C 606.118 -0.0168604 -1.94493 0
M  V30 6385 O 605.373 0.971259 -1.69897 0
M  V30 6386 C 605.672 -2.36112 -2.68302 0
M  V30 6387 C 605.338 -3.82952 -2.38031 0
M  V30 6388 C 604 -4.22954 -2.29486 0
M  V30 6389 C 606.352 -4.75662 -2.13061 0
M  V30 6390 C 603.68 -5.53674 -1.94067 0
M  V30 6391 C 606.032 -6.06702 -1.79151 0
M  V30 6392 C 604.696 -6.45725 -1.69102 0
M  V30 6393 H 603.966 -0.515128 -0.532658 0
M  V30 6394 H 606.613 -1.74216 -0.795047 0
M  V30 6395 H 604.918 -1.95924 -3.39295 0
M  V30 6396 H 606.615 -2.32887 -3.26442 0
M  V30 6397 H 603.205 -3.5127 -2.45576 0
M  V30 6398 H 607.389 -4.45561 -2.18608 0
M  V30 6399 H 602.645 -5.8279 -1.8484 0
M  V30 6400 H 606.819 -6.78041 -1.5885 0
M  V30 6401 H 604.446 -7.46929 -1.41426 0
M  V30 6402 N 606.021 0.929856 -1.27246 0
M  V30 6403 C 606.951 2.04722 -1.12299 0
M  V30 6404 C 607.932 1.70082 -0.0250464 0
M  V30 6405 O 609.117 1.93176 -0.199141 0
M  V30 6406 C 606.247 3.38721 -0.767145 0
M  V30 6407 C 605.201 3.87466 -1.81808 0
M  V30 6408 C 604.527 5.18246 -1.31626 0
M  V30 6409 C 605.827 4.11095 -3.22177 0
M  V30 6410 H 607.521 2.17485 -2.05769 0
M  V30 6411 H 605.067 1.04503 -0.990715 0
M  V30 6412 H 607.02 4.16366 -0.649413 0
M  V30 6413 H 605.744 3.25967 0.203259 0
M  V30 6414 H 604.403 3.12012 -1.92468 0
M  V30 6415 H 604.051 5.01881 -0.335378 0
M  V30 6416 H 603.751 5.51829 -2.01887 0
M  V30 6417 H 605.275 5.98462 -1.21143 0
M  V30 6418 H 606.689 4.79316 -3.1453 0
M  V30 6419 H 605.086 4.55982 -3.90129 0
M  V30 6420 H 606.156 3.16468 -3.67391 0
M  V30 6421 N 607.499 1.09233 1.13605 0
M  V30 6422 C 608.446 0.729921 2.18954 0
M  V30 6423 C 609.416 -0.287916 1.63586 0
M  V30 6424 O 610.601 -0.170003 1.90041 0
M  V30 6425 C 607.741 0.154489 3.44754 0
M  V30 6426 C 606.854 1.22613 4.14234 0
M  V30 6427 C 605.989 0.613657 5.27644 0
M  V30 6428 C 605.028 1.66674 5.8897 0
M  V30 6429 N 604.165 1.07545 6.93814 0
M  V30 6430 H 609.005 1.63257 2.49302 0
M  V30 6431 H 606.542 0.815693 1.22413 0
M  V30 6432 H 608.5 -0.196923 4.16735 0
M  V30 6433 H 607.13 -0.711433 3.14863 0
M  V30 6434 H 606.182 1.69485 3.40557 0
M  V30 6435 H 607.494 2.0238 4.55899 0
M  V30 6436 H 606.648 0.210976 6.06333 0
M  V30 6437 H 605.387 -0.215584 4.87223 0
M  V30 6438 H 604.392 2.07899 5.08978 0
M  V30 6439 H 605.617 2.49861 6.31464 0
M  V30 6440 H 603.563 0.267451 6.55455 0
M  V30 6441 H 603.48 1.81011 7.3401 0
M  V30 6442 H 604.748 0.698906 7.7636 0
M  V30 6443 N 608.977 -1.30795 0.87923 0
M  V30 6444 C 610.223 -1.96653 0.495519 0
M  V30 6445 C 610.556 -1.69282 -0.951703 0
M  V30 6446 O 609.831 -0.994374 -1.6716 0
M  V30 6447 C 610.114 -3.51898 0.764174 0
M  V30 6448 C 609.967 -3.88808 2.2616 0
M  V30 6449 C 611.286 -4.39462 0.236825 0
M  V30 6450 H 608.405 -0.7143 0.181507 0
M  V30 6451 H 611.047 -1.54765 1.10217 0
M  V30 6452 H 609.197 -3.87709 0.247841 0
M  V30 6453 H 610.869 -3.63051 2.8459 0
M  V30 6454 H 609.112 -3.37082 2.73053 0
M  V30 6455 H 609.783 -4.97086 2.4002 0
M  V30 6456 H 612.259 -4.10528 0.678683 0
M  V30 6457 H 611.135 -5.47018 0.454176 0
M  V30 6458 H 611.396 -4.33621 -0.861683 0
M  V30 6459 N 610.455 -0.639598 -1.44038 0
M  V30 6460 C 611.405 0.0823038 -2.27851 0
M  V30 6461 C 612.389 0.807991 -1.39141 0
M  V30 6462 O 613.581 0.692702 -1.62882 0
M  V30 6463 C 610.71 1.05742 -3.26609 0
M  V30 6464 C 609.796 0.330911 -4.22807 0
M  V30 6465 N 610.187 -0.645126 -5.01669 0
M  V30 6466 C 608.485 0.574214 -4.42288 0
M  V30 6467 C 609.186 -1.07513 -5.71678 0
M  V30 6468 N 608.162 -0.412164 -5.42035 0
M  V30 6469 H 611.964 -0.666861 -2.86234 0
M  V30 6470 H 609.478 -0.465777 -1.55577 0
M  V30 6471 H 611.475 1.58927 -3.85419 0
M  V30 6472 H 610.135 1.80679 -2.69787 0
M  V30 6473 H 611.146 -1.02329 -5.0769 0
M  V30 6474 H 607.823 1.30581 -3.96554 0
M  V30 6475 H 609.213 -1.88196 -6.45005 0
M  V30 6476 N 611.933 1.52934 -0.380664 0
M  V30 6477 C 613.344 1.86457 0.0952684 0
M  V30 6478 C 613.695 1.3007 1.46889 0
M  V30 6479 O 612.82 0.628636 2.07068 0
M  V30 6480 C 613.415 3.38323 0.179648 0
M  V30 6481 C 611.974 3.71589 0.599858 0
M  V30 6482 C 611.121 2.76228 -0.243572 0
M  V30 6483 H 614.072 1.46966 -0.59888 0
M  V30 6484 H 614.093 3.67113 1.00042 0
M  V30 6485 H 613.605 3.79333 -0.820228 0
M  V30 6486 H 611.706 3.36144 1.60742 0
M  V30 6487 H 611.819 4.77715 0.364003 0
M  V30 6488 H 610.183 2.53045 0.289855 0
M  V30 6489 H 610.966 3.20074 -1.24127 0
M  V30 6490 N 613.412 0.11024 1.57214 0
M  V30 6491 C 614.661 -0.549638 1.94067 0
M  V30 6492 C 614.974 -1.68388 0.995234 0
M  V30 6493 O 616.18 -2.40593 1.25807 0
M  V30 6494 C 614.636 -1.02912 3.44873 0
M  V30 6495 C 614.244 0.0761861 4.47935 0
M  V30 6496 C 615.988 -1.66087 3.9066 0
M  V30 6497 C 613.895 -0.419502 5.8991 0
M  V30 6498 H 612.825 -0.209092 0.724428 0
M  V30 6499 H 615.476 0.188683 1.82527 0
M  V30 6500 H 613.858 -1.82159 3.51616 0
M  V30 6501 H 615.032 0.852185 4.52851 0
M  V30 6502 H 613.347 0.614052 4.11847 0
M  V30 6503 H 615.944 -2.04272 4.94143 0
M  V30 6504 H 616.287 -2.53591 3.30148 0
M  V30 6505 H 616.82 -0.933959 3.86681 0
M  V30 6506 H 613.559 0.419277 6.54158 0
M  V30 6507 H 613.079 -1.16217 5.88433 0
M  V30 6508 H 614.758 -0.883577 6.40938 0
M  V30 6509 N 614.89 -1.56749 -0.16351 0
M  V30 6510 C 615.8 -2.00255 -1.2221 0
M  V30 6511 C 616.816 -0.915194 -1.47987 0
M  V30 6512 O 617.992 -1.22342 -1.59982 0
M  V30 6513 C 615.057 -2.36035 -2.53946 0
M  V30 6514 C 614.118 -3.58637 -2.35962 0
M  V30 6515 C 613.351 -3.92701 -3.61416 0
M  V30 6516 O 613.574 -3.27632 -4.66919 0
M  V30 6517 O 612.508 -4.86019 -3.55062 0
M  V30 6518 H 616.334 -2.90586 -0.882794 0
M  V30 6519 H 613.919 -1.44721 -0.370978 0
M  V30 6520 H 615.801 -2.59982 -3.31643 0
M  V30 6521 H 614.476 -1.48863 -2.8744 0
M  V30 6522 H 613.383 -3.39898 -1.5627 0
M  V30 6523 H 614.716 -4.46374 -2.0739 0
M  V30 6524 N 616.368 0.432326 -1.51554 0
M  V30 6525 C 617.298 1.53242 -1.76179 0
M  V30 6526 C 618.279 1.58717 -0.611801 0
M  V30 6527 O 619.464 1.74364 -0.855033 0
M  V30 6528 C 616.594 2.91278 -1.89141 0
M  V30 6529 C 615.548 3.00663 -3.04608 0
M  V30 6530 C 614.874 4.40728 -3.02759 0
M  V30 6531 C 616.174 2.74281 -4.44485 0
M  V30 6532 H 617.868 1.32886 -2.68294 0
M  V30 6533 H 615.414 0.637841 -1.29103 0
M  V30 6534 H 617.367 3.68203 -2.04951 0
M  V30 6535 H 616.091 3.12877 -0.936785 0
M  V30 6536 H 614.75 2.26179 -2.88511 0
M  V30 6537 H 614.398 4.59301 -2.05065 0
M  V30 6538 H 614.098 4.47936 -3.80299 0
M  V30 6539 H 615.622 5.19619 -3.20669 0
M  V30 6540 H 617.036 3.40936 -4.60907 0
M  V30 6541 H 615.433 2.92893 -5.23769 0
M  V30 6542 H 616.503 1.69856 -4.54177 0
M  V30 6543 N 617.846 1.41785 0.688094 0
M  V30 6544 C 619.086 1.43018 1.46032 0
M  V30 6545 C 619.45 0.0402632 1.91958 0
M  V30 6546 O 620.651 -0.0726425 2.68702 0
M  V30 6547 C 618.922 2.4151 2.63453 0
M  V30 6548 S 620.481 2.61335 3.5249 0
M  V30 6549 H 617.299 0.506546 0.498931 0
M  V30 6550 H 619.901 1.78283 0.80221 0
M  V30 6551 H 618.605 3.41286 2.27929 0
M  V30 6552 H 618.136 2.07624 3.34149 0
M  V30 6553 H 620.151 1.88637 4.58945 0
M  V30 6554 N 619.324 -0.923095 1.27737 0
M  V30 6555 C 620.271 -2.02432 1.1086 0
M  V30 6556 C 621.241 -1.66098 0.00835195 0
M  V30 6557 O 622.426 -1.90027 0.171542 0
M  V30 6558 C 619.566 -3.36476 0.766671 0
M  V30 6559 C 618.679 -3.85737 1.94501 0
M  V30 6560 C 617.814 -5.08249 1.54455 0
M  V30 6561 C 616.853 -5.49818 2.6901 0
M  V30 6562 N 615.99 -6.63524 2.29521 0
M  V30 6563 H 620.83 -2.16201 2.05089 0
M  V30 6564 H 618.367 -1.05909 1.02087 0
M  V30 6565 H 620.325 -4.13569 0.549223 0
M  V30 6566 H 618.955 -3.22502 -0.13867 0
M  V30 6567 H 618.007 -3.04883 2.27487 0
M  V30 6568 H 619.319 -4.12513 2.80419 0
M  V30 6569 H 618.473 -5.92857 1.28862 0
M  V30 6570 H 617.212 -4.83261 0.656534 0
M  V30 6571 H 616.217 -4.63757 2.95313 0
M  V30 6572 H 617.442 -5.76799 3.5844 0
M  V30 6573 H 615.388 -6.40185 1.43177 0
M  V30 6574 H 615.305 -6.89978 3.08977 0
M  V30 6575 H 616.573 -7.51461 2.07187 0
M  V30 6576 N 620.802 -1.09834 -1.13024 0
M  V30 6577 C 622.079 -0.749225 -1.80682 0
M  V30 6578 C 622.459 0.765171 -1.96744 0
M  V30 6579 O 621.807 1.68912 -1.53886 0
M  V30 6580 C 622.017 -1.49311 -3.15448 0
M  V30 6581 C 623.365 -1.66162 -3.90737 0
M  V30 6582 O 624.389 -1.45597 -3.25085 0
M  V30 6583 O 623.248 -2.00211 -5.08505 0
M  V30 6584 H 620.342 -0.269614 -0.781817 0
M  V30 6585 H 622.888 -1.20078 -1.19914 0
M  V30 6586 H 621.66 -2.52407 -2.99009 0
M  V30 6587 H 621.283 -1.034 -3.8392 0
M  V30 6588 N 622.28 1.30327 -0.886154 0
M  V30 6589 C 623.52 1.97886 -0.511912 0
M  V30 6590 C 623.884 1.68417 0.921944 0
M  V30 6591 O 625.085 2.29319 1.40237 0
M  V30 6592 C 623.356 3.48775 -0.780444 0
M  V30 6593 S 624.915 4.35844 -0.508482 0
M  V30 6594 H 621.733 0.685024 -0.190428 0
M  V30 6595 H 624.335 1.58413 -1.14567 0
M  V30 6596 H 623.039 3.67714 -1.82248 0
M  V30 6597 H 622.57 3.93171 -0.134284 0
M  V30 6598 H 624.585 4.91893 0.65239 0
M  V30 6599 N 623.758 0.647228 1.43697 0
M  V30 6600 C 624.668 -0.0487997 2.34549 0
M  V30 6601 C 625.684 -0.818586 1.53542 0
M  V30 6602 O 626.86 -0.767195 1.86215 0
M  V30 6603 C 623.925 -1.00734 3.31743 0
M  V30 6604 C 622.986 -0.23515 4.28655 0
M  V30 6605 C 622.219 -1.14803 5.21206 0
M  V30 6606 O 622.442 -2.38717 5.18045 0
M  V30 6607 O 621.376 -0.623667 5.9866 0
M  V30 6608 H 625.202 0.698863 2.9555 0
M  V30 6609 H 622.787 0.407412 1.43738 0
M  V30 6610 H 624.669 -1.55837 3.91526 0
M  V30 6611 H 623.344 -1.73534 2.73254 0
M  V30 6612 H 622.251 0.359319 3.7237 0
M  V30 6613 H 623.584 0.453152 4.9011 0
M  V30 6614 N 625.236 -1.5273 0.388769 0
M  V30 6615 C 626.484 -2.01174 -0.193208 0
M  V30 6616 C 626.805 -1.27705 -1.47365 0
M  V30 6617 O 626.075 -0.396966 -1.91836 0
M  V30 6618 H 624.655 -0.743287 -0.0743871 0
M  V30 6619 H 627.317 -1.87826 0.520336 0
M  V30 6620 H 626.413 -3.09477 -0.403803 0
M  V30 6621 N 626.714 -0.118576 -1.57153 0
M  V30 6622 C 627.677 0.817464 -2.14127 0
M  V30 6623 C 628.677 1.1949 -1.07604 0
M  V30 6624 O 629.867 1.12048 -1.33382 0
M  V30 6625 C 626.999 2.10541 -2.68115 0
M  V30 6626 H 628.192 0.322339 -2.98163 0
M  V30 6627 H 625.745 0.130655 -1.55753 0
M  V30 6628 H 626.48 2.64485 -1.87665 0
M  V30 6629 H 626.265 1.84425 -3.4602 0
M  V30 6630 H 627.755 2.77453 -3.12105 0
M  V30 6631 N 628.193 1.56834 0.155195 0
M  V30 6632 C 629.604 1.72421 0.716082 0
M  V30 6633 C 629.955 0.731685 1.82046 0
M  V30 6634 O 629.08 -0.103481 2.16152 0
M  V30 6635 C 629.675 3.12629 1.30571 0
M  V30 6636 C 628.234 3.29846 1.81325 0
M  V30 6637 C 627.381 2.68359 0.698494 0
M  V30 6638 H 630.332 1.58544 -0.0703861 0
M  V30 6639 H 630.353 3.12174 2.1755 0
M  V30 6640 H 629.865 3.84844 0.501701 0
M  V30 6641 H 627.966 2.62614 2.64319 0
M  V30 6642 H 628.079 4.37727 1.9476 0
M  V30 6643 H 626.443 2.28604 1.12305 0
M  V30 6644 H 627.226 3.43171 -0.0939366 0
M  V30 6645 N 629.671 -0.424282 1.51781 0
M  V30 6646 C 630.919 -1.17028 1.64769 0
M  V30 6647 C 631.24 -1.91409 0.372523 0
M  V30 6648 O 630.51 -1.86091 -0.612108 0
M  V30 6649 H 629.09 -0.434992 0.607282 0
M  V30 6650 H 631.752 -0.485169 1.88765 0
M  V30 6651 H 630.848 -1.8927 2.4816 0
M  V30 6652 N 631.149 -1.42148 -0.680565 0
M  V30 6653 C 632.374 -1.45901 -1.47403 0
M  V30 6654 C 632.799 -0.0700985 -1.87969 0
M  V30 6655 O 632.157 0.930145 -1.55621 0
M  V30 6656 C 632.205 -2.38661 -2.70321 0
M  V30 6657 O 631.309 -1.85399 -3.68376 0
M  V30 6658 H 630.65 -0.494565 -0.443059 0
M  V30 6659 H 633.18 -1.86774 -0.835251 0
M  V30 6660 H 633.19 -2.55046 -3.18458 0
M  V30 6661 H 631.865 -3.39571 -2.40134 0
M  V30 6662 H 630.442 -1.78541 -3.2738 0
M  V30 6663 N 632.627 0.916307 -1.28225 0
M  V30 6664 C 634.043 1.19425 -1.05876 0
M  V30 6665 C 634.243 2.005 0.2005 0
M  V30 6666 O 633.299 2.35806 0.902873 0
M  V30 6667 C 634.612 1.93133 -2.30478 0
M  V30 6668 C 636.16 2.06026 -2.35632 0
M  V30 6669 C 636.635 2.83141 -3.59994 0
M  V30 6670 N 638.126 2.90704 -3.60618 0
M  V30 6671 C 638.861 3.50865 -4.53521 0
M  V30 6672 N 638.357 4.12327 -5.56739 0
M  V30 6673 N 640.15 3.48379 -4.41122 0
M  V30 6674 H 632.301 0.37496 -2.09064 0
M  V30 6675 H 634.564 0.228531 -0.920042 0
M  V30 6676 H 634.27 1.40985 -3.22205 0
M  V30 6677 H 634.144 2.93696 -2.36691 0
M  V30 6678 H 636.531 2.57355 -1.44404 0
M  V30 6679 H 636.612 1.04647 -2.33415 0
M  V30 6680 H 636.256 2.32492 -4.51564 0
M  V30 6681 H 636.186 3.84829 -3.59464 0
M  V30 6682 H 638.677 2.47034 -2.85977 0
M  V30 6683 H 638.99 4.56205 -6.23776 0
M  V30 6684 H 637.335 4.10839 -5.60568 0
M  V30 6685 H 640.526 2.99572 -3.59686 0
M  V30 6686 H 640.699 3.94974 -5.13712 0
M  V30 6687 N 634.105 1.10431 1.1244 0
M  V30 6688 C 635.345 0.856518 1.85589 0
M  V30 6689 C 635.709 -0.606905 1.82156 0
M  V30 6690 O 636.91 -0.97105 2.50647 0
M  V30 6691 C 635.181 1.38977 3.29272 0
M  V30 6692 S 636.74 1.27739 4.19795 0
M  V30 6693 H 633.558 0.309509 0.640098 0
M  V30 6694 H 636.16 1.40975 1.35449 0
M  V30 6695 H 634.864 2.44887 3.2933 0
M  V30 6696 H 634.395 0.833112 3.84477 0
M  V30 6697 H 636.41 0.235051 4.95643 0
M  V30 6698 O 635.622 -1.24743 1.02574 0
M  V30 6699 H 636.313 -1.80996 0.689934 0
M  V30 END ATOM
M  V30 BEGIN BOND
M  V30 END BOND
M  V30 END CTAB
M  END
$$$$
